# Generated by pormake.
# Topology anh, (6,3)-cn, num edge types: 1
# Building blocks:
#     Node 0, Type 0, BuildingBlock: CUKXOW_clean_sbu_0, # of connection points: 6
#     Node 1, Type 0, BuildingBlock: CUKXOW_clean_sbu_0, # of connection points: 6
#     Node 2, Type 0, BuildingBlock: CUKXOW_clean_sbu_0, # of connection points: 6
#     Node 3, Type 1, BuildingBlock: PAMTOO_clean_linker_0, # of connection points: 3
#     Node 4, Type 1, BuildingBlock: PAMTOO_clean_linker_0, # of connection points: 3
#     Node 5, Type 1, BuildingBlock: PAMTOO_clean_linker_0, # of connection points: 3
#     Node 6, Type 1, BuildingBlock: PAMTOO_clean_linker_0, # of connection points: 3
#     Node 7, Type 1, BuildingBlock: PAMTOO_clean_linker_0, # of connection points: 3
#     Node 8, Type 1, BuildingBlock: PAMTOO_clean_linker_0, # of connection points: 3
#     Edge 9, Type (0, 1), BuildingBlock: ZUJKAS_clean_linker_0, # of connection points: 2
#     Edge 10, Type (0, 1), BuildingBlock: ZUJKAS_clean_linker_0, # of connection points: 2
#     Edge 11, Type (0, 1), BuildingBlock: ZUJKAS_clean_linker_0, # of connection points: 2
#     Edge 12, Type (0, 1), BuildingBlock: ZUJKAS_clean_linker_0, # of connection points: 2
#     Edge 13, Type (0, 1), BuildingBlock: ZUJKAS_clean_linker_0, # of connection points: 2
#     Edge 14, Type (0, 1), BuildingBlock: ZUJKAS_clean_linker_0, # of connection points: 2
#     Edge 15, Type (0, 1), BuildingBlock: ZUJKAS_clean_linker_0, # of connection points: 2
#     Edge 16, Type (0, 1), BuildingBlock: ZUJKAS_clean_linker_0, # of connection points: 2
#     Edge 17, Type (0, 1), BuildingBlock: ZUJKAS_clean_linker_0, # of connection points: 2
#     Edge 18, Type (0, 1), BuildingBlock: ZUJKAS_clean_linker_0, # of connection points: 2
#     Edge 19, Type (0, 1), BuildingBlock: ZUJKAS_clean_linker_0, # of connection points: 2
#     Edge 20, Type (0, 1), BuildingBlock: ZUJKAS_clean_linker_0, # of connection points: 2
#     Edge 21, Type (0, 1), BuildingBlock: ZUJKAS_clean_linker_0, # of connection points: 2
#     Edge 22, Type (0, 1), BuildingBlock: ZUJKAS_clean_linker_0, # of connection points: 2
#     Edge 23, Type (0, 1), BuildingBlock: ZUJKAS_clean_linker_0, # of connection points: 2
#     Edge 24, Type (0, 1), BuildingBlock: ZUJKAS_clean_linker_0, # of connection points: 2
#     Edge 25, Type (0, 1), BuildingBlock: ZUJKAS_clean_linker_0, # of connection points: 2
#     Edge 26, Type (0, 1), BuildingBlock: ZUJKAS_clean_linker_0, # of connection points: 2
# Relax obj value: 0.105
# Max RMSD: 0.154
# Mean RMSD: 0.126
data_MOF--net-anh--node1-CUKXOW_clean_sbu_0--node2-PAMTOO_clean_linker_0--edge1-ZUJKAS_clean_linker_0
_symmetry_space_group_name_H-M    P1
_symmetry_Int_Tables_number       1
_symmetry_cell_setting            triclinic
loop_
_symmetry_equiv_pos_as_xyz
'x, y, z'
_cell_length_a     37.844906
_cell_length_b     36.898661
_cell_length_c     62.869021
_cell_angle_alpha  91.64534
_cell_angle_beta   91.997724
_cell_angle_gamma 114.6148
loop_
_atom_site_label
_atom_site_type_symbol
_atom_site_fract_x
_atom_site_fract_y
_atom_site_fract_z
_atom_type_partial_charge
Tb0 Tb 0.08737 0.53245 0.15857 0.0
C1 C 0.06148 0.49725 0.20387 0.0
Tb2 Tb 0.03346 0.44227 0.16118 0.0
O3 O 0.03905 0.54369 0.14468 0.0
O4 O 0.02755 0.49715 0.1648 0.0
O5 O 0.08328 0.52849 0.19301 0.0
C6 C 0.96857 0.37523 0.16131 0.0
O7 O 0.03826 0.46197 0.19465 0.0
C8 C 0.10796 0.45371 0.15976 0.0
C9 C 0.06632 0.47659 0.11757 0.0
O10 O 0.99954 0.38381 0.17364 0.0
O11 O 0.97424 0.40431 0.14877 0.0
O12 O 0.07895 0.41891 0.16081 0.0
O13 O 0.09307 0.47853 0.15955 0.0
O14 O 0.03568 0.45075 0.12696 0.0
O15 O 0.09433 0.50741 0.12812 0.0
C16 C 0.14745 0.60412 0.16159 0.0
O17 O 0.11826 0.59314 0.14774 0.0
O18 O 0.14273 0.57484 0.17376 0.0
C19 C 1.01161 0.51292 0.15237 0.0
Tb20 Tb 0.53608 0.99462 0.5057 0.0
C21 C 0.57589 0.01918 0.46211 0.0
Tb22 Tb 0.62367 0.05891 0.50565 0.0
O23 O 0.51707 0.03879 0.49285 0.0
O24 O 0.56824 0.05693 0.51175 0.0
O25 O 0.54839 0.99097 0.4724 0.0
C26 C 0.68296 0.13005 0.50484 0.0
O27 O 0.6049 0.05045 0.4719 0.0
C28 C 0.61756 0.98472 0.50287 0.0
C29 C 0.58584 0.02827 0.54937 0.0
O30 O 0.65056 0.11851 0.4934 0.0
O31 O 0.68219 0.10133 0.51661 0.0
O32 O 0.65058 0.0159 0.50205 0.0
O33 O 0.59213 0.99772 0.50502 0.0
O34 O 0.61309 0.05754 0.53949 0.0
O35 O 0.55592 0.9985 0.53913 0.0
C36 C 0.46948 0.93105 0.50967 0.0
O37 O 0.47815 0.96641 0.51819 0.0
O38 O 0.49839 0.93145 0.49896 0.0
C39 C 0.54794 0.06924 0.5004 0.0
Tb40 Tb 0.56321 0.54186 0.82442 0.0
C41 C 0.59865 0.54128 0.87052 0.0
Tb42 Tb 0.65394 0.55876 0.83165 0.0
O43 O 0.54102 0.47567 0.82242 0.0
O44 O 0.59885 0.51173 0.82608 0.0
O45 O 0.57231 0.54879 0.85904 0.0
C46 C 0.71827 0.54695 0.83172 0.0
O47 O 0.62923 0.53784 0.86226 0.0
C48 C 0.6417 0.62452 0.83315 0.0
C49 C 0.61943 0.56309 0.78571 0.0
O50 O 0.7094 0.56592 0.8469 0.0
O51 O 0.69077 0.53431 0.81681 0.0
O52 O 0.67605 0.62467 0.83585 0.0
O53 O 0.6183 0.58889 0.8297 0.0
O54 O 0.64726 0.55828 0.79712 0.0
O55 O 0.58774 0.56356 0.79397 0.0
C56 C 0.49672 0.54724 0.81514 0.0
O57 O 0.51719 0.53804 0.80169 0.0
O58 O 0.5138 0.5537 0.8341 0.0
C59 C 0.57536 0.47585 0.82461 0.0
H60 H 0.633 0.05822 0.23665 0.0
H61 H 0.51921 0.96251 0.22497 0.0
H62 H 0.58372 0.02409 0.1725 0.0
H63 H 0.49329 0.99292 0.16319 0.0
C64 C 0.48742 0.97684 0.17826 0.0
O65 O 0.51841 0.9678 0.18366 0.0
H66 H 0.48358 0.99674 0.19076 0.0
C67 C 0.60966 0.03883 0.22562 0.0
C68 C 0.613 0.04438 0.20363 0.0
C69 C 0.57593 0.00957 0.23359 0.0
C70 C 0.54527 0.9856 0.21922 0.0
C71 C 0.54807 0.99118 0.1973 0.0
C72 C 0.58179 0.02047 0.18952 0.0
H73 H 0.60753 0.61709 0.55955 0.0
H74 H 0.61111 0.50267 0.55036 0.0
H75 H 0.59281 0.56286 0.49639 0.0
H76 H 0.55124 0.47159 0.48886 0.0
C77 C 0.56387 0.46571 0.5039 0.0
O78 O 0.59889 0.49799 0.50905 0.0
H79 H 0.54277 0.4618 0.51651 0.0
C80 C 0.60598 0.5926 0.54903 0.0
C81 C 0.59945 0.594 0.52702 0.0
C82 C 0.6105 0.56002 0.55763 0.0
C83 C 0.60785 0.52814 0.54397 0.0
C84 C 0.60145 0.5291 0.52195 0.0
C85 C 0.59774 0.56226 0.51343 0.0
H86 H 0.03059 0.4705 0.89196 0.0
H87 H 0.11807 0.42534 0.88502 0.0
H88 H 0.0681 0.45521 0.82989 0.0
H89 H 0.07929 0.38608 0.82196 0.0
C90 C 0.10565 0.39194 0.83239 0.0
O91 O 0.11725 0.4279 0.84368 0.0
H92 H 0.09878 0.36726 0.84352 0.0
C93 C 0.04917 0.46223 0.88205 0.0
C94 C 0.04646 0.46505 0.85989 0.0
C95 C 0.07522 0.44849 0.89151 0.0
C96 C 0.09719 0.43543 0.87827 0.0
C97 C 0.0939 0.43733 0.85614 0.0
C98 C 0.06912 0.4526 0.84701 0.0
H99 H 0.99625 0.46511 0.42865 0.0
H100 H 0.10081 0.57327 0.44012 0.0
H101 H 0.03291 0.51603 0.49241 0.0
H102 H 0.07173 0.60434 0.5016 0.0
C103 C 0.08896 0.61022 0.48711 0.0
O104 O 0.09443 0.5767 0.48124 0.0
H105 H 0.07234 0.61778 0.47433 0.0
C106 C 1.01679 0.48819 0.43951 0.0
C107 C 1.01061 0.48656 0.46144 0.0
C108 C 0.04928 0.5192 0.43151 0.0
C109 C 0.07541 0.54913 0.4458 0.0
C110 C 0.06929 0.5478 0.46765 0.0
C111 C 0.03726 0.51649 0.47546 0.0
H112 H 0.60513 0.97268 0.77438 0.0
H113 H 0.61569 0.09211 0.78666 0.0
H114 H 0.62379 0.02258 0.83872 0.0
H115 H 0.59214 0.08764 0.85302 0.0
C116 C 0.59534 0.09786 0.83645 0.0
O117 O 0.62576 0.09173 0.82797 0.0
H118 H 0.56741 0.0802 0.8272 0.0
C119 C 0.6092 0.99723 0.78554 0.0
C120 C 0.61465 0.99323 0.8074 0.0
C121 C 0.60939 0.0326 0.77784 0.0
C122 C 0.61536 0.06453 0.79231 0.0
C123 C 0.62008 0.06071 0.81423 0.0
C124 C 0.61954 0.02504 0.82179 0.0
H125 H 0.63799 0.4918 0.09573 0.0
H126 H 0.5296 0.50147 0.10314 0.0
H127 H 0.59222 0.48582 0.158 0.0
H128 H 0.49748 0.4463 0.16146 0.0
C129 C 0.49359 0.4608 0.14685 0.0
O130 O 0.52809 0.49401 0.14403 0.0
H131 H 0.48716 0.43841 0.13335 0.0
C132 C 0.61558 0.49229 0.10587 0.0
C133 C 0.61941 0.48818 0.12788 0.0
C134 C 0.58355 0.49724 0.09677 0.0
C135 C 0.55433 0.49734 0.1099 0.0
C136 C 0.55687 0.49285 0.13188 0.0
C137 C 0.58982 0.48875 0.14098 0.0
H138 H 0.13788 0.39859 0.16166 0.0
H139 H 0.20525 0.40769 0.15902 0.0
H140 H 0.24061 0.53351 0.1512 0.0
H141 H 0.17269 0.52443 0.15418 0.0
H142 H 0.25357 0.43199 0.12717 0.0
H143 H 0.31938 0.53652 0.1973 0.0
H144 H 0.26742 0.50976 0.19253 0.0
H145 H 0.2941 0.5533 0.17801 0.0
C146 C 0.15996 0.42833 0.1595 0.0
C147 C 0.14975 0.46082 0.1583 0.0
C148 C 0.19867 0.4335 0.15794 0.0
C149 C 0.22864 0.47138 0.15517 0.0
C150 C 0.2185 0.50404 0.1538 0.0
H151 H 0.45759 0.48677 0.11561 0.0
H152 H 0.39575 0.49366 0.11682 0.0
C153 C 0.17953 0.49883 0.15541 0.0
C154 C 0.26988 0.47577 0.15327 0.0
H155 H 0.36243 0.52128 0.17626 0.0
C156 C 0.27736 0.45174 0.13786 0.0
C157 C 0.30122 0.5011 0.1673 0.0
C158 C 0.29525 0.52641 0.18486 0.0
C159 C 0.31461 0.45201 0.13621 0.0
C160 C 0.34609 0.47766 0.15007 0.0
C161 C 0.33871 0.50188 0.16543 0.0
C162 C 0.38606 0.47789 0.1497 0.0
C163 C 0.31943 0.42351 0.12009 0.0
C164 C 0.40276 0.46883 0.168 0.0
C165 C 0.43841 0.46544 0.16737 0.0
C166 C 0.4586 0.47123 0.14846 0.0
C167 C 0.44289 0.48221 0.13043 0.0
C168 C 0.4072 0.48566 0.13106 0.0
H169 H 0.29102 0.39911 0.11463 0.0
H170 H 0.33314 0.44001 0.10595 0.0
H171 H 0.33841 0.40998 0.1268 0.0
H172 H 0.38748 0.46287 0.18264 0.0
H173 H 0.44948 0.4568 0.18154 0.0
H174 H 0.75253 0.15715 0.52739 0.0
H175 H 0.80816 0.22182 0.52497 0.0
H176 H 0.74296 0.25559 0.478 0.0
H177 H 0.6871 0.19147 0.48072 0.0
H178 H 0.84815 0.24924 0.4896 0.0
H179 H 0.78748 0.35429 0.5175 0.0
H180 H 0.76423 0.30147 0.5217 0.0
H181 H 0.75781 0.32024 0.49644 0.0
C182 C 0.75001 0.17863 0.51676 0.0
C183 C 0.71573 0.16945 0.50419 0.0
C184 C 0.78171 0.21549 0.5154 0.0
C185 C 0.77948 0.2437 0.50154 0.0
C186 C 0.745 0.23466 0.48917 0.0
H187 H 0.93548 0.4552 0.44518 0.0
H188 H 0.88023 0.39722 0.45713 0.0
C189 C 0.71327 0.1979 0.49058 0.0
C190 C 0.8142 0.28118 0.49867 0.0
H191 H 0.84617 0.38241 0.49854 0.0
C192 C 0.84794 0.27841 0.49185 0.0
C193 C 0.81373 0.31913 0.50159 0.0
C194 C 0.77899 0.32406 0.50991 0.0
C195 C 0.88079 0.3125 0.48708 0.0
C196 C 0.87995 0.35033 0.48946 0.0
C197 C 0.84657 0.35326 0.49672 0.0
C198 C 0.91282 0.38692 0.4834 0.0
C199 C 0.91559 0.30768 0.47873 0.0
C200 C 0.94914 0.40062 0.49451 0.0
C201 C 0.98079 0.43357 0.48766 0.0
C202 C 0.97654 0.45329 0.4696 0.0
C203 C 0.93976 0.44019 0.45894 0.0
C204 C 0.90814 0.40733 0.46583 0.0
H205 H 0.90876 0.27612 0.47402 0.0
H206 H 0.92647 0.32619 0.46476 0.0
H207 H 0.93939 0.3179 0.49134 0.0
H208 H 0.95311 0.38542 0.50826 0.0
H209 H 1.00882 0.4429 0.49613 0.0
H210 H 0.6927 0.70118 0.84181 0.0
H211 H 0.67956 0.7606 0.84227 0.0
H212 H 0.55772 0.68714 0.82745 0.0
H213 H 0.57107 0.62739 0.82654 0.0
H214 H 0.58609 0.7494 0.80203 0.0
H215 H 0.62996 0.80521 0.88556 0.0
H216 H 0.66761 0.79641 0.87294 0.0
H217 H 0.62151 0.7552 0.87656 0.0
C218 C 0.66304 0.69767 0.83886 0.0
C219 C 0.63283 0.65978 0.83422 0.0
C220 C 0.6555 0.73161 0.83935 0.0
C221 C 0.61752 0.7283 0.8354 0.0
C222 C 0.58718 0.69035 0.83082 0.0
H223 H 0.57581 0.94717 0.8399 0.0
H224 H 0.57214 0.88104 0.8485 0.0
C225 C 0.59477 0.65629 0.8303 0.0
C226 C 0.6105 0.76491 0.83423 0.0
H227 H 0.63032 0.85413 0.86054 0.0
C228 C 0.5951 0.77196 0.81497 0.0
C229 C 0.62164 0.79415 0.85122 0.0
C230 C 0.63569 0.78717 0.8728 0.0
C231 C 0.59284 0.80842 0.81179 0.0
C232 C 0.60705 0.83889 0.82815 0.0
C233 C 0.62008 0.83097 0.84789 0.0
C234 C 0.6111 0.87986 0.82436 0.0
C235 C 0.57599 0.81427 0.79074 0.0
C236 C 0.63537 0.90159 0.80859 0.0
C237 C 0.63756 0.93905 0.80374 0.0
C238 C 0.61568 0.95575 0.81465 0.0
C239 C 0.59297 0.93497 0.83126 0.0
C240 C 0.59071 0.89721 0.8361 0.0
H241 H 0.556 0.78529 0.78279 0.0
H242 H 0.55987 0.83322 0.79284 0.0
H243 H 0.59998 0.82926 0.78001 0.0
H244 H 0.65218 0.88921 0.79976 0.0
H245 H 0.65591 0.95474 0.79115 0.0
H246 H 0.97846 0.55453 0.13061 0.0
H247 H 0.91111 0.54667 0.12971 0.0
H248 H 0.88125 0.44731 0.17053 0.0
H249 H 0.94944 0.45611 0.17204 0.0
H250 H 0.84594 0.4898 0.11499 0.0
H251 H 0.83204 0.50934 0.20151 0.0
H252 H 0.87822 0.51955 0.19021 0.0
H253 H 0.84511 0.46906 0.19486 0.0
C254 C 0.95766 0.53103 0.13949 0.0
C255 C 0.96962 0.50607 0.15147 0.0
C256 C 0.91891 0.52651 0.13895 0.0
C257 C 0.89062 0.49682 0.15034 0.0
C258 C 0.90233 0.47122 0.16203 0.0
H259 H 0.64263 0.42959 0.11732 0.0
H260 H 0.70653 0.42927 0.12438 0.0
C261 C 0.94138 0.47595 0.1627 0.0
C262 C 0.84907 0.49252 0.14927 0.0
H263 H 0.77434 0.49044 0.17945 0.0
C264 C 0.83043 0.48991 0.12915 0.0
C265 C 0.82846 0.49325 0.16763 0.0
C266 C 0.84704 0.49834 0.18978 0.0
C267 C 0.79241 0.48796 0.12684 0.0
C268 C 0.77132 0.48742 0.14517 0.0
C269 C 0.78996 0.49032 0.16533 0.0
C270 C 0.73034 0.48462 0.14354 0.0
C271 C 0.7758 0.48782 0.10464 0.0
C272 C 0.72087 0.51425 0.15313 0.0
C273 C 0.6837 0.51392 0.14949 0.0
C274 C 0.6551 0.48391 0.13619 0.0
C275 C 0.66391 0.45309 0.12768 0.0
C276 C 0.70076 0.4532 0.13149 0.0
H277 H 0.79907 0.50021 0.09315 0.0
H278 H 0.75684 0.45665 0.0991 0.0
H279 H 0.75812 0.50545 0.10431 0.0
H280 H 0.74282 0.53875 0.16263 0.0
H281 H 0.6781 0.53838 0.15604 0.0
H282 H 0.40693 0.92762 0.53096 0.0
H283 H 0.34238 0.87193 0.5305 0.0
H284 H 0.38189 0.802 0.48956 0.0
H285 H 0.44665 0.85736 0.49027 0.0
H286 H 0.294 0.83915 0.49498 0.0
H287 H 0.32698 0.7239 0.53486 0.0
H288 H 0.36038 0.77602 0.53619 0.0
H289 H 0.35711 0.74486 0.513 0.0
C290 C 0.40193 0.90014 0.52212 0.0
C291 C 0.43163 0.89665 0.51066 0.0
C292 C 0.36512 0.86842 0.52185 0.0
C293 C 0.35751 0.83271 0.5102 0.0
C294 C 0.38738 0.82899 0.49901 0.0
H295 H 0.13683 0.65679 0.45794 0.0
H296 H 0.20175 0.71143 0.46435 0.0
C297 C 0.42424 0.86068 0.49932 0.0
C298 C 0.31764 0.80047 0.50851 0.0
H299 H 0.26485 0.70155 0.51627 0.0
C300 C 0.28754 0.80913 0.49979 0.0
C301 C 0.30927 0.76149 0.51501 0.0
C302 C 0.34005 0.75101 0.52548 0.0
C303 C 0.24942 0.77956 0.49687 0.0
C304 C 0.2414 0.74017 0.5025 0.0
C305 C 0.27124 0.73172 0.51177 0.0
C306 C 0.20228 0.70724 0.49864 0.0
C307 C 0.21802 0.79079 0.48791 0.0
C308 C 0.18164 0.6862 0.51573 0.0
C309 C 0.14472 0.65502 0.51207 0.0
C310 C 0.12793 0.64459 0.49127 0.0
C311 C 0.14895 0.66508 0.47414 0.0
C312 C 0.18585 0.6962 0.4778 0.0
H313 H 0.22646 0.82341 0.48991 0.0
H314 H 0.21302 0.78247 0.47061 0.0
H315 H 0.1902 0.77476 0.49571 0.0
H316 H 0.19405 0.69404 0.5319 0.0
H317 H 0.12927 0.63901 0.52545 0.0
H318 H 0.64464 0.4723 0.83562 0.0
H319 H 0.65742 0.41228 0.83674 0.0
H320 H 0.53658 0.33923 0.81912 0.0
H321 H 0.52423 0.39897 0.81723 0.0
H322 H 0.62651 0.34714 0.86119 0.0
H323 H 0.5908 0.29935 0.77605 0.0
H324 H 0.59853 0.34854 0.7861 0.0
H325 H 0.55207 0.30694 0.78817 0.0
C326 C 0.62114 0.44349 0.83157 0.0
C327 C 0.58372 0.4403 0.82585 0.0
C328 C 0.62832 0.40921 0.8324 0.0
C329 C 0.59814 0.37129 0.82751 0.0
C330 C 0.56057 0.36818 0.82234 0.0
H331 H 0.56563 0.13704 0.86256 0.0
H332 H 0.57135 0.20543 0.86085 0.0
C333 C 0.55348 0.40233 0.82143 0.0
C334 C 0.60519 0.33465 0.82838 0.0
H335 H 0.59047 0.2492 0.79966 0.0
C336 C 0.61913 0.32594 0.84766 0.0
C337 C 0.59632 0.30732 0.81062 0.0
C338 C 0.58401 0.31619 0.78901 0.0
C339 C 0.62261 0.28975 0.84995 0.0
C340 C 0.61099 0.26117 0.83263 0.0
C341 C 0.59887 0.27078 0.81306 0.0
C342 C 0.60969 0.22056 0.83458 0.0
C343 C 0.6387 0.28258 0.87091 0.0
C344 C 0.62841 0.20579 0.82003 0.0
C345 C 0.62472 0.16651 0.82082 0.0
C346 C 0.60258 0.14134 0.83637 0.0
C347 C 0.58375 0.15613 0.85083 0.0
C348 C 0.5872 0.19529 0.84993 0.0
H349 H 0.65791 0.31117 0.87952 0.0
H350 H 0.61426 0.26643 0.88117 0.0
H351 H 0.65547 0.26435 0.8686 0.0
H352 H 0.64548 0.22451 0.80785 0.0
H353 H 0.63886 0.15582 0.80911 0.0
H354 H 0.55685 0.91919 0.51643 0.0
H355 H 0.55092 0.85032 0.51635 0.0
H356 H 0.65985 0.88694 0.48563 0.0
H357 H 0.66625 0.95575 0.48625 0.0
H358 H 0.54731 0.79553 0.48574 0.0
H359 H 0.68174 0.83625 0.53698 0.0
H360 H 0.66002 0.87069 0.53239 0.0
H361 H 0.69031 0.86294 0.51293 0.0
C362 C 0.57918 0.91231 0.50942 0.0
C363 C 0.61198 0.94266 0.50135 0.0
C364 C 0.5759 0.87304 0.50946 0.0
C365 C 0.60536 0.86352 0.5014 0.0
C366 C 0.6373 0.89366 0.4925 0.0
H367 H 0.64051 0.64333 0.49638 0.0
H368 H 0.63987 0.70749 0.48727 0.0
C369 C 0.64081 0.93292 0.49272 0.0
C370 C 0.60325 0.82242 0.50277 0.0
H371 H 0.65274 0.77005 0.52202 0.0
C372 C 0.57036 0.78999 0.49369 0.0
C373 C 0.63323 0.81505 0.51325 0.0
C374 C 0.66811 0.84801 0.52463 0.0
C375 C 0.56686 0.75058 0.49468 0.0
C376 C 0.59699 0.74344 0.50496 0.0
C377 C 0.62994 0.77575 0.51387 0.0
C378 C 0.59388 0.70252 0.50807 0.0
C379 C 0.53106 0.71677 0.48471 0.0
C380 C 0.56794 0.67839 0.52255 0.0
C381 C 0.56853 0.64212 0.52789 0.0
C382 C 0.59491 0.62917 0.51874 0.0
C383 C 0.61964 0.65245 0.50348 0.0
C384 C 0.6194 0.68909 0.49835 0.0
H385 H 0.5142 0.72759 0.4738 0.0
H386 H 0.53913 0.69523 0.47571 0.0
H387 H 0.51196 0.70055 0.49747 0.0
H388 H 0.54838 0.68842 0.53044 0.0
H389 H 0.54918 0.62472 0.5397 0.0
H390 H 0.73802 0.50762 0.80063 0.0
H391 H 0.79833 0.4985 0.79892 0.0
H392 H 0.84029 0.56534 0.8589 0.0
H393 H 0.77996 0.57482 0.86067 0.0
H394 H 0.89574 0.58473 0.82333 0.0
H395 H 0.82236 0.42358 0.84065 0.0
H396 H 0.80069 0.4408 0.81959 0.0
H397 H 0.80113 0.45816 0.84659 0.0
C398 C 0.76015 0.5204 0.81343 0.0
C399 C 0.75446 0.54165 0.83087 0.0
C400 C 0.79448 0.51523 0.8124 0.0
C401 C 0.8234 0.53115 0.82882 0.0
C402 C 0.81812 0.55298 0.84608 0.0
H403 H 0.0343 0.52918 0.87422 0.0
H404 H 0.98315 0.54857 0.86195 0.0
C405 C 0.78372 0.55814 0.84714 0.0
C406 C 0.85844 0.52338 0.82853 0.0
H407 H 0.8894 0.45009 0.83593 0.0
C408 C 0.89451 0.55529 0.8259 0.0
C409 C 0.85634 0.48483 0.83168 0.0
C410 C 0.81816 0.4498 0.83493 0.0
C411 C 0.92897 0.54972 0.82678 0.0
C412 C 0.92704 0.51147 0.83084 0.0
C413 C 0.89073 0.47934 0.8327 0.0
C414 C 0.96209 0.50454 0.83561 0.0
C415 C 0.96701 0.58483 0.82351 0.0
C416 C 0.96724 0.47337 0.82486 0.0
C417 C 0.99588 0.46157 0.83217 0.0
C418 C 1.01967 0.48072 0.8504 0.0
C419 C 1.01589 0.51342 0.86036 0.0
C420 C 0.98714 0.52502 0.85313 0.0
H421 H 0.96258 0.60676 0.81325 0.0
H422 H 0.97975 0.60027 0.83917 0.0
H423 H 0.98817 0.57523 0.81617 0.0
H424 H 0.94792 0.45701 0.81141 0.0
H425 H 0.99802 0.43617 0.82423 0.0
H426 H 0.20691 0.63138 0.19179 0.0
H427 H 0.26315 0.69626 0.19413 0.0
H428 H 0.22068 0.72927 0.13661 0.0
H429 H 0.16382 0.66481 0.13456 0.0
H430 H 0.31978 0.7279 0.16633 0.0
H431 H 0.24187 0.82528 0.176 0.0
H432 H 0.2184 0.772 0.17867 0.0
H433 H 0.22555 0.79231 0.15268 0.0
C434 C 0.20947 0.65265 0.17976 0.0
C435 C 0.18102 0.64332 0.16307 0.0
C436 C 0.24158 0.68963 0.18108 0.0
C437 C 0.2458 0.71787 0.16574 0.0
C438 C 0.21753 0.70837 0.14892 0.0
H439 H 0.43954 0.9439 0.14235 0.0
H440 H 0.38041 0.88107 0.13887 0.0
C441 C 0.18523 0.67147 0.14769 0.0
C442 C 0.28053 0.75662 0.16699 0.0
H443 H 0.30956 0.85769 0.17024 0.0
C444 C 0.31751 0.75625 0.16726 0.0
C445 C 0.27752 0.79361 0.16822 0.0
C446 C 0.23872 0.79597 0.16909 0.0
C447 C 0.35151 0.79185 0.16858 0.0
C448 C 0.34841 0.82866 0.16967 0.0
C449 C 0.31161 0.82923 0.16927 0.0
C450 C 0.38333 0.86688 0.17183 0.0
C451 C 0.39064 0.79011 0.16877 0.0
C452 C 0.404 0.87959 0.19157 0.0
C453 C 0.43742 0.91541 0.19362 0.0
C454 C 0.45078 0.9389 0.17593 0.0
C455 C 0.42982 0.92625 0.1562 0.0
C456 C 0.39617 0.89052 0.1542 0.0
H457 H 0.38806 0.75941 0.16522 0.0
H458 H 0.40915 0.81025 0.15691 0.0
H459 H 0.40565 0.80062 0.18471 0.0
H460 H 0.39429 0.8617 0.20534 0.0
H461 H 0.45301 0.9247 0.20899 0.0
H462 H 0.50956 0.09991 0.47418 0.0
H463 H 0.51862 0.16954 0.47293 0.0
H464 H 0.61002 0.20326 0.52237 0.0
H465 H 0.60168 0.13389 0.52325 0.0
H466 H 0.50759 0.21356 0.50393 0.0
H467 H 0.66091 0.28922 0.48158 0.0
H468 H 0.63422 0.23565 0.47962 0.0
H469 H 0.6554 0.26085 0.50489 0.0
C470 C 0.53193 0.12232 0.48456 0.0
C471 C 0.555 0.11157 0.49874 0.0
C472 C 0.5371 0.16209 0.48385 0.0
C473 C 0.56539 0.19191 0.49734 0.0
C474 C 0.58872 0.18116 0.5114 0.0
H475 H 0.6041 0.43732 0.53105 0.0
H476 H 0.60673 0.37185 0.52903 0.0
C477 C 0.58374 0.14142 0.512 0.0
C478 C 0.56829 0.23346 0.49775 0.0
H479 H 0.63097 0.33138 0.4934 0.0
C480 C 0.53455 0.23922 0.50146 0.0
C481 C 0.60355 0.26712 0.4947 0.0
C482 C 0.64048 0.26296 0.48978 0.0
C483 C 0.53506 0.2775 0.50234 0.0
C484 C 0.57019 0.31106 0.49927 0.0
C485 C 0.60409 0.30554 0.49575 0.0
C486 C 0.57178 0.35198 0.49949 0.0
C487 C 0.49809 0.28186 0.50687 0.0
C488 C 0.55191 0.36273 0.48336 0.0
C489 C 0.5506 0.40007 0.48442 0.0
C490 C 0.5694 0.42754 0.50155 0.0
C491 C 0.58994 0.41701 0.51749 0.0
C492 C 0.5914 0.37966 0.51637 0.0
H493 H 0.47576 0.25429 0.51314 0.0
H494 H 0.50409 0.30713 0.51856 0.0
H495 H 0.48579 0.28827 0.4919 0.0
H496 H 0.5367 0.34185 0.47017 0.0
H497 H 0.5341 0.40713 0.47208 0.0
H498 H 0.44294 0.54674 0.84294 0.0
H499 H 0.37292 0.52311 0.83482 0.0
H500 H 0.39064 0.51264 0.76792 0.0
H501 H 0.46058 0.53571 0.77596 0.0
H502 H 0.32469 0.54532 0.80654 0.0
H503 H 0.32293 0.3971 0.78449 0.0
H504 H 0.36445 0.43647 0.7982 0.0
H505 H 0.35439 0.43916 0.77033 0.0
C506 C 0.43198 0.54039 0.82647 0.0
C507 C 0.45683 0.54239 0.8101 0.0
C508 C 0.39208 0.52689 0.82185 0.0
C509 C 0.37675 0.5154 0.80083 0.0
C510 C 0.40198 0.52072 0.78426 0.0
H511 H 0.12223 0.42373 0.79341 0.0
H512 H 0.18645 0.45028 0.77815 0.0
C513 C 0.44183 0.53403 0.78888 0.0
C514 C 0.3343 0.49397 0.79684 0.0
H515 H 0.26271 0.40008 0.78732 0.0
C516 C 0.31095 0.51378 0.80187 0.0
C517 C 0.31681 0.45276 0.79083 0.0
C518 C 0.34077 0.42987 0.78576 0.0
C519 C 0.27046 0.49295 0.80228 0.0
C520 C 0.2531 0.45136 0.79721 0.0
C521 C 0.27626 0.43201 0.79096 0.0
C522 C 0.21245 0.42675 0.80213 0.0
C523 C 0.24694 0.51501 0.80966 0.0
C524 C 0.20544 0.40248 0.81967 0.0
C525 C 0.16888 0.38701 0.82822 0.0
C526 C 0.13885 0.39533 0.81917 0.0
C527 C 0.14488 0.41641 0.80039 0.0
C528 C 0.18153 0.43188 0.79182 0.0
H529 H 0.26564 0.54611 0.81551 0.0
H530 H 0.22773 0.51617 0.79621 0.0
H531 H 0.22819 0.4992 0.82265 0.0
H532 H 0.22907 0.39831 0.82785 0.0
H533 H 0.16504 0.3715 0.84292 0.0
H534 H 0.95462 0.31279 0.18661 0.0
H535 H 0.89281 0.25487 0.19018 0.0
H536 H 0.83783 0.29925 0.14269 0.0
H537 H 0.89986 0.35712 0.13886 0.0
H538 H 0.82442 0.25895 0.20275 0.0
H539 H 0.80234 0.18147 0.12296 0.0
H540 H 0.84899 0.21909 0.13285 0.0
H541 H 0.81186 0.23343 0.12286 0.0
C542 C 0.92946 0.30992 0.17675 0.0
C543 C 0.93192 0.33927 0.16243 0.0
C544 C 0.89421 0.27689 0.1788 0.0
C545 C 0.86088 0.27256 0.16653 0.0
C546 C 0.86339 0.30162 0.152 0.0
H547 H 0.6193 0.09824 0.17317 0.0
H548 H 0.6789 0.15356 0.16277 0.0
C549 C 0.89873 0.33471 0.14991 0.0
C550 C 0.82311 0.23897 0.17009 0.0
H551 H 0.75102 0.15489 0.14647 0.0
C552 C 0.80839 0.23618 0.19045 0.0
C553 C 0.80214 0.20956 0.15394 0.0
C554 C 0.81716 0.21068 0.13195 0.0
C555 C 0.77336 0.20463 0.19516 0.0
C556 C 0.75283 0.17472 0.17918 0.0
C557 C 0.767 0.17787 0.15867 0.0
C558 C 0.71725 0.13937 0.18387 0.0
C559 C 0.75847 0.20366 0.2172 0.0
C560 C 0.71938 0.11253 0.19864 0.0
C561 C 0.68559 0.08101 0.20455 0.0
C562 C 0.64899 0.07564 0.19573 0.0
C563 C 0.64709 0.10154 0.18018 0.0
C564 C 0.68103 0.13318 0.17428 0.0
H565 H 0.77205 0.23342 0.22573 0.0
H566 H 0.72637 0.19344 0.21646 0.0
H567 H 0.76559 0.18243 0.22666 0.0
H568 H 0.7472 0.11641 0.2059 0.0
H569 H 0.68806 0.06107 0.21624 0.0
H570 H 1.00887 0.44524 0.08633 0.0
H571 H 1.01649 0.4363 0.04834 0.0
H572 H 0.14093 0.48121 0.06006 0.0
H573 H 0.13348 0.49254 0.09782 0.0
H574 H 0.12813 0.51355 0.02771 0.0
H575 H 0.03381 0.35288 0.01578 0.0
H576 H 1.00648 0.37818 0.02639 0.0
H577 H 0.04702 0.37723 0.04197 0.0
C578 C 0.03776 0.45293 0.08074 0.0
C579 C 0.07059 0.46963 0.09487 0.0
C580 C 0.0421 0.44741 0.05908 0.0
C581 C 0.07923 0.45712 0.05135 0.0
C582 C 0.11198 0.47333 0.06562 0.0
H583 H 0.08842 0.39466 0.91638 0.0
H584 H 0.09591 0.39682 0.95528 0.0
C585 C 0.10773 0.47987 0.08716 0.0
C586 C 0.08414 0.45316 0.0282 0.0
H587 H 0.0466 0.39102 0.98401 0.0
C588 C 0.11073 0.48646 0.01825 0.0
C589 C 0.06228 0.41759 0.01581 0.0
C590 C 0.03618 0.37937 0.02563 0.0
C591 C 0.11469 0.48584 0.99619 0.0
C592 C 0.09009 0.4516 0.98358 0.0
C593 C 0.06495 0.41757 0.99361 0.0
C594 C 0.08814 0.45136 0.95999 0.0
C595 C 0.14528 0.52197 0.98673 0.0
C596 C 0.08118 0.48116 0.94971 0.0
C597 C 0.07793 0.48059 0.92757 0.0
C598 C 0.08024 0.44942 0.91511 0.0
C599 C 0.08695 0.41936 0.92543 0.0
C600 C 0.09093 0.42038 0.94768 0.0
H601 H 0.17038 0.53756 0.99831 0.0
H602 H 0.15622 0.51384 0.97201 0.0
H603 H 0.13264 0.54339 0.98283 0.0
H604 H 0.07774 0.50473 0.95882 0.0
H605 H 0.07354 0.50471 0.92026 0.0
H606 H 0.52253 0.95951 0.43576 0.0
H607 H 0.51975 0.95419 0.39685 0.0
H608 H 0.62229 0.065 0.39603 0.0
H609 H 0.6252 0.07096 0.43489 0.0
H610 H 0.56135 0.06008 0.3676 0.0
H611 H 0.59265 0.9261 0.35925 0.0
H612 H 0.55305 0.92067 0.37573 0.0
H613 H 0.60166 0.95538 0.38399 0.0
C614 C 0.5446 0.98275 0.42735 0.0
C615 C 0.57418 0.01563 0.43852 0.0
C616 C 0.54305 0.97951 0.4051 0.0
C617 C 0.57111 0.00893 0.3936 0.0
C618 C 0.60046 0.04189 0.40464 0.0
H619 H 0.63142 0.01007 0.26278 0.0
H620 H 0.62792 0.00821 0.30154 0.0
C621 C 0.60207 0.04518 0.42688 0.0
C622 C 0.5695 1.00597 0.37003 0.0
H623 H 0.57625 0.9499 0.32751 0.0
C624 C 0.56452 0.03597 0.35881 0.0
C625 C 0.57399 0.97463 0.35867 0.0
C626 C 0.58098 0.94249 0.36997 0.0
C627 C 0.56389 0.0355 0.33648 0.0
C628 C 0.5678 1.00385 0.3251 0.0
C629 C 0.57285 0.97387 0.33631 0.0
C630 C 0.56868 1.00253 0.30158 0.0
C631 C 0.56009 0.06943 0.32526 0.0
C632 C 0.5362 0.99905 0.28877 0.0
C633 C 0.53817 1.00033 0.26662 0.0
C634 C 0.57267 1.00503 0.25693 0.0
C635 C 0.60467 1.0071 0.2698 0.0
C636 C 0.60264 1.00577 0.29192 0.0
H637 H 0.5659 0.09549 0.33636 0.0
H638 H 0.58047 0.07926 0.31216 0.0
H639 H 0.53002 0.05918 0.31821 0.0
H640 H 0.50953 0.99593 0.29594 0.0
H641 H 0.5131 0.99884 0.25716 0.0
H642 H 0.68191 0.57022 0.76252 0.0
H643 H 0.68635 0.57287 0.72383 0.0
H644 H 0.5697 0.56552 0.71744 0.0
H645 H 0.5652 0.56375 0.75599 0.0
H646 H 0.64226 0.51742 0.69319 0.0
H647 H 0.62831 0.65915 0.6817 0.0
H648 H 0.63792 0.64433 0.7076 0.0
H649 H 0.58905 0.62452 0.69592 0.0
C650 C 0.65734 0.56964 0.75292 0.0
C651 C 0.62328 0.56703 0.76242 0.0
C652 C 0.65992 0.57107 0.7308 0.0
C653 C 0.62858 0.56998 0.71778 0.0
C654 C 0.5946 0.56739 0.7272 0.0
H655 H 0.57336 0.49968 0.5841 0.0
H656 H 0.58108 0.50171 0.62303 0.0
C657 C 0.59205 0.56621 0.74929 0.0
C658 C 0.63065 0.56984 0.69427 0.0
H659 H 0.61866 0.61686 0.65049 0.0
C660 C 0.63749 0.53938 0.68384 0.0
C661 C 0.62499 0.59884 0.68212 0.0
C662 C 0.62006 0.63379 0.69242 0.0
C663 C 0.63766 0.53644 0.66152 0.0
C664 C 0.62989 0.56419 0.64934 0.0
C665 C 0.62419 0.59532 0.65982 0.0
C666 C 0.62715 0.56154 0.6257 0.0
C667 C 0.6465 0.50388 0.65127 0.0
C668 C 0.65009 0.59459 0.61427 0.0
C669 C 0.64534 0.59365 0.59212 0.0
C670 C 0.61758 0.55959 0.58094 0.0
C671 C 0.59529 0.52611 0.59231 0.0
C672 C 0.5998 0.52721 0.61453 0.0
H673 H 0.66339 0.49358 0.66247 0.0
H674 H 0.61877 0.4779 0.64661 0.0
H675 H 0.66318 0.51411 0.63678 0.0
H676 H 0.67133 0.6214 0.62255 0.0
H677 H 0.66313 0.61975 0.58371 0.0
H678 H 0.53836 0.97321 0.57596 0.0
H679 H 0.54167 0.97686 0.61493 0.0
H680 H 0.6418 0.08992 0.61523 0.0
H681 H 0.63873 0.08684 0.57633 0.0
H682 H 0.60603 0.98397 0.64268 0.0
H683 H 0.56606 0.11188 0.65414 0.0
H684 H 0.55702 0.08338 0.62913 0.0
H685 H 0.60516 0.11992 0.6368 0.0
C686 C 0.56106 0.99893 0.58427 0.0
C687 C 0.58819 0.02981 0.57297 0.0
C688 C 0.56288 1.00094 0.60654 0.0
C689 C 0.59159 0.03394 0.61789 0.0
C690 C 0.61897 0.06457 0.60672 0.0
H691 H 0.65214 0.09404 0.75311 0.0
H692 H 0.6474 0.09548 0.71413 0.0
C693 C 0.61728 0.06257 0.58447 0.0
C694 C 0.59358 0.03573 0.64145 0.0
H695 H 0.5858 0.08865 0.68512 0.0
C696 C 0.60147 1.00674 0.65198 0.0
C697 C 0.58788 0.06568 0.65346 0.0
C698 C 0.57824 0.09686 0.64287 0.0
C699 C 0.60421 1.00709 0.67429 0.0
C700 C 0.59803 0.03673 0.68634 0.0
C701 C 0.59043 0.06594 0.67581 0.0
C702 C 0.59891 0.03744 0.7099 0.0
C703 C 0.61442 0.97614 0.68476 0.0
C704 C 0.57235 1.00501 0.72037 0.0
C705 C 0.575 1.00412 0.74252 0.0
C706 C 0.60407 0.03584 0.75462 0.0
C707 C 0.6294 0.06926 0.74418 0.0
C708 C 0.62683 0.07004 0.72196 0.0
H709 H 0.62837 0.96277 0.67363 0.0
H710 H 0.63437 0.98924 0.69903 0.0
H711 H 0.58743 0.95177 0.68991 0.0
H712 H 0.54997 0.98003 0.71137 0.0
H713 H 0.55463 0.97833 0.75018 0.0
H714 H 0.64139 0.51875 0.89896 0.0
H715 H 0.63315 0.51025 0.93709 0.0
H716 H 0.53635 0.54297 0.933 0.0
H717 H 0.5444 0.55185 0.89477 0.0
H718 H 0.59174 0.58263 0.96703 0.0
H719 H 0.54549 0.41873 0.9656 0.0
H720 H 0.58962 0.44545 0.95236 0.0
H721 H 0.54461 0.44505 0.94195 0.0
C722 C 0.61823 0.52408 0.90608 0.0
C723 C 0.59349 0.5359 0.8937 0.0
C724 C 0.61344 0.51894 0.92789 0.0
C725 C 0.58379 0.52542 0.9378 0.0
C726 C 0.55925 0.53757 0.92561 0.0
H727 H 0.5202 0.4619 0.06875 0.0
H728 H 0.51722 0.46972 0.03018 0.0
C729 C 0.56391 0.54257 0.90374 0.0
C730 C 0.57927 0.52063 0.96103 0.0
H731 H 0.56305 0.45313 -0.00031 0.0
C732 C 0.58515 0.55426 0.97417 0.0
C733 C 0.57017 0.48348 0.97027 0.0
C734 C 0.56173 0.44599 0.95683 0.0
C735 C 0.58356 0.55202 0.99641 0.0
C736 C 0.57624 0.51528 0.00572 0.0
C737 C 0.56897 0.48134 0.99252 0.0
C738 C 0.57747 0.51177 0.02914 0.0
C739 C 0.58977 0.58899 0.00978 0.0
C740 C 0.61236 0.53266 0.04128 0.0
C741 C 0.61414 0.52826 0.06323 0.0
C742 C 0.58108 0.50275 0.07351 0.0
C743 C 0.54605 0.48205 0.06133 0.0
C744 C 0.54435 0.48634 0.0393 0.0
H745 H 0.58466 0.61137 0.00021 0.0
H746 H 0.57022 0.58153 0.0233 0.0
H747 H 0.62029 0.60289 0.01641 0.0
H748 H 0.63841 0.55198 0.03371 0.0
H749 H 0.64146 0.54489 0.07219 0.0
H750 H 0.02946 0.43918 0.23241 0.0
H751 H 0.03164 0.44743 0.27123 0.0
H752 H 0.09745 0.57433 0.26749 0.0
H753 H 0.09569 0.56658 0.22862 0.0
H754 H 0.10658 0.48968 0.29944 0.0
H755 H 0.99806 0.55505 0.30405 0.0
H756 H 0.99903 0.52444 0.28132 0.0
H757 H 0.03559 0.57455 0.28526 0.0
C758 C 0.0443 0.46891 0.23978 0.0
C759 C 0.06232 0.50224 0.22737 0.0
C760 C 0.04558 0.4735 0.26196 0.0
C761 C 0.0645 0.51147 0.2721 0.0
C762 C 0.08248 0.54482 0.25986 0.0
H763 H 0.07393 0.58389 0.40638 0.0
H764 H 0.08204 0.58439 0.3679 0.0
C765 C 0.0815 0.54027 0.23767 0.0
C766 C 0.06574 0.516 0.29556 0.0
H767 H 0.02651 0.54705 0.33643 0.0
C768 C 0.08922 0.50233 0.30759 0.0
C769 C 0.0433 0.53285 0.306 0.0
C770 C 1.01734 0.54747 0.29361 0.0
C771 C 0.09073 0.5049 0.32994 0.0
C772 C 0.0673 0.5206 0.34045 0.0
C773 C 0.04441 0.53501 0.32835 0.0
C774 C 0.06472 0.52072 0.36392 0.0
C775 C 0.11771 0.49118 0.34205 0.0
C776 C 0.05225 0.48479 0.37442 0.0
C777 C 0.04804 0.48447 0.39639 0.0
C778 C 0.05565 0.52004 0.4083 0.0
C779 C 0.0683 0.55607 0.39774 0.0
C780 C 0.0727 0.55637 0.37574 0.0
H781 H 0.14207 0.49244 0.33227 0.0
H782 H 0.13006 0.50961 0.357 0.0
H783 H 0.10124 0.45972 0.34623 0.0
H784 H 0.0451 0.4568 0.36558 0.0
H785 H 0.0387 0.45627 0.40403 0.0
loop_
_geom_bond_atom_site_label_1
_geom_bond_atom_site_label_2
_geom_bond_distance
_geom_bond_site_symmetry_2
_ccdc_geom_bond_type
Tb0 O3 2.453 1_455 S
Tb0 O4 2.596 1_455 S
Tb0 O5 2.374 . S
Tb0 O13 2.343 . S
Tb0 O15 2.353 . S
Tb0 O17 2.427 . S
Tb0 O18 2.513 . S
C1 O5 1.251 1_655 S
C1 O7 1.263 . S
Tb2 O4 2.343 . S
Tb2 O7 2.353 . S
Tb2 O10 2.427 . S
Tb2 O11 2.513 . S
Tb2 O12 2.453 1_655 S
Tb2 O13 2.596 1_655 S
Tb2 O14 2.374 . S
O3 Tb0 2.453 1_655 S
O3 C19 1.245 . S
O4 Tb0 2.596 1_655 S
O4 Tb2 2.343 . S
O4 C19 1.259 . S
O5 Tb0 2.374 . S
O5 C1 1.251 1_455 S
C6 O10 1.275 . S
C6 O11 1.246 . S
O7 C1 1.263 . S
O7 Tb2 2.353 . S
C8 O12 1.245 . S
C8 O13 1.259 . S
C9 O14 1.250 1_455 S
C9 O15 1.263 . S
O10 Tb2 2.427 . S
O10 C6 1.275 . S
O11 Tb2 2.513 . S
O11 C6 1.246 . S
O12 Tb2 2.453 1_455 S
O12 C8 1.245 . S
O13 Tb0 2.343 . S
O13 Tb2 2.596 1_455 S
O13 C8 1.259 . S
O14 Tb2 2.374 . S
O14 C9 1.250 1_655 S
O15 Tb0 2.353 . S
O15 C9 1.263 . S
C16 O17 1.275 . S
C16 O18 1.246 . S
O17 Tb0 2.427 . S
O17 C16 1.275 . S
O18 Tb0 2.513 . S
O18 C16 1.246 . S
C19 O3 1.245 . S
C19 O4 1.259 . S
Tb20 O23 2.453 1_565 S
Tb20 O24 2.596 1_565 S
Tb20 O25 2.374 1_565 S
Tb20 O33 2.343 . S
Tb20 O35 2.353 1_565 S
Tb20 O37 2.427 . S
Tb20 O38 2.513 . S
C21 O25 1.251 . S
C21 O27 1.263 . S
Tb22 O24 2.343 . S
Tb22 O27 2.353 . S
Tb22 O30 2.427 . S
Tb22 O31 2.513 . S
Tb22 O32 2.453 1_545 S
Tb22 O33 2.596 1_545 S
Tb22 O34 2.374 . S
O23 Tb20 2.453 1_545 S
O23 C39 1.245 . S
O24 Tb20 2.596 1_545 S
O24 Tb22 2.343 . S
O24 C39 1.259 . S
O25 Tb20 2.374 1_545 S
O25 C21 1.251 . S
C26 O30 1.275 . S
C26 O31 1.246 . S
O27 C21 1.263 . S
O27 Tb22 2.353 . S
C28 O32 1.245 . S
C28 O33 1.259 . S
C29 O34 1.250 . S
C29 O35 1.263 . S
O30 Tb22 2.427 . S
O30 C26 1.275 . S
O31 Tb22 2.513 . S
O31 C26 1.246 . S
O32 Tb22 2.453 1_565 S
O32 C28 1.245 . S
O33 Tb20 2.343 . S
O33 Tb22 2.596 1_565 S
O33 C28 1.259 . S
O34 Tb22 2.374 . S
O34 C29 1.250 . S
O35 Tb20 2.353 1_545 S
O35 C29 1.263 . S
C36 O37 1.275 . S
C36 O38 1.246 . S
O37 Tb20 2.427 . S
O37 C36 1.275 . S
O38 Tb20 2.513 . S
O38 C36 1.246 . S
C39 O23 1.245 . S
C39 O24 1.259 . S
Tb40 O43 2.453 . S
Tb40 O44 2.596 . S
Tb40 O45 2.374 . S
Tb40 O53 2.343 . S
Tb40 O55 2.353 . S
Tb40 O57 2.427 . S
Tb40 O58 2.513 . S
C41 O45 1.251 . S
C41 O47 1.263 . S
Tb42 O44 2.343 . S
Tb42 O47 2.353 . S
Tb42 O50 2.427 . S
Tb42 O51 2.513 . S
Tb42 O52 2.453 . S
Tb42 O53 2.596 . S
Tb42 O54 2.374 . S
O43 Tb40 2.453 . S
O43 C59 1.245 . S
O44 Tb40 2.596 . S
O44 Tb42 2.343 . S
O44 C59 1.259 . S
O45 Tb40 2.374 . S
O45 C41 1.251 . S
C46 O50 1.275 . S
C46 O51 1.246 . S
O47 C41 1.263 . S
O47 Tb42 2.353 . S
C48 O52 1.245 . S
C48 O53 1.259 . S
C49 O54 1.250 . S
C49 O55 1.263 . S
O50 Tb42 2.427 . S
O50 C46 1.275 . S
O51 Tb42 2.513 . S
O51 C46 1.246 . S
O52 Tb42 2.453 . S
O52 C48 1.245 . S
O53 Tb40 2.343 . S
O53 Tb42 2.596 . S
O53 C48 1.259 . S
O54 Tb42 2.374 . S
O54 C49 1.250 . S
O55 Tb40 2.353 . S
O55 C49 1.263 . S
C56 O57 1.275 . S
C56 O58 1.246 . S
O57 Tb40 2.427 . S
O57 C56 1.275 . S
O58 Tb40 2.513 . S
O58 C56 1.246 . S
C59 O43 1.245 . S
C59 O44 1.259 . S
H60 C67 0.929 . S
H61 C70 0.930 . S
H62 C72 0.929 . S
H63 C64 0.969 . S
C64 H63 0.969 . S
C64 O65 1.550 . S
C64 H66 0.973 . S
O65 C64 1.550 . S
O65 C71 1.412 . S
H66 C64 0.973 . S
C67 H60 0.929 . S
C67 C68 1.400 . S
C67 C69 1.364 . S
C68 C67 1.400 . S
C68 C72 1.377 . S
C69 C67 1.364 . S
C69 C70 1.374 1_545 S
C70 H61 0.930 . S
C70 C69 1.374 1_565 S
C70 C71 1.383 . S
C71 O65 1.412 . S
C71 C70 1.383 . S
C71 C72 1.394 1_565 S
C72 H62 0.929 . S
C72 C68 1.377 . S
C72 C71 1.394 1_545 S
H73 C80 0.929 . S
H74 C83 0.930 . S
H75 C85 0.929 . S
H76 C77 0.969 . S
C77 H76 0.969 . S
C77 O78 1.550 . S
C77 H79 0.973 . S
O78 C77 1.550 . S
O78 C84 1.412 . S
H79 C77 0.973 . S
C80 H73 0.929 . S
C80 C81 1.400 . S
C80 C82 1.364 . S
C81 C80 1.400 . S
C81 C85 1.377 . S
C82 C80 1.364 . S
C82 C83 1.374 . S
C83 H74 0.930 . S
C83 C82 1.374 . S
C83 C84 1.383 . S
C84 O78 1.412 . S
C84 C83 1.383 . S
C84 C85 1.394 . S
C85 H75 0.929 . S
C85 C81 1.377 . S
C85 C84 1.394 . S
H86 C93 0.929 . S
H87 C96 0.930 . S
H88 C98 0.929 . S
H89 C90 0.969 . S
C90 H89 0.969 . S
C90 O91 1.550 . S
C90 H92 0.973 . S
O91 C90 1.550 . S
O91 C97 1.412 . S
H92 C90 0.973 . S
C93 H86 0.929 . S
C93 C94 1.400 . S
C93 C95 1.364 . S
C94 C93 1.400 . S
C94 C98 1.377 . S
C95 C93 1.364 . S
C95 C96 1.374 . S
C96 H87 0.930 . S
C96 C95 1.374 . S
C96 C97 1.383 . S
C97 O91 1.412 . S
C97 C96 1.383 . S
C97 C98 1.394 . S
C98 H88 0.929 . S
C98 C94 1.377 . S
C98 C97 1.394 . S
H99 C106 0.929 . S
H100 C109 0.930 . S
H101 C111 0.929 . S
H102 C103 0.969 . S
C103 H102 0.969 . S
C103 O104 1.550 . S
C103 H105 0.973 . S
O104 C103 1.550 . S
O104 C110 1.412 . S
H105 C103 0.973 . S
C106 H99 0.929 . S
C106 C107 1.400 . S
C106 C108 1.364 1_655 S
C107 C106 1.400 . S
C107 C111 1.377 1_655 S
C108 C106 1.364 1_455 S
C108 C109 1.374 . S
C109 H100 0.930 . S
C109 C108 1.374 . S
C109 C110 1.383 . S
C110 O104 1.412 . S
C110 C109 1.383 . S
C110 C111 1.394 . S
C111 H101 0.929 . S
C111 C107 1.377 1_455 S
C111 C110 1.394 . S
H112 C119 0.929 . S
H113 C122 0.930 . S
H114 C124 0.929 . S
H115 C116 0.969 . S
C116 H115 0.969 . S
C116 O117 1.550 . S
C116 H118 0.973 . S
O117 C116 1.550 . S
O117 C123 1.412 . S
H118 C116 0.973 . S
C119 H112 0.929 . S
C119 C120 1.400 . S
C119 C121 1.364 1_565 S
C120 C119 1.400 . S
C120 C124 1.377 1_565 S
C121 C119 1.364 1_545 S
C121 C122 1.374 . S
C122 H113 0.930 . S
C122 C121 1.374 . S
C122 C123 1.383 . S
C123 O117 1.412 . S
C123 C122 1.383 . S
C123 C124 1.394 . S
C124 H114 0.929 . S
C124 C120 1.377 1_545 S
C124 C123 1.394 . S
H125 C132 0.929 . S
H126 C135 0.930 . S
H127 C137 0.929 . S
H128 C129 0.969 . S
C129 H128 0.969 . S
C129 O130 1.550 . S
C129 H131 0.973 . S
O130 C129 1.550 . S
O130 C136 1.412 . S
H131 C129 0.973 . S
C132 H125 0.929 . S
C132 C133 1.400 . S
C132 C134 1.364 . S
C133 C132 1.400 . S
C133 C137 1.377 . S
C134 C132 1.364 . S
C134 C135 1.374 . S
C135 H126 0.930 . S
C135 C134 1.374 . S
C135 C136 1.383 . S
C136 O130 1.412 . S
C136 C135 1.383 . S
C136 C137 1.394 . S
C137 H127 0.929 . S
C137 C133 1.377 . S
C137 C136 1.394 . S
H138 C146 0.929 . S
H139 C148 0.930 . S
H140 C150 0.930 . S
H141 C153 0.929 . S
H142 C156 0.930 . S
H143 C158 0.960 . S
H144 C158 0.960 . S
H145 C158 0.960 . S
C146 H138 0.929 . S
C146 C147 1.377 . S
C146 C148 1.384 . S
C147 C146 1.377 . S
C147 C153 1.390 . S
C148 H139 0.930 . S
C148 C146 1.384 . S
C148 C149 1.372 . S
C149 C148 1.372 . S
C149 C150 1.400 . S
C149 C154 1.490 . S
C150 H140 0.930 . S
C150 C149 1.400 . S
C150 C153 1.386 . S
H151 C167 0.930 . S
H152 C168 0.931 . S
C153 H141 0.929 . S
C153 C147 1.390 . S
C153 C150 1.386 . S
C154 C149 1.490 . S
C154 C156 1.395 . S
C154 C157 1.403 . S
H155 C161 0.930 . S
C156 H142 0.930 . S
C156 C154 1.395 . S
C156 C159 1.403 . S
C157 C154 1.403 . S
C157 C158 1.524 . S
C157 C161 1.400 . S
C158 H143 0.960 . S
C158 H144 0.960 . S
C158 H145 0.960 . S
C158 C157 1.524 . S
C159 C156 1.403 . S
C159 C160 1.392 . S
C159 C163 1.495 . S
C160 C159 1.392 . S
C160 C161 1.385 . S
C160 C162 1.478 . S
C161 H155 0.930 . S
C161 C157 1.400 . S
C161 C160 1.385 . S
C162 C160 1.478 . S
C162 C164 1.381 . S
C162 C168 1.383 . S
C163 C159 1.495 . S
C163 H169 0.959 . S
C163 H170 0.961 . S
C163 H171 0.960 . S
C164 C162 1.381 . S
C164 C165 1.394 . S
C164 H172 0.930 . S
C165 C164 1.394 . S
C165 C166 1.383 . S
C165 H173 0.929 . S
C166 C165 1.383 . S
C166 C167 1.377 . S
C167 H151 0.930 . S
C167 C166 1.377 . S
C167 C168 1.379 . S
C168 H152 0.931 . S
C168 C162 1.383 . S
C168 C167 1.379 . S
H169 C163 0.959 . S
H170 C163 0.961 . S
H171 C163 0.960 . S
H172 C164 0.930 . S
H173 C165 0.929 . S
H174 C182 0.929 . S
H175 C184 0.930 . S
H176 C186 0.930 . S
H177 C189 0.929 . S
H178 C192 0.930 . S
H179 C194 0.960 . S
H180 C194 0.960 . S
H181 C194 0.960 . S
C182 H174 0.929 . S
C182 C183 1.377 . S
C182 C184 1.384 . S
C183 C182 1.377 . S
C183 C189 1.390 . S
C184 H175 0.930 . S
C184 C182 1.384 . S
C184 C185 1.372 . S
C185 C184 1.372 . S
C185 C186 1.400 . S
C185 C190 1.490 . S
C186 H176 0.930 . S
C186 C185 1.400 . S
C186 C189 1.386 . S
H187 C203 0.930 . S
H188 C204 0.931 . S
C189 H177 0.929 . S
C189 C183 1.390 . S
C189 C186 1.386 . S
C190 C185 1.490 . S
C190 C192 1.395 . S
C190 C193 1.403 . S
H191 C197 0.930 . S
C192 H178 0.930 . S
C192 C190 1.395 . S
C192 C195 1.403 . S
C193 C190 1.403 . S
C193 C194 1.524 . S
C193 C197 1.400 . S
C194 H179 0.960 . S
C194 H180 0.960 . S
C194 H181 0.960 . S
C194 C193 1.524 . S
C195 C192 1.403 . S
C195 C196 1.392 . S
C195 C199 1.495 . S
C196 C195 1.392 . S
C196 C197 1.385 . S
C196 C198 1.478 . S
C197 H191 0.930 . S
C197 C193 1.400 . S
C197 C196 1.385 . S
C198 C196 1.478 . S
C198 C200 1.381 . S
C198 C204 1.383 . S
C199 C195 1.495 . S
C199 H205 0.959 . S
C199 H206 0.961 . S
C199 H207 0.960 . S
C200 C198 1.381 . S
C200 C201 1.394 . S
C200 H208 0.930 . S
C201 C200 1.394 . S
C201 C202 1.383 . S
C201 H209 0.929 . S
C202 C201 1.383 . S
C202 C203 1.377 . S
C203 H187 0.930 . S
C203 C202 1.377 . S
C203 C204 1.379 . S
C204 H188 0.931 . S
C204 C198 1.383 . S
C204 C203 1.379 . S
H205 C199 0.959 . S
H206 C199 0.961 . S
H207 C199 0.960 . S
H208 C200 0.930 . S
H209 C201 0.929 . S
H210 C218 0.929 . S
H211 C220 0.930 . S
H212 C222 0.930 . S
H213 C225 0.929 . S
H214 C228 0.930 . S
H215 C230 0.960 . S
H216 C230 0.960 . S
H217 C230 0.960 . S
C218 H210 0.929 . S
C218 C219 1.377 . S
C218 C220 1.384 . S
C219 C218 1.377 . S
C219 C225 1.390 . S
C220 H211 0.930 . S
C220 C218 1.384 . S
C220 C221 1.372 . S
C221 C220 1.372 . S
C221 C222 1.400 . S
C221 C226 1.490 . S
C222 H212 0.930 . S
C222 C221 1.400 . S
C222 C225 1.386 . S
H223 C239 0.930 . S
H224 C240 0.931 . S
C225 H213 0.929 . S
C225 C219 1.390 . S
C225 C222 1.386 . S
C226 C221 1.490 . S
C226 C228 1.395 . S
C226 C229 1.403 . S
H227 C233 0.930 . S
C228 H214 0.930 . S
C228 C226 1.395 . S
C228 C231 1.403 . S
C229 C226 1.403 . S
C229 C230 1.524 . S
C229 C233 1.400 . S
C230 H215 0.960 . S
C230 H216 0.960 . S
C230 H217 0.960 . S
C230 C229 1.524 . S
C231 C228 1.403 . S
C231 C232 1.392 . S
C231 C235 1.495 . S
C232 C231 1.392 . S
C232 C233 1.385 . S
C232 C234 1.478 . S
C233 H227 0.930 . S
C233 C229 1.400 . S
C233 C232 1.385 . S
C234 C232 1.478 . S
C234 C236 1.381 . S
C234 C240 1.383 . S
C235 C231 1.495 . S
C235 H241 0.959 . S
C235 H242 0.961 . S
C235 H243 0.960 . S
C236 C234 1.381 . S
C236 C237 1.394 . S
C236 H244 0.930 . S
C237 C236 1.394 . S
C237 C238 1.383 . S
C237 H245 0.929 . S
C238 C237 1.383 . S
C238 C239 1.377 . S
C239 H223 0.930 . S
C239 C238 1.377 . S
C239 C240 1.379 . S
C240 H224 0.931 . S
C240 C234 1.383 . S
C240 C239 1.379 . S
H241 C235 0.959 . S
H242 C235 0.961 . S
H243 C235 0.960 . S
H244 C236 0.930 . S
H245 C237 0.929 . S
H246 C254 0.929 . S
H247 C256 0.930 . S
H248 C258 0.930 . S
H249 C261 0.929 . S
H250 C264 0.930 . S
H251 C266 0.960 . S
H252 C266 0.960 . S
H253 C266 0.960 . S
C254 H246 0.929 . S
C254 C255 1.377 . S
C254 C256 1.384 . S
C255 C254 1.377 . S
C255 C261 1.390 . S
C256 H247 0.930 . S
C256 C254 1.384 . S
C256 C257 1.372 . S
C257 C256 1.372 . S
C257 C258 1.400 . S
C257 C262 1.490 . S
C258 H248 0.930 . S
C258 C257 1.400 . S
C258 C261 1.386 . S
H259 C275 0.930 . S
H260 C276 0.931 . S
C261 H249 0.929 . S
C261 C255 1.390 . S
C261 C258 1.386 . S
C262 C257 1.490 . S
C262 C264 1.395 . S
C262 C265 1.403 . S
H263 C269 0.930 . S
C264 H250 0.930 . S
C264 C262 1.395 . S
C264 C267 1.403 . S
C265 C262 1.403 . S
C265 C266 1.524 . S
C265 C269 1.400 . S
C266 H251 0.960 . S
C266 H252 0.960 . S
C266 H253 0.960 . S
C266 C265 1.524 . S
C267 C264 1.403 . S
C267 C268 1.392 . S
C267 C271 1.495 . S
C268 C267 1.392 . S
C268 C269 1.385 . S
C268 C270 1.478 . S
C269 H263 0.930 . S
C269 C265 1.400 . S
C269 C268 1.385 . S
C270 C268 1.478 . S
C270 C272 1.381 . S
C270 C276 1.383 . S
C271 C267 1.495 . S
C271 H277 0.959 . S
C271 H278 0.961 . S
C271 H279 0.960 . S
C272 C270 1.381 . S
C272 C273 1.394 . S
C272 H280 0.930 . S
C273 C272 1.394 . S
C273 C274 1.383 . S
C273 H281 0.929 . S
C274 C273 1.383 . S
C274 C275 1.377 . S
C275 H259 0.930 . S
C275 C274 1.377 . S
C275 C276 1.379 . S
C276 H260 0.931 . S
C276 C270 1.383 . S
C276 C275 1.379 . S
H277 C271 0.959 . S
H278 C271 0.961 . S
H279 C271 0.960 . S
H280 C272 0.930 . S
H281 C273 0.929 . S
H282 C290 0.929 . S
H283 C292 0.930 . S
H284 C294 0.930 . S
H285 C297 0.929 . S
H286 C300 0.930 . S
H287 C302 0.960 . S
H288 C302 0.960 . S
H289 C302 0.960 . S
C290 H282 0.929 . S
C290 C291 1.377 . S
C290 C292 1.384 . S
C291 C290 1.377 . S
C291 C297 1.390 . S
C292 H283 0.930 . S
C292 C290 1.384 . S
C292 C293 1.372 . S
C293 C292 1.372 . S
C293 C294 1.400 . S
C293 C298 1.490 . S
C294 H284 0.930 . S
C294 C293 1.400 . S
C294 C297 1.386 . S
H295 C311 0.930 . S
H296 C312 0.931 . S
C297 H285 0.929 . S
C297 C291 1.390 . S
C297 C294 1.386 . S
C298 C293 1.490 . S
C298 C300 1.395 . S
C298 C301 1.403 . S
H299 C305 0.930 . S
C300 H286 0.930 . S
C300 C298 1.395 . S
C300 C303 1.403 . S
C301 C298 1.403 . S
C301 C302 1.524 . S
C301 C305 1.400 . S
C302 H287 0.960 . S
C302 H288 0.960 . S
C302 H289 0.960 . S
C302 C301 1.524 . S
C303 C300 1.403 . S
C303 C304 1.392 . S
C303 C307 1.495 . S
C304 C303 1.392 . S
C304 C305 1.385 . S
C304 C306 1.478 . S
C305 H299 0.930 . S
C305 C301 1.400 . S
C305 C304 1.385 . S
C306 C304 1.478 . S
C306 C308 1.381 . S
C306 C312 1.383 . S
C307 C303 1.495 . S
C307 H313 0.959 . S
C307 H314 0.961 . S
C307 H315 0.960 . S
C308 C306 1.381 . S
C308 C309 1.394 . S
C308 H316 0.930 . S
C309 C308 1.394 . S
C309 C310 1.383 . S
C309 H317 0.929 . S
C310 C309 1.383 . S
C310 C311 1.377 . S
C311 H295 0.930 . S
C311 C310 1.377 . S
C311 C312 1.379 . S
C312 H296 0.931 . S
C312 C306 1.383 . S
C312 C311 1.379 . S
H313 C307 0.959 . S
H314 C307 0.961 . S
H315 C307 0.960 . S
H316 C308 0.930 . S
H317 C309 0.929 . S
H318 C326 0.929 . S
H319 C328 0.930 . S
H320 C330 0.930 . S
H321 C333 0.929 . S
H322 C336 0.930 . S
H323 C338 0.960 . S
H324 C338 0.960 . S
H325 C338 0.960 . S
C326 H318 0.929 . S
C326 C327 1.377 . S
C326 C328 1.384 . S
C327 C326 1.377 . S
C327 C333 1.390 . S
C328 H319 0.930 . S
C328 C326 1.384 . S
C328 C329 1.372 . S
C329 C328 1.372 . S
C329 C330 1.400 . S
C329 C334 1.490 . S
C330 H320 0.930 . S
C330 C329 1.400 . S
C330 C333 1.386 . S
H331 C347 0.930 . S
H332 C348 0.931 . S
C333 H321 0.929 . S
C333 C327 1.390 . S
C333 C330 1.386 . S
C334 C329 1.490 . S
C334 C336 1.395 . S
C334 C337 1.403 . S
H335 C341 0.930 . S
C336 H322 0.930 . S
C336 C334 1.395 . S
C336 C339 1.403 . S
C337 C334 1.403 . S
C337 C338 1.524 . S
C337 C341 1.400 . S
C338 H323 0.960 . S
C338 H324 0.960 . S
C338 H325 0.960 . S
C338 C337 1.524 . S
C339 C336 1.403 . S
C339 C340 1.392 . S
C339 C343 1.495 . S
C340 C339 1.392 . S
C340 C341 1.385 . S
C340 C342 1.478 . S
C341 H335 0.930 . S
C341 C337 1.400 . S
C341 C340 1.385 . S
C342 C340 1.478 . S
C342 C344 1.381 . S
C342 C348 1.383 . S
C343 C339 1.495 . S
C343 H349 0.959 . S
C343 H350 0.961 . S
C343 H351 0.960 . S
C344 C342 1.381 . S
C344 C345 1.394 . S
C344 H352 0.930 . S
C345 C344 1.394 . S
C345 C346 1.383 . S
C345 H353 0.929 . S
C346 C345 1.383 . S
C346 C347 1.377 . S
C347 H331 0.930 . S
C347 C346 1.377 . S
C347 C348 1.379 . S
C348 H332 0.931 . S
C348 C342 1.383 . S
C348 C347 1.379 . S
H349 C343 0.959 . S
H350 C343 0.961 . S
H351 C343 0.960 . S
H352 C344 0.930 . S
H353 C345 0.929 . S
H354 C362 0.929 . S
H355 C364 0.930 . S
H356 C366 0.930 . S
H357 C369 0.929 . S
H358 C372 0.930 . S
H359 C374 0.960 . S
H360 C374 0.960 . S
H361 C374 0.960 . S
C362 H354 0.929 . S
C362 C363 1.377 . S
C362 C364 1.384 . S
C363 C362 1.377 . S
C363 C369 1.390 . S
C364 H355 0.930 . S
C364 C362 1.384 . S
C364 C365 1.372 . S
C365 C364 1.372 . S
C365 C366 1.400 . S
C365 C370 1.490 . S
C366 H356 0.930 . S
C366 C365 1.400 . S
C366 C369 1.386 . S
H367 C383 0.930 . S
H368 C384 0.931 . S
C369 H357 0.929 . S
C369 C363 1.390 . S
C369 C366 1.386 . S
C370 C365 1.490 . S
C370 C372 1.395 . S
C370 C373 1.403 . S
H371 C377 0.930 . S
C372 H358 0.930 . S
C372 C370 1.395 . S
C372 C375 1.403 . S
C373 C370 1.403 . S
C373 C374 1.524 . S
C373 C377 1.400 . S
C374 H359 0.960 . S
C374 H360 0.960 . S
C374 H361 0.960 . S
C374 C373 1.524 . S
C375 C372 1.403 . S
C375 C376 1.392 . S
C375 C379 1.495 . S
C376 C375 1.392 . S
C376 C377 1.385 . S
C376 C378 1.478 . S
C377 H371 0.930 . S
C377 C373 1.400 . S
C377 C376 1.385 . S
C378 C376 1.478 . S
C378 C380 1.381 . S
C378 C384 1.383 . S
C379 C375 1.495 . S
C379 H385 0.959 . S
C379 H386 0.961 . S
C379 H387 0.960 . S
C380 C378 1.381 . S
C380 C381 1.394 . S
C380 H388 0.930 . S
C381 C380 1.394 . S
C381 C382 1.383 . S
C381 H389 0.929 . S
C382 C381 1.383 . S
C382 C383 1.377 . S
C383 H367 0.930 . S
C383 C382 1.377 . S
C383 C384 1.379 . S
C384 H368 0.931 . S
C384 C378 1.383 . S
C384 C383 1.379 . S
H385 C379 0.959 . S
H386 C379 0.961 . S
H387 C379 0.960 . S
H388 C380 0.930 . S
H389 C381 0.929 . S
H390 C398 0.929 . S
H391 C400 0.930 . S
H392 C402 0.930 . S
H393 C405 0.929 . S
H394 C408 0.930 . S
H395 C410 0.960 . S
H396 C410 0.960 . S
H397 C410 0.960 . S
C398 H390 0.929 . S
C398 C399 1.377 . S
C398 C400 1.384 . S
C399 C398 1.377 . S
C399 C405 1.390 . S
C400 H391 0.930 . S
C400 C398 1.384 . S
C400 C401 1.372 . S
C401 C400 1.372 . S
C401 C402 1.400 . S
C401 C406 1.490 . S
C402 H392 0.930 . S
C402 C401 1.400 . S
C402 C405 1.386 . S
H403 C419 0.930 . S
H404 C420 0.931 . S
C405 H393 0.929 . S
C405 C399 1.390 . S
C405 C402 1.386 . S
C406 C401 1.490 . S
C406 C408 1.395 . S
C406 C409 1.403 . S
H407 C413 0.930 . S
C408 H394 0.930 . S
C408 C406 1.395 . S
C408 C411 1.403 . S
C409 C406 1.403 . S
C409 C410 1.524 . S
C409 C413 1.400 . S
C410 H395 0.960 . S
C410 H396 0.960 . S
C410 H397 0.960 . S
C410 C409 1.524 . S
C411 C408 1.403 . S
C411 C412 1.392 . S
C411 C415 1.495 . S
C412 C411 1.392 . S
C412 C413 1.385 . S
C412 C414 1.478 . S
C413 H407 0.930 . S
C413 C409 1.400 . S
C413 C412 1.385 . S
C414 C412 1.478 . S
C414 C416 1.381 . S
C414 C420 1.383 . S
C415 C411 1.495 . S
C415 H421 0.959 . S
C415 H422 0.961 . S
C415 H423 0.960 . S
C416 C414 1.381 . S
C416 C417 1.424 . S
C416 H424 0.930 . S
C417 C416 1.424 . S
C417 C418 1.371 1_655 S
C417 H425 0.912 1_655 S
C418 C417 1.371 1_455 S
C418 C419 1.377 . S
C419 H403 0.930 . S
C419 C418 1.377 . S
C419 C420 1.379 1_455 S
C420 H404 0.931 . S
C420 C414 1.383 . S
C420 C419 1.379 1_655 S
H421 C415 0.959 . S
H422 C415 0.961 . S
H423 C415 0.960 . S
H424 C416 0.930 . S
H425 C417 0.912 1_455 S
H426 C434 0.929 . S
H427 C436 0.930 . S
H428 C438 0.930 . S
H429 C441 0.929 . S
H430 C444 0.930 . S
H431 C446 0.960 . S
H432 C446 0.960 . S
H433 C446 0.960 . S
C434 H426 0.929 . S
C434 C435 1.377 . S
C434 C436 1.384 . S
C435 C434 1.377 . S
C435 C441 1.390 . S
C436 H427 0.930 . S
C436 C434 1.384 . S
C436 C437 1.372 . S
C437 C436 1.372 . S
C437 C438 1.400 . S
C437 C442 1.490 . S
C438 H428 0.930 . S
C438 C437 1.400 . S
C438 C441 1.386 . S
H439 C455 0.930 . S
H440 C456 0.931 . S
C441 H429 0.929 . S
C441 C435 1.390 . S
C441 C438 1.386 . S
C442 C437 1.490 . S
C442 C444 1.395 . S
C442 C445 1.403 . S
H443 C449 0.930 . S
C444 H430 0.930 . S
C444 C442 1.395 . S
C444 C447 1.403 . S
C445 C442 1.403 . S
C445 C446 1.524 . S
C445 C449 1.400 . S
C446 H431 0.960 . S
C446 H432 0.960 . S
C446 H433 0.960 . S
C446 C445 1.524 . S
C447 C444 1.403 . S
C447 C448 1.392 . S
C447 C451 1.495 . S
C448 C447 1.392 . S
C448 C449 1.385 . S
C448 C450 1.478 . S
C449 H443 0.930 . S
C449 C445 1.400 . S
C449 C448 1.385 . S
C450 C448 1.478 . S
C450 C452 1.381 . S
C450 C456 1.383 . S
C451 C447 1.495 . S
C451 H457 0.959 . S
C451 H458 0.961 . S
C451 H459 0.960 . S
C452 C450 1.381 . S
C452 C453 1.394 . S
C452 H460 0.930 . S
C453 C452 1.394 . S
C453 C454 1.383 . S
C453 H461 0.929 . S
C454 C453 1.383 . S
C454 C455 1.377 . S
C455 H439 0.930 . S
C455 C454 1.377 . S
C455 C456 1.379 . S
C456 H440 0.931 . S
C456 C450 1.383 . S
C456 C455 1.379 . S
H457 C451 0.959 . S
H458 C451 0.961 . S
H459 C451 0.960 . S
H460 C452 0.930 . S
H461 C453 0.929 . S
H462 C470 0.929 . S
H463 C472 0.930 . S
H464 C474 0.930 . S
H465 C477 0.929 . S
H466 C480 0.930 . S
H467 C482 0.960 . S
H468 C482 0.960 . S
H469 C482 0.960 . S
C470 H462 0.929 . S
C470 C471 1.377 . S
C470 C472 1.384 . S
C471 C470 1.377 . S
C471 C477 1.390 . S
C472 H463 0.930 . S
C472 C470 1.384 . S
C472 C473 1.372 . S
C473 C472 1.372 . S
C473 C474 1.400 . S
C473 C478 1.490 . S
C474 H464 0.930 . S
C474 C473 1.400 . S
C474 C477 1.386 . S
H475 C491 0.930 . S
H476 C492 0.931 . S
C477 H465 0.929 . S
C477 C471 1.390 . S
C477 C474 1.386 . S
C478 C473 1.490 . S
C478 C480 1.395 . S
C478 C481 1.403 . S
H479 C485 0.930 . S
C480 H466 0.930 . S
C480 C478 1.395 . S
C480 C483 1.403 . S
C481 C478 1.403 . S
C481 C482 1.524 . S
C481 C485 1.400 . S
C482 H467 0.960 . S
C482 H468 0.960 . S
C482 H469 0.960 . S
C482 C481 1.524 . S
C483 C480 1.403 . S
C483 C484 1.392 . S
C483 C487 1.495 . S
C484 C483 1.392 . S
C484 C485 1.385 . S
C484 C486 1.478 . S
C485 H479 0.930 . S
C485 C481 1.400 . S
C485 C484 1.385 . S
C486 C484 1.478 . S
C486 C488 1.381 . S
C486 C492 1.383 . S
C487 C483 1.495 . S
C487 H493 0.959 . S
C487 H494 0.961 . S
C487 H495 0.960 . S
C488 C486 1.381 . S
C488 C489 1.394 . S
C488 H496 0.930 . S
C489 C488 1.394 . S
C489 C490 1.383 . S
C489 H497 0.929 . S
C490 C489 1.383 . S
C490 C491 1.377 . S
C491 H475 0.930 . S
C491 C490 1.377 . S
C491 C492 1.379 . S
C492 H476 0.931 . S
C492 C486 1.383 . S
C492 C491 1.379 . S
H493 C487 0.959 . S
H494 C487 0.961 . S
H495 C487 0.960 . S
H496 C488 0.930 . S
H497 C489 0.929 . S
H498 C506 0.929 . S
H499 C508 0.930 . S
H500 C510 0.930 . S
H501 C513 0.929 . S
H502 C516 0.930 . S
H503 C518 0.960 . S
H504 C518 0.960 . S
H505 C518 0.960 . S
C506 H498 0.929 . S
C506 C507 1.377 . S
C506 C508 1.384 . S
C507 C506 1.377 . S
C507 C513 1.390 . S
C508 H499 0.930 . S
C508 C506 1.384 . S
C508 C509 1.372 . S
C509 C508 1.372 . S
C509 C510 1.400 . S
C509 C514 1.490 . S
C510 H500 0.930 . S
C510 C509 1.400 . S
C510 C513 1.386 . S
H511 C527 0.930 . S
H512 C528 0.931 . S
C513 H501 0.929 . S
C513 C507 1.390 . S
C513 C510 1.386 . S
C514 C509 1.490 . S
C514 C516 1.395 . S
C514 C517 1.403 . S
H515 C521 0.930 . S
C516 H502 0.930 . S
C516 C514 1.395 . S
C516 C519 1.403 . S
C517 C514 1.403 . S
C517 C518 1.524 . S
C517 C521 1.400 . S
C518 H503 0.960 . S
C518 H504 0.960 . S
C518 H505 0.960 . S
C518 C517 1.524 . S
C519 C516 1.403 . S
C519 C520 1.392 . S
C519 C523 1.495 . S
C520 C519 1.392 . S
C520 C521 1.385 . S
C520 C522 1.478 . S
C521 H515 0.930 . S
C521 C517 1.400 . S
C521 C520 1.385 . S
C522 C520 1.478 . S
C522 C524 1.381 . S
C522 C528 1.383 . S
C523 C519 1.495 . S
C523 H529 0.959 . S
C523 H530 0.961 . S
C523 H531 0.960 . S
C524 C522 1.381 . S
C524 C525 1.394 . S
C524 H532 0.930 . S
C525 C524 1.394 . S
C525 C526 1.383 . S
C525 H533 0.929 . S
C526 C525 1.383 . S
C526 C527 1.377 . S
C527 H511 0.930 . S
C527 C526 1.377 . S
C527 C528 1.379 . S
C528 H512 0.931 . S
C528 C522 1.383 . S
C528 C527 1.379 . S
H529 C523 0.959 . S
H530 C523 0.961 . S
H531 C523 0.960 . S
H532 C524 0.930 . S
H533 C525 0.929 . S
H534 C542 0.929 . S
H535 C544 0.930 . S
H536 C546 0.930 . S
H537 C549 0.929 . S
H538 C552 0.930 . S
H539 C554 0.960 . S
H540 C554 0.960 . S
H541 C554 0.960 . S
C542 H534 0.929 . S
C542 C543 1.377 . S
C542 C544 1.384 . S
C543 C542 1.377 . S
C543 C549 1.390 . S
C544 H535 0.930 . S
C544 C542 1.384 . S
C544 C545 1.372 . S
C545 C544 1.372 . S
C545 C546 1.400 . S
C545 C550 1.490 . S
C546 H536 0.930 . S
C546 C545 1.400 . S
C546 C549 1.386 . S
H547 C563 0.930 . S
H548 C564 0.931 . S
C549 H537 0.929 . S
C549 C543 1.390 . S
C549 C546 1.386 . S
C550 C545 1.490 . S
C550 C552 1.395 . S
C550 C553 1.403 . S
H551 C557 0.930 . S
C552 H538 0.930 . S
C552 C550 1.395 . S
C552 C555 1.403 . S
C553 C550 1.403 . S
C553 C554 1.524 . S
C553 C557 1.400 . S
C554 H539 0.960 . S
C554 H540 0.960 . S
C554 H541 0.960 . S
C554 C553 1.524 . S
C555 C552 1.403 . S
C555 C556 1.392 . S
C555 C559 1.495 . S
C556 C555 1.392 . S
C556 C557 1.385 . S
C556 C558 1.478 . S
C557 H551 0.930 . S
C557 C553 1.400 . S
C557 C556 1.385 . S
C558 C556 1.478 . S
C558 C560 1.381 . S
C558 C564 1.383 . S
C559 C555 1.495 . S
C559 H565 0.959 . S
C559 H566 0.961 . S
C559 H567 0.960 . S
C560 C558 1.381 . S
C560 C561 1.394 . S
C560 H568 0.930 . S
C561 C560 1.394 . S
C561 C562 1.383 . S
C561 H569 0.929 . S
C562 C561 1.383 . S
C562 C563 1.377 . S
C563 H547 0.930 . S
C563 C562 1.377 . S
C563 C564 1.379 . S
C564 H548 0.931 . S
C564 C558 1.383 . S
C564 C563 1.379 . S
H565 C559 0.959 . S
H566 C559 0.961 . S
H567 C559 0.960 . S
H568 C560 0.930 . S
H569 C561 0.929 . S
H570 C578 0.929 . S
H571 C580 0.927 . S
H572 C582 0.930 . S
H573 C585 0.929 . S
H574 C588 0.930 . S
H575 C590 0.960 . S
H576 C590 0.960 1_655 S
H577 C590 0.960 . S
C578 H570 0.929 . S
C578 C579 1.377 1_655 S
C578 C580 1.383 . S
C579 C578 1.377 1_455 S
C579 C585 1.390 . S
C580 H571 0.927 . S
C580 C578 1.383 . S
C580 C581 1.375 1_655 S
C581 C580 1.375 1_455 S
C581 C582 1.400 . S
C581 C586 1.490 . S
C582 H572 0.930 . S
C582 C581 1.400 . S
C582 C585 1.386 . S
H583 C599 0.930 . S
H584 C600 0.931 . S
C585 H573 0.929 . S
C585 C579 1.390 . S
C585 C582 1.386 . S
C586 C581 1.490 . S
C586 C588 1.395 . S
C586 C589 1.403 . S
H587 C593 0.930 . S
C588 H574 0.930 . S
C588 C586 1.395 . S
C588 C591 1.399 1_554 S
C589 C586 1.403 . S
C589 C590 1.524 . S
C589 C593 1.400 1_554 S
C590 H575 0.960 . S
C590 H576 0.960 1_455 S
C590 H577 0.960 . S
C590 C589 1.524 . S
C591 C588 1.399 1_556 S
C591 C592 1.395 . S
C591 C595 1.497 . S
C592 C591 1.395 . S
C592 C593 1.385 . S
C592 C594 1.478 . S
C593 H587 0.930 . S
C593 C589 1.400 1_556 S
C593 C592 1.385 . S
C594 C592 1.478 . S
C594 C596 1.381 . S
C594 C600 1.383 . S
C595 C591 1.497 . S
C595 H601 0.959 1_556 S
C595 H602 0.961 . S
C595 H603 0.960 . S
C596 C594 1.381 . S
C596 C597 1.394 . S
C596 H604 0.930 . S
C597 C596 1.394 . S
C597 C598 1.383 . S
C597 H605 0.929 . S
C598 C597 1.383 . S
C598 C599 1.377 . S
C599 H583 0.930 . S
C599 C598 1.377 . S
C599 C600 1.379 . S
C600 H584 0.931 . S
C600 C594 1.383 . S
C600 C599 1.379 . S
H601 C595 0.959 1_554 S
H602 C595 0.961 . S
H603 C595 0.960 . S
H604 C596 0.930 . S
H605 C597 0.929 . S
H606 C614 0.929 . S
H607 C616 0.930 . S
H608 C618 0.930 . S
H609 C621 0.929 . S
H610 C624 0.930 . S
H611 C626 0.960 . S
H612 C626 0.960 . S
H613 C626 0.960 . S
C614 H606 0.929 . S
C614 C615 1.377 . S
C614 C616 1.384 . S
C615 C614 1.377 . S
C615 C621 1.390 . S
C616 H607 0.930 . S
C616 C614 1.384 . S
C616 C617 1.372 . S
C617 C616 1.372 . S
C617 C618 1.400 . S
C617 C622 1.490 . S
C618 H608 0.930 . S
C618 C617 1.400 . S
C618 C621 1.386 . S
H619 C635 0.930 . S
H620 C636 0.931 . S
C621 H609 0.929 . S
C621 C615 1.390 . S
C621 C618 1.386 . S
C622 C617 1.490 . S
C622 C624 1.395 . S
C622 C625 1.422 . S
H623 C629 0.930 1_565 S
C624 H610 0.930 . S
C624 C622 1.395 . S
C624 C627 1.403 . S
C625 C622 1.422 . S
C625 C626 1.501 1_545 S
C625 C629 1.404 . S
C626 H611 0.960 . S
C626 H612 0.960 . S
C626 H613 0.960 . S
C626 C625 1.501 1_565 S
C627 C624 1.403 . S
C627 C628 1.392 . S
C627 C631 1.495 . S
C628 C627 1.392 . S
C628 C629 1.385 . S
C628 C630 1.478 . S
C629 H623 0.930 1_545 S
C629 C625 1.404 . S
C629 C628 1.385 . S
C630 C628 1.478 . S
C630 C632 1.381 . S
C630 C636 1.383 . S
C631 C627 1.495 . S
C631 H637 0.959 . S
C631 H638 0.961 . S
C631 H639 0.960 . S
C632 C630 1.381 . S
C632 C633 1.394 . S
C632 H640 0.930 . S
C633 C632 1.394 . S
C633 C634 1.383 . S
C633 H641 0.929 1_545 S
C634 C633 1.383 . S
C634 C635 1.377 . S
C635 H619 0.930 . S
C635 C634 1.377 . S
C635 C636 1.379 . S
C636 H620 0.931 . S
C636 C630 1.383 . S
C636 C635 1.379 . S
H637 C631 0.959 . S
H638 C631 0.961 . S
H639 C631 0.960 . S
H640 C632 0.930 . S
H641 C633 0.929 1_565 S
H642 C650 0.929 . S
H643 C652 0.930 . S
H644 C654 0.930 . S
H645 C657 0.929 . S
H646 C660 0.930 . S
H647 C662 0.960 . S
H648 C662 0.960 . S
H649 C662 0.960 . S
C650 H642 0.929 . S
C650 C651 1.377 . S
C650 C652 1.384 . S
C651 C650 1.377 . S
C651 C657 1.390 . S
C652 H643 0.930 . S
C652 C650 1.384 . S
C652 C653 1.372 . S
C653 C652 1.372 . S
C653 C654 1.400 . S
C653 C658 1.490 . S
C654 H644 0.930 . S
C654 C653 1.400 . S
C654 C657 1.386 . S
H655 C671 0.930 . S
H656 C672 0.931 . S
C657 H645 0.929 . S
C657 C651 1.390 . S
C657 C654 1.386 . S
C658 C653 1.490 . S
C658 C660 1.395 . S
C658 C661 1.403 . S
H659 C665 0.930 . S
C660 H646 0.930 . S
C660 C658 1.395 . S
C660 C663 1.403 . S
C661 C658 1.403 . S
C661 C662 1.524 . S
C661 C665 1.400 . S
C662 H647 0.960 . S
C662 H648 0.960 . S
C662 H649 0.960 . S
C662 C661 1.524 . S
C663 C660 1.403 . S
C663 C664 1.392 . S
C663 C667 1.495 . S
C664 C663 1.392 . S
C664 C665 1.385 . S
C664 C666 1.478 . S
C665 H659 0.930 . S
C665 C661 1.400 . S
C665 C664 1.385 . S
C666 C664 1.478 . S
C666 C668 1.381 . S
C666 C672 1.383 . S
C667 C663 1.495 . S
C667 H673 0.959 . S
C667 H674 0.961 . S
C667 H675 0.960 . S
C668 C666 1.381 . S
C668 C669 1.394 . S
C668 H676 0.930 . S
C669 C668 1.394 . S
C669 C670 1.383 . S
C669 H677 0.929 . S
C670 C669 1.383 . S
C670 C671 1.377 . S
C671 H655 0.930 . S
C671 C670 1.377 . S
C671 C672 1.379 . S
C672 H656 0.931 . S
C672 C666 1.383 . S
C672 C671 1.379 . S
H673 C667 0.959 . S
H674 C667 0.961 . S
H675 C667 0.960 . S
H676 C668 0.930 . S
H677 C669 0.929 . S
H678 C686 0.929 . S
H679 C688 0.930 . S
H680 C690 0.930 . S
H681 C693 0.929 . S
H682 C696 0.930 . S
H683 C698 0.960 . S
H684 C698 0.960 . S
H685 C698 0.960 . S
C686 H678 0.929 . S
C686 C687 1.377 1_565 S
C686 C688 1.384 . S
C687 C686 1.377 1_545 S
C687 C693 1.390 . S
C688 H679 0.930 . S
C688 C686 1.384 . S
C688 C689 1.372 1_565 S
C689 C688 1.372 1_545 S
C689 C690 1.400 . S
C689 C694 1.490 . S
C690 H680 0.930 . S
C690 C689 1.400 . S
C690 C693 1.386 . S
H691 C707 0.930 . S
H692 C708 0.931 . S
C693 H681 0.929 . S
C693 C687 1.390 . S
C693 C690 1.386 . S
C694 C689 1.490 . S
C694 C696 1.395 1_545 S
C694 C697 1.403 . S
H695 C701 0.930 . S
C696 H682 0.930 . S
C696 C694 1.395 1_565 S
C696 C699 1.403 . S
C697 C694 1.403 . S
C697 C698 1.524 . S
C697 C701 1.400 . S
C698 H683 0.960 . S
C698 H684 0.960 . S
C698 H685 0.960 . S
C698 C697 1.524 . S
C699 C696 1.403 . S
C699 C700 1.392 1_565 S
C699 C703 1.495 . S
C700 C699 1.392 1_545 S
C700 C701 1.385 . S
C700 C702 1.478 . S
C701 H695 0.930 . S
C701 C697 1.400 . S
C701 C700 1.385 . S
C702 C700 1.478 . S
C702 C704 1.381 1_545 S
C702 C708 1.383 . S
C703 C699 1.495 . S
C703 H709 0.959 . S
C703 H710 0.961 . S
C703 H711 0.960 . S
C704 C702 1.381 1_565 S
C704 C705 1.394 . S
C704 H712 0.930 . S
C705 C704 1.394 . S
C705 C706 1.383 1_565 S
C705 H713 0.929 . S
C706 C705 1.383 1_545 S
C706 C707 1.377 . S
C707 H691 0.930 . S
C707 C706 1.377 . S
C707 C708 1.379 . S
C708 H692 0.931 . S
C708 C702 1.383 . S
C708 C707 1.379 . S
H709 C703 0.959 . S
H710 C703 0.961 . S
H711 C703 0.960 . S
H712 C704 0.930 . S
H713 C705 0.929 . S
H714 C722 0.929 . S
H715 C724 0.930 . S
H716 C726 0.930 . S
H717 C729 0.929 . S
H718 C732 0.930 . S
H719 C734 0.960 . S
H720 C734 0.960 . S
H721 C734 0.960 . S
C722 H714 0.929 . S
C722 C723 1.377 . S
C722 C724 1.384 . S
C723 C722 1.377 . S
C723 C729 1.390 . S
C724 H715 0.930 . S
C724 C722 1.384 . S
C724 C725 1.372 . S
C725 C724 1.372 . S
C725 C726 1.400 . S
C725 C730 1.490 . S
C726 H716 0.930 . S
C726 C725 1.400 . S
C726 C729 1.386 . S
H727 C743 0.930 . S
H728 C744 0.931 . S
C729 H717 0.929 . S
C729 C723 1.390 . S
C729 C726 1.386 . S
C730 C725 1.490 . S
C730 C732 1.395 . S
C730 C733 1.403 . S
H731 C737 0.924 1_554 S
C732 H718 0.930 . S
C732 C730 1.395 . S
C732 C735 1.403 1_556 S
C733 C730 1.403 . S
C733 C734 1.524 . S
C733 C737 1.400 . S
C734 H719 0.960 . S
C734 H720 0.960 . S
C734 H721 0.960 . S
C734 C733 1.524 . S
C735 C732 1.403 1_554 S
C735 C736 1.392 . S
C735 C739 1.495 . S
C736 C735 1.392 . S
C736 C737 1.385 1_554 S
C736 C738 1.478 . S
C737 H731 0.924 1_556 S
C737 C733 1.400 . S
C737 C736 1.385 1_556 S
C738 C736 1.478 . S
C738 C740 1.381 . S
C738 C744 1.383 . S
C739 C735 1.495 . S
C739 H745 0.959 . S
C739 H746 0.961 . S
C739 H747 0.960 . S
C740 C738 1.381 . S
C740 C741 1.394 . S
C740 H748 0.930 . S
C741 C740 1.394 . S
C741 C742 1.383 . S
C741 H749 0.929 . S
C742 C741 1.383 . S
C742 C743 1.377 . S
C743 H727 0.930 . S
C743 C742 1.377 . S
C743 C744 1.379 . S
C744 H728 0.931 . S
C744 C738 1.383 . S
C744 C743 1.379 . S
H745 C739 0.959 . S
H746 C739 0.961 . S
H747 C739 0.960 . S
H748 C740 0.930 . S
H749 C741 0.929 . S
H750 C758 0.929 . S
H751 C760 0.917 1_455 S
H752 C762 0.930 . S
H753 C765 0.929 . S
H754 C768 0.930 . S
H755 C770 0.960 . S
H756 C770 0.960 . S
H757 C770 0.960 . S
C758 H750 0.929 . S
C758 C759 1.377 . S
C758 C760 1.384 . S
C759 C758 1.377 . S
C759 C765 1.390 . S
C760 H751 0.917 1_655 S
C760 C758 1.384 . S
C760 C761 1.372 . S
C761 C760 1.372 . S
C761 C762 1.400 . S
C761 C766 1.490 1_655 S
C762 H752 0.930 . S
C762 C761 1.400 . S
C762 C765 1.386 . S
H763 C779 0.930 . S
H764 C780 0.931 . S
C765 H753 0.929 . S
C765 C759 1.390 . S
C765 C762 1.386 . S
C766 C761 1.490 1_455 S
C766 C768 1.395 . S
C766 C769 1.403 1_455 S
H767 C773 0.930 . S
C768 H754 0.930 . S
C768 C766 1.395 . S
C768 C771 1.403 . S
C769 C766 1.403 1_655 S
C769 C770 1.524 . S
C769 C773 1.400 . S
C770 H755 0.960 . S
C770 H756 0.960 . S
C770 H757 0.960 . S
C770 C769 1.524 . S
C771 C768 1.403 . S
C771 C772 1.392 . S
C771 C775 1.495 . S
C772 C771 1.392 . S
C772 C773 1.385 1_455 S
C772 C774 1.478 . S
C773 H767 0.930 . S
C773 C769 1.400 . S
C773 C772 1.385 1_655 S
C774 C772 1.478 . S
C774 C776 1.381 . S
C774 C780 1.383 . S
C775 C771 1.495 . S
C775 H781 0.959 . S
C775 H782 0.961 . S
C775 H783 0.960 . S
C776 C774 1.381 . S
C776 C777 1.394 . S
C776 H784 0.930 . S
C777 C776 1.394 . S
C777 C778 1.383 . S
C777 H785 0.929 . S
C778 C777 1.383 . S
C778 C779 1.377 . S
C779 H763 0.930 . S
C779 C778 1.377 . S
C779 C780 1.379 . S
C780 H764 0.931 . S
C780 C774 1.383 . S
C780 C779 1.379 . S
H781 C775 0.959 . S
H782 C775 0.961 . S
H783 C775 0.960 . S
H784 C776 0.930 . S
H785 C777 0.929 . S
C147 C8 2.041 . S
C166 C129 1.939 . S
C183 C26 1.251 . S
C202 C107 1.230 . S
C219 C48 1.433 . S
C238 C120 1.457 . S
C255 C19 1.629 . S
C274 C133 1.671 . S
C310 C103 1.457 . S
C291 C36 1.553 . S
C346 C116 1.621 . S
C327 C59 1.637 . S
C363 C28 1.439 . S
C382 C81 1.479 . S
C399 C46 1.105 . S
C418 C94 1.116 . S
C435 C16 1.527 . S
C454 C64 1.459 . S
C490 C77 1.579 . S
C471 C39 1.644 . S
C526 C90 1.049 . S
C507 C56 1.037 . S
C543 C6 1.265 . S
C562 C68 1.253 . S
C598 C95 1.490 . S
C579 C9 1.482 . S
C615 C21 1.528 . S
C634 C69 1.553 . S
C651 C49 1.569 . S
C670 C82 1.601 . S
C706 C121 1.545 . S
C687 C29 1.520 . S
C742 C134 1.634 . S
C723 C41 1.621 . S
C759 C1 1.553 . S
C778 C108 1.580 . S
