# Generated by pormake.
# Topology apo, (3,6)-cn, num edge types: 1
# Building blocks:
#     Node 0, Type 0, BuildingBlock: BETDIP_clean_linker_0, # of connection points: 3
#     Node 1, Type 0, BuildingBlock: BETDIP_clean_linker_0, # of connection points: 3
#     Node 2, Type 0, BuildingBlock: BETDIP_clean_linker_0, # of connection points: 3
#     Node 3, Type 0, BuildingBlock: BETDIP_clean_linker_0, # of connection points: 3
#     Node 4, Type 0, BuildingBlock: BETDIP_clean_linker_0, # of connection points: 3
#     Node 5, Type 0, BuildingBlock: BETDIP_clean_linker_0, # of connection points: 3
#     Node 6, Type 0, BuildingBlock: BETDIP_clean_linker_0, # of connection points: 3
#     Node 7, Type 0, BuildingBlock: BETDIP_clean_linker_0, # of connection points: 3
#     Node 8, Type 1, BuildingBlock: KUMBOL_clean_sbu_1, # of connection points: 6
#     Node 9, Type 1, BuildingBlock: KUMBOL_clean_sbu_1, # of connection points: 6
#     Node 10, Type 1, BuildingBlock: KUMBOL_clean_sbu_1, # of connection points: 6
#     Node 11, Type 1, BuildingBlock: KUMBOL_clean_sbu_1, # of connection points: 6
#     Edge 12, Type (0, 1), BuildingBlock: XUDNAN_clean_linker_2, # of connection points: 2
#     Edge 13, Type (0, 1), BuildingBlock: XUDNAN_clean_linker_2, # of connection points: 2
#     Edge 14, Type (0, 1), BuildingBlock: XUDNAN_clean_linker_2, # of connection points: 2
#     Edge 15, Type (0, 1), BuildingBlock: XUDNAN_clean_linker_2, # of connection points: 2
#     Edge 16, Type (0, 1), BuildingBlock: XUDNAN_clean_linker_2, # of connection points: 2
#     Edge 17, Type (0, 1), BuildingBlock: XUDNAN_clean_linker_2, # of connection points: 2
#     Edge 18, Type (0, 1), BuildingBlock: XUDNAN_clean_linker_2, # of connection points: 2
#     Edge 19, Type (0, 1), BuildingBlock: XUDNAN_clean_linker_2, # of connection points: 2
#     Edge 20, Type (0, 1), BuildingBlock: XUDNAN_clean_linker_2, # of connection points: 2
#     Edge 21, Type (0, 1), BuildingBlock: XUDNAN_clean_linker_2, # of connection points: 2
#     Edge 22, Type (0, 1), BuildingBlock: XUDNAN_clean_linker_2, # of connection points: 2
#     Edge 23, Type (0, 1), BuildingBlock: XUDNAN_clean_linker_2, # of connection points: 2
#     Edge 24, Type (0, 1), BuildingBlock: XUDNAN_clean_linker_2, # of connection points: 2
#     Edge 25, Type (0, 1), BuildingBlock: XUDNAN_clean_linker_2, # of connection points: 2
#     Edge 26, Type (0, 1), BuildingBlock: XUDNAN_clean_linker_2, # of connection points: 2
#     Edge 27, Type (0, 1), BuildingBlock: XUDNAN_clean_linker_2, # of connection points: 2
#     Edge 28, Type (0, 1), BuildingBlock: XUDNAN_clean_linker_2, # of connection points: 2
#     Edge 29, Type (0, 1), BuildingBlock: XUDNAN_clean_linker_2, # of connection points: 2
#     Edge 30, Type (0, 1), BuildingBlock: XUDNAN_clean_linker_2, # of connection points: 2
#     Edge 31, Type (0, 1), BuildingBlock: XUDNAN_clean_linker_2, # of connection points: 2
#     Edge 32, Type (0, 1), BuildingBlock: XUDNAN_clean_linker_2, # of connection points: 2
#     Edge 33, Type (0, 1), BuildingBlock: XUDNAN_clean_linker_2, # of connection points: 2
#     Edge 34, Type (0, 1), BuildingBlock: XUDNAN_clean_linker_2, # of connection points: 2
#     Edge 35, Type (0, 1), BuildingBlock: XUDNAN_clean_linker_2, # of connection points: 2
# Relax obj value: 0.037
# Max RMSD: 0.199
# Mean RMSD: 0.156
data_MOF--net-apo--node1-KUMBOL_clean_sbu_1--node2-BETDIP_clean_linker_0--edge1-XUDNAN_clean_linker_2
_symmetry_space_group_name_H-M    P1
_symmetry_Int_Tables_number       1
_symmetry_cell_setting            triclinic
loop_
_symmetry_equiv_pos_as_xyz
'x, y, z'
_cell_length_a     27.689887
_cell_length_b     41.985182
_cell_length_c     51.669822
_cell_angle_alpha  89.918666
_cell_angle_beta   90.099788
_cell_angle_gamma 90.40108
loop_
_atom_site_label
_atom_site_type_symbol
_atom_site_fract_x
_atom_site_fract_y
_atom_site_fract_z
_atom_type_partial_charge
H0 H 0.31999 0.33559 0.43539 0.0
H1 H 0.30218 0.38206 0.36195 0.0
H2 H 0.37506 0.43104 0.42337 0.0
H3 H 0.23123 0.35153 0.36259 0.0
C4 C 0.2449 0.32901 0.36983 0.0
C5 C 0.32528 0.35647 0.42337 0.0
C6 C 0.34987 0.38346 0.4331 0.0
C7 C 0.30654 0.35613 0.39815 0.0
C8 C 0.31476 0.38237 0.38181 0.0
C9 C 0.34051 0.40891 0.39089 0.0
C10 C 0.35716 0.40965 0.41648 0.0
N11 N 0.2806 0.32875 0.38965 0.0
H12 H 0.23442 0.16757 0.94364 0.0
H13 H 0.19597 0.12887 0.86943 0.0
H14 H 0.14005 0.08637 0.93918 0.0
H15 H 0.23578 0.17015 0.85301 0.0
C16 C 0.25663 0.18207 0.86796 0.0
C17 C 0.21455 0.15017 0.93228 0.0
C18 C 0.18563 0.1273 0.94467 0.0
C19 C 0.2189 0.15086 0.90532 0.0
C20 C 0.19355 0.12824 0.89027 0.0
C21 C 0.16443 0.1048 0.90229 0.0
C22 C 0.16153 0.10444 0.92954 0.0
N23 N 0.24969 0.17465 0.89455 0.0
H24 H 0.77295 0.17648 0.58778 0.0
H25 H 0.77978 0.1344 0.66325 0.0
H26 H 0.87348 0.10058 0.60308 0.0
H27 H 0.69734 0.14416 0.65914 0.0
C28 C 0.70065 0.16923 0.65408 0.0
C29 C 0.78897 0.15939 0.60092 0.0
C30 C 0.82508 0.13851 0.59212 0.0
C31 C 0.77178 0.15756 0.62634 0.0
C32 C 0.79239 0.13544 0.64345 0.0
C33 C 0.82936 0.11487 0.63546 0.0
C34 C 0.84488 0.11616 0.60952 0.0
N35 N 0.73435 0.17836 0.63463 0.0
H36 H 0.75222 0.34647 0.07907 0.0
H37 H 0.73693 0.3917 0.15318 0.0
H38 H 0.68121 0.43718 0.08545 0.0
H39 H 0.79012 0.35692 0.16637 0.0
C40 C 0.78865 0.33626 0.15383 0.0
C41 C 0.73896 0.36615 0.09051 0.0
C42 C 0.71603 0.39209 0.07846 0.0
C43 C 0.74656 0.36558 0.11737 0.0
C44 C 0.73126 0.39147 0.13249 0.0
C45 C 0.70911 0.41776 0.1208 0.0
C46 C 0.70045 0.41744 0.09404 0.0
N47 N 0.76975 0.33855 0.12827 0.0
H48 H 0.73937 0.6597 0.57968 0.0
H49 H 0.73549 0.61732 0.65499 0.0
H50 H 0.64932 0.57696 0.59407 0.0
H51 H 0.74523 0.67094 0.66671 0.0
C52 C 0.77193 0.67892 0.6527 0.0
C53 C 0.72432 0.64182 0.5925 0.0
C54 C 0.69148 0.61867 0.58316 0.0
C55 C 0.73854 0.64242 0.61847 0.0
C56 C 0.72263 0.61816 0.63519 0.0
C57 C 0.6911 0.59427 0.62624 0.0
C58 C 0.67453 0.59513 0.60052 0.0
N59 N 0.7701 0.66719 0.62692 0.0
H60 H 0.77556 0.84375 0.08652 0.0
H61 H 0.7923 0.89207 0.15935 0.0
H62 H 0.85731 0.93167 0.09156 0.0
H63 H 0.71548 0.87328 0.16311 0.0
C64 C 0.71975 0.84862 0.15721 0.0
C65 C 0.79096 0.86318 0.09763 0.0
C66 C 0.81844 0.88725 0.08529 0.0
C67 C 0.78061 0.86492 0.12419 0.0
C68 C 0.79934 0.89048 0.13879 0.0
C69 C 0.8258 0.91485 0.12683 0.0
C70 C 0.8358 0.91292 0.10031 0.0
N71 N 0.74977 0.84154 0.13568 0.0
H72 H 0.21823 0.83221 0.43864 0.0
H73 H 0.20253 0.86916 0.36186 0.0
H74 H 0.11847 0.90848 0.42386 0.0
H75 H 0.21994 0.81806 0.35106 0.0
C76 C 0.24824 0.81234 0.36486 0.0
C77 C 0.20082 0.84857 0.42539 0.0
C78 C 0.16709 0.87069 0.43457 0.0
C79 C 0.21238 0.84715 0.39913 0.0
C80 C 0.19147 0.86894 0.38193 0.0
C81 C 0.15738 0.89114 0.39057 0.0
C82 C 0.14545 0.89193 0.41702 0.0
N83 N 0.24582 0.82393 0.39065 0.0
H84 H 0.27614 0.677 0.93775 0.0
H85 H 0.28791 0.62843 0.86479 0.0
H86 H 0.34118 0.58409 0.9337 0.0
H87 H 0.29146 0.67833 0.84965 0.0
C88 C 0.26339 0.68998 0.86076 0.0
C89 C 0.28813 0.65667 0.92665 0.0
C90 C 0.30942 0.63045 0.93926 0.0
C91 C 0.28149 0.6567 0.89971 0.0
C92 C 0.29528 0.62974 0.88533 0.0
C93 C 0.31641 0.60345 0.89752 0.0
C94 C 0.32379 0.60413 0.92439 0.0
N95 N 0.25876 0.68326 0.88764 0.0
C96 C 0.84635 0.11306 0.27025 0.0
C97 C 0.82597 0.05688 0.27313 0.0
C98 C 0.85888 0.08222 0.27682 0.0
C99 C 0.78093 0.06289 0.26164 0.0
C100 C 0.80023 0.11946 0.25995 0.0
C101 C 0.76807 0.09413 0.25507 0.0
N102 N 0.87793 0.13703 0.27563 0.0
C103 C 0.86396 0.16804 0.27354 0.0
C104 C 0.78718 0.15122 0.25579 0.0
C105 C 0.81889 0.17563 0.26306 0.0
Gd106 Gd 0.06226 0.11942 0.23753 0.0
Gd107 Gd 0.9541 0.1219 0.29133 0.0
N108 N 0.90267 0.07722 0.28791 0.0
C109 C 0.83882 0.02645 0.28177 0.0
C110 C 0.91405 0.04808 0.29807 0.0
C111 C 0.88273 0.02215 0.29467 0.0
H112 H 0.94794 0.04485 0.30811 0.0
H113 H 0.89239 0.9989 0.30203 0.0
H114 H 0.03354 0.18913 0.207 0.0
H115 H 0.88759 0.187 0.28005 0.0
H116 H 0.06208 0.24452 0.20675 0.0
H117 H 0.81454 0.00634 0.27925 0.0
H118 H 0.75527 0.0437 0.25841 0.0
H119 H 0.14654 0.07787 0.26775 0.0
H120 H 0.75208 0.15716 0.24792 0.0
H121 H 0.80845 0.20028 0.26088 0.0
H122 H 0.20895 0.24221 0.25596 0.0
H123 H 0.73264 0.09854 0.24694 0.0
H124 H 0.26125 0.14163 0.28944 0.0
H125 H 0.22615 0.08724 0.28852 0.0
N126 N 0.13714 0.12644 0.25759 0.0
C127 C 0.15656 0.1562 0.25683 0.0
C128 C 0.16188 0.10161 0.26813 0.0
C129 C 0.22658 0.13759 0.28022 0.0
C130 C 0.20683 0.10685 0.27981 0.0
C131 C 0.20154 0.16271 0.26856 0.0
H132 H 0.25419 0.19951 0.2775 0.0
N133 N 0.08779 0.17296 0.23319 0.0
C134 C 0.13072 0.18027 0.24475 0.0
C135 C 0.1237 0.23506 0.23096 0.0
C136 C 0.14959 0.21156 0.24412 0.0
C137 C 0.0645 0.19532 0.21864 0.0
C138 C 0.08135 0.22678 0.21785 0.0
O139 O 0.95586 0.08245 0.2612 0.0
O140 O 0.98807 0.10402 0.22402 0.0
O141 O 0.09522 0.12559 0.19931 0.0
O142 O 0.09506 0.07899 0.2185 0.0
O143 O 0.01774 0.08968 0.29986 0.0
O144 O 0.05061 0.07398 0.26027 0.0
O145 O 0.07328 0.13174 0.27966 0.0
O146 O 0.00824 0.16216 0.28912 0.0
O147 O 0.97226 0.11502 0.33208 0.0
O148 O 0.90933 0.14187 0.32163 0.0
O149 O 0.99371 0.14454 0.22625 0.0
O150 O 0.96512 0.16473 0.26482 0.0
C151 C 0.95729 0.08514 0.23595 0.0
C152 C 0.04109 0.06927 0.28505 0.0
C153 C 0.13438 0.08169 0.1766 0.0
C154 C 0.1593 0.08198 0.13113 0.0
C155 C 0.18953 0.04156 0.16078 0.0
C156 C 0.16271 0.05461 0.18088 0.0
C157 C 0.18812 0.05515 0.13617 0.0
C158 C 0.13272 0.09535 0.15168 0.0
C159 C 0.10784 0.09582 0.19843 0.0
C160 C 0.19398 0.2183 0.25622 0.0
C161 C 0.21989 0.19395 0.26839 0.0
H162 H 0.13683 0.25941 0.23015 0.0
C163 C 0.05467 0.15687 0.29061 0.0
C164 C 0.96556 0.16386 0.23933 0.0
C165 C 0.90571 0.11326 0.36083 0.0
C166 C 0.88244 0.10771 0.40639 0.0
C167 C 0.84425 0.07477 0.37332 0.0
C168 C 0.8718 0.08968 0.35424 0.0
C169 C 0.84934 0.08369 0.39917 0.0
C170 C 0.91095 0.12226 0.38695 0.0
C171 C 0.93402 0.12954 0.34049 0.0
H172 H 0.21183 0.02094 0.16434 0.0
H173 H 0.16479 0.04382 0.1999 0.0
H174 H 0.2102 0.04477 0.12115 0.0
H175 H 0.11019 0.11593 0.14828 0.0
H176 H 0.81807 0.05666 0.36798 0.0
H177 H 0.86582 0.08318 0.33432 0.0
H178 H 0.82612 0.07242 0.41337 0.0
H179 H 0.93684 0.1407 0.39204 0.0
C180 C 0.64818 0.42861 0.7852 0.0
C181 C 0.63847 0.48304 0.79974 0.0
C182 C 0.61941 0.45215 0.79585 0.0
C183 C 0.68602 0.49004 0.79202 0.0
C184 C 0.69634 0.43525 0.77811 0.0
C185 C 0.71492 0.46619 0.78131 0.0
N186 N 0.62881 0.39916 0.78151 0.0
C187 C 0.65596 0.37476 0.77222 0.0
C188 C 0.72427 0.41055 0.76793 0.0
C189 C 0.70406 0.38012 0.76514 0.0
Gd190 Gd 0.45022 0.39688 0.73516 0.0
Gd191 Gd 0.54887 0.39178 0.79439 0.0
N192 N 0.57359 0.44456 0.80331 0.0
C193 C 0.60963 0.50576 0.8119 0.0
C194 C 0.54704 0.46592 0.81713 0.0
C195 C 0.56404 0.49698 0.82102 0.0
H196 H 0.51334 0.45911 0.82596 0.0
H197 H 0.54236 0.51394 0.83153 0.0
H198 H 0.4519 0.32382 0.71129 0.0
H199 H 0.64021 0.35127 0.77014 0.0
H200 H 0.3957 0.27833 0.70477 0.0
H201 H 0.6229 0.52975 0.81521 0.0
H202 H 0.70109 0.5137 0.79471 0.0
H203 H 0.37945 0.45924 0.75123 0.0
H204 H 0.76145 0.41469 0.76227 0.0
H205 H 0.72547 0.36084 0.7575 0.0
H206 H 0.24467 0.31582 0.73821 0.0
H207 H 0.7517 0.47186 0.77575 0.0
H208 H 0.23747 0.42404 0.7668 0.0
H209 H 0.29627 0.4686 0.76558 0.0
N210 N 0.37069 0.40885 0.74827 0.0
C211 C 0.3382 0.38446 0.74733 0.0
C212 C 0.35538 0.43908 0.75339 0.0
C213 C 0.27466 0.41949 0.76156 0.0
C214 C 0.30773 0.44469 0.76092 0.0
C215 C 0.28928 0.38913 0.75387 0.0
H216 H 0.21842 0.36704 0.75621 0.0
N217 N 0.39969 0.35232 0.73021 0.0
C218 C 0.3529 0.35549 0.73743 0.0
C219 C 0.33525 0.30231 0.72208 0.0
C220 C 0.31935 0.33053 0.73361 0.0
C221 C 0.415 0.32546 0.7179 0.0
C222 C 0.38326 0.29984 0.71407 0.0
O223 O 0.57264 0.40812 0.75446 0.0
O224 O 0.50535 0.43516 0.74305 0.0
O225 O 0.46567 0.38922 0.69409 0.0
O226 O 0.41808 0.42679 0.70584 0.0
O227 O 0.47791 0.41609 0.80215 0.0
O228 O 0.4564 0.43877 0.76316 0.0
O229 O 0.44273 0.35507 0.76319 0.0
O230 O 0.47125 0.37752 0.80048 0.0
O231 O 0.56894 0.3945 0.83497 0.0
O232 O 0.57304 0.3495 0.81475 0.0
O233 O 0.51774 0.36709 0.72841 0.0
O234 O 0.54255 0.34847 0.76886 0.0
C235 C 0.55159 0.43023 0.74058 0.0
C236 C 0.45347 0.43706 0.78854 0.0
C237 C 0.39753 0.39996 0.66753 0.0
C238 C 0.37306 0.39016 0.62262 0.0
C239 C 0.31391 0.38737 0.65746 0.0
C240 C 0.34962 0.39473 0.67543 0.0
C241 C 0.3252 0.38556 0.63128 0.0
C242 C 0.40928 0.39713 0.64116 0.0
C243 C 0.43428 0.41022 0.68658 0.0
C244 C 0.27098 0.33477 0.74087 0.0
C245 C 0.25607 0.36391 0.7512 0.0
H246 H 0.31063 0.28252 0.71893 0.0
C247 C 0.44833 0.35452 0.78846 0.0
C248 C 0.53798 0.34549 0.74355 0.0
C249 C 0.62649 0.35773 0.85046 0.0
C250 C 0.67158 0.35986 0.89106 0.0
C251 C 0.7035 0.33075 0.85438 0.0
C252 C 0.66318 0.33907 0.83959 0.0
C253 C 0.70754 0.34081 0.88007 0.0
C254 C 0.63127 0.36837 0.87613 0.0
C255 C 0.58159 0.36478 0.83623 0.0
H256 H 0.27698 0.38389 0.66377 0.0
H257 H 0.33932 0.39725 0.69544 0.0
H258 H 0.29579 0.3814 0.61787 0.0
H259 H 0.44642 0.40072 0.63525 0.0
H260 H 0.73155 0.31626 0.84595 0.0
H261 H 0.66049 0.33056 0.81987 0.0
H262 H 0.73898 0.33407 0.89126 0.0
H263 H 0.60301 0.38264 0.88473 0.0
C264 C 0.8526 0.84812 0.78552 0.0
C265 C 0.86331 0.79797 0.80813 0.0
C266 C 0.88182 0.82755 0.79955 0.0
C267 C 0.8153 0.78948 0.80246 0.0
C268 C 0.80435 0.83968 0.77982 0.0
C269 C 0.78591 0.81027 0.78836 0.0
N270 N 0.87152 0.87623 0.77718 0.0
C271 C 0.84355 0.89782 0.7644 0.0
C272 C 0.77603 0.86112 0.76573 0.0
C273 C 0.79568 0.89037 0.75809 0.0
Gd274 Gd 0.04852 0.90017 0.73363 0.0
Gd275 Gd 0.94945 0.88835 0.79167 0.0
N276 N 0.92773 0.8368 0.80541 0.0
C277 C 0.8933 0.77803 0.82263 0.0
C278 C 0.95607 0.81818 0.82084 0.0
C279 C 0.93977 0.78829 0.82915 0.0
H280 H 0.99063 0.82657 0.82767 0.0
H281 H 0.96267 0.77352 0.84111 0.0
H282 H 0.02413 0.97376 0.71441 0.0
H283 H 0.85806 0.92085 0.75918 0.0
H284 H 0.06371 0.02678 0.71363 0.0
H285 H 0.8805 0.75507 0.82944 0.0
H286 H 0.80052 0.76687 0.80892 0.0
H287 H 0.13583 0.84764 0.75056 0.0
H288 H 0.73886 0.85545 0.7609 0.0
H289 H 0.7738 0.90734 0.74762 0.0
H290 H 0.2203 0.00801 0.75056 0.0
H291 H 0.74897 0.80335 0.78412 0.0
H292 H 0.26109 0.90073 0.77282 0.0
H293 H 0.21846 0.84916 0.76779 0.0
N294 N 0.12858 0.89808 0.74903 0.0
C295 C 0.15236 0.92654 0.75025 0.0
C296 C 0.1525 0.87044 0.75418 0.0
C297 C 0.22403 0.9003 0.76605 0.0
C298 C 0.20003 0.87116 0.76334 0.0
C299 C 0.20067 0.92841 0.75888 0.0
H300 H 0.26156 0.95992 0.76611 0.0
N301 N 0.08262 0.95128 0.73343 0.0
C302 C 0.12912 0.95379 0.74167 0.0
C303 C 0.12929 0.00998 0.7314 0.0
C304 C 0.15353 0.98337 0.74119 0.0
C305 C 0.05965 0.9767 0.72265 0.0
C306 C 0.08229 0.00655 0.72185 0.0
O307 O 0.93082 0.8669 0.75234 0.0
O308 O 0.00504 0.85456 0.73486 0.0
O309 O 0.03084 0.90887 0.69316 0.0
O310 O 0.09545 0.88309 0.70319 0.0
O311 O 0.0222 0.86396 0.7976 0.0
O312 O 0.051 0.85383 0.75621 0.0
O313 O 0.04445 0.9371 0.76586 0.0
O314 O 0.02552 0.90447 0.79948 0.0
O315 O 0.92707 0.88605 0.8324 0.0
O316 O 0.91737 0.9296 0.80963 0.0
O317 O 0.97271 0.91789 0.72772 0.0
O318 O 0.94762 0.93393 0.76804 0.0
C319 C 0.95786 0.85108 0.73583 0.0
C320 C 0.04767 0.84689 0.7811 0.0
C321 C 0.09698 0.91247 0.66437 0.0
C322 C 0.12207 0.916 0.61917 0.0
C323 C 0.15408 0.9533 0.65098 0.0
C324 C 0.1272 0.93836 0.67034 0.0
C325 C 0.15183 0.94217 0.62558 0.0
C326 C 0.09421 0.90155 0.63878 0.0
C327 C 0.06994 0.89547 0.68464 0.0
C328 C 0.20115 0.98542 0.75043 0.0
C329 C 0.22458 0.95804 0.75937 0.0
H330 H 0.1468 0.03312 0.73072 0.0
C331 C 0.04241 0.93159 0.79085 0.0
C332 C 0.95041 0.93808 0.7428 0.0
C333 C 0.88803 0.93114 0.85387 0.0
C334 C 0.86364 0.93231 0.89949 0.0
C335 C 0.83993 0.97488 0.87004 0.0
C336 C 0.86424 0.96015 0.84983 0.0
C337 C 0.83912 0.96101 0.89454 0.0
C338 C 0.88802 0.91741 0.8788 0.0
C339 C 0.91072 0.91502 0.83163 0.0
H340 H 0.1775 0.97319 0.65578 0.0
H341 H 0.13076 0.94674 0.6899 0.0
H342 H 0.17445 0.95354 0.61115 0.0
H343 H 0.07066 0.88157 0.63427 0.0
H344 H 0.82103 0.99697 0.86661 0.0
H345 H 0.86359 0.97122 0.83089 0.0
H346 H 0.81846 0.97271 0.90948 0.0
H347 H 0.90715 0.89534 0.88204 0.0
C348 C 0.67398 0.60479 0.26 0.0
C349 C 0.70982 0.65676 0.2528 0.0
C350 C 0.67128 0.6375 0.26156 0.0
C351 C 0.74914 0.64254 0.24025 0.0
C352 C 0.71506 0.59017 0.24937 0.0
C353 C 0.75175 0.60924 0.23854 0.0
N354 N 0.63837 0.5873 0.27114 0.0
C355 C 0.64354 0.55525 0.27462 0.0
C356 C 0.71893 0.55699 0.25108 0.0
C357 C 0.68355 0.53954 0.26431 0.0
Gd358 Gd 0.46458 0.61838 0.22625 0.0
Gd359 Gd 0.56859 0.61504 0.28351 0.0
N360 N 0.63331 0.65019 0.27428 0.0
C361 C 0.70889 0.68941 0.25827 0.0
C362 C 0.63499 0.68122 0.2823 0.0
C363 C 0.67198 0.70152 0.27374 0.0
H364 H 0.60628 0.69063 0.29418 0.0
H365 H 0.67192 0.72646 0.27903 0.0
H366 H 0.51589 0.57187 0.18031 0.0
H367 H 0.61547 0.54166 0.28419 0.0
H368 H 0.51463 0.51541 0.16746 0.0
H369 H 0.73767 0.7051 0.25179 0.0
H370 H 0.77871 0.65696 0.23292 0.0
H371 H 0.35728 0.63302 0.25188 0.0
H372 H 0.74986 0.54478 0.2431 0.0
H373 H 0.68678 0.51399 0.26632 0.0
H374 H 0.38304 0.47043 0.21603 0.0
H375 H 0.78326 0.59848 0.22985 0.0
H376 H 0.28101 0.54431 0.26044 0.0
H377 H 0.28485 0.60282 0.26639 0.0
N378 N 0.39336 0.59187 0.23827 0.0
C379 C 0.39073 0.56022 0.2334 0.0
C380 C 0.35533 0.60753 0.24902 0.0
C381 C 0.31255 0.55747 0.25395 0.0
C382 C 0.31451 0.59052 0.25727 0.0
C383 C 0.35061 0.54197 0.24147 0.0
H384 H 0.31898 0.49461 0.24239 0.0
N385 N 0.46254 0.56598 0.2096 0.0
C386 C 0.42695 0.5467 0.21883 0.0
C387 C 0.45731 0.5027 0.19377 0.0
C388 C 0.42376 0.5144 0.21155 0.0
C389 C 0.49158 0.5556 0.19005 0.0
C390 C 0.49042 0.52367 0.18239 0.0
O391 O 0.55327 0.66045 0.26154 0.0
O392 O 0.53546 0.64444 0.22017 0.0
O393 O 0.43084 0.61924 0.18802 0.0
O394 O 0.43305 0.66231 0.21174 0.0
O395 O 0.50779 0.64976 0.291 0.0
O396 O 0.44814 0.65302 0.25865 0.0
O397 O 0.44949 0.59999 0.26682 0.0
O398 O 0.51861 0.57349 0.27711 0.0
O399 O 0.5383 0.6052 0.32165 0.0
O400 O 0.61401 0.6159 0.31778 0.0
O401 O 0.54137 0.60478 0.21683 0.0
O402 O 0.56001 0.57664 0.2532 0.0
C403 C 0.5536 0.66527 0.23646 0.0
C404 C 0.46676 0.66094 0.28141 0.0
C405 C 0.39453 0.66689 0.16941 0.0
C406 C 0.36535 0.67118 0.12474 0.0
C407 C 0.35234 0.71435 0.1553 0.0
C408 C 0.37606 0.69726 0.1746 0.0
C409 C 0.34694 0.70149 0.13058 0.0
C410 C 0.38898 0.65389 0.14442 0.0
C411 C 0.41999 0.6492 0.19 0.0
C412 C 0.38567 0.49543 0.22106 0.0
C413 C 0.34911 0.50921 0.236 0.0
H414 H 0.45616 0.47804 0.18763 0.0
C415 C 0.47172 0.5767 0.27881 0.0
C416 C 0.56663 0.58277 0.22863 0.0
C417 C 0.59102 0.58547 0.354 0.0
C418 C 0.61451 0.57647 0.39921 0.0
C419 C 0.61429 0.53277 0.36798 0.0
C420 C 0.59865 0.5533 0.34847 0.0
C421 C 0.62293 0.54424 0.39299 0.0
C422 C 0.59757 0.59668 0.37934 0.0
C423 C 0.57934 0.60847 0.33355 0.0
H424 H 0.33794 0.73767 0.15953 0.0
H425 H 0.37976 0.7078 0.19363 0.0
H426 H 0.32771 0.71516 0.11612 0.0
H427 H 0.40381 0.63066 0.14018 0.0
H428 H 0.62075 0.50797 0.36358 0.0
H429 H 0.59316 0.54423 0.32909 0.0
H430 H 0.63712 0.52778 0.40715 0.0
H431 H 0.5896 0.62141 0.38324 0.0
H432 H 0.13468 0.95454 0.39721 0.0
H433 H 0.12794 0.87757 0.34117 0.0
H434 H 0.09709 0.91478 0.30835 0.0
H435 H 0.02279 0.99325 0.37536 0.0
H436 H 0.04625 0.03275 0.38116 0.0
H437 H 0.06669 0.99984 0.40064 0.0
H438 H 0.15524 0.01332 0.38839 0.0
H439 H 0.13505 0.04603 0.36867 0.0
H440 H 0.17205 0.01538 0.35473 0.0
H441 H 0.07319 0.96068 0.28067 0.0
H442 H 0.04983 0.01197 0.26094 0.0
H443 H 0.06626 0.05841 0.33546 0.0
C444 C 0.12588 0.94535 0.3782 0.0
C445 C 0.1345 0.91317 0.37171 0.0
C446 C 0.12285 0.90226 0.34647 0.0
C447 C 0.10496 0.92315 0.32771 0.0
C448 C 0.09805 0.9548 0.33456 0.0
C449 C 0.10732 0.96581 0.35928 0.0
C450 C 0.09675 1.00107 0.36146 0.0
C451 C 0.05567 0.00707 0.3808 0.0
C452 C 0.14251 0.02005 0.36874 0.0
C453 C 0.08097 0.00814 0.33398 0.0
C454 C 0.08225 0.98114 0.31877 0.0
C455 C 0.07146 0.98195 0.29243 0.0
C456 C 0.05858 0.01116 0.28138 0.0
C457 C 0.05613 0.03897 0.29674 0.0
C458 C 0.06735 0.03737 0.32337 0.0
H459 H 0.36639 0.60004 0.85153 0.0
H460 H 0.29468 0.54181 0.90952 0.0
H461 H 0.31531 0.49343 0.88497 0.0
H462 H 0.33289 0.55158 0.79505 0.0
H463 H 0.39052 0.55703 0.77942 0.0
H464 H 0.36739 0.58755 0.80046 0.0
H465 H 0.44565 0.58528 0.82788 0.0
H466 H 0.46912 0.55477 0.80704 0.0
H467 H 0.46458 0.54776 0.84137 0.0
H468 H 0.34645 0.45164 0.85599 0.0
H469 H 0.39164 0.41799 0.82553 0.0
H470 H 0.44372 0.50226 0.78551 0.0
C471 C 0.35452 0.57709 0.85881 0.0
C472 C 0.3288 0.57461 0.88239 0.0
C473 C 0.31466 0.54419 0.89161 0.0
C474 C 0.32584 0.51663 0.87769 0.0
C475 C 0.35119 0.51986 0.85457 0.0
C476 C 0.36571 0.54922 0.84521 0.0
C477 C 0.39538 0.54568 0.82069 0.0
C478 C 0.37002 0.5614 0.79753 0.0
C479 C 0.44672 0.55916 0.82448 0.0
C480 C 0.39579 0.5097 0.81798 0.0
C481 C 0.36955 0.49542 0.83764 0.0
C482 C 0.36667 0.4625 0.84036 0.0
C483 C 0.39239 0.44362 0.82299 0.0
C484 C 0.42051 0.45765 0.80314 0.0
C485 C 0.42141 0.49107 0.80017 0.0
H486 H 0.60124 0.57632 0.64382 0.0
H487 H 0.75282 0.55163 0.64722 0.0
H488 H 0.73337 0.50599 0.67582 0.0
H489 H 0.57645 0.55857 0.71085 0.0
H490 H 0.51665 0.54305 0.70478 0.0
H491 H 0.54206 0.57284 0.68359 0.0
H492 H 0.52774 0.53571 0.64425 0.0
H493 H 0.50231 0.50581 0.66535 0.0
H494 H 0.55235 0.49607 0.64462 0.0
H495 H 0.69727 0.46215 0.70267 0.0
H496 H 0.64788 0.42559 0.72915 0.0
H497 H 0.52046 0.48135 0.71179 0.0
C498 C 0.63011 0.56112 0.65054 0.0
C499 C 0.67848 0.56718 0.64333 0.0
C500 C 0.71559 0.5472 0.65265 0.0
C501 C 0.70486 0.52125 0.66878 0.0
C502 C 0.65687 0.51587 0.67567 0.0
C503 C 0.6201 0.5354 0.66711 0.0
C504 C 0.57191 0.52507 0.67838 0.0
C505 C 0.55052 0.55145 0.69541 0.0
C506 C 0.5365 0.51507 0.65686 0.0
C507 C 0.58738 0.49667 0.69448 0.0
C508 C 0.63644 0.49159 0.69239 0.0
C509 C 0.65893 0.46622 0.7048 0.0
C510 C 0.63064 0.44571 0.72003 0.0
C511 C 0.58061 0.45109 0.72332 0.0
C512 C 0.55876 0.47678 0.71005 0.0
H513 H 0.88432 0.91995 0.16974 0.0
H514 H 0.79653 0.97497 0.11672 0.0
H515 H 0.81587 0.02403 0.14118 0.0
H516 H 0.8576 0.96379 0.22852 0.0
H517 H 0.91852 0.96201 0.24075 0.0
H518 H 0.89581 0.93081 0.22002 0.0
H519 H 0.96735 0.94002 0.18848 0.0
H520 H 0.99032 0.97104 0.20925 0.0
H521 H 0.97819 0.97937 0.17565 0.0
H522 H 0.84591 0.067 0.17034 0.0
H523 H 0.88965 0.10214 0.20093 0.0
H524 H 0.95935 0.02011 0.23502 0.0
C525 C 0.86908 0.94238 0.16349 0.0
C526 C 0.83889 0.94391 0.14146 0.0
C527 C 0.81992 0.97354 0.1335 0.0
C528 C 0.83045 1.0014 0.14735 0.0
C529 C 0.86035 0.99922 0.16898 0.0
C530 C 0.87986 0.97057 0.17691 0.0
C531 C 0.9134 0.9753 0.19987 0.0
C532 C 0.89522 0.95688 0.2237 0.0
C533 C 0.96539 0.96588 0.19289 0.0
C534 C 0.90926 0.01098 0.20372 0.0
C535 C 0.87834 0.02423 0.18569 0.0
C536 C 0.87017 0.05692 0.18455 0.0
C537 C 0.89521 0.07669 0.20185 0.0
C538 C 0.92768 0.06368 0.22003 0.0
C539 C 0.93412 0.03042 0.22138 0.0
H540 H 0.85745 0.05204 0.62869 0.0
H541 H 0.85243 0.12766 0.6859 0.0
H542 H 0.88101 0.09048 0.71929 0.0
H543 H 0.81849 0.98885 0.66905 0.0
H544 H 0.85935 0.9596 0.65627 0.0
H545 H 0.8397 0.99212 0.63617 0.0
H546 H 0.9287 0.0084 0.6276 0.0
H547 H 0.94859 0.97564 0.64741 0.0
H548 H 0.96858 0.0156 0.65462 0.0
H549 H 0.90489 0.04476 0.74729 0.0
H550 H 0.93142 0.9943 0.76718 0.0
H551 H 0.92583 0.94858 0.69191 0.0
C552 C 0.86309 0.06091 0.64813 0.0
C553 C 0.85163 0.09274 0.65468 0.0
C554 C 0.85951 0.10324 0.68045 0.0
C555 C 0.87608 0.08234 0.69959 0.0
C556 C 0.88553 0.051 0.69271 0.0
C557 C 0.88023 0.04037 0.66754 0.0
C558 C 0.89347 0.00542 0.66547 0.0
C559 C 0.85016 0.98532 0.65619 0.0
C560 C 0.93745 1.00102 0.64772 0.0
C561 C 0.90602 0.99809 0.69345 0.0
C562 C 0.90101 0.02472 0.70883 0.0
C563 C 0.90935 0.02376 0.73543 0.0
C564 C 0.92404 0.99493 0.74659 0.0
C565 C 0.93068 0.96751 0.73114 0.0
C566 C 0.92119 0.96917 0.70423 0.0
H567 H 0.66279 0.42104 0.16799 0.0
H568 H 0.72808 0.47937 0.1079 0.0
H569 H 0.70506 0.52784 0.13151 0.0
H570 H 0.56275 0.468 0.17811 0.0
H571 H 0.55956 0.46432 0.21284 0.0
H572 H 0.586 0.43306 0.19387 0.0
H573 H 0.66579 0.43644 0.21934 0.0
H574 H 0.63983 0.46677 0.23958 0.0
H575 H 0.696 0.47435 0.22301 0.0
H576 H 0.67028 0.56963 0.15916 0.0
H577 H 0.62328 0.60284 0.18926 0.0
H578 H 0.5809 0.51839 0.2322 0.0
C579 C 0.67302 0.44403 0.16012 0.0
C580 C 0.69706 0.4465 0.13607 0.0
C581 C 0.70914 0.47698 0.12613 0.0
C582 C 0.69664 0.50462 0.13951 0.0
C583 C 0.67242 0.50144 0.16294 0.0
C584 C 0.6608 0.472 0.17329 0.0
C585 C 0.63191 0.47551 0.19803 0.0
C586 C 0.58209 0.4593 0.19557 0.0
C587 C 0.66008 0.46249 0.22137 0.0
C588 C 0.62777 0.51147 0.19937 0.0
C589 C 0.6521 0.52589 0.17912 0.0
C590 C 0.65161 0.55872 0.17531 0.0
C591 C 0.62483 0.57735 0.19241 0.0
C592 C 0.59912 0.56308 0.21303 0.0
C593 C 0.60123 0.52982 0.21684 0.0
H594 H 0.42184 0.42005 0.36284 0.0
H595 H 0.28143 0.45881 0.38106 0.0
H596 H 0.29949 0.50622 0.35391 0.0
H597 H 0.48767 0.49352 0.36372 0.0
H598 H 0.52618 0.48351 0.3369 0.0
H599 H 0.50175 0.45245 0.35719 0.0
H600 H 0.46436 0.42484 0.31687 0.0
H601 H 0.48894 0.45579 0.2965 0.0
H602 H 0.4251 0.44716 0.29581 0.0
H603 H 0.33457 0.55014 0.32672 0.0
H604 H 0.38257 0.58686 0.2996 0.0
H605 H 0.49902 0.51832 0.29737 0.0
C606 C 0.39494 0.43851 0.36083 0.0
C607 C 0.35025 0.43612 0.37372 0.0
C608 C 0.3157 0.46048 0.37105 0.0
C609 C 0.32572 0.48736 0.35578 0.0
C610 C 0.37032 0.48921 0.34334 0.0
C611 C 0.40428 0.46536 0.34555 0.0
C612 C 0.44944 0.47327 0.33025 0.0
C613 C 0.49387 0.47584 0.34808 0.0
C614 C 0.45741 0.44881 0.30857 0.0
C615 C 0.43579 0.50544 0.31934 0.0
C616 C 0.39006 0.5142 0.32715 0.0
C617 C 0.37011 0.54332 0.32016 0.0
C618 C 0.39748 0.56391 0.30457 0.0
C619 C 0.44393 0.55511 0.29583 0.0
C620 C 0.46341 0.52559 0.30356 0.0
H621 H 0.18863 0.07659 0.85526 0.0
H622 H 0.07564 0.07857 0.91367 0.0
H623 H 0.03383 0.03473 0.89166 0.0
H624 H 0.10318 0.06228 0.80116 0.0
H625 H 0.14524 0.03761 0.78391 0.0
H626 H 0.16725 0.0692 0.80441 0.0
H627 H 0.21943 0.02841 0.82939 0.0
H628 H 0.19683 0.99667 0.80925 0.0
H629 H 0.19082 0.99406 0.8439 0.0
H630 H 0.00982 0.98638 0.86708 0.0
H631 H 0.99637 0.9427 0.83626 0.0
H632 H 0.11479 0.97717 0.78932 0.0
C633 C 0.15468 0.06834 0.86325 0.0
C634 C 0.13662 0.08067 0.88688 0.0
C635 C 0.09183 0.06884 0.89638 0.0
C636 C 0.06729 0.04407 0.88384 0.0
C637 C 0.08682 0.03194 0.86119 0.0
C638 C 0.12867 0.04418 0.85048 0.0
C639 C 0.14062 0.02725 0.82534 0.0
C640 C 0.13895 0.05048 0.80234 0.0
C641 C 0.18984 0.01062 0.82709 0.0
C642 C 0.09949 1.00318 0.82408 0.0
C643 C 0.06944 0.00608 0.84523 0.0
C644 C 0.03196 0.98462 0.84991 0.0
C645 C 0.02435 0.9599 0.8322 0.0
C646 C 0.05271 0.95742 0.80957 0.0
C647 C 0.09103 0.9793 0.80564 0.0
H648 H 0.18223 0.0758 0.97763 0.0
H649 H 0.17603 0.1791 0.97676 0.0
H650 H 0.16583 0.17917 0.02426 0.0
H651 H 0.09066 0.06438 0.02676 0.0
H652 H 0.12087 0.03077 0.04109 0.0
H653 H 0.12793 0.03907 1.00709 0.0
H654 H 0.22094 0.04089 0.01278 0.0
H655 H 0.21424 0.03258 0.04678 0.0
H656 H 0.24724 0.06746 0.03638 0.0
H657 H 0.15818 0.16758 0.07247 0.0
H658 H 0.15518 0.14535 0.11678 0.0
H659 H 0.16032 0.04977 0.08492 0.0
C660 C 0.17813 0.09848 0.9873 0.0
C661 C 0.18001 0.12745 0.97336 0.0
C662 C 0.17547 0.15658 0.987 0.0
C663 C 0.16922 0.15687 0.01397 0.0
C664 C 0.16724 0.12783 0.02704 0.0
C665 C 0.17145 0.0992 0.0141 0.0
C666 C 0.16855 0.07126 0.03255 0.0
C667 C 0.12436 0.05013 0.02651 0.0
C668 C 0.21554 0.05192 0.03209 0.0
C669 C 0.1626 0.08861 0.05796 0.0
C670 C 0.16185 0.12121 0.05447 0.0
C671 C 0.15833 0.14205 0.07538 0.0
C672 C 0.15631 0.12917 0.1005 0.0
C673 C 0.15772 0.09575 0.1045 0.0
C674 C 0.15998 0.07541 0.08274 0.0
H675 H 0.30747 0.35538 0.47583 0.0
H676 H 0.42964 0.41485 0.45338 0.0
H677 H 0.4517 0.42114 0.49927 0.0
H678 H 0.27529 0.3952 0.53188 0.0
H679 H 0.26126 0.35989 0.55035 0.0
H680 H 0.25568 0.35937 0.51566 0.0
H681 H 0.31354 0.31119 0.51324 0.0
H682 H 0.31904 0.31138 0.54799 0.0
H683 H 0.37237 0.31389 0.52812 0.0
H684 H 0.45492 0.42549 0.5482 0.0
H685 H 0.44264 0.4241 0.59536 0.0
H686 H 0.32722 0.35447 0.58487 0.0
C687 C 0.3397 0.36904 0.48026 0.0
C688 C 0.36629 0.38486 0.46066 0.0
C689 C 0.40759 0.40311 0.46785 0.0
C690 C 0.42086 0.40658 0.49393 0.0
C691 C 0.39334 0.391 0.51264 0.0
C692 C 0.35421 0.37208 0.50606 0.0
C693 C 0.3304 0.35796 0.52981 0.0
C694 C 0.27755 0.36876 0.53204 0.0
C695 C 0.33408 0.32144 0.52978 0.0
C696 C 0.36149 0.37256 0.55082 0.0
C697 C 0.3974 0.39172 0.54062 0.0
C698 C 0.42769 0.40989 0.55642 0.0
C699 C 0.42062 0.40871 0.58333 0.0
C700 C 0.38392 0.38911 0.59428 0.0
C701 C 0.35509 0.37021 0.57753 0.0
H702 H 0.70128 0.34207 0.04411 0.0
H703 H 0.71735 0.44517 0.04694 0.0
H704 H 0.70304 0.44799 1.00015 0.0
H705 H 0.7679 0.3338 0.98443 0.0
H706 H 0.73117 0.30112 0.97294 0.0
H707 H 0.73914 0.3072 1.00719 0.0
H708 H 0.64628 0.30914 0.01297 0.0
H709 H 0.63798 0.30336 0.9787 0.0
H710 H 0.6116 0.33734 0.99443 0.0
H711 H 0.68492 0.44012 0.95303 0.0
H712 H 0.6739 0.42119 0.90799 0.0
H713 H 0.6791 0.3234 0.93478 0.0
C714 C 0.70232 0.36529 0.03502 0.0
C715 C 0.70937 0.39342 0.04972 0.0
C716 C 0.71017 0.42322 0.03663 0.0
C717 C 0.70253 0.42514 1.00987 0.0
C718 C 0.69521 0.39704 0.99617 0.0
C719 C 0.69596 0.36764 1.00818 0.0
C720 C 0.68992 0.34097 0.98866 0.0
C721 C 0.7347 0.31951 0.98829 0.0
C722 C 0.64369 0.32157 0.99402 0.0
C723 C 0.68559 0.36005 0.96385 0.0
C724 C 0.68797 0.39238 0.96869 0.0
C725 C 0.6835 0.41486 0.94895 0.0
C726 C 0.67714 0.40396 0.92352 0.0
C727 C 0.67621 0.37096 0.91808 0.0
C728 C 0.6803 0.34877 0.93852 0.0
H729 H 0.84003 0.08886 0.55842 0.0
H730 H 0.84663 0.1919 0.56373 0.0
H731 H 0.86899 0.19506 0.51752 0.0
H732 H 0.94081 0.07963 0.51256 0.0
H733 H 0.9112 0.04768 0.49534 0.0
H734 H 0.89964 0.05335 0.52933 0.0
H735 H 0.80787 0.05683 0.51994 0.0
H736 H 0.81914 0.05118 0.48597 0.0
H737 H 0.78629 0.08559 0.49677 0.0
H738 H 0.88534 0.18719 0.46996 0.0
H739 H 0.89157 0.16895 0.42468 0.0
H740 H 0.87644 0.07096 0.45053 0.0
C741 C 0.84717 0.11204 0.54999 0.0
C742 C 0.84169 0.14015 0.56473 0.0
C743 C 0.85027 0.17007 0.55279 0.0
C744 C 0.86331 0.1721 0.52659 0.0
C745 C 0.86779 0.14398 0.51253 0.0
C746 C 0.86004 0.1145 0.52381 0.0
C747 C 0.86434 0.08804 0.50403 0.0
C748 C 0.90652 0.06587 0.51072 0.0
C749 C 0.81657 0.06932 0.50154 0.0
C750 C 0.87483 0.10727 0.47981 0.0
C751 C 0.87715 0.13946 0.48514 0.0
C752 C 0.8842 0.16199 0.46561 0.0
C753 C 0.88804 0.15137 0.43992 0.0
C754 C 0.8846 0.11849 0.4339 0.0
C755 C 0.87891 0.09626 0.45434 0.0
H756 H 0.82622 0.93829 0.05177 0.0
H757 H 0.83061 0.83484 0.05341 0.0
H758 H 0.8444 0.83449 1.0062 0.0
H759 H 0.76892 0.94819 0.99167 0.0
H760 H 0.80487 0.98224 0.98233 0.0
H761 H 0.79425 0.97409 0.01605 0.0
H762 H 0.88655 0.97355 0.02453 0.0
H763 H 0.89752 0.98179 0.99082 0.0
H764 H 0.92434 0.94741 1.00587 0.0
H765 H 0.85459 0.84613 0.95772 0.0
H766 H 0.86208 0.86854 0.91365 0.0
H767 H 0.86211 0.96397 0.94609 0.0
C768 C 0.83108 0.91541 0.04257 0.0
C769 C 0.82736 0.88658 0.0567 0.0
C770 C 0.83245 0.85734 0.04321 0.0
C771 C 0.84077 0.85688 0.01635 0.0
C772 C 0.84473 0.88583 1.00323 0.0
C773 C 0.84052 0.91452 0.01604 0.0
C774 C 0.84683 0.94243 0.9978 0.0
C775 C 0.80099 0.96293 0.99692 0.0
C776 C 0.89147 0.96247 1.0052 0.0
C777 C 0.85443 0.92503 0.97257 0.0
C778 C 0.85289 0.89241 0.97593 0.0
C779 C 0.85652 0.87167 0.95496 0.0
C780 C 0.86117 0.88467 0.92995 0.0
C781 C 0.86257 0.91817 0.92609 0.0
C782 C 0.86023 0.93832 0.94799 0.0
H783 H 0.66598 0.56736 0.5518 0.0
H784 H 0.68126 0.67059 0.55074 0.0
H785 H 0.66424 0.67076 0.50415 0.0
H786 H 0.71512 0.55061 0.49086 0.0
H787 H 0.67155 0.52027 0.48239 0.0
H788 H 0.68565 0.52771 0.51588 0.0
H789 H 0.5952 0.53745 0.52562 0.0
H790 H 0.58069 0.52968 0.49221 0.0
H791 H 0.56259 0.56659 0.50696 0.0
H792 H 0.65378 0.65928 0.45689 0.0
H793 H 0.6392 0.63824 0.41347 0.0
H794 H 0.61517 0.54385 0.44634 0.0
C795 C 0.66485 0.59019 0.5421 0.0
C796 C 0.67634 0.61889 0.55529 0.0
C797 C 0.67466 0.64801 0.54127 0.0
C798 C 0.66444 0.64848 0.5147 0.0
C799 C 0.6544 0.61976 0.50237 0.0
C800 C 0.65325 0.59125 0.51569 0.0
C801 C 0.6398 0.56391 0.49787 0.0
C802 C 0.68046 0.53917 0.49669 0.0
C803 C 0.59171 0.5485 0.50616 0.0
C804 C 0.63469 0.58148 0.47235 0.0
C805 C 0.64387 0.61359 0.47538 0.0
C806 C 0.64501 0.63431 0.45437 0.0
C807 C 0.63602 0.62199 0.42962 0.0
C808 C 0.62455 0.58921 0.42589 0.0
C809 C 0.62388 0.5689 0.4479 0.0
H810 H 0.33856 0.67985 0.97089 0.0
H811 H 0.29564 0.58021 0.97258 0.0
H812 H 0.30951 0.57885 0.01973 0.0
H813 H 0.43181 0.67503 0.01935 0.0
H814 H 0.41792 0.71309 0.0335 0.0
H815 H 0.40597 0.70609 0.99969 0.0
H816 H 0.31635 0.72154 1.00626 0.0
H817 H 0.32808 0.72882 0.04003 0.0
H818 H 0.2811 0.70124 0.0306 0.0
H819 H 0.32677 0.58861 0.06711 0.0
H820 H 0.34239 0.60957 0.11105 0.0
H821 H 0.37384 0.70269 0.07828 0.0
C822 C 0.33171 0.65779 0.98116 0.0
C823 C 0.31634 0.63008 0.96788 0.0
C824 C 0.30828 0.60163 0.98215 0.0
C825 C 0.31586 0.60063 1.009 0.0
C826 C 0.33138 0.62829 0.02141 0.0
C827 C 0.33898 0.65637 1.00798 0.0
C828 C 0.3546 0.68294 0.02601 0.0
C829 C 0.40561 0.69499 0.01923 0.0
C830 C 0.31784 0.71024 0.0257 0.0
C831 C 0.35416 0.66549 0.05168 0.0
C832 C 0.34097 0.63394 0.04863 0.0
C833 C 0.33729 0.61328 0.06971 0.0
C834 C 0.34654 0.62535 0.0946 0.0
C835 C 0.35917 0.65782 0.09822 0.0
C836 C 0.36364 0.67787 0.07629 0.0
H837 H 0.15627 0.92291 0.46595 0.0
H838 H 0.14966 0.81958 0.4662 0.0
H839 H 0.13318 0.82005 0.5131 0.0
H840 H 0.21599 0.93156 0.52592 0.0
H841 H 0.18334 0.96651 0.53571 0.0
H842 H 0.19189 0.95826 0.50186 0.0
H843 H 0.09934 0.96027 0.49448 0.0
H844 H 0.09051 0.96863 0.52833 0.0
H845 H 0.06018 0.93512 0.51359 0.0
H846 H 0.12257 0.83151 0.56021 0.0
H847 H 0.11806 0.85321 0.6044 0.0
H848 H 0.1273 0.94925 0.57325 0.0
C849 C 0.15048 0.90042 0.47579 0.0
C850 C 0.15436 0.8712 0.46245 0.0
C851 C 0.14744 0.84223 0.47611 0.0
C852 C 0.13774 0.84225 0.5027 0.0
C853 C 0.13475 0.87144 0.51533 0.0
C854 C 0.14068 0.9 0.50234 0.0
C855 C 0.13747 0.92798 0.5207 0.0
C856 C 0.185 0.9472 0.52106 0.0
C857 C 0.09429 0.94925 0.51386 0.0
C858 C 0.12946 0.91064 0.54605 0.0
C859 C 0.12785 0.87806 0.54251 0.0
C860 C 0.12303 0.85702 0.56321 0.0
C861 C 0.12015 0.86963 0.58826 0.0
C862 C 0.12195 0.903 0.59241 0.0
C863 C 0.12611 0.92364 0.57085 0.0
H864 H 0.16394 0.32253 0.34019 0.0
H865 H 0.27508 0.26788 0.37904 0.0
H866 H 0.23719 0.21802 0.36353 0.0
H867 H 0.06534 0.26798 0.3542 0.0
H868 H 0.03602 0.27402 0.32342 0.0
H869 H 0.07198 0.30548 0.33749 0.0
H870 H 0.12258 0.3084 0.29574 0.0
H871 H 0.08838 0.27627 0.28143 0.0
H872 H 0.15308 0.27345 0.28431 0.0
H873 H 0.18871 0.17434 0.34317 0.0
H874 H 0.13135 0.1393 0.31989 0.0
H875 H 0.04991 0.2218 0.29516 0.0
C876 C 0.18018 0.30002 0.34541 0.0
C877 C 0.22234 0.29899 0.3608 0.0
C878 C 0.24266 0.2692 0.36735 0.0
C879 C 0.22145 0.24076 0.3586 0.0
C880 C 0.17979 0.24257 0.34352 0.0
C881 C 0.15916 0.27138 0.33706 0.0
C882 C 0.11405 0.26659 0.32079 0.0
C883 C 0.0692 0.27927 0.33482 0.0
C884 C 0.11987 0.28208 0.29398 0.0
C885 C 0.11277 0.23058 0.31898 0.0
C886 C 0.15113 0.21725 0.33219 0.0
C887 C 0.15835 0.18448 0.33293 0.0
C888 C 0.12564 0.1648 0.31969 0.0
C889 C 0.08621 0.17795 0.30599 0.0
C890 C 0.0794 0.21121 0.30586 0.0
H891 H 0.27288 0.20642 0.81961 0.0
H892 H 0.31714 0.21627 0.89985 0.0
H893 H 0.37197 0.26021 0.88776 0.0
H894 H 0.38992 0.22366 0.79068 0.0
H895 H 0.36481 0.24609 0.76416 0.0
H896 H 0.33009 0.21449 0.7789 0.0
H897 H 0.25992 0.25373 0.78838 0.0
H898 H 0.29464 0.28443 0.77277 0.0
H899 H 0.27303 0.29041 0.80523 0.0
H900 H 0.42017 0.30391 0.86748 0.0
H901 H 0.45918 0.3447 0.84029 0.0
H902 H 0.3853 0.30669 0.77277 0.0
C903 C 0.29445 0.21771 0.83455 0.0
C904 C 0.2907 0.20791 0.86063 0.0
C905 C 0.31923 0.22334 0.87973 0.0
C906 C 0.35062 0.24833 0.87306 0.0
C907 C 0.35321 0.2576 0.84721 0.0
C908 C 0.32608 0.24275 0.82822 0.0
C909 C 0.33467 0.25808 0.80203 0.0
C910 C 0.35616 0.23414 0.78281 0.0
C911 C 0.28773 0.27254 0.79153 0.0
C912 C 0.37109 0.28376 0.80926 0.0
C913 C 0.38107 0.28303 0.83545 0.0
C914 C 0.41273 0.30469 0.84693 0.0
C915 C 0.43465 0.32785 0.83126 0.0
C916 C 0.42503 0.32923 0.8043 0.0
C917 C 0.39313 0.30657 0.79322 0.0
H918 H 0.68718 0.23442 0.64576 0.0
H919 H 0.65035 0.15602 0.69706 0.0
H920 H 0.60362 0.19245 0.72448 0.0
H921 H 0.69978 0.29464 0.69508 0.0
H922 H 0.67244 0.3259 0.67628 0.0
H923 H 0.70333 0.29389 0.66025 0.0
H924 H 0.62633 0.28151 0.63346 0.0
H925 H 0.5952 0.31346 0.64946 0.0
H926 H 0.57014 0.27373 0.64997 0.0
H927 H 0.56437 0.23654 0.74745 0.0
H928 H 0.53077 0.28664 0.76418 0.0
H929 H 0.5876 0.33748 0.69758 0.0
C930 C 0.66914 0.22503 0.66274 0.0
C931 C 0.67238 0.19237 0.66939 0.0
C932 C 0.6482 0.18092 0.69165 0.0
C933 C 0.62161 0.20142 0.70736 0.0
C934 C 0.61899 0.23337 0.70042 0.0
C935 C 0.64167 0.24526 0.67859 0.0
C936 C 0.63229 0.28077 0.67574 0.0
C937 C 0.67979 0.29992 0.67691 0.0
C938 C 0.60432 0.28777 0.65066 0.0
C939 C 0.60127 0.28682 0.69947 0.0
C940 C 0.59446 0.25904 0.71341 0.0
C941 C 0.56902 0.25842 0.73662 0.0
C942 C 0.55018 0.28698 0.74599 0.0
C943 C 0.55631 0.31576 0.73207 0.0
C944 C 0.58176 0.31565 0.70835 0.0
H945 H 0.83269 0.32568 0.20027 0.0
H946 H 0.79361 0.27911 0.12817 0.0
H947 H 0.83167 0.22961 0.14345 0.0
H948 H 0.94839 0.28954 0.20728 0.0
H949 H 0.94459 0.28549 0.24195 0.0
H950 H 0.91264 0.31703 0.22581 0.0
H951 H 0.83295 0.29748 0.24674 0.0
H952 H 0.86412 0.26531 0.26259 0.0
H953 H 0.81316 0.25695 0.24186 0.0
H954 H 0.87756 0.18656 0.16503 0.0
H955 H 0.92741 0.15157 0.19218 0.0
H956 H 0.93569 0.22475 0.25124 0.0
C957 C 0.83194 0.30495 0.18782 0.0
C958 C 0.81028 0.30621 0.16306 0.0
C959 C 0.81004 0.27873 0.1472 0.0
C960 C 0.83148 0.25047 0.15572 0.0
C961 C 0.85279 0.25007 0.18016 0.0
C962 C 0.85316 0.27649 0.19605 0.0
C963 C 0.87962 0.26977 0.2212 0.0
C964 C 0.92393 0.29177 0.22422 0.0
C965 C 0.84542 0.27254 0.24448 0.0
C966 C 0.89453 0.23556 0.21679 0.0
C967 C 0.87855 0.22476 0.19298 0.0
C968 C 0.88967 0.19456 0.18387 0.0
C969 C 0.91798 0.17486 0.19946 0.0
C970 C 0.93442 0.1852 0.22404 0.0
C971 C 0.92253 0.21598 0.23281 0.0
H972 H 0.7693 0.71463 0.69642 0.0
H973 H 0.85028 0.70197 0.62546 0.0
H974 H 0.9061 0.74539 0.63854 0.0
H975 H 0.77853 0.80007 0.69812 0.0
H976 H 0.78465 0.80217 0.73273 0.0
H977 H 0.75127 0.76983 0.71829 0.0
H978 H 0.80491 0.72926 0.74176 0.0
H979 H 0.84051 0.76049 0.75631 0.0
H980 H 0.86947 0.73043 0.73723 0.0
H981 H 0.9551 0.78912 0.66067 0.0
H982 H 0.99065 0.83073 0.68888 0.0
H983 H 0.87528 0.81564 0.74412 0.0
C984 C 0.79878 0.72106 0.68363 0.0
C985 C 0.80556 0.70499 0.65998 0.0
C986 C 0.84437 0.71405 0.64367 0.0
C987 C 0.87627 0.73866 0.65094 0.0
C988 C 0.86854 0.75409 0.67445 0.0
C989 C 0.83051 0.74574 0.69044 0.0
C990 C 0.82987 0.766 0.71461 0.0
C991 C 0.78331 0.78567 0.71601 0.0
C992 C 0.83654 0.7453 0.73891 0.0
C993 C 0.87356 0.78705 0.70986 0.0
C994 C 0.89564 0.77972 0.68669 0.0
C995 C 0.93778 0.79522 0.67874 0.0
C996 C 0.95777 0.81876 0.69493 0.0
C997 C 0.93539 0.82683 0.71867 0.0
C998 C 0.89266 0.81073 0.726 0.0
H999 H 0.71091 0.78342 0.14752 0.0
H1000 H 0.66644 0.85871 0.19961 0.0
H1001 H 0.61893 0.81997 0.22497 0.0
H1002 H 0.59741 0.7409 0.14701 0.0
H1003 H 0.62394 0.70182 0.14677 0.0
H1004 H 0.65601 0.73504 0.13269 0.0
H1005 H 0.72954 0.72363 0.16236 0.0
H1006 H 0.69763 0.69031 0.17643 0.0
H1007 H 0.72103 0.7215 0.19692 0.0
H1008 H 0.57745 0.77423 0.24506 0.0
H1009 H 0.54193 0.72285 0.25866 0.0
H1010 H 0.60961 0.67621 0.19337 0.0
C1011 C 0.69122 0.79163 0.16429 0.0
C1012 C 0.69225 0.82409 0.17168 0.0
C1013 C 0.666 0.83397 0.19367 0.0
C1014 C 0.63897 0.81217 0.2082 0.0
C1015 C 0.63837 0.78047 0.20046 0.0
C1016 C 0.66364 0.77004 0.17906 0.0
C1017 C 0.65602 0.73448 0.17509 0.0
C1018 C 0.6319 0.72767 0.14883 0.0
C1019 C 0.70391 0.71642 0.17787 0.0
C1020 C 0.62215 0.72687 0.19737 0.0
C1021 C 0.61299 0.7538 0.21185 0.0
C1022 C 0.58405 0.75297 0.23383 0.0
C1023 C 0.56404 0.72376 0.24138 0.0
C1024 C 0.57271 0.69585 0.22688 0.0
C1025 C 0.60181 0.69742 0.20447 0.0
H1026 H 0.25686 0.78256 0.31846 0.0
H1027 H 0.32653 0.79274 0.39334 0.0
H1028 H 0.39053 0.75588 0.37955 0.0
H1029 H 0.2806 0.69919 0.31055 0.0
H1030 H 0.29133 0.70203 0.27622 0.0
H1031 H 0.2514 0.72974 0.29175 0.0
H1032 H 0.30223 0.77694 0.27389 0.0
H1033 H 0.34231 0.74935 0.25831 0.0
H1034 H 0.36616 0.77864 0.28047 0.0
H1035 H 0.44633 0.71808 0.35795 0.0
H1036 H 0.49021 0.68057 0.33034 0.0
H1037 H 0.38408 0.69421 0.26924 0.0
C1038 C 0.2857 0.77701 0.33189 0.0
C1039 C 0.28685 0.79041 0.35692 0.0
C1040 C 0.32494 0.78268 0.37407 0.0
C1041 C 0.36148 0.76182 0.36641 0.0
C1042 C 0.35927 0.74897 0.34159 0.0
C1043 C 0.32237 0.75617 0.32458 0.0
C1044 C 0.32826 0.73873 0.29913 0.0
C1045 C 0.28535 0.71608 0.29413 0.0
C1046 C 0.33516 0.76233 0.27662 0.0
C1047 C 0.37414 0.72047 0.30456 0.0
C1048 C 0.39146 0.72688 0.32912 0.0
C1049 C 0.43321 0.71287 0.33866 0.0
C1050 C 0.45791 0.69159 0.32274 0.0
C1051 C 0.44074 0.68437 0.2975 0.0
C1052 C 0.39827 0.69917 0.28837 0.0
H1053 H 0.20718 0.74033 0.8779 0.0
H1054 H 0.23988 0.68241 0.81082 0.0
H1055 H 0.18287 0.7137 0.78457 0.0
H1056 H 0.07844 0.75476 0.86288 0.0
H1057 H 0.08059 0.79565 0.87337 0.0
H1058 H 0.11987 0.7667 0.88808 0.0
H1059 H 0.19421 0.80172 0.87646 0.0
H1060 H 0.15513 0.83069 0.86176 0.0
H1061 H 0.20362 0.8136 0.84329 0.0
H1062 H 0.12563 0.75124 0.76516 0.0
H1063 H 0.07489 0.79629 0.7522 0.0
H1064 H 0.08185 0.83368 0.83047 0.0
C1065 C 0.20154 0.73404 0.8578 0.0
C1066 C 0.22734 0.70875 0.84633 0.0
C1067 C 0.22019 0.70161 0.81988 0.0
C1068 C 0.18777 0.71914 0.80487 0.0
C1069 C 0.16319 0.74408 0.81653 0.0
C1070 C 0.16981 0.75185 0.84229 0.0
C1071 C 0.1416 0.78163 0.84915 0.0
C1072 C 0.10283 0.77423 0.86959 0.0
C1073 C 0.17568 0.80849 0.85819 0.0
C1074 C 0.11877 0.78941 0.82316 0.0
C1075 C 0.13125 0.76702 0.80483 0.0
C1076 C 0.11554 0.76896 0.77931 0.0
C1077 C 0.08682 0.79473 0.77214 0.0
C1078 C 0.07452 0.81862 0.79027 0.0
C1079 C 0.09027 0.81566 0.81624 0.0
loop_
_geom_bond_atom_site_label_1
_geom_bond_atom_site_label_2
_geom_bond_distance
_geom_bond_site_symmetry_2
_ccdc_geom_bond_type
H0 C5 0.930 . S
H1 C8 0.930 . S
H2 C10 0.930 . S
H3 C4 1.016 . S
C4 H3 1.016 . S
C4 N11 1.286 . S
C5 H0 0.930 . S
C5 C6 1.397 . S
C5 C7 1.361 . S
C6 C5 1.397 . S
C6 C10 1.390 . S
C7 C5 1.361 . S
C7 C8 1.393 . S
C7 N11 1.413 . S
C8 H1 0.930 . S
C8 C7 1.393 . S
C8 C9 1.399 . S
C9 C8 1.399 . S
C9 C10 1.381 . S
C10 H2 0.930 . S
C10 C6 1.390 . S
C10 C9 1.381 . S
N11 C4 1.286 . S
N11 C7 1.413 . S
H12 C17 0.930 . S
H13 C20 0.930 . S
H14 C22 0.930 . S
H15 C16 1.016 . S
C16 H15 1.016 . S
C16 N23 1.286 . S
C17 H12 0.930 . S
C17 C18 1.397 . S
C17 C19 1.361 . S
C18 C17 1.397 . S
C18 C22 1.390 . S
C19 C17 1.361 . S
C19 C20 1.393 . S
C19 N23 1.413 . S
C20 H13 0.930 . S
C20 C19 1.393 . S
C20 C21 1.399 . S
C21 C20 1.399 . S
C21 C22 1.381 . S
C22 H14 0.930 . S
C22 C18 1.390 . S
C22 C21 1.381 . S
N23 C16 1.286 . S
N23 C19 1.413 . S
H24 C29 0.930 . S
H25 C32 0.930 . S
H26 C34 0.930 . S
H27 C28 1.016 . S
C28 H27 1.016 . S
C28 N35 1.286 . S
C29 H24 0.930 . S
C29 C30 1.397 . S
C29 C31 1.361 . S
C30 C29 1.397 . S
C30 C34 1.390 . S
C31 C29 1.361 . S
C31 C32 1.393 . S
C31 N35 1.413 . S
C32 H25 0.930 . S
C32 C31 1.393 . S
C32 C33 1.399 . S
C33 C32 1.399 . S
C33 C34 1.381 . S
C34 H26 0.930 . S
C34 C30 1.390 . S
C34 C33 1.381 . S
N35 C28 1.286 . S
N35 C31 1.413 . S
H36 C41 0.930 . S
H37 C44 0.930 . S
H38 C46 0.930 . S
H39 C40 1.016 . S
C40 H39 1.016 . S
C40 N47 1.286 . S
C41 H36 0.930 . S
C41 C42 1.397 . S
C41 C43 1.361 . S
C42 C41 1.397 . S
C42 C46 1.390 . S
C43 C41 1.361 . S
C43 C44 1.393 . S
C43 N47 1.413 . S
C44 H37 0.930 . S
C44 C43 1.393 . S
C44 C45 1.399 . S
C45 C44 1.399 . S
C45 C46 1.381 . S
C46 H38 0.930 . S
C46 C42 1.390 . S
C46 C45 1.381 . S
N47 C40 1.286 . S
N47 C43 1.413 . S
H48 C53 0.930 . S
H49 C56 0.930 . S
H50 C58 0.930 . S
H51 C52 1.016 . S
C52 H51 1.016 . S
C52 N59 1.286 . S
C53 H48 0.930 . S
C53 C54 1.397 . S
C53 C55 1.361 . S
C54 C53 1.397 . S
C54 C58 1.390 . S
C55 C53 1.361 . S
C55 C56 1.393 . S
C55 N59 1.413 . S
C56 H49 0.930 . S
C56 C55 1.393 . S
C56 C57 1.399 . S
C57 C56 1.399 . S
C57 C58 1.381 . S
C58 H50 0.930 . S
C58 C54 1.390 . S
C58 C57 1.381 . S
N59 C52 1.286 . S
N59 C55 1.413 . S
H60 C65 0.930 . S
H61 C68 0.930 . S
H62 C70 0.930 . S
H63 C64 1.016 . S
C64 H63 1.016 . S
C64 N71 1.286 . S
C65 H60 0.930 . S
C65 C66 1.397 . S
C65 C67 1.361 . S
C66 C65 1.397 . S
C66 C70 1.390 . S
C67 C65 1.361 . S
C67 C68 1.393 . S
C67 N71 1.413 . S
C68 H61 0.930 . S
C68 C67 1.393 . S
C68 C69 1.399 . S
C69 C68 1.399 . S
C69 C70 1.381 . S
C70 H62 0.930 . S
C70 C66 1.390 . S
C70 C69 1.381 . S
N71 C64 1.286 . S
N71 C67 1.413 . S
H72 C77 0.930 . S
H73 C80 0.930 . S
H74 C82 0.930 . S
H75 C76 1.016 . S
C76 H75 1.016 . S
C76 N83 1.286 . S
C77 H72 0.930 . S
C77 C78 1.397 . S
C77 C79 1.361 . S
C78 C77 1.397 . S
C78 C82 1.390 . S
C79 C77 1.361 . S
C79 C80 1.393 . S
C79 N83 1.413 . S
C80 H73 0.930 . S
C80 C79 1.393 . S
C80 C81 1.399 . S
C81 C80 1.399 . S
C81 C82 1.381 . S
C82 H74 0.930 . S
C82 C78 1.390 . S
C82 C81 1.381 . S
N83 C76 1.286 . S
N83 C79 1.413 . S
H84 C89 0.930 . S
H85 C92 0.930 . S
H86 C94 0.930 . S
H87 C88 1.016 . S
C88 H87 1.016 . S
C88 N95 1.286 . S
C89 H84 0.930 . S
C89 C90 1.397 . S
C89 C91 1.361 . S
C90 C89 1.397 . S
C90 C94 1.390 . S
C91 C89 1.361 . S
C91 C92 1.393 . S
C91 N95 1.413 . S
C92 H85 0.930 . S
C92 C91 1.393 . S
C92 C93 1.399 . S
C93 C92 1.399 . S
C93 C94 1.381 . S
C94 H86 0.930 . S
C94 C90 1.390 . S
C94 C93 1.381 . S
N95 C88 1.286 . S
N95 C91 1.413 . S
C96 C98 1.422 . S
C96 C100 1.415 . S
C96 N102 1.369 . S
C97 C98 1.421 . S
C97 C99 1.417 . S
C97 C109 1.422 1_545 S
C98 C96 1.422 . S
C98 C97 1.421 . S
C98 N108 1.359 . S
C99 C97 1.417 . S
C99 C101 1.329 . S
C99 H118 0.927 1_545 S
C100 C96 1.415 . S
C100 C101 1.437 . S
C100 C104 1.413 . S
C101 C99 1.329 . S
C101 C100 1.437 . S
C101 H123 0.929 . S
N102 C96 1.369 . S
N102 C103 1.338 . S
N102 Gd107 2.622 . S
C103 N102 1.338 . S
C103 C105 1.378 . S
C103 H115 0.929 . S
C104 C100 1.413 . S
C104 C105 1.348 . S
C104 H120 0.931 . S
C105 C103 1.378 . S
C105 C104 1.348 . S
C105 H121 0.930 . S
Gd106 N126 2.622 . S
Gd106 N133 2.570 . S
Gd106 O140 2.354 1_455 S
Gd106 O141 2.468 . S
Gd106 O142 2.427 . S
Gd106 O144 2.388 . S
Gd106 O145 2.386 . S
Gd106 O149 2.290 1_455 S
Gd106 C159 2.805 . S
Gd107 N102 2.622 . S
Gd107 N108 2.570 . S
Gd107 O139 2.386 . S
Gd107 O143 2.307 1_655 S
Gd107 O146 2.353 1_655 S
Gd107 O147 2.468 . S
Gd107 O148 2.427 . S
Gd107 O150 2.388 . S
Gd107 C171 2.805 . S
N108 C98 1.359 . S
N108 Gd107 2.570 . S
N108 C110 1.343 . S
C109 C97 1.422 1_565 S
C109 C111 1.321 . S
C109 H117 0.931 . S
C110 N108 1.343 . S
C110 C111 1.390 1_545 S
C110 H112 0.931 . S
C111 C109 1.321 . S
C111 C110 1.390 1_565 S
C111 H113 0.930 . S
H112 C110 0.931 . S
H113 C111 0.930 . S
H114 C137 0.931 . S
H115 C103 0.929 . S
H116 C138 0.930 . S
H117 C109 0.931 . S
H118 C99 0.927 1_565 S
H119 C128 0.929 . S
H120 C104 0.931 . S
H121 C105 0.930 . S
H122 C160 0.930 . S
H123 C101 0.929 . S
H124 C129 0.931 . S
H125 C130 0.930 . S
N126 Gd106 2.622 . S
N126 C127 1.369 . S
N126 C128 1.338 . S
C127 N126 1.369 . S
C127 C131 1.415 . S
C127 C134 1.422 . S
C128 H119 0.929 . S
C128 N126 1.338 . S
C128 C130 1.378 . S
C129 H124 0.931 . S
C129 C130 1.348 . S
C129 C131 1.413 . S
C130 H125 0.930 . S
C130 C128 1.378 . S
C130 C129 1.348 . S
C131 C127 1.415 . S
C131 C129 1.413 . S
C131 C161 1.437 . S
H132 C161 0.929 . S
N133 Gd106 2.570 . S
N133 C134 1.359 . S
N133 C137 1.343 . S
C134 C127 1.422 . S
C134 N133 1.359 . S
C134 C136 1.421 . S
C135 C136 1.422 . S
C135 C138 1.321 . S
C135 H162 0.931 . S
C136 C134 1.421 . S
C136 C135 1.422 . S
C136 C160 1.417 . S
C137 H114 0.931 . S
C137 N133 1.343 . S
C137 C138 1.390 . S
C138 H116 0.930 . S
C138 C135 1.321 . S
C138 C137 1.390 . S
O139 Gd107 2.386 . S
O139 C151 1.265 . S
O140 Gd106 2.354 1_655 S
O140 C151 1.241 . S
O141 Gd106 2.468 . S
O141 C159 1.263 . S
O142 Gd106 2.427 . S
O142 C159 1.252 . S
O143 Gd107 2.307 1_455 S
O143 C152 1.261 . S
O144 Gd106 2.388 . S
O144 C152 1.252 . S
O145 Gd106 2.386 . S
O145 C163 1.265 . S
O146 Gd107 2.353 1_455 S
O146 C163 1.242 . S
O147 Gd107 2.468 . S
O147 C171 1.263 . S
O148 Gd107 2.427 . S
O148 C171 1.252 . S
O149 Gd106 2.290 1_655 S
O149 C164 1.281 . S
O150 Gd107 2.388 . S
O150 C164 1.252 . S
C151 O139 1.265 . S
C151 O140 1.241 . S
C152 O143 1.261 . S
C152 O144 1.252 . S
C153 C156 1.394 . S
C153 C158 1.370 . S
C153 C159 1.500 . S
C154 C157 1.383 . S
C154 C158 1.395 . S
C155 C156 1.396 . S
C155 C157 1.365 . S
C155 H172 0.929 . S
C156 C153 1.394 . S
C156 C155 1.396 . S
C156 H173 0.930 . S
C157 C154 1.383 . S
C157 C155 1.365 . S
C157 H174 0.931 . S
C158 C153 1.370 . S
C158 C154 1.395 . S
C158 H175 0.930 . S
C159 Gd106 2.805 . S
C159 O141 1.263 . S
C159 O142 1.252 . S
C159 C153 1.500 . S
C160 H122 0.930 . S
C160 C136 1.417 . S
C160 C161 1.329 . S
C161 C131 1.437 . S
C161 H132 0.929 . S
C161 C160 1.329 . S
H162 C135 0.931 . S
C163 O145 1.265 . S
C163 O146 1.242 . S
C164 O149 1.281 . S
C164 O150 1.252 . S
C165 C168 1.394 . S
C165 C170 1.370 . S
C165 C171 1.500 . S
C166 C169 1.383 . S
C166 C170 1.395 . S
C167 C168 1.396 . S
C167 C169 1.365 . S
C167 H176 0.929 . S
C168 C165 1.394 . S
C168 C167 1.396 . S
C168 H177 0.930 . S
C169 C166 1.383 . S
C169 C167 1.365 . S
C169 H178 0.931 . S
C170 C165 1.370 . S
C170 C166 1.395 . S
C170 H179 0.930 . S
C171 Gd107 2.805 . S
C171 O147 1.263 . S
C171 O148 1.252 . S
C171 C165 1.500 . S
H172 C155 0.929 . S
H173 C156 0.930 . S
H174 C157 0.931 . S
H175 C158 0.930 . S
H176 C167 0.929 . S
H177 C168 0.930 . S
H178 C169 0.931 . S
H179 C170 0.930 . S
C180 C182 1.422 . S
C180 C184 1.415 . S
C180 N186 1.369 . S
C181 C182 1.421 . S
C181 C183 1.417 . S
C181 C193 1.422 . S
C182 C180 1.422 . S
C182 C181 1.421 . S
C182 N192 1.359 . S
C183 C181 1.417 . S
C183 C185 1.329 . S
C183 H202 0.930 . S
C184 C180 1.415 . S
C184 C185 1.437 . S
C184 C188 1.413 . S
C185 C183 1.329 . S
C185 C184 1.437 . S
C185 H207 0.929 . S
N186 C180 1.369 . S
N186 C187 1.338 . S
N186 Gd191 2.622 . S
C187 N186 1.338 . S
C187 C189 1.378 . S
C187 H199 0.929 . S
C188 C184 1.413 . S
C188 C189 1.348 . S
C188 H204 0.931 . S
C189 C187 1.378 . S
C189 C188 1.348 . S
C189 H205 0.930 . S
Gd190 N210 2.622 . S
Gd190 N217 2.570 . S
Gd190 O224 2.353 . S
Gd190 O225 2.468 . S
Gd190 O226 2.427 . S
Gd190 O228 2.388 . S
Gd190 O229 2.386 . S
Gd190 O233 2.307 . S
Gd190 C243 2.805 . S
Gd191 N186 2.622 . S
Gd191 N192 2.570 . S
Gd191 O223 2.386 . S
Gd191 O227 2.307 . S
Gd191 O230 2.353 . S
Gd191 O231 2.468 . S
Gd191 O232 2.427 . S
Gd191 O234 2.388 . S
Gd191 C255 2.805 . S
N192 C182 1.359 . S
N192 Gd191 2.570 . S
N192 C194 1.343 . S
C193 C181 1.422 . S
C193 C195 1.321 . S
C193 H201 0.931 . S
C194 N192 1.343 . S
C194 C195 1.390 . S
C194 H196 0.931 . S
C195 C193 1.321 . S
C195 C194 1.390 . S
C195 H197 0.930 . S
H196 C194 0.931 . S
H197 C195 0.930 . S
H198 C221 0.931 . S
H199 C187 0.929 . S
H200 C222 0.930 . S
H201 C193 0.931 . S
H202 C183 0.930 . S
H203 C212 0.929 . S
H204 C188 0.931 . S
H205 C189 0.930 . S
H206 C244 0.930 . S
H207 C185 0.929 . S
H208 C213 0.931 . S
H209 C214 0.930 . S
N210 Gd190 2.622 . S
N210 C211 1.369 . S
N210 C212 1.338 . S
C211 N210 1.369 . S
C211 C215 1.415 . S
C211 C218 1.422 . S
C212 H203 0.929 . S
C212 N210 1.338 . S
C212 C214 1.378 . S
C213 H208 0.931 . S
C213 C214 1.348 . S
C213 C215 1.413 . S
C214 H209 0.930 . S
C214 C212 1.378 . S
C214 C213 1.348 . S
C215 C211 1.415 . S
C215 C213 1.413 . S
C215 C245 1.437 . S
H216 C245 0.929 . S
N217 Gd190 2.570 . S
N217 C218 1.359 . S
N217 C221 1.343 . S
C218 C211 1.422 . S
C218 N217 1.359 . S
C218 C220 1.421 . S
C219 C220 1.422 . S
C219 C222 1.321 . S
C219 H246 0.931 . S
C220 C218 1.421 . S
C220 C219 1.422 . S
C220 C244 1.417 . S
C221 H198 0.931 . S
C221 N217 1.343 . S
C221 C222 1.390 . S
C222 H200 0.930 . S
C222 C219 1.321 . S
C222 C221 1.390 . S
O223 Gd191 2.386 . S
O223 C235 1.265 . S
O224 Gd190 2.353 . S
O224 C235 1.242 . S
O225 Gd190 2.468 . S
O225 C243 1.263 . S
O226 Gd190 2.427 . S
O226 C243 1.252 . S
O227 Gd191 2.307 . S
O227 C236 1.261 . S
O228 Gd190 2.388 . S
O228 C236 1.252 . S
O229 Gd190 2.386 . S
O229 C247 1.265 . S
O230 Gd191 2.353 . S
O230 C247 1.242 . S
O231 Gd191 2.468 . S
O231 C255 1.263 . S
O232 Gd191 2.427 . S
O232 C255 1.252 . S
O233 Gd190 2.307 . S
O233 C248 1.261 . S
O234 Gd191 2.388 . S
O234 C248 1.252 . S
C235 O223 1.265 . S
C235 O224 1.242 . S
C236 O227 1.261 . S
C236 O228 1.252 . S
C237 C240 1.394 . S
C237 C242 1.370 . S
C237 C243 1.500 . S
C238 C241 1.383 . S
C238 C242 1.395 . S
C239 C240 1.396 . S
C239 C241 1.365 . S
C239 H256 0.929 . S
C240 C237 1.394 . S
C240 C239 1.396 . S
C240 H257 0.930 . S
C241 C238 1.383 . S
C241 C239 1.365 . S
C241 H258 0.931 . S
C242 C237 1.370 . S
C242 C238 1.395 . S
C242 H259 0.930 . S
C243 Gd190 2.805 . S
C243 O225 1.263 . S
C243 O226 1.252 . S
C243 C237 1.500 . S
C244 H206 0.930 . S
C244 C220 1.417 . S
C244 C245 1.329 . S
C245 C215 1.437 . S
C245 H216 0.929 . S
C245 C244 1.329 . S
H246 C219 0.931 . S
C247 O229 1.265 . S
C247 O230 1.242 . S
C248 O233 1.261 . S
C248 O234 1.252 . S
C249 C252 1.394 . S
C249 C254 1.370 . S
C249 C255 1.500 . S
C250 C253 1.383 . S
C250 C254 1.395 . S
C251 C252 1.396 . S
C251 C253 1.365 . S
C251 H260 0.929 . S
C252 C249 1.394 . S
C252 C251 1.396 . S
C252 H261 0.930 . S
C253 C250 1.383 . S
C253 C251 1.365 . S
C253 H262 0.931 . S
C254 C249 1.370 . S
C254 C250 1.395 . S
C254 H263 0.930 . S
C255 Gd191 2.805 . S
C255 O231 1.263 . S
C255 O232 1.252 . S
C255 C249 1.500 . S
H256 C239 0.929 . S
H257 C240 0.930 . S
H258 C241 0.931 . S
H259 C242 0.930 . S
H260 C251 0.929 . S
H261 C252 0.930 . S
H262 C253 0.931 . S
H263 C254 0.930 . S
C264 C266 1.422 . S
C264 C268 1.415 . S
C264 N270 1.369 . S
C265 C266 1.421 . S
C265 C267 1.417 . S
C265 C277 1.422 . S
C266 C264 1.422 . S
C266 C265 1.421 . S
C266 N276 1.359 . S
C267 C265 1.417 . S
C267 C269 1.329 . S
C267 H286 0.930 . S
C268 C264 1.415 . S
C268 C269 1.437 . S
C268 C272 1.413 . S
C269 C267 1.329 . S
C269 C268 1.437 . S
C269 H291 0.929 . S
N270 C264 1.369 . S
N270 C271 1.338 . S
N270 Gd275 2.622 . S
C271 N270 1.338 . S
C271 C273 1.378 . S
C271 H283 0.929 . S
C272 C268 1.413 . S
C272 C273 1.348 . S
C272 H288 0.931 . S
C273 C271 1.378 . S
C273 C272 1.348 . S
C273 H289 0.930 . S
Gd274 N294 2.622 . S
Gd274 N301 2.570 . S
Gd274 O308 2.353 . S
Gd274 O309 2.468 . S
Gd274 O310 2.427 . S
Gd274 O312 2.388 . S
Gd274 O313 2.386 . S
Gd274 O317 2.307 . S
Gd274 C327 2.805 . S
Gd275 N270 2.622 . S
Gd275 N276 2.570 . S
Gd275 O307 2.386 . S
Gd275 O311 2.307 1_655 S
Gd275 O314 2.353 1_655 S
Gd275 O315 2.468 . S
Gd275 O316 2.427 . S
Gd275 O318 2.388 . S
Gd275 C339 2.805 . S
N276 C266 1.359 . S
N276 Gd275 2.570 . S
N276 C278 1.343 . S
C277 C265 1.422 . S
C277 C279 1.321 . S
C277 H285 0.931 . S
C278 N276 1.343 . S
C278 C279 1.390 . S
C278 H280 0.931 . S
C279 C277 1.321 . S
C279 C278 1.390 . S
C279 H281 0.930 . S
H280 C278 0.931 . S
H281 C279 0.930 . S
H282 C305 0.931 . S
H283 C271 0.929 . S
H284 C306 0.930 . S
H285 C277 0.931 . S
H286 C267 0.930 . S
H287 C296 0.929 . S
H288 C272 0.931 . S
H289 C273 0.930 . S
H290 C328 0.927 1_545 S
H291 C269 0.929 . S
H292 C297 0.931 . S
H293 C298 0.930 . S
N294 Gd274 2.622 . S
N294 C295 1.369 . S
N294 C296 1.338 . S
C295 N294 1.369 . S
C295 C299 1.415 . S
C295 C302 1.422 . S
C296 H287 0.929 . S
C296 N294 1.338 . S
C296 C298 1.378 . S
C297 H292 0.931 . S
C297 C298 1.348 . S
C297 C299 1.413 . S
C298 H293 0.930 . S
C298 C296 1.378 . S
C298 C297 1.348 . S
C299 C295 1.415 . S
C299 C297 1.413 . S
C299 C329 1.437 . S
H300 C329 0.929 . S
N301 Gd274 2.570 . S
N301 C302 1.359 . S
N301 C305 1.343 . S
C302 C295 1.422 . S
C302 N301 1.359 . S
C302 C304 1.421 . S
C303 C304 1.422 1_545 S
C303 C306 1.321 . S
C303 H330 0.931 . S
C304 C302 1.421 . S
C304 C303 1.422 1_565 S
C304 C328 1.417 . S
C305 H282 0.931 . S
C305 N301 1.343 . S
C305 C306 1.390 1_565 S
C306 H284 0.930 . S
C306 C303 1.321 . S
C306 C305 1.390 1_545 S
O307 Gd275 2.386 . S
O307 C319 1.265 . S
O308 Gd274 2.353 . S
O308 C319 1.242 1_455 S
O309 Gd274 2.468 . S
O309 C327 1.263 . S
O310 Gd274 2.427 . S
O310 C327 1.252 . S
O311 Gd275 2.307 1_455 S
O311 C320 1.261 . S
O312 Gd274 2.388 . S
O312 C320 1.252 . S
O313 Gd274 2.386 . S
O313 C331 1.265 . S
O314 Gd275 2.353 1_455 S
O314 C331 1.242 . S
O315 Gd275 2.468 . S
O315 C339 1.263 . S
O316 Gd275 2.427 . S
O316 C339 1.252 . S
O317 Gd274 2.307 . S
O317 C332 1.261 1_455 S
O318 Gd275 2.388 . S
O318 C332 1.252 . S
C319 O307 1.265 . S
C319 O308 1.242 1_655 S
C320 O311 1.261 . S
C320 O312 1.252 . S
C321 C324 1.394 . S
C321 C326 1.370 . S
C321 C327 1.500 . S
C322 C325 1.383 . S
C322 C326 1.395 . S
C323 C324 1.396 . S
C323 C325 1.365 . S
C323 H340 0.929 . S
C324 C321 1.394 . S
C324 C323 1.396 . S
C324 H341 0.930 . S
C325 C322 1.383 . S
C325 C323 1.365 . S
C325 H342 0.931 . S
C326 C321 1.370 . S
C326 C322 1.395 . S
C326 H343 0.930 . S
C327 Gd274 2.805 . S
C327 O309 1.263 . S
C327 O310 1.252 . S
C327 C321 1.500 . S
C328 H290 0.927 1_565 S
C328 C304 1.417 . S
C328 C329 1.329 . S
C329 C299 1.437 . S
C329 H300 0.929 . S
C329 C328 1.329 . S
H330 C303 0.931 . S
C331 O313 1.265 . S
C331 O314 1.242 . S
C332 O317 1.261 1_655 S
C332 O318 1.252 . S
C333 C336 1.394 . S
C333 C338 1.370 . S
C333 C339 1.500 . S
C334 C337 1.383 . S
C334 C338 1.395 . S
C335 C336 1.396 . S
C335 C337 1.365 . S
C335 H344 0.929 . S
C336 C333 1.394 . S
C336 C335 1.396 . S
C336 H345 0.930 . S
C337 C334 1.383 . S
C337 C335 1.365 . S
C337 H346 0.931 . S
C338 C333 1.370 . S
C338 C334 1.395 . S
C338 H347 0.930 . S
C339 Gd275 2.805 . S
C339 O315 1.263 . S
C339 O316 1.252 . S
C339 C333 1.500 . S
H340 C323 0.929 . S
H341 C324 0.930 . S
H342 C325 0.931 . S
H343 C326 0.930 . S
H344 C335 0.929 . S
H345 C336 0.930 . S
H346 C337 0.931 . S
H347 C338 0.930 . S
C348 C350 1.422 . S
C348 C352 1.415 . S
C348 N354 1.369 . S
C349 C350 1.421 . S
C349 C351 1.417 . S
C349 C361 1.422 . S
C350 C348 1.422 . S
C350 C349 1.421 . S
C350 N360 1.359 . S
C351 C349 1.417 . S
C351 C353 1.329 . S
C351 H370 0.930 . S
C352 C348 1.415 . S
C352 C353 1.437 . S
C352 C356 1.413 . S
C353 C351 1.329 . S
C353 C352 1.437 . S
C353 H375 0.929 . S
N354 C348 1.369 . S
N354 C355 1.338 . S
N354 Gd359 2.622 . S
C355 N354 1.338 . S
C355 C357 1.378 . S
C355 H367 0.929 . S
C356 C352 1.413 . S
C356 C357 1.348 . S
C356 H372 0.931 . S
C357 C355 1.378 . S
C357 C356 1.348 . S
C357 H373 0.930 . S
Gd358 N378 2.622 . S
Gd358 N385 2.570 . S
Gd358 O392 2.353 . S
Gd358 O393 2.468 . S
Gd358 O394 2.427 . S
Gd358 O396 2.388 . S
Gd358 O397 2.386 . S
Gd358 O401 2.307 . S
Gd358 C411 2.805 . S
Gd359 N354 2.622 . S
Gd359 N360 2.570 . S
Gd359 O391 2.386 . S
Gd359 O395 2.307 . S
Gd359 O398 2.353 . S
Gd359 O399 2.468 . S
Gd359 O400 2.427 . S
Gd359 O402 2.388 . S
Gd359 C423 2.805 . S
N360 C350 1.359 . S
N360 Gd359 2.570 . S
N360 C362 1.343 . S
C361 C349 1.422 . S
C361 C363 1.321 . S
C361 H369 0.931 . S
C362 N360 1.343 . S
C362 C363 1.390 . S
C362 H364 0.931 . S
C363 C361 1.321 . S
C363 C362 1.390 . S
C363 H365 0.930 . S
H364 C362 0.931 . S
H365 C363 0.930 . S
H366 C389 0.931 . S
H367 C355 0.929 . S
H368 C390 0.930 . S
H369 C361 0.931 . S
H370 C351 0.930 . S
H371 C380 0.929 . S
H372 C356 0.931 . S
H373 C357 0.930 . S
H374 C412 0.930 . S
H375 C353 0.929 . S
H376 C381 0.931 . S
H377 C382 0.930 . S
N378 Gd358 2.622 . S
N378 C379 1.369 . S
N378 C380 1.338 . S
C379 N378 1.369 . S
C379 C383 1.415 . S
C379 C386 1.422 . S
C380 H371 0.929 . S
C380 N378 1.338 . S
C380 C382 1.378 . S
C381 H376 0.931 . S
C381 C382 1.348 . S
C381 C383 1.413 . S
C382 H377 0.930 . S
C382 C380 1.378 . S
C382 C381 1.348 . S
C383 C379 1.415 . S
C383 C381 1.413 . S
C383 C413 1.437 . S
H384 C413 0.929 . S
N385 Gd358 2.570 . S
N385 C386 1.359 . S
N385 C389 1.343 . S
C386 C379 1.422 . S
C386 N385 1.359 . S
C386 C388 1.421 . S
C387 C388 1.422 . S
C387 C390 1.321 . S
C387 H414 0.931 . S
C388 C386 1.421 . S
C388 C387 1.422 . S
C388 C412 1.417 . S
C389 H366 0.931 . S
C389 N385 1.343 . S
C389 C390 1.390 . S
C390 H368 0.930 . S
C390 C387 1.321 . S
C390 C389 1.390 . S
O391 Gd359 2.386 . S
O391 C403 1.265 . S
O392 Gd358 2.353 . S
O392 C403 1.242 . S
O393 Gd358 2.468 . S
O393 C411 1.263 . S
O394 Gd358 2.427 . S
O394 C411 1.252 . S
O395 Gd359 2.307 . S
O395 C404 1.261 . S
O396 Gd358 2.388 . S
O396 C404 1.252 . S
O397 Gd358 2.386 . S
O397 C415 1.265 . S
O398 Gd359 2.353 . S
O398 C415 1.242 . S
O399 Gd359 2.468 . S
O399 C423 1.263 . S
O400 Gd359 2.427 . S
O400 C423 1.252 . S
O401 Gd358 2.307 . S
O401 C416 1.261 . S
O402 Gd359 2.388 . S
O402 C416 1.252 . S
C403 O391 1.265 . S
C403 O392 1.242 . S
C404 O395 1.261 . S
C404 O396 1.252 . S
C405 C408 1.394 . S
C405 C410 1.370 . S
C405 C411 1.500 . S
C406 C409 1.383 . S
C406 C410 1.395 . S
C407 C408 1.396 . S
C407 C409 1.365 . S
C407 H424 0.929 . S
C408 C405 1.394 . S
C408 C407 1.396 . S
C408 H425 0.930 . S
C409 C406 1.383 . S
C409 C407 1.365 . S
C409 H426 0.931 . S
C410 C405 1.370 . S
C410 C406 1.395 . S
C410 H427 0.930 . S
C411 Gd358 2.805 . S
C411 O393 1.263 . S
C411 O394 1.252 . S
C411 C405 1.500 . S
C412 H374 0.930 . S
C412 C388 1.417 . S
C412 C413 1.329 . S
C413 C383 1.437 . S
C413 H384 0.929 . S
C413 C412 1.329 . S
H414 C387 0.931 . S
C415 O397 1.265 . S
C415 O398 1.242 . S
C416 O401 1.261 . S
C416 O402 1.252 . S
C417 C420 1.394 . S
C417 C422 1.370 . S
C417 C423 1.500 . S
C418 C421 1.383 . S
C418 C422 1.395 . S
C419 C420 1.396 . S
C419 C421 1.365 . S
C419 H428 0.929 . S
C420 C417 1.394 . S
C420 C419 1.396 . S
C420 H429 0.930 . S
C421 C418 1.383 . S
C421 C419 1.365 . S
C421 H430 0.931 . S
C422 C417 1.370 . S
C422 C418 1.395 . S
C422 H431 0.930 . S
C423 Gd359 2.805 . S
C423 O399 1.263 . S
C423 O400 1.252 . S
C423 C417 1.500 . S
H424 C407 0.929 . S
H425 C408 0.930 . S
H426 C409 0.931 . S
H427 C410 0.930 . S
H428 C419 0.929 . S
H429 C420 0.930 . S
H430 C421 0.931 . S
H431 C422 0.930 . S
H432 C444 0.930 . S
H433 C446 0.930 . S
H434 C447 0.930 . S
H435 C451 0.959 . S
H436 C451 0.959 . S
H437 C451 0.961 . S
H438 C452 0.961 . S
H439 C452 0.961 . S
H440 C452 0.959 1_565 S
H441 C455 0.929 . S
H442 C456 0.931 . S
H443 C458 0.930 . S
C444 H432 0.930 . S
C444 C445 1.399 . S
C444 C449 1.399 . S
C445 C444 1.399 . S
C445 C446 1.376 . S
C446 H433 0.930 . S
C446 C445 1.376 . S
C446 C447 1.388 . S
C447 H434 0.930 . S
C447 C446 1.388 . S
C447 C448 1.390 . S
C448 C447 1.390 . S
C448 C449 1.394 . S
C448 C454 1.465 . S
C449 C444 1.399 . S
C449 C448 1.394 . S
C449 C450 1.549 . S
C450 C449 1.549 . S
C450 C451 1.480 1_565 S
C450 C452 1.556 1_565 S
C450 C453 1.523 1_565 S
C451 H435 0.959 . S
C451 H436 0.959 . S
C451 H437 0.961 . S
C451 C450 1.480 1_545 S
C452 H438 0.961 . S
C452 H439 0.961 . S
C452 H440 0.959 1_545 S
C452 C450 1.556 1_545 S
C453 C450 1.523 1_545 S
C453 C454 1.396 1_545 S
C453 C458 1.390 . S
C454 C448 1.465 . S
C454 C453 1.396 1_565 S
C454 C455 1.399 . S
C455 H441 0.929 . S
C455 C454 1.399 . S
C455 C456 1.385 . S
C456 H442 0.931 . S
C456 C455 1.385 . S
C456 C457 1.389 1_565 S
C457 C456 1.389 1_545 S
C457 C458 1.387 . S
C458 H443 0.930 . S
C458 C453 1.390 . S
C458 C457 1.387 . S
H459 C471 0.930 . S
H460 C473 0.930 . S
H461 C474 0.930 . S
H462 C478 0.959 . S
H463 C478 0.959 . S
H464 C478 0.961 . S
H465 C479 0.960 . S
H466 C479 0.961 . S
H467 C479 0.959 . S
H468 C482 0.929 . S
H469 C483 0.931 . S
H470 C485 0.930 . S
C471 H459 0.930 . S
C471 C472 1.399 . S
C471 C476 1.399 . S
C472 C471 1.399 . S
C472 C473 1.376 . S
C473 H460 0.930 . S
C473 C472 1.376 . S
C473 C474 1.388 . S
C474 H461 0.930 . S
C474 C473 1.388 . S
C474 C475 1.390 . S
C475 C474 1.390 . S
C475 C476 1.394 . S
C475 C481 1.465 . S
C476 C471 1.399 . S
C476 C475 1.394 . S
C476 C477 1.516 . S
C477 C476 1.516 . S
C477 C478 1.502 . S
C477 C479 1.561 . S
C477 C480 1.526 . S
C478 H462 0.959 . S
C478 H463 0.959 . S
C478 H464 0.961 . S
C478 C477 1.502 . S
C479 H465 0.960 . S
C479 H466 0.961 . S
C479 H467 0.959 . S
C479 C477 1.561 . S
C480 C477 1.526 . S
C480 C481 1.396 . S
C480 C485 1.390 . S
C481 C475 1.465 . S
C481 C480 1.396 . S
C481 C482 1.399 . S
C482 H468 0.929 . S
C482 C481 1.399 . S
C482 C483 1.385 . S
C483 H469 0.931 . S
C483 C482 1.385 . S
C483 C484 1.389 . S
C484 C483 1.389 . S
C484 C485 1.387 . S
C485 H470 0.930 . S
C485 C480 1.390 . S
C485 C484 1.387 . S
H486 C498 0.930 . S
H487 C500 0.930 . S
H488 C501 0.930 . S
H489 C505 0.959 . S
H490 C505 0.959 . S
H491 C505 0.961 . S
H492 C506 0.960 . S
H493 C506 0.961 . S
H494 C506 0.959 . S
H495 C509 0.929 . S
H496 C510 0.931 . S
H497 C512 0.930 . S
C498 H486 0.930 . S
C498 C499 1.399 . S
C498 C503 1.399 . S
C499 C498 1.399 . S
C499 C500 1.376 . S
C500 H487 0.930 . S
C500 C499 1.376 . S
C500 C501 1.388 . S
C501 H488 0.930 . S
C501 C500 1.388 . S
C501 C502 1.390 . S
C502 C501 1.390 . S
C502 C503 1.394 . S
C502 C508 1.465 . S
C503 C498 1.399 . S
C503 C502 1.394 . S
C503 C504 1.516 . S
C504 C503 1.516 . S
C504 C505 1.502 . S
C504 C506 1.561 . S
C504 C507 1.526 . S
C505 H489 0.959 . S
C505 H490 0.959 . S
C505 H491 0.961 . S
C505 C504 1.502 . S
C506 H492 0.960 . S
C506 H493 0.961 . S
C506 H494 0.959 . S
C506 C504 1.561 . S
C507 C504 1.526 . S
C507 C508 1.396 . S
C507 C512 1.390 . S
C508 C502 1.465 . S
C508 C507 1.396 . S
C508 C509 1.399 . S
C509 H495 0.929 . S
C509 C508 1.399 . S
C509 C510 1.385 . S
C510 H496 0.931 . S
C510 C509 1.385 . S
C510 C511 1.389 . S
C511 C510 1.389 . S
C511 C512 1.387 . S
C512 H497 0.930 . S
C512 C507 1.390 . S
C512 C511 1.387 . S
H513 C525 0.930 . S
H514 C527 0.930 . S
H515 C528 0.930 . S
H516 C532 0.959 . S
H517 C532 0.959 . S
H518 C532 0.961 . S
H519 C533 0.960 . S
H520 C533 0.961 . S
H521 C533 0.959 . S
H522 C536 0.929 . S
H523 C537 0.931 . S
H524 C539 0.930 1_565 S
C525 H513 0.930 . S
C525 C526 1.399 . S
C525 C530 1.399 . S
C526 C525 1.399 . S
C526 C527 1.376 . S
C527 H514 0.930 . S
C527 C526 1.376 . S
C527 C528 1.388 . S
C528 H515 0.930 . S
C528 C527 1.388 . S
C528 C529 1.390 . S
C529 C528 1.390 . S
C529 C530 1.394 . S
C529 C535 1.465 . S
C530 C525 1.399 . S
C530 C529 1.394 . S
C530 C531 1.516 . S
C531 C530 1.516 . S
C531 C532 1.502 . S
C531 C533 1.561 . S
C531 C534 1.526 . S
C532 H516 0.959 . S
C532 H517 0.959 . S
C532 H518 0.961 . S
C532 C531 1.502 . S
C533 H519 0.960 . S
C533 H520 0.961 . S
C533 H521 0.959 . S
C533 C531 1.561 . S
C534 C531 1.526 . S
C534 C535 1.396 . S
C534 C539 1.390 1_565 S
C535 C529 1.465 . S
C535 C534 1.396 . S
C535 C536 1.399 1_565 S
C536 H522 0.929 . S
C536 C535 1.399 1_545 S
C536 C537 1.385 . S
C537 H523 0.931 . S
C537 C536 1.385 . S
C537 C538 1.389 . S
C538 C537 1.389 . S
C538 C539 1.387 . S
C539 H524 0.930 1_545 S
C539 C534 1.390 1_545 S
C539 C538 1.387 . S
H540 C552 0.930 . S
H541 C554 0.930 . S
H542 C555 0.930 . S
H543 C559 0.973 . S
H544 C559 0.959 . S
H545 C559 0.961 . S
H546 C560 0.960 . S
H547 C560 0.961 . S
H548 C560 0.959 . S
H549 C563 0.929 . S
H550 C564 0.931 . S
H551 C566 0.930 . S
C552 H540 0.930 . S
C552 C553 1.399 . S
C552 C557 1.399 . S
C553 C552 1.399 . S
C553 C554 1.376 . S
C554 H541 0.930 . S
C554 C553 1.376 . S
C554 C555 1.388 . S
C555 H542 0.930 . S
C555 C554 1.388 . S
C555 C556 1.390 . S
C556 C555 1.390 . S
C556 C557 1.394 . S
C556 C562 1.465 . S
C557 C552 1.399 . S
C557 C556 1.394 . S
C557 C558 1.512 1_545 S
C558 C557 1.512 1_565 S
C558 C559 1.503 . S
C558 C560 1.563 . S
C558 C561 1.526 . S
C559 H543 0.973 . S
C559 H544 0.959 . S
C559 H545 0.961 . S
C559 C558 1.503 . S
C560 H546 0.960 . S
C560 H547 0.961 . S
C560 H548 0.959 . S
C560 C558 1.563 . S
C561 C558 1.526 . S
C561 C562 1.396 1_565 S
C561 C566 1.390 . S
C562 C556 1.465 . S
C562 C561 1.396 1_545 S
C562 C563 1.399 . S
C563 H549 0.929 . S
C563 C562 1.399 . S
C563 C564 1.385 . S
C564 H550 0.931 . S
C564 C563 1.385 . S
C564 C565 1.389 1_545 S
C565 C564 1.389 1_565 S
C565 C566 1.387 . S
C566 H551 0.930 . S
C566 C561 1.390 . S
C566 C565 1.387 . S
H567 C579 0.930 . S
H568 C581 0.930 . S
H569 C582 0.930 . S
H570 C586 0.959 . S
H571 C586 0.959 . S
H572 C586 0.961 . S
H573 C587 0.960 . S
H574 C587 0.961 . S
H575 C587 0.959 . S
H576 C590 0.929 . S
H577 C591 0.931 . S
H578 C593 0.930 . S
C579 H567 0.930 . S
C579 C580 1.399 . S
C579 C584 1.399 . S
C580 C579 1.399 . S
C580 C581 1.376 . S
C581 H568 0.930 . S
C581 C580 1.376 . S
C581 C582 1.388 . S
C582 H569 0.930 . S
C582 C581 1.388 . S
C582 C583 1.390 . S
C583 C582 1.390 . S
C583 C584 1.394 . S
C583 C589 1.465 . S
C584 C579 1.399 . S
C584 C583 1.394 . S
C584 C585 1.516 . S
C585 C584 1.516 . S
C585 C586 1.502 . S
C585 C587 1.561 . S
C585 C588 1.526 . S
C586 H570 0.959 . S
C586 H571 0.959 . S
C586 H572 0.961 . S
C586 C585 1.502 . S
C587 H573 0.960 . S
C587 H574 0.961 . S
C587 H575 0.959 . S
C587 C585 1.561 . S
C588 C585 1.526 . S
C588 C589 1.396 . S
C588 C593 1.390 . S
C589 C583 1.465 . S
C589 C588 1.396 . S
C589 C590 1.399 . S
C590 H576 0.929 . S
C590 C589 1.399 . S
C590 C591 1.385 . S
C591 H577 0.931 . S
C591 C590 1.385 . S
C591 C592 1.389 . S
C592 C591 1.389 . S
C592 C593 1.387 . S
C593 H578 0.930 . S
C593 C588 1.390 . S
C593 C592 1.387 . S
H594 C606 0.930 . S
H595 C608 0.930 . S
H596 C609 0.930 . S
H597 C613 0.959 . S
H598 C613 0.959 . S
H599 C613 0.961 . S
H600 C614 0.960 . S
H601 C614 0.961 . S
H602 C614 0.959 . S
H603 C617 0.929 . S
H604 C618 0.931 . S
H605 C620 0.930 . S
C606 H594 0.930 . S
C606 C607 1.399 . S
C606 C611 1.399 . S
C607 C606 1.399 . S
C607 C608 1.376 . S
C608 H595 0.930 . S
C608 C607 1.376 . S
C608 C609 1.388 . S
C609 H596 0.930 . S
C609 C608 1.388 . S
C609 C610 1.390 . S
C610 C609 1.390 . S
C610 C611 1.394 . S
C610 C616 1.465 . S
C611 C606 1.399 . S
C611 C610 1.394 . S
C611 C612 1.516 . S
C612 C611 1.516 . S
C612 C613 1.502 . S
C612 C614 1.561 . S
C612 C615 1.526 . S
C613 H597 0.959 . S
C613 H598 0.959 . S
C613 H599 0.961 . S
C613 C612 1.502 . S
C614 H600 0.960 . S
C614 H601 0.961 . S
C614 H602 0.959 . S
C614 C612 1.561 . S
C615 C612 1.526 . S
C615 C616 1.396 . S
C615 C620 1.390 . S
C616 C610 1.465 . S
C616 C615 1.396 . S
C616 C617 1.399 . S
C617 H603 0.929 . S
C617 C616 1.399 . S
C617 C618 1.385 . S
C618 H604 0.931 . S
C618 C617 1.385 . S
C618 C619 1.389 . S
C619 C618 1.389 . S
C619 C620 1.387 . S
C620 H605 0.930 . S
C620 C615 1.390 . S
C620 C619 1.387 . S
H621 C633 0.930 . S
H622 C635 0.930 . S
H623 C636 0.930 . S
H624 C640 0.959 . S
H625 C640 0.959 . S
H626 C640 0.961 . S
H627 C641 0.973 . S
H628 C641 0.948 1_565 S
H629 C641 0.943 1_565 S
H630 C644 0.930 . S
H631 C645 0.931 . S
H632 C647 0.930 . S
C633 H621 0.930 . S
C633 C634 1.399 . S
C633 C638 1.399 . S
C634 C633 1.399 . S
C634 C635 1.376 . S
C635 H622 0.930 . S
C635 C634 1.376 . S
C635 C636 1.388 . S
C636 H623 0.930 . S
C636 C635 1.388 . S
C636 C637 1.390 . S
C637 C636 1.390 . S
C637 C638 1.394 . S
C637 C643 1.465 . S
C638 C633 1.399 . S
C638 C637 1.394 . S
C638 C639 1.516 . S
C639 C638 1.516 . S
C639 C640 1.502 . S
C639 C641 1.578 . S
C639 C642 1.526 . S
C640 H624 0.959 . S
C640 H625 0.959 . S
C640 H626 0.961 . S
C640 C639 1.502 . S
C641 H627 0.973 . S
C641 H628 0.948 1_545 S
C641 H629 0.943 1_545 S
C641 C639 1.578 . S
C642 C639 1.526 . S
C642 C643 1.396 . S
C642 C647 1.390 1_545 S
C643 C637 1.465 . S
C643 C642 1.396 . S
C643 C644 1.399 1_545 S
C644 H630 0.930 . S
C644 C643 1.399 1_565 S
C644 C645 1.385 . S
C645 H631 0.931 . S
C645 C644 1.385 . S
C645 C646 1.389 . S
C646 C645 1.389 . S
C646 C647 1.387 . S
C647 H632 0.930 . S
C647 C642 1.390 1_565 S
C647 C646 1.387 . S
H648 C660 0.930 . S
H649 C662 0.930 . S
H650 C663 0.930 . S
H651 C667 0.964 . S
H652 C667 0.959 . S
H653 C667 0.961 1_556 S
H654 C668 0.960 . S
H655 C668 0.961 . S
H656 C668 0.959 . S
H657 C671 0.929 . S
H658 C672 0.931 . S
H659 C674 0.930 . S
C660 H648 0.930 . S
C660 C661 1.399 . S
C660 C665 1.399 . S
C661 C660 1.399 . S
C661 C662 1.376 . S
C662 H649 0.930 . S
C662 C661 1.376 . S
C662 C663 1.388 1_556 S
C663 H650 0.930 . S
C663 C662 1.388 1_554 S
C663 C664 1.390 . S
C664 C663 1.390 . S
C664 C665 1.394 1_554 S
C664 C670 1.465 . S
C665 C660 1.399 . S
C665 C664 1.394 1_556 S
C665 C666 1.516 1_556 S
C666 C665 1.516 1_554 S
C666 C667 1.502 . S
C666 C668 1.561 . S
C666 C669 1.526 . S
C667 H651 0.964 . S
C667 H652 0.959 . S
C667 H653 0.961 1_554 S
C667 C666 1.502 . S
C668 H654 0.960 . S
C668 H655 0.961 . S
C668 H656 0.959 . S
C668 C666 1.561 . S
C669 C666 1.526 . S
C669 C670 1.396 . S
C669 C674 1.390 . S
C670 C664 1.465 . S
C670 C669 1.396 . S
C670 C671 1.399 . S
C671 H657 0.929 . S
C671 C670 1.399 . S
C671 C672 1.385 . S
C672 H658 0.931 . S
C672 C671 1.385 . S
C672 C673 1.389 . S
C673 C672 1.389 . S
C673 C674 1.387 . S
C674 H659 0.930 . S
C674 C669 1.390 . S
C674 C673 1.387 . S
H675 C687 0.930 . S
H676 C689 0.930 . S
H677 C690 0.930 . S
H678 C694 0.959 . S
H679 C694 0.959 . S
H680 C694 0.961 . S
H681 C695 0.960 . S
H682 C695 0.961 . S
H683 C695 0.959 . S
H684 C698 0.929 . S
H685 C699 0.931 . S
H686 C701 0.930 . S
C687 H675 0.930 . S
C687 C688 1.399 . S
C687 C692 1.399 . S
C688 C687 1.399 . S
C688 C689 1.376 . S
C689 H676 0.930 . S
C689 C688 1.376 . S
C689 C690 1.388 . S
C690 H677 0.930 . S
C690 C689 1.388 . S
C690 C691 1.390 . S
C691 C690 1.390 . S
C691 C692 1.394 . S
C691 C697 1.465 . S
C692 C687 1.399 . S
C692 C691 1.394 . S
C692 C693 1.516 . S
C693 C692 1.516 . S
C693 C694 1.502 . S
C693 C695 1.561 . S
C693 C696 1.526 . S
C694 H678 0.959 . S
C694 H679 0.959 . S
C694 H680 0.961 . S
C694 C693 1.502 . S
C695 H681 0.960 . S
C695 H682 0.961 . S
C695 H683 0.959 . S
C695 C693 1.561 . S
C696 C693 1.526 . S
C696 C697 1.396 . S
C696 C701 1.390 . S
C697 C691 1.465 . S
C697 C696 1.396 . S
C697 C698 1.399 . S
C698 H684 0.929 . S
C698 C697 1.399 . S
C698 C699 1.385 . S
C699 H685 0.931 . S
C699 C698 1.385 . S
C699 C700 1.389 . S
C700 C699 1.389 . S
C700 C701 1.387 . S
C701 H686 0.930 . S
C701 C696 1.390 . S
C701 C700 1.387 . S
H702 C714 0.930 . S
H703 C716 0.930 . S
H704 C717 0.930 . S
H705 C721 0.959 . S
H706 C721 0.959 . S
H707 C721 0.961 . S
H708 C722 0.960 . S
H709 C722 0.961 . S
H710 C722 0.959 . S
H711 C725 0.929 . S
H712 C726 0.931 . S
H713 C728 0.930 . S
C714 H702 0.930 . S
C714 C715 1.399 . S
C714 C719 1.393 1_554 S
C715 C714 1.399 . S
C715 C716 1.376 . S
C716 H703 0.930 . S
C716 C715 1.376 . S
C716 C717 1.388 . S
C717 H704 0.930 . S
C717 C716 1.388 . S
C717 C718 1.390 1_554 S
C718 C717 1.390 1_556 S
C718 C719 1.394 . S
C718 C724 1.465 . S
C719 C714 1.393 1_556 S
C719 C718 1.394 . S
C719 C720 1.522 . S
C720 C719 1.522 . S
C720 C721 1.502 . S
C720 C722 1.561 . S
C720 C723 1.526 . S
C721 H705 0.959 . S
C721 H706 0.959 . S
C721 H707 0.961 . S
C721 C720 1.502 . S
C722 H708 0.960 . S
C722 H709 0.961 . S
C722 H710 0.959 . S
C722 C720 1.561 . S
C723 C720 1.526 . S
C723 C724 1.396 . S
C723 C728 1.390 . S
C724 C718 1.465 . S
C724 C723 1.396 . S
C724 C725 1.399 . S
C725 H711 0.929 . S
C725 C724 1.399 . S
C725 C726 1.385 . S
C726 H712 0.931 . S
C726 C725 1.385 . S
C726 C727 1.389 . S
C727 C726 1.389 . S
C727 C728 1.387 . S
C728 H713 0.930 . S
C728 C723 1.390 . S
C728 C727 1.387 . S
H729 C741 0.930 . S
H730 C743 0.930 . S
H731 C744 0.930 . S
H732 C748 0.959 . S
H733 C748 0.959 . S
H734 C748 0.961 . S
H735 C749 0.960 . S
H736 C749 0.961 . S
H737 C749 0.959 . S
H738 C752 0.929 . S
H739 C753 0.931 . S
H740 C755 0.930 . S
C741 H729 0.930 . S
C741 C742 1.399 . S
C741 C746 1.399 . S
C742 C741 1.399 . S
C742 C743 1.376 . S
C743 H730 0.930 . S
C743 C742 1.376 . S
C743 C744 1.388 . S
C744 H731 0.930 . S
C744 C743 1.388 . S
C744 C745 1.390 . S
C745 C744 1.390 . S
C745 C746 1.394 . S
C745 C751 1.465 . S
C746 C741 1.399 . S
C746 C745 1.394 . S
C746 C747 1.516 . S
C747 C746 1.516 . S
C747 C748 1.502 . S
C747 C749 1.561 . S
C747 C750 1.526 . S
C748 H732 0.959 . S
C748 H733 0.959 . S
C748 H734 0.961 . S
C748 C747 1.502 . S
C749 H735 0.960 . S
C749 H736 0.961 . S
C749 H737 0.959 . S
C749 C747 1.561 . S
C750 C747 1.526 . S
C750 C751 1.396 . S
C750 C755 1.390 . S
C751 C745 1.465 . S
C751 C750 1.396 . S
C751 C752 1.399 . S
C752 H738 0.929 . S
C752 C751 1.399 . S
C752 C753 1.385 . S
C753 H739 0.931 . S
C753 C752 1.385 . S
C753 C754 1.389 . S
C754 C753 1.389 . S
C754 C755 1.387 . S
C755 H740 0.930 . S
C755 C750 1.390 . S
C755 C754 1.387 . S
H756 C768 0.930 . S
H757 C770 0.930 . S
H758 C771 0.915 1_556 S
H759 C775 0.959 . S
H760 C775 0.959 . S
H761 C775 0.961 . S
H762 C776 0.960 1_554 S
H763 C776 0.961 . S
H764 C776 0.964 . S
H765 C779 0.929 . S
H766 C780 0.931 . S
H767 C782 0.930 . S
C768 H756 0.930 . S
C768 C769 1.399 . S
C768 C773 1.399 . S
C769 C768 1.399 . S
C769 C770 1.376 . S
C770 H757 0.930 . S
C770 C769 1.376 . S
C770 C771 1.388 . S
C771 H758 0.915 1_554 S
C771 C770 1.388 . S
C771 C772 1.390 1_554 S
C772 C771 1.390 1_556 S
C772 C773 1.394 1_556 S
C772 C778 1.465 . S
C773 C768 1.399 . S
C773 C772 1.394 1_554 S
C773 C774 1.516 1_554 S
C774 C773 1.516 1_556 S
C774 C775 1.502 . S
C774 C776 1.561 . S
C774 C777 1.526 . S
C775 H759 0.959 . S
C775 H760 0.959 . S
C775 H761 0.961 . S
C775 C774 1.502 . S
C776 H762 0.960 1_556 S
C776 H763 0.961 . S
C776 H764 0.964 . S
C776 C774 1.561 . S
C777 C774 1.526 . S
C777 C778 1.396 . S
C777 C782 1.390 . S
C778 C772 1.465 . S
C778 C777 1.396 . S
C778 C779 1.399 . S
C779 H765 0.929 . S
C779 C778 1.399 . S
C779 C780 1.385 . S
C780 H766 0.931 . S
C780 C779 1.385 . S
C780 C781 1.389 . S
C781 C780 1.389 . S
C781 C782 1.387 . S
C782 H767 0.930 . S
C782 C777 1.390 . S
C782 C781 1.387 . S
H783 C795 0.930 . S
H784 C797 0.930 . S
H785 C798 0.930 . S
H786 C802 0.959 . S
H787 C802 0.959 . S
H788 C802 0.961 . S
H789 C803 0.960 . S
H790 C803 0.961 . S
H791 C803 0.959 . S
H792 C806 0.929 . S
H793 C807 0.931 . S
H794 C809 0.930 . S
C795 H783 0.930 . S
C795 C796 1.399 . S
C795 C800 1.399 . S
C796 C795 1.399 . S
C796 C797 1.376 . S
C797 H784 0.930 . S
C797 C796 1.376 . S
C797 C798 1.388 . S
C798 H785 0.930 . S
C798 C797 1.388 . S
C798 C799 1.390 . S
C799 C798 1.390 . S
C799 C800 1.394 . S
C799 C805 1.465 . S
C800 C795 1.399 . S
C800 C799 1.394 . S
C800 C801 1.516 . S
C801 C800 1.516 . S
C801 C802 1.502 . S
C801 C803 1.561 . S
C801 C804 1.526 . S
C802 H786 0.959 . S
C802 H787 0.959 . S
C802 H788 0.961 . S
C802 C801 1.502 . S
C803 H789 0.960 . S
C803 H790 0.961 . S
C803 H791 0.959 . S
C803 C801 1.561 . S
C804 C801 1.526 . S
C804 C805 1.396 . S
C804 C809 1.390 . S
C805 C799 1.465 . S
C805 C804 1.396 . S
C805 C806 1.399 . S
C806 H792 0.929 . S
C806 C805 1.399 . S
C806 C807 1.385 . S
C807 H793 0.931 . S
C807 C806 1.385 . S
C807 C808 1.389 . S
C808 C807 1.389 . S
C808 C809 1.387 . S
C809 H794 0.930 . S
C809 C804 1.390 . S
C809 C808 1.387 . S
H810 C822 0.930 . S
H811 C824 0.930 . S
H812 C825 0.930 1_554 S
H813 C829 0.959 . S
H814 C829 0.959 . S
H815 C829 0.961 1_556 S
H816 C830 0.960 . S
H817 C830 0.961 . S
H818 C830 0.959 . S
H819 C833 0.929 . S
H820 C834 0.931 . S
H821 C836 0.930 . S
C822 H810 0.930 . S
C822 C823 1.399 . S
C822 C827 1.399 . S
C823 C822 1.399 . S
C823 C824 1.376 . S
C824 H811 0.930 . S
C824 C823 1.376 . S
C824 C825 1.388 . S
C825 H812 0.930 1_556 S
C825 C824 1.388 . S
C825 C826 1.390 1_556 S
C826 C825 1.390 1_554 S
C826 C827 1.394 1_554 S
C826 C832 1.465 . S
C827 C822 1.399 . S
C827 C826 1.394 1_556 S
C827 C828 1.516 1_556 S
C828 C827 1.516 1_554 S
C828 C829 1.502 . S
C828 C830 1.561 . S
C828 C831 1.526 . S
C829 H813 0.959 . S
C829 H814 0.959 . S
C829 H815 0.961 1_554 S
C829 C828 1.502 . S
C830 H816 0.960 . S
C830 H817 0.961 . S
C830 H818 0.959 . S
C830 C828 1.561 . S
C831 C828 1.526 . S
C831 C832 1.396 . S
C831 C836 1.390 . S
C832 C826 1.465 . S
C832 C831 1.396 . S
C832 C833 1.399 . S
C833 H819 0.929 . S
C833 C832 1.399 . S
C833 C834 1.385 . S
C834 H820 0.931 . S
C834 C833 1.385 . S
C834 C835 1.389 . S
C835 C834 1.389 . S
C835 C836 1.387 . S
C836 H821 0.930 . S
C836 C831 1.390 . S
C836 C835 1.387 . S
H837 C849 0.930 . S
H838 C851 0.930 . S
H839 C852 0.930 . S
H840 C856 0.959 . S
H841 C856 0.959 . S
H842 C856 0.961 . S
H843 C857 0.960 . S
H844 C857 0.961 . S
H845 C857 0.959 . S
H846 C860 0.929 . S
H847 C861 0.931 . S
H848 C863 0.930 . S
C849 H837 0.930 . S
C849 C850 1.399 . S
C849 C854 1.399 . S
C850 C849 1.399 . S
C850 C851 1.376 . S
C851 H838 0.930 . S
C851 C850 1.376 . S
C851 C852 1.388 . S
C852 H839 0.930 . S
C852 C851 1.388 . S
C852 C853 1.390 . S
C853 C852 1.390 . S
C853 C854 1.394 . S
C853 C859 1.465 . S
C854 C849 1.399 . S
C854 C853 1.394 . S
C854 C855 1.516 . S
C855 C854 1.516 . S
C855 C856 1.502 . S
C855 C857 1.561 . S
C855 C858 1.526 . S
C856 H840 0.959 . S
C856 H841 0.959 . S
C856 H842 0.961 . S
C856 C855 1.502 . S
C857 H843 0.960 . S
C857 H844 0.961 . S
C857 H845 0.959 . S
C857 C855 1.561 . S
C858 C855 1.526 . S
C858 C859 1.396 . S
C858 C863 1.390 . S
C859 C853 1.465 . S
C859 C858 1.396 . S
C859 C860 1.399 . S
C860 H846 0.929 . S
C860 C859 1.399 . S
C860 C861 1.385 . S
C861 H847 0.931 . S
C861 C860 1.385 . S
C861 C862 1.389 . S
C862 C861 1.389 . S
C862 C863 1.387 . S
C863 H848 0.930 . S
C863 C858 1.390 . S
C863 C862 1.387 . S
H864 C876 0.930 . S
H865 C878 0.930 . S
H866 C879 0.930 . S
H867 C883 0.959 . S
H868 C883 0.959 . S
H869 C883 0.961 . S
H870 C884 0.960 . S
H871 C884 0.961 . S
H872 C884 0.959 . S
H873 C887 0.929 . S
H874 C888 0.931 . S
H875 C890 0.930 . S
C876 H864 0.930 . S
C876 C877 1.399 . S
C876 C881 1.399 . S
C877 C876 1.399 . S
C877 C878 1.376 . S
C878 H865 0.930 . S
C878 C877 1.376 . S
C878 C879 1.388 . S
C879 H866 0.930 . S
C879 C878 1.388 . S
C879 C880 1.390 . S
C880 C879 1.390 . S
C880 C881 1.394 . S
C880 C886 1.465 . S
C881 C876 1.399 . S
C881 C880 1.394 . S
C881 C882 1.516 . S
C882 C881 1.516 . S
C882 C883 1.502 . S
C882 C884 1.561 . S
C882 C885 1.526 . S
C883 H867 0.959 . S
C883 H868 0.959 . S
C883 H869 0.961 . S
C883 C882 1.502 . S
C884 H870 0.960 . S
C884 H871 0.961 . S
C884 H872 0.959 . S
C884 C882 1.561 . S
C885 C882 1.526 . S
C885 C886 1.396 . S
C885 C890 1.390 . S
C886 C880 1.465 . S
C886 C885 1.396 . S
C886 C887 1.399 . S
C887 H873 0.929 . S
C887 C886 1.399 . S
C887 C888 1.385 . S
C888 H874 0.931 . S
C888 C887 1.385 . S
C888 C889 1.389 . S
C889 C888 1.389 . S
C889 C890 1.387 . S
C890 H875 0.930 . S
C890 C885 1.390 . S
C890 C889 1.387 . S
H891 C903 0.930 . S
H892 C905 0.930 . S
H893 C906 0.930 . S
H894 C910 0.959 . S
H895 C910 0.959 . S
H896 C910 0.961 . S
H897 C911 0.960 . S
H898 C911 0.961 . S
H899 C911 0.959 . S
H900 C914 0.929 . S
H901 C915 0.931 . S
H902 C917 0.930 . S
C903 H891 0.930 . S
C903 C904 1.399 . S
C903 C908 1.399 . S
C904 C903 1.399 . S
C904 C905 1.376 . S
C905 H892 0.930 . S
C905 C904 1.376 . S
C905 C906 1.388 . S
C906 H893 0.930 . S
C906 C905 1.388 . S
C906 C907 1.390 . S
C907 C906 1.390 . S
C907 C908 1.394 . S
C907 C913 1.465 . S
C908 C903 1.399 . S
C908 C907 1.394 . S
C908 C909 1.516 . S
C909 C908 1.516 . S
C909 C910 1.502 . S
C909 C911 1.561 . S
C909 C912 1.526 . S
C910 H894 0.959 . S
C910 H895 0.959 . S
C910 H896 0.961 . S
C910 C909 1.502 . S
C911 H897 0.960 . S
C911 H898 0.961 . S
C911 H899 0.959 . S
C911 C909 1.561 . S
C912 C909 1.526 . S
C912 C913 1.396 . S
C912 C917 1.390 . S
C913 C907 1.465 . S
C913 C912 1.396 . S
C913 C914 1.399 . S
C914 H900 0.929 . S
C914 C913 1.399 . S
C914 C915 1.385 . S
C915 H901 0.931 . S
C915 C914 1.385 . S
C915 C916 1.389 . S
C916 C915 1.389 . S
C916 C917 1.387 . S
C917 H902 0.930 . S
C917 C912 1.390 . S
C917 C916 1.387 . S
H918 C930 0.930 . S
H919 C932 0.930 . S
H920 C933 0.930 . S
H921 C937 0.959 . S
H922 C937 0.959 . S
H923 C937 0.961 . S
H924 C938 0.960 . S
H925 C938 0.961 . S
H926 C938 0.959 . S
H927 C941 0.929 . S
H928 C942 0.931 . S
H929 C944 0.930 . S
C930 H918 0.930 . S
C930 C931 1.399 . S
C930 C935 1.399 . S
C931 C930 1.399 . S
C931 C932 1.376 . S
C932 H919 0.930 . S
C932 C931 1.376 . S
C932 C933 1.388 . S
C933 H920 0.930 . S
C933 C932 1.388 . S
C933 C934 1.390 . S
C934 C933 1.390 . S
C934 C935 1.394 . S
C934 C940 1.465 . S
C935 C930 1.399 . S
C935 C934 1.394 . S
C935 C936 1.516 . S
C936 C935 1.516 . S
C936 C937 1.502 . S
C936 C938 1.561 . S
C936 C939 1.526 . S
C937 H921 0.959 . S
C937 H922 0.959 . S
C937 H923 0.961 . S
C937 C936 1.502 . S
C938 H924 0.960 . S
C938 H925 0.961 . S
C938 H926 0.959 . S
C938 C936 1.561 . S
C939 C936 1.526 . S
C939 C940 1.396 . S
C939 C944 1.390 . S
C940 C934 1.465 . S
C940 C939 1.396 . S
C940 C941 1.399 . S
C941 H927 0.929 . S
C941 C940 1.399 . S
C941 C942 1.385 . S
C942 H928 0.931 . S
C942 C941 1.385 . S
C942 C943 1.389 . S
C943 C942 1.389 . S
C943 C944 1.387 . S
C944 H929 0.930 . S
C944 C939 1.390 . S
C944 C943 1.387 . S
H945 C957 0.930 . S
H946 C959 0.930 . S
H947 C960 0.930 . S
H948 C964 0.959 . S
H949 C964 0.959 . S
H950 C964 0.961 . S
H951 C965 0.960 . S
H952 C965 0.961 . S
H953 C965 0.959 . S
H954 C968 0.929 . S
H955 C969 0.931 . S
H956 C971 0.930 . S
C957 H945 0.930 . S
C957 C958 1.399 . S
C957 C962 1.399 . S
C958 C957 1.399 . S
C958 C959 1.376 . S
C959 H946 0.930 . S
C959 C958 1.376 . S
C959 C960 1.388 . S
C960 H947 0.930 . S
C960 C959 1.388 . S
C960 C961 1.390 . S
C961 C960 1.390 . S
C961 C962 1.394 . S
C961 C967 1.465 . S
C962 C957 1.399 . S
C962 C961 1.394 . S
C962 C963 1.516 . S
C963 C962 1.516 . S
C963 C964 1.502 . S
C963 C965 1.561 . S
C963 C966 1.526 . S
C964 H948 0.959 . S
C964 H949 0.959 . S
C964 H950 0.961 . S
C964 C963 1.502 . S
C965 H951 0.960 . S
C965 H952 0.961 . S
C965 H953 0.959 . S
C965 C963 1.561 . S
C966 C963 1.526 . S
C966 C967 1.396 . S
C966 C971 1.390 . S
C967 C961 1.465 . S
C967 C966 1.396 . S
C967 C968 1.399 . S
C968 H954 0.929 . S
C968 C967 1.399 . S
C968 C969 1.385 . S
C969 H955 0.931 . S
C969 C968 1.385 . S
C969 C970 1.389 . S
C970 C969 1.389 . S
C970 C971 1.387 . S
C971 H956 0.930 . S
C971 C966 1.390 . S
C971 C970 1.387 . S
H972 C984 0.930 . S
H973 C986 0.930 . S
H974 C987 0.930 . S
H975 C991 0.959 . S
H976 C991 0.959 . S
H977 C991 0.961 . S
H978 C992 0.960 . S
H979 C992 0.961 . S
H980 C992 0.959 . S
H981 C995 0.929 . S
H982 C996 0.931 1_455 S
H983 C998 0.930 . S
C984 H972 0.930 . S
C984 C985 1.399 . S
C984 C989 1.399 . S
C985 C984 1.399 . S
C985 C986 1.376 . S
C986 H973 0.930 . S
C986 C985 1.376 . S
C986 C987 1.388 . S
C987 H974 0.930 . S
C987 C986 1.388 . S
C987 C988 1.390 . S
C988 C987 1.390 . S
C988 C989 1.394 . S
C988 C994 1.465 . S
C989 C984 1.399 . S
C989 C988 1.394 . S
C989 C990 1.516 . S
C990 C989 1.516 . S
C990 C991 1.502 . S
C990 C992 1.561 . S
C990 C993 1.526 . S
C991 H975 0.959 . S
C991 H976 0.959 . S
C991 H977 0.961 . S
C991 C990 1.502 . S
C992 H978 0.960 . S
C992 H979 0.961 . S
C992 H980 0.959 . S
C992 C990 1.561 . S
C993 C990 1.526 . S
C993 C994 1.396 . S
C993 C998 1.390 . S
C994 C988 1.465 . S
C994 C993 1.396 . S
C994 C995 1.399 . S
C995 H981 0.929 . S
C995 C994 1.399 . S
C995 C996 1.385 . S
C996 H982 0.931 1_655 S
C996 C995 1.385 . S
C996 C997 1.389 . S
C997 C996 1.389 . S
C997 C998 1.387 . S
C998 H983 0.930 . S
C998 C993 1.390 . S
C998 C997 1.387 . S
H999 C1011 0.930 . S
H1000 C1013 0.930 . S
H1001 C1014 0.930 . S
H1002 C1018 0.959 . S
H1003 C1018 0.959 . S
H1004 C1018 0.961 . S
H1005 C1019 0.960 . S
H1006 C1019 0.961 . S
H1007 C1019 0.959 . S
H1008 C1022 0.929 . S
H1009 C1023 0.931 . S
H1010 C1025 0.930 . S
C1011 H999 0.930 . S
C1011 C1012 1.399 . S
C1011 C1016 1.399 . S
C1012 C1011 1.399 . S
C1012 C1013 1.376 . S
C1013 H1000 0.930 . S
C1013 C1012 1.376 . S
C1013 C1014 1.388 . S
C1014 H1001 0.930 . S
C1014 C1013 1.388 . S
C1014 C1015 1.390 . S
C1015 C1014 1.390 . S
C1015 C1016 1.394 . S
C1015 C1021 1.465 . S
C1016 C1011 1.399 . S
C1016 C1015 1.394 . S
C1016 C1017 1.516 . S
C1017 C1016 1.516 . S
C1017 C1018 1.502 . S
C1017 C1019 1.561 . S
C1017 C1020 1.526 . S
C1018 H1002 0.959 . S
C1018 H1003 0.959 . S
C1018 H1004 0.961 . S
C1018 C1017 1.502 . S
C1019 H1005 0.960 . S
C1019 H1006 0.961 . S
C1019 H1007 0.959 . S
C1019 C1017 1.561 . S
C1020 C1017 1.526 . S
C1020 C1021 1.396 . S
C1020 C1025 1.390 . S
C1021 C1015 1.465 . S
C1021 C1020 1.396 . S
C1021 C1022 1.399 . S
C1022 H1008 0.929 . S
C1022 C1021 1.399 . S
C1022 C1023 1.385 . S
C1023 H1009 0.931 . S
C1023 C1022 1.385 . S
C1023 C1024 1.389 . S
C1024 C1023 1.389 . S
C1024 C1025 1.387 . S
C1025 H1010 0.930 . S
C1025 C1020 1.390 . S
C1025 C1024 1.387 . S
H1026 C1038 0.930 . S
H1027 C1040 0.930 . S
H1028 C1041 0.930 . S
H1029 C1045 0.959 . S
H1030 C1045 0.959 . S
H1031 C1045 0.961 . S
H1032 C1046 0.960 . S
H1033 C1046 0.961 . S
H1034 C1046 0.959 . S
H1035 C1049 0.929 . S
H1036 C1050 0.931 . S
H1037 C1052 0.930 . S
C1038 H1026 0.930 . S
C1038 C1039 1.399 . S
C1038 C1043 1.399 . S
C1039 C1038 1.399 . S
C1039 C1040 1.376 . S
C1040 H1027 0.930 . S
C1040 C1039 1.376 . S
C1040 C1041 1.388 . S
C1041 H1028 0.930 . S
C1041 C1040 1.388 . S
C1041 C1042 1.390 . S
C1042 C1041 1.390 . S
C1042 C1043 1.394 . S
C1042 C1048 1.465 . S
C1043 C1038 1.399 . S
C1043 C1042 1.394 . S
C1043 C1044 1.516 . S
C1044 C1043 1.516 . S
C1044 C1045 1.502 . S
C1044 C1046 1.561 . S
C1044 C1047 1.526 . S
C1045 H1029 0.959 . S
C1045 H1030 0.959 . S
C1045 H1031 0.961 . S
C1045 C1044 1.502 . S
C1046 H1032 0.960 . S
C1046 H1033 0.961 . S
C1046 H1034 0.959 . S
C1046 C1044 1.561 . S
C1047 C1044 1.526 . S
C1047 C1048 1.396 . S
C1047 C1052 1.390 . S
C1048 C1042 1.465 . S
C1048 C1047 1.396 . S
C1048 C1049 1.399 . S
C1049 H1035 0.929 . S
C1049 C1048 1.399 . S
C1049 C1050 1.385 . S
C1050 H1036 0.931 . S
C1050 C1049 1.385 . S
C1050 C1051 1.389 . S
C1051 C1050 1.389 . S
C1051 C1052 1.387 . S
C1052 H1037 0.930 . S
C1052 C1047 1.390 . S
C1052 C1051 1.387 . S
H1053 C1065 0.930 . S
H1054 C1067 0.930 . S
H1055 C1068 0.930 . S
H1056 C1072 0.959 . S
H1057 C1072 0.959 . S
H1058 C1072 0.961 . S
H1059 C1073 0.960 . S
H1060 C1073 0.961 . S
H1061 C1073 0.959 . S
H1062 C1076 0.929 . S
H1063 C1077 0.931 . S
H1064 C1079 0.930 . S
C1065 H1053 0.930 . S
C1065 C1066 1.399 . S
C1065 C1070 1.399 . S
C1066 C1065 1.399 . S
C1066 C1067 1.376 . S
C1067 H1054 0.930 . S
C1067 C1066 1.376 . S
C1067 C1068 1.388 . S
C1068 H1055 0.930 . S
C1068 C1067 1.388 . S
C1068 C1069 1.390 . S
C1069 C1068 1.390 . S
C1069 C1070 1.394 . S
C1069 C1075 1.465 . S
C1070 C1065 1.399 . S
C1070 C1069 1.394 . S
C1070 C1071 1.516 . S
C1071 C1070 1.516 . S
C1071 C1072 1.502 . S
C1071 C1073 1.561 . S
C1071 C1074 1.526 . S
C1072 H1056 0.959 . S
C1072 H1057 0.959 . S
C1072 H1058 0.961 . S
C1072 C1071 1.502 . S
C1073 H1059 0.960 . S
C1073 H1060 0.961 . S
C1073 H1061 0.959 . S
C1073 C1071 1.561 . S
C1074 C1071 1.526 . S
C1074 C1075 1.396 . S
C1074 C1079 1.390 . S
C1075 C1069 1.465 . S
C1075 C1074 1.396 . S
C1075 C1076 1.399 . S
C1076 H1062 0.929 . S
C1076 C1075 1.399 . S
C1076 C1077 1.385 . S
C1077 H1063 0.931 . S
C1077 C1076 1.385 . S
C1077 C1078 1.389 . S
C1078 C1077 1.389 . S
C1078 C1079 1.387 . S
C1079 H1064 0.930 . S
C1079 C1074 1.390 . S
C1079 C1078 1.387 . S
C445 C81 1.679 . S
C457 C152 1.649 . S
C484 C236 1.679 . S
C472 C93 1.668 . S
C511 C235 1.656 . S
C499 C57 1.676 . S
C526 C69 1.660 . S
C538 C151 1.662 . S
C565 C332 1.656 . S
C553 C33 1.660 . S
C592 C416 1.676 . S
C580 C45 1.677 . S
C607 C9 1.675 . S
C619 C415 1.653 . S
C634 C21 1.656 . S
C646 C331 1.666 . S
C673 C154 1.458 . S
C661 C18 1.614 . S
C700 C238 1.450 . S
C688 C6 1.589 . S
C727 C250 1.456 . S
C715 C42 1.599 . S
C754 C166 1.329 . S
C742 C30 1.621 . S
C781 C334 1.488 . S
C769 C66 1.613 . S
C796 C54 1.614 . S
C808 C418 1.484 . S
C835 C406 1.396 . S
C823 C90 1.617 . S
C850 C78 1.617 . S
C862 C322 1.377 . S
C889 C163 1.525 . S
C877 C4 1.516 . S
C916 C247 1.536 . S
C904 C16 1.533 . S
C931 C28 1.490 . S
C943 C248 1.477 . S
C970 C164 1.527 . S
C958 C40 1.528 . S
C997 C319 1.536 . S
C985 C52 1.526 . S
C1012 C64 1.490 . S
C1024 C403 1.530 . S
C1039 C76 1.530 . S
C1051 C404 1.527 . S
C1066 C88 1.484 . S
C1078 C320 1.477 . S
