# Generated by pormake.
# Topology pyr, (3,6)-cn, num edge types: 1
# Building blocks:
#     Node 0, Type 0, BuildingBlock: MIDCAF_clean_linker_0, # of connection points: 3
#     Node 1, Type 0, BuildingBlock: MIDCAF_clean_linker_0, # of connection points: 3
#     Node 2, Type 0, BuildingBlock: MIDCAF_clean_linker_0, # of connection points: 3
#     Node 3, Type 0, BuildingBlock: MIDCAF_clean_linker_0, # of connection points: 3
#     Node 4, Type 0, BuildingBlock: MIDCAF_clean_linker_0, # of connection points: 3
#     Node 5, Type 0, BuildingBlock: MIDCAF_clean_linker_0, # of connection points: 3
#     Node 6, Type 0, BuildingBlock: MIDCAF_clean_linker_0, # of connection points: 3
#     Node 7, Type 0, BuildingBlock: MIDCAF_clean_linker_0, # of connection points: 3
#     Node 8, Type 1, BuildingBlock: LEVNOQ01_clean_sbu_1, # of connection points: 6
#     Node 9, Type 1, BuildingBlock: LEVNOQ01_clean_sbu_1, # of connection points: 6
#     Node 10, Type 1, BuildingBlock: LEVNOQ01_clean_sbu_1, # of connection points: 6
#     Node 11, Type 1, BuildingBlock: LEVNOQ01_clean_sbu_1, # of connection points: 6
#     Edge 12, Type (0, 1), BuildingBlock: CIFDUS_clean_linker_0, # of connection points: 2
#     Edge 13, Type (0, 1), BuildingBlock: CIFDUS_clean_linker_0, # of connection points: 2
#     Edge 14, Type (0, 1), BuildingBlock: CIFDUS_clean_linker_0, # of connection points: 2
#     Edge 15, Type (0, 1), BuildingBlock: CIFDUS_clean_linker_0, # of connection points: 2
#     Edge 16, Type (0, 1), BuildingBlock: CIFDUS_clean_linker_0, # of connection points: 2
#     Edge 17, Type (0, 1), BuildingBlock: CIFDUS_clean_linker_0, # of connection points: 2
#     Edge 18, Type (0, 1), BuildingBlock: CIFDUS_clean_linker_0, # of connection points: 2
#     Edge 19, Type (0, 1), BuildingBlock: CIFDUS_clean_linker_0, # of connection points: 2
#     Edge 20, Type (0, 1), BuildingBlock: CIFDUS_clean_linker_0, # of connection points: 2
#     Edge 21, Type (0, 1), BuildingBlock: CIFDUS_clean_linker_0, # of connection points: 2
#     Edge 22, Type (0, 1), BuildingBlock: CIFDUS_clean_linker_0, # of connection points: 2
#     Edge 23, Type (0, 1), BuildingBlock: CIFDUS_clean_linker_0, # of connection points: 2
#     Edge 24, Type (0, 1), BuildingBlock: CIFDUS_clean_linker_0, # of connection points: 2
#     Edge 25, Type (0, 1), BuildingBlock: CIFDUS_clean_linker_0, # of connection points: 2
#     Edge 26, Type (0, 1), BuildingBlock: CIFDUS_clean_linker_0, # of connection points: 2
#     Edge 27, Type (0, 1), BuildingBlock: CIFDUS_clean_linker_0, # of connection points: 2
#     Edge 28, Type (0, 1), BuildingBlock: CIFDUS_clean_linker_0, # of connection points: 2
#     Edge 29, Type (0, 1), BuildingBlock: CIFDUS_clean_linker_0, # of connection points: 2
#     Edge 30, Type (0, 1), BuildingBlock: CIFDUS_clean_linker_0, # of connection points: 2
#     Edge 31, Type (0, 1), BuildingBlock: CIFDUS_clean_linker_0, # of connection points: 2
#     Edge 32, Type (0, 1), BuildingBlock: CIFDUS_clean_linker_0, # of connection points: 2
#     Edge 33, Type (0, 1), BuildingBlock: CIFDUS_clean_linker_0, # of connection points: 2
#     Edge 34, Type (0, 1), BuildingBlock: CIFDUS_clean_linker_0, # of connection points: 2
#     Edge 35, Type (0, 1), BuildingBlock: CIFDUS_clean_linker_0, # of connection points: 2
# Relax obj value: 0.035
# Max RMSD: 0.110
# Mean RMSD: 0.047
data_MOF--net-pry--node1-LEVNOQ01_clean_sbu_1--node2-MIDCAF_clean_linker_0--edge1-CIFDUS_clean_linker_0
_symmetry_space_group_name_H-M    P1
_symmetry_Int_Tables_number       1
_symmetry_cell_setting            triclinic
loop_
_symmetry_equiv_pos_as_xyz
'x, y, z'
_cell_length_a     41.091075
_cell_length_b     39.776395
_cell_length_c     39.651058
_cell_angle_alpha  92.758987
_cell_angle_beta   91.329824
_cell_angle_gamma 93.870298
loop_
_atom_site_label
_atom_site_type_symbol
_atom_site_fract_x
_atom_site_fract_y
_atom_site_fract_z
_atom_type_partial_charge
C0 C 0.084 0.12018 0.24064 0.0
C1 C 0.09605 0.09075 0.25291 0.0
C2 C 0.12099 0.07555 0.23554 0.0
C3 C 0.13316 0.08885 0.20604 0.0
H4 H 0.21121 0.08286 0.14218 0.0
H5 H 0.2617 0.06447 0.11797 0.0
H6 H 0.2404 0.11475 0.02678 0.0
H7 H 0.19052 0.13354 0.05085 0.0
H8 H 0.14655 0.19231 0.05432 0.0
H9 H 0.12682 0.24122 0.02813 0.0
H10 H 0.05983 0.25454 0.1091 0.0
H11 H 0.07958 0.20517 0.13576 0.0
H12 H 0.08566 0.15564 0.20141 0.0
H13 H 0.06448 0.13213 0.25343 0.0
H14 H 0.13061 0.05277 0.24445 0.0
H15 H 0.15205 0.07591 0.19323 0.0
N16 N 0.15757 0.11522 0.14481 0.0
N17 N 0.15418 0.15078 0.09979 0.0
N18 N 0.11825 0.15558 0.14466 0.0
C19 C 0.16858 0.12539 0.11468 0.0
C20 C 0.1291 0.1661 0.11438 0.0
C21 C 0.13237 0.12998 0.16 0.0
C22 C 0.19703 0.11031 0.09878 0.0
C23 C 0.21705 0.0896 0.11677 0.0
C24 C 0.24591 0.07883 0.10283 0.0
C25 C 0.25528 0.08852 0.07063 0.0
C26 C 0.23418 0.10737 0.0519 0.0
C27 C 0.20553 0.11818 0.06578 0.0
C28 C 0.11496 0.19477 0.09752 0.0
C29 C 0.12747 0.20536 0.06668 0.0
C30 C 0.11619 0.23353 0.05154 0.0
C31 C 0.0919 0.2519 0.06658 0.0
C32 C 0.07842 0.24074 0.09674 0.0
C33 C 0.08989 0.21255 0.11212 0.0
C34 C 0.12044 0.11759 0.19276 0.0
C35 C 0.09598 0.13342 0.21073 0.0
C36 C 0.25872 0.92866 0.59286 0.0
C37 C 0.24336 0.90925 0.56567 0.0
C38 C 0.25865 0.88146 0.55197 0.0
C39 C 0.28904 0.87361 0.56476 0.0
H40 H 0.36144 0.8154 0.54248 0.0
H41 H 0.38552 0.76663 0.51642 0.0
H42 H 0.46736 0.78097 0.5869 0.0
H43 H 0.44331 0.8298 0.61357 0.0
H44 H 0.43768 0.87924 0.67699 0.0
H45 H 0.46289 0.90641 0.72787 0.0
H46 H 0.38346 0.97186 0.73648 0.0
H47 H 0.35747 0.94387 0.68553 0.0
H48 H 0.30016 0.93623 0.62672 0.0
H49 H 0.2472 0.94999 0.60421 0.0
H50 H 0.2474 0.86617 0.53095 0.0
H51 H 0.30027 0.85215 0.55332 0.0
N52 N 0.35367 0.86146 0.58781 0.0
N53 N 0.3967 0.86894 0.62771 0.0
N54 N 0.35084 0.90074 0.6335 0.0
C55 C 0.38341 0.85327 0.59893 0.0
C56 C 0.38064 0.89274 0.64519 0.0
C57 C 0.3372 0.88507 0.60476 0.0
C58 C 0.40016 0.8263 0.58058 0.0
C59 C 0.3848 0.80861 0.55228 0.0
C60 C 0.39859 0.78074 0.53716 0.0
C61 C 0.42822 0.77021 0.54967 0.0
C62 C 0.44464 0.78894 0.57658 0.0
C63 C 0.43069 0.81669 0.592 0.0
C64 C 0.39559 0.90947 0.67677 0.0
C65 C 0.42544 0.89943 0.68953 0.0
C66 C 0.4401 0.91525 0.71874 0.0
C67 C 0.42556 0.94181 0.73608 0.0
C68 C 0.39536 0.9515 0.72381 0.0
C69 C 0.38054 0.93553 0.69447 0.0
C70 C 0.30465 0.89321 0.5918 0.0
C71 C 0.28898 0.92067 0.60587 0.0
C72 C 0.60304 0.26108 0.91581 0.0
C73 C 0.57727 0.24574 0.89525 0.0
C74 C 0.56376 0.26401 0.86973 0.0
C75 C 0.57568 0.29689 0.86477 0.0
H76 H 0.56574 0.3631 0.80131 0.0
H77 H 0.54898 0.37785 0.74617 0.0
H78 H 0.61971 0.46378 0.75196 0.0
H79 H 0.63871 0.44707 0.80727 0.0
H80 H 0.68565 0.45392 0.87579 0.0
H81 H 0.73558 0.47871 0.90417 0.0
H82 H 0.73461 0.39644 0.97105 0.0
H83 H 0.68439 0.37139 0.94323 0.0
H84 H 0.63511 0.30521 0.92682 0.0
H85 H 0.61346 0.2478 0.93622 0.0
H86 H 0.54398 0.25286 0.85344 0.0
H87 H 0.56453 0.31003 0.8447 0.0
N88 N 0.60342 0.36101 0.85041 0.0
N89 N 0.64088 0.40751 0.85952 0.0
N90 N 0.63983 0.36287 0.89655 0.0
C91 C 0.61598 0.39119 0.84088 0.0
C92 C 0.65276 0.39357 0.88766 0.0
C93 C 0.61495 0.34655 0.87788 0.0
C94 C 0.60386 0.40375 0.80879 0.0
C95 C 0.57801 0.38517 0.7911 0.0
C96 C 0.56803 0.39388 0.75929 0.0
C97 C 0.5828 0.42213 0.74442 0.0
C98 C 0.60814 0.44148 0.76239 0.0
C99 C 0.61872 0.43224 0.79429 0.0
C100 C 0.68106 0.41045 0.90699 0.0
C101 C 0.69562 0.44128 0.89689 0.0
C102 C 0.72407 0.45562 0.91315 0.0
C103 C 0.73844 0.43942 0.9397 0.0
C104 C 0.72358 0.40932 0.95068 0.0
C105 C 0.69497 0.39503 0.93462 0.0
C106 C 0.60162 0.31231 0.88509 0.0
C107 C 0.61515 0.2941 0.91076 0.0
C108 C 0.77199 0.57335 0.46291 0.0
C109 C 0.75408 0.5495 0.44137 0.0
C110 C 0.77055 0.53167 0.41628 0.0
C111 C 0.80345 0.53991 0.41063 0.0
H112 H 0.87085 0.53411 0.33228 0.0
H113 H 0.88707 0.52443 0.27382 0.0
H114 H 0.94661 0.61848 0.28125 0.0
H115 H 0.93203 0.62714 0.33942 0.0
H116 H 0.95055 0.6618 0.4109 0.0
H117 H 0.96585 0.71949 0.43195 0.0
H118 H 0.88669 0.71425 0.50149 0.0
H119 H 0.87127 0.65663 0.48081 0.0
H120 H 0.81753 0.60143 0.47327 0.0
H121 H 0.76007 0.58744 0.48255 0.0
H122 H 0.75758 0.5124 0.39991 0.0
H123 H 0.81486 0.52699 0.38984 0.0
N124 N 0.86389 0.5713 0.38834 0.0
N125 N 0.90615 0.61388 0.39499 0.0
N126 N 0.86854 0.60633 0.43776 0.0
C127 C 0.89067 0.58797 0.37604 0.0
C128 C 0.89543 0.62312 0.42594 0.0
C129 C 0.85277 0.58024 0.41933 0.0
C130 C 0.90052 0.58114 0.34079 0.0
C131 C 0.88762 0.55253 0.32141 0.0
C132 C 0.8966 0.54718 0.28778 0.0
C133 C 0.91837 0.57053 0.2728 0.0
C134 C 0.93046 0.59948 0.29207 0.0
C135 C 0.92199 0.6045 0.3256 0.0
C136 C 0.90926 0.65473 0.44367 0.0
C137 C 0.93689 0.67256 0.4313 0.0
C138 C 0.94585 0.70554 0.4435 0.0
C139 C 0.92725 0.72132 0.4681 0.0
C140 C 0.90129 0.70264 0.48235 0.0
C141 C 0.89251 0.6696 0.47044 0.0
C142 C 0.82063 0.56603 0.43012 0.0
C143 C 0.80499 0.58146 0.45743 0.0
C144 C 0.76423 0.93497 0.89866 0.0
C145 C 0.75618 0.93404 0.93293 0.0
C146 C 0.77565 0.91578 0.95435 0.0
C147 C 0.80187 0.89855 0.94171 0.0
H148 H 0.84833 0.80519 0.94711 0.0
H149 H 0.86691 0.75541 0.97298 0.0
H150 H 0.94866 0.75546 0.90661 0.0
H151 H 0.93014 0.80561 0.88056 0.0
H152 H 0.92129 0.84958 0.80754 0.0
H153 H 0.94249 0.873 0.75531 0.0
H154 H 0.88029 0.95561 0.76743 0.0
H155 H 0.85937 0.93296 0.81868 0.0
H156 H 0.79578 0.91965 0.85963 0.0
H157 H 0.74962 0.94782 0.88095 0.0
H158 H 0.77081 0.91479 0.98101 0.0
H159 H 0.81622 0.88471 0.95884 0.0
N160 N 0.85003 0.85569 0.90874 0.0
N161 N 0.88785 0.85006 0.86529 0.0
N162 N 0.85057 0.89211 0.86417 0.0
C163 C 0.87511 0.83939 0.89486 0.0
C164 C 0.87559 0.87661 0.84983 0.0
C165 C 0.83763 0.88209 0.89342 0.0
C166 C 0.88755 0.80956 0.91146 0.0
C167 C 0.87038 0.79484 0.938 0.0
C168 C 0.88096 0.76606 0.95282 0.0
C169 C 0.90922 0.75119 0.94185 0.0
C170 C 0.92691 0.76633 0.9159 0.0
C171 C 0.91613 0.79501 0.90078 0.0
C172 C 0.88871 0.88935 0.81767 0.0
C173 C 0.91208 0.87265 0.79894 0.0
C174 C 0.92402 0.88587 0.76891 0.0
C175 C 0.91307 0.91617 0.75736 0.0
C176 C 0.88938 0.93235 0.77576 0.0
C177 C 0.87737 0.91919 0.80531 0.0
C178 C 0.80972 0.89969 0.90746 0.0
C179 C 0.7907 0.91837 0.88624 0.0
C180 C 0.61629 0.0577 0.28535 0.0
C181 C 0.58766 0.06839 0.27035 0.0
C182 C 0.57369 0.0968 0.28489 0.0
C183 C 0.58752 0.11372 0.31394 0.0
H184 H 0.56117 0.16698 0.40289 0.0
H185 H 0.53082 0.21407 0.42246 0.0
H186 H 0.62 0.26662 0.46216 0.0
H187 H 0.65055 0.2185 0.4434 0.0
H188 H 0.70487 0.15372 0.46076 0.0
H189 H 0.75663 0.13623 0.4836 0.0
H190 H 0.766 0.07112 0.39453 0.0
H191 H 0.71462 0.08789 0.37202 0.0
H192 H 0.65217 0.06571 0.32556 0.0
H193 H 0.62763 0.03588 0.27486 0.0
H194 H 0.55214 0.10633 0.27355 0.0
H195 H 0.57594 0.13549 0.32422 0.0
N196 N 0.61389 0.14531 0.37647 0.0
N197 N 0.65654 0.15527 0.41687 0.0
N198 N 0.65984 0.11389 0.37291 0.0
C199 C 0.62674 0.16249 0.40467 0.0
C200 C 0.67318 0.13079 0.40114 0.0
C201 C 0.63026 0.12106 0.36033 0.0
C202 C 0.60835 0.1893 0.42099 0.0
C203 C 0.57434 0.18832 0.4162 0.0
C204 C 0.55692 0.21535 0.42743 0.0
C205 C 0.57308 0.2444 0.44322 0.0
C206 C 0.60684 0.24457 0.45012 0.0
C207 C 0.62434 0.21711 0.43921 0.0
C208 C 0.70531 0.12196 0.41467 0.0
C209 C 0.71804 0.13575 0.44602 0.0
C210 C 0.74772 0.12584 0.4591 0.0
C211 C 0.76511 0.10193 0.44111 0.0
C212 C 0.7528 0.08899 0.4094 0.0
C213 C 0.72331 0.09878 0.39641 0.0
C214 C 0.61592 0.1029 0.32925 0.0
C215 C 0.63027 0.07477 0.31449 0.0
C216 C 0.26305 0.56866 0.1022 0.0
C217 C 0.25323 0.58017 0.07085 0.0
C218 C 0.27478 0.60144 0.05345 0.0
C219 C 0.30469 0.6133 0.0685 0.0
H220 H 0.34589 0.70817 0.08133 0.0
H221 H 0.36181 0.76472 0.06488 0.0
H222 H 0.44293 0.77079 0.13668 0.0
H223 H 0.42654 0.71412 0.15405 0.0
H224 H 0.41333 0.66827 0.21509 0.0
H225 H 0.43019 0.65364 0.2708 0.0
H226 H 0.38314 0.55362 0.25296 0.0
H227 H 0.36473 0.56886 0.197 0.0
H228 H 0.29921 0.57228 0.14209 0.0
H229 H 0.24677 0.55196 0.11588 0.0
H230 H 0.26763 0.61061 0.02927 0.0
H231 H 0.3201 0.63122 0.05529 0.0
N232 N 0.35261 0.65268 0.10966 0.0
N233 N 0.38714 0.66048 0.15736 0.0
N234 N 0.3531 0.61084 0.14934 0.0
C235 C 0.37543 0.67201 0.1283 0.0
C236 C 0.37625 0.62998 0.1681 0.0
C237 C 0.34143 0.62203 0.11979 0.0
C238 C 0.38527 0.70642 0.11858 0.0
C239 C 0.36711 0.72144 0.09372 0.0
C240 C 0.37612 0.7539 0.08439 0.0
C241 C 0.40372 0.77192 0.09935 0.0
C242 C 0.42138 0.75748 0.12499 0.0
C243 C 0.41218 0.72495 0.1346 0.0
C244 C 0.38763 0.61971 0.20145 0.0
C245 C 0.40646 0.64308 0.22281 0.0
C246 C 0.41631 0.63466 0.25488 0.0
C247 C 0.40808 0.60247 0.26638 0.0
C248 C 0.38941 0.57887 0.24504 0.0
C249 C 0.37914 0.58747 0.21287 0.0
C250 C 0.31356 0.60383 0.10107 0.0
C251 C 0.29309 0.58019 0.1171 0.0
C252 C 0.08023 0.30174 0.52682 0.0
C253 C 0.05927 0.2797 0.54419 0.0
C254 C 0.04677 0.29105 0.57509 0.0
C255 C 0.05727 0.32283 0.58966 0.0
H256 H 0.06092 0.37921 0.6824 0.0
H257 H 0.04613 0.39912 0.73918 0.0
H258 H 0.11392 0.48618 0.73315 0.0
H259 H 0.12861 0.46684 0.67697 0.0
H260 H 0.18727 0.45779 0.62836 0.0
H261 H 0.24194 0.47369 0.6097 0.0
H262 H 0.2192 0.42323 0.51249 0.0
H263 H 0.16426 0.40666 0.53106 0.0
H264 H 0.10798 0.34904 0.5277 0.0
H265 H 0.08989 0.29377 0.50276 0.0
H266 H 0.03067 0.2745 0.58911 0.0
H267 H 0.04863 0.33007 0.61439 0.0
N268 N 0.08758 0.38446 0.62288 0.0
N269 N 0.13099 0.42601 0.62601 0.0
N270 N 0.12308 0.3902 0.57764 0.0
C271 C 0.10461 0.41057 0.64024 0.0
C272 C 0.14041 0.41608 0.59476 0.0
C273 C 0.09658 0.37431 0.59135 0.0
C274 C 0.09572 0.42157 0.6749 0.0
C275 C 0.07273 0.40253 0.69326 0.0
C276 C 0.0645 0.41368 0.72586 0.0
C277 C 0.07889 0.44416 0.74042 0.0
C278 C 0.10235 0.46266 0.72241 0.0
C279 C 0.11071 0.45152 0.69014 0.0
C280 C 0.17146 0.43043 0.5814 0.0
C281 C 0.19354 0.45046 0.60279 0.0
C282 C 0.2249 0.45955 0.59221 0.0
C283 C 0.23469 0.44931 0.55987 0.0
C284 C 0.21208 0.43137 0.53756 0.0
C285 C 0.18074 0.42181 0.5483 0.0
C286 C 0.08042 0.34377 0.57353 0.0
C287 C 0.09062 0.33343 0.54124 0.0
O288 O 0.00288 0.01368 0.59594 0.0
Mg289 Mg 0.03126 0.03473 0.55902 0.0
O290 O 0.9822 0.97875 0.55532 0.0
Mg291 Mg 0.00137 -5e-05 0.50273 0.0
O292 O 0.01103 0.05837 0.51964 0.0
O293 O 0.03452 0.08459 0.56674 0.0
O294 O 0.02117 0.02252 0.45041 0.0
O295 O 0.94742 0.01547 0.49423 0.0
Mg296 Mg 0.97853 0.96844 0.44652 0.0
O297 O 0.98992 0.94081 0.48707 0.0
O298 O 0.01275 0.98188 0.4116 0.0
O299 O 0.93399 0.9904 0.44485 0.0
O300 O 0.96697 0.9195 0.43768 0.0
C301 C 0.08036 -0.00444 0.5293 0.0
C302 C 0.98462 0.98805 0.58671 0.0
C303 C 0.02027 0.08591 0.5376 0.0
C304 C 0.0251 0.01087 0.42019 0.0
C305 C 0.9268 0.00889 0.4699 0.0
C306 C 0.97813 0.91521 0.46762 0.0
O307 O 0.07741 0.01854 0.5518 0.0
O308 O 0.05584 0.98432 0.51069 0.0
O309 O 0.45297 0.07081 0.03953 0.0
Mg310 Mg 0.50379 0.07611 0.0419 0.0
O311 O 0.45131 0.01774 0.01916 0.0
Mg312 Mg 0.50526 0.00555 0.00301 0.0
O313 O 0.52193 0.06091 0.99693 0.0
O314 O 0.52662 0.11438 0.0175 0.0
O315 O 0.56293 -0.00358 0.98981 0.0
O316 O 0.48292 0.00746 0.94754 0.0
Mg317 Mg 0.51752 0.95629 0.97125 0.0
O318 O 0.48401 0.94915 0.00871 0.0
O319 O 0.56163 0.94135 0.98697 0.0
O320 O 0.51591 0.97489 0.92229 0.0
O321 O 0.48856 0.91399 0.96344 0.0
C322 C 0.53254 0.02578 0.08444 0.0
C323 C 0.43692 0.04343 0.03054 0.0
C324 C 0.53135 0.09225 0.99355 0.0
C325 C 0.57803 0.96914 0.98971 0.0
C326 C 0.49362 0.99487 0.92026 0.0
C327 C 0.47612 0.92062 0.9922 0.0
O328 O 0.52747 0.05662 0.0826 0.0
O329 O 0.5253 0.00434 0.05981 0.0
O330 O 0.46484 0.57039 0.56891 0.0
Mg331 Mg 0.47977 0.52582 0.58762 0.0
O332 O 0.4799 0.56139 0.51627 0.0
Mg333 Mg 0.49253 0.50477 0.50949 0.0
O334 O 0.5124 0.49806 0.56207 0.0
O335 O 0.5287 0.53261 0.60417 0.0
O336 O 0.50512 0.44647 0.5031 0.0
O337 O 0.546 0.52358 0.49682 0.0
Mg338 Mg 0.50495 0.48277 0.44363 0.0
O339 O 0.46927 0.51365 0.45563 0.0
O340 O 0.49775 0.43204 0.44936 0.0
O341 O 0.55258 0.50483 0.44446 0.0
O342 O 0.47954 0.49368 0.40296 0.0
C343 C 0.42675 0.47952 0.55431 0.0
C344 C 0.46836 0.58015 0.53938 0.0
C345 C 0.53554 0.50893 0.58297 0.0
C346 C 0.50348 0.42379 0.47899 0.0
C347 C 0.5638 0.52068 0.47106 0.0
C348 C 0.463 0.51181 0.42319 0.0
O349 O 0.44086 0.48812 0.58268 0.0
O350 O 0.43995 0.48629 0.52616 0.0
O351 O 0.02321 0.43464 0.06093 0.0
Mg352 Mg 0.01512 0.48474 0.06785 0.0
O353 O 0.01088 0.44451 0.0085 0.0
Mg354 Mg 0.99558 0.50239 0.00845 0.0
O355 O 0.97247 0.50846 0.06368 0.0
O356 O 0.99038 0.48413 0.11006 0.0
O357 O 0.97687 0.56112 0.01062 0.0
O358 O 0.94516 0.47838 0.9928 0.0
Mg359 Mg 0.98738 0.52949 0.96269 0.0
O360 O 0.01679 0.49195 0.95135 0.0
O361 O 0.01127 0.57758 0.97353 0.0
O362 O 0.93491 0.52179 0.96381 0.0
O363 O 0.99402 0.52377 0.91335 0.0
C364 C 0.06516 0.53197 0.05096 0.0
C365 C 0.0198 0.42438 0.03063 0.0
C366 C 0.9699 0.50212 0.09554 0.0
C367 C 0.99149 0.58539 0.99568 0.0
C368 C 0.92506 0.49458 0.97656 0.0
C369 C 0.01295 0.50048 0.92021 0.0
O370 O 0.05545 0.51754 0.0768 0.0
O371 O 0.04861 0.52778 0.02319 0.0
H372 H 0.09187 0.11335 0.3194 0.0
H373 H 0.06572 0.02873 0.24971 0.0
H374 H 0.04227 -0.00313 0.29531 0.0
H375 H 0.03005 0.99234 0.3543 0.0
H376 H 0.05543 0.07547 0.42613 0.0
H377 H 0.07883 0.10849 0.38055 0.0
C378 C 0.08081 0.08803 0.31439 0.0
C379 C 0.08051 0.07329 0.28128 0.0
C380 C 0.06766 0.06951 0.34107 0.0
C381 C 0.06635 0.04043 0.27499 0.0
C382 C 0.05299 0.02221 0.30105 0.0
C383 C 0.04077 0.01765 0.36031 0.0
C384 C 0.04101 0.03128 0.39379 0.0
C385 C 0.05377 0.03636 0.33414 0.0
C386 C 0.05497 0.06424 0.40068 0.0
C387 C 0.06824 0.08315 0.37456 0.0
H388 H 0.39852 0.96388 0.79534 0.0
H389 H 0.49057 0.95909 0.74553 0.0
H390 H 0.51964 0.9797 0.79738 0.0
H391 H 0.51951 0.99248 0.85837 0.0
H392 H 0.42819 -0.00104 0.90872 0.0
H393 H 0.39828 0.98544 0.85505 0.0
C394 C 0.42488 0.96801 0.79561 0.0
C395 C 0.44232 0.95897 0.76668 0.0
C396 C 0.44163 0.98024 0.82565 0.0
C397 C 0.47651 0.96468 0.76763 0.0
C398 C 0.49322 0.97675 0.79724 0.0
C399 C 0.49306 0.99185 0.85739 0.0
C400 C 0.47609 -0.00345 0.88741 0.0
C401 C 0.47612 0.98361 0.82663 0.0
C402 C 0.44183 -0.00425 0.88587 0.0
C403 C 0.42472 0.98758 0.85523 0.0
H404 H 0.61837 0.44993 0.69362 0.0
H405 H 0.52026 0.41543 0.7191 0.0
H406 H 0.50028 0.42866 0.66388 0.0
H407 H 0.5084 0.45721 0.6124 0.0
H408 H 0.60192 0.50678 0.59281 0.0
H409 H 0.62655 0.47913 0.64042 0.0
C410 C 0.59262 0.44545 0.68717 0.0
C411 C 0.57108 0.43114 0.71055 0.0
C412 C 0.58066 0.45522 0.65591 0.0
C413 C 0.53776 0.42532 0.70148 0.0
C414 C 0.52616 0.43307 0.66986 0.0
C415 C 0.5345 0.46079 0.61773 0.0
C416 C 0.55356 0.48341 0.59912 0.0
C417 C 0.54722 0.44857 0.64723 0.0
C418 C 0.58705 0.48891 0.60664 0.0
C419 C 0.60084 0.47374 0.63425 0.0
H420 H 0.88432 0.54189 0.21651 0.0
H421 H 0.97979 0.58409 0.25097 0.0
H422 H 0.00072 0.57449 0.19513 0.0
H423 H 0.99439 0.54892 0.13888 0.0
H424 H 0.90338 0.49681 0.10546 0.0
H425 H 0.87769 0.51652 0.15776 0.0
C426 C 0.90967 0.54898 0.21176 0.0
C427 C 0.93022 0.56429 0.23802 0.0
C428 C 0.92217 0.54209 0.17953 0.0
C429 C 0.96303 0.5733 0.23126 0.0
C430 C 0.97519 0.56764 0.19928 0.0
C431 C 0.96858 0.54288 0.14263 0.0
C432 C 0.95054 0.52209 0.11848 0.0
C433 C 0.95516 0.55172 0.17349 0.0
C434 C 0.91742 0.51352 0.12357 0.0
C435 C 0.90305 0.52421 0.15372 0.0
H436 H 0.28859 0.03046 0.07093 0.0
H437 H 0.29689 0.13417 0.04271 0.0
H438 H 0.35231 0.1278 0.02475 0.0
H439 H 0.39963 0.09472 0.02053 0.0
H440 H 0.39392 0.99114 0.0483 0.0
H441 H 0.33621 -0.00476 0.06243 0.0
C442 C 0.30256 0.05153 0.06068 0.0
C443 C 0.28845 0.08275 0.05808 0.0
C444 C 0.33483 0.04773 0.05028 0.0
C445 C 0.30682 0.10976 0.04455 0.0
C446 C 0.33866 0.10623 0.03442 0.0
C447 C 0.38568 0.07285 0.02933 0.0
C448 C 0.40102 0.04277 0.03365 0.0
C449 C 0.353 0.07557 0.03759 0.0
C450 C 0.38257 0.01454 0.04463 0.0
C451 C 0.34969 0.01703 0.05299 0.0
H452 H 0.2273 0.97101 0.54891 0.0
H453 H 0.1884 0.86778 0.55067 0.0
H454 H 0.13435 0.8845 0.53347 0.0
H455 H 0.0968 0.93007 0.52534 0.0
H456 H 0.13669 0.0332 0.52648 0.0
H457 H 0.19165 0.01502 0.53456 0.0
C458 C 0.20699 0.95217 0.54535 0.0
C459 C 0.21157 0.91841 0.55167 0.0
C460 C 0.17613 0.96201 0.53592 0.0
C461 C 0.18534 0.89403 0.54614 0.0
C462 C 0.15444 0.90359 0.53641 0.0
C463 C 0.11771 0.94828 0.52634 0.0
C464 C 0.11291 0.98286 0.52545 0.0
C465 C 0.14932 0.9377 0.53216 0.0
C466 C 0.14 0.00644 0.52721 0.0
C467 C 0.17136 -0.00389 0.53204 0.0
H468 H 0.7954 0.4158 0.92263 0.0
H469 H 0.75316 0.49137 0.98592 0.0
H470 H 0.8079 0.51511 0.00416 0.0
H471 H 0.86796 0.51592 -0.0008 0.0
H472 H 0.90951 0.43971 0.93596 0.0
H473 H 0.85493 0.41477 0.9199 0.0
C474 C 0.79839 0.43725 0.94069 0.0
C475 C 0.7708 0.45201 0.9531 0.0
C476 C 0.82968 0.4508 0.95054 0.0
C477 C 0.77442 0.47986 0.97622 0.0
C478 C 0.80558 0.49339 0.98648 0.0
C479 C 0.8648 0.49377 0.98207 0.0
C480 C 0.89222 0.4795 0.96857 0.0
C481 C 0.83339 0.4794 0.97334 0.0
C482 C 0.8884 0.45078 0.94659 0.0
C483 C 0.85732 0.43661 0.93743 0.0
H484 H 0.71541 0.54735 0.49689 0.0
H485 H 0.71153 0.54535 0.38783 0.0
H486 H 0.65229 0.53995 0.38791 0.0
H487 H 0.60187 0.53297 0.41823 0.0
H488 H 0.60401 0.53438 0.52711 0.0
H489 H 0.66362 0.54415 0.52787 0.0
C490 C 0.70154 0.5459 0.4732 0.0
C491 C 0.71794 0.54598 0.44238 0.0
C492 C 0.66723 0.54308 0.47337 0.0
C493 C 0.69962 0.54424 0.41188 0.0
C494 C 0.6657 0.54156 0.41187 0.0
C495 C 0.61531 0.53573 0.4422 0.0
C496 C 0.59865 0.5326 0.47252 0.0
C497 C 0.64932 0.54051 0.44238 0.0
C498 C 0.61633 0.53677 0.50339 0.0
C499 C 0.65041 0.54201 0.50381 0.0
H500 H 0.03054 0.27298 0.05559 0.0
H501 H 0.13251 0.30281 0.04489 0.0
H502 H 0.11853 0.35738 0.02537 0.0
H503 H 0.07782 0.3994 0.01871 0.0
H504 H 0.97608 0.37056 0.03035 0.0
H505 H 0.98917 0.31284 0.04128 0.0
C506 C 0.04962 0.29136 0.0487 0.0
C507 C 0.08254 0.28388 0.05203 0.0
C508 C 0.04139 0.32284 0.03733 0.0
C509 C 0.10699 0.30781 0.04252 0.0
C510 C 0.09902 0.3391 0.03139 0.0
C511 C 0.05847 0.37998 0.02199 0.0
C512 C 0.02598 0.38887 0.02282 0.0
C513 C 0.06638 0.3472 0.02941 0.0
C514 C 0.00115 0.36394 0.02848 0.0
C515 C 0.00873 0.33111 0.03541 0.0
H516 H 0.60969 0.19058 0.90967 0.0
H517 H 0.51288 0.22445 0.89559 0.0
H518 H 0.48914 0.17165 0.91562 0.0
H519 H 0.49653 0.12267 0.94891 0.0
H520 H 0.59305 0.09227 0.97033 0.0
H521 H 0.61641 0.13595 0.93467 0.0
C522 C 0.5834 0.18613 0.91061 0.0
C523 C 0.56312 0.2116 0.90186 0.0
C524 C 0.56993 0.15618 0.92335 0.0
C525 C 0.52906 0.20528 0.90226 0.0
C526 C 0.51543 0.17514 0.91386 0.0
C527 C 0.52252 0.12466 0.94427 0.0
C528 C 0.54321 0.10464 0.96183 0.0
C529 C 0.53569 0.15123 0.92598 0.0
C530 C 0.57683 0.10737 0.9565 0.0
C531 C 0.59014 0.13273 0.93671 0.0
H532 H 0.98321 0.7602 0.48583 0.0
H533 H 0.88039 0.76522 0.4637 0.0
H534 H 0.8867 0.82659 0.46661 0.0
H535 H 0.92213 0.87829 0.46911 0.0
H536 H 0.02498 0.87528 0.49076 0.0
H537 H 0.01807 0.81371 0.49544 0.0
C538 C 0.96222 0.7749 0.48227 0.0
C539 C 0.93137 0.75831 0.47466 0.0
C540 C 0.96604 0.8104 0.48403 0.0
C541 C 0.90426 0.77745 0.47004 0.0
C542 C 0.90787 0.81252 0.47152 0.0
C543 C 0.94285 0.86417 0.4758 0.0
C544 C 0.97394 0.88091 0.47968 0.0
C545 C 0.93869 0.82916 0.47775 0.0
C546 C 0.00077 0.86272 0.48811 0.0
C547 C -0.00317 0.82757 0.49034 0.0
H548 H 0.39368 0.71077 0.54948 0.0
H549 H 0.48796 0.75588 0.52536 0.0
H550 H 0.50775 0.69965 0.51366 0.0
H551 H 0.49986 0.6375 0.51787 0.0
H552 H 0.40636 0.59422 0.54708 0.0
H553 H 0.3844 0.64966 0.54896 0.0
C554 C 0.41834 0.70823 0.54091 0.0
C555 C 0.43939 0.73714 0.53818 0.0
C556 C 0.42966 0.67609 0.5354 0.0
C557 C 0.47147 0.73375 0.52772 0.0
C558 C 0.48272 0.70169 0.52108 0.0
C559 C 0.47445 0.64032 0.52348 0.0
C560 C 0.45453 0.61207 0.53193 0.0
C561 C 0.46231 0.67261 0.52582 0.0
C562 C 0.42187 0.61578 0.5401 0.0
C563 C 0.40939 0.64744 0.54143 0.0
H564 H 0.92085 0.88958 0.69264 0.0
H565 H 0.93758 0.98069 0.75601 0.0
H566 H 0.95902 0.01079 0.70846 0.0
H567 H 0.97347 0.01168 0.64972 0.0
H568 H 0.95774 0.92204 0.58421 0.0
H569 H 0.93494 0.89105 0.63151 0.0
C570 C 0.92945 0.91593 0.69593 0.0
C571 C 0.92761 0.93288 0.72788 0.0
C572 C 0.9416 0.93341 0.6681 0.0
C573 C 0.93852 0.96713 0.73172 0.0
C574 C 0.95078 0.98439 0.70453 0.0
C575 C 0.96503 0.98533 0.64556 0.0
C576 C 0.96752 0.9692 0.61342 0.0
C577 C 0.95238 0.96785 0.6727 0.0
C578 C 0.956 0.93516 0.60861 0.0
C579 C 0.94319 0.9174 0.63574 0.0
H580 H 0.6178 0.04309 0.21451 0.0
H581 H 0.52282 0.05364 0.25656 0.0
H582 H 0.49675 0.03334 0.20298 0.0
H583 H 0.50107 0.02163 0.14217 0.0
H584 H 0.59533 0.01291 0.0989 0.0
H585 H 0.62159 0.02185 0.15513 0.0
C586 C 0.59141 0.0401 0.21222 0.0
C587 C 0.57234 0.0507 0.23936 0.0
C588 C 0.57644 0.02844 0.18112 0.0
C589 C 0.53813 0.04665 0.23584 0.0
C590 C 0.52315 0.03479 0.20526 0.0
C591 C 0.52722 0.02005 0.14539 0.0
C592 C 0.54628 0.01608 0.11676 0.0
C593 C 0.54205 0.02679 0.17744 0.0
C594 C 0.5802 0.01508 0.12082 0.0
C595 C 0.5952 0.02087 0.15288 0.0
H596 H 0.37582 0.56461 0.31255 0.0
H597 H 0.46771 0.61999 0.29581 0.0
H598 H 0.48887 0.60425 0.35 0.0
H599 H 0.48459 0.5683 0.39755 0.0
H600 H 0.39725 0.50484 0.41029 0.0
H601 H 0.37033 0.53099 0.36319 0.0
C602 C 0.40043 0.57325 0.32082 0.0
C603 C 0.42006 0.59353 0.30011 0.0
C604 C 0.41302 0.56304 0.35163 0.0
C605 C 0.4518 0.60487 0.3114 0.0
C606 C 0.46404 0.59579 0.34238 0.0
C607 C 0.45914 0.5614 0.39085 0.0
C608 C 0.44254 0.53539 0.40737 0.0
C609 C 0.44517 0.57431 0.36225 0.0
C610 C 0.41003 0.52553 0.39821 0.0
C611 C 0.395 0.53995 0.37089 0.0
H612 H 0.0725 0.41413 0.80119 0.0
H613 H 0.05961 0.50691 0.75182 0.0
H614 H 0.0408 0.53273 0.80397 0.0
H615 H 0.02655 0.52894 0.86225 0.0
H616 H 0.0376 0.43732 0.91398 0.0
H617 H 0.05949 0.41116 0.86243 0.0
C618 C 0.06551 0.43995 0.80205 0.0
C619 C 0.06752 0.45869 0.77277 0.0
C620 C 0.05473 0.45485 0.83243 0.0
C621 C 0.05861 0.49217 0.7741 0.0
C622 C 0.0478 0.50693 0.80386 0.0
C623 C 0.03376 0.50319 0.86245 0.0
C624 C 0.03008 0.48491 0.8917 0.0
C625 C 0.04565 0.4885 0.83299 0.0
C626 C 0.04021 0.45189 0.8917 0.0
C627 C 0.05246 0.43691 0.86218 0.0
H628 H 0.71518 0.91356 0.98256 0.0
H629 H 0.72997 0.99204 0.9118 0.0
H630 H 0.67753 0.01339 0.92617 0.0
H631 H 0.62411 0.00548 0.95428 0.0
H632 H 0.61191 0.92817 0.02639 0.0
H633 H 0.66712 0.9119 0.01715 0.0
C634 C 0.70767 0.93595 0.97086 0.0
C635 C 0.72657 0.95045 0.94546 0.0
C636 C 0.67771 0.94859 0.97965 0.0
C637 C 0.71565 0.97935 0.93058 0.0
C638 C 0.68567 0.99191 0.93902 0.0
C639 C 0.63407 0.98598 0.96881 0.0
C640 C 0.61394 0.96799 0.99091 0.0
C641 C 0.66597 0.97615 0.96287 0.0
C642 C 0.62697 0.94238 0.00922 0.0
C643 C 0.65847 0.93282 0.00374 0.0
H644 H 0.78146 0.03748 0.4413 0.0
H645 H 0.81733 0.13881 0.47244 0.0
H646 H 0.87016 0.11832 0.48885 0.0
H647 H 0.90808 0.07197 0.48799 0.0
H648 H 0.87155 0.97201 0.45242 0.0
H649 H 0.81717 0.99147 0.44408 0.0
C650 C 0.80082 0.05512 0.45172 0.0
C651 C 0.79573 0.08964 0.45505 0.0
C652 C 0.83112 0.04334 0.46016 0.0
C653 C 0.82071 0.11207 0.46952 0.0
C654 C 0.85096 0.10039 0.47871 0.0
C655 C 0.88795 0.05449 0.47912 0.0
C656 C 0.89365 0.0207 0.47068 0.0
C657 C 0.85675 0.06615 0.4733 0.0
C658 C 0.86762 -0.0018 0.45885 0.0
C659 C 0.83658 0.00929 0.45402 0.0
H660 H 0.19997 0.5945 0.10459 0.0
H661 H 0.23065 0.55199 0.00956 0.0
H662 H 0.1734 0.53799 0.99182 0.0
H663 H 0.11497 0.53221 0.00676 0.0
H664 H 0.08603 0.57429 0.10286 0.0
H665 H 0.14215 0.59493 0.11656 0.0
C666 C 0.19402 0.58223 0.07996 0.0
C667 C 0.21914 0.57341 0.05868 0.0
C668 C 0.16141 0.5745 0.07011 0.0
C669 C 0.21144 0.55846 0.02645 0.0
C670 C 0.17882 0.55055 0.01636 0.0
C671 C 0.12096 0.54685 0.03013 0.0
C672 C 0.09667 0.55169 0.05387 0.0
C673 C 0.15359 0.55776 0.03834 0.0
C674 C 0.10453 0.57028 0.08432 0.0
C675 C 0.13659 0.58183 0.09229 0.0
H676 H 0.28608 0.4282 0.59367 0.0
H677 H 0.26032 0.48164 0.50607 0.0
H678 H 0.31836 0.49248 0.4939 0.0
H679 H 0.37647 0.49016 0.51114 0.0
H680 H 0.40103 0.43746 0.59985 0.0
H681 H 0.34341 0.42211 0.60825 0.0
C682 C 0.29328 0.44212 0.57186 0.0
C683 C 0.26929 0.45453 0.551 0.0
C684 C 0.3264 0.44806 0.56512 0.0
C685 C 0.2786 0.47201 0.52247 0.0
C686 C 0.31168 0.47817 0.51557 0.0
C687 C 0.36915 0.47462 0.53177 0.0
C688 C 0.39285 0.46493 0.55488 0.0
C689 C 0.33583 0.46667 0.53701 0.0
C690 C 0.38314 0.44525 0.58183 0.0
C691 C 0.35024 0.43663 0.58676 0.0
H692 H 0.97072 0.73479 0.9605 0.0
H693 H 0.87022 0.69548 0.9562 0.0
H694 H 0.88607 0.64241 0.97796 0.0
H695 H 0.92912 0.60496 0.99361 0.0
H696 H 0.02969 0.64349 0.99535 0.0
H697 H 0.01329 0.69883 0.98005 0.0
C698 C 0.95228 0.71465 0.9644 0.0
C699 C 0.91928 0.71931 0.95657 0.0
C700 C 0.9616 0.68395 0.97689 0.0
C701 C 0.89574 0.69291 0.96223 0.0
C702 C 0.90481 0.6624 0.97463 0.0
C703 C 0.94729 0.62585 0.99186 0.0
C704 C 0.98057 0.62026 0.99628 0.0
C705 C 0.93771 0.65741 0.98172 0.0
C706 C 0.00391 0.6473 0.99268 0.0
C707 C 0.99455 0.67886 0.98349 0.0
H708 H 0.40968 0.78402 0.03402 0.0
H709 H 0.42524 0.83126 0.13377 0.0
H710 H 0.44636 0.88363 0.10916 0.0
H711 H 0.46271 0.91454 0.05881 0.0
H712 H 0.44646 0.86523 0.95976 0.0
H713 H 0.42239 0.8152 0.98469 0.0
C714 C 0.41707 0.80599 0.05041 0.0
C715 C 0.41566 0.80407 0.08552 0.0
C716 C 0.42891 0.83558 0.03621 0.0
C717 C 0.42625 0.8323 0.10656 0.0
C718 C 0.43813 0.86218 0.09252 0.0
C719 C 0.45323 0.8931 0.04275 0.0
C720 C 0.45645 0.8935 0.00755 0.0
C721 C 0.43979 0.864 0.05731 0.0
C722 C 0.44437 0.86547 0.98696 0.0
C723 C 0.43071 0.83679 0.00115 0.0
H724 H 0.00251 0.23911 0.53869 0.0
H725 H 0.10647 0.23915 0.52536 0.0
H726 H 0.1019 0.17833 0.51434 0.0
H727 H 0.07 0.12466 0.51692 0.0
H728 H 0.96679 0.12273 0.53326 0.0
H729 H 0.96896 0.18464 0.53337 0.0
C730 C 0.02397 0.22575 0.53275 0.0
C731 C 0.05476 0.24359 0.53282 0.0
C732 C 0.02122 0.19048 0.52669 0.0
C733 C 0.08244 0.22609 0.52502 0.0
C734 C 0.0799 0.19126 0.51887 0.0
C735 C 0.04779 0.13786 0.519 0.0
C736 C 0.01825 0.11953 0.52456 0.0
C737 C 0.04962 0.17316 0.52055 0.0
C738 C 0.98965 0.13655 0.5282 0.0
C739 C 0.99105 0.17189 0.52887 0.0
H740 H 0.57575 0.29042 0.49795 0.0
H741 H 0.53094 0.26889 0.3989 0.0
H742 H 0.50172 0.31965 0.40436 0.0
H743 H 0.49112 0.37131 0.43478 0.0
H744 H 0.53832 0.39813 0.53155 0.0
H745 H 0.56334 0.34357 0.53011 0.0
C746 C 0.55947 0.29688 0.47772 0.0
C747 C 0.55518 0.27546 0.44827 0.0
C748 C 0.54287 0.32679 0.48075 0.0
C749 C 0.53409 0.28427 0.4222 0.0
C750 C 0.51744 0.31345 0.42518 0.0
C751 C 0.50659 0.36524 0.45589 0.0
C752 C 0.51301 0.3889 0.48312 0.0
C753 C 0.52183 0.33492 0.45412 0.0
C754 C 0.53281 0.3803 0.51034 0.0
C755 C 0.54744 0.3493 0.50928 0.0
loop_
_geom_bond_atom_site_label_1
_geom_bond_atom_site_label_2
_geom_bond_distance
_geom_bond_site_symmetry_2
_ccdc_geom_bond_type
C0 C1 1.384 . S
C0 H13 0.947 . S
C0 C35 1.382 . S
C1 C0 1.384 . S
C1 C2 1.378 . S
C2 C1 1.378 . S
C2 C3 1.378 . S
C2 H14 0.952 . S
C3 C2 1.378 . S
C3 H15 0.950 . S
C3 C34 1.383 . S
H4 C23 0.947 . S
H5 C24 0.946 . S
H6 C26 0.953 . S
H7 C27 0.945 . S
H8 C29 0.952 . S
H9 C30 0.949 . S
H10 C32 0.950 . S
H11 C33 0.948 . S
H12 C35 0.951 . S
H13 C0 0.947 . S
H14 C2 0.952 . S
H15 C3 0.950 . S
N16 C19 1.382 . S
N16 C21 1.363 . S
N17 C19 1.371 . S
N17 C20 1.372 . S
N18 C20 1.361 . S
N18 C21 1.377 . S
C19 N16 1.382 . S
C19 N17 1.371 . S
C19 C22 1.480 . S
C20 N17 1.372 . S
C20 N18 1.361 . S
C20 C28 1.457 . S
C21 N16 1.363 . S
C21 N18 1.377 . S
C21 C34 1.479 . S
C22 C19 1.480 . S
C22 C23 1.383 . S
C22 C27 1.385 . S
C23 H4 0.947 . S
C23 C22 1.383 . S
C23 C24 1.388 . S
C24 H5 0.946 . S
C24 C23 1.388 . S
C24 C25 1.384 . S
C25 C24 1.384 . S
C25 C26 1.377 . S
C26 H6 0.953 . S
C26 C25 1.377 . S
C26 C27 1.369 . S
C27 H7 0.945 . S
C27 C22 1.385 . S
C27 C26 1.369 . S
C28 C20 1.457 . S
C28 C29 1.372 . S
C28 C33 1.364 . S
C29 H8 0.952 . S
C29 C28 1.372 . S
C29 C30 1.389 . S
C30 H9 0.949 . S
C30 C29 1.389 . S
C30 C31 1.387 . S
C31 C30 1.387 . S
C31 C32 1.372 . S
C32 H10 0.950 . S
C32 C31 1.372 . S
C32 C33 1.379 . S
C33 H11 0.948 . S
C33 C28 1.364 . S
C33 C32 1.379 . S
C34 C3 1.383 . S
C34 C21 1.479 . S
C34 C35 1.398 . S
C35 C0 1.382 . S
C35 H12 0.951 . S
C35 C34 1.398 . S
C36 C37 1.384 . S
C36 H49 0.947 . S
C36 C71 1.382 . S
C37 C36 1.384 . S
C37 C38 1.378 . S
C38 C37 1.378 . S
C38 C39 1.378 . S
C38 H50 0.952 . S
C39 C38 1.378 . S
C39 H51 0.950 . S
C39 C70 1.383 . S
H40 C59 0.947 . S
H41 C60 0.946 . S
H42 C62 0.953 . S
H43 C63 0.945 . S
H44 C65 0.952 . S
H45 C66 0.949 . S
H46 C68 0.950 . S
H47 C69 0.948 . S
H48 C71 0.951 . S
H49 C36 0.947 . S
H50 C38 0.952 . S
H51 C39 0.950 . S
N52 C55 1.382 . S
N52 C57 1.363 . S
N53 C55 1.371 . S
N53 C56 1.372 . S
N54 C56 1.361 . S
N54 C57 1.377 . S
C55 N52 1.382 . S
C55 N53 1.371 . S
C55 C58 1.480 . S
C56 N53 1.372 . S
C56 N54 1.361 . S
C56 C64 1.457 . S
C57 N52 1.363 . S
C57 N54 1.377 . S
C57 C70 1.479 . S
C58 C55 1.480 . S
C58 C59 1.383 . S
C58 C63 1.385 . S
C59 H40 0.947 . S
C59 C58 1.383 . S
C59 C60 1.388 . S
C60 H41 0.946 . S
C60 C59 1.388 . S
C60 C61 1.384 . S
C61 C60 1.384 . S
C61 C62 1.377 . S
C62 H42 0.953 . S
C62 C61 1.377 . S
C62 C63 1.369 . S
C63 H43 0.945 . S
C63 C58 1.385 . S
C63 C62 1.369 . S
C64 C56 1.457 . S
C64 C65 1.372 . S
C64 C69 1.364 . S
C65 H44 0.952 . S
C65 C64 1.372 . S
C65 C66 1.389 . S
C66 H45 0.949 . S
C66 C65 1.389 . S
C66 C67 1.387 . S
C67 C66 1.387 . S
C67 C68 1.372 . S
C68 H46 0.950 . S
C68 C67 1.372 . S
C68 C69 1.379 . S
C69 H47 0.948 . S
C69 C64 1.364 . S
C69 C68 1.379 . S
C70 C39 1.383 . S
C70 C57 1.479 . S
C70 C71 1.398 . S
C71 C36 1.382 . S
C71 H48 0.951 . S
C71 C70 1.398 . S
C72 C73 1.384 . S
C72 H85 0.947 . S
C72 C107 1.382 . S
C73 C72 1.384 . S
C73 C74 1.378 . S
C74 C73 1.378 . S
C74 C75 1.378 . S
C74 H86 0.952 . S
C75 C74 1.378 . S
C75 H87 0.950 . S
C75 C106 1.383 . S
H76 C95 0.947 . S
H77 C96 0.946 . S
H78 C98 0.953 . S
H79 C99 0.945 . S
H80 C101 0.952 . S
H81 C102 0.949 . S
H82 C104 0.950 . S
H83 C105 0.948 . S
H84 C107 0.951 . S
H85 C72 0.947 . S
H86 C74 0.952 . S
H87 C75 0.950 . S
N88 C91 1.382 . S
N88 C93 1.363 . S
N89 C91 1.371 . S
N89 C92 1.372 . S
N90 C92 1.361 . S
N90 C93 1.377 . S
C91 N88 1.382 . S
C91 N89 1.371 . S
C91 C94 1.480 . S
C92 N89 1.372 . S
C92 N90 1.361 . S
C92 C100 1.457 . S
C93 N88 1.363 . S
C93 N90 1.377 . S
C93 C106 1.479 . S
C94 C91 1.480 . S
C94 C95 1.383 . S
C94 C99 1.385 . S
C95 H76 0.947 . S
C95 C94 1.383 . S
C95 C96 1.388 . S
C96 H77 0.946 . S
C96 C95 1.388 . S
C96 C97 1.384 . S
C97 C96 1.384 . S
C97 C98 1.377 . S
C98 H78 0.953 . S
C98 C97 1.377 . S
C98 C99 1.369 . S
C99 H79 0.945 . S
C99 C94 1.385 . S
C99 C98 1.369 . S
C100 C92 1.457 . S
C100 C101 1.372 . S
C100 C105 1.364 . S
C101 H80 0.952 . S
C101 C100 1.372 . S
C101 C102 1.389 . S
C102 H81 0.949 . S
C102 C101 1.389 . S
C102 C103 1.387 . S
C103 C102 1.387 . S
C103 C104 1.372 . S
C104 H82 0.950 . S
C104 C103 1.372 . S
C104 C105 1.379 . S
C105 H83 0.948 . S
C105 C100 1.364 . S
C105 C104 1.379 . S
C106 C75 1.383 . S
C106 C93 1.479 . S
C106 C107 1.398 . S
C107 C72 1.382 . S
C107 H84 0.951 . S
C107 C106 1.398 . S
C108 C109 1.384 . S
C108 H121 0.947 . S
C108 C143 1.382 . S
C109 C108 1.384 . S
C109 C110 1.378 . S
C110 C109 1.378 . S
C110 C111 1.378 . S
C110 H122 0.952 . S
C111 C110 1.378 . S
C111 H123 0.950 . S
C111 C142 1.383 . S
H112 C131 0.947 . S
H113 C132 0.946 . S
H114 C134 0.953 . S
H115 C135 0.945 . S
H116 C137 0.952 . S
H117 C138 0.949 . S
H118 C140 0.950 . S
H119 C141 0.948 . S
H120 C143 0.951 . S
H121 C108 0.947 . S
H122 C110 0.952 . S
H123 C111 0.950 . S
N124 C127 1.382 . S
N124 C129 1.363 . S
N125 C127 1.371 . S
N125 C128 1.372 . S
N126 C128 1.361 . S
N126 C129 1.377 . S
C127 N124 1.382 . S
C127 N125 1.371 . S
C127 C130 1.480 . S
C128 N125 1.372 . S
C128 N126 1.361 . S
C128 C136 1.457 . S
C129 N124 1.363 . S
C129 N126 1.377 . S
C129 C142 1.479 . S
C130 C127 1.480 . S
C130 C131 1.383 . S
C130 C135 1.385 . S
C131 H112 0.947 . S
C131 C130 1.383 . S
C131 C132 1.388 . S
C132 H113 0.946 . S
C132 C131 1.388 . S
C132 C133 1.384 . S
C133 C132 1.384 . S
C133 C134 1.377 . S
C134 H114 0.953 . S
C134 C133 1.377 . S
C134 C135 1.369 . S
C135 H115 0.945 . S
C135 C130 1.385 . S
C135 C134 1.369 . S
C136 C128 1.457 . S
C136 C137 1.372 . S
C136 C141 1.364 . S
C137 H116 0.952 . S
C137 C136 1.372 . S
C137 C138 1.389 . S
C138 H117 0.949 . S
C138 C137 1.389 . S
C138 C139 1.387 . S
C139 C138 1.387 . S
C139 C140 1.372 . S
C140 H118 0.950 . S
C140 C139 1.372 . S
C140 C141 1.379 . S
C141 H119 0.948 . S
C141 C136 1.364 . S
C141 C140 1.379 . S
C142 C111 1.383 . S
C142 C129 1.479 . S
C142 C143 1.398 . S
C143 C108 1.382 . S
C143 H120 0.951 . S
C143 C142 1.398 . S
C144 C145 1.384 . S
C144 H157 0.947 . S
C144 C179 1.382 . S
C145 C144 1.384 . S
C145 C146 1.378 . S
C146 C145 1.378 . S
C146 C147 1.378 . S
C146 H158 0.952 . S
C147 C146 1.378 . S
C147 H159 0.950 . S
C147 C178 1.383 . S
H148 C167 0.947 . S
H149 C168 0.946 . S
H150 C170 0.953 . S
H151 C171 0.945 . S
H152 C173 0.952 . S
H153 C174 0.949 . S
H154 C176 0.950 . S
H155 C177 0.948 . S
H156 C179 0.951 . S
H157 C144 0.947 . S
H158 C146 0.952 . S
H159 C147 0.950 . S
N160 C163 1.382 . S
N160 C165 1.363 . S
N161 C163 1.371 . S
N161 C164 1.372 . S
N162 C164 1.361 . S
N162 C165 1.377 . S
C163 N160 1.382 . S
C163 N161 1.371 . S
C163 C166 1.480 . S
C164 N161 1.372 . S
C164 N162 1.361 . S
C164 C172 1.457 . S
C165 N160 1.363 . S
C165 N162 1.377 . S
C165 C178 1.479 . S
C166 C163 1.480 . S
C166 C167 1.383 . S
C166 C171 1.385 . S
C167 H148 0.947 . S
C167 C166 1.383 . S
C167 C168 1.388 . S
C168 H149 0.946 . S
C168 C167 1.388 . S
C168 C169 1.384 . S
C169 C168 1.384 . S
C169 C170 1.377 . S
C170 H150 0.953 . S
C170 C169 1.377 . S
C170 C171 1.369 . S
C171 H151 0.945 . S
C171 C166 1.385 . S
C171 C170 1.369 . S
C172 C164 1.457 . S
C172 C173 1.372 . S
C172 C177 1.364 . S
C173 H152 0.952 . S
C173 C172 1.372 . S
C173 C174 1.389 . S
C174 H153 0.949 . S
C174 C173 1.389 . S
C174 C175 1.387 . S
C175 C174 1.387 . S
C175 C176 1.372 . S
C176 H154 0.950 . S
C176 C175 1.372 . S
C176 C177 1.379 . S
C177 H155 0.948 . S
C177 C172 1.364 . S
C177 C176 1.379 . S
C178 C147 1.383 . S
C178 C165 1.479 . S
C178 C179 1.398 . S
C179 C144 1.382 . S
C179 H156 0.951 . S
C179 C178 1.398 . S
C180 C181 1.384 . S
C180 H193 0.947 . S
C180 C215 1.382 . S
C181 C180 1.384 . S
C181 C182 1.378 . S
C182 C181 1.378 . S
C182 C183 1.378 . S
C182 H194 0.952 . S
C183 C182 1.378 . S
C183 H195 0.950 . S
C183 C214 1.383 . S
H184 C203 0.947 . S
H185 C204 0.946 . S
H186 C206 0.953 . S
H187 C207 0.945 . S
H188 C209 0.952 . S
H189 C210 0.949 . S
H190 C212 0.950 . S
H191 C213 0.948 . S
H192 C215 0.951 . S
H193 C180 0.947 . S
H194 C182 0.952 . S
H195 C183 0.950 . S
N196 C199 1.382 . S
N196 C201 1.363 . S
N197 C199 1.371 . S
N197 C200 1.372 . S
N198 C200 1.361 . S
N198 C201 1.377 . S
C199 N196 1.382 . S
C199 N197 1.371 . S
C199 C202 1.480 . S
C200 N197 1.372 . S
C200 N198 1.361 . S
C200 C208 1.457 . S
C201 N196 1.363 . S
C201 N198 1.377 . S
C201 C214 1.479 . S
C202 C199 1.480 . S
C202 C203 1.383 . S
C202 C207 1.385 . S
C203 H184 0.947 . S
C203 C202 1.383 . S
C203 C204 1.388 . S
C204 H185 0.946 . S
C204 C203 1.388 . S
C204 C205 1.384 . S
C205 C204 1.384 . S
C205 C206 1.377 . S
C206 H186 0.953 . S
C206 C205 1.377 . S
C206 C207 1.369 . S
C207 H187 0.945 . S
C207 C202 1.385 . S
C207 C206 1.369 . S
C208 C200 1.457 . S
C208 C209 1.372 . S
C208 C213 1.364 . S
C209 H188 0.952 . S
C209 C208 1.372 . S
C209 C210 1.389 . S
C210 H189 0.949 . S
C210 C209 1.389 . S
C210 C211 1.387 . S
C211 C210 1.387 . S
C211 C212 1.372 . S
C212 H190 0.950 . S
C212 C211 1.372 . S
C212 C213 1.379 . S
C213 H191 0.948 . S
C213 C208 1.364 . S
C213 C212 1.379 . S
C214 C183 1.383 . S
C214 C201 1.479 . S
C214 C215 1.398 . S
C215 C180 1.382 . S
C215 H192 0.951 . S
C215 C214 1.398 . S
C216 C217 1.384 . S
C216 H229 0.947 . S
C216 C251 1.382 . S
C217 C216 1.384 . S
C217 C218 1.378 . S
C218 C217 1.378 . S
C218 C219 1.378 . S
C218 H230 0.952 . S
C219 C218 1.378 . S
C219 H231 0.950 . S
C219 C250 1.383 . S
H220 C239 0.947 . S
H221 C240 0.946 . S
H222 C242 0.953 . S
H223 C243 0.945 . S
H224 C245 0.952 . S
H225 C246 0.949 . S
H226 C248 0.950 . S
H227 C249 0.948 . S
H228 C251 0.951 . S
H229 C216 0.947 . S
H230 C218 0.952 . S
H231 C219 0.950 . S
N232 C235 1.382 . S
N232 C237 1.363 . S
N233 C235 1.371 . S
N233 C236 1.372 . S
N234 C236 1.361 . S
N234 C237 1.377 . S
C235 N232 1.382 . S
C235 N233 1.371 . S
C235 C238 1.480 . S
C236 N233 1.372 . S
C236 N234 1.361 . S
C236 C244 1.457 . S
C237 N232 1.363 . S
C237 N234 1.377 . S
C237 C250 1.479 . S
C238 C235 1.480 . S
C238 C239 1.383 . S
C238 C243 1.385 . S
C239 H220 0.947 . S
C239 C238 1.383 . S
C239 C240 1.388 . S
C240 H221 0.946 . S
C240 C239 1.388 . S
C240 C241 1.384 . S
C241 C240 1.384 . S
C241 C242 1.377 . S
C242 H222 0.953 . S
C242 C241 1.377 . S
C242 C243 1.369 . S
C243 H223 0.945 . S
C243 C238 1.385 . S
C243 C242 1.369 . S
C244 C236 1.457 . S
C244 C245 1.372 . S
C244 C249 1.364 . S
C245 H224 0.952 . S
C245 C244 1.372 . S
C245 C246 1.389 . S
C246 H225 0.949 . S
C246 C245 1.389 . S
C246 C247 1.387 . S
C247 C246 1.387 . S
C247 C248 1.372 . S
C248 H226 0.950 . S
C248 C247 1.372 . S
C248 C249 1.379 . S
C249 H227 0.948 . S
C249 C244 1.364 . S
C249 C248 1.379 . S
C250 C219 1.383 . S
C250 C237 1.479 . S
C250 C251 1.398 . S
C251 C216 1.382 . S
C251 H228 0.951 . S
C251 C250 1.398 . S
C252 C253 1.384 . S
C252 H265 0.947 . S
C252 C287 1.382 . S
C253 C252 1.384 . S
C253 C254 1.378 . S
C254 C253 1.378 . S
C254 C255 1.378 . S
C254 H266 0.952 . S
C255 C254 1.378 . S
C255 H267 0.950 . S
C255 C286 1.383 . S
H256 C275 0.947 . S
H257 C276 0.946 . S
H258 C278 0.953 . S
H259 C279 0.945 . S
H260 C281 0.952 . S
H261 C282 0.949 . S
H262 C284 0.950 . S
H263 C285 0.948 . S
H264 C287 0.951 . S
H265 C252 0.947 . S
H266 C254 0.952 . S
H267 C255 0.950 . S
N268 C271 1.382 . S
N268 C273 1.363 . S
N269 C271 1.371 . S
N269 C272 1.372 . S
N270 C272 1.361 . S
N270 C273 1.377 . S
C271 N268 1.382 . S
C271 N269 1.371 . S
C271 C274 1.480 . S
C272 N269 1.372 . S
C272 N270 1.361 . S
C272 C280 1.457 . S
C273 N268 1.363 . S
C273 N270 1.377 . S
C273 C286 1.479 . S
C274 C271 1.480 . S
C274 C275 1.383 . S
C274 C279 1.385 . S
C275 H256 0.947 . S
C275 C274 1.383 . S
C275 C276 1.388 . S
C276 H257 0.946 . S
C276 C275 1.388 . S
C276 C277 1.384 . S
C277 C276 1.384 . S
C277 C278 1.377 . S
C278 H258 0.953 . S
C278 C277 1.377 . S
C278 C279 1.369 . S
C279 H259 0.945 . S
C279 C274 1.385 . S
C279 C278 1.369 . S
C280 C272 1.457 . S
C280 C281 1.372 . S
C280 C285 1.364 . S
C281 H260 0.952 . S
C281 C280 1.372 . S
C281 C282 1.389 . S
C282 H261 0.949 . S
C282 C281 1.389 . S
C282 C283 1.387 . S
C283 C282 1.387 . S
C283 C284 1.372 . S
C284 H262 0.950 . S
C284 C283 1.372 . S
C284 C285 1.379 . S
C285 H263 0.948 . S
C285 C280 1.364 . S
C285 C284 1.379 . S
C286 C255 1.383 . S
C286 C273 1.479 . S
C286 C287 1.398 . S
C287 C252 1.382 . S
C287 H264 0.951 . S
C287 C286 1.398 . S
O288 Mg289 1.990 . S
O288 C302 1.253 1_445 S
Mg289 O288 1.990 . S
Mg289 O292 2.180 . S
Mg289 O293 2.117 . S
Mg289 O307 2.030 1_545 S
O290 Mg291 2.072 1_665 S
O290 C302 1.260 . S
Mg291 O290 2.072 1_445 S
Mg291 O292 2.099 . S
Mg291 O294 2.079 . S
Mg291 O295 2.072 1_455 S
Mg291 O297 2.099 1_445 S
Mg291 O308 2.079 1_545 S
O292 Mg289 2.180 . S
O292 Mg291 2.099 . S
O292 C303 1.279 . S
O293 Mg289 2.117 . S
O293 C303 1.250 . S
O294 Mg291 2.079 . S
O294 C304 1.264 . S
O295 Mg291 2.072 1_655 S
O295 C305 1.260 . S
Mg296 O297 2.180 . S
Mg296 O298 2.030 1_565 S
Mg296 O299 1.990 1_565 S
Mg296 O300 2.117 . S
O297 Mg291 2.099 1_665 S
O297 Mg296 2.180 . S
O297 C306 1.279 . S
O298 Mg296 2.030 1_545 S
O298 C304 1.248 1_655 S
O299 Mg296 1.990 1_545 S
O299 C305 1.253 . S
O300 Mg296 2.117 . S
O300 C306 1.250 . S
C301 O307 1.248 . S
C301 O308 1.264 . S
C302 O288 1.253 1_665 S
C302 O290 1.260 . S
C303 O292 1.279 . S
C303 O293 1.250 . S
C304 O294 1.264 . S
C304 O298 1.248 1_455 S
C305 O295 1.260 . S
C305 O299 1.253 . S
C306 O297 1.279 . S
C306 O300 1.250 . S
O307 Mg289 2.030 1_565 S
O307 C301 1.248 . S
O308 Mg291 2.079 1_565 S
O308 C301 1.264 . S
O309 Mg310 1.990 . S
O309 C323 1.253 . S
Mg310 O309 1.990 . S
Mg310 O313 2.159 1_554 S
Mg310 O314 2.117 1_554 S
Mg310 O328 2.030 . S
O311 Mg312 2.072 . S
O311 C323 1.260 . S
Mg312 O311 2.072 . S
Mg312 O313 2.093 1_554 S
Mg312 O315 2.089 1_554 S
Mg312 O316 2.072 1_554 S
Mg312 O318 2.099 1_545 S
Mg312 O329 2.079 . S
O313 Mg310 2.159 1_556 S
O313 Mg312 2.093 1_556 S
O313 C324 1.301 . S
O314 Mg310 2.117 1_556 S
O314 C324 1.250 . S
O315 Mg312 2.089 1_556 S
O315 C325 1.241 1_545 S
O316 Mg312 2.072 1_556 S
O316 C326 1.260 1_545 S
Mg317 O318 2.180 1_556 S
Mg317 O319 2.030 . S
Mg317 O320 1.990 . S
Mg317 O321 2.117 1_556 S
O318 Mg312 2.099 1_565 S
O318 Mg317 2.180 1_554 S
O318 C327 1.279 . S
O319 Mg317 2.030 . S
O319 C325 1.248 . S
O320 Mg317 1.990 . S
O320 C326 1.253 . S
O321 Mg317 2.117 1_554 S
O321 C327 1.250 . S
C322 O328 1.248 . S
C322 O329 1.264 . S
C323 O309 1.253 . S
C323 O311 1.260 . S
C324 O313 1.301 . S
C324 O314 1.250 . S
C325 O315 1.241 1_565 S
C325 O319 1.248 . S
C326 O316 1.260 1_565 S
C326 O320 1.253 . S
C327 O318 1.279 . S
C327 O321 1.250 . S
O328 Mg310 2.030 . S
O328 C322 1.248 . S
O329 Mg312 2.079 . S
O329 C322 1.264 . S
O330 Mg331 1.990 . S
O330 C344 1.253 . S
Mg331 O330 1.990 . S
Mg331 O334 2.180 . S
Mg331 O335 2.117 . S
Mg331 O349 2.030 . S
O332 Mg333 2.072 . S
O332 C344 1.260 . S
Mg333 O332 2.072 . S
Mg333 O334 2.099 . S
Mg333 O336 2.079 . S
Mg333 O337 2.072 . S
Mg333 O339 2.099 . S
Mg333 O350 2.079 . S
O334 Mg331 2.180 . S
O334 Mg333 2.099 . S
O334 C345 1.279 . S
O335 Mg331 2.117 . S
O335 C345 1.250 . S
O336 Mg333 2.079 . S
O336 C346 1.264 . S
O337 Mg333 2.072 . S
O337 C347 1.260 . S
Mg338 O339 2.180 . S
Mg338 O340 2.030 . S
Mg338 O341 1.990 . S
Mg338 O342 2.117 . S
O339 Mg333 2.099 . S
O339 Mg338 2.180 . S
O339 C348 1.279 . S
O340 Mg338 2.030 . S
O340 C346 1.248 . S
O341 Mg338 1.990 . S
O341 C347 1.253 . S
O342 Mg338 2.117 . S
O342 C348 1.250 . S
C343 O349 1.248 . S
C343 O350 1.264 . S
C344 O330 1.253 . S
C344 O332 1.260 . S
C345 O334 1.279 . S
C345 O335 1.250 . S
C346 O336 1.264 . S
C346 O340 1.248 . S
C347 O337 1.260 . S
C347 O341 1.253 . S
C348 O339 1.279 . S
C348 O342 1.250 . S
O349 Mg331 2.030 . S
O349 C343 1.248 . S
O350 Mg333 2.079 . S
O350 C343 1.264 . S
O351 Mg352 1.990 . S
O351 C365 1.253 . S
Mg352 O351 1.990 . S
Mg352 O355 2.180 1_455 S
Mg352 O356 2.117 1_455 S
Mg352 O370 2.030 . S
O353 Mg354 2.072 . S
O353 C365 1.260 . S
Mg354 O353 2.072 . S
Mg354 O355 2.099 1_455 S
Mg354 O357 2.079 1_454 S
Mg354 O358 2.072 1_455 S
Mg354 O360 2.099 1_554 S
Mg354 O371 2.079 . S
O355 Mg352 2.180 1_655 S
O355 Mg354 2.099 1_655 S
O355 C366 1.279 . S
O356 Mg352 2.117 1_655 S
O356 C366 1.250 . S
O357 Mg354 2.079 1_656 S
O357 C367 1.264 . S
O358 Mg354 2.072 1_655 S
O358 C368 1.260 1_554 S
Mg359 O360 2.180 1_655 S
Mg359 O361 2.030 . S
Mg359 O362 1.990 . S
Mg359 O363 2.117 . S
O360 Mg354 2.099 1_556 S
O360 Mg359 2.180 1_455 S
O360 C369 1.279 . S
O361 Mg359 2.030 . S
O361 C367 1.248 . S
O362 Mg359 1.990 . S
O362 C368 1.253 . S
O363 Mg359 2.117 . S
O363 C369 1.250 1_655 S
C364 O370 1.248 . S
C364 O371 1.264 . S
C365 O351 1.253 . S
C365 O353 1.260 . S
C366 O355 1.279 . S
C366 O356 1.250 . S
C367 O357 1.264 . S
C367 O361 1.248 . S
C368 O358 1.260 1_556 S
C368 O362 1.253 . S
C369 O360 1.279 . S
C369 O363 1.250 1_455 S
O370 Mg352 2.030 . S
O370 C364 1.248 . S
O371 Mg354 2.079 . S
O371 C364 1.264 . S
H372 C378 0.930 . S
H373 C381 0.930 . S
H374 C382 0.930 . S
H375 C383 0.930 . S
H376 C386 0.930 . S
H377 C387 0.930 . S
C378 H372 0.930 . S
C378 C379 1.355 . S
C378 C380 1.415 . S
C379 C378 1.355 . S
C379 C381 1.419 . S
C380 C378 1.415 . S
C380 C385 1.425 . S
C380 C387 1.409 . S
C381 H373 0.930 . S
C381 C379 1.419 . S
C381 C382 1.362 . S
C382 H374 0.930 . S
C382 C381 1.362 . S
C382 C385 1.409 . S
C383 H375 0.930 . S
C383 C384 1.355 . S
C383 C385 1.415 . S
C384 C383 1.355 . S
C384 C386 1.419 . S
C385 C380 1.425 . S
C385 C382 1.409 . S
C385 C383 1.415 . S
C386 H376 0.930 . S
C386 C384 1.419 . S
C386 C387 1.362 . S
C387 H377 0.930 . S
C387 C380 1.409 . S
C387 C386 1.362 . S
H388 C394 0.930 . S
H389 C397 0.930 . S
H390 C398 0.930 . S
H391 C399 0.930 . S
H392 C402 0.930 . S
H393 C403 0.930 . S
C394 H388 0.930 . S
C394 C395 1.355 . S
C394 C396 1.415 . S
C395 C394 1.355 . S
C395 C397 1.419 . S
C396 C394 1.415 . S
C396 C401 1.425 . S
C396 C403 1.409 . S
C397 H389 0.930 . S
C397 C395 1.419 . S
C397 C398 1.362 . S
C398 H390 0.930 . S
C398 C397 1.362 . S
C398 C401 1.409 . S
C399 H391 0.930 . S
C399 C400 1.355 . S
C399 C401 1.415 . S
C400 C399 1.355 . S
C400 C402 1.419 . S
C401 C396 1.425 . S
C401 C398 1.409 . S
C401 C399 1.415 . S
C402 H392 0.930 . S
C402 C400 1.419 . S
C402 C403 1.362 . S
C403 H393 0.930 . S
C403 C396 1.409 . S
C403 C402 1.362 . S
H404 C410 0.930 . S
H405 C413 0.930 . S
H406 C414 0.930 . S
H407 C415 0.930 . S
H408 C418 0.930 . S
H409 C419 0.930 . S
C410 H404 0.930 . S
C410 C411 1.355 . S
C410 C412 1.415 . S
C411 C410 1.355 . S
C411 C413 1.419 . S
C412 C410 1.415 . S
C412 C417 1.425 . S
C412 C419 1.409 . S
C413 H405 0.930 . S
C413 C411 1.419 . S
C413 C414 1.362 . S
C414 H406 0.930 . S
C414 C413 1.362 . S
C414 C417 1.409 . S
C415 H407 0.930 . S
C415 C416 1.355 . S
C415 C417 1.415 . S
C416 C415 1.355 . S
C416 C418 1.419 . S
C417 C412 1.425 . S
C417 C414 1.409 . S
C417 C415 1.415 . S
C418 H408 0.930 . S
C418 C416 1.419 . S
C418 C419 1.362 . S
C419 H409 0.930 . S
C419 C412 1.409 . S
C419 C418 1.362 . S
H420 C426 0.930 . S
H421 C429 0.930 . S
H422 C430 0.930 1_455 S
H423 C431 0.930 . S
H424 C434 0.930 . S
H425 C435 0.930 . S
C426 H420 0.930 . S
C426 C427 1.355 . S
C426 C428 1.415 . S
C427 C426 1.355 . S
C427 C429 1.419 . S
C428 C426 1.415 . S
C428 C433 1.425 . S
C428 C435 1.409 . S
C429 H421 0.930 . S
C429 C427 1.419 . S
C429 C430 1.362 . S
C430 H422 0.930 1_655 S
C430 C429 1.362 . S
C430 C433 1.409 . S
C431 H423 0.930 . S
C431 C432 1.355 . S
C431 C433 1.415 . S
C432 C431 1.355 . S
C432 C434 1.419 . S
C433 C428 1.425 . S
C433 C430 1.409 . S
C433 C431 1.415 . S
C434 H424 0.930 . S
C434 C432 1.419 . S
C434 C435 1.362 . S
C435 H425 0.930 . S
C435 C428 1.409 . S
C435 C434 1.362 . S
H436 C442 0.930 . S
H437 C445 0.930 . S
H438 C446 0.930 . S
H439 C447 0.930 . S
H440 C450 0.930 1_565 S
H441 C451 0.936 . S
C442 H436 0.930 . S
C442 C443 1.355 . S
C442 C444 1.415 . S
C443 C442 1.355 . S
C443 C445 1.419 . S
C444 C442 1.415 . S
C444 C449 1.425 . S
C444 C451 1.409 . S
C445 H437 0.930 . S
C445 C443 1.419 . S
C445 C446 1.362 . S
C446 H438 0.930 . S
C446 C445 1.362 . S
C446 C449 1.409 . S
C447 H439 0.930 . S
C447 C448 1.355 . S
C447 C449 1.415 . S
C448 C447 1.355 . S
C448 C450 1.419 . S
C449 C444 1.425 . S
C449 C446 1.409 . S
C449 C447 1.415 . S
C450 H440 0.930 1_545 S
C450 C448 1.419 . S
C450 C451 1.362 . S
C451 H441 0.936 . S
C451 C444 1.409 . S
C451 C450 1.362 . S
H452 C458 0.930 . S
H453 C461 0.930 . S
H454 C462 0.930 . S
H455 C463 0.930 . S
H456 C466 0.930 1_545 S
H457 C467 0.930 1_545 S
C458 H452 0.930 . S
C458 C459 1.355 . S
C458 C460 1.415 . S
C459 C458 1.355 . S
C459 C461 1.419 . S
C460 C458 1.415 . S
C460 C465 1.425 . S
C460 C467 1.409 . S
C461 H453 0.930 . S
C461 C459 1.419 . S
C461 C462 1.362 . S
C462 H454 0.930 . S
C462 C461 1.362 . S
C462 C465 1.409 . S
C463 H455 0.930 . S
C463 C464 1.355 . S
C463 C465 1.415 . S
C464 C463 1.355 . S
C464 C466 1.419 . S
C465 C460 1.425 . S
C465 C462 1.409 . S
C465 C463 1.415 . S
C466 H456 0.930 1_565 S
C466 C464 1.419 . S
C466 C467 1.362 . S
C467 H457 0.930 1_565 S
C467 C460 1.409 . S
C467 C466 1.362 . S
H468 C474 0.930 . S
H469 C477 0.930 . S
H470 C478 0.930 1_554 S
H471 C479 0.930 1_554 S
H472 C482 0.930 . S
H473 C483 0.930 . S
C474 H468 0.930 . S
C474 C475 1.355 . S
C474 C476 1.415 . S
C475 C474 1.355 . S
C475 C477 1.419 . S
C476 C474 1.415 . S
C476 C481 1.425 . S
C476 C483 1.409 . S
C477 H469 0.930 . S
C477 C475 1.419 . S
C477 C478 1.362 . S
C478 H470 0.930 1_556 S
C478 C477 1.362 . S
C478 C481 1.409 . S
C479 H471 0.930 1_556 S
C479 C480 1.355 . S
C479 C481 1.415 . S
C480 C479 1.355 . S
C480 C482 1.419 . S
C481 C476 1.425 . S
C481 C478 1.409 . S
C481 C479 1.415 . S
C482 H472 0.930 . S
C482 C480 1.419 . S
C482 C483 1.362 . S
C483 H473 0.930 . S
C483 C476 1.409 . S
C483 C482 1.362 . S
H484 C490 0.930 . S
H485 C493 0.930 . S
H486 C494 0.930 . S
H487 C495 0.930 . S
H488 C498 0.930 . S
H489 C499 0.930 . S
C490 H484 0.930 . S
C490 C491 1.355 . S
C490 C492 1.415 . S
C491 C490 1.355 . S
C491 C493 1.419 . S
C492 C490 1.415 . S
C492 C497 1.425 . S
C492 C499 1.409 . S
C493 H485 0.930 . S
C493 C491 1.419 . S
C493 C494 1.362 . S
C494 H486 0.930 . S
C494 C493 1.362 . S
C494 C497 1.409 . S
C495 H487 0.930 . S
C495 C496 1.355 . S
C495 C497 1.415 . S
C496 C495 1.355 . S
C496 C498 1.419 . S
C497 C492 1.425 . S
C497 C494 1.409 . S
C497 C495 1.415 . S
C498 H488 0.930 . S
C498 C496 1.419 . S
C498 C499 1.362 . S
C499 H489 0.930 . S
C499 C492 1.409 . S
C499 C498 1.362 . S
H500 C506 0.930 . S
H501 C509 0.930 . S
H502 C510 0.930 . S
H503 C511 0.930 . S
H504 C514 0.930 1_655 S
H505 C515 0.930 . S
C506 H500 0.930 . S
C506 C507 1.355 . S
C506 C508 1.415 . S
C507 C506 1.355 . S
C507 C509 1.419 . S
C508 C506 1.415 . S
C508 C513 1.425 . S
C508 C515 1.409 . S
C509 H501 0.930 . S
C509 C507 1.419 . S
C509 C510 1.362 . S
C510 H502 0.930 . S
C510 C509 1.362 . S
C510 C513 1.409 . S
C511 H503 0.930 . S
C511 C512 1.355 . S
C511 C513 1.415 . S
C512 C511 1.355 . S
C512 C514 1.419 . S
C513 C508 1.425 . S
C513 C510 1.409 . S
C513 C511 1.415 . S
C514 H504 0.930 1_455 S
C514 C512 1.419 . S
C514 C515 1.362 . S
C515 H505 0.930 . S
C515 C508 1.409 . S
C515 C514 1.362 . S
H516 C522 0.930 . S
H517 C525 0.930 . S
H518 C526 0.930 . S
H519 C527 0.930 . S
H520 C530 0.930 . S
H521 C531 0.930 . S
C522 H516 0.930 . S
C522 C523 1.355 . S
C522 C524 1.415 . S
C523 C522 1.355 . S
C523 C525 1.419 . S
C524 C522 1.415 . S
C524 C529 1.425 . S
C524 C531 1.409 . S
C525 H517 0.930 . S
C525 C523 1.419 . S
C525 C526 1.362 . S
C526 H518 0.930 . S
C526 C525 1.362 . S
C526 C529 1.409 . S
C527 H519 0.930 . S
C527 C528 1.355 . S
C527 C529 1.415 . S
C528 C527 1.355 . S
C528 C530 1.419 . S
C529 C524 1.425 . S
C529 C526 1.409 . S
C529 C527 1.415 . S
C530 H520 0.930 . S
C530 C528 1.419 . S
C530 C531 1.362 . S
C531 H521 0.930 . S
C531 C524 1.409 . S
C531 C530 1.362 . S
H532 C538 0.930 . S
H533 C541 0.930 . S
H534 C542 0.930 . S
H535 C543 0.930 . S
H536 C546 0.927 1_455 S
H537 C547 0.930 1_455 S
C538 H532 0.930 . S
C538 C539 1.355 . S
C538 C540 1.415 . S
C539 C538 1.355 . S
C539 C541 1.419 . S
C540 C538 1.415 . S
C540 C545 1.425 . S
C540 C547 1.409 . S
C541 H533 0.930 . S
C541 C539 1.419 . S
C541 C542 1.362 . S
C542 H534 0.930 . S
C542 C541 1.362 . S
C542 C545 1.409 . S
C543 H535 0.930 . S
C543 C544 1.355 . S
C543 C545 1.415 . S
C544 C543 1.355 . S
C544 C546 1.422 . S
C545 C540 1.425 . S
C545 C542 1.409 . S
C545 C543 1.415 . S
C546 H536 0.927 1_655 S
C546 C544 1.422 . S
C546 C547 1.362 . S
C547 H537 0.930 1_655 S
C547 C540 1.409 . S
C547 C546 1.362 . S
H548 C554 0.930 . S
H549 C557 0.930 . S
H550 C558 0.930 . S
H551 C559 0.930 . S
H552 C562 0.930 . S
H553 C563 0.930 . S
C554 H548 0.930 . S
C554 C555 1.355 . S
C554 C556 1.415 . S
C555 C554 1.355 . S
C555 C557 1.419 . S
C556 C554 1.415 . S
C556 C561 1.425 . S
C556 C563 1.409 . S
C557 H549 0.930 . S
C557 C555 1.419 . S
C557 C558 1.362 . S
C558 H550 0.930 . S
C558 C557 1.362 . S
C558 C561 1.409 . S
C559 H551 0.930 . S
C559 C560 1.355 . S
C559 C561 1.415 . S
C560 C559 1.355 . S
C560 C562 1.419 . S
C561 C556 1.425 . S
C561 C558 1.409 . S
C561 C559 1.415 . S
C562 H552 0.930 . S
C562 C560 1.419 . S
C562 C563 1.362 . S
C563 H553 0.930 . S
C563 C556 1.409 . S
C563 C562 1.362 . S
H564 C570 0.930 . S
H565 C573 0.930 . S
H566 C574 0.930 1_545 S
H567 C575 0.930 1_545 S
H568 C578 0.930 . S
H569 C579 0.930 . S
C570 H564 0.930 . S
C570 C571 1.355 . S
C570 C572 1.415 . S
C571 C570 1.355 . S
C571 C573 1.419 . S
C572 C570 1.415 . S
C572 C577 1.425 . S
C572 C579 1.409 . S
C573 H565 0.930 . S
C573 C571 1.419 . S
C573 C574 1.362 . S
C574 H566 0.930 1_565 S
C574 C573 1.362 . S
C574 C577 1.409 . S
C575 H567 0.930 1_565 S
C575 C576 1.355 . S
C575 C577 1.415 . S
C576 C575 1.355 . S
C576 C578 1.419 . S
C577 C572 1.425 . S
C577 C574 1.409 . S
C577 C575 1.415 . S
C578 H568 0.930 . S
C578 C576 1.419 . S
C578 C579 1.362 . S
C579 H569 0.930 . S
C579 C572 1.409 . S
C579 C578 1.362 . S
H580 C586 0.930 . S
H581 C589 0.930 . S
H582 C590 0.930 . S
H583 C591 0.930 . S
H584 C594 0.930 . S
H585 C595 0.930 . S
C586 H580 0.930 . S
C586 C587 1.355 . S
C586 C588 1.415 . S
C587 C586 1.355 . S
C587 C589 1.419 . S
C588 C586 1.415 . S
C588 C593 1.425 . S
C588 C595 1.409 . S
C589 H581 0.930 . S
C589 C587 1.419 . S
C589 C590 1.362 . S
C590 H582 0.930 . S
C590 C589 1.362 . S
C590 C593 1.409 . S
C591 H583 0.930 . S
C591 C592 1.355 . S
C591 C593 1.415 . S
C592 C591 1.355 . S
C592 C594 1.419 . S
C593 C588 1.425 . S
C593 C590 1.409 . S
C593 C591 1.415 . S
C594 H584 0.930 . S
C594 C592 1.419 . S
C594 C595 1.362 . S
C595 H585 0.930 . S
C595 C588 1.409 . S
C595 C594 1.362 . S
H596 C602 0.930 . S
H597 C605 0.930 . S
H598 C606 0.930 . S
H599 C607 0.930 . S
H600 C610 0.930 . S
H601 C611 0.930 . S
C602 H596 0.930 . S
C602 C603 1.355 . S
C602 C604 1.415 . S
C603 C602 1.355 . S
C603 C605 1.419 . S
C604 C602 1.415 . S
C604 C609 1.425 . S
C604 C611 1.409 . S
C605 H597 0.930 . S
C605 C603 1.419 . S
C605 C606 1.362 . S
C606 H598 0.930 . S
C606 C605 1.362 . S
C606 C609 1.409 . S
C607 H599 0.930 . S
C607 C608 1.355 . S
C607 C609 1.415 . S
C608 C607 1.355 . S
C608 C610 1.419 . S
C609 C604 1.425 . S
C609 C606 1.409 . S
C609 C607 1.415 . S
C610 H600 0.930 . S
C610 C608 1.419 . S
C610 C611 1.362 . S
C611 H601 0.930 . S
C611 C604 1.409 . S
C611 C610 1.362 . S
H612 C618 0.930 . S
H613 C621 0.930 . S
H614 C622 0.930 . S
H615 C623 0.930 . S
H616 C626 0.930 . S
H617 C627 0.930 . S
C618 H612 0.930 . S
C618 C619 1.355 . S
C618 C620 1.415 . S
C619 C618 1.355 . S
C619 C621 1.419 . S
C620 C618 1.415 . S
C620 C625 1.425 . S
C620 C627 1.409 . S
C621 H613 0.930 . S
C621 C619 1.419 . S
C621 C622 1.362 . S
C622 H614 0.930 . S
C622 C621 1.362 . S
C622 C625 1.409 . S
C623 H615 0.930 . S
C623 C624 1.355 . S
C623 C625 1.415 . S
C624 C623 1.355 . S
C624 C626 1.419 . S
C625 C620 1.425 . S
C625 C622 1.409 . S
C625 C623 1.415 . S
C626 H616 0.930 . S
C626 C624 1.419 . S
C626 C627 1.362 . S
C627 H617 0.930 . S
C627 C620 1.409 . S
C627 C626 1.362 . S
H628 C634 0.930 . S
H629 C637 0.930 . S
H630 C638 0.930 1_545 S
H631 C639 0.930 1_545 S
H632 C642 0.936 . S
H633 C643 0.930 . S
C634 H628 0.930 . S
C634 C635 1.355 . S
C634 C636 1.415 . S
C635 C634 1.355 . S
C635 C637 1.419 . S
C636 C634 1.415 . S
C636 C641 1.425 . S
C636 C643 1.409 . S
C637 H629 0.930 . S
C637 C635 1.419 . S
C637 C638 1.362 . S
C638 H630 0.930 1_565 S
C638 C637 1.362 . S
C638 C641 1.409 . S
C639 H631 0.930 1_565 S
C639 C640 1.355 . S
C639 C641 1.415 . S
C640 C639 1.355 . S
C640 C642 1.419 . S
C641 C636 1.425 . S
C641 C638 1.409 . S
C641 C639 1.415 . S
C642 H632 0.936 . S
C642 C640 1.419 . S
C642 C643 1.362 . S
C643 H633 0.930 . S
C643 C636 1.409 . S
C643 C642 1.362 . S
H644 C650 0.930 . S
H645 C653 0.930 . S
H646 C654 0.930 . S
H647 C655 0.930 . S
H648 C658 0.930 1_565 S
H649 C659 0.930 . S
C650 H644 0.930 . S
C650 C651 1.355 . S
C650 C652 1.415 . S
C651 C650 1.355 . S
C651 C653 1.419 . S
C652 C650 1.415 . S
C652 C657 1.425 . S
C652 C659 1.409 . S
C653 H645 0.930 . S
C653 C651 1.419 . S
C653 C654 1.362 . S
C654 H646 0.930 . S
C654 C653 1.362 . S
C654 C657 1.409 . S
C655 H647 0.930 . S
C655 C656 1.355 . S
C655 C657 1.415 . S
C656 C655 1.355 . S
C656 C658 1.419 . S
C657 C652 1.425 . S
C657 C654 1.409 . S
C657 C655 1.415 . S
C658 H648 0.930 1_545 S
C658 C656 1.419 . S
C658 C659 1.362 . S
C659 H649 0.930 . S
C659 C652 1.409 . S
C659 C658 1.362 . S
H660 C666 0.930 . S
H661 C669 0.930 . S
H662 C670 0.930 . S
H663 C671 0.939 . S
H664 C674 0.930 . S
H665 C675 0.930 . S
C666 H660 0.930 . S
C666 C667 1.355 . S
C666 C668 1.415 . S
C667 C666 1.355 . S
C667 C669 1.419 . S
C668 C666 1.415 . S
C668 C673 1.425 . S
C668 C675 1.409 . S
C669 H661 0.930 . S
C669 C667 1.419 . S
C669 C670 1.362 . S
C670 H662 0.930 . S
C670 C669 1.362 . S
C670 C673 1.409 . S
C671 H663 0.939 . S
C671 C672 1.355 . S
C671 C673 1.415 . S
C672 C671 1.355 . S
C672 C674 1.419 . S
C673 C668 1.425 . S
C673 C670 1.409 . S
C673 C671 1.415 . S
C674 H664 0.930 . S
C674 C672 1.419 . S
C674 C675 1.362 . S
C675 H665 0.930 . S
C675 C668 1.409 . S
C675 C674 1.362 . S
H676 C682 0.930 . S
H677 C685 0.930 . S
H678 C686 0.930 . S
H679 C687 0.930 . S
H680 C690 0.930 . S
H681 C691 0.930 . S
C682 H676 0.930 . S
C682 C683 1.355 . S
C682 C684 1.415 . S
C683 C682 1.355 . S
C683 C685 1.419 . S
C684 C682 1.415 . S
C684 C689 1.425 . S
C684 C691 1.409 . S
C685 H677 0.930 . S
C685 C683 1.419 . S
C685 C686 1.362 . S
C686 H678 0.930 . S
C686 C685 1.362 . S
C686 C689 1.409 . S
C687 H679 0.930 . S
C687 C688 1.355 . S
C687 C689 1.415 . S
C688 C687 1.355 . S
C688 C690 1.419 . S
C689 C684 1.425 . S
C689 C686 1.409 . S
C689 C687 1.415 . S
C690 H680 0.930 . S
C690 C688 1.419 . S
C690 C691 1.362 . S
C691 H681 0.930 . S
C691 C684 1.409 . S
C691 C690 1.362 . S
H692 C698 0.930 . S
H693 C701 0.930 . S
H694 C702 0.930 . S
H695 C703 0.930 . S
H696 C706 0.930 1_455 S
H697 C707 0.930 1_455 S
C698 H692 0.930 . S
C698 C699 1.355 . S
C698 C700 1.415 . S
C699 C698 1.355 . S
C699 C701 1.419 . S
C700 C698 1.415 . S
C700 C705 1.425 . S
C700 C707 1.409 . S
C701 H693 0.930 . S
C701 C699 1.419 . S
C701 C702 1.362 . S
C702 H694 0.930 . S
C702 C701 1.362 . S
C702 C705 1.409 . S
C703 H695 0.930 . S
C703 C704 1.355 . S
C703 C705 1.415 . S
C704 C703 1.355 . S
C704 C706 1.419 . S
C705 C700 1.425 . S
C705 C702 1.409 . S
C705 C703 1.415 . S
C706 H696 0.930 1_655 S
C706 C704 1.419 . S
C706 C707 1.362 . S
C707 H697 0.930 1_655 S
C707 C700 1.409 . S
C707 C706 1.362 . S
H708 C714 0.930 . S
H709 C717 0.930 . S
H710 C718 0.930 . S
H711 C719 0.930 . S
H712 C722 0.930 1_556 S
H713 C723 0.930 . S
C714 H708 0.930 . S
C714 C715 1.355 . S
C714 C716 1.415 . S
C715 C714 1.355 . S
C715 C717 1.419 . S
C716 C714 1.415 . S
C716 C721 1.425 . S
C716 C723 1.409 . S
C717 H709 0.930 . S
C717 C715 1.419 . S
C717 C718 1.362 . S
C718 H710 0.930 . S
C718 C717 1.362 . S
C718 C721 1.409 . S
C719 H711 0.930 . S
C719 C720 1.355 . S
C719 C721 1.415 . S
C720 C719 1.355 . S
C720 C722 1.419 . S
C721 C716 1.425 . S
C721 C718 1.409 . S
C721 C719 1.415 . S
C722 H712 0.930 1_554 S
C722 C720 1.419 . S
C722 C723 1.362 . S
C723 H713 0.930 . S
C723 C716 1.409 . S
C723 C722 1.362 . S
H724 C730 0.930 . S
H725 C733 0.930 . S
H726 C734 0.930 . S
H727 C735 0.930 . S
H728 C738 0.930 . S
H729 C739 0.930 . S
C730 H724 0.930 . S
C730 C731 1.355 . S
C730 C732 1.415 . S
C731 C730 1.355 . S
C731 C733 1.419 . S
C732 C730 1.415 . S
C732 C737 1.425 . S
C732 C739 1.409 1_455 S
C733 H725 0.930 . S
C733 C731 1.419 . S
C733 C734 1.362 . S
C734 H726 0.930 . S
C734 C733 1.362 . S
C734 C737 1.409 . S
C735 H727 0.930 . S
C735 C736 1.355 . S
C735 C737 1.415 . S
C736 C735 1.355 . S
C736 C738 1.419 1_455 S
C737 C732 1.425 . S
C737 C734 1.409 . S
C737 C735 1.415 . S
C738 H728 0.930 . S
C738 C736 1.419 1_655 S
C738 C739 1.362 . S
C739 H729 0.930 . S
C739 C732 1.409 1_655 S
C739 C738 1.362 . S
H740 C746 0.930 . S
H741 C749 0.930 . S
H742 C750 0.930 . S
H743 C751 0.930 . S
H744 C754 0.930 . S
H745 C755 0.930 . S
C746 H740 0.930 . S
C746 C747 1.355 . S
C746 C748 1.415 . S
C747 C746 1.355 . S
C747 C749 1.419 . S
C748 C746 1.415 . S
C748 C753 1.425 . S
C748 C755 1.409 . S
C749 H741 0.930 . S
C749 C747 1.419 . S
C749 C750 1.362 . S
C750 H742 0.930 . S
C750 C749 1.362 . S
C750 C753 1.409 . S
C751 H743 0.930 . S
C751 C752 1.355 . S
C751 C753 1.415 . S
C752 C751 1.355 . S
C752 C754 1.419 . S
C753 C748 1.425 . S
C753 C750 1.409 . S
C753 C751 1.415 . S
C754 H744 0.930 . S
C754 C752 1.419 . S
C754 C755 1.362 . S
C755 H745 0.930 . S
C755 C748 1.409 . S
C755 C754 1.362 . S
C379 C1 1.598 . S
C384 C304 1.572 . S
C395 C67 1.510 . S
C400 C326 1.428 . S
C416 C345 1.273 . S
C411 C97 1.469 . S
C427 C133 1.863 . S
C432 C366 1.540 . S
C448 C323 1.773 . S
C443 C25 1.758 . S
C464 C301 1.630 . S
C459 C37 1.662 . S
C480 C368 1.279 . S
C475 C103 1.381 . S
C496 C347 1.514 . S
C491 C109 1.516 . S
C507 C31 1.714 . S
C512 C365 1.660 . S
C528 C324 1.303 . S
C523 C73 1.597 . S
C539 C139 1.690 . S
C544 C306 1.580 . S
C555 C61 1.528 . S
C560 C344 1.503 . S
C576 C302 1.590 . S
C571 C175 1.643 . S
C587 C181 1.323 . S
C592 C322 1.325 . S
C603 C247 1.542 . S
C608 C348 1.314 . S
C619 C277 1.788 . S
C624 C369 1.458 . S
C635 C145 1.725 . S
C640 C325 1.678 . S
C656 C305 1.679 . S
C651 C211 1.753 . S
C672 C364 1.186 . S
C667 C217 1.272 . S
C688 C343 1.552 . S
C683 C283 1.621 . S
C699 C169 1.554 . S
C704 C367 1.541 . S
C720 C327 1.186 . S
C715 C241 1.525 . S
C736 C303 1.437 . S
C731 C253 1.507 . S
C747 C205 1.451 . S
C752 C346 1.459 . S
