# Generated by pormake.
# Topology ctn, (3,4)-cn, num edge types: 1
# Building blocks:
#     Node 0, Type 0, BuildingBlock: CUQRIR_clean_linker_1, # of connection points: 3
#     Node 1, Type 0, BuildingBlock: CUQRIR_clean_linker_1, # of connection points: 3
#     Node 2, Type 0, BuildingBlock: CUQRIR_clean_linker_1, # of connection points: 3
#     Node 3, Type 0, BuildingBlock: CUQRIR_clean_linker_1, # of connection points: 3
#     Node 4, Type 0, BuildingBlock: CUQRIR_clean_linker_1, # of connection points: 3
#     Node 5, Type 0, BuildingBlock: CUQRIR_clean_linker_1, # of connection points: 3
#     Node 6, Type 0, BuildingBlock: CUQRIR_clean_linker_1, # of connection points: 3
#     Node 7, Type 0, BuildingBlock: CUQRIR_clean_linker_1, # of connection points: 3
#     Node 8, Type 0, BuildingBlock: CUQRIR_clean_linker_1, # of connection points: 3
#     Node 9, Type 0, BuildingBlock: CUQRIR_clean_linker_1, # of connection points: 3
#     Node 10, Type 0, BuildingBlock: CUQRIR_clean_linker_1, # of connection points: 3
#     Node 11, Type 0, BuildingBlock: CUQRIR_clean_linker_1, # of connection points: 3
#     Node 12, Type 0, BuildingBlock: CUQRIR_clean_linker_1, # of connection points: 3
#     Node 13, Type 0, BuildingBlock: CUQRIR_clean_linker_1, # of connection points: 3
#     Node 14, Type 0, BuildingBlock: CUQRIR_clean_linker_1, # of connection points: 3
#     Node 15, Type 0, BuildingBlock: CUQRIR_clean_linker_1, # of connection points: 3
#     Node 16, Type 1, BuildingBlock: NAHDIM_clean_sbu_0, # of connection points: 4
#     Node 17, Type 1, BuildingBlock: NAHDIM_clean_sbu_0, # of connection points: 4
#     Node 18, Type 1, BuildingBlock: NAHDIM_clean_sbu_0, # of connection points: 4
#     Node 19, Type 1, BuildingBlock: NAHDIM_clean_sbu_0, # of connection points: 4
#     Node 20, Type 1, BuildingBlock: NAHDIM_clean_sbu_0, # of connection points: 4
#     Node 21, Type 1, BuildingBlock: NAHDIM_clean_sbu_0, # of connection points: 4
#     Node 22, Type 1, BuildingBlock: NAHDIM_clean_sbu_0, # of connection points: 4
#     Node 23, Type 1, BuildingBlock: NAHDIM_clean_sbu_0, # of connection points: 4
#     Node 24, Type 1, BuildingBlock: NAHDIM_clean_sbu_0, # of connection points: 4
#     Node 25, Type 1, BuildingBlock: NAHDIM_clean_sbu_0, # of connection points: 4
#     Node 26, Type 1, BuildingBlock: NAHDIM_clean_sbu_0, # of connection points: 4
#     Node 27, Type 1, BuildingBlock: NAHDIM_clean_sbu_0, # of connection points: 4
#     Edge 28, Type (0, 1), BuildingBlock: TEMPAE_clean_linker_10, # of connection points: 2
#     Edge 29, Type (0, 1), BuildingBlock: TEMPAE_clean_linker_10, # of connection points: 2
#     Edge 30, Type (0, 1), BuildingBlock: TEMPAE_clean_linker_10, # of connection points: 2
#     Edge 31, Type (0, 1), BuildingBlock: TEMPAE_clean_linker_10, # of connection points: 2
#     Edge 32, Type (0, 1), BuildingBlock: TEMPAE_clean_linker_10, # of connection points: 2
#     Edge 33, Type (0, 1), BuildingBlock: TEMPAE_clean_linker_10, # of connection points: 2
#     Edge 34, Type (0, 1), BuildingBlock: TEMPAE_clean_linker_10, # of connection points: 2
#     Edge 35, Type (0, 1), BuildingBlock: TEMPAE_clean_linker_10, # of connection points: 2
#     Edge 36, Type (0, 1), BuildingBlock: TEMPAE_clean_linker_10, # of connection points: 2
#     Edge 37, Type (0, 1), BuildingBlock: TEMPAE_clean_linker_10, # of connection points: 2
#     Edge 38, Type (0, 1), BuildingBlock: TEMPAE_clean_linker_10, # of connection points: 2
#     Edge 39, Type (0, 1), BuildingBlock: TEMPAE_clean_linker_10, # of connection points: 2
#     Edge 40, Type (0, 1), BuildingBlock: TEMPAE_clean_linker_10, # of connection points: 2
#     Edge 41, Type (0, 1), BuildingBlock: TEMPAE_clean_linker_10, # of connection points: 2
#     Edge 42, Type (0, 1), BuildingBlock: TEMPAE_clean_linker_10, # of connection points: 2
#     Edge 43, Type (0, 1), BuildingBlock: TEMPAE_clean_linker_10, # of connection points: 2
#     Edge 44, Type (0, 1), BuildingBlock: TEMPAE_clean_linker_10, # of connection points: 2
#     Edge 45, Type (0, 1), BuildingBlock: TEMPAE_clean_linker_10, # of connection points: 2
#     Edge 46, Type (0, 1), BuildingBlock: TEMPAE_clean_linker_10, # of connection points: 2
#     Edge 47, Type (0, 1), BuildingBlock: TEMPAE_clean_linker_10, # of connection points: 2
#     Edge 48, Type (0, 1), BuildingBlock: TEMPAE_clean_linker_10, # of connection points: 2
#     Edge 49, Type (0, 1), BuildingBlock: TEMPAE_clean_linker_10, # of connection points: 2
#     Edge 50, Type (0, 1), BuildingBlock: TEMPAE_clean_linker_10, # of connection points: 2
#     Edge 51, Type (0, 1), BuildingBlock: TEMPAE_clean_linker_10, # of connection points: 2
#     Edge 52, Type (0, 1), BuildingBlock: TEMPAE_clean_linker_10, # of connection points: 2
#     Edge 53, Type (0, 1), BuildingBlock: TEMPAE_clean_linker_10, # of connection points: 2
#     Edge 54, Type (0, 1), BuildingBlock: TEMPAE_clean_linker_10, # of connection points: 2
#     Edge 55, Type (0, 1), BuildingBlock: TEMPAE_clean_linker_10, # of connection points: 2
#     Edge 56, Type (0, 1), BuildingBlock: TEMPAE_clean_linker_10, # of connection points: 2
#     Edge 57, Type (0, 1), BuildingBlock: TEMPAE_clean_linker_10, # of connection points: 2
#     Edge 58, Type (0, 1), BuildingBlock: TEMPAE_clean_linker_10, # of connection points: 2
#     Edge 59, Type (0, 1), BuildingBlock: TEMPAE_clean_linker_10, # of connection points: 2
#     Edge 60, Type (0, 1), BuildingBlock: TEMPAE_clean_linker_10, # of connection points: 2
#     Edge 61, Type (0, 1), BuildingBlock: TEMPAE_clean_linker_10, # of connection points: 2
#     Edge 62, Type (0, 1), BuildingBlock: TEMPAE_clean_linker_10, # of connection points: 2
#     Edge 63, Type (0, 1), BuildingBlock: TEMPAE_clean_linker_10, # of connection points: 2
#     Edge 64, Type (0, 1), BuildingBlock: TEMPAE_clean_linker_10, # of connection points: 2
#     Edge 65, Type (0, 1), BuildingBlock: TEMPAE_clean_linker_10, # of connection points: 2
#     Edge 66, Type (0, 1), BuildingBlock: TEMPAE_clean_linker_10, # of connection points: 2
#     Edge 67, Type (0, 1), BuildingBlock: TEMPAE_clean_linker_10, # of connection points: 2
#     Edge 68, Type (0, 1), BuildingBlock: TEMPAE_clean_linker_10, # of connection points: 2
#     Edge 69, Type (0, 1), BuildingBlock: TEMPAE_clean_linker_10, # of connection points: 2
#     Edge 70, Type (0, 1), BuildingBlock: TEMPAE_clean_linker_10, # of connection points: 2
#     Edge 71, Type (0, 1), BuildingBlock: TEMPAE_clean_linker_10, # of connection points: 2
#     Edge 72, Type (0, 1), BuildingBlock: TEMPAE_clean_linker_10, # of connection points: 2
#     Edge 73, Type (0, 1), BuildingBlock: TEMPAE_clean_linker_10, # of connection points: 2
#     Edge 74, Type (0, 1), BuildingBlock: TEMPAE_clean_linker_10, # of connection points: 2
#     Edge 75, Type (0, 1), BuildingBlock: TEMPAE_clean_linker_10, # of connection points: 2
# Relax obj value: 0.078
# Max RMSD: 0.205
# Mean RMSD: 0.128
data_MOF--net-ctn--node1-NAHDIM_clean_sbu_0--node2-CUQRIR_clean_linker_1--edge1-TEMPAE_clean_linker_10
_symmetry_space_group_name_H-M    P1
_symmetry_Int_Tables_number       1
_symmetry_cell_setting            triclinic
loop_
_symmetry_equiv_pos_as_xyz
'x, y, z'
_cell_length_a     52.679893
_cell_length_b     49.361078
_cell_length_c     50.105519
_cell_angle_alpha  98.077483
_cell_angle_beta   88.796732
_cell_angle_gamma 95.051159
loop_
_atom_site_label
_atom_site_type_symbol
_atom_site_fract_x
_atom_site_fract_y
_atom_site_fract_z
_atom_type_partial_charge
C0 C 0.04595 0.01794 0.07368 0.0
N1 N 0.05614 0.02513 0.05038 0.0
N2 N 0.02233 0.0266 0.07778 0.0
C3 C 0.05837 1.00088 0.0915 0.0
C4 C 0.0184 0.03908 0.05603 0.0
N5 N 0.03881 0.03783 0.03915 0.0
C6 C 0.99551 0.05437 0.05233 0.0
H7 H 0.06997 0.98584 0.07936 0.0
H8 H 0.04396 0.98971 0.10332 0.0
H9 H 0.07125 0.01463 0.10571 0.0
H10 H 0.98597 0.06069 0.07188 0.0
H11 H 0.98173 0.04075 0.03903 0.0
H12 H 1.00102 0.0729 0.04259 0.0
C13 C 0.27834 0.72977 0.22185 0.0
N14 N 0.28833 0.71713 0.24095 0.0
N15 N 0.29492 0.75025 0.2151 0.0
C16 C 0.25284 0.72122 0.20888 0.0
C17 C 0.3155 0.74952 0.23069 0.0
N18 N 0.31163 0.72905 0.24623 0.0
C19 C 0.33943 0.76852 0.23039 0.0
H20 H 0.25459 0.70274 0.19377 0.0
H21 H 0.24611 0.73776 0.19865 0.0
H22 H 0.23843 0.71569 0.2241 0.0
H23 H 0.33561 0.78828 0.22385 0.0
H24 H 0.35324 0.75869 0.21594 0.0
H25 H 0.34823 0.77262 0.25065 0.0
C26 C 0.96873 0.4917 0.07808 0.0
N27 N 0.98198 0.46913 0.07572 0.0
N28 N 0.95389 0.49117 0.05623 0.0
C29 C 0.97163 0.51521 0.10073 0.0
C30 C 0.95867 0.46756 0.04043 0.0
N31 N 0.97603 0.45435 0.05207 0.0
C32 C 0.94467 0.45619 0.01483 0.0
H33 H 0.95837 0.51077 0.11736 0.0
H34 H 0.96701 0.53466 0.09398 0.0
H35 H 0.99134 0.51786 0.10866 0.0
H36 H 0.95599 0.46233 0.9974 0.0
H37 H 0.92568 0.46424 0.01457 0.0
H38 H 0.94211 0.43342 0.01243 0.0
C39 C 0.69025 0.76209 0.22267 0.0
N40 N 0.71076 0.77642 0.21316 0.0
N41 N 0.67866 0.77789 0.24287 0.0
C42 C 0.6816 0.73273 0.21222 0.0
C43 C 0.69281 0.80239 0.24503 0.0
N44 N 0.71214 0.80152 0.22683 0.0
C45 C 0.68778 0.82728 0.26483 0.0
H46 H 0.66838 0.73238 0.1952 0.0
H47 H 0.67147 0.72241 0.22817 0.0
H48 H 0.69792 0.72105 0.20464 0.0
H49 H 0.66724 0.82732 0.27016 0.0
H50 H 0.69402 0.84651 0.2566 0.0
H51 H 0.69877 0.82704 0.28344 0.0
C52 C 0.02835 0.9626 0.47622 0.0
N53 N 0.04961 0.96624 0.49145 0.0
N54 N 0.02842 0.98218 0.45983 0.0
C55 C 0.00679 0.94088 0.47857 0.0
C56 C 0.0504 0.99805 0.46584 0.0
N57 N 0.0632 0.98854 0.48532 0.0
C58 C 0.06021 0.02164 0.45135 0.0
H59 H 0.01098 0.92178 0.46535 0.0
H60 H 0.98848 0.94741 0.47226 0.0
H61 H 0.00476 0.93614 0.49954 0.0
H62 H 0.05467 0.04108 0.46299 0.0
H63 H 0.05201 0.01952 0.43087 0.0
H64 H 0.08131 0.02292 0.44968 0.0
C65 C 0.17805 0.71826 0.80843 0.0
N66 N 0.19794 0.70779 0.81883 0.0
N67 N 0.1739 0.70653 0.78265 0.0
C68 C 0.16397 0.74142 0.82274 0.0
C69 C 0.19215 0.68876 0.77764 0.0
N70 N 0.207 0.68979 0.79958 0.0
C71 C 0.19415 0.6689 0.75214 0.0
H72 H 0.1483 0.73276 0.83498 0.0
H73 H 0.15566 0.75307 0.80817 0.0
H74 H 0.17682 0.75573 0.83651 0.0
H75 H 0.20822 0.67798 0.7384 0.0
H76 H 0.17555 0.66463 0.74174 0.0
H77 H 0.20079 0.64927 0.7565 0.0
C78 C 0.95622 0.53289 0.45432 0.0
N79 N 0.97478 0.55391 0.45585 0.0
N80 N 0.94066 0.53585 0.47618 0.0
C81 C 0.95315 0.50965 0.43143 0.0
C82 C 0.95048 0.55917 0.49119 0.0
N83 N 0.97136 0.56997 0.479 0.0
C84 C 0.93932 0.572 0.51736 0.0
H85 H 0.94248 0.51633 0.415 0.0
H86 H 0.94234 0.49131 0.43779 0.0
H87 H 0.97204 0.50402 0.42333 0.0
H88 H 0.92377 0.55839 0.52494 0.0
H89 H 0.93184 0.59167 0.51433 0.0
H90 H 0.95441 0.57683 0.53283 0.0
C91 C 0.77454 0.79896 0.82041 0.0
N92 N 0.79534 0.78447 0.81711 0.0
N93 N 0.77672 0.81986 0.80541 0.0
C94 C 0.75306 0.79404 0.83993 0.0
C95 C 0.79974 0.81773 0.7931 0.0
N96 N 0.8112 0.79645 0.80047 0.0
C97 C 0.81041 0.8354 0.77266 0.0
H98 H 0.73872 0.77833 0.82984 0.0
H99 H 0.74367 0.81312 0.84662 0.0
H100 H 0.76006 0.78622 0.8579 0.0
H101 H 0.82314 0.8526 0.78305 0.0
H102 H 0.79498 0.84406 0.7627 0.0
H103 H 0.82183 0.82348 0.75708 0.0
C104 C 0.27942 0.30055 0.32021 0.0
N105 N 0.2999 0.28558 0.31682 0.0
N106 N 0.2817 0.32107 0.30475 0.0
C107 C 0.25817 0.2964 0.3402 0.0
C108 C 0.30445 0.31818 0.29203 0.0
N109 N 0.31564 0.29683 0.2996 0.0
C110 C 0.31522 0.33532 0.2712 0.0
H111 H 0.24336 0.28099 0.3305 0.0
H112 H 0.24932 0.31583 0.34689 0.0
H113 H 0.26523 0.28855 0.35811 0.0
H114 H 0.32806 0.35258 0.28128 0.0
H115 H 0.29983 0.34388 0.26107 0.0
H116 H 0.32655 0.32306 0.25579 0.0
C117 C 0.46943 0.98822 0.57179 0.0
N118 N 0.48367 0.96651 0.57059 0.0
N119 N 0.4542 0.98562 0.55001 0.0
C120 C 0.47029 0.01189 0.59426 0.0
C121 C 0.45951 0.96147 0.5356 0.0
N122 N 0.4774 0.94977 0.5481 0.0
C123 C 0.44599 0.94838 0.51022 0.0
H124 H 0.45745 0.00622 0.6108 0.0
H125 H 0.4638 0.03047 0.58726 0.0
H126 H 0.48987 0.01653 0.60239 0.0
H127 H 0.44016 0.96407 0.49834 0.0
H128 H 0.42854 0.93607 0.51579 0.0
H129 H 0.45829 0.93454 0.49748 0.0
C130 C 0.18535 0.25319 0.72286 0.0
N131 N 0.20597 0.26769 0.71374 0.0
N132 N 0.174 0.26846 0.74353 0.0
C133 C 0.17511 0.22496 0.71028 0.0
C134 C 0.18834 0.2928 0.7466 0.0
N135 N 0.20764 0.29246 0.72829 0.0
C136 C 0.18468 0.31603 0.76886 0.0
H137 H 0.17898 0.22188 0.68826 0.0
H138 H 0.15428 0.2216 0.71384 0.0
H139 H 0.18468 0.20943 0.71947 0.0
H140 H 0.17495 0.30839 0.78654 0.0
H141 H 0.1727 0.3307 0.76136 0.0
H142 H 0.20324 0.32718 0.77531 0.0
C143 C 0.77733 0.22327 0.71618 0.0
N144 N 0.78707 0.21234 0.73665 0.0
N145 N 0.78968 0.24802 0.71376 0.0
C146 C 0.75444 0.21075 0.69989 0.0
C147 C 0.80706 0.25199 0.73379 0.0
N148 N 0.80532 0.23036 0.74793 0.0
C149 C 0.82678 0.27608 0.73835 0.0
H150 H 0.76078 0.19581 0.68296 0.0
H151 H 0.74467 0.22663 0.69147 0.0
H152 H 0.74063 0.19961 0.7124 0.0
H153 H 0.81999 0.29142 0.75466 0.0
H154 H 0.83002 0.28597 0.71987 0.0
H155 H 0.84507 0.26957 0.74476 0.0
C156 C 0.5355 0.50649 0.57367 0.0
N157 N 0.54712 0.51685 0.55245 0.0
N158 N 0.51733 0.5226 0.58444 0.0
C159 C 0.54316 0.48186 0.58516 0.0
C160 C 0.51843 0.54323 0.56924 0.0
N161 N 0.53678 0.53997 0.55002 0.0
C162 C 0.50057 0.56569 0.57211 0.0
H163 H 0.5338 0.46299 0.57348 0.0
H164 H 0.53727 0.48248 0.60661 0.0
H165 H 0.56409 0.48069 0.58353 0.0
H166 H 0.51019 0.58444 0.58373 0.0
H167 H 0.48278 0.55974 0.58288 0.0
H168 H 0.49565 0.57072 0.55205 0.0
C169 C 0.51841 0.47226 0.98714 0.0
N170 N 0.5417 0.47471 0.99857 0.0
N171 N 0.51837 0.48764 0.96686 0.0
C172 C 0.49605 0.45388 0.99512 0.0
C173 C 0.54253 0.49935 0.96612 0.0
N174 N 0.5569 0.49117 0.98518 0.0
C175 C 0.55214 0.51847 0.94652 0.0
H176 H 0.50022 0.43213 0.98966 0.0
H177 H 0.47827 0.45726 0.98508 0.0
H178 H 0.49313 0.45755 0.01728 0.0
H179 H 0.53642 0.52851 0.93866 0.0
H180 H 0.56142 0.5065 0.92919 0.0
H181 H 0.56646 0.53449 0.9562 0.0
C182 C 0.68169 0.22016 0.31213 0.0
N183 N 0.70177 0.21004 0.32258 0.0
N184 N 0.67826 0.20911 0.28603 0.0
C185 C 0.6668 0.2425 0.32673 0.0
C186 C 0.69715 0.19213 0.2809 0.0
N187 N 0.71165 0.19299 0.30305 0.0
C188 C 0.70028 0.17331 0.25491 0.0
H189 H 0.65121 0.23301 0.3385 0.0
H190 H 0.6583 0.25426 0.31238 0.0
H191 H 0.67912 0.25688 0.34098 0.0
H192 H 0.71437 0.18346 0.24193 0.0
H193 H 0.68199 0.16872 0.24395 0.0
H194 H 0.70749 0.15376 0.25874 0.0
C195 C 0.45765 0.0318 0.9602 0.0
N196 N 0.47497 0.05383 0.96038 0.0
N197 N 0.43731 0.03841 0.97599 0.0
C198 C 0.45971 0.00439 0.94324 0.0
C199 C 0.44278 0.06524 0.98567 0.0
N200 N 0.46549 0.07471 0.97589 0.0
C201 C 0.42697 0.08154 0.00642 0.0
H202 H 0.4406 0.99348 0.93892 0.0
H203 H 0.47083 0.99158 0.95436 0.0
H204 H 0.46974 0.00691 0.92393 0.0
H205 H 0.4149 0.06791 0.01828 0.0
H206 H 0.41439 0.09349 0.99597 0.0
H207 H 0.43927 0.09623 0.02043 0.0
C208 C 0.2096 0.92225 0.01252 0.0
O209 O 0.22699 0.92542 0.99377 0.0
O210 O 0.23424 0.85013 0.9918 0.0
Zn211 Zn 0.2415 0.88021 0.02307 0.0
O212 O 0.27306 0.90311 0.01354 0.0
C213 C 0.26929 0.85955 0.06441 0.0
O214 O 0.28903 0.86736 0.05002 0.0
O215 O 0.21176 0.90405 0.02783 0.0
C216 C 0.28228 0.92407 0.02909 0.0
O217 O 0.27106 0.93103 0.05241 0.0
C218 C 0.24525 0.82795 0.9888 0.0
O219 O 0.26159 0.82393 0.00698 0.0
O220 O 0.24703 0.86326 0.05701 0.0
C221 C 0.16191 0.46681 0.29377 0.0
O222 O 0.15423 0.48117 0.31609 0.0
O223 O 0.11329 0.51383 0.30091 0.0
Zn224 Zn 0.1372 0.50698 0.26881 0.0
O225 O 0.16392 0.53922 0.26923 0.0
C226 C 0.10779 0.47712 0.22374 0.0
O227 O 0.11309 0.4558 0.23496 0.0
O228 O 0.15629 0.47365 0.27122 0.0
C229 C 0.1646 0.55642 0.25254 0.0
O230 O 0.14694 0.55373 0.23399 0.0
C231 C 0.10868 0.53803 0.31109 0.0
O232 O 0.11982 0.55902 0.30061 0.0
O233 O 0.11631 0.50104 0.23443 0.0
C234 C 0.82426 0.61792 0.01732 0.0
O235 O 0.82846 0.64473 0.02276 0.0
O236 O 0.78179 0.64883 0.96768 0.0
Zn237 Zn 0.77354 0.62938 1.00064 0.0
O238 O 0.74239 0.60187 0.99516 0.0
C239 C 0.77793 0.6797 0.04145 0.0
O240 O 0.7966 0.68905 0.02651 0.0
O241 O 0.80284 0.60755 0.00777 0.0
C242 C 0.71983 0.60907 0.99458 0.0
O243 O 0.71644 0.63526 0.99579 0.0
C244 C 0.77166 0.67049 0.96401 0.0
O245 O 0.75489 0.68032 0.98174 0.0
O246 O 0.76644 0.65616 0.03398 0.0
C247 C 0.82947 0.04474 0.27644 0.0
O248 O 0.82394 0.02669 0.25504 0.0
O249 O 0.89625 0.00782 0.30674 0.0
Zn250 Zn 0.87118 0.01138 0.27787 0.0
O251 O 0.84989 0.97553 0.26699 0.0
C252 C 0.90639 1.00137 0.23554 0.0
O253 O 0.90679 0.979 0.24692 0.0
O254 O 0.84912 0.04241 0.28995 0.0
C255 C 0.82928 0.96832 0.27871 0.0
O256 O 0.82119 0.98454 0.29962 0.0
C257 C 0.89045 1.00112 0.32981 0.0
O258 O 0.86634 0.99602 0.33613 0.0
O259 O 0.89182 0.01952 0.24538 0.0
C260 C 0.30826 0.08594 0.50014 0.0
O261 O 0.29165 0.07247 0.48284 0.0
O262 O 0.2844 0.14872 0.46629 0.0
Zn263 Zn 0.275 0.12968 0.4992 0.0
O264 O 0.24396 0.10214 0.49227 0.0
C265 C 0.28131 0.17425 0.54482 0.0
O266 O 0.30563 0.17513 0.53832 0.0
O267 O 0.3051 0.11069 0.50969 0.0
C268 C 0.23531 0.08984 0.51171 0.0
O269 O 0.24738 0.09472 0.53481 0.0
C270 C 0.27514 0.17102 0.46317 0.0
O271 O 0.25892 0.18133 0.48127 0.0
O272 O 0.26562 0.15722 0.53085 0.0
C273 C 0.31962 0.53651 0.77944 0.0
O274 O 0.31158 0.51572 0.76142 0.0
O275 O 0.38645 0.50254 0.8111 0.0
Zn276 Zn 0.36219 0.50388 0.78094 0.0
O277 O 0.33967 0.46817 0.77377 0.0
C278 C 0.40384 0.49744 0.74402 0.0
O279 O 0.41019 0.48166 0.7614 0.0
O280 O 0.34092 0.53599 0.79074 0.0
C281 C 0.33595 0.45576 0.74994 0.0
O282 O 0.34697 0.46637 0.72957 0.0
C283 C 0.38022 0.49491 0.83369 0.0
O284 O 0.3562 0.4874 0.83853 0.0
O285 O 0.38348 0.50952 0.74799 0.0
C286 C 0.70386 0.41981 0.51251 0.0
O287 O 0.71693 0.4176 0.48979 0.0
O288 O 0.73338 0.35351 0.49512 0.0
Zn289 Zn 0.741 0.38459 0.5253 0.0
O290 O 0.77118 0.40808 0.51364 0.0
C291 C 0.73522 0.35344 0.57069 0.0
O292 O 0.71199 0.34721 0.56137 0.0
O293 O 0.7106 0.4073 0.53142 0.0
C294 C 0.78405 0.42516 0.53058 0.0
O295 O 0.77715 0.42773 0.55611 0.0
C296 C 0.74522 0.33189 0.49236 0.0
O297 O 0.76245 0.32922 0.51017 0.0
O298 O 0.75047 0.36941 0.5589 0.0
C299 C 0.65633 0.96512 0.79526 0.0
O300 O 0.64805 0.97882 0.81766 0.0
O301 O 0.6092 0.01466 0.80169 0.0
Zn302 Zn 0.63352 0.00686 0.77014 0.0
O303 O 0.66111 0.03814 0.77026 0.0
C304 C 0.60573 0.97778 0.72341 0.0
O305 O 0.61242 0.95608 0.73308 0.0
O306 O 0.65169 0.97292 0.77286 0.0
C307 C 0.65793 0.06078 0.762 0.0
O308 O 0.63553 0.06454 0.75278 0.0
C309 C 0.61452 0.03211 0.82246 0.0
O310 O 0.63716 0.04568 0.82424 0.0
O311 O 0.61294 0.00157 0.73553 0.0
C312 C 0.01474 0.17428 0.9167 0.0
O313 O 0.02837 0.17846 0.8952 0.0
O314 O 0.95775 0.2185 0.88642 0.0
Zn315 Zn 0.99146 0.22387 0.90687 0.0
O316 O 0.99236 0.25725 0.93583 0.0
C317 C 0.02158 0.21993 0.85677 0.0
O318 O 0.00289 0.20204 0.84721 0.0
O319 O 0.9977 0.19043 0.92479 0.0
C320 C 0.97345 0.27114 0.94257 0.0
O321 O 0.95143 0.26348 0.93078 0.0
C322 C 0.95419 0.23431 0.86908 0.0
O323 O 0.97206 0.25379 0.86546 0.0
O324 O 0.02054 0.23128 0.88114 0.0
C325 C 0.49351 0.67744 0.43811 0.0
O326 O 0.47282 0.6888 0.44725 0.0
O327 O 0.46319 0.71273 0.38277 0.0
Zn328 Zn 0.49717 0.7202 0.4028 0.0
O329 O 0.49695 0.75302 0.4328 0.0
C330 C 0.52359 0.73996 0.35596 0.0
O331 O 0.50221 0.75056 0.35198 0.0
O332 O 0.50613 0.68703 0.41914 0.0
C333 C 0.50254 0.7776 0.42826 0.0
O334 O 0.50864 0.78218 0.40366 0.0
C335 C 0.44965 0.73231 0.38008 0.0
O336 O 0.45709 0.75717 0.39173 0.0
O337 O 0.5254 0.72687 0.37586 0.0
C338 C 1.00118 0.82651 0.60859 0.0
O339 O 0.97972 0.81267 0.60013 0.0
O340 O 0.9702 0.78697 0.66697 0.0
Zn341 Zn 0.00158 0.78322 0.64236 0.0
O342 O 0.99428 0.7527 0.61134 0.0
C343 C 0.03692 0.74916 0.66269 0.0
O344 O 0.02392 0.72931 0.64715 0.0
O345 O 0.0133 0.81835 0.62721 0.0
C346 C 0.01054 0.74843 0.59239 0.0
O347 O 0.03164 0.76479 0.59278 0.0
C348 C 0.96636 0.77126 0.68508 0.0
O349 O 0.98267 0.75306 0.68725 0.0
O350 O 0.03074 0.77364 0.66386 0.0
C351 C 0.50559 0.32691 0.10869 0.0
O352 O 0.48457 0.31214 0.10028 0.0
O353 O 0.4757 0.28851 0.16794 0.0
Zn354 Zn 0.50695 0.28461 0.14332 0.0
O355 O 0.4993 0.25346 0.11299 0.0
C356 C 0.54304 0.25135 0.16359 0.0
O357 O 0.53094 0.23149 0.14724 0.0
O358 O 0.51802 0.31958 0.12756 0.0
C359 C 0.51354 0.24993 0.09217 0.0
O360 O 0.53335 0.26757 0.08979 0.0
C361 C 0.47104 0.27163 0.18486 0.0
O362 O 0.48647 0.25229 0.18575 0.0
O363 O 0.53616 0.27559 0.16514 0.0
C364 C 0.23285 0.73222 0.84645 0.0
C365 C 0.20906 0.71718 0.84474 0.0
C366 C 0.24114 0.74755 0.87094 0.0
C367 C 0.2252 0.7475 0.89409 0.0
C368 C 0.20213 0.73034 0.89282 0.0
C369 C 0.19428 0.71547 0.86803 0.0
C370 C 0.26585 0.76555 0.87141 0.0
C371 C 0.18474 0.72938 0.91706 0.0
C372 C 0.2501 0.78149 0.96255 0.0
C373 C 0.24018 0.80721 0.96468 0.0
C374 C 0.24549 0.76178 0.93968 0.0
C375 C 0.23081 0.76805 0.91839 0.0
C376 C 0.22088 0.79402 0.92037 0.0
C377 C 0.22559 0.81321 0.94351 0.0
C378 C 0.25616 0.73422 0.93835 0.0
C379 C 0.20521 0.80156 0.89802 0.0
H380 H 0.24402 0.73357 0.8282 0.0
H381 H 0.17585 0.70374 0.86639 0.0
H382 H 0.26165 0.78734 0.87263 0.0
H383 H 0.27713 0.76375 0.88943 0.0
H384 H 0.27762 0.7603 0.85307 0.0
H385 H 0.16959 0.71215 0.91379 0.0
H386 H 0.19575 0.72726 0.93517 0.0
H387 H 0.1755 0.7489 0.92132 0.0
H388 H 0.26135 0.77666 0.97884 0.0
H389 H 0.21795 0.83305 0.94492 0.0
H390 H 0.26851 0.73054 0.92022 0.0
H391 H 0.24039 0.71764 0.93642 0.0
H392 H 0.26745 0.73265 0.95646 0.0
H393 H 0.21628 0.79972 0.87886 0.0
H394 H 0.19933 0.82281 0.90246 0.0
H395 H 0.18782 0.78713 0.89479 0.0
C396 C 0.98941 0.5578 0.40955 0.0
C397 C 0.99506 0.55756 0.43667 0.0
C398 C 0.0087 0.5568 0.38979 0.0
C399 C 0.03429 0.55573 0.39745 0.0
C400 C 0.04022 0.55707 0.42511 0.0
C401 C 0.02045 0.55796 0.44443 0.0
C402 C 0.00153 0.55558 0.36061 0.0
C403 C 0.06724 0.5562 0.43414 0.0
C404 C 0.07728 0.52022 0.34417 0.0
C405 C 0.09047 0.54257 0.33398 0.0
C406 C 0.05932 0.52427 0.36515 0.0
C407 C 0.05443 0.55132 0.37633 0.0
C408 C 0.06803 0.57398 0.36653 0.0
C409 C 0.08584 0.56934 0.34546 0.0
C410 C 0.04519 0.49955 0.37502 0.0
C411 C 0.06343 0.60311 0.37799 0.0
H412 H 0.96971 0.55783 0.40378 0.0
H413 H 0.02465 0.55763 0.46545 0.0
H414 H 0.01324 0.57154 0.35119 0.0
H415 H 0.00545 0.53534 0.34937 0.0
H416 H 0.98107 0.55853 0.35823 0.0
H417 H 0.06898 0.56021 0.45644 0.0
H418 H 0.07384 0.53567 0.42697 0.0
H419 H 0.08017 0.57156 0.42521 0.0
H420 H 0.08074 0.49948 0.3355 0.0
H421 H 0.09598 0.58676 0.33783 0.0
H422 H 0.02447 0.49957 0.37147 0.0
H423 H 0.04779 0.5005 0.39706 0.0
H424 H 0.05172 0.4799 0.36478 0.0
H425 H 0.04349 0.60696 0.37416 0.0
H426 H 0.07645 0.61846 0.36909 0.0
H427 H 0.06601 0.6063 0.40016 0.0
C428 C 0.81747 0.76707 0.85294 0.0
C429 C 0.80016 0.76235 0.83167 0.0
C430 C 0.81652 0.7496 0.87293 0.0
C431 C 0.7978 0.72695 0.87143 0.0
C432 C 0.78197 0.72074 0.84848 0.0
C433 C 0.78332 0.73859 0.82892 0.0
C434 C 0.8339 0.75693 0.89688 0.0
C435 C 0.76187 0.69679 0.84583 0.0
C436 C 0.79689 0.67489 0.92124 0.0
C437 C 0.77883 0.68483 0.94036 0.0
C438 C 0.80359 0.68849 0.89885 0.0
C439 C 0.79197 0.71258 0.89547 0.0
C440 C 0.77389 0.72278 0.91482 0.0
C441 C 0.76757 0.70882 0.93694 0.0
C442 C 0.82292 0.67698 0.87869 0.0
C443 C 0.76096 0.74837 0.91204 0.0
H444 H 0.83021 0.78571 0.85514 0.0
H445 H 0.76982 0.73525 0.81251 0.0
H446 H 0.82289 0.76614 0.91445 0.0
H447 H 0.84164 0.73833 0.90246 0.0
H448 H 0.85004 0.77194 0.8929 0.0
H449 H 0.754 0.69224 0.82513 0.0
H450 H 0.76974 0.6781 0.85102 0.0
H451 H 0.74599 0.70161 0.86013 0.0
H452 H 0.80576 0.65642 0.92371 0.0
H453 H 0.75366 0.71676 0.95155 0.0
H454 H 0.83882 0.69283 0.87649 0.0
H455 H 0.81397 0.67123 0.85862 0.0
H456 H 0.83086 0.65861 0.88463 0.0
H457 H 0.77544 0.76591 0.91088 0.0
H458 H 0.74779 0.75398 0.92914 0.0
H459 H 0.74994 0.74524 0.89306 0.0
C460 C 0.99814 0.0104 0.44224 0.0
C461 C 0.00924 0.9855 0.4408 0.0
C462 C 0.97885 0.01363 0.42432 0.0
C463 C 0.97047 0.99132 0.40464 0.0
C464 C 0.9818 0.96616 0.40306 0.0
C465 C 1.00114 0.96361 0.42114 0.0
C466 C 0.96732 0.0408 0.42657 0.0
C467 C 0.97342 0.94191 0.38238 0.0
C468 C 0.90482 0.99014 0.37417 0.0
C469 C 0.91082 0.99894 0.34918 0.0
C470 C 0.92404 0.98768 0.39248 0.0
C471 C 0.94986 0.99427 0.38567 0.0
C472 C 0.95603 0.00335 0.36058 0.0
C473 C 0.93646 0.00553 0.34264 0.0
C474 C 0.91675 0.97785 0.41903 0.0
C475 C 0.98333 0.01064 0.35264 0.0
H476 H 0.00437 0.02717 0.45767 0.0
H477 H 0.00999 0.94447 0.42004 0.0
H478 H 0.96948 0.04915 0.40713 0.0
H479 H 0.94661 0.03785 0.43092 0.0
H480 H 0.97629 0.05622 0.44269 0.0
H481 H 0.98414 0.92379 0.38389 0.0
H482 H 0.9528 0.93599 0.38499 0.0
H483 H 0.97613 0.94756 0.36179 0.0
H484 H 0.88509 0.98499 0.3794 0.0
H485 H 0.9413 0.0124 0.32341 0.0
H486 H 0.92385 0.99343 0.43597 0.0
H487 H 0.92582 0.95872 0.4207 0.0
H488 H 0.8958 0.97378 0.42137 0.0
H489 H 0.99225 0.02704 0.36784 0.0
H490 H 0.9849 0.01779 0.33256 0.0
H491 H 0.99445 0.99251 0.35216 0.0
C492 C 0.23346 0.23424 0.69007 0.0
C493 C 0.22184 0.25876 0.69104 0.0
C494 C 0.2456 0.22284 0.6665 0.0
C495 C 0.24616 0.23644 0.64338 0.0
C496 C 0.2358 0.26217 0.64485 0.0
C497 C 0.2237 0.27303 0.66875 0.0
C498 C 0.2565 0.19548 0.66589 0.0
C499 C 0.23615 0.27741 0.62075 0.0
C500 C 0.28937 0.20994 0.58542 0.0
C501 C 0.27226 0.19171 0.56912 0.0
C502 C 0.28108 0.2253 0.60931 0.0
C503 C 0.25511 0.22228 0.61709 0.0
C504 C 0.23766 0.20444 0.60036 0.0
C505 C 0.24642 0.18944 0.57661 0.0
C506 C 0.3002 0.24423 0.62656 0.0
C507 C 0.20979 0.20061 0.60792 0.0
H508 H 0.23214 0.2235 0.70756 0.0
H509 H 0.21456 0.29197 0.66963 0.0
H510 H 0.24496 0.17957 0.65233 0.0
H511 H 0.27625 0.19644 0.65773 0.0
H512 H 0.25667 0.18891 0.6862 0.0
H513 H 0.23042 0.29863 0.62619 0.0
H514 H 0.25542 0.27843 0.61139 0.0
H515 H 0.22279 0.26622 0.60535 0.0
H516 H 0.30935 0.21192 0.57977 0.0
H517 H 0.23301 0.1755 0.56414 0.0
H518 H 0.30214 0.23659 0.64615 0.0
H519 H 0.29349 0.26509 0.631 0.0
H520 H 0.31929 0.24581 0.61677 0.0
H521 H 0.20772 0.19182 0.62713 0.0
H522 H 0.19853 0.18677 0.59222 0.0
H523 H 0.20153 0.22074 0.61119 0.0
C524 C 0.50112 0.53935 0.62947 0.0
C525 C 0.5009 0.51892 0.60709 0.0
C526 C 0.48518 0.5361 0.65176 0.0
C527 C 0.46856 0.51188 0.65144 0.0
C528 C 0.46822 0.49124 0.62871 0.0
C529 C 0.48454 0.495 0.6068 0.0
C530 C 0.48624 0.55845 0.67571 0.0
C531 C 0.45064 0.46525 0.62754 0.0
C532 C 0.44458 0.49142 0.71832 0.0
C533 C 0.42025 0.50105 0.72023 0.0
C534 C 0.4605 0.49485 0.69605 0.0
C535 C 0.45179 0.50799 0.67506 0.0
C536 C 0.42718 0.51759 0.67674 0.0
C537 C 0.41174 0.51412 0.69938 0.0
C538 C 0.48673 0.48457 0.69506 0.0
C539 C 0.41718 0.53149 0.6546 0.0
H540 H 0.51399 0.55773 0.6295 0.0
H541 H 0.48444 0.4794 0.58925 0.0
H542 H 0.46717 0.56616 0.67958 0.0
H543 H 0.49159 0.55004 0.69401 0.0
H544 H 0.50018 0.57602 0.67269 0.0
H545 H 0.45244 0.45145 0.6082 0.0
H546 H 0.45489 0.45393 0.64432 0.0
H547 H 0.43058 0.4704 0.63011 0.0
H548 H 0.45133 0.48138 0.73438 0.0
H549 H 0.39291 0.5215 0.70067 0.0
H550 H 0.50144 0.50185 0.69369 0.0
H551 H 0.48875 0.46934 0.67679 0.0
H552 H 0.49064 0.47484 0.71307 0.0
H553 H 0.42976 0.55021 0.65207 0.0
H554 H 0.39748 0.53741 0.6588 0.0
H555 H 0.41734 0.51761 0.63517 0.0
C556 C 0.78604 0.25548 0.6666 0.0
C557 C 0.78512 0.26562 0.69408 0.0
C558 C 0.77912 0.27121 0.64711 0.0
C559 C 0.77099 0.29773 0.65539 0.0
C560 C 0.77082 0.3084 0.68317 0.0
C561 C 0.77796 0.29217 0.70223 0.0
C562 C 0.77978 0.25911 0.61773 0.0
C563 C 0.76226 0.33653 0.69282 0.0
C564 C 0.76967 0.34484 0.60155 0.0
C565 C 0.74407 0.34062 0.59354 0.0
C566 C 0.77861 0.33151 0.62207 0.0
C567 C 0.76154 0.31361 0.63497 0.0
C568 C 0.73556 0.30981 0.62746 0.0
C569 C 0.72716 0.3233 0.60683 0.0
C570 C 0.80645 0.33604 0.62944 0.0
C571 C 0.71673 0.29097 0.64081 0.0
H572 H 0.79172 0.23493 0.6605 0.0
H573 H 0.77712 0.29978 0.72357 0.0
H574 H 0.76018 0.25647 0.60951 0.0
H575 H 0.79128 0.27328 0.60595 0.0
H576 H 0.78787 0.23886 0.61458 0.0
H577 H 0.76478 0.3425 0.71488 0.0
H578 H 0.77309 0.35216 0.68217 0.0
H579 H 0.74182 0.33686 0.68804 0.0
H580 H 0.7829 0.35818 0.59144 0.0
H581 H 0.70734 0.31997 0.60088 0.0
H582 H 0.8155 0.31645 0.62463 0.0
H583 H 0.80851 0.34269 0.65143 0.0
H584 H 0.81696 0.35169 0.61851 0.0
H585 H 0.72228 0.2696 0.63672 0.0
H586 H 0.69698 0.29123 0.63358 0.0
H587 H 0.71694 0.29701 0.66299 0.0
C588 C 0.52781 0.9661 0.58525 0.0
C589 C 0.50166 0.96222 0.59045 0.0
C590 C 0.54565 0.96662 0.60582 0.0
C591 C 0.537 0.96377 0.63234 0.0
C592 C 0.51052 0.95906 0.63745 0.0
C593 C 0.49318 0.95834 0.61639 0.0
C594 C 0.57366 0.97153 0.59944 0.0
C595 C 0.50043 0.95606 0.6654 0.0
C596 C 0.58287 0.94825 0.68487 0.0
C597 C 0.58901 0.9744 0.69941 0.0
C598 C 0.56632 0.94451 0.66276 0.0
C599 C 0.55543 0.96743 0.65506 0.0
C600 C 0.56174 0.99392 0.66946 0.0
C601 C 0.57852 0.9971 0.69136 0.0
C602 C 0.56027 0.916 0.64778 0.0
C603 C 0.55045 0.01889 0.662 0.0
H604 H 0.5342 0.9701 0.56539 0.0
H605 H 0.47285 0.95584 0.62031 0.0
H606 H 0.58105 0.9921 0.60949 0.0
H607 H 0.58454 0.95616 0.60732 0.0
H608 H 0.57738 0.97052 0.57743 0.0
H609 H 0.47949 0.95079 0.66565 0.0
H610 H 0.50989 0.93989 0.6737 0.0
H611 H 0.50485 0.97559 0.67902 0.0
H612 H 0.59094 0.93057 0.69083 0.0
H613 H 0.58308 0.01736 0.70246 0.0
H614 H 0.5649 0.91575 0.62604 0.0
H615 H 0.53957 0.90991 0.64937 0.0
H616 H 0.57096 0.90046 0.65569 0.0
H617 H 0.55515 0.0212 0.6407 0.0
H618 H 0.55749 0.03808 0.675 0.0
H619 H 0.52937 0.01629 0.66376 0.0
C620 C 0.82526 0.24538 0.79211 0.0
C621 C 0.82226 0.2261 0.76886 0.0
C622 C 0.84486 0.24432 0.81043 0.0
C623 C 0.86206 0.22365 0.80513 0.0
C624 C 0.85811 0.20317 0.78239 0.0
C625 C 0.83813 0.20458 0.76458 0.0
C626 C 0.84805 0.26631 0.83457 0.0
C627 C 0.87604 0.1809 0.77582 0.0
C628 C 0.92971 0.24418 0.82985 0.0
C629 C 0.9306 0.23083 0.85271 0.0
C630 C 0.9077 0.24158 0.81406 0.0
C631 C 0.88575 0.22548 0.82142 0.0
C632 C 0.88648 0.21184 0.84444 0.0
C633 C 0.90896 0.21452 0.85972 0.0
C634 C 0.90792 0.25621 0.78951 0.0
C635 C 0.8634 0.19478 0.85312 0.0
H636 H 0.81281 0.2619 0.79531 0.0
H637 H 0.8358 0.18986 0.74642 0.0
H638 H 0.85095 0.25703 0.85308 0.0
H639 H 0.86523 0.28034 0.83168 0.0
H640 H 0.83133 0.27867 0.83772 0.0
H641 H 0.86866 0.16477 0.75943 0.0
H642 H 0.89475 0.19007 0.76933 0.0
H643 H 0.87937 0.17112 0.79391 0.0
H644 H 0.94636 0.25666 0.82412 0.0
H645 H 0.90944 0.20419 0.87738 0.0
H646 H 0.89337 0.27133 0.79186 0.0
H647 H 0.90292 0.24126 0.77132 0.0
H648 H 0.92677 0.2672 0.78603 0.0
H649 H 0.84737 0.20787 0.85779 0.0
H650 H 0.86717 0.18504 0.87116 0.0
H651 H 0.85714 0.17845 0.83647 0.0
C652 C 0.50889 0.91836 0.52886 0.0
C653 C 0.48487 0.92239 0.54036 0.0
C654 C 0.51402 0.89274 0.51467 0.0
C655 C 0.49431 0.87109 0.51113 0.0
C656 C 0.47058 0.87461 0.52441 0.0
C657 C 0.46631 0.90016 0.53916 0.0
C658 C 0.53984 0.88964 0.50156 0.0
C659 C 0.44879 0.85246 0.52078 0.0
C660 C 0.49332 0.82598 0.44317 0.0
C661 C 0.50052 0.80112 0.4498 0.0
C662 C 0.49104 0.84869 0.46302 0.0
C663 C 0.49693 0.84685 0.49015 0.0
C664 C 0.50464 0.8219 0.49693 0.0
C665 C 0.50593 0.79912 0.47671 0.0
C666 C 0.48202 0.87459 0.45496 0.0
C667 C 0.5118 0.81941 0.52543 0.0
H668 H 0.52301 0.93571 0.52924 0.0
H669 H 0.44768 0.90355 0.54795 0.0
H670 H 0.5464 0.86925 0.50349 0.0
H671 H 0.53854 0.8911 0.47975 0.0
H672 H 0.55433 0.90589 0.51056 0.0
H673 H 0.43294 0.85695 0.53526 0.0
H674 H 0.4413 0.85078 0.50001 0.0
H675 H 0.4553 0.83222 0.52328 0.0
H676 H 0.48892 0.82751 0.42242 0.0
H677 H 0.51171 0.77996 0.48182 0.0
H678 H 0.49697 0.89184 0.45931 0.0
H679 H 0.46485 0.88033 0.46692 0.0
H680 H 0.47728 0.87229 0.43321 0.0
H681 H 0.52743 0.83527 0.53232 0.0
H682 H 0.51806 0.79885 0.52729 0.0
H683 H 0.49535 0.82318 0.53921 0.0
C684 C 0.13098 0.27666 0.76095 0.0
C685 C 0.15178 0.26069 0.75878 0.0
C686 C 0.1094 0.26975 0.7763 0.0
C687 C 0.10875 0.24633 0.7898 0.0
C688 C 0.1297 0.22998 0.7874 0.0
C689 C 0.15099 0.23738 0.77185 0.0
C690 C 0.08743 0.28764 0.77828 0.0
C691 C 0.12976 0.20494 0.80156 0.0
C692 C 0.06463 0.24409 0.85049 0.0
C693 C 0.04387 0.22656 0.83958 0.0
C694 C 0.0859 0.25057 0.83453 0.0
C695 C 0.08641 0.23934 0.80696 0.0
C696 C 0.06554 0.22164 0.79579 0.0
C697 C 0.04453 0.21542 0.81225 0.0
C698 C 0.10784 0.26946 0.84719 0.0
C699 C 0.06538 0.20936 0.76643 0.0
H700 H 0.13169 0.29454 0.75057 0.0
H701 H 0.16728 0.22526 0.7702 0.0
H702 H 0.06964 0.27512 0.7714 0.0
H703 H 0.08437 0.29646 0.7996 0.0
H704 H 0.09072 0.30474 0.76604 0.0
H705 H 0.14728 0.19406 0.79708 0.0
H706 H 0.12832 0.21103 0.82367 0.0
H707 H 0.11295 0.19041 0.79544 0.0
H708 H 0.06433 0.25275 0.8716 0.0
H709 H 0.02857 0.20189 0.80364 0.0
H710 H 0.11086 0.28787 0.83674 0.0
H711 H 0.12566 0.25889 0.84485 0.0
H712 H 0.10457 0.27628 0.86898 0.0
H713 H 0.06713 0.22597 0.75354 0.0
H714 H 0.04772 0.19591 0.76088 0.0
H715 H 0.08202 0.19714 0.76184 0.0
C716 C 0.54932 0.58422 0.53496 0.0
C717 C 0.54102 0.55641 0.52862 0.0
C718 C 0.54525 0.60299 0.51723 0.0
C719 C 0.53234 0.59361 0.4927 0.0
C720 C 0.52616 0.56506 0.48513 0.0
C721 C 0.53065 0.54674 0.50326 0.0
C722 C 0.55248 0.63314 0.52602 0.0
C723 C 0.5125 0.55412 0.45916 0.0
C724 C 0.48857 0.64366 0.47118 0.0
C725 C 0.50291 0.65482 0.45083 0.0
C726 C 0.49774 0.6233 0.48444 0.0
C727 C 0.52195 0.61385 0.47729 0.0
C728 C 0.53632 0.62459 0.4564 0.0
C729 C 0.52663 0.64491 0.44339 0.0
C730 C 0.48171 0.6123 0.50654 0.0
C731 C 0.5622 0.61511 0.44827 0.0
H732 H 0.55706 0.59153 0.5548 0.0
H733 H 0.52391 0.52522 0.49871 0.0
H734 H 0.5615 0.64291 0.50915 0.0
H735 H 0.53505 0.6436 0.53218 0.0
H736 H 0.56578 0.63658 0.54333 0.0
H737 H 0.51302 0.53153 0.45409 0.0
H738 H 0.49227 0.55882 0.46117 0.0
H739 H 0.52101 0.56413 0.4422 0.0
H740 H 0.47021 0.65107 0.47703 0.0
H741 H 0.53789 0.65338 0.42769 0.0
H742 H 0.49188 0.61736 0.52601 0.0
H743 H 0.47855 0.5896 0.50224 0.0
H744 H 0.46287 0.62091 0.50888 0.0
H745 H 0.57557 0.62092 0.46534 0.0
H746 H 0.57029 0.62419 0.43054 0.0
H747 H 0.56096 0.5924 0.44344 0.0
C748 C 0.83526 0.76483 0.76973 0.0
C749 C 0.83509 0.78739 0.78998 0.0
C750 C 0.85717 0.76022 0.75378 0.0
C751 C 0.8794 0.77858 0.75844 0.0
C752 C 0.87972 0.80031 0.78019 0.0
C753 C 0.85746 0.80455 0.79557 0.0
C754 C 0.85594 0.73687 0.73079 0.0
C755 C 0.90304 0.82014 0.78618 0.0
C756 C 0.94234 0.75863 0.72592 0.0
C757 C 0.94402 0.77324 0.70371 0.0
C758 C 0.92147 0.76013 0.74386 0.0
C759 C 0.90159 0.7764 0.73941 0.0
C760 C 0.90306 0.79107 0.71695 0.0
C761 C 0.9243 0.78943 0.69946 0.0
C762 C 0.9208 0.74446 0.7677 0.0
C763 C 0.88216 0.80853 0.71139 0.0
H764 H 0.81768 0.75201 0.76519 0.0
H765 H 0.85699 0.82223 0.81102 0.0
H766 H 0.85654 0.74529 0.71135 0.0
H767 H 0.87265 0.72473 0.73108 0.0
H768 H 0.83827 0.72292 0.7315 0.0
H769 H 0.90113 0.83393 0.80551 0.0
H770 H 0.92022 0.80882 0.78708 0.0
H771 H 0.90618 0.83298 0.76973 0.0
H772 H 0.9575 0.74613 0.72949 0.0
H773 H 0.92536 0.8007 0.68235 0.0
H774 H 0.90337 0.73004 0.76708 0.0
H775 H 0.92 0.75892 0.78671 0.0
H776 H 0.9377 0.73259 0.76826 0.0
H777 H 0.86367 0.79583 0.70927 0.0
H778 H 0.88587 0.81817 0.69278 0.0
H779 H 0.88018 0.82501 0.72861 0.0
C780 C 0.04668 0.95977 0.53891 0.0
C781 C 0.05439 0.95054 0.51257 0.0
C782 C 0.04184 0.9413 0.55775 0.0
C783 C 0.04491 0.91304 0.54989 0.0
C784 C 0.05528 0.90429 0.52411 0.0
C785 C 0.05973 0.92318 0.50569 0.0
C786 C 0.03091 0.95159 0.58498 0.0
C787 C 0.05919 0.87449 0.51493 0.0
C788 C 0.03709 0.86152 0.60021 0.0
C789 C 0.01201 0.84999 0.59513 0.0
C790 C 0.04801 0.88245 0.58607 0.0
C791 C 0.03347 0.89217 0.56653 0.0
C792 C 0.00794 0.88111 0.56188 0.0
C793 C 0.99758 0.86015 0.57615 0.0
C794 C 0.07528 0.89362 0.59151 0.0
C795 C 0.99165 0.89101 0.54137 0.0
H796 H 0.04212 0.98089 0.54389 0.0
H797 H 0.06528 0.91615 0.4851 0.0
H798 H 0.0101 0.94566 0.58514 0.0
H799 H 0.03949 0.94218 0.6011 0.0
H800 H 0.03398 0.97431 0.58976 0.0
H801 H 0.07115 0.87182 0.49637 0.0
H802 H 0.0683 0.86544 0.53097 0.0
H803 H 0.04042 0.86279 0.51061 0.0
H804 H 0.04843 0.85377 0.61479 0.0
H805 H 0.97818 0.8515 0.57215 0.0
H806 H 0.07658 0.91634 0.59606 0.0
H807 H 0.08711 0.88834 0.57325 0.0
H808 H 0.08347 0.88526 0.60859 0.0
H809 H 0.99085 0.91358 0.5459 0.0
H810 H 0.97188 0.88108 0.54091 0.0
H811 H 1.00023 0.88662 0.52097 0.0
C812 C 0.12897 0.71013 0.77268 0.0
C813 C 0.1546 0.71192 0.76473 0.0
C814 C 0.10996 0.71608 0.75577 0.0
C815 C 0.11686 0.72386 0.73027 0.0
C816 C 0.14277 0.72542 0.72206 0.0
C817 C 0.16138 0.71946 0.73948 0.0
C818 C 0.08254 0.71418 0.76524 0.0
C819 C 0.15084 0.7336 0.69502 0.0
C820 C 0.06508 0.71598 0.67755 0.0
C821 C 0.05789 0.74289 0.67942 0.0
C822 C 0.08447 0.70956 0.69375 0.0
C823 C 0.09692 0.73053 0.71231 0.0
C824 C 0.08995 0.75778 0.71412 0.0
C825 C 0.07053 0.76365 0.69762 0.0
C826 C 0.09147 0.68028 0.69121 0.0
C827 C 0.10279 0.78067 0.73373 0.0
H828 H 0.12391 0.70405 0.79219 0.0
H829 H 0.18131 0.72102 0.7336 0.0
H830 H 0.07469 0.73439 0.7658 0.0
H831 H 0.07087 0.69923 0.75086 0.0
H832 H 0.08041 0.70776 0.7856 0.0
H833 H 0.17171 0.73331 0.6915 0.0
H834 H 0.14082 0.71948 0.67863 0.0
H835 H 0.14539 0.75456 0.69365 0.0
H836 H 0.05547 0.69983 0.66348 0.0
H837 H 0.0651 0.78449 0.6992 0.0
H838 H 0.08797 0.67226 0.71068 0.0
H839 H 0.11208 0.67946 0.68644 0.0
H840 H 0.08041 0.66651 0.67529 0.0
H841 H 0.09974 0.77602 0.75465 0.0
H842 H 0.09549 0.80085 0.73229 0.0
H843 H 0.12366 0.78233 0.72994 0.0
C844 C 0.9783 0.61946 0.47796 0.0
C845 C 0.98487 0.59605 0.48805 0.0
C846 C 0.98524 0.64579 0.49173 0.0
C847 C 0.99896 0.64849 0.51613 0.0
C848 C 0.00746 0.62484 0.52502 0.0
C849 C 1.00022 0.59884 0.51083 0.0
C850 C 0.97597 0.67043 0.48143 0.0
C851 C 0.02223 0.62673 0.5508 0.0
C852 C 0.02554 0.71814 0.55169 0.0
C853 C 0.00682 0.72392 0.57156 0.0
C854 C 0.02303 0.694 0.53301 0.0
C855 C 1.0013 0.6752 0.53426 0.0
C856 C 0.98205 0.68126 0.55382 0.0
C857 C 0.98503 0.70553 0.57219 0.0
C858 C 0.04389 0.68828 0.51241 0.0
C859 C 0.95853 0.66175 0.5558 0.0
H860 H 0.96611 0.61699 0.46048 0.0
H861 H 0.00493 0.58049 0.51858 0.0
H862 H 0.95983 0.6778 0.49421 0.0
H863 H 0.99124 0.68752 0.48264 0.0
H864 H 0.96935 0.66546 0.46026 0.0
H865 H 0.03032 0.6071 0.5529 0.0
H866 H 0.03798 0.64328 0.55168 0.0
H867 H 0.00941 0.63192 0.56827 0.0
H868 H 0.04244 0.73225 0.551 0.0
H869 H 0.97043 0.70981 0.58739 0.0
H870 H 0.03576 0.68367 0.49186 0.0
H871 H 0.05317 0.6699 0.51628 0.0
H872 H 0.05869 0.70582 0.51285 0.0
H873 H 0.94858 0.6576 0.53616 0.0
H874 H 0.94494 0.66992 0.57153 0.0
H875 H 0.96407 0.64182 0.56061 0.0
C876 C 0.72976 0.84619 0.21562 0.0
C877 C 0.73307 0.82207 0.22626 0.0
C878 C 0.74743 0.86923 0.22093 0.0
C879 C 0.76873 0.86793 0.23739 0.0
C880 C 0.77304 0.84279 0.24642 0.0
C881 C 0.75507 0.8201 0.2407 0.0
C882 C 0.74225 0.89552 0.21068 0.0
C883 C 0.79549 0.84047 0.26393 0.0
C884 C 0.82139 0.92639 0.24434 0.0
C885 C 0.81413 0.94237 0.26827 0.0
C886 C 0.80683 0.9021 0.23395 0.0
C887 C 0.78459 0.89353 0.24789 0.0
C888 C 0.77728 0.90947 0.27213 0.0
C889 C 0.79209 0.9337 0.28198 0.0
C890 C 0.81515 0.8857 0.20802 0.0
C891 C 0.75373 0.90094 0.28769 0.0
H892 H 0.7125 0.84746 0.20463 0.0
H893 H 0.75724 0.80132 0.24902 0.0
H894 H 0.73615 0.91046 0.22775 0.0
H895 H 0.7598 0.90493 0.20186 0.0
H896 H 0.72704 0.89212 0.19524 0.0
H897 H 0.79793 0.81879 0.26625 0.0
H898 H 0.81332 0.84957 0.25539 0.0
H899 H 0.79263 0.85209 0.28423 0.0
H900 H 0.83836 0.93295 0.23355 0.0
H901 H 0.78636 0.94586 0.30048 0.0
H902 H 0.79995 0.88405 0.19273 0.0
H903 H 0.8182 0.8645 0.21143 0.0
H904 H 0.833 0.89507 0.19968 0.0
H905 H 0.73665 0.89963 0.27483 0.0
H906 H 0.75076 0.9155 0.30628 0.0
H907 H 0.7552 0.88023 0.29343 0.0
C908 C 0.73004 0.15677 0.32332 0.0
C909 C 0.73233 0.17643 0.30568 0.0
C910 C 0.74741 0.13658 0.32206 0.0
C911 C 0.76751 0.13635 0.30279 0.0
C912 C 0.7709 0.15757 0.28638 0.0
C913 C 0.75316 0.17732 0.28798 0.0
C914 C 0.74311 0.11439 0.33993 0.0
C915 C 0.7922 0.15832 0.2658 0.0
C916 C 0.82105 0.08955 0.30427 0.0
C917 C 0.81326 0.06771 0.28425 0.0
C918 C 0.8062 0.11191 0.31091 0.0
C919 C 0.78296 0.1123 0.29735 0.0
C920 C 0.77475 0.09001 0.27758 0.0
C921 C 0.79003 0.06808 0.27122 0.0
C922 C 0.81562 0.13536 0.33198 0.0
C923 C 0.74997 0.08953 0.26279 0.0
H924 H 0.71374 0.15618 0.33684 0.0
H925 H 0.75479 0.19276 0.27451 0.0
H926 H 0.73596 0.09486 0.32759 0.0
H927 H 0.76124 0.11078 0.34917 0.0
H928 H 0.729 0.11957 0.35623 0.0
H929 H 0.79409 0.17791 0.25711 0.0
H930 H 0.81061 0.15553 0.27497 0.0
H931 H 0.78845 0.14116 0.24914 0.0
H932 H 0.83899 0.08944 0.31444 0.0
H933 H 0.78376 0.05123 0.25587 0.0
H934 H 0.80086 0.13923 0.34784 0.0
H935 H 0.81927 0.15441 0.3226 0.0
H936 H 0.83344 0.13132 0.34164 0.0
H937 H 0.73394 0.09187 0.27742 0.0
H938 H 0.74585 0.0702 0.24874 0.0
H939 H 0.75069 0.10706 0.25107 0.0
C940 C 0.41821 0.99702 0.99334 0.0
C941 C 0.41531 0.02089 0.98202 0.0
C942 C 0.39685 0.98056 1.00074 0.0
C943 C 0.3721 0.98822 0.99658 0.0
C944 C 0.36916 0.01214 0.98469 0.0
C945 C 0.39086 0.02822 0.97758 0.0
C946 C 0.40077 0.95527 0.01343 0.0
C947 C 0.34311 0.0209 0.97976 0.0
C948 C 0.31597 0.9342 0.99505 0.0
C949 C 0.3054 0.94033 0.02091 0.0
C950 C 0.33772 0.94956 0.98688 0.0
C951 C 0.34926 0.9715 0.00506 0.0
C952 C 0.33881 0.97769 0.03125 0.0
C953 C 0.31696 0.96207 0.03884 0.0
C954 C 0.34824 0.94244 0.95874 0.0
C955 C 0.35069 1.00086 0.05123 0.0
H956 H 0.43724 0.99166 0.9969 0.0
H957 H 0.38885 0.04669 0.96868 0.0
H958 H 0.39245 0.95725 0.03407 0.0
H959 H 0.39074 0.93688 0.00164 0.0
H960 H 0.42124 0.95184 0.01468 0.0
H961 H 0.34414 0.03965 0.96971 0.0
H962 H 0.33177 0.00412 0.96702 0.0
H963 H 0.3327 0.02502 0.99919 0.0
H964 H 0.30715 0.91746 0.98103 0.0
H965 H 0.30897 0.96691 0.05888 0.0
H966 H 0.36834 0.93757 0.95969 0.0
H967 H 0.34813 0.96035 0.94763 0.0
H968 H 0.33713 0.92463 0.94712 0.0
H969 H 0.37085 0.99756 0.05466 0.0
H970 H 0.34046 0.00277 0.07094 0.0
H971 H 0.35065 0.02059 0.04301 0.0
C972 C 0.27258 0.36936 0.30628 0.0
C973 C 0.26413 0.34141 0.30263 0.0
C974 C 0.25566 0.38942 0.30439 0.0
C975 C 0.22958 0.38129 0.2991 0.0
C976 C 0.22094 0.35303 0.29549 0.0
C977 C 0.23839 0.33341 0.29713 0.0
C978 C 0.26566 0.41931 0.30816 0.0
C979 C 0.19328 0.34353 0.29003 0.0
C980 C 0.18266 0.43493 0.31956 0.0
C981 C 0.17822 0.44399 0.29489 0.0
C982 C 0.19898 0.4142 0.32113 0.0
C983 C 0.21134 0.4024 0.29751 0.0
C984 C 0.20671 0.4112 0.27249 0.0
C985 C 0.19012 0.43179 0.27146 0.0
C986 C 0.20323 0.40515 0.34814 0.0
C987 C 0.21967 0.39925 0.2469 0.0
H988 H 0.29245 0.37545 0.31084 0.0
H989 H 0.232 0.31174 0.29408 0.0
H990 H 0.26131 0.42881 0.29017 0.0
H991 H 0.25605 0.43057 0.32569 0.0
H992 H 0.28657 0.42215 0.31147 0.0
H993 H 0.18963 0.32082 0.28798 0.0
H994 H 0.18117 0.35279 0.30665 0.0
H995 H 0.18725 0.35053 0.27123 0.0
H996 H 0.17349 0.44414 0.33774 0.0
H997 H 0.18685 0.43869 0.25231 0.0
H998 H 0.22359 0.40956 0.35373 0.0
H999 H 0.19866 0.38264 0.34695 0.0
H1000 H 0.19144 0.41562 0.36441 0.0
H1001 H 0.24064 0.40332 0.24893 0.0
H1002 H 0.21366 0.40794 0.22899 0.0
H1003 H 0.21536 0.37664 0.24334 0.0
C1004 C 0.09149 0.02711 0.50697 0.0
C1005 C 0.08782 0.99949 0.4957 0.0
C1006 C 0.11608 0.04013 0.51154 0.0
C1007 C 0.13754 0.0251 0.50462 0.0
C1008 C 0.13383 0.99666 0.49482 0.0
C1009 C 0.10891 0.98416 0.49049 0.0
C1010 C 0.11907 0.07039 0.52224 0.0
C1011 C 0.15613 0.97984 0.48734 0.0
C1012 C 0.19713 0.06769 0.48523 0.0
C1013 C 0.21119 0.07161 0.50913 0.0
C1014 C 0.17349 0.05193 0.48328 0.0
C1015 C 0.16363 0.03974 0.50575 0.0
C1016 C 0.17806 0.04296 0.52966 0.0
C1017 C 0.20163 0.05884 0.53107 0.0
C1018 C 0.15872 0.04896 0.45737 0.0
C1019 C 0.16827 0.03028 0.55402 0.0
H1020 H 0.07502 0.03881 0.51088 0.0
H1021 H 0.10592 0.96287 0.48146 0.0
H1022 H 0.1323 0.0743 0.53956 0.0
H1023 H 0.12746 0.08203 0.50632 0.0
H1024 H 0.10058 0.07849 0.52879 0.0
H1025 H 0.15014 0.95752 0.48307 0.0
H1026 H 0.16576 0.9864 0.46911 0.0
H1027 H 0.17034 0.98327 0.50376 0.0
H1028 H 0.20434 0.07737 0.46815 0.0
H1029 H 0.21235 0.06161 0.54962 0.0
H1030 H 0.14053 0.05868 0.46113 0.0
H1031 H 0.15383 0.02692 0.44988 0.0
H1032 H 0.16952 0.05858 0.44135 0.0
H1033 H 0.1508 0.03975 0.56194 0.0
H1034 H 0.18254 0.03308 0.57042 0.0
H1035 H 0.16298 0.00799 0.54835 0.0
C1036 C 0.7751 0.16287 0.72884 0.0
C1037 C 0.7768 0.18759 0.74642 0.0
C1038 C 0.75838 0.14055 0.73425 0.0
C1039 C 0.74308 0.14314 0.75791 0.0
C1040 C 0.74668 0.16718 0.77703 0.0
C1041 C 0.76356 0.18923 0.77099 0.0
C1042 C 0.75534 0.11531 0.71337 0.0
C1043 C 0.73105 0.17066 0.80266 0.0
C1044 C 0.67678 0.10603 0.75032 0.0
C1045 C 0.67948 0.08234 0.76213 0.0
C1046 C 0.69723 0.12613 0.74931 0.0
C1047 C 0.72099 0.1226 0.76054 0.0
C1048 C 0.72372 0.09904 0.77304 0.0
C1049 C 0.70296 0.07914 0.7736 0.0
C1050 C 0.69354 0.15092 0.73568 0.0
C1051 C 0.74866 0.09465 0.78537 0.0
H1052 H 0.78541 0.16187 0.70982 0.0
H1053 H 0.76483 0.20854 0.78439 0.0
H1054 H 0.75478 0.09638 0.72303 0.0
H1055 H 0.73701 0.11495 0.70276 0.0
H1056 H 0.771 0.11491 0.69816 0.0
H1057 H 0.73912 0.18812 0.81732 0.0
H1058 H 0.71136 0.1746 0.79782 0.0
H1059 H 0.7298 0.15168 0.8123 0.0
H1060 H 0.65875 0.10873 0.74143 0.0
H1061 H 0.70521 0.06097 0.78291 0.0
H1062 H 0.70664 0.15135 0.71808 0.0
H1063 H 0.69829 0.17004 0.74977 0.0
H1064 H 0.6737 0.15098 0.72861 0.0
H1065 H 0.76356 0.09229 0.76943 0.0
H1066 H 0.74723 0.07614 0.79581 0.0
H1067 H 0.75511 0.11282 0.80003 0.0
C1068 C 0.43656 0.01687 0.52257 0.0
C1069 C 0.43461 0.00267 0.54488 0.0
C1070 C 0.41664 0.0318 0.51601 0.0
C1071 C 0.39428 0.03245 0.53224 0.0
C1072 C 0.39263 0.01875 0.55534 0.0
C1073 C 0.41291 0.00403 0.5614 0.0
C1074 C 0.41923 0.04622 0.49133 0.0
C1075 C 0.36916 0.01892 0.57313 0.0
C1076 C 0.34881 0.08702 0.5259 0.0
C1077 C 0.33027 0.07236 0.5085 0.0
C1078 C 0.36973 0.07432 0.53385 0.0
C1079 C 0.37214 0.04628 0.52426 0.0
C1080 C 0.35344 0.03136 0.5068 0.0
C1081 C 0.33279 0.04457 0.49911 0.0
C1082 C 0.38932 0.09093 0.55242 0.0
C1083 C 0.35527 1.00139 0.4962 0.0
H1084 H 0.45356 0.01578 0.51003 0.0
H1085 H 0.41161 0.9929 0.57861 0.0
H1086 H 0.40468 0.03687 0.47631 0.0
H1087 H 0.41573 0.06817 0.49671 0.0
H1088 H 0.43838 0.04498 0.48174 0.0
H1089 H 0.37147 0.00853 0.59111 0.0
H1090 H 0.36465 0.04033 0.58 0.0
H1091 H 0.35258 0.00836 0.56147 0.0
H1092 H 0.34705 0.1085 0.53327 0.0
H1093 H 0.31856 0.03304 0.48572 0.0
H1094 H 0.40835 0.09109 0.5425 0.0
H1095 H 0.39077 0.08135 0.57102 0.0
H1096 H 0.38463 0.11249 0.5582 0.0
H1097 H 0.37328 0.99881 0.4846 0.0
H1098 H 0.33906 0.99265 0.48296 0.0
H1099 H 0.35571 0.98933 0.51325 0.0
C1100 C 0.56805 0.47969 0.52549 0.0
C1101 C 0.56919 0.50684 0.5383 0.0
C1102 C 0.59038 0.46683 0.5182 0.0
C1103 C 0.61441 0.48154 0.524 0.0
C1104 C 0.61555 0.50969 0.53503 0.0
C1105 C 0.59283 0.52204 0.54203 0.0
C1106 C 0.58821 0.43691 0.50624 0.0
C1107 C 0.64072 0.52618 0.54141 0.0
C1108 C 0.66745 0.43892 0.53995 0.0
C1109 C 0.68141 0.43628 0.51572 0.0
C1110 C 0.64588 0.45396 0.54297 0.0
C1111 C 0.63799 0.46668 0.52124 0.0
C1112 C 0.65215 0.46437 0.49684 0.0
C1113 C 0.67368 0.44923 0.49437 0.0
C1114 C 0.63132 0.45595 0.56938 0.0
C1115 C 0.64434 0.47757 0.47322 0.0
H1116 H 0.54964 0.46806 0.52282 0.0
H1117 H 0.59354 0.54294 0.55229 0.0
H1118 H 0.60108 0.43345 0.4885 0.0
H1119 H 0.59415 0.42438 0.52137 0.0
H1120 H 0.56843 0.42944 0.49997 0.0
H1121 H 0.63847 0.54849 0.54642 0.0
H1122 H 0.64942 0.5191 0.5589 0.0
H1123 H 0.65417 0.52302 0.52415 0.0
H1124 H 0.67328 0.42907 0.55657 0.0
H1125 H 0.68433 0.44737 0.47556 0.0
H1126 H 0.61152 0.44658 0.56598 0.0
H1127 H 0.63015 0.47782 0.57785 0.0
H1128 H 0.64028 0.44548 0.58452 0.0
H1129 H 0.62513 0.46864 0.46632 0.0
H1130 H 0.65789 0.47471 0.45596 0.0
H1131 H 0.64308 0.4999 0.47941 0.0
C1132 C 0.73584 0.23545 0.35069 0.0
C1133 C 0.71258 0.21941 0.34865 0.0
C1134 C 0.7435 0.2509 0.37534 0.0
C1135 C 0.72747 0.24995 0.39834 0.0
C1136 C 0.70504 0.23175 0.39674 0.0
C1137 C 0.69779 0.21679 0.37178 0.0
C1138 C 0.76752 0.27005 0.37613 0.0
C1139 C 0.68761 0.22978 0.42081 0.0
C1140 C 0.75131 0.28539 0.46676 0.0
C1141 C 0.7404 0.31056 0.46865 0.0
C1142 C 0.74723 0.26532 0.44406 0.0
C1143 C 0.73211 0.27068 0.4227 0.0
C1144 C 0.72107 0.29603 0.42453 0.0
C1145 C 0.72525 0.31558 0.4475 0.0
C1146 C 0.75905 0.23841 0.44293 0.0
C1147 C 0.70491 0.30262 0.4021 0.0
H1148 H 0.74701 0.23752 0.33256 0.0
H1149 H 0.67975 0.20432 0.36989 0.0
H1150 H 0.76238 0.29152 0.3774 0.0
H1151 H 0.77886 0.26873 0.39423 0.0
H1152 H 0.77959 0.26548 0.35788 0.0
H1153 H 0.6733 0.21174 0.41738 0.0
H1154 H 0.69872 0.22834 0.43904 0.0
H1155 H 0.67732 0.24861 0.42495 0.0
H1156 H 0.76299 0.28132 0.48305 0.0
H1157 H 0.71683 0.33498 0.44873 0.0
H1158 H 0.77186 0.23544 0.4251 0.0
H1159 H 0.74395 0.22111 0.44059 0.0
H1160 H 0.77016 0.23733 0.4613 0.0
H1161 H 0.71606 0.30137 0.38299 0.0
H1162 H 0.69801 0.32342 0.40649 0.0
H1163 H 0.68816 0.28731 0.3988 0.0
C1164 C 0.50145 0.0735 0.9257 0.0
C1165 C 0.49809 0.05517 0.94463 0.0
C1166 C 0.52178 0.07195 0.90708 0.0
C1167 C 0.5391 0.05162 0.90759 0.0
C1168 C 0.53655 0.03415 0.9278 0.0
C1169 C 0.51603 0.03616 0.94609 0.0
C1170 C 0.52384 0.09102 0.88593 0.0
C1171 C 0.55468 0.01238 0.92925 0.0
C1172 C 0.57074 0.02363 0.84179 0.0
C1173 C 0.59529 0.03722 0.84429 0.0
C1174 C 0.55229 0.02833 0.86216 0.0
C1175 C 0.5585 0.04703 0.8857 0.0
C1176 C 0.58322 0.06084 0.88837 0.0
C1177 C 0.60131 0.0558 0.86763 0.0
C1178 C 0.52612 0.01321 0.8585 0.0
C1179 C 0.59057 0.08083 0.9132 0.0
H1180 H 0.48739 0.08806 0.92461 0.0
H1181 H 0.5134 0.02222 0.961 0.0
H1182 H 0.54356 0.10076 0.8849 0.0
H1183 H 0.51943 0.07907 0.86587 0.0
H1184 H 0.51052 0.1074 0.88995 0.0
H1185 H 0.55151 0.00224 0.94763 0.0
H1186 H 0.55217 0.99646 0.91131 0.0
H1187 H 0.57471 0.02144 0.92901 0.0
H1188 H 0.56586 0.00929 0.82385 0.0
H1189 H 0.62021 0.06642 0.86977 0.0
H1190 H 0.51142 0.02812 0.85973 0.0
H1191 H 0.52204 1.00051 0.87494 0.0
H1192 H 0.52423 0.99961 0.83888 0.0
H1193 H 0.57755 0.09752 0.916 0.0
H1194 H 0.61047 0.09016 0.91206 0.0
H1195 H 0.58856 0.07022 0.93133 0.0
C1196 C 0.28712 0.2399 0.32868 0.0
C1197 C 0.30438 0.26331 0.33131 0.0
C1198 C 0.28564 0.22194 0.34815 0.0
C1199 C 0.30177 0.22771 0.37088 0.0
C1200 C 0.32086 0.25001 0.37225 0.0
C1201 C 0.32192 0.26759 0.35236 0.0
C1202 C 0.26514 0.19838 0.34565 0.0
C1203 C 0.33856 0.25685 0.39597 0.0
C1204 C 0.27178 0.20984 0.43655 0.0
C1205 C 0.28252 0.18546 0.43964 0.0
C1206 C 0.27821 0.22384 0.4145 0.0
C1207 C 0.29591 0.21332 0.39489 0.0
C1208 C 0.30706 0.18886 0.39795 0.0
C1209 C 0.30023 0.1752 0.42027 0.0
C1210 C 0.26578 0.24983 0.41206 0.0
C1211 C 0.326 0.17702 0.37752 0.0
H1212 H 0.27344 0.23691 0.31244 0.0
H1213 H 0.33499 0.28598 0.35447 0.0
H1214 H 0.27274 0.17945 0.35059 0.0
H1215 H 0.24953 0.20347 0.36021 0.0
H1216 H 0.25698 0.19412 0.32507 0.0
H1217 H 0.35489 0.27156 0.39186 0.0
H1218 H 0.32789 0.26625 0.41373 0.0
H1219 H 0.346 0.23801 0.40136 0.0
H1220 H 0.25814 0.21802 0.45136 0.0
H1221 H 0.30871 0.15642 0.42248 0.0
H1222 H 0.25458 0.24708 0.39321 0.0
H1223 H 0.28056 0.26708 0.41084 0.0
H1224 H 0.25288 0.25566 0.42933 0.0
H1225 H 0.3168 0.17151 0.35755 0.0
H1226 H 0.33368 0.15842 0.38328 0.0
H1227 H 0.34212 0.19258 0.37518 0.0
C1228 C 0.48586 0.51285 0.94907 0.0
C1229 C 0.49812 0.48879 0.94846 0.0
C1230 C 0.4661 0.51424 0.93109 0.0
C1231 C 0.45853 0.49093 0.91219 0.0
C1232 C 0.4708 0.46645 0.9118 0.0
C1233 C 0.49049 0.4657 0.93003 0.0
C1234 C 0.4535 0.54068 0.93213 0.0
C1235 C 0.46331 0.44119 0.89197 0.0
C1236 C 0.39362 0.48601 0.8792 0.0
C1237 C 0.40008 0.49421 0.85406 0.0
C1238 C 0.41243 0.485 0.89842 0.0
C1239 C 0.43828 0.49234 0.89232 0.0
C1240 C 0.44489 0.50075 0.86704 0.0
C1241 C 0.42573 0.5016 0.84824 0.0
C1242 C 0.40469 0.47594 0.9252 0.0
C1243 C 0.47225 0.50871 0.85978 0.0
H1244 H 0.49188 0.5305 0.96363 0.0
H1245 H 0.50014 0.44717 0.92987 0.0
H1246 H 0.45623 0.54872 0.91258 0.0
H1247 H 0.43267 0.53684 0.9354 0.0
H1248 H 0.46126 0.5567 0.94842 0.0
H1249 H 0.47436 0.42364 0.89475 0.0
H1250 H 0.44273 0.43488 0.89418 0.0
H1251 H 0.46644 0.44587 0.87107 0.0
H1252 H 0.37386 0.48029 0.88387 0.0
H1253 H 0.43094 0.50795 0.82887 0.0
H1254 H 0.41098 0.49223 0.94188 0.0
H1255 H 0.41421 0.45736 0.92792 0.0
H1256 H 0.38376 0.47125 0.92696 0.0
H1257 H 0.48033 0.52588 0.87471 0.0
H1258 H 0.47418 0.51508 0.83938 0.0
H1259 H 0.48389 0.49114 0.86044 0.0
C1260 C 0.7432 0.74839 0.19036 0.0
C1261 C 0.72553 0.76777 0.1896 0.0
C1262 C 0.75439 0.73613 0.1665 0.0
C1263 C 0.74747 0.7434 0.14142 0.0
C1264 C 0.73068 0.76423 0.14088 0.0
C1265 C 0.71996 0.77623 0.16509 0.0
C1266 C 0.77241 0.71428 0.16802 0.0
C1267 C 0.72273 0.77255 0.11463 0.0
C1268 C 0.7851 0.72013 0.07777 0.0
C1269 C 0.77026 0.69626 0.06691 0.0
C1270 C 0.77808 0.73566 0.10211 0.0
C1271 C 0.75556 0.72725 0.11574 0.0
C1272 C 0.74043 0.70329 0.10477 0.0
C1273 C 0.74801 0.68805 0.0806 0.0
C1274 C 0.79478 0.76095 0.11331 0.0
C1275 C 0.71615 0.69374 0.11854 0.0
H1276 H 0.74731 0.74201 0.20954 0.0
H1277 H 0.70612 0.7912 0.16483 0.0
H1278 H 0.76303 0.69392 0.15968 0.0
H1279 H 0.78976 0.71803 0.15568 0.0
H1280 H 0.7782 0.71341 0.18906 0.0
H1281 H 0.71173 0.79094 0.11785 0.0
H1282 H 0.73966 0.77693 0.10191 0.0
H1283 H 0.7107 0.75535 0.10325 0.0
H1284 H 0.80237 0.72657 0.0674 0.0
H1285 H 0.73636 0.66972 0.07233 0.0
H1286 H 0.8013 0.75884 0.13377 0.0
H1287 H 0.78371 0.77925 0.11534 0.0
H1288 H 0.81176 0.76465 0.10037 0.0
H1289 H 0.72038 0.68964 0.13913 0.0
H1290 H 0.70645 0.67479 0.10727 0.0
H1291 H 0.70279 0.7101 0.12069 0.0
C1292 C 0.98061 0.0112 0.09578 0.0
C1293 C 0.00539 0.02349 0.1002 0.0
C1294 C 0.96389 0.00792 0.11747 0.0
C1295 C 0.97229 0.01714 0.14413 0.0
C1296 C 0.99734 0.02973 0.14861 0.0
C1297 C 0.0136 0.03277 0.12652 0.0
C1298 C 0.93735 0.99437 0.11188 0.0
C1299 C 0.00699 0.03983 0.17673 0.0
C1300 C 0.92299 0.02943 0.19994 0.0
C1301 C 0.92294 0.00539 0.21193 0.0
C1302 C 0.93889 0.0335 0.17776 0.0
C1303 C 0.9551 0.01306 0.16737 0.0
C1304 C 0.95504 0.98871 0.17929 0.0
C1305 C 0.93897 0.98518 0.20142 0.0
C1306 C 0.93846 0.05973 0.16552 0.0
C1307 C 0.97205 0.96644 0.16873 0.0
H1308 H 0.9745 0.00394 0.07531 0.0
H1309 H 0.03276 0.04249 0.12969 0.0
H1310 H 0.93457 0.97538 0.12147 0.0
H1311 H 0.923 0.00823 0.12083 0.0
H1312 H 0.93361 0.98896 0.08996 0.0
H1313 H 0.02684 0.0495 0.1767 0.0
H1314 H 0.99451 0.05504 0.18716 0.0
H1315 H 0.00633 0.02246 0.18865 0.0
H1316 H 0.91065 0.04515 0.20793 0.0
H1317 H 0.93905 0.96653 0.21053 0.0
H1318 H 0.93346 0.05489 0.14388 0.0
H1319 H 0.95767 0.07097 0.16668 0.0
H1320 H 0.92458 0.07348 0.17582 0.0
H1321 H 0.96791 0.95904 0.14719 0.0
H1322 H 0.96959 0.94864 0.18015 0.0
H1323 H 0.99231 0.9748 0.16993 0.0
C1324 C 0.29008 0.79507 0.20052 0.0
C1325 C 0.29214 0.76685 0.19413 0.0
C1326 C 0.28635 0.81127 0.18023 0.0
C1327 C 0.28446 0.79877 0.15301 0.0
C1328 C 0.28651 0.77015 0.14657 0.0
C1329 C 0.29034 0.75454 0.16727 0.0
C1330 C 0.2843 0.84168 0.18792 0.0
C1331 C 0.28454 0.756 0.11786 0.0
C1332 C 0.25204 0.83393 0.10171 0.0
C1333 C 0.27301 0.84517 0.08796 0.0
C1334 C 0.25548 0.81913 0.12319 0.0
C1335 C 0.28046 0.81555 0.13118 0.0
C1336 C 0.30168 0.8273 0.11773 0.0
C1337 C 0.2977 0.84191 0.09629 0.0
C1338 C 0.23237 0.80687 0.137 0.0
C1339 C 0.32862 0.82403 0.1257 0.0
H1340 H 0.29115 0.80431 0.22145 0.0
H1341 H 0.29182 0.73262 0.16259 0.0
H1342 H 0.29917 0.85344 0.17717 0.0
H1343 H 0.26555 0.84716 0.18168 0.0
H1344 H 0.28644 0.84825 0.20995 0.0
H1345 H 0.28645 0.7336 0.11629 0.0
H1346 H 0.2659 0.75907 0.10934 0.0
H1347 H 0.29961 0.76518 0.10524 0.0
H1348 H 0.2329 0.83632 0.09544 0.0
H1349 H 0.31404 0.85057 0.08588 0.0
H1350 H 0.23302 0.81411 0.15898 0.0
H1351 H 0.23237 0.78417 0.13433 0.0
H1352 H 0.21425 0.81224 0.12897 0.0
H1353 H 0.33141 0.83164 0.14744 0.0
H1354 H 0.34304 0.83528 0.1139 0.0
H1355 H 0.3321 0.80196 0.12259 0.0
C1356 C 0.99292 0.46289 0.12171 0.0
C1357 C 1.00015 0.46321 0.09472 0.0
C1358 C 0.01113 0.46259 0.14166 0.0
C1359 C 0.03725 0.46248 0.13436 0.0
C1360 C 0.04446 0.46103 0.1068 0.0
C1361 C 0.02575 0.46143 0.08725 0.0
C1362 C 0.00252 0.46397 0.17072 0.0
C1363 C 0.07204 0.46061 0.09813 0.0
C1364 C 0.08344 0.49609 0.18906 0.0
C1365 C 0.09107 0.47331 0.19972 0.0
C1366 C 0.06648 0.49277 0.16733 0.0
C1367 C 0.05695 0.46602 0.15584 0.0
C1368 C 0.06512 0.44292 0.16599 0.0
C1369 C 0.08203 0.44683 0.18782 0.0
C1370 C 0.05821 0.51797 0.15713 0.0
C1371 C 0.05551 0.41408 0.15424 0.0
H1372 H 0.97301 0.4641 0.12726 0.0
H1373 H 0.03123 0.46186 0.06633 0.0
H1374 H 0.01046 0.44761 0.18022 0.0
H1375 H 0.00978 0.48398 0.1821 0.0
H1376 H 0.98142 0.46178 0.17276 0.0
H1377 H 0.07419 0.45626 0.07587 0.0
H1378 H 0.08236 0.48084 0.10518 0.0
H1379 H 0.08129 0.44493 0.10741 0.0
H1380 H 0.09034 0.51662 0.19802 0.0
H1381 H 0.08788 0.42907 0.19579 0.0
H1382 H 0.03738 0.51896 0.16031 0.0
H1383 H 0.06195 0.51677 0.13514 0.0
H1384 H 0.06818 0.53725 0.16744 0.0
H1385 H 0.03469 0.41086 0.15791 0.0
H1386 H 0.06504 0.39828 0.16311 0.0
H1387 H 0.05858 0.41096 0.13209 0.0
C1388 C 0.35435 0.71757 0.25745 0.0
C1389 C 0.32917 0.72183 0.26528 0.0
C1390 C 0.37294 0.71565 0.27661 0.0
C1391 C 0.36602 0.7174 0.30424 0.0
C1392 C 0.34011 0.71936 0.31192 0.0
C1393 C 0.322 0.72176 0.29232 0.0
C1394 C 0.40029 0.71374 0.26744 0.0
C1395 C 0.33178 0.72066 0.34103 0.0
C1396 C 0.41645 0.70154 0.35214 0.0
C1397 C 0.42721 0.72801 0.36199 0.0
C1398 C 0.39593 0.69767 0.334 0.0
C1399 C 0.38631 0.72077 0.32512 0.0
C1400 C 0.39693 0.7475 0.33528 0.0
C1401 C 0.41703 0.75077 0.3537 0.0
C1402 C 0.38479 0.6689 0.32405 0.0
C1403 C 0.38755 0.77271 0.3261 0.0
H1404 H 0.35968 0.71701 0.2364 0.0
H1405 H 0.30252 0.72507 0.29833 0.0
H1406 H 0.41166 0.73324 0.2749 0.0
H1407 H 0.40868 0.69705 0.27598 0.0
H1408 H 0.40212 0.70996 0.24512 0.0
H1409 H 0.31072 0.71763 0.34312 0.0
H1410 H 0.34047 0.70487 0.35072 0.0
H1411 H 0.33836 0.74103 0.35215 0.0
H1412 H 0.42411 0.68384 0.35854 0.0
H1413 H 0.42523 0.7713 0.36107 0.0
H1414 H 0.38843 0.66401 0.30209 0.0
H1415 H 0.36382 0.6673 0.32711 0.0
H1416 H 0.393 0.65329 0.33446 0.0
H1417 H 0.39023 0.77181 0.30397 0.0
H1418 H 0.39768 0.79205 0.3361 0.0
H1419 H 0.36686 0.77341 0.33042 0.0
C1420 C 0.97716 0.40515 0.0549 0.0
C1421 C 0.98422 0.42783 0.04167 0.0
C1422 C 0.97861 0.37827 0.04156 0.0
C1423 C 0.98716 0.37422 0.01437 0.0
C1424 C 0.99639 0.39722 0.00188 0.0
C1425 C 0.99487 0.42375 0.01577 0.0
C1426 C 0.96902 0.35435 0.0558 0.0
C1427 C 0.00571 0.39398 0.973 0.0
C1428 C 0.99935 0.30387 0.97671 0.0
C1429 C 0.97655 0.29657 0.96239 0.0
C1430 C 0.00284 0.32863 0.99448 0.0
C1431 C 0.98319 0.34665 0.99778 0.0
C1432 C 0.95996 0.3391 0.98382 0.0
C1433 C 0.95688 0.31415 0.96644 0.0
C1434 C 0.02775 0.3358 0.00922 0.0
C1435 C 0.93855 0.3578 0.98661 0.0
H1436 H 0.96876 0.40847 0.0749 0.0
H1437 H 1.00029 0.44148 0.00571 0.0
H1438 H 0.94994 0.34604 0.04795 0.0
H1439 H 0.98187 0.33756 0.0519 0.0
H1440 H 0.96732 0.36049 0.07792 0.0
H1441 H 0.01511 0.41347 0.96742 0.0
H1442 H 0.01936 0.37795 0.96948 0.0
H1443 H 0.98932 0.38729 0.95938 0.0
H1444 H 0.01461 0.29036 0.97385 0.0
H1445 H 0.9392 0.30874 0.95552 0.0
H1446 H 0.02418 0.34143 0.03111 0.0
H1447 H 0.03809 0.35393 0.00189 0.0
H1448 H 0.04023 0.31859 0.00631 0.0
H1449 H 0.93302 0.36265 0.00812 0.0
H1450 H 0.92141 0.34856 0.97503 0.0
H1451 H 0.94504 0.3775 0.97934 0.0
C1452 C 0.6572 0.77576 0.28674 0.0
C1453 C 0.65654 0.77052 0.25855 0.0
C1454 C 0.63539 0.77038 0.30231 0.0
C1455 C 0.61262 0.75849 0.28936 0.0
C1456 C 0.61213 0.75221 0.2609 0.0
C1457 C 0.63401 0.75875 0.24581 0.0
C1458 C 0.63658 0.77795 0.33255 0.0
C1459 C 0.58844 0.73884 0.2464 0.0
C1460 C 0.56352 0.72445 0.33344 0.0
C1461 C 0.54583 0.74424 0.33819 0.0
C1462 C 0.58497 0.72844 0.31689 0.0
C1463 C 0.58923 0.75322 0.30563 0.0
C1464 C 0.57145 0.77332 0.31049 0.0
C1465 C 0.54972 0.76837 0.32637 0.0
C1466 C 0.60307 0.70618 0.31148 0.0
C1467 C 0.57571 0.80033 0.2995 0.0
H1468 H 0.67478 0.78443 0.29655 0.0
H1469 H 0.63346 0.75497 0.224 0.0
H1470 H 0.62205 0.79244 0.33943 0.0
H1471 H 0.6321 0.75939 0.34252 0.0
H1472 H 0.6556 0.78763 0.33939 0.0
H1473 H 0.59178 0.73347 0.2244 0.0
H1474 H 0.58159 0.71987 0.25486 0.0
H1475 H 0.573 0.75288 0.24944 0.0
H1476 H 0.56039 0.70567 0.34241 0.0
H1477 H 0.53615 0.78377 0.33024 0.0
H1478 H 0.62206 0.71385 0.31996 0.0
H1479 H 0.60567 0.70046 0.28944 0.0
H1480 H 0.59619 0.68747 0.3204 0.0
H1481 H 0.59406 0.81125 0.30697 0.0
H1482 H 0.56021 0.81391 0.3054 0.0
H1483 H 0.57702 0.79668 0.27718 0.0
C1484 C 0.05886 0.0755 0.01699 0.0
C1485 C 0.04227 0.05167 0.0158 0.0
C1486 C 0.05691 0.09406 0.99843 0.0
C1487 C 0.03797 0.0884 0.97823 0.0
C1488 C 0.02275 0.06306 0.9756 0.0
C1489 C 0.02504 0.04503 0.99454 0.0
C1490 C 0.07358 0.12076 0.00193 0.0
C1491 C 0.00256 0.056 0.95422 0.0
C1492 C 0.00793 0.14914 0.95679 0.0
C1493 C 0.02017 0.15182 0.93205 0.0
C1494 C 0.01365 0.12863 0.97196 0.0
C1495 C 0.03196 0.1102 0.96214 0.0
C1496 C 0.0442 0.11258 0.93707 0.0
C1497 C 0.03821 0.13339 0.92237 0.0
C1498 C 1.00017 0.1268 0.99865 0.0
C1499 C 0.06365 0.09319 0.92584 0.0
H1500 H 0.07188 0.08064 0.03377 0.0
H1501 H 0.01214 0.02661 0.99396 0.0
H1502 H 0.08159 0.12537 0.98226 0.0
H1503 H 0.06192 0.13777 0.01005 0.0
H1504 H 0.08951 0.12041 0.01602 0.0
H1505 H 0.99502 0.03408 0.95241 0.0
H1506 H 0.98649 0.06893 0.9594 0.0
H1507 H 0.01025 0.06034 0.93433 0.0
H1508 H 0.99403 0.16328 0.96449 0.0
H1509 H 0.04777 0.13523 0.90326 0.0
H1510 H 0.01434 0.12907 0.01507 0.0
H1511 H 0.98955 0.10632 0.9983 0.0
H1512 H 0.98657 0.14279 0.00353 0.0
H1513 H 0.07973 0.09464 0.94005 0.0
H1514 H 0.07132 0.09763 0.90594 0.0
H1515 H 0.05496 0.0717 0.92359 0.0
C1516 C 0.36212 0.30275 0.29606 0.0
C1517 C 0.33922 0.28713 0.28894 0.0
C1518 C 0.38447 0.29841 0.28085 0.0
C1519 C 0.38366 0.27829 0.25766 0.0
C1520 C 0.36077 0.26143 0.25133 0.0
C1521 C 0.3388 0.26603 0.26716 0.0
C1522 C 0.40848 0.31657 0.28861 0.0
C1523 C 0.35898 0.23986 0.22675 0.0
C1524 C 0.43004 0.29149 0.20056 0.0
C1525 C 0.44866 0.2735 0.20344 0.0
C1526 C 0.40873 0.29306 0.21794 0.0
C1527 C 0.40605 0.27644 0.23891 0.0
C1528 C 0.42484 0.25836 0.242 0.0
C1529 C 0.44582 0.25701 0.22419 0.0
C1530 C 0.38902 0.3125 0.21384 0.0
C1531 C 0.42285 0.24053 0.26423 0.0
H1532 H 0.36208 0.31939 0.31265 0.0
H1533 H 0.32081 0.2545 0.26145 0.0
H1534 H 0.42496 0.30404 0.28864 0.0
H1535 H 0.41265 0.33087 0.27355 0.0
H1536 H 0.40678 0.32888 0.3088 0.0
H1537 H 0.3407 0.22674 0.22613 0.0
H1538 H 0.36055 0.25002 0.20831 0.0
H1539 H 0.37495 0.22656 0.22621 0.0
H1540 H 0.43201 0.30424 0.18458 0.0
H1541 H 0.46012 0.2431 0.22669 0.0
H1542 H 0.38752 0.32778 0.23217 0.0
H1543 H 0.37004 0.30097 0.2106 0.0
H1544 H 0.39365 0.32367 0.19635 0.0
H1545 H 0.42224 0.25358 0.28412 0.0
H1546 H 0.43908 0.22757 0.26397 0.0
H1547 H 0.40486 0.22694 0.26229 0.0
C1548 C 0.55773 0.43313 0.01054 0.0
C1549 C 0.5488 0.45886 0.01871 0.0
C1550 C 0.55539 0.41271 0.02758 0.0
C1551 C 0.5437 0.41831 0.05328 0.0
C1552 C 0.53722 0.44531 0.0626 0.0
C1553 C 0.53987 0.46528 0.04512 0.0
C1554 C 0.56286 0.38437 0.01689 0.0
C1555 C 0.52484 0.45233 0.08983 0.0
C1556 C 0.50052 0.3598 0.07583 0.0
C1557 C 0.5153 0.35087 0.09531 0.0
C1558 C 0.50957 0.38177 0.06224 0.0
C1559 C 0.53413 0.39519 0.0681 0.0
C1560 C 0.54914 0.38643 0.08785 0.0
C1561 C 0.53953 0.36442 0.10128 0.0
C1562 C 0.49281 0.39054 0.04145 0.0
C1563 C 0.57542 0.40013 0.09457 0.0
H1564 H 0.56423 0.4282 0.9899 0.0
H1565 H 0.53262 0.48514 0.05111 0.0
H1566 H 0.57246 0.37541 0.03266 0.0
H1567 H 0.54546 0.37071 0.01085 0.0
H1568 H 0.57571 0.38461 0.99904 0.0
H1569 H 0.52525 0.47489 0.09596 0.0
H1570 H 0.50465 0.44369 0.089 0.0
H1571 H 0.53439 0.44319 0.10551 0.0
H1572 H 0.48179 0.34955 0.07109 0.0
H1573 H 0.55115 0.35762 0.11623 0.0
H1574 H 0.50254 0.38851 0.0215 0.0
H1575 H 0.48933 0.41248 0.04698 0.0
H1576 H 0.47412 0.37816 0.03942 0.0
H1577 H 0.5878 0.39797 0.07633 0.0
H1578 H 0.58452 0.39126 0.11077 0.0
H1579 H 0.57438 0.42244 0.10107 0.0
C1580 C 0.63342 0.21189 0.27504 0.0
C1581 C 0.65922 0.21463 0.26787 0.0
C1582 C 0.61463 0.21788 0.25786 0.0
C1583 C 0.62195 0.22666 0.23287 0.0
C1584 C 0.64805 0.22923 0.22547 0.0
C1585 C 0.66641 0.22322 0.24314 0.0
C1586 C 0.58701 0.2149 0.26647 0.0
C1587 C 0.65657 0.23848 0.19899 0.0
C1588 C 0.57166 0.21864 0.17853 0.0
C1589 C 0.56377 0.24529 0.18079 0.0
C1590 C 0.59079 0.21236 0.19516 0.0
C1591 C 0.60224 0.23322 0.21455 0.0
C1592 C 0.59456 0.26021 0.21678 0.0
C1593 C 0.57543 0.26594 0.19983 0.0
C1594 C 0.59857 0.18335 0.19215 0.0
C1595 C 0.60633 0.28297 0.23727 0.0
H1596 H 0.62803 0.20504 0.29415 0.0
H1597 H 0.68647 0.22552 0.23788 0.0
H1598 H 0.57864 0.23486 0.26726 0.0
H1599 H 0.57602 0.19995 0.25148 0.0
H1600 H 0.58455 0.20788 0.28655 0.0
H1601 H 0.67757 0.239 0.19611 0.0
H1602 H 0.64733 0.22449 0.18202 0.0
H1603 H 0.65058 0.2593 0.198 0.0
H1604 H 0.56281 0.20257 0.16382 0.0
H1605 H 0.56944 0.28659 0.20172 0.0
H1606 H 0.59479 0.1747 0.21126 0.0
H1607 H 0.61933 0.1833 0.18798 0.0
H1608 H 0.58821 0.16966 0.17566 0.0
H1609 H 0.60287 0.27762 0.25789 0.0
H1610 H 0.59854 0.30296 0.23612 0.0
H1611 H 0.62728 0.28541 0.23417 0.0
C1612 C 0.49967 0.10332 0.00127 0.0
C1613 C 0.47854 0.10119 0.98447 0.0
C1614 C 0.50829 0.12867 0.01604 0.0
C1615 C 0.49547 0.15228 0.01366 0.0
C1616 C 0.47557 0.15052 0.99475 0.0
C1617 C 0.46726 0.12489 0.98047 0.0
C1618 C 0.52957 0.1296 0.03593 0.0
C1619 C 0.4616 0.17519 0.99129 0.0
C1620 C 0.49017 0.20432 0.0765 0.0
C1621 C 0.50867 0.22533 0.07168 0.0
C1622 C 0.48586 0.18047 0.0578 0.0
C1623 C 0.50025 0.17757 0.03352 0.0
C1624 C 0.5188 0.19878 0.02836 0.0
C1625 C 0.52287 0.22238 0.04756 0.0
C1626 C 0.46595 0.15826 0.06414 0.0
C1627 C 0.53431 0.19652 0.00259 0.0
H1628 H 0.50809 0.08478 0.00443 0.0
H1629 H 0.45083 0.12293 0.96745 0.0
H1630 H 0.54337 0.1477 0.0347 0.0
H1631 H 0.52152 0.13163 0.0567 0.0
H1632 H 0.53992 0.11074 0.03253 0.0
H1633 H 0.44952 0.17143 0.973 0.0
H1634 H 0.44915 0.18018 0.00912 0.0
H1635 H 0.47522 0.19341 0.98992 0.0
H1636 H 0.47918 0.20634 0.0951 0.0
H1637 H 0.53718 0.23853 0.04364 0.0
H1638 H 0.47479 0.13866 0.06404 0.0
H1639 H 0.45104 0.15471 0.04842 0.0
H1640 H 0.45663 0.16354 0.08407 0.0
H1641 H 0.54522 0.17811 1.00085 0.0
H1642 H 0.54787 0.21489 0.00153 0.0
H1643 H 0.52146 0.19384 0.98497 0.0
C1644 C 0.25294 0.30966 0.72932 0.0
C1645 C 0.22738 0.31416 0.72629 0.0
C1646 C 0.27201 0.3316 0.73122 0.0
C1647 C 0.26517 0.35856 0.73012 0.0
C1648 C 0.23945 0.36287 0.72573 0.0
C1649 C 0.22088 0.34055 0.72379 0.0
C1650 C 0.29923 0.32612 0.73564 0.0
C1651 C 0.23136 0.39122 0.72429 0.0
C1652 C 0.3055 0.4197 0.76647 0.0
C1653 C 0.31873 0.43017 0.74503 0.0
C1654 C 0.28842 0.39608 0.76191 0.0
C1655 C 0.28449 0.38253 0.73528 0.0
C1656 C 0.29815 0.39263 0.71362 0.0
C1657 C 0.31508 0.41635 0.71874 0.0
C1658 C 0.27416 0.38594 0.78556 0.0
C1659 C 0.29453 0.37869 0.68498 0.0
H1660 H 0.25778 0.28917 0.73138 0.0
H1661 H 0.20105 0.34375 0.72116 0.0
H1662 H 0.31215 0.33571 0.72119 0.0
H1663 H 0.30518 0.33551 0.75623 0.0
H1664 H 0.30174 0.30379 0.73337 0.0
H1665 H 0.21093 0.39079 0.71906 0.0
H1666 H 0.23459 0.40425 0.74405 0.0
H1667 H 0.24303 0.40113 0.70908 0.0
H1668 H 0.30823 0.43019 0.78684 0.0
H1669 H 0.32528 0.4242 0.70204 0.0
H1670 H 0.27746 0.36417 0.78633 0.0
H1671 H 0.25338 0.38681 0.78308 0.0
H1672 H 0.27998 0.39826 0.80509 0.0
H1673 H 0.29782 0.35664 0.68358 0.0
H1674 H 0.30757 0.38826 0.67057 0.0
H1675 H 0.27461 0.37973 0.67871 0.0
C1676 C 0.24727 0.67138 0.78377 0.0
C1677 C 0.22712 0.67256 0.8024 0.0
C1678 C 0.26431 0.65098 0.78278 0.0
C1679 C 0.261 0.63134 0.80091 0.0
C1680 C 0.24171 0.63372 0.82105 0.0
C1681 C 0.22496 0.65441 0.82155 0.0
C1682 C 0.28472 0.64936 0.76116 0.0
C1683 C 0.23763 0.61331 0.84083 0.0
C1684 C 0.28061 0.56047 0.77375 0.0
C1685 C 0.30434 0.56046 0.78592 0.0
C1686 C 0.26619 0.58323 0.77891 0.0
C1687 C 0.27569 0.60664 0.79666 0.0
C1688 C 0.29943 0.60667 0.80937 0.0
C1689 C 0.31349 0.58355 0.80387 0.0
C1690 C 0.2409 0.58236 0.76499 0.0
C1691 C 0.31017 0.63126 0.82839 0.0
H1692 H 0.24887 0.6857 0.76917 0.0
H1693 H 0.2092 0.6554 0.83582 0.0
H1694 H 0.3034 0.64682 0.76988 0.0
H1695 H 0.27997 0.63113 0.7459 0.0
H1696 H 0.28663 0.66791 0.75078 0.0
H1697 H 0.22427 0.62016 0.85737 0.0
H1698 H 0.22963 0.59327 0.83012 0.0
H1699 H 0.25599 0.60992 0.84973 0.0
H1700 H 0.27333 0.54272 0.75996 0.0
H1701 H 0.33179 0.58373 0.8134 0.0
H1702 H 0.24149 0.5988 0.75193 0.0
H1703 H 0.22552 0.58624 0.78015 0.0
H1704 H 0.23588 0.56231 0.75236 0.0
H1705 H 0.31369 0.64925 0.81738 0.0
H1706 H 0.32831 0.62755 0.83762 0.0
H1707 H 0.29621 0.63675 0.84472 0.0
C1708 C 0.91986 0.49302 0.48892 0.0
C1709 C 0.91804 0.5191 0.48169 0.0
C1710 C 0.89802 0.47717 0.49611 0.0
C1711 C 0.87392 0.48788 0.49614 0.0
C1712 C 0.87206 0.51417 0.48845 0.0
C1713 C 0.89423 0.5295 0.48133 0.0
C1714 C 0.90077 0.44925 0.50419 0.0
C1715 C 0.84675 0.52629 0.48822 0.0
C1716 C 0.81432 0.43843 0.49447 0.0
C1717 C 0.80685 0.44146 0.52171 0.0
C1718 C 0.83609 0.45342 0.48584 0.0
C1719 C 0.85075 0.4719 0.5049 0.0
C1720 C 0.84328 0.47515 0.5324 0.0
C1721 C 0.82141 0.4599 0.54047 0.0
C1722 C 0.84346 0.44944 0.45635 0.0
C1723 C 0.85843 0.49469 0.55331 0.0
H1724 H 0.93848 0.48536 0.48936 0.0
H1725 H 0.89316 0.54983 0.47582 0.0
H1726 H 0.89446 0.449 0.52542 0.0
H1727 H 0.88838 0.43336 0.49153 0.0
H1728 H 0.92074 0.44356 0.50219 0.0
H1729 H 0.84851 0.54662 0.48092 0.0
H1730 H 0.83315 0.51219 0.47513 0.0
H1731 H 0.83843 0.52876 0.50885 0.0
H1732 H 0.80318 0.42424 0.47981 0.0
H1733 H 0.8158 0.46238 0.56155 0.0
H1734 H 0.86286 0.44227 0.45386 0.0
H1735 H 0.84405 0.46931 0.44829 0.0
H1736 H 0.83 0.43433 0.44408 0.0
H1737 H 0.87825 0.48882 0.55372 0.0
H1738 H 0.85001 0.49492 0.57385 0.0
H1739 H 0.85948 0.51583 0.54798 0.0
C1740 C 0.73338 0.83173 0.79722 0.0
C1741 C 0.75891 0.84001 0.80348 0.0
C1742 C 0.71572 0.85116 0.79566 0.0
C1743 C 0.72394 0.87951 0.80019 0.0
C1744 C 0.74982 0.88793 0.80633 0.0
C1745 C 0.76696 0.86804 0.80805 0.0
C1746 C 0.68829 0.84136 0.78923 0.0
C1747 C 0.75939 0.91794 0.81115 0.0
C1748 C 0.68495 0.93059 0.77286 0.0
C1749 C 0.67243 0.94209 0.79619 0.0
C1750 C 0.70153 0.90997 0.77381 0.0
C1751 C 0.70552 0.90044 0.79862 0.0
C1752 C 0.69247 0.91147 0.8221 0.0
C1753 C 0.67616 0.93223 0.82062 0.0
C1754 C 0.71522 0.89884 0.74838 0.0
C1755 C 0.69604 0.90163 0.84887 0.0
H1756 H 0.72731 0.81 0.79349 0.0
H1757 H 0.78668 0.87433 0.81319 0.0
H1758 H 0.67566 0.84998 0.80568 0.0
H1759 H 0.68265 0.84881 0.77051 0.0
H1760 H 0.68494 0.8186 0.78653 0.0
H1761 H 0.78018 0.92102 0.81518 0.0
H1762 H 0.75545 0.9279 0.79332 0.0
H1763 H 0.74915 0.92857 0.82858 0.0
H1764 H 0.68222 0.93809 0.7539 0.0
H1765 H 0.66649 0.9409 0.83872 0.0
H1766 H 0.71128 0.87621 0.74423 0.0
H1767 H 0.73611 0.90324 0.75104 0.0
H1768 H 0.70951 0.90789 0.73056 0.0
H1769 H 0.69177 0.87903 0.84694 0.0
H1770 H 0.68364 0.91142 0.86497 0.0
H1771 H 0.71618 0.90624 0.85521 0.0
C1772 C 0.60115 0.49675 0.96926 0.0
C1773 C 0.58337 0.4998 0.9904 0.0
C1774 C 0.62512 0.51169 0.97117 0.0
C1775 C 0.63161 0.52971 0.99507 0.0
C1776 C 0.61462 0.53067 0.01747 0.0
C1777 C 0.59056 0.51576 0.01479 0.0
C1778 C 0.64247 0.51003 0.94673 0.0
C1779 C 0.621 0.54907 0.04354 0.0
C1780 C 0.69996 0.56243 0.00177 0.0
C1781 C 0.69752 0.58841 0.9942 0.0
C1782 C 0.67866 0.54322 0.00264 0.0
C1783 C 0.65443 0.54995 0.99528 0.0
C1784 C 0.65194 0.57604 0.98732 0.0
C1785 C 0.67343 0.595 0.98714 0.0
C1786 C 0.68202 0.51584 0.01165 0.0
C1787 C 0.62655 0.5839 0.97883 0.0
H1788 H 0.5955 0.48414 0.95051 0.0
H1789 H 0.57669 0.51812 0.03105 0.0
H1790 H 0.64277 0.52943 0.93786 0.0
H1791 H 0.66228 0.5076 0.95242 0.0
H1792 H 0.63608 0.49271 0.93102 0.0
H1793 H 0.60792 0.54413 0.06019 0.0
H1794 H 0.64089 0.54728 0.0495 0.0
H1795 H 0.61947 0.57077 0.04075 0.0
H1796 H 0.71847 0.55726 0.00752 0.0
H1797 H 0.67138 0.61498 0.98121 0.0
H1798 H 0.67626 0.49895 0.99534 0.0
H1799 H 0.66947 0.51299 0.02928 0.0
H1800 H 0.70202 0.51395 0.01725 0.0
H1801 H 0.61898 0.56895 0.9616 0.0
H1802 H 0.62789 0.60479 0.9728 0.0
H1803 H 0.61255 0.5832 0.99562 0.0
C1804 C 0.2824 0.66706 0.23751 0.0
C1805 C 0.27687 0.69281 0.25055 0.0
C1806 C 0.26641 0.64342 0.24081 0.0
C1807 C 0.2444 0.64586 0.25746 0.0
C1808 C 0.24005 0.67163 0.27239 0.0
C1809 C 0.25636 0.69486 0.26866 0.0
C1810 C 0.27186 0.61635 0.22466 0.0
C1811 C 0.21695 0.67518 0.29046 0.0
C1812 C 0.18554 0.59841 0.23577 0.0
C1813 C 0.18513 0.57919 0.25393 0.0
C1814 C 0.20479 0.62006 0.23672 0.0
C1815 C 0.22421 0.62261 0.25629 0.0
C1816 C 0.22399 0.60327 0.27465 0.0
C1817 C 0.20445 0.5818 0.27327 0.0
C1818 C 0.20429 0.64031 0.21678 0.0
C1819 C 0.24436 0.60532 0.29576 0.0
H1820 H 0.29814 0.66581 0.22324 0.0
H1821 H 0.25211 0.71502 0.27835 0.0
H1822 H 0.26939 0.59958 0.23732 0.0
H1823 H 0.25814 0.61123 0.20782 0.0
H1824 H 0.29148 0.61701 0.21604 0.0
H1825 H 0.21834 0.69537 0.30355 0.0
H1826 H 0.19967 0.67374 0.27788 0.0
H1827 H 0.21438 0.65864 0.3034 0.0
H1828 H 0.17075 0.59661 0.22076 0.0
H1829 H 0.20433 0.56704 0.28738 0.0
H1830 H 0.22221 0.64054 0.20474 0.0
H1831 H 0.20306 0.66134 0.22768 0.0
H1832 H 0.18796 0.63537 0.20275 0.0
H1833 H 0.26342 0.6047 0.28595 0.0
H1834 H 0.24165 0.58847 0.30837 0.0
H1835 H 0.24431 0.62525 0.3091 0.0
C1836 C 0.91745 0.51801 0.0702 0.0
C1837 C 0.93639 0.51067 0.05123 0.0
C1838 C 0.89962 0.53615 0.06511 0.0
C1839 C 0.90075 0.54701 0.04035 0.0
C1840 C 0.9201 0.53985 0.02126 0.0
C1841 C 0.93775 0.5218 0.02699 0.0
C1842 C 0.87934 0.54332 0.08601 0.0
C1843 C 0.92193 0.55094 0.99463 0.0
C1844 C 0.84002 0.57128 0.0158 0.0
C1845 C 0.84405 0.59986 0.02282 0.0
C1846 C 0.85838 0.55389 0.02126 0.0
C1847 C 0.8813 0.5653 0.03416 0.0
C1848 C 0.88555 0.59412 0.04122 0.0
C1849 C 0.8669 0.61106 0.03541 0.0
C1850 C 0.8532 0.52326 0.0133 0.0
C1851 C 0.90973 0.60703 0.05507 0.0
H1852 H 0.91635 0.50909 0.0888 0.0
H1853 H 0.9526 0.51618 0.0125 0.0
H1854 H 0.87986 0.56593 0.0915 0.0
H1855 H 0.86022 0.53615 0.07757 0.0
H1856 H 0.88168 0.53394 0.1046 0.0
H1857 H 0.9384 0.54376 0.98222 0.0
H1858 H 0.90421 0.54441 0.98301 0.0
H1859 H 0.9238 0.57372 0.9981 0.0
H1860 H 0.82246 0.56242 0.00602 0.0
H1861 H 0.87018 0.6331 0.04096 0.0
H1862 H 0.85334 0.51271 0.03144 0.0
H1863 H 0.86847 0.51535 0.99955 0.0
H1864 H 0.83456 0.51767 0.00312 0.0
H1865 H 0.91165 0.59903 0.07448 0.0
H1866 H 0.91018 0.62978 0.05912 0.0
H1867 H 0.92653 0.60143 0.04243 0.0
C1868 C 0.07997 0.99659 0.01643 0.0
C1869 C 0.07995 0.01717 0.03864 0.0
C1870 C 0.10194 0.98286 0.00939 0.0
C1871 C 0.12434 0.99016 0.02491 0.0
C1872 C 0.12487 0.01257 0.04599 0.0
C1873 C 0.10257 0.02571 0.05268 0.0
C1874 C 0.10053 0.95913 0.98677 0.0
C1875 C 0.14836 0.02131 0.06284 0.0
C1876 C 0.16762 0.93426 0.03337 0.0
C1877 C 0.18774 0.93956 0.01555 0.0
C1878 C 0.14679 0.9504 0.03631 0.0
C1879 C 0.1461 0.97255 0.02122 0.0
C1880 C 0.16634 0.97804 0.00321 0.0
C1881 C 0.18687 0.96144 1.00053 0.0
C1882 C 0.12552 0.94377 0.05567 0.0
C1883 C 0.16641 0.0016 0.98697 0.0
H1884 H 0.06225 0.98986 0.00594 0.0
H1885 H 0.10226 0.04154 0.06999 0.0
H1886 H 0.11745 0.96049 0.97333 0.0
H1887 H 0.10046 0.93958 0.99533 0.0
H1888 H 0.08306 0.95837 0.97454 0.0
H1889 H 0.14676 0.04123 0.07592 0.0
H1890 H 0.15127 0.00548 0.0759 0.0
H1891 H 0.16551 0.02316 0.04979 0.0
H1892 H 0.16805 0.91738 0.045 0.0
H1893 H 0.20234 0.96576 0.98674 0.0
H1894 H 0.10711 0.93985 0.04486 0.0
H1895 H 0.12377 0.96157 0.0716 0.0
H1896 H 0.12866 0.92553 0.06548 0.0
H1897 H 0.14903 0.9993 0.97446 0.0
H1898 H 0.1834 0.00293 0.97355 0.0
H1899 H 0.16606 0.02125 1.00072 0.0
loop_
_geom_bond_atom_site_label_1
_geom_bond_atom_site_label_2
_geom_bond_distance
_geom_bond_site_symmetry_2
_ccdc_geom_bond_type
C0 N1 1.317 . S
C0 N2 1.321 1_455 S
C0 C3 1.485 1_545 S
N1 C0 1.317 . S
N1 N5 1.370 . S
N2 C0 1.321 1_655 S
N2 C4 1.350 . S
C3 C0 1.485 1_565 S
C3 H7 0.960 . S
C3 H8 0.961 . S
C3 H9 0.960 . S
C4 N2 1.350 . S
C4 N5 1.307 1_655 S
C4 C6 1.486 . S
N5 N1 1.370 . S
N5 C4 1.307 1_455 S
C6 C4 1.486 . S
C6 H10 0.960 . S
C6 H11 0.960 . S
C6 H12 0.959 . S
H7 C3 0.960 . S
H8 C3 0.961 . S
H9 C3 0.960 . S
H10 C6 0.960 . S
H11 C6 0.960 . S
H12 C6 0.959 . S
C13 N14 1.317 . S
C13 N15 1.348 . S
C13 C16 1.485 . S
N14 C13 1.317 . S
N14 N18 1.370 . S
N15 C13 1.348 . S
N15 C17 1.346 . S
C16 C13 1.485 . S
C16 H20 0.960 . S
C16 H21 0.961 . S
C16 H22 0.960 . S
C17 N15 1.346 . S
C17 N18 1.307 . S
C17 C19 1.486 . S
N18 N14 1.370 . S
N18 C17 1.307 . S
C19 C17 1.486 . S
C19 H23 0.960 . S
C19 H24 0.960 . S
C19 H25 0.959 . S
H20 C16 0.960 . S
H21 C16 0.961 . S
H22 C16 0.960 . S
H23 C19 0.960 . S
H24 C19 0.960 . S
H25 C19 0.959 . S
C26 N27 1.317 . S
C26 N28 1.348 . S
C26 C29 1.485 . S
N27 C26 1.317 . S
N27 N31 1.370 . S
N28 C26 1.348 . S
N28 C30 1.346 . S
C29 C26 1.485 . S
C29 H33 0.960 . S
C29 H34 0.961 . S
C29 H35 0.960 . S
C30 N28 1.346 . S
C30 N31 1.307 . S
C30 C32 1.486 . S
N31 N27 1.370 . S
N31 C30 1.307 . S
C32 C30 1.486 . S
C32 H36 0.960 1_554 S
C32 H37 0.960 . S
C32 H38 0.959 . S
H33 C29 0.960 . S
H34 C29 0.961 . S
H35 C29 0.960 . S
H36 C32 0.960 1_556 S
H37 C32 0.960 . S
H38 C32 0.959 . S
C39 N40 1.317 . S
C39 N41 1.348 . S
C39 C42 1.485 . S
N40 C39 1.317 . S
N40 N44 1.370 . S
N41 C39 1.348 . S
N41 C43 1.346 . S
C42 C39 1.485 . S
C42 H46 0.960 . S
C42 H47 0.961 . S
C42 H48 0.960 . S
C43 N41 1.346 . S
C43 N44 1.307 . S
C43 C45 1.486 . S
N44 N40 1.370 . S
N44 C43 1.307 . S
C45 C43 1.486 . S
C45 H49 0.960 . S
C45 H50 0.960 . S
C45 H51 0.959 . S
H46 C42 0.960 . S
H47 C42 0.961 . S
H48 C42 0.960 . S
H49 C45 0.960 . S
H50 C45 0.960 . S
H51 C45 0.959 . S
C52 N53 1.317 . S
C52 N54 1.348 . S
C52 C55 1.488 . S
N53 C52 1.317 . S
N53 N57 1.370 . S
N54 C52 1.348 . S
N54 C56 1.346 . S
C55 C52 1.488 . S
C55 H59 0.961 . S
C55 H60 0.957 1_455 S
C55 H61 0.957 . S
C56 N54 1.346 . S
C56 N57 1.307 . S
C56 C58 1.486 1_565 S
N57 N53 1.370 . S
N57 C56 1.307 . S
C58 C56 1.486 1_545 S
C58 H62 0.960 . S
C58 H63 0.960 . S
C58 H64 0.959 . S
H59 C55 0.961 . S
H60 C55 0.957 1_655 S
H61 C55 0.957 . S
H62 C58 0.960 . S
H63 C58 0.960 . S
H64 C58 0.959 . S
C65 N66 1.317 . S
C65 N67 1.348 . S
C65 C68 1.485 . S
N66 C65 1.317 . S
N66 N70 1.370 . S
N67 C65 1.348 . S
N67 C69 1.346 . S
C68 C65 1.485 . S
C68 H72 0.960 . S
C68 H73 0.961 . S
C68 H74 0.960 . S
C69 N67 1.346 . S
C69 N70 1.307 . S
C69 C71 1.486 . S
N70 N66 1.370 . S
N70 C69 1.307 . S
C71 C69 1.486 . S
C71 H75 0.960 . S
C71 H76 0.960 . S
C71 H77 0.959 . S
H72 C68 0.960 . S
H73 C68 0.961 . S
H74 C68 0.960 . S
H75 C71 0.960 . S
H76 C71 0.960 . S
H77 C71 0.959 . S
C78 N79 1.317 . S
C78 N80 1.348 . S
C78 C81 1.485 . S
N79 C78 1.317 . S
N79 N83 1.370 . S
N80 C78 1.348 . S
N80 C82 1.346 . S
C81 C78 1.485 . S
C81 H85 0.960 . S
C81 H86 0.961 . S
C81 H87 0.960 . S
C82 N80 1.346 . S
C82 N83 1.307 . S
C82 C84 1.486 . S
N83 N79 1.370 . S
N83 C82 1.307 . S
C84 C82 1.486 . S
C84 H88 0.960 . S
C84 H89 0.960 . S
C84 H90 0.959 . S
H85 C81 0.960 . S
H86 C81 0.961 . S
H87 C81 0.960 . S
H88 C84 0.960 . S
H89 C84 0.960 . S
H90 C84 0.959 . S
C91 N92 1.317 . S
C91 N93 1.348 . S
C91 C94 1.485 . S
N92 C91 1.317 . S
N92 N96 1.370 . S
N93 C91 1.348 . S
N93 C95 1.346 . S
C94 C91 1.485 . S
C94 H98 0.960 . S
C94 H99 0.961 . S
C94 H100 0.960 . S
C95 N93 1.346 . S
C95 N96 1.307 . S
C95 C97 1.486 . S
N96 N92 1.370 . S
N96 C95 1.307 . S
C97 C95 1.486 . S
C97 H101 0.960 . S
C97 H102 0.960 . S
C97 H103 0.959 . S
H98 C94 0.960 . S
H99 C94 0.961 . S
H100 C94 0.960 . S
H101 C97 0.960 . S
H102 C97 0.960 . S
H103 C97 0.959 . S
C104 N105 1.317 . S
C104 N106 1.348 . S
C104 C107 1.485 . S
N105 C104 1.317 . S
N105 N109 1.370 . S
N106 C104 1.348 . S
N106 C108 1.346 . S
C107 C104 1.485 . S
C107 H111 0.960 . S
C107 H112 0.961 . S
C107 H113 0.960 . S
C108 N106 1.346 . S
C108 N109 1.307 . S
C108 C110 1.486 . S
N109 N105 1.370 . S
N109 C108 1.307 . S
C110 C108 1.486 . S
C110 H114 0.960 . S
C110 H115 0.960 . S
C110 H116 0.959 . S
H111 C107 0.960 . S
H112 C107 0.961 . S
H113 C107 0.960 . S
H114 C110 0.960 . S
H115 C110 0.960 . S
H116 C110 0.959 . S
C117 N118 1.317 . S
C117 N119 1.348 . S
C117 C120 1.485 1_565 S
N118 C117 1.317 . S
N118 N122 1.370 . S
N119 C117 1.348 . S
N119 C121 1.346 . S
C120 C117 1.485 1_545 S
C120 H124 0.960 . S
C120 H125 0.961 . S
C120 H126 0.960 . S
C121 N119 1.346 . S
C121 N122 1.307 . S
C121 C123 1.486 . S
N122 N118 1.370 . S
N122 C121 1.307 . S
C123 C121 1.486 . S
C123 H127 0.960 . S
C123 H128 0.960 . S
C123 H129 0.959 . S
H124 C120 0.960 . S
H125 C120 0.961 . S
H126 C120 0.960 . S
H127 C123 0.960 . S
H128 C123 0.960 . S
H129 C123 0.959 . S
C130 N131 1.317 . S
C130 N132 1.348 . S
C130 C133 1.485 . S
N131 C130 1.317 . S
N131 N135 1.370 . S
N132 C130 1.348 . S
N132 C134 1.346 . S
C133 C130 1.485 . S
C133 H137 0.960 . S
C133 H138 0.961 . S
C133 H139 0.960 . S
C134 N132 1.346 . S
C134 N135 1.307 . S
C134 C136 1.486 . S
N135 N131 1.370 . S
N135 C134 1.307 . S
C136 C134 1.486 . S
C136 H140 0.960 . S
C136 H141 0.960 . S
C136 H142 0.959 . S
H137 C133 0.960 . S
H138 C133 0.961 . S
H139 C133 0.960 . S
H140 C136 0.960 . S
H141 C136 0.960 . S
H142 C136 0.959 . S
C143 N144 1.317 . S
C143 N145 1.348 . S
C143 C146 1.485 . S
N144 C143 1.317 . S
N144 N148 1.370 . S
N145 C143 1.348 . S
N145 C147 1.346 . S
C146 C143 1.485 . S
C146 H150 0.960 . S
C146 H151 0.961 . S
C146 H152 0.960 . S
C147 N145 1.346 . S
C147 N148 1.307 . S
C147 C149 1.486 . S
N148 N144 1.370 . S
N148 C147 1.307 . S
C149 C147 1.486 . S
C149 H153 0.960 . S
C149 H154 0.960 . S
C149 H155 0.959 . S
H150 C146 0.960 . S
H151 C146 0.961 . S
H152 C146 0.960 . S
H153 C149 0.960 . S
H154 C149 0.960 . S
H155 C149 0.959 . S
C156 N157 1.317 . S
C156 N158 1.348 . S
C156 C159 1.485 . S
N157 C156 1.317 . S
N157 N161 1.370 . S
N158 C156 1.348 . S
N158 C160 1.346 . S
C159 C156 1.485 . S
C159 H163 0.960 . S
C159 H164 0.961 . S
C159 H165 0.960 . S
C160 N158 1.346 . S
C160 N161 1.307 . S
C160 C162 1.486 . S
N161 N157 1.370 . S
N161 C160 1.307 . S
C162 C160 1.486 . S
C162 H166 0.960 . S
C162 H167 0.960 . S
C162 H168 0.959 . S
H163 C159 0.960 . S
H164 C159 0.961 . S
H165 C159 0.960 . S
H166 C162 0.960 . S
H167 C162 0.960 . S
H168 C162 0.959 . S
C169 N170 1.317 . S
C169 N171 1.348 . S
C169 C172 1.485 . S
N170 C169 1.317 . S
N170 N174 1.370 . S
N171 C169 1.348 . S
N171 C173 1.346 . S
C172 C169 1.485 . S
C172 H176 0.960 . S
C172 H177 0.961 . S
C172 H178 0.960 . S
C173 N171 1.346 . S
C173 N174 1.307 . S
C173 C175 1.486 . S
N174 N170 1.370 . S
N174 C173 1.307 . S
C175 C173 1.486 . S
C175 H179 0.960 . S
C175 H180 0.960 . S
C175 H181 0.959 . S
H176 C172 0.960 . S
H177 C172 0.961 . S
H178 C172 0.960 . S
H179 C175 0.960 . S
H180 C175 0.960 . S
H181 C175 0.959 . S
C182 N183 1.317 . S
C182 N184 1.348 . S
C182 C185 1.485 . S
N183 C182 1.317 . S
N183 N187 1.370 . S
N184 C182 1.348 . S
N184 C186 1.346 . S
C185 C182 1.485 . S
C185 H189 0.960 . S
C185 H190 0.961 . S
C185 H191 0.960 . S
C186 N184 1.346 . S
C186 N187 1.307 . S
C186 C188 1.486 . S
N187 N183 1.370 . S
N187 C186 1.307 . S
C188 C186 1.486 . S
C188 H192 0.960 . S
C188 H193 0.960 . S
C188 H194 0.959 . S
H189 C185 0.960 . S
H190 C185 0.961 . S
H191 C185 0.960 . S
H192 C188 0.960 . S
H193 C188 0.960 . S
H194 C188 0.959 . S
C195 N196 1.317 . S
C195 N197 1.348 . S
C195 C198 1.485 1_545 S
N196 C195 1.317 . S
N196 N200 1.370 . S
N197 C195 1.348 . S
N197 C199 1.346 . S
C198 C195 1.485 1_565 S
C198 H202 0.963 . S
C198 H203 0.961 . S
C198 H204 0.960 . S
C199 N197 1.346 . S
C199 N200 1.307 . S
C199 C201 1.486 1_556 S
N200 N196 1.370 . S
N200 C199 1.307 . S
C201 C199 1.486 1_554 S
C201 H205 0.960 . S
C201 H206 0.960 . S
C201 H207 0.959 . S
H202 C198 0.963 . S
H203 C198 0.961 . S
H204 C198 0.960 . S
H205 C201 0.960 . S
H206 C201 0.960 . S
H207 C201 0.959 . S
C208 O209 1.160 . S
C208 O215 1.185 . S
O209 C208 1.160 . S
O210 Zn211 1.899 1_556 S
O210 C218 1.284 . S
Zn211 O210 1.899 1_554 S
Zn211 O212 2.032 . S
Zn211 O215 2.086 . S
Zn211 O220 1.977 . S
O212 Zn211 2.032 . S
O212 C216 1.278 . S
C213 O214 1.203 . S
C213 O220 1.267 . S
O214 C213 1.203 . S
O215 C208 1.185 . S
O215 Zn211 2.086 . S
C216 O212 1.278 . S
C216 O217 1.211 . S
O217 C216 1.211 . S
C218 O210 1.284 . S
C218 O219 1.273 . S
O219 C218 1.273 . S
O220 Zn211 1.977 . S
O220 C213 1.267 . S
C221 O222 1.160 . S
C221 O228 1.185 . S
O222 C221 1.160 . S
O223 Zn224 1.899 . S
O223 C231 1.284 . S
Zn224 O223 1.899 . S
Zn224 O225 2.032 . S
Zn224 O228 2.086 . S
Zn224 O233 1.977 . S
O225 Zn224 2.032 . S
O225 C229 1.278 . S
C226 O227 1.203 . S
C226 O233 1.267 . S
O227 C226 1.203 . S
O228 C221 1.185 . S
O228 Zn224 2.086 . S
C229 O225 1.278 . S
C229 O230 1.211 . S
O230 C229 1.211 . S
C231 O223 1.284 . S
C231 O232 1.273 . S
O232 C231 1.273 . S
O233 Zn224 1.977 . S
O233 C226 1.267 . S
C234 O235 1.160 1_554 S
C234 O241 1.185 . S
O235 C234 1.160 1_556 S
O236 Zn237 1.899 1_556 S
O236 C244 1.284 . S
Zn237 O236 1.899 1_554 S
Zn237 O238 2.032 1_554 S
Zn237 O241 2.086 . S
Zn237 O246 1.977 . S
O238 Zn237 2.032 1_556 S
O238 C242 1.278 . S
C239 O240 1.203 . S
C239 O246 1.267 . S
O240 C239 1.203 . S
O241 C234 1.185 . S
O241 Zn237 2.086 . S
C242 O238 1.278 . S
C242 O243 1.211 1_556 S
O243 C242 1.211 1_554 S
C244 O236 1.284 . S
C244 O245 1.273 . S
O245 C244 1.273 . S
O246 Zn237 1.977 . S
O246 C239 1.267 . S
C247 O248 1.160 . S
C247 O254 1.185 . S
O248 C247 1.160 . S
O249 Zn250 1.899 . S
O249 C257 1.284 . S
Zn250 O249 1.899 . S
Zn250 O251 2.032 1_545 S
Zn250 O254 2.086 . S
Zn250 O259 1.977 . S
O251 Zn250 2.032 1_565 S
O251 C255 1.278 . S
C252 O253 1.203 1_545 S
C252 O259 1.267 . S
O253 C252 1.203 1_565 S
O254 C247 1.185 . S
O254 Zn250 2.086 . S
C255 O251 1.278 . S
C255 O256 1.211 . S
O256 C255 1.211 . S
C257 O249 1.284 . S
C257 O258 1.273 1_545 S
O258 C257 1.273 1_565 S
O259 Zn250 1.977 . S
O259 C252 1.267 . S
C260 O261 1.160 . S
C260 O267 1.185 . S
O261 C260 1.160 . S
O262 Zn263 1.899 . S
O262 C270 1.284 . S
Zn263 O262 1.899 . S
Zn263 O264 2.032 . S
Zn263 O267 2.086 . S
Zn263 O272 1.977 . S
O264 Zn263 2.032 . S
O264 C268 1.278 . S
C265 O266 1.203 . S
C265 O272 1.267 . S
O266 C265 1.203 . S
O267 C260 1.185 . S
O267 Zn263 2.086 . S
C268 O264 1.278 . S
C268 O269 1.211 . S
O269 C268 1.211 . S
C270 O262 1.284 . S
C270 O271 1.273 . S
O271 C270 1.273 . S
O272 Zn263 1.977 . S
O272 C265 1.267 . S
C273 O274 1.160 . S
C273 O280 1.185 . S
O274 C273 1.160 . S
O275 Zn276 1.899 . S
O275 C283 1.284 . S
Zn276 O275 1.899 . S
Zn276 O277 2.032 . S
Zn276 O280 2.086 . S
Zn276 O285 1.977 . S
O277 Zn276 2.032 . S
O277 C281 1.278 . S
C278 O279 1.203 . S
C278 O285 1.267 . S
O279 C278 1.203 . S
O280 C273 1.185 . S
O280 Zn276 2.086 . S
C281 O277 1.278 . S
C281 O282 1.211 . S
O282 C281 1.211 . S
C283 O275 1.284 . S
C283 O284 1.273 . S
O284 C283 1.273 . S
O285 Zn276 1.977 . S
O285 C278 1.267 . S
C286 O287 1.160 . S
C286 O293 1.185 . S
O287 C286 1.160 . S
O288 Zn289 1.899 . S
O288 C296 1.284 . S
Zn289 O288 1.899 . S
Zn289 O290 2.032 . S
Zn289 O293 2.086 . S
Zn289 O298 1.977 . S
O290 Zn289 2.032 . S
O290 C294 1.278 . S
C291 O292 1.203 . S
C291 O298 1.267 . S
O292 C291 1.203 . S
O293 C286 1.185 . S
O293 Zn289 2.086 . S
C294 O290 1.278 . S
C294 O295 1.211 . S
O295 C294 1.211 . S
C296 O288 1.284 . S
C296 O297 1.273 . S
O297 C296 1.273 . S
O298 Zn289 1.977 . S
O298 C291 1.267 . S
C299 O300 1.160 . S
C299 O306 1.185 . S
O300 C299 1.160 . S
O301 Zn302 1.899 . S
O301 C309 1.284 1_565 S
Zn302 O301 1.899 . S
Zn302 O303 2.032 1_565 S
Zn302 O306 2.086 . S
Zn302 O311 1.977 . S
O303 Zn302 2.032 1_545 S
O303 C307 1.278 . S
C304 O305 1.203 1_565 S
C304 O311 1.267 . S
O305 C304 1.203 1_545 S
O306 C299 1.185 . S
O306 Zn302 2.086 . S
C307 O303 1.278 . S
C307 O308 1.211 . S
O308 C307 1.211 . S
C309 O301 1.284 1_545 S
C309 O310 1.273 . S
O310 C309 1.273 . S
O311 Zn302 1.977 . S
O311 C304 1.267 . S
C312 O313 1.160 . S
C312 O319 1.185 1_655 S
O313 C312 1.160 . S
O314 Zn315 1.899 1_655 S
O314 C322 1.284 . S
Zn315 O314 1.899 1_455 S
Zn315 O316 2.032 1_455 S
Zn315 O319 2.086 . S
Zn315 O324 1.977 . S
O316 Zn315 2.032 1_655 S
O316 C320 1.278 1_655 S
C317 O318 1.203 . S
C317 O324 1.267 . S
O318 C317 1.203 . S
O319 C312 1.185 1_455 S
O319 Zn315 2.086 . S
C320 O316 1.278 1_455 S
C320 O321 1.211 . S
O321 C320 1.211 . S
C322 O314 1.284 . S
C322 O323 1.273 . S
O323 C322 1.273 . S
O324 Zn315 1.977 . S
O324 C317 1.267 . S
C325 O326 1.160 . S
C325 O332 1.185 . S
O326 C325 1.160 . S
O327 Zn328 1.899 . S
O327 C335 1.284 . S
Zn328 O327 1.899 . S
Zn328 O329 2.032 . S
Zn328 O332 2.086 . S
Zn328 O337 1.977 . S
O329 Zn328 2.032 . S
O329 C333 1.278 . S
C330 O331 1.203 . S
C330 O337 1.267 . S
O331 C330 1.203 . S
O332 C325 1.185 . S
O332 Zn328 2.086 . S
C333 O329 1.278 . S
C333 O334 1.211 . S
O334 C333 1.211 . S
C335 O327 1.284 . S
C335 O336 1.273 . S
O336 C335 1.273 . S
O337 Zn328 1.977 . S
O337 C330 1.267 . S
C338 O339 1.160 . S
C338 O345 1.185 . S
O339 C338 1.160 . S
O340 Zn341 1.925 . S
O340 C348 1.256 1_455 S
Zn341 O340 1.925 . S
Zn341 O342 2.032 . S
Zn341 O345 2.086 . S
Zn341 O350 1.977 . S
O342 Zn341 2.032 . S
O342 C346 1.278 . S
C343 O344 1.203 . S
C343 O350 1.267 . S
O344 C343 1.203 . S
O345 C338 1.185 . S
O345 Zn341 2.086 . S
C346 O342 1.278 . S
C346 O347 1.211 . S
O347 C346 1.211 . S
C348 O340 1.256 1_655 S
C348 O349 1.273 . S
O349 C348 1.273 . S
O350 Zn341 1.977 . S
O350 C343 1.267 . S
C351 O352 1.160 . S
C351 O358 1.185 . S
O352 C351 1.160 . S
O353 Zn354 1.899 . S
O353 C361 1.284 . S
Zn354 O353 1.899 . S
Zn354 O355 2.032 . S
Zn354 O358 2.086 . S
Zn354 O363 1.977 . S
O355 Zn354 2.032 . S
O355 C359 1.278 . S
C356 O357 1.203 . S
C356 O363 1.267 . S
O357 C356 1.203 . S
O358 C351 1.185 . S
O358 Zn354 2.086 . S
C359 O355 1.278 . S
C359 O360 1.211 . S
O360 C359 1.211 . S
C361 O353 1.284 . S
C361 O362 1.273 . S
O362 C361 1.273 . S
O363 Zn354 1.977 . S
O363 C356 1.267 . S
C364 C365 1.391 . S
C364 C366 1.394 . S
C364 H380 0.931 . S
C365 C364 1.391 . S
C365 C369 1.376 . S
C366 C364 1.394 . S
C366 C367 1.369 . S
C366 C370 1.531 . S
C367 C366 1.369 . S
C367 C368 1.410 . S
C367 C375 1.503 . S
C368 C367 1.410 . S
C368 C369 1.392 . S
C368 C371 1.511 . S
C369 C365 1.376 . S
C369 C368 1.392 . S
C369 H381 0.929 . S
C370 C366 1.531 . S
C370 H382 0.960 . S
C370 H383 0.962 . S
C370 H384 0.960 . S
C371 C368 1.511 . S
C371 H385 0.961 . S
C371 H386 0.961 . S
C371 H387 0.961 . S
C372 C373 1.370 . S
C372 C374 1.363 . S
C372 H388 0.931 . S
C373 C372 1.370 . S
C373 C377 1.408 . S
C374 C372 1.363 . S
C374 C375 1.370 . S
C374 C378 1.524 . S
C375 C367 1.503 . S
C375 C374 1.370 . S
C375 C376 1.403 . S
C376 C375 1.403 . S
C376 C377 1.404 . S
C376 C379 1.539 . S
C377 C373 1.408 . S
C377 C376 1.404 . S
C377 H389 0.930 . S
C378 C374 1.524 . S
C378 H390 0.956 . S
C378 H391 0.961 . S
C378 H392 0.961 . S
C379 C376 1.539 . S
C379 H393 0.958 . S
C379 H394 0.961 . S
C379 H395 0.960 . S
H380 C364 0.931 . S
H381 C369 0.929 . S
H382 C370 0.960 . S
H383 C370 0.962 . S
H384 C370 0.960 . S
H385 C371 0.961 . S
H386 C371 0.961 . S
H387 C371 0.961 . S
H388 C372 0.931 . S
H389 C377 0.930 . S
H390 C378 0.956 . S
H391 C378 0.961 . S
H392 C378 0.961 . S
H393 C379 0.958 . S
H394 C379 0.961 . S
H395 C379 0.960 . S
C396 C397 1.391 . S
C396 C398 1.369 1_655 S
C396 H412 0.931 . S
C397 C396 1.391 . S
C397 C401 1.376 1_655 S
C398 C396 1.369 1_455 S
C398 C399 1.402 . S
C398 C402 1.522 1_455 S
C399 C398 1.402 . S
C399 C400 1.410 . S
C399 C407 1.503 . S
C400 C399 1.410 . S
C400 C401 1.392 . S
C400 C403 1.511 . S
C401 C397 1.376 1_455 S
C401 C400 1.392 . S
C401 H413 0.929 . S
C402 C398 1.522 1_655 S
C402 H414 0.960 1_655 S
C402 H415 0.962 . S
C402 H416 0.960 . S
C403 C400 1.511 . S
C403 H417 0.961 . S
C403 H418 0.961 . S
C403 H419 0.961 . S
C404 C405 1.370 . S
C404 C406 1.363 . S
C404 H420 0.931 . S
C405 C404 1.370 . S
C405 C409 1.408 . S
C406 C404 1.363 . S
C406 C407 1.370 . S
C406 C410 1.524 . S
C407 C399 1.503 . S
C407 C406 1.370 . S
C407 C408 1.403 . S
C408 C407 1.403 . S
C408 C409 1.404 . S
C408 C411 1.539 . S
C409 C405 1.408 . S
C409 C408 1.404 . S
C409 H421 0.930 . S
C410 C406 1.524 . S
C410 H422 0.956 . S
C410 H423 0.961 . S
C410 H424 0.961 . S
C411 C408 1.539 . S
C411 H425 0.958 . S
C411 H426 0.961 . S
C411 H427 0.960 . S
H412 C396 0.931 . S
H413 C401 0.929 . S
H414 C402 0.960 1_455 S
H415 C402 0.962 . S
H416 C402 0.960 . S
H417 C403 0.961 . S
H418 C403 0.961 . S
H419 C403 0.961 . S
H420 C404 0.931 . S
H421 C409 0.930 . S
H422 C410 0.956 . S
H423 C410 0.961 . S
H424 C410 0.961 . S
H425 C411 0.958 . S
H426 C411 0.961 . S
H427 C411 0.960 . S
C428 C429 1.391 . S
C428 C430 1.394 . S
C428 H444 0.931 . S
C429 C428 1.391 . S
C429 C433 1.376 . S
C430 C428 1.394 . S
C430 C431 1.369 . S
C430 C434 1.531 . S
C431 C430 1.369 . S
C431 C432 1.410 . S
C431 C439 1.503 . S
C432 C431 1.410 . S
C432 C433 1.392 . S
C432 C435 1.511 . S
C433 C429 1.376 . S
C433 C432 1.392 . S
C433 H445 0.929 . S
C434 C430 1.531 . S
C434 H446 0.960 . S
C434 H447 0.962 . S
C434 H448 0.960 . S
C435 C432 1.511 . S
C435 H449 0.961 . S
C435 H450 0.961 . S
C435 H451 0.961 . S
C436 C437 1.370 . S
C436 C438 1.363 . S
C436 H452 0.931 . S
C437 C436 1.370 . S
C437 C441 1.408 . S
C438 C436 1.363 . S
C438 C439 1.370 . S
C438 C442 1.524 . S
C439 C431 1.503 . S
C439 C438 1.370 . S
C439 C440 1.403 . S
C440 C439 1.403 . S
C440 C441 1.404 . S
C440 C443 1.539 . S
C441 C437 1.408 . S
C441 C440 1.404 . S
C441 H453 0.930 . S
C442 C438 1.524 . S
C442 H454 0.956 . S
C442 H455 0.961 . S
C442 H456 0.961 . S
C443 C440 1.539 . S
C443 H457 0.958 . S
C443 H458 0.961 . S
C443 H459 0.960 . S
H444 C428 0.931 . S
H445 C433 0.929 . S
H446 C434 0.960 . S
H447 C434 0.962 . S
H448 C434 0.960 . S
H449 C435 0.961 . S
H450 C435 0.961 . S
H451 C435 0.961 . S
H452 C436 0.931 . S
H453 C441 0.930 . S
H454 C442 0.956 . S
H455 C442 0.961 . S
H456 C442 0.961 . S
H457 C443 0.958 . S
H458 C443 0.961 . S
H459 C443 0.960 . S
C460 C461 1.391 1_645 S
C460 C462 1.394 . S
C460 H476 0.937 . S
C461 C460 1.391 1_465 S
C461 C465 1.381 . S
C462 C460 1.394 . S
C462 C463 1.369 1_545 S
C462 C466 1.531 . S
C463 C462 1.369 1_565 S
C463 C464 1.410 . S
C463 C471 1.500 1_565 S
C464 C463 1.410 . S
C464 C465 1.374 1_655 S
C464 C467 1.511 . S
C465 C461 1.381 . S
C465 C464 1.374 1_455 S
C465 H477 0.943 . S
C466 C462 1.531 . S
C466 H478 0.960 . S
C466 H479 0.962 . S
C466 H480 0.960 . S
C467 C464 1.511 . S
C467 H481 0.961 . S
C467 H482 0.961 . S
C467 H483 0.961 . S
C468 C469 1.370 1_565 S
C468 C470 1.363 . S
C468 H484 0.931 . S
C469 C468 1.370 1_545 S
C469 C473 1.408 . S
C470 C468 1.363 . S
C470 C471 1.366 1_565 S
C470 C474 1.524 . S
C471 C463 1.500 1_545 S
C471 C470 1.366 1_545 S
C471 C472 1.411 . S
C472 C471 1.411 . S
C472 C473 1.404 . S
C472 C475 1.539 . S
C473 C469 1.408 . S
C473 C472 1.404 . S
C473 H485 0.930 . S
C474 C470 1.524 . S
C474 H486 0.956 . S
C474 H487 0.961 . S
C474 H488 0.961 . S
C475 C472 1.539 . S
C475 H489 0.958 . S
C475 H490 0.961 . S
C475 H491 0.960 . S
H476 C460 0.937 . S
H477 C465 0.943 . S
H478 C466 0.960 . S
H479 C466 0.962 . S
H480 C466 0.960 . S
H481 C467 0.961 . S
H482 C467 0.961 . S
H483 C467 0.961 . S
H484 C468 0.931 . S
H485 C473 0.930 . S
H486 C474 0.956 . S
H487 C474 0.961 . S
H488 C474 0.961 . S
H489 C475 0.958 . S
H490 C475 0.961 . S
H491 C475 0.960 . S
C492 C493 1.391 . S
C492 C494 1.394 . S
C492 H508 0.931 . S
C493 C492 1.391 . S
C493 C497 1.376 . S
C494 C492 1.394 . S
C494 C495 1.369 . S
C494 C498 1.531 . S
C495 C494 1.369 . S
C495 C496 1.410 . S
C495 C503 1.503 . S
C496 C495 1.410 . S
C496 C497 1.392 . S
C496 C499 1.511 . S
C497 C493 1.376 . S
C497 C496 1.392 . S
C497 H509 0.929 . S
C498 C494 1.531 . S
C498 H510 0.960 . S
C498 H511 0.962 . S
C498 H512 0.960 . S
C499 C496 1.511 . S
C499 H513 0.961 . S
C499 H514 0.961 . S
C499 H515 0.961 . S
C500 C501 1.370 . S
C500 C502 1.363 . S
C500 H516 0.931 . S
C501 C500 1.370 . S
C501 C505 1.408 . S
C502 C500 1.363 . S
C502 C503 1.370 . S
C502 C506 1.524 . S
C503 C495 1.503 . S
C503 C502 1.370 . S
C503 C504 1.403 . S
C504 C503 1.403 . S
C504 C505 1.404 . S
C504 C507 1.539 . S
C505 C501 1.408 . S
C505 C504 1.404 . S
C505 H517 0.930 . S
C506 C502 1.524 . S
C506 H518 0.956 . S
C506 H519 0.961 . S
C506 H520 0.961 . S
C507 C504 1.539 . S
C507 H521 0.958 . S
C507 H522 0.961 . S
C507 H523 0.960 . S
H508 C492 0.931 . S
H509 C497 0.929 . S
H510 C498 0.960 . S
H511 C498 0.962 . S
H512 C498 0.960 . S
H513 C499 0.961 . S
H514 C499 0.961 . S
H515 C499 0.961 . S
H516 C500 0.931 . S
H517 C505 0.930 . S
H518 C506 0.956 . S
H519 C506 0.961 . S
H520 C506 0.961 . S
H521 C507 0.958 . S
H522 C507 0.961 . S
H523 C507 0.960 . S
C524 C525 1.391 . S
C524 C526 1.394 . S
C524 H540 0.931 . S
C525 C524 1.391 . S
C525 C529 1.376 . S
C526 C524 1.394 . S
C526 C527 1.369 . S
C526 C530 1.531 . S
C527 C526 1.369 . S
C527 C528 1.410 . S
C527 C535 1.503 . S
C528 C527 1.410 . S
C528 C529 1.392 . S
C528 C531 1.511 . S
C529 C525 1.376 . S
C529 C528 1.392 . S
C529 H541 0.929 . S
C530 C526 1.531 . S
C530 H542 0.960 . S
C530 H543 0.962 . S
C530 H544 0.960 . S
C531 C528 1.511 . S
C531 H545 0.961 . S
C531 H546 0.961 . S
C531 H547 0.961 . S
C532 C533 1.370 . S
C532 C534 1.363 . S
C532 H548 0.931 . S
C533 C532 1.370 . S
C533 C537 1.408 . S
C534 C532 1.363 . S
C534 C535 1.370 . S
C534 C538 1.524 . S
C535 C527 1.503 . S
C535 C534 1.370 . S
C535 C536 1.403 . S
C536 C535 1.403 . S
C536 C537 1.404 . S
C536 C539 1.539 . S
C537 C533 1.408 . S
C537 C536 1.404 . S
C537 H549 0.930 . S
C538 C534 1.524 . S
C538 H550 0.956 . S
C538 H551 0.961 . S
C538 H552 0.961 . S
C539 C536 1.539 . S
C539 H553 0.958 . S
C539 H554 0.961 . S
C539 H555 0.960 . S
H540 C524 0.931 . S
H541 C529 0.929 . S
H542 C530 0.960 . S
H543 C530 0.962 . S
H544 C530 0.960 . S
H545 C531 0.961 . S
H546 C531 0.961 . S
H547 C531 0.961 . S
H548 C532 0.931 . S
H549 C537 0.930 . S
H550 C538 0.956 . S
H551 C538 0.961 . S
H552 C538 0.961 . S
H553 C539 0.958 . S
H554 C539 0.961 . S
H555 C539 0.960 . S
C556 C557 1.391 . S
C556 C558 1.394 . S
C556 H572 0.931 . S
C557 C556 1.391 . S
C557 C561 1.376 . S
C558 C556 1.394 . S
C558 C559 1.369 . S
C558 C562 1.531 . S
C559 C558 1.369 . S
C559 C560 1.410 . S
C559 C567 1.503 . S
C560 C559 1.410 . S
C560 C561 1.392 . S
C560 C563 1.511 . S
C561 C557 1.376 . S
C561 C560 1.392 . S
C561 H573 0.929 . S
C562 C558 1.531 . S
C562 H574 0.960 . S
C562 H575 0.962 . S
C562 H576 0.960 . S
C563 C560 1.511 . S
C563 H577 0.961 . S
C563 H578 0.961 . S
C563 H579 0.961 . S
C564 C565 1.370 . S
C564 C566 1.363 . S
C564 H580 0.931 . S
C565 C564 1.370 . S
C565 C569 1.408 . S
C566 C564 1.363 . S
C566 C567 1.370 . S
C566 C570 1.524 . S
C567 C559 1.503 . S
C567 C566 1.370 . S
C567 C568 1.403 . S
C568 C567 1.403 . S
C568 C569 1.404 . S
C568 C571 1.539 . S
C569 C565 1.408 . S
C569 C568 1.404 . S
C569 H581 0.930 . S
C570 C566 1.524 . S
C570 H582 0.956 . S
C570 H583 0.961 . S
C570 H584 0.961 . S
C571 C568 1.539 . S
C571 H585 0.958 . S
C571 H586 0.961 . S
C571 H587 0.960 . S
H572 C556 0.931 . S
H573 C561 0.929 . S
H574 C562 0.960 . S
H575 C562 0.962 . S
H576 C562 0.960 . S
H577 C563 0.961 . S
H578 C563 0.961 . S
H579 C563 0.961 . S
H580 C564 0.931 . S
H581 C569 0.930 . S
H582 C570 0.956 . S
H583 C570 0.961 . S
H584 C570 0.961 . S
H585 C571 0.958 . S
H586 C571 0.961 . S
H587 C571 0.960 . S
C588 C589 1.391 . S
C588 C590 1.394 . S
C588 H604 0.931 . S
C589 C588 1.391 . S
C589 C593 1.376 . S
C590 C588 1.394 . S
C590 C591 1.369 . S
C590 C594 1.531 . S
C591 C590 1.369 . S
C591 C592 1.410 . S
C591 C599 1.503 . S
C592 C591 1.410 . S
C592 C593 1.392 . S
C592 C595 1.511 1_565 S
C593 C589 1.376 . S
C593 C592 1.392 . S
C593 H605 0.929 1_565 S
C594 C590 1.531 . S
C594 H606 0.960 . S
C594 H607 0.962 . S
C594 H608 0.960 . S
C595 C592 1.511 1_545 S
C595 H609 0.961 . S
C595 H610 0.961 . S
C595 H611 0.961 . S
C596 C597 1.370 . S
C596 C598 1.363 . S
C596 H612 0.931 . S
C597 C596 1.370 . S
C597 C601 1.416 . S
C598 C596 1.363 . S
C598 C599 1.370 . S
C598 C602 1.524 . S
C599 C591 1.503 . S
C599 C598 1.370 . S
C599 C600 1.403 . S
C600 C599 1.403 . S
C600 C601 1.404 . S
C600 C603 1.539 1_565 S
C601 C597 1.416 . S
C601 C600 1.404 . S
C601 H613 0.923 1_565 S
C602 C598 1.524 . S
C602 H614 0.956 . S
C602 H615 0.961 . S
C602 H616 0.961 . S
C603 C600 1.539 1_545 S
C603 H617 0.958 1_545 S
C603 H618 0.961 . S
C603 H619 0.960 . S
H604 C588 0.931 . S
H605 C593 0.929 1_545 S
H606 C594 0.960 . S
H607 C594 0.962 . S
H608 C594 0.960 . S
H609 C595 0.961 . S
H610 C595 0.961 . S
H611 C595 0.961 . S
H612 C596 0.931 . S
H613 C601 0.923 1_545 S
H614 C602 0.956 . S
H615 C602 0.961 . S
H616 C602 0.961 . S
H617 C603 0.958 1_565 S
H618 C603 0.961 . S
H619 C603 0.960 . S
C620 C621 1.391 . S
C620 C622 1.394 . S
C620 H636 0.931 . S
C621 C620 1.391 . S
C621 C625 1.376 . S
C622 C620 1.394 . S
C622 C623 1.369 . S
C622 C626 1.531 . S
C623 C622 1.369 . S
C623 C624 1.410 . S
C623 C631 1.503 . S
C624 C623 1.410 . S
C624 C625 1.392 . S
C624 C627 1.511 . S
C625 C621 1.376 . S
C625 C624 1.392 . S
C625 H637 0.929 . S
C626 C622 1.531 . S
C626 H638 0.960 . S
C626 H639 0.962 . S
C626 H640 0.960 . S
C627 C624 1.511 . S
C627 H641 0.961 . S
C627 H642 0.961 . S
C627 H643 0.961 . S
C628 C629 1.370 . S
C628 C630 1.363 . S
C628 H644 0.931 . S
C629 C628 1.370 . S
C629 C633 1.408 . S
C630 C628 1.363 . S
C630 C631 1.370 . S
C630 C634 1.524 . S
C631 C623 1.503 . S
C631 C630 1.370 . S
C631 C632 1.403 . S
C632 C631 1.403 . S
C632 C633 1.404 . S
C632 C635 1.539 . S
C633 C629 1.408 . S
C633 C632 1.404 . S
C633 H645 0.930 . S
C634 C630 1.524 . S
C634 H646 0.956 . S
C634 H647 0.961 . S
C634 H648 0.961 . S
C635 C632 1.539 . S
C635 H649 0.958 . S
C635 H650 0.961 . S
C635 H651 0.960 . S
H636 C620 0.931 . S
H637 C625 0.929 . S
H638 C626 0.960 . S
H639 C626 0.962 . S
H640 C626 0.960 . S
H641 C627 0.961 . S
H642 C627 0.961 . S
H643 C627 0.961 . S
H644 C628 0.931 . S
H645 C633 0.930 . S
H646 C634 0.956 . S
H647 C634 0.961 . S
H648 C634 0.961 . S
H649 C635 0.958 . S
H650 C635 0.961 . S
H651 C635 0.960 . S
C652 C653 1.391 . S
C652 C654 1.394 . S
C652 H668 0.931 . S
C653 C652 1.391 . S
C653 C657 1.376 . S
C654 C652 1.394 . S
C654 C655 1.369 . S
C654 C658 1.531 . S
C655 C654 1.369 . S
C655 C656 1.410 . S
C655 C663 1.503 . S
C656 C655 1.410 . S
C656 C657 1.392 . S
C656 C659 1.511 . S
C657 C653 1.376 . S
C657 C656 1.392 . S
C657 H669 0.929 . S
C658 C654 1.531 . S
C658 H670 0.960 . S
C658 H671 0.962 . S
C658 H672 0.960 . S
C659 C656 1.511 . S
C659 H673 0.961 . S
C659 H674 0.961 . S
C659 H675 0.961 . S
C660 C661 1.370 . S
C660 C662 1.363 . S
C660 H676 0.931 . S
C661 C660 1.370 . S
C661 C665 1.408 . S
C662 C660 1.363 . S
C662 C663 1.370 . S
C662 C666 1.524 . S
C663 C655 1.503 . S
C663 C662 1.370 . S
C663 C664 1.403 . S
C664 C663 1.403 . S
C664 C665 1.404 . S
C664 C667 1.539 . S
C665 C661 1.408 . S
C665 C664 1.404 . S
C665 H677 0.930 . S
C666 C662 1.524 . S
C666 H678 0.956 . S
C666 H679 0.961 . S
C666 H680 0.961 . S
C667 C664 1.539 . S
C667 H681 0.958 . S
C667 H682 0.961 . S
C667 H683 0.960 . S
H668 C652 0.931 . S
H669 C657 0.929 . S
H670 C658 0.960 . S
H671 C658 0.962 . S
H672 C658 0.960 . S
H673 C659 0.961 . S
H674 C659 0.961 . S
H675 C659 0.961 . S
H676 C660 0.931 . S
H677 C665 0.930 . S
H678 C666 0.956 . S
H679 C666 0.961 . S
H680 C666 0.961 . S
H681 C667 0.958 . S
H682 C667 0.961 . S
H683 C667 0.960 . S
C684 C685 1.391 . S
C684 C686 1.394 . S
C684 H700 0.931 . S
C685 C684 1.391 . S
C685 C689 1.376 . S
C686 C684 1.394 . S
C686 C687 1.369 . S
C686 C690 1.531 . S
C687 C686 1.369 . S
C687 C688 1.410 . S
C687 C695 1.503 . S
C688 C687 1.410 . S
C688 C689 1.392 . S
C688 C691 1.511 . S
C689 C685 1.376 . S
C689 C688 1.392 . S
C689 H701 0.929 . S
C690 C686 1.531 . S
C690 H702 0.960 . S
C690 H703 0.962 . S
C690 H704 0.960 . S
C691 C688 1.511 . S
C691 H705 0.961 . S
C691 H706 0.961 . S
C691 H707 0.961 . S
C692 C693 1.370 . S
C692 C694 1.363 . S
C692 H708 0.931 . S
C693 C692 1.370 . S
C693 C697 1.408 . S
C694 C692 1.363 . S
C694 C695 1.370 . S
C694 C698 1.524 . S
C695 C687 1.503 . S
C695 C694 1.370 . S
C695 C696 1.403 . S
C696 C695 1.403 . S
C696 C697 1.404 . S
C696 C699 1.539 . S
C697 C693 1.408 . S
C697 C696 1.404 . S
C697 H709 0.930 . S
C698 C694 1.524 . S
C698 H710 0.956 . S
C698 H711 0.961 . S
C698 H712 0.961 . S
C699 C696 1.539 . S
C699 H713 0.958 . S
C699 H714 0.961 . S
C699 H715 0.960 . S
H700 C684 0.931 . S
H701 C689 0.929 . S
H702 C690 0.960 . S
H703 C690 0.962 . S
H704 C690 0.960 . S
H705 C691 0.961 . S
H706 C691 0.961 . S
H707 C691 0.961 . S
H708 C692 0.931 . S
H709 C697 0.930 . S
H710 C698 0.956 . S
H711 C698 0.961 . S
H712 C698 0.961 . S
H713 C699 0.958 . S
H714 C699 0.961 . S
H715 C699 0.960 . S
C716 C717 1.391 . S
C716 C718 1.394 . S
C716 H732 0.931 . S
C717 C716 1.391 . S
C717 C721 1.376 . S
C718 C716 1.394 . S
C718 C719 1.369 . S
C718 C722 1.531 . S
C719 C718 1.369 . S
C719 C720 1.410 . S
C719 C727 1.503 . S
C720 C719 1.410 . S
C720 C721 1.392 . S
C720 C723 1.511 . S
C721 C717 1.376 . S
C721 C720 1.392 . S
C721 H733 0.929 . S
C722 C718 1.531 . S
C722 H734 0.960 . S
C722 H735 0.962 . S
C722 H736 0.960 . S
C723 C720 1.511 . S
C723 H737 0.961 . S
C723 H738 0.961 . S
C723 H739 0.961 . S
C724 C725 1.370 . S
C724 C726 1.363 . S
C724 H740 0.931 . S
C725 C724 1.370 . S
C725 C729 1.408 . S
C726 C724 1.363 . S
C726 C727 1.370 . S
C726 C730 1.524 . S
C727 C719 1.503 . S
C727 C726 1.370 . S
C727 C728 1.403 . S
C728 C727 1.403 . S
C728 C729 1.404 . S
C728 C731 1.539 . S
C729 C725 1.408 . S
C729 C728 1.404 . S
C729 H741 0.930 . S
C730 C726 1.524 . S
C730 H742 0.956 . S
C730 H743 0.961 . S
C730 H744 0.961 . S
C731 C728 1.539 . S
C731 H745 0.958 . S
C731 H746 0.961 . S
C731 H747 0.960 . S
H732 C716 0.931 . S
H733 C721 0.929 . S
H734 C722 0.960 . S
H735 C722 0.962 . S
H736 C722 0.960 . S
H737 C723 0.961 . S
H738 C723 0.961 . S
H739 C723 0.961 . S
H740 C724 0.931 . S
H741 C729 0.930 . S
H742 C730 0.956 . S
H743 C730 0.961 . S
H744 C730 0.961 . S
H745 C731 0.958 . S
H746 C731 0.961 . S
H747 C731 0.960 . S
C748 C749 1.391 . S
C748 C750 1.394 . S
C748 H764 0.931 . S
C749 C748 1.391 . S
C749 C753 1.376 . S
C750 C748 1.394 . S
C750 C751 1.369 . S
C750 C754 1.531 . S
C751 C750 1.369 . S
C751 C752 1.410 . S
C751 C759 1.503 . S
C752 C751 1.410 . S
C752 C753 1.392 . S
C752 C755 1.511 . S
C753 C749 1.376 . S
C753 C752 1.392 . S
C753 H765 0.929 . S
C754 C750 1.531 . S
C754 H766 0.960 . S
C754 H767 0.962 . S
C754 H768 0.960 . S
C755 C752 1.511 . S
C755 H769 0.961 . S
C755 H770 0.961 . S
C755 H771 0.961 . S
C756 C757 1.370 . S
C756 C758 1.363 . S
C756 H772 0.931 . S
C757 C756 1.370 . S
C757 C761 1.408 . S
C758 C756 1.363 . S
C758 C759 1.370 . S
C758 C762 1.524 . S
C759 C751 1.503 . S
C759 C758 1.370 . S
C759 C760 1.403 . S
C760 C759 1.403 . S
C760 C761 1.404 . S
C760 C763 1.539 . S
C761 C757 1.408 . S
C761 C760 1.404 . S
C761 H773 0.930 . S
C762 C758 1.524 . S
C762 H774 0.956 . S
C762 H775 0.961 . S
C762 H776 0.961 . S
C763 C760 1.539 . S
C763 H777 0.958 . S
C763 H778 0.961 . S
C763 H779 0.960 . S
H764 C748 0.931 . S
H765 C753 0.929 . S
H766 C754 0.960 . S
H767 C754 0.962 . S
H768 C754 0.960 . S
H769 C755 0.961 . S
H770 C755 0.961 . S
H771 C755 0.961 . S
H772 C756 0.931 . S
H773 C761 0.930 . S
H774 C762 0.956 . S
H775 C762 0.961 . S
H776 C762 0.961 . S
H777 C763 0.958 . S
H778 C763 0.961 . S
H779 C763 0.960 . S
C780 C781 1.391 . S
C780 C782 1.394 . S
C780 H796 0.931 . S
C781 C780 1.391 . S
C781 C785 1.376 . S
C782 C780 1.394 . S
C782 C783 1.369 . S
C782 C786 1.531 . S
C783 C782 1.369 . S
C783 C784 1.410 . S
C783 C791 1.503 . S
C784 C783 1.410 . S
C784 C785 1.392 . S
C784 C787 1.511 . S
C785 C781 1.376 . S
C785 C784 1.392 . S
C785 H797 0.929 . S
C786 C782 1.531 . S
C786 H798 0.960 . S
C786 H799 0.962 . S
C786 H800 0.960 1_455 S
C787 C784 1.511 . S
C787 H801 0.961 . S
C787 H802 0.961 . S
C787 H803 0.961 . S
C788 C789 1.370 . S
C788 C790 1.363 . S
C788 H804 0.931 . S
C789 C788 1.370 . S
C789 C793 1.408 . S
C790 C788 1.363 . S
C790 C791 1.370 . S
C790 C794 1.524 . S
C791 C783 1.503 . S
C791 C790 1.370 . S
C791 C792 1.403 . S
C792 C791 1.403 . S
C792 C793 1.404 . S
C792 C795 1.539 1_455 S
C793 C789 1.408 . S
C793 C792 1.404 . S
C793 H805 0.917 1_455 S
C794 C790 1.524 . S
C794 H806 0.956 . S
C794 H807 0.961 . S
C794 H808 0.961 . S
C795 C792 1.539 1_655 S
C795 H809 0.958 . S
C795 H810 0.961 . S
C795 H811 0.960 . S
H796 C780 0.931 . S
H797 C785 0.929 . S
H798 C786 0.960 . S
H799 C786 0.962 . S
H800 C786 0.960 1_655 S
H801 C787 0.961 . S
H802 C787 0.961 . S
H803 C787 0.961 . S
H804 C788 0.931 . S
H805 C793 0.917 1_655 S
H806 C794 0.956 . S
H807 C794 0.961 . S
H808 C794 0.961 . S
H809 C795 0.958 . S
H810 C795 0.961 . S
H811 C795 0.960 . S
C812 C813 1.391 . S
C812 C814 1.394 . S
C812 H828 0.931 . S
C813 C812 1.391 . S
C813 C817 1.376 . S
C814 C812 1.394 . S
C814 C815 1.369 . S
C814 C818 1.531 . S
C815 C814 1.369 . S
C815 C816 1.410 . S
C815 C823 1.503 . S
C816 C815 1.410 . S
C816 C817 1.392 . S
C816 C819 1.511 . S
C817 C813 1.376 . S
C817 C816 1.392 . S
C817 H829 0.929 . S
C818 C814 1.531 . S
C818 H830 0.960 . S
C818 H831 0.962 . S
C818 H832 0.960 . S
C819 C816 1.511 . S
C819 H833 0.961 . S
C819 H834 0.961 . S
C819 H835 0.961 . S
C820 C821 1.370 . S
C820 C822 1.363 . S
C820 H836 0.931 . S
C821 C820 1.370 . S
C821 C825 1.408 . S
C822 C820 1.363 . S
C822 C823 1.370 . S
C822 C826 1.524 . S
C823 C815 1.503 . S
C823 C822 1.370 . S
C823 C824 1.403 . S
C824 C823 1.403 . S
C824 C825 1.404 . S
C824 C827 1.539 . S
C825 C821 1.408 . S
C825 C824 1.404 . S
C825 H837 0.930 . S
C826 C822 1.524 . S
C826 H838 0.956 . S
C826 H839 0.961 . S
C826 H840 0.961 . S
C827 C824 1.539 . S
C827 H841 0.958 . S
C827 H842 0.961 . S
C827 H843 0.960 . S
H828 C812 0.931 . S
H829 C817 0.929 . S
H830 C818 0.960 . S
H831 C818 0.962 . S
H832 C818 0.960 . S
H833 C819 0.961 . S
H834 C819 0.961 . S
H835 C819 0.961 . S
H836 C820 0.931 . S
H837 C825 0.930 . S
H838 C826 0.956 . S
H839 C826 0.961 . S
H840 C826 0.961 . S
H841 C827 0.958 . S
H842 C827 0.961 . S
H843 C827 0.960 . S
C844 C845 1.391 . S
C844 C846 1.394 . S
C844 H860 0.931 . S
C845 C844 1.391 . S
C845 C849 1.376 . S
C846 C844 1.394 . S
C846 C847 1.369 . S
C846 C850 1.531 . S
C847 C846 1.369 . S
C847 C848 1.410 . S
C847 C855 1.503 . S
C848 C847 1.410 . S
C848 C849 1.392 . S
C848 C851 1.511 . S
C849 C845 1.376 . S
C849 C848 1.392 . S
C849 H861 0.929 . S
C850 C846 1.531 . S
C850 H862 0.960 . S
C850 H863 0.962 1_655 S
C850 H864 0.960 . S
C851 C848 1.511 . S
C851 H865 0.961 . S
C851 H866 0.961 . S
C851 H867 0.961 . S
C852 C853 1.370 . S
C852 C854 1.363 . S
C852 H868 0.931 . S
C853 C852 1.370 . S
C853 C857 1.408 1_455 S
C854 C852 1.363 . S
C854 C855 1.370 1_455 S
C854 C858 1.524 . S
C855 C847 1.503 . S
C855 C854 1.370 1_655 S
C855 C856 1.403 . S
C856 C855 1.403 . S
C856 C857 1.404 . S
C856 C859 1.539 . S
C857 C853 1.408 1_655 S
C857 C856 1.404 . S
C857 H869 0.930 . S
C858 C854 1.524 . S
C858 H870 0.956 . S
C858 H871 0.961 . S
C858 H872 0.961 . S
C859 C856 1.539 . S
C859 H873 0.958 . S
C859 H874 0.961 . S
C859 H875 0.960 . S
H860 C844 0.931 . S
H861 C849 0.929 . S
H862 C850 0.960 . S
H863 C850 0.962 1_455 S
H864 C850 0.960 . S
H865 C851 0.961 . S
H866 C851 0.961 . S
H867 C851 0.961 . S
H868 C852 0.931 . S
H869 C857 0.930 . S
H870 C858 0.956 . S
H871 C858 0.961 . S
H872 C858 0.961 . S
H873 C859 0.958 . S
H874 C859 0.961 . S
H875 C859 0.960 . S
C876 C877 1.391 . S
C876 C878 1.394 . S
C876 H892 0.931 . S
C877 C876 1.391 . S
C877 C881 1.376 . S
C878 C876 1.394 . S
C878 C879 1.369 . S
C878 C882 1.531 . S
C879 C878 1.369 . S
C879 C880 1.410 . S
C879 C887 1.503 . S
C880 C879 1.410 . S
C880 C881 1.392 . S
C880 C883 1.511 . S
C881 C877 1.376 . S
C881 C880 1.392 . S
C881 H893 0.929 . S
C882 C878 1.531 . S
C882 H894 0.960 . S
C882 H895 0.962 . S
C882 H896 0.960 . S
C883 C880 1.511 . S
C883 H897 0.961 . S
C883 H898 0.961 . S
C883 H899 0.961 . S
C884 C885 1.370 . S
C884 C886 1.363 . S
C884 H900 0.931 . S
C885 C884 1.370 . S
C885 C889 1.408 . S
C886 C884 1.363 . S
C886 C887 1.370 . S
C886 C890 1.524 . S
C887 C879 1.503 . S
C887 C886 1.370 . S
C887 C888 1.403 . S
C888 C887 1.403 . S
C888 C889 1.404 . S
C888 C891 1.539 . S
C889 C885 1.408 . S
C889 C888 1.404 . S
C889 H901 0.930 . S
C890 C886 1.524 . S
C890 H902 0.956 . S
C890 H903 0.961 . S
C890 H904 0.961 . S
C891 C888 1.539 . S
C891 H905 0.958 . S
C891 H906 0.961 . S
C891 H907 0.960 . S
H892 C876 0.931 . S
H893 C881 0.929 . S
H894 C882 0.960 . S
H895 C882 0.962 . S
H896 C882 0.960 . S
H897 C883 0.961 . S
H898 C883 0.961 . S
H899 C883 0.961 . S
H900 C884 0.931 . S
H901 C889 0.930 . S
H902 C890 0.956 . S
H903 C890 0.961 . S
H904 C890 0.961 . S
H905 C891 0.958 . S
H906 C891 0.961 . S
H907 C891 0.960 . S
C908 C909 1.391 . S
C908 C910 1.394 . S
C908 H924 0.931 . S
C909 C908 1.391 . S
C909 C913 1.376 . S
C910 C908 1.394 . S
C910 C911 1.369 . S
C910 C914 1.531 . S
C911 C910 1.369 . S
C911 C912 1.410 . S
C911 C919 1.503 . S
C912 C911 1.410 . S
C912 C913 1.392 . S
C912 C915 1.511 . S
C913 C909 1.376 . S
C913 C912 1.392 . S
C913 H925 0.929 . S
C914 C910 1.531 . S
C914 H926 0.960 . S
C914 H927 0.962 . S
C914 H928 0.960 . S
C915 C912 1.511 . S
C915 H929 0.961 . S
C915 H930 0.961 . S
C915 H931 0.961 . S
C916 C917 1.370 . S
C916 C918 1.363 . S
C916 H932 0.931 . S
C917 C916 1.370 . S
C917 C921 1.408 . S
C918 C916 1.363 . S
C918 C919 1.370 . S
C918 C922 1.524 . S
C919 C911 1.503 . S
C919 C918 1.370 . S
C919 C920 1.403 . S
C920 C919 1.403 . S
C920 C921 1.404 . S
C920 C923 1.539 . S
C921 C917 1.408 . S
C921 C920 1.404 . S
C921 H933 0.930 . S
C922 C918 1.524 . S
C922 H934 0.956 . S
C922 H935 0.961 . S
C922 H936 0.961 . S
C923 C920 1.539 . S
C923 H937 0.958 . S
C923 H938 0.961 . S
C923 H939 0.960 . S
H924 C908 0.931 . S
H925 C913 0.929 . S
H926 C914 0.960 . S
H927 C914 0.962 . S
H928 C914 0.960 . S
H929 C915 0.961 . S
H930 C915 0.961 . S
H931 C915 0.961 . S
H932 C916 0.931 . S
H933 C921 0.930 . S
H934 C922 0.956 . S
H935 C922 0.961 . S
H936 C922 0.961 . S
H937 C923 0.958 . S
H938 C923 0.961 . S
H939 C923 0.960 . S
C940 C941 1.391 1_565 S
C940 C942 1.394 . S
C940 H956 0.931 . S
C941 C940 1.391 1_545 S
C941 C945 1.376 1_556 S
C942 C940 1.394 . S
C942 C943 1.369 . S
C942 C946 1.531 . S
C943 C942 1.369 . S
C943 C944 1.410 1_556 S
C943 C951 1.503 1_556 S
C944 C943 1.410 1_554 S
C944 C945 1.392 1_565 S
C944 C947 1.511 1_565 S
C945 C941 1.376 1_554 S
C945 C944 1.392 1_545 S
C945 H957 0.929 . S
C946 C942 1.531 . S
C946 H958 0.960 . S
C946 H959 0.962 . S
C946 H960 0.960 . S
C947 C944 1.511 1_545 S
C947 H961 0.961 . S
C947 H962 0.964 . S
C947 H963 0.956 1_545 S
C948 C949 1.370 1_556 S
C948 C950 1.363 . S
C948 H964 0.931 . S
C949 C948 1.370 1_554 S
C949 C953 1.408 . S
C950 C948 1.363 . S
C950 C951 1.369 1_556 S
C950 C954 1.524 . S
C951 C943 1.503 1_554 S
C951 C950 1.369 1_554 S
C951 C952 1.404 . S
C952 C951 1.404 . S
C952 C953 1.404 . S
C952 C955 1.539 . S
C953 C949 1.408 . S
C953 C952 1.404 . S
C953 H965 0.930 . S
C954 C950 1.524 . S
C954 H966 0.956 . S
C954 H967 0.961 1_565 S
C954 H968 0.961 . S
C955 C952 1.539 . S
C955 H969 0.958 . S
C955 H970 0.961 . S
C955 H971 0.960 . S
H956 C940 0.931 . S
H957 C945 0.929 . S
H958 C946 0.960 . S
H959 C946 0.962 . S
H960 C946 0.960 . S
H961 C947 0.961 . S
H962 C947 0.964 . S
H963 C947 0.956 1_565 S
H964 C948 0.931 . S
H965 C953 0.930 . S
H966 C954 0.956 . S
H967 C954 0.961 1_545 S
H968 C954 0.961 . S
H969 C955 0.958 . S
H970 C955 0.961 . S
H971 C955 0.960 . S
C972 C973 1.391 . S
C972 C974 1.394 . S
C972 H988 0.931 . S
C973 C972 1.391 . S
C973 C977 1.376 . S
C974 C972 1.394 . S
C974 C975 1.369 . S
C974 C978 1.531 . S
C975 C974 1.369 . S
C975 C976 1.410 . S
C975 C983 1.503 . S
C976 C975 1.410 . S
C976 C977 1.392 . S
C976 C979 1.511 . S
C977 C973 1.376 . S
C977 C976 1.392 . S
C977 H989 0.929 . S
C978 C974 1.531 . S
C978 H990 0.960 . S
C978 H991 0.962 . S
C978 H992 0.960 . S
C979 C976 1.511 . S
C979 H993 0.961 . S
C979 H994 0.961 . S
C979 H995 0.961 . S
C980 C981 1.370 . S
C980 C982 1.363 . S
C980 H996 0.931 . S
C981 C980 1.370 . S
C981 C985 1.408 . S
C982 C980 1.363 . S
C982 C983 1.370 . S
C982 C986 1.524 . S
C983 C975 1.503 . S
C983 C982 1.370 . S
C983 C984 1.403 . S
C984 C983 1.403 . S
C984 C985 1.404 . S
C984 C987 1.539 . S
C985 C981 1.408 . S
C985 C984 1.404 . S
C985 H997 0.930 . S
C986 C982 1.524 . S
C986 H998 0.956 . S
C986 H999 0.961 . S
C986 H1000 0.961 . S
C987 C984 1.539 . S
C987 H1001 0.958 . S
C987 H1002 0.961 . S
C987 H1003 0.960 . S
H988 C972 0.931 . S
H989 C977 0.929 . S
H990 C978 0.960 . S
H991 C978 0.962 . S
H992 C978 0.960 . S
H993 C979 0.961 . S
H994 C979 0.961 . S
H995 C979 0.961 . S
H996 C980 0.931 . S
H997 C985 0.930 . S
H998 C986 0.956 . S
H999 C986 0.961 . S
H1000 C986 0.961 . S
H1001 C987 0.958 . S
H1002 C987 0.961 . S
H1003 C987 0.960 . S
C1004 C1005 1.391 . S
C1004 C1006 1.394 . S
C1004 H1020 0.931 . S
C1005 C1004 1.391 . S
C1005 C1009 1.357 1_545 S
C1006 C1004 1.394 . S
C1006 C1007 1.369 . S
C1006 C1010 1.531 . S
C1007 C1006 1.369 . S
C1007 C1008 1.410 . S
C1007 C1015 1.503 . S
C1008 C1007 1.410 . S
C1008 C1009 1.373 1_545 S
C1008 C1011 1.511 . S
C1009 C1005 1.357 1_565 S
C1009 C1008 1.373 1_565 S
C1009 H1021 0.969 . S
C1010 C1006 1.531 . S
C1010 H1022 0.960 . S
C1010 H1023 0.962 . S
C1010 H1024 0.960 . S
C1011 C1008 1.511 . S
C1011 H1025 0.961 1_545 S
C1011 H1026 0.961 . S
C1011 H1027 0.961 . S
C1012 C1013 1.370 . S
C1012 C1014 1.363 . S
C1012 H1028 0.931 . S
C1013 C1012 1.370 . S
C1013 C1017 1.408 . S
C1014 C1012 1.363 . S
C1014 C1015 1.370 . S
C1014 C1018 1.524 . S
C1015 C1007 1.503 . S
C1015 C1014 1.370 . S
C1015 C1016 1.403 . S
C1016 C1015 1.403 . S
C1016 C1017 1.404 . S
C1016 C1019 1.539 . S
C1017 C1013 1.408 . S
C1017 C1016 1.404 . S
C1017 H1029 0.930 . S
C1018 C1014 1.524 . S
C1018 H1030 0.956 . S
C1018 H1031 0.961 . S
C1018 H1032 0.961 . S
C1019 C1016 1.539 . S
C1019 H1033 0.958 . S
C1019 H1034 0.961 . S
C1019 H1035 0.960 . S
H1020 C1004 0.931 . S
H1021 C1009 0.969 . S
H1022 C1010 0.960 . S
H1023 C1010 0.962 . S
H1024 C1010 0.960 . S
H1025 C1011 0.961 1_565 S
H1026 C1011 0.961 . S
H1027 C1011 0.961 . S
H1028 C1012 0.931 . S
H1029 C1017 0.930 . S
H1030 C1018 0.956 . S
H1031 C1018 0.961 . S
H1032 C1018 0.961 . S
H1033 C1019 0.958 . S
H1034 C1019 0.961 . S
H1035 C1019 0.960 . S
C1036 C1037 1.391 . S
C1036 C1038 1.394 . S
C1036 H1052 0.931 . S
C1037 C1036 1.391 . S
C1037 C1041 1.376 . S
C1038 C1036 1.394 . S
C1038 C1039 1.369 . S
C1038 C1042 1.531 . S
C1039 C1038 1.369 . S
C1039 C1040 1.410 . S
C1039 C1047 1.503 . S
C1040 C1039 1.410 . S
C1040 C1041 1.392 . S
C1040 C1043 1.511 . S
C1041 C1037 1.376 . S
C1041 C1040 1.392 . S
C1041 H1053 0.929 . S
C1042 C1038 1.531 . S
C1042 H1054 0.960 . S
C1042 H1055 0.962 . S
C1042 H1056 0.960 . S
C1043 C1040 1.511 . S
C1043 H1057 0.961 . S
C1043 H1058 0.961 . S
C1043 H1059 0.961 . S
C1044 C1045 1.370 . S
C1044 C1046 1.363 . S
C1044 H1060 0.931 . S
C1045 C1044 1.370 . S
C1045 C1049 1.408 . S
C1046 C1044 1.363 . S
C1046 C1047 1.370 . S
C1046 C1050 1.524 . S
C1047 C1039 1.503 . S
C1047 C1046 1.370 . S
C1047 C1048 1.403 . S
C1048 C1047 1.403 . S
C1048 C1049 1.404 . S
C1048 C1051 1.539 . S
C1049 C1045 1.408 . S
C1049 C1048 1.404 . S
C1049 H1061 0.930 . S
C1050 C1046 1.524 . S
C1050 H1062 0.956 . S
C1050 H1063 0.961 . S
C1050 H1064 0.961 . S
C1051 C1048 1.539 . S
C1051 H1065 0.958 . S
C1051 H1066 0.961 . S
C1051 H1067 0.960 . S
H1052 C1036 0.931 . S
H1053 C1041 0.929 . S
H1054 C1042 0.960 . S
H1055 C1042 0.962 . S
H1056 C1042 0.960 . S
H1057 C1043 0.961 . S
H1058 C1043 0.961 . S
H1059 C1043 0.961 . S
H1060 C1044 0.931 . S
H1061 C1049 0.930 . S
H1062 C1050 0.956 . S
H1063 C1050 0.961 . S
H1064 C1050 0.961 . S
H1065 C1051 0.958 . S
H1066 C1051 0.961 . S
H1067 C1051 0.960 . S
C1068 C1069 1.391 1_545 S
C1068 C1070 1.394 . S
C1068 H1084 0.931 . S
C1069 C1068 1.391 1_565 S
C1069 C1073 1.376 . S
C1070 C1068 1.394 . S
C1070 C1071 1.369 . S
C1070 C1074 1.531 . S
C1071 C1070 1.369 . S
C1071 C1072 1.410 . S
C1071 C1079 1.503 . S
C1072 C1071 1.410 . S
C1072 C1073 1.392 1_545 S
C1072 C1075 1.511 . S
C1073 C1069 1.376 . S
C1073 C1072 1.392 1_565 S
C1073 H1085 0.929 . S
C1074 C1070 1.531 . S
C1074 H1086 0.960 . S
C1074 H1087 0.962 . S
C1074 H1088 0.960 . S
C1075 C1072 1.511 . S
C1075 H1089 0.961 1_545 S
C1075 H1090 0.961 . S
C1075 H1091 0.961 1_545 S
C1076 C1077 1.370 . S
C1076 C1078 1.363 . S
C1076 H1092 0.931 . S
C1077 C1076 1.370 . S
C1077 C1081 1.408 . S
C1078 C1076 1.363 . S
C1078 C1079 1.370 . S
C1078 C1082 1.524 . S
C1079 C1071 1.503 . S
C1079 C1078 1.370 . S
C1079 C1080 1.403 . S
C1080 C1079 1.403 . S
C1080 C1081 1.404 . S
C1080 C1083 1.539 . S
C1081 C1077 1.408 . S
C1081 C1080 1.404 . S
C1081 H1093 0.930 . S
C1082 C1078 1.524 . S
C1082 H1094 0.956 . S
C1082 H1095 0.961 . S
C1082 H1096 0.961 . S
C1083 C1080 1.539 . S
C1083 H1097 0.958 . S
C1083 H1098 0.961 . S
C1083 H1099 0.960 1_545 S
H1084 C1068 0.931 . S
H1085 C1073 0.929 . S
H1086 C1074 0.960 . S
H1087 C1074 0.962 . S
H1088 C1074 0.960 . S
H1089 C1075 0.961 1_565 S
H1090 C1075 0.961 . S
H1091 C1075 0.961 1_565 S
H1092 C1076 0.931 . S
H1093 C1081 0.930 . S
H1094 C1082 0.956 . S
H1095 C1082 0.961 . S
H1096 C1082 0.961 . S
H1097 C1083 0.958 . S
H1098 C1083 0.961 . S
H1099 C1083 0.960 1_565 S
C1100 C1101 1.391 . S
C1100 C1102 1.394 . S
C1100 H1116 0.931 . S
C1101 C1100 1.391 . S
C1101 C1105 1.376 . S
C1102 C1100 1.394 . S
C1102 C1103 1.369 . S
C1102 C1106 1.531 . S
C1103 C1102 1.369 . S
C1103 C1104 1.410 . S
C1103 C1111 1.503 . S
C1104 C1103 1.410 . S
C1104 C1105 1.392 . S
C1104 C1107 1.511 . S
C1105 C1101 1.376 . S
C1105 C1104 1.392 . S
C1105 H1117 0.929 . S
C1106 C1102 1.531 . S
C1106 H1118 0.960 . S
C1106 H1119 0.962 . S
C1106 H1120 0.960 . S
C1107 C1104 1.511 . S
C1107 H1121 0.961 . S
C1107 H1122 0.961 . S
C1107 H1123 0.961 . S
C1108 C1109 1.370 . S
C1108 C1110 1.363 . S
C1108 H1124 0.931 . S
C1109 C1108 1.370 . S
C1109 C1113 1.408 . S
C1110 C1108 1.363 . S
C1110 C1111 1.370 . S
C1110 C1114 1.524 . S
C1111 C1103 1.503 . S
C1111 C1110 1.370 . S
C1111 C1112 1.403 . S
C1112 C1111 1.403 . S
C1112 C1113 1.404 . S
C1112 C1115 1.539 . S
C1113 C1109 1.408 . S
C1113 C1112 1.404 . S
C1113 H1125 0.930 . S
C1114 C1110 1.524 . S
C1114 H1126 0.956 . S
C1114 H1127 0.961 . S
C1114 H1128 0.961 . S
C1115 C1112 1.539 . S
C1115 H1129 0.958 . S
C1115 H1130 0.961 . S
C1115 H1131 0.960 . S
H1116 C1100 0.931 . S
H1117 C1105 0.929 . S
H1118 C1106 0.960 . S
H1119 C1106 0.962 . S
H1120 C1106 0.960 . S
H1121 C1107 0.961 . S
H1122 C1107 0.961 . S
H1123 C1107 0.961 . S
H1124 C1108 0.931 . S
H1125 C1113 0.930 . S
H1126 C1114 0.956 . S
H1127 C1114 0.961 . S
H1128 C1114 0.961 . S
H1129 C1115 0.958 . S
H1130 C1115 0.961 . S
H1131 C1115 0.960 . S
C1132 C1133 1.391 . S
C1132 C1134 1.394 . S
C1132 H1148 0.931 . S
C1133 C1132 1.391 . S
C1133 C1137 1.376 . S
C1134 C1132 1.394 . S
C1134 C1135 1.369 . S
C1134 C1138 1.531 . S
C1135 C1134 1.369 . S
C1135 C1136 1.410 . S
C1135 C1143 1.503 . S
C1136 C1135 1.410 . S
C1136 C1137 1.392 . S
C1136 C1139 1.511 . S
C1137 C1133 1.376 . S
C1137 C1136 1.392 . S
C1137 H1149 0.929 . S
C1138 C1134 1.531 . S
C1138 H1150 0.960 . S
C1138 H1151 0.962 . S
C1138 H1152 0.960 . S
C1139 C1136 1.511 . S
C1139 H1153 0.961 . S
C1139 H1154 0.961 . S
C1139 H1155 0.961 . S
C1140 C1141 1.370 . S
C1140 C1142 1.363 . S
C1140 H1156 0.931 . S
C1141 C1140 1.370 . S
C1141 C1145 1.408 . S
C1142 C1140 1.363 . S
C1142 C1143 1.370 . S
C1142 C1146 1.524 . S
C1143 C1135 1.503 . S
C1143 C1142 1.370 . S
C1143 C1144 1.403 . S
C1144 C1143 1.403 . S
C1144 C1145 1.404 . S
C1144 C1147 1.539 . S
C1145 C1141 1.408 . S
C1145 C1144 1.404 . S
C1145 H1157 0.930 . S
C1146 C1142 1.524 . S
C1146 H1158 0.956 . S
C1146 H1159 0.961 . S
C1146 H1160 0.961 . S
C1147 C1144 1.539 . S
C1147 H1161 0.958 . S
C1147 H1162 0.961 . S
C1147 H1163 0.960 . S
H1148 C1132 0.931 . S
H1149 C1137 0.929 . S
H1150 C1138 0.960 . S
H1151 C1138 0.962 . S
H1152 C1138 0.960 . S
H1153 C1139 0.961 . S
H1154 C1139 0.961 . S
H1155 C1139 0.961 . S
H1156 C1140 0.931 . S
H1157 C1145 0.930 . S
H1158 C1146 0.956 . S
H1159 C1146 0.961 . S
H1160 C1146 0.961 . S
H1161 C1147 0.958 . S
H1162 C1147 0.961 . S
H1163 C1147 0.960 . S
C1164 C1165 1.391 . S
C1164 C1166 1.394 . S
C1164 H1180 0.931 . S
C1165 C1164 1.391 . S
C1165 C1169 1.376 . S
C1166 C1164 1.394 . S
C1166 C1167 1.369 . S
C1166 C1170 1.531 . S
C1167 C1166 1.369 . S
C1167 C1168 1.410 . S
C1167 C1175 1.503 . S
C1168 C1167 1.410 . S
C1168 C1169 1.392 . S
C1168 C1171 1.511 . S
C1169 C1165 1.376 . S
C1169 C1168 1.392 . S
C1169 H1181 0.929 . S
C1170 C1166 1.531 . S
C1170 H1182 0.960 . S
C1170 H1183 0.962 . S
C1170 H1184 0.960 . S
C1171 C1168 1.511 . S
C1171 H1185 0.961 . S
C1171 H1186 0.961 . S
C1171 H1187 0.961 . S
C1172 C1173 1.370 . S
C1172 C1174 1.363 . S
C1172 H1188 0.931 1_545 S
C1173 C1172 1.370 . S
C1173 C1177 1.408 . S
C1174 C1172 1.363 . S
C1174 C1175 1.370 . S
C1174 C1178 1.524 1_545 S
C1175 C1167 1.503 . S
C1175 C1174 1.370 . S
C1175 C1176 1.403 . S
C1176 C1175 1.403 . S
C1176 C1177 1.404 . S
C1176 C1179 1.539 . S
C1177 C1173 1.408 . S
C1177 C1176 1.404 . S
C1177 H1189 0.930 . S
C1178 C1174 1.524 1_565 S
C1178 H1190 0.956 . S
C1178 H1191 0.961 . S
C1178 H1192 0.961 . S
C1179 C1176 1.539 . S
C1179 H1193 0.958 . S
C1179 H1194 0.961 . S
C1179 H1195 0.960 . S
H1180 C1164 0.931 . S
H1181 C1169 0.929 . S
H1182 C1170 0.960 . S
H1183 C1170 0.962 . S
H1184 C1170 0.960 . S
H1185 C1171 0.961 . S
H1186 C1171 0.961 . S
H1187 C1171 0.961 . S
H1188 C1172 0.931 1_565 S
H1189 C1177 0.930 . S
H1190 C1178 0.956 . S
H1191 C1178 0.961 . S
H1192 C1178 0.961 . S
H1193 C1179 0.958 . S
H1194 C1179 0.961 . S
H1195 C1179 0.960 . S
C1196 C1197 1.391 . S
C1196 C1198 1.394 . S
C1196 H1212 0.931 . S
C1197 C1196 1.391 . S
C1197 C1201 1.376 . S
C1198 C1196 1.394 . S
C1198 C1199 1.369 . S
C1198 C1202 1.531 . S
C1199 C1198 1.369 . S
C1199 C1200 1.410 . S
C1199 C1207 1.503 . S
C1200 C1199 1.410 . S
C1200 C1201 1.392 . S
C1200 C1203 1.511 . S
C1201 C1197 1.376 . S
C1201 C1200 1.392 . S
C1201 H1213 0.929 . S
C1202 C1198 1.531 . S
C1202 H1214 0.960 . S
C1202 H1215 0.962 . S
C1202 H1216 0.960 . S
C1203 C1200 1.511 . S
C1203 H1217 0.961 . S
C1203 H1218 0.961 . S
C1203 H1219 0.961 . S
C1204 C1205 1.370 . S
C1204 C1206 1.363 . S
C1204 H1220 0.931 . S
C1205 C1204 1.370 . S
C1205 C1209 1.408 . S
C1206 C1204 1.363 . S
C1206 C1207 1.370 . S
C1206 C1210 1.524 . S
C1207 C1199 1.503 . S
C1207 C1206 1.370 . S
C1207 C1208 1.403 . S
C1208 C1207 1.403 . S
C1208 C1209 1.404 . S
C1208 C1211 1.539 . S
C1209 C1205 1.408 . S
C1209 C1208 1.404 . S
C1209 H1221 0.930 . S
C1210 C1206 1.524 . S
C1210 H1222 0.956 . S
C1210 H1223 0.961 . S
C1210 H1224 0.961 . S
C1211 C1208 1.539 . S
C1211 H1225 0.958 . S
C1211 H1226 0.961 . S
C1211 H1227 0.960 . S
H1212 C1196 0.931 . S
H1213 C1201 0.929 . S
H1214 C1202 0.960 . S
H1215 C1202 0.962 . S
H1216 C1202 0.960 . S
H1217 C1203 0.961 . S
H1218 C1203 0.961 . S
H1219 C1203 0.961 . S
H1220 C1204 0.931 . S
H1221 C1209 0.930 . S
H1222 C1210 0.956 . S
H1223 C1210 0.961 . S
H1224 C1210 0.961 . S
H1225 C1211 0.958 . S
H1226 C1211 0.961 . S
H1227 C1211 0.960 . S
C1228 C1229 1.391 . S
C1228 C1230 1.394 . S
C1228 H1244 0.931 . S
C1229 C1228 1.391 . S
C1229 C1233 1.376 . S
C1230 C1228 1.394 . S
C1230 C1231 1.369 . S
C1230 C1234 1.531 . S
C1231 C1230 1.369 . S
C1231 C1232 1.410 . S
C1231 C1239 1.503 . S
C1232 C1231 1.410 . S
C1232 C1233 1.392 . S
C1232 C1235 1.511 . S
C1233 C1229 1.376 . S
C1233 C1232 1.392 . S
C1233 H1245 0.929 . S
C1234 C1230 1.531 . S
C1234 H1246 0.960 . S
C1234 H1247 0.962 . S
C1234 H1248 0.960 . S
C1235 C1232 1.511 . S
C1235 H1249 0.961 . S
C1235 H1250 0.961 . S
C1235 H1251 0.961 . S
C1236 C1237 1.370 . S
C1236 C1238 1.363 . S
C1236 H1252 0.931 . S
C1237 C1236 1.370 . S
C1237 C1241 1.408 . S
C1238 C1236 1.363 . S
C1238 C1239 1.370 . S
C1238 C1242 1.524 . S
C1239 C1231 1.503 . S
C1239 C1238 1.370 . S
C1239 C1240 1.403 . S
C1240 C1239 1.403 . S
C1240 C1241 1.404 . S
C1240 C1243 1.539 . S
C1241 C1237 1.408 . S
C1241 C1240 1.404 . S
C1241 H1253 0.930 . S
C1242 C1238 1.524 . S
C1242 H1254 0.956 . S
C1242 H1255 0.961 . S
C1242 H1256 0.961 . S
C1243 C1240 1.539 . S
C1243 H1257 0.958 . S
C1243 H1258 0.961 . S
C1243 H1259 0.960 . S
H1244 C1228 0.931 . S
H1245 C1233 0.929 . S
H1246 C1234 0.960 . S
H1247 C1234 0.962 . S
H1248 C1234 0.960 . S
H1249 C1235 0.961 . S
H1250 C1235 0.961 . S
H1251 C1235 0.961 . S
H1252 C1236 0.931 . S
H1253 C1241 0.930 . S
H1254 C1242 0.956 . S
H1255 C1242 0.961 . S
H1256 C1242 0.961 . S
H1257 C1243 0.958 . S
H1258 C1243 0.961 . S
H1259 C1243 0.960 . S
C1260 C1261 1.391 . S
C1260 C1262 1.394 . S
C1260 H1276 0.931 . S
C1261 C1260 1.391 . S
C1261 C1265 1.376 . S
C1262 C1260 1.394 . S
C1262 C1263 1.369 . S
C1262 C1266 1.531 . S
C1263 C1262 1.369 . S
C1263 C1264 1.410 . S
C1263 C1271 1.503 . S
C1264 C1263 1.410 . S
C1264 C1265 1.392 . S
C1264 C1267 1.511 . S
C1265 C1261 1.376 . S
C1265 C1264 1.392 . S
C1265 H1277 0.929 . S
C1266 C1262 1.531 . S
C1266 H1278 0.960 . S
C1266 H1279 0.962 . S
C1266 H1280 0.960 . S
C1267 C1264 1.511 . S
C1267 H1281 0.961 . S
C1267 H1282 0.961 . S
C1267 H1283 0.961 . S
C1268 C1269 1.370 . S
C1268 C1270 1.363 . S
C1268 H1284 0.931 . S
C1269 C1268 1.370 . S
C1269 C1273 1.408 . S
C1270 C1268 1.363 . S
C1270 C1271 1.370 . S
C1270 C1274 1.524 . S
C1271 C1263 1.503 . S
C1271 C1270 1.370 . S
C1271 C1272 1.403 . S
C1272 C1271 1.403 . S
C1272 C1273 1.404 . S
C1272 C1275 1.539 . S
C1273 C1269 1.408 . S
C1273 C1272 1.404 . S
C1273 H1285 0.930 . S
C1274 C1270 1.524 . S
C1274 H1286 0.956 . S
C1274 H1287 0.961 . S
C1274 H1288 0.961 . S
C1275 C1272 1.539 . S
C1275 H1289 0.958 . S
C1275 H1290 0.961 . S
C1275 H1291 0.960 . S
H1276 C1260 0.931 . S
H1277 C1265 0.929 . S
H1278 C1266 0.960 . S
H1279 C1266 0.962 . S
H1280 C1266 0.960 . S
H1281 C1267 0.961 . S
H1282 C1267 0.961 . S
H1283 C1267 0.961 . S
H1284 C1268 0.931 . S
H1285 C1273 0.930 . S
H1286 C1274 0.956 . S
H1287 C1274 0.961 . S
H1288 C1274 0.961 . S
H1289 C1275 0.958 . S
H1290 C1275 0.961 . S
H1291 C1275 0.960 . S
C1292 C1293 1.391 1_565 S
C1292 C1294 1.394 . S
C1292 H1308 0.931 . S
C1293 C1292 1.391 1_545 S
C1293 C1297 1.376 . S
C1294 C1292 1.394 . S
C1294 C1295 1.369 1_565 S
C1294 C1298 1.531 . S
C1295 C1294 1.369 1_545 S
C1295 C1296 1.410 . S
C1295 C1303 1.503 . S
C1296 C1295 1.410 . S
C1296 C1297 1.392 . S
C1296 C1299 1.511 . S
C1297 C1293 1.376 . S
C1297 C1296 1.392 . S
C1297 H1309 0.929 1_655 S
C1298 C1294 1.531 . S
C1298 H1310 0.960 . S
C1298 H1311 0.962 . S
C1298 H1312 0.960 . S
C1299 C1296 1.511 . S
C1299 H1313 0.961 . S
C1299 H1314 0.961 . S
C1299 H1315 0.961 . S
C1300 C1301 1.370 . S
C1300 C1302 1.363 . S
C1300 H1316 0.931 . S
C1301 C1300 1.370 . S
C1301 C1305 1.408 1_545 S
C1302 C1300 1.363 . S
C1302 C1303 1.370 . S
C1302 C1306 1.524 . S
C1303 C1295 1.503 . S
C1303 C1302 1.370 . S
C1303 C1304 1.403 1_545 S
C1304 C1303 1.403 1_565 S
C1304 C1305 1.404 . S
C1304 C1307 1.539 . S
C1305 C1301 1.408 1_565 S
C1305 C1304 1.404 . S
C1305 H1317 0.930 . S
C1306 C1302 1.524 . S
C1306 H1318 0.956 . S
C1306 H1319 0.961 . S
C1306 H1320 0.961 . S
C1307 C1304 1.539 . S
C1307 H1321 0.958 . S
C1307 H1322 0.961 . S
C1307 H1323 0.960 . S
H1308 C1292 0.931 . S
H1309 C1297 0.929 1_455 S
H1310 C1298 0.960 . S
H1311 C1298 0.962 . S
H1312 C1298 0.960 . S
H1313 C1299 0.961 . S
H1314 C1299 0.961 . S
H1315 C1299 0.961 . S
H1316 C1300 0.931 . S
H1317 C1305 0.930 . S
H1318 C1306 0.956 . S
H1319 C1306 0.961 . S
H1320 C1306 0.961 . S
H1321 C1307 0.958 . S
H1322 C1307 0.961 . S
H1323 C1307 0.960 . S
C1324 C1325 1.391 . S
C1324 C1326 1.394 . S
C1324 H1340 0.931 . S
C1325 C1324 1.391 . S
C1325 C1329 1.376 . S
C1326 C1324 1.394 . S
C1326 C1327 1.369 . S
C1326 C1330 1.531 . S
C1327 C1326 1.369 . S
C1327 C1328 1.410 . S
C1327 C1335 1.503 . S
C1328 C1327 1.410 . S
C1328 C1329 1.392 . S
C1328 C1331 1.511 . S
C1329 C1325 1.376 . S
C1329 C1328 1.392 . S
C1329 H1341 0.929 . S
C1330 C1326 1.531 . S
C1330 H1342 0.960 . S
C1330 H1343 0.962 . S
C1330 H1344 0.960 . S
C1331 C1328 1.511 . S
C1331 H1345 0.961 . S
C1331 H1346 0.961 . S
C1331 H1347 0.961 . S
C1332 C1333 1.370 . S
C1332 C1334 1.363 . S
C1332 H1348 0.931 . S
C1333 C1332 1.370 . S
C1333 C1337 1.408 . S
C1334 C1332 1.363 . S
C1334 C1335 1.370 . S
C1334 C1338 1.524 . S
C1335 C1327 1.503 . S
C1335 C1334 1.370 . S
C1335 C1336 1.403 . S
C1336 C1335 1.403 . S
C1336 C1337 1.404 . S
C1336 C1339 1.539 . S
C1337 C1333 1.408 . S
C1337 C1336 1.404 . S
C1337 H1349 0.930 . S
C1338 C1334 1.524 . S
C1338 H1350 0.956 . S
C1338 H1351 0.961 . S
C1338 H1352 0.961 . S
C1339 C1336 1.539 . S
C1339 H1353 0.958 . S
C1339 H1354 0.961 . S
C1339 H1355 0.960 . S
H1340 C1324 0.931 . S
H1341 C1329 0.929 . S
H1342 C1330 0.960 . S
H1343 C1330 0.962 . S
H1344 C1330 0.960 . S
H1345 C1331 0.961 . S
H1346 C1331 0.961 . S
H1347 C1331 0.961 . S
H1348 C1332 0.931 . S
H1349 C1337 0.930 . S
H1350 C1338 0.956 . S
H1351 C1338 0.961 . S
H1352 C1338 0.961 . S
H1353 C1339 0.958 . S
H1354 C1339 0.961 . S
H1355 C1339 0.960 . S
C1356 C1357 1.391 . S
C1356 C1358 1.394 . S
C1356 H1372 0.931 1_455 S
C1357 C1356 1.391 . S
C1357 C1361 1.376 . S
C1358 C1356 1.394 . S
C1358 C1359 1.369 . S
C1358 C1362 1.531 . S
C1359 C1358 1.369 . S
C1359 C1360 1.410 . S
C1359 C1367 1.503 . S
C1360 C1359 1.410 . S
C1360 C1361 1.392 . S
C1360 C1363 1.511 . S
C1361 C1357 1.376 . S
C1361 C1360 1.392 . S
C1361 H1373 0.929 . S
C1362 C1358 1.531 . S
C1362 H1374 0.960 . S
C1362 H1375 0.962 . S
C1362 H1376 0.960 . S
C1363 C1360 1.511 . S
C1363 H1377 0.961 . S
C1363 H1378 0.961 . S
C1363 H1379 0.961 . S
C1364 C1365 1.370 . S
C1364 C1366 1.363 . S
C1364 H1380 0.931 . S
C1365 C1364 1.370 . S
C1365 C1369 1.408 . S
C1366 C1364 1.363 . S
C1366 C1367 1.370 . S
C1366 C1370 1.524 . S
C1367 C1359 1.503 . S
C1367 C1366 1.370 . S
C1367 C1368 1.403 . S
C1368 C1367 1.403 . S
C1368 C1369 1.404 . S
C1368 C1371 1.539 . S
C1369 C1365 1.408 . S
C1369 C1368 1.404 . S
C1369 H1381 0.930 . S
C1370 C1366 1.524 . S
C1370 H1382 0.956 . S
C1370 H1383 0.961 . S
C1370 H1384 0.961 . S
C1371 C1368 1.539 . S
C1371 H1385 0.958 . S
C1371 H1386 0.961 . S
C1371 H1387 0.960 . S
H1372 C1356 0.931 1_655 S
H1373 C1361 0.929 . S
H1374 C1362 0.960 . S
H1375 C1362 0.962 . S
H1376 C1362 0.960 . S
H1377 C1363 0.961 . S
H1378 C1363 0.961 . S
H1379 C1363 0.961 . S
H1380 C1364 0.931 . S
H1381 C1369 0.930 . S
H1382 C1370 0.956 . S
H1383 C1370 0.961 . S
H1384 C1370 0.961 . S
H1385 C1371 0.958 . S
H1386 C1371 0.961 . S
H1387 C1371 0.960 . S
C1388 C1389 1.391 . S
C1388 C1390 1.394 . S
C1388 H1404 0.931 . S
C1389 C1388 1.391 . S
C1389 C1393 1.376 . S
C1390 C1388 1.394 . S
C1390 C1391 1.369 . S
C1390 C1394 1.531 . S
C1391 C1390 1.369 . S
C1391 C1392 1.410 . S
C1391 C1399 1.503 . S
C1392 C1391 1.410 . S
C1392 C1393 1.392 . S
C1392 C1395 1.511 . S
C1393 C1389 1.376 . S
C1393 C1392 1.392 . S
C1393 H1405 0.929 . S
C1394 C1390 1.531 . S
C1394 H1406 0.960 . S
C1394 H1407 0.962 . S
C1394 H1408 0.960 . S
C1395 C1392 1.511 . S
C1395 H1409 0.961 . S
C1395 H1410 0.961 . S
C1395 H1411 0.961 . S
C1396 C1397 1.370 . S
C1396 C1398 1.363 . S
C1396 H1412 0.931 . S
C1397 C1396 1.370 . S
C1397 C1401 1.408 . S
C1398 C1396 1.363 . S
C1398 C1399 1.370 . S
C1398 C1402 1.524 . S
C1399 C1391 1.503 . S
C1399 C1398 1.370 . S
C1399 C1400 1.403 . S
C1400 C1399 1.403 . S
C1400 C1401 1.404 . S
C1400 C1403 1.539 . S
C1401 C1397 1.408 . S
C1401 C1400 1.404 . S
C1401 H1413 0.930 . S
C1402 C1398 1.524 . S
C1402 H1414 0.956 . S
C1402 H1415 0.961 . S
C1402 H1416 0.961 . S
C1403 C1400 1.539 . S
C1403 H1417 0.958 . S
C1403 H1418 0.961 . S
C1403 H1419 0.960 . S
H1404 C1388 0.931 . S
H1405 C1393 0.929 . S
H1406 C1394 0.960 . S
H1407 C1394 0.962 . S
H1408 C1394 0.960 . S
H1409 C1395 0.961 . S
H1410 C1395 0.961 . S
H1411 C1395 0.961 . S
H1412 C1396 0.931 . S
H1413 C1401 0.930 . S
H1414 C1402 0.956 . S
H1415 C1402 0.961 . S
H1416 C1402 0.961 . S
H1417 C1403 0.958 . S
H1418 C1403 0.961 . S
H1419 C1403 0.960 . S
C1420 C1421 1.391 . S
C1420 C1422 1.394 . S
C1420 H1436 0.931 . S
C1421 C1420 1.391 . S
C1421 C1425 1.406 . S
C1422 C1420 1.394 . S
C1422 C1423 1.369 1_554 S
C1422 C1426 1.531 . S
C1423 C1422 1.369 1_556 S
C1423 C1424 1.410 1_655 S
C1423 C1431 1.503 . S
C1424 C1423 1.410 1_455 S
C1424 C1425 1.387 1_456 S
C1424 C1427 1.511 . S
C1425 C1421 1.406 . S
C1425 C1424 1.387 1_654 S
C1425 H1437 0.904 1_655 S
C1426 C1422 1.531 . S
C1426 H1438 0.960 1_554 S
C1426 H1439 0.962 . S
C1426 H1440 0.960 . S
C1427 C1424 1.511 . S
C1427 H1441 0.961 . S
C1427 H1442 0.961 . S
C1427 H1443 0.961 . S
C1428 C1429 1.370 1_455 S
C1428 C1430 1.362 1_455 S
C1428 H1444 0.931 . S
C1429 C1428 1.370 1_655 S
C1429 C1433 1.408 . S
C1430 C1428 1.362 1_655 S
C1430 C1431 1.373 . S
C1430 C1434 1.522 1_656 S
C1431 C1423 1.503 . S
C1431 C1430 1.373 . S
C1431 C1432 1.403 . S
C1432 C1431 1.403 . S
C1432 C1433 1.404 . S
C1432 C1435 1.539 . S
C1433 C1429 1.408 . S
C1433 C1432 1.404 . S
C1433 H1445 0.930 . S
C1434 C1430 1.522 1_454 S
C1434 H1446 0.956 1_455 S
C1434 H1447 0.961 . S
C1434 H1448 0.961 . S
C1435 C1432 1.539 . S
C1435 H1449 0.958 . S
C1435 H1450 0.961 . S
C1435 H1451 0.960 . S
H1436 C1420 0.931 . S
H1437 C1425 0.904 1_455 S
H1438 C1426 0.960 1_556 S
H1439 C1426 0.962 . S
H1440 C1426 0.960 . S
H1441 C1427 0.961 . S
H1442 C1427 0.961 . S
H1443 C1427 0.961 . S
H1444 C1428 0.931 . S
H1445 C1433 0.930 . S
H1446 C1434 0.956 1_655 S
H1447 C1434 0.961 . S
H1448 C1434 0.961 . S
H1449 C1435 0.958 . S
H1450 C1435 0.961 . S
H1451 C1435 0.960 . S
C1452 C1453 1.391 . S
C1452 C1454 1.394 . S
C1452 H1468 0.931 . S
C1453 C1452 1.391 . S
C1453 C1457 1.376 . S
C1454 C1452 1.394 . S
C1454 C1455 1.369 . S
C1454 C1458 1.531 . S
C1455 C1454 1.369 . S
C1455 C1456 1.410 . S
C1455 C1463 1.503 . S
C1456 C1455 1.410 . S
C1456 C1457 1.392 . S
C1456 C1459 1.511 . S
C1457 C1453 1.376 . S
C1457 C1456 1.392 . S
C1457 H1469 0.929 . S
C1458 C1454 1.531 . S
C1458 H1470 0.960 . S
C1458 H1471 0.962 . S
C1458 H1472 0.960 . S
C1459 C1456 1.511 . S
C1459 H1473 0.961 . S
C1459 H1474 0.961 . S
C1459 H1475 0.961 . S
C1460 C1461 1.370 . S
C1460 C1462 1.363 . S
C1460 H1476 0.931 . S
C1461 C1460 1.370 . S
C1461 C1465 1.408 . S
C1462 C1460 1.363 . S
C1462 C1463 1.370 . S
C1462 C1466 1.524 . S
C1463 C1455 1.503 . S
C1463 C1462 1.370 . S
C1463 C1464 1.403 . S
C1464 C1463 1.403 . S
C1464 C1465 1.404 . S
C1464 C1467 1.539 . S
C1465 C1461 1.408 . S
C1465 C1464 1.404 . S
C1465 H1477 0.930 . S
C1466 C1462 1.524 . S
C1466 H1478 0.956 . S
C1466 H1479 0.961 . S
C1466 H1480 0.961 . S
C1467 C1464 1.539 . S
C1467 H1481 0.958 . S
C1467 H1482 0.961 . S
C1467 H1483 0.960 . S
H1468 C1452 0.931 . S
H1469 C1457 0.929 . S
H1470 C1458 0.960 . S
H1471 C1458 0.962 . S
H1472 C1458 0.960 . S
H1473 C1459 0.961 . S
H1474 C1459 0.961 . S
H1475 C1459 0.961 . S
H1476 C1460 0.931 . S
H1477 C1465 0.930 . S
H1478 C1466 0.956 . S
H1479 C1466 0.961 . S
H1480 C1466 0.961 . S
H1481 C1467 0.958 . S
H1482 C1467 0.961 . S
H1483 C1467 0.960 . S
C1484 C1485 1.391 . S
C1484 C1486 1.394 1_554 S
C1484 H1500 0.931 . S
C1485 C1484 1.391 . S
C1485 C1489 1.376 1_455 S
C1486 C1484 1.394 1_556 S
C1486 C1487 1.369 . S
C1486 C1490 1.531 . S
C1487 C1486 1.369 . S
C1487 C1488 1.410 1_456 S
C1487 C1495 1.503 . S
C1488 C1487 1.410 1_654 S
C1488 C1489 1.392 . S
C1488 C1491 1.511 . S
C1489 C1485 1.376 1_655 S
C1489 C1488 1.392 . S
C1489 H1501 0.929 . S
C1490 C1486 1.531 . S
C1490 H1502 0.960 . S
C1490 H1503 0.962 . S
C1490 H1504 0.960 . S
C1491 C1488 1.511 . S
C1491 H1505 0.961 . S
C1491 H1506 0.961 . S
C1491 H1507 0.961 1_554 S
C1492 C1493 1.370 . S
C1492 C1494 1.363 . S
C1492 H1508 0.931 . S
C1493 C1492 1.370 . S
C1493 C1497 1.408 1_455 S
C1494 C1492 1.363 . S
C1494 C1495 1.370 . S
C1494 C1498 1.524 1_556 S
C1495 C1487 1.503 . S
C1495 C1494 1.370 . S
C1495 C1496 1.403 . S
C1496 C1495 1.403 . S
C1496 C1497 1.404 1_455 S
C1496 C1499 1.539 1_455 S
C1497 C1493 1.408 1_655 S
C1497 C1496 1.404 1_655 S
C1497 H1509 0.930 . S
C1498 C1494 1.524 1_554 S
C1498 H1510 0.956 . S
C1498 H1511 0.961 . S
C1498 H1512 0.961 . S
C1499 C1496 1.539 1_655 S
C1499 H1513 0.958 1_655 S
C1499 H1514 0.961 . S
C1499 H1515 0.960 . S
H1500 C1484 0.931 . S
H1501 C1489 0.929 . S
H1502 C1490 0.960 . S
H1503 C1490 0.962 . S
H1504 C1490 0.960 . S
H1505 C1491 0.961 . S
H1506 C1491 0.961 . S
H1507 C1491 0.961 1_556 S
H1508 C1492 0.931 . S
H1509 C1497 0.930 . S
H1510 C1498 0.956 . S
H1511 C1498 0.961 . S
H1512 C1498 0.961 . S
H1513 C1499 0.958 1_455 S
H1514 C1499 0.961 . S
H1515 C1499 0.960 . S
C1516 C1517 1.391 . S
C1516 C1518 1.394 . S
C1516 H1532 0.931 . S
C1517 C1516 1.391 . S
C1517 C1521 1.376 . S
C1518 C1516 1.394 . S
C1518 C1519 1.369 . S
C1518 C1522 1.531 . S
C1519 C1518 1.369 . S
C1519 C1520 1.410 . S
C1519 C1527 1.503 . S
C1520 C1519 1.410 . S
C1520 C1521 1.392 . S
C1520 C1523 1.511 . S
C1521 C1517 1.376 . S
C1521 C1520 1.392 . S
C1521 H1533 0.929 . S
C1522 C1518 1.531 . S
C1522 H1534 0.960 . S
C1522 H1535 0.962 . S
C1522 H1536 0.960 . S
C1523 C1520 1.511 . S
C1523 H1537 0.961 . S
C1523 H1538 0.961 . S
C1523 H1539 0.961 . S
C1524 C1525 1.370 . S
C1524 C1526 1.363 . S
C1524 H1540 0.931 . S
C1525 C1524 1.370 . S
C1525 C1529 1.408 . S
C1526 C1524 1.363 . S
C1526 C1527 1.370 . S
C1526 C1530 1.524 . S
C1527 C1519 1.503 . S
C1527 C1526 1.370 . S
C1527 C1528 1.403 . S
C1528 C1527 1.403 . S
C1528 C1529 1.404 . S
C1528 C1531 1.539 . S
C1529 C1525 1.408 . S
C1529 C1528 1.404 . S
C1529 H1541 0.930 . S
C1530 C1526 1.524 . S
C1530 H1542 0.956 . S
C1530 H1543 0.961 . S
C1530 H1544 0.961 . S
C1531 C1528 1.539 . S
C1531 H1545 0.958 . S
C1531 H1546 0.961 . S
C1531 H1547 0.960 . S
H1532 C1516 0.931 . S
H1533 C1521 0.929 . S
H1534 C1522 0.960 . S
H1535 C1522 0.962 . S
H1536 C1522 0.960 . S
H1537 C1523 0.961 . S
H1538 C1523 0.961 . S
H1539 C1523 0.961 . S
H1540 C1524 0.931 . S
H1541 C1529 0.930 . S
H1542 C1530 0.956 . S
H1543 C1530 0.961 . S
H1544 C1530 0.961 . S
H1545 C1531 0.958 . S
H1546 C1531 0.961 . S
H1547 C1531 0.960 . S
C1548 C1549 1.391 . S
C1548 C1550 1.394 1_556 S
C1548 H1564 0.931 . S
C1549 C1548 1.391 . S
C1549 C1553 1.376 1_556 S
C1550 C1548 1.394 1_554 S
C1550 C1551 1.369 . S
C1550 C1554 1.531 1_554 S
C1551 C1550 1.369 . S
C1551 C1552 1.410 . S
C1551 C1559 1.503 . S
C1552 C1551 1.410 . S
C1552 C1553 1.392 . S
C1552 C1555 1.511 . S
C1553 C1549 1.376 1_554 S
C1553 C1552 1.392 . S
C1553 H1565 0.929 . S
C1554 C1550 1.531 1_556 S
C1554 H1566 0.960 1_556 S
C1554 H1567 0.962 1_556 S
C1554 H1568 0.960 . S
C1555 C1552 1.511 . S
C1555 H1569 0.961 . S
C1555 H1570 0.961 . S
C1555 H1571 0.961 . S
C1556 C1557 1.370 . S
C1556 C1558 1.363 . S
C1556 H1572 0.931 . S
C1557 C1556 1.370 . S
C1557 C1561 1.408 . S
C1558 C1556 1.363 . S
C1558 C1559 1.370 . S
C1558 C1562 1.524 . S
C1559 C1551 1.503 . S
C1559 C1558 1.370 . S
C1559 C1560 1.403 . S
C1560 C1559 1.403 . S
C1560 C1561 1.404 . S
C1560 C1563 1.539 . S
C1561 C1557 1.408 . S
C1561 C1560 1.404 . S
C1561 H1573 0.930 . S
C1562 C1558 1.524 . S
C1562 H1574 0.956 . S
C1562 H1575 0.961 . S
C1562 H1576 0.961 . S
C1563 C1560 1.539 . S
C1563 H1577 0.958 . S
C1563 H1578 0.961 . S
C1563 H1579 0.960 . S
H1564 C1548 0.931 . S
H1565 C1553 0.929 . S
H1566 C1554 0.960 1_554 S
H1567 C1554 0.962 1_554 S
H1568 C1554 0.960 . S
H1569 C1555 0.961 . S
H1570 C1555 0.961 . S
H1571 C1555 0.961 . S
H1572 C1556 0.931 . S
H1573 C1561 0.930 . S
H1574 C1562 0.956 . S
H1575 C1562 0.961 . S
H1576 C1562 0.961 . S
H1577 C1563 0.958 . S
H1578 C1563 0.961 . S
H1579 C1563 0.960 . S
C1580 C1581 1.391 . S
C1580 C1582 1.394 . S
C1580 H1596 0.931 . S
C1581 C1580 1.391 . S
C1581 C1585 1.376 . S
C1582 C1580 1.394 . S
C1582 C1583 1.369 . S
C1582 C1586 1.531 . S
C1583 C1582 1.369 . S
C1583 C1584 1.410 . S
C1583 C1591 1.503 . S
C1584 C1583 1.410 . S
C1584 C1585 1.392 . S
C1584 C1587 1.511 . S
C1585 C1581 1.376 . S
C1585 C1584 1.392 . S
C1585 H1597 0.929 . S
C1586 C1582 1.531 . S
C1586 H1598 0.960 . S
C1586 H1599 0.962 . S
C1586 H1600 0.960 . S
C1587 C1584 1.511 . S
C1587 H1601 0.961 . S
C1587 H1602 0.961 . S
C1587 H1603 0.961 . S
C1588 C1589 1.370 . S
C1588 C1590 1.363 . S
C1588 H1604 0.931 . S
C1589 C1588 1.370 . S
C1589 C1593 1.408 . S
C1590 C1588 1.363 . S
C1590 C1591 1.370 . S
C1590 C1594 1.524 . S
C1591 C1583 1.503 . S
C1591 C1590 1.370 . S
C1591 C1592 1.403 . S
C1592 C1591 1.403 . S
C1592 C1593 1.404 . S
C1592 C1595 1.539 . S
C1593 C1589 1.408 . S
C1593 C1592 1.404 . S
C1593 H1605 0.930 . S
C1594 C1590 1.524 . S
C1594 H1606 0.956 . S
C1594 H1607 0.961 . S
C1594 H1608 0.961 . S
C1595 C1592 1.539 . S
C1595 H1609 0.958 . S
C1595 H1610 0.961 . S
C1595 H1611 0.960 . S
H1596 C1580 0.931 . S
H1597 C1585 0.929 . S
H1598 C1586 0.960 . S
H1599 C1586 0.962 . S
H1600 C1586 0.960 . S
H1601 C1587 0.961 . S
H1602 C1587 0.961 . S
H1603 C1587 0.961 . S
H1604 C1588 0.931 . S
H1605 C1593 0.930 . S
H1606 C1594 0.956 . S
H1607 C1594 0.961 . S
H1608 C1594 0.961 . S
H1609 C1595 0.958 . S
H1610 C1595 0.961 . S
H1611 C1595 0.960 . S
C1612 C1613 1.391 . S
C1612 C1614 1.394 1_556 S
C1612 H1628 0.931 . S
C1613 C1612 1.391 . S
C1613 C1617 1.376 1_556 S
C1614 C1612 1.394 1_554 S
C1614 C1615 1.369 . S
C1614 C1618 1.531 . S
C1615 C1614 1.369 . S
C1615 C1616 1.410 . S
C1615 C1623 1.503 . S
C1616 C1615 1.410 . S
C1616 C1617 1.392 . S
C1616 C1619 1.511 . S
C1617 C1613 1.376 1_554 S
C1617 C1616 1.392 . S
C1617 H1629 0.929 . S
C1618 C1614 1.531 . S
C1618 H1630 0.960 . S
C1618 H1631 0.962 . S
C1618 H1632 0.960 1_554 S
C1619 C1616 1.511 . S
C1619 H1633 0.961 . S
C1619 H1634 0.961 . S
C1619 H1635 0.961 . S
C1620 C1621 1.370 . S
C1620 C1622 1.363 . S
C1620 H1636 0.931 . S
C1621 C1620 1.370 . S
C1621 C1625 1.408 . S
C1622 C1620 1.363 . S
C1622 C1623 1.370 . S
C1622 C1626 1.524 . S
C1623 C1615 1.503 . S
C1623 C1622 1.370 . S
C1623 C1624 1.403 . S
C1624 C1623 1.403 . S
C1624 C1625 1.404 . S
C1624 C1627 1.539 . S
C1625 C1621 1.408 . S
C1625 C1624 1.404 . S
C1625 H1637 0.930 . S
C1626 C1622 1.524 . S
C1626 H1638 0.956 . S
C1626 H1639 0.961 . S
C1626 H1640 0.961 . S
C1627 C1624 1.539 . S
C1627 H1641 0.958 . S
C1627 H1642 0.961 . S
C1627 H1643 0.960 . S
H1628 C1612 0.931 . S
H1629 C1617 0.929 . S
H1630 C1618 0.960 . S
H1631 C1618 0.962 . S
H1632 C1618 0.960 1_556 S
H1633 C1619 0.961 . S
H1634 C1619 0.961 . S
H1635 C1619 0.961 . S
H1636 C1620 0.931 . S
H1637 C1625 0.930 . S
H1638 C1626 0.956 . S
H1639 C1626 0.961 . S
H1640 C1626 0.961 . S
H1641 C1627 0.958 . S
H1642 C1627 0.961 . S
H1643 C1627 0.960 . S
C1644 C1645 1.391 . S
C1644 C1646 1.394 . S
C1644 H1660 0.931 . S
C1645 C1644 1.391 . S
C1645 C1649 1.376 . S
C1646 C1644 1.394 . S
C1646 C1647 1.369 . S
C1646 C1650 1.531 . S
C1647 C1646 1.369 . S
C1647 C1648 1.410 . S
C1647 C1655 1.503 . S
C1648 C1647 1.410 . S
C1648 C1649 1.392 . S
C1648 C1651 1.511 . S
C1649 C1645 1.376 . S
C1649 C1648 1.392 . S
C1649 H1661 0.929 . S
C1650 C1646 1.531 . S
C1650 H1662 0.960 . S
C1650 H1663 0.962 . S
C1650 H1664 0.960 . S
C1651 C1648 1.511 . S
C1651 H1665 0.961 . S
C1651 H1666 0.961 . S
C1651 H1667 0.961 . S
C1652 C1653 1.370 . S
C1652 C1654 1.363 . S
C1652 H1668 0.931 . S
C1653 C1652 1.370 . S
C1653 C1657 1.408 . S
C1654 C1652 1.363 . S
C1654 C1655 1.370 . S
C1654 C1658 1.524 . S
C1655 C1647 1.503 . S
C1655 C1654 1.370 . S
C1655 C1656 1.403 . S
C1656 C1655 1.403 . S
C1656 C1657 1.404 . S
C1656 C1659 1.539 . S
C1657 C1653 1.408 . S
C1657 C1656 1.404 . S
C1657 H1669 0.930 . S
C1658 C1654 1.524 . S
C1658 H1670 0.956 . S
C1658 H1671 0.961 . S
C1658 H1672 0.961 . S
C1659 C1656 1.539 . S
C1659 H1673 0.958 . S
C1659 H1674 0.961 . S
C1659 H1675 0.960 . S
H1660 C1644 0.931 . S
H1661 C1649 0.929 . S
H1662 C1650 0.960 . S
H1663 C1650 0.962 . S
H1664 C1650 0.960 . S
H1665 C1651 0.961 . S
H1666 C1651 0.961 . S
H1667 C1651 0.961 . S
H1668 C1652 0.931 . S
H1669 C1657 0.930 . S
H1670 C1658 0.956 . S
H1671 C1658 0.961 . S
H1672 C1658 0.961 . S
H1673 C1659 0.958 . S
H1674 C1659 0.961 . S
H1675 C1659 0.960 . S
C1676 C1677 1.391 . S
C1676 C1678 1.394 . S
C1676 H1692 0.931 . S
C1677 C1676 1.391 . S
C1677 C1681 1.376 . S
C1678 C1676 1.394 . S
C1678 C1679 1.369 . S
C1678 C1682 1.531 . S
C1679 C1678 1.369 . S
C1679 C1680 1.410 . S
C1679 C1687 1.503 . S
C1680 C1679 1.410 . S
C1680 C1681 1.392 . S
C1680 C1683 1.511 . S
C1681 C1677 1.376 . S
C1681 C1680 1.392 . S
C1681 H1693 0.929 . S
C1682 C1678 1.531 . S
C1682 H1694 0.960 . S
C1682 H1695 0.962 . S
C1682 H1696 0.960 . S
C1683 C1680 1.511 . S
C1683 H1697 0.961 . S
C1683 H1698 0.961 . S
C1683 H1699 0.961 . S
C1684 C1685 1.370 . S
C1684 C1686 1.363 . S
C1684 H1700 0.931 . S
C1685 C1684 1.370 . S
C1685 C1689 1.408 . S
C1686 C1684 1.363 . S
C1686 C1687 1.370 . S
C1686 C1690 1.524 . S
C1687 C1679 1.503 . S
C1687 C1686 1.370 . S
C1687 C1688 1.403 . S
C1688 C1687 1.403 . S
C1688 C1689 1.404 . S
C1688 C1691 1.539 . S
C1689 C1685 1.408 . S
C1689 C1688 1.404 . S
C1689 H1701 0.930 . S
C1690 C1686 1.524 . S
C1690 H1702 0.956 . S
C1690 H1703 0.961 . S
C1690 H1704 0.961 . S
C1691 C1688 1.539 . S
C1691 H1705 0.958 . S
C1691 H1706 0.961 . S
C1691 H1707 0.960 . S
H1692 C1676 0.931 . S
H1693 C1681 0.929 . S
H1694 C1682 0.960 . S
H1695 C1682 0.962 . S
H1696 C1682 0.960 . S
H1697 C1683 0.961 . S
H1698 C1683 0.961 . S
H1699 C1683 0.961 . S
H1700 C1684 0.931 . S
H1701 C1689 0.930 . S
H1702 C1690 0.956 . S
H1703 C1690 0.961 . S
H1704 C1690 0.961 . S
H1705 C1691 0.958 . S
H1706 C1691 0.961 . S
H1707 C1691 0.960 . S
C1708 C1709 1.391 . S
C1708 C1710 1.394 . S
C1708 H1724 0.931 . S
C1709 C1708 1.391 . S
C1709 C1713 1.376 . S
C1710 C1708 1.394 . S
C1710 C1711 1.369 . S
C1710 C1714 1.531 . S
C1711 C1710 1.369 . S
C1711 C1712 1.410 . S
C1711 C1719 1.503 . S
C1712 C1711 1.410 . S
C1712 C1713 1.392 . S
C1712 C1715 1.511 . S
C1713 C1709 1.376 . S
C1713 C1712 1.392 . S
C1713 H1725 0.929 . S
C1714 C1710 1.531 . S
C1714 H1726 0.960 . S
C1714 H1727 0.962 . S
C1714 H1728 0.960 . S
C1715 C1712 1.511 . S
C1715 H1729 0.961 . S
C1715 H1730 0.961 . S
C1715 H1731 0.961 . S
C1716 C1717 1.370 . S
C1716 C1718 1.363 . S
C1716 H1732 0.931 . S
C1717 C1716 1.370 . S
C1717 C1721 1.408 . S
C1718 C1716 1.363 . S
C1718 C1719 1.370 . S
C1718 C1722 1.524 . S
C1719 C1711 1.503 . S
C1719 C1718 1.370 . S
C1719 C1720 1.403 . S
C1720 C1719 1.403 . S
C1720 C1721 1.404 . S
C1720 C1723 1.539 . S
C1721 C1717 1.408 . S
C1721 C1720 1.404 . S
C1721 H1733 0.930 . S
C1722 C1718 1.524 . S
C1722 H1734 0.956 . S
C1722 H1735 0.961 . S
C1722 H1736 0.961 . S
C1723 C1720 1.539 . S
C1723 H1737 0.958 . S
C1723 H1738 0.961 . S
C1723 H1739 0.960 . S
H1724 C1708 0.931 . S
H1725 C1713 0.929 . S
H1726 C1714 0.960 . S
H1727 C1714 0.962 . S
H1728 C1714 0.960 . S
H1729 C1715 0.961 . S
H1730 C1715 0.961 . S
H1731 C1715 0.961 . S
H1732 C1716 0.931 . S
H1733 C1721 0.930 . S
H1734 C1722 0.956 . S
H1735 C1722 0.961 . S
H1736 C1722 0.961 . S
H1737 C1723 0.958 . S
H1738 C1723 0.961 . S
H1739 C1723 0.960 . S
C1740 C1741 1.391 . S
C1740 C1742 1.394 . S
C1740 H1756 0.931 . S
C1741 C1740 1.391 . S
C1741 C1745 1.376 . S
C1742 C1740 1.394 . S
C1742 C1743 1.369 . S
C1742 C1746 1.531 . S
C1743 C1742 1.369 . S
C1743 C1744 1.410 . S
C1743 C1751 1.503 . S
C1744 C1743 1.410 . S
C1744 C1745 1.392 . S
C1744 C1747 1.511 . S
C1745 C1741 1.376 . S
C1745 C1744 1.392 . S
C1745 H1757 0.929 . S
C1746 C1742 1.531 . S
C1746 H1758 0.960 . S
C1746 H1759 0.962 . S
C1746 H1760 0.960 . S
C1747 C1744 1.511 . S
C1747 H1761 0.961 . S
C1747 H1762 0.961 . S
C1747 H1763 0.961 . S
C1748 C1749 1.370 . S
C1748 C1750 1.363 . S
C1748 H1764 0.931 . S
C1749 C1748 1.370 . S
C1749 C1753 1.408 . S
C1750 C1748 1.363 . S
C1750 C1751 1.370 . S
C1750 C1754 1.524 . S
C1751 C1743 1.503 . S
C1751 C1750 1.370 . S
C1751 C1752 1.403 . S
C1752 C1751 1.403 . S
C1752 C1753 1.404 . S
C1752 C1755 1.539 . S
C1753 C1749 1.408 . S
C1753 C1752 1.404 . S
C1753 H1765 0.930 . S
C1754 C1750 1.524 . S
C1754 H1766 0.956 . S
C1754 H1767 0.961 . S
C1754 H1768 0.961 . S
C1755 C1752 1.539 . S
C1755 H1769 0.958 . S
C1755 H1770 0.961 . S
C1755 H1771 0.960 . S
H1756 C1740 0.931 . S
H1757 C1745 0.929 . S
H1758 C1746 0.960 . S
H1759 C1746 0.962 . S
H1760 C1746 0.960 . S
H1761 C1747 0.961 . S
H1762 C1747 0.961 . S
H1763 C1747 0.961 . S
H1764 C1748 0.931 . S
H1765 C1753 0.930 . S
H1766 C1754 0.956 . S
H1767 C1754 0.961 . S
H1768 C1754 0.961 . S
H1769 C1755 0.958 . S
H1770 C1755 0.961 . S
H1771 C1755 0.960 . S
C1772 C1773 1.391 . S
C1772 C1774 1.394 . S
C1772 H1788 0.931 . S
C1773 C1772 1.391 . S
C1773 C1777 1.408 . S
C1774 C1772 1.394 . S
C1774 C1775 1.369 . S
C1774 C1778 1.531 . S
C1775 C1774 1.369 . S
C1775 C1776 1.410 1_556 S
C1775 C1783 1.503 . S
C1776 C1775 1.410 1_554 S
C1776 C1777 1.391 1_554 S
C1776 C1779 1.511 . S
C1777 C1773 1.408 . S
C1777 C1776 1.391 1_556 S
C1777 H1789 0.898 1_556 S
C1778 C1774 1.531 . S
C1778 H1790 0.960 . S
C1778 H1791 0.962 . S
C1778 H1792 0.960 . S
C1779 C1776 1.511 . S
C1779 H1793 0.961 . S
C1779 H1794 0.961 . S
C1779 H1795 0.961 . S
C1780 C1781 1.370 . S
C1780 C1782 1.363 . S
C1780 H1796 0.931 . S
C1781 C1780 1.370 . S
C1781 C1785 1.408 . S
C1782 C1780 1.363 . S
C1782 C1783 1.370 . S
C1782 C1786 1.524 . S
C1783 C1775 1.503 . S
C1783 C1782 1.370 . S
C1783 C1784 1.403 . S
C1784 C1783 1.403 . S
C1784 C1785 1.404 . S
C1784 C1787 1.539 . S
C1785 C1781 1.408 . S
C1785 C1784 1.404 . S
C1785 H1797 0.930 . S
C1786 C1782 1.524 . S
C1786 H1798 0.956 . S
C1786 H1799 0.961 . S
C1786 H1800 0.961 . S
C1787 C1784 1.539 . S
C1787 H1801 0.958 . S
C1787 H1802 0.961 . S
C1787 H1803 0.960 . S
H1788 C1772 0.931 . S
H1789 C1777 0.898 1_554 S
H1790 C1778 0.960 . S
H1791 C1778 0.962 . S
H1792 C1778 0.960 . S
H1793 C1779 0.961 . S
H1794 C1779 0.961 . S
H1795 C1779 0.961 . S
H1796 C1780 0.931 . S
H1797 C1785 0.930 . S
H1798 C1786 0.956 . S
H1799 C1786 0.961 . S
H1800 C1786 0.961 . S
H1801 C1787 0.958 . S
H1802 C1787 0.961 . S
H1803 C1787 0.960 . S
C1804 C1805 1.391 . S
C1804 C1806 1.394 . S
C1804 H1820 0.931 . S
C1805 C1804 1.391 . S
C1805 C1809 1.376 . S
C1806 C1804 1.394 . S
C1806 C1807 1.369 . S
C1806 C1810 1.531 . S
C1807 C1806 1.369 . S
C1807 C1808 1.410 . S
C1807 C1815 1.503 . S
C1808 C1807 1.410 . S
C1808 C1809 1.392 . S
C1808 C1811 1.511 . S
C1809 C1805 1.376 . S
C1809 C1808 1.392 . S
C1809 H1821 0.929 . S
C1810 C1806 1.531 . S
C1810 H1822 0.960 . S
C1810 H1823 0.962 . S
C1810 H1824 0.960 . S
C1811 C1808 1.511 . S
C1811 H1825 0.961 . S
C1811 H1826 0.961 . S
C1811 H1827 0.961 . S
C1812 C1813 1.370 . S
C1812 C1814 1.363 . S
C1812 H1828 0.931 . S
C1813 C1812 1.370 . S
C1813 C1817 1.408 . S
C1814 C1812 1.363 . S
C1814 C1815 1.370 . S
C1814 C1818 1.524 . S
C1815 C1807 1.503 . S
C1815 C1814 1.370 . S
C1815 C1816 1.403 . S
C1816 C1815 1.403 . S
C1816 C1817 1.404 . S
C1816 C1819 1.539 . S
C1817 C1813 1.408 . S
C1817 C1816 1.404 . S
C1817 H1829 0.930 . S
C1818 C1814 1.524 . S
C1818 H1830 0.956 . S
C1818 H1831 0.961 . S
C1818 H1832 0.961 . S
C1819 C1816 1.539 . S
C1819 H1833 0.958 . S
C1819 H1834 0.961 . S
C1819 H1835 0.960 . S
H1820 C1804 0.931 . S
H1821 C1809 0.929 . S
H1822 C1810 0.960 . S
H1823 C1810 0.962 . S
H1824 C1810 0.960 . S
H1825 C1811 0.961 . S
H1826 C1811 0.961 . S
H1827 C1811 0.961 . S
H1828 C1812 0.931 . S
H1829 C1817 0.930 . S
H1830 C1818 0.956 . S
H1831 C1818 0.961 . S
H1832 C1818 0.961 . S
H1833 C1819 0.958 . S
H1834 C1819 0.961 . S
H1835 C1819 0.960 . S
C1836 C1837 1.391 . S
C1836 C1838 1.394 . S
C1836 H1852 0.931 . S
C1837 C1836 1.391 . S
C1837 C1841 1.376 . S
C1838 C1836 1.394 . S
C1838 C1839 1.369 . S
C1838 C1842 1.531 . S
C1839 C1838 1.369 . S
C1839 C1840 1.410 . S
C1839 C1847 1.503 . S
C1840 C1839 1.410 . S
C1840 C1841 1.392 . S
C1840 C1843 1.511 1_554 S
C1841 C1837 1.376 . S
C1841 C1840 1.392 . S
C1841 H1853 0.929 . S
C1842 C1838 1.531 . S
C1842 H1854 0.960 . S
C1842 H1855 0.962 . S
C1842 H1856 0.960 . S
C1843 C1840 1.511 1_556 S
C1843 H1857 0.961 . S
C1843 H1858 0.961 . S
C1843 H1859 0.961 . S
C1844 C1845 1.370 . S
C1844 C1846 1.363 . S
C1844 H1860 0.931 . S
C1845 C1844 1.370 . S
C1845 C1849 1.410 1_554 S
C1846 C1844 1.363 . S
C1846 C1847 1.370 . S
C1846 C1850 1.524 . S
C1847 C1839 1.503 . S
C1847 C1846 1.370 . S
C1847 C1848 1.403 . S
C1848 C1847 1.403 . S
C1848 C1849 1.405 1_554 S
C1848 C1851 1.539 1_554 S
C1849 C1845 1.410 1_556 S
C1849 C1848 1.405 1_556 S
C1849 H1861 0.928 . S
C1850 C1846 1.524 . S
C1850 H1862 0.956 . S
C1850 H1863 0.961 . S
C1850 H1864 0.961 . S
C1851 C1848 1.539 1_556 S
C1851 H1865 0.958 1_556 S
C1851 H1866 0.961 . S
C1851 H1867 0.960 . S
H1852 C1836 0.931 . S
H1853 C1841 0.929 . S
H1854 C1842 0.960 . S
H1855 C1842 0.962 . S
H1856 C1842 0.960 . S
H1857 C1843 0.961 . S
H1858 C1843 0.961 . S
H1859 C1843 0.961 . S
H1860 C1844 0.931 . S
H1861 C1849 0.928 . S
H1862 C1850 0.956 . S
H1863 C1850 0.961 . S
H1864 C1850 0.961 . S
H1865 C1851 0.958 1_554 S
H1866 C1851 0.961 . S
H1867 C1851 0.960 . S
C1868 C1869 1.391 . S
C1868 C1870 1.394 . S
C1868 H1884 0.931 . S
C1869 C1868 1.391 . S
C1869 C1873 1.376 1_565 S
C1870 C1868 1.394 . S
C1870 C1871 1.369 . S
C1870 C1874 1.531 . S
C1871 C1870 1.369 . S
C1871 C1872 1.410 . S
C1871 C1879 1.503 . S
C1872 C1871 1.410 . S
C1872 C1873 1.392 1_565 S
C1872 C1875 1.511 1_565 S
C1873 C1869 1.376 1_545 S
C1873 C1872 1.392 1_545 S
C1873 H1885 0.929 . S
C1874 C1870 1.531 . S
C1874 H1886 0.960 . S
C1874 H1887 0.962 . S
C1874 H1888 0.960 . S
C1875 C1872 1.511 1_545 S
C1875 H1889 0.961 . S
C1875 H1890 0.961 . S
C1875 H1891 0.961 . S
C1876 C1877 1.370 . S
C1876 C1878 1.363 . S
C1876 H1892 0.931 . S
C1877 C1876 1.370 . S
C1877 C1881 1.408 . S
C1878 C1876 1.363 . S
C1878 C1879 1.370 . S
C1878 C1882 1.524 . S
C1879 C1871 1.503 . S
C1879 C1878 1.370 . S
C1879 C1880 1.403 . S
C1880 C1879 1.403 . S
C1880 C1881 1.404 . S
C1880 C1883 1.539 1_554 S
C1881 C1877 1.408 . S
C1881 C1880 1.404 . S
C1881 H1893 0.930 1_554 S
C1882 C1878 1.524 . S
C1882 H1894 0.956 . S
C1882 H1895 0.961 . S
C1882 H1896 0.961 . S
C1883 C1880 1.539 1_556 S
C1883 H1897 0.958 . S
C1883 H1898 0.961 . S
C1883 H1899 0.960 . S
H1884 C1868 0.931 . S
H1885 C1873 0.929 . S
H1886 C1874 0.960 . S
H1887 C1874 0.962 . S
H1888 C1874 0.960 . S
H1889 C1875 0.961 . S
H1890 C1875 0.961 . S
H1891 C1875 0.961 . S
H1892 C1876 0.931 . S
H1893 C1881 0.930 1_556 S
H1894 C1882 0.956 . S
H1895 C1882 0.961 . S
H1896 C1882 0.961 . S
H1897 C1883 0.958 . S
H1898 C1883 0.961 . S
H1899 C1883 0.960 . S
C373 C218 1.205 . S
C365 N66 1.158 . S
C405 C231 1.636 . S
C397 N79 1.641 . S
C429 N92 1.732 . S
C437 C244 1.763 . S
C469 C257 1.369 . S
C461 N54 1.389 . S
C501 C265 1.496 . S
C493 N131 1.483 . S
C533 C278 1.131 . S
C525 N158 1.140 . S
C557 N145 1.556 . S
C565 C291 1.542 . S
C597 C304 1.725 . S
C589 N118 1.722 . S
C621 N148 1.865 . S
C629 C322 1.831 . S
C661 C333 1.600 . S
C653 N122 1.609 . S
C685 N132 1.209 . S
C693 C317 1.169 . S
C725 C325 1.463 . S
C717 N161 1.427 . S
C749 N96 1.859 . S
C757 C348 1.893 . S
C781 N53 1.674 . S
C789 C338 1.679 . S
C813 N67 1.078 . S
C821 C343 1.078 . S
C845 N83 1.387 . S
C853 C346 1.407 . S
C877 N44 1.366 . S
C885 C255 1.366 . S
C909 N187 1.424 . S
C917 C247 1.433 . S
C949 C216 1.229 . S
C941 N197 1.257 . S
C981 C221 1.319 . S
C973 N106 1.329 . S
C1005 N57 1.824 1_545 S
C1013 C268 1.768 . S
C1045 C307 1.455 . S
C1037 N144 1.474 . S
C1077 C260 1.397 . S
C1069 N119 1.401 . S
C1109 C286 1.698 . S
C1101 N157 1.737 . S
C1141 C296 1.205 . S
C1133 N183 1.158 . S
C1165 N196 1.642 . S
C1173 C309 1.638 . S
C1197 N105 1.769 . S
C1205 C270 1.769 . S
C1237 C283 1.368 . S
C1229 N171 1.389 . S
C1261 N40 1.469 . S
C1269 C239 1.489 . S
C1301 C252 1.109 . S
C1293 N2 1.151 . S
C1333 C213 1.542 . S
C1325 N15 1.568 . S
C1365 C226 1.720 . S
C1357 N27 1.723 1_455 S
C1389 N18 1.855 . S
C1397 C335 1.822 . S
C1421 N31 1.592 . S
C1429 C320 1.583 1_655 S
C1453 N41 1.211 . S
C1461 C330 1.170 . S
C1485 N5 1.447 . S
C1493 C312 1.448 1_455 S
C1525 C361 1.889 . S
C1517 N109 1.886 . S
C1557 C351 1.691 . S
C1549 N170 1.700 . S
C1589 C356 1.077 . S
C1581 N184 1.078 . S
C1613 N200 1.406 . S
C1621 C359 1.410 . S
C1645 N135 1.391 . S
C1653 C281 1.358 . S
C1685 C273 1.427 . S
C1677 N70 1.427 . S
C1717 C294 1.232 . S
C1709 N80 1.256 . S
C1749 C299 1.306 . S
C1741 N93 1.326 . S
C1773 N174 1.807 . S
C1781 C242 1.770 . S
C1813 C229 1.459 . S
C1805 N14 1.476 . S
C1837 N28 1.398 . S
C1845 C234 1.387 . S
C1877 C208 1.697 . S
C1869 N1 1.738 1_565 S
