# Generated by pormake.
# Topology pth, (4,4)-cn, num edge types: 1
# Building blocks:
#     Node 0, Type 0, BuildingBlock: NAHDIM_clean_sbu_0, # of connection points: 4
#     Node 1, Type 0, BuildingBlock: NAHDIM_clean_sbu_0, # of connection points: 4
#     Node 2, Type 0, BuildingBlock: NAHDIM_clean_sbu_0, # of connection points: 4
#     Node 3, Type 1, BuildingBlock: MUDLON_clean_linker_0, # of connection points: 4
#     Node 4, Type 1, BuildingBlock: MUDLON_clean_linker_0, # of connection points: 4
#     Node 5, Type 1, BuildingBlock: MUDLON_clean_linker_0, # of connection points: 4
#     Edge 6, Type (0, 1), BuildingBlock: EZIPEK_clean_linker_0, # of connection points: 2
#     Edge 7, Type (0, 1), BuildingBlock: EZIPEK_clean_linker_0, # of connection points: 2
#     Edge 8, Type (0, 1), BuildingBlock: EZIPEK_clean_linker_0, # of connection points: 2
#     Edge 9, Type (0, 1), BuildingBlock: EZIPEK_clean_linker_0, # of connection points: 2
#     Edge 10, Type (0, 1), BuildingBlock: EZIPEK_clean_linker_0, # of connection points: 2
#     Edge 11, Type (0, 1), BuildingBlock: EZIPEK_clean_linker_0, # of connection points: 2
#     Edge 12, Type (0, 1), BuildingBlock: EZIPEK_clean_linker_0, # of connection points: 2
#     Edge 13, Type (0, 1), BuildingBlock: EZIPEK_clean_linker_0, # of connection points: 2
#     Edge 14, Type (0, 1), BuildingBlock: EZIPEK_clean_linker_0, # of connection points: 2
#     Edge 15, Type (0, 1), BuildingBlock: EZIPEK_clean_linker_0, # of connection points: 2
#     Edge 16, Type (0, 1), BuildingBlock: EZIPEK_clean_linker_0, # of connection points: 2
#     Edge 17, Type (0, 1), BuildingBlock: EZIPEK_clean_linker_0, # of connection points: 2
# Relax obj value: 0.059
# Max RMSD: 0.170
# Mean RMSD: 0.116
data_MOF--net-pth--node1-NAHDIM_clean_sbu_0--node2-MUDLON_clean_linker_0--edge1-EZIPEK_clean_linker_0
_symmetry_space_group_name_H-M    P1
_symmetry_Int_Tables_number       1
_symmetry_cell_setting            triclinic
loop_
_symmetry_equiv_pos_as_xyz
'x, y, z'
_cell_length_a     26.912582
_cell_length_b     27.063515
_cell_length_c     53.349163
_cell_angle_alpha  91.896889
_cell_angle_beta   90.038043
_cell_angle_gamma 120.6099
loop_
_atom_site_label
_atom_site_type_symbol
_atom_site_fract_x
_atom_site_fract_y
_atom_site_fract_z
_atom_type_partial_charge
C0 C 0.01295 0.92863 0.06379 0.0
O1 O 0.96483 0.92985 0.0631 0.0
O2 O 0.02931 0.06844 0.05941 0.0
Zn3 Zn 0.04068 0.01959 0.03346 0.0
O4 O 0.96863 0.97424 0.0121 0.0
C5 C 0.09693 0.10956 0.00158 0.0
O6 O 0.0498 0.1106 0.00682 0.0
O7 O 0.05606 0.96466 0.05157 0.0
C8 C 0.96932 0.94565 0.99292 0.0
O9 O 0.01694 0.94608 0.98713 0.0
C10 C 0.98167 0.06707 0.06169 0.0
O11 O 0.93758 0.03299 0.04683 0.0
O12 O 0.10546 0.07232 0.01141 0.0
C13 C 0.01311 0.09242 0.33422 0.0
O14 O 0.96169 0.0507 0.34016 0.0
O15 O 0.01662 0.95745 0.33918 0.0
Zn16 Zn 0.04069 0.02521 0.36292 0.0
O17 O 0.97783 0.01357 0.38647 0.0
C18 C 0.15809 0.05193 0.37649 0.0
O19 O 0.16866 0.0554 0.35238 0.0
O20 O 0.05773 0.0927 0.34224 0.0
C21 C 0.97005 0.98901 0.40716 0.0
O22 O 0.0006 0.96542 0.41291 0.0
C23 C 0.98756 0.90505 0.3448 0.0
O24 O 0.97044 0.89133 0.36788 0.0
O25 O 0.10885 0.04063 0.38411 0.0
C26 C 0.11606 0.01415 0.66359 0.0
O27 O 0.11832 0.06347 0.66721 0.0
O28 O 0.97801 0.00182 0.67259 0.0
Zn29 Zn 0.02612 0.98569 0.69634 0.0
O30 O 0.07556 0.05327 0.7202 0.0
C31 C 0.92647 0.91463 0.72386 0.0
O32 O 0.91273 0.9514 0.71565 0.0
O33 O 0.07897 0.97056 0.67509 0.0
C34 C 0.05544 0.07892 0.73329 0.0
O35 O 0.00042 0.06223 0.73134 0.0
C36 C 0.98708 0.05148 0.66802 0.0
O37 O 0.03003 0.09727 0.6792 0.0
O38 O 0.97319 0.9179 0.7169 0.0
H39 H 0.83615 0.63288 0.22667 0.0
N40 N 0.91656 0.64651 0.19421 0.0
H41 H 0.8492 0.69042 0.2655 0.0
H42 H 0.01963 0.73175 0.21472 0.0
H43 H 0.03243 0.78908 0.2532 0.0
H44 H 0.02352 0.69442 0.17294 0.0
H45 H 0.05808 0.76279 0.13902 0.0
H46 H 0.85567 0.67745 0.16683 0.0
H47 H 0.89012 0.74536 0.13273 0.0
H48 H 0.83599 0.54168 0.17901 0.0
H49 H 0.00904 0.63813 0.21008 0.0
H50 H 0.83912 0.45308 0.18073 0.0
H51 H 0.0122 0.5498 0.2124 0.0
H52 H 0.86153 0.18382 0.2266 0.0
H53 H 0.89597 0.15026 0.26104 0.0
H54 H 0.05752 0.31137 0.26366 0.0
H55 H 0.02334 0.34479 0.22897 0.0
H56 H 0.02615 0.3023 0.18627 0.0
H57 H 0.0429 0.2542 0.15034 0.0
H58 H 0.86074 0.16224 0.13206 0.0
H59 H 0.84377 0.21025 0.16823 0.0
H60 H 0.83776 0.30114 0.21512 0.0
H61 H 0.83885 0.39184 0.21302 0.0
H62 H 0.01377 0.47414 0.18637 0.0
N63 N 0.92068 0.28045 0.20272 0.0
H64 H 0.01258 0.38358 0.18907 0.0
C65 C 0.9266 0.67807 0.21776 0.0
C66 C 0.87913 0.66646 0.23257 0.0
C67 C 0.88654 0.69909 0.25459 0.0
C68 C 0.94172 0.74391 0.26202 0.0
C69 C 0.98958 0.75456 0.24767 0.0
C70 C 0.98217 0.72184 0.2257 0.0
C71 C 0.93679 0.68094 0.17242 0.0
C72 C 0.99384 0.70455 0.16408 0.0
C73 C 0.01361 0.74348 0.14474 0.0
C74 C 0.97652 0.75889 0.13352 0.0
C75 C 0.91915 0.73369 0.14119 0.0
C76 C 0.89955 0.69509 0.16052 0.0
C77 C 0.92187 0.59626 0.19448 0.0
C78 C 0.87465 0.54361 0.18615 0.0
C79 C 0.87643 0.49312 0.18734 0.0
C80 C 0.92572 0.49434 0.19696 0.0
C81 C 0.97375 0.54748 0.20476 0.0
C82 C 0.97189 0.59807 0.20353 0.0
C83 C 0.93951 0.26663 0.22531 0.0
C84 C 0.90388 0.21229 0.23494 0.0
C85 C 0.92356 0.19317 0.25441 0.0
C86 C 0.97925 0.22833 0.26464 0.0
C87 C 0.01438 0.28382 0.25588 0.0
C88 C 0.99475 0.30285 0.23619 0.0
C89 C 0.93342 0.25959 0.1799 0.0
C90 C 0.9899 0.27274 0.17432 0.0
C91 C -0.00048 0.24531 0.15388 0.0
C92 C 0.95296 0.20477 0.13876 0.0
C93 C 0.89706 0.19359 0.14359 0.0
C94 C 0.88743 0.22089 0.16407 0.0
C95 C 0.92469 0.33546 0.20219 0.0
C96 C 0.87635 0.33894 0.20897 0.0
C97 C 0.87698 0.39061 0.20756 0.0
C98 C 0.92622 0.44006 0.19926 0.0
C99 C 0.9753 0.43689 0.19296 0.0
C100 C 0.97459 0.38501 0.19439 0.0
H101 H 0.87325 0.18 0.54971 0.0
N102 N 0.76967 0.10508 0.53035 0.0
H103 H 0.92325 0.16609 0.58494 0.0
H104 H 0.72216 0.01498 0.5619 0.0
H105 H 0.77216 0.00124 0.59718 0.0
H106 H 0.72803 0.99108 0.51853 0.0
H107 H 0.76937 0.95321 0.48769 0.0
H108 H 0.84591 0.16324 0.49567 0.0
H109 H 0.88655 0.12534 0.46457 0.0
H110 H 0.72372 0.13549 0.5684 0.0
H111 H 0.68191 0.0528 0.49429 0.0
H112 H 0.62971 0.12724 0.56967 0.0
H113 H 0.58903 0.04647 0.49546 0.0
H114 H 0.36199 0.16275 0.55415 0.0
H115 H 0.29306 0.13124 0.5886 0.0
H116 H 0.27607 0.96396 0.58357 0.0
H117 H 0.34502 0.99542 0.54915 0.0
H118 H 0.30675 0.0017 0.50736 0.0
H119 H 0.25566 0.99268 0.46793 0.0
H120 H 0.37717 0.17031 0.45385 0.0
H121 H 0.42715 0.17999 0.49394 0.0
H122 H 0.49919 0.17956 0.54698 0.0
H123 H 0.58712 0.17443 0.54891 0.0
H124 H 0.49431 0.0029 0.51494 0.0
N125 N 0.39698 0.10127 0.52823 0.0
H126 H 0.40679 0.00928 0.51258 0.0
C127 C 0.79422 0.09879 0.55324 0.0
C128 C 0.85061 0.14143 0.56031 0.0
C129 C 0.87903 0.13345 0.58025 0.0
C130 C 0.85119 0.08268 0.59346 0.0
C131 C 0.79402 0.0407 0.58712 0.0
C132 C 0.76566 0.04855 0.56705 0.0
C133 C 0.78434 0.08021 0.50939 0.0
C134 C 0.76188 0.02052 0.50654 0.0
C135 C 0.78521 0.99891 0.48895 0.0
C136 C 0.83091 0.03665 0.47402 0.0
C137 C 0.85109 0.09572 0.47593 0.0
C138 C 0.82792 0.11726 0.49351 0.0
C139 C 0.71041 0.09269 0.53179 0.0
C140 C 0.69412 0.11413 0.55265 0.0
C141 C 0.64043 0.11018 0.55325 0.0
C142 C 0.60182 0.08615 0.53268 0.0
C143 C 0.61731 0.06415 0.51185 0.0
C144 C 0.67102 0.06781 0.51127 0.0
C145 C 0.35872 0.08172 0.54917 0.0
C146 C 0.34373 0.11948 0.56063 0.0
C147 C 0.30459 0.10156 0.58016 0.0
C148 C 0.2797 0.04538 0.58846 0.0
C149 C 0.29505 0.00749 0.57732 0.0
C150 C 0.33438 0.02552 0.55775 0.0
C151 C 0.37009 0.09214 0.50384 0.0
C152 C 0.32267 0.03871 0.49585 0.0
C153 C 0.2937 0.03341 0.47328 0.0
C154 C 0.31241 0.081 0.45819 0.0
C155 C 0.36201 0.13325 0.46535 0.0
C156 C 0.39034 0.13878 0.48812 0.0
C157 C 0.44686 0.09511 0.52966 0.0
C158 C 0.49797 0.14086 0.54009 0.0
C159 C 0.54792 0.13756 0.54133 0.0
C160 C 0.54765 0.08806 0.53221 0.0
C161 C 0.49601 0.04176 0.52195 0.0
C162 C 0.44592 0.04521 0.52069 0.0
H163 H 0.66723 0.82747 0.8946 0.0
N164 N 0.65779 0.74569 0.86269 0.0
H165 H 0.73834 0.87505 0.92923 0.0
H166 H 0.73181 0.71256 0.88047 0.0
H167 H 0.80166 0.75926 0.91508 0.0
H168 H 0.69616 0.68046 0.83862 0.0
H169 H 0.76124 0.70976 0.80284 0.0
H170 H 0.69049 0.83651 0.83522 0.0
H171 H 0.75462 0.8652 0.79908 0.0
H172 H 0.55567 0.73178 0.85141 0.0
H173 H 0.63747 0.6395 0.87572 0.0
H174 H 0.46147 0.64321 0.85162 0.0
H175 H 0.5438 0.55142 0.87667 0.0
H176 H 0.17152 0.33888 0.88872 0.0
H177 H 0.13937 0.27439 0.92405 0.0
H178 H 0.30871 0.29517 0.93061 0.0
H179 H 0.34053 0.35829 0.89491 0.0
H180 H 0.29199 0.29687 0.85304 0.0
H181 H 0.24333 0.22496 0.81885 0.0
H182 H 0.15723 0.31369 0.79528 0.0
H183 H 0.20564 0.38577 0.82979 0.0
H184 H 0.29851 0.48924 0.88083 0.0
H185 H 0.393 0.57748 0.88069 0.0
H186 H 0.46747 0.48134 0.84888 0.0
N187 N 0.27222 0.38412 0.86618 0.0
H188 H 0.37352 0.39345 0.84981 0.0
C189 C 0.69363 0.76622 0.88507 0.0
C190 C 0.69555 0.81156 0.89938 0.0
C191 C 0.73601 0.83865 0.91899 0.0
C192 C 0.77482 0.82031 0.92463 0.0
C193 C 0.77155 0.77349 0.91106 0.0
C194 C 0.73139 0.74669 0.89135 0.0
C195 C 0.68878 0.75673 0.83963 0.0
C196 C 0.70801 0.72044 0.82996 0.0
C197 C 0.74497 0.73697 0.80954 0.0
C198 C 0.76245 0.78952 0.79846 0.0
C199 C 0.74122 0.82438 0.8074 0.0
C200 C 0.70476 0.80809 0.82788 0.0
C201 C 0.60351 0.69257 0.86365 0.0
C202 C 0.55315 0.69245 0.85697 0.0
C203 C 0.49945 0.6419 0.85724 0.0
C204 C 0.49506 0.59022 0.86426 0.0
C205 C 0.54573 0.59034 0.8709 0.0
C206 C 0.5995 0.64099 0.87055 0.0
C207 C 0.25829 0.35379 0.88923 0.0
C208 C 0.20196 0.33034 0.89806 0.0
C209 C 0.18365 0.2935 0.91805 0.0
C210 C 0.22168 0.27996 0.92967 0.0
C211 C 0.27891 0.30527 0.92173 0.0
C212 C 0.29704 0.34153 0.90145 0.0
C213 C 0.2522 0.34677 0.84398 0.0
C214 C 0.2637 0.30178 0.84027 0.0
C215 C 0.23594 0.26067 0.82082 0.0
C216 C 0.19677 0.26421 0.80474 0.0
C217 C 0.18754 0.31061 0.80755 0.0
C218 C 0.21511 0.35159 0.8271 0.0
C219 C 0.32863 0.43493 0.86519 0.0
C220 C 0.33533 0.48744 0.8738 0.0
C221 C 0.38924 0.53774 0.87358 0.0
C222 C 0.43779 0.53652 0.86467 0.0
C223 C 0.4311 0.4837 0.8561 0.0
C224 C 0.37711 0.43334 0.8564 0.0
C225 C 0.97157 0.15126 0.07461 0.0
C226 C 0.97558 0.10309 0.08141 0.0
C227 C 0.96307 0.12077 0.12565 0.0
C228 C 0.96201 0.17058 0.11901 0.0
N229 N 0.97279 0.23842 0.08829 0.0
N230 N 0.98215 0.0451 0.11318 0.0
C231 C 0.96832 0.18728 0.09377 0.0
C232 C 0.97365 0.08891 0.1069 0.0
N233 N 0.97046 0.16222 0.04983 0.0
N234 N 0.95185 0.10283 0.14976 0.0
H235 H 0.98639 0.01836 0.09994 0.0
H236 H 0.9885 0.03715 0.13151 0.0
H237 H 0.94509 0.12562 0.16418 0.0
H238 H 0.94523 0.06343 0.15528 0.0
H239 H 0.96095 0.19245 0.04343 0.0
H240 H 0.97594 0.13875 0.03532 0.0
H241 H 0.9836 0.25637 0.07076 0.0
H242 H 0.96966 0.26532 0.10186 0.0
C243 C 0.8733 0.97405 0.41872 0.0
C244 C 0.9315 0.99342 0.42569 0.0
C245 C 0.91699 0.02687 0.4667 0.0
C246 C 0.86225 0.01586 0.45821 0.0
N247 N 0.7888 0.9825 0.4257 0.0
N248 N 0.01189 0.04685 0.45492 0.0
C249 C 0.84022 0.98994 0.43414 0.0
C250 C 0.95414 0.02152 0.44944 0.0
N251 N 0.84943 0.93946 0.39765 0.0
N252 N 0.93338 0.04235 0.49132 0.0
H253 H 0.04158 0.04632 0.44257 0.0
H254 H 0.03144 0.07335 0.47081 0.0
H255 H 0.90723 0.04687 0.50452 0.0
H256 H 0.97027 0.04516 0.49914 0.0
H257 H 0.80574 0.91955 0.39282 0.0
H258 H 0.87227 0.92626 0.3862 0.0
H259 H 0.77363 0.97001 0.40727 0.0
H260 H 0.76291 0.99252 0.43674 0.0
C261 C 0.83007 0.83189 0.73466 0.0
C262 C 0.8882 0.87191 0.74196 0.0
C263 C 0.86557 0.84884 0.78606 0.0
C264 C 0.80689 0.81122 0.77886 0.0
N265 N 0.73458 0.75693 0.74685 0.0
N266 N 0.96467 0.90969 0.77342 0.0
C267 C 0.78963 0.79933 0.75324 0.0
C268 C 0.90716 0.87711 0.76728 0.0
N269 N 0.81355 0.82631 0.70999 0.0
N270 N 0.88081 0.85964 0.81099 0.0
H271 H 0.99635 0.93325 0.76053 0.0
H272 H 0.98198 0.91048 0.79097 0.0
H273 H 0.85212 0.83766 0.82521 0.0
H274 H 0.92089 0.89211 0.81783 0.0
H275 H 0.77089 0.80334 0.70353 0.0
H276 H 0.843 0.84631 0.69575 0.0
H277 H 0.71999 0.74241 0.72852 0.0
H278 H 0.70402 0.73304 0.76016 0.0
C279 C 0.99592 0.83069 0.0716 0.0
C280 C 0.01709 0.88817 0.08029 0.0
C281 C 0.02131 0.86257 0.12349 0.0
C282 C 0.99804 0.80454 0.11496 0.0
N283 N 0.97478 0.73469 0.08113 0.0
N284 N 0.06265 0.96236 0.11273 0.0
C285 C 0.98928 0.78909 0.08899 0.0
C286 C 0.03422 0.90527 0.10571 0.0
N287 N 0.98039 0.81579 0.04688 0.0
N288 N 0.02835 0.87622 0.14866 0.0
H289 H 0.07215 0.99448 0.10008 0.0
H290 H 0.08103 0.97847 0.13046 0.0
H291 H 0.02124 0.84647 0.1622 0.0
H292 H 0.03833 0.91614 0.15635 0.0
H293 H 0.95825 0.77364 0.03968 0.0
H294 H 0.98806 0.84606 0.03351 0.0
H295 H 0.97239 0.7216 0.0624 0.0
H296 H 0.96929 0.7034 0.09357 0.0
C297 C 0.2307 0.0307 0.39554 0.0
C298 C 0.20375 0.06418 0.39533 0.0
C299 C 0.24713 0.10764 0.43643 0.0
C300 C 0.27727 0.07723 0.43594 0.0
N301 N 0.3076 0.01942 0.4128 0.0
N302 N 0.19887 0.14541 0.41217 0.0
C303 C 0.2722 0.04176 0.41474 0.0
C304 C 0.21595 0.1061 0.41473 0.0
N305 N 0.21448 0.98633 0.37833 0.0
N306 N 0.2457 0.13562 0.458 0.0
H307 H 0.17741 0.14673 0.39613 0.0
H308 H 0.21147 0.18036 0.42467 0.0
H309 H 0.26659 0.13669 0.47464 0.0
H310 H 0.21915 0.15307 0.46007 0.0
H311 H 0.22796 0.95655 0.37937 0.0
H312 H 0.18371 0.9762 0.36416 0.0
H313 H 0.30983 0.99796 0.39666 0.0
H314 H 0.33863 0.02694 0.42649 0.0
C315 C 0.07806 0.12065 0.77723 0.0
C316 C 0.09316 0.12578 0.75156 0.0
C317 C 0.18007 0.21929 0.76134 0.0
C318 C 0.16155 0.21655 0.78637 0.0
N319 N 0.08961 0.16875 0.81776 0.0
N320 N 0.15439 0.18293 0.71833 0.0
C321 C 0.10954 0.16839 0.79421 0.0
C322 C 0.1433 0.17576 0.74337 0.0
N323 N 0.0354 0.06921 0.78564 0.0
N324 N 0.23322 0.26304 0.75489 0.0
H325 H 0.12871 0.15227 0.70452 0.0
H326 H 0.1864 0.22113 0.71101 0.0
H327 H 0.26055 0.29644 0.76744 0.0
H328 H 0.25211 0.26406 0.73774 0.0
H329 H 0.02674 0.06099 0.80456 0.0
H330 H 0.01213 0.0327 0.77395 0.0
H331 H 0.04866 0.13803 0.82351 0.0
H332 H 0.11219 0.20218 0.83105 0.0
C333 C 0.95457 0.04457 0.6235 0.0
C334 C 0.95087 0.05782 0.64913 0.0
C335 C 0.88255 0.08867 0.63827 0.0
C336 C 0.88364 0.07215 0.61288 0.0
N337 N 0.913 0.02642 0.58149 0.0
N338 N 0.90532 0.08353 0.68178 0.0
C339 C 0.9173 0.04756 0.60555 0.0
C340 C 0.91322 0.07749 0.65679 0.0
N341 N 0.99555 0.0317 0.61618 0.0
N342 N 0.85328 0.1162 0.64456 0.0
H343 H 0.92712 0.07572 0.69585 0.0
H344 H 0.87396 0.09176 0.68866 0.0
H345 H 0.82883 0.12342 0.63159 0.0
H346 H 0.85617 0.13527 0.66218 0.0
H347 H 0.00478 0.02784 0.59752 0.0
H348 H 0.02396 0.02948 0.62876 0.0
H349 H 0.93133 0.00222 0.5757 0.0
H350 H 0.88731 0.0292 0.56761 0.0
C351 C 0.91732 0.93819 0.95293 0.0
C352 C 0.91778 0.91486 0.97628 0.0
C353 C 0.82037 0.83289 0.96742 0.0
C354 C 0.82258 0.85346 0.94315 0.0
N355 N 0.872 0.91923 0.91128 0.0
N356 N 0.87283 0.83877 0.00553 0.0
C357 C 0.87104 0.90484 0.93559 0.0
C358 C 0.86996 0.86196 0.98357 0.0
N359 N 0.95989 0.99276 0.94785 0.0
N360 N 0.77047 0.78641 0.9751 0.0
H361 H 0.90789 0.85958 0.01806 0.0
H362 H 0.84235 0.79752 0.01069 0.0
H363 H 0.73378 0.76417 0.96351 0.0
H364 H 0.76378 0.77239 0.99339 0.0
H365 H 0.95908 0.01481 0.93239 0.0
H366 H 0.99388 0.01838 0.96039 0.0
H367 H 0.90697 0.9536 0.90295 0.0
H368 H 0.90697 0.9536 0.90295 0.0
C369 C 0.99031 0.81996 0.32618 0.0
C370 C 0.97117 0.85995 0.32482 0.0
C371 C 0.93338 0.8243 0.28217 0.0
C372 C 0.94932 0.782 0.28409 0.0
N373 N 0.98256 0.73189 0.30933 0.0
N374 N 0.91303 0.89156 0.30413 0.0
C375 C 0.97454 0.77741 0.30659 0.0
C376 C 0.93925 0.85955 0.30356 0.0
N377 N 0.02604 0.82447 0.34548 0.0
N378 N 0.91479 0.83237 0.25964 0.0
H379 H 0.91528 0.917 0.31972 0.0
H380 H 0.88438 0.88853 0.29019 0.0
H381 H 0.90974 0.80741 0.24346 0.0
H382 H 0.90899 0.86688 0.25644 0.0
H383 H 0.0466 0.80069 0.34597 0.0
H384 H 0.03913 0.85539 0.36007 0.0
H385 H 0.99516 0.72289 0.32622 0.0
H386 H 0.97175 0.70013 0.29526 0.0
C387 C 0.13599 0.98682 0.62123 0.0
C388 C 0.15611 0.01039 0.6458 0.0
C389 C 0.25562 0.04231 0.63385 0.0
C390 C 0.23644 0.0266 0.60854 0.0
N391 N 0.15951 0.98539 0.5774 0.0
N392 N 0.23385 0.0601 0.6762 0.0
C393 C 0.17677 0.99837 0.60205 0.0
C394 C 0.21561 0.03751 0.65239 0.0
N395 N 0.07796 0.95397 0.61624 0.0
N396 N 0.31201 0.06138 0.64007 0.0
H397 H 0.20531 0.05433 0.69058 0.0
H398 H 0.27703 0.08654 0.68153 0.0
H399 H 0.34226 0.06551 0.6268 0.0
H400 H 0.32794 0.06867 0.65843 0.0
H401 H 0.06036 0.93093 0.59939 0.0
H402 H 0.04695 0.94591 0.62972 0.0
H403 H 0.11768 0.97129 0.57101 0.0
H404 H 0.18797 0.99185 0.56291 0.0
C405 C 0.14694 0.13579 0.96032 0.0
C406 C 0.13949 0.15273 0.98482 0.0
C407 C 0.19403 0.25412 0.97423 0.0
C408 C 0.19996 0.23717 0.94951 0.0
N409 N 0.1929 0.1643 0.91999 0.0
N410 N 0.16673 0.22658 0.01717 0.0
C411 C 0.18021 0.1787 0.94294 0.0
C412 C 0.16655 0.21162 0.99242 0.0
N413 N 0.11938 0.07877 0.95323 0.0
N414 N 0.2131 0.31069 0.98002 0.0
H415 H 0.14754 0.19619 0.03093 0.0
H416 H 0.18991 0.26858 0.02451 0.0
H417 H 0.23615 0.34327 0.96753 0.0
H418 H 0.20395 0.32527 0.99668 0.0
H419 H 0.1164 0.06347 0.93481 0.0
H420 H 0.09661 0.04612 0.96567 0.0
H421 H 0.18534 0.12351 0.91499 0.0
H422 H 0.21495 0.1942 0.90636 0.0
C423 C 0.03302 0.13693 0.29226 0.0
C424 C 0.01773 0.13718 0.31768 0.0
C425 C 0.98716 0.2063 0.30922 0.0
C426 C 0.00084 0.20475 0.28366 0.0
N427 N 0.0488 0.18028 0.25173 0.0
N428 N 0.99391 0.18114 0.35188 0.0
C429 C 0.02814 0.17412 0.27553 0.0
C430 C -0.00077 0.17498 0.32665 0.0
N431 N 0.0486 0.09856 0.28377 0.0
N432 N 0.96063 0.23595 0.31655 0.0
H433 H 0.00296 0.15891 0.36502 0.0
H434 H 0.98548 0.21157 0.35997 0.0
H435 H 0.95369 0.26147 0.30445 0.0
H436 H 0.94312 0.23335 0.33418 0.0
H437 H 0.05327 0.09111 0.2649 0.0
H438 H 0.05362 0.07131 0.29552 0.0
H439 H 0.07421 0.16377 0.24538 0.0
H440 H 0.04459 0.20609 0.23881 0.0
loop_
_geom_bond_atom_site_label_1
_geom_bond_atom_site_label_2
_geom_bond_distance
_geom_bond_site_symmetry_2
_ccdc_geom_bond_type
C0 O1 1.160 . S
C0 O7 1.185 . S
O1 C0 1.160 . S
O2 Zn3 1.899 . S
O2 C10 1.284 1_455 S
Zn3 O2 1.899 . S
Zn3 O4 2.032 1_445 S
Zn3 O7 2.086 1_545 S
Zn3 O12 1.977 . S
O4 Zn3 2.032 1_665 S
O4 C8 1.242 1_554 S
C5 O6 1.203 . S
C5 O12 1.267 . S
O6 C5 1.203 . S
O7 C0 1.185 . S
O7 Zn3 2.086 1_565 S
C8 O4 1.242 1_556 S
C8 O9 1.237 1_565 S
O9 C8 1.237 1_545 S
C10 O2 1.284 1_655 S
C10 O11 1.273 . S
O11 C10 1.273 . S
O12 Zn3 1.977 . S
O12 C5 1.267 . S
C13 O14 1.160 . S
C13 O20 1.185 . S
O14 C13 1.160 . S
O15 Zn16 1.899 1_565 S
O15 C23 1.284 . S
Zn16 O15 1.899 1_545 S
Zn16 O17 2.032 1_455 S
Zn16 O20 2.086 . S
Zn16 O25 1.977 . S
O17 Zn16 2.032 1_655 S
O17 C21 1.278 . S
C18 O19 1.203 1_545 S
C18 O25 1.267 . S
O19 C18 1.203 1_565 S
O20 C13 1.185 . S
O20 Zn16 2.086 . S
C21 O17 1.278 . S
C21 O22 1.211 1_545 S
O22 C21 1.211 1_565 S
C23 O15 1.284 . S
C23 O24 1.273 1_455 S
O24 C23 1.273 1_655 S
O25 Zn16 1.977 . S
O25 C18 1.267 . S
C26 O27 1.160 1_565 S
C26 O33 1.185 . S
O27 C26 1.160 1_545 S
O28 Zn29 1.899 1_655 S
O28 C36 1.284 1_565 S
Zn29 O28 1.899 1_455 S
Zn29 O30 2.032 1_565 S
Zn29 O33 2.086 . S
Zn29 O38 1.977 1_455 S
O30 Zn29 2.032 1_545 S
O30 C34 1.278 . S
C31 O32 1.203 . S
C31 O38 1.267 . S
O32 C31 1.203 . S
O33 C26 1.185 . S
O33 Zn29 2.086 . S
C34 O30 1.278 . S
C34 O35 1.211 . S
O35 C34 1.211 . S
C36 O28 1.284 1_545 S
C36 O37 1.273 . S
O37 C36 1.273 . S
O38 Zn29 1.977 1_655 S
O38 C31 1.267 . S
H39 C66 0.929 . S
N40 C65 1.433 . S
N40 C71 1.435 . S
N40 C77 1.423 . S
H41 C67 0.930 . S
H42 C70 0.931 . S
H43 C69 0.929 . S
H44 C72 0.930 . S
H45 C73 0.932 . S
H46 C76 0.929 . S
H47 C75 0.931 . S
H48 C78 0.929 . S
H49 C82 0.938 . S
H50 C79 0.931 . S
H51 C81 0.929 1_455 S
H52 C84 0.929 . S
H53 C85 0.930 . S
H54 C87 0.929 . S
H55 C88 0.931 . S
H56 C90 0.930 . S
H57 C91 0.932 . S
H58 C93 0.931 . S
H59 C94 0.929 . S
H60 C96 0.929 . S
H61 C97 0.931 . S
H62 C99 0.929 1_455 S
N63 C83 1.433 . S
N63 C89 1.435 . S
N63 C95 1.423 . S
H64 C100 0.949 . S
C65 N40 1.433 . S
C65 C66 1.363 . S
C65 C70 1.370 1_655 S
C66 H39 0.929 . S
C66 C65 1.363 . S
C66 C67 1.385 . S
C67 H41 0.930 . S
C67 C66 1.385 . S
C67 C68 1.357 1_655 S
C68 C67 1.357 1_455 S
C68 C69 1.406 . S
C69 H43 0.929 . S
C69 C68 1.406 . S
C69 C70 1.391 . S
C70 H42 0.931 . S
C70 C65 1.370 1_455 S
C70 C69 1.391 . S
C71 N40 1.435 . S
C71 C72 1.358 1_655 S
C71 C76 1.371 . S
C72 H44 0.930 . S
C72 C71 1.358 1_455 S
C72 C73 1.405 . S
C73 H45 0.932 . S
C73 C72 1.405 . S
C73 C74 1.384 . S
C74 C73 1.384 . S
C74 C75 1.393 1_455 S
C75 H47 0.931 . S
C75 C74 1.393 1_655 S
C75 C76 1.382 . S
C76 H46 0.929 . S
C76 C71 1.371 . S
C76 C75 1.382 . S
C77 N40 1.423 . S
C77 C78 1.362 . S
C77 C82 1.373 1_655 S
C78 H48 0.929 . S
C78 C77 1.362 . S
C78 C79 1.376 . S
C79 H50 0.931 . S
C79 C78 1.376 . S
C79 C80 1.396 . S
C80 C79 1.396 . S
C80 C81 1.348 . S
C80 C98 1.472 . S
C81 H51 0.929 1_655 S
C81 C80 1.348 . S
C81 C82 1.452 1_655 S
C82 H49 0.938 . S
C82 C77 1.373 1_455 S
C82 C81 1.452 1_455 S
C83 N63 1.433 . S
C83 C84 1.363 . S
C83 C88 1.370 1_655 S
C84 H52 0.929 . S
C84 C83 1.363 . S
C84 C85 1.385 . S
C85 H53 0.930 . S
C85 C84 1.385 . S
C85 C86 1.357 1_655 S
C86 C85 1.357 1_455 S
C86 C87 1.406 . S
C87 H54 0.929 . S
C87 C86 1.406 . S
C87 C88 1.391 . S
C88 H55 0.931 . S
C88 C83 1.370 1_455 S
C88 C87 1.391 . S
C89 N63 1.435 . S
C89 C90 1.358 1_655 S
C89 C94 1.371 . S
C90 H56 0.930 . S
C90 C89 1.358 1_455 S
C90 C91 1.405 . S
C91 H57 0.932 . S
C91 C90 1.405 . S
C91 C92 1.382 . S
C92 C91 1.382 . S
C92 C93 1.395 1_455 S
C93 H58 0.931 . S
C93 C92 1.395 1_655 S
C93 C94 1.382 . S
C94 H59 0.929 . S
C94 C89 1.371 . S
C94 C93 1.382 . S
C95 N63 1.423 . S
C95 C96 1.362 . S
C95 C100 1.384 1_655 S
C96 H60 0.929 . S
C96 C95 1.362 . S
C96 C97 1.376 . S
C97 H61 0.931 . S
C97 C96 1.376 . S
C97 C98 1.396 . S
C98 C80 1.472 . S
C98 C97 1.396 . S
C98 C99 1.348 . S
C99 H62 0.929 1_655 S
C99 C98 1.348 . S
C99 C100 1.430 1_655 S
C100 H64 0.949 . S
C100 C95 1.384 1_455 S
C100 C99 1.430 1_455 S
H101 C128 0.929 . S
N102 C127 1.433 . S
N102 C133 1.435 . S
N102 C139 1.423 . S
H103 C129 0.930 . S
H104 C132 0.931 . S
H105 C131 0.929 . S
H106 C134 0.930 . S
H107 C135 0.932 . S
H108 C138 0.929 . S
H109 C137 0.931 . S
H110 C140 0.929 . S
H111 C144 0.932 1_565 S
H112 C141 0.931 . S
H113 C143 0.929 . S
H114 C146 0.929 . S
H115 C147 0.930 . S
H116 C149 0.929 . S
H117 C150 0.931 . S
H118 C152 0.930 . S
H119 C153 0.932 . S
H120 C155 0.931 . S
H121 C156 0.929 . S
H122 C158 0.929 . S
H123 C159 0.931 . S
H124 C161 0.929 . S
N125 C145 1.433 . S
N125 C151 1.435 . S
N125 C157 1.423 . S
H126 C162 0.932 1_565 S
C127 N102 1.433 . S
C127 C128 1.363 . S
C127 C132 1.370 1_545 S
C128 H101 0.929 . S
C128 C127 1.363 . S
C128 C129 1.385 . S
C129 H103 0.930 . S
C129 C128 1.385 . S
C129 C130 1.357 . S
C130 C129 1.357 . S
C130 C131 1.406 1_545 S
C131 H105 0.929 . S
C131 C130 1.406 1_565 S
C131 C132 1.391 . S
C132 H104 0.931 . S
C132 C127 1.370 1_565 S
C132 C131 1.391 . S
C133 N102 1.435 . S
C133 C134 1.358 1_545 S
C133 C138 1.371 . S
C134 H106 0.930 . S
C134 C133 1.358 1_565 S
C134 C135 1.405 . S
C135 H107 0.932 . S
C135 C134 1.405 . S
C135 C136 1.383 1_565 S
C136 C135 1.383 1_545 S
C136 C137 1.393 . S
C137 H109 0.931 . S
C137 C136 1.393 . S
C137 C138 1.382 . S
C138 H108 0.929 . S
C138 C133 1.371 . S
C138 C137 1.382 . S
C139 N102 1.423 . S
C139 C140 1.362 . S
C139 C144 1.388 . S
C140 H110 0.929 . S
C140 C139 1.362 . S
C140 C141 1.376 . S
C141 H112 0.931 . S
C141 C140 1.376 . S
C141 C142 1.396 . S
C142 C141 1.396 . S
C142 C143 1.348 . S
C142 C160 1.472 . S
C143 H113 0.929 . S
C143 C142 1.348 . S
C143 C144 1.443 . S
C144 H111 0.932 1_545 S
C144 C139 1.388 . S
C144 C143 1.443 . S
C145 N125 1.433 . S
C145 C146 1.363 . S
C145 C150 1.370 1_545 S
C146 H114 0.929 . S
C146 C145 1.363 . S
C146 C147 1.385 . S
C147 H115 0.930 . S
C147 C146 1.385 . S
C147 C148 1.357 . S
C148 C147 1.357 . S
C148 C149 1.406 1_545 S
C149 H116 0.929 . S
C149 C148 1.406 1_565 S
C149 C150 1.391 . S
C150 H117 0.931 . S
C150 C145 1.370 1_565 S
C150 C149 1.391 . S
C151 N125 1.435 . S
C151 C152 1.358 1_545 S
C151 C156 1.371 . S
C152 H118 0.930 . S
C152 C151 1.358 1_565 S
C152 C153 1.405 . S
C153 H119 0.932 . S
C153 C152 1.405 . S
C153 C154 1.383 1_565 S
C154 C153 1.383 1_545 S
C154 C155 1.393 . S
C155 H120 0.931 . S
C155 C154 1.393 . S
C155 C156 1.382 . S
C156 H121 0.929 . S
C156 C151 1.371 . S
C156 C155 1.382 . S
C157 N125 1.423 . S
C157 C158 1.362 . S
C157 C162 1.388 . S
C158 H122 0.929 . S
C158 C157 1.362 . S
C158 C159 1.376 . S
C159 H123 0.931 . S
C159 C158 1.376 . S
C159 C160 1.396 . S
C160 C142 1.472 . S
C160 C159 1.396 . S
C160 C161 1.348 . S
C161 H124 0.929 . S
C161 C160 1.348 . S
C161 C162 1.443 . S
C162 H126 0.932 1_545 S
C162 C157 1.388 . S
C162 C161 1.443 . S
H163 C190 0.929 . S
N164 C189 1.433 . S
N164 C195 1.435 . S
N164 C201 1.423 . S
H165 C191 0.930 . S
H166 C194 0.931 . S
H167 C193 0.929 . S
H168 C196 0.930 . S
H169 C197 0.932 . S
H170 C200 0.929 . S
H171 C199 0.931 . S
H172 C202 0.929 . S
H173 C206 0.932 . S
H174 C203 0.931 . S
H175 C205 0.929 . S
H176 C208 0.929 . S
H177 C209 0.930 . S
H178 C211 0.929 . S
H179 C212 0.931 . S
H180 C214 0.930 . S
H181 C215 0.932 . S
H182 C217 0.931 . S
H183 C218 0.929 . S
H184 C220 0.929 . S
H185 C221 0.931 . S
H186 C223 0.929 . S
N187 C207 1.433 . S
N187 C213 1.435 . S
N187 C219 1.423 . S
H188 C224 0.932 . S
C189 N164 1.433 . S
C189 C190 1.363 . S
C189 C194 1.370 . S
C190 H163 0.929 . S
C190 C189 1.363 . S
C190 C191 1.385 . S
C191 H165 0.930 . S
C191 C190 1.385 . S
C191 C192 1.357 . S
C192 C191 1.357 . S
C192 C193 1.406 . S
C193 H167 0.929 . S
C193 C192 1.406 . S
C193 C194 1.391 . S
C194 H166 0.931 . S
C194 C189 1.370 . S
C194 C193 1.391 . S
C195 N164 1.435 . S
C195 C196 1.358 . S
C195 C200 1.371 . S
C196 H168 0.930 . S
C196 C195 1.358 . S
C196 C197 1.405 . S
C197 H169 0.932 . S
C197 C196 1.405 . S
C197 C198 1.383 . S
C198 C197 1.383 . S
C198 C199 1.393 . S
C199 H171 0.931 . S
C199 C198 1.393 . S
C199 C200 1.382 . S
C200 H170 0.929 . S
C200 C195 1.371 . S
C200 C199 1.382 . S
C201 N164 1.423 . S
C201 C202 1.362 . S
C201 C206 1.388 . S
C202 H172 0.929 . S
C202 C201 1.362 . S
C202 C203 1.376 . S
C203 H174 0.931 . S
C203 C202 1.376 . S
C203 C204 1.396 . S
C204 C203 1.396 . S
C204 C205 1.348 . S
C204 C222 1.472 . S
C205 H175 0.929 . S
C205 C204 1.348 . S
C205 C206 1.443 . S
C206 H173 0.932 . S
C206 C201 1.388 . S
C206 C205 1.443 . S
C207 N187 1.433 . S
C207 C208 1.363 . S
C207 C212 1.370 . S
C208 H176 0.929 . S
C208 C207 1.363 . S
C208 C209 1.385 . S
C209 H177 0.930 . S
C209 C208 1.385 . S
C209 C210 1.357 . S
C210 C209 1.357 . S
C210 C211 1.406 . S
C211 H178 0.929 . S
C211 C210 1.406 . S
C211 C212 1.391 . S
C212 H179 0.931 . S
C212 C207 1.370 . S
C212 C211 1.391 . S
C213 N187 1.435 . S
C213 C214 1.358 . S
C213 C218 1.371 . S
C214 H180 0.930 . S
C214 C213 1.358 . S
C214 C215 1.405 . S
C215 H181 0.932 . S
C215 C214 1.405 . S
C215 C216 1.383 . S
C216 C215 1.383 . S
C216 C217 1.393 . S
C217 H182 0.931 . S
C217 C216 1.393 . S
C217 C218 1.382 . S
C218 H183 0.929 . S
C218 C213 1.371 . S
C218 C217 1.382 . S
C219 N187 1.423 . S
C219 C220 1.362 . S
C219 C224 1.388 . S
C220 H184 0.929 . S
C220 C219 1.362 . S
C220 C221 1.376 . S
C221 H185 0.931 . S
C221 C220 1.376 . S
C221 C222 1.396 . S
C222 C204 1.472 . S
C222 C221 1.396 . S
C222 C223 1.348 . S
C223 H186 0.929 . S
C223 C222 1.348 . S
C223 C224 1.443 . S
C224 H188 0.932 . S
C224 C219 1.388 . S
C224 C223 1.443 . S
C225 C226 1.363 . S
C225 C231 1.379 . S
C225 N233 1.356 . S
C226 C225 1.363 . S
C226 C232 1.362 1_655 S
C227 C228 1.363 . S
C227 C232 1.377 . S
C227 N234 1.356 . S
C228 C227 1.363 . S
C228 C231 1.363 1_455 S
N229 C231 1.356 . S
N229 H241 0.984 . S
N229 H242 0.985 . S
N230 C232 1.347 . S
N230 H235 0.989 1_455 S
N230 H236 0.993 . S
C231 C225 1.379 . S
C231 C228 1.363 1_655 S
C231 N229 1.356 . S
C232 C226 1.362 1_455 S
C232 C227 1.377 . S
C232 N230 1.347 . S
N233 C225 1.356 . S
N233 H239 0.984 . S
N233 H240 0.984 . S
N234 C227 1.356 . S
N234 H237 0.984 . S
N234 H238 0.985 . S
H235 N230 0.989 1_655 S
H236 N230 0.993 . S
H237 N234 0.984 . S
H238 N234 0.985 . S
H239 N233 0.984 . S
H240 N233 0.984 . S
H241 N229 0.984 . S
H242 N229 0.985 . S
C243 C244 1.363 1_565 S
C243 C249 1.379 . S
C243 N251 1.356 . S
C244 C243 1.363 1_545 S
C244 C250 1.363 . S
C245 C246 1.363 . S
C245 C250 1.379 . S
C245 N252 1.356 . S
C246 C245 1.363 . S
C246 C249 1.363 1_545 S
N247 C249 1.356 . S
N247 H259 0.984 . S
N247 H260 0.985 . S
N248 C250 1.356 . S
N248 H253 0.984 . S
N248 H254 0.985 1_655 S
C249 C243 1.379 . S
C249 C246 1.363 1_565 S
C249 N247 1.356 . S
C250 C244 1.363 . S
C250 C245 1.379 . S
C250 N248 1.356 . S
N251 C243 1.356 . S
N251 H257 0.984 . S
N251 H258 0.984 . S
N252 C245 1.356 . S
N252 H255 0.984 . S
N252 H256 0.985 . S
H253 N248 0.984 . S
H254 N248 0.985 1_455 S
H255 N252 0.984 . S
H256 N252 0.985 . S
H257 N251 0.984 . S
H258 N251 0.984 . S
H259 N247 0.984 . S
H260 N247 0.985 . S
C261 C262 1.363 . S
C261 C267 1.379 . S
C261 N269 1.356 . S
C262 C261 1.363 . S
C262 C268 1.363 . S
C263 C264 1.363 . S
C263 C268 1.379 . S
C263 N270 1.356 . S
C264 C263 1.363 . S
C264 C267 1.363 . S
N265 C267 1.356 . S
N265 H277 0.984 . S
N265 H278 0.985 . S
N266 C268 1.356 . S
N266 H271 0.984 . S
N266 H272 0.985 . S
C267 C261 1.379 . S
C267 C264 1.363 . S
C267 N265 1.356 . S
C268 C262 1.363 . S
C268 C263 1.379 . S
C268 N266 1.356 . S
N269 C261 1.356 . S
N269 H275 0.984 . S
N269 H276 0.984 . S
N270 C263 1.356 . S
N270 H273 0.984 . S
N270 H274 0.985 . S
H271 N266 0.984 . S
H272 N266 0.985 . S
H273 N270 0.984 . S
H274 N270 0.985 . S
H275 N269 0.984 . S
H276 N269 0.984 . S
H277 N265 0.984 . S
H278 N265 0.985 . S
C279 C280 1.363 1_655 S
C279 C285 1.379 . S
C279 N287 1.356 . S
C280 C279 1.363 1_455 S
C280 C286 1.363 . S
C281 C282 1.363 . S
C281 C286 1.379 . S
C281 N288 1.356 . S
C282 C281 1.363 . S
C282 C285 1.363 1_455 S
N283 C285 1.356 . S
N283 H295 0.984 . S
N283 H296 0.985 . S
N284 C286 1.356 . S
N284 H289 0.984 . S
N284 H290 0.985 1_565 S
C285 C279 1.379 . S
C285 C282 1.363 1_655 S
C285 N283 1.356 . S
C286 C280 1.363 . S
C286 C281 1.379 . S
C286 N284 1.356 . S
N287 C279 1.356 . S
N287 H293 0.984 . S
N287 H294 0.984 . S
N288 C281 1.356 . S
N288 H291 0.984 . S
N288 H292 0.985 . S
H289 N284 0.984 . S
H290 N284 0.985 1_545 S
H291 N288 0.984 . S
H292 N288 0.985 . S
H293 N287 0.984 . S
H294 N287 0.984 . S
H295 N283 0.984 . S
H296 N283 0.985 . S
C297 C298 1.363 1_565 S
C297 C303 1.379 . S
C297 N305 1.356 . S
C298 C297 1.363 1_545 S
C298 C304 1.363 . S
C299 C300 1.363 . S
C299 C304 1.379 . S
C299 N306 1.356 . S
C300 C299 1.363 . S
C300 C303 1.363 1_545 S
N301 C303 1.356 . S
N301 H313 0.984 . S
N301 H314 0.985 . S
N302 C304 1.356 . S
N302 H307 0.984 . S
N302 H308 0.985 . S
C303 C297 1.379 . S
C303 C300 1.363 1_565 S
C303 N301 1.356 . S
C304 C298 1.363 . S
C304 C299 1.379 . S
C304 N302 1.356 . S
N305 C297 1.356 . S
N305 H311 0.984 . S
N305 H312 0.984 . S
N306 C299 1.356 . S
N306 H309 0.984 . S
N306 H310 0.985 . S
H307 N302 0.984 . S
H308 N302 0.985 . S
H309 N306 0.984 . S
H310 N306 0.985 . S
H311 N305 0.984 . S
H312 N305 0.984 . S
H313 N301 0.984 . S
H314 N301 0.985 . S
C315 C316 1.363 . S
C315 C321 1.379 . S
C315 N323 1.356 . S
C316 C315 1.363 . S
C316 C322 1.363 . S
C317 C318 1.363 . S
C317 C322 1.379 . S
C317 N324 1.356 . S
C318 C317 1.363 . S
C318 C321 1.363 . S
N319 C321 1.356 . S
N319 H331 0.984 . S
N319 H332 0.985 . S
N320 C322 1.356 . S
N320 H325 0.984 . S
N320 H326 0.985 . S
C321 C315 1.379 . S
C321 C318 1.363 . S
C321 N319 1.356 . S
C322 C316 1.363 . S
C322 C317 1.379 . S
C322 N320 1.356 . S
N323 C315 1.356 . S
N323 H329 0.984 . S
N323 H330 0.984 . S
N324 C317 1.356 . S
N324 H327 0.984 . S
N324 H328 0.985 . S
H325 N320 0.984 . S
H326 N320 0.985 . S
H327 N324 0.984 . S
H328 N324 0.985 . S
H329 N323 0.984 . S
H330 N323 0.984 . S
H331 N319 0.984 . S
H332 N319 0.985 . S
C333 C334 1.363 1_565 S
C333 C339 1.379 . S
C333 N341 1.356 . S
C334 C333 1.363 1_545 S
C334 C340 1.363 . S
C335 C336 1.363 . S
C335 C340 1.379 . S
C335 N342 1.356 . S
C336 C335 1.363 . S
C336 C339 1.363 1_545 S
N337 C339 1.356 . S
N337 H349 0.984 . S
N337 H350 0.985 . S
N338 C340 1.356 . S
N338 H343 0.984 . S
N338 H344 0.985 . S
C339 C333 1.379 . S
C339 C336 1.363 1_565 S
C339 N337 1.356 . S
C340 C334 1.363 . S
C340 C335 1.379 . S
C340 N338 1.356 . S
N341 C333 1.356 . S
N341 H347 0.984 . S
N341 H348 0.984 . S
N342 C335 1.356 . S
N342 H345 0.984 . S
N342 H346 0.985 . S
H343 N338 0.984 . S
H344 N338 0.985 . S
H345 N342 0.984 . S
H346 N342 0.985 . S
H347 N341 0.984 . S
H348 N341 0.984 . S
H349 N337 0.984 . S
H350 N337 0.985 . S
C351 C352 1.363 . S
C351 C357 1.379 . S
C351 N359 1.356 . S
C352 C351 1.363 . S
C352 C358 1.363 . S
C353 C354 1.363 . S
C353 C358 1.379 . S
C353 N360 1.356 . S
C354 C353 1.363 . S
C354 C357 1.363 . S
N355 C357 1.356 . S
N355 H367 0.984 . S
N355 H368 0.985 . S
N356 C358 1.356 1_554 S
N356 H361 0.984 . S
N356 H362 0.985 . S
C357 C351 1.379 . S
C357 C354 1.363 . S
C357 N355 1.356 . S
C358 C352 1.363 . S
C358 C353 1.379 . S
C358 N356 1.356 1_556 S
N359 C351 1.356 . S
N359 H365 0.984 . S
N359 H366 0.984 . S
N360 C353 1.356 . S
N360 H363 0.984 . S
N360 H364 0.985 1_556 S
H361 N356 0.984 . S
H362 N356 0.985 . S
H363 N360 0.984 . S
H364 N360 0.985 1_554 S
H365 N359 0.984 . S
H366 N359 0.984 . S
H367 N355 0.984 . S
H368 N355 0.985 . S
C369 C370 1.363 . S
C369 C375 1.379 . S
C369 N377 1.356 . S
C370 C369 1.363 . S
C370 C376 1.363 1_455 S
C371 C372 1.363 1_655 S
C371 C376 1.379 . S
C371 N378 1.356 . S
C372 C371 1.363 1_455 S
C372 C375 1.363 . S
N373 C375 1.356 . S
N373 H385 0.984 . S
N373 H386 0.985 . S
N374 C376 1.356 . S
N374 H379 0.984 . S
N374 H380 0.985 . S
C375 C369 1.379 . S
C375 C372 1.363 . S
C375 N373 1.356 . S
C376 C370 1.363 1_655 S
C376 C371 1.379 . S
C376 N374 1.356 . S
N377 C369 1.356 . S
N377 H383 0.984 . S
N377 H384 0.984 . S
N378 C371 1.356 . S
N378 H381 0.984 . S
N378 H382 0.985 . S
H379 N374 0.984 . S
H380 N374 0.985 . S
H381 N378 0.984 . S
H382 N378 0.985 . S
H383 N377 0.984 . S
H384 N377 0.984 . S
H385 N373 0.984 . S
H386 N373 0.985 . S
C387 C388 1.363 . S
C387 C393 1.379 . S
C387 N395 1.356 . S
C388 C387 1.363 . S
C388 C394 1.363 1_565 S
C389 C390 1.363 . S
C389 C394 1.379 . S
C389 N396 1.356 . S
C390 C389 1.363 . S
C390 C393 1.363 1_545 S
N391 C393 1.356 . S
N391 H403 0.984 . S
N391 H404 0.985 . S
N392 C394 1.356 . S
N392 H397 0.984 . S
N392 H398 0.985 . S
C393 C387 1.379 . S
C393 C390 1.363 1_565 S
C393 N391 1.356 . S
C394 C388 1.363 1_545 S
C394 C389 1.379 . S
C394 N392 1.356 . S
N395 C387 1.356 . S
N395 H401 0.984 . S
N395 H402 0.984 . S
N396 C389 1.356 . S
N396 H399 0.984 . S
N396 H400 0.985 . S
H397 N392 0.984 . S
H398 N392 0.985 . S
H399 N396 0.984 . S
H400 N396 0.985 . S
H401 N395 0.984 . S
H402 N395 0.984 . S
H403 N391 0.984 . S
H404 N391 0.985 . S
C405 C406 1.363 . S
C405 C411 1.379 . S
C405 N413 1.356 . S
C406 C405 1.363 . S
C406 C412 1.363 . S
C407 C408 1.363 . S
C407 C412 1.379 . S
C407 N414 1.356 . S
C408 C407 1.363 . S
C408 C411 1.363 . S
N409 C411 1.356 . S
N409 H421 0.984 . S
N409 H422 0.985 . S
N410 C412 1.356 1_554 S
N410 H415 0.984 . S
N410 H416 0.985 . S
C411 C405 1.379 . S
C411 C408 1.363 . S
C411 N409 1.356 . S
C412 C406 1.363 . S
C412 C407 1.379 . S
C412 N410 1.356 1_556 S
N413 C405 1.356 . S
N413 H419 0.984 . S
N413 H420 0.984 . S
N414 C407 1.356 . S
N414 H417 0.984 . S
N414 H418 0.985 1_556 S
H415 N410 0.984 . S
H416 N410 0.985 . S
H417 N414 0.984 . S
H418 N414 0.985 1_554 S
H419 N413 0.984 . S
H420 N413 0.984 . S
H421 N409 0.984 . S
H422 N409 0.985 . S
C423 C424 1.363 . S
C423 C429 1.379 . S
C423 N431 1.356 . S
C424 C423 1.363 . S
C424 C430 1.363 1_455 S
C425 C426 1.363 1_655 S
C425 C430 1.379 . S
C425 N432 1.356 . S
C426 C425 1.363 1_455 S
C426 C429 1.363 . S
N427 C429 1.356 . S
N427 H439 0.984 . S
N427 H440 0.985 . S
N428 C430 1.356 . S
N428 H433 0.984 . S
N428 H434 0.985 . S
C429 C423 1.379 . S
C429 C426 1.363 . S
C429 N427 1.356 . S
C430 C424 1.363 1_655 S
C430 C425 1.379 . S
C430 N428 1.356 . S
N431 C423 1.356 . S
N431 H437 0.984 . S
N431 H438 0.984 . S
N432 C425 1.356 . S
N432 H435 0.984 . S
N432 H436 0.985 . S
H433 N428 0.984 . S
H434 N428 0.985 . S
H435 N432 0.984 . S
H436 N432 0.985 . S
H437 N431 0.984 . S
H438 N431 0.984 . S
H439 N427 0.984 . S
H440 N427 0.985 . S
C228 C92 1.341 . S
C226 C10 1.344 . S
C244 C21 1.342 . S
C246 C136 1.406 . S
C262 C31 1.336 . S
C264 C198 1.440 . S
C280 C0 1.308 . S
C282 C74 1.396 . S
C300 C154 1.393 . S
C298 C18 1.318 . S
C316 C34 1.319 . S
C318 C216 1.379 . S
C336 C130 1.487 . S
C334 C36 1.606 . S
C352 C8 1.651 . S
C354 C192 1.536 . S
C372 C68 1.509 . S
C370 C23 1.623 . S
C390 C148 1.495 . S
C388 C26 1.573 . S
C408 C210 1.600 . S
C406 C5 1.586 1_556 S
C424 C13 1.627 . S
C426 C86 1.560 . S
