# Generated by pormake.
# Topology anh, (6,3)-cn, num edge types: 1
# Building blocks:
#     Node 0, Type 0, BuildingBlock: PAMTOO_clean_sbu_0, # of connection points: 6
#     Node 1, Type 0, BuildingBlock: PAMTOO_clean_sbu_0, # of connection points: 6
#     Node 2, Type 0, BuildingBlock: PAMTOO_clean_sbu_0, # of connection points: 6
#     Node 3, Type 1, BuildingBlock: ESEHIV_clean_linker_0, # of connection points: 3
#     Node 4, Type 1, BuildingBlock: ESEHIV_clean_linker_0, # of connection points: 3
#     Node 5, Type 1, BuildingBlock: ESEHIV_clean_linker_0, # of connection points: 3
#     Node 6, Type 1, BuildingBlock: ESEHIV_clean_linker_0, # of connection points: 3
#     Node 7, Type 1, BuildingBlock: ESEHIV_clean_linker_0, # of connection points: 3
#     Node 8, Type 1, BuildingBlock: ESEHIV_clean_linker_0, # of connection points: 3
#     Edge 9, Type (0, 1), BuildingBlock: EZIPEK_clean_linker_0, # of connection points: 2
#     Edge 10, Type (0, 1), BuildingBlock: EZIPEK_clean_linker_0, # of connection points: 2
#     Edge 11, Type (0, 1), BuildingBlock: EZIPEK_clean_linker_0, # of connection points: 2
#     Edge 12, Type (0, 1), BuildingBlock: EZIPEK_clean_linker_0, # of connection points: 2
#     Edge 13, Type (0, 1), BuildingBlock: EZIPEK_clean_linker_0, # of connection points: 2
#     Edge 14, Type (0, 1), BuildingBlock: EZIPEK_clean_linker_0, # of connection points: 2
#     Edge 15, Type (0, 1), BuildingBlock: EZIPEK_clean_linker_0, # of connection points: 2
#     Edge 16, Type (0, 1), BuildingBlock: EZIPEK_clean_linker_0, # of connection points: 2
#     Edge 17, Type (0, 1), BuildingBlock: EZIPEK_clean_linker_0, # of connection points: 2
#     Edge 18, Type (0, 1), BuildingBlock: EZIPEK_clean_linker_0, # of connection points: 2
#     Edge 19, Type (0, 1), BuildingBlock: EZIPEK_clean_linker_0, # of connection points: 2
#     Edge 20, Type (0, 1), BuildingBlock: EZIPEK_clean_linker_0, # of connection points: 2
#     Edge 21, Type (0, 1), BuildingBlock: EZIPEK_clean_linker_0, # of connection points: 2
#     Edge 22, Type (0, 1), BuildingBlock: EZIPEK_clean_linker_0, # of connection points: 2
#     Edge 23, Type (0, 1), BuildingBlock: EZIPEK_clean_linker_0, # of connection points: 2
#     Edge 24, Type (0, 1), BuildingBlock: EZIPEK_clean_linker_0, # of connection points: 2
#     Edge 25, Type (0, 1), BuildingBlock: EZIPEK_clean_linker_0, # of connection points: 2
#     Edge 26, Type (0, 1), BuildingBlock: EZIPEK_clean_linker_0, # of connection points: 2
# Relax obj value: 0.290
# Max RMSD: 0.240
# Mean RMSD: 0.181
data_MOF--net-anh--node1-PAMTOO_clean_sbu_0--node2-ESEHIV_clean_linker_0--edge1-EZIPEK_clean_linker_0
_symmetry_space_group_name_H-M    P1
_symmetry_Int_Tables_number       1
_symmetry_cell_setting            triclinic
loop_
_symmetry_equiv_pos_as_xyz
'x, y, z'
_cell_length_a     20.412033
_cell_length_b     19.370918
_cell_length_c     38.332521
_cell_angle_alpha  90.994796
_cell_angle_beta   94.678705
_cell_angle_gamma 97.983279
loop_
_atom_site_label
_atom_site_type_symbol
_atom_site_fract_x
_atom_site_fract_y
_atom_site_fract_z
_atom_type_partial_charge
Dy0 Dy 0.11641 0.64748 0.12005 0.0
Dy1 Dy 1.0945 0.48113 0.11081 0.0
C2 C 1.10435 0.5743 0.04295 0.0
O3 O 1.00282 0.62977 0.11506 0.0
O4 O 0.98833 0.51032 0.11461 0.0
O5 O 0.14567 0.74966 0.0996 0.0
O6 O 0.12699 0.7394 0.15396 0.0
O7 O 0.12893 0.5086 0.16656 0.0
O8 O 1.07961 0.60506 0.16972 0.0
O9 O 0.2064 0.50324 0.10511 0.0
O10 O 0.22204 0.61537 0.12745 0.0
O11 O 1.10899 0.38136 0.13246 0.0
O12 O 1.04255 0.38573 0.08592 0.0
C13 C 0.96236 0.56983 0.11492 0.0
O14 O 1.09502 0.62837 0.06215 0.0
O15 O 0.11281 0.51419 0.05658 0.0
C16 C 0.21537 0.82413 0.14155 0.0
C17 C 0.33894 0.89737 0.16824 0.0
C18 C 0.33469 0.8532 0.13847 0.0
C19 C 0.2734 0.81693 0.1252 0.0
C20 C 0.21953 0.86973 0.17077 0.0
C21 C 0.28081 0.90596 0.18405 0.0
C22 C 0.15147 0.78059 0.13041 0.0
C23 C 1.10301 0.5531 0.1851 0.0
C24 C 0.24745 0.55968 0.11672 0.0
C25 C 1.00821 0.30461 0.12906 0.0
C26 C 0.90976 0.23097 0.16733 0.0
C27 C 0.89261 0.27844 0.14207 0.0
C28 C 0.94136 0.31521 0.12324 0.0
C29 C 1.02504 0.25626 0.154 0.0
C30 C 0.9763 0.21999 0.17309 0.0
C31 C 1.06123 0.34753 0.1116 0.0
H32 H 0.379 0.84584 0.12592 0.0
H33 H 0.27172 0.78224 0.10264 0.0
H34 H 0.17557 0.87585 0.1839 0.0
H35 H 0.28315 0.93954 0.20715 0.0
H36 H 0.84159 0.28789 0.13738 0.0
H37 H 0.92672 0.35281 0.10462 0.0
H38 H 1.07621 0.24769 0.15925 0.0
H39 H 0.99052 0.1838 0.19258 0.0
Dy40 Dy 0.57046 1.02108 0.51475 0.0
Dy41 Dy 0.73086 0.04879 0.5225 0.0
C42 C 0.65049 0.03429 0.58907 0.0
O43 O 0.59435 0.13624 0.50705 0.0
O44 O 0.70033 0.15387 0.53356 0.0
O45 O 0.47771 0.98906 0.53687 0.0
O46 O 0.47802 0.02446 0.48354 0.0
O47 O 0.69617 0.07708 0.46861 0.0
O48 O 0.6056 0.99424 0.46307 0.0
O49 O 0.70598 0.93294 0.51194 0.0
O50 O 0.59908 0.91592 0.5276 0.0
O51 O 0.82283 0.02718 0.50383 0.0
O52 O 0.82417 0.10092 0.54712 0.0
C53 C 0.64629 0.17825 0.52113 0.0
O54 O 0.60201 0.05691 0.56999 0.0
O55 O 0.70094 1.01385 0.57472 0.0
C56 C 0.3995 0.92888 0.4944 0.0
C57 C 0.32546 0.80664 0.46428 0.0
C58 C 0.37398 0.80255 0.49191 0.0
C59 C 0.41122 0.86329 0.50671 0.0
C60 C 0.3496 0.93282 0.46744 0.0
C61 C 0.31293 0.87198 0.45234 0.0
C62 C 0.44305 0.99263 0.507 0.0
C63 C 0.65113 0.03633 0.44884 0.0
C64 C 0.65372 0.89133 0.52081 0.0
C65 C 0.89635 0.1308 0.50377 0.0
C66 C 0.96499 0.23829 0.46756 0.0
C67 C 0.89996 0.21047 0.45566 0.0
C68 C 0.86584 0.15724 0.47368 0.0
C69 C 0.96162 0.15836 0.51569 0.0
C70 C 0.99597 0.21208 0.49759 0.0
C71 C 0.85795 0.07725 0.52321 0.0
H72 H 0.38402 0.75235 0.50136 0.0
H73 H 0.45013 0.85871 0.52716 0.0
H74 H 0.34032 0.98284 0.45743 0.0
H75 H 0.27539 0.87571 0.43105 0.0
H76 H 0.87551 0.23043 0.43258 0.0
H77 H 0.81534 0.13714 0.46421 0.0
H78 H 0.98554 0.13891 0.53905 0.0
H79 H 1.04628 0.23352 0.50701 0.0
Dy80 Dy 0.68618 0.52793 0.83826 0.0
Dy81 Dy 0.52949 0.52248 0.81788 0.0
C82 C 0.62942 0.52352 0.7587 0.0
O83 O 0.68043 0.64292 0.84207 0.0
O84 O 0.57344 0.63572 0.81733 0.0
O85 O 0.79142 0.54306 0.83245 0.0
O86 O 0.75202 0.48482 0.87596 0.0
O87 O 0.53729 0.51063 0.87554 0.0
O88 O 0.64688 0.55332 0.88812 0.0
O89 O 0.5319 0.40771 0.82238 0.0
O90 O 0.64498 0.41624 0.82306 0.0
O91 O 0.43066 0.52428 0.83364 0.0
O92 O 0.45001 0.53905 0.77941 0.0
C93 C 0.62979 0.67295 0.82936 0.0
O94 O 0.67817 0.55076 0.78137 0.0
O95 O 0.57231 0.49436 0.76872 0.0
C96 C 0.83387 0.43987 0.84762 0.0
C97 C 0.91195 0.35309 0.81699 0.0
C98 C 0.84534 0.35152 0.80387 0.0
C99 C 0.80726 0.39734 0.8184 0.0
C100 C 0.89196 0.42588 0.86619 0.0
C101 C 0.92945 0.37942 0.85174 0.0
C102 C 0.80261 0.5 0.85751 0.0
C103 C 0.58791 0.5326 0.89783 0.0
C104 C 0.58613 0.37834 0.82182 0.0
C105 C 0.39204 0.62072 0.80644 0.0
C106 C 0.34733 0.75197 0.81021 0.0
C107 C 0.34133 0.70577 0.83827 0.0
C108 C 0.36194 0.64038 0.83594 0.0
C109 C 0.40771 0.67089 0.78116 0.0
C110 C 0.3863 0.73625 0.78329 0.0
C111 C 0.41181 0.55025 0.80397 0.0
H112 H 0.82771 0.32673 0.77867 0.0
H113 H 0.7602 0.40427 0.80489 0.0
H114 H 0.91106 0.45489 0.89015 0.0
H115 H 0.97777 0.37578 0.86489 0.0
H116 H 0.31323 0.71588 0.8601 0.0
H117 H 0.35177 0.60411 0.85668 0.0
H118 H 0.434 0.65881 0.75891 0.0
H119 H 0.39395 0.77136 0.76188 0.0
H120 H 0.54858 0.9991 0.29055 0.0
H121 H 0.74863 0.10667 0.2962 0.0
H122 H 0.6367 0.06352 0.1961 0.0
C123 C 0.59055 0.02417 0.27766 0.0
C124 C 0.5862 0.02747 0.24105 0.0
C125 C 0.64898 0.0525 0.29769 0.0
C126 C 0.70342 0.08458 0.28082 0.0
C127 C 0.69895 0.08946 0.24414 0.0
C128 C 0.64025 0.0605 0.22439 0.0
H129 H 0.65422 0.64749 0.60599 0.0
H130 H 0.64471 0.42513 0.60426 0.0
H131 H 0.65139 0.53528 0.5074 0.0
C132 C 0.6527 0.59895 0.5912 0.0
C133 C 0.65316 0.59974 0.55458 0.0
C134 C 0.64946 0.53629 0.60902 0.0
C135 C 0.64759 0.4735 0.59024 0.0
C136 C 0.6485 0.47196 0.55368 0.0
C137 C 0.65112 0.53563 0.53564 0.0
H138 H 1.04145 0.50243 0.88221 0.0
H139 H 0.17394 0.69445 0.89281 0.0
H140 H 1.07851 0.62293 0.79142 0.0
C141 C 1.06486 0.5491 0.87052 0.0
C142 C 1.0598 0.55497 0.83399 0.0
C143 C 1.10262 0.60179 0.89196 0.0
C144 C 0.13934 0.65798 0.87628 0.0
C145 C 0.13211 0.66598 0.83955 0.0
C146 C 1.08688 0.6169 0.81938 0.0
H147 H 1.04434 0.42914 0.33906 0.0
H148 H 0.19385 0.61028 0.34143 0.0
H149 H 0.14675 0.50976 0.43688 0.0
C150 C 1.08161 0.46682 0.35335 0.0
C151 C 1.0939 0.46173 0.38969 0.0
C152 C 0.11861 0.5195 0.33545 0.0
C153 C 0.16567 0.56854 0.35471 0.0
C154 C 0.17371 0.56669 0.39124 0.0
C155 C 0.13939 0.51205 0.4086 0.0
H156 H 0.61716 0.13344 0.74087 0.0
H157 H 0.64226 0.91779 0.74386 0.0
H158 H 0.60763 0.02633 0.8386 0.0
C159 C 0.61972 0.08673 0.75586 0.0
C160 C 0.61074 0.0882 0.79175 0.0
C161 C 0.63073 0.0257 0.73873 0.0
C162 C 0.63393 0.96487 0.75754 0.0
C163 C 0.62619 0.96383 0.79364 0.0
C164 C 0.61433 0.02619 0.81087 0.0
H165 H 0.48419 0.53714 0.05121 0.0
H166 H 0.69326 0.54155 0.04889 0.0
H167 H 0.61155 0.57357 0.14791 0.0
C168 C 0.53252 0.54166 0.06583 0.0
C169 C 0.53784 0.55427 0.10204 0.0
C170 C 0.58811 0.53861 0.04739 0.0
C171 C 0.65164 0.5443 0.06453 0.0
C172 C 0.6634 0.55658 0.10076 0.0
C173 C 0.60494 0.56216 0.12002 0.0
C174 C 0.36681 0.61858 0.10442 0.0
C175 C 0.32479 0.56118 0.1177 0.0
C176 C 0.42772 0.50327 0.12824 0.0
C177 C 0.46983 0.56217 0.11663 0.0
N178 N 0.47824 0.68217 0.10106 0.0
N179 N 0.32206 0.45536 0.15003 0.0
C180 C 0.43862 0.62178 0.10747 0.0
C181 C 0.35748 0.50549 0.13183 0.0
N182 N 0.33819 0.66811 0.08616 0.0
N183 N 0.45442 0.44354 0.13474 0.0
H184 H 0.27232 0.45601 0.15422 0.0
H185 H 0.34355 0.41732 0.16393 0.0
H186 H 0.5051 0.44124 0.13409 0.0
H187 H 0.42603 0.39586 0.13885 0.0
H188 H 0.36496 0.70723 0.07269 0.0
H189 H 0.28699 0.66576 0.08113 0.0
H190 H 0.46054 0.72973 0.09768 0.0
H191 H 0.52993 0.68579 0.10284 0.0
C192 C 1.04757 0.28163 0.42541 0.0
C193 C 0.99974 0.29575 0.44838 0.0
C194 C 1.00718 0.41601 0.42901 0.0
C195 C 1.05926 0.4036 0.40848 0.0
N196 N 0.13664 0.32877 0.39088 0.0
N197 N 0.94052 0.3777 0.47641 0.0
C198 C 1.0816 0.3375 0.40765 0.0
C199 C 0.98133 0.36343 0.45144 0.0
N200 N 1.05886 0.21456 0.41971 0.0
N201 N 0.9814 0.47739 0.42631 0.0
H202 H 0.92071 0.34034 0.49338 0.0
H203 H 0.93066 0.42769 0.48235 0.0
H204 H 0.9991 0.51698 0.40995 0.0
H205 H 0.93895 0.48682 0.43786 0.0
H206 H 1.08744 0.20005 0.40026 0.0
H207 H 1.03546 0.17223 0.43259 0.0
H208 H 0.15971 0.28414 0.39276 0.0
H209 H 0.16261 0.3683 0.37722 0.0
C210 C 0.57915 0.78532 0.83486 0.0
C211 C 0.63446 0.75155 0.82703 0.0
C212 C 0.69111 0.86593 0.8106 0.0
C213 C 0.63145 0.89572 0.8117 0.0
N214 N 0.51552 0.88026 0.8221 0.0
N215 N 0.73978 0.76091 0.8013 0.0
C216 C 0.57475 0.85469 0.82347 0.0
C217 C 0.69011 0.79236 0.81376 0.0
N218 N 0.53108 0.75169 0.85377 0.0
N219 N 0.74896 0.90821 0.80606 0.0
H220 H 0.73985 0.70721 0.80065 0.0
H221 H 0.77756 0.78763 0.78799 0.0
H222 H 0.75124 0.96215 0.80396 0.0
H223 H 0.79517 0.89084 0.80817 0.0
H224 H 0.49313 0.77582 0.86305 0.0
H225 H 0.53293 0.702 0.86343 0.0
H226 H 0.47087 0.85014 0.82666 0.0
H227 H 0.50995 0.93031 0.81397 0.0
C228 C 0.84358 0.519 0.134 0.0
C229 C 0.88499 0.56938 0.11523 0.0
C230 C 0.78162 0.62394 0.10034 0.0
C231 C 0.73904 0.56764 0.11391 0.0
N232 N 0.73284 0.45586 0.14043 0.0
N233 N 0.88396 0.66169 0.07359 0.0
C234 C 0.77129 0.51377 0.12992 0.0
C235 C 0.85132 0.62007 0.0969 0.0
N236 N 0.87289 0.47759 0.15721 0.0
N237 N 0.75479 0.68177 0.08998 0.0
H238 H 0.93197 0.65733 0.06746 0.0
H239 H 0.86054 0.69438 0.05694 0.0
H240 H 0.70485 0.68621 0.09209 0.0
H241 H 0.78329 0.72753 0.08301 0.0
H242 H 0.84631 0.4443 0.17375 0.0
H243 H 0.9241 0.48226 0.16294 0.0
H244 H 0.75194 0.41084 0.14821 0.0
H245 H 0.68117 0.45168 0.13921 0.0
C246 C 0.21897 0.72681 0.45122 0.0
C247 C 0.28783 0.7424 0.44739 0.0
C248 C 0.28356 0.63615 0.4113 0.0
C249 C 0.21353 0.62573 0.41151 0.0
N250 N 0.11295 0.66795 0.42632 0.0
N251 N 0.38472 0.71827 0.41968 0.0
C252 C 0.18066 0.67281 0.43009 0.0
C253 C 0.32012 0.69865 0.42642 0.0
N254 N 0.19049 0.76255 0.47561 0.0
N255 N 0.31508 0.58578 0.39725 0.0
H256 H 0.41301 0.7643 0.4298 0.0
H257 H 0.40856 0.69204 0.40164 0.0
H258 H 0.28959 0.53928 0.38595 0.0
H259 H 0.36646 0.5873 0.39957 0.0
H260 H 0.14188 0.74848 0.48198 0.0
H261 H 0.21731 0.80207 0.49194 0.0
H262 H 1.08705 0.7055 0.4363 0.0
H263 H 1.08276 0.63003 0.41044 0.0
C264 C 0.63193 0.26759 0.83953 0.0
C265 C 0.5835 0.29995 0.81924 0.0
C266 C 0.53917 0.18428 0.79273 0.0
C267 C 0.59574 0.15601 0.80721 0.0
N268 N 0.70074 0.17505 0.84213 0.0
N269 N 0.49616 0.2877 0.77192 0.0
C270 C 0.64317 0.19861 0.83031 0.0
C271 C 0.53769 0.25777 0.79494 0.0
N272 N 0.66617 0.30199 0.86827 0.0
N273 N 0.48705 0.14064 0.77632 0.0
H274 H 0.49574 0.34126 0.77073 0.0
H275 H 0.46696 0.2598 0.75139 0.0
H276 H 0.48661 0.08671 0.77461 0.0
H277 H 0.44203 0.15705 0.76789 0.0
H278 H 0.69809 0.27885 0.88557 0.0
H279 H 0.65672 0.35058 0.87712 0.0
H280 H 0.74046 0.20708 0.8555 0.0
H281 H 0.71086 0.12507 0.83627 0.0
C282 C 0.60377 0.76398 0.51034 0.0
C283 C 0.65712 0.81454 0.52462 0.0
C284 C 0.71555 0.71857 0.5463 0.0
C285 C 0.65765 0.6698 0.53785 0.0
N286 N 0.54335 0.64753 0.51427 0.0
N287 N 0.75943 0.83821 0.56226 0.0
C288 C 0.60094 0.69276 0.52022 0.0
C289 C 0.71237 0.79139 0.54384 0.0
N290 N 0.55672 0.78344 0.48653 0.0
N291 N 0.77368 0.69506 0.55722 0.0
H292 H 0.75733 0.89156 0.56362 0.0
H293 H 0.7967 0.8233 0.57951 0.0
H294 H 0.77744 0.64203 0.55913 0.0
H295 H 0.81906 0.72749 0.5607 0.0
H296 H 0.52002 0.74794 0.47296 0.0
H297 H 0.55854 0.83413 0.47754 0.0
H298 H 0.49825 0.66322 0.50541 0.0
H299 H 0.53972 0.595 0.52045 0.0
C300 C 1.02949 0.36516 0.80551 0.0
C301 C 0.96377 0.36547 0.79133 0.0
C302 C 0.98088 0.48959 0.78586 0.0
C303 C 1.03612 0.4922 0.81124 0.0
N304 N 0.13037 0.43592 0.83172 0.0
N305 N 0.9133 0.41546 0.74089 0.0
C306 C 1.06727 0.43088 0.8162 0.0
C307 C 0.9543 0.42348 0.77086 0.0
N308 N 1.04977 0.30292 0.81348 0.0
N309 N 0.95002 0.54642 0.77877 0.0
H310 H 0.89217 0.3658 0.73135 0.0
H311 H 0.90548 0.45715 0.72493 0.0
H312 H 0.96467 0.59475 0.79144 0.0
H313 H 0.90631 0.54327 0.76235 0.0
H314 H 1.09555 0.29767 0.82643 0.0
H315 H 1.01861 0.25629 0.8067 0.0
H316 H 0.15574 0.39337 0.8358 0.0
H317 H 0.1587 0.4841 0.83853 0.0
C318 C 0.42015 1.00547 0.18563 0.0
C319 C 0.40465 0.93178 0.18419 0.0
C320 C 0.51277 0.9213 0.21509 0.0
C321 C 0.52485 0.9949 0.22013 0.0
N322 N 0.48797 0.10737 0.2136 0.0
N323 N 0.42959 0.8197 0.19965 0.0
C324 C 0.47808 0.03721 0.20619 0.0
C325 C 0.44989 0.88973 0.19938 0.0
N326 N 0.38055 0.04481 0.16646 0.0
N327 N 0.56191 0.88224 0.22452 0.0
H328 H 0.45624 0.78391 0.21234 0.0
H329 H 0.45624 0.78391 0.21234 0.0
H330 H 0.60827 0.90391 0.23629 0.0
H331 H 0.55924 0.82949 0.21802 0.0
H332 H 0.39253 0.0983 0.16357 0.0
H333 H 0.33841 0.02284 0.15075 0.0
H334 H 0.45233 0.13984 0.20751 0.0
H335 H 0.53014 0.13259 0.22821 0.0
C336 C 0.69704 0.30441 0.51433 0.0
C337 C 0.64332 0.25537 0.52403 0.0
C338 C 0.58493 0.35356 0.53892 0.0
C339 C 0.64336 0.40131 0.53594 0.0
N340 N 0.75781 0.42131 0.52287 0.0
N341 N 0.53974 0.23549 0.5514 0.0
C342 C 0.70008 0.37662 0.52384 0.0
C343 C 0.58767 0.28047 0.53741 0.0
N344 N 0.74417 0.28244 0.49512 0.0
N345 N 0.52685 0.37841 0.54387 0.0
H346 H 0.5415 0.18223 0.55342 0.0
H347 H 0.50192 0.25212 0.56465 0.0
H348 H 0.52358 0.43172 0.54497 0.0
H349 H 0.48119 0.34652 0.54312 0.0
H350 H 0.7812 0.31647 0.48471 0.0
H351 H 0.74198 0.23083 0.48638 0.0
H352 H 0.8029 0.40479 0.51833 0.0
H353 H 0.76144 0.47452 0.5288 0.0
C354 C 0.26423 0.82106 0.83095 0.0
C355 C 0.29279 0.79497 0.80206 0.0
C356 C 0.20132 0.70752 0.78873 0.0
C357 C 0.17667 0.72061 0.82195 0.0
N358 N 0.16589 0.81389 0.86338 0.0
N359 N 0.25736 0.76562 0.74183 0.0
C360 C 0.2014 0.78613 0.83947 0.0
C361 C 0.24684 0.76056 0.77626 0.0
N362 N 0.30108 0.87126 0.85223 0.0
N363 N 0.1949 0.64292 0.77301 0.0
H364 H 0.29501 0.80226 0.73354 0.0
H365 H 0.22514 0.73738 0.72243 0.0
H366 H 0.18032 0.59709 0.7858 0.0
H367 H 0.21588 0.63459 0.74962 0.0
H368 H 0.28629 0.8875 0.87606 0.0
H369 H 0.34791 0.89395 0.8458 0.0
H370 H 0.181 0.8627 0.87552 0.0
H371 H 0.11826 0.79065 0.86809 0.0
C372 C 0.82741 0.23239 0.2127 0.0
C373 C 0.85793 0.19402 0.18827 0.0
C374 C 0.79147 0.08588 0.20485 0.0
C375 C 0.75553 0.12537 0.22605 0.0
N376 N 0.7319 0.23763 0.24574 0.0
N377 N 0.86192 0.08574 0.15694 0.0
C378 C 0.77158 0.19908 0.22886 0.0
C379 C 0.83818 0.12104 0.18327 0.0
N380 N 0.85295 0.30018 0.22121 0.0
N381 N 0.78211 1.01472 0.206 0.0
H382 H 0.89564 0.10966 0.14032 0.0
H383 H 0.84383 0.03417 0.14957 0.0
H384 H 0.74866 0.98719 0.22168 0.0
H385 H 0.81173 0.98336 0.19397 0.0
H386 H 0.83709 0.32858 0.24145 0.0
H387 H 0.89433 0.32615 0.21029 0.0
H388 H 0.73686 0.29184 0.24529 0.0
H389 H 0.69016 0.21536 0.25762 0.0
C390 C 0.16279 0.57489 -0.01257 0.0
C391 C 1.10437 0.58133 0.00432 0.0
C392 C 1.04827 0.60922 0.94822 0.0
C393 C 1.1045 0.59655 0.93085 0.0
N394 N 0.21156 0.55699 0.93285 0.0
N395 N 0.98782 0.59242 4e-05 0.0
C396 C 0.16083 0.57655 0.95017 0.0
C397 C 1.04609 0.59536 -0.01549 0.0
N398 N 0.22085 0.56983 0.00706 0.0
N399 N 0.99753 0.63623 0.9302 0.0
H400 H 0.98396 0.58109 0.02635 0.0
H401 H 0.94211 0.59473 -0.01376 0.0
H402 H 0.99714 0.64693 0.90361 0.0
H403 H 0.9586 0.65369 0.94215 0.0
H404 H 0.26663 0.5727 -0.00338 0.0
H405 H 0.22439 0.56874 0.03434 0.0
H406 H 0.25053 0.53453 0.94508 0.0
H407 H 0.21205 0.55798 0.90567 0.0
C408 C 0.63764 0.10239 0.39354 0.0
C409 C 0.65061 0.04013 0.41016 0.0
C410 C 0.66154 0.98541 0.35298 0.0
C411 C 0.65219 0.04897 0.33659 0.0
N412 N 0.63846 0.17039 0.34094 0.0
N413 N 0.68411 0.92587 0.407 0.0
C414 C 0.64263 0.10828 0.35684 0.0
C415 C 0.66477 0.98239 0.39021 0.0
N416 N 0.61735 0.15466 0.41262 0.0
N417 N 0.66665 0.9277 0.33286 0.0
H418 H 0.68682 0.92169 0.43415 0.0
H419 H 0.70225 0.8853 0.39445 0.0
H420 H 0.66875 0.92889 0.30578 0.0
H421 H 0.66515 0.87774 0.34259 0.0
H422 H 0.59995 0.19812 0.40166 0.0
H423 H 0.61266 0.1522 0.43945 0.0
H424 H 0.63995 0.21761 0.35455 0.0
H425 H 0.63768 0.17591 0.31391 0.0
C426 C 0.69065 0.50422 0.70562 0.0
C427 C 0.637 0.52952 0.72069 0.0
C428 C 0.58958 0.55514 0.66239 0.0
C429 C 0.64614 0.53586 0.64762 0.0
N430 N 0.75724 0.50622 0.65603 0.0
N431 N 0.54586 0.59695 0.71424 0.0
C432 C 0.69881 0.51464 0.66952 0.0
C433 C 0.5894 0.56017 0.69932 0.0
N434 N 0.73205 0.46757 0.72527 0.0
N435 N 0.53495 0.56619 0.64128 0.0
H436 H 0.54656 0.60532 0.74122 0.0
H437 H 0.51431 0.62578 0.69979 0.0
H438 H 0.53227 0.56155 0.61404 0.0
H439 H 0.49002 0.57326 0.65095 0.0
H440 H 0.76766 0.44172 0.71471 0.0
H441 H 0.72675 0.45739 0.75156 0.0
H442 H 0.79959 0.49763 0.67148 0.0
H443 H 0.76541 0.51446 0.62982 0.0
C444 C 0.59229 0.9886 0.64078 0.0
C445 C 0.647 0.03019 0.62743 0.0
C446 C 0.69549 0.06044 0.6873 0.0
C447 C 0.63721 0.02544 0.70043 0.0
N448 N 0.52521 0.96587 0.68968 0.0
N449 N 0.74566 0.11475 0.6376 0.0
C450 C 0.58418 0.99211 0.67717 0.0
C451 C 0.6975 0.06842 0.65058 0.0
N452 N 0.54951 0.94355 0.61892 0.0
N453 N 0.74941 0.08469 0.70989 0.0
H454 H 0.74822 0.12299 0.6109 0.0
H455 H 0.77952 0.14955 0.65334 0.0
H456 H 0.7497 0.07971 0.73696 0.0
H457 H 0.79561 0.10414 0.70167 0.0
H458 H 0.51285 0.90676 0.62778 0.0
H459 H 0.55474 0.93799 0.59224 0.0
H460 H 0.48247 0.94806 0.67352 0.0
H461 H 0.51715 0.9674 0.71619 0.0
C462 C 0.58652 0.5986 0.95403 0.0
C463 C 0.57934 0.53357 0.93553 0.0
C464 C 0.57457 0.47102 -0.00955 0.0
C465 C 0.58062 0.53604 0.00878 0.0
N466 N 0.58128 0.66072 0.00894 0.0
N467 N 0.55863 0.40771 0.93452 0.0
C468 C 0.58298 0.59958 -0.0092 0.0
C469 C 0.57036 0.4696 0.95326 0.0
N470 N 0.59875 0.65936 0.9365 0.0
N471 N 0.57527 0.4111 0.00879 0.0
H472 H 0.55888 0.40428 0.90736 0.0
H473 H 0.54486 0.35962 0.94544 0.0
H474 H 0.57587 0.41022 0.03602 0.0
H475 H 0.57877 0.3627 -0.00251 0.0
H476 H 0.61271 0.70812 0.94878 0.0
H477 H 0.59877 0.66092 0.90935 0.0
H478 H 0.57508 0.70754 -0.00293 0.0
H479 H 0.58137 0.66411 0.03612 0.0
C480 C 1.10889 0.60276 0.24705 0.0
C481 C 1.10083 0.54417 0.22349 0.0
C482 C 1.1078 0.46811 0.27348 0.0
C483 C 1.10718 0.52584 0.29677 0.0
N484 N 1.08168 0.64358 0.30309 0.0
N485 N 1.06728 0.41932 0.21622 0.0
C486 C 1.09918 0.59174 0.28272 0.0
C487 C 1.09237 0.47609 0.23721 0.0
N488 N 0.13051 0.66828 0.23646 0.0
N489 N 0.1263 0.40698 0.28525 0.0
H490 H 1.04883 0.42357 0.19028 0.0
H491 H 1.0565 0.36949 0.22602 0.0
H492 H 0.14347 0.40029 0.31114 0.0
H493 H 0.1319 0.36591 0.26829 0.0
H494 H 0.14098 0.71113 0.25386 0.0
H495 H 0.14711 0.67811 0.21185 0.0
H496 H 1.07122 0.69082 0.2929 0.0
H497 H 1.07003 0.63608 0.32889 0.0
loop_
_geom_bond_atom_site_label_1
_geom_bond_atom_site_label_2
_geom_bond_distance
_geom_bond_site_symmetry_2
_ccdc_geom_bond_type
Dy0 O3 2.307 1_455 S
Dy0 O5 2.395 . S
Dy0 O6 2.379 . S
Dy0 O8 2.339 . S
Dy0 O10 2.298 . S
Dy0 O14 2.275 . S
Dy0 C22 2.738 . S
Dy1 O4 2.298 . S
Dy1 O7 2.275 . S
Dy1 O9 2.307 1_655 S
Dy1 O11 2.395 . S
Dy1 O12 2.379 . S
Dy1 O15 2.339 . S
Dy1 C31 2.738 . S
C2 O14 1.254 . S
C2 O15 1.257 1_455 S
O3 Dy0 2.307 1_655 S
O3 C13 1.266 . S
O4 Dy1 2.298 . S
O4 C13 1.236 . S
O5 Dy0 2.395 . S
O5 C22 1.255 . S
O6 Dy0 2.379 . S
O6 C22 1.249 . S
O7 Dy1 2.275 . S
O7 C23 1.254 1_655 S
O8 Dy0 2.339 . S
O8 C23 1.257 . S
O9 Dy1 2.307 1_455 S
O9 C24 1.266 . S
O10 Dy0 2.298 . S
O10 C24 1.236 . S
O11 Dy1 2.395 . S
O11 C31 1.255 . S
O12 Dy1 2.379 . S
O12 C31 1.249 . S
C13 O3 1.266 . S
C13 O4 1.236 . S
O14 Dy0 2.275 . S
O14 C2 1.254 . S
O15 Dy1 2.339 . S
O15 C2 1.257 1_655 S
C16 C19 1.344 . S
C16 C20 1.328 . S
C16 C22 1.516 . S
C17 C18 1.304 . S
C17 C21 1.323 . S
C18 C17 1.304 . S
C18 C19 1.371 . S
C18 H32 0.930 . S
C19 C16 1.344 . S
C19 C18 1.371 . S
C19 H33 0.931 . S
C20 C16 1.328 . S
C20 C21 1.433 . S
C20 H34 0.931 . S
C21 C17 1.323 . S
C21 C20 1.433 . S
C21 H35 0.933 . S
C22 Dy0 2.738 . S
C22 O5 1.255 . S
C22 O6 1.249 . S
C22 C16 1.516 . S
C23 O7 1.254 1_455 S
C23 O8 1.257 . S
C24 O9 1.266 . S
C24 O10 1.236 . S
C25 C28 1.344 . S
C25 C29 1.328 . S
C25 C31 1.516 . S
C26 C27 1.304 . S
C26 C30 1.323 . S
C27 C26 1.304 . S
C27 C28 1.371 . S
C27 H36 0.930 . S
C28 C25 1.344 . S
C28 C27 1.371 . S
C28 H37 0.931 . S
C29 C25 1.328 . S
C29 C30 1.433 . S
C29 H38 0.931 . S
C30 C26 1.323 . S
C30 C29 1.433 . S
C30 H39 0.933 . S
C31 Dy1 2.738 . S
C31 O11 1.255 . S
C31 O12 1.249 . S
C31 C25 1.516 . S
H32 C18 0.930 . S
H33 C19 0.931 . S
H34 C20 0.931 . S
H35 C21 0.933 . S
H36 C27 0.930 . S
H37 C28 0.931 . S
H38 C29 0.931 . S
H39 C30 0.933 . S
Dy40 O43 2.307 1_565 S
Dy40 O45 2.395 . S
Dy40 O46 2.379 . S
Dy40 O48 2.339 . S
Dy40 O50 2.298 . S
Dy40 O54 2.275 1_565 S
Dy40 C62 2.738 . S
Dy41 O44 2.298 . S
Dy41 O47 2.275 . S
Dy41 O49 2.307 1_545 S
Dy41 O51 2.395 . S
Dy41 O52 2.379 . S
Dy41 O55 2.339 . S
Dy41 C71 2.738 . S
C42 O54 1.254 . S
C42 O55 1.257 . S
O43 Dy40 2.307 1_545 S
O43 C53 1.266 . S
O44 Dy41 2.298 . S
O44 C53 1.236 . S
O45 Dy40 2.395 . S
O45 C62 1.255 . S
O46 Dy40 2.379 . S
O46 C62 1.249 . S
O47 Dy41 2.275 . S
O47 C63 1.254 . S
O48 Dy40 2.339 . S
O48 C63 1.257 1_565 S
O49 Dy41 2.307 1_565 S
O49 C64 1.266 . S
O50 Dy40 2.298 . S
O50 C64 1.236 . S
O51 Dy41 2.395 . S
O51 C71 1.255 . S
O52 Dy41 2.379 . S
O52 C71 1.249 . S
C53 O43 1.266 . S
C53 O44 1.236 . S
O54 Dy40 2.275 1_545 S
O54 C42 1.254 . S
O55 Dy41 2.339 . S
O55 C42 1.257 . S
C56 C59 1.344 . S
C56 C60 1.328 . S
C56 C62 1.516 . S
C57 C58 1.304 . S
C57 C61 1.323 . S
C58 C57 1.304 . S
C58 C59 1.371 . S
C58 H72 0.930 . S
C59 C56 1.344 . S
C59 C58 1.371 . S
C59 H73 0.931 . S
C60 C56 1.328 . S
C60 C61 1.433 . S
C60 H74 0.931 . S
C61 C57 1.323 . S
C61 C60 1.433 . S
C61 H75 0.933 . S
C62 Dy40 2.738 . S
C62 O45 1.255 . S
C62 O46 1.249 . S
C62 C56 1.516 . S
C63 O47 1.254 . S
C63 O48 1.257 1_545 S
C64 O49 1.266 . S
C64 O50 1.236 . S
C65 C68 1.344 . S
C65 C69 1.328 . S
C65 C71 1.516 . S
C66 C67 1.304 . S
C66 C70 1.323 . S
C67 C66 1.304 . S
C67 C68 1.371 . S
C67 H76 0.930 . S
C68 C65 1.344 . S
C68 C67 1.371 . S
C68 H77 0.931 . S
C69 C65 1.328 . S
C69 C70 1.433 . S
C69 H78 0.931 . S
C70 C66 1.323 . S
C70 C69 1.433 . S
C70 H79 0.933 . S
C71 Dy41 2.738 . S
C71 O51 1.255 . S
C71 O52 1.249 . S
C71 C65 1.516 . S
H72 C58 0.930 . S
H73 C59 0.931 . S
H74 C60 0.931 . S
H75 C61 0.933 . S
H76 C67 0.930 . S
H77 C68 0.931 . S
H78 C69 0.931 . S
H79 C70 0.933 . S
Dy80 O83 2.307 . S
Dy80 O85 2.395 . S
Dy80 O86 2.379 . S
Dy80 O88 2.339 . S
Dy80 O90 2.298 . S
Dy80 O94 2.275 . S
Dy80 C102 2.738 . S
Dy81 O84 2.298 . S
Dy81 O87 2.275 . S
Dy81 O89 2.307 . S
Dy81 O91 2.395 . S
Dy81 O92 2.379 . S
Dy81 O95 2.339 . S
Dy81 C111 2.738 . S
C82 O94 1.254 . S
C82 O95 1.257 . S
O83 Dy80 2.307 . S
O83 C93 1.266 . S
O84 Dy81 2.298 . S
O84 C93 1.236 . S
O85 Dy80 2.395 . S
O85 C102 1.255 . S
O86 Dy80 2.379 . S
O86 C102 1.249 . S
O87 Dy81 2.275 . S
O87 C103 1.254 . S
O88 Dy80 2.339 . S
O88 C103 1.257 . S
O89 Dy81 2.307 . S
O89 C104 1.266 . S
O90 Dy80 2.298 . S
O90 C104 1.236 . S
O91 Dy81 2.395 . S
O91 C111 1.255 . S
O92 Dy81 2.379 . S
O92 C111 1.249 . S
C93 O83 1.266 . S
C93 O84 1.236 . S
O94 Dy80 2.275 . S
O94 C82 1.254 . S
O95 Dy81 2.339 . S
O95 C82 1.257 . S
C96 C99 1.344 . S
C96 C100 1.328 . S
C96 C102 1.516 . S
C97 C98 1.304 . S
C97 C101 1.323 . S
C98 C97 1.304 . S
C98 C99 1.371 . S
C98 H112 0.930 . S
C99 C96 1.344 . S
C99 C98 1.371 . S
C99 H113 0.931 . S
C100 C96 1.328 . S
C100 C101 1.433 . S
C100 H114 0.931 . S
C101 C97 1.323 . S
C101 C100 1.433 . S
C101 H115 0.933 . S
C102 Dy80 2.738 . S
C102 O85 1.255 . S
C102 O86 1.249 . S
C102 C96 1.516 . S
C103 O87 1.254 . S
C103 O88 1.257 . S
C104 O89 1.266 . S
C104 O90 1.236 . S
C105 C108 1.344 . S
C105 C109 1.328 . S
C105 C111 1.516 . S
C106 C107 1.304 . S
C106 C110 1.323 . S
C107 C106 1.304 . S
C107 C108 1.371 . S
C107 H116 0.930 . S
C108 C105 1.344 . S
C108 C107 1.371 . S
C108 H117 0.931 . S
C109 C105 1.328 . S
C109 C110 1.433 . S
C109 H118 0.931 . S
C110 C106 1.323 . S
C110 C109 1.433 . S
C110 H119 0.933 . S
C111 Dy81 2.738 . S
C111 O91 1.255 . S
C111 O92 1.249 . S
C111 C105 1.516 . S
H112 C98 0.930 . S
H113 C99 0.931 . S
H114 C100 0.931 . S
H115 C101 0.933 . S
H116 C107 0.930 . S
H117 C108 0.931 . S
H118 C109 0.931 . S
H119 C110 0.933 . S
H120 C123 0.931 1_565 S
H121 C126 0.928 . S
H122 C128 0.930 . S
C123 H120 0.931 1_545 S
C123 C124 1.413 . S
C123 C125 1.360 . S
C124 C123 1.413 . S
C124 C128 1.429 . S
C125 C123 1.360 . S
C125 C126 1.372 . S
C126 H121 0.928 . S
C126 C125 1.372 . S
C126 C127 1.404 . S
C127 C126 1.404 . S
C127 C128 1.391 . S
C128 H122 0.930 . S
C128 C124 1.429 . S
C128 C127 1.391 . S
H129 C132 0.931 . S
H130 C135 0.928 . S
H131 C137 0.930 . S
C132 H129 0.931 . S
C132 C133 1.413 . S
C132 C134 1.360 . S
C133 C132 1.413 . S
C133 C137 1.429 . S
C134 C132 1.360 . S
C134 C135 1.372 . S
C135 H130 0.928 . S
C135 C134 1.372 . S
C135 C136 1.404 . S
C136 C135 1.404 . S
C136 C137 1.391 . S
C137 H131 0.930 . S
C137 C133 1.429 . S
C137 C136 1.391 . S
H138 C141 0.931 . S
H139 C144 0.928 . S
H140 C146 0.930 . S
C141 H138 0.931 . S
C141 C142 1.413 . S
C141 C143 1.360 1_655 S
C142 C141 1.413 . S
C142 C146 1.429 1_655 S
C143 C141 1.360 1_455 S
C143 C144 1.372 . S
C144 H139 0.928 . S
C144 C143 1.372 . S
C144 C145 1.404 . S
C145 C144 1.404 . S
C145 C146 1.391 . S
C146 H140 0.930 . S
C146 C142 1.429 1_455 S
C146 C145 1.391 . S
H147 C150 0.931 . S
H148 C153 0.928 . S
H149 C155 0.930 . S
C150 H147 0.931 . S
C150 C151 1.413 . S
C150 C152 1.360 1_655 S
C151 C150 1.413 . S
C151 C155 1.429 1_655 S
C152 C150 1.360 1_455 S
C152 C153 1.372 . S
C153 H148 0.928 . S
C153 C152 1.372 . S
C153 C154 1.404 . S
C154 C153 1.404 . S
C154 C155 1.391 . S
C155 H149 0.930 . S
C155 C151 1.429 1_455 S
C155 C154 1.391 . S
H156 C159 0.931 . S
H157 C162 0.928 . S
H158 C164 0.930 . S
C159 H156 0.931 . S
C159 C160 1.413 . S
C159 C161 1.360 . S
C160 C159 1.413 . S
C160 C164 1.439 . S
C161 C159 1.360 . S
C161 C162 1.372 1_545 S
C162 H157 0.928 . S
C162 C161 1.372 1_565 S
C162 C163 1.404 . S
C163 C162 1.404 . S
C163 C164 1.381 1_565 S
C164 H158 0.930 . S
C164 C160 1.439 . S
C164 C163 1.381 1_545 S
H165 C168 0.931 . S
H166 C171 0.928 . S
H167 C173 0.930 . S
C168 H165 0.931 . S
C168 C169 1.413 . S
C168 C170 1.360 . S
C169 C168 1.413 . S
C169 C173 1.429 . S
C170 C168 1.360 . S
C170 C171 1.372 . S
C171 H166 0.928 . S
C171 C170 1.372 . S
C171 C172 1.404 . S
C172 C171 1.404 . S
C172 C173 1.391 . S
C173 H167 0.930 . S
C173 C169 1.429 . S
C173 C172 1.391 . S
C174 C175 1.363 . S
C174 C180 1.379 . S
C174 N182 1.356 . S
C175 C174 1.363 . S
C175 C181 1.363 . S
C176 C177 1.363 . S
C176 C181 1.379 . S
C176 N183 1.356 . S
C177 C176 1.363 . S
C177 C180 1.363 . S
N178 C180 1.356 . S
N178 H190 0.984 . S
N178 H191 0.985 . S
N179 C181 1.356 . S
N179 H184 0.984 . S
N179 H185 0.985 . S
C180 C174 1.379 . S
C180 C177 1.363 . S
C180 N178 1.356 . S
C181 C175 1.363 . S
C181 C176 1.379 . S
C181 N179 1.356 . S
N182 C174 1.356 . S
N182 H188 0.984 . S
N182 H189 0.984 . S
N183 C176 1.356 . S
N183 H186 0.984 . S
N183 H187 0.985 . S
H184 N179 0.984 . S
H185 N179 0.985 . S
H186 N183 0.984 . S
H187 N183 0.985 . S
H188 N182 0.984 . S
H189 N182 0.984 . S
H190 N178 0.984 . S
H191 N178 0.985 . S
C192 C193 1.363 . S
C192 C198 1.379 . S
C192 N200 1.356 . S
C193 C192 1.363 . S
C193 C199 1.363 . S
C194 C195 1.363 . S
C194 C199 1.379 . S
C194 N201 1.356 . S
C195 C194 1.363 . S
C195 C198 1.363 . S
N196 C198 1.356 . S
N196 H208 0.984 . S
N196 H209 0.985 . S
N197 C199 1.356 . S
N197 H202 0.984 . S
N197 H203 0.985 . S
C198 C192 1.379 . S
C198 C195 1.363 . S
C198 N196 1.356 . S
C199 C193 1.363 . S
C199 C194 1.379 . S
C199 N197 1.356 . S
N200 C192 1.356 . S
N200 H206 0.984 . S
N200 H207 0.984 . S
N201 C194 1.356 . S
N201 H204 0.984 . S
N201 H205 0.985 . S
H202 N197 0.984 . S
H203 N197 0.985 . S
H204 N201 0.984 . S
H205 N201 0.985 . S
H206 N200 0.984 . S
H207 N200 0.984 . S
H208 N196 0.984 . S
H209 N196 0.985 . S
C210 C211 1.363 . S
C210 C216 1.379 . S
C210 N218 1.356 . S
C211 C210 1.363 . S
C211 C217 1.363 . S
C212 C213 1.363 . S
C212 C217 1.379 . S
C212 N219 1.356 . S
C213 C212 1.363 . S
C213 C216 1.363 . S
N214 C216 1.356 . S
N214 H226 0.984 . S
N214 H227 0.985 . S
N215 C217 1.356 . S
N215 H220 0.984 . S
N215 H221 0.985 . S
C216 C210 1.379 . S
C216 C213 1.363 . S
C216 N214 1.356 . S
C217 C211 1.363 . S
C217 C212 1.379 . S
C217 N215 1.356 . S
N218 C210 1.356 . S
N218 H224 0.984 . S
N218 H225 0.984 . S
N219 C212 1.356 . S
N219 H222 0.984 . S
N219 H223 0.985 . S
H220 N215 0.984 . S
H221 N215 0.985 . S
H222 N219 0.984 . S
H223 N219 0.985 . S
H224 N218 0.984 . S
H225 N218 0.984 . S
H226 N214 0.984 . S
H227 N214 0.985 . S
C228 C229 1.363 . S
C228 C234 1.379 . S
C228 N236 1.356 . S
C229 C228 1.363 . S
C229 C235 1.363 . S
C230 C231 1.363 . S
C230 C235 1.379 . S
C230 N237 1.356 . S
C231 C230 1.363 . S
C231 C234 1.363 . S
N232 C234 1.356 . S
N232 H244 0.984 . S
N232 H245 0.985 . S
N233 C235 1.356 . S
N233 H238 0.984 . S
N233 H239 0.985 . S
C234 C228 1.379 . S
C234 C231 1.363 . S
C234 N232 1.356 . S
C235 C229 1.363 . S
C235 C230 1.379 . S
C235 N233 1.356 . S
N236 C228 1.356 . S
N236 H242 0.984 . S
N236 H243 0.984 . S
N237 C230 1.356 . S
N237 H240 0.984 . S
N237 H241 0.985 . S
H238 N233 0.984 . S
H239 N233 0.985 . S
H240 N237 0.984 . S
H241 N237 0.985 . S
H242 N236 0.984 . S
H243 N236 0.984 . S
H244 N232 0.984 . S
H245 N232 0.985 . S
C246 C247 1.363 . S
C246 C252 1.379 . S
C246 N254 1.356 . S
C247 C246 1.363 . S
C247 C253 1.363 . S
C248 C249 1.363 . S
C248 C253 1.379 . S
C248 N255 1.356 . S
C249 C248 1.363 . S
C249 C252 1.363 . S
N250 C252 1.356 . S
N250 H262 0.984 . S
N250 H263 0.985 . S
N251 C253 1.356 . S
N251 H256 0.984 . S
N251 H257 0.985 . S
C252 C246 1.379 . S
C252 C249 1.363 . S
C252 N250 1.356 . S
C253 C247 1.363 . S
C253 C248 1.379 . S
C253 N251 1.356 . S
N254 C246 1.356 . S
N254 H260 0.984 . S
N254 H261 0.984 . S
N255 C248 1.356 . S
N255 H258 0.984 . S
N255 H259 0.985 . S
H256 N251 0.984 . S
H257 N251 0.985 . S
H258 N255 0.984 . S
H259 N255 0.985 . S
H260 N254 0.984 . S
H261 N254 0.984 . S
H262 N250 0.984 . S
H263 N250 0.985 . S
C264 C265 1.363 . S
C264 C270 1.379 . S
C264 N272 1.356 . S
C265 C264 1.363 . S
C265 C271 1.363 . S
C266 C267 1.363 . S
C266 C271 1.379 . S
C266 N273 1.356 . S
C267 C266 1.363 . S
C267 C270 1.363 . S
N268 C270 1.356 . S
N268 H280 0.984 . S
N268 H281 0.985 . S
N269 C271 1.356 . S
N269 H274 0.984 . S
N269 H275 0.985 . S
C270 C264 1.379 . S
C270 C267 1.363 . S
C270 N268 1.356 . S
C271 C265 1.363 . S
C271 C266 1.379 . S
C271 N269 1.356 . S
N272 C264 1.356 . S
N272 H278 0.984 . S
N272 H279 0.984 . S
N273 C266 1.356 . S
N273 H276 0.984 . S
N273 H277 0.985 . S
H274 N269 0.984 . S
H275 N269 0.985 . S
H276 N273 0.984 . S
H277 N273 0.985 . S
H278 N272 0.984 . S
H279 N272 0.984 . S
H280 N268 0.984 . S
H281 N268 0.985 . S
C282 C283 1.363 . S
C282 C288 1.379 . S
C282 N290 1.356 . S
C283 C282 1.363 . S
C283 C289 1.363 . S
C284 C285 1.363 . S
C284 C289 1.379 . S
C284 N291 1.356 . S
C285 C284 1.363 . S
C285 C288 1.363 . S
N286 C288 1.356 . S
N286 H298 0.984 . S
N286 H299 0.985 . S
N287 C289 1.356 . S
N287 H292 0.984 . S
N287 H293 0.985 . S
C288 C282 1.379 . S
C288 C285 1.363 . S
C288 N286 1.356 . S
C289 C283 1.363 . S
C289 C284 1.379 . S
C289 N287 1.356 . S
N290 C282 1.356 . S
N290 H296 0.984 . S
N290 H297 0.984 . S
N291 C284 1.356 . S
N291 H294 0.984 . S
N291 H295 0.985 . S
H292 N287 0.984 . S
H293 N287 0.985 . S
H294 N291 0.984 . S
H295 N291 0.985 . S
H296 N290 0.984 . S
H297 N290 0.984 . S
H298 N286 0.984 . S
H299 N286 0.985 . S
C300 C301 1.363 . S
C300 C306 1.379 . S
C300 N308 1.356 . S
C301 C300 1.363 . S
C301 C307 1.363 . S
C302 C303 1.363 . S
C302 C307 1.379 . S
C302 N309 1.356 . S
C303 C302 1.363 . S
C303 C306 1.363 . S
N304 C306 1.356 . S
N304 H316 0.984 . S
N304 H317 0.985 . S
N305 C307 1.356 . S
N305 H310 0.984 . S
N305 H311 0.985 . S
C306 C300 1.379 . S
C306 C303 1.363 . S
C306 N304 1.356 . S
C307 C301 1.363 . S
C307 C302 1.379 . S
C307 N305 1.356 . S
N308 C300 1.356 . S
N308 H314 0.984 . S
N308 H315 0.984 . S
N309 C302 1.356 . S
N309 H312 0.984 1_655 S
N309 H313 0.985 1_655 S
H310 N305 0.984 . S
H311 N305 0.985 . S
H312 N309 0.984 1_455 S
H313 N309 0.985 1_455 S
H314 N308 0.984 . S
H315 N308 0.984 . S
H316 N304 0.984 . S
H317 N304 0.985 . S
C318 C319 1.363 . S
C318 C324 1.379 . S
C318 N326 1.356 . S
C319 C318 1.363 . S
C319 C325 1.363 . S
C320 C321 1.363 . S
C320 C325 1.379 . S
C320 N327 1.356 . S
C321 C320 1.363 . S
C321 C324 1.363 . S
N322 C324 1.356 1_545 S
N322 H334 0.984 . S
N322 H335 0.985 . S
N323 C325 1.356 . S
N323 H328 0.984 . S
N323 H329 0.985 . S
C324 C318 1.379 . S
C324 C321 1.363 . S
C324 N322 1.356 1_565 S
C325 C319 1.363 . S
C325 C320 1.379 . S
C325 N323 1.356 . S
N326 C318 1.356 . S
N326 H332 0.984 . S
N326 H333 0.984 . S
N327 C320 1.356 . S
N327 H330 0.984 . S
N327 H331 0.985 . S
H328 N323 0.984 . S
H329 N323 0.985 . S
H330 N327 0.984 . S
H331 N327 0.985 . S
H332 N326 0.984 . S
H333 N326 0.984 . S
H334 N322 0.984 . S
H335 N322 0.985 . S
C336 C337 1.363 . S
C336 C342 1.379 . S
C336 N344 1.356 . S
C337 C336 1.363 . S
C337 C343 1.363 . S
C338 C339 1.363 . S
C338 C343 1.379 . S
C338 N345 1.356 . S
C339 C338 1.363 . S
C339 C342 1.363 . S
N340 C342 1.356 . S
N340 H352 0.984 . S
N340 H353 0.985 . S
N341 C343 1.356 . S
N341 H346 0.984 . S
N341 H347 0.985 . S
C342 C336 1.379 . S
C342 C339 1.363 . S
C342 N340 1.356 . S
C343 C337 1.363 . S
C343 C338 1.379 . S
C343 N341 1.356 . S
N344 C336 1.356 . S
N344 H350 0.984 . S
N344 H351 0.984 . S
N345 C338 1.356 . S
N345 H348 0.984 . S
N345 H349 0.985 . S
H346 N341 0.984 . S
H347 N341 0.985 . S
H348 N345 0.984 . S
H349 N345 0.985 . S
H350 N344 0.984 . S
H351 N344 0.984 . S
H352 N340 0.984 . S
H353 N340 0.985 . S
C354 C355 1.363 . S
C354 C360 1.379 . S
C354 N362 1.356 . S
C355 C354 1.363 . S
C355 C361 1.363 . S
C356 C357 1.363 . S
C356 C361 1.379 . S
C356 N363 1.356 . S
C357 C356 1.363 . S
C357 C360 1.363 . S
N358 C360 1.356 . S
N358 H370 0.984 . S
N358 H371 0.985 . S
N359 C361 1.356 . S
N359 H364 0.984 . S
N359 H365 0.985 . S
C360 C354 1.379 . S
C360 C357 1.363 . S
C360 N358 1.356 . S
C361 C355 1.363 . S
C361 C356 1.379 . S
C361 N359 1.356 . S
N362 C354 1.356 . S
N362 H368 0.984 . S
N362 H369 0.984 . S
N363 C356 1.356 . S
N363 H366 0.984 . S
N363 H367 0.985 1_455 S
H364 N359 0.984 . S
H365 N359 0.985 . S
H366 N363 0.984 . S
H367 N363 0.985 1_655 S
H368 N362 0.984 . S
H369 N362 0.984 . S
H370 N358 0.984 . S
H371 N358 0.985 . S
C372 C373 1.363 . S
C372 C378 1.379 . S
C372 N380 1.356 . S
C373 C372 1.363 . S
C373 C379 1.363 . S
C374 C375 1.363 . S
C374 C379 1.379 . S
C374 N381 1.356 . S
C375 C374 1.363 . S
C375 C378 1.363 . S
N376 C378 1.356 . S
N376 H388 0.984 . S
N376 H389 0.985 . S
N377 C379 1.356 . S
N377 H382 0.984 . S
N377 H383 0.985 . S
C378 C372 1.379 . S
C378 C375 1.363 . S
C378 N376 1.356 . S
C379 C373 1.363 . S
C379 C374 1.379 . S
C379 N377 1.356 . S
N380 C372 1.356 . S
N380 H386 0.984 . S
N380 H387 0.984 . S
N381 C374 1.356 . S
N381 H384 0.984 . S
N381 H385 0.985 . S
H382 N377 0.984 . S
H383 N377 0.985 . S
H384 N381 0.984 . S
H385 N381 0.985 . S
H386 N380 0.984 . S
H387 N380 0.984 . S
H388 N376 0.984 . S
H389 N376 0.985 . S
C390 C391 1.363 . S
C390 C396 1.377 . S
C390 N398 1.356 . S
C391 C390 1.363 . S
C391 C397 1.363 . S
C392 C393 1.363 1_554 S
C392 C397 1.379 . S
C392 N399 1.356 1_554 S
C393 C392 1.363 1_556 S
C393 C396 1.364 1_556 S
N394 C396 1.358 1_556 S
N394 H406 0.984 . S
N394 H407 0.985 . S
N395 C397 1.356 1_655 S
N395 H400 0.984 . S
N395 H401 0.985 . S
C396 C390 1.377 . S
C396 C393 1.364 1_554 S
C396 N394 1.358 1_554 S
C397 C391 1.363 . S
C397 C392 1.379 . S
C397 N395 1.356 1_455 S
N398 C390 1.356 . S
N398 H404 0.984 . S
N398 H405 0.984 . S
N399 C392 1.356 1_556 S
N399 H402 0.984 . S
N399 H403 0.985 1_556 S
H400 N395 0.984 . S
H401 N395 0.985 . S
H402 N399 0.984 . S
H403 N399 0.985 1_554 S
H404 N398 0.984 . S
H405 N398 0.984 . S
H406 N394 0.984 . S
H407 N394 0.985 . S
C408 C409 1.363 . S
C408 C414 1.379 . S
C408 N416 1.356 . S
C409 C408 1.363 . S
C409 C415 1.363 1_545 S
C410 C411 1.363 1_565 S
C410 C415 1.379 . S
C410 N417 1.356 . S
C411 C410 1.363 1_545 S
C411 C414 1.363 . S
N412 C414 1.356 . S
N412 H424 0.984 . S
N412 H425 0.985 . S
N413 C415 1.356 . S
N413 H418 0.984 . S
N413 H419 0.985 . S
C414 C408 1.379 . S
C414 C411 1.363 . S
C414 N412 1.356 . S
C415 C409 1.363 1_565 S
C415 C410 1.379 . S
C415 N413 1.356 . S
N416 C408 1.356 . S
N416 H422 0.984 . S
N416 H423 0.984 . S
N417 C410 1.356 . S
N417 H420 0.984 . S
N417 H421 0.985 . S
H418 N413 0.984 . S
H419 N413 0.985 . S
H420 N417 0.984 . S
H421 N417 0.985 . S
H422 N416 0.984 . S
H423 N416 0.984 . S
H424 N412 0.984 . S
H425 N412 0.985 . S
C426 C427 1.363 . S
C426 C432 1.379 . S
C426 N434 1.356 . S
C427 C426 1.363 . S
C427 C433 1.363 . S
C428 C429 1.363 . S
C428 C433 1.379 . S
C428 N435 1.356 . S
C429 C428 1.363 . S
C429 C432 1.363 . S
N430 C432 1.356 . S
N430 H442 0.984 . S
N430 H443 0.985 . S
N431 C433 1.356 . S
N431 H436 0.984 . S
N431 H437 0.985 . S
C432 C426 1.379 . S
C432 C429 1.363 . S
C432 N430 1.356 . S
C433 C427 1.363 . S
C433 C428 1.379 . S
C433 N431 1.356 . S
N434 C426 1.356 . S
N434 H440 0.984 . S
N434 H441 0.984 . S
N435 C428 1.356 . S
N435 H438 0.984 . S
N435 H439 0.985 . S
H436 N431 0.984 . S
H437 N431 0.985 . S
H438 N435 0.984 . S
H439 N435 0.985 . S
H440 N434 0.984 . S
H441 N434 0.984 . S
H442 N430 0.984 . S
H443 N430 0.985 . S
C444 C445 1.360 1_565 S
C444 C450 1.379 . S
C444 N452 1.356 . S
C445 C444 1.360 1_545 S
C445 C451 1.367 . S
C446 C447 1.363 . S
C446 C451 1.379 . S
C446 N453 1.356 . S
C447 C446 1.363 . S
C447 C450 1.363 1_545 S
N448 C450 1.356 . S
N448 H460 0.984 . S
N448 H461 0.985 . S
N449 C451 1.356 . S
N449 H454 0.984 . S
N449 H455 0.985 . S
C450 C444 1.379 . S
C450 C447 1.363 1_565 S
C450 N448 1.356 . S
C451 C445 1.367 . S
C451 C446 1.379 . S
C451 N449 1.356 . S
N452 C444 1.356 . S
N452 H458 0.984 . S
N452 H459 0.984 . S
N453 C446 1.356 . S
N453 H456 0.984 . S
N453 H457 0.985 . S
H454 N449 0.984 . S
H455 N449 0.985 . S
H456 N453 0.984 . S
H457 N453 0.985 . S
H458 N452 0.984 . S
H459 N452 0.984 . S
H460 N448 0.984 . S
H461 N448 0.985 . S
C462 C463 1.363 . S
C462 C468 1.379 . S
C462 N470 1.356 . S
C463 C462 1.363 . S
C463 C469 1.363 . S
C464 C465 1.363 1_556 S
C464 C469 1.379 . S
C464 N471 1.356 1_556 S
C465 C464 1.363 1_554 S
C465 C468 1.363 1_554 S
N466 C468 1.356 1_554 S
N466 H478 0.984 . S
N466 H479 0.985 . S
N467 C469 1.356 . S
N467 H472 0.984 . S
N467 H473 0.985 . S
C468 C462 1.379 . S
C468 C465 1.363 1_556 S
C468 N466 1.356 1_556 S
C469 C463 1.363 . S
C469 C464 1.379 . S
C469 N467 1.356 . S
N470 C462 1.356 . S
N470 H476 0.984 . S
N470 H477 0.984 . S
N471 C464 1.356 1_554 S
N471 H474 0.984 . S
N471 H475 0.985 . S
H472 N467 0.984 . S
H473 N467 0.985 . S
H474 N471 0.984 . S
H475 N471 0.985 . S
H476 N470 0.984 . S
H477 N470 0.984 . S
H478 N466 0.984 . S
H479 N466 0.985 . S
C480 C481 1.364 1_455 S
C480 C486 1.379 . S
C480 N488 1.356 . S
C481 C480 1.364 1_655 S
C481 C487 1.362 . S
C482 C483 1.364 . S
C482 C487 1.379 . S
C482 N489 1.356 . S
C483 C482 1.364 . S
C483 C486 1.361 1_655 S
N484 C486 1.356 . S
N484 H496 0.984 . S
N484 H497 0.985 . S
N485 C487 1.356 . S
N485 H490 0.984 . S
N485 H491 0.985 . S
C486 C480 1.379 . S
C486 C483 1.361 1_455 S
C486 N484 1.356 . S
C487 C481 1.362 . S
C487 C482 1.379 . S
C487 N485 1.356 . S
N488 C480 1.356 . S
N488 H494 0.984 . S
N488 H495 0.984 . S
N489 C482 1.356 . S
N489 H492 0.984 . S
N489 H493 0.985 . S
H490 N485 0.984 . S
H491 N485 0.985 . S
H492 N489 0.984 . S
H493 N489 0.985 . S
H494 N488 0.984 . S
H495 N488 0.984 . S
H496 N484 0.984 . S
H497 N484 0.985 . S
C175 C24 2.990 . S
C177 C169 2.969 . S
C193 C66 1.475 . S
C195 C151 1.633 . S
C211 C93 1.826 . S
C213 C163 1.819 . S
C229 C13 3.023 . S
C231 C172 3.010 . S
C249 C154 1.588 . S
C247 C57 1.509 . S
C267 C160 1.857 . S
C265 C104 1.888 . S
C283 C64 1.861 . S
C285 C133 1.821 . S
C301 C97 1.198 . S
C303 C142 1.332 . S
C319 C17 1.634 . S
C321 C124 1.757 1_565 S
C339 C136 1.803 . S
C337 C53 1.827 . S
C357 C145 1.006 . S
C355 C106 0.880 . S
C373 C26 1.518 . S
C375 C127 1.692 . S
C393 C143 0.916 . S
C391 C2 0.917 . S
C409 C63 1.412 . S
C411 C125 1.465 . S
C427 C82 1.326 . S
C429 C134 1.337 . S
C447 C161 1.369 . S
C445 C42 1.353 . S
C465 C170 1.824 . S
C463 C103 1.763 . S
C481 C23 1.440 1_655 S
C483 C152 1.480 1_655 S
