# Generated by pormake.
# Topology tsx, (6,3)-cn, num edge types: 1
# Building blocks:
#     Node 0, Type 0, BuildingBlock: JUFBIX_clean_sbu_0, # of connection points: 6
#     Node 1, Type 0, BuildingBlock: JUFBIX_clean_sbu_0, # of connection points: 6
#     Node 2, Type 1, BuildingBlock: CUQRIR_clean_linker_1, # of connection points: 3
#     Node 3, Type 1, BuildingBlock: CUQRIR_clean_linker_1, # of connection points: 3
#     Node 4, Type 1, BuildingBlock: CUQRIR_clean_linker_1, # of connection points: 3
#     Node 5, Type 1, BuildingBlock: CUQRIR_clean_linker_1, # of connection points: 3
#     Edge 6, Type (0, 1), BuildingBlock: TEMPAE_clean_linker_10, # of connection points: 2
#     Edge 7, Type (0, 1), BuildingBlock: TEMPAE_clean_linker_10, # of connection points: 2
#     Edge 8, Type (0, 1), BuildingBlock: TEMPAE_clean_linker_10, # of connection points: 2
#     Edge 9, Type (0, 1), BuildingBlock: TEMPAE_clean_linker_10, # of connection points: 2
#     Edge 10, Type (0, 1), BuildingBlock: TEMPAE_clean_linker_10, # of connection points: 2
#     Edge 11, Type (0, 1), BuildingBlock: TEMPAE_clean_linker_10, # of connection points: 2
#     Edge 12, Type (0, 1), BuildingBlock: TEMPAE_clean_linker_10, # of connection points: 2
#     Edge 13, Type (0, 1), BuildingBlock: TEMPAE_clean_linker_10, # of connection points: 2
#     Edge 14, Type (0, 1), BuildingBlock: TEMPAE_clean_linker_10, # of connection points: 2
#     Edge 15, Type (0, 1), BuildingBlock: TEMPAE_clean_linker_10, # of connection points: 2
#     Edge 16, Type (0, 1), BuildingBlock: TEMPAE_clean_linker_10, # of connection points: 2
#     Edge 17, Type (0, 1), BuildingBlock: TEMPAE_clean_linker_10, # of connection points: 2
# Relax obj value: 0.138
# Max RMSD: 0.159
# Mean RMSD: 0.147
data_MOF--net-tsx--node1-JUFBIX_clean_sbu_0--node2-CUQRIR_clean_linker_1--edge1-TEMPAE_clean_linker_10
_symmetry_space_group_name_H-M    P1
_symmetry_Int_Tables_number       1
_symmetry_cell_setting            triclinic
loop_
_symmetry_equiv_pos_as_xyz
'x, y, z'
_cell_length_a     18.747295
_cell_length_b     22.160056
_cell_length_c     31.691014
_cell_angle_alpha  81.703469
_cell_angle_beta   90.077006
_cell_angle_gamma 99.825189
loop_
_atom_site_label
_atom_site_type_symbol
_atom_site_fract_x
_atom_site_fract_y
_atom_site_fract_z
_atom_type_partial_charge
Co0 Co 0.10869 0.95379 0.01229 0.0
C1 C 0.08257 0.98845 0.92643 0.0
Co2 Co 0.02026 1.00951 5e-05 0.0
C3 C 0.21141 0.86924 0.00149 0.0
C4 C 0.23459 0.92104 0.05332 0.0
N5 N 0.18665 0.91124 0.02223 0.0
N6 N 0.27273 0.85245 0.01874 0.0
C7 C 0.28704 0.88529 0.05131 0.0
H8 H 0.18511 0.85164 0.97425 0.0
H9 H 0.23255 0.95341 0.0756 0.0
C10 C 0.04619 0.97525 0.08592 0.0
N11 N 0.94367 0.05427 -0.0075 0.0
C12 C 0.94205 0.11234 0.97228 0.0
C13 C 0.87918 0.03701 0.0135 0.0
N14 N 0.87961 0.13188 0.9806 0.0
C15 C 0.84004 0.08444 0.00639 0.0
C16 C 0.97494 0.88099 0.00944 0.0
O17 O 0.0926 0.94737 0.0717 0.0
O18 O 1.00979 1.0063 0.05993 0.0
O19 O 0.95436 0.93331 0.00289 0.0
O20 O 0.04209 0.87838 0.01301 0.0
O21 O 0.03189 1.01199 0.94077 0.0
H22 H 0.86304 0.9938 0.03452 0.0
H23 H 0.98727 0.14106 0.95394 0.0
O24 O 0.12346 0.96123 0.95201 0.0
O25 O 0.17348 0.02957 0.01297 0.0
O26 O 0.0872 0.08439 -0.00224 0.0
C27 C 0.15305 0.08175 0.00561 0.0
H28 H 0.33351 0.88516 0.07159 0.0
H29 H 0.78722 0.08473 0.02006 0.0
Co30 Co 0.52728 0.53409 0.48364 0.0
C31 C 0.45546 0.58936 0.41497 0.0
Co32 Co 0.44397 0.58656 0.50079 0.0
C33 C 0.62427 0.44363 0.47635 0.0
C34 C 0.64438 0.52618 0.43065 0.0
N35 N 0.60053 0.49767 0.464 0.0
N36 N 0.68042 0.43762 0.45138 0.0
C37 C 0.69302 0.48955 0.4228 0.0
H38 H 0.60037 0.40921 0.50252 0.0
H39 H 0.64132 0.57122 0.41302 0.0
C40 C 0.51676 0.53017 0.56912 0.0
N41 N 0.37372 0.62736 0.51835 0.0
C42 C 0.35906 0.68204 0.49909 0.0
C43 C 0.32699 0.61086 0.55198 0.0
N44 N 0.30479 0.70045 0.51902 0.0
C45 C 0.28452 0.65585 0.55252 0.0
C46 C 0.39315 0.46077 0.49813 0.0
O47 O 0.54987 0.5103 0.5405 0.0
O48 O 0.4702 0.56497 0.55847 0.0
O49 O 0.37629 0.51148 0.50563 0.0
O50 O 0.45772 0.45926 0.48622 0.0
O51 O 0.41885 0.60768 0.44267 0.0
H52 H 0.3237 0.56871 0.57442 0.0
H53 H 0.38829 0.70812 0.471 0.0
O54 O 0.50373 0.55748 0.42665 0.0
O55 O 0.5959 0.6092 0.48247 0.0
O56 O 0.51176 0.66096 0.49672 0.0
C57 C 0.57775 0.65979 0.48901 0.0
H58 H 0.73504 0.50046 0.39812 0.0
H59 H 0.24106 0.65501 0.57515 0.0
C60 C 0.04441 0.10338 0.43443 0.0
N61 N 0.05973 0.05773 0.41366 0.0
N62 N 0.9899 0.12929 0.41524 0.0
C63 C 0.08167 0.12097 0.47384 0.0
C64 C 0.974 0.09864 0.38158 0.0
N65 N 1.01577 0.05489 0.38094 0.0
C66 C 0.9202 0.11373 0.34805 0.0
H67 H 0.07803 0.07926 0.49824 0.0
H68 H 0.05897 0.15766 0.48662 0.0
H69 H 0.13986 0.13841 0.46627 0.0
H70 H 0.90746 0.16074 0.34846 0.0
H71 H 0.86954 0.07937 0.35425 0.0
H72 H 0.94143 0.11086 0.31586 0.0
C73 C 0.96794 0.0559 0.56591 0.0
N74 N 0.02418 0.07779 0.58975 0.0
N75 N 0.94529 0.9946 0.57828 0.0
C76 C 0.92975 0.0939 0.5331 0.0
C77 C 0.98851 0.97984 0.61103 0.0
N78 N 0.03648 0.0304 0.61803 0.0
C79 C 0.98411 0.91607 0.63625 0.0
H80 H 0.87168 0.08765 0.54257 0.0
H81 H 0.9319 0.07609 0.50243 0.0
H82 H 0.95234 0.14376 0.52844 0.0
H83 H 0.03499 0.89864 0.63127 0.0
H84 H 0.93936 0.88191 0.62654 0.0
H85 H 0.97778 0.9183 0.67078 0.0
C86 C 0.6424 0.55114 0.92455 0.0
N87 N 0.6515 0.50747 0.89991 0.0
N88 N 0.58341 0.57707 0.91246 0.0
C89 C 0.69345 0.57093 0.95837 0.0
C90 C 0.55845 0.5489 0.87903 0.0
N91 N 0.59923 0.50672 0.87159 0.0
C92 C 0.49671 0.5656 0.85183 0.0
H93 H 0.74645 0.59316 0.94315 0.0
H94 H 0.70242 0.52996 0.98097 0.0
H95 H 0.67344 0.60503 0.9756 0.0
H96 H 0.48103 0.60948 0.85835 0.0
H97 H 0.4493 0.5278 0.85835 0.0
H98 H 0.51191 0.57047 0.81755 0.0
C99 C 0.52477 0.49667 0.06659 0.0
N100 N 0.55003 0.54111 0.09091 0.0
N101 N 0.46257 0.46117 0.08357 0.0
C102 C 0.55467 0.49336 0.0234 0.0
C103 C 0.45022 0.48574 0.11897 0.0
N104 N 0.50234 0.53479 0.12293 0.0
C105 C 0.39097 0.45877 0.15181 0.0
H106 H 0.51278 0.47143 0.00303 0.0
H107 H 0.59939 0.46621 0.02661 0.0
H108 H 0.57532 0.54078 0.00794 0.0
H109 H 0.37397 0.40835 0.15163 0.0
H110 H 0.34358 0.48209 0.14456 0.0
H111 H 0.40899 0.46646 0.18427 0.0
C112 C 0.23247 0.14052 0.05303 0.0
C113 C 0.20279 0.1377 0.01273 0.0
C114 C 0.27561 0.19485 0.0623 0.0
C115 C 0.29168 0.2466 0.02985 0.0
C116 C 0.26372 0.24307 0.98852 0.0
C117 C 0.21794 0.18885 0.9807 0.0
C118 C 0.30218 0.19741 0.10715 0.0
C119 C 0.28221 0.2964 0.95272 0.0
C120 C 0.34444 0.40357 0.0661 0.0
C121 C 0.41987 0.4091 0.06769 0.0
C122 C 0.30191 0.35114 0.0534 0.0
C123 C 0.33609 0.30471 0.03988 0.0
C124 C 0.41258 0.31184 0.03906 0.0
C125 C 0.45343 0.36317 0.05408 0.0
C126 C 0.22044 0.34435 0.05607 0.0
C127 C 0.45126 0.26469 0.02322 0.0
H128 H 0.21961 0.10079 0.07778 0.0
H129 H 0.19468 0.1861 0.94955 0.0
H130 H 0.36221 0.20621 0.10699 0.0
H131 H 0.28376 0.23626 0.12009 0.0
H132 H 0.28247 0.15382 0.12899 0.0
H133 H 0.26063 0.28445 0.92175 0.0
H134 H 0.2597 0.33689 0.96015 0.0
H135 H 0.34186 0.31073 0.9493 0.0
H136 H 0.31869 0.43984 0.07561 0.0
H137 H 0.51174 0.36718 0.05561 0.0
H138 H 0.19799 0.30209 0.07846 0.0
H139 H 0.19698 0.33869 0.02447 0.0
H140 H 0.20251 0.3848 0.06717 0.0
H141 H 0.44299 0.22153 0.04652 0.0
H142 H 0.51042 0.28168 0.01865 0.0
H143 H 0.42875 0.25271 -0.0075 0.0
C144 C 0.36155 0.78188 0.03425 0.0
C145 C 0.31667 0.81064 0.00512 0.0
C146 C 0.40805 0.74416 0.02144 0.0
C147 C 0.4098 0.73412 0.97843 0.0
C148 C 0.36377 0.76196 0.94891 0.0
C149 C 0.31786 0.79989 0.96257 0.0
C150 C 0.45607 0.71566 0.0539 0.0
C151 C 0.36348 0.75199 0.90279 0.0
C152 C 0.57215 0.67833 0.93338 0.0
C153 C 0.54515 0.61538 0.93403 0.0
C154 C 0.52936 0.71755 0.94854 0.0
C155 C 0.45802 0.69292 0.96462 0.0
C156 C 0.43186 0.62871 0.9666 0.0
C157 C 0.47545 0.59104 0.9509 0.0
C158 C 0.55987 0.78547 0.94656 0.0
C159 C 0.35692 0.59999 0.98406 0.0
H160 H 0.3603 0.78869 0.06736 0.0
H161 H 0.28405 0.82214 0.93971 0.0
H162 H 0.44724 0.66467 0.05485 0.0
H163 H 0.51349 0.73365 0.04436 0.0
H164 H 0.44664 0.72606 0.08649 0.0
H165 H 0.3247 0.77685 0.88379 0.0
H166 H 0.4185 0.76814 0.88827 0.0
H167 H 0.34892 0.70185 0.90069 0.0
H168 H 0.6255 0.69705 0.91949 0.0
H169 H 0.4545 0.5424 0.95065 0.0
H170 H 0.56586 0.7972 0.9794 0.0
H171 H 0.52226 0.81404 0.92992 0.0
H172 H 0.61354 0.79831 0.92987 0.0
H173 H 0.34957 0.61107 0.01664 0.0
H174 H 0.34635 0.54884 0.98544 0.0
H175 H 0.31579 0.6196 0.96371 0.0
C176 C 0.86431 0.81024 -0.00811 0.0
C177 C 0.91997 0.82483 0.02002 0.0
C178 C 0.80621 0.76166 0.00415 0.0
C179 C 0.80267 0.72833 0.04607 0.0
C180 C 0.859 0.74337 0.07461 0.0
C181 C 0.91767 0.79075 0.06094 0.0
C182 C 0.74934 0.74599 0.9719 0.0
C183 C 0.85539 0.71184 0.12029 0.0
C184 C 0.61367 0.64947 0.08653 0.0
C185 C 0.61509 0.58739 0.08319 0.0
C186 C 0.67487 0.69551 0.07579 0.0
C187 C 0.73899 0.67926 0.0605 0.0
C188 C 0.74155 0.61632 0.05829 0.0
C189 C 0.68005 0.5711 0.07045 0.0
C190 C 0.67007 0.76183 0.07958 0.0
C191 C 0.80841 0.59694 0.04175 0.0
H192 H 0.8661 0.83715 0.96036 0.0
H193 H 0.95992 0.80348 0.08304 0.0
H194 H 0.69422 0.73483 0.98665 0.0
H195 H 0.75049 0.78431 0.94499 0.0
H196 H 0.75995 0.70463 0.95868 0.0
H197 H 0.90399 0.7284 0.13827 0.0
H198 H 0.80671 0.7207 0.13666 0.0
H199 H 0.84995 0.66102 0.1215 0.0
H200 H 0.56419 0.66234 0.09674 0.0
H201 H 0.68232 0.52291 0.06924 0.0
H202 H 0.66948 0.78868 0.04722 0.0
H203 H 0.71806 0.78348 0.09595 0.0
H204 H 0.6204 0.76563 0.09738 0.0
H205 H 0.82434 0.62342 0.00974 0.0
H206 H 0.80008 0.54669 0.03942 0.0
H207 H 0.8543 0.60767 0.06307 0.0
C208 C 0.86867 0.22169 0.92614 0.0
C209 C 0.86044 0.1923 0.96849 0.0
C210 C 0.84167 0.277 0.9133 0.0
C211 C 0.80724 0.30421 0.94378 0.0
C212 C 0.80274 0.27634 0.98705 0.0
C213 C 0.82855 0.22049 -0.00129 0.0
C214 C 0.84639 0.30438 0.86675 0.0
C215 C 0.76798 0.30416 0.02084 0.0
C216 C 0.76716 0.46918 0.91763 0.0
C217 C 0.6929 0.45783 0.9095 0.0
C218 C 0.80561 0.41982 0.92843 0.0
C219 C 0.76924 0.3578 0.93012 0.0
C220 C 0.69467 0.34649 0.92079 0.0
C221 C 0.65755 0.39643 0.91109 0.0
C222 C 0.8847 0.43394 0.93883 0.0
C223 C 0.65345 0.28144 0.92184 0.0
H224 H 0.89298 0.19972 0.90277 0.0
H225 H 0.82303 0.19819 0.03158 0.0
H226 H 0.79119 0.2998 0.85353 0.0
H227 H 0.8692 0.35449 0.86288 0.0
H228 H 0.88023 0.28109 0.84773 0.0
H229 H 0.77613 0.28095 0.05353 0.0
H230 H 0.79043 0.35421 0.01877 0.0
H231 H 0.70893 0.29997 0.01556 0.0
H232 H 0.79519 0.51645 0.9155 0.0
H233 H 0.59999 0.38747 0.90531 0.0
H234 H 0.91736 0.41295 0.91765 0.0
H235 H 0.89293 0.41308 0.97209 0.0
H236 H 0.90543 0.48449 0.93539 0.0
H237 H 0.68179 0.25561 0.90162 0.0
H238 H 0.59721 0.28077 0.91057 0.0
H239 H 0.65097 0.25642 0.95489 0.0
C240 C 0.61437 0.77389 0.48843 0.0
C241 C 0.63337 0.71483 0.49216 0.0
C242 C 0.66467 0.82527 0.4967 0.0
C243 C 0.73473 0.81689 0.5103 0.0
C244 C 0.75511 0.75789 0.51228 0.0
C245 C 0.7044 0.7077 0.50268 0.0
C246 C 0.6422 0.88809 0.49217 0.0
C247 C 0.82926 0.74702 0.52676 0.0
C248 C 0.89281 0.94727 0.51698 0.0
C249 C 0.88885 0.95434 0.56009 0.0
C250 C 0.84001 0.90579 0.49939 0.0
C251 C 0.78456 0.868 0.52626 0.0
C252 C 0.77968 0.87605 0.56968 0.0
C253 C 0.83083 0.92042 0.5857 0.0
C254 C 0.84524 0.90139 0.45246 0.0
C255 C 0.72246 0.8359 0.59972 0.0
H256 H 0.55973 0.77974 0.47977 0.0
H257 H 0.71934 0.66214 0.50564 0.0
H258 H 0.63699 0.9019 0.52414 0.0
H259 H 0.68415 0.92349 0.47377 0.0
H260 H 0.58963 0.88843 0.47599 0.0
H261 H 0.83704 0.69863 0.52587 0.0
H262 H 0.87177 0.77872 0.50624 0.0
H263 H 0.83729 0.75729 0.55988 0.0
H264 H 0.93808 0.97329 0.49724 0.0
H265 H 0.82751 0.92698 0.61883 0.0
H266 H 0.79087 0.89109 0.43864 0.0
H267 H 0.87483 0.86344 0.44799 0.0
H268 H 0.87507 0.94508 0.43437 0.0
H269 H 0.6677 0.83998 0.58763 0.0
H270 H 0.72596 0.8484 0.63246 0.0
H271 H 0.72844 0.78662 0.60146 0.0
C272 C 0.74076 0.35721 0.4917 0.0
C273 C 0.71959 0.38702 0.45284 0.0
C274 C 0.78641 0.31276 0.49245 0.0
C275 C 0.81047 0.29793 0.45344 0.0
C276 C 0.78714 0.32668 0.41429 0.0
C277 C 0.74211 0.37076 0.41455 0.0
C278 C 0.8102 0.28277 0.53471 0.0
C279 C 0.81054 0.31157 0.37195 0.0
C280 C 0.97833 0.23001 0.43627 0.0
C281 C 0.94737 0.16971 0.431 0.0
C282 C 0.93491 0.27141 0.44722 0.0
C283 C 0.85898 0.25168 0.45257 0.0
C284 C 0.82842 0.18952 0.44974 0.0
C285 C 0.87301 0.14947 0.43862 0.0
C286 C 0.96954 0.33723 0.45028 0.0
C287 C 0.74799 0.16634 0.45546 0.0
H288 H 0.72374 0.37027 0.52126 0.0
H289 H 0.72481 0.39326 0.38457 0.0
H290 H 0.79801 0.23161 0.53692 0.0
H291 H 0.86969 0.29589 0.53726 0.0
H292 H 0.78345 0.29668 0.56215 0.0
H293 H 0.7873 0.33811 0.34444 0.0
H294 H 0.87045 0.322 0.36849 0.0
H295 H 0.79355 0.26144 0.37052 0.0
H296 H 0.03582 0.2453 0.42998 0.0
H297 H 0.84974 0.10232 0.43495 0.0
H298 H 0.9517 0.35123 0.48023 0.0
H299 H 0.95204 0.36881 0.42333 0.0
H300 H 0.02962 0.34351 0.44931 0.0
H301 H 0.72651 0.18167 0.48397 0.0
H302 H 0.73465 0.11504 0.4588 0.0
H303 H 0.7197 0.186 0.42732 0.0
C304 C 0.32546 0.38257 0.55389 0.0
C305 C 0.34099 0.4032 0.51049 0.0
C306 C 0.27337 0.32981 0.56738 0.0
C307 C 0.23456 0.29773 0.53663 0.0
C308 C 0.24969 0.31897 0.49257 0.0
C309 C 0.30352 0.37122 0.47999 0.0
C310 C 0.26011 0.30829 0.61457 0.0
C311 C 0.20893 0.28666 0.45877 0.0
C312 C 0.14873 0.12938 0.57077 0.0
C313 C 0.07647 0.13386 0.57869 0.0
C314 C 0.20051 0.18217 0.55696 0.0
C315 C 0.17954 0.24118 0.5508 0.0
C316 C 0.10669 0.24611 0.55957 0.0
C317 C 0.05636 0.19242 0.57435 0.0
C318 C 0.2775 0.17461 0.54853 0.0
C319 C 0.08176 0.30796 0.55303 0.0
H320 H 0.35446 0.40783 0.57735 0.0
H321 H 0.3152 0.38786 0.44641 0.0
H322 H 0.20292 0.30869 0.62324 0.0
H323 H 0.26946 0.25988 0.62265 0.0
H324 H 0.29578 0.33778 0.63433 0.0
H325 H 0.21904 0.31402 0.42647 0.0
H326 H 0.22596 0.24122 0.45835 0.0
H327 H 0.14989 0.27773 0.46606 0.0
H328 H 0.16412 0.08397 0.57433 0.0
H329 H 1.00111 0.19605 0.58202 0.0
H330 H 0.31513 0.20312 0.56788 0.0
H331 H 0.29266 0.19128 0.5145 0.0
H332 H 0.28534 0.12567 0.55605 0.0
H333 H 0.02198 0.30313 0.55635 0.0
H334 H 0.09907 0.33333 0.5209 0.0
H335 H 0.10717 0.33661 0.57677 0.0
C336 C 0.24123 0.78354 0.53565 0.0
C337 C 0.27329 0.75491 0.50572 0.0
C338 C 0.20923 0.83593 0.52271 0.0
C339 C 0.20899 0.85984 0.47881 0.0
C340 C 0.242 0.8316 0.44854 0.0
C341 C 0.27373 0.77958 0.46237 0.0
C342 C 0.17475 0.86513 0.55588 0.0
C343 C 0.24195 0.85523 0.40137 0.0
C344 C 0.06141 0.94786 0.43678 0.0
C345 C 0.09821 1.009 0.43037 0.0
C346 C 0.09642 0.89904 0.4534 0.0
C347 C 0.1703 0.91188 0.46394 0.0
C348 C 0.20767 0.97386 0.45801 0.0
C349 C 0.17111 0.02185 0.44097 0.0
C350 C 0.05452 0.83371 0.45925 0.0
C351 C 0.28638 0.98929 0.46902 0.0
H352 H 0.2415 0.76514 0.56921 0.0
H353 H 0.29726 0.75718 0.43898 0.0
H354 H 0.19734 0.91526 0.55281 0.0
H355 H 0.11568 0.861 0.5507 0.0
H356 H 0.18316 0.84318 0.58889 0.0
H357 H 0.27284 0.8298 0.38218 0.0
H358 H 0.18544 0.85047 0.39015 0.0
H359 H 0.26575 0.90516 0.39521 0.0
H360 H 1.00485 0.93847 0.42878 0.0
H361 H 0.19958 0.06918 0.43536 0.0
H362 H 0.05435 0.81289 0.49326 0.0
H363 H 0.08099 0.80472 0.44052 0.0
H364 H 0.99756 0.83174 0.44909 0.0
H365 H 0.29473 0.96889 0.50236 0.0
H366 H 0.30602 0.04003 0.46537 0.0
H367 H 0.31993 0.96882 0.448 0.0
C368 C 0.05883 0.92659 0.16105 0.0
C369 C 0.0368 0.9737 0.13218 0.0
C370 C 0.0538 0.92685 0.20519 0.0
C371 C 0.02797 0.97622 0.22045 0.0
C372 C 1.00411 0.02307 0.1914 0.0
C373 C 1.00809 0.02081 0.14759 0.0
C374 C 0.07772 0.8753 0.23536 0.0
C375 C 0.97706 0.077 0.20645 0.0
C376 C 0.96441 0.98323 0.33214 0.0
C377 C 0.02381 0.02201 0.34601 0.0
C378 C 0.96722 0.96243 0.29256 0.0
C379 C 0.03044 0.98228 0.26638 0.0
C380 C 0.09262 0.01705 0.28218 0.0
C381 C 0.08858 0.03606 0.32219 0.0
C382 C 0.90068 0.92372 0.27738 0.0
C383 C 0.16089 0.0396 0.25519 0.0
H384 H 0.0803 0.88968 0.14913 0.0
H385 H 0.99116 0.05732 0.1253 0.0
H386 H 0.12837 0.89343 0.25086 0.0
H387 H 0.0362 0.85695 0.26104 0.0
H388 H 0.08773 0.8366 0.21872 0.0
H389 H 0.95942 0.10893 0.17971 0.0
H390 H 0.9308 0.05998 0.2293 0.0
H391 H 0.02059 0.10363 0.22348 0.0
H392 H 0.91476 0.97214 0.35126 0.0
H393 H 0.13411 0.06621 0.33344 0.0
H394 H 0.91563 0.88698 0.26051 0.0
H395 H 0.87208 0.95353 0.25451 0.0
H396 H 0.86256 0.90184 0.30424 0.0
H397 H 0.17689 1.0014 0.24038 0.0
H398 H 0.20678 0.05946 0.27401 0.0
H399 H 0.15086 0.07594 0.22897 0.0
C400 C 0.03604 0.97103 0.85544 0.0
C401 C 0.09351 0.99331 0.8802 0.0
C402 C 0.04298 0.97945 0.81091 0.0
C403 C 0.10811 0.01321 0.79073 0.0
C404 C 0.16691 0.035 0.81581 0.0
C405 C 0.15919 0.02391 0.86052 0.0
C406 C 0.97963 0.95385 0.78543 0.0
C407 C 0.23618 0.07291 0.79561 0.0
C408 C 0.11643 0.99347 0.67457 0.0
C409 C 0.07454 0.03709 0.6571 0.0
C410 C 0.13353 0.98781 0.71795 0.0
C411 C 0.11115 0.02892 0.7435 0.0
C412 C 0.07892 0.07899 0.72416 0.0
C413 C 0.05997 0.0819 0.68125 0.0
C414 C 0.16816 0.93385 0.73716 0.0
C415 C 0.05739 0.1257 0.74976 0.0
H416 H 0.98543 0.94726 0.87101 0.0
H417 H 0.20319 0.0417 0.88003 0.0
H418 H 0.95639 0.99251 0.76757 0.0
H419 H 0.99779 0.92703 0.76172 0.0
H420 H 0.93611 0.92334 0.80602 0.0
H421 H 0.28049 0.07712 0.81887 0.0
H422 H 0.2542 0.05253 0.76835 0.0
H423 H 0.22646 0.12011 0.78296 0.0
H424 H 0.13109 0.96091 0.65516 0.0
H425 H 0.02846 0.11627 0.66759 0.0
H426 H 0.12589 0.89736 0.75428 0.0
H427 H 0.20921 0.94786 0.76071 0.0
H428 H 0.19421 0.91356 0.7124 0.0
H429 H 1.00731 0.10471 0.76874 0.0
H430 H 0.04673 0.16784 0.72888 0.0
H431 H 0.10029 0.13951 0.77235 0.0
C432 C 0.51377 0.5486 0.64448 0.0
C433 C 0.53219 0.5131 0.61441 0.0
C434 C 0.52952 0.53428 0.68751 0.0
C435 C 0.56321 0.48235 0.70092 0.0
C436 C 0.58022 0.44524 0.6709 0.0
C437 C 0.56519 0.46151 0.62776 0.0
C438 C 0.51087 0.57538 0.71852 0.0
C439 C 0.61442 0.38876 0.68432 0.0
C440 C 0.65732 0.50556 0.80322 0.0
C441 C 0.60027 0.48168 0.83242 0.0
C442 C 0.64913 0.50025 0.75995 0.0
C443 C 0.58256 0.46942 0.74626 0.0
C444 C 0.52888 0.43774 0.77676 0.0
C445 C 0.53822 0.44476 0.81975 0.0
C446 C 0.7077 0.53485 0.72856 0.0
C447 C 0.45817 0.40269 0.76359 0.0
H448 H 0.48828 0.58848 0.63422 0.0
H449 H 0.57871 0.43354 0.60455 0.0
H450 H 0.47124 0.54812 0.74295 0.0
H451 H 0.56006 0.59362 0.73533 0.0
H452 H 0.48728 0.6152 0.70254 0.0
H453 H 0.61975 0.3625 0.65749 0.0
H454 H 0.669 0.40272 0.69696 0.0
H455 H 0.58161 0.35755 0.71041 0.0
H456 H 0.7051 0.53411 0.81355 0.0
H457 H 0.49466 0.42599 0.84289 0.0
H458 H 0.69138 0.57871 0.71353 0.0
H459 H 0.71553 0.50757 0.70277 0.0
H460 H 0.76021 0.54641 0.74435 0.0
H461 H 0.42158 0.4359 0.75259 0.0
H462 H 0.43072 0.36928 0.79062 0.0
H463 H 0.46665 0.37729 0.73682 0.0
C464 C 0.48131 0.65776 0.34601 0.0
C465 C 0.44375 0.60314 0.36929 0.0
C466 C 0.49134 0.66289 0.30162 0.0
C467 C 0.46381 0.61178 0.28072 0.0
C468 C 0.42084 0.55849 0.30393 0.0
C469 C 0.41171 0.55477 0.3481 0.0
C470 C 0.5364 0.72075 0.27794 0.0
C471 C 0.38986 0.50308 0.28284 0.0
C472 C 0.45055 0.60367 0.16312 0.0
C473 C 0.5061 0.57054 0.15736 0.0
C474 C 0.4405 0.624 0.20218 0.0
C475 C 0.48655 0.60961 0.23618 0.0
C476 C 0.54733 0.58177 0.22885 0.0
C477 C 0.55644 0.5626 0.18922 0.0
C478 C 0.37638 0.65502 0.20821 0.0
C479 C 0.59823 0.56619 0.26414 0.0
H480 H 0.50742 0.69451 0.36287 0.0
H481 H 0.38397 0.51218 0.36656 0.0
H482 H 0.59224 0.71231 0.273 0.0
H483 H 0.51415 0.7335 0.24606 0.0
H484 H 0.53951 0.76044 0.29605 0.0
H485 H 0.35284 0.46767 0.30465 0.0
H486 H 0.35968 0.51759 0.25409 0.0
H487 H 0.4346 0.4813 0.27235 0.0
H488 H 0.41198 0.60957 0.13798 0.0
H489 H 0.59904 0.53667 0.18432 0.0
H490 H 0.39003 0.69179 0.22867 0.0
H491 H 0.3314 0.62021 0.22428 0.0
H492 H 0.3569 0.67562 0.17718 0.0
H493 H 0.61444 0.60612 0.28157 0.0
H494 H 0.6478 0.55269 0.25184 0.0
H495 H 0.57019 0.52703 0.28738 0.0
loop_
_geom_bond_atom_site_label_1
_geom_bond_atom_site_label_2
_geom_bond_distance
_geom_bond_site_symmetry_2
_ccdc_geom_bond_type
Co0 N5 2.057 . S
Co0 O17 2.021 . S
Co0 O20 2.062 1_455 S
Co0 O24 2.117 1_564 S
Co0 O25 2.020 1_565 S
C1 O21 1.259 1_455 S
C1 O24 1.258 . S
Co2 N11 2.057 . S
Co2 O18 2.117 . S
Co2 O19 2.020 1_545 S
Co2 O21 2.021 1_554 S
Co2 O26 2.062 1_654 S
C3 N5 1.316 . S
C3 N6 1.347 . S
C3 H8 0.931 . S
C4 N5 1.375 1_556 S
C4 C7 1.350 . S
C4 H9 0.930 . S
N5 Co0 2.057 . S
N5 C3 1.316 . S
N5 C4 1.375 1_554 S
N6 C3 1.347 . S
N6 C7 1.373 1_554 S
C7 C4 1.350 . S
C7 N6 1.373 1_556 S
C7 H28 0.931 . S
H8 C3 0.931 . S
H9 C4 0.930 . S
C10 O17 1.259 1_545 S
C10 O18 1.258 1_455 S
N11 Co2 2.057 . S
N11 C12 1.316 1_554 S
N11 C13 1.375 . S
C12 N11 1.316 1_556 S
C12 N14 1.347 1_556 S
C12 H23 0.931 . S
C13 N11 1.375 . S
C13 C15 1.350 . S
C13 H22 0.930 . S
N14 C12 1.347 1_554 S
N14 C15 1.373 . S
C15 C13 1.350 . S
C15 N14 1.373 . S
C15 H29 0.931 . S
C16 O19 1.256 . S
C16 O20 1.255 . S
O17 Co0 2.021 . S
O17 C10 1.259 1_565 S
O18 Co2 2.117 . S
O18 C10 1.258 1_655 S
O19 Co2 2.020 1_565 S
O19 C16 1.256 . S
O20 Co0 2.062 1_655 S
O20 C16 1.255 . S
O21 C1 1.259 1_655 S
O21 Co2 2.021 1_556 S
H22 C13 0.930 . S
H23 C12 0.931 . S
O24 Co0 2.117 1_546 S
O24 C1 1.258 . S
O25 Co0 2.020 1_545 S
O25 C27 1.256 . S
O26 Co2 2.062 1_456 S
O26 C27 1.253 1_556 S
C27 O25 1.256 . S
C27 O26 1.253 1_554 S
H28 C7 0.931 . S
H29 C15 0.931 . S
Co30 N35 2.057 . S
Co30 O47 2.021 . S
Co30 O50 2.062 . S
Co30 O54 2.117 . S
Co30 O55 2.020 . S
C31 O51 1.259 . S
C31 O54 1.258 . S
Co32 N41 2.057 . S
Co32 O48 2.117 . S
Co32 O49 2.020 . S
Co32 O51 2.021 . S
Co32 O56 2.062 . S
C33 N35 1.316 . S
C33 N36 1.347 . S
C33 H38 0.931 . S
C34 N35 1.375 . S
C34 C37 1.350 . S
C34 H39 0.930 . S
N35 Co30 2.057 . S
N35 C33 1.316 . S
N35 C34 1.375 . S
N36 C33 1.347 . S
N36 C37 1.373 . S
C37 C34 1.350 . S
C37 N36 1.373 . S
C37 H58 0.931 . S
H38 C33 0.931 . S
H39 C34 0.930 . S
C40 O47 1.259 . S
C40 O48 1.258 . S
N41 Co32 2.057 . S
N41 C42 1.316 . S
N41 C43 1.375 . S
C42 N41 1.316 . S
C42 N44 1.347 . S
C42 H53 0.931 . S
C43 N41 1.375 . S
C43 C45 1.350 . S
C43 H52 0.930 . S
N44 C42 1.347 . S
N44 C45 1.373 . S
C45 C43 1.350 . S
C45 N44 1.373 . S
C45 H59 0.931 . S
C46 O49 1.256 . S
C46 O50 1.255 . S
O47 Co30 2.021 . S
O47 C40 1.259 . S
O48 Co32 2.117 . S
O48 C40 1.258 . S
O49 Co32 2.020 . S
O49 C46 1.256 . S
O50 Co30 2.062 . S
O50 C46 1.255 . S
O51 C31 1.259 . S
O51 Co32 2.021 . S
H52 C43 0.930 . S
H53 C42 0.931 . S
O54 Co30 2.117 . S
O54 C31 1.258 . S
O55 Co30 2.020 . S
O55 C57 1.256 . S
O56 Co32 2.062 . S
O56 C57 1.255 . S
C57 O55 1.256 . S
C57 O56 1.255 . S
H58 C37 0.931 . S
H59 C45 0.931 . S
C60 N61 1.317 1_545 S
C60 N62 1.348 1_455 S
C60 C63 1.485 1_545 S
N61 C60 1.317 1_565 S
N61 N65 1.372 . S
N62 C60 1.348 1_655 S
N62 C64 1.346 . S
C63 C60 1.485 1_565 S
C63 H67 0.960 1_455 S
C63 H68 0.961 1_565 S
C63 H69 0.960 . S
C64 N62 1.346 . S
C64 N65 1.303 1_645 S
C64 C66 1.486 . S
N65 N61 1.372 . S
N65 C64 1.303 1_465 S
C66 C64 1.486 . S
C66 H70 0.960 . S
C66 H71 0.960 . S
C66 H72 0.959 . S
H67 C63 0.960 1_655 S
H68 C63 0.961 1_545 S
H69 C63 0.960 . S
H70 C66 0.960 . S
H71 C66 0.960 . S
H72 C66 0.959 . S
C73 N74 1.317 . S
C73 N75 1.348 1_445 S
C73 C76 1.485 . S
N74 C73 1.317 . S
N74 N78 1.370 . S
N75 C73 1.348 1_665 S
N75 C77 1.346 . S
C76 C73 1.485 . S
C76 H80 0.960 1_455 S
C76 H81 0.961 . S
C76 H82 0.960 . S
C77 N75 1.346 . S
C77 N78 1.307 1_665 S
C77 C79 1.486 . S
N78 N74 1.370 . S
N78 C77 1.307 1_445 S
C79 C77 1.486 . S
C79 H83 0.960 . S
C79 H84 0.960 . S
C79 H85 0.959 . S
H80 C76 0.960 1_655 S
H81 C76 0.961 . S
H82 C76 0.960 . S
H83 C79 0.960 . S
H84 C79 0.960 . S
H85 C79 0.959 . S
C86 N87 1.317 . S
C86 N88 1.348 . S
C86 C89 1.485 1_556 S
N87 C86 1.317 . S
N87 N91 1.370 . S
N88 C86 1.348 . S
N88 C90 1.346 . S
C89 C86 1.485 1_554 S
C89 H93 0.960 . S
C89 H94 0.961 . S
C89 H95 0.960 . S
C90 N88 1.346 . S
C90 N91 1.307 . S
C90 C92 1.486 . S
N91 N87 1.370 . S
N91 C90 1.307 . S
C92 C90 1.486 . S
C92 H96 0.960 . S
C92 H97 0.960 . S
C92 H98 0.959 . S
H93 C89 0.960 . S
H94 C89 0.961 . S
H95 C89 0.960 . S
H96 C92 0.960 . S
H97 C92 0.960 . S
H98 C92 0.959 . S
C99 N100 1.317 . S
C99 N101 1.348 . S
C99 C102 1.485 1_554 S
N100 C99 1.317 . S
N100 N104 1.370 . S
N101 C99 1.348 . S
N101 C103 1.346 . S
C102 C99 1.485 1_556 S
C102 H106 0.960 . S
C102 H107 0.961 . S
C102 H108 0.960 . S
C103 N101 1.346 . S
C103 N104 1.307 . S
C103 C105 1.486 . S
N104 N100 1.370 . S
N104 C103 1.307 . S
C105 C103 1.486 . S
C105 H109 0.960 . S
C105 H110 0.960 . S
C105 H111 0.959 . S
H106 C102 0.960 . S
H107 C102 0.961 . S
H108 C102 0.960 . S
H109 C105 0.960 . S
H110 C105 0.960 . S
H111 C105 0.959 . S
C112 C113 1.391 . S
C112 C114 1.394 . S
C112 H128 0.931 . S
C113 C112 1.391 . S
C113 C117 1.376 1_554 S
C114 C112 1.394 . S
C114 C115 1.369 . S
C114 C118 1.531 . S
C115 C114 1.369 . S
C115 C116 1.410 1_554 S
C115 C123 1.503 . S
C116 C115 1.410 1_556 S
C116 C117 1.392 . S
C116 C119 1.511 . S
C117 C113 1.376 1_556 S
C117 C116 1.392 . S
C117 H129 0.929 . S
C118 C114 1.531 . S
C118 H130 0.960 . S
C118 H131 0.962 . S
C118 H132 0.960 . S
C119 C116 1.511 . S
C119 H133 0.961 . S
C119 H134 0.961 . S
C119 H135 0.961 . S
C120 C121 1.370 . S
C120 C122 1.363 . S
C120 H136 0.931 . S
C121 C120 1.370 . S
C121 C125 1.408 1_554 S
C122 C120 1.363 . S
C122 C123 1.370 . S
C122 C126 1.524 . S
C123 C115 1.503 . S
C123 C122 1.370 . S
C123 C124 1.403 1_554 S
C124 C123 1.403 1_556 S
C124 C125 1.404 . S
C124 C127 1.539 . S
C125 C121 1.408 1_556 S
C125 C124 1.404 . S
C125 H137 0.930 . S
C126 C122 1.524 . S
C126 H138 0.956 . S
C126 H139 0.961 . S
C126 H140 0.961 . S
C127 C124 1.539 . S
C127 H141 0.958 . S
C127 H142 0.961 . S
C127 H143 0.960 . S
H128 C112 0.931 . S
H129 C117 0.929 . S
H130 C118 0.960 . S
H131 C118 0.962 . S
H132 C118 0.960 . S
H133 C119 0.961 . S
H134 C119 0.961 . S
H135 C119 0.961 . S
H136 C120 0.931 . S
H137 C125 0.930 . S
H138 C126 0.956 . S
H139 C126 0.961 . S
H140 C126 0.961 . S
H141 C127 0.958 . S
H142 C127 0.961 . S
H143 C127 0.960 . S
C144 C145 1.391 . S
C144 C146 1.394 . S
C144 H160 0.931 . S
C145 C144 1.391 . S
C145 C149 1.376 1_554 S
C146 C144 1.394 . S
C146 C147 1.369 . S
C146 C150 1.531 . S
C147 C146 1.369 . S
C147 C148 1.410 1_554 S
C147 C155 1.503 . S
C148 C147 1.410 1_556 S
C148 C149 1.392 . S
C148 C151 1.511 . S
C149 C145 1.376 1_556 S
C149 C148 1.392 . S
C149 H161 0.929 . S
C150 C146 1.531 . S
C150 H162 0.960 . S
C150 H163 0.962 . S
C150 H164 0.960 . S
C151 C148 1.511 . S
C151 H165 0.961 . S
C151 H166 0.961 . S
C151 H167 0.961 . S
C152 C153 1.370 . S
C152 C154 1.363 . S
C152 H168 0.931 . S
C153 C152 1.370 . S
C153 C157 1.408 1_556 S
C154 C152 1.363 . S
C154 C155 1.370 1_556 S
C154 C158 1.524 . S
C155 C147 1.503 . S
C155 C154 1.370 1_554 S
C155 C156 1.403 . S
C156 C155 1.403 . S
C156 C157 1.404 . S
C156 C159 1.539 . S
C157 C153 1.408 1_554 S
C157 C156 1.404 . S
C157 H169 0.930 . S
C158 C154 1.524 . S
C158 H170 0.956 . S
C158 H171 0.961 . S
C158 H172 0.961 . S
C159 C156 1.539 . S
C159 H173 0.958 . S
C159 H174 0.961 . S
C159 H175 0.960 . S
H160 C144 0.931 . S
H161 C149 0.929 . S
H162 C150 0.960 . S
H163 C150 0.962 . S
H164 C150 0.960 . S
H165 C151 0.961 . S
H166 C151 0.961 . S
H167 C151 0.961 . S
H168 C152 0.931 . S
H169 C157 0.930 . S
H170 C158 0.956 . S
H171 C158 0.961 . S
H172 C158 0.961 . S
H173 C159 0.958 . S
H174 C159 0.961 . S
H175 C159 0.960 . S
C176 C177 1.391 . S
C176 C178 1.394 . S
C176 H192 0.931 . S
C177 C176 1.391 . S
C177 C181 1.376 . S
C178 C176 1.394 . S
C178 C179 1.369 . S
C178 C182 1.531 . S
C179 C178 1.369 . S
C179 C180 1.410 . S
C179 C187 1.503 . S
C180 C179 1.410 . S
C180 C181 1.392 . S
C180 C183 1.511 . S
C181 C177 1.376 . S
C181 C180 1.392 . S
C181 H193 0.929 . S
C182 C178 1.531 . S
C182 H194 0.960 . S
C182 H195 0.962 1_554 S
C182 H196 0.960 . S
C183 C180 1.511 . S
C183 H197 0.961 . S
C183 H198 0.961 . S
C183 H199 0.961 . S
C184 C185 1.370 . S
C184 C186 1.363 . S
C184 H200 0.931 1_554 S
C185 C184 1.370 . S
C185 C189 1.408 . S
C186 C184 1.363 . S
C186 C187 1.370 . S
C186 C190 1.524 1_554 S
C187 C179 1.503 . S
C187 C186 1.370 . S
C187 C188 1.403 . S
C188 C187 1.403 . S
C188 C189 1.404 . S
C188 C191 1.539 . S
C189 C185 1.408 . S
C189 C188 1.404 . S
C189 H201 0.930 . S
C190 C186 1.524 1_556 S
C190 H202 0.956 . S
C190 H203 0.961 . S
C190 H204 0.961 . S
C191 C188 1.539 . S
C191 H205 0.958 . S
C191 H206 0.961 . S
C191 H207 0.960 . S
H192 C176 0.931 . S
H193 C181 0.929 . S
H194 C182 0.960 . S
H195 C182 0.962 1_556 S
H196 C182 0.960 . S
H197 C183 0.961 . S
H198 C183 0.961 . S
H199 C183 0.961 . S
H200 C184 0.931 1_556 S
H201 C189 0.930 . S
H202 C190 0.956 . S
H203 C190 0.961 . S
H204 C190 0.961 . S
H205 C191 0.958 . S
H206 C191 0.961 . S
H207 C191 0.960 . S
C208 C209 1.391 . S
C208 C210 1.394 . S
C208 H224 0.931 . S
C209 C208 1.391 . S
C209 C213 1.376 1_556 S
C210 C208 1.394 . S
C210 C211 1.369 . S
C210 C214 1.531 . S
C211 C210 1.369 . S
C211 C212 1.410 1_556 S
C211 C219 1.503 . S
C212 C211 1.410 1_554 S
C212 C213 1.392 . S
C212 C215 1.511 . S
C213 C209 1.376 1_554 S
C213 C212 1.392 . S
C213 H225 0.929 . S
C214 C210 1.531 . S
C214 H226 0.960 . S
C214 H227 0.962 . S
C214 H228 0.960 . S
C215 C212 1.511 . S
C215 H229 0.961 . S
C215 H230 0.961 . S
C215 H231 0.961 . S
C216 C217 1.370 . S
C216 C218 1.363 . S
C216 H232 0.931 . S
C217 C216 1.370 . S
C217 C221 1.408 . S
C218 C216 1.363 . S
C218 C219 1.370 . S
C218 C222 1.524 . S
C219 C211 1.503 . S
C219 C218 1.370 . S
C219 C220 1.402 1_556 S
C220 C219 1.402 1_554 S
C220 C221 1.404 1_554 S
C220 C223 1.540 . S
C221 C217 1.408 . S
C221 C220 1.404 1_556 S
C221 H233 0.930 1_556 S
C222 C218 1.524 . S
C222 H234 0.956 . S
C222 H235 0.961 . S
C222 H236 0.961 . S
C223 C220 1.540 . S
C223 H237 0.958 . S
C223 H238 0.961 . S
C223 H239 0.960 . S
H224 C208 0.931 . S
H225 C213 0.929 . S
H226 C214 0.960 . S
H227 C214 0.962 . S
H228 C214 0.960 . S
H229 C215 0.961 . S
H230 C215 0.961 . S
H231 C215 0.961 . S
H232 C216 0.931 . S
H233 C221 0.930 1_554 S
H234 C222 0.956 . S
H235 C222 0.961 . S
H236 C222 0.961 . S
H237 C223 0.958 . S
H238 C223 0.961 . S
H239 C223 0.960 . S
C240 C241 1.391 . S
C240 C242 1.394 . S
C240 H256 0.931 . S
C241 C240 1.391 . S
C241 C245 1.376 . S
C242 C240 1.394 . S
C242 C243 1.369 . S
C242 C246 1.531 . S
C243 C242 1.369 . S
C243 C244 1.410 . S
C243 C251 1.503 . S
C244 C243 1.410 . S
C244 C245 1.392 . S
C244 C247 1.511 . S
C245 C241 1.376 . S
C245 C244 1.392 . S
C245 H257 0.929 . S
C246 C242 1.531 . S
C246 H258 0.960 . S
C246 H259 0.962 . S
C246 H260 0.960 . S
C247 C244 1.511 . S
C247 H261 0.961 . S
C247 H262 0.961 . S
C247 H263 0.961 . S
C248 C249 1.370 . S
C248 C250 1.363 . S
C248 H264 0.931 . S
C249 C248 1.370 . S
C249 C253 1.408 . S
C250 C248 1.363 . S
C250 C251 1.370 . S
C250 C254 1.524 . S
C251 C243 1.503 . S
C251 C250 1.370 . S
C251 C252 1.403 . S
C252 C251 1.403 . S
C252 C253 1.404 . S
C252 C255 1.539 . S
C253 C249 1.408 . S
C253 C252 1.404 . S
C253 H265 0.930 . S
C254 C250 1.524 . S
C254 H266 0.956 . S
C254 H267 0.961 . S
C254 H268 0.961 . S
C255 C252 1.539 . S
C255 H269 0.958 . S
C255 H270 0.961 . S
C255 H271 0.960 . S
H256 C240 0.931 . S
H257 C245 0.929 . S
H258 C246 0.960 . S
H259 C246 0.962 . S
H260 C246 0.960 . S
H261 C247 0.961 . S
H262 C247 0.961 . S
H263 C247 0.961 . S
H264 C248 0.931 . S
H265 C253 0.930 . S
H266 C254 0.956 . S
H267 C254 0.961 . S
H268 C254 0.961 . S
H269 C255 0.958 . S
H270 C255 0.961 . S
H271 C255 0.960 . S
C272 C273 1.391 . S
C272 C274 1.394 . S
C272 H288 0.931 . S
C273 C272 1.391 . S
C273 C277 1.376 . S
C274 C272 1.394 . S
C274 C275 1.369 . S
C274 C278 1.531 . S
C275 C274 1.369 . S
C275 C276 1.410 . S
C275 C283 1.503 . S
C276 C275 1.410 . S
C276 C277 1.392 . S
C276 C279 1.511 . S
C277 C273 1.376 . S
C277 C276 1.392 . S
C277 H289 0.929 . S
C278 C274 1.531 . S
C278 H290 0.960 . S
C278 H291 0.962 . S
C278 H292 0.960 . S
C279 C276 1.511 . S
C279 H293 0.961 . S
C279 H294 0.961 . S
C279 H295 0.961 . S
C280 C281 1.370 . S
C280 C282 1.363 . S
C280 H296 0.929 1_655 S
C281 C280 1.370 . S
C281 C285 1.408 . S
C282 C280 1.363 . S
C282 C283 1.370 . S
C282 C286 1.524 . S
C283 C275 1.503 . S
C283 C282 1.370 . S
C283 C284 1.403 . S
C284 C283 1.403 . S
C284 C285 1.404 . S
C284 C287 1.539 . S
C285 C281 1.408 . S
C285 C284 1.404 . S
C285 H297 0.930 . S
C286 C282 1.524 . S
C286 H298 0.956 . S
C286 H299 0.961 . S
C286 H300 0.961 . S
C287 C284 1.539 . S
C287 H301 0.958 . S
C287 H302 0.961 . S
C287 H303 0.960 . S
H288 C272 0.931 . S
H289 C277 0.929 . S
H290 C278 0.960 . S
H291 C278 0.962 . S
H292 C278 0.960 . S
H293 C279 0.961 . S
H294 C279 0.961 . S
H295 C279 0.961 . S
H296 C280 0.929 1_455 S
H297 C285 0.930 . S
H298 C286 0.956 . S
H299 C286 0.961 . S
H300 C286 0.961 . S
H301 C287 0.958 . S
H302 C287 0.961 . S
H303 C287 0.960 . S
C304 C305 1.391 . S
C304 C306 1.394 . S
C304 H320 0.931 . S
C305 C304 1.391 . S
C305 C309 1.376 . S
C306 C304 1.394 . S
C306 C307 1.369 . S
C306 C310 1.531 . S
C307 C306 1.369 . S
C307 C308 1.410 . S
C307 C315 1.503 . S
C308 C307 1.410 . S
C308 C309 1.392 . S
C308 C311 1.511 . S
C309 C305 1.376 . S
C309 C308 1.392 . S
C309 H321 0.929 . S
C310 C306 1.531 . S
C310 H322 0.960 . S
C310 H323 0.962 . S
C310 H324 0.960 . S
C311 C308 1.511 . S
C311 H325 0.961 . S
C311 H326 0.961 . S
C311 H327 0.961 . S
C312 C313 1.370 . S
C312 C314 1.363 . S
C312 H328 0.931 . S
C313 C312 1.370 . S
C313 C317 1.408 . S
C314 C312 1.363 . S
C314 C315 1.370 . S
C314 C318 1.524 . S
C315 C307 1.503 . S
C315 C314 1.370 . S
C315 C316 1.403 . S
C316 C315 1.403 . S
C316 C317 1.404 . S
C316 C319 1.539 . S
C317 C313 1.408 . S
C317 C316 1.404 . S
C317 H329 0.930 . S
C318 C314 1.524 . S
C318 H330 0.956 . S
C318 H331 0.961 . S
C318 H332 0.961 . S
C319 C316 1.539 . S
C319 H333 0.958 . S
C319 H334 0.961 . S
C319 H335 0.960 . S
H320 C304 0.931 . S
H321 C309 0.929 . S
H322 C310 0.960 . S
H323 C310 0.962 . S
H324 C310 0.960 . S
H325 C311 0.961 . S
H326 C311 0.961 . S
H327 C311 0.961 . S
H328 C312 0.931 . S
H329 C317 0.930 . S
H330 C318 0.956 . S
H331 C318 0.961 . S
H332 C318 0.961 . S
H333 C319 0.958 . S
H334 C319 0.961 . S
H335 C319 0.960 . S
C336 C337 1.391 . S
C336 C338 1.394 . S
C336 H352 0.931 . S
C337 C336 1.391 . S
C337 C341 1.376 . S
C338 C336 1.394 . S
C338 C339 1.369 . S
C338 C342 1.531 . S
C339 C338 1.369 . S
C339 C340 1.410 . S
C339 C347 1.503 . S
C340 C339 1.410 . S
C340 C341 1.392 . S
C340 C343 1.511 . S
C341 C337 1.376 . S
C341 C340 1.392 . S
C341 H353 0.929 . S
C342 C338 1.531 . S
C342 H354 0.960 . S
C342 H355 0.962 . S
C342 H356 0.960 . S
C343 C340 1.511 . S
C343 H357 0.961 . S
C343 H358 0.961 . S
C343 H359 0.961 . S
C344 C345 1.370 . S
C344 C346 1.363 . S
C344 H360 0.931 . S
C345 C344 1.370 . S
C345 C349 1.408 . S
C346 C344 1.363 . S
C346 C347 1.370 . S
C346 C350 1.524 . S
C347 C339 1.503 . S
C347 C346 1.370 . S
C347 C348 1.403 . S
C348 C347 1.403 . S
C348 C349 1.404 . S
C348 C351 1.539 . S
C349 C345 1.408 . S
C349 C348 1.404 . S
C349 H361 0.930 1_565 S
C350 C346 1.524 . S
C350 H362 0.956 . S
C350 H363 0.961 . S
C350 H364 0.961 . S
C351 C348 1.539 . S
C351 H365 0.958 . S
C351 H366 0.961 . S
C351 H367 0.960 . S
H352 C336 0.931 . S
H353 C341 0.929 . S
H354 C342 0.960 . S
H355 C342 0.962 . S
H356 C342 0.960 . S
H357 C343 0.961 . S
H358 C343 0.961 . S
H359 C343 0.961 . S
H360 C344 0.931 . S
H361 C349 0.930 1_545 S
H362 C350 0.956 . S
H363 C350 0.961 . S
H364 C350 0.961 . S
H365 C351 0.958 . S
H366 C351 0.961 . S
H367 C351 0.960 . S
C368 C369 1.385 1_665 S
C368 C370 1.394 1_655 S
C368 H384 0.931 . S
C369 C368 1.385 1_445 S
C369 C373 1.381 . S
C370 C368 1.394 1_455 S
C370 C371 1.369 . S
C370 C374 1.531 1_455 S
C371 C370 1.369 . S
C371 C372 1.410 1_565 S
C371 C379 1.503 . S
C372 C371 1.410 1_545 S
C372 C373 1.392 . S
C372 C375 1.511 . S
C373 C369 1.381 . S
C373 C372 1.392 . S
C373 H385 0.929 . S
C374 C370 1.531 1_655 S
C374 H386 0.960 . S
C374 H387 0.962 . S
C374 H388 0.960 . S
C375 C372 1.511 . S
C375 H389 0.961 . S
C375 H390 0.961 . S
C375 H391 0.961 . S
C376 C377 1.370 1_645 S
C376 C378 1.363 . S
C376 H392 0.931 . S
C377 C376 1.370 1_465 S
C377 C381 1.408 . S
C378 C376 1.363 . S
C378 C379 1.370 1_645 S
C378 C382 1.524 . S
C379 C371 1.503 . S
C379 C378 1.370 1_465 S
C379 C380 1.403 . S
C380 C379 1.403 . S
C380 C381 1.404 . S
C380 C383 1.539 . S
C381 C377 1.408 . S
C381 C380 1.404 . S
C381 H393 0.930 . S
C382 C378 1.524 . S
C382 H394 0.960 . S
C382 H395 0.961 . S
C382 H396 0.961 . S
C383 C380 1.539 . S
C383 H397 0.958 . S
C383 H398 0.961 . S
C383 H399 0.960 . S
H384 C368 0.931 . S
H385 C373 0.929 . S
H386 C374 0.960 . S
H387 C374 0.962 . S
H388 C374 0.960 . S
H389 C375 0.961 . S
H390 C375 0.961 . S
H391 C375 0.961 . S
H392 C376 0.931 . S
H393 C381 0.930 . S
H394 C382 0.960 . S
H395 C382 0.961 . S
H396 C382 0.961 . S
H397 C383 0.958 . S
H398 C383 0.961 . S
H399 C383 0.960 . S
C400 C401 1.391 1_655 S
C400 C402 1.394 . S
C400 H416 0.931 . S
C401 C400 1.391 1_455 S
C401 C405 1.376 . S
C402 C400 1.394 . S
C402 C403 1.369 1_655 S
C402 C406 1.531 . S
C403 C402 1.369 1_455 S
C403 C404 1.410 . S
C403 C411 1.503 . S
C404 C403 1.410 . S
C404 C405 1.392 . S
C404 C407 1.511 . S
C405 C401 1.376 . S
C405 C404 1.392 . S
C405 H417 0.929 . S
C406 C402 1.531 . S
C406 H418 0.960 . S
C406 H419 0.962 . S
C406 H420 0.960 . S
C407 C404 1.511 . S
C407 H421 0.961 1_545 S
C407 H422 0.961 1_545 S
C407 H423 0.961 . S
C408 C409 1.370 1_655 S
C408 C410 1.363 . S
C408 H424 0.931 1_545 S
C409 C408 1.370 1_455 S
C409 C413 1.408 . S
C410 C408 1.363 . S
C410 C411 1.370 1_655 S
C410 C414 1.524 1_545 S
C411 C403 1.503 . S
C411 C410 1.370 1_455 S
C411 C412 1.403 . S
C412 C411 1.403 . S
C412 C413 1.404 . S
C412 C415 1.539 . S
C413 C409 1.408 . S
C413 C412 1.404 . S
C413 H425 0.930 . S
C414 C410 1.524 1_565 S
C414 H426 0.956 . S
C414 H427 0.961 . S
C414 H428 0.961 . S
C415 C412 1.539 . S
C415 H429 0.958 . S
C415 H430 0.961 . S
C415 H431 0.960 . S
H416 C400 0.931 . S
H417 C405 0.929 . S
H418 C406 0.960 . S
H419 C406 0.962 . S
H420 C406 0.960 . S
H421 C407 0.961 1_565 S
H422 C407 0.961 1_565 S
H423 C407 0.961 . S
H424 C408 0.931 1_565 S
H425 C413 0.930 . S
H426 C414 0.956 . S
H427 C414 0.961 . S
H428 C414 0.961 . S
H429 C415 0.958 . S
H430 C415 0.961 . S
H431 C415 0.960 . S
C432 C433 1.391 . S
C432 C434 1.394 . S
C432 H448 0.931 . S
C433 C432 1.391 . S
C433 C437 1.376 . S
C434 C432 1.394 . S
C434 C435 1.369 . S
C434 C438 1.531 . S
C435 C434 1.369 . S
C435 C436 1.410 . S
C435 C443 1.503 . S
C436 C435 1.410 . S
C436 C437 1.392 . S
C436 C439 1.511 . S
C437 C433 1.376 . S
C437 C436 1.392 . S
C437 H449 0.929 . S
C438 C434 1.531 . S
C438 H450 0.960 . S
C438 H451 0.962 . S
C438 H452 0.960 . S
C439 C436 1.511 . S
C439 H453 0.961 . S
C439 H454 0.961 . S
C439 H455 0.961 . S
C440 C441 1.370 . S
C440 C442 1.363 . S
C440 H456 0.931 . S
C441 C440 1.370 . S
C441 C445 1.408 . S
C442 C440 1.363 . S
C442 C443 1.370 . S
C442 C446 1.524 . S
C443 C435 1.503 . S
C443 C442 1.370 . S
C443 C444 1.403 . S
C444 C443 1.403 . S
C444 C445 1.404 . S
C444 C447 1.539 . S
C445 C441 1.408 . S
C445 C444 1.404 . S
C445 H457 0.930 . S
C446 C442 1.524 . S
C446 H458 0.956 . S
C446 H459 0.961 . S
C446 H460 0.961 . S
C447 C444 1.539 . S
C447 H461 0.958 . S
C447 H462 0.961 . S
C447 H463 0.960 . S
H448 C432 0.931 . S
H449 C437 0.929 . S
H450 C438 0.960 . S
H451 C438 0.962 . S
H452 C438 0.960 . S
H453 C439 0.961 . S
H454 C439 0.961 . S
H455 C439 0.961 . S
H456 C440 0.931 . S
H457 C445 0.930 . S
H458 C446 0.956 . S
H459 C446 0.961 . S
H460 C446 0.961 . S
H461 C447 0.958 . S
H462 C447 0.961 . S
H463 C447 0.960 . S
C464 C465 1.391 . S
C464 C466 1.394 . S
C464 H480 0.931 . S
C465 C464 1.391 . S
C465 C469 1.376 . S
C466 C464 1.394 . S
C466 C467 1.369 . S
C466 C470 1.531 . S
C467 C466 1.369 . S
C467 C468 1.410 . S
C467 C475 1.503 . S
C468 C467 1.410 . S
C468 C469 1.392 . S
C468 C471 1.511 . S
C469 C465 1.376 . S
C469 C468 1.392 . S
C469 H481 0.929 . S
C470 C466 1.531 . S
C470 H482 0.960 . S
C470 H483 0.962 . S
C470 H484 0.960 . S
C471 C468 1.511 . S
C471 H485 0.961 . S
C471 H486 0.961 . S
C471 H487 0.961 . S
C472 C473 1.370 . S
C472 C474 1.363 . S
C472 H488 0.931 . S
C473 C472 1.370 . S
C473 C477 1.408 . S
C474 C472 1.363 . S
C474 C475 1.370 . S
C474 C478 1.524 . S
C475 C467 1.503 . S
C475 C474 1.370 . S
C475 C476 1.403 . S
C476 C475 1.403 . S
C476 C477 1.404 . S
C476 C479 1.539 . S
C477 C473 1.408 . S
C477 C476 1.404 . S
C477 H489 0.930 . S
C478 C474 1.524 . S
C478 H490 0.956 . S
C478 H491 0.961 . S
C478 H492 0.961 . S
C479 C476 1.539 . S
C479 H493 0.958 . S
C479 H494 0.961 . S
C479 H495 0.960 . S
H480 C464 0.931 . S
H481 C469 0.929 . S
H482 C470 0.960 . S
H483 C470 0.962 . S
H484 C470 0.960 . S
H485 C471 0.961 . S
H486 C471 0.961 . S
H487 C471 0.961 . S
H488 C472 0.931 . S
H489 C477 0.930 . S
H490 C478 0.956 . S
H491 C478 0.961 . S
H492 C478 0.961 . S
H493 C479 0.958 . S
H494 C479 0.961 . S
H495 C479 0.960 . S
C121 N101 1.393 . S
C113 C27 1.409 . S
C145 N6 1.366 . S
C153 N88 1.393 . S
C177 C16 1.474 . S
C185 N100 1.478 . S
C209 N14 1.396 1_556 S
C217 N87 1.455 . S
C241 C57 1.386 . S
C249 N75 1.380 . S
C273 N36 1.345 . S
C281 N62 1.389 . S
C313 N74 1.481 . S
C305 C46 1.470 . S
C345 N61 1.448 . S
C337 N44 1.435 . S
C369 C10 1.462 . S
C377 N65 1.458 . S
C401 C1 1.558 . S
C409 N78 1.545 . S
C441 N91 1.459 . S
C433 C40 1.467 . S
C465 C31 1.561 . S
C473 N104 1.543 . S
