# Generated by pormake.
# Topology eea, (3,6)-cn, num edge types: 1
# Building blocks:
#     Node 0, Type 0, BuildingBlock: PAMTOO_clean_linker_0, # of connection points: 3
#     Node 1, Type 0, BuildingBlock: PAMTOO_clean_linker_0, # of connection points: 3
#     Node 2, Type 0, BuildingBlock: PAMTOO_clean_linker_0, # of connection points: 3
#     Node 3, Type 0, BuildingBlock: PAMTOO_clean_linker_0, # of connection points: 3
#     Node 4, Type 0, BuildingBlock: PAMTOO_clean_linker_0, # of connection points: 3
#     Node 5, Type 0, BuildingBlock: PAMTOO_clean_linker_0, # of connection points: 3
#     Node 6, Type 0, BuildingBlock: PAMTOO_clean_linker_0, # of connection points: 3
#     Node 7, Type 0, BuildingBlock: PAMTOO_clean_linker_0, # of connection points: 3
#     Node 8, Type 0, BuildingBlock: PAMTOO_clean_linker_0, # of connection points: 3
#     Node 9, Type 0, BuildingBlock: PAMTOO_clean_linker_0, # of connection points: 3
#     Node 10, Type 0, BuildingBlock: PAMTOO_clean_linker_0, # of connection points: 3
#     Node 11, Type 0, BuildingBlock: PAMTOO_clean_linker_0, # of connection points: 3
#     Node 12, Type 0, BuildingBlock: PAMTOO_clean_linker_0, # of connection points: 3
#     Node 13, Type 0, BuildingBlock: PAMTOO_clean_linker_0, # of connection points: 3
#     Node 14, Type 0, BuildingBlock: PAMTOO_clean_linker_0, # of connection points: 3
#     Node 15, Type 0, BuildingBlock: PAMTOO_clean_linker_0, # of connection points: 3
#     Node 16, Type 0, BuildingBlock: PAMTOO_clean_linker_0, # of connection points: 3
#     Node 17, Type 0, BuildingBlock: PAMTOO_clean_linker_0, # of connection points: 3
#     Node 18, Type 1, BuildingBlock: HISSIN_clean_sbu_0, # of connection points: 6
#     Node 19, Type 1, BuildingBlock: HISSIN_clean_sbu_0, # of connection points: 6
#     Node 20, Type 1, BuildingBlock: HISSIN_clean_sbu_0, # of connection points: 6
#     Node 21, Type 1, BuildingBlock: HISSIN_clean_sbu_0, # of connection points: 6
#     Node 22, Type 1, BuildingBlock: HISSIN_clean_sbu_0, # of connection points: 6
#     Node 23, Type 1, BuildingBlock: HISSIN_clean_sbu_0, # of connection points: 6
#     Node 24, Type 1, BuildingBlock: HISSIN_clean_sbu_0, # of connection points: 6
#     Node 25, Type 1, BuildingBlock: HISSIN_clean_sbu_0, # of connection points: 6
#     Node 26, Type 1, BuildingBlock: HISSIN_clean_sbu_0, # of connection points: 6
#     Edge 27, Type (0, 1), BuildingBlock: MIFKUJ_clean_linker_0, # of connection points: 2
#     Edge 28, Type (0, 1), BuildingBlock: MIFKUJ_clean_linker_0, # of connection points: 2
#     Edge 29, Type (0, 1), BuildingBlock: MIFKUJ_clean_linker_0, # of connection points: 2
#     Edge 30, Type (0, 1), BuildingBlock: MIFKUJ_clean_linker_0, # of connection points: 2
#     Edge 31, Type (0, 1), BuildingBlock: MIFKUJ_clean_linker_0, # of connection points: 2
#     Edge 32, Type (0, 1), BuildingBlock: MIFKUJ_clean_linker_0, # of connection points: 2
#     Edge 33, Type (0, 1), BuildingBlock: MIFKUJ_clean_linker_0, # of connection points: 2
#     Edge 34, Type (0, 1), BuildingBlock: MIFKUJ_clean_linker_0, # of connection points: 2
#     Edge 35, Type (0, 1), BuildingBlock: MIFKUJ_clean_linker_0, # of connection points: 2
#     Edge 36, Type (0, 1), BuildingBlock: MIFKUJ_clean_linker_0, # of connection points: 2
#     Edge 37, Type (0, 1), BuildingBlock: MIFKUJ_clean_linker_0, # of connection points: 2
#     Edge 38, Type (0, 1), BuildingBlock: MIFKUJ_clean_linker_0, # of connection points: 2
#     Edge 39, Type (0, 1), BuildingBlock: MIFKUJ_clean_linker_0, # of connection points: 2
#     Edge 40, Type (0, 1), BuildingBlock: MIFKUJ_clean_linker_0, # of connection points: 2
#     Edge 41, Type (0, 1), BuildingBlock: MIFKUJ_clean_linker_0, # of connection points: 2
#     Edge 42, Type (0, 1), BuildingBlock: MIFKUJ_clean_linker_0, # of connection points: 2
#     Edge 43, Type (0, 1), BuildingBlock: MIFKUJ_clean_linker_0, # of connection points: 2
#     Edge 44, Type (0, 1), BuildingBlock: MIFKUJ_clean_linker_0, # of connection points: 2
#     Edge 45, Type (0, 1), BuildingBlock: MIFKUJ_clean_linker_0, # of connection points: 2
#     Edge 46, Type (0, 1), BuildingBlock: MIFKUJ_clean_linker_0, # of connection points: 2
#     Edge 47, Type (0, 1), BuildingBlock: MIFKUJ_clean_linker_0, # of connection points: 2
#     Edge 48, Type (0, 1), BuildingBlock: MIFKUJ_clean_linker_0, # of connection points: 2
#     Edge 49, Type (0, 1), BuildingBlock: MIFKUJ_clean_linker_0, # of connection points: 2
#     Edge 50, Type (0, 1), BuildingBlock: MIFKUJ_clean_linker_0, # of connection points: 2
#     Edge 51, Type (0, 1), BuildingBlock: MIFKUJ_clean_linker_0, # of connection points: 2
#     Edge 52, Type (0, 1), BuildingBlock: MIFKUJ_clean_linker_0, # of connection points: 2
#     Edge 53, Type (0, 1), BuildingBlock: MIFKUJ_clean_linker_0, # of connection points: 2
#     Edge 54, Type (0, 1), BuildingBlock: MIFKUJ_clean_linker_0, # of connection points: 2
#     Edge 55, Type (0, 1), BuildingBlock: MIFKUJ_clean_linker_0, # of connection points: 2
#     Edge 56, Type (0, 1), BuildingBlock: MIFKUJ_clean_linker_0, # of connection points: 2
#     Edge 57, Type (0, 1), BuildingBlock: MIFKUJ_clean_linker_0, # of connection points: 2
#     Edge 58, Type (0, 1), BuildingBlock: MIFKUJ_clean_linker_0, # of connection points: 2
#     Edge 59, Type (0, 1), BuildingBlock: MIFKUJ_clean_linker_0, # of connection points: 2
#     Edge 60, Type (0, 1), BuildingBlock: MIFKUJ_clean_linker_0, # of connection points: 2
#     Edge 61, Type (0, 1), BuildingBlock: MIFKUJ_clean_linker_0, # of connection points: 2
#     Edge 62, Type (0, 1), BuildingBlock: MIFKUJ_clean_linker_0, # of connection points: 2
#     Edge 63, Type (0, 1), BuildingBlock: MIFKUJ_clean_linker_0, # of connection points: 2
#     Edge 64, Type (0, 1), BuildingBlock: MIFKUJ_clean_linker_0, # of connection points: 2
#     Edge 65, Type (0, 1), BuildingBlock: MIFKUJ_clean_linker_0, # of connection points: 2
#     Edge 66, Type (0, 1), BuildingBlock: MIFKUJ_clean_linker_0, # of connection points: 2
#     Edge 67, Type (0, 1), BuildingBlock: MIFKUJ_clean_linker_0, # of connection points: 2
#     Edge 68, Type (0, 1), BuildingBlock: MIFKUJ_clean_linker_0, # of connection points: 2
#     Edge 69, Type (0, 1), BuildingBlock: MIFKUJ_clean_linker_0, # of connection points: 2
#     Edge 70, Type (0, 1), BuildingBlock: MIFKUJ_clean_linker_0, # of connection points: 2
#     Edge 71, Type (0, 1), BuildingBlock: MIFKUJ_clean_linker_0, # of connection points: 2
#     Edge 72, Type (0, 1), BuildingBlock: MIFKUJ_clean_linker_0, # of connection points: 2
#     Edge 73, Type (0, 1), BuildingBlock: MIFKUJ_clean_linker_0, # of connection points: 2
#     Edge 74, Type (0, 1), BuildingBlock: MIFKUJ_clean_linker_0, # of connection points: 2
#     Edge 75, Type (0, 1), BuildingBlock: MIFKUJ_clean_linker_0, # of connection points: 2
#     Edge 76, Type (0, 1), BuildingBlock: MIFKUJ_clean_linker_0, # of connection points: 2
#     Edge 77, Type (0, 1), BuildingBlock: MIFKUJ_clean_linker_0, # of connection points: 2
#     Edge 78, Type (0, 1), BuildingBlock: MIFKUJ_clean_linker_0, # of connection points: 2
#     Edge 79, Type (0, 1), BuildingBlock: MIFKUJ_clean_linker_0, # of connection points: 2
#     Edge 80, Type (0, 1), BuildingBlock: MIFKUJ_clean_linker_0, # of connection points: 2
# Relax obj value: 0.056
# Max RMSD: 0.196
# Mean RMSD: 0.137
data_MOF--net-eea--node1-HISSIN_clean_sbu_0--node2-PAMTOO_clean_linker_0--edge1-MIFKUJ_clean_linker_0
_symmetry_space_group_name_H-M    P1
_symmetry_Int_Tables_number       1
_symmetry_cell_setting            triclinic
loop_
_symmetry_equiv_pos_as_xyz
'x, y, z'
_cell_length_a     71.590342
_cell_length_b     72.043199
_cell_length_c     85.188391
_cell_angle_alpha  93.339269
_cell_angle_beta   93.540541
_cell_angle_gamma 119.79363
loop_
_atom_site_label
_atom_site_type_symbol
_atom_site_fract_x
_atom_site_fract_y
_atom_site_fract_z
_atom_type_partial_charge
H0 H 0.26637 0.10743 0.43013 0.0
H1 H 0.26599 0.16654 0.42597 0.0
H2 H 0.24763 0.12121 0.38518 0.0
H3 H 0.26926 0.16634 0.37685 0.0
C4 C 0.26716 0.17375 0.38793 0.0
O5 O 0.25211 0.15791 0.396 0.0
H6 H 0.28315 0.18269 0.3952 0.0
C7 C 0.26388 0.11809 0.42295 0.0
C8 C 0.25669 0.1118 0.40676 0.0
C9 C 0.26741 0.13785 0.43003 0.0
C10 C 0.26384 0.15145 0.42071 0.0
C11 C 0.25671 0.14533 0.40462 0.0
C12 C 0.25319 0.12565 0.39766 0.0
H13 H 0.93012 0.16278 0.43607 0.0
H14 H 0.87186 0.10083 0.42862 0.0
H15 H 0.91461 0.12224 0.39239 0.0
H16 H 0.86984 0.09425 0.3782 0.0
C17 C 0.86276 0.08859 0.38941 0.0
O18 O 0.87882 0.09087 0.40054 0.0
H19 H 0.85575 0.09855 0.39355 0.0
C20 C 0.91931 0.14811 0.42855 0.0
C21 C 0.92481 0.1447 0.41349 0.0
C22 C 0.9003 0.13239 0.4342 0.0
C23 C 0.88671 0.11309 0.4246 0.0
C24 C 0.89198 0.10954 0.40962 0.0
C25 C 0.91096 0.12521 0.40411 0.0
H26 H 0.86018 0.77525 0.44684 0.0
H27 H 0.92159 0.77804 0.44657 0.0
H28 H 0.89917 0.80071 0.40844 0.0
H29 H 0.91902 0.77474 0.39865 0.0
C30 C 0.93099 0.77917 0.40917 0.0
O31 O 0.93008 0.79415 0.41947 0.0
H32 H 0.92668 0.76433 0.41501 0.0
C33 C 0.87491 0.77979 0.44135 0.0
C34 C 0.87768 0.7888 0.42685 0.0
C35 C 0.89063 0.77594 0.44866 0.0
C36 C 0.90922 0.7808 0.44113 0.0
C37 C 0.91209 0.78948 0.42658 0.0
C38 C 0.89646 0.79359 0.41953 0.0
H39 H 0.07579 0.22757 0.5877 0.0
H40 H 0.13176 0.21997 0.58924 0.0
H41 H 0.091 0.2002 0.62684 0.0
H42 H 0.13779 0.2231 0.63776 0.0
C43 C 0.14394 0.21943 0.62703 0.0
O44 O 0.12655 0.20454 0.61665 0.0
H45 H 0.1533 0.23462 0.62149 0.0
C46 C 0.08592 0.2223 0.59361 0.0
C47 C 0.08071 0.21331 0.60807 0.0
C48 C 0.10413 0.22456 0.58663 0.0
C49 C 0.11749 0.21806 0.59435 0.0
C50 C 0.11296 0.20976 0.60897 0.0
C51 C 0.09452 0.20716 0.61571 0.0
H52 H 0.76167 0.84922 0.61125 0.0
H53 H 0.75753 0.90677 0.61795 0.0
H54 H 0.77545 0.88286 0.65769 0.0
H55 H 0.75017 0.90532 0.66658 0.0
C56 C 0.75225 0.91327 0.6555 0.0
O57 O 0.76909 0.9134 0.64838 0.0
H58 H 0.73679 0.90412 0.64762 0.0
C59 C 0.76298 0.86244 0.61894 0.0
C60 C 0.76909 0.86421 0.63517 0.0
C61 C 0.75855 0.87756 0.61258 0.0
C62 C 0.76074 0.89484 0.62262 0.0
C63 C 0.76662 0.89655 0.63886 0.0
C64 C 0.77065 0.88121 0.64514 0.0
H65 H 0.15376 0.90167 0.60207 0.0
H66 H 0.09127 0.84421 0.59864 0.0
H67 H 0.11445 0.88801 0.64085 0.0
H68 H 0.09201 0.84184 0.64565 0.0
C69 C 0.0799 0.83532 0.63503 0.0
O70 O 0.0823 0.85209 0.62667 0.0
H71 H 0.0828 0.82401 0.62755 0.0
C72 C 0.13922 0.89116 0.60736 0.0
C73 C 0.13637 0.89723 0.62262 0.0
C74 C 0.12316 0.87206 0.59859 0.0
C75 C 0.10385 0.85905 0.60516 0.0
C76 C 0.10084 0.86483 0.62038 0.0
C77 C 0.117 0.88386 0.62906 0.0
H78 H 0.92681 0.43537 0.76085 0.0
H79 H 0.92405 0.49346 0.75805 0.0
H80 H 0.90421 0.44823 0.71699 0.0
H81 H 0.92242 0.49176 0.70809 0.0
C82 C 0.92143 0.49972 0.71933 0.0
O83 O 0.90794 0.48434 0.7285 0.0
H84 H 0.93799 0.50936 0.72573 0.0
C85 C 0.92341 0.44576 0.754 0.0
C86 C 0.91537 0.4394 0.73796 0.0
C87 C 0.92668 0.46526 0.76138 0.0
C88 C 0.92205 0.47856 0.75251 0.0
C89 C 0.91388 0.47226 0.73659 0.0
C90 C 0.91056 0.4528 0.72934 0.0
H91 H 0.593 0.49585 0.76796 0.0
H92 H 0.535 0.43365 0.76243 0.0
H93 H 0.57457 0.45446 0.72436 0.0
H94 H 0.52739 0.42849 0.7134 0.0
C95 C 0.52191 0.42032 0.72427 0.0
O96 O 0.53972 0.42333 0.73377 0.0
H97 H 0.5134 0.42746 0.73053 0.0
C98 C 0.58195 0.4809 0.76082 0.0
C99 C 0.5864 0.47719 0.74543 0.0
C100 C 0.56332 0.46546 0.76709 0.0
C101 C 0.54922 0.446 0.7578 0.0
C102 C 0.55337 0.44218 0.74249 0.0
C103 C 0.57182 0.45768 0.73632 0.0
H104 H 0.53246 0.11365 0.78322 0.0
H105 H 0.59555 0.12037 0.78224 0.0
H106 H 0.56992 0.14054 0.74435 0.0
H107 H 0.59344 0.12071 0.73257 0.0
C108 C 0.6033 0.122 0.74362 0.0
O109 O 0.60238 0.13601 0.75493 0.0
H110 H 0.59645 0.10577 0.74789 0.0
C111 C 0.54719 0.11897 0.77757 0.0
C112 C 0.54902 0.12771 0.76301 0.0
C113 C 0.5639 0.11645 0.78478 0.0
C114 C 0.58243 0.12213 0.77694 0.0
C115 C 0.5844 0.13054 0.76232 0.0
C116 C 0.56788 0.13355 0.75548 0.0
H117 H 0.74126 0.56368 0.92279 0.0
H118 H 0.79841 0.55797 0.92465 0.0
H119 H 0.75646 0.53548 0.96133 0.0
H120 H 0.80318 0.55811 0.97307 0.0
C121 C 0.80964 0.55544 0.96214 0.0
O122 O 0.79253 0.541 0.95138 0.0
H123 H 0.81888 0.57115 0.95722 0.0
C124 C 0.75145 0.55835 0.92852 0.0
C125 C 0.74616 0.54891 0.94281 0.0
C126 C 0.77023 0.56172 0.92181 0.0
C127 C 0.78392 0.55566 0.92963 0.0
C128 C 0.77901 0.54647 0.9439 0.0
C129 C 0.76016 0.54297 0.95041 0.0
H130 H 0.42564 0.17986 0.94543 0.0
H131 H 0.42508 0.23936 0.95108 0.0
H132 H 0.44311 0.21628 0.99116 0.0
H133 H 0.42 0.24006 0.99995 0.0
C134 C 0.42197 0.24799 0.98888 0.0
O135 O 0.43805 0.24722 0.98127 0.0
H136 H 0.40621 0.23931 0.98131 0.0
C137 C 0.42769 0.19354 0.95296 0.0
C138 C 0.43462 0.19593 0.96913 0.0
C139 C 0.42415 0.20905 0.94627 0.0
C140 C 0.42777 0.22722 0.95595 0.0
C141 C 0.43452 0.22966 0.97208 0.0
C142 C 0.43797 0.21414 0.97864 0.0
H143 H 0.81729 0.23695 0.92988 0.0
H144 H 0.75557 0.17883 0.92788 0.0
H145 H 0.77871 0.22454 0.969 0.0
H146 H 0.75639 0.17977 0.97596 0.0
C147 C 0.74518 0.17213 0.96492 0.0
O148 O 0.74676 0.18782 0.95564 0.0
H149 H 0.75002 0.1615 0.95855 0.0
C150 C 0.80297 0.22654 0.93543 0.0
C151 C 0.80032 0.23316 0.95058 0.0
C152 C 0.78707 0.20695 0.92712 0.0
C153 C 0.76801 0.19405 0.93401 0.0
C154 C 0.76508 0.20047 0.94906 0.0
C155 C 0.78114 0.21996 0.9573 0.0
H156 H 0.60253 0.77475 0.09319 0.0
H157 H 0.59875 0.83228 0.09055 0.0
H158 H 0.57462 0.78489 0.05048 0.0
H159 H 0.5931 0.82746 0.04049 0.0
C160 C 0.59318 0.83635 0.05163 0.0
O161 O 0.58014 0.82193 0.06156 0.0
H162 H 0.61012 0.84584 0.05737 0.0
C163 C 0.59837 0.78471 0.08641 0.0
C164 C 0.58818 0.77724 0.07088 0.0
C165 C 0.60217 0.80448 0.09361 0.0
C166 C 0.596 0.81701 0.08513 0.0
C167 C 0.58625 0.80992 0.06959 0.0
C168 C 0.58226 0.7901 0.06252 0.0
H169 H 0.26431 0.82902 0.10424 0.0
H170 H 0.20627 0.76684 0.09915 0.0
H171 H 0.24513 0.78741 0.06069 0.0
H172 H 0.19822 0.76153 0.04975 0.0
C173 C 0.19272 0.75402 0.06086 0.0
O174 O 0.21032 0.7565 0.07032 0.0
H175 H 0.18503 0.76224 0.06691 0.0
C176 C 0.25319 0.81401 0.0972 0.0
C177 C 0.25734 0.81022 0.08172 0.0
C178 C 0.23468 0.79862 0.10362 0.0
C179 C 0.22044 0.77913 0.09443 0.0
C180 C 0.22431 0.77523 0.07905 0.0
C181 C 0.24264 0.79066 0.07272 0.0
H182 H 0.18955 0.43524 0.11088 0.0
H183 H 0.25228 0.44091 0.11163 0.0
H184 H 0.22786 0.4595 0.07195 0.0
H185 H 0.25092 0.43658 0.06383 0.0
C186 C 0.26269 0.44188 0.07458 0.0
O187 O 0.26057 0.45657 0.08432 0.0
H188 H 0.25892 0.42741 0.08077 0.0
C189 C 0.20399 0.43926 0.10513 0.0
C190 C 0.20634 0.4475 0.09035 0.0
C191 C 0.2203 0.43663 0.11287 0.0
C192 C 0.23953 0.44288 0.10587 0.0
C193 C 0.24217 0.45108 0.09114 0.0
C194 C 0.22565 0.4534 0.08343 0.0
H195 H 0.40632 0.8939 0.25605 0.0
H196 H 0.46451 0.88995 0.25891 0.0
H197 H 0.42412 0.87085 0.2967 0.0
H198 H 0.47084 0.89355 0.30733 0.0
C199 C 0.47685 0.88991 0.2965 0.0
O200 O 0.45941 0.87475 0.28631 0.0
H201 H 0.48587 0.90508 0.29086 0.0
C202 C 0.41744 0.89023 0.26246 0.0
C203 C 0.41282 0.88214 0.27726 0.0
C204 C 0.43601 0.89314 0.25565 0.0
C205 C 0.44994 0.88759 0.26378 0.0
C206 C 0.44559 0.87958 0.2785 0.0
C207 C 0.42707 0.87679 0.28519 0.0
H208 H 0.09783 0.51533 0.27317 0.0
H209 H 0.10206 0.57698 0.28078 0.0
H210 H 0.11922 0.55093 0.31935 0.0
H211 H 0.09787 0.57733 0.32981 0.0
C212 C 0.09954 0.5847 0.31849 0.0
O213 O 0.11518 0.58306 0.31085 0.0
H214 H 0.08357 0.57601 0.31119 0.0
C215 C 0.10187 0.52957 0.28092 0.0
C216 C 0.10914 0.53113 0.29692 0.0
C217 C 0.09922 0.54597 0.27491 0.0
C218 C 0.10374 0.56401 0.28516 0.0
C219 C 0.11065 0.56554 0.30115 0.0
C220 C 0.11338 0.54922 0.30701 0.0
H221 H 0.48675 0.5711 0.26579 0.0
H222 H 0.42462 0.51357 0.26398 0.0
H223 H 0.44762 0.56026 0.3045 0.0
H224 H 0.42564 0.51751 0.31306 0.0
C225 C 0.41502 0.50866 0.30197 0.0
O226 O 0.41594 0.52315 0.2917 0.0
H227 H 0.421 0.49841 0.29655 0.0
C228 C 0.47225 0.5611 0.27132 0.0
C229 C 0.4694 0.56825 0.28622 0.0
C230 C 0.45623 0.54146 0.26318 0.0
C231 C 0.43709 0.52884 0.27004 0.0
C232 C 0.43414 0.53565 0.28495 0.0
C233 C 0.45013 0.55534 0.29293 0.0
Eu234 Eu 0.48497 0.99393 0.99851 0.0
Eu235 Eu 0.49915 0.0112 0.03663 0.0
C236 C 0.48122 0.03344 0.01399 0.0
C237 C 0.48601 0.99531 0.95452 0.0
C238 C 0.49734 0.0179 0.95632 0.0
C239 C 0.49492 0.99593 0.92744 0.0
C240 C 0.50724 0.02942 0.94373 0.0
C241 C 0.4849 0.98441 0.94002 0.0
C242 C 0.5062 0.01857 0.92914 0.0
C243 C 0.47646 0.98317 0.96798 0.0
O244 O 0.46286 0.9894 0.03329 0.0
O245 O 0.45936 0.9679 0.01104 0.0
C246 C 0.45183 0.97141 0.02388 0.0
O247 O 0.50657 0.98184 0.00795 0.0
O248 O 0.49403 0.02411 0.05871 0.0
O249 O 0.52001 0.0169 0.05827 0.0
O250 O 0.49725 0.97913 0.03315 0.0
C251 C 0.50521 0.9737 0.02147 0.0
O252 O 0.51585 0.02538 0.99936 0.0
O253 O 0.53011 0.02818 0.02495 0.0
O254 O 0.49635 0.03714 0.02524 0.0
O255 O 0.48927 0.97924 0.97689 0.0
O256 O 0.4656 0.98952 0.9763 0.0
O257 O 0.47121 0.01522 1.00482 0.0
C258 C 0.5023 0.01106 0.0817 0.0
C259 C 0.51591 0.00512 0.08981 0.0
C260 C 0.47711 0.99649 0.10161 0.0
C261 C 0.51012 0.99483 0.10359 0.0
C262 C 0.48286 0.00671 0.0878 0.0
C263 C 0.49066 0.9904 0.10967 0.0
C264 C 0.50864 0.02199 0.06711 0.0
C265 C 0.53223 0.03355 0.01039 0.0
H266 H 0.49866 0.02664 0.96752 0.0
H267 H 0.49361 0.98709 0.9163 0.0
H268 H 0.51595 0.04682 0.94548 0.0
H269 H 0.4764 0.967 0.93846 0.0
H270 H 0.53111 0.00847 0.08553 0.0
H271 H 0.46191 0.99312 0.10589 0.0
H272 H 0.52107 0.99064 0.10963 0.0
H273 H 0.47203 0.01114 0.08191 0.0
Eu274 Eu 0.00879 0.48869 1.0007 0.0
Eu275 Eu 0.99283 0.48649 0.03629 0.0
C276 C 0.97011 0.44583 0.01101 0.0
C277 C 0.01337 0.49216 0.95642 0.0
C278 C 0.99188 0.48713 0.9528 0.0
C279 C 0.02055 0.50063 0.92954 0.0
C280 C 0.98467 0.48853 0.93753 0.0
C281 C 0.0277 0.49909 0.94478 0.0
C282 C 0.99891 0.49516 0.92572 0.0
C283 C 0.02101 0.49012 0.97224 0.0
O284 O 0.01586 0.47347 0.03722 0.0
O285 O 0.03538 0.48965 0.01677 0.0
C286 C 0.03316 0.47989 0.02964 0.0
O287 O 0.02184 0.52275 0.01141 0.0
O288 O 0.98033 0.46863 0.05663 0.0
O289 O 0.98553 0.50094 0.05641 0.0
O290 O 0.02464 0.5173 0.03741 0.0
C291 C 0.03038 0.53006 0.0261 0.0
O292 O 0.97775 0.48938 0.99682 0.0
O293 O 0.97649 0.50102 0.02223 0.0
O294 O 0.96643 0.45785 0.021 0.0
O295 O 0.02844 0.50693 0.98251 0.0
O296 O 0.00864 0.47235 0.9783 0.0
O297 O 0.98871 0.45377 1.00502 0.0
C298 C 0.99075 0.49014 0.08095 0.0
C299 C 0.0133 0.50009 0.08411 0.0
C300 C 0.9875 0.49154 0.10909 0.0
C301 C 0.02293 0.50584 0.09972 0.0
C302 C 0.97791 0.48581 0.09349 0.0
C303 C 0.01012 0.50173 0.11238 0.0
C304 C 0.98049 0.4847 0.06466 0.0
C305 C 0.96998 0.49748 0.00701 0.0
H306 H 0.98065 0.48194 0.96172 0.0
H307 H 0.03181 0.50557 0.92064 0.0
H308 H 0.96798 0.48444 0.93496 0.0
H309 H 0.04436 0.50309 0.94743 0.0
H310 H 0.02343 0.50359 0.0745 0.0
H311 H 0.97718 0.48786 0.11857 0.0
H312 H 0.0404 0.51385 0.10187 0.0
H313 H 0.96046 0.47809 0.0912 0.0
Eu314 Eu 0.52417 0.51965 0.03413 0.0
Eu315 Eu 0.50479 0.51646 0.99702 0.0
C316 C 0.5289 0.56026 0.01877 0.0
C317 C 0.53051 0.51992 0.07913 0.0
C318 C 0.54448 0.53071 0.0929 0.0
C319 C 0.50027 0.50372 0.09499 0.0
C320 C 0.53645 0.52823 0.10762 0.0
C321 C 0.50835 0.50632 0.08022 0.0
C322 C 0.51422 0.51481 0.10888 0.0
C323 C 0.53914 0.52426 0.06374 0.0
O324 O 0.54015 0.52743 0.99618 0.0
O325 O 0.54836 0.51736 0.01961 0.0
C326 C 0.5529 0.5235 1.00543 0.0
O327 O 0.50096 0.48461 0.02669 0.0
O328 O 0.50586 0.53269 0.97604 0.0
O329 O 0.48309 0.49857 0.97562 0.0
O330 O 0.50433 0.48547 1.00013 0.0
C331 C 0.49887 0.47485 0.01265 0.0
O332 O 0.49196 0.51777 0.03606 0.0
O333 O 0.47559 0.50545 0.01049 0.0
O334 O 0.51083 0.54741 0.00987 0.0
O335 O 0.53456 0.50767 0.05385 0.0
O336 O 0.53734 0.53906 0.05685 0.0
O337 O 0.54009 0.5525 0.02555 0.0
C338 C 0.49857 0.51099 0.95179 0.0
C339 C 0.48462 0.49213 0.94187 0.0
C340 C 0.52406 0.52216 0.9319 0.0
C341 C 0.49037 0.48825 0.92715 0.0
C342 C 0.51838 0.52597 0.94664 0.0
C343 C 0.51014 0.50326 0.92194 0.0
C344 C 0.49217 0.51492 0.9673 0.0
C345 C 0.47481 0.50964 0.0256 0.0
H346 H 0.56159 0.54148 0.09223 0.0
H347 H 0.48312 0.49311 0.09552 0.0
H348 H 0.54762 0.53737 0.11797 0.0
H349 H 0.49729 0.49799 0.06966 0.0
H350 H 0.46925 0.48033 0.94552 0.0
H351 H 0.53925 0.53424 0.9282 0.0
H352 H 0.47937 0.47338 0.91992 0.0
H353 H 0.5295 0.54074 0.95394 0.0
Eu354 Eu 0.15579 0.32608 0.33288 0.0
Eu355 Eu 0.16705 0.34612 0.3703 0.0
C356 C 0.15022 0.3656 0.34393 0.0
C357 C 0.15476 0.32331 0.28823 0.0
C358 C 0.16517 0.34579 0.28862 0.0
C359 C 0.15759 0.32084 0.26003 0.0
C360 C 0.17158 0.35573 0.27476 0.0
C361 C 0.15112 0.31092 0.27389 0.0
C362 C 0.16779 0.34337 0.26026 0.0
C363 C 0.14781 0.31273 0.30272 0.0
O364 O 0.13927 0.31236 0.36919 0.0
O365 O 0.12439 0.3101 0.34416 0.0
C366 C 0.12268 0.30361 0.35836 0.0
O367 O 0.16118 0.30268 0.346 0.0
O368 O 0.1556 0.35516 0.3909 0.0
O369 O 0.18762 0.35884 0.39276 0.0
O370 O 0.18299 0.32609 0.36738 0.0
C371 C 0.17561 0.30802 0.35823 0.0
O372 O 0.19187 0.34845 0.33712 0.0
O373 O 0.19387 0.37127 0.35799 0.0
O374 O 0.14749 0.35876 0.358 0.0
O375 O 0.16285 0.31249 0.31202 0.0
O376 O 0.13544 0.31758 0.31054 0.0
O377 O 0.1583 0.35839 0.33343 0.0
C378 C 0.16725 0.34772 0.41489 0.0
C379 C 0.17319 0.33226 0.4179 0.0
C380 C 0.14885 0.34046 0.43874 0.0
C381 C 0.16712 0.32112 0.4313 0.0
C382 C 0.15508 0.35171 0.42543 0.0
C383 C 0.15481 0.32503 0.44188 0.0
C384 C 0.17233 0.35881 0.40039 0.0
C385 C 0.20242 0.36679 0.34616 0.0
H386 H 0.16819 0.35563 0.29964 0.0
H387 H 0.15477 0.31084 0.24916 0.0
H388 H 0.17915 0.37306 0.27537 0.0
H389 H 0.14327 0.29357 0.27341 0.0
H390 H 0.18237 0.32866 0.40987 0.0
H391 H 0.13903 0.34362 0.44642 0.0
H392 H 0.17225 0.30957 0.43342 0.0
H393 H 0.15006 0.36334 0.42322 0.0
Eu394 Eu 0.6749 0.82161 0.33497 0.0
Eu395 Eu 0.66187 0.82284 0.37133 0.0
C396 C 0.63837 0.78028 0.3479 0.0
C397 C 0.67912 0.82527 0.29022 0.0
C398 C 0.65769 0.81617 0.28329 0.0
C399 C 0.69191 0.842 0.26619 0.0
C400 C 0.65345 0.81954 0.26781 0.0
C401 C 0.69615 0.83848 0.28163 0.0
C402 C 0.67052 0.83219 0.25896 0.0
C403 C 0.68407 0.82007 0.30587 0.0
O404 O 0.68552 0.81073 0.37295 0.0
O405 O 0.70162 0.82122 0.35 0.0
C406 C 0.70104 0.81425 0.36397 0.0
O407 O 0.68852 0.85637 0.34421 0.0
O408 O 0.64924 0.80619 0.39212 0.0
O409 O 0.65769 0.83955 0.39174 0.0
O410 O 0.69392 0.85277 0.37028 0.0
C411 C 0.69851 0.86467 0.35845 0.0
O412 O 0.64432 0.8234 0.33212 0.0
O413 O 0.64491 0.83684 0.35741 0.0
O414 O 0.63492 0.7931 0.35724 0.0
O415 O 0.69625 0.83614 0.31653 0.0
O416 O 0.66828 0.8041 0.31178 0.0
O417 O 0.65669 0.78771 0.34162 0.0
C418 C 0.6623 0.82816 0.41631 0.0
C419 C 0.68495 0.83944 0.41925 0.0
C420 C 0.65954 0.82582 0.44443 0.0
C421 C 0.69485 0.84402 0.43475 0.0
C422 C 0.64968 0.82135 0.42896 0.0
C423 C 0.68223 0.83723 0.4475 0.0
C424 C 0.65156 0.82331 0.40017 0.0
C425 C 0.63747 0.83242 0.34236 0.0
H426 H 0.64418 0.80594 0.28964 0.0
H427 H 0.70543 0.85216 0.25983 0.0
H428 H 0.63679 0.81152 0.2626 0.0
H429 H 0.71279 0.84571 0.28675 0.0
H430 H 0.69493 0.84469 0.40956 0.0
H431 H 0.64939 0.82063 0.45401 0.0
H432 H 0.71236 0.85266 0.43675 0.0
H433 H 0.63217 0.81263 0.42686 0.0
Eu434 Eu 0.19042 0.85147 0.36807 0.0
Eu435 Eu 0.17321 0.85219 0.33145 0.0
C436 C 0.19595 0.89413 0.35523 0.0
C437 C 0.19397 0.84894 0.41267 0.0
C438 C 0.17764 0.85389 0.41506 0.0
C439 C 0.19384 0.84027 0.43978 0.0
C440 C 0.16977 0.85246 0.42982 0.0
C441 C 0.20179 0.84184 0.42504 0.0
C442 C 0.17798 0.8459 0.44245 0.0
C443 C 0.20342 0.85181 0.39753 0.0
O444 O 0.20909 0.86468 0.33195 0.0
O445 O 0.21389 0.84854 0.35305 0.0
C446 C 0.22028 0.85783 0.34006 0.0
O447 O 0.16591 0.81747 0.35862 0.0
O448 O 0.17596 0.86976 0.31094 0.0
O449 O 0.1517 0.83598 0.30972 0.0
O450 O 0.17309 0.82107 0.33294 0.0
C451 C 0.16567 0.80899 0.34452 0.0
O452 O 0.15925 0.85157 0.37024 0.0
O453 O 0.14348 0.84031 0.34451 0.0
O454 O 0.17859 0.88214 0.34539 0.0
O455 O 0.19531 0.83488 0.38727 0.0
O456 O 0.20677 0.86896 0.39099 0.0
O457 O 0.20656 0.88573 0.36199 0.0
C458 C 0.16832 0.84868 0.28633 0.0
C459 C 0.15508 0.82925 0.27678 0.0
C460 C 0.19361 0.86028 0.2663 0.0
C461 C 0.16111 0.82529 0.26222 0.0
C462 C 0.18762 0.86421 0.28089 0.0
C463 C 0.18046 0.84076 0.2568 0.0
C464 C 0.16184 0.8526 0.3018 0.0
C465 C 0.14232 0.84401 0.35964 0.0
H466 H 0.17131 0.85932 0.40562 0.0
H467 H 0.20023 0.83476 0.44913 0.0
H468 H 0.15775 0.85715 0.43145 0.0
H469 H 0.21428 0.8378 0.42336 0.0
H470 H 0.14006 0.81702 0.28062 0.0
H471 H 0.20843 0.8727 0.26238 0.0
H472 H 0.15071 0.80998 0.2553 0.0
H473 H 0.19814 0.87945 0.28786 0.0
Eu474 Eu 0.81774 0.66003 0.66572 0.0
Eu475 Eu 0.83082 0.67856 0.70352 0.0
C476 C 0.81327 0.69976 0.67951 0.0
C477 C 0.81518 0.65742 0.62089 0.0
C478 C 0.82704 0.67991 0.62143 0.0
C479 C 0.81715 0.65475 0.59257 0.0
C480 C 0.83395 0.68978 0.60761 0.0
C481 C 0.8102 0.64491 0.60639 0.0
C482 C 0.82921 0.6773 0.59303 0.0
C483 C 0.809 0.6469 0.63547 0.0
O484 O 0.79462 0.65641 0.70002 0.0
O485 O 0.79215 0.63435 0.67851 0.0
C486 C 0.78404 0.63813 0.69091 0.0
O487 O 0.83814 0.64728 0.67639 0.0
O488 O 0.82479 0.69203 0.72494 0.0
O489 O 0.85176 0.68627 0.72546 0.0
O490 O 0.829 0.64646 0.70164 0.0
C491 C 0.83665 0.64002 0.69029 0.0
O492 O 0.84818 0.69215 0.66664 0.0
O493 O 0.86197 0.69354 0.69198 0.0
O494 O 0.82827 0.70395 0.69102 0.0
O495 O 0.82469 0.64737 0.64439 0.0
O496 O 0.79658 0.6512 0.64368 0.0
O497 O 0.80356 0.68132 0.67062 0.0
C498 C 0.83379 0.68112 0.74837 0.0
C499 C 0.81987 0.65883 0.74777 0.0
C500 C 0.83637 0.68364 0.77703 0.0
C501 C 0.81428 0.64898 0.76175 0.0
C502 C 0.84194 0.69346 0.76305 0.0
C503 C 0.82253 0.66126 0.77656 0.0
C504 C 0.84007 0.69153 0.73376 0.0
C505 C 0.86455 0.69979 0.67768 0.0
H506 H 0.8312 0.68981 0.63258 0.0
H507 H 0.81301 0.6447 0.58151 0.0
H508 H 0.84341 0.70716 0.6084 0.0
H509 H 0.80113 0.62752 0.60579 0.0
H510 H 0.81347 0.64905 0.7365 0.0
H511 H 0.84276 0.69361 0.78822 0.0
H512 H 0.80379 0.6317 0.76096 0.0
H513 H 0.85266 0.7107 0.76369 0.0
Eu514 Eu 0.34126 0.15075 0.66892 0.0
Eu515 Eu 0.32784 0.15313 0.70499 0.0
C516 C 0.30489 0.10995 0.6824 0.0
C517 C 0.34516 0.15174 0.62417 0.0
C518 C 0.34229 0.1374 0.61119 0.0
C519 C 0.33602 0.17217 0.60668 0.0
C520 C 0.33606 0.14021 0.59609 0.0
C521 C 0.34207 0.16922 0.62186 0.0
C522 C 0.33269 0.1575 0.5937 0.0
C523 C 0.35028 0.14737 0.64 0.0
O524 O 0.35211 0.1418 0.70748 0.0
O525 O 0.36814 0.15134 0.68441 0.0
C526 C 0.36772 0.14512 0.69863 0.0
O527 O 0.35519 0.18586 0.67731 0.0
O528 O 0.31478 0.13682 0.72582 0.0
O529 O 0.32322 0.17013 0.725 0.0
O530 O 0.35957 0.1833 0.70377 0.0
C531 C 0.36452 0.1947 0.69164 0.0
O532 O 0.31086 0.15282 0.66546 0.0
O533 O 0.31106 0.1668 0.69048 0.0
O534 O 0.30113 0.12306 0.6911 0.0
O535 O 0.36258 0.16384 0.65033 0.0
O536 O 0.33414 0.13206 0.6461 0.0
O537 O 0.3234 0.11726 0.67642 0.0
C538 C 0.3272 0.15906 0.74986 0.0
C539 C 0.34981 0.17027 0.75311 0.0
C540 C 0.32366 0.15699 0.77791 0.0
C541 C 0.35931 0.17494 0.76874 0.0
C542 C 0.3142 0.15244 0.76232 0.0
C543 C 0.34631 0.1683 0.7813 0.0
C544 C 0.31688 0.15402 0.73359 0.0
C545 C 0.30389 0.16212 0.67537 0.0
H546 H 0.34456 0.12381 0.61277 0.0
H547 H 0.33339 0.18555 0.60514 0.0
H548 H 0.33385 0.12883 0.58626 0.0
H549 H 0.344 0.18035 0.63179 0.0
H550 H 0.36007 0.17537 0.74358 0.0
H551 H 0.31323 0.15191 0.78734 0.0
H552 H 0.37679 0.18349 0.77099 0.0
H553 H 0.29672 0.14377 0.75998 0.0
Eu554 Eu 0.85861 0.18555 0.69858 0.0
Eu555 Eu 0.83877 0.18188 0.66174 0.0
C556 C 0.86464 0.22633 0.68298 0.0
C557 C 0.86159 0.18417 0.74317 0.0
C558 C 0.84397 0.18728 0.74512 0.0
C559 C 0.86099 0.17483 0.77012 0.0
C560 C 0.83527 0.18471 0.75961 0.0
C561 C 0.86979 0.17758 0.75565 0.0
C562 C 0.8439 0.17878 0.77239 0.0
C563 C 0.87184 0.18825 0.72833 0.0
O564 O 0.87373 0.19142 0.66016 0.0
O565 O 0.88304 0.18349 0.68424 0.0
C566 C 0.88699 0.18849 0.66973 0.0
O567 O 0.83443 0.15068 0.69098 0.0
O568 O 0.8398 0.19778 0.64054 0.0
O569 O 0.81562 0.16425 0.64102 0.0
O570 O 0.83865 0.1511 0.66462 0.0
C571 C 0.83274 0.14065 0.67714 0.0
O572 O 0.82845 0.18777 0.70028 0.0
O573 O 0.81019 0.17043 0.67605 0.0
O574 O 0.84636 0.21355 0.67426 0.0
O575 O 0.86621 0.17148 0.71834 0.0
O576 O 0.87296 0.20437 0.72138 0.0
O577 O 0.87547 0.21841 0.69009 0.0
C578 C 0.83 0.17529 0.61688 0.0
C579 C 0.84321 0.1661 0.61569 0.0
C580 C 0.82838 0.17691 0.5885 0.0
C581 C 0.84894 0.16229 0.60095 0.0
C582 C 0.82259 0.18062 0.60323 0.0
C583 C 0.84168 0.16777 0.5872 0.0
C584 C 0.82467 0.18022 0.63237 0.0
C585 C 0.81049 0.17762 0.69067 0.0
H586 H 0.83725 0.19219 0.73556 0.0
H587 H 0.86774 0.1698 0.77957 0.0
H588 H 0.82229 0.18811 0.76093 0.0
H589 H 0.88323 0.17487 0.7543 0.0
H590 H 0.84927 0.16211 0.62617 0.0
H591 H 0.82236 0.18108 0.57811 0.0
H592 H 0.85941 0.15547 0.60036 0.0
H593 H 0.81245 0.1878 0.60398 0.0
H594 H 0.28327 0.80352 0.06247 0.0
H595 H 0.31505 0.83035 0.05124 0.0
H596 H 0.30838 0.88098 0.07498 0.0
H597 H 0.27576 0.85419 0.08547 0.0
H598 H 0.31843 0.89037 0.04659 0.0
H599 H 0.34682 0.86748 0.08879 0.0
H600 H 0.35086 0.84159 0.10428 0.0
H601 H 0.3716 0.82041 0.06424 0.0
H602 H 0.36742 0.846 0.04844 0.0
H603 H 0.42685 0.97607 0.04496 0.0
H604 H 0.39283 0.94808 0.05313 0.0
H605 H 0.39509 0.9007 0.02122 0.0
H606 H 0.42911 0.92869 0.01281 0.0
H607 H 0.38724 0.88927 0.05272 0.0
H608 H 0.36021 0.91495 0.01125 0.0
H609 H 0.35731 0.94256 0.99724 0.0
H610 H 0.33537 0.96058 0.03808 0.0
H611 H 0.33844 0.93328 0.05243 0.0
C612 C 0.28834 0.82034 0.06515 0.0
C613 C 0.27691 0.82663 0.07496 0.0
C614 C 0.30674 0.8357 0.05887 0.0
C615 C 0.31439 0.85774 0.06247 0.0
C616 C 0.30289 0.86409 0.07208 0.0
C617 C 0.28435 0.84872 0.07824 0.0
C618 C 0.33436 0.87418 0.0562 0.0
C619 C 0.33352 0.89024 0.04811 0.0
C620 C 0.35402 0.87388 0.05791 0.0
C621 C 0.35658 0.85849 0.06738 0.0
C622 C 0.35208 0.85718 0.08325 0.0
C623 C 0.35443 0.84258 0.0921 0.0
C624 C 0.36142 0.82932 0.08524 0.0
C625 C 0.36615 0.83067 0.06953 0.0
C626 C 0.36381 0.84523 0.06063 0.0
C627 C 0.42007 0.95973 0.03959 0.0
C628 C 0.43068 0.95461 0.02821 0.0
C629 C 0.40059 0.94377 0.04424 0.0
C630 C 0.39143 0.92236 0.03773 0.0
C631 C 0.40191 0.91716 0.02636 0.0
C632 C 0.42128 0.93318 0.02152 0.0
C633 C 0.37123 0.90536 0.0432 0.0
C634 C 0.37208 0.88926 0.05116 0.0
C635 C 0.3517 0.90583 0.04159 0.0
C636 C 0.34975 0.9222 0.03296 0.0
C637 C 0.35494 0.92492 0.01729 0.0
C638 C 0.35324 0.94049 0.00928 0.0
C639 C 0.34621 0.95335 0.01678 0.0
C640 C 0.34083 0.95062 0.0323 0.0
C641 C 0.34253 0.93509 0.04037 0.0
H642 H 0.3449 0.96539 0.01055 0.0
H643 H 0.36323 0.81802 0.0921 0.0
H644 H 0.20977 0.47973 0.0727 0.0
H645 H 0.18056 0.48455 0.06119 0.0
H646 H 0.1336 0.4265 0.07937 0.0
H647 H 0.16248 0.4207 0.08983 0.0
H648 H 0.11776 0.42784 0.05226 0.0
H649 H 0.15191 0.47921 0.09785 0.0
H650 H 0.18203 0.50908 0.11516 0.0
H651 H 0.1941 0.55089 0.07846 0.0
H652 H 0.16422 0.52116 0.06084 0.0
H653 H 0.0316 0.45185 0.0507 0.0
H654 H 0.06108 0.44592 0.06024 0.0
H655 H 0.10423 0.49428 0.03217 0.0
H656 H 0.07492 0.50012 0.02243 0.0
H657 H 0.12168 0.49803 0.06401 0.0
H658 H 0.08527 0.44469 0.01895 0.0
H659 H 0.05344 0.41428 1.00337 0.0
H660 H 0.04369 0.37542 0.04177 0.0
H661 H 0.07531 0.40572 0.05768 0.0
C662 C 0.19322 0.46775 0.074 0.0
C663 C 0.1886 0.44997 0.08243 0.0
C664 C 0.1765 0.4707 0.06759 0.0
C665 C 0.15483 0.4562 0.06974 0.0
C666 C 0.15015 0.43806 0.07765 0.0
C667 C 0.16678 0.43491 0.08382 0.0
C668 C 0.13701 0.45999 0.06401 0.0
C669 C 0.11858 0.44314 0.05501 0.0
C670 C 0.13801 0.47999 0.06741 0.0
C671 C 0.15599 0.4979 0.07797 0.0
C672 C 0.1611 0.49473 0.09343 0.0
C673 C 0.17811 0.51164 0.1033 0.0
C674 C 0.19001 0.53185 0.09789 0.0
C675 C 0.18489 0.53521 0.08262 0.0
C676 C 0.16792 0.51834 0.07269 0.0
C677 C 0.04737 0.46123 0.04657 0.0
C678 C 0.05088 0.47637 0.03574 0.0
C679 C 0.06416 0.45778 0.052 0.0
C680 C 0.08478 0.4696 0.04683 0.0
C681 C 0.08842 0.48498 0.03627 0.0
C682 C 0.07161 0.48822 0.03067 0.0
C683 C 0.10262 0.46591 0.05236 0.0
C684 C 0.12099 0.48278 0.0613 0.0
C685 C 0.10138 0.44583 0.04918 0.0
C686 C 0.08252 0.42754 0.03956 0.0
C687 C 0.07624 0.42972 0.02412 0.0
C688 C 0.05825 0.41249 0.01522 0.0
C689 C 0.04651 0.39295 0.02159 0.0
C690 C 0.05278 0.39057 0.03686 0.0
C691 C 0.07074 0.40776 0.04581 0.0
H692 H 0.03259 0.37963 0.01468 0.0
H693 H 0.20316 0.54493 0.10556 0.0
H694 H 0.61317 0.75826 0.07301 0.0
H695 H 0.60361 0.72206 0.06236 0.0
H696 H 0.54225 0.71153 0.04141 0.0
H697 H 0.55126 0.74731 0.05263 0.0
H698 H 0.53667 0.67818 0.05599 0.0
H699 H 0.58398 0.72046 0.01889 0.0
H700 H 0.61752 0.74952 0.01032 0.0
H701 H 0.65381 0.72278 0.03122 0.0
H702 H 0.62052 0.69371 0.04011 0.0
H703 H 0.50746 0.58107 0.0097 0.0
H704 H 0.51842 0.61878 0.01661 0.0
H705 H 0.57753 0.62937 0.0419 0.0
H706 H 0.56678 0.59174 0.035 0.0
H707 H 0.58395 0.66272 0.02406 0.0
H708 H 0.53674 0.62143 0.06201 0.0
H709 H 0.50309 0.59222 0.07034 0.0
H710 H 0.4665 0.61734 0.04743 0.0
H711 H 0.49991 0.64653 0.03875 0.0
C712 C 0.5976 0.74821 0.06619 0.0
C713 C 0.58299 0.75571 0.06367 0.0
C714 C 0.59226 0.7276 0.05996 0.0
C715 C 0.57231 0.71417 0.05093 0.0
C716 C 0.55777 0.72166 0.04829 0.0
C717 C 0.56304 0.74221 0.05459 0.0
C718 C 0.56622 0.69199 0.04477 0.0
C719 C 0.54685 0.67485 0.04878 0.0
C720 C 0.57973 0.6876 0.03567 0.0
C721 C 0.59978 0.70502 0.03029 0.0
C722 C 0.59914 0.72087 0.02176 0.0
C723 C 0.6181 0.73732 0.01683 0.0
C724 C 0.63779 0.73802 0.02026 0.0
C725 C 0.63855 0.72223 0.02859 0.0
C726 C 0.61964 0.70575 0.03357 0.0
C727 C 0.52288 0.59145 0.01661 0.0
C728 C 0.53617 0.58337 0.02191 0.0
C729 C 0.52909 0.61297 0.02058 0.0
C730 C 0.54867 0.62676 0.0299 0.0
C731 C 0.56234 0.61896 0.0347 0.0
C732 C 0.55612 0.59743 0.0308 0.0
C733 C 0.55445 0.64906 0.03527 0.0
C734 C 0.57375 0.66615 0.03117 0.0
C735 C 0.54087 0.65345 0.04426 0.0
C736 C 0.52079 0.63603 0.04959 0.0
C737 C 0.52149 0.62062 0.05864 0.0
C738 C 0.50247 0.60409 0.06344 0.0
C739 C 0.48266 0.60289 0.05938 0.0
C740 C 0.48185 0.61827 0.05054 0.0
C741 C 0.50083 0.63482 0.04569 0.0
H742 H 0.46795 0.59007 0.0631 0.0
H743 H 0.65246 0.75078 0.01643 0.0
H744 H 0.79567 0.2631 0.96881 0.0
H745 H 0.82424 0.29823 0.98119 0.0
H746 H 0.87254 0.28585 0.96337 0.0
H747 H 0.84422 0.25032 0.95176 0.0
H748 H 0.88662 0.30564 0.99172 0.0
H749 H 0.85459 0.31695 0.94478 0.0
H750 H 0.82507 0.31445 0.9266 0.0
H751 H 0.81081 0.34876 0.96235 0.0
H752 H 0.84006 0.35119 0.98083 0.0
H753 H 0.97303 0.41433 0.99354 0.0
H754 H 0.944 0.37744 0.98512 0.0
H755 H 0.89916 0.38961 0.00897 0.0
H756 H 0.92799 0.4264 0.01745 0.0
H757 H 0.88308 0.37008 0.97855 0.0
H758 H 0.91751 0.35995 0.02497 0.0
H759 H 0.94843 0.36324 0.0419 0.0
H760 H 0.95978 0.32746 1.0054 0.0
H761 H 0.92909 0.3242 0.98816 0.0
C762 C 0.81238 0.26768 0.96777 0.0
C763 C 0.81759 0.25396 0.95909 0.0
C764 C 0.82871 0.28789 0.97471 0.0
C765 C 0.85056 0.29492 0.97293 0.0
C766 C 0.85582 0.28091 0.96482 0.0
C767 C 0.83956 0.26065 0.95802 0.0
C768 C 0.86793 0.31705 0.97906 0.0
C769 C 0.88591 0.31972 0.98871 0.0
C770 C 0.86696 0.33549 0.97533 0.0
C771 C 0.84935 0.33403 0.96425 0.0
C772 C 0.84504 0.3238 0.94881 0.0
C773 C 0.82838 0.32242 0.93844 0.0
C774 C 0.81603 0.33138 0.94333 0.0
C775 C 0.82036 0.34178 0.95859 0.0
C776 C 0.83698 0.34318 0.96901 0.0
C777 C 0.95702 0.40913 0.99705 0.0
C778 C 0.95285 0.42331 0.0062 0.0
C779 C 0.94047 0.38803 0.99228 0.0
C780 C 0.91946 0.38076 0.99652 0.0
C781 C 0.91526 0.39489 1.0056 0.0
C782 C 0.9318 0.4159 0.01048 0.0
C783 C 0.90169 0.3586 0.99115 0.0
C784 C 0.88368 0.35596 0.98162 0.0
C785 C 0.90279 0.34024 0.99481 0.0
C786 C 0.92112 0.34201 1.00522 0.0
C787 C 0.92669 0.35292 0.02051 0.0
C788 C 0.94416 0.35476 0.03017 0.0
C789 C 0.9561 0.34561 0.02471 0.0
C790 C 0.95054 0.33455 0.0096 0.0
C791 C 0.93309 0.33269 0.99989 0.0
H792 H 0.96962 0.34706 0.03221 0.0
H793 H 0.80314 0.3303 0.93529 0.0
H794 H 0.74065 0.55368 0.97418 0.0
H795 H 0.70807 0.54882 0.98542 0.0
H796 H 0.67417 0.5325 0.93863 0.0
H797 H 0.70636 0.53659 0.9273 0.0
H798 H 0.66941 0.56305 0.95705 0.0
H799 H 0.66339 0.49386 0.96158 0.0
H800 H 0.67618 0.4695 0.96988 0.0
H801 H 0.68235 0.49313 0.01848 0.0
H802 H 0.66988 0.51787 0.01044 0.0
H803 H 0.56237 0.52441 0.97484 0.0
H804 H 0.59532 0.52844 0.965 0.0
H805 H 0.62228 0.53305 0.01277 0.0
H806 H 0.58887 0.52811 0.02265 0.0
H807 H 0.6318 0.50955 0.99474 0.0
H808 H 0.63801 0.57831 0.99124 0.0
H809 H 0.62634 0.60385 0.9838 0.0
H810 H 0.6216 0.5832 0.93468 0.0
H811 H 0.63298 0.55733 0.94183 0.0
C812 C 0.72619 0.54872 0.96627 0.0
C813 C 0.72623 0.54556 0.9498 0.0
C814 C 0.7076 0.54606 0.97273 0.0
C815 C 0.68869 0.54026 0.96286 0.0
C816 C 0.68863 0.53709 0.94645 0.0
C817 C 0.70712 0.53955 0.94 0.0
C818 C 0.66903 0.5378 0.96958 0.0
C819 C 0.66102 0.55119 0.96515 0.0
C820 C 0.65852 0.52281 0.98055 0.0
C821 C 0.66592 0.50787 0.9854 0.0
C822 C 0.66765 0.49399 0.97403 0.0
C823 C 0.67481 0.48009 0.97869 0.0
C824 C 0.68013 0.47981 0.9947 0.0
C825 C 0.67825 0.49339 0.00608 0.0
C826 C 0.67112 0.50734 1.00148 0.0
C827 C 0.57532 0.52634 0.98328 0.0
C828 C 0.57304 0.52609 0.99955 0.0
C829 C 0.59424 0.52875 0.97763 0.0
C830 C 0.61156 0.53152 0.98814 0.0
C831 C 0.60922 0.53102 1.0044 0.0
C832 C 0.59012 0.52825 0.01005 0.0
C833 C 0.63197 0.53472 0.98213 0.0
C834 C 0.64018 0.5215 0.9867 0.0
C835 C 0.64286 0.5501 0.97144 0.0
C836 C 0.63618 0.56576 0.96708 0.0
C837 C 0.63435 0.57912 0.97886 0.0
C838 C 0.62781 0.59367 0.97469 0.0
C839 C 0.62319 0.59511 0.95878 0.0
C840 C 0.62517 0.58205 0.947 0.0
C841 C 0.63169 0.56746 0.9511 0.0
H842 H 0.61812 0.60638 0.95558 0.0
H843 H 0.68567 0.46904 0.99828 0.0
H844 H 0.41028 0.15219 0.96308 0.0
H845 H 0.41811 0.1254 0.97298 0.0
H846 H 0.4755 0.17571 1.00076 0.0
H847 H 0.46823 0.20271 0.99039 0.0
H848 H 0.48403 0.1481 0.98533 0.0
H849 H 0.43019 0.14252 0.01822 0.0
H850 H 0.3952 0.1384 0.02436 0.0
H851 H 0.36163 0.07615 0.99782 0.0
H852 H 0.39642 0.08002 0.99132 0.0
H853 H 0.50229 0.07515 0.02732 0.0
H854 H 0.49386 0.10329 0.02188 0.0
H855 H 0.43916 0.05801 0.98927 0.0
H856 H 0.44741 0.02974 0.99461 0.0
H857 H 0.43007 0.08416 0.00915 0.0
H858 H 0.48404 0.09114 0.97502 0.0
H859 H 0.5191 0.09514 0.96927 0.0
H860 H 0.55255 0.15513 0.9988 0.0
H861 H 0.51763 0.1513 1.00493 0.0
C862 C 0.42461 0.15757 0.97126 0.0
C863 C 0.43867 0.17959 0.97592 0.0
C864 C 0.42893 0.14222 0.97705 0.0
C865 C 0.44726 0.14854 0.98775 0.0
C866 C 0.46122 0.17048 0.99256 0.0
C867 C 0.45694 0.18587 0.98672 0.0
C868 C 0.45227 0.13226 0.99339 0.0
C869 C 0.47237 0.13433 0.99081 0.0
C870 C 0.43689 0.11407 1.00025 0.0
C871 C 0.41592 0.11165 1.00417 0.0
C872 C 0.41534 0.12802 0.01359 0.0
C873 C 0.39554 0.12571 0.01715 0.0
C874 C 0.3762 0.10704 0.01146 0.0
C875 C 0.37662 0.09061 1.00221 0.0
C876 C 0.39638 0.09284 0.9986 0.0
C877 C 0.48837 0.07112 0.01907 0.0
C878 C 0.47558 0.05023 0.01133 0.0
C879 C 0.48363 0.08723 0.01596 0.0
C880 C 0.466 0.08272 1.0051 0.0
C881 C 0.45284 0.06177 0.9977 0.0
C882 C 0.45765 0.04568 1.00072 0.0
C883 C 0.4617 0.10001 1.00099 0.0
C884 C 0.44175 0.09807 1.00382 0.0
C885 C 0.47722 0.11835 0.99441 0.0
C886 C 0.49823 0.12082 0.99057 0.0
C887 C 0.49887 0.10511 0.98039 0.0
C888 C 0.51873 0.10735 0.97704 0.0
C889 C 0.53806 0.12535 0.98371 0.0
C890 C 0.53757 0.14118 0.99367 0.0
C891 C 0.51775 0.13898 0.99708 0.0
H892 H 0.55343 0.12708 0.98113 0.0
H893 H 0.36089 0.10529 0.01423 0.0
H894 H 0.72675 0.18019 0.98969 0.0
H895 H 0.68989 0.15803 0.99692 0.0
H896 H 0.67526 0.11267 0.95623 0.0
H897 H 0.71205 0.13503 0.94889 0.0
H898 H 0.64161 0.11897 0.9603 0.0
H899 H 0.68802 0.10277 0.99269 0.0
H900 H 0.71941 0.1111 0.0115 0.0
H901 H 0.69686 0.13855 0.0464 0.0
H902 H 0.66547 0.13064 0.02771 0.0
H903 H 0.54819 0.03092 0.98295 0.0
H904 H 0.58395 0.055 0.97517 0.0
H905 H 0.60026 0.09496 0.01933 0.0
H906 H 0.56488 0.06967 0.02767 0.0
H907 H 0.63304 0.09239 0.01332 0.0
H908 H 0.587 0.10976 0.98014 0.0
H909 H 0.55501 0.09985 0.96137 0.0
H910 H 0.57584 0.06834 0.92838 0.0
H911 H 0.6082 0.07843 0.94681 0.0
C912 C 0.7156 0.1655 0.98231 0.0
C913 C 0.72229 0.15898 0.96897 0.0
C914 C 0.6946 0.15285 0.98644 0.0
C915 C 0.67993 0.13347 0.97728 0.0
C916 C 0.68633 0.12747 0.96353 0.0
C917 C 0.70733 0.14015 0.95939 0.0
C918 C 0.65821 0.11912 0.98232 0.0
C919 C 0.63973 0.11306 0.97185 0.0
C920 C 0.65569 0.1116 0.99747 0.0
C921 C 0.67452 0.11632 0.00874 0.0
C922 C 0.68985 0.11074 1.00433 0.0
C923 C 0.70762 0.11536 0.01498 0.0
C924 C 0.71016 0.12541 0.03012 0.0
C925 C 0.69489 0.1308 0.03466 0.0
C926 C 0.6771 0.12624 0.02405 0.0
C927 C 0.55943 0.04488 0.99098 0.0
C928 C 0.55381 0.04858 0.00586 0.0
C929 C 0.57981 0.05881 0.98645 0.0
C930 C 0.59468 0.07731 0.9964 0.0
C931 C 0.58907 0.08092 0.01136 0.0
C932 C 0.56888 0.06653 0.01613 0.0
C933 C 0.6163 0.09243 0.99141 0.0
C934 C 0.63482 0.09854 1.00185 0.0
C935 C 0.61883 0.09999 0.97624 0.0
C936 C 0.59998 0.09483 0.96485 0.0
C937 C 0.5848 0.10082 0.96884 0.0
C938 C 0.56664 0.09519 0.95827 0.0
C939 C 0.56342 0.08349 0.94372 0.0
C940 C 0.57839 0.07743 0.93966 0.0
C941 C 0.59676 0.08329 0.95009 0.0
H942 H 0.54939 0.07921 0.93555 0.0
H943 H 0.72393 0.12896 0.03835 0.0
H944 H 0.82621 0.55268 0.99122 0.0
H945 H 0.85324 0.54203 0.99721 0.0
H946 H 0.85527 0.52988 0.94733 0.0
H947 H 0.82811 0.54056 0.9413 0.0
H948 H 0.85522 0.49821 0.96453 0.0
H949 H 0.89449 0.57493 0.96656 0.0
H950 H 0.90292 0.6119 0.97474 0.0
H951 H 0.91322 0.60313 0.02328 0.0
H952 H 0.90454 0.56597 0.01541 0.0
H953 H 0.95323 0.49433 0.97641 0.0
H954 H 0.9259 0.50337 0.96732 0.0
H955 H 0.9216 0.52142 0.01556 0.0
H956 H 0.94905 0.5128 0.02472 0.0
H957 H 0.92359 0.55061 0.99705 0.0
H958 H 0.88263 0.4733 0.99515 0.0
H959 H 0.87425 0.43633 0.98699 0.0
H960 H 0.86732 0.4462 0.93825 0.0
H961 H 0.87596 0.48335 0.94611 0.0
C962 C 0.83224 0.54749 0.98155 0.0
C963 C 0.82491 0.54717 0.9658 0.0
C964 C 0.84775 0.54152 0.98497 0.0
C965 C 0.85639 0.53531 0.97271 0.0
C966 C 0.84878 0.53456 0.95696 0.0
C967 C 0.83329 0.54063 0.95353 0.0
C968 C 0.87383 0.53026 0.97643 0.0
C969 C 0.87032 0.50976 0.97144 0.0
C970 C 0.8934 0.54524 0.98562 0.0
C971 C 0.89867 0.56759 0.9904 0.0
C972 C 0.89838 0.58082 0.97899 0.0
C973 C 0.90323 0.60182 0.98357 0.0
C974 C 0.90855 0.60984 0.99952 0.0
C975 C 0.90907 0.59688 0.01093 0.0
C976 C 0.90421 0.57586 0.00641 0.0
C977 C 0.94646 0.5002 0.98509 0.0
C978 C 0.95336 0.50281 1.00131 0.0
C979 C 0.93076 0.50528 0.97987 0.0
C980 C 0.92153 0.5129 0.99077 0.0
C981 C 0.92848 0.5156 0.00693 0.0
C982 C 0.94418 0.51059 0.01215 0.0
C983 C 0.90485 0.51838 0.98545 0.0
C984 C 0.90854 0.53905 0.99009 0.0
C985 C 0.88548 0.50354 0.97596 0.0
C986 C 0.88016 0.48118 0.97122 0.0
C987 C 0.87948 0.46764 0.98269 0.0
C988 C 0.87466 0.44664 0.97812 0.0
C989 C 0.87031 0.43894 0.96211 0.0
C990 C 0.87072 0.4522 0.95064 0.0
C991 C 0.87556 0.47322 0.95515 0.0
H992 H 0.86658 0.42268 0.9586 0.0
H993 H 0.91231 0.62611 1.00305 0.0
H994 H 0.42023 0.27454 0.96813 0.0
H995 H 0.43271 0.31302 0.97305 0.0
H996 H 0.45081 0.31192 0.02211 0.0
H997 H 0.43825 0.27338 0.01718 0.0
H998 H 0.42992 0.33534 0.01814 0.0
H999 H 0.48881 0.33088 0.99789 0.0
H1000 H 0.50602 0.31856 0.97893 0.0
H1001 H 0.48932 0.34773 0.9422 0.0
H1002 H 0.47171 0.35996 0.96089 0.0
H1003 H 0.49485 0.44882 0.03588 0.0
H1004 H 0.48132 0.41014 0.03269 0.0
H1005 H 0.46946 0.40914 0.98226 0.0
H1006 H 0.48365 0.44789 0.98531 0.0
H1007 H 0.48766 0.38648 0.98783 0.0
H1008 H 0.42787 0.39017 0.00765 0.0
H1009 H 0.41 0.40199 0.02637 0.0
H1010 H 0.42774 0.3742 0.06355 0.0
H1011 H 0.44593 0.36239 0.0451 0.0
C1012 C 0.42664 0.28253 0.97998 0.0
C1013 C 0.42808 0.27109 0.99233 0.0
C1014 C 0.43385 0.30446 0.98277 0.0
C1015 C 0.44281 0.31531 0.99792 0.0
C1016 C 0.44389 0.3038 0.01035 0.0
C1017 C 0.43674 0.28186 0.00754 0.0
C1018 C 0.4516 0.33879 1.00066 0.0
C1019 C 0.44273 0.34659 0.01168 0.0
C1020 C 0.46803 0.35335 0.992 0.0
C1021 C 0.47876 0.34616 0.98076 0.0
C1022 C 0.48866 0.33453 0.98574 0.0
C1023 C 0.49851 0.32758 0.97504 0.0
C1024 C 0.49871 0.33231 0.95936 0.0
C1025 C 0.48912 0.34406 0.95435 0.0
C1026 C 0.47922 0.35101 0.96499 0.0
C1027 C 0.4893 0.44034 0.02412 0.0
C1028 C 0.49031 0.4514 0.01085 0.0
C1029 C 0.48146 0.4182 0.02232 0.0
C1030 C 0.47408 0.40665 0.00725 0.0
C1031 C 0.47507 0.4177 0.994 0.0
C1032 C 0.48317 0.43985 0.99577 0.0
C1033 C 0.46577 0.38314 1.00517 0.0
C1034 C 0.47482 0.3753 0.99431 0.0
C1035 C 0.44943 0.36856 0.01394 0.0
C1036 C 0.43844 0.37559 0.02503 0.0
C1037 C 0.42809 0.38672 0.01985 0.0
C1038 C 0.41788 0.39339 0.0304 0.0
C1039 C 0.41779 0.38892 0.04614 0.0
C1040 C 0.42785 0.37769 0.05136 0.0
C1041 C 0.43809 0.37097 0.04085 0.0
H1042 H 0.40988 0.39412 0.05429 0.0
H1043 H 0.50634 0.32692 0.9511 0.0
H1044 H 0.18041 0.72873 0.03252 0.0
H1045 H 0.15296 0.69055 0.02703 0.0
H1046 H 0.1407 0.68827 0.07604 0.0
H1047 H 0.16829 0.72651 0.08156 0.0
H1048 H 0.1432 0.65332 0.06439 0.0
H1049 H 0.10627 0.69092 0.04893 0.0
H1050 H 0.10097 0.71702 0.03463 0.0
H1051 H 0.09927 0.68442 0.99026 0.0
H1052 H 0.10486 0.65829 1.00431 0.0
H1053 H 0.04518 0.55307 0.05524 0.0
H1054 H 0.07267 0.59097 0.06143 0.0
H1055 H 0.08098 0.5967 0.01185 0.0
H1056 H 0.05297 0.55904 1.00554 0.0
H1057 H 0.08054 0.63016 0.02421 0.0
H1058 H 0.11782 0.59284 0.03908 0.0
H1059 H 0.12343 0.56661 0.05294 0.0
H1060 H 0.12521 0.59836 0.09773 0.0
H1061 H 0.11933 0.62464 0.08412 0.0
C1062 C 0.17183 0.72004 0.0421 0.0
C1063 C 0.17623 0.7305 0.05743 0.0
C1064 C 0.15615 0.69829 0.03896 0.0
C1065 C 0.14461 0.68665 0.0511 0.0
C1066 C 0.14938 0.69697 0.0665 0.0
C1067 C 0.16503 0.71875 0.06964 0.0
C1068 C 0.12742 0.66375 0.04768 0.0
C1069 C 0.12934 0.64825 0.05575 0.0
C1070 C 0.10963 0.65712 0.03614 0.0
C1071 C 0.10619 0.67278 0.02768 0.0
C1072 C 0.10494 0.68942 0.03612 0.0
C1073 C 0.10185 0.7042 0.02806 0.0
C1074 C 0.09984 0.70241 0.01155 0.0
C1075 C 0.10086 0.6858 1.00306 0.0
C1076 C 0.10397 0.67099 0.01106 0.0
C1077 C 0.05287 0.56241 0.04565 0.0
C1078 C 0.04693 0.55304 0.0299 0.0
C1079 C 0.06868 0.58406 0.04922 0.0
C1080 C 0.0792 0.59665 0.03714 0.0
C1081 C 0.07313 0.58734 0.02139 0.0
C1082 C 0.05712 0.56578 0.01779 0.0
C1083 C 0.09633 0.61959 0.04084 0.0
C1084 C 0.09439 0.63515 0.03284 0.0
C1085 C 0.11419 0.62624 0.05236 0.0
C1086 C 0.11794 0.61059 0.06057 0.0
C1087 C 0.11928 0.59415 0.05188 0.0
C1088 C 0.12252 0.57929 0.05969 0.0
C1089 C 0.12462 0.58079 0.0762 0.0
C1090 C 0.12355 0.59721 0.08494 0.0
C1091 C 0.12029 0.6121 0.07718 0.0
H1092 H 0.12712 0.56926 0.08223 0.0
H1093 H 0.09745 0.71387 1.00533 0.0
H1094 H 0.29919 0.45017 0.09302 0.0
H1095 H 0.33593 0.46386 0.0853 0.0
H1096 H 0.3141 0.46942 0.03837 0.0
H1097 H 0.2774 0.45559 0.04607 0.0
H1098 H 0.33722 0.44926 0.03738 0.0
H1099 H 0.34583 0.51388 0.06451 0.0
H1100 H 0.34417 0.53612 0.0869 0.0
H1101 H 0.38801 0.52504 0.11611 0.0
H1102 H 0.3897 0.50248 0.09395 0.0
H1103 H 0.4388 0.50381 0.00786 0.0
H1104 H 0.40371 0.49466 0.01669 0.0
H1105 H 0.4276 0.49448 0.06442 0.0
H1106 H 0.46306 0.5045 0.05575 0.0
H1107 H 0.40341 0.51198 0.06529 0.0
H1108 H 0.39484 0.44727 0.03869 0.0
H1109 H 0.39666 0.42479 0.01657 0.0
H1110 H 0.35241 0.43481 0.98695 0.0
H1111 H 0.35067 0.45777 0.00878 0.0
C1112 C 0.30237 0.4545 0.08111 0.0
C1113 C 0.28551 0.45167 0.07009 0.0
C1114 C 0.32333 0.46238 0.07672 0.0
C1115 C 0.32782 0.46775 0.06125 0.0
C1116 C 0.31103 0.46533 0.05034 0.0
C1117 C 0.2901 0.45749 0.05475 0.0
C1118 C 0.34974 0.47497 0.05621 0.0
C1119 C 0.35166 0.46317 0.04334 0.0
C1120 C 0.36868 0.49271 0.06428 0.0
C1121 C 0.36772 0.50632 0.07761 0.0
C1122 C 0.35498 0.51604 0.07574 0.0
C1123 C 0.35406 0.52873 0.08839 0.0
C1124 C 0.36594 0.53194 0.10293 0.0
C1125 C 0.3788 0.52252 0.10485 0.0
C1126 C 0.37976 0.50979 0.09224 0.0
C1127 C 0.43662 0.50187 0.02025 0.0
C1128 C 0.4537 0.50473 0.03107 0.0
C1129 C 0.41648 0.49655 0.02528 0.0
C1130 C 0.41277 0.4934 0.04118 0.0
C1131 C 0.42997 0.49674 0.05208 0.0
C1132 C 0.45025 0.50242 0.0471 0.0
C1133 C 0.39091 0.48634 0.04637 0.0
C1134 C 0.38898 0.49809 0.0593 0.0
C1135 C 0.37194 0.46842 0.03843 0.0
C1136 C 0.37278 0.45441 0.02534 0.0
C1137 C 0.3856 0.4448 0.02743 0.0
C1138 C 0.38661 0.43196 0.01495 0.0
C1139 C 0.37467 0.42837 1.00037 0.0
C1140 C 0.36167 0.43761 0.99825 0.0
C1141 C 0.36067 0.45055 0.01067 0.0
H1142 H 0.37548 0.41841 0.99072 0.0
H1143 H 0.36521 0.54178 0.11271 0.0
H1144 H 0.552 0.82491 0.04023 0.0
H1145 H 0.53746 0.84847 0.03447 0.0
H1146 H 0.60067 0.90408 0.04785 0.0
H1147 H 0.61503 0.8805 0.05414 0.0
H1148 H 0.57143 0.91025 0.0601 0.0
H1149 H 0.57957 0.88682 0.00861 0.0
H1150 H 0.57506 0.86062 0.98663 0.0
H1151 H 0.50605 0.8328 0.98379 0.0
H1152 H 0.51014 0.85866 0.0059 0.0
H1153 H 0.53018 0.96543 1.00256 0.0
H1154 H 0.54563 0.94244 0.00712 0.0
H1155 H 0.51404 0.92494 0.04978 0.0
H1156 H 0.49908 0.94844 0.04556 0.0
H1157 H 0.52954 0.90135 0.00884 0.0
H1158 H 0.54491 0.91749 0.0771 0.0
H1159 H 0.55217 0.94622 0.09792 0.0
H1160 H 0.58031 0.99353 0.06516 0.0
H1161 H 0.57348 0.96512 0.04422 0.0
C1162 C 0.56271 0.84218 0.04197 0.0
C1163 C 0.58454 0.85094 0.04777 0.0
C1164 C 0.55447 0.85561 0.03858 0.0
C1165 C 0.56802 0.87805 0.0406 0.0
C1166 C 0.5899 0.88682 0.04626 0.0
C1167 C 0.59811 0.87337 0.04979 0.0
C1168 C 0.55931 0.89238 0.03706 0.0
C1169 C 0.56231 0.90832 0.04888 0.0
C1170 C 0.54768 0.8901 0.02234 0.0
C1171 C 0.54516 0.87456 0.00901 0.0
C1172 C 0.56343 0.87501 1.00338 0.0
C1173 C 0.56095 0.86024 0.99088 0.0
C1174 C 0.54028 0.84502 0.98384 0.0
C1175 C 0.52205 0.84458 0.98926 0.0
C1176 C 0.52444 0.85931 1.00176 0.0
C1177 C 0.52647 0.95665 0.0129 0.0
C1178 C 0.51356 0.95888 0.02378 0.0
C1179 C 0.53528 0.94348 0.01547 0.0
C1180 C 0.53126 0.93222 0.02891 0.0
C1181 C 0.51776 0.93385 0.03951 0.0
C1182 C 0.50915 0.94722 0.03705 0.0
C1183 C 0.54147 0.91903 0.03193 0.0
C1184 C 0.5387 0.90329 0.02004 0.0
C1185 C 0.5538 0.92186 0.04644 0.0
C1186 C 0.5585 0.93914 0.05906 0.0
C1187 C 0.55276 0.93403 0.07437 0.0
C1188 C 0.55677 0.95026 0.08618 0.0
C1189 C 0.56663 0.97168 0.08285 0.0
C1190 C 0.57261 0.97693 0.06772 0.0
C1191 C 0.56865 0.96077 0.05587 0.0
H1192 H 0.56967 0.9842 0.092 0.0
H1193 H 0.5384 0.8336 0.97417 0.0
H1194 H 0.94212 0.18847 0.41701 0.0
H1195 H 0.97518 0.21583 0.40722 0.0
H1196 H 0.986 0.16629 0.38665 0.0
H1197 H 0.95325 0.13885 0.39665 0.0
H1198 H 0.01742 0.22607 0.41299 0.0
H1199 H 0.00691 0.18141 0.35147 0.0
H1200 H 0.97743 0.15496 0.3318 0.0
H1201 H 0.93455 0.17522 0.3489 0.0
H1202 H 0.96383 0.20198 0.36851 0.0
H1203 H 0.11662 0.2761 0.38053 0.0
H1204 H 0.08245 0.24903 0.38898 0.0
H1205 H 0.0475 0.26552 0.35474 0.0
H1206 H 0.08182 0.29202 0.34569 0.0
H1207 H 0.02673 0.22424 0.35576 0.0
H1208 H 0.05809 0.28492 0.39551 0.0
H1209 H 0.0873 0.31255 0.41478 0.0
H1210 H 0.08701 0.26329 0.44098 0.0
H1211 H 0.05797 0.23535 0.42175 0.0
C1212 C 0.95165 0.18338 0.41055 0.0
C1213 C 0.94496 0.16141 0.40759 0.0
C1214 C 0.9705 0.19905 0.40492 0.0
C1215 C 0.98293 0.19308 0.39609 0.0
C1216 C 0.97646 0.17123 0.39324 0.0
C1217 C 0.95767 0.15555 0.39891 0.0
C1218 C 0.00266 0.20969 0.38981 0.0
C1219 C 0.01947 0.22572 0.40048 0.0
C1220 C 0.00517 0.20939 0.37347 0.0
C1221 C 0.98752 0.19355 0.36156 0.0
C1222 C 0.99121 0.18027 0.35099 0.0
C1223 C 0.97453 0.16522 0.33985 0.0
C1224 C 0.95411 0.16336 0.33913 0.0
C1225 C 0.95035 0.17661 0.34951 0.0
C1226 C 0.96697 0.19171 0.36065 0.0
C1227 C 0.10164 0.27387 0.37473 0.0
C1228 C 0.10184 0.28629 0.36255 0.0
C1229 C 0.08212 0.25847 0.37963 0.0
C1230 C 0.06239 0.25563 0.37281 0.0
C1231 C 0.06252 0.26752 0.36026 0.0
C1232 C 0.0821 0.28265 0.3551 0.0
C1233 C 0.04173 0.24049 0.37895 0.0
C1234 C 0.02472 0.22469 0.36827 0.0
C1235 C 0.03892 0.24122 0.39527 0.0
C1236 C 0.05592 0.25803 0.40713 0.0
C1237 C 0.06428 0.27998 0.40536 0.0
C1238 C 0.08082 0.29569 0.41627 0.0
C1239 C 0.08901 0.28967 0.42908 0.0
C1240 C 0.08063 0.26792 0.43105 0.0
C1241 C 0.06411 0.25214 0.42016 0.0
H1242 H 0.10182 0.30185 0.43751 0.0
H1243 H 0.94122 0.15169 0.33051 0.0
H1244 H 0.85376 0.80332 0.44169 0.0
H1245 H 0.824 0.8071 0.43001 0.0
H1246 H 0.83388 0.7884 0.38367 0.0
H1247 H 0.86322 0.78367 0.3953 0.0
H1248 H 0.82747 0.82548 0.38608 0.0
H1249 H 0.79457 0.75231 0.39908 0.0
H1250 H 0.78737 0.72408 0.41675 0.0
H1251 H 0.76078 0.75121 0.44842 0.0
H1252 H 0.76814 0.77982 0.43104 0.0
H1253 H 0.72973 0.80945 0.3469 0.0
H1254 H 0.75977 0.80486 0.35678 0.0
H1255 H 0.74329 0.80745 0.40443 0.0
H1256 H 0.71269 0.81126 0.39453 0.0
H1257 H 0.75346 0.77786 0.40066 0.0
H1258 H 0.78661 0.85122 0.38934 0.0
H1259 H 0.79479 0.88112 0.37314 0.0
H1260 H 0.8219 0.85614 0.34019 0.0
H1261 H 0.8136 0.82591 0.35608 0.0
C1262 C 0.84955 0.79979 0.42902 0.0
C1263 C 0.86077 0.79288 0.41949 0.0
C1264 C 0.8326 0.80212 0.42236 0.0
C1265 C 0.82663 0.79783 0.40601 0.0
C1266 C 0.83827 0.79178 0.39633 0.0
C1267 C 0.85511 0.78919 0.40301 0.0
C1268 C 0.80778 0.79908 0.39918 0.0
C1269 C 0.81121 0.81489 0.38904 0.0
C1270 C 0.78673 0.78564 0.40345 0.0
C1271 C 0.78209 0.76832 0.41383 0.0
C1272 C 0.78735 0.75236 0.40987 0.0
C1273 C 0.78321 0.73627 0.41982 0.0
C1274 C 0.77367 0.73588 0.43372 0.0
C1275 C 0.76819 0.75155 0.43766 0.0
C1276 C 0.77233 0.76769 0.42776 0.0
C1277 C 0.73247 0.809 0.35949 0.0
C1278 C 0.71886 0.81081 0.36994 0.0
C1279 C 0.74975 0.80649 0.36514 0.0
C1280 C 0.75412 0.80622 0.3814 0.0
C1281 C 0.74031 0.80765 0.39183 0.0
C1282 C 0.72282 0.80984 0.38616 0.0
C1283 C 0.77303 0.80441 0.38755 0.0
C1284 C 0.76965 0.78848 0.3976 0.0
C1285 C 0.7942 0.81798 0.38337 0.0
C1286 C 0.79928 0.83618 0.37382 0.0
C1287 C 0.79417 0.85202 0.37858 0.0
C1288 C 0.79885 0.86904 0.36946 0.0
C1289 C 0.8088 0.8705 0.35562 0.0
C1290 C 0.81416 0.85497 0.35089 0.0
C1291 C 0.80949 0.8379 0.35996 0.0
H1292 H 0.81241 0.88369 0.34857 0.0
H1293 H 0.77048 0.72341 0.44141 0.0
H1294 H 0.2224 0.08343 0.38562 0.0
H1295 H 0.21348 0.04741 0.37507 0.0
H1296 H 0.27063 0.05525 0.4017 0.0
H1297 H 0.28018 0.0917 0.41179 0.0
H1298 H 0.26481 0.0352 0.37276 0.0
H1299 H 0.22124 0.02759 0.41519 0.0
H1300 H 0.19546 0.03303 0.42991 0.0
H1301 H 0.14676 0.00158 0.39038 0.0
H1302 H 0.17237 0.99623 0.37533 0.0
H1303 H 0.23238 0.92432 0.3738 0.0
H1304 H 0.24376 0.96211 0.38077 0.0
H1305 H 0.1878 0.95395 0.35219 0.0
H1306 H 0.17622 0.91613 0.34522 0.0
H1307 H 0.19309 0.97429 0.38146 0.0
H1308 H 0.23701 0.98075 0.33945 0.0
H1309 H 0.2631 0.97502 0.32538 0.0
H1310 H 0.31146 0.00814 0.36492 0.0
H1311 H 0.28556 0.01381 0.37932 0.0
C1312 C 0.2333 0.07767 0.38901 0.0
C1313 C 0.25194 0.0904 0.39963 0.0
C1314 C 0.22806 0.05699 0.38309 0.0
C1315 C 0.2412 0.04852 0.38782 0.0
C1316 C 0.2602 0.06143 0.39798 0.0
C1317 C 0.26552 0.08217 0.40385 0.0
C1318 C 0.23474 0.02597 0.38258 0.0
C1319 C 0.24922 0.02185 0.3748 0.0
C1320 C 0.21426 0.00859 0.38503 0.0
C1321 C 0.19879 0.01171 0.39408 0.0
C1322 C 0.20509 0.02199 0.40959 0.0
C1323 C 0.1905 0.02503 0.418 0.0
C1324 C 0.1695 0.01771 0.41107 0.0
C1325 C 0.16304 0.00728 0.39573 0.0
C1326 C 0.17758 0.00422 0.38726 0.0
C1327 C 0.22255 0.93058 0.36892 0.0
C1328 C 0.20338 0.91721 0.35896 0.0
C1329 C 0.22913 0.9522 0.37286 0.0
C1330 C 0.2167 0.96085 0.36689 0.0
C1331 C 0.19763 0.94758 0.35689 0.0
C1332 C 0.19108 0.92598 0.3529 0.0
C1333 C 0.22311 0.98351 0.37158 0.0
C1334 C 0.20863 0.98764 0.37933 0.0
C1335 C 0.24363 0.00083 0.36919 0.0
C1336 C 0.25927 0.99752 0.36053 0.0
C1337 C 0.25315 0.98666 0.3452 0.0
C1338 C 0.26792 0.98345 0.33716 0.0
C1339 C 0.28891 0.99116 0.34427 0.0
C1340 C 0.29519 0.00215 0.35943 0.0
C1341 C 0.28048 0.00538 0.36753 0.0
H1342 H 0.30031 0.98866 0.33802 0.0
H1343 H 0.15822 0.02008 0.4176 0.0
H1344 H 0.46418 0.59852 0.30339 0.0
H1345 H 0.49238 0.63359 0.31608 0.0
H1346 H 0.54142 0.621 0.30007 0.0
H1347 H 0.51338 0.58552 0.28805 0.0
H1348 H 0.55349 0.64003 0.3291 0.0
H1349 H 0.52557 0.65265 0.28075 0.0
H1350 H 0.49756 0.6508 0.26131 0.0
H1351 H 0.48124 0.68504 0.29562 0.0
H1352 H 0.50896 0.68681 0.31536 0.0
H1353 H 0.64132 0.74785 0.33202 0.0
H1354 H 0.6121 0.71105 0.32379 0.0
H1355 H 0.56698 0.72482 0.34566 0.0
H1356 H 0.59609 0.76162 0.35399 0.0
H1357 H 0.55229 0.70529 0.31494 0.0
H1358 H 0.5826 0.69414 0.36284 0.0
H1359 H 0.61178 0.69654 0.38134 0.0
H1360 H 0.625 0.66016 0.34658 0.0
H1361 H 0.59609 0.65781 0.32778 0.0
C1362 C 0.48096 0.60305 0.30279 0.0
C1363 C 0.48648 0.58924 0.29457 0.0
C1364 C 0.49708 0.62322 0.3099 0.0
C1365 C 0.51903 0.63011 0.30879 0.0
C1366 C 0.5246 0.61611 0.30101 0.0
C1367 C 0.50852 0.5959 0.294 0.0
C1368 C 0.53623 0.65206 0.3154 0.0
C1369 C 0.55332 0.6543 0.32588 0.0
C1370 C 0.53585 0.6707 0.31143 0.0
C1371 C 0.51916 0.66964 0.29959 0.0
C1372 C 0.51588 0.65962 0.28419 0.0
C1373 C 0.50008 0.65861 0.27311 0.0
C1374 C 0.48759 0.66773 0.27724 0.0
C1375 C 0.4909 0.67793 0.29245 0.0
C1376 C 0.50666 0.67895 0.30359 0.0
C1377 C 0.62522 0.74301 0.33519 0.0
C1378 C 0.62103 0.75766 0.34367 0.0
C1379 C 0.60856 0.72196 0.33052 0.0
C1380 C 0.58741 0.7152 0.33419 0.0
C1381 C 0.5832 0.72973 0.34273 0.0
C1382 C 0.59988 0.75072 0.34753 0.0
C1383 C 0.56952 0.69322 0.32857 0.0
C1384 C 0.55234 0.69099 0.31824 0.0
C1385 C 0.56995 0.67464 0.33255 0.0
C1386 C 0.58731 0.67597 0.34385 0.0
C1387 C 0.59185 0.68681 0.35909 0.0
C1388 C 0.60832 0.68813 0.36964 0.0
C1389 C 0.62027 0.67856 0.36512 0.0
C1390 C 0.61574 0.66759 0.35005 0.0
C1391 C 0.5993 0.66624 0.33945 0.0
H1392 H 0.63301 0.6796 0.37331 0.0
H1393 H 0.47537 0.66695 0.26865 0.0
H1394 H 0.39629 0.90926 0.2773 0.0
H1395 H 0.36375 0.90454 0.28835 0.0
H1396 H 0.35275 0.84484 0.30496 0.0
H1397 H 0.38489 0.84901 0.29334 0.0
H1398 H 0.31583 0.84056 0.29179 0.0
H1399 H 0.37299 0.89102 0.33039 0.0
H1400 H 0.40725 0.92404 0.34009 0.0
H1401 H 0.3812 0.96257 0.32359 0.0
H1402 H 0.34686 0.92977 0.31358 0.0
H1403 H 0.23983 0.83419 0.34587 0.0
H1404 H 0.27239 0.8377 0.33523 0.0
H1405 H 0.27872 0.89072 0.31045 0.0
H1406 H 0.24595 0.88701 0.32072 0.0
H1407 H 0.3179 0.89784 0.32842 0.0
H1408 H 0.26095 0.84734 0.28966 0.0
H1409 H 0.22694 0.81436 0.27948 0.0
H1410 H 0.25285 0.77579 0.29616 0.0
H1411 H 0.28684 0.80856 0.3068 0.0
C1412 C 0.38687 0.89501 0.28317 0.0
C1413 C 0.39324 0.87949 0.2844 0.0
C1414 C 0.36837 0.89245 0.28965 0.0
C1415 C 0.35591 0.87446 0.29768 0.0
C1416 C 0.36214 0.85889 0.29888 0.0
C1417 C 0.38064 0.8614 0.29235 0.0
C1418 C 0.33624 0.8718 0.3046 0.0
C1419 C 0.31636 0.85293 0.30002 0.0
C1420 C 0.33681 0.88816 0.31505 0.0
C1421 C 0.35742 0.90792 0.32111 0.0
C1422 C 0.37462 0.90653 0.32872 0.0
C1423 C 0.39404 0.92521 0.33429 0.0
C1424 C 0.39642 0.94539 0.33242 0.0
C1425 C 0.37934 0.94693 0.32501 0.0
C1426 C 0.35989 0.9283 0.3194 0.0
C1427 C 0.24821 0.84665 0.3382 0.0
C1428 C 0.24036 0.86036 0.33415 0.0
C1429 C 0.26672 0.84855 0.33208 0.0
C1430 C 0.27789 0.86443 0.32203 0.0
C1431 C 0.27031 0.87836 0.31818 0.0
C1432 C 0.25157 0.87619 0.32403 0.0
C1433 C 0.2976 0.86664 0.3156 0.0
C1434 C 0.31745 0.88543 0.32028 0.0
C1435 C 0.297 0.85019 0.30528 0.0
C1436 C 0.27634 0.83044 0.29925 0.0
C1437 C 0.25928 0.83184 0.2914 0.0
C1438 C 0.24002 0.81317 0.2855 0.0
C1439 C 0.23768 0.79299 0.28726 0.0
C1440 C 0.25464 0.79144 0.29488 0.0
C1441 C 0.27389 0.81005 0.30087 0.0
H1442 H 0.22278 0.77855 0.28266 0.0
H1443 H 0.41147 0.95983 0.33675 0.0
H1444 H 0.12703 0.50987 0.28232 0.0
H1445 H 0.13155 0.48083 0.29165 0.0
H1446 H 0.10403 0.48471 0.3345 0.0
H1447 H 0.09906 0.51365 0.32511 0.0
H1448 H 0.14105 0.48173 0.33991 0.0
H1449 H 0.0738 0.4447 0.30702 0.0
H1450 H 0.04916 0.43662 0.28286 0.0
H1451 H 0.08859 0.41995 0.25614 0.0
H1452 H 0.11367 0.42825 0.2801 0.0
H1453 H 0.13262 0.38412 0.36238 0.0
H1454 H 0.1236 0.41147 0.35559 0.0
H1455 H 0.14595 0.41149 0.3097 0.0
H1456 H 0.15469 0.38399 0.31625 0.0
H1457 H 0.10843 0.41137 0.30737 0.0
H1458 H 0.17706 0.45106 0.3394 0.0
H1459 H 0.20247 0.45979 0.36322 0.0
H1460 H 0.16105 0.47187 0.39124 0.0
H1461 H 0.13524 0.46291 0.3676 0.0
C1462 C 0.12171 0.50442 0.29366 0.0
C1463 C 0.11249 0.51393 0.30291 0.0
C1464 C 0.12438 0.48787 0.29899 0.0
C1465 C 0.11786 0.48046 0.31366 0.0
C1466 C 0.10912 0.49021 0.32312 0.0
C1467 C 0.10637 0.50676 0.31776 0.0
C1468 C 0.12028 0.46252 0.31901 0.0
C1469 C 0.13362 0.4662 0.33297 0.0
C1470 C 0.11086 0.44243 0.30977 0.0
C1471 C 0.09571 0.43726 0.29534 0.0
C1472 C 0.07731 0.43946 0.29597 0.0
C1473 C 0.06325 0.43482 0.28231 0.0
C1474 C 0.06733 0.42782 0.26797 0.0
C1475 C 0.08546 0.42539 0.26726 0.0
C1476 C 0.09959 0.43004 0.28088 0.0
C1477 C 0.13558 0.38992 0.35083 0.0
C1478 C 0.14444 0.38192 0.33988 0.0
C1479 C 0.13048 0.40559 0.347 0.0
C1480 C 0.13431 0.41365 0.3322 0.0
C1481 C 0.14287 0.40549 0.32118 0.0
C1482 C 0.14792 0.3898 0.32498 0.0
C1483 C 0.12954 0.43069 0.32813 0.0
C1484 C 0.11571 0.42682 0.31441 0.0
C1485 C 0.13857 0.45062 0.33756 0.0
C1486 C 0.1541 0.45608 0.35177 0.0
C1487 C 0.17329 0.45541 0.35066 0.0
C1488 C 0.18777 0.46043 0.36413 0.0
C1489 C 0.18334 0.46632 0.37875 0.0
C1490 C 0.16444 0.46726 0.37992 0.0
C1491 C 0.14988 0.46223 0.36649 0.0
H1492 H 0.19458 0.47021 0.38916 0.0
H1493 H 0.05642 0.42424 0.25741 0.0
H1494 H 0.39015 0.52184 0.31675 0.0
H1495 H 0.35339 0.4996 0.32418 0.0
H1496 H 0.35225 0.44264 0.30398 0.0
H1497 H 0.38869 0.46489 0.29623 0.0
H1498 H 0.31476 0.4403 0.29635 0.0
H1499 H 0.36205 0.45781 0.34433 0.0
H1500 H 0.3906 0.48197 0.36542 0.0
H1501 H 0.35312 0.5113 0.37747 0.0
H1502 H 0.32445 0.48748 0.3563 0.0
H1503 H 0.2302 0.35855 0.33103 0.0
H1504 H 0.26593 0.38429 0.32409 0.0
H1505 H 0.26011 0.43649 0.34597 0.0
H1506 H 0.22448 0.41053 0.35359 0.0
H1507 H 0.30003 0.44355 0.35231 0.0
H1508 H 0.2508 0.42248 0.30503 0.0
H1509 H 0.22198 0.39569 0.28515 0.0
H1510 H 0.26344 0.37143 0.27211 0.0
H1511 H 0.29236 0.39778 0.29213 0.0
C1512 C 0.38191 0.50458 0.31383 0.0
C1513 C 0.39218 0.49504 0.30596 0.0
C1514 C 0.36101 0.49188 0.31814 0.0
C1515 C 0.35015 0.4694 0.31482 0.0
C1516 C 0.36029 0.45993 0.30668 0.0
C1517 C 0.38112 0.47262 0.30229 0.0
C1518 C 0.32834 0.45562 0.31995 0.0
C1519 C 0.31158 0.44092 0.3086 0.0
C1520 C 0.32403 0.45673 0.33588 0.0
C1521 C 0.34123 0.47104 0.34862 0.0
C1522 C 0.35998 0.46953 0.35139 0.0
C1523 C 0.37617 0.48314 0.36338 0.0
C1524 C 0.37371 0.49821 0.37275 0.0
C1525 C 0.35502 0.49965 0.37018 0.0
C1526 C 0.3388 0.4861 0.3582 0.0
C1527 C 0.23652 0.3755 0.33442 0.0
C1528 C 0.22446 0.38256 0.34272 0.0
C1529 C 0.25693 0.39023 0.33037 0.0
C1530 C 0.26548 0.41239 0.33412 0.0
C1531 C 0.25376 0.41948 0.34284 0.0
C1532 C 0.23343 0.40466 0.34717 0.0
C1533 C 0.28654 0.42803 0.32875 0.0
C1534 C 0.30313 0.44311 0.34002 0.0
C1535 C 0.29074 0.42718 0.31275 0.0
C1536 C 0.27371 0.41203 0.30016 0.0
C1537 C 0.25376 0.41141 0.29794 0.0
C1538 C 0.23739 0.39627 0.28666 0.0
C1539 C 0.24086 0.38182 0.2774 0.0
C1540 C 0.26077 0.38261 0.2793 0.0
C1541 C 0.27717 0.39766 0.2906 0.0
H1542 H 0.22813 0.36997 0.26878 0.0
H1543 H 0.38625 0.50872 0.38202 0.0
H1544 H 0.49223 0.88667 0.32593 0.0
H1545 H 0.51912 0.87603 0.33257 0.0
H1546 H 0.52347 0.86506 0.28294 0.0
H1547 H 0.49643 0.87569 0.27626 0.0
H1548 H 0.5226 0.83304 0.29997 0.0
H1549 H 0.56184 0.91009 0.30343 0.0
H1550 H 0.56971 0.94671 0.31226 0.0
H1551 H 0.57787 0.93589 0.36061 0.0
H1552 H 0.56973 0.89908 0.35207 0.0
H1553 H 0.62042 0.82944 0.31191 0.0
H1554 H 0.59292 0.83838 0.30313 0.0
H1555 H 0.58887 0.85591 0.35157 0.0
H1556 H 0.61659 0.84748 0.36041 0.0
H1557 H 0.59001 0.8849 0.33369 0.0
H1558 H 0.54978 0.80769 0.33062 0.0
H1559 H 0.54169 0.77091 0.32211 0.0
H1560 H 0.53513 0.78164 0.27353 0.0
H1561 H 0.54349 0.81861 0.28175 0.0
C1562 C 0.49877 0.88178 0.31645 0.0
C1563 C 0.49218 0.88184 0.30058 0.0
C1564 C 0.51419 0.8758 0.32024 0.0
C1565 C 0.52345 0.86993 0.30825 0.0
C1566 C 0.51652 0.8695 0.29237 0.0
C1567 C 0.50112 0.87556 0.28857 0.0
C1568 C 0.54076 0.86482 0.31234 0.0
C1569 C 0.53749 0.84447 0.30716 0.0
C1570 C 0.56001 0.8796 0.32195 0.0
C1571 C 0.56497 0.90176 0.32712 0.0
C1572 C 0.56514 0.91546 0.31595 0.0
C1573 C 0.56968 0.93626 0.3209 0.0
C1574 C 0.57423 0.9436 0.33699 0.0
C1575 C 0.57431 0.93017 0.34815 0.0
C1576 C 0.56975 0.90934 0.34326 0.0
C1577 C 0.61367 0.83518 0.3207 0.0
C1578 C 0.62074 0.83771 0.33688 0.0
C1579 C 0.59786 0.84019 0.31566 0.0
C1580 C 0.58862 0.8476 0.3267 0.0
C1581 C 0.59574 0.85024 0.34282 0.0
C1582 C 0.6116 0.84536 0.34786 0.0
C1583 C 0.57177 0.85297 0.32153 0.0
C1584 C 0.57516 0.87344 0.32648 0.0
C1585 C 0.55261 0.83825 0.31176 0.0
C1586 C 0.54748 0.81599 0.3068 0.0
C1587 C 0.54678 0.80226 0.31812 0.0
C1588 C 0.54212 0.78137 0.31335 0.0
C1589 C 0.53796 0.77396 0.29729 0.0
C1590 C 0.53839 0.78741 0.28596 0.0
C1591 C 0.54307 0.80833 0.29067 0.0
H1592 H 0.53435 0.75778 0.29361 0.0
H1593 H 0.57775 0.95971 0.3408 0.0
H1594 H 0.10051 0.60702 0.34609 0.0
H1595 H 0.1108 0.64502 0.35049 0.0
H1596 H 0.12258 0.65246 0.30156 0.0
H1597 H 0.11212 0.61444 0.29711 0.0
H1598 H 0.15593 0.68498 0.32257 0.0
H1599 H 0.0783 0.64954 0.31275 0.0
H1600 H 0.04072 0.62329 0.31692 0.0
H1601 H 0.05158 0.65103 0.36494 0.0
H1602 H 0.08935 0.67726 0.36112 0.0
H1603 H 0.16439 0.7862 0.31727 0.0
H1604 H 0.15227 0.74791 0.31309 0.0
H1605 H 0.13686 0.7407 0.36133 0.0
H1606 H 0.14872 0.77898 0.3656 0.0
H1607 H 0.10548 0.70803 0.34107 0.0
H1608 H 0.18233 0.74291 0.35171 0.0
H1609 H 0.22014 0.76952 0.34846 0.0
H1610 H 0.21144 0.7431 0.30031 0.0
H1611 H 0.17343 0.71648 0.3032 0.0
C1612 C 0.10534 0.61682 0.33631 0.0
C1613 C 0.10588 0.60798 0.32133 0.0
C1614 C 0.11113 0.63844 0.33881 0.0
C1615 C 0.11744 0.6515 0.32634 0.0
C1616 C 0.11786 0.64266 0.31134 0.0
C1617 C 0.11191 0.62101 0.30882 0.0
C1618 C 0.12375 0.67445 0.32893 0.0
C1619 C 0.14482 0.69004 0.32641 0.0
C1620 C 0.10942 0.68097 0.33438 0.0
C1621 C 0.08672 0.66521 0.3367 0.0
C1622 C 0.07274 0.64992 0.32424 0.0
C1623 C 0.05139 0.63507 0.32653 0.0
C1624 C 0.04379 0.63545 0.3412 0.0
C1625 C 0.05751 0.65073 0.35359 0.0
C1626 C 0.07888 0.6656 0.35137 0.0
C1627 C 0.15835 0.77649 0.32699 0.0
C1628 C 0.15764 0.78567 0.3418 0.0
C1629 C 0.15149 0.75461 0.32459 0.0
C1630 C 0.14392 0.74155 0.33696 0.0
C1631 C 0.14269 0.75054 0.35164 0.0
C1632 C 0.14955 0.77243 0.35406 0.0
C1633 C 0.13762 0.71857 0.33463 0.0
C1634 C 0.11659 0.70298 0.33723 0.0
C1635 C 0.15205 0.71204 0.3294 0.0
C1636 C 0.17497 0.72783 0.32763 0.0
C1637 C 0.18843 0.74286 0.34039 0.0
C1638 C 0.20989 0.75794 0.33862 0.0
C1639 C 0.21817 0.75803 0.32418 0.0
C1640 C 0.205 0.74302 0.31148 0.0
C1641 C 0.18349 0.72791 0.31318 0.0
H1642 H 0.23481 0.7697 0.32287 0.0
H1643 H 0.02725 0.62395 0.34294 0.0
H1644 H 0.86757 0.05344 0.38361 0.0
H1645 H 0.83921 0.01562 0.37805 0.0
H1646 H 0.7904 0.03375 0.38162 0.0
H1647 H 0.81876 0.07148 0.38766 0.0
H1648 H 0.77966 -0.00052 0.39618 0.0
H1649 H 0.80272 0.02055 0.34544 0.0
H1650 H 0.82881 0.03579 0.32572 0.0
H1651 H 0.84694 0.98778 0.33121 0.0
H1652 H 0.82114 0.97242 0.35113 0.0
H1653 H 0.70884 0.89552 0.338 0.0
H1654 H 0.73595 0.93374 0.34292 0.0
H1655 H 0.75338 0.92412 0.3899 0.0
H1656 H 0.72598 0.88606 0.38523 0.0
H1657 H 0.77821 0.95475 0.34906 0.0
H1658 H 0.76833 0.9681 0.4151 0.0
H1659 H 0.73986 0.95361 0.43323 0.0
H1660 H 0.69102 0.93455 0.39418 0.0
H1661 H 0.71918 0.94917 0.37586 0.0
C1662 C 0.85078 0.04927 0.38334 0.0
C1663 C 0.84533 0.06529 0.38631 0.0
C1664 C 0.83459 0.02771 0.38004 0.0
C1665 C 0.81264 0.02183 0.37928 0.0
C1666 C 0.8072 0.03787 0.3822 0.0
C1667 C 0.82339 0.0594 0.38563 0.0
C1668 C 0.79534 -0.00101 0.37549 0.0
C1669 C 0.77936 0.98971 0.38587 0.0
C1670 C 0.79466 0.9863 0.36189 0.0
C1671 C 0.81014 0.99546 0.34988 0.0
C1672 C 0.81238 0.01334 0.34253 0.0
C1673 C 0.8271 0.02198 0.3313 0.0
C1674 C 0.83956 0.01279 0.32725 0.0
C1675 C 0.83729 0.9949 0.33438 0.0
C1676 C 0.82261 0.9862 0.34563 0.0
C1677 C 0.71841 0.90154 0.3494 0.0
C1678 C 0.71513 0.88776 0.36127 0.0
C1679 C 0.73395 0.92339 0.35217 0.0
C1680 C 0.74652 0.93188 0.36684 0.0
C1681 C 0.74358 0.91805 0.37859 0.0
C1682 C 0.72793 0.89626 0.37588 0.0
C1683 C 0.76274 0.95518 0.36986 0.0
C1684 C 0.77852 0.96452 0.35936 0.0
C1685 C 0.76293 0.96807 0.38314 0.0
C1686 C 0.74587 0.95955 0.3941 0.0
C1687 C 0.75152 0.9609 0.4104 0.0
C1688 C 0.73543 0.95265 0.42071 0.0
C1689 C 0.71364 0.94311 0.41486 0.0
C1690 C 0.70789 0.94187 0.39869 0.0
C1691 C 0.72391 0.95012 0.38834 0.0
H1692 H 0.70122 0.9367 0.42285 0.0
H1693 H 0.85095 0.0195 0.31855 0.0
H1694 H 0.96812 0.7899 0.42779 0.0
H1695 H 0.00455 0.80254 0.41975 0.0
H1696 H 0.98079 0.80082 0.37158 0.0
H1697 H 0.94441 0.78809 0.37959 0.0
H1698 H 0.00514 0.78165 0.37328 0.0
H1699 H 0.0118 0.84839 0.39437 0.0
H1700 H 0.0097 0.87298 0.41463 0.0
H1701 H 0.05562 0.86803 0.4464 0.0
H1702 H 0.05778 0.84317 0.42639 0.0
H1703 H 0.10529 0.83474 0.34141 0.0
H1704 H 0.0701 0.82541 0.35016 0.0
H1705 H 0.09586 0.83212 0.39861 0.0
H1706 H 0.13129 0.84206 0.38999 0.0
H1707 H 0.07055 0.84879 0.39709 0.0
H1708 H 0.06393 0.78211 0.37706 0.0
H1709 H 0.06617 0.75683 0.35753 0.0
H1710 H 0.02023 0.76043 0.32484 0.0
H1711 H 0.01794 0.78598 0.3441 0.0
C1712 C 0.97081 0.79242 0.41553 0.0
C1713 C 0.95354 0.78806 0.40431 0.0
C1714 C 0.99158 0.79967 0.41094 0.0
C1715 C 0.99545 0.80276 0.39507 0.0
C1716 C 0.9782 0.79855 0.38388 0.0
C1717 C 0.95746 0.79135 0.38847 0.0
C1718 C 0.01729 0.80972 0.38999 0.0
C1719 C 0.0194 0.79649 0.37833 0.0
C1720 C 0.036 0.82874 0.39692 0.0
C1721 C 0.03479 0.84376 0.40893 0.0
C1722 C 0.02132 0.85241 0.40572 0.0
C1723 C 0.02014 0.86642 0.41715 0.0
C1724 C 0.03247 0.87202 0.43181 0.0
C1725 C 0.04606 0.86366 0.43505 0.0
C1726 C 0.04728 0.84963 0.42366 0.0
C1727 C 0.10352 0.83429 0.35393 0.0
C1728 C 0.12112 0.83904 0.36498 0.0
C1729 C 0.08333 0.82886 0.35892 0.0
C1730 C 0.08017 0.82767 0.37504 0.0
C1731 C 0.09784 0.83287 0.38612 0.0
C1732 C 0.11811 0.83852 0.38115 0.0
C1733 C 0.0584 0.82078 0.3803 0.0
C1734 C 0.0563 0.83397 0.39202 0.0
C1735 C 0.03969 0.80159 0.37354 0.0
C1736 C 0.04092 0.78612 0.36197 0.0
C1737 C 0.05442 0.77763 0.36566 0.0
C1738 C 0.05568 0.76323 0.35465 0.0
C1739 C 0.04339 0.75707 0.33994 0.0
C1740 C 0.02976 0.76524 0.33623 0.0
C1741 C 0.02846 0.77966 0.3472 0.0
H1742 H 0.04439 0.74592 0.33143 0.0
H1743 H 0.03154 0.88287 0.44064 0.0
H1744 H 0.23718 0.16796 0.36395 0.0
H1745 H 0.22141 0.19073 0.35898 0.0
H1746 H 0.26258 0.23546 0.39882 0.0
H1747 H 0.27794 0.21236 0.404 0.0
H1748 H 0.22231 0.22769 0.39928 0.0
H1749 H 0.2729 0.24674 0.36043 0.0
H1750 H 0.29015 0.2401 0.33829 0.0
H1751 H 0.22978 0.211 0.30878 0.0
H1752 H 0.21209 0.2172 0.33082 0.0
H1753 H 0.20649 0.31435 0.3818 0.0
H1754 H 0.22154 0.29119 0.38688 0.0
H1755 H 0.17902 0.24577 0.34785 0.0
H1756 H 0.16409 0.26903 0.34247 0.0
H1757 H 0.21976 0.2538 0.34701 0.0
H1758 H 0.16948 0.23584 0.38607 0.0
H1759 H 0.15291 0.2436 0.40818 0.0
H1760 H 0.21337 0.27156 0.43748 0.0
H1761 H 0.23041 0.26429 0.41545 0.0
C1762 C 0.24303 0.18283 0.37145 0.0
C1763 C 0.2591 0.18876 0.38409 0.0
C1764 C 0.23406 0.19581 0.36864 0.0
C1765 C 0.24106 0.21497 0.37839 0.0
C1766 C 0.25703 0.22081 0.3911 0.0
C1767 C 0.26591 0.20776 0.39397 0.0
C1768 C 0.23135 0.22863 0.37555 0.0
C1769 C 0.22201 0.23365 0.38792 0.0
C1770 C 0.23052 0.23597 0.36061 0.0
C1771 C 0.24113 0.23225 0.34733 0.0
C1772 C 0.26327 0.23877 0.34926 0.0
C1773 C 0.27313 0.23512 0.33672 0.0
C1774 C 0.26106 0.22508 0.32215 0.0
C1775 C 0.23911 0.21874 0.32008 0.0
C1776 C 0.22916 0.22234 0.33258 0.0
C1777 C 0.20023 0.29939 0.37432 0.0
C1778 C 0.18408 0.29355 0.36171 0.0
C1779 C 0.20881 0.28613 0.3773 0.0
C1780 C 0.20124 0.26667 0.36784 0.0
C1781 C 0.18506 0.26072 0.3553 0.0
C1782 C 0.17651 0.27402 0.35227 0.0
C1783 C 0.21072 0.25284 0.37073 0.0
C1784 C 0.22003 0.2478 0.35837 0.0
C1785 C 0.21158 0.24557 0.38569 0.0
C1786 C 0.20128 0.24969 0.39904 0.0
C1787 C 0.17929 0.24378 0.39719 0.0
C1788 C 0.16981 0.24808 0.40972 0.0
C1789 C 0.1821 0.25813 0.42422 0.0
C1790 C 0.20388 0.26382 0.42623 0.0
C1791 C 0.21345 0.25959 0.41373 0.0
H1792 H 0.17473 0.26146 0.4339 0.0
H1793 H 0.26873 0.22227 0.31246 0.0
H1794 H 0.61272 0.47036 0.72669 0.0
H1795 H 0.64514 0.49713 0.71605 0.0
H1796 H 0.63831 0.5479 0.73938 0.0
H1797 H 0.60509 0.52118 0.74927 0.0
H1798 H 0.64956 0.55753 0.71122 0.0
H1799 H 0.67565 0.5335 0.75407 0.0
H1800 H 0.67865 0.50714 0.76965 0.0
H1801 H 0.7009 0.48639 0.73032 0.0
H1802 H 0.69776 0.51245 0.71443 0.0
H1803 H 0.7584 0.64284 0.71136 0.0
H1804 H 0.724 0.61489 0.71905 0.0
H1805 H 0.72731 0.56738 0.68801 0.0
H1806 H 0.76172 0.59531 0.6801 0.0
H1807 H 0.71785 0.55568 0.71907 0.0
H1808 H 0.69298 0.58217 0.67689 0.0
H1809 H 0.69101 0.61006 0.66263 0.0
H1810 H 0.66761 0.62802 0.70264 0.0
H1811 H 0.66975 0.60043 0.71724 0.0
C1812 C 0.61789 0.4872 0.72939 0.0
C1813 C 0.60625 0.49355 0.73892 0.0
C1814 C 0.63664 0.50253 0.72345 0.0
C1815 C 0.64444 0.52458 0.72713 0.0
C1816 C 0.63271 0.53099 0.73644 0.0
C1817 C 0.61382 0.51567 0.74225 0.0
C1818 C 0.66481 0.54097 0.72129 0.0
C1819 C 0.66453 0.55724 0.71312 0.0
C1820 C 0.68432 0.54045 0.72347 0.0
C1821 C 0.68625 0.52477 0.73301 0.0
C1822 C 0.68102 0.5232 0.7487 0.0
C1823 C 0.68278 0.50833 0.7576 0.0
C1824 C 0.68991 0.49506 0.75097 0.0
C1825 C 0.69535 0.49666 0.73544 0.0
C1826 C 0.6936 0.51149 0.72648 0.0
C1827 C 0.75179 0.62647 0.70609 0.0
C1828 C 0.76279 0.6213 0.69508 0.0
C1829 C 0.73209 0.61054 0.71047 0.0
C1830 C 0.72308 0.58911 0.70403 0.0
C1831 C 0.734 0.58385 0.69308 0.0
C1832 C 0.7536 0.59984 0.68853 0.0
C1833 C 0.70252 0.57215 0.7091 0.0
C1834 C 0.7028 0.55584 0.71714 0.0
C1835 C 0.68312 0.57282 0.70699 0.0
C1836 C 0.68172 0.58936 0.69821 0.0
C1837 C 0.68759 0.59219 0.6827 0.0
C1838 C 0.68641 0.60792 0.67455 0.0
C1839 C 0.67924 0.62084 0.68174 0.0
C1840 C 0.67319 0.61801 0.69709 0.0
C1841 C 0.67436 0.60232 0.7053 0.0
H1842 H 0.67833 0.63301 0.67541 0.0
H1843 H 0.69126 0.48356 0.75788 0.0
H1844 H 0.53391 0.12196 0.73153 0.0
H1845 H 0.50353 0.12517 0.7201 0.0
H1846 H 0.49256 0.142 0.76664 0.0
H1847 H 0.52337 0.13979 0.77813 0.0
H1848 H 0.45466 0.10885 0.74806 0.0
H1849 H 0.51476 0.18001 0.74411 0.0
H1850 H 0.55029 0.20594 0.73601 0.0
H1851 H 0.52665 0.18211 0.68731 0.0
H1852 H 0.49105 0.1558 0.69515 0.0
H1853 H 0.37928 0.14291 0.72945 0.0
H1854 H 0.41005 0.1397 0.73982 0.0
H1855 H 0.42753 0.13715 0.69249 0.0
H1856 H 0.39727 0.14108 0.68213 0.0
H1857 H 0.46222 0.16209 0.71086 0.0
H1858 H 0.40275 0.09153 0.71346 0.0
H1859 H 0.36711 0.06406 0.72039 0.0
H1860 H 0.38889 0.08406 0.76975 0.0
H1861 H 0.42459 0.11187 0.7631 0.0
C1862 C 0.52531 0.12671 0.73934 0.0
C1863 C 0.53111 0.13047 0.7558 0.0
C1864 C 0.50784 0.12839 0.73278 0.0
C1865 C 0.49575 0.13373 0.74254 0.0
C1866 C 0.50156 0.13766 0.75891 0.0
C1867 C 0.51915 0.13627 0.76546 0.0
C1868 C 0.47686 0.13501 0.73577 0.0
C1869 C 0.4563 0.12063 0.74005 0.0
C1870 C 0.47896 0.14993 0.72496 0.0
C1871 C 0.50032 0.16578 0.72024 0.0
C1872 C 0.5172 0.18017 0.73169 0.0
C1873 C 0.53733 0.19496 0.72714 0.0
C1874 C 0.54074 0.19563 0.71116 0.0
C1875 C 0.524 0.18155 0.69969 0.0
C1876 C 0.50383 0.1667 0.70418 0.0
C1877 C 0.38959 0.14152 0.72124 0.0
C1878 C 0.38576 0.14219 0.70495 0.0
C1879 C 0.40716 0.13961 0.72718 0.0
C1880 C 0.42102 0.13788 0.71693 0.0
C1881 C 0.41714 0.13847 0.70066 0.0
C1882 C 0.39976 0.14067 0.69474 0.0
C1883 C 0.43984 0.13595 0.72317 0.0
C1884 C 0.46045 0.1502 0.7188 0.0
C1885 C 0.43772 0.12065 0.73371 0.0
C1886 C 0.41628 0.10392 0.73777 0.0
C1887 C 0.39989 0.09018 0.72579 0.0
C1888 C 0.37969 0.07453 0.72967 0.0
C1889 C 0.37572 0.07236 0.7455 0.0
C1890 C 0.39198 0.08579 0.75749 0.0
C1891 C 0.41221 0.10148 0.75367 0.0
H1892 H 0.36007 0.06023 0.74848 0.0
H1893 H 0.55634 0.2071 0.70766 0.0
H1894 H 0.94109 0.42143 0.74125 0.0
H1895 H 0.93349 0.38611 0.72994 0.0
H1896 H 0.87335 0.37496 0.70602 0.0
H1897 H 0.88046 0.40992 0.71777 0.0
H1898 H 0.86749 0.34091 0.72036 0.0
H1899 H 0.91712 0.38652 0.68577 0.0
H1900 H 0.95096 0.41695 0.6788 0.0
H1901 H 0.98752 0.39113 0.70072 0.0
H1902 H 0.95392 0.36068 0.70802 0.0
H1903 H 0.84413 0.24738 0.67256 0.0
H1904 H 0.85437 0.28476 0.67982 0.0
H1905 H 0.91168 0.29498 0.70768 0.0
H1906 H 0.90165 0.25758 0.70043 0.0
H1907 H 0.91893 0.32957 0.69043 0.0
H1908 H 0.86924 0.28474 0.72575 0.0
H1909 H 0.83527 0.25384 0.73207 0.0
H1910 H 0.79868 0.27838 0.70833 0.0
H1911 H 0.83245 0.30924 0.70162 0.0
C1912 C 0.92621 0.41142 0.73362 0.0
C1913 C 0.91137 0.41847 0.73042 0.0
C1914 C 0.922 0.39135 0.72704 0.0
C1915 C 0.90296 0.37801 0.717 0.0
C1916 C 0.88818 0.38505 0.71369 0.0
C1917 C 0.89236 0.4051 0.7203 0.0
C1918 C 0.89804 0.35635 0.71048 0.0
C1919 C 0.87859 0.33848 0.71359 0.0
C1920 C 0.91276 0.35315 0.70198 0.0
C1921 C 0.93301 0.37142 0.69757 0.0
C1922 C 0.93239 0.38742 0.68922 0.0
C1923 C 0.95153 0.40465 0.68519 0.0
C1924 C 0.97139 0.406 0.68935 0.0
C1925 C 0.97214 0.39008 0.69752 0.0
C1926 C 0.95304 0.37281 0.70159 0.0
C1927 C 0.85905 0.25761 0.68008 0.0
C1928 C 0.87197 0.24945 0.68606 0.0
C1929 C 0.86485 0.27896 0.68423 0.0
C1930 C 0.88362 0.29249 0.69443 0.0
C1931 C 0.89711 0.28473 0.69981 0.0
C1932 C 0.89129 0.26334 0.69571 0.0
C1933 C 0.88842 0.3143 0.70028 0.0
C1934 C 0.90783 0.33211 0.69711 0.0
C1935 C 0.87367 0.31749 0.70872 0.0
C1936 C 0.85337 0.29919 0.71304 0.0
C1937 C 0.85394 0.28347 0.72178 0.0
C1938 C 0.83473 0.26597 0.72544 0.0
C1939 C 0.81482 0.26411 0.72056 0.0
C1940 C 0.81411 0.27982 0.71207 0.0
C1941 C 0.83328 0.29732 0.70835 0.0
H1942 H 0.79996 0.25054 0.72339 0.0
H1943 H 0.98618 0.41936 0.68621 0.0
H1944 H 0.13126 0.92671 0.64095 0.0
H1945 H 0.15955 0.96164 0.65382 0.0
H1946 H 0.20843 0.94961 0.63671 0.0
H1947 H 0.18031 0.91429 0.62446 0.0
H1948 H 0.22135 0.96917 0.66577 0.0
H1949 H 0.19166 0.98045 0.61762 0.0
H1950 H 0.16279 0.97764 0.59856 0.0
H1951 H 0.14647 0.01156 0.63315 0.0
H1952 H 0.17507 0.01431 0.6525 0.0
H1953 H 0.30805 0.07738 0.6669 0.0
H1954 H 0.27908 0.04027 0.65935 0.0
H1955 H 0.234 0.05389 0.68143 0.0
H1956 H 0.26282 0.091 0.68904 0.0
H1957 H 0.21859 0.03352 0.65121 0.0
H1958 H 0.25113 0.02409 0.6988 0.0
H1959 H 0.28123 0.02743 0.71676 0.0
H1960 H 0.29367 0.9906 0.68185 0.0
H1961 H 0.26383 0.9873 0.66358 0.0
C1962 C 0.14803 0.9313 0.64018 0.0
C1963 C 0.15349 0.91777 0.63151 0.0
C1964 C 0.1642 0.95138 0.64741 0.0
C1965 C 0.18612 0.95844 0.64597 0.0
C1966 C 0.19163 0.9446 0.6379 0.0
C1967 C 0.17551 0.92448 0.63076 0.0
C1968 C 0.20329 0.98055 0.65228 0.0
C1969 C 0.22083 0.98324 0.66248 0.0
C1970 C 0.2025 -0.00106 0.64818 0.0
C1971 C 0.18534 0.99737 0.63656 0.0
C1972 C 0.1818 0.98716 0.6212 0.0
C1973 C 0.16551 0.98561 0.61034 0.0
C1974 C 0.15276 0.99436 0.61466 0.0
C1975 C 0.15633 0.00475 0.62983 0.0
C1976 C 0.17259 0.00632 0.64075 0.0
C1977 C 0.29201 0.07245 0.67026 0.0
C1978 C 0.28775 0.08716 0.67857 0.0
C1979 C 0.2755 0.05121 0.66599 0.0
C1980 C 0.25442 0.0443 0.66991 0.0
C1981 C 0.25016 0.0589 0.67831 0.0
C1982 C 0.26668 0.08008 0.68269 0.0
C1983 C 0.23662 0.02212 0.66467 0.0
C1984 C 0.21899 0.01943 0.65462 0.0
C1985 C 0.23749 0.00379 0.66876 0.0
C1986 C 0.25535 0.00562 0.67976 0.0
C1987 C 0.26039 0.01685 0.6949 0.0
C1988 C 0.27739 0.01871 0.70515 0.0
C1989 C 0.28939 0.00928 0.70044 0.0
C1990 C 0.28437 0.99791 0.68548 0.0
C1991 C 0.2674 0.99603 0.67518 0.0
H1992 H 0.30255 0.01074 0.70839 0.0
H1993 H 0.14015 0.99315 0.60623 0.0
H1994 H 0.07542 0.21892 0.63942 0.0
H1995 H 0.04293 0.21451 0.65059 0.0
H1996 H 0.00888 0.1974 0.60381 0.0
H1997 H 0.04094 0.20106 0.59257 0.0
H1998 H 0.00388 0.22798 0.6217 0.0
H1999 H 0.99851 0.15924 0.62739 0.0
H2000 H 0.01163 0.13537 0.63627 0.0
H2001 H 0.01761 0.16011 0.68454 0.0
H2002 H 0.0048 0.18437 0.67592 0.0
H2003 H 0.89637 0.18849 0.6391 0.0
H2004 H 0.92954 0.19275 0.62947 0.0
H2005 H 0.95675 0.19909 0.67745 0.0
H2006 H 0.92323 0.19406 0.68714 0.0
H2007 H 0.96654 0.17526 0.65994 0.0
H2008 H 0.97183 0.2434 0.65531 0.0
H2009 H 0.95991 0.26853 0.6473 0.0
H2010 H 0.95584 0.24716 0.59844 0.0
H2011 H 0.96747 0.22168 0.60616 0.0
C2012 C 0.06095 0.21392 0.6315 0.0
C2013 C 0.06091 0.2104 0.61505 0.0
C2014 C 0.04241 0.21151 0.63791 0.0
C2015 C 0.02347 0.20559 0.62803 0.0
C2016 C 0.02336 0.2021 0.61165 0.0
C2017 C 0.04179 0.20432 0.60524 0.0
C2018 C 0.00377 0.20319 0.63468 0.0
C2019 C 0.99555 0.2163 0.62993 0.0
C2020 C 0.99333 0.18843 0.6458 0.0
C2021 C 1.00092 0.17378 0.651 0.0
C2022 C 0.00279 0.15972 0.63989 0.0
C2023 C 0.01014 0.1461 0.64487 0.0
C2024 C 0.01551 0.14627 0.66095 0.0
C2025 C 0.01348 0.16002 0.67208 0.0
C2026 C 0.00616 0.1737 0.66716 0.0
C2027 C 0.90942 0.19084 0.64763 0.0
C2028 C 0.90718 0.19107 0.66391 0.0
C2029 C 0.92846 0.19338 0.6421 0.0
C2030 C 0.9459 0.19668 0.65273 0.0
C2031 C 0.94359 0.19664 0.669 0.0
C2032 C 0.92441 0.1938 0.67453 0.0
C2033 C 0.96642 0.19995 0.64686 0.0
C2034 C 0.97485 0.18704 0.65177 0.0
C2035 C 0.97724 0.21512 0.63603 0.0
C2036 C 0.97034 0.23049 0.63133 0.0
C2037 C 0.96825 0.24395 0.64286 0.0
C2038 C 0.96157 0.25828 0.63837 0.0
C2039 C 0.95707 0.2594 0.62237 0.0
C2040 C 0.95931 0.24625 0.61083 0.0
C2041 C 0.96597 0.23188 0.61525 0.0
H2042 H 0.9519 0.2705 0.61892 0.0
H2043 H 0.02119 0.13571 0.66479 0.0
H2044 H 0.79715 0.85234 0.62492 0.0
H2045 H 0.8036 0.82429 0.63412 0.0
H2046 H 0.75786 0.81162 0.66847 0.0
H2047 H 0.75203 0.84034 0.65964 0.0
H2048 H 0.79018 0.80868 0.68101 0.0
H2049 H 0.74376 0.7796 0.63291 0.0
H2050 H 0.73186 0.77867 0.60494 0.0
H2051 H 0.7881 0.77797 0.59089 0.0
H2052 H 0.80052 0.77923 0.61881 0.0
H2053 H 0.77656 0.69381 0.66291 0.0
H2054 H 0.76707 0.72112 0.65719 0.0
H2055 H 0.82766 0.77025 0.68232 0.0
H2056 H 0.83681 0.7429 0.68861 0.0
H2057 H 0.78365 0.75267 0.64067 0.0
H2058 H 0.82393 0.81191 0.69792 0.0
H2059 H 0.83126 0.81058 0.72639 0.0
H2060 H 0.77828 0.74564 0.72311 0.0
H2061 H 0.77046 0.74667 0.69468 0.0
C2062 C 0.7886 0.84362 0.6345 0.0
C2063 C 0.77397 0.84827 0.64151 0.0
C2064 C 0.79221 0.82757 0.63971 0.0
C2065 C 0.78084 0.81551 0.65173 0.0
C2066 C 0.76675 0.82066 0.65913 0.0
C2067 C 0.76341 0.83701 0.65409 0.0
C2068 C 0.78327 0.79718 0.65625 0.0
C2069 C 0.78872 0.7964 0.67221 0.0
C2070 C 0.78073 0.7808 0.64482 0.0
C2071 C 0.77315 0.77967 0.62797 0.0
C2072 C 0.75365 0.77936 0.62386 0.0
C2073 C 0.74681 0.77877 0.60802 0.0
C2074 C 0.75924 0.7783 0.59615 0.0
C2075 C 0.7785 0.77835 0.6001 0.0
C2076 C 0.78544 0.77898 0.61593 0.0
C2077 C 0.78778 0.71043 0.66731 0.0
C2078 C 0.80738 0.71622 0.67627 0.0
C2079 C 0.78236 0.72602 0.66401 0.0
C2080 C 0.79652 0.74774 0.66947 0.0
C2081 C 0.81621 0.75356 0.6783 0.0
C2082 C 0.82148 0.73792 0.68183 0.0
C2083 C 0.79103 0.76436 0.66543 0.0
C2084 C 0.78501 0.76485 0.64952 0.0
C2085 C 0.79231 0.78001 0.67699 0.0
C2086 C 0.79675 0.77932 0.69413 0.0
C2087 C 0.81379 0.79738 0.70329 0.0
C2088 C 0.81804 0.79667 0.71942 0.0
C2089 C 0.80528 0.77802 0.72654 0.0
C2090 C 0.7882 0.76005 0.71757 0.0
C2091 C 0.78387 0.76068 0.70144 0.0
H2092 H 0.80861 0.7775 0.73903 0.0
H2093 H 0.75392 0.77786 0.58389 0.0
H2094 H 0.06749 0.82159 0.66394 0.0
H2095 H 0.0307 0.79978 0.67128 0.0
H2096 H 0.0046 0.79889 0.62404 0.0
H2097 H 0.04147 0.82074 0.61665 0.0
H2098 H 0.98245 0.80607 0.64701 0.0
H2099 H 0.00631 0.75617 0.63394 0.0
H2100 H 0.03096 0.74153 0.63529 0.0
H2101 H 0.02405 0.73508 0.6847 0.0
H2102 H 0.99958 0.74998 0.6837 0.0
H2103 H 0.87603 0.71766 0.64983 0.0
H2104 H 0.91242 0.7421 0.64305 0.0
H2105 H 0.93922 0.74161 0.68968 0.0
H2106 H 0.9029 0.71703 0.69656 0.0
H2107 H 0.96096 0.73554 0.66693 0.0
H2108 H 0.93648 0.78501 0.67983 0.0
H2109 H 0.91147 0.79921 0.67823 0.0
H2110 H 0.91915 0.80612 0.62894 0.0
H2111 H 0.94399 0.79166 0.63019 0.0
C2112 C 0.05388 0.81693 0.65519 0.0
C2113 C 0.05727 0.82312 0.63981 0.0
C2114 C 0.0329 0.8044 0.65936 0.0
C2115 C 0.01492 0.79765 0.64818 0.0
C2116 C 0.01825 0.80402 0.63286 0.0
C2117 C 0.03926 0.81648 0.62866 0.0
C2118 C 0.9927 0.78346 0.6524 0.0
C2119 C 0.97764 0.79053 0.65118 0.0
C2120 C 0.98659 0.76337 0.65813 0.0
C2121 C 0.0013 0.75441 0.65878 0.0
C2122 C 0.0102 0.75181 0.64513 0.0
C2123 C 0.02411 0.74343 0.64582 0.0
C2124 C 0.02912 0.73744 0.66008 0.0
C2125 C 0.02018 0.73976 0.67367 0.0
C2126 C 0.00628 0.74816 0.67304 0.0
C2127 C 0.88963 0.72283 0.6587 0.0
C2128 C 0.88652 0.71537 0.67376 0.0
C2129 C 0.91043 0.73688 0.65481 0.0
C2130 C 0.92853 0.74381 0.66589 0.0
C2131 C 0.92548 0.73648 0.68095 0.0
C2132 C 0.90468 0.72247 0.68487 0.0
C2133 C 0.9507 0.75818 0.66164 0.0
C2134 C 0.96575 0.75111 0.66281 0.0
C2135 C 0.95677 0.77823 0.65585 0.0
C2136 C 0.94193 0.78705 0.65507 0.0
C2137 C 0.93271 0.78939 0.66862 0.0
C2138 C 0.91858 0.79752 0.66778 0.0
C2139 C 0.91368 0.80351 0.65349 0.0
C2140 C 0.92294 0.80145 0.64001 0.0
C2141 C 0.93706 0.7933 0.64078 0.0
H2142 H 0.90274 0.8098 0.65286 0.0
H2143 H 0.03988 0.73094 0.66059 0.0
H2144 H 0.16137 0.20208 0.60719 0.0
H2145 H 0.18819 0.19132 0.61421 0.0
H2146 H 0.18804 0.20853 0.66355 0.0
H2147 H 0.16133 0.21929 0.65656 0.0
H2148 H 0.22883 0.2251 0.65516 0.0
H2149 H 0.16313 0.15618 0.6485 0.0
H2150 H 0.12917 0.12701 0.63413 0.0
H2151 H 0.16458 0.1198 0.59767 0.0
H2152 H 0.19875 0.14914 0.61173 0.0
H2153 H 0.28377 0.17891 0.6926 0.0
H2154 H 0.25665 0.18776 0.68304 0.0
H2155 H 0.25936 0.16665 0.63524 0.0
H2156 H 0.28638 0.15737 0.64475 0.0
H2157 H 0.21817 0.15244 0.64105 0.0
H2158 H 0.28386 0.22003 0.64777 0.0
H2159 H 0.31811 0.24926 0.66174 0.0
H2160 H 0.28328 0.25951 0.69729 0.0
H2161 H 0.24882 0.23012 0.68365 0.0
C2162 C 0.16684 0.2032 0.61954 0.0
C2163 C 0.15899 0.2111 0.63136 0.0
C2164 C 0.18216 0.19709 0.62354 0.0
C2165 C 0.19 0.19894 0.63943 0.0
C2166 C 0.18218 0.2069 0.65122 0.0
C2167 C 0.16684 0.21291 0.64723 0.0
C2168 C 0.20685 0.19328 0.6438 0.0
C2169 C 0.22639 0.20914 0.65223 0.0
C2170 C 0.20398 0.17267 0.63952 0.0
C2171 C 0.18346 0.15501 0.63108 0.0
C2172 C 0.16366 0.1485 0.63735 0.0
C2173 C 0.14437 0.13191 0.62928 0.0
C2174 C 0.14471 0.1216 0.61498 0.0
C2175 C 0.16434 0.12782 0.60874 0.0
C2176 C 0.18367 0.14442 0.61676 0.0
C2177 C 0.27868 0.17615 0.68004 0.0
C2178 C 0.28738 0.1675 0.66945 0.0
C2179 C 0.26318 0.18131 0.67458 0.0
C2180 C 0.25616 0.17817 0.65838 0.0
C2181 C 0.26457 0.16927 0.64778 0.0
C2182 C 0.28007 0.16403 0.65324 0.0
C2183 C 0.24001 0.18417 0.65264 0.0
C2184 C 0.22065 0.16843 0.64391 0.0
C2185 C 0.24308 0.20495 0.65656 0.0
C2186 C 0.26376 0.22274 0.66475 0.0
C2187 C 0.28351 0.22841 0.65863 0.0
C2188 C 0.30296 0.24502 0.66647 0.0
C2189 C 0.30288 0.2562 0.68041 0.0
C2190 C 0.28332 0.25082 0.6865 0.0
C2191 C 0.26382 0.2342 0.67871 0.0
H2192 H 0.31795 0.26906 0.68647 0.0
H2193 H 0.12976 0.10876 0.60874 0.0
H2194 H 0.74817 0.93874 0.63481 0.0
H2195 H 0.76032 0.97718 0.63935 0.0
H2196 H 0.78128 0.97771 0.68804 0.0
H2197 H 0.76904 0.9392 0.68351 0.0
H2198 H 0.76057 0.00161 0.68446 0.0
H2199 H 0.81745 0.99473 0.6626 0.0
H2200 H 0.83284 0.98096 0.6431 0.0
H2201 H 0.81484 0.00943 0.60656 0.0
H2202 H 0.79902 0.0231 0.62581 0.0
H2203 H 0.82866 0.1149 0.70055 0.0
H2204 H 0.81385 0.076 0.69769 0.0
H2205 H 0.80054 0.07433 0.64734 0.0
H2206 H 0.81613 0.11329 0.65006 0.0
H2207 H 0.81727 0.05056 0.65243 0.0
H2208 H 0.76028 0.05763 0.67417 0.0
H2209 H 0.74433 0.07093 0.69357 0.0
H2210 H 0.76183 0.04204 0.73007 0.0
H2211 H 0.77817 0.02884 0.71095 0.0
C2212 C 0.75501 0.94704 0.64653 0.0
C2213 C 0.75742 0.93609 0.65888 0.0
C2214 C 0.76204 0.96894 0.64909 0.0
C2215 C 0.77181 0.98027 0.66401 0.0
C2216 C 0.7737 0.96921 0.67648 0.0
C2217 C 0.76672 0.94729 0.67389 0.0
C2218 C 0.78104 0.00384 0.66635 0.0
C2219 C 0.77313 0.01239 0.6776 0.0
C2220 C 0.79716 0.01777 0.65718 0.0
C2221 C 0.80687 0.00976 0.64562 0.0
C2222 C 0.81662 0.99792 0.65039 0.0
C2223 C 0.82545 0.99015 0.63938 0.0
C2224 C 0.82477 0.99427 0.62359 0.0
C2225 C 0.81533 0.00623 0.61879 0.0
C2226 C 0.80644 0.014 0.62974 0.0
C2227 C 0.82253 0.10621 0.68888 0.0
C2228 C 0.82353 0.11712 0.67553 0.0
C2229 C 0.81395 0.08396 0.68727 0.0
C2230 C 0.80574 0.07215 0.67232 0.0
C2231 C 0.80676 0.08307 0.65899 0.0
C2232 C 0.81566 0.10534 0.66056 0.0
C2233 C 0.79661 0.0485 0.67043 0.0
C2234 C 0.80464 0.03987 0.65929 0.0
C2235 C 0.78053 0.03453 0.67967 0.0
C2236 C 0.77062 0.04241 0.69115 0.0
C2237 C 0.76086 0.05425 0.68635 0.0
C2238 C 0.75174 0.06175 0.6973 0.0
C2239 C 0.75211 0.05735 0.71304 0.0
C2240 C 0.76158 0.04544 0.71787 0.0
C2241 C 0.77076 0.03793 0.70699 0.0
H2242 H 0.745 0.06311 0.72149 0.0
H2243 H 0.83161 0.98824 0.61509 0.0
H2244 H 0.50282 0.39842 0.69501 0.0
H2245 H 0.47648 0.36003 0.68867 0.0
H2246 H 0.47903 0.35077 0.73817 0.0
H2247 H 0.50537 0.38919 0.74453 0.0
H2248 H 0.48095 0.31947 0.71931 0.0
H2249 H 0.43716 0.35283 0.72106 0.0
H2250 H 0.42546 0.37842 0.71386 0.0
H2251 H 0.41184 0.35192 0.66531 0.0
H2252 H 0.42376 0.32636 0.67218 0.0
H2253 H 0.38705 0.21809 0.71959 0.0
H2254 H 0.41424 0.25619 0.72399 0.0
H2255 H 0.40673 0.26206 0.67421 0.0
H2256 H 0.3792 0.22388 0.66968 0.0
H2257 H 0.40808 0.29504 0.692 0.0
H2258 H 0.4505 0.26075 0.6902 0.0
H2259 H 0.46192 0.23491 0.69728 0.0
H2260 H 0.47825 0.26296 0.74553 0.0
H2261 H 0.46662 0.28878 0.73879 0.0
C2262 C 0.49783 0.38814 0.7045 0.0
C2263 C 0.50629 0.39664 0.72023 0.0
C2264 C 0.48274 0.36627 0.70089 0.0
C2265 C 0.47575 0.35257 0.71296 0.0
C2266 C 0.48428 0.36104 0.72867 0.0
C2267 C 0.49928 0.38292 0.7323 0.0
C2268 C 0.45942 0.32944 0.70924 0.0
C2269 C 0.46493 0.31411 0.71349 0.0
C2270 C 0.43874 0.32248 0.70127 0.0
C2271 C 0.43159 0.33785 0.69711 0.0
C2272 C 0.43186 0.35259 0.70882 0.0
C2273 C 0.42515 0.36707 0.70481 0.0
C2274 C 0.41798 0.36685 0.68913 0.0
C2275 C 0.41744 0.35211 0.67744 0.0
C2276 C 0.42416 0.33761 0.68139 0.0
C2277 C 0.39115 0.22743 0.70954 0.0
C2278 C 0.38097 0.21788 0.69426 0.0
C2279 C 0.40679 0.24922 0.71208 0.0
C2280 C 0.41274 0.26192 0.69941 0.0
C2281 C 0.40244 0.25254 0.68416 0.0
C2282 C 0.38674 0.2307 0.68159 0.0
C2283 C 0.42954 0.28503 0.70216 0.0
C2284 C 0.42413 0.30037 0.69773 0.0
C2285 C 0.45035 0.292 0.70992 0.0
C2286 C 0.4575 0.27658 0.71401 0.0
C2287 C 0.45637 0.26131 0.70235 0.0
C2288 C 0.46291 0.24668 0.7063 0.0
C2289 C 0.47076 0.24726 0.72185 0.0
C2290 C 0.47214 0.26252 0.73349 0.0
C2291 C 0.4656 0.27717 0.72961 0.0
H2292 H 0.4758 0.23592 0.72489 0.0
H2293 H 0.41278 0.37806 0.68605 0.0
H2294 H 0.63989 0.16301 0.74883 0.0
H2295 H 0.67619 0.17423 0.74139 0.0
H2296 H 0.65424 0.10948 0.72127 0.0
H2297 H 0.61812 0.09806 0.7292 0.0
H2298 H 0.69234 0.12475 0.73657 0.0
H2299 H 0.6613 0.15102 0.6984 0.0
H2300 H 0.64392 0.17121 0.68923 0.0
H2301 H 0.69813 0.23013 0.71142 0.0
H2302 H 0.71571 0.21024 0.7209 0.0
H2303 H 0.76951 0.14525 0.68054 0.0
H2304 H 0.7358 0.13813 0.69125 0.0
H2305 H 0.77138 0.19461 0.7246 0.0
H2306 H 0.8053 0.20151 0.7143 0.0
H2307 H 0.72855 0.18582 0.70422 0.0
H2308 H 0.75965 0.15811 0.74169 0.0
H2309 H 0.77677 0.13696 0.74894 0.0
H2310 H 0.72143 0.0795 0.72601 0.0
H2311 H 0.70419 0.10042 0.71837 0.0
C2312 C 0.64286 0.15109 0.74303 0.0
C2313 C 0.62622 0.12949 0.73988 0.0
C2314 C 0.66361 0.15758 0.73864 0.0
C2315 C 0.668 0.14276 0.73064 0.0
C2316 C 0.65137 0.12122 0.7275 0.0
C2317 C 0.63073 0.1147 0.73202 0.0
C2318 C 0.68976 0.14957 0.72533 0.0
C2319 C 0.70012 0.13803 0.72942 0.0
C2320 C 0.70023 0.16712 0.71618 0.0
C2321 C 0.6897 0.17911 0.71051 0.0
C2322 C 0.66943 0.16826 0.70143 0.0
C2323 C 0.65956 0.17965 0.69616 0.0
C2324 C 0.66988 0.20193 0.69979 0.0
C2325 C 0.69013 0.21287 0.70865 0.0
C2326 C 0.70006 0.20155 0.71397 0.0
C2327 C 0.77014 0.15622 0.69009 0.0
C2328 C 0.79003 0.17391 0.6966 0.0
C2329 C 0.75091 0.15211 0.6962 0.0
C2330 C 0.75117 0.16585 0.70869 0.0
C2331 C 0.77089 0.18385 0.71495 0.0
C2332 C 0.79022 0.1877 0.70909 0.0
C2333 C 0.7308 0.16092 0.71543 0.0
C2334 C 0.72075 0.17273 0.71154 0.0
C2335 C 0.7205 0.14352 0.72461 0.0
C2336 C 0.73074 0.13087 0.72931 0.0
C2337 C 0.75124 0.14101 0.73805 0.0
C2338 C 0.76096 0.12905 0.74225 0.0
C2339 C 0.75024 0.1069 0.73789 0.0
C2340 C 0.72976 0.09666 0.72935 0.0
C2341 C 0.72 0.10856 0.72509 0.0
H2342 H 0.75778 0.09767 0.74116 0.0
H2343 H 0.66222 0.21072 0.69569 0.0
H2344 H 0.94263 0.54385 0.72134 0.0
H2345 H 0.92721 0.56681 0.71603 0.0
H2346 H 0.86425 0.51042 0.70375 0.0
H2347 H 0.87985 0.48749 0.70841 0.0
H2348 H 0.86944 0.53814 0.68435 0.0
H2349 H 0.8789 0.54078 0.74056 0.0
H2350 H 0.89868 0.54619 0.76671 0.0
H2351 H 0.94193 0.61225 0.76011 0.0
H2352 H 0.92259 0.60715 0.73381 0.0
H2353 H 0.83058 0.61661 0.71559 0.0
H2354 H 0.84327 0.59136 0.72034 0.0
H2355 H 0.87316 0.60426 0.67677 0.0
H2356 H 0.86003 0.62897 0.67172 0.0
H2357 H 0.88179 0.59632 0.72506 0.0
H2358 H 0.87256 0.56056 0.66014 0.0
H2359 H 0.84878 0.55215 0.63541 0.0
H2360 H 0.79759 0.54673 0.66203 0.0
H2361 H 0.82094 0.55482 0.68692 0.0
C2362 C 0.92553 0.53642 0.71747 0.0
C2363 C 0.91229 0.51395 0.71562 0.0
C2364 C 0.9167 0.54952 0.71452 0.0
C2365 C 0.89446 0.54034 0.70984 0.0
C2366 C 0.88141 0.51787 0.70745 0.0
C2367 C 0.89028 0.50479 0.7102 0.0
C2368 C 0.88473 0.55412 0.70755 0.0
C2369 C 0.87215 0.55086 0.69325 0.0
C2370 C 0.88779 0.57037 0.71932 0.0
C2371 C 0.89941 0.57353 0.73515 0.0
C2372 C 0.89273 0.55642 0.74464 0.0
C2373 C 0.90384 0.55943 0.7595 0.0
C2374 C 0.92158 0.57954 0.76505 0.0
C2375 C 0.9282 0.59668 0.75578 0.0
C2376 C 0.91716 0.59374 0.7409 0.0
C2377 C 0.83977 0.61399 0.70699 0.0
C2378 C 0.84419 0.62469 0.69324 0.0
C2379 C 0.84706 0.5996 0.70974 0.0
C2380 C 0.85894 0.59572 0.69882 0.0
C2381 C 0.86362 0.60663 0.68519 0.0
C2382 C 0.85616 0.62083 0.68236 0.0
C2383 C 0.8668 0.58055 0.70177 0.0
C2384 C 0.87905 0.58357 0.71617 0.0
C2385 C 0.86286 0.56363 0.6903 0.0
C2386 C 0.84859 0.5585 0.67539 0.0
C2387 C 0.8562 0.55749 0.66072 0.0
C2388 C 0.8428 0.55279 0.64667 0.0
C2389 C 0.82171 0.54898 0.64715 0.0
C2390 C 0.81395 0.54977 0.66167 0.0
C2391 C 0.82728 0.55444 0.67575 0.0
H2392 H 0.81138 0.54536 0.63626 0.0
H2393 H 0.93016 0.58184 0.77656 0.0
H2394 H 0.45119 0.88048 0.23085 0.0
H2395 H 0.46007 0.89614 0.20575 0.0
H2396 H 0.44104 0.94212 0.22043 0.0
H2397 H 0.43223 0.92662 0.24557 0.0
H2398 H 0.42532 0.92537 0.19027 0.0
H2399 H 0.49428 0.95651 0.22152 0.0
H2400 H 0.52347 0.95584 0.23798 0.0
H2401 H 0.53157 0.91979 0.19974 0.0
H2402 H 0.5022 0.91999 0.18312 0.0
H2403 H 0.47331 0.00025 0.13435 0.0
H2404 H 0.46339 0.98259 0.15858 0.0
H2405 H 0.48441 0.93865 0.14265 0.0
H2406 H 0.49441 0.95628 0.11838 0.0
H2407 H 0.4987 0.9532 0.17298 0.0
H2408 H 0.43045 0.92258 0.14148 0.0
H2409 H 0.40113 0.92291 0.12493 0.0
H2410 H 0.39149 0.95744 0.16339 0.0
H2411 H 0.42095 0.95756 0.18012 0.0
C2412 C 0.44904 0.89402 0.22878 0.0
C2413 C 0.44105 0.90233 0.24024 0.0
C2414 C 0.45409 0.90293 0.21442 0.0
C2415 C 0.45143 0.92045 0.21127 0.0
C2416 C 0.44318 0.92859 0.22259 0.0
C2417 C 0.43809 0.91966 0.23693 0.0
C2418 C 0.45728 0.93037 0.19621 0.0
C2419 C 0.44144 0.93169 0.18658 0.0
C2420 C 0.47815 0.93811 0.19119 0.0
C2421 C 0.49589 0.93808 0.20113 0.0
C2422 C 0.50217 0.9483 0.21666 0.0
C2423 C 0.51876 0.94803 0.22601 0.0
C2424 C 0.52932 0.93773 0.21992 0.0
C2425 C 0.52335 0.92773 0.20445 0.0
C2426 C 0.50675 0.92794 0.19505 0.0
C2427 C 0.47562 0.98669 0.13593 0.0
C2428 C 0.48457 0.97962 0.1244 0.0
C2429 C 0.46995 0.97661 0.14979 0.0
C2430 C 0.4729 0.95911 0.15236 0.0
C2431 C 0.48199 0.95212 0.14094 0.0
C2432 C 0.48775 0.96225 0.12709 0.0
C2433 C 0.46677 0.94831 0.16707 0.0
C2434 C 0.48256 0.94682 0.17664 0.0
C2435 C 0.44583 0.94036 0.17201 0.0
C2436 C 0.42804 0.94025 0.162 0.0
C2437 C 0.42219 0.93038 0.14637 0.0
C2438 C 0.40552 0.93046 0.13696 0.0
C2439 C 0.39449 0.94023 0.14309 0.0
C2440 C 0.40006 0.94989 0.15866 0.0
C2441 C 0.41673 0.94988 0.16811 0.0
H2442 H 0.38159 0.94028 0.13579 0.0
H2443 H 0.54217 0.93753 0.22718 0.0
H2444 H 0.06912 0.55532 0.2623 0.0
H2445 H 0.05523 0.55035 0.23449 0.0
H2446 H 0.09756 0.52672 0.22158 0.0
H2447 H 0.11196 0.53222 0.24929 0.0
H2448 H 0.09651 0.5536 0.20092 0.0
H2449 H 0.04514 0.49206 0.22493 0.0
H2450 H 0.02007 0.47337 0.24462 0.0
H2451 H 0.98192 0.50178 0.23095 0.0
H2452 H 0.00697 0.52089 0.21132 0.0
H2453 H 0.04358 0.49769 0.12566 0.0
H2454 H 0.05982 0.50775 0.15312 0.0
H2455 H 0.01579 0.53006 0.16409 0.0
H2456 H 0.99955 0.52016 0.13663 0.0
H2457 H 0.0178 0.50525 0.18577 0.0
H2458 H 0.06849 0.56558 0.16076 0.0
H2459 H 0.09342 0.58371 0.14087 0.0
H2460 H 0.13277 0.55726 0.15617 0.0
H2461 H 0.10789 0.5387 0.17602 0.0
C2462 C 0.07569 0.54936 0.25351 0.0
C2463 C 0.09152 0.54401 0.25799 0.0
C2464 C 0.06762 0.54638 0.23765 0.0
C2465 C 0.07518 0.53791 0.22601 0.0
C2466 C 0.09146 0.5332 0.23039 0.0
C2467 C 0.09952 0.53617 0.24623 0.0
C2468 C 0.06565 0.53329 0.20933 0.0
C2469 C 0.07933 0.54287 0.19757 0.0
C2470 C 0.04318 0.51963 0.20503 0.0
C2471 C 0.02806 0.50809 0.21678 0.0
C2472 C 0.03151 0.49446 0.22621 0.0
C2473 C 0.01728 0.48377 0.23734 0.0
C2474 C 0.99945 0.48644 0.23906 0.0
C2475 C 0.99577 0.49976 0.22962 0.0
C2476 C 0.00996 0.51052 0.21849 0.0
C2477 C 0.03753 0.50498 0.13387 0.0
C2478 C 0.02028 0.50813 0.12897 0.0
C2479 C 0.04681 0.5107 0.14956 0.0
C2480 C 0.03913 0.51983 0.1606 0.0
C2481 C 0.02193 0.523 0.15575 0.0
C2482 C 0.01262 0.51726 0.14008 0.0
C2483 C 0.04864 0.52553 0.17732 0.0
C2484 C 0.03495 0.5161 0.1891 0.0
C2485 C 0.0711 0.5393 0.18162 0.0
C2486 C 0.08621 0.55059 0.16978 0.0
C2487 C 0.08237 0.56349 0.15981 0.0
C2488 C 0.09651 0.57387 0.14855 0.0
C2489 C 0.11464 0.5716 0.14723 0.0
C2490 C 0.11871 0.55899 0.1572 0.0
C2491 C 0.1046 0.54856 0.16846 0.0
H2492 H 0.12557 0.57963 0.1385 0.0
H2493 H 0.98845 0.47814 0.24768 0.0
H2494 H 0.49125 0.5391 0.25524 0.0
H2495 H 0.49863 0.53073 0.22892 0.0
H2496 H 0.43677 0.5204 0.20928 0.0
H2497 H 0.42906 0.52811 0.23579 0.0
H2498 H 0.4451 0.49227 0.19476 0.0
H2499 H 0.48393 0.56843 0.2076 0.0
H2500 H 0.50845 0.60262 0.2239 0.0
H2501 H 0.56105 0.59031 0.22098 0.0
H2502 H 0.53675 0.55586 0.20486 0.0
H2503 H 0.47631 0.51275 0.11585 0.0
H2504 H 0.464 0.51318 0.14195 0.0
H2505 H 0.52079 0.51455 0.16358 0.0
H2506 H 0.53291 0.51343 0.13754 0.0
H2507 H 0.51405 0.547 0.17658 0.0
H2508 H 0.4736 0.47029 0.16272 0.0
H2509 H 0.44817 0.437 0.14578 0.0
H2510 H 0.39752 0.45207 0.14945 0.0
H2511 H 0.42274 0.48562 0.16624 0.0
C2512 C 0.47917 0.53487 0.24531 0.0
C2513 C 0.4597 0.53446 0.24747 0.0
C2514 C 0.48341 0.53014 0.23027 0.0
C2515 C 0.46848 0.52544 0.21705 0.0
C2516 C 0.44858 0.52409 0.21929 0.0
C2517 C 0.44418 0.5285 0.23441 0.0
C2518 C 0.47415 0.52294 0.20086 0.0
C2519 C 0.46005 0.50436 0.19072 0.0
C2520 C 0.49374 0.53864 0.19559 0.0
C2521 C 0.50847 0.55947 0.20514 0.0
C2522 C 0.5007 0.57295 0.21052 0.0
C2523 C 0.51455 0.59238 0.21972 0.0
C2524 C 0.53628 0.59861 0.2235 0.0
C2525 C 0.54421 0.58545 0.21805 0.0
C2526 C 0.5304 0.56597 0.20887 0.0
C2527 C 0.48596 0.51263 0.1261 0.0
C2528 C 0.5057 0.51319 0.12456 0.0
C2529 C 0.47893 0.51297 0.14103 0.0
C2530 C 0.49151 0.51392 0.15468 0.0
C2531 C 0.51091 0.51394 0.15318 0.0
C2532 C 0.51786 0.51342 0.13828 0.0
C2533 C 0.48517 0.51622 0.1706 0.0
C2534 C 0.49913 0.53489 0.18066 0.0
C2535 C 0.46533 0.50078 0.17564 0.0
C2536 C 0.45012 0.48058 0.16561 0.0
C2537 C 0.45709 0.4666 0.1598 0.0
C2538 C 0.4427 0.44767 0.15025 0.0
C2539 C 0.42126 0.44246 0.14651 0.0
C2540 C 0.41414 0.45614 0.15235 0.0
C2541 C 0.42847 0.47511 0.16189 0.0
H2542 H 0.41014 0.42779 0.13912 0.0
H2543 H 0.54698 0.61366 0.23063 0.0
H2544 H 0.95863 0.50403 0.77602 0.0
H2545 H 0.97114 0.51338 0.80435 0.0
H2546 H 0.92379 0.44928 0.81349 0.0
H2547 H 0.91117 0.43992 0.78528 0.0
H2548 H 0.92596 0.48158 0.83488 0.0
H2549 H 0.97412 0.46104 0.81169 0.0
H2550 H 1.00021 0.46375 0.79307 0.0
H2551 H 0.04332 0.52954 0.81144 0.0
H2552 H 0.01732 0.52729 0.83003 0.0
H2553 H 0.9618 0.46448 0.9084 0.0
H2554 H 0.94978 0.46392 0.88085 0.0
H2555 H 0.0062 0.52599 0.87833 0.0
H2556 H 0.01849 0.52646 0.90592 0.0
H2557 H 1.00075 0.49992 0.85355 0.0
H2558 H 0.95508 0.51989 0.87881 0.0
H2559 H 0.92937 0.51787 0.89753 0.0
H2560 H 0.882 0.45513 0.87555 0.0
H2561 H 0.90754 0.45662 0.85683 0.0
C2562 C 0.95083 0.49202 0.78411 0.0
C2563 C 0.93407 0.47121 0.77848 0.0
C2564 C 0.95802 0.49734 0.80024 0.0
C2565 C 0.94844 0.48197 0.81096 0.0
C2566 C 0.93137 0.46136 0.80539 0.0
C2567 C 0.92432 0.45598 0.78929 0.0
C2568 C 0.95654 0.48698 0.82794 0.0
C2569 C 0.94226 0.48549 0.83901 0.0
C2570 C 0.97802 0.49275 0.83323 0.0
C2571 C 0.99367 0.49407 0.8221 0.0
C2572 C 0.98907 0.47614 0.81166 0.0
C2573 C 0.00386 0.47758 0.80113 0.0
C2574 C 0.02338 0.49683 0.80103 0.0
C2575 C 0.02818 0.51465 0.8115 0.0
C2576 C 0.01343 0.5133 0.82204 0.0
C2577 C 0.97147 0.47816 0.90205 0.0
C2578 C 0.99105 0.49554 0.90931 0.0
C2579 C 0.96457 0.47785 0.88631 0.0
C2580 C 0.97693 0.49506 0.87758 0.0
C2581 C 0.99639 0.51256 0.88485 0.0
C2582 C 0.0034 0.51279 0.90058 0.0
C2583 C 0.97005 0.49413 0.86062 0.0
C2584 C 0.98454 0.49637 0.84951 0.0
C2585 C 0.9488 0.48924 0.85531 0.0
C2586 C 0.9333 0.48831 0.86647 0.0
C2587 C 0.93923 0.50559 0.87803 0.0
C2588 C 0.92468 0.50456 0.88864 0.0
C2589 C 0.90408 0.48637 0.88775 0.0
C2590 C 0.89797 0.4692 0.87623 0.0
C2591 C 0.91247 0.47015 0.8656 0.0
H2592 H 0.89284 0.48559 0.89598 0.0
H2593 H 0.03481 0.49791 0.79288 0.0
H2594 H 0.52402 0.45597 0.7767 0.0
H2595 H 0.51593 0.46265 0.80315 0.0
H2596 H 0.58346 0.49181 0.82037 0.0
H2597 H 0.59157 0.48439 0.79403 0.0
H2598 H 0.55845 0.46569 0.84069 0.0
H2599 H 0.56023 0.52258 0.81312 0.0
H2600 H 0.55048 0.53842 0.79144 0.0
H2601 H 0.48388 0.50395 0.80065 0.0
H2602 H 0.49319 0.48766 0.82226 0.0
H2603 H 0.5502 0.51255 0.91382 0.0
H2604 H 0.56 0.50693 0.88774 0.0
H2605 H 0.4934 0.47873 0.86831 0.0
H2606 H 0.48365 0.4853 0.89416 0.0
H2607 H 0.51916 0.50537 0.84924 0.0
H2608 H 0.5173 0.44781 0.87642 0.0
H2609 H 0.52712 0.43202 0.89812 0.0
H2610 H 0.59394 0.46787 0.88967 0.0
H2611 H 0.58456 0.4841 0.86805 0.0
C2612 C 0.53714 0.46361 0.78614 0.0
C2613 C 0.55847 0.46968 0.78322 0.0
C2614 C 0.53252 0.46763 0.80123 0.0
C2615 C 0.54913 0.47802 0.81371 0.0
C2616 C 0.57039 0.48388 0.8109 0.0
C2617 C 0.57504 0.4798 0.7958 0.0
C2618 C 0.54424 0.4826 0.8297 0.0
C2619 C 0.55013 0.47464 0.8426 0.0
C2620 C 0.53301 0.4939 0.83216 0.0
C2621 C 0.52738 0.50376 0.81922 0.0
C2622 C 0.54348 0.51826 0.81045 0.0
C2623 C 0.53803 0.52734 0.79818 0.0
C2624 C 0.51656 0.52216 0.79464 0.0
C2625 C 0.5005 0.50793 0.80339 0.0
C2626 C 0.50585 0.49878 0.81566 0.0
C2627 C 0.53765 0.50534 0.90398 0.0
C2628 C 0.5161 0.49934 0.90614 0.0
C2629 C 0.54325 0.5019 0.88909 0.0
C2630 C 0.52739 0.49212 0.87608 0.0
C2631 C 0.50591 0.48621 0.87817 0.0
C2632 C 0.50032 0.48978 0.89302 0.0
C2633 C 0.53318 0.4883 0.86023 0.0
C2634 C 0.5275 0.49645 0.84735 0.0
C2635 C 0.5446 0.47718 0.8578 0.0
C2636 C 0.55025 0.46732 0.87072 0.0
C2637 C 0.53411 0.45244 0.87927 0.0
C2638 C 0.53959 0.44339 0.89154 0.0
C2639 C 0.56115 0.44898 0.8953 0.0
C2640 C 0.57726 0.46358 0.88676 0.0
C2641 C 0.57186 0.47269 0.87449 0.0
H2642 H 0.56536 0.44197 0.9048 0.0
H2643 H 0.51238 0.5292 0.78514 0.0
H2644 H 0.57503 0.08737 0.79494 0.0
H2645 H 0.56982 0.07245 0.82048 0.0
H2646 H 0.54217 0.11098 0.83546 0.0
H2647 H 0.54808 0.12652 0.81028 0.0
H2648 H 0.56814 0.11086 0.85904 0.0
H2649 H 0.51031 0.0574 0.82157 0.0
H2650 H 0.49459 0.03259 0.79711 0.0
H2651 H 0.52752 -0.00073 0.81153 0.0
H2652 H 0.54367 0.02408 0.836 0.0
H2653 H 0.50529 0.05352 0.91911 0.0
H2654 H 0.5202 0.07208 0.89597 0.0
H2655 H 0.54523 0.02977 0.88546 0.0
H2656 H 0.53026 0.01107 0.90862 0.0
H2657 H 0.52378 0.03186 0.85996 0.0
H2658 H 0.58275 0.0862 0.89693 0.0
H2659 H 0.59974 0.1122 0.92078 0.0
H2660 H 0.56358 0.14282 0.90766 0.0
H2661 H 0.54699 0.11751 0.88344 0.0
C2662 C 0.56812 0.09288 0.80376 0.0
C2663 C 0.56176 0.10798 0.8005 0.0
C2664 C 0.56498 0.0842 0.8183 0.0
C2665 C 0.5553 0.09035 0.82981 0.0
C2666 C 0.54958 0.10591 0.82675 0.0
C2667 C 0.55277 0.11462 0.81228 0.0
C2668 C 0.55053 0.08026 0.84489 0.0
C2669 C 0.55832 0.09359 0.85922 0.0
C2670 C 0.53813 0.0577 0.8452 0.0
C2671 C 0.52839 0.04275 0.83052 0.0
C2672 C 0.51433 0.04489 0.81946 0.0
C2673 C 0.50532 0.03081 0.80561 0.0
C2674 C 0.5101 0.01441 0.80274 0.0
C2675 C 0.52386 0.01201 0.81375 0.0
C2676 C 0.53294 0.02607 0.82762 0.0
C2677 C 0.51429 0.0484 0.91203 0.0
C2678 C 0.51651 0.03075 0.91566 0.0
C2679 C 0.52291 0.0591 0.89882 0.0
C2680 C 0.53407 0.0525 0.88903 0.0
C2681 C 0.5367 0.03517 0.89283 0.0
C2682 C 0.52804 0.02442 0.90602 0.0
C2683 C 0.54131 0.06247 0.87413 0.0
C2684 C 0.53387 0.04911 0.8598 0.0
C2685 C 0.55399 0.08498 0.87381 0.0
C2686 C 0.56352 0.09988 0.88849 0.0
C2687 C 0.57836 0.09843 0.89919 0.0
C2688 C 0.58799 0.11309 0.91272 0.0
C2689 C 0.58254 0.12897 0.91583 0.0
C2690 C 0.56772 0.13046 0.90527 0.0
C2691 C 0.55835 0.1161 0.89157 0.0
H2692 H 0.5899 0.14018 0.92637 0.0
H2693 H 0.50311 0.00352 0.79201 0.0
H2694 H 0.10753 0.26222 0.57898 0.0
H2695 H 0.11532 0.27752 0.55371 0.0
H2696 H 0.1193 0.22298 0.53441 0.0
H2697 H 0.1124 0.20812 0.55997 0.0
H2698 H 0.14934 0.25675 0.52436 0.0
H2699 H 0.07386 0.22924 0.5256 0.0
H2700 H 0.04042 0.22349 0.5364 0.0
H2701 H 0.06245 0.29095 0.53736 0.0
H2702 H 0.09618 0.29716 0.52678 0.0
H2703 H 0.14212 0.28265 0.44478 0.0
H2704 H 0.13256 0.26381 0.46858 0.0
H2705 H 0.14243 0.32141 0.49497 0.0
H2706 H 0.15275 0.34061 0.47148 0.0
H2707 H 0.10351 0.28328 0.49984 0.0
H2708 H 0.18047 0.30922 0.49916 0.0
H2709 H 0.21193 0.31249 0.48654 0.0
H2710 H 0.18376 0.24386 0.48236 0.0
H2711 H 0.15199 0.24017 0.49479 0.0
C2712 C 0.11005 0.25352 0.56932 0.0
C2713 C 0.10923 0.23394 0.57136 0.0
C2714 C 0.11439 0.2622 0.55485 0.0
C2715 C 0.11741 0.25119 0.54197 0.0
C2716 C 0.11695 0.23177 0.5441 0.0
C2717 C 0.113 0.22327 0.55869 0.0
C2718 C 0.12122 0.26008 0.52638 0.0
C2719 C 0.13907 0.26221 0.51892 0.0
C2720 C 0.10794 0.26734 0.51919 0.0
C2721 C 0.08764 0.26369 0.52552 0.0
C2722 C 0.07165 0.24287 0.52822 0.0
C2723 C 0.05263 0.23953 0.53429 0.0
C2724 C 0.04933 0.25685 0.53759 0.0
C2725 C 0.06503 0.27755 0.53481 0.0
C2726 C 0.0841 0.28099 0.52876 0.0
C2727 C 0.14251 0.29141 0.45568 0.0
C2728 C 0.14834 0.31323 0.45619 0.0
C2729 C 0.13689 0.28055 0.46923 0.0
C2730 C 0.13687 0.29126 0.48353 0.0
C2731 C 0.14225 0.31285 0.48403 0.0
C2732 C 0.14806 0.32377 0.47054 0.0
C2733 C 0.1317 0.28018 0.49812 0.0
C2734 C 0.1136 0.27764 0.50532 0.0
C2735 C 0.14445 0.27214 0.50488 0.0
C2736 C 0.16377 0.27441 0.49776 0.0
C2737 C 0.18093 0.29482 0.49546 0.0
C2738 C 0.19882 0.29675 0.48836 0.0
C2739 C 0.19981 0.27839 0.48361 0.0
C2740 C 0.18296 0.25807 0.48603 0.0
C2741 C 0.16502 0.25605 0.49312 0.0
H2742 H 0.21366 0.27992 0.47808 0.0
H2743 H 0.0346 0.25422 0.54229 0.0
H2744 H 0.72791 0.8411 0.59481 0.0
H2745 H 0.71744 0.83618 0.5664 0.0
H2746 H 0.76291 0.9032 0.56322 0.0
H2747 H 0.77326 0.90828 0.59182 0.0
H2748 H 0.72564 0.89068 0.54557 0.0
H2749 H 0.7748 0.86427 0.55161 0.0
H2750 H 0.78938 0.8428 0.56302 0.0
H2751 H 0.73056 0.7846 0.54583 0.0
H2752 H 0.71548 0.80574 0.53451 0.0
H2753 H 0.71645 0.87521 0.46142 0.0
H2754 H 0.73217 0.88368 0.48905 0.0
H2755 H 0.68677 0.81906 0.4985 0.0
H2756 H 0.67131 0.81036 0.47086 0.0
H2757 H 0.72752 0.83275 0.51243 0.0
H2758 H 0.67767 0.85954 0.50825 0.0
H2759 H 0.66291 0.8811 0.49728 0.0
H2760 H 0.72364 0.93892 0.51109 0.0
H2761 H 0.73887 0.91765 0.52195 0.0
C2762 C 0.73572 0.85477 0.58805 0.0
C2763 C 0.75155 0.87502 0.59547 0.0
C2764 C 0.72975 0.85194 0.57182 0.0
C2765 C 0.73973 0.86922 0.56263 0.0
C2766 C 0.7551 0.88962 0.57008 0.0
C2767 C 0.76096 0.89252 0.58639 0.0
C2768 C 0.73404 0.86581 0.54526 0.0
C2769 C 0.72643 0.87828 0.53827 0.0
C2770 C 0.73478 0.84941 0.53578 0.0
C2771 C 0.74395 0.83661 0.5423 0.0
C2772 C 0.76492 0.8469 0.55033 0.0
C2773 C 0.77328 0.83479 0.55678 0.0
C2774 C 0.76089 0.81236 0.55518 0.0
C2775 C 0.74013 0.80198 0.54707 0.0
C2776 C 0.73169 0.81402 0.54062 0.0
C2777 C 0.71002 0.86274 0.46934 0.0
C2778 C 0.69255 0.84216 0.46401 0.0
C2779 C 0.71891 0.86764 0.48514 0.0
C2780 C 0.71047 0.85206 0.49585 0.0
C2781 C 0.69348 0.83133 0.49043 0.0
C2782 C 0.68455 0.82644 0.47468 0.0
C2783 C 0.71884 0.85742 0.51281 0.0
C2784 C 0.72697 0.84531 0.51971 0.0
C2785 C 0.71865 0.87418 0.52219 0.0
C2786 C 0.70948 0.88699 0.51574 0.0
C2787 C 0.68793 0.87683 0.50883 0.0
C2788 C 0.67947 0.889 0.50265 0.0
C2789 C 0.69235 0.91136 0.50345 0.0
C2790 C 0.7137 0.92159 0.51046 0.0
C2791 C 0.72225 0.90949 0.51663 0.0
H2792 H 0.68577 0.92075 0.49866 0.0
H2793 H 0.76738 0.80301 0.56019 0.0
H2794 H 0.15977 0.87389 0.5893 0.0
H2795 H 0.16694 0.86697 0.56256 0.0
H2796 H 0.10198 0.84961 0.54483 0.0
H2797 H 0.09468 0.85656 0.57165 0.0
H2798 H 0.11496 0.82283 0.53095 0.0
H2799 H 0.14257 0.89867 0.541 0.0
H2800 H 0.16374 0.93436 0.55619 0.0
H2801 H 0.22228 0.93256 0.55192 0.0
H2802 H 0.20141 0.89669 0.53691 0.0
H2803 H 0.13704 0.83399 0.45022 0.0
H2804 H 0.12599 0.83638 0.47648 0.0
H2805 H 0.19119 0.85942 0.49726 0.0
H2806 H 0.2026 0.85814 0.47105 0.0
H2807 H 0.17637 0.88326 0.50924 0.0
H2808 H 0.14888 0.80715 0.49966 0.0
H2809 H 0.12776 0.77118 0.48486 0.0
H2810 H 0.06923 0.77328 0.48824 0.0
H2811 H 0.09005 0.8094 0.5029 0.0
C2812 C 0.147 0.86859 0.57971 0.0
C2813 C 0.12675 0.86604 0.58254 0.0
C2814 C 0.1511 0.86459 0.56445 0.0
C2815 C 0.13511 0.85813 0.55168 0.0
C2816 C 0.11455 0.85464 0.55453 0.0
C2817 C 0.1104 0.85859 0.56985 0.0
C2818 C 0.14027 0.85596 0.53531 0.0
C2819 C 0.12819 0.8361 0.52609 0.0
C2820 C 0.15776 0.8732 0.5291 0.0
C2821 C 0.1704 0.89491 0.53794 0.0
C2822 C 0.15994 0.90582 0.54339 0.0
C2823 C 0.17189 0.92609 0.55196 0.0
C2824 C 0.19434 0.9357 0.55505 0.0
C2825 C 0.20489 0.92508 0.54953 0.0
C2826 C 0.19301 0.90479 0.54098 0.0
C2827 C 0.14907 0.83966 0.46036 0.0
C2828 C 0.17074 0.84587 0.45847 0.0
C2829 C 0.14265 0.84078 0.47541 0.0
C2830 C 0.1577 0.84788 0.48889 0.0
C2831 C 0.17926 0.85384 0.48705 0.0
C2832 C 0.18572 0.85287 0.47203 0.0
C2833 C 0.15132 0.84998 0.50488 0.0
C2834 C 0.16312 0.86993 0.51404 0.0
C2835 C 0.1336 0.8328 0.511 0.0
C2836 C 0.12106 0.81106 0.50224 0.0
C2837 C 0.13153 0.80001 0.49715 0.0
C2838 C 0.1196 0.77958 0.4888 0.0
C2839 C 0.09717 0.76997 0.48558 0.0
C2840 C 0.08661 0.78075 0.49073 0.0
C2841 C 0.09846 0.80119 0.49907 0.0
H2842 H 0.08797 0.75416 0.47911 0.0
H2843 H 0.20356 0.95138 0.5617 0.0
H2844 H 0.63999 0.80882 0.10663 0.0
H2845 H 0.65453 0.81804 0.13453 0.0
H2846 H 0.59965 0.82396 0.14594 0.0
H2847 H 0.58567 0.81574 0.11792 0.0
H2848 H 0.63406 0.85351 0.16332 0.0
H2849 H 0.60277 0.7772 0.15053 0.0
H2850 H 0.59784 0.74454 0.13542 0.0
H2851 H 0.66455 0.76431 0.1482 0.0
H2852 H 0.66994 0.79725 0.16321 0.0
H2853 H 0.63715 0.83593 0.24479 0.0
H2854 H 0.62794 0.83487 0.21654 0.0
H2855 H 0.68483 0.83202 0.20647 0.0
H2856 H 0.69354 0.83191 0.23456 0.0
H2857 H 0.65067 0.80219 0.18836 0.0
H2858 H 0.68077 0.87801 0.20278 0.0
H2859 H 0.68437 0.9099 0.21817 0.0
H2860 H 0.61822 0.88998 0.20292 0.0
H2861 H 0.61414 0.85781 0.1876 0.0
C2862 C 0.6312 0.8123 0.11512 0.0
C2863 C 0.61169 0.81146 0.11024 0.0
C2864 C 0.63943 0.81747 0.13104 0.0
C2865 C 0.62793 0.82121 0.14241 0.0
C2866 C 0.60879 0.82109 0.13742 0.0
C2867 C 0.6008 0.81636 0.12144 0.0
C2868 C 0.63529 0.82431 0.15953 0.0
C2869 C 0.63751 0.84218 0.16883 0.0
C2870 C 0.64011 0.80972 0.16671 0.0
C2871 C 0.6368 0.78977 0.15787 0.0
C2872 C 0.61641 0.77463 0.15004 0.0
C2873 C 0.61353 0.75607 0.1415 0.0
C2874 C 0.63088 0.75237 0.14082 0.0
C2875 C 0.65113 0.7672 0.14873 0.0
C2876 C 0.6541 0.78581 0.15726 0.0
C2877 C 0.64772 0.83508 0.23658 0.0
C2878 C 0.66607 0.83394 0.24199 0.0
C2879 C 0.64256 0.83475 0.22043 0.0
C2880 C 0.65581 0.83357 0.20939 0.0
C2881 C 0.67442 0.833 0.21478 0.0
C2882 C 0.67949 0.83317 0.23089 0.0
C2883 C 0.64954 0.83143 0.19216 0.0
C2884 C 0.64741 0.81363 0.18285 0.0
C2885 C 0.64461 0.84597 0.18505 0.0
C2886 C 0.64711 0.86541 0.19415 0.0
C2887 C 0.66695 0.88035 0.20279 0.0
C2888 C 0.66908 0.89849 0.21149 0.0
C2889 C 0.65152 0.90194 0.21155 0.0
C2890 C 0.63181 0.88728 0.20287 0.0
C2891 C 0.62959 0.86911 0.19417 0.0
H2892 H 0.6532 0.91598 0.21829 0.0
H2893 H 0.62862 0.738 0.1342 0.0
H2894 H 0.19543 0.78902 0.11336 0.0
H2895 H 0.18754 0.79635 0.1397 0.0
H2896 H 0.25522 0.82631 0.15667 0.0
H2897 H 0.26315 0.81816 0.13044 0.0
H2898 H 0.23062 0.80149 0.17779 0.0
H2899 H 0.23194 0.85662 0.14831 0.0
H2900 H 0.22221 0.87146 0.12593 0.0
H2901 H 0.15556 0.83742 0.13506 0.0
H2902 H 0.16485 0.82212 0.15737 0.0
H2903 H 0.22099 0.85118 0.24919 0.0
H2904 H 0.23136 0.84494 0.22347 0.0
H2905 H 0.16467 0.81409 0.20363 0.0
H2906 H 0.15432 0.82116 0.2291 0.0
H2907 H 0.19057 0.8408 0.18426 0.0
H2908 H 0.18963 0.78507 0.2136 0.0
H2909 H 0.20005 0.77157 0.23654 0.0
H2910 H 0.2668 0.80792 0.22801 0.0
H2911 H 0.2568 0.82189 0.20514 0.0
C2912 C 0.20863 0.79692 0.12272 0.0
C2913 C 0.22995 0.80304 0.11975 0.0
C2914 C 0.20412 0.80131 0.13775 0.0
C2915 C 0.22083 0.81218 0.15011 0.0
C2916 C 0.24208 0.81801 0.14729 0.0
C2917 C 0.24661 0.81352 0.13225 0.0
C2918 C 0.21607 0.81754 0.16593 0.0
C2919 C 0.22212 0.81035 0.17923 0.0
C2920 C 0.20471 0.82882 0.16781 0.0
C2921 C 0.19907 0.83807 0.15443 0.0
C2922 C 0.21519 0.85217 0.14548 0.0
C2923 C 0.20975 0.86068 0.13281 0.0
C2924 C 0.18827 0.85534 0.12905 0.0
C2925 C 0.17219 0.84152 0.13798 0.0
C2926 C 0.17753 0.83294 0.15064 0.0
C2927 C 0.20855 0.84326 0.23932 0.0
C2928 C 0.1868 0.83664 0.24124 0.0
C2929 C 0.21448 0.83949 0.22466 0.0
C2930 C 0.19875 0.82879 0.21166 0.0
C2931 C 0.17707 0.8223 0.2135 0.0
C2932 C 0.17115 0.82616 0.22813 0.0
C2933 C 0.20484 0.8245 0.19607 0.0
C2934 C 0.19908 0.83196 0.18281 0.0
C2935 C 0.21653 0.81354 0.19427 0.0
C2936 C 0.22248 0.80468 0.20774 0.0
C2937 C 0.20654 0.79026 0.21666 0.0
C2938 C 0.21237 0.78253 0.22965 0.0
C2939 C 0.23408 0.78894 0.23376 0.0
C2940 C 0.24999 0.803 0.22483 0.0
C2941 C 0.24425 0.81081 0.21184 0.0
H2942 H 0.23856 0.78298 0.24385 0.0
H2943 H 0.18409 0.86195 0.11924 0.0
H2944 H 0.24795 0.45095 0.14019 0.0
H2945 H 0.24075 0.4361 0.16576 0.0
H2946 H 0.17762 0.38567 0.14533 0.0
H2947 H 0.1846 0.40066 0.11995 0.0
H2948 H 0.17418 0.40211 0.17232 0.0
H2949 H 0.22097 0.37705 0.15425 0.0
H2950 H 0.25426 0.38073 0.1445 0.0
H2951 H 0.29172 0.42149 0.1866 0.0
H2952 H 0.25868 0.41829 0.19652 0.0
H2953 H 0.14559 0.32948 0.23066 0.0
H2954 H 0.15633 0.34641 0.20627 0.0
H2955 H 0.21493 0.39817 0.2317 0.0
H2956 H 0.20446 0.38121 0.25615 0.0
H2957 H 0.22219 0.38317 0.20332 0.0
H2958 H 0.17469 0.4067 0.22169 0.0
H2959 H 0.14109 0.40229 0.23137 0.0
H2960 H 0.10459 0.36351 0.18834 0.0
H2961 H 0.13794 0.36743 0.1785 0.0
C2962 C 0.23265 0.43656 0.14116 0.0
C2963 C 0.21679 0.42702 0.12812 0.0
C2964 C 0.22855 0.42807 0.15576 0.0
C2965 C 0.20866 0.40968 0.15748 0.0
C2966 C 0.19302 0.39993 0.14435 0.0
C2967 C 0.19702 0.40851 0.12985 0.0
C2968 C 0.20369 0.40087 0.17301 0.0
C2969 C 0.18458 0.39773 0.17898 0.0
C2970 C 0.21752 0.39571 0.18197 0.0
C2971 C 0.23739 0.39762 0.17604 0.0
C2972 C 0.23633 0.38694 0.16137 0.0
C2973 C 0.25515 0.38891 0.15583 0.0
C2974 C 0.2751 0.40138 0.1649 0.0
C2975 C 0.27627 0.41186 0.17957 0.0
C2976 C 0.2575 0.40996 0.18516 0.0
C2977 C 0.16088 0.34434 0.23108 0.0
C2978 C 0.17424 0.35385 0.24541 0.0
C2979 C 0.16691 0.3541 0.21713 0.0
C2980 C 0.18638 0.37361 0.21719 0.0
C2981 C 0.19984 0.38311 0.2314 0.0
C2982 C 0.19376 0.37342 0.24539 0.0
C2983 C 0.19254 0.3841 0.2024 0.0
C2984 C 0.21187 0.38761 0.19663 0.0
C2985 C 0.17887 0.38952 0.19356 0.0
C2986 C 0.15879 0.38721 0.19942 0.0
C2987 C 0.15947 0.39709 0.21435 0.0
C2988 C 0.14048 0.3947 0.21985 0.0
C2989 C 0.12071 0.38258 0.21049 0.0
C2990 C 0.11991 0.37287 0.19559 0.0
C2991 C 0.13886 0.37519 0.19003 0.0
H2992 H 0.10603 0.38076 0.21477 0.0
H2993 H 0.28965 0.40289 0.16059 0.0
H2994 H 0.74293 0.55309 0.89503 0.0
H2995 H 0.75175 0.56987 0.87033 0.0
H2996 H 0.81844 0.60952 0.88971 0.0
H2997 H 0.80965 0.5931 0.91457 0.0
H2998 H 0.80326 0.63263 0.87473 0.0
H2999 H 0.80395 0.56694 0.86341 0.0
H3000 H 0.78921 0.52775 0.86161 0.0
H3001 H 0.73631 0.51793 0.82883 0.0
H3002 H 0.75058 0.55708 0.83062 0.0
H3003 H 0.84927 0.66971 0.80366 0.0
H3004 H 0.83998 0.65274 0.8282 0.0
H3005 H 0.77392 0.61198 0.80775 0.0
H3006 H 0.78307 0.62899 0.78316 0.0
H3007 H 0.7884 0.58934 0.82326 0.0
H3008 H 0.78749 0.65478 0.83441 0.0
H3009 H 0.80191 0.69392 0.8362 0.0
H3010 H 0.85469 0.70418 0.86929 0.0
H3011 H 0.84075 0.66509 0.86751 0.0
C3012 C 0.75945 0.56547 0.89406 0.0
C3013 C 0.77561 0.57174 0.90674 0.0
C3014 C 0.7645 0.57492 0.8799 0.0
C3015 C 0.78579 0.59081 0.87813 0.0
C3016 C 0.80191 0.59725 0.89081 0.0
C3017 C 0.7969 0.58774 0.90495 0.0
C3018 C 0.79122 0.60085 0.8631 0.0
C3019 C 0.80029 0.62321 0.8635 0.0
C3020 C 0.78681 0.58848 0.8484 0.0
C3021 C 0.77822 0.56493 0.84728 0.0
C3022 C 0.78908 0.55642 0.85593 0.0
C3023 C 0.78082 0.53421 0.85489 0.0
C3024 C 0.7618 0.52035 0.84514 0.0
C3025 C 0.75103 0.52869 0.83639 0.0
C3026 C 0.7592 0.55088 0.8374 0.0
C3027 C 0.83271 0.65729 0.80442 0.0
C3028 C 0.81689 0.6508 0.79146 0.0
C3029 C 0.82743 0.64757 0.81846 0.0
C3030 C 0.80619 0.63126 0.81988 0.0
C3031 C 0.79042 0.62453 0.80691 0.0
C3032 C 0.79569 0.63423 0.79285 0.0
C3033 C 0.80049 0.62114 0.83488 0.0
C3034 C 0.79136 0.59877 0.83448 0.0
C3035 C 0.80479 0.6335 0.84958 0.0
C3036 C 0.81319 0.65701 0.85071 0.0
C3037 C 0.80227 0.66539 0.84197 0.0
C3038 C 0.81034 0.68757 0.843 0.0
C3039 C 0.82923 0.70153 0.85282 0.0
C3040 C 0.84007 0.69334 0.86167 0.0
C3041 C 0.83208 0.67117 0.86066 0.0
H3042 H 0.83545 0.7187 0.85361 0.0
H3043 H 0.75545 0.50317 0.84435 0.0
H3044 H 0.39266 0.17245 0.92896 0.0
H3045 H 0.38148 0.16713 0.90062 0.0
H3046 H 0.42768 0.23367 0.89658 0.0
H3047 H 0.4389 0.23913 0.92503 0.0
H3048 H 0.38967 0.22144 0.87972 0.0
H3049 H 0.43839 0.19435 0.88479 0.0
H3050 H 0.45307 0.17263 0.89556 0.0
H3051 H 0.39364 0.11472 0.87896 0.0
H3052 H 0.37847 0.13612 0.86828 0.0
H3053 H 0.38033 0.20621 0.79547 0.0
H3054 H 0.39563 0.2145 0.82321 0.0
H3055 H 0.34968 0.14991 0.83237 0.0
H3056 H 0.33463 0.1414 0.80464 0.0
H3057 H 0.39034 0.16313 0.84618 0.0
H3058 H 0.34113 0.19057 0.84252 0.0
H3059 H 0.3265 0.2124 0.83186 0.0
H3060 H 0.38746 0.26993 0.84575 0.0
H3061 H 0.40255 0.24839 0.85629 0.0
C3062 C 0.40052 0.18593 0.92202 0.0
C3063 C 0.41679 0.20616 0.92918 0.0
C3064 C 0.39412 0.18287 0.90584 0.0
C3065 C 0.40402 0.19991 0.89645 0.0
C3066 C 0.41989 0.22029 0.90361 0.0
C3067 C 0.42624 0.22339 0.91985 0.0
C3068 C 0.39777 0.19634 0.87915 0.0
C3069 C 0.39017 0.20893 0.87233 0.0
C3070 C 0.3981 0.1798 0.86956 0.0
C3071 C 0.40724 0.16686 0.87585 0.0
C3072 C 0.4284 0.17699 0.88353 0.0
C3073 C 0.43681 0.16474 0.88961 0.0
C3074 C 0.42428 0.14231 0.88797 0.0
C3075 C 0.40332 0.1321 0.88022 0.0
C3076 C 0.39482 0.14428 0.87414 0.0
C3077 C 0.37367 0.19372 0.80337 0.0
C3078 C 0.3562 0.17319 0.79791 0.0
C3079 C 0.3823 0.19852 0.81922 0.0
C3080 C 0.37362 0.18288 0.82986 0.0
C3081 C 0.35656 0.16223 0.82435 0.0
C3082 C 0.34788 0.15744 0.80855 0.0
C3083 C 0.382 0.18803 0.84682 0.0
C3084 C 0.39003 0.17574 0.85355 0.0
C3085 C 0.38211 0.20488 0.85631 0.0
C3086 C 0.37304 0.21785 0.85003 0.0
C3087 C 0.35147 0.20786 0.84318 0.0
C3088 C 0.34309 0.22018 0.83718 0.0
C3089 C 0.35606 0.24253 0.83808 0.0
C3090 C 0.37744 0.25261 0.84503 0.0
C3091 C 0.38591 0.24036 0.85103 0.0
H3092 H 0.34954 0.25205 0.83343 0.0
H3093 H 0.43083 0.13285 0.89269 0.0
H3094 H 0.75807 0.18889 0.90046 0.0
H3095 H 0.76522 0.18067 0.87392 0.0
H3096 H 0.83129 0.20196 0.89144 0.0
H3097 H 0.82423 0.20993 0.91793 0.0
H3098 H 0.82864 0.22082 0.86535 0.0
H3099 H 0.79535 0.1492 0.88179 0.0
H3100 H 0.76626 0.117 0.89173 0.0
H3101 H 0.72233 0.10938 0.85193 0.0
H3102 H 0.7511 0.14173 0.84186 0.0
H3103 H 0.86779 0.1916 0.80132 0.0
H3104 H 0.85551 0.19276 0.82717 0.0
H3105 H 0.79023 0.16686 0.80548 0.0
H3106 H 0.80217 0.16446 0.77951 0.0
H3107 H 0.79013 0.15022 0.83284 0.0
H3108 H 0.82255 0.22079 0.81601 0.0
H3109 H 0.85085 0.25327 0.8058 0.0
H3110 H 0.89522 0.26355 0.84609 0.0
H3111 H 0.86727 0.23095 0.85643 0.0
C3112 C 0.774 0.19146 0.8987 0.0
C3113 C 0.79064 0.20026 0.91127 0.0
C3114 C 0.77807 0.18679 0.88353 0.0
C3115 C 0.7988 0.19073 0.88072 0.0
C3116 C 0.81522 0.19894 0.89334 0.0
C3117 C 0.81118 0.20356 0.90845 0.0
C3118 C 0.80389 0.18754 0.86451 0.0
C3119 C 0.8204 0.20531 0.85832 0.0
C3120 C 0.79259 0.16749 0.85514 0.0
C3121 C 0.77531 0.14802 0.86116 0.0
C3122 C 0.77943 0.14077 0.87523 0.0
C3123 C 0.76302 0.12247 0.88087 0.0
C3124 C 0.74244 0.11119 0.87249 0.0
C3125 C 0.73826 0.11816 0.85842 0.0
C3126 C 0.75462 0.13646 0.85273 0.0
C3127 C 0.85071 0.18565 0.802 0.0
C3128 C 0.83601 0.17804 0.78825 0.0
C3129 C 0.84376 0.18659 0.81682 0.0
C3130 C 0.82204 0.18034 0.81824 0.0
C3131 C 0.80711 0.17194 0.80465 0.0
C3132 C 0.81402 0.17079 0.7898 0.0
C3133 C 0.81523 0.18342 0.83383 0.0
C3134 C 0.79834 0.16572 0.83987 0.0
C3135 C 0.82604 0.20361 0.84306 0.0
C3136 C 0.84286 0.22332 0.83693 0.0
C3137 C 0.83838 0.22989 0.82264 0.0
C3138 C 0.85436 0.24834 0.81683 0.0
C3139 C 0.87483 0.26044 0.82527 0.0
C3140 C 0.87936 0.25415 0.83956 0.0
C3141 C 0.86345 0.2357 0.84541 0.0
H3142 H 0.88718 0.27471 0.82076 0.0
H3143 H 0.72975 0.09703 0.87688 0.0
H3144 H 0.25127 0.11236 0.45383 0.0
H3145 H 0.26266 0.12177 0.48213 0.0
H3146 H 0.30942 0.1864 0.4736 0.0
H3147 H 0.29841 0.17688 0.4451 0.0
H3148 H 0.32683 0.16987 0.49364 0.0
H3149 H 0.26475 0.17764 0.49014 0.0
H3150 H 0.227 0.16773 0.48214 0.0
H3151 H 0.20419 0.11259 0.50828 0.0
H3152 H 0.24181 0.12198 0.51625 0.0
H3153 H 0.3488 0.19362 0.578 0.0
H3154 H 0.33776 0.19624 0.5507 0.0
H3155 H 0.28891 0.12903 0.54621 0.0
H3156 H 0.29974 0.12638 0.57337 0.0
H3157 H 0.27415 0.15437 0.53317 0.0
H3158 H 0.33619 0.14392 0.53257 0.0
H3159 H 0.37396 0.15357 0.54027 0.0
H3160 H 0.39669 0.21444 0.52162 0.0
H3161 H 0.359 0.20524 0.51401 0.0
C3162 C 0.26406 0.12855 0.45796 0.0
C3163 C 0.27403 0.14386 0.44725 0.0
C3164 C 0.27037 0.13398 0.47415 0.0
C3165 C 0.28669 0.15487 0.47998 0.0
C3166 C 0.2967 0.17023 0.46934 0.0
C3167 C 0.29033 0.16481 0.4531 0.0
C3168 C 0.29378 0.16015 0.49716 0.0
C3169 C 0.31542 0.16699 0.5023 0.0
C3170 C 0.27884 0.15618 0.50843 0.0
C3171 C 0.25614 0.15047 0.50372 0.0
C3172 C 0.25169 0.16331 0.4941 0.0
C3173 C 0.23031 0.1578 0.48958 0.0
C3174 C 0.21321 0.13952 0.49468 0.0
C3175 C 0.21746 0.12675 0.50434 0.0
C3176 C 0.23882 0.13218 0.50888 0.0
C3177 C 0.33553 0.17952 0.57122 0.0
C3178 C 0.32524 0.15974 0.5777 0.0
C3179 C 0.32932 0.181 0.55565 0.0
C3180 C 0.31263 0.16278 0.54644 0.0
C3181 C 0.30182 0.14327 0.55313 0.0
C3182 C 0.30813 0.14173 0.56858 0.0
C3183 C 0.30698 0.16346 0.52956 0.0
C3184 C 0.28562 0.15773 0.5245 0.0
C3185 C 0.32218 0.1685 0.51836 0.0
C3186 C 0.3448 0.17402 0.52292 0.0
C3187 C 0.34924 0.15944 0.53025 0.0
C3188 C 0.37063 0.16481 0.53457 0.0
C3189 C 0.38771 0.18464 0.53148 0.0
C3190 C 0.38344 0.19911 0.52403 0.0
C3191 C 0.36208 0.19383 0.51971 0.0
H3192 H 0.40426 0.18877 0.53483 0.0
H3193 H 0.19667 0.13528 0.49117 0.0
H3194 H 0.90251 0.1689 0.4477 0.0
H3195 H 0.89311 0.17489 0.4739 0.0
H3196 H 0.87604 0.11029 0.48289 0.0
H3197 H 0.88527 0.10417 0.45665 0.0
H3198 H 0.84641 0.11911 0.49202 0.0
H3199 H 0.92377 0.15431 0.49975 0.0
H3200 H 0.96115 0.17924 0.49428 0.0
H3201 H 0.95102 0.23277 0.50279 0.0
H3202 H 0.91346 0.20811 0.5081 0.0
H3203 H 0.84263 0.13231 0.57497 0.0
H3204 H 0.8531 0.12643 0.54914 0.0
H3205 H 0.8655 0.18904 0.53827 0.0
H3206 H 0.85541 0.19518 0.56418 0.0
H3207 H 0.89772 0.18111 0.53035 0.0
H3208 H 0.82003 0.14533 0.52242 0.0
H3209 H 0.78289 0.12009 0.5282 0.0
H3210 H 0.79416 0.0672 0.52042 0.0
H3211 H 0.8315 0.09217 0.51481 0.0
C3212 C 0.89693 0.15605 0.45532 0.0
C3213 C 0.89469 0.13608 0.45014 0.0
C3214 C 0.89157 0.15948 0.47029 0.0
C3215 C 0.88412 0.14313 0.48045 0.0
C3216 C 0.88174 0.12314 0.47526 0.0
C3217 C 0.88698 0.11965 0.46025 0.0
C3218 C 0.8785 0.14674 0.4964 0.0
C3219 C 0.85775 0.13249 0.50048 0.0
C3220 C 0.89314 0.16446 0.50734 0.0
C3221 C 0.91573 0.17934 0.50417 0.0
C3222 C 0.92946 0.17138 0.50033 0.0
C3223 C 0.95069 0.18547 0.49728 0.0
C3224 C 0.95844 0.20757 0.49815 0.0
C3225 C 0.94499 0.21564 0.5021 0.0
C3226 C 0.92373 0.20162 0.50515 0.0
C3227 C 0.84774 0.14488 0.56712 0.0
C3228 C 0.84811 0.16417 0.57158 0.0
C3229 C 0.85356 0.14144 0.55233 0.0
C3230 C 0.85988 0.15723 0.54174 0.0
C3231 C 0.8606 0.17663 0.54625 0.0
C3232 C 0.85467 0.18004 0.561 0.0
C3233 C 0.86567 0.15349 0.52592 0.0
C3234 C 0.88643 0.16771 0.52188 0.0
C3235 C 0.8511 0.1357 0.51505 0.0
C3236 C 0.82863 0.12065 0.51835 0.0
C3237 C 0.81465 0.12833 0.52207 0.0
C3238 C 0.79355 0.11408 0.52529 0.0
C3239 C 0.78619 0.09206 0.52472 0.0
C3240 C 0.79989 0.08426 0.52088 0.0
C3241 C 0.82102 0.09846 0.51767 0.0
H3242 H 0.76984 0.08105 0.52722 0.0
H3243 H 0.97489 0.21845 0.49578 0.0
H3244 H 0.87632 0.78743 0.4744 0.0
H3245 H 0.8686 0.77094 0.49919 0.0
H3246 H 0.88995 0.72743 0.48287 0.0
H3247 H 0.8973 0.74363 0.45779 0.0
H3248 H 0.85151 0.70653 0.49532 0.0
H3249 H 0.92102 0.76824 0.5111 0.0
H3250 H 0.94876 0.80671 0.51399 0.0
H3251 H 0.90879 0.82119 0.54187 0.0
H3252 H 0.88064 0.78282 0.53896 0.0
H3253 H 0.84705 0.66542 0.56977 0.0
H3254 H 0.85971 0.68241 0.54561 0.0
H3255 H 0.84195 0.7298 0.55902 0.0
H3256 H 0.82931 0.7129 0.58324 0.0
H3257 H 0.88071 0.74835 0.54803 0.0
H3258 H 0.81041 0.68734 0.53088 0.0
H3259 H 0.78222 0.649 0.5278 0.0
H3260 H 0.82337 0.63341 0.50234 0.0
H3261 H 0.85193 0.67164 0.50545 0.0
C3262 C 0.87938 0.77435 0.47608 0.0
C3263 C 0.88735 0.76678 0.46411 0.0
C3264 C 0.87513 0.76506 0.49031 0.0
C3265 C 0.87886 0.74807 0.49294 0.0
C3266 C 0.88702 0.74058 0.4811 0.0
C3267 C 0.89135 0.74994 0.46684 0.0
C3268 C 0.87338 0.73763 0.50783 0.0
C3269 C 0.8582 0.71559 0.50685 0.0
C3270 C 0.88171 0.74957 0.52287 0.0
C3271 C 0.89864 0.77266 0.52469 0.0
C3272 C 0.91806 0.77964 0.51774 0.0
C3273 C 0.93388 0.80143 0.51941 0.0
C3274 C 0.93052 0.81639 0.52808 0.0
C3275 C 0.91136 0.80958 0.53515 0.0
C3276 C 0.89548 0.78781 0.5335 0.0
C3277 C 0.84567 0.67935 0.56751 0.0
C3278 C 0.83705 0.68773 0.57839 0.0
C3279 C 0.85295 0.68908 0.55371 0.0
C3280 C 0.85155 0.70724 0.5504 0.0
C3281 C 0.84322 0.71581 0.56133 0.0
C3282 C 0.83603 0.70616 0.57518 0.0
C3283 C 0.85868 0.71728 0.53553 0.0
C3284 C 0.87415 0.73926 0.5365 0.0
C3285 C 0.85057 0.7053 0.52048 0.0
C3286 C 0.83339 0.68232 0.51855 0.0
C3287 C 0.81351 0.67571 0.52474 0.0
C3288 C 0.79746 0.654 0.52296 0.0
C3289 C 0.80103 0.63877 0.51492 0.0
C3290 C 0.82064 0.64522 0.50859 0.0
C3291 C 0.83676 0.66691 0.51034 0.0
H3292 H 0.78858 0.62197 0.51356 0.0
H3293 H 0.94279 0.83325 0.52936 0.0
loop_
_geom_bond_atom_site_label_1
_geom_bond_atom_site_label_2
_geom_bond_distance
_geom_bond_site_symmetry_2
_ccdc_geom_bond_type
H0 C7 0.929 . S
H1 C10 0.930 . S
H2 C12 0.929 . S
H3 C4 0.969 . S
C4 H3 0.969 . S
C4 O5 1.550 . S
C4 H6 0.973 . S
O5 C4 1.550 . S
O5 C11 1.412 . S
H6 C4 0.973 . S
C7 H0 0.929 . S
C7 C8 1.400 . S
C7 C9 1.364 . S
C8 C7 1.400 . S
C8 C12 1.377 . S
C9 C7 1.364 . S
C9 C10 1.374 . S
C10 H1 0.930 . S
C10 C9 1.374 . S
C10 C11 1.383 . S
C11 O5 1.412 . S
C11 C10 1.383 . S
C11 C12 1.394 . S
C12 H2 0.929 . S
C12 C8 1.377 . S
C12 C11 1.394 . S
H13 C20 0.929 . S
H14 C23 0.930 . S
H15 C25 0.929 . S
H16 C17 0.969 . S
C17 H16 0.969 . S
C17 O18 1.550 . S
C17 H19 0.973 . S
O18 C17 1.550 . S
O18 C24 1.412 . S
H19 C17 0.973 . S
C20 H13 0.929 . S
C20 C21 1.400 . S
C20 C22 1.364 . S
C21 C20 1.400 . S
C21 C25 1.377 . S
C22 C20 1.364 . S
C22 C23 1.374 . S
C23 H14 0.930 . S
C23 C22 1.374 . S
C23 C24 1.383 . S
C24 O18 1.412 . S
C24 C23 1.383 . S
C24 C25 1.394 . S
C25 H15 0.929 . S
C25 C21 1.377 . S
C25 C24 1.394 . S
H26 C33 0.929 . S
H27 C36 0.930 . S
H28 C38 0.929 . S
H29 C30 0.969 . S
C30 H29 0.969 . S
C30 O31 1.550 . S
C30 H32 0.973 . S
O31 C30 1.550 . S
O31 C37 1.412 . S
H32 C30 0.973 . S
C33 H26 0.929 . S
C33 C34 1.400 . S
C33 C35 1.364 . S
C34 C33 1.400 . S
C34 C38 1.377 . S
C35 C33 1.364 . S
C35 C36 1.374 . S
C36 H27 0.930 . S
C36 C35 1.374 . S
C36 C37 1.383 . S
C37 O31 1.412 . S
C37 C36 1.383 . S
C37 C38 1.394 . S
C38 H28 0.929 . S
C38 C34 1.377 . S
C38 C37 1.394 . S
H39 C46 0.929 . S
H40 C49 0.930 . S
H41 C51 0.929 . S
H42 C43 0.969 . S
C43 H42 0.969 . S
C43 O44 1.550 . S
C43 H45 0.973 . S
O44 C43 1.550 . S
O44 C50 1.412 . S
H45 C43 0.973 . S
C46 H39 0.929 . S
C46 C47 1.400 . S
C46 C48 1.364 . S
C47 C46 1.400 . S
C47 C51 1.377 . S
C48 C46 1.364 . S
C48 C49 1.374 . S
C49 H40 0.930 . S
C49 C48 1.374 . S
C49 C50 1.383 . S
C50 O44 1.412 . S
C50 C49 1.383 . S
C50 C51 1.394 . S
C51 H41 0.929 . S
C51 C47 1.377 . S
C51 C50 1.394 . S
H52 C59 0.929 . S
H53 C62 0.930 . S
H54 C64 0.929 . S
H55 C56 0.969 . S
C56 H55 0.969 . S
C56 O57 1.550 . S
C56 H58 0.973 . S
O57 C56 1.550 . S
O57 C63 1.412 . S
H58 C56 0.973 . S
C59 H52 0.929 . S
C59 C60 1.400 . S
C59 C61 1.364 . S
C60 C59 1.400 . S
C60 C64 1.377 . S
C61 C59 1.364 . S
C61 C62 1.374 . S
C62 H53 0.930 . S
C62 C61 1.374 . S
C62 C63 1.383 . S
C63 O57 1.412 . S
C63 C62 1.383 . S
C63 C64 1.394 . S
C64 H54 0.929 . S
C64 C60 1.377 . S
C64 C63 1.394 . S
H65 C72 0.929 . S
H66 C75 0.930 . S
H67 C77 0.929 . S
H68 C69 0.969 . S
C69 H68 0.969 . S
C69 O70 1.550 . S
C69 H71 0.973 . S
O70 C69 1.550 . S
O70 C76 1.412 . S
H71 C69 0.973 . S
C72 H65 0.929 . S
C72 C73 1.400 . S
C72 C74 1.364 . S
C73 C72 1.400 . S
C73 C77 1.377 . S
C74 C72 1.364 . S
C74 C75 1.374 . S
C75 H66 0.930 . S
C75 C74 1.374 . S
C75 C76 1.383 . S
C76 O70 1.412 . S
C76 C75 1.383 . S
C76 C77 1.394 . S
C77 H67 0.929 . S
C77 C73 1.377 . S
C77 C76 1.394 . S
H78 C85 0.929 . S
H79 C88 0.930 . S
H80 C90 0.929 . S
H81 C82 0.969 . S
C82 H81 0.969 . S
C82 O83 1.550 . S
C82 H84 0.973 . S
O83 C82 1.550 . S
O83 C89 1.412 . S
H84 C82 0.973 . S
C85 H78 0.929 . S
C85 C86 1.400 . S
C85 C87 1.364 . S
C86 C85 1.400 . S
C86 C90 1.377 . S
C87 C85 1.364 . S
C87 C88 1.374 . S
C88 H79 0.930 . S
C88 C87 1.374 . S
C88 C89 1.383 . S
C89 O83 1.412 . S
C89 C88 1.383 . S
C89 C90 1.394 . S
C90 H80 0.929 . S
C90 C86 1.377 . S
C90 C89 1.394 . S
H91 C98 0.929 . S
H92 C101 0.930 . S
H93 C103 0.929 . S
H94 C95 0.969 . S
C95 H94 0.969 . S
C95 O96 1.550 . S
C95 H97 0.973 . S
O96 C95 1.550 . S
O96 C102 1.412 . S
H97 C95 0.973 . S
C98 H91 0.929 . S
C98 C99 1.400 . S
C98 C100 1.364 . S
C99 C98 1.400 . S
C99 C103 1.377 . S
C100 C98 1.364 . S
C100 C101 1.374 . S
C101 H92 0.930 . S
C101 C100 1.374 . S
C101 C102 1.383 . S
C102 O96 1.412 . S
C102 C101 1.383 . S
C102 C103 1.394 . S
C103 H93 0.929 . S
C103 C99 1.377 . S
C103 C102 1.394 . S
H104 C111 0.929 . S
H105 C114 0.930 . S
H106 C116 0.929 . S
H107 C108 0.969 . S
C108 H107 0.969 . S
C108 O109 1.550 . S
C108 H110 0.973 . S
O109 C108 1.550 . S
O109 C115 1.412 . S
H110 C108 0.973 . S
C111 H104 0.929 . S
C111 C112 1.400 . S
C111 C113 1.364 . S
C112 C111 1.400 . S
C112 C116 1.377 . S
C113 C111 1.364 . S
C113 C114 1.374 . S
C114 H105 0.930 . S
C114 C113 1.374 . S
C114 C115 1.383 . S
C115 O109 1.412 . S
C115 C114 1.383 . S
C115 C116 1.394 . S
C116 H106 0.929 . S
C116 C112 1.377 . S
C116 C115 1.394 . S
H117 C124 0.929 . S
H118 C127 0.930 . S
H119 C129 0.929 . S
H120 C121 0.969 . S
C121 H120 0.969 . S
C121 O122 1.550 . S
C121 H123 0.973 . S
O122 C121 1.550 . S
O122 C128 1.412 . S
H123 C121 0.973 . S
C124 H117 0.929 . S
C124 C125 1.400 . S
C124 C126 1.364 . S
C125 C124 1.400 . S
C125 C129 1.377 . S
C126 C124 1.364 . S
C126 C127 1.374 . S
C127 H118 0.930 . S
C127 C126 1.374 . S
C127 C128 1.383 . S
C128 O122 1.412 . S
C128 C127 1.383 . S
C128 C129 1.394 . S
C129 H119 0.929 . S
C129 C125 1.377 . S
C129 C128 1.394 . S
H130 C137 0.929 . S
H131 C140 0.930 . S
H132 C142 0.929 . S
H133 C134 0.969 . S
C134 H133 0.969 . S
C134 O135 1.550 . S
C134 H136 0.973 . S
O135 C134 1.550 . S
O135 C141 1.412 . S
H136 C134 0.973 . S
C137 H130 0.929 . S
C137 C138 1.400 . S
C137 C139 1.364 . S
C138 C137 1.400 . S
C138 C142 1.377 . S
C139 C137 1.364 . S
C139 C140 1.374 . S
C140 H131 0.930 . S
C140 C139 1.374 . S
C140 C141 1.383 . S
C141 O135 1.412 . S
C141 C140 1.383 . S
C141 C142 1.394 . S
C142 H132 0.929 . S
C142 C138 1.377 . S
C142 C141 1.394 . S
H143 C150 0.929 . S
H144 C153 0.930 . S
H145 C155 0.929 . S
H146 C147 0.969 . S
C147 H146 0.969 . S
C147 O148 1.550 . S
C147 H149 0.973 . S
O148 C147 1.550 . S
O148 C154 1.412 . S
H149 C147 0.973 . S
C150 H143 0.929 . S
C150 C151 1.400 . S
C150 C152 1.364 . S
C151 C150 1.400 . S
C151 C155 1.377 . S
C152 C150 1.364 . S
C152 C153 1.374 . S
C153 H144 0.930 . S
C153 C152 1.374 . S
C153 C154 1.383 . S
C154 O148 1.412 . S
C154 C153 1.383 . S
C154 C155 1.394 . S
C155 H145 0.929 . S
C155 C151 1.377 . S
C155 C154 1.394 . S
H156 C163 0.929 . S
H157 C166 0.930 . S
H158 C168 0.929 . S
H159 C160 0.969 . S
C160 H159 0.969 . S
C160 O161 1.550 . S
C160 H162 0.973 . S
O161 C160 1.550 . S
O161 C167 1.412 . S
H162 C160 0.973 . S
C163 H156 0.929 . S
C163 C164 1.400 . S
C163 C165 1.364 . S
C164 C163 1.400 . S
C164 C168 1.377 . S
C165 C163 1.364 . S
C165 C166 1.374 . S
C166 H157 0.930 . S
C166 C165 1.374 . S
C166 C167 1.383 . S
C167 O161 1.412 . S
C167 C166 1.383 . S
C167 C168 1.394 . S
C168 H158 0.929 . S
C168 C164 1.377 . S
C168 C167 1.394 . S
H169 C176 0.929 . S
H170 C179 0.930 . S
H171 C181 0.929 . S
H172 C173 0.969 . S
C173 H172 0.969 . S
C173 O174 1.550 . S
C173 H175 0.973 . S
O174 C173 1.550 . S
O174 C180 1.412 . S
H175 C173 0.973 . S
C176 H169 0.929 . S
C176 C177 1.400 . S
C176 C178 1.364 . S
C177 C176 1.400 . S
C177 C181 1.377 . S
C178 C176 1.364 . S
C178 C179 1.374 . S
C179 H170 0.930 . S
C179 C178 1.374 . S
C179 C180 1.383 . S
C180 O174 1.412 . S
C180 C179 1.383 . S
C180 C181 1.394 . S
C181 H171 0.929 . S
C181 C177 1.377 . S
C181 C180 1.394 . S
H182 C189 0.929 . S
H183 C192 0.930 . S
H184 C194 0.929 . S
H185 C186 0.969 . S
C186 H185 0.969 . S
C186 O187 1.550 . S
C186 H188 0.973 . S
O187 C186 1.550 . S
O187 C193 1.412 . S
H188 C186 0.973 . S
C189 H182 0.929 . S
C189 C190 1.400 . S
C189 C191 1.364 . S
C190 C189 1.400 . S
C190 C194 1.377 . S
C191 C189 1.364 . S
C191 C192 1.374 . S
C192 H183 0.930 . S
C192 C191 1.374 . S
C192 C193 1.383 . S
C193 O187 1.412 . S
C193 C192 1.383 . S
C193 C194 1.394 . S
C194 H184 0.929 . S
C194 C190 1.377 . S
C194 C193 1.394 . S
H195 C202 0.929 . S
H196 C205 0.930 . S
H197 C207 0.929 . S
H198 C199 0.969 . S
C199 H198 0.969 . S
C199 O200 1.550 . S
C199 H201 0.973 . S
O200 C199 1.550 . S
O200 C206 1.412 . S
H201 C199 0.973 . S
C202 H195 0.929 . S
C202 C203 1.400 . S
C202 C204 1.364 . S
C203 C202 1.400 . S
C203 C207 1.377 . S
C204 C202 1.364 . S
C204 C205 1.374 . S
C205 H196 0.930 . S
C205 C204 1.374 . S
C205 C206 1.383 . S
C206 O200 1.412 . S
C206 C205 1.383 . S
C206 C207 1.394 . S
C207 H197 0.929 . S
C207 C203 1.377 . S
C207 C206 1.394 . S
H208 C215 0.929 . S
H209 C218 0.930 . S
H210 C220 0.929 . S
H211 C212 0.969 . S
C212 H211 0.969 . S
C212 O213 1.550 . S
C212 H214 0.973 . S
O213 C212 1.550 . S
O213 C219 1.412 . S
H214 C212 0.973 . S
C215 H208 0.929 . S
C215 C216 1.400 . S
C215 C217 1.364 . S
C216 C215 1.400 . S
C216 C220 1.377 . S
C217 C215 1.364 . S
C217 C218 1.374 . S
C218 H209 0.930 . S
C218 C217 1.374 . S
C218 C219 1.383 . S
C219 O213 1.412 . S
C219 C218 1.383 . S
C219 C220 1.394 . S
C220 H210 0.929 . S
C220 C216 1.377 . S
C220 C219 1.394 . S
H221 C228 0.929 . S
H222 C231 0.930 . S
H223 C233 0.929 . S
H224 C225 0.969 . S
C225 H224 0.969 . S
C225 O226 1.550 . S
C225 H227 0.973 . S
O226 C225 1.550 . S
O226 C232 1.412 . S
H227 C225 0.973 . S
C228 H221 0.929 . S
C228 C229 1.400 . S
C228 C230 1.364 . S
C229 C228 1.400 . S
C229 C233 1.377 . S
C230 C228 1.364 . S
C230 C231 1.374 . S
C231 H222 0.930 . S
C231 C230 1.374 . S
C231 C232 1.383 . S
C232 O226 1.412 . S
C232 C231 1.383 . S
C232 C233 1.394 . S
C233 H223 0.929 . S
C233 C229 1.377 . S
C233 C232 1.394 . S
Eu234 C243 2.828 1_565 S
Eu234 O245 2.392 1_556 S
Eu234 O247 2.418 . S
Eu234 O252 2.373 1_565 S
Eu234 O255 2.488 . S
Eu234 O256 2.471 1_565 S
Eu234 O257 2.349 1_566 S
Eu235 O244 2.373 1_545 S
Eu235 O248 2.488 . S
Eu235 O249 2.471 1_545 S
Eu235 O250 2.349 1_545 S
Eu235 O253 2.392 . S
Eu235 O254 2.418 . S
Eu235 C264 2.828 . S
C236 O254 1.244 . S
C236 O257 1.265 . S
C237 C238 1.379 . S
C237 C241 1.373 . S
C237 C243 1.505 . S
C238 C237 1.379 . S
C238 C240 1.369 . S
C238 H266 0.930 . S
C239 C241 1.383 . S
C239 C242 1.382 . S
C239 H267 0.927 . S
C240 C238 1.369 . S
C240 C242 1.392 . S
C240 H268 0.930 . S
C241 C237 1.373 . S
C241 C239 1.383 . S
C241 H269 0.931 1_545 S
C242 C239 1.382 . S
C242 C240 1.392 . S
C243 Eu234 2.828 1_545 S
C243 C237 1.505 . S
C243 O255 1.249 1_545 S
C243 O256 1.244 . S
O244 Eu235 2.373 1_565 S
O244 C246 1.258 . S
O245 Eu234 2.392 1_554 S
O245 C246 1.242 . S
C246 O244 1.258 . S
C246 O245 1.242 . S
O247 Eu234 2.418 . S
O247 C251 1.244 1_556 S
O248 Eu235 2.488 . S
O248 C264 1.249 . S
O249 Eu235 2.471 1_565 S
O249 C264 1.244 1_565 S
O250 Eu235 2.349 1_565 S
O250 C251 1.265 . S
C251 O247 1.244 1_554 S
C251 O250 1.265 . S
O252 Eu234 2.373 1_545 S
O252 C265 1.258 1_556 S
O253 Eu235 2.392 . S
O253 C265 1.242 . S
O254 Eu235 2.418 . S
O254 C236 1.244 . S
O255 Eu234 2.488 . S
O255 C243 1.249 1_565 S
O256 Eu234 2.471 1_545 S
O256 C243 1.244 . S
O257 Eu234 2.349 1_544 S
O257 C236 1.265 . S
C258 C259 1.379 . S
C258 C262 1.373 1_565 S
C258 C264 1.505 1_565 S
C259 C258 1.379 . S
C259 C261 1.369 . S
C259 H270 0.930 . S
C260 C262 1.400 . S
C260 C263 1.323 1_545 S
C260 H271 0.975 . S
C261 C259 1.369 . S
C261 C263 1.392 . S
C261 H272 0.930 . S
C262 C258 1.373 1_545 S
C262 C260 1.400 . S
C262 H273 0.931 . S
C263 C260 1.323 1_565 S
C263 C261 1.392 . S
C264 Eu235 2.828 . S
C264 O248 1.249 . S
C264 O249 1.244 1_545 S
C264 C258 1.505 1_545 S
C265 O252 1.258 1_554 S
C265 O253 1.242 . S
H266 C238 0.930 . S
H267 C239 0.927 . S
H268 C240 0.930 . S
H269 C241 0.931 1_565 S
H270 C259 0.930 . S
H271 C260 0.975 . S
H272 C261 0.930 . S
H273 C262 0.931 . S
Eu274 C283 2.828 . S
Eu274 O285 2.392 1_556 S
Eu274 O287 2.428 . S
Eu274 O292 2.373 1_455 S
Eu274 O295 2.488 . S
Eu274 O296 2.471 1_455 S
Eu274 O297 2.349 1_456 S
Eu275 O284 2.373 1_655 S
Eu275 O288 2.488 . S
Eu275 O289 2.471 1_655 S
Eu275 O290 2.349 1_655 S
Eu275 O293 2.392 . S
Eu275 O294 2.418 . S
Eu275 C304 2.828 1_655 S
C276 O294 1.244 . S
C276 O297 1.265 . S
C277 C278 1.379 . S
C277 C281 1.373 1_655 S
C277 C283 1.505 1_655 S
C278 C277 1.379 . S
C278 C280 1.369 . S
C278 H306 0.930 . S
C279 C281 1.383 1_655 S
C279 C282 1.382 . S
C279 H307 0.930 1_655 S
C280 C278 1.369 . S
C280 C282 1.392 . S
C280 H308 0.930 . S
C281 C277 1.373 1_455 S
C281 C279 1.383 1_455 S
C281 H309 0.931 . S
C282 C279 1.382 . S
C282 C280 1.392 . S
C283 Eu274 2.828 . S
C283 C277 1.505 1_455 S
C283 O295 1.249 . S
C283 O296 1.244 1_455 S
O284 Eu275 2.373 1_455 S
O284 C286 1.258 . S
O285 Eu274 2.392 1_554 S
O285 C286 1.242 . S
C286 O284 1.258 . S
C286 O285 1.242 . S
O287 Eu274 2.428 . S
O287 C291 1.203 1_556 S
O288 Eu275 2.488 . S
O288 C304 1.249 1_655 S
O289 Eu275 2.471 1_455 S
O289 C304 1.244 . S
O290 Eu275 2.349 1_455 S
O290 C291 1.265 . S
C291 O287 1.203 1_554 S
C291 O290 1.265 . S
O292 Eu274 2.373 1_655 S
O292 C305 1.258 . S
O293 Eu275 2.392 . S
O293 C305 1.242 1_554 S
O294 Eu275 2.418 . S
O294 C276 1.244 . S
O295 Eu274 2.488 . S
O295 C283 1.249 . S
O296 Eu274 2.471 1_655 S
O296 C283 1.244 1_655 S
O297 Eu274 2.349 1_654 S
O297 C276 1.265 . S
C298 C299 1.379 . S
C298 C302 1.373 . S
C298 C304 1.505 . S
C299 C298 1.379 . S
C299 C301 1.369 . S
C299 H310 0.930 . S
C300 C302 1.383 . S
C300 C303 1.382 . S
C300 H311 0.930 . S
C301 C299 1.369 . S
C301 C303 1.392 . S
C301 H312 0.930 . S
C302 C298 1.373 . S
C302 C300 1.383 . S
C302 H313 0.931 1_455 S
C303 C300 1.382 . S
C303 C301 1.392 . S
C304 Eu275 2.828 1_455 S
C304 O288 1.249 1_455 S
C304 O289 1.244 . S
C304 C298 1.505 . S
C305 O292 1.258 . S
C305 O293 1.242 1_556 S
H306 C278 0.930 . S
H307 C279 0.930 1_455 S
H308 C280 0.930 . S
H309 C281 0.931 . S
H310 C299 0.930 . S
H311 C300 0.930 . S
H312 C301 0.930 . S
H313 C302 0.931 1_655 S
Eu314 C323 2.828 . S
Eu314 O325 2.392 . S
Eu314 O327 2.418 . S
Eu314 O332 2.373 . S
Eu314 O335 2.488 . S
Eu314 O336 2.471 . S
Eu314 O337 2.349 . S
Eu315 O324 2.373 . S
Eu315 O328 2.488 . S
Eu315 O329 2.471 . S
Eu315 O330 2.349 1_556 S
Eu315 O333 2.392 1_556 S
Eu315 O334 2.418 1_556 S
Eu315 C344 2.828 . S
C316 O334 1.244 . S
C316 O337 1.265 . S
C317 C318 1.379 . S
C317 C321 1.373 . S
C317 C323 1.505 . S
C318 C317 1.379 . S
C318 C320 1.369 . S
C318 H346 0.930 . S
C319 C321 1.383 . S
C319 C322 1.382 . S
C319 H347 0.930 . S
C320 C318 1.369 . S
C320 C322 1.392 . S
C320 H348 0.930 . S
C321 C317 1.373 . S
C321 C319 1.383 . S
C321 H349 0.931 . S
C322 C319 1.382 . S
C322 C320 1.392 . S
C323 Eu314 2.828 . S
C323 C317 1.505 . S
C323 O335 1.249 . S
C323 O336 1.244 . S
O324 Eu315 2.373 . S
O324 C326 1.258 1_556 S
O325 Eu314 2.392 . S
O325 C326 1.242 . S
C326 O324 1.258 1_554 S
C326 O325 1.242 . S
O327 Eu314 2.418 . S
O327 C331 1.244 . S
O328 Eu315 2.488 . S
O328 C344 1.249 . S
O329 Eu315 2.471 . S
O329 C344 1.244 . S
O330 Eu315 2.349 1_554 S
O330 C331 1.265 . S
C331 O327 1.244 . S
C331 O330 1.265 . S
O332 Eu314 2.373 . S
O332 C345 1.258 . S
O333 Eu315 2.392 1_554 S
O333 C345 1.242 . S
O334 Eu315 2.418 1_554 S
O334 C316 1.244 . S
O335 Eu314 2.488 . S
O335 C323 1.249 . S
O336 Eu314 2.471 . S
O336 C323 1.244 . S
O337 Eu314 2.349 . S
O337 C316 1.265 . S
C338 C339 1.379 . S
C338 C342 1.373 . S
C338 C344 1.505 . S
C339 C338 1.379 . S
C339 C341 1.369 . S
C339 H350 0.930 . S
C340 C342 1.383 . S
C340 C343 1.382 . S
C340 H351 0.930 . S
C341 C339 1.369 . S
C341 C343 1.392 . S
C341 H352 0.930 . S
C342 C338 1.373 . S
C342 C340 1.383 . S
C342 H353 0.931 . S
C343 C340 1.382 . S
C343 C341 1.392 . S
C344 Eu315 2.828 . S
C344 O328 1.249 . S
C344 O329 1.244 . S
C344 C338 1.505 . S
C345 O332 1.258 . S
C345 O333 1.242 . S
H346 C318 0.930 . S
H347 C319 0.930 . S
H348 C320 0.930 . S
H349 C321 0.931 . S
H350 C339 0.930 . S
H351 C340 0.930 . S
H352 C341 0.930 . S
H353 C342 0.931 . S
Eu354 C363 2.828 . S
Eu354 O365 2.392 . S
Eu354 O367 2.418 . S
Eu354 O372 2.373 . S
Eu354 O375 2.488 . S
Eu354 O376 2.471 . S
Eu354 O377 2.349 . S
Eu355 O364 2.373 . S
Eu355 O368 2.488 . S
Eu355 O369 2.471 . S
Eu355 O370 2.349 . S
Eu355 O373 2.392 . S
Eu355 O374 2.418 . S
Eu355 C384 2.828 . S
C356 O374 1.244 . S
C356 O377 1.265 . S
C357 C358 1.379 . S
C357 C361 1.373 . S
C357 C363 1.505 . S
C358 C357 1.379 . S
C358 C360 1.369 . S
C358 H386 0.930 . S
C359 C361 1.383 . S
C359 C362 1.382 . S
C359 H387 0.930 . S
C360 C358 1.369 . S
C360 C362 1.392 . S
C360 H388 0.930 . S
C361 C357 1.373 . S
C361 C359 1.383 . S
C361 H389 0.931 . S
C362 C359 1.382 . S
C362 C360 1.392 . S
C363 Eu354 2.828 . S
C363 C357 1.505 . S
C363 O375 1.249 . S
C363 O376 1.244 . S
O364 Eu355 2.373 . S
O364 C366 1.258 . S
O365 Eu354 2.392 . S
O365 C366 1.242 . S
C366 O364 1.258 . S
C366 O365 1.242 . S
O367 Eu354 2.418 . S
O367 C371 1.244 . S
O368 Eu355 2.488 . S
O368 C384 1.249 . S
O369 Eu355 2.471 . S
O369 C384 1.244 . S
O370 Eu355 2.349 . S
O370 C371 1.265 . S
C371 O367 1.244 . S
C371 O370 1.265 . S
O372 Eu354 2.373 . S
O372 C385 1.258 . S
O373 Eu355 2.392 . S
O373 C385 1.242 . S
O374 Eu355 2.418 . S
O374 C356 1.244 . S
O375 Eu354 2.488 . S
O375 C363 1.249 . S
O376 Eu354 2.471 . S
O376 C363 1.244 . S
O377 Eu354 2.349 . S
O377 C356 1.265 . S
C378 C379 1.379 . S
C378 C382 1.373 . S
C378 C384 1.505 . S
C379 C378 1.379 . S
C379 C381 1.369 . S
C379 H390 0.930 . S
C380 C382 1.383 . S
C380 C383 1.382 . S
C380 H391 0.930 . S
C381 C379 1.369 . S
C381 C383 1.392 . S
C381 H392 0.930 . S
C382 C378 1.373 . S
C382 C380 1.383 . S
C382 H393 0.931 . S
C383 C380 1.382 . S
C383 C381 1.392 . S
C384 Eu355 2.828 . S
C384 O368 1.249 . S
C384 O369 1.244 . S
C384 C378 1.505 . S
C385 O372 1.258 . S
C385 O373 1.242 . S
H386 C358 0.930 . S
H387 C359 0.930 . S
H388 C360 0.930 . S
H389 C361 0.931 . S
H390 C379 0.930 . S
H391 C380 0.930 . S
H392 C381 0.930 . S
H393 C382 0.931 . S
Eu394 C403 2.828 . S
Eu394 O405 2.392 . S
Eu394 O407 2.418 . S
Eu394 O412 2.373 . S
Eu394 O415 2.488 . S
Eu394 O416 2.471 . S
Eu394 O417 2.349 . S
Eu395 O404 2.373 . S
Eu395 O408 2.488 . S
Eu395 O409 2.471 . S
Eu395 O410 2.349 . S
Eu395 O413 2.392 . S
Eu395 O414 2.418 . S
Eu395 C424 2.828 . S
C396 O414 1.244 . S
C396 O417 1.265 . S
C397 C398 1.379 . S
C397 C401 1.373 . S
C397 C403 1.505 . S
C398 C397 1.379 . S
C398 C400 1.369 . S
C398 H426 0.930 . S
C399 C401 1.383 . S
C399 C402 1.382 . S
C399 H427 0.930 . S
C400 C398 1.369 . S
C400 C402 1.392 . S
C400 H428 0.930 . S
C401 C397 1.373 . S
C401 C399 1.383 . S
C401 H429 0.931 . S
C402 C399 1.382 . S
C402 C400 1.392 . S
C403 Eu394 2.828 . S
C403 C397 1.505 . S
C403 O415 1.249 . S
C403 O416 1.244 . S
O404 Eu395 2.373 . S
O404 C406 1.258 . S
O405 Eu394 2.392 . S
O405 C406 1.242 . S
C406 O404 1.258 . S
C406 O405 1.242 . S
O407 Eu394 2.418 . S
O407 C411 1.244 . S
O408 Eu395 2.488 . S
O408 C424 1.249 . S
O409 Eu395 2.471 . S
O409 C424 1.244 . S
O410 Eu395 2.349 . S
O410 C411 1.265 . S
C411 O407 1.244 . S
C411 O410 1.265 . S
O412 Eu394 2.373 . S
O412 C425 1.258 . S
O413 Eu395 2.392 . S
O413 C425 1.242 . S
O414 Eu395 2.418 . S
O414 C396 1.244 . S
O415 Eu394 2.488 . S
O415 C403 1.249 . S
O416 Eu394 2.471 . S
O416 C403 1.244 . S
O417 Eu394 2.349 . S
O417 C396 1.265 . S
C418 C419 1.379 . S
C418 C422 1.373 . S
C418 C424 1.505 . S
C419 C418 1.379 . S
C419 C421 1.369 . S
C419 H430 0.930 . S
C420 C422 1.383 . S
C420 C423 1.382 . S
C420 H431 0.930 . S
C421 C419 1.369 . S
C421 C423 1.392 . S
C421 H432 0.930 . S
C422 C418 1.373 . S
C422 C420 1.383 . S
C422 H433 0.931 . S
C423 C420 1.382 . S
C423 C421 1.392 . S
C424 Eu395 2.828 . S
C424 O408 1.249 . S
C424 O409 1.244 . S
C424 C418 1.505 . S
C425 O412 1.258 . S
C425 O413 1.242 . S
H426 C398 0.930 . S
H427 C399 0.930 . S
H428 C400 0.930 . S
H429 C401 0.931 . S
H430 C419 0.930 . S
H431 C420 0.930 . S
H432 C421 0.930 . S
H433 C422 0.931 . S
Eu434 C443 2.828 . S
Eu434 O445 2.392 . S
Eu434 O447 2.418 . S
Eu434 O452 2.373 . S
Eu434 O455 2.488 . S
Eu434 O456 2.471 . S
Eu434 O457 2.349 . S
Eu435 O444 2.373 . S
Eu435 O448 2.488 . S
Eu435 O449 2.471 . S
Eu435 O450 2.349 . S
Eu435 O453 2.392 . S
Eu435 O454 2.418 . S
Eu435 C464 2.828 . S
C436 O454 1.244 . S
C436 O457 1.265 . S
C437 C438 1.379 . S
C437 C441 1.373 . S
C437 C443 1.505 . S
C438 C437 1.379 . S
C438 C440 1.369 . S
C438 H466 0.930 . S
C439 C441 1.383 . S
C439 C442 1.382 . S
C439 H467 0.930 . S
C440 C438 1.369 . S
C440 C442 1.392 . S
C440 H468 0.930 . S
C441 C437 1.373 . S
C441 C439 1.383 . S
C441 H469 0.931 . S
C442 C439 1.382 . S
C442 C440 1.392 . S
C443 Eu434 2.828 . S
C443 C437 1.505 . S
C443 O455 1.249 . S
C443 O456 1.244 . S
O444 Eu435 2.373 . S
O444 C446 1.258 . S
O445 Eu434 2.392 . S
O445 C446 1.242 . S
C446 O444 1.258 . S
C446 O445 1.242 . S
O447 Eu434 2.418 . S
O447 C451 1.244 . S
O448 Eu435 2.488 . S
O448 C464 1.249 . S
O449 Eu435 2.471 . S
O449 C464 1.244 . S
O450 Eu435 2.349 . S
O450 C451 1.265 . S
C451 O447 1.244 . S
C451 O450 1.265 . S
O452 Eu434 2.373 . S
O452 C465 1.258 . S
O453 Eu435 2.392 . S
O453 C465 1.242 . S
O454 Eu435 2.418 . S
O454 C436 1.244 . S
O455 Eu434 2.488 . S
O455 C443 1.249 . S
O456 Eu434 2.471 . S
O456 C443 1.244 . S
O457 Eu434 2.349 . S
O457 C436 1.265 . S
C458 C459 1.379 . S
C458 C462 1.373 . S
C458 C464 1.505 . S
C459 C458 1.379 . S
C459 C461 1.369 . S
C459 H470 0.930 . S
C460 C462 1.383 . S
C460 C463 1.382 . S
C460 H471 0.930 . S
C461 C459 1.369 . S
C461 C463 1.392 . S
C461 H472 0.930 . S
C462 C458 1.373 . S
C462 C460 1.383 . S
C462 H473 0.931 . S
C463 C460 1.382 . S
C463 C461 1.392 . S
C464 Eu435 2.828 . S
C464 O448 1.249 . S
C464 O449 1.244 . S
C464 C458 1.505 . S
C465 O452 1.258 . S
C465 O453 1.242 . S
H466 C438 0.930 . S
H467 C439 0.930 . S
H468 C440 0.930 . S
H469 C441 0.931 . S
H470 C459 0.930 . S
H471 C460 0.930 . S
H472 C461 0.930 . S
H473 C462 0.931 . S
Eu474 C483 2.828 . S
Eu474 O485 2.392 . S
Eu474 O487 2.418 . S
Eu474 O492 2.373 . S
Eu474 O495 2.488 . S
Eu474 O496 2.471 . S
Eu474 O497 2.349 . S
Eu475 O484 2.373 . S
Eu475 O488 2.488 . S
Eu475 O489 2.471 . S
Eu475 O490 2.349 . S
Eu475 O493 2.392 . S
Eu475 O494 2.418 . S
Eu475 C504 2.828 . S
C476 O494 1.244 . S
C476 O497 1.265 . S
C477 C478 1.379 . S
C477 C481 1.373 . S
C477 C483 1.505 . S
C478 C477 1.379 . S
C478 C480 1.369 . S
C478 H506 0.930 . S
C479 C481 1.383 . S
C479 C482 1.382 . S
C479 H507 0.930 . S
C480 C478 1.369 . S
C480 C482 1.392 . S
C480 H508 0.930 . S
C481 C477 1.373 . S
C481 C479 1.383 . S
C481 H509 0.931 . S
C482 C479 1.382 . S
C482 C480 1.392 . S
C483 Eu474 2.828 . S
C483 C477 1.505 . S
C483 O495 1.249 . S
C483 O496 1.244 . S
O484 Eu475 2.373 . S
O484 C486 1.258 . S
O485 Eu474 2.392 . S
O485 C486 1.242 . S
C486 O484 1.258 . S
C486 O485 1.242 . S
O487 Eu474 2.418 . S
O487 C491 1.244 . S
O488 Eu475 2.488 . S
O488 C504 1.249 . S
O489 Eu475 2.471 . S
O489 C504 1.244 . S
O490 Eu475 2.349 . S
O490 C491 1.265 . S
C491 O487 1.244 . S
C491 O490 1.265 . S
O492 Eu474 2.373 . S
O492 C505 1.258 . S
O493 Eu475 2.392 . S
O493 C505 1.242 . S
O494 Eu475 2.418 . S
O494 C476 1.244 . S
O495 Eu474 2.488 . S
O495 C483 1.249 . S
O496 Eu474 2.471 . S
O496 C483 1.244 . S
O497 Eu474 2.349 . S
O497 C476 1.265 . S
C498 C499 1.379 . S
C498 C502 1.373 . S
C498 C504 1.505 . S
C499 C498 1.379 . S
C499 C501 1.369 . S
C499 H510 0.930 . S
C500 C502 1.383 . S
C500 C503 1.382 . S
C500 H511 0.930 . S
C501 C499 1.369 . S
C501 C503 1.392 . S
C501 H512 0.930 . S
C502 C498 1.373 . S
C502 C500 1.383 . S
C502 H513 0.931 . S
C503 C500 1.382 . S
C503 C501 1.392 . S
C504 Eu475 2.828 . S
C504 O488 1.249 . S
C504 O489 1.244 . S
C504 C498 1.505 . S
C505 O492 1.258 . S
C505 O493 1.242 . S
H506 C478 0.930 . S
H507 C479 0.930 . S
H508 C480 0.930 . S
H509 C481 0.931 . S
H510 C499 0.930 . S
H511 C500 0.930 . S
H512 C501 0.930 . S
H513 C502 0.931 . S
Eu514 C523 2.828 . S
Eu514 O525 2.392 . S
Eu514 O527 2.418 . S
Eu514 O532 2.373 . S
Eu514 O535 2.488 . S
Eu514 O536 2.471 . S
Eu514 O537 2.349 . S
Eu515 O524 2.373 . S
Eu515 O528 2.488 . S
Eu515 O529 2.471 . S
Eu515 O530 2.349 . S
Eu515 O533 2.392 . S
Eu515 O534 2.418 . S
Eu515 C544 2.828 . S
C516 O534 1.244 . S
C516 O537 1.265 . S
C517 C518 1.379 . S
C517 C521 1.373 . S
C517 C523 1.505 . S
C518 C517 1.379 . S
C518 C520 1.369 . S
C518 H546 0.930 . S
C519 C521 1.383 . S
C519 C522 1.382 . S
C519 H547 0.930 . S
C520 C518 1.369 . S
C520 C522 1.392 . S
C520 H548 0.930 . S
C521 C517 1.373 . S
C521 C519 1.383 . S
C521 H549 0.931 . S
C522 C519 1.382 . S
C522 C520 1.392 . S
C523 Eu514 2.828 . S
C523 C517 1.505 . S
C523 O535 1.249 . S
C523 O536 1.244 . S
O524 Eu515 2.373 . S
O524 C526 1.258 . S
O525 Eu514 2.392 . S
O525 C526 1.242 . S
C526 O524 1.258 . S
C526 O525 1.242 . S
O527 Eu514 2.418 . S
O527 C531 1.244 . S
O528 Eu515 2.488 . S
O528 C544 1.249 . S
O529 Eu515 2.471 . S
O529 C544 1.244 . S
O530 Eu515 2.349 . S
O530 C531 1.265 . S
C531 O527 1.244 . S
C531 O530 1.265 . S
O532 Eu514 2.373 . S
O532 C545 1.258 . S
O533 Eu515 2.392 . S
O533 C545 1.242 . S
O534 Eu515 2.418 . S
O534 C516 1.244 . S
O535 Eu514 2.488 . S
O535 C523 1.249 . S
O536 Eu514 2.471 . S
O536 C523 1.244 . S
O537 Eu514 2.349 . S
O537 C516 1.265 . S
C538 C539 1.379 . S
C538 C542 1.373 . S
C538 C544 1.505 . S
C539 C538 1.379 . S
C539 C541 1.369 . S
C539 H550 0.930 . S
C540 C542 1.383 . S
C540 C543 1.382 . S
C540 H551 0.930 . S
C541 C539 1.369 . S
C541 C543 1.392 . S
C541 H552 0.930 . S
C542 C538 1.373 . S
C542 C540 1.383 . S
C542 H553 0.931 . S
C543 C540 1.382 . S
C543 C541 1.392 . S
C544 Eu515 2.828 . S
C544 O528 1.249 . S
C544 O529 1.244 . S
C544 C538 1.505 . S
C545 O532 1.258 . S
C545 O533 1.242 . S
H546 C518 0.930 . S
H547 C519 0.930 . S
H548 C520 0.930 . S
H549 C521 0.931 . S
H550 C539 0.930 . S
H551 C540 0.930 . S
H552 C541 0.930 . S
H553 C542 0.931 . S
Eu554 C563 2.828 . S
Eu554 O565 2.392 . S
Eu554 O567 2.418 . S
Eu554 O572 2.373 . S
Eu554 O575 2.488 . S
Eu554 O576 2.471 . S
Eu554 O577 2.349 . S
Eu555 O564 2.373 . S
Eu555 O568 2.488 . S
Eu555 O569 2.471 . S
Eu555 O570 2.349 . S
Eu555 O573 2.392 . S
Eu555 O574 2.418 . S
Eu555 C584 2.828 . S
C556 O574 1.244 . S
C556 O577 1.265 . S
C557 C558 1.379 . S
C557 C561 1.373 . S
C557 C563 1.505 . S
C558 C557 1.379 . S
C558 C560 1.369 . S
C558 H586 0.930 . S
C559 C561 1.383 . S
C559 C562 1.382 . S
C559 H587 0.930 . S
C560 C558 1.369 . S
C560 C562 1.392 . S
C560 H588 0.930 . S
C561 C557 1.373 . S
C561 C559 1.383 . S
C561 H589 0.931 . S
C562 C559 1.382 . S
C562 C560 1.392 . S
C563 Eu554 2.828 . S
C563 C557 1.505 . S
C563 O575 1.249 . S
C563 O576 1.244 . S
O564 Eu555 2.373 . S
O564 C566 1.258 . S
O565 Eu554 2.392 . S
O565 C566 1.242 . S
C566 O564 1.258 . S
C566 O565 1.242 . S
O567 Eu554 2.418 . S
O567 C571 1.244 . S
O568 Eu555 2.488 . S
O568 C584 1.249 . S
O569 Eu555 2.471 . S
O569 C584 1.244 . S
O570 Eu555 2.349 . S
O570 C571 1.265 . S
C571 O567 1.244 . S
C571 O570 1.265 . S
O572 Eu554 2.373 . S
O572 C585 1.258 . S
O573 Eu555 2.392 . S
O573 C585 1.242 . S
O574 Eu555 2.418 . S
O574 C556 1.244 . S
O575 Eu554 2.488 . S
O575 C563 1.249 . S
O576 Eu554 2.471 . S
O576 C563 1.244 . S
O577 Eu554 2.349 . S
O577 C556 1.265 . S
C578 C579 1.379 . S
C578 C582 1.373 . S
C578 C584 1.505 . S
C579 C578 1.379 . S
C579 C581 1.369 . S
C579 H590 0.930 . S
C580 C582 1.383 . S
C580 C583 1.382 . S
C580 H591 0.930 . S
C581 C579 1.369 . S
C581 C583 1.392 . S
C581 H592 0.930 . S
C582 C578 1.373 . S
C582 C580 1.383 . S
C582 H593 0.931 . S
C583 C580 1.382 . S
C583 C581 1.392 . S
C584 Eu555 2.828 . S
C584 O568 1.249 . S
C584 O569 1.244 . S
C584 C578 1.505 . S
C585 O572 1.258 . S
C585 O573 1.242 . S
H586 C558 0.930 . S
H587 C559 0.930 . S
H588 C560 0.930 . S
H589 C561 0.931 . S
H590 C579 0.930 . S
H591 C580 0.930 . S
H592 C581 0.930 . S
H593 C582 0.931 . S
H594 C612 0.951 . S
H595 C614 0.951 . S
H596 C616 0.950 . S
H597 C617 0.950 . S
H598 C619 0.950 . S
H599 C622 0.950 . S
H600 C623 0.950 . S
H601 C625 0.950 . S
H602 C626 0.950 . S
H603 C627 0.951 . S
H604 C629 0.951 . S
H605 C631 0.950 . S
H606 C632 0.950 . S
H607 C634 0.950 . S
H608 C637 0.950 . S
H609 C638 0.950 . S
H610 C640 0.950 . S
H611 C641 0.950 . S
C612 H594 0.951 . S
C612 C613 1.366 . S
C612 C614 1.388 . S
C613 C612 1.366 . S
C613 C617 1.385 . S
C614 H595 0.951 . S
C614 C612 1.388 . S
C614 C615 1.366 . S
C615 C614 1.366 . S
C615 C616 1.414 . S
C615 C618 1.499 . S
C616 H596 0.950 . S
C616 C615 1.414 . S
C616 C617 1.374 . S
C617 H597 0.950 . S
C617 C613 1.385 . S
C617 C616 1.374 . S
C618 C615 1.499 . S
C618 C619 1.373 . S
C618 C620 1.389 . S
C619 H598 0.950 . S
C619 C618 1.373 . S
C619 C635 1.377 . S
C620 C618 1.389 . S
C620 C621 1.524 . S
C620 C634 1.377 . S
C621 C620 1.524 . S
C621 C622 1.397 . S
C621 C626 1.363 . S
C622 H599 0.950 . S
C622 C621 1.397 . S
C622 C623 1.334 . S
C623 H600 0.950 . S
C623 C622 1.334 . S
C623 C624 1.287 . S
C624 C623 1.287 . S
C624 C625 1.524 . S
C624 H643 0.913 . S
C625 H601 0.950 . S
C625 C624 1.524 . S
C625 C626 1.415 . S
C626 H602 0.950 . S
C626 C621 1.363 . S
C626 C625 1.415 . S
C627 H603 0.951 . S
C627 C628 1.366 . S
C627 C629 1.388 . S
C628 C627 1.366 . S
C628 C632 1.385 . S
C629 H604 0.951 . S
C629 C627 1.388 . S
C629 C630 1.366 . S
C630 C629 1.366 . S
C630 C631 1.414 . S
C630 C633 1.499 . S
C631 H605 0.950 . S
C631 C630 1.414 . S
C631 C632 1.374 . S
C632 H606 0.950 . S
C632 C628 1.385 . S
C632 C631 1.374 . S
C633 C630 1.499 . S
C633 C634 1.373 . S
C633 C635 1.389 . S
C634 H607 0.950 . S
C634 C620 1.377 . S
C634 C633 1.373 . S
C635 C619 1.377 . S
C635 C633 1.389 . S
C635 C636 1.524 . S
C636 C635 1.524 . S
C636 C637 1.397 . S
C636 C641 1.363 . S
C637 H608 0.950 . S
C637 C636 1.397 . S
C637 C638 1.334 1_554 S
C638 H609 0.950 . S
C638 C637 1.334 1_556 S
C638 C639 1.287 . S
C639 C638 1.287 . S
C639 C640 1.524 1_556 S
C639 H642 0.999 . S
C640 H610 0.950 . S
C640 C639 1.524 1_554 S
C640 C641 1.415 . S
C641 H611 0.950 . S
C641 C636 1.363 . S
C641 C640 1.415 . S
H642 C639 0.999 . S
H643 C624 0.913 . S
H644 C662 0.951 . S
H645 C664 0.951 . S
H646 C666 0.950 . S
H647 C667 0.950 . S
H648 C669 0.950 . S
H649 C672 0.950 . S
H650 C673 0.950 . S
H651 C675 0.950 . S
H652 C676 0.950 . S
H653 C677 0.951 . S
H654 C679 0.951 . S
H655 C681 0.950 . S
H656 C682 0.950 . S
H657 C684 0.950 . S
H658 C687 0.950 . S
H659 C688 0.950 1_556 S
H660 C690 0.950 . S
H661 C691 0.950 . S
C662 H644 0.951 . S
C662 C663 1.366 . S
C662 C664 1.388 . S
C663 C662 1.366 . S
C663 C667 1.385 . S
C664 H645 0.951 . S
C664 C662 1.388 . S
C664 C665 1.366 . S
C665 C664 1.366 . S
C665 C666 1.414 . S
C665 C668 1.499 . S
C666 H646 0.950 . S
C666 C665 1.414 . S
C666 C667 1.374 . S
C667 H647 0.950 . S
C667 C663 1.385 . S
C667 C666 1.374 . S
C668 C665 1.499 . S
C668 C669 1.373 . S
C668 C670 1.389 . S
C669 H648 0.950 . S
C669 C668 1.373 . S
C669 C685 1.377 . S
C670 C668 1.389 . S
C670 C671 1.524 . S
C670 C684 1.377 . S
C671 C670 1.524 . S
C671 C672 1.397 . S
C671 C676 1.363 . S
C672 H649 0.950 . S
C672 C671 1.397 . S
C672 C673 1.334 . S
C673 H650 0.950 . S
C673 C672 1.334 . S
C673 C674 1.287 . S
C674 C673 1.287 . S
C674 C675 1.524 . S
C674 H693 0.913 . S
C675 H651 0.950 . S
C675 C674 1.524 . S
C675 C676 1.415 . S
C676 H652 0.950 . S
C676 C671 1.363 . S
C676 C675 1.415 . S
C677 H653 0.951 . S
C677 C678 1.366 . S
C677 C679 1.388 . S
C678 C677 1.366 . S
C678 C682 1.385 . S
C679 H654 0.951 . S
C679 C677 1.388 . S
C679 C680 1.366 . S
C680 C679 1.366 . S
C680 C681 1.414 . S
C680 C683 1.499 . S
C681 H655 0.950 . S
C681 C680 1.414 . S
C681 C682 1.374 . S
C682 H656 0.950 . S
C682 C678 1.385 . S
C682 C681 1.374 . S
C683 C680 1.499 . S
C683 C684 1.373 . S
C683 C685 1.389 . S
C684 H657 0.950 . S
C684 C670 1.377 . S
C684 C683 1.373 . S
C685 C669 1.377 . S
C685 C683 1.389 . S
C685 C686 1.524 . S
C686 C685 1.524 . S
C686 C687 1.397 . S
C686 C691 1.363 . S
C687 H658 0.950 . S
C687 C686 1.397 . S
C687 C688 1.334 . S
C688 H659 0.950 1_554 S
C688 C687 1.334 . S
C688 C689 1.287 . S
C689 C688 1.287 . S
C689 C690 1.524 . S
C689 H692 0.999 . S
C690 H660 0.950 . S
C690 C689 1.524 . S
C690 C691 1.415 . S
C691 H661 0.950 . S
C691 C686 1.363 . S
C691 C690 1.415 . S
H692 C689 0.999 . S
H693 C674 0.913 . S
H694 C712 0.951 . S
H695 C714 0.951 . S
H696 C716 0.950 . S
H697 C717 0.950 . S
H698 C719 0.950 . S
H699 C722 0.950 . S
H700 C723 0.950 . S
H701 C725 0.950 . S
H702 C726 0.950 . S
H703 C727 0.951 . S
H704 C729 0.951 . S
H705 C731 0.950 . S
H706 C732 0.950 . S
H707 C734 0.950 . S
H708 C737 0.950 . S
H709 C738 0.950 . S
H710 C740 0.950 . S
H711 C741 0.950 . S
C712 H694 0.951 . S
C712 C713 1.366 . S
C712 C714 1.388 . S
C713 C712 1.366 . S
C713 C717 1.385 . S
C714 H695 0.951 . S
C714 C712 1.388 . S
C714 C715 1.366 . S
C715 C714 1.366 . S
C715 C716 1.414 . S
C715 C718 1.499 . S
C716 H696 0.950 . S
C716 C715 1.414 . S
C716 C717 1.374 . S
C717 H697 0.950 . S
C717 C713 1.385 . S
C717 C716 1.374 . S
C718 C715 1.499 . S
C718 C719 1.373 . S
C718 C720 1.389 . S
C719 H698 0.950 . S
C719 C718 1.373 . S
C719 C735 1.377 . S
C720 C718 1.389 . S
C720 C721 1.524 . S
C720 C734 1.377 . S
C721 C720 1.524 . S
C721 C722 1.397 . S
C721 C726 1.363 . S
C722 H699 0.950 . S
C722 C721 1.397 . S
C722 C723 1.334 1_554 S
C723 H700 0.950 . S
C723 C722 1.334 1_556 S
C723 C724 1.288 . S
C724 C723 1.288 . S
C724 C725 1.495 1_556 S
C724 H743 0.943 . S
C725 H701 0.950 . S
C725 C724 1.495 1_554 S
C725 C726 1.415 . S
C726 H702 0.950 . S
C726 C721 1.363 . S
C726 C725 1.415 . S
C727 H703 0.951 . S
C727 C728 1.366 . S
C727 C729 1.388 . S
C728 C727 1.366 . S
C728 C732 1.385 . S
C729 H704 0.951 . S
C729 C727 1.388 . S
C729 C730 1.366 . S
C730 C729 1.366 . S
C730 C731 1.414 . S
C730 C733 1.499 . S
C731 H705 0.950 . S
C731 C730 1.414 . S
C731 C732 1.374 . S
C732 H706 0.950 . S
C732 C728 1.385 . S
C732 C731 1.374 . S
C733 C730 1.499 . S
C733 C734 1.373 . S
C733 C735 1.389 . S
C734 H707 0.950 . S
C734 C720 1.377 . S
C734 C733 1.373 . S
C735 C719 1.377 . S
C735 C733 1.389 . S
C735 C736 1.524 . S
C736 C735 1.524 . S
C736 C737 1.397 . S
C736 C741 1.363 . S
C737 H708 0.950 . S
C737 C736 1.397 . S
C737 C738 1.334 . S
C738 H709 0.950 . S
C738 C737 1.334 . S
C738 C739 1.287 . S
C739 C738 1.287 . S
C739 C740 1.524 . S
C739 H742 0.999 . S
C740 H710 0.950 . S
C740 C739 1.524 . S
C740 C741 1.415 . S
C741 H711 0.950 . S
C741 C736 1.363 . S
C741 C740 1.415 . S
H742 C739 0.999 . S
H743 C724 0.943 . S
H744 C762 0.951 . S
H745 C764 0.951 . S
H746 C766 0.950 . S
H747 C767 0.950 . S
H748 C769 0.950 . S
H749 C772 0.950 . S
H750 C773 0.950 . S
H751 C775 0.950 . S
H752 C776 0.950 . S
H753 C777 0.951 . S
H754 C779 0.951 . S
H755 C781 0.964 . S
H756 C782 0.950 . S
H757 C784 0.950 . S
H758 C787 0.950 . S
H759 C788 0.950 . S
H760 C790 0.950 . S
H761 C791 0.950 1_556 S
C762 H744 0.951 . S
C762 C763 1.366 . S
C762 C764 1.388 . S
C763 C762 1.366 . S
C763 C767 1.385 . S
C764 H745 0.951 . S
C764 C762 1.388 . S
C764 C765 1.366 . S
C765 C764 1.366 . S
C765 C766 1.414 . S
C765 C768 1.499 . S
C766 H746 0.950 . S
C766 C765 1.414 . S
C766 C767 1.374 . S
C767 H747 0.950 . S
C767 C763 1.385 . S
C767 C766 1.374 . S
C768 C765 1.499 . S
C768 C769 1.373 . S
C768 C770 1.389 . S
C769 H748 0.950 . S
C769 C768 1.373 . S
C769 C785 1.377 . S
C770 C768 1.389 . S
C770 C771 1.524 . S
C770 C784 1.377 . S
C771 C770 1.524 . S
C771 C772 1.397 . S
C771 C776 1.363 . S
C772 H749 0.950 . S
C772 C771 1.397 . S
C772 C773 1.334 . S
C773 H750 0.950 . S
C773 C772 1.334 . S
C773 C774 1.287 . S
C774 C773 1.287 . S
C774 C775 1.524 . S
C774 H793 0.913 . S
C775 H751 0.950 . S
C775 C774 1.524 . S
C775 C776 1.415 . S
C776 H752 0.950 . S
C776 C771 1.363 . S
C776 C775 1.415 . S
C777 H753 0.951 . S
C777 C778 1.352 1_556 S
C777 C779 1.388 . S
C778 C777 1.352 1_554 S
C778 C782 1.395 . S
C779 H754 0.951 . S
C779 C777 1.388 . S
C779 C780 1.366 . S
C780 C779 1.366 . S
C780 C781 1.414 . S
C780 C783 1.499 . S
C781 H755 0.964 . S
C781 C780 1.414 . S
C781 C782 1.374 1_556 S
C782 H756 0.950 . S
C782 C778 1.395 . S
C782 C781 1.374 1_554 S
C783 C780 1.499 . S
C783 C784 1.373 . S
C783 C785 1.389 . S
C784 H757 0.950 . S
C784 C770 1.377 . S
C784 C783 1.373 . S
C785 C769 1.377 . S
C785 C783 1.389 . S
C785 C786 1.524 1_556 S
C786 C785 1.524 1_554 S
C786 C787 1.397 . S
C786 C791 1.363 . S
C787 H758 0.950 . S
C787 C786 1.397 . S
C787 C788 1.334 . S
C788 H759 0.950 . S
C788 C787 1.334 . S
C788 C789 1.287 . S
C789 C788 1.287 . S
C789 C790 1.524 . S
C789 H792 0.999 . S
C790 H760 0.950 . S
C790 C789 1.524 . S
C790 C791 1.415 . S
C791 H761 0.950 1_554 S
C791 C786 1.363 . S
C791 C790 1.415 . S
H792 C789 0.999 . S
H793 C774 0.913 . S
H794 C812 0.951 . S
H795 C814 0.951 . S
H796 C816 0.950 . S
H797 C817 0.950 . S
H798 C819 0.950 . S
H799 C822 0.950 . S
H800 C823 0.950 . S
H801 C825 0.950 . S
H802 C826 0.945 1_554 S
H803 C827 0.951 . S
H804 C829 0.951 . S
H805 C831 0.950 . S
H806 C832 0.950 . S
H807 C834 0.950 . S
H808 C837 0.950 . S
H809 C838 0.950 . S
H810 C840 0.950 . S
H811 C841 0.950 . S
C812 H794 0.951 . S
C812 C813 1.366 . S
C812 C814 1.388 . S
C813 C812 1.366 . S
C813 C817 1.385 . S
C814 H795 0.951 . S
C814 C812 1.388 . S
C814 C815 1.366 . S
C815 C814 1.366 . S
C815 C816 1.414 . S
C815 C818 1.499 . S
C816 H796 0.950 . S
C816 C815 1.414 . S
C816 C817 1.374 . S
C817 H797 0.950 . S
C817 C813 1.385 . S
C817 C816 1.374 . S
C818 C815 1.499 . S
C818 C819 1.373 . S
C818 C820 1.389 . S
C819 H798 0.950 . S
C819 C818 1.373 . S
C819 C835 1.377 . S
C820 C818 1.389 . S
C820 C821 1.524 . S
C820 C834 1.377 . S
C821 C820 1.524 . S
C821 C822 1.397 . S
C821 C826 1.371 . S
C822 H799 0.950 . S
C822 C821 1.397 . S
C822 C823 1.334 . S
C823 H800 0.950 . S
C823 C822 1.334 . S
C823 C824 1.287 . S
C824 C823 1.287 . S
C824 C825 1.524 1_556 S
C824 H843 0.913 . S
C825 H801 0.950 . S
C825 C824 1.524 1_554 S
C825 C826 1.412 1_554 S
C826 H802 0.945 1_556 S
C826 C821 1.371 . S
C826 C825 1.412 1_556 S
C827 H803 0.951 . S
C827 C828 1.366 . S
C827 C829 1.388 . S
C828 C827 1.366 . S
C828 C832 1.385 1_556 S
C829 H804 0.951 . S
C829 C827 1.388 . S
C829 C830 1.366 . S
C830 C829 1.366 . S
C830 C831 1.414 1_556 S
C830 C833 1.499 . S
C831 H805 0.950 . S
C831 C830 1.414 1_554 S
C831 C832 1.374 . S
C832 H806 0.950 . S
C832 C828 1.385 1_554 S
C832 C831 1.374 . S
C833 C830 1.499 . S
C833 C834 1.373 . S
C833 C835 1.389 . S
C834 H807 0.950 . S
C834 C820 1.377 . S
C834 C833 1.373 . S
C835 C819 1.377 . S
C835 C833 1.389 . S
C835 C836 1.524 . S
C836 C835 1.524 . S
C836 C837 1.397 . S
C836 C841 1.363 . S
C837 H808 0.950 . S
C837 C836 1.397 . S
C837 C838 1.334 . S
C838 H809 0.950 . S
C838 C837 1.334 . S
C838 C839 1.287 . S
C839 C838 1.287 . S
C839 C840 1.524 . S
C839 H842 0.999 . S
C840 H810 0.950 . S
C840 C839 1.524 . S
C840 C841 1.415 . S
C841 H811 0.950 . S
C841 C836 1.363 . S
C841 C840 1.415 . S
H842 C839 0.999 . S
H843 C824 0.913 . S
H844 C862 0.951 . S
H845 C864 0.951 . S
H846 C866 0.950 . S
H847 C867 0.950 . S
H848 C869 0.950 . S
H849 C872 0.950 . S
H850 C873 0.950 . S
H851 C875 0.950 . S
H852 C876 0.950 . S
H853 C877 0.951 . S
H854 C879 0.952 . S
H855 C881 0.950 . S
H856 C882 0.950 . S
H857 C884 0.950 . S
H858 C887 0.950 . S
H859 C888 0.950 . S
H860 C890 0.950 . S
H861 C891 0.950 . S
C862 H844 0.951 . S
C862 C863 1.366 . S
C862 C864 1.388 . S
C863 C862 1.366 . S
C863 C867 1.385 . S
C864 H845 0.951 . S
C864 C862 1.388 . S
C864 C865 1.366 . S
C865 C864 1.366 . S
C865 C866 1.414 . S
C865 C868 1.499 . S
C866 H846 0.950 . S
C866 C865 1.414 . S
C866 C867 1.374 . S
C867 H847 0.950 . S
C867 C863 1.385 . S
C867 C866 1.374 . S
C868 C865 1.499 . S
C868 C869 1.373 . S
C868 C870 1.389 1_556 S
C869 H848 0.950 . S
C869 C868 1.373 . S
C869 C885 1.377 . S
C870 C868 1.389 1_554 S
C870 C871 1.524 . S
C870 C884 1.377 . S
C871 C870 1.524 . S
C871 C872 1.397 . S
C871 C876 1.363 . S
C872 H849 0.950 . S
C872 C871 1.397 . S
C872 C873 1.334 . S
C873 H850 0.950 . S
C873 C872 1.334 . S
C873 C874 1.287 . S
C874 C873 1.287 . S
C874 C875 1.524 . S
C874 H893 0.913 . S
C875 H851 0.950 . S
C875 C874 1.524 . S
C875 C876 1.415 . S
C876 H852 0.950 . S
C876 C871 1.363 . S
C876 C875 1.415 . S
C877 H853 0.951 . S
C877 C878 1.366 . S
C877 C879 1.387 1_554 S
C878 C877 1.366 . S
C878 C882 1.385 . S
C879 H854 0.952 . S
C879 C877 1.387 1_556 S
C879 C880 1.366 . S
C880 C879 1.366 . S
C880 C881 1.414 1_556 S
C880 C883 1.499 . S
C881 H855 0.950 . S
C881 C880 1.414 1_554 S
C881 C882 1.374 . S
C882 H856 0.950 . S
C882 C878 1.385 . S
C882 C881 1.374 . S
C883 C880 1.499 . S
C883 C884 1.373 1_556 S
C883 C885 1.389 . S
C884 H857 0.950 . S
C884 C870 1.377 . S
C884 C883 1.373 1_554 S
C885 C869 1.377 . S
C885 C883 1.389 . S
C885 C886 1.524 . S
C886 C885 1.524 . S
C886 C887 1.397 . S
C886 C891 1.363 . S
C887 H858 0.950 . S
C887 C886 1.397 . S
C887 C888 1.334 . S
C888 H859 0.950 . S
C888 C887 1.334 . S
C888 C889 1.287 . S
C889 C888 1.287 . S
C889 C890 1.524 . S
C889 H892 0.999 . S
C890 H860 0.950 . S
C890 C889 1.524 . S
C890 C891 1.415 . S
C891 H861 0.950 . S
C891 C886 1.363 . S
C891 C890 1.415 . S
H892 C889 0.999 . S
H893 C874 0.913 . S
H894 C912 0.951 . S
H895 C914 0.951 . S
H896 C916 0.950 . S
H897 C917 0.950 . S
H898 C919 0.950 . S
H899 C922 0.950 1_556 S
H900 C923 0.950 . S
H901 C925 0.950 . S
H902 C926 0.950 . S
H903 C927 0.951 . S
H904 C929 0.951 . S
H905 C931 0.950 . S
H906 C932 0.950 . S
H907 C934 0.919 1_554 S
H908 C937 0.950 . S
H909 C938 0.950 . S
H910 C940 0.950 . S
H911 C941 0.950 . S
C912 H894 0.951 . S
C912 C913 1.366 . S
C912 C914 1.388 . S
C913 C912 1.366 . S
C913 C917 1.385 . S
C914 H895 0.951 . S
C914 C912 1.388 . S
C914 C915 1.366 . S
C915 C914 1.366 . S
C915 C916 1.414 . S
C915 C918 1.499 . S
C916 H896 0.950 . S
C916 C915 1.414 . S
C916 C917 1.374 . S
C917 H897 0.950 . S
C917 C913 1.385 . S
C917 C916 1.374 . S
C918 C915 1.499 . S
C918 C919 1.373 . S
C918 C920 1.389 . S
C919 H898 0.950 . S
C919 C918 1.373 . S
C919 C935 1.377 . S
C920 C918 1.389 . S
C920 C921 1.524 1_556 S
C920 C934 1.386 . S
C921 C920 1.524 1_554 S
C921 C922 1.397 . S
C921 C926 1.363 . S
C922 H899 0.950 1_554 S
C922 C921 1.397 . S
C922 C923 1.334 . S
C923 H900 0.950 . S
C923 C922 1.334 . S
C923 C924 1.287 . S
C924 C923 1.287 . S
C924 C925 1.524 . S
C924 H943 0.913 . S
C925 H901 0.950 . S
C925 C924 1.524 . S
C925 C926 1.415 . S
C926 H902 0.950 . S
C926 C921 1.363 . S
C926 C925 1.415 . S
C927 H903 0.951 . S
C927 C928 1.366 . S
C927 C929 1.388 . S
C928 C927 1.366 . S
C928 C932 1.385 1_556 S
C929 H904 0.951 . S
C929 C927 1.388 . S
C929 C930 1.366 . S
C930 C929 1.366 . S
C930 C931 1.414 1_556 S
C930 C933 1.499 . S
C931 H905 0.950 . S
C931 C930 1.414 1_554 S
C931 C932 1.374 . S
C932 H906 0.950 . S
C932 C928 1.385 1_554 S
C932 C931 1.374 . S
C933 C930 1.499 . S
C933 C934 1.395 . S
C933 C935 1.389 . S
C934 H907 0.919 1_556 S
C934 C920 1.386 . S
C934 C933 1.395 . S
C935 C919 1.377 . S
C935 C933 1.389 . S
C935 C936 1.524 . S
C936 C935 1.524 . S
C936 C937 1.397 . S
C936 C941 1.363 . S
C937 H908 0.950 . S
C937 C936 1.397 . S
C937 C938 1.334 . S
C938 H909 0.950 . S
C938 C937 1.334 . S
C938 C939 1.287 . S
C939 C938 1.287 . S
C939 C940 1.524 . S
C939 H942 0.999 . S
C940 H910 0.950 . S
C940 C939 1.524 . S
C940 C941 1.415 . S
C941 H911 0.950 . S
C941 C936 1.363 . S
C941 C940 1.415 . S
H942 C939 0.999 . S
H943 C924 0.913 . S
H944 C962 0.951 . S
H945 C964 0.951 . S
H946 C966 0.950 . S
H947 C967 0.950 . S
H948 C969 0.950 . S
H949 C972 0.950 . S
H950 C973 0.950 . S
H951 C975 0.950 . S
H952 C976 0.950 . S
H953 C977 0.951 . S
H954 C979 0.951 . S
H955 C981 0.950 1_554 S
H956 C982 0.966 . S
H957 C984 0.950 . S
H958 C987 0.907 1_554 S
H959 C988 0.950 1_554 S
H960 C990 0.950 . S
H961 C991 0.950 . S
C962 H944 0.951 . S
C962 C963 1.366 . S
C962 C964 1.388 . S
C963 C962 1.366 . S
C963 C967 1.385 . S
C964 H945 0.951 . S
C964 C962 1.388 . S
C964 C965 1.366 . S
C965 C964 1.366 . S
C965 C966 1.414 . S
C965 C968 1.499 . S
C966 H946 0.950 . S
C966 C965 1.414 . S
C966 C967 1.374 . S
C967 H947 0.950 . S
C967 C963 1.385 . S
C967 C966 1.374 . S
C968 C965 1.499 . S
C968 C969 1.373 . S
C968 C970 1.389 . S
C969 H948 0.950 . S
C969 C968 1.373 . S
C969 C985 1.377 . S
C970 C968 1.389 . S
C970 C971 1.524 . S
C970 C984 1.377 . S
C971 C970 1.524 . S
C971 C972 1.397 . S
C971 C976 1.363 . S
C972 H949 0.950 . S
C972 C971 1.397 . S
C972 C973 1.334 . S
C973 H950 0.950 . S
C973 C972 1.334 . S
C973 C974 1.287 . S
C974 C973 1.287 . S
C974 C975 1.524 . S
C974 H993 0.913 . S
C975 H951 0.950 . S
C975 C974 1.524 . S
C975 C976 1.415 . S
C976 H952 0.950 . S
C976 C971 1.363 . S
C976 C975 1.415 . S
C977 H953 0.951 . S
C977 C978 1.366 . S
C977 C979 1.388 . S
C978 C977 1.366 . S
C978 C982 1.374 1_556 S
C979 H954 0.951 . S
C979 C977 1.388 . S
C979 C980 1.366 . S
C980 C979 1.366 . S
C980 C981 1.414 . S
C980 C983 1.499 . S
C981 H955 0.950 1_556 S
C981 C980 1.414 . S
C981 C982 1.369 1_556 S
C982 H956 0.966 . S
C982 C978 1.374 1_554 S
C982 C981 1.369 1_554 S
C983 C980 1.499 . S
C983 C984 1.373 . S
C983 C985 1.389 . S
C984 H957 0.950 . S
C984 C970 1.377 . S
C984 C983 1.373 . S
C985 C969 1.377 . S
C985 C983 1.389 . S
C985 C986 1.524 . S
C986 C985 1.524 . S
C986 C987 1.397 . S
C986 C991 1.363 . S
C987 H958 0.907 1_556 S
C987 C986 1.397 . S
C987 C988 1.334 . S
C988 H959 0.950 1_556 S
C988 C987 1.334 . S
C988 C989 1.287 . S
C989 C988 1.287 . S
C989 C990 1.524 . S
C989 H992 0.999 . S
C990 H960 0.950 . S
C990 C989 1.524 . S
C990 C991 1.415 . S
C991 H961 0.950 . S
C991 C986 1.363 . S
C991 C990 1.415 . S
H992 C989 0.999 . S
H993 C974 0.913 . S
H994 C1012 0.951 . S
H995 C1014 0.951 . S
H996 C1016 0.950 . S
H997 C1017 0.950 . S
H998 C1019 0.950 . S
H999 C1022 0.950 . S
H1000 C1023 0.950 . S
H1001 C1025 0.950 . S
H1002 C1026 0.950 . S
H1003 C1027 0.951 . S
H1004 C1029 0.951 . S
H1005 C1031 0.950 . S
H1006 C1032 0.950 . S
H1007 C1034 0.950 . S
H1008 C1037 0.950 . S
H1009 C1038 0.950 . S
H1010 C1040 0.950 . S
H1011 C1041 0.950 . S
C1012 H994 0.951 . S
C1012 C1013 1.366 . S
C1012 C1014 1.388 . S
C1013 C1012 1.366 . S
C1013 C1017 1.385 1_556 S
C1014 H995 0.951 . S
C1014 C1012 1.388 . S
C1014 C1015 1.366 . S
C1015 C1014 1.366 . S
C1015 C1016 1.414 1_556 S
C1015 C1018 1.499 . S
C1016 H996 0.950 . S
C1016 C1015 1.414 1_554 S
C1016 C1017 1.374 . S
C1017 H997 0.950 . S
C1017 C1013 1.385 1_554 S
C1017 C1016 1.374 . S
C1018 C1015 1.499 . S
C1018 C1019 1.373 1_556 S
C1018 C1020 1.389 . S
C1019 H998 0.950 . S
C1019 C1018 1.373 1_554 S
C1019 C1035 1.377 . S
C1020 C1018 1.389 . S
C1020 C1021 1.524 . S
C1020 C1034 1.377 . S
C1021 C1020 1.524 . S
C1021 C1022 1.397 . S
C1021 C1026 1.363 . S
C1022 H999 0.950 . S
C1022 C1021 1.397 . S
C1022 C1023 1.334 . S
C1023 H1000 0.950 . S
C1023 C1022 1.334 . S
C1023 C1024 1.287 . S
C1024 C1023 1.287 . S
C1024 C1025 1.524 . S
C1024 H1043 0.913 . S
C1025 H1001 0.950 . S
C1025 C1024 1.524 . S
C1025 C1026 1.415 . S
C1026 H1002 0.950 . S
C1026 C1021 1.363 . S
C1026 C1025 1.415 . S
C1027 H1003 0.951 . S
C1027 C1028 1.366 . S
C1027 C1029 1.388 . S
C1028 C1027 1.366 . S
C1028 C1032 1.385 1_554 S
C1029 H1004 0.951 . S
C1029 C1027 1.388 . S
C1029 C1030 1.366 . S
C1030 C1029 1.366 . S
C1030 C1031 1.414 1_554 S
C1030 C1033 1.504 . S
C1031 H1005 0.950 . S
C1031 C1030 1.414 1_556 S
C1031 C1032 1.374 . S
C1032 H1006 0.950 . S
C1032 C1028 1.385 1_556 S
C1032 C1031 1.374 . S
C1033 C1030 1.504 . S
C1033 C1034 1.324 1_554 S
C1033 C1035 1.438 . S
C1034 H1007 0.950 . S
C1034 C1020 1.377 . S
C1034 C1033 1.324 1_556 S
C1035 C1019 1.377 . S
C1035 C1033 1.438 . S
C1035 C1036 1.524 . S
C1036 C1035 1.524 . S
C1036 C1037 1.397 . S
C1036 C1041 1.363 . S
C1037 H1008 0.950 . S
C1037 C1036 1.397 . S
C1037 C1038 1.334 . S
C1038 H1009 0.950 . S
C1038 C1037 1.334 . S
C1038 C1039 1.287 . S
C1039 C1038 1.287 . S
C1039 C1040 1.524 . S
C1039 H1042 0.999 . S
C1040 H1010 0.950 . S
C1040 C1039 1.524 . S
C1040 C1041 1.415 . S
C1041 H1011 0.950 . S
C1041 C1036 1.363 . S
C1041 C1040 1.415 . S
H1042 C1039 0.999 . S
H1043 C1024 0.913 . S
H1044 C1062 0.951 . S
H1045 C1064 0.951 . S
H1046 C1066 0.950 . S
H1047 C1067 0.950 . S
H1048 C1069 0.950 . S
H1049 C1072 0.950 . S
H1050 C1073 0.950 . S
H1051 C1075 0.950 . S
H1052 C1076 0.950 . S
H1053 C1077 0.951 . S
H1054 C1079 0.951 . S
H1055 C1081 0.950 . S
H1056 C1082 0.950 . S
H1057 C1084 0.950 . S
H1058 C1087 0.950 . S
H1059 C1088 0.950 . S
H1060 C1090 0.950 . S
H1061 C1091 0.950 . S
C1062 H1044 0.951 . S
C1062 C1063 1.366 . S
C1062 C1064 1.388 . S
C1063 C1062 1.366 . S
C1063 C1067 1.385 . S
C1064 H1045 0.951 . S
C1064 C1062 1.388 . S
C1064 C1065 1.366 . S
C1065 C1064 1.366 . S
C1065 C1066 1.414 . S
C1065 C1068 1.499 . S
C1066 H1046 0.950 . S
C1066 C1065 1.414 . S
C1066 C1067 1.374 . S
C1067 H1047 0.950 . S
C1067 C1063 1.385 . S
C1067 C1066 1.374 . S
C1068 C1065 1.499 . S
C1068 C1069 1.373 . S
C1068 C1070 1.389 . S
C1069 H1048 0.950 . S
C1069 C1068 1.373 . S
C1069 C1085 1.377 . S
C1070 C1068 1.389 . S
C1070 C1071 1.524 . S
C1070 C1084 1.377 . S
C1071 C1070 1.524 . S
C1071 C1072 1.397 . S
C1071 C1076 1.363 1_554 S
C1072 H1049 0.950 . S
C1072 C1071 1.397 . S
C1072 C1073 1.334 1_554 S
C1073 H1050 0.950 . S
C1073 C1072 1.334 1_556 S
C1073 C1074 1.287 . S
C1074 C1073 1.287 . S
C1074 C1075 1.524 . S
C1074 H1093 0.913 . S
C1075 H1051 0.950 . S
C1075 C1074 1.524 . S
C1075 C1076 1.415 . S
C1076 H1052 0.950 . S
C1076 C1071 1.363 1_556 S
C1076 C1075 1.415 . S
C1077 H1053 0.951 . S
C1077 C1078 1.366 . S
C1077 C1079 1.388 . S
C1078 C1077 1.366 . S
C1078 C1082 1.385 . S
C1079 H1054 0.951 . S
C1079 C1077 1.388 . S
C1079 C1080 1.366 . S
C1080 C1079 1.366 . S
C1080 C1081 1.414 . S
C1080 C1083 1.499 . S
C1081 H1055 0.950 . S
C1081 C1080 1.414 . S
C1081 C1082 1.374 . S
C1082 H1056 0.950 . S
C1082 C1078 1.385 . S
C1082 C1081 1.374 . S
C1083 C1080 1.499 . S
C1083 C1084 1.373 . S
C1083 C1085 1.389 . S
C1084 H1057 0.950 . S
C1084 C1070 1.377 . S
C1084 C1083 1.373 . S
C1085 C1069 1.377 . S
C1085 C1083 1.389 . S
C1085 C1086 1.524 . S
C1086 C1085 1.524 . S
C1086 C1087 1.397 . S
C1086 C1091 1.363 . S
C1087 H1058 0.950 . S
C1087 C1086 1.397 . S
C1087 C1088 1.334 . S
C1088 H1059 0.950 . S
C1088 C1087 1.334 . S
C1088 C1089 1.287 . S
C1089 C1088 1.287 . S
C1089 C1090 1.524 . S
C1089 H1092 0.999 . S
C1090 H1060 0.950 . S
C1090 C1089 1.524 . S
C1090 C1091 1.415 . S
C1091 H1061 0.950 . S
C1091 C1086 1.363 . S
C1091 C1090 1.415 . S
H1092 C1089 0.999 . S
H1093 C1074 0.913 . S
H1094 C1112 0.951 . S
H1095 C1114 0.951 . S
H1096 C1116 0.950 . S
H1097 C1117 0.950 . S
H1098 C1119 0.950 . S
H1099 C1122 0.950 . S
H1100 C1123 0.950 . S
H1101 C1125 0.950 . S
H1102 C1126 0.950 . S
H1103 C1127 0.951 . S
H1104 C1129 0.951 . S
H1105 C1131 0.950 . S
H1106 C1132 0.950 . S
H1107 C1134 0.950 . S
H1108 C1137 0.950 . S
H1109 C1138 0.952 . S
H1110 C1140 0.950 . S
H1111 C1141 0.950 . S
C1112 H1094 0.951 . S
C1112 C1113 1.366 . S
C1112 C1114 1.388 . S
C1113 C1112 1.366 . S
C1113 C1117 1.385 . S
C1114 H1095 0.951 . S
C1114 C1112 1.388 . S
C1114 C1115 1.366 . S
C1115 C1114 1.366 . S
C1115 C1116 1.414 . S
C1115 C1118 1.499 . S
C1116 H1096 0.950 . S
C1116 C1115 1.414 . S
C1116 C1117 1.374 . S
C1117 H1097 0.950 . S
C1117 C1113 1.385 . S
C1117 C1116 1.374 . S
C1118 C1115 1.499 . S
C1118 C1119 1.373 . S
C1118 C1120 1.389 . S
C1119 H1098 0.950 . S
C1119 C1118 1.373 . S
C1119 C1135 1.377 . S
C1120 C1118 1.389 . S
C1120 C1121 1.524 . S
C1120 C1134 1.377 . S
C1121 C1120 1.524 . S
C1121 C1122 1.397 . S
C1121 C1126 1.363 . S
C1122 H1099 0.950 . S
C1122 C1121 1.397 . S
C1122 C1123 1.334 . S
C1123 H1100 0.950 . S
C1123 C1122 1.334 . S
C1123 C1124 1.287 . S
C1124 C1123 1.287 . S
C1124 C1125 1.524 . S
C1124 H1143 0.913 . S
C1125 H1101 0.950 . S
C1125 C1124 1.524 . S
C1125 C1126 1.415 . S
C1126 H1102 0.950 . S
C1126 C1121 1.363 . S
C1126 C1125 1.415 . S
C1127 H1103 0.951 . S
C1127 C1128 1.366 . S
C1127 C1129 1.388 . S
C1128 C1127 1.366 . S
C1128 C1132 1.385 . S
C1129 H1104 0.951 . S
C1129 C1127 1.388 . S
C1129 C1130 1.366 . S
C1130 C1129 1.366 . S
C1130 C1131 1.414 . S
C1130 C1133 1.499 . S
C1131 H1105 0.950 . S
C1131 C1130 1.414 . S
C1131 C1132 1.374 . S
C1132 H1106 0.950 . S
C1132 C1128 1.385 . S
C1132 C1131 1.374 . S
C1133 C1130 1.499 . S
C1133 C1134 1.373 . S
C1133 C1135 1.389 . S
C1134 H1107 0.950 . S
C1134 C1120 1.377 . S
C1134 C1133 1.373 . S
C1135 C1119 1.377 . S
C1135 C1133 1.389 . S
C1135 C1136 1.524 . S
C1136 C1135 1.524 . S
C1136 C1137 1.397 . S
C1136 C1141 1.363 . S
C1137 H1108 0.950 . S
C1137 C1136 1.397 . S
C1137 C1138 1.334 . S
C1138 H1109 0.952 . S
C1138 C1137 1.334 . S
C1138 C1139 1.287 1_554 S
C1139 C1138 1.287 1_556 S
C1139 C1140 1.524 . S
C1139 H1142 0.999 . S
C1140 H1110 0.950 . S
C1140 C1139 1.524 . S
C1140 C1141 1.415 1_556 S
C1141 H1111 0.950 . S
C1141 C1136 1.363 . S
C1141 C1140 1.415 1_554 S
H1142 C1139 0.999 . S
H1143 C1124 0.913 . S
H1144 C1162 0.951 . S
H1145 C1164 0.951 . S
H1146 C1166 0.950 . S
H1147 C1167 0.950 . S
H1148 C1169 0.950 . S
H1149 C1172 0.953 . S
H1150 C1173 0.950 . S
H1151 C1175 0.950 . S
H1152 C1176 0.950 . S
H1153 C1177 0.951 . S
H1154 C1179 0.951 . S
H1155 C1181 0.950 . S
H1156 C1182 0.950 . S
H1157 C1184 0.950 . S
H1158 C1187 0.950 . S
H1159 C1188 0.950 . S
H1160 C1190 0.950 1_545 S
H1161 C1191 0.950 . S
C1162 H1144 0.951 . S
C1162 C1163 1.366 . S
C1162 C1164 1.388 . S
C1163 C1162 1.366 . S
C1163 C1167 1.385 . S
C1164 H1145 0.951 . S
C1164 C1162 1.388 . S
C1164 C1165 1.366 . S
C1165 C1164 1.366 . S
C1165 C1166 1.414 . S
C1165 C1168 1.499 . S
C1166 H1146 0.950 . S
C1166 C1165 1.414 . S
C1166 C1167 1.374 . S
C1167 H1147 0.950 . S
C1167 C1163 1.385 . S
C1167 C1166 1.374 . S
C1168 C1165 1.499 . S
C1168 C1169 1.373 . S
C1168 C1170 1.389 . S
C1169 H1148 0.950 . S
C1169 C1168 1.373 . S
C1169 C1185 1.377 . S
C1170 C1168 1.389 . S
C1170 C1171 1.524 . S
C1170 C1184 1.377 . S
C1171 C1170 1.524 . S
C1171 C1172 1.349 1_554 S
C1171 C1176 1.363 . S
C1172 H1149 0.953 . S
C1172 C1171 1.349 1_556 S
C1172 C1173 1.378 . S
C1173 H1150 0.950 . S
C1173 C1172 1.378 . S
C1173 C1174 1.287 . S
C1174 C1173 1.287 . S
C1174 C1175 1.524 . S
C1174 H1193 0.913 . S
C1175 H1151 0.950 . S
C1175 C1174 1.524 . S
C1175 C1176 1.415 1_556 S
C1176 H1152 0.950 . S
C1176 C1171 1.363 . S
C1176 C1175 1.415 1_554 S
C1177 H1153 0.951 . S
C1177 C1178 1.366 . S
C1177 C1179 1.388 . S
C1178 C1177 1.366 . S
C1178 C1182 1.385 . S
C1179 H1154 0.951 . S
C1179 C1177 1.388 . S
C1179 C1180 1.366 . S
C1180 C1179 1.366 . S
C1180 C1181 1.414 . S
C1180 C1183 1.499 . S
C1181 H1155 0.950 . S
C1181 C1180 1.414 . S
C1181 C1182 1.374 . S
C1182 H1156 0.950 . S
C1182 C1178 1.385 . S
C1182 C1181 1.374 . S
C1183 C1180 1.499 . S
C1183 C1184 1.373 . S
C1183 C1185 1.389 . S
C1184 H1157 0.950 . S
C1184 C1170 1.377 . S
C1184 C1183 1.373 . S
C1185 C1169 1.377 . S
C1185 C1183 1.389 . S
C1185 C1186 1.524 . S
C1186 C1185 1.524 . S
C1186 C1187 1.397 . S
C1186 C1191 1.363 . S
C1187 H1158 0.950 . S
C1187 C1186 1.397 . S
C1187 C1188 1.334 . S
C1188 H1159 0.950 . S
C1188 C1187 1.334 . S
C1188 C1189 1.287 . S
C1189 C1188 1.287 . S
C1189 C1190 1.524 . S
C1189 H1192 0.999 1_565 S
C1190 H1160 0.950 1_565 S
C1190 C1189 1.524 . S
C1190 C1191 1.415 . S
C1191 H1161 0.950 . S
C1191 C1186 1.363 . S
C1191 C1190 1.415 . S
H1192 C1189 0.999 1_545 S
H1193 C1174 0.913 . S
H1194 C1212 0.951 . S
H1195 C1214 0.951 . S
H1196 C1216 0.950 . S
H1197 C1217 0.950 . S
H1198 C1219 0.950 . S
H1199 C1222 0.950 . S
H1200 C1223 0.950 . S
H1201 C1225 0.950 . S
H1202 C1226 0.950 . S
H1203 C1227 0.951 . S
H1204 C1229 0.951 . S
H1205 C1231 0.950 . S
H1206 C1232 0.950 . S
H1207 C1234 0.951 1_455 S
H1208 C1237 0.950 . S
H1209 C1238 0.950 . S
H1210 C1240 0.950 . S
H1211 C1241 0.950 . S
C1212 H1194 0.951 . S
C1212 C1213 1.366 . S
C1212 C1214 1.388 . S
C1213 C1212 1.366 . S
C1213 C1217 1.385 . S
C1214 H1195 0.951 . S
C1214 C1212 1.388 . S
C1214 C1215 1.366 . S
C1215 C1214 1.366 . S
C1215 C1216 1.414 . S
C1215 C1218 1.499 . S
C1216 H1196 0.950 . S
C1216 C1215 1.414 . S
C1216 C1217 1.374 . S
C1217 H1197 0.950 . S
C1217 C1213 1.385 . S
C1217 C1216 1.374 . S
C1218 C1215 1.499 . S
C1218 C1219 1.373 . S
C1218 C1220 1.389 . S
C1219 H1198 0.950 . S
C1219 C1218 1.373 . S
C1219 C1235 1.377 1_655 S
C1220 C1218 1.389 . S
C1220 C1221 1.524 . S
C1220 C1234 1.381 . S
C1221 C1220 1.524 . S
C1221 C1222 1.397 . S
C1221 C1226 1.363 . S
C1222 H1199 0.950 . S
C1222 C1221 1.397 . S
C1222 C1223 1.334 . S
C1223 H1200 0.950 . S
C1223 C1222 1.334 . S
C1223 C1224 1.287 . S
C1224 C1223 1.287 . S
C1224 C1225 1.524 . S
C1224 H1243 0.913 . S
C1225 H1201 0.950 . S
C1225 C1224 1.524 . S
C1225 C1226 1.415 . S
C1226 H1202 0.950 . S
C1226 C1221 1.363 . S
C1226 C1225 1.415 . S
C1227 H1203 0.951 . S
C1227 C1228 1.366 . S
C1227 C1229 1.388 . S
C1228 C1227 1.366 . S
C1228 C1232 1.385 . S
C1229 H1204 0.951 . S
C1229 C1227 1.388 . S
C1229 C1230 1.366 . S
C1230 C1229 1.366 . S
C1230 C1231 1.414 . S
C1230 C1233 1.499 . S
C1231 H1205 0.950 . S
C1231 C1230 1.414 . S
C1231 C1232 1.374 . S
C1232 H1206 0.950 . S
C1232 C1228 1.385 . S
C1232 C1231 1.374 . S
C1233 C1230 1.499 . S
C1233 C1234 1.368 1_455 S
C1233 C1235 1.389 . S
C1234 H1207 0.951 1_655 S
C1234 C1220 1.381 . S
C1234 C1233 1.368 1_655 S
C1235 C1219 1.377 1_455 S
C1235 C1233 1.389 . S
C1235 C1236 1.524 . S
C1236 C1235 1.524 . S
C1236 C1237 1.397 . S
C1236 C1241 1.363 . S
C1237 H1208 0.950 . S
C1237 C1236 1.397 . S
C1237 C1238 1.334 . S
C1238 H1209 0.950 . S
C1238 C1237 1.334 . S
C1238 C1239 1.287 . S
C1239 C1238 1.287 . S
C1239 C1240 1.524 . S
C1239 H1242 0.999 . S
C1240 H1210 0.950 . S
C1240 C1239 1.524 . S
C1240 C1241 1.415 . S
C1241 H1211 0.950 . S
C1241 C1236 1.363 . S
C1241 C1240 1.415 . S
H1242 C1239 0.999 . S
H1243 C1224 0.913 . S
H1244 C1262 0.951 . S
H1245 C1264 0.951 . S
H1246 C1266 0.950 . S
H1247 C1267 0.950 . S
H1248 C1269 0.950 . S
H1249 C1272 0.950 . S
H1250 C1273 0.950 . S
H1251 C1275 0.950 . S
H1252 C1276 0.950 . S
H1253 C1277 0.951 . S
H1254 C1279 0.951 . S
H1255 C1281 0.950 . S
H1256 C1282 0.950 . S
H1257 C1284 0.950 . S
H1258 C1287 0.950 . S
H1259 C1288 0.950 . S
H1260 C1290 0.950 . S
H1261 C1291 0.950 . S
C1262 H1244 0.951 . S
C1262 C1263 1.366 . S
C1262 C1264 1.388 . S
C1263 C1262 1.366 . S
C1263 C1267 1.385 . S
C1264 H1245 0.951 . S
C1264 C1262 1.388 . S
C1264 C1265 1.366 . S
C1265 C1264 1.366 . S
C1265 C1266 1.414 . S
C1265 C1268 1.499 . S
C1266 H1246 0.950 . S
C1266 C1265 1.414 . S
C1266 C1267 1.374 . S
C1267 H1247 0.950 . S
C1267 C1263 1.385 . S
C1267 C1266 1.374 . S
C1268 C1265 1.499 . S
C1268 C1269 1.373 . S
C1268 C1270 1.389 . S
C1269 H1248 0.950 . S
C1269 C1268 1.373 . S
C1269 C1285 1.377 . S
C1270 C1268 1.389 . S
C1270 C1271 1.524 . S
C1270 C1284 1.377 . S
C1271 C1270 1.524 . S
C1271 C1272 1.397 . S
C1271 C1276 1.363 . S
C1272 H1249 0.950 . S
C1272 C1271 1.397 . S
C1272 C1273 1.334 . S
C1273 H1250 0.950 . S
C1273 C1272 1.334 . S
C1273 C1274 1.287 . S
C1274 C1273 1.287 . S
C1274 C1275 1.524 . S
C1274 H1293 0.913 . S
C1275 H1251 0.950 . S
C1275 C1274 1.524 . S
C1275 C1276 1.415 . S
C1276 H1252 0.950 . S
C1276 C1271 1.363 . S
C1276 C1275 1.415 . S
C1277 H1253 0.951 . S
C1277 C1278 1.366 . S
C1277 C1279 1.388 . S
C1278 C1277 1.366 . S
C1278 C1282 1.385 . S
C1279 H1254 0.951 . S
C1279 C1277 1.388 . S
C1279 C1280 1.366 . S
C1280 C1279 1.366 . S
C1280 C1281 1.414 . S
C1280 C1283 1.499 . S
C1281 H1255 0.950 . S
C1281 C1280 1.414 . S
C1281 C1282 1.374 . S
C1282 H1256 0.950 . S
C1282 C1278 1.385 . S
C1282 C1281 1.374 . S
C1283 C1280 1.499 . S
C1283 C1284 1.373 . S
C1283 C1285 1.389 . S
C1284 H1257 0.950 . S
C1284 C1270 1.377 . S
C1284 C1283 1.373 . S
C1285 C1269 1.377 . S
C1285 C1283 1.389 . S
C1285 C1286 1.524 . S
C1286 C1285 1.524 . S
C1286 C1287 1.397 . S
C1286 C1291 1.363 . S
C1287 H1258 0.950 . S
C1287 C1286 1.397 . S
C1287 C1288 1.334 . S
C1288 H1259 0.950 . S
C1288 C1287 1.334 . S
C1288 C1289 1.287 . S
C1289 C1288 1.287 . S
C1289 C1290 1.524 . S
C1289 H1292 0.999 . S
C1290 H1260 0.950 . S
C1290 C1289 1.524 . S
C1290 C1291 1.415 . S
C1291 H1261 0.950 . S
C1291 C1286 1.363 . S
C1291 C1290 1.415 . S
H1292 C1289 0.999 . S
H1293 C1274 0.913 . S
H1294 C1312 0.951 . S
H1295 C1314 0.951 . S
H1296 C1316 0.950 . S
H1297 C1317 0.950 . S
H1298 C1319 0.950 . S
H1299 C1322 0.950 . S
H1300 C1323 0.950 . S
H1301 C1325 0.950 . S
H1302 C1326 0.950 . S
H1303 C1327 0.951 . S
H1304 C1329 0.951 . S
H1305 C1331 0.950 . S
H1306 C1332 0.950 . S
H1307 C1334 0.950 1_565 S
H1308 C1337 0.950 . S
H1309 C1338 0.950 . S
H1310 C1340 0.950 . S
H1311 C1341 0.950 . S
C1312 H1294 0.951 . S
C1312 C1313 1.366 . S
C1312 C1314 1.388 . S
C1313 C1312 1.366 . S
C1313 C1317 1.385 . S
C1314 H1295 0.951 . S
C1314 C1312 1.388 . S
C1314 C1315 1.366 . S
C1315 C1314 1.366 . S
C1315 C1316 1.414 . S
C1315 C1318 1.499 . S
C1316 H1296 0.950 . S
C1316 C1315 1.414 . S
C1316 C1317 1.374 . S
C1317 H1297 0.950 . S
C1317 C1313 1.385 . S
C1317 C1316 1.374 . S
C1318 C1315 1.499 . S
C1318 C1319 1.373 . S
C1318 C1320 1.389 . S
C1319 H1298 0.950 . S
C1319 C1318 1.373 . S
C1319 C1335 1.377 . S
C1320 C1318 1.389 . S
C1320 C1321 1.524 . S
C1320 C1334 1.377 . S
C1321 C1320 1.524 . S
C1321 C1322 1.397 . S
C1321 C1326 1.363 . S
C1322 H1299 0.950 . S
C1322 C1321 1.397 . S
C1322 C1323 1.334 . S
C1323 H1300 0.950 . S
C1323 C1322 1.334 . S
C1323 C1324 1.287 . S
C1324 C1323 1.287 . S
C1324 C1325 1.524 . S
C1324 H1343 0.913 . S
C1325 H1301 0.950 . S
C1325 C1324 1.524 . S
C1325 C1326 1.415 . S
C1326 H1302 0.950 . S
C1326 C1321 1.363 . S
C1326 C1325 1.415 . S
C1327 H1303 0.951 . S
C1327 C1328 1.366 . S
C1327 C1329 1.388 . S
C1328 C1327 1.366 . S
C1328 C1332 1.385 . S
C1329 H1304 0.951 . S
C1329 C1327 1.388 . S
C1329 C1330 1.366 . S
C1330 C1329 1.366 . S
C1330 C1331 1.414 . S
C1330 C1333 1.499 . S
C1331 H1305 0.950 . S
C1331 C1330 1.414 . S
C1331 C1332 1.374 . S
C1332 H1306 0.950 . S
C1332 C1328 1.385 . S
C1332 C1331 1.374 . S
C1333 C1330 1.499 . S
C1333 C1334 1.373 1_565 S
C1333 C1335 1.389 1_565 S
C1334 H1307 0.950 1_545 S
C1334 C1320 1.377 . S
C1334 C1333 1.373 1_545 S
C1335 C1319 1.377 . S
C1335 C1333 1.389 1_545 S
C1335 C1336 1.524 . S
C1336 C1335 1.524 . S
C1336 C1337 1.397 1_545 S
C1336 C1341 1.363 . S
C1337 H1308 0.950 . S
C1337 C1336 1.397 1_565 S
C1337 C1338 1.334 . S
C1338 H1309 0.950 . S
C1338 C1337 1.334 . S
C1338 C1339 1.287 1_565 S
C1339 C1338 1.287 1_545 S
C1339 C1340 1.524 . S
C1339 H1342 1.022 . S
C1340 H1310 0.950 . S
C1340 C1339 1.524 . S
C1340 C1341 1.415 . S
C1341 H1311 0.950 . S
C1341 C1336 1.363 . S
C1341 C1340 1.415 . S
H1342 C1339 1.022 . S
H1343 C1324 0.913 . S
H1344 C1362 0.951 . S
H1345 C1364 0.951 . S
H1346 C1366 0.950 . S
H1347 C1367 0.950 . S
H1348 C1369 0.950 . S
H1349 C1372 0.950 . S
H1350 C1373 0.950 . S
H1351 C1375 0.950 . S
H1352 C1376 0.950 . S
H1353 C1377 0.951 . S
H1354 C1379 0.951 . S
H1355 C1381 0.950 . S
H1356 C1382 0.950 . S
H1357 C1384 0.950 . S
H1358 C1387 0.950 . S
H1359 C1388 0.950 . S
H1360 C1390 0.950 . S
H1361 C1391 0.950 . S
C1362 H1344 0.951 . S
C1362 C1363 1.366 . S
C1362 C1364 1.388 . S
C1363 C1362 1.366 . S
C1363 C1367 1.385 . S
C1364 H1345 0.951 . S
C1364 C1362 1.388 . S
C1364 C1365 1.366 . S
C1365 C1364 1.366 . S
C1365 C1366 1.414 . S
C1365 C1368 1.499 . S
C1366 H1346 0.950 . S
C1366 C1365 1.414 . S
C1366 C1367 1.374 . S
C1367 H1347 0.950 . S
C1367 C1363 1.385 . S
C1367 C1366 1.374 . S
C1368 C1365 1.499 . S
C1368 C1369 1.373 . S
C1368 C1370 1.389 . S
C1369 H1348 0.950 . S
C1369 C1368 1.373 . S
C1369 C1385 1.377 . S
C1370 C1368 1.389 . S
C1370 C1371 1.524 . S
C1370 C1384 1.377 . S
C1371 C1370 1.524 . S
C1371 C1372 1.397 . S
C1371 C1376 1.363 . S
C1372 H1349 0.950 . S
C1372 C1371 1.397 . S
C1372 C1373 1.334 . S
C1373 H1350 0.950 . S
C1373 C1372 1.334 . S
C1373 C1374 1.287 . S
C1374 C1373 1.287 . S
C1374 C1375 1.524 . S
C1374 H1393 0.913 . S
C1375 H1351 0.950 . S
C1375 C1374 1.524 . S
C1375 C1376 1.415 . S
C1376 H1352 0.950 . S
C1376 C1371 1.363 . S
C1376 C1375 1.415 . S
C1377 H1353 0.951 . S
C1377 C1378 1.366 . S
C1377 C1379 1.388 . S
C1378 C1377 1.366 . S
C1378 C1382 1.385 . S
C1379 H1354 0.951 . S
C1379 C1377 1.388 . S
C1379 C1380 1.366 . S
C1380 C1379 1.366 . S
C1380 C1381 1.414 . S
C1380 C1383 1.499 . S
C1381 H1355 0.950 . S
C1381 C1380 1.414 . S
C1381 C1382 1.374 . S
C1382 H1356 0.950 . S
C1382 C1378 1.385 . S
C1382 C1381 1.374 . S
C1383 C1380 1.499 . S
C1383 C1384 1.373 . S
C1383 C1385 1.389 . S
C1384 H1357 0.950 . S
C1384 C1370 1.377 . S
C1384 C1383 1.373 . S
C1385 C1369 1.377 . S
C1385 C1383 1.389 . S
C1385 C1386 1.524 . S
C1386 C1385 1.524 . S
C1386 C1387 1.397 . S
C1386 C1391 1.363 . S
C1387 H1358 0.950 . S
C1387 C1386 1.397 . S
C1387 C1388 1.334 . S
C1388 H1359 0.950 . S
C1388 C1387 1.334 . S
C1388 C1389 1.287 . S
C1389 C1388 1.287 . S
C1389 C1390 1.524 . S
C1389 H1392 0.999 . S
C1390 H1360 0.950 . S
C1390 C1389 1.524 . S
C1390 C1391 1.415 . S
C1391 H1361 0.950 . S
C1391 C1386 1.363 . S
C1391 C1390 1.415 . S
H1392 C1389 0.999 . S
H1393 C1374 0.913 . S
H1394 C1412 0.951 . S
H1395 C1414 0.951 . S
H1396 C1416 0.950 . S
H1397 C1417 0.950 . S
H1398 C1419 0.950 . S
H1399 C1422 0.950 . S
H1400 C1423 0.950 . S
H1401 C1425 0.950 . S
H1402 C1426 0.950 . S
H1403 C1427 0.951 . S
H1404 C1429 0.951 . S
H1405 C1431 0.950 . S
H1406 C1432 0.950 . S
H1407 C1434 0.950 . S
H1408 C1437 0.950 . S
H1409 C1438 0.950 . S
H1410 C1440 0.950 . S
H1411 C1441 0.950 . S
C1412 H1394 0.951 . S
C1412 C1413 1.366 . S
C1412 C1414 1.388 . S
C1413 C1412 1.366 . S
C1413 C1417 1.385 . S
C1414 H1395 0.951 . S
C1414 C1412 1.388 . S
C1414 C1415 1.366 . S
C1415 C1414 1.366 . S
C1415 C1416 1.414 . S
C1415 C1418 1.499 . S
C1416 H1396 0.950 . S
C1416 C1415 1.414 . S
C1416 C1417 1.374 . S
C1417 H1397 0.950 . S
C1417 C1413 1.385 . S
C1417 C1416 1.374 . S
C1418 C1415 1.499 . S
C1418 C1419 1.373 . S
C1418 C1420 1.389 . S
C1419 H1398 0.950 . S
C1419 C1418 1.373 . S
C1419 C1435 1.377 . S
C1420 C1418 1.389 . S
C1420 C1421 1.524 . S
C1420 C1434 1.377 . S
C1421 C1420 1.524 . S
C1421 C1422 1.397 . S
C1421 C1426 1.363 . S
C1422 H1399 0.950 . S
C1422 C1421 1.397 . S
C1422 C1423 1.334 . S
C1423 H1400 0.950 . S
C1423 C1422 1.334 . S
C1423 C1424 1.287 . S
C1424 C1423 1.287 . S
C1424 C1425 1.524 . S
C1424 H1443 0.913 . S
C1425 H1401 0.950 . S
C1425 C1424 1.524 . S
C1425 C1426 1.415 . S
C1426 H1402 0.950 . S
C1426 C1421 1.363 . S
C1426 C1425 1.415 . S
C1427 H1403 0.951 . S
C1427 C1428 1.366 . S
C1427 C1429 1.388 . S
C1428 C1427 1.366 . S
C1428 C1432 1.385 . S
C1429 H1404 0.951 . S
C1429 C1427 1.388 . S
C1429 C1430 1.366 . S
C1430 C1429 1.366 . S
C1430 C1431 1.414 . S
C1430 C1433 1.499 . S
C1431 H1405 0.950 . S
C1431 C1430 1.414 . S
C1431 C1432 1.374 . S
C1432 H1406 0.950 . S
C1432 C1428 1.385 . S
C1432 C1431 1.374 . S
C1433 C1430 1.499 . S
C1433 C1434 1.373 . S
C1433 C1435 1.389 . S
C1434 H1407 0.950 . S
C1434 C1420 1.377 . S
C1434 C1433 1.373 . S
C1435 C1419 1.377 . S
C1435 C1433 1.389 . S
C1435 C1436 1.524 . S
C1436 C1435 1.524 . S
C1436 C1437 1.397 . S
C1436 C1441 1.363 . S
C1437 H1408 0.950 . S
C1437 C1436 1.397 . S
C1437 C1438 1.334 . S
C1438 H1409 0.950 . S
C1438 C1437 1.334 . S
C1438 C1439 1.287 . S
C1439 C1438 1.287 . S
C1439 C1440 1.524 . S
C1439 H1442 0.999 . S
C1440 H1410 0.950 . S
C1440 C1439 1.524 . S
C1440 C1441 1.415 . S
C1441 H1411 0.950 . S
C1441 C1436 1.363 . S
C1441 C1440 1.415 . S
H1442 C1439 0.999 . S
H1443 C1424 0.913 . S
H1444 C1462 0.951 . S
H1445 C1464 0.951 . S
H1446 C1466 0.950 . S
H1447 C1467 0.950 . S
H1448 C1469 0.950 . S
H1449 C1472 0.950 . S
H1450 C1473 0.950 . S
H1451 C1475 0.950 . S
H1452 C1476 0.950 . S
H1453 C1477 0.951 . S
H1454 C1479 0.951 . S
H1455 C1481 0.950 . S
H1456 C1482 0.950 . S
H1457 C1484 0.950 . S
H1458 C1487 0.950 . S
H1459 C1488 0.950 . S
H1460 C1490 0.950 . S
H1461 C1491 0.950 . S
C1462 H1444 0.951 . S
C1462 C1463 1.366 . S
C1462 C1464 1.388 . S
C1463 C1462 1.366 . S
C1463 C1467 1.385 . S
C1464 H1445 0.951 . S
C1464 C1462 1.388 . S
C1464 C1465 1.366 . S
C1465 C1464 1.366 . S
C1465 C1466 1.414 . S
C1465 C1468 1.499 . S
C1466 H1446 0.950 . S
C1466 C1465 1.414 . S
C1466 C1467 1.374 . S
C1467 H1447 0.950 . S
C1467 C1463 1.385 . S
C1467 C1466 1.374 . S
C1468 C1465 1.499 . S
C1468 C1469 1.373 . S
C1468 C1470 1.389 . S
C1469 H1448 0.950 . S
C1469 C1468 1.373 . S
C1469 C1485 1.377 . S
C1470 C1468 1.389 . S
C1470 C1471 1.524 . S
C1470 C1484 1.377 . S
C1471 C1470 1.524 . S
C1471 C1472 1.397 . S
C1471 C1476 1.363 . S
C1472 H1449 0.950 . S
C1472 C1471 1.397 . S
C1472 C1473 1.334 . S
C1473 H1450 0.950 . S
C1473 C1472 1.334 . S
C1473 C1474 1.287 . S
C1474 C1473 1.287 . S
C1474 C1475 1.524 . S
C1474 H1493 0.949 . S
C1475 H1451 0.950 . S
C1475 C1474 1.524 . S
C1475 C1476 1.415 . S
C1476 H1452 0.950 . S
C1476 C1471 1.363 . S
C1476 C1475 1.415 . S
C1477 H1453 0.951 . S
C1477 C1478 1.366 . S
C1477 C1479 1.388 . S
C1478 C1477 1.366 . S
C1478 C1482 1.385 . S
C1479 H1454 0.951 . S
C1479 C1477 1.388 . S
C1479 C1480 1.366 . S
C1480 C1479 1.366 . S
C1480 C1481 1.414 . S
C1480 C1483 1.499 . S
C1481 H1455 0.950 . S
C1481 C1480 1.414 . S
C1481 C1482 1.374 . S
C1482 H1456 0.950 . S
C1482 C1478 1.385 . S
C1482 C1481 1.374 . S
C1483 C1480 1.499 . S
C1483 C1484 1.373 . S
C1483 C1485 1.389 . S
C1484 H1457 0.950 . S
C1484 C1470 1.377 . S
C1484 C1483 1.373 . S
C1485 C1469 1.377 . S
C1485 C1483 1.389 . S
C1485 C1486 1.524 . S
C1486 C1485 1.524 . S
C1486 C1487 1.397 . S
C1486 C1491 1.363 . S
C1487 H1458 0.950 . S
C1487 C1486 1.397 . S
C1487 C1488 1.334 . S
C1488 H1459 0.950 . S
C1488 C1487 1.334 . S
C1488 C1489 1.287 . S
C1489 C1488 1.287 . S
C1489 C1490 1.524 . S
C1489 H1492 0.999 . S
C1490 H1460 0.950 . S
C1490 C1489 1.524 . S
C1490 C1491 1.415 . S
C1491 H1461 0.950 . S
C1491 C1486 1.363 . S
C1491 C1490 1.415 . S
H1492 C1489 0.999 . S
H1493 C1474 0.949 . S
H1494 C1512 0.951 . S
H1495 C1514 0.951 . S
H1496 C1516 0.950 . S
H1497 C1517 0.950 . S
H1498 C1519 0.950 . S
H1499 C1522 0.950 . S
H1500 C1523 0.950 . S
H1501 C1525 0.950 . S
H1502 C1526 0.950 . S
H1503 C1527 0.951 . S
H1504 C1529 0.951 . S
H1505 C1531 0.950 . S
H1506 C1532 0.950 . S
H1507 C1534 0.950 . S
H1508 C1537 0.950 . S
H1509 C1538 0.950 . S
H1510 C1540 0.950 . S
H1511 C1541 0.950 . S
C1512 H1494 0.951 . S
C1512 C1513 1.366 . S
C1512 C1514 1.388 . S
C1513 C1512 1.366 . S
C1513 C1517 1.385 . S
C1514 H1495 0.951 . S
C1514 C1512 1.388 . S
C1514 C1515 1.366 . S
C1515 C1514 1.366 . S
C1515 C1516 1.414 . S
C1515 C1518 1.499 . S
C1516 H1496 0.950 . S
C1516 C1515 1.414 . S
C1516 C1517 1.374 . S
C1517 H1497 0.950 . S
C1517 C1513 1.385 . S
C1517 C1516 1.374 . S
C1518 C1515 1.499 . S
C1518 C1519 1.373 . S
C1518 C1520 1.389 . S
C1519 H1498 0.950 . S
C1519 C1518 1.373 . S
C1519 C1535 1.377 . S
C1520 C1518 1.389 . S
C1520 C1521 1.524 . S
C1520 C1534 1.377 . S
C1521 C1520 1.524 . S
C1521 C1522 1.397 . S
C1521 C1526 1.363 . S
C1522 H1499 0.950 . S
C1522 C1521 1.397 . S
C1522 C1523 1.334 . S
C1523 H1500 0.950 . S
C1523 C1522 1.334 . S
C1523 C1524 1.287 . S
C1524 C1523 1.287 . S
C1524 C1525 1.524 . S
C1524 H1543 0.913 . S
C1525 H1501 0.950 . S
C1525 C1524 1.524 . S
C1525 C1526 1.415 . S
C1526 H1502 0.950 . S
C1526 C1521 1.363 . S
C1526 C1525 1.415 . S
C1527 H1503 0.951 . S
C1527 C1528 1.366 . S
C1527 C1529 1.388 . S
C1528 C1527 1.366 . S
C1528 C1532 1.385 . S
C1529 H1504 0.951 . S
C1529 C1527 1.388 . S
C1529 C1530 1.366 . S
C1530 C1529 1.366 . S
C1530 C1531 1.414 . S
C1530 C1533 1.499 . S
C1531 H1505 0.950 . S
C1531 C1530 1.414 . S
C1531 C1532 1.374 . S
C1532 H1506 0.950 . S
C1532 C1528 1.385 . S
C1532 C1531 1.374 . S
C1533 C1530 1.499 . S
C1533 C1534 1.373 . S
C1533 C1535 1.389 . S
C1534 H1507 0.950 . S
C1534 C1520 1.377 . S
C1534 C1533 1.373 . S
C1535 C1519 1.377 . S
C1535 C1533 1.389 . S
C1535 C1536 1.524 . S
C1536 C1535 1.524 . S
C1536 C1537 1.397 . S
C1536 C1541 1.363 . S
C1537 H1508 0.950 . S
C1537 C1536 1.397 . S
C1537 C1538 1.334 . S
C1538 H1509 0.950 . S
C1538 C1537 1.334 . S
C1538 C1539 1.287 . S
C1539 C1538 1.287 . S
C1539 C1540 1.524 . S
C1539 H1542 0.999 . S
C1540 H1510 0.950 . S
C1540 C1539 1.524 . S
C1540 C1541 1.415 . S
C1541 H1511 0.950 . S
C1541 C1536 1.363 . S
C1541 C1540 1.415 . S
H1542 C1539 0.999 . S
H1543 C1524 0.913 . S
H1544 C1562 0.951 . S
H1545 C1564 0.951 . S
H1546 C1566 0.950 . S
H1547 C1567 0.950 . S
H1548 C1569 0.950 . S
H1549 C1572 0.950 . S
H1550 C1573 0.950 . S
H1551 C1575 0.950 . S
H1552 C1576 0.950 . S
H1553 C1577 0.951 . S
H1554 C1579 0.951 . S
H1555 C1581 0.950 . S
H1556 C1582 0.950 . S
H1557 C1584 0.950 . S
H1558 C1587 0.950 . S
H1559 C1588 0.950 . S
H1560 C1590 0.950 . S
H1561 C1591 0.950 . S
C1562 H1544 0.951 . S
C1562 C1563 1.366 . S
C1562 C1564 1.388 . S
C1563 C1562 1.366 . S
C1563 C1567 1.385 . S
C1564 H1545 0.951 . S
C1564 C1562 1.388 . S
C1564 C1565 1.366 . S
C1565 C1564 1.366 . S
C1565 C1566 1.414 . S
C1565 C1568 1.499 . S
C1566 H1546 0.950 . S
C1566 C1565 1.414 . S
C1566 C1567 1.374 . S
C1567 H1547 0.950 . S
C1567 C1563 1.385 . S
C1567 C1566 1.374 . S
C1568 C1565 1.499 . S
C1568 C1569 1.373 . S
C1568 C1570 1.389 . S
C1569 H1548 0.950 . S
C1569 C1568 1.373 . S
C1569 C1585 1.377 . S
C1570 C1568 1.389 . S
C1570 C1571 1.524 . S
C1570 C1584 1.377 . S
C1571 C1570 1.524 . S
C1571 C1572 1.397 . S
C1571 C1576 1.363 . S
C1572 H1549 0.950 . S
C1572 C1571 1.397 . S
C1572 C1573 1.334 . S
C1573 H1550 0.950 . S
C1573 C1572 1.334 . S
C1573 C1574 1.287 . S
C1574 C1573 1.287 . S
C1574 C1575 1.524 . S
C1574 H1593 0.913 . S
C1575 H1551 0.950 . S
C1575 C1574 1.524 . S
C1575 C1576 1.415 . S
C1576 H1552 0.950 . S
C1576 C1571 1.363 . S
C1576 C1575 1.415 . S
C1577 H1553 0.951 . S
C1577 C1578 1.366 . S
C1577 C1579 1.388 . S
C1578 C1577 1.366 . S
C1578 C1582 1.385 . S
C1579 H1554 0.951 . S
C1579 C1577 1.388 . S
C1579 C1580 1.366 . S
C1580 C1579 1.366 . S
C1580 C1581 1.414 . S
C1580 C1583 1.499 . S
C1581 H1555 0.950 . S
C1581 C1580 1.414 . S
C1581 C1582 1.374 . S
C1582 H1556 0.950 . S
C1582 C1578 1.385 . S
C1582 C1581 1.374 . S
C1583 C1580 1.499 . S
C1583 C1584 1.373 . S
C1583 C1585 1.389 . S
C1584 H1557 0.950 . S
C1584 C1570 1.377 . S
C1584 C1583 1.373 . S
C1585 C1569 1.377 . S
C1585 C1583 1.389 . S
C1585 C1586 1.524 . S
C1586 C1585 1.524 . S
C1586 C1587 1.397 . S
C1586 C1591 1.363 . S
C1587 H1558 0.950 . S
C1587 C1586 1.397 . S
C1587 C1588 1.334 . S
C1588 H1559 0.950 . S
C1588 C1587 1.334 . S
C1588 C1589 1.287 . S
C1589 C1588 1.287 . S
C1589 C1590 1.524 . S
C1589 H1592 0.999 . S
C1590 H1560 0.950 . S
C1590 C1589 1.524 . S
C1590 C1591 1.415 . S
C1591 H1561 0.950 . S
C1591 C1586 1.363 . S
C1591 C1590 1.415 . S
H1592 C1589 0.999 . S
H1593 C1574 0.913 . S
H1594 C1612 0.951 . S
H1595 C1614 0.951 . S
H1596 C1616 0.950 . S
H1597 C1617 0.950 . S
H1598 C1619 0.950 . S
H1599 C1622 0.950 . S
H1600 C1623 0.950 . S
H1601 C1625 0.950 . S
H1602 C1626 0.950 . S
H1603 C1627 0.951 . S
H1604 C1629 0.951 . S
H1605 C1631 0.950 . S
H1606 C1632 0.950 . S
H1607 C1634 0.950 . S
H1608 C1637 0.950 . S
H1609 C1638 0.950 . S
H1610 C1640 0.950 . S
H1611 C1641 0.950 . S
C1612 H1594 0.951 . S
C1612 C1613 1.366 . S
C1612 C1614 1.388 . S
C1613 C1612 1.366 . S
C1613 C1617 1.385 . S
C1614 H1595 0.951 . S
C1614 C1612 1.388 . S
C1614 C1615 1.366 . S
C1615 C1614 1.366 . S
C1615 C1616 1.414 . S
C1615 C1618 1.499 . S
C1616 H1596 0.950 . S
C1616 C1615 1.414 . S
C1616 C1617 1.374 . S
C1617 H1597 0.950 . S
C1617 C1613 1.385 . S
C1617 C1616 1.374 . S
C1618 C1615 1.499 . S
C1618 C1619 1.373 . S
C1618 C1620 1.389 . S
C1619 H1598 0.950 . S
C1619 C1618 1.373 . S
C1619 C1635 1.377 . S
C1620 C1618 1.389 . S
C1620 C1621 1.524 . S
C1620 C1634 1.377 . S
C1621 C1620 1.524 . S
C1621 C1622 1.397 . S
C1621 C1626 1.363 . S
C1622 H1599 0.950 . S
C1622 C1621 1.397 . S
C1622 C1623 1.334 . S
C1623 H1600 0.950 . S
C1623 C1622 1.334 . S
C1623 C1624 1.287 . S
C1624 C1623 1.287 . S
C1624 C1625 1.524 . S
C1624 H1643 0.913 . S
C1625 H1601 0.950 . S
C1625 C1624 1.524 . S
C1625 C1626 1.415 . S
C1626 H1602 0.950 . S
C1626 C1621 1.363 . S
C1626 C1625 1.415 . S
C1627 H1603 0.951 . S
C1627 C1628 1.366 . S
C1627 C1629 1.388 . S
C1628 C1627 1.366 . S
C1628 C1632 1.385 . S
C1629 H1604 0.951 . S
C1629 C1627 1.388 . S
C1629 C1630 1.366 . S
C1630 C1629 1.366 . S
C1630 C1631 1.414 . S
C1630 C1633 1.499 . S
C1631 H1605 0.950 . S
C1631 C1630 1.414 . S
C1631 C1632 1.374 . S
C1632 H1606 0.950 . S
C1632 C1628 1.385 . S
C1632 C1631 1.374 . S
C1633 C1630 1.499 . S
C1633 C1634 1.373 . S
C1633 C1635 1.389 . S
C1634 H1607 0.950 . S
C1634 C1620 1.377 . S
C1634 C1633 1.373 . S
C1635 C1619 1.377 . S
C1635 C1633 1.389 . S
C1635 C1636 1.524 . S
C1636 C1635 1.524 . S
C1636 C1637 1.397 . S
C1636 C1641 1.363 . S
C1637 H1608 0.950 . S
C1637 C1636 1.397 . S
C1637 C1638 1.334 . S
C1638 H1609 0.950 . S
C1638 C1637 1.334 . S
C1638 C1639 1.287 . S
C1639 C1638 1.287 . S
C1639 C1640 1.524 . S
C1639 H1642 0.999 . S
C1640 H1610 0.950 . S
C1640 C1639 1.524 . S
C1640 C1641 1.415 . S
C1641 H1611 0.950 . S
C1641 C1636 1.363 . S
C1641 C1640 1.415 . S
H1642 C1639 0.999 . S
H1643 C1624 0.913 . S
H1644 C1662 0.951 . S
H1645 C1664 0.951 . S
H1646 C1666 0.950 . S
H1647 C1667 0.950 . S
H1648 C1669 0.950 . S
H1649 C1672 0.950 . S
H1650 C1673 0.950 . S
H1651 C1675 0.950 . S
H1652 C1676 0.950 . S
H1653 C1677 0.951 . S
H1654 C1679 0.951 . S
H1655 C1681 0.950 . S
H1656 C1682 0.950 . S
H1657 C1684 0.950 . S
H1658 C1687 0.950 . S
H1659 C1688 0.950 . S
H1660 C1690 0.950 . S
H1661 C1691 0.950 . S
C1662 H1644 0.951 . S
C1662 C1663 1.366 . S
C1662 C1664 1.388 . S
C1663 C1662 1.366 . S
C1663 C1667 1.385 . S
C1664 H1645 0.951 . S
C1664 C1662 1.388 . S
C1664 C1665 1.366 . S
C1665 C1664 1.366 . S
C1665 C1666 1.414 . S
C1665 C1668 1.499 1_545 S
C1666 H1646 0.950 . S
C1666 C1665 1.414 . S
C1666 C1667 1.374 . S
C1667 H1647 0.950 . S
C1667 C1663 1.385 . S
C1667 C1666 1.374 . S
C1668 C1665 1.499 1_565 S
C1668 C1669 1.373 . S
C1668 C1670 1.389 . S
C1669 H1648 0.950 . S
C1669 C1668 1.373 . S
C1669 C1685 1.377 . S
C1670 C1668 1.389 . S
C1670 C1671 1.524 . S
C1670 C1684 1.377 . S
C1671 C1670 1.524 . S
C1671 C1672 1.397 1_565 S
C1671 C1676 1.363 . S
C1672 H1649 0.950 . S
C1672 C1671 1.397 1_545 S
C1672 C1673 1.334 . S
C1673 H1650 0.950 . S
C1673 C1672 1.334 . S
C1673 C1674 1.287 . S
C1674 C1673 1.287 . S
C1674 C1675 1.524 1_545 S
C1674 H1693 0.913 . S
C1675 H1651 0.950 . S
C1675 C1674 1.524 1_565 S
C1675 C1676 1.415 . S
C1676 H1652 0.950 . S
C1676 C1671 1.363 . S
C1676 C1675 1.415 . S
C1677 H1653 0.951 . S
C1677 C1678 1.366 . S
C1677 C1679 1.388 . S
C1678 C1677 1.366 . S
C1678 C1682 1.385 . S
C1679 H1654 0.951 . S
C1679 C1677 1.388 . S
C1679 C1680 1.366 . S
C1680 C1679 1.366 . S
C1680 C1681 1.414 . S
C1680 C1683 1.499 . S
C1681 H1655 0.950 . S
C1681 C1680 1.414 . S
C1681 C1682 1.374 . S
C1682 H1656 0.950 . S
C1682 C1678 1.385 . S
C1682 C1681 1.374 . S
C1683 C1680 1.499 . S
C1683 C1684 1.373 . S
C1683 C1685 1.389 . S
C1684 H1657 0.950 . S
C1684 C1670 1.377 . S
C1684 C1683 1.373 . S
C1685 C1669 1.377 . S
C1685 C1683 1.389 . S
C1685 C1686 1.524 . S
C1686 C1685 1.524 . S
C1686 C1687 1.397 . S
C1686 C1691 1.363 . S
C1687 H1658 0.950 . S
C1687 C1686 1.397 . S
C1687 C1688 1.334 . S
C1688 H1659 0.950 . S
C1688 C1687 1.334 . S
C1688 C1689 1.287 . S
C1689 C1688 1.287 . S
C1689 C1690 1.524 . S
C1689 H1692 0.999 . S
C1690 H1660 0.950 . S
C1690 C1689 1.524 . S
C1690 C1691 1.415 . S
C1691 H1661 0.950 . S
C1691 C1686 1.363 . S
C1691 C1690 1.415 . S
H1692 C1689 0.999 . S
H1693 C1674 0.913 . S
H1694 C1712 0.951 . S
H1695 C1714 0.951 . S
H1696 C1716 0.950 1_455 S
H1697 C1717 0.950 . S
H1698 C1719 0.950 . S
H1699 C1722 0.950 . S
H1700 C1723 0.950 . S
H1701 C1725 0.950 . S
H1702 C1726 0.950 . S
H1703 C1727 0.951 . S
H1704 C1729 0.951 . S
H1705 C1731 0.950 . S
H1706 C1732 0.950 . S
H1707 C1734 0.950 . S
H1708 C1737 0.950 . S
H1709 C1738 0.950 . S
H1710 C1740 0.950 . S
H1711 C1741 0.950 . S
C1712 H1694 0.951 . S
C1712 C1713 1.366 . S
C1712 C1714 1.388 1_655 S
C1713 C1712 1.366 . S
C1713 C1717 1.385 . S
C1714 H1695 0.951 . S
C1714 C1712 1.388 1_455 S
C1714 C1715 1.366 . S
C1715 C1714 1.366 . S
C1715 C1716 1.414 1_455 S
C1715 C1718 1.499 . S
C1716 H1696 0.950 1_655 S
C1716 C1715 1.414 1_655 S
C1716 C1717 1.374 . S
C1717 H1697 0.950 . S
C1717 C1713 1.385 . S
C1717 C1716 1.374 . S
C1718 C1715 1.499 . S
C1718 C1719 1.373 . S
C1718 C1720 1.389 . S
C1719 H1698 0.950 . S
C1719 C1718 1.373 . S
C1719 C1735 1.377 . S
C1720 C1718 1.389 . S
C1720 C1721 1.524 . S
C1720 C1734 1.377 . S
C1721 C1720 1.524 . S
C1721 C1722 1.397 . S
C1721 C1726 1.363 . S
C1722 H1699 0.950 . S
C1722 C1721 1.397 . S
C1722 C1723 1.334 . S
C1723 H1700 0.950 . S
C1723 C1722 1.334 . S
C1723 C1724 1.287 . S
C1724 C1723 1.287 . S
C1724 C1725 1.524 . S
C1724 H1743 0.913 . S
C1725 H1701 0.950 . S
C1725 C1724 1.524 . S
C1725 C1726 1.415 . S
C1726 H1702 0.950 . S
C1726 C1721 1.363 . S
C1726 C1725 1.415 . S
C1727 H1703 0.951 . S
C1727 C1728 1.366 . S
C1727 C1729 1.388 . S
C1728 C1727 1.366 . S
C1728 C1732 1.385 . S
C1729 H1704 0.951 . S
C1729 C1727 1.388 . S
C1729 C1730 1.366 . S
C1730 C1729 1.366 . S
C1730 C1731 1.414 . S
C1730 C1733 1.499 . S
C1731 H1705 0.950 . S
C1731 C1730 1.414 . S
C1731 C1732 1.374 . S
C1732 H1706 0.950 . S
C1732 C1728 1.385 . S
C1732 C1731 1.374 . S
C1733 C1730 1.499 . S
C1733 C1734 1.373 . S
C1733 C1735 1.389 . S
C1734 H1707 0.950 . S
C1734 C1720 1.377 . S
C1734 C1733 1.373 . S
C1735 C1719 1.377 . S
C1735 C1733 1.389 . S
C1735 C1736 1.524 . S
C1736 C1735 1.524 . S
C1736 C1737 1.397 . S
C1736 C1741 1.363 . S
C1737 H1708 0.950 . S
C1737 C1736 1.397 . S
C1737 C1738 1.334 . S
C1738 H1709 0.950 . S
C1738 C1737 1.334 . S
C1738 C1739 1.287 . S
C1739 C1738 1.287 . S
C1739 C1740 1.524 . S
C1739 H1742 0.999 . S
C1740 H1710 0.950 . S
C1740 C1739 1.524 . S
C1740 C1741 1.415 . S
C1741 H1711 0.950 . S
C1741 C1736 1.363 . S
C1741 C1740 1.415 . S
H1742 C1739 0.999 . S
H1743 C1724 0.913 . S
H1744 C1762 0.951 . S
H1745 C1764 0.951 . S
H1746 C1766 0.950 . S
H1747 C1767 0.950 . S
H1748 C1769 0.950 . S
H1749 C1772 0.950 . S
H1750 C1773 0.950 . S
H1751 C1775 0.950 . S
H1752 C1776 0.950 . S
H1753 C1777 0.951 . S
H1754 C1779 0.951 . S
H1755 C1781 0.950 . S
H1756 C1782 0.950 . S
H1757 C1784 0.950 . S
H1758 C1787 0.950 . S
H1759 C1788 0.950 . S
H1760 C1790 0.950 . S
H1761 C1791 0.950 . S
C1762 H1744 0.951 . S
C1762 C1763 1.366 . S
C1762 C1764 1.388 . S
C1763 C1762 1.366 . S
C1763 C1767 1.385 . S
C1764 H1745 0.951 . S
C1764 C1762 1.388 . S
C1764 C1765 1.366 . S
C1765 C1764 1.366 . S
C1765 C1766 1.414 . S
C1765 C1768 1.499 . S
C1766 H1746 0.950 . S
C1766 C1765 1.414 . S
C1766 C1767 1.374 . S
C1767 H1747 0.950 . S
C1767 C1763 1.385 . S
C1767 C1766 1.374 . S
C1768 C1765 1.499 . S
C1768 C1769 1.373 . S
C1768 C1770 1.389 . S
C1769 H1748 0.950 . S
C1769 C1768 1.373 . S
C1769 C1785 1.377 . S
C1770 C1768 1.389 . S
C1770 C1771 1.524 . S
C1770 C1784 1.377 . S
C1771 C1770 1.524 . S
C1771 C1772 1.397 . S
C1771 C1776 1.363 . S
C1772 H1749 0.950 . S
C1772 C1771 1.397 . S
C1772 C1773 1.334 . S
C1773 H1750 0.950 . S
C1773 C1772 1.334 . S
C1773 C1774 1.287 . S
C1774 C1773 1.287 . S
C1774 C1775 1.524 . S
C1774 H1793 0.913 . S
C1775 H1751 0.950 . S
C1775 C1774 1.524 . S
C1775 C1776 1.415 . S
C1776 H1752 0.950 . S
C1776 C1771 1.363 . S
C1776 C1775 1.415 . S
C1777 H1753 0.951 . S
C1777 C1778 1.366 . S
C1777 C1779 1.388 . S
C1778 C1777 1.366 . S
C1778 C1782 1.385 . S
C1779 H1754 0.951 . S
C1779 C1777 1.388 . S
C1779 C1780 1.366 . S
C1780 C1779 1.366 . S
C1780 C1781 1.414 . S
C1780 C1783 1.499 . S
C1781 H1755 0.950 . S
C1781 C1780 1.414 . S
C1781 C1782 1.374 . S
C1782 H1756 0.950 . S
C1782 C1778 1.385 . S
C1782 C1781 1.374 . S
C1783 C1780 1.499 . S
C1783 C1784 1.373 . S
C1783 C1785 1.389 . S
C1784 H1757 0.950 . S
C1784 C1770 1.377 . S
C1784 C1783 1.373 . S
C1785 C1769 1.377 . S
C1785 C1783 1.389 . S
C1785 C1786 1.524 . S
C1786 C1785 1.524 . S
C1786 C1787 1.397 . S
C1786 C1791 1.363 . S
C1787 H1758 0.950 . S
C1787 C1786 1.397 . S
C1787 C1788 1.334 . S
C1788 H1759 0.950 . S
C1788 C1787 1.334 . S
C1788 C1789 1.287 . S
C1789 C1788 1.287 . S
C1789 C1790 1.524 . S
C1789 H1792 0.999 . S
C1790 H1760 0.950 . S
C1790 C1789 1.524 . S
C1790 C1791 1.415 . S
C1791 H1761 0.950 . S
C1791 C1786 1.363 . S
C1791 C1790 1.415 . S
H1792 C1789 0.999 . S
H1793 C1774 0.913 . S
H1794 C1812 0.951 . S
H1795 C1814 0.951 . S
H1796 C1816 0.950 . S
H1797 C1817 0.950 . S
H1798 C1819 0.950 . S
H1799 C1822 0.950 . S
H1800 C1823 0.950 . S
H1801 C1825 0.950 . S
H1802 C1826 0.950 . S
H1803 C1827 0.951 . S
H1804 C1829 0.951 . S
H1805 C1831 0.950 . S
H1806 C1832 0.950 . S
H1807 C1834 0.950 . S
H1808 C1837 0.950 . S
H1809 C1838 0.950 . S
H1810 C1840 0.950 . S
H1811 C1841 0.950 . S
C1812 H1794 0.951 . S
C1812 C1813 1.366 . S
C1812 C1814 1.388 . S
C1813 C1812 1.366 . S
C1813 C1817 1.385 . S
C1814 H1795 0.951 . S
C1814 C1812 1.388 . S
C1814 C1815 1.366 . S
C1815 C1814 1.366 . S
C1815 C1816 1.414 . S
C1815 C1818 1.499 . S
C1816 H1796 0.950 . S
C1816 C1815 1.414 . S
C1816 C1817 1.374 . S
C1817 H1797 0.950 . S
C1817 C1813 1.385 . S
C1817 C1816 1.374 . S
C1818 C1815 1.499 . S
C1818 C1819 1.373 . S
C1818 C1820 1.389 . S
C1819 H1798 0.950 . S
C1819 C1818 1.373 . S
C1819 C1835 1.377 . S
C1820 C1818 1.389 . S
C1820 C1821 1.524 . S
C1820 C1834 1.377 . S
C1821 C1820 1.524 . S
C1821 C1822 1.397 . S
C1821 C1826 1.363 . S
C1822 H1799 0.950 . S
C1822 C1821 1.397 . S
C1822 C1823 1.334 . S
C1823 H1800 0.950 . S
C1823 C1822 1.334 . S
C1823 C1824 1.287 . S
C1824 C1823 1.287 . S
C1824 C1825 1.524 . S
C1824 H1843 0.913 . S
C1825 H1801 0.950 . S
C1825 C1824 1.524 . S
C1825 C1826 1.415 . S
C1826 H1802 0.950 . S
C1826 C1821 1.363 . S
C1826 C1825 1.415 . S
C1827 H1803 0.951 . S
C1827 C1828 1.366 . S
C1827 C1829 1.388 . S
C1828 C1827 1.366 . S
C1828 C1832 1.385 . S
C1829 H1804 0.951 . S
C1829 C1827 1.388 . S
C1829 C1830 1.366 . S
C1830 C1829 1.366 . S
C1830 C1831 1.414 . S
C1830 C1833 1.499 . S
C1831 H1805 0.950 . S
C1831 C1830 1.414 . S
C1831 C1832 1.374 . S
C1832 H1806 0.950 . S
C1832 C1828 1.385 . S
C1832 C1831 1.374 . S
C1833 C1830 1.499 . S
C1833 C1834 1.373 . S
C1833 C1835 1.389 . S
C1834 H1807 0.950 . S
C1834 C1820 1.377 . S
C1834 C1833 1.373 . S
C1835 C1819 1.377 . S
C1835 C1833 1.389 . S
C1835 C1836 1.524 . S
C1836 C1835 1.524 . S
C1836 C1837 1.397 . S
C1836 C1841 1.363 . S
C1837 H1808 0.950 . S
C1837 C1836 1.397 . S
C1837 C1838 1.334 . S
C1838 H1809 0.950 . S
C1838 C1837 1.334 . S
C1838 C1839 1.287 . S
C1839 C1838 1.287 . S
C1839 C1840 1.524 . S
C1839 H1842 0.999 . S
C1840 H1810 0.950 . S
C1840 C1839 1.524 . S
C1840 C1841 1.415 . S
C1841 H1811 0.950 . S
C1841 C1836 1.363 . S
C1841 C1840 1.415 . S
H1842 C1839 0.999 . S
H1843 C1824 0.913 . S
H1844 C1862 0.951 . S
H1845 C1864 0.951 . S
H1846 C1866 0.950 . S
H1847 C1867 0.950 . S
H1848 C1869 0.950 . S
H1849 C1872 0.950 . S
H1850 C1873 0.950 . S
H1851 C1875 0.950 . S
H1852 C1876 0.950 . S
H1853 C1877 0.951 . S
H1854 C1879 0.951 . S
H1855 C1881 0.950 . S
H1856 C1882 0.950 . S
H1857 C1884 0.950 . S
H1858 C1887 0.950 . S
H1859 C1888 0.950 . S
H1860 C1890 0.950 . S
H1861 C1891 0.950 . S
C1862 H1844 0.951 . S
C1862 C1863 1.366 . S
C1862 C1864 1.388 . S
C1863 C1862 1.366 . S
C1863 C1867 1.385 . S
C1864 H1845 0.951 . S
C1864 C1862 1.388 . S
C1864 C1865 1.366 . S
C1865 C1864 1.366 . S
C1865 C1866 1.414 . S
C1865 C1868 1.499 . S
C1866 H1846 0.950 . S
C1866 C1865 1.414 . S
C1866 C1867 1.374 . S
C1867 H1847 0.950 . S
C1867 C1863 1.385 . S
C1867 C1866 1.374 . S
C1868 C1865 1.499 . S
C1868 C1869 1.373 . S
C1868 C1870 1.389 . S
C1869 H1848 0.950 . S
C1869 C1868 1.373 . S
C1869 C1885 1.377 . S
C1870 C1868 1.389 . S
C1870 C1871 1.524 . S
C1870 C1884 1.377 . S
C1871 C1870 1.524 . S
C1871 C1872 1.397 . S
C1871 C1876 1.363 . S
C1872 H1849 0.950 . S
C1872 C1871 1.397 . S
C1872 C1873 1.334 . S
C1873 H1850 0.950 . S
C1873 C1872 1.334 . S
C1873 C1874 1.287 . S
C1874 C1873 1.287 . S
C1874 C1875 1.524 . S
C1874 H1893 0.913 . S
C1875 H1851 0.950 . S
C1875 C1874 1.524 . S
C1875 C1876 1.415 . S
C1876 H1852 0.950 . S
C1876 C1871 1.363 . S
C1876 C1875 1.415 . S
C1877 H1853 0.951 . S
C1877 C1878 1.366 . S
C1877 C1879 1.388 . S
C1878 C1877 1.366 . S
C1878 C1882 1.385 . S
C1879 H1854 0.951 . S
C1879 C1877 1.388 . S
C1879 C1880 1.366 . S
C1880 C1879 1.366 . S
C1880 C1881 1.414 . S
C1880 C1883 1.499 . S
C1881 H1855 0.950 . S
C1881 C1880 1.414 . S
C1881 C1882 1.374 . S
C1882 H1856 0.950 . S
C1882 C1878 1.385 . S
C1882 C1881 1.374 . S
C1883 C1880 1.499 . S
C1883 C1884 1.373 . S
C1883 C1885 1.389 . S
C1884 H1857 0.950 . S
C1884 C1870 1.377 . S
C1884 C1883 1.373 . S
C1885 C1869 1.377 . S
C1885 C1883 1.389 . S
C1885 C1886 1.524 . S
C1886 C1885 1.524 . S
C1886 C1887 1.397 . S
C1886 C1891 1.363 . S
C1887 H1858 0.950 . S
C1887 C1886 1.397 . S
C1887 C1888 1.334 . S
C1888 H1859 0.950 . S
C1888 C1887 1.334 . S
C1888 C1889 1.287 . S
C1889 C1888 1.287 . S
C1889 C1890 1.524 . S
C1889 H1892 0.999 . S
C1890 H1860 0.950 . S
C1890 C1889 1.524 . S
C1890 C1891 1.415 . S
C1891 H1861 0.950 . S
C1891 C1886 1.363 . S
C1891 C1890 1.415 . S
H1892 C1889 0.999 . S
H1893 C1874 0.913 . S
H1894 C1912 0.951 . S
H1895 C1914 0.951 . S
H1896 C1916 0.950 . S
H1897 C1917 0.950 . S
H1898 C1919 0.950 . S
H1899 C1922 0.950 . S
H1900 C1923 0.950 . S
H1901 C1925 0.950 . S
H1902 C1926 0.950 . S
H1903 C1927 0.951 . S
H1904 C1929 0.951 . S
H1905 C1931 0.950 . S
H1906 C1932 0.950 . S
H1907 C1934 0.950 . S
H1908 C1937 0.950 . S
H1909 C1938 0.950 . S
H1910 C1940 0.950 . S
H1911 C1941 0.950 . S
C1912 H1894 0.951 . S
C1912 C1913 1.366 . S
C1912 C1914 1.388 . S
C1913 C1912 1.366 . S
C1913 C1917 1.385 . S
C1914 H1895 0.951 . S
C1914 C1912 1.388 . S
C1914 C1915 1.366 . S
C1915 C1914 1.366 . S
C1915 C1916 1.414 . S
C1915 C1918 1.499 . S
C1916 H1896 0.950 . S
C1916 C1915 1.414 . S
C1916 C1917 1.374 . S
C1917 H1897 0.950 . S
C1917 C1913 1.385 . S
C1917 C1916 1.374 . S
C1918 C1915 1.499 . S
C1918 C1919 1.373 . S
C1918 C1920 1.389 . S
C1919 H1898 0.950 . S
C1919 C1918 1.373 . S
C1919 C1935 1.377 . S
C1920 C1918 1.389 . S
C1920 C1921 1.524 . S
C1920 C1934 1.377 . S
C1921 C1920 1.524 . S
C1921 C1922 1.397 . S
C1921 C1926 1.363 . S
C1922 H1899 0.950 . S
C1922 C1921 1.397 . S
C1922 C1923 1.334 . S
C1923 H1900 0.950 . S
C1923 C1922 1.334 . S
C1923 C1924 1.287 . S
C1924 C1923 1.287 . S
C1924 C1925 1.524 . S
C1924 H1943 0.913 . S
C1925 H1901 0.950 . S
C1925 C1924 1.524 . S
C1925 C1926 1.415 . S
C1926 H1902 0.950 . S
C1926 C1921 1.363 . S
C1926 C1925 1.415 . S
C1927 H1903 0.951 . S
C1927 C1928 1.366 . S
C1927 C1929 1.388 . S
C1928 C1927 1.366 . S
C1928 C1932 1.385 . S
C1929 H1904 0.951 . S
C1929 C1927 1.388 . S
C1929 C1930 1.366 . S
C1930 C1929 1.366 . S
C1930 C1931 1.414 . S
C1930 C1933 1.499 . S
C1931 H1905 0.950 . S
C1931 C1930 1.414 . S
C1931 C1932 1.374 . S
C1932 H1906 0.950 . S
C1932 C1928 1.385 . S
C1932 C1931 1.374 . S
C1933 C1930 1.499 . S
C1933 C1934 1.373 . S
C1933 C1935 1.389 . S
C1934 H1907 0.950 . S
C1934 C1920 1.377 . S
C1934 C1933 1.373 . S
C1935 C1919 1.377 . S
C1935 C1933 1.389 . S
C1935 C1936 1.524 . S
C1936 C1935 1.524 . S
C1936 C1937 1.397 . S
C1936 C1941 1.363 . S
C1937 H1908 0.950 . S
C1937 C1936 1.397 . S
C1937 C1938 1.334 . S
C1938 H1909 0.950 . S
C1938 C1937 1.334 . S
C1938 C1939 1.287 . S
C1939 C1938 1.287 . S
C1939 C1940 1.524 . S
C1939 H1942 0.999 . S
C1940 H1910 0.950 . S
C1940 C1939 1.524 . S
C1940 C1941 1.415 . S
C1941 H1911 0.950 . S
C1941 C1936 1.363 . S
C1941 C1940 1.415 . S
H1942 C1939 0.999 . S
H1943 C1924 0.913 . S
H1944 C1962 0.951 . S
H1945 C1964 0.951 . S
H1946 C1966 0.950 . S
H1947 C1967 0.950 . S
H1948 C1969 0.950 . S
H1949 C1972 0.950 . S
H1950 C1973 0.950 . S
H1951 C1975 0.923 1_545 S
H1952 C1976 0.950 1_545 S
H1953 C1977 0.951 . S
H1954 C1979 0.951 . S
H1955 C1981 0.950 . S
H1956 C1982 0.950 . S
H1957 C1984 0.950 . S
H1958 C1987 0.950 . S
H1959 C1988 0.950 . S
H1960 C1990 0.950 . S
H1961 C1991 0.950 . S
C1962 H1944 0.951 . S
C1962 C1963 1.366 . S
C1962 C1964 1.388 . S
C1963 C1962 1.366 . S
C1963 C1967 1.385 . S
C1964 H1945 0.951 . S
C1964 C1962 1.388 . S
C1964 C1965 1.366 . S
C1965 C1964 1.366 . S
C1965 C1966 1.414 . S
C1965 C1968 1.499 . S
C1966 H1946 0.950 . S
C1966 C1965 1.414 . S
C1966 C1967 1.374 . S
C1967 H1947 0.950 . S
C1967 C1963 1.385 . S
C1967 C1966 1.374 . S
C1968 C1965 1.499 . S
C1968 C1969 1.373 . S
C1968 C1970 1.389 . S
C1969 H1948 0.950 . S
C1969 C1968 1.373 . S
C1969 C1985 1.380 1_565 S
C1970 C1968 1.389 . S
C1970 C1971 1.524 . S
C1970 C1984 1.377 1_565 S
C1971 C1970 1.524 . S
C1971 C1972 1.397 . S
C1971 C1976 1.363 . S
C1972 H1949 0.950 . S
C1972 C1971 1.397 . S
C1972 C1973 1.334 . S
C1973 H1950 0.950 . S
C1973 C1972 1.334 . S
C1973 C1974 1.287 . S
C1974 C1973 1.287 . S
C1974 C1975 1.524 . S
C1974 H1993 0.913 . S
C1975 H1951 0.923 1_565 S
C1975 C1974 1.524 . S
C1975 C1976 1.415 . S
C1976 H1952 0.950 1_565 S
C1976 C1971 1.363 . S
C1976 C1975 1.415 . S
C1977 H1953 0.951 . S
C1977 C1978 1.366 . S
C1977 C1979 1.388 . S
C1978 C1977 1.366 . S
C1978 C1982 1.385 . S
C1979 H1954 0.951 . S
C1979 C1977 1.388 . S
C1979 C1980 1.366 . S
C1980 C1979 1.366 . S
C1980 C1981 1.414 . S
C1980 C1983 1.499 . S
C1981 H1955 0.950 . S
C1981 C1980 1.414 . S
C1981 C1982 1.374 . S
C1982 H1956 0.950 . S
C1982 C1978 1.385 . S
C1982 C1981 1.374 . S
C1983 C1980 1.499 . S
C1983 C1984 1.373 . S
C1983 C1985 1.385 . S
C1984 H1957 0.950 . S
C1984 C1970 1.377 1_545 S
C1984 C1983 1.373 . S
C1985 C1969 1.380 1_545 S
C1985 C1983 1.385 . S
C1985 C1986 1.525 . S
C1986 C1985 1.525 . S
C1986 C1987 1.397 . S
C1986 C1991 1.363 1_545 S
C1987 H1958 0.950 . S
C1987 C1986 1.397 . S
C1987 C1988 1.334 . S
C1988 H1959 0.950 . S
C1988 C1987 1.334 . S
C1988 C1989 1.287 . S
C1989 C1988 1.287 . S
C1989 C1990 1.524 1_545 S
C1989 H1992 0.999 . S
C1990 H1960 0.950 . S
C1990 C1989 1.524 1_565 S
C1990 C1991 1.415 . S
C1991 H1961 0.950 . S
C1991 C1986 1.363 1_565 S
C1991 C1990 1.415 . S
H1992 C1989 0.999 . S
H1993 C1974 0.913 . S
H1994 C2012 0.951 . S
H1995 C2014 0.951 . S
H1996 C2016 0.950 . S
H1997 C2017 0.950 . S
H1998 C2019 0.950 . S
H1999 C2022 0.950 . S
H2000 C2023 0.950 . S
H2001 C2025 0.950 . S
H2002 C2026 0.950 . S
H2003 C2027 0.951 . S
H2004 C2029 0.951 . S
H2005 C2031 0.950 . S
H2006 C2032 0.950 . S
H2007 C2034 0.950 . S
H2008 C2037 0.950 . S
H2009 C2038 0.950 . S
H2010 C2040 0.950 . S
H2011 C2041 0.950 . S
C2012 H1994 0.951 . S
C2012 C2013 1.366 . S
C2012 C2014 1.388 . S
C2013 C2012 1.366 . S
C2013 C2017 1.385 . S
C2014 H1995 0.951 . S
C2014 C2012 1.388 . S
C2014 C2015 1.366 . S
C2015 C2014 1.366 . S
C2015 C2016 1.414 . S
C2015 C2018 1.499 . S
C2016 H1996 0.950 . S
C2016 C2015 1.414 . S
C2016 C2017 1.374 . S
C2017 H1997 0.950 . S
C2017 C2013 1.385 . S
C2017 C2016 1.374 . S
C2018 C2015 1.499 . S
C2018 C2019 1.373 . S
C2018 C2020 1.389 . S
C2019 H1998 0.950 . S
C2019 C2018 1.373 . S
C2019 C2035 1.377 1_455 S
C2020 C2018 1.389 . S
C2020 C2021 1.524 . S
C2020 C2034 1.377 1_455 S
C2021 C2020 1.524 . S
C2021 C2022 1.397 . S
C2021 C2026 1.363 . S
C2022 H1999 0.950 . S
C2022 C2021 1.397 . S
C2022 C2023 1.334 . S
C2023 H2000 0.950 . S
C2023 C2022 1.334 . S
C2023 C2024 1.287 . S
C2024 C2023 1.287 . S
C2024 C2025 1.524 . S
C2024 H2043 0.913 . S
C2025 H2001 0.950 . S
C2025 C2024 1.524 . S
C2025 C2026 1.415 . S
C2026 H2002 0.950 . S
C2026 C2021 1.363 . S
C2026 C2025 1.415 . S
C2027 H2003 0.951 . S
C2027 C2028 1.366 . S
C2027 C2029 1.388 . S
C2028 C2027 1.366 . S
C2028 C2032 1.385 . S
C2029 H2004 0.951 . S
C2029 C2027 1.388 . S
C2029 C2030 1.366 . S
C2030 C2029 1.366 . S
C2030 C2031 1.414 . S
C2030 C2033 1.499 . S
C2031 H2005 0.950 . S
C2031 C2030 1.414 . S
C2031 C2032 1.374 . S
C2032 H2006 0.950 . S
C2032 C2028 1.385 . S
C2032 C2031 1.374 . S
C2033 C2030 1.499 . S
C2033 C2034 1.373 . S
C2033 C2035 1.389 . S
C2034 H2007 0.950 . S
C2034 C2020 1.377 1_655 S
C2034 C2033 1.373 . S
C2035 C2019 1.377 1_655 S
C2035 C2033 1.389 . S
C2035 C2036 1.524 . S
C2036 C2035 1.524 . S
C2036 C2037 1.397 . S
C2036 C2041 1.363 . S
C2037 H2008 0.950 . S
C2037 C2036 1.397 . S
C2037 C2038 1.334 . S
C2038 H2009 0.950 . S
C2038 C2037 1.334 . S
C2038 C2039 1.287 . S
C2039 C2038 1.287 . S
C2039 C2040 1.524 . S
C2039 H2042 0.999 . S
C2040 H2010 0.950 . S
C2040 C2039 1.524 . S
C2040 C2041 1.415 . S
C2041 H2011 0.950 . S
C2041 C2036 1.363 . S
C2041 C2040 1.415 . S
H2042 C2039 0.999 . S
H2043 C2024 0.913 . S
H2044 C2062 0.951 . S
H2045 C2064 0.951 . S
H2046 C2066 0.950 . S
H2047 C2067 0.950 . S
H2048 C2069 0.950 . S
H2049 C2072 0.950 . S
H2050 C2073 0.950 . S
H2051 C2075 0.950 . S
H2052 C2076 0.950 . S
H2053 C2077 0.951 . S
H2054 C2079 0.951 . S
H2055 C2081 0.950 . S
H2056 C2082 0.950 . S
H2057 C2084 0.950 . S
H2058 C2087 0.950 . S
H2059 C2088 0.950 . S
H2060 C2090 0.950 . S
H2061 C2091 0.950 . S
C2062 H2044 0.951 . S
C2062 C2063 1.366 . S
C2062 C2064 1.388 . S
C2063 C2062 1.366 . S
C2063 C2067 1.385 . S
C2064 H2045 0.951 . S
C2064 C2062 1.388 . S
C2064 C2065 1.366 . S
C2065 C2064 1.366 . S
C2065 C2066 1.414 . S
C2065 C2068 1.499 . S
C2066 H2046 0.950 . S
C2066 C2065 1.414 . S
C2066 C2067 1.374 . S
C2067 H2047 0.950 . S
C2067 C2063 1.385 . S
C2067 C2066 1.374 . S
C2068 C2065 1.499 . S
C2068 C2069 1.373 . S
C2068 C2070 1.389 . S
C2069 H2048 0.950 . S
C2069 C2068 1.373 . S
C2069 C2085 1.377 . S
C2070 C2068 1.389 . S
C2070 C2071 1.524 . S
C2070 C2084 1.377 . S
C2071 C2070 1.524 . S
C2071 C2072 1.397 . S
C2071 C2076 1.363 . S
C2072 H2049 0.950 . S
C2072 C2071 1.397 . S
C2072 C2073 1.334 . S
C2073 H2050 0.950 . S
C2073 C2072 1.334 . S
C2073 C2074 1.287 . S
C2074 C2073 1.287 . S
C2074 C2075 1.524 . S
C2074 H2093 0.913 . S
C2075 H2051 0.950 . S
C2075 C2074 1.524 . S
C2075 C2076 1.415 . S
C2076 H2052 0.950 . S
C2076 C2071 1.363 . S
C2076 C2075 1.415 . S
C2077 H2053 0.951 . S
C2077 C2078 1.366 . S
C2077 C2079 1.388 . S
C2078 C2077 1.366 . S
C2078 C2082 1.385 . S
C2079 H2054 0.951 . S
C2079 C2077 1.388 . S
C2079 C2080 1.366 . S
C2080 C2079 1.366 . S
C2080 C2081 1.414 . S
C2080 C2083 1.499 . S
C2081 H2055 0.950 . S
C2081 C2080 1.414 . S
C2081 C2082 1.374 . S
C2082 H2056 0.950 . S
C2082 C2078 1.385 . S
C2082 C2081 1.374 . S
C2083 C2080 1.499 . S
C2083 C2084 1.373 . S
C2083 C2085 1.389 . S
C2084 H2057 0.950 . S
C2084 C2070 1.377 . S
C2084 C2083 1.373 . S
C2085 C2069 1.377 . S
C2085 C2083 1.389 . S
C2085 C2086 1.524 . S
C2086 C2085 1.524 . S
C2086 C2087 1.397 . S
C2086 C2091 1.363 . S
C2087 H2058 0.950 . S
C2087 C2086 1.397 . S
C2087 C2088 1.334 . S
C2088 H2059 0.950 . S
C2088 C2087 1.334 . S
C2088 C2089 1.287 . S
C2089 C2088 1.287 . S
C2089 C2090 1.524 . S
C2089 H2092 0.999 . S
C2090 H2060 0.950 . S
C2090 C2089 1.524 . S
C2090 C2091 1.415 . S
C2091 H2061 0.950 . S
C2091 C2086 1.363 . S
C2091 C2090 1.415 . S
H2092 C2089 0.999 . S
H2093 C2074 0.913 . S
H2094 C2112 0.951 . S
H2095 C2114 0.951 . S
H2096 C2116 0.950 . S
H2097 C2117 0.950 . S
H2098 C2119 0.950 . S
H2099 C2122 0.950 . S
H2100 C2123 0.950 . S
H2101 C2125 0.950 . S
H2102 C2126 0.950 . S
H2103 C2127 0.951 . S
H2104 C2129 0.951 . S
H2105 C2131 0.950 . S
H2106 C2132 0.950 . S
H2107 C2134 0.950 . S
H2108 C2137 0.950 . S
H2109 C2138 0.950 . S
H2110 C2140 0.950 . S
H2111 C2141 0.950 . S
C2112 H2094 0.951 . S
C2112 C2113 1.366 . S
C2112 C2114 1.388 . S
C2113 C2112 1.366 . S
C2113 C2117 1.385 . S
C2114 H2095 0.951 . S
C2114 C2112 1.388 . S
C2114 C2115 1.366 . S
C2115 C2114 1.366 . S
C2115 C2116 1.414 . S
C2115 C2118 1.499 1_455 S
C2116 H2096 0.950 . S
C2116 C2115 1.414 . S
C2116 C2117 1.374 . S
C2117 H2097 0.950 . S
C2117 C2113 1.385 . S
C2117 C2116 1.374 . S
C2118 C2115 1.499 1_655 S
C2118 C2119 1.373 . S
C2118 C2120 1.389 . S
C2119 H2098 0.950 . S
C2119 C2118 1.373 . S
C2119 C2135 1.377 . S
C2120 C2118 1.389 . S
C2120 C2121 1.524 . S
C2120 C2134 1.377 . S
C2121 C2120 1.524 . S
C2121 C2122 1.397 . S
C2121 C2126 1.363 . S
C2122 H2099 0.950 . S
C2122 C2121 1.397 . S
C2122 C2123 1.334 . S
C2123 H2100 0.950 . S
C2123 C2122 1.334 . S
C2123 C2124 1.287 . S
C2124 C2123 1.287 . S
C2124 C2125 1.524 . S
C2124 H2143 0.913 . S
C2125 H2101 0.950 . S
C2125 C2124 1.524 . S
C2125 C2126 1.415 . S
C2126 H2102 0.950 . S
C2126 C2121 1.363 . S
C2126 C2125 1.415 . S
C2127 H2103 0.951 . S
C2127 C2128 1.366 . S
C2127 C2129 1.388 . S
C2128 C2127 1.366 . S
C2128 C2132 1.385 . S
C2129 H2104 0.951 . S
C2129 C2127 1.388 . S
C2129 C2130 1.366 . S
C2130 C2129 1.366 . S
C2130 C2131 1.414 . S
C2130 C2133 1.499 . S
C2131 H2105 0.950 . S
C2131 C2130 1.414 . S
C2131 C2132 1.374 . S
C2132 H2106 0.950 . S
C2132 C2128 1.385 . S
C2132 C2131 1.374 . S
C2133 C2130 1.499 . S
C2133 C2134 1.373 . S
C2133 C2135 1.389 . S
C2134 H2107 0.950 . S
C2134 C2120 1.377 . S
C2134 C2133 1.373 . S
C2135 C2119 1.377 . S
C2135 C2133 1.389 . S
C2135 C2136 1.524 . S
C2136 C2135 1.524 . S
C2136 C2137 1.397 . S
C2136 C2141 1.363 . S
C2137 H2108 0.950 . S
C2137 C2136 1.397 . S
C2137 C2138 1.334 . S
C2138 H2109 0.950 . S
C2138 C2137 1.334 . S
C2138 C2139 1.287 . S
C2139 C2138 1.287 . S
C2139 C2140 1.524 . S
C2139 H2142 0.999 . S
C2140 H2110 0.950 . S
C2140 C2139 1.524 . S
C2140 C2141 1.415 . S
C2141 H2111 0.950 . S
C2141 C2136 1.363 . S
C2141 C2140 1.415 . S
H2142 C2139 0.999 . S
H2143 C2124 0.913 . S
H2144 C2162 0.951 . S
H2145 C2164 0.951 . S
H2146 C2166 0.950 . S
H2147 C2167 0.950 . S
H2148 C2169 0.950 . S
H2149 C2172 0.950 . S
H2150 C2173 0.950 . S
H2151 C2175 0.950 . S
H2152 C2176 0.950 . S
H2153 C2177 0.951 . S
H2154 C2179 0.951 . S
H2155 C2181 0.950 . S
H2156 C2182 0.950 . S
H2157 C2184 0.950 . S
H2158 C2187 0.950 . S
H2159 C2188 0.950 . S
H2160 C2190 0.950 . S
H2161 C2191 0.950 . S
C2162 H2144 0.951 . S
C2162 C2163 1.366 . S
C2162 C2164 1.388 . S
C2163 C2162 1.366 . S
C2163 C2167 1.385 . S
C2164 H2145 0.951 . S
C2164 C2162 1.388 . S
C2164 C2165 1.366 . S
C2165 C2164 1.366 . S
C2165 C2166 1.414 . S
C2165 C2168 1.499 . S
C2166 H2146 0.950 . S
C2166 C2165 1.414 . S
C2166 C2167 1.374 . S
C2167 H2147 0.950 . S
C2167 C2163 1.385 . S
C2167 C2166 1.374 . S
C2168 C2165 1.499 . S
C2168 C2169 1.373 . S
C2168 C2170 1.389 . S
C2169 H2148 0.950 . S
C2169 C2168 1.373 . S
C2169 C2185 1.377 . S
C2170 C2168 1.389 . S
C2170 C2171 1.524 . S
C2170 C2184 1.377 . S
C2171 C2170 1.524 . S
C2171 C2172 1.397 . S
C2171 C2176 1.363 . S
C2172 H2149 0.950 . S
C2172 C2171 1.397 . S
C2172 C2173 1.334 . S
C2173 H2150 0.950 . S
C2173 C2172 1.334 . S
C2173 C2174 1.287 . S
C2174 C2173 1.287 . S
C2174 C2175 1.524 . S
C2174 H2193 0.913 . S
C2175 H2151 0.950 . S
C2175 C2174 1.524 . S
C2175 C2176 1.415 . S
C2176 H2152 0.950 . S
C2176 C2171 1.363 . S
C2176 C2175 1.415 . S
C2177 H2153 0.951 . S
C2177 C2178 1.366 . S
C2177 C2179 1.388 . S
C2178 C2177 1.366 . S
C2178 C2182 1.385 . S
C2179 H2154 0.951 . S
C2179 C2177 1.388 . S
C2179 C2180 1.366 . S
C2180 C2179 1.366 . S
C2180 C2181 1.414 . S
C2180 C2183 1.499 . S
C2181 H2155 0.950 . S
C2181 C2180 1.414 . S
C2181 C2182 1.374 . S
C2182 H2156 0.950 . S
C2182 C2178 1.385 . S
C2182 C2181 1.374 . S
C2183 C2180 1.499 . S
C2183 C2184 1.373 . S
C2183 C2185 1.389 . S
C2184 H2157 0.950 . S
C2184 C2170 1.377 . S
C2184 C2183 1.373 . S
C2185 C2169 1.377 . S
C2185 C2183 1.389 . S
C2185 C2186 1.524 . S
C2186 C2185 1.524 . S
C2186 C2187 1.397 . S
C2186 C2191 1.363 . S
C2187 H2158 0.950 . S
C2187 C2186 1.397 . S
C2187 C2188 1.334 . S
C2188 H2159 0.950 . S
C2188 C2187 1.334 . S
C2188 C2189 1.287 . S
C2189 C2188 1.287 . S
C2189 C2190 1.524 . S
C2189 H2192 0.999 . S
C2190 H2160 0.950 . S
C2190 C2189 1.524 . S
C2190 C2191 1.415 . S
C2191 H2161 0.950 . S
C2191 C2186 1.363 . S
C2191 C2190 1.415 . S
H2192 C2189 0.999 . S
H2193 C2174 0.913 . S
H2194 C2212 0.951 . S
H2195 C2214 0.951 . S
H2196 C2216 0.950 . S
H2197 C2217 0.950 . S
H2198 C2219 0.950 . S
H2199 C2222 0.950 . S
H2200 C2223 0.927 1_565 S
H2201 C2225 0.950 . S
H2202 C2226 0.950 . S
H2203 C2227 0.951 . S
H2204 C2229 0.951 . S
H2205 C2231 0.950 . S
H2206 C2232 0.950 . S
H2207 C2234 0.950 . S
H2208 C2237 0.950 . S
H2209 C2238 0.950 . S
H2210 C2240 0.950 . S
H2211 C2241 0.950 . S
C2212 H2194 0.951 . S
C2212 C2213 1.366 . S
C2212 C2214 1.388 . S
C2213 C2212 1.366 . S
C2213 C2217 1.385 . S
C2214 H2195 0.951 . S
C2214 C2212 1.388 . S
C2214 C2215 1.366 . S
C2215 C2214 1.366 . S
C2215 C2216 1.414 . S
C2215 C2218 1.499 1_565 S
C2216 H2196 0.950 . S
C2216 C2215 1.414 . S
C2216 C2217 1.374 . S
C2217 H2197 0.950 . S
C2217 C2213 1.385 . S
C2217 C2216 1.374 . S
C2218 C2215 1.499 1_545 S
C2218 C2219 1.373 . S
C2218 C2220 1.389 . S
C2219 H2198 0.950 . S
C2219 C2218 1.373 . S
C2219 C2235 1.377 . S
C2220 C2218 1.389 . S
C2220 C2221 1.524 . S
C2220 C2234 1.377 . S
C2221 C2220 1.524 . S
C2221 C2222 1.397 . S
C2221 C2226 1.363 . S
C2222 H2199 0.950 . S
C2222 C2221 1.397 . S
C2222 C2223 1.344 . S
C2223 H2200 0.927 1_545 S
C2223 C2222 1.344 . S
C2223 C2224 1.302 . S
C2224 C2223 1.302 . S
C2224 C2225 1.524 . S
C2224 H2243 0.913 1_545 S
C2225 H2201 0.950 . S
C2225 C2224 1.524 . S
C2225 C2226 1.415 . S
C2226 H2202 0.950 . S
C2226 C2221 1.363 . S
C2226 C2225 1.415 . S
C2227 H2203 0.951 . S
C2227 C2228 1.366 . S
C2227 C2229 1.388 . S
C2228 C2227 1.366 . S
C2228 C2232 1.385 . S
C2229 H2204 0.951 . S
C2229 C2227 1.388 . S
C2229 C2230 1.366 . S
C2230 C2229 1.366 . S
C2230 C2231 1.414 . S
C2230 C2233 1.499 . S
C2231 H2205 0.950 . S
C2231 C2230 1.414 . S
C2231 C2232 1.374 . S
C2232 H2206 0.950 . S
C2232 C2228 1.385 . S
C2232 C2231 1.374 . S
C2233 C2230 1.499 . S
C2233 C2234 1.373 . S
C2233 C2235 1.389 . S
C2234 H2207 0.950 . S
C2234 C2220 1.377 . S
C2234 C2233 1.373 . S
C2235 C2219 1.377 . S
C2235 C2233 1.389 . S
C2235 C2236 1.524 . S
C2236 C2235 1.524 . S
C2236 C2237 1.397 . S
C2236 C2241 1.363 . S
C2237 H2208 0.950 . S
C2237 C2236 1.397 . S
C2237 C2238 1.334 . S
C2238 H2209 0.950 . S
C2238 C2237 1.334 . S
C2238 C2239 1.287 . S
C2239 C2238 1.287 . S
C2239 C2240 1.524 . S
C2239 H2242 0.999 . S
C2240 H2210 0.950 . S
C2240 C2239 1.524 . S
C2240 C2241 1.415 . S
C2241 H2211 0.950 . S
C2241 C2236 1.363 . S
C2241 C2240 1.415 . S
H2242 C2239 0.999 . S
H2243 C2224 0.913 1_565 S
H2244 C2262 0.951 . S
H2245 C2264 0.951 . S
H2246 C2266 0.950 . S
H2247 C2267 0.950 . S
H2248 C2269 0.950 . S
H2249 C2272 0.950 . S
H2250 C2273 0.950 . S
H2251 C2275 0.950 . S
H2252 C2276 0.950 . S
H2253 C2277 0.951 . S
H2254 C2279 0.951 . S
H2255 C2281 0.950 . S
H2256 C2282 0.950 . S
H2257 C2284 0.950 . S
H2258 C2287 0.950 . S
H2259 C2288 0.950 . S
H2260 C2290 0.950 . S
H2261 C2291 0.950 . S
C2262 H2244 0.951 . S
C2262 C2263 1.366 . S
C2262 C2264 1.388 . S
C2263 C2262 1.366 . S
C2263 C2267 1.385 . S
C2264 H2245 0.951 . S
C2264 C2262 1.388 . S
C2264 C2265 1.366 . S
C2265 C2264 1.366 . S
C2265 C2266 1.414 . S
C2265 C2268 1.499 . S
C2266 H2246 0.950 . S
C2266 C2265 1.414 . S
C2266 C2267 1.374 . S
C2267 H2247 0.950 . S
C2267 C2263 1.385 . S
C2267 C2266 1.374 . S
C2268 C2265 1.499 . S
C2268 C2269 1.373 . S
C2268 C2270 1.389 . S
C2269 H2248 0.950 . S
C2269 C2268 1.373 . S
C2269 C2285 1.377 . S
C2270 C2268 1.389 . S
C2270 C2271 1.524 . S
C2270 C2284 1.377 . S
C2271 C2270 1.524 . S
C2271 C2272 1.397 . S
C2271 C2276 1.363 . S
C2272 H2249 0.950 . S
C2272 C2271 1.397 . S
C2272 C2273 1.334 . S
C2273 H2250 0.950 . S
C2273 C2272 1.334 . S
C2273 C2274 1.287 . S
C2274 C2273 1.287 . S
C2274 C2275 1.524 . S
C2274 H2293 0.913 . S
C2275 H2251 0.950 . S
C2275 C2274 1.524 . S
C2275 C2276 1.415 . S
C2276 H2252 0.950 . S
C2276 C2271 1.363 . S
C2276 C2275 1.415 . S
C2277 H2253 0.951 . S
C2277 C2278 1.366 . S
C2277 C2279 1.388 . S
C2278 C2277 1.366 . S
C2278 C2282 1.385 . S
C2279 H2254 0.951 . S
C2279 C2277 1.388 . S
C2279 C2280 1.366 . S
C2280 C2279 1.366 . S
C2280 C2281 1.414 . S
C2280 C2283 1.499 . S
C2281 H2255 0.950 . S
C2281 C2280 1.414 . S
C2281 C2282 1.374 . S
C2282 H2256 0.950 . S
C2282 C2278 1.385 . S
C2282 C2281 1.374 . S
C2283 C2280 1.499 . S
C2283 C2284 1.373 . S
C2283 C2285 1.389 . S
C2284 H2257 0.950 . S
C2284 C2270 1.377 . S
C2284 C2283 1.373 . S
C2285 C2269 1.377 . S
C2285 C2283 1.389 . S
C2285 C2286 1.524 . S
C2286 C2285 1.524 . S
C2286 C2287 1.397 . S
C2286 C2291 1.363 . S
C2287 H2258 0.950 . S
C2287 C2286 1.397 . S
C2287 C2288 1.334 . S
C2288 H2259 0.950 . S
C2288 C2287 1.334 . S
C2288 C2289 1.287 . S
C2289 C2288 1.287 . S
C2289 C2290 1.524 . S
C2289 H2292 0.999 . S
C2290 H2260 0.950 . S
C2290 C2289 1.524 . S
C2290 C2291 1.415 . S
C2291 H2261 0.950 . S
C2291 C2286 1.363 . S
C2291 C2290 1.415 . S
H2292 C2289 0.999 . S
H2293 C2274 0.913 . S
H2294 C2312 0.951 . S
H2295 C2314 0.951 . S
H2296 C2316 0.950 . S
H2297 C2317 0.950 . S
H2298 C2319 0.950 . S
H2299 C2322 0.950 . S
H2300 C2323 0.950 . S
H2301 C2325 0.950 . S
H2302 C2326 0.950 . S
H2303 C2327 0.951 . S
H2304 C2329 0.951 . S
H2305 C2331 0.950 . S
H2306 C2332 0.950 . S
H2307 C2334 0.950 . S
H2308 C2337 0.950 . S
H2309 C2338 0.950 . S
H2310 C2340 0.950 . S
H2311 C2341 0.950 . S
C2312 H2294 0.951 . S
C2312 C2313 1.366 . S
C2312 C2314 1.388 . S
C2313 C2312 1.366 . S
C2313 C2317 1.385 . S
C2314 H2295 0.951 . S
C2314 C2312 1.388 . S
C2314 C2315 1.366 . S
C2315 C2314 1.366 . S
C2315 C2316 1.414 . S
C2315 C2318 1.499 . S
C2316 H2296 0.950 . S
C2316 C2315 1.414 . S
C2316 C2317 1.374 . S
C2317 H2297 0.950 . S
C2317 C2313 1.385 . S
C2317 C2316 1.374 . S
C2318 C2315 1.499 . S
C2318 C2319 1.373 . S
C2318 C2320 1.389 . S
C2319 H2298 0.950 . S
C2319 C2318 1.373 . S
C2319 C2335 1.377 . S
C2320 C2318 1.389 . S
C2320 C2321 1.524 . S
C2320 C2334 1.377 . S
C2321 C2320 1.524 . S
C2321 C2322 1.397 . S
C2321 C2326 1.363 . S
C2322 H2299 0.950 . S
C2322 C2321 1.397 . S
C2322 C2323 1.334 . S
C2323 H2300 0.950 . S
C2323 C2322 1.334 . S
C2323 C2324 1.287 . S
C2324 C2323 1.287 . S
C2324 C2325 1.524 . S
C2324 H2343 0.913 . S
C2325 H2301 0.950 . S
C2325 C2324 1.524 . S
C2325 C2326 1.415 . S
C2326 H2302 0.950 . S
C2326 C2321 1.363 . S
C2326 C2325 1.415 . S
C2327 H2303 0.951 . S
C2327 C2328 1.366 . S
C2327 C2329 1.388 . S
C2328 C2327 1.366 . S
C2328 C2332 1.385 . S
C2329 H2304 0.951 . S
C2329 C2327 1.388 . S
C2329 C2330 1.366 . S
C2330 C2329 1.366 . S
C2330 C2331 1.414 . S
C2330 C2333 1.499 . S
C2331 H2305 0.950 . S
C2331 C2330 1.414 . S
C2331 C2332 1.374 . S
C2332 H2306 0.950 . S
C2332 C2328 1.385 . S
C2332 C2331 1.374 . S
C2333 C2330 1.499 . S
C2333 C2334 1.373 . S
C2333 C2335 1.389 . S
C2334 H2307 0.950 . S
C2334 C2320 1.377 . S
C2334 C2333 1.373 . S
C2335 C2319 1.377 . S
C2335 C2333 1.389 . S
C2335 C2336 1.524 . S
C2336 C2335 1.524 . S
C2336 C2337 1.397 . S
C2336 C2341 1.363 . S
C2337 H2308 0.950 . S
C2337 C2336 1.397 . S
C2337 C2338 1.334 . S
C2338 H2309 0.950 . S
C2338 C2337 1.334 . S
C2338 C2339 1.287 . S
C2339 C2338 1.287 . S
C2339 C2340 1.524 . S
C2339 H2342 0.999 . S
C2340 H2310 0.950 . S
C2340 C2339 1.524 . S
C2340 C2341 1.415 . S
C2341 H2311 0.950 . S
C2341 C2336 1.363 . S
C2341 C2340 1.415 . S
H2342 C2339 0.999 . S
H2343 C2324 0.913 . S
H2344 C2362 0.951 . S
H2345 C2364 0.951 . S
H2346 C2366 0.950 . S
H2347 C2367 0.950 . S
H2348 C2369 0.950 . S
H2349 C2372 0.950 . S
H2350 C2373 0.950 . S
H2351 C2375 0.950 . S
H2352 C2376 0.950 . S
H2353 C2377 0.951 . S
H2354 C2379 0.951 . S
H2355 C2381 0.950 . S
H2356 C2382 0.950 . S
H2357 C2384 0.950 . S
H2358 C2387 0.950 . S
H2359 C2388 0.950 . S
H2360 C2390 0.950 . S
H2361 C2391 0.950 . S
C2362 H2344 0.951 . S
C2362 C2363 1.366 . S
C2362 C2364 1.388 . S
C2363 C2362 1.366 . S
C2363 C2367 1.385 . S
C2364 H2345 0.951 . S
C2364 C2362 1.388 . S
C2364 C2365 1.366 . S
C2365 C2364 1.366 . S
C2365 C2366 1.414 . S
C2365 C2368 1.499 . S
C2366 H2346 0.950 . S
C2366 C2365 1.414 . S
C2366 C2367 1.374 . S
C2367 H2347 0.950 . S
C2367 C2363 1.385 . S
C2367 C2366 1.374 . S
C2368 C2365 1.499 . S
C2368 C2369 1.373 . S
C2368 C2370 1.389 . S
C2369 H2348 0.950 . S
C2369 C2368 1.373 . S
C2369 C2385 1.377 . S
C2370 C2368 1.389 . S
C2370 C2371 1.524 . S
C2370 C2384 1.377 . S
C2371 C2370 1.524 . S
C2371 C2372 1.397 . S
C2371 C2376 1.363 . S
C2372 H2349 0.950 . S
C2372 C2371 1.397 . S
C2372 C2373 1.334 . S
C2373 H2350 0.950 . S
C2373 C2372 1.334 . S
C2373 C2374 1.287 . S
C2374 C2373 1.287 . S
C2374 C2375 1.524 . S
C2374 H2393 0.913 . S
C2375 H2351 0.950 . S
C2375 C2374 1.524 . S
C2375 C2376 1.415 . S
C2376 H2352 0.950 . S
C2376 C2371 1.363 . S
C2376 C2375 1.415 . S
C2377 H2353 0.951 . S
C2377 C2378 1.366 . S
C2377 C2379 1.388 . S
C2378 C2377 1.366 . S
C2378 C2382 1.385 . S
C2379 H2354 0.951 . S
C2379 C2377 1.388 . S
C2379 C2380 1.366 . S
C2380 C2379 1.366 . S
C2380 C2381 1.414 . S
C2380 C2383 1.499 . S
C2381 H2355 0.950 . S
C2381 C2380 1.414 . S
C2381 C2382 1.374 . S
C2382 H2356 0.950 . S
C2382 C2378 1.385 . S
C2382 C2381 1.374 . S
C2383 C2380 1.499 . S
C2383 C2384 1.373 . S
C2383 C2385 1.389 . S
C2384 H2357 0.950 . S
C2384 C2370 1.377 . S
C2384 C2383 1.373 . S
C2385 C2369 1.377 . S
C2385 C2383 1.389 . S
C2385 C2386 1.524 . S
C2386 C2385 1.524 . S
C2386 C2387 1.397 . S
C2386 C2391 1.363 . S
C2387 H2358 0.950 . S
C2387 C2386 1.397 . S
C2387 C2388 1.334 . S
C2388 H2359 0.950 . S
C2388 C2387 1.334 . S
C2388 C2389 1.287 . S
C2389 C2388 1.287 . S
C2389 C2390 1.524 . S
C2389 H2392 0.999 . S
C2390 H2360 0.950 . S
C2390 C2389 1.524 . S
C2390 C2391 1.415 . S
C2391 H2361 0.950 . S
C2391 C2386 1.363 . S
C2391 C2390 1.415 . S
H2392 C2389 0.999 . S
H2393 C2374 0.913 . S
H2394 C2412 0.951 . S
H2395 C2414 0.951 . S
H2396 C2416 0.950 . S
H2397 C2417 0.950 . S
H2398 C2419 0.950 . S
H2399 C2422 0.950 . S
H2400 C2423 0.950 . S
H2401 C2425 0.950 . S
H2402 C2426 0.950 . S
H2403 C2427 1.013 . S
H2404 C2429 0.951 . S
H2405 C2431 0.950 . S
H2406 C2432 0.950 . S
H2407 C2434 0.950 . S
H2408 C2437 0.950 . S
H2409 C2438 0.950 . S
H2410 C2440 0.950 . S
H2411 C2441 0.950 . S
C2412 H2394 0.951 . S
C2412 C2413 1.366 . S
C2412 C2414 1.388 . S
C2413 C2412 1.366 . S
C2413 C2417 1.385 . S
C2414 H2395 0.951 . S
C2414 C2412 1.388 . S
C2414 C2415 1.366 . S
C2415 C2414 1.366 . S
C2415 C2416 1.414 . S
C2415 C2418 1.499 . S
C2416 H2396 0.950 . S
C2416 C2415 1.414 . S
C2416 C2417 1.374 . S
C2417 H2397 0.950 . S
C2417 C2413 1.385 . S
C2417 C2416 1.374 . S
C2418 C2415 1.499 . S
C2418 C2419 1.373 . S
C2418 C2420 1.389 . S
C2419 H2398 0.950 . S
C2419 C2418 1.373 . S
C2419 C2435 1.377 . S
C2420 C2418 1.389 . S
C2420 C2421 1.524 . S
C2420 C2434 1.377 . S
C2421 C2420 1.524 . S
C2421 C2422 1.397 . S
C2421 C2426 1.363 . S
C2422 H2399 0.950 . S
C2422 C2421 1.397 . S
C2422 C2423 1.334 . S
C2423 H2400 0.950 . S
C2423 C2422 1.334 . S
C2423 C2424 1.287 . S
C2424 C2423 1.287 . S
C2424 C2425 1.524 . S
C2424 H2443 0.913 . S
C2425 H2401 0.950 . S
C2425 C2424 1.524 . S
C2425 C2426 1.415 . S
C2426 H2402 0.950 . S
C2426 C2421 1.363 . S
C2426 C2425 1.415 . S
C2427 H2403 1.013 . S
C2427 C2428 1.366 . S
C2427 C2429 1.388 . S
C2428 C2427 1.366 . S
C2428 C2432 1.385 . S
C2429 H2404 0.951 . S
C2429 C2427 1.388 . S
C2429 C2430 1.366 . S
C2430 C2429 1.366 . S
C2430 C2431 1.414 . S
C2430 C2433 1.499 . S
C2431 H2405 0.950 . S
C2431 C2430 1.414 . S
C2431 C2432 1.374 . S
C2432 H2406 0.950 . S
C2432 C2428 1.385 . S
C2432 C2431 1.374 . S
C2433 C2430 1.499 . S
C2433 C2434 1.373 . S
C2433 C2435 1.389 . S
C2434 H2407 0.950 . S
C2434 C2420 1.377 . S
C2434 C2433 1.373 . S
C2435 C2419 1.377 . S
C2435 C2433 1.389 . S
C2435 C2436 1.524 . S
C2436 C2435 1.524 . S
C2436 C2437 1.397 . S
C2436 C2441 1.363 . S
C2437 H2408 0.950 . S
C2437 C2436 1.397 . S
C2437 C2438 1.334 . S
C2438 H2409 0.950 . S
C2438 C2437 1.334 . S
C2438 C2439 1.287 . S
C2439 C2438 1.287 . S
C2439 C2440 1.524 . S
C2439 H2442 0.999 . S
C2440 H2410 0.950 . S
C2440 C2439 1.524 . S
C2440 C2441 1.415 . S
C2441 H2411 0.950 . S
C2441 C2436 1.363 . S
C2441 C2440 1.415 . S
H2442 C2439 0.999 . S
H2443 C2424 0.913 . S
H2444 C2462 0.951 . S
H2445 C2464 0.951 . S
H2446 C2466 0.950 . S
H2447 C2467 0.950 . S
H2448 C2469 0.950 . S
H2449 C2472 0.950 . S
H2450 C2473 0.950 . S
H2451 C2475 0.950 . S
H2452 C2476 0.950 . S
H2453 C2477 0.951 . S
H2454 C2479 0.951 . S
H2455 C2481 0.950 . S
H2456 C2482 0.950 . S
H2457 C2484 0.950 . S
H2458 C2487 0.950 . S
H2459 C2488 0.950 . S
H2460 C2490 0.950 . S
H2461 C2491 0.950 . S
C2462 H2444 0.951 . S
C2462 C2463 1.366 . S
C2462 C2464 1.388 . S
C2463 C2462 1.366 . S
C2463 C2467 1.385 . S
C2464 H2445 0.951 . S
C2464 C2462 1.388 . S
C2464 C2465 1.366 . S
C2465 C2464 1.366 . S
C2465 C2466 1.414 . S
C2465 C2468 1.499 . S
C2466 H2446 0.950 . S
C2466 C2465 1.414 . S
C2466 C2467 1.374 . S
C2467 H2447 0.950 . S
C2467 C2463 1.385 . S
C2467 C2466 1.374 . S
C2468 C2465 1.499 . S
C2468 C2469 1.373 . S
C2468 C2470 1.389 . S
C2469 H2448 0.950 . S
C2469 C2468 1.373 . S
C2469 C2485 1.377 . S
C2470 C2468 1.389 . S
C2470 C2471 1.524 . S
C2470 C2484 1.377 . S
C2471 C2470 1.524 . S
C2471 C2472 1.397 . S
C2471 C2476 1.363 1_455 S
C2472 H2449 0.950 . S
C2472 C2471 1.397 . S
C2472 C2473 1.334 . S
C2473 H2450 0.950 . S
C2473 C2472 1.334 . S
C2473 C2474 1.287 1_455 S
C2474 C2473 1.287 1_655 S
C2474 C2475 1.524 . S
C2474 H2493 0.913 . S
C2475 H2451 0.950 . S
C2475 C2474 1.524 . S
C2475 C2476 1.415 . S
C2476 H2452 0.950 . S
C2476 C2471 1.363 1_655 S
C2476 C2475 1.415 . S
C2477 H2453 0.951 . S
C2477 C2478 1.366 . S
C2477 C2479 1.388 . S
C2478 C2477 1.366 . S
C2478 C2482 1.385 . S
C2479 H2454 0.951 . S
C2479 C2477 1.388 . S
C2479 C2480 1.366 . S
C2480 C2479 1.366 . S
C2480 C2481 1.414 . S
C2480 C2483 1.499 . S
C2481 H2455 0.950 . S
C2481 C2480 1.414 . S
C2481 C2482 1.374 . S
C2482 H2456 0.950 . S
C2482 C2478 1.385 . S
C2482 C2481 1.374 . S
C2483 C2480 1.499 . S
C2483 C2484 1.373 . S
C2483 C2485 1.389 . S
C2484 H2457 0.950 . S
C2484 C2470 1.377 . S
C2484 C2483 1.373 . S
C2485 C2469 1.377 . S
C2485 C2483 1.389 . S
C2485 C2486 1.524 . S
C2486 C2485 1.524 . S
C2486 C2487 1.397 . S
C2486 C2491 1.363 . S
C2487 H2458 0.950 . S
C2487 C2486 1.397 . S
C2487 C2488 1.334 . S
C2488 H2459 0.950 . S
C2488 C2487 1.334 . S
C2488 C2489 1.287 . S
C2489 C2488 1.287 . S
C2489 C2490 1.524 . S
C2489 H2492 0.999 . S
C2490 H2460 0.950 . S
C2490 C2489 1.524 . S
C2490 C2491 1.415 . S
C2491 H2461 0.950 . S
C2491 C2486 1.363 . S
C2491 C2490 1.415 . S
H2492 C2489 0.999 . S
H2493 C2474 0.913 . S
H2494 C2512 0.951 . S
H2495 C2514 0.951 . S
H2496 C2516 0.950 . S
H2497 C2517 0.950 . S
H2498 C2519 0.950 . S
H2499 C2522 0.950 . S
H2500 C2523 0.950 . S
H2501 C2525 0.950 . S
H2502 C2526 0.950 . S
H2503 C2527 0.951 . S
H2504 C2529 0.951 . S
H2505 C2531 0.950 . S
H2506 C2532 0.950 . S
H2507 C2534 0.950 . S
H2508 C2537 0.950 . S
H2509 C2538 0.950 . S
H2510 C2540 0.950 . S
H2511 C2541 0.950 . S
C2512 H2494 0.951 . S
C2512 C2513 1.366 . S
C2512 C2514 1.388 . S
C2513 C2512 1.366 . S
C2513 C2517 1.385 . S
C2514 H2495 0.951 . S
C2514 C2512 1.388 . S
C2514 C2515 1.366 . S
C2515 C2514 1.366 . S
C2515 C2516 1.414 . S
C2515 C2518 1.499 . S
C2516 H2496 0.950 . S
C2516 C2515 1.414 . S
C2516 C2517 1.374 . S
C2517 H2497 0.950 . S
C2517 C2513 1.385 . S
C2517 C2516 1.374 . S
C2518 C2515 1.499 . S
C2518 C2519 1.373 . S
C2518 C2520 1.389 . S
C2519 H2498 0.950 . S
C2519 C2518 1.373 . S
C2519 C2535 1.377 . S
C2520 C2518 1.389 . S
C2520 C2521 1.524 . S
C2520 C2534 1.377 . S
C2521 C2520 1.524 . S
C2521 C2522 1.397 . S
C2521 C2526 1.363 . S
C2522 H2499 0.950 . S
C2522 C2521 1.397 . S
C2522 C2523 1.334 . S
C2523 H2500 0.950 . S
C2523 C2522 1.334 . S
C2523 C2524 1.287 . S
C2524 C2523 1.287 . S
C2524 C2525 1.524 . S
C2524 H2543 0.913 . S
C2525 H2501 0.950 . S
C2525 C2524 1.524 . S
C2525 C2526 1.415 . S
C2526 H2502 0.950 . S
C2526 C2521 1.363 . S
C2526 C2525 1.415 . S
C2527 H2503 0.951 . S
C2527 C2528 1.366 . S
C2527 C2529 1.388 . S
C2528 C2527 1.366 . S
C2528 C2532 1.385 . S
C2529 H2504 0.951 . S
C2529 C2527 1.388 . S
C2529 C2530 1.366 . S
C2530 C2529 1.366 . S
C2530 C2531 1.414 . S
C2530 C2533 1.499 . S
C2531 H2505 0.950 . S
C2531 C2530 1.414 . S
C2531 C2532 1.374 . S
C2532 H2506 0.950 . S
C2532 C2528 1.385 . S
C2532 C2531 1.374 . S
C2533 C2530 1.499 . S
C2533 C2534 1.373 . S
C2533 C2535 1.389 . S
C2534 H2507 0.950 . S
C2534 C2520 1.377 . S
C2534 C2533 1.373 . S
C2535 C2519 1.377 . S
C2535 C2533 1.389 . S
C2535 C2536 1.524 . S
C2536 C2535 1.524 . S
C2536 C2537 1.397 . S
C2536 C2541 1.363 . S
C2537 H2508 0.950 . S
C2537 C2536 1.397 . S
C2537 C2538 1.334 . S
C2538 H2509 0.950 . S
C2538 C2537 1.334 . S
C2538 C2539 1.287 . S
C2539 C2538 1.287 . S
C2539 C2540 1.524 . S
C2539 H2542 0.999 . S
C2540 H2510 0.950 . S
C2540 C2539 1.524 . S
C2540 C2541 1.415 . S
C2541 H2511 0.950 . S
C2541 C2536 1.363 . S
C2541 C2540 1.415 . S
H2542 C2539 0.999 . S
H2543 C2524 0.913 . S
H2544 C2562 0.951 . S
H2545 C2564 0.951 . S
H2546 C2566 0.950 . S
H2547 C2567 0.950 . S
H2548 C2569 0.950 . S
H2549 C2572 0.950 . S
H2550 C2573 0.950 . S
H2551 C2575 0.950 . S
H2552 C2576 0.950 . S
H2553 C2577 0.951 . S
H2554 C2579 0.951 . S
H2555 C2581 0.950 . S
H2556 C2582 0.950 . S
H2557 C2584 0.950 . S
H2558 C2587 0.950 . S
H2559 C2588 0.950 . S
H2560 C2590 0.950 . S
H2561 C2591 0.950 . S
C2562 H2544 0.951 . S
C2562 C2563 1.366 . S
C2562 C2564 1.388 . S
C2563 C2562 1.366 . S
C2563 C2567 1.385 . S
C2564 H2545 0.951 . S
C2564 C2562 1.388 . S
C2564 C2565 1.366 . S
C2565 C2564 1.366 . S
C2565 C2566 1.414 . S
C2565 C2568 1.499 . S
C2566 H2546 0.950 . S
C2566 C2565 1.414 . S
C2566 C2567 1.374 . S
C2567 H2547 0.950 . S
C2567 C2563 1.385 . S
C2567 C2566 1.374 . S
C2568 C2565 1.499 . S
C2568 C2569 1.373 . S
C2568 C2570 1.389 . S
C2569 H2548 0.950 . S
C2569 C2568 1.373 . S
C2569 C2585 1.377 . S
C2570 C2568 1.389 . S
C2570 C2571 1.524 . S
C2570 C2584 1.377 . S
C2571 C2570 1.524 . S
C2571 C2572 1.397 . S
C2571 C2576 1.363 1_655 S
C2572 H2549 0.950 . S
C2572 C2571 1.397 . S
C2572 C2573 1.334 1_655 S
C2573 H2550 0.950 . S
C2573 C2572 1.334 1_455 S
C2573 C2574 1.287 . S
C2574 C2573 1.287 . S
C2574 C2575 1.524 . S
C2574 H2593 0.913 . S
C2575 H2551 0.950 . S
C2575 C2574 1.524 . S
C2575 C2576 1.415 . S
C2576 H2552 0.950 . S
C2576 C2571 1.363 1_455 S
C2576 C2575 1.415 . S
C2577 H2553 0.951 . S
C2577 C2578 1.366 . S
C2577 C2579 1.388 . S
C2578 C2577 1.366 . S
C2578 C2582 1.385 . S
C2579 H2554 0.951 . S
C2579 C2577 1.388 . S
C2579 C2580 1.366 . S
C2580 C2579 1.366 . S
C2580 C2581 1.414 . S
C2580 C2583 1.499 . S
C2581 H2555 0.950 . S
C2581 C2580 1.414 . S
C2581 C2582 1.374 . S
C2582 H2556 0.950 . S
C2582 C2578 1.385 . S
C2582 C2581 1.374 . S
C2583 C2580 1.499 . S
C2583 C2584 1.373 . S
C2583 C2585 1.389 . S
C2584 H2557 0.950 . S
C2584 C2570 1.377 . S
C2584 C2583 1.373 . S
C2585 C2569 1.377 . S
C2585 C2583 1.389 . S
C2585 C2586 1.524 . S
C2586 C2585 1.524 . S
C2586 C2587 1.397 . S
C2586 C2591 1.363 . S
C2587 H2558 0.950 . S
C2587 C2586 1.397 . S
C2587 C2588 1.334 . S
C2588 H2559 0.950 . S
C2588 C2587 1.334 . S
C2588 C2589 1.287 . S
C2589 C2588 1.287 . S
C2589 C2590 1.524 . S
C2589 H2592 0.999 . S
C2590 H2560 0.950 . S
C2590 C2589 1.524 . S
C2590 C2591 1.415 . S
C2591 H2561 0.950 . S
C2591 C2586 1.363 . S
C2591 C2590 1.415 . S
H2592 C2589 0.999 . S
H2593 C2574 0.913 . S
H2594 C2612 0.951 . S
H2595 C2614 0.951 . S
H2596 C2616 0.950 . S
H2597 C2617 0.950 . S
H2598 C2619 0.950 . S
H2599 C2622 0.950 . S
H2600 C2623 0.950 . S
H2601 C2625 0.950 . S
H2602 C2626 0.950 . S
H2603 C2627 0.951 . S
H2604 C2629 0.951 . S
H2605 C2631 0.950 . S
H2606 C2632 0.950 . S
H2607 C2634 0.950 . S
H2608 C2637 0.950 . S
H2609 C2638 0.950 . S
H2610 C2640 0.950 . S
H2611 C2641 0.950 . S
C2612 H2594 0.951 . S
C2612 C2613 1.366 . S
C2612 C2614 1.388 . S
C2613 C2612 1.366 . S
C2613 C2617 1.385 . S
C2614 H2595 0.951 . S
C2614 C2612 1.388 . S
C2614 C2615 1.366 . S
C2615 C2614 1.366 . S
C2615 C2616 1.414 . S
C2615 C2618 1.499 . S
C2616 H2596 0.950 . S
C2616 C2615 1.414 . S
C2616 C2617 1.374 . S
C2617 H2597 0.950 . S
C2617 C2613 1.385 . S
C2617 C2616 1.374 . S
C2618 C2615 1.499 . S
C2618 C2619 1.373 . S
C2618 C2620 1.389 . S
C2619 H2598 0.950 . S
C2619 C2618 1.373 . S
C2619 C2635 1.377 . S
C2620 C2618 1.389 . S
C2620 C2621 1.524 . S
C2620 C2634 1.377 . S
C2621 C2620 1.524 . S
C2621 C2622 1.397 . S
C2621 C2626 1.363 . S
C2622 H2599 0.950 . S
C2622 C2621 1.397 . S
C2622 C2623 1.334 . S
C2623 H2600 0.950 . S
C2623 C2622 1.334 . S
C2623 C2624 1.287 . S
C2624 C2623 1.287 . S
C2624 C2625 1.524 . S
C2624 H2643 0.913 . S
C2625 H2601 0.950 . S
C2625 C2624 1.524 . S
C2625 C2626 1.415 . S
C2626 H2602 0.950 . S
C2626 C2621 1.363 . S
C2626 C2625 1.415 . S
C2627 H2603 0.951 . S
C2627 C2628 1.366 . S
C2627 C2629 1.388 . S
C2628 C2627 1.366 . S
C2628 C2632 1.385 . S
C2629 H2604 0.951 . S
C2629 C2627 1.388 . S
C2629 C2630 1.366 . S
C2630 C2629 1.366 . S
C2630 C2631 1.414 . S
C2630 C2633 1.499 . S
C2631 H2605 0.950 . S
C2631 C2630 1.414 . S
C2631 C2632 1.374 . S
C2632 H2606 0.950 . S
C2632 C2628 1.385 . S
C2632 C2631 1.374 . S
C2633 C2630 1.499 . S
C2633 C2634 1.373 . S
C2633 C2635 1.389 . S
C2634 H2607 0.950 . S
C2634 C2620 1.377 . S
C2634 C2633 1.373 . S
C2635 C2619 1.377 . S
C2635 C2633 1.389 . S
C2635 C2636 1.524 . S
C2636 C2635 1.524 . S
C2636 C2637 1.397 . S
C2636 C2641 1.363 . S
C2637 H2608 0.950 . S
C2637 C2636 1.397 . S
C2637 C2638 1.334 . S
C2638 H2609 0.950 . S
C2638 C2637 1.334 . S
C2638 C2639 1.287 . S
C2639 C2638 1.287 . S
C2639 C2640 1.524 . S
C2639 H2642 0.999 . S
C2640 H2610 0.950 . S
C2640 C2639 1.524 . S
C2640 C2641 1.415 . S
C2641 H2611 0.950 . S
C2641 C2636 1.363 . S
C2641 C2640 1.415 . S
H2642 C2639 0.999 . S
H2643 C2624 0.913 . S
H2644 C2662 0.951 . S
H2645 C2664 0.951 . S
H2646 C2666 0.950 . S
H2647 C2667 0.950 . S
H2648 C2669 0.950 . S
H2649 C2672 0.950 . S
H2650 C2673 0.950 . S
H2651 C2675 0.950 . S
H2652 C2676 0.950 . S
H2653 C2677 0.951 . S
H2654 C2679 0.951 . S
H2655 C2681 0.950 . S
H2656 C2682 0.950 . S
H2657 C2684 0.950 . S
H2658 C2687 0.950 . S
H2659 C2688 0.950 . S
H2660 C2690 0.950 . S
H2661 C2691 0.950 . S
C2662 H2644 0.951 . S
C2662 C2663 1.366 . S
C2662 C2664 1.388 . S
C2663 C2662 1.366 . S
C2663 C2667 1.385 . S
C2664 H2645 0.951 . S
C2664 C2662 1.388 . S
C2664 C2665 1.366 . S
C2665 C2664 1.366 . S
C2665 C2666 1.414 . S
C2665 C2668 1.499 . S
C2666 H2646 0.950 . S
C2666 C2665 1.414 . S
C2666 C2667 1.374 . S
C2667 H2647 0.950 . S
C2667 C2663 1.385 . S
C2667 C2666 1.374 . S
C2668 C2665 1.499 . S
C2668 C2669 1.373 . S
C2668 C2670 1.389 . S
C2669 H2648 0.950 . S
C2669 C2668 1.373 . S
C2669 C2685 1.377 . S
C2670 C2668 1.389 . S
C2670 C2671 1.524 . S
C2670 C2684 1.377 . S
C2671 C2670 1.524 . S
C2671 C2672 1.397 . S
C2671 C2676 1.363 . S
C2672 H2649 0.950 . S
C2672 C2671 1.397 . S
C2672 C2673 1.334 . S
C2673 H2650 0.950 . S
C2673 C2672 1.334 . S
C2673 C2674 1.287 1_545 S
C2674 C2673 1.287 1_565 S
C2674 C2675 1.524 . S
C2674 H2693 0.913 . S
C2675 H2651 0.950 . S
C2675 C2674 1.524 . S
C2675 C2676 1.415 1_565 S
C2676 H2652 0.950 . S
C2676 C2671 1.363 . S
C2676 C2675 1.415 1_545 S
C2677 H2653 0.951 . S
C2677 C2678 1.366 . S
C2677 C2679 1.388 . S
C2678 C2677 1.366 . S
C2678 C2682 1.385 . S
C2679 H2654 0.951 . S
C2679 C2677 1.388 . S
C2679 C2680 1.366 . S
C2680 C2679 1.366 . S
C2680 C2681 1.414 . S
C2680 C2683 1.499 . S
C2681 H2655 0.950 . S
C2681 C2680 1.414 . S
C2681 C2682 1.374 . S
C2682 H2656 0.950 . S
C2682 C2678 1.385 . S
C2682 C2681 1.374 . S
C2683 C2680 1.499 . S
C2683 C2684 1.373 . S
C2683 C2685 1.389 . S
C2684 H2657 0.950 . S
C2684 C2670 1.377 . S
C2684 C2683 1.373 . S
C2685 C2669 1.377 . S
C2685 C2683 1.389 . S
C2685 C2686 1.524 . S
C2686 C2685 1.524 . S
C2686 C2687 1.397 . S
C2686 C2691 1.363 . S
C2687 H2658 0.950 . S
C2687 C2686 1.397 . S
C2687 C2688 1.334 . S
C2688 H2659 0.950 . S
C2688 C2687 1.334 . S
C2688 C2689 1.287 . S
C2689 C2688 1.287 . S
C2689 C2690 1.524 . S
C2689 H2692 0.999 . S
C2690 H2660 0.950 . S
C2690 C2689 1.524 . S
C2690 C2691 1.415 . S
C2691 H2661 0.950 . S
C2691 C2686 1.363 . S
C2691 C2690 1.415 . S
H2692 C2689 0.999 . S
H2693 C2674 0.913 . S
H2694 C2712 0.951 . S
H2695 C2714 0.951 . S
H2696 C2716 0.950 . S
H2697 C2717 0.950 . S
H2698 C2719 0.950 . S
H2699 C2722 0.950 . S
H2700 C2723 0.950 . S
H2701 C2725 0.950 . S
H2702 C2726 0.950 . S
H2703 C2727 0.951 . S
H2704 C2729 0.951 . S
H2705 C2731 0.950 . S
H2706 C2732 0.950 . S
H2707 C2734 0.950 . S
H2708 C2737 0.950 . S
H2709 C2738 0.950 . S
H2710 C2740 0.950 . S
H2711 C2741 0.950 . S
C2712 H2694 0.951 . S
C2712 C2713 1.366 . S
C2712 C2714 1.388 . S
C2713 C2712 1.366 . S
C2713 C2717 1.385 . S
C2714 H2695 0.951 . S
C2714 C2712 1.388 . S
C2714 C2715 1.366 . S
C2715 C2714 1.366 . S
C2715 C2716 1.414 . S
C2715 C2718 1.499 . S
C2716 H2696 0.950 . S
C2716 C2715 1.414 . S
C2716 C2717 1.374 . S
C2717 H2697 0.950 . S
C2717 C2713 1.385 . S
C2717 C2716 1.374 . S
C2718 C2715 1.499 . S
C2718 C2719 1.373 . S
C2718 C2720 1.389 . S
C2719 H2698 0.950 . S
C2719 C2718 1.373 . S
C2719 C2735 1.377 . S
C2720 C2718 1.389 . S
C2720 C2721 1.524 . S
C2720 C2734 1.377 . S
C2721 C2720 1.524 . S
C2721 C2722 1.397 . S
C2721 C2726 1.363 . S
C2722 H2699 0.950 . S
C2722 C2721 1.397 . S
C2722 C2723 1.334 . S
C2723 H2700 0.950 . S
C2723 C2722 1.334 . S
C2723 C2724 1.287 . S
C2724 C2723 1.287 . S
C2724 C2725 1.524 . S
C2724 H2743 0.913 . S
C2725 H2701 0.950 . S
C2725 C2724 1.524 . S
C2725 C2726 1.415 . S
C2726 H2702 0.950 . S
C2726 C2721 1.363 . S
C2726 C2725 1.415 . S
C2727 H2703 0.951 . S
C2727 C2728 1.366 . S
C2727 C2729 1.388 . S
C2728 C2727 1.366 . S
C2728 C2732 1.385 . S
C2729 H2704 0.951 . S
C2729 C2727 1.388 . S
C2729 C2730 1.366 . S
C2730 C2729 1.366 . S
C2730 C2731 1.414 . S
C2730 C2733 1.499 . S
C2731 H2705 0.950 . S
C2731 C2730 1.414 . S
C2731 C2732 1.374 . S
C2732 H2706 0.950 . S
C2732 C2728 1.385 . S
C2732 C2731 1.374 . S
C2733 C2730 1.499 . S
C2733 C2734 1.373 . S
C2733 C2735 1.389 . S
C2734 H2707 0.950 . S
C2734 C2720 1.377 . S
C2734 C2733 1.373 . S
C2735 C2719 1.377 . S
C2735 C2733 1.389 . S
C2735 C2736 1.524 . S
C2736 C2735 1.524 . S
C2736 C2737 1.397 . S
C2736 C2741 1.363 . S
C2737 H2708 0.950 . S
C2737 C2736 1.397 . S
C2737 C2738 1.334 . S
C2738 H2709 0.950 . S
C2738 C2737 1.334 . S
C2738 C2739 1.287 . S
C2739 C2738 1.287 . S
C2739 C2740 1.524 . S
C2739 H2742 0.999 . S
C2740 H2710 0.950 . S
C2740 C2739 1.524 . S
C2740 C2741 1.415 . S
C2741 H2711 0.950 . S
C2741 C2736 1.363 . S
C2741 C2740 1.415 . S
H2742 C2739 0.999 . S
H2743 C2724 0.913 . S
H2744 C2762 0.951 . S
H2745 C2764 0.951 . S
H2746 C2766 0.950 . S
H2747 C2767 0.950 . S
H2748 C2769 0.950 . S
H2749 C2772 0.950 . S
H2750 C2773 0.950 . S
H2751 C2775 0.950 . S
H2752 C2776 0.950 . S
H2753 C2777 0.951 . S
H2754 C2779 0.951 . S
H2755 C2781 0.950 . S
H2756 C2782 0.950 . S
H2757 C2784 0.950 . S
H2758 C2787 0.950 . S
H2759 C2788 0.950 . S
H2760 C2790 0.950 . S
H2761 C2791 0.950 . S
C2762 H2744 0.951 . S
C2762 C2763 1.366 . S
C2762 C2764 1.388 . S
C2763 C2762 1.366 . S
C2763 C2767 1.385 . S
C2764 H2745 0.951 . S
C2764 C2762 1.388 . S
C2764 C2765 1.366 . S
C2765 C2764 1.366 . S
C2765 C2766 1.414 . S
C2765 C2768 1.499 . S
C2766 H2746 0.950 . S
C2766 C2765 1.414 . S
C2766 C2767 1.374 . S
C2767 H2747 0.950 . S
C2767 C2763 1.385 . S
C2767 C2766 1.374 . S
C2768 C2765 1.499 . S
C2768 C2769 1.373 . S
C2768 C2770 1.389 . S
C2769 H2748 0.950 . S
C2769 C2768 1.373 . S
C2769 C2785 1.377 . S
C2770 C2768 1.389 . S
C2770 C2771 1.524 . S
C2770 C2784 1.377 . S
C2771 C2770 1.524 . S
C2771 C2772 1.397 . S
C2771 C2776 1.363 . S
C2772 H2749 0.950 . S
C2772 C2771 1.397 . S
C2772 C2773 1.334 . S
C2773 H2750 0.950 . S
C2773 C2772 1.334 . S
C2773 C2774 1.287 . S
C2774 C2773 1.287 . S
C2774 C2775 1.524 . S
C2774 H2793 0.913 . S
C2775 H2751 0.950 . S
C2775 C2774 1.524 . S
C2775 C2776 1.415 . S
C2776 H2752 0.950 . S
C2776 C2771 1.363 . S
C2776 C2775 1.415 . S
C2777 H2753 0.951 . S
C2777 C2778 1.366 . S
C2777 C2779 1.388 . S
C2778 C2777 1.366 . S
C2778 C2782 1.385 . S
C2779 H2754 0.951 . S
C2779 C2777 1.388 . S
C2779 C2780 1.366 . S
C2780 C2779 1.366 . S
C2780 C2781 1.414 . S
C2780 C2783 1.499 . S
C2781 H2755 0.950 . S
C2781 C2780 1.414 . S
C2781 C2782 1.374 . S
C2782 H2756 0.950 . S
C2782 C2778 1.385 . S
C2782 C2781 1.374 . S
C2783 C2780 1.499 . S
C2783 C2784 1.373 . S
C2783 C2785 1.389 . S
C2784 H2757 0.950 . S
C2784 C2770 1.377 . S
C2784 C2783 1.373 . S
C2785 C2769 1.377 . S
C2785 C2783 1.389 . S
C2785 C2786 1.524 . S
C2786 C2785 1.524 . S
C2786 C2787 1.397 . S
C2786 C2791 1.363 . S
C2787 H2758 0.950 . S
C2787 C2786 1.397 . S
C2787 C2788 1.334 . S
C2788 H2759 0.950 . S
C2788 C2787 1.334 . S
C2788 C2789 1.287 . S
C2789 C2788 1.287 . S
C2789 C2790 1.524 . S
C2789 H2792 0.999 . S
C2790 H2760 0.950 . S
C2790 C2789 1.524 . S
C2790 C2791 1.415 . S
C2791 H2761 0.950 . S
C2791 C2786 1.363 . S
C2791 C2790 1.415 . S
H2792 C2789 0.999 . S
H2793 C2774 0.913 . S
H2794 C2812 0.951 . S
H2795 C2814 0.951 . S
H2796 C2816 0.950 . S
H2797 C2817 0.950 . S
H2798 C2819 0.950 . S
H2799 C2822 0.950 . S
H2800 C2823 0.950 . S
H2801 C2825 0.950 . S
H2802 C2826 0.950 . S
H2803 C2827 0.951 . S
H2804 C2829 0.951 . S
H2805 C2831 0.950 . S
H2806 C2832 0.950 . S
H2807 C2834 0.950 . S
H2808 C2837 0.950 . S
H2809 C2838 0.950 . S
H2810 C2840 0.950 . S
H2811 C2841 0.950 . S
C2812 H2794 0.951 . S
C2812 C2813 1.366 . S
C2812 C2814 1.388 . S
C2813 C2812 1.366 . S
C2813 C2817 1.385 . S
C2814 H2795 0.951 . S
C2814 C2812 1.388 . S
C2814 C2815 1.366 . S
C2815 C2814 1.366 . S
C2815 C2816 1.414 . S
C2815 C2818 1.499 . S
C2816 H2796 0.950 . S
C2816 C2815 1.414 . S
C2816 C2817 1.374 . S
C2817 H2797 0.950 . S
C2817 C2813 1.385 . S
C2817 C2816 1.374 . S
C2818 C2815 1.499 . S
C2818 C2819 1.373 . S
C2818 C2820 1.389 . S
C2819 H2798 0.950 . S
C2819 C2818 1.373 . S
C2819 C2835 1.377 . S
C2820 C2818 1.389 . S
C2820 C2821 1.524 . S
C2820 C2834 1.377 . S
C2821 C2820 1.524 . S
C2821 C2822 1.397 . S
C2821 C2826 1.363 . S
C2822 H2799 0.950 . S
C2822 C2821 1.397 . S
C2822 C2823 1.334 . S
C2823 H2800 0.950 . S
C2823 C2822 1.334 . S
C2823 C2824 1.287 . S
C2824 C2823 1.287 . S
C2824 C2825 1.524 . S
C2824 H2843 0.913 . S
C2825 H2801 0.950 . S
C2825 C2824 1.524 . S
C2825 C2826 1.415 . S
C2826 H2802 0.950 . S
C2826 C2821 1.363 . S
C2826 C2825 1.415 . S
C2827 H2803 0.951 . S
C2827 C2828 1.366 . S
C2827 C2829 1.388 . S
C2828 C2827 1.366 . S
C2828 C2832 1.385 . S
C2829 H2804 0.951 . S
C2829 C2827 1.388 . S
C2829 C2830 1.366 . S
C2830 C2829 1.366 . S
C2830 C2831 1.414 . S
C2830 C2833 1.499 . S
C2831 H2805 0.950 . S
C2831 C2830 1.414 . S
C2831 C2832 1.374 . S
C2832 H2806 0.950 . S
C2832 C2828 1.385 . S
C2832 C2831 1.374 . S
C2833 C2830 1.499 . S
C2833 C2834 1.373 . S
C2833 C2835 1.389 . S
C2834 H2807 0.950 . S
C2834 C2820 1.377 . S
C2834 C2833 1.373 . S
C2835 C2819 1.377 . S
C2835 C2833 1.389 . S
C2835 C2836 1.524 . S
C2836 C2835 1.524 . S
C2836 C2837 1.397 . S
C2836 C2841 1.363 . S
C2837 H2808 0.950 . S
C2837 C2836 1.397 . S
C2837 C2838 1.334 . S
C2838 H2809 0.950 . S
C2838 C2837 1.334 . S
C2838 C2839 1.287 . S
C2839 C2838 1.287 . S
C2839 C2840 1.524 . S
C2839 H2842 0.999 . S
C2840 H2810 0.950 . S
C2840 C2839 1.524 . S
C2840 C2841 1.415 . S
C2841 H2811 0.950 . S
C2841 C2836 1.363 . S
C2841 C2840 1.415 . S
H2842 C2839 0.999 . S
H2843 C2824 0.913 . S
H2844 C2862 0.951 . S
H2845 C2864 0.951 . S
H2846 C2866 0.950 . S
H2847 C2867 0.950 . S
H2848 C2869 0.950 . S
H2849 C2872 0.950 . S
H2850 C2873 0.950 . S
H2851 C2875 0.950 . S
H2852 C2876 0.950 . S
H2853 C2877 0.951 . S
H2854 C2879 0.951 . S
H2855 C2881 0.950 . S
H2856 C2882 0.950 . S
H2857 C2884 0.950 . S
H2858 C2887 0.950 . S
H2859 C2888 0.950 . S
H2860 C2890 0.950 . S
H2861 C2891 0.950 . S
C2862 H2844 0.951 . S
C2862 C2863 1.366 . S
C2862 C2864 1.388 . S
C2863 C2862 1.366 . S
C2863 C2867 1.385 . S
C2864 H2845 0.951 . S
C2864 C2862 1.388 . S
C2864 C2865 1.366 . S
C2865 C2864 1.366 . S
C2865 C2866 1.414 . S
C2865 C2868 1.499 . S
C2866 H2846 0.950 . S
C2866 C2865 1.414 . S
C2866 C2867 1.374 . S
C2867 H2847 0.950 . S
C2867 C2863 1.385 . S
C2867 C2866 1.374 . S
C2868 C2865 1.499 . S
C2868 C2869 1.373 . S
C2868 C2870 1.389 . S
C2869 H2848 0.950 . S
C2869 C2868 1.373 . S
C2869 C2885 1.377 . S
C2870 C2868 1.389 . S
C2870 C2871 1.524 . S
C2870 C2884 1.377 . S
C2871 C2870 1.524 . S
C2871 C2872 1.397 . S
C2871 C2876 1.363 . S
C2872 H2849 0.950 . S
C2872 C2871 1.397 . S
C2872 C2873 1.334 . S
C2873 H2850 0.950 . S
C2873 C2872 1.334 . S
C2873 C2874 1.287 . S
C2874 C2873 1.287 . S
C2874 C2875 1.524 . S
C2874 H2893 0.913 . S
C2875 H2851 0.950 . S
C2875 C2874 1.524 . S
C2875 C2876 1.415 . S
C2876 H2852 0.950 . S
C2876 C2871 1.363 . S
C2876 C2875 1.415 . S
C2877 H2853 0.951 . S
C2877 C2878 1.366 . S
C2877 C2879 1.388 . S
C2878 C2877 1.366 . S
C2878 C2882 1.385 . S
C2879 H2854 0.951 . S
C2879 C2877 1.388 . S
C2879 C2880 1.366 . S
C2880 C2879 1.366 . S
C2880 C2881 1.414 . S
C2880 C2883 1.499 . S
C2881 H2855 0.950 . S
C2881 C2880 1.414 . S
C2881 C2882 1.374 . S
C2882 H2856 0.950 . S
C2882 C2878 1.385 . S
C2882 C2881 1.374 . S
C2883 C2880 1.499 . S
C2883 C2884 1.373 . S
C2883 C2885 1.389 . S
C2884 H2857 0.950 . S
C2884 C2870 1.377 . S
C2884 C2883 1.373 . S
C2885 C2869 1.377 . S
C2885 C2883 1.389 . S
C2885 C2886 1.524 . S
C2886 C2885 1.524 . S
C2886 C2887 1.397 . S
C2886 C2891 1.363 . S
C2887 H2858 0.950 . S
C2887 C2886 1.397 . S
C2887 C2888 1.334 . S
C2888 H2859 0.950 . S
C2888 C2887 1.334 . S
C2888 C2889 1.287 . S
C2889 C2888 1.287 . S
C2889 C2890 1.524 . S
C2889 H2892 0.999 . S
C2890 H2860 0.950 . S
C2890 C2889 1.524 . S
C2890 C2891 1.415 . S
C2891 H2861 0.950 . S
C2891 C2886 1.363 . S
C2891 C2890 1.415 . S
H2892 C2889 0.999 . S
H2893 C2874 0.913 . S
H2894 C2912 0.951 . S
H2895 C2914 0.951 . S
H2896 C2916 0.950 . S
H2897 C2917 0.950 . S
H2898 C2919 0.950 . S
H2899 C2922 0.950 . S
H2900 C2923 0.950 . S
H2901 C2925 0.950 . S
H2902 C2926 0.950 . S
H2903 C2927 0.951 . S
H2904 C2929 0.951 . S
H2905 C2931 0.950 . S
H2906 C2932 0.950 . S
H2907 C2934 0.950 . S
H2908 C2937 0.950 . S
H2909 C2938 0.950 . S
H2910 C2940 0.950 . S
H2911 C2941 0.950 . S
C2912 H2894 0.951 . S
C2912 C2913 1.366 . S
C2912 C2914 1.388 . S
C2913 C2912 1.366 . S
C2913 C2917 1.385 . S
C2914 H2895 0.951 . S
C2914 C2912 1.388 . S
C2914 C2915 1.366 . S
C2915 C2914 1.366 . S
C2915 C2916 1.414 . S
C2915 C2918 1.499 . S
C2916 H2896 0.950 . S
C2916 C2915 1.414 . S
C2916 C2917 1.374 . S
C2917 H2897 0.950 . S
C2917 C2913 1.385 . S
C2917 C2916 1.374 . S
C2918 C2915 1.499 . S
C2918 C2919 1.373 . S
C2918 C2920 1.389 . S
C2919 H2898 0.950 . S
C2919 C2918 1.373 . S
C2919 C2935 1.377 . S
C2920 C2918 1.389 . S
C2920 C2921 1.524 . S
C2920 C2934 1.377 . S
C2921 C2920 1.524 . S
C2921 C2922 1.397 . S
C2921 C2926 1.363 . S
C2922 H2899 0.950 . S
C2922 C2921 1.397 . S
C2922 C2923 1.334 . S
C2923 H2900 0.950 . S
C2923 C2922 1.334 . S
C2923 C2924 1.287 . S
C2924 C2923 1.287 . S
C2924 C2925 1.524 . S
C2924 H2943 0.913 . S
C2925 H2901 0.950 . S
C2925 C2924 1.524 . S
C2925 C2926 1.415 . S
C2926 H2902 0.950 . S
C2926 C2921 1.363 . S
C2926 C2925 1.415 . S
C2927 H2903 0.951 . S
C2927 C2928 1.366 . S
C2927 C2929 1.388 . S
C2928 C2927 1.366 . S
C2928 C2932 1.385 . S
C2929 H2904 0.951 . S
C2929 C2927 1.388 . S
C2929 C2930 1.366 . S
C2930 C2929 1.366 . S
C2930 C2931 1.414 . S
C2930 C2933 1.499 . S
C2931 H2905 0.950 . S
C2931 C2930 1.414 . S
C2931 C2932 1.374 . S
C2932 H2906 0.950 . S
C2932 C2928 1.385 . S
C2932 C2931 1.374 . S
C2933 C2930 1.499 . S
C2933 C2934 1.373 . S
C2933 C2935 1.389 . S
C2934 H2907 0.950 . S
C2934 C2920 1.377 . S
C2934 C2933 1.373 . S
C2935 C2919 1.377 . S
C2935 C2933 1.389 . S
C2935 C2936 1.524 . S
C2936 C2935 1.524 . S
C2936 C2937 1.397 . S
C2936 C2941 1.363 . S
C2937 H2908 0.950 . S
C2937 C2936 1.397 . S
C2937 C2938 1.334 . S
C2938 H2909 0.950 . S
C2938 C2937 1.334 . S
C2938 C2939 1.287 . S
C2939 C2938 1.287 . S
C2939 C2940 1.524 . S
C2939 H2942 0.999 . S
C2940 H2910 0.950 . S
C2940 C2939 1.524 . S
C2940 C2941 1.415 . S
C2941 H2911 0.950 . S
C2941 C2936 1.363 . S
C2941 C2940 1.415 . S
H2942 C2939 0.999 . S
H2943 C2924 0.913 . S
H2944 C2962 0.951 . S
H2945 C2964 0.951 . S
H2946 C2966 0.950 . S
H2947 C2967 0.950 . S
H2948 C2969 0.950 . S
H2949 C2972 0.950 . S
H2950 C2973 0.950 . S
H2951 C2975 0.950 . S
H2952 C2976 0.950 . S
H2953 C2977 0.951 . S
H2954 C2979 0.951 . S
H2955 C2981 0.950 . S
H2956 C2982 0.950 . S
H2957 C2984 0.950 . S
H2958 C2987 0.950 . S
H2959 C2988 0.950 . S
H2960 C2990 0.950 . S
H2961 C2991 0.950 . S
C2962 H2944 0.951 . S
C2962 C2963 1.366 . S
C2962 C2964 1.388 . S
C2963 C2962 1.366 . S
C2963 C2967 1.385 . S
C2964 H2945 0.951 . S
C2964 C2962 1.388 . S
C2964 C2965 1.366 . S
C2965 C2964 1.366 . S
C2965 C2966 1.414 . S
C2965 C2968 1.499 . S
C2966 H2946 0.950 . S
C2966 C2965 1.414 . S
C2966 C2967 1.374 . S
C2967 H2947 0.950 . S
C2967 C2963 1.385 . S
C2967 C2966 1.374 . S
C2968 C2965 1.499 . S
C2968 C2969 1.373 . S
C2968 C2970 1.389 . S
C2969 H2948 0.950 . S
C2969 C2968 1.373 . S
C2969 C2985 1.377 . S
C2970 C2968 1.389 . S
C2970 C2971 1.524 . S
C2970 C2984 1.377 . S
C2971 C2970 1.524 . S
C2971 C2972 1.397 . S
C2971 C2976 1.363 . S
C2972 H2949 0.950 . S
C2972 C2971 1.397 . S
C2972 C2973 1.334 . S
C2973 H2950 0.950 . S
C2973 C2972 1.334 . S
C2973 C2974 1.287 . S
C2974 C2973 1.287 . S
C2974 C2975 1.524 . S
C2974 H2993 0.913 . S
C2975 H2951 0.950 . S
C2975 C2974 1.524 . S
C2975 C2976 1.415 . S
C2976 H2952 0.950 . S
C2976 C2971 1.363 . S
C2976 C2975 1.415 . S
C2977 H2953 0.951 . S
C2977 C2978 1.366 . S
C2977 C2979 1.388 . S
C2978 C2977 1.366 . S
C2978 C2982 1.385 . S
C2979 H2954 0.951 . S
C2979 C2977 1.388 . S
C2979 C2980 1.366 . S
C2980 C2979 1.366 . S
C2980 C2981 1.414 . S
C2980 C2983 1.499 . S
C2981 H2955 0.950 . S
C2981 C2980 1.414 . S
C2981 C2982 1.374 . S
C2982 H2956 0.950 . S
C2982 C2978 1.385 . S
C2982 C2981 1.374 . S
C2983 C2980 1.499 . S
C2983 C2984 1.373 . S
C2983 C2985 1.389 . S
C2984 H2957 0.950 . S
C2984 C2970 1.377 . S
C2984 C2983 1.373 . S
C2985 C2969 1.377 . S
C2985 C2983 1.389 . S
C2985 C2986 1.524 . S
C2986 C2985 1.524 . S
C2986 C2987 1.397 . S
C2986 C2991 1.363 . S
C2987 H2958 0.950 . S
C2987 C2986 1.397 . S
C2987 C2988 1.334 . S
C2988 H2959 0.950 . S
C2988 C2987 1.334 . S
C2988 C2989 1.287 . S
C2989 C2988 1.287 . S
C2989 C2990 1.524 . S
C2989 H2992 0.999 . S
C2990 H2960 0.950 . S
C2990 C2989 1.524 . S
C2990 C2991 1.415 . S
C2991 H2961 0.950 . S
C2991 C2986 1.363 . S
C2991 C2990 1.415 . S
H2992 C2989 0.999 . S
H2993 C2974 0.913 . S
H2994 C3012 0.951 . S
H2995 C3014 0.951 . S
H2996 C3016 0.950 . S
H2997 C3017 0.950 . S
H2998 C3019 0.950 . S
H2999 C3022 0.950 . S
H3000 C3023 0.950 . S
H3001 C3025 0.950 . S
H3002 C3026 0.950 . S
H3003 C3027 0.951 . S
H3004 C3029 0.951 . S
H3005 C3031 0.950 . S
H3006 C3032 0.950 . S
H3007 C3034 0.950 . S
H3008 C3037 0.950 . S
H3009 C3038 0.950 . S
H3010 C3040 0.950 . S
H3011 C3041 0.950 . S
C3012 H2994 0.951 . S
C3012 C3013 1.366 . S
C3012 C3014 1.388 . S
C3013 C3012 1.366 . S
C3013 C3017 1.385 . S
C3014 H2995 0.951 . S
C3014 C3012 1.388 . S
C3014 C3015 1.366 . S
C3015 C3014 1.366 . S
C3015 C3016 1.414 . S
C3015 C3018 1.499 . S
C3016 H2996 0.950 . S
C3016 C3015 1.414 . S
C3016 C3017 1.374 . S
C3017 H2997 0.950 . S
C3017 C3013 1.385 . S
C3017 C3016 1.374 . S
C3018 C3015 1.499 . S
C3018 C3019 1.373 . S
C3018 C3020 1.389 . S
C3019 H2998 0.950 . S
C3019 C3018 1.373 . S
C3019 C3035 1.377 . S
C3020 C3018 1.389 . S
C3020 C3021 1.524 . S
C3020 C3034 1.377 . S
C3021 C3020 1.524 . S
C3021 C3022 1.397 . S
C3021 C3026 1.363 . S
C3022 H2999 0.950 . S
C3022 C3021 1.397 . S
C3022 C3023 1.334 . S
C3023 H3000 0.950 . S
C3023 C3022 1.334 . S
C3023 C3024 1.287 . S
C3024 C3023 1.287 . S
C3024 C3025 1.524 . S
C3024 H3043 0.913 . S
C3025 H3001 0.950 . S
C3025 C3024 1.524 . S
C3025 C3026 1.415 . S
C3026 H3002 0.950 . S
C3026 C3021 1.363 . S
C3026 C3025 1.415 . S
C3027 H3003 0.951 . S
C3027 C3028 1.366 . S
C3027 C3029 1.388 . S
C3028 C3027 1.366 . S
C3028 C3032 1.385 . S
C3029 H3004 0.951 . S
C3029 C3027 1.388 . S
C3029 C3030 1.366 . S
C3030 C3029 1.366 . S
C3030 C3031 1.414 . S
C3030 C3033 1.499 . S
C3031 H3005 0.950 . S
C3031 C3030 1.414 . S
C3031 C3032 1.374 . S
C3032 H3006 0.950 . S
C3032 C3028 1.385 . S
C3032 C3031 1.374 . S
C3033 C3030 1.499 . S
C3033 C3034 1.373 . S
C3033 C3035 1.389 . S
C3034 H3007 0.950 . S
C3034 C3020 1.377 . S
C3034 C3033 1.373 . S
C3035 C3019 1.377 . S
C3035 C3033 1.389 . S
C3035 C3036 1.524 . S
C3036 C3035 1.524 . S
C3036 C3037 1.397 . S
C3036 C3041 1.363 . S
C3037 H3008 0.950 . S
C3037 C3036 1.397 . S
C3037 C3038 1.334 . S
C3038 H3009 0.950 . S
C3038 C3037 1.334 . S
C3038 C3039 1.287 . S
C3039 C3038 1.287 . S
C3039 C3040 1.524 . S
C3039 H3042 0.999 . S
C3040 H3010 0.950 . S
C3040 C3039 1.524 . S
C3040 C3041 1.415 . S
C3041 H3011 0.950 . S
C3041 C3036 1.363 . S
C3041 C3040 1.415 . S
H3042 C3039 0.999 . S
H3043 C3024 0.913 . S
H3044 C3062 0.951 . S
H3045 C3064 0.951 . S
H3046 C3066 0.950 . S
H3047 C3067 0.950 . S
H3048 C3069 0.950 . S
H3049 C3072 0.950 . S
H3050 C3073 0.950 . S
H3051 C3075 0.950 . S
H3052 C3076 0.950 . S
H3053 C3077 0.951 . S
H3054 C3079 0.951 . S
H3055 C3081 0.950 . S
H3056 C3082 0.950 . S
H3057 C3084 0.950 . S
H3058 C3087 0.950 . S
H3059 C3088 0.950 . S
H3060 C3090 0.950 . S
H3061 C3091 0.950 . S
C3062 H3044 0.951 . S
C3062 C3063 1.366 . S
C3062 C3064 1.388 . S
C3063 C3062 1.366 . S
C3063 C3067 1.385 . S
C3064 H3045 0.951 . S
C3064 C3062 1.388 . S
C3064 C3065 1.366 . S
C3065 C3064 1.366 . S
C3065 C3066 1.414 . S
C3065 C3068 1.499 . S
C3066 H3046 0.950 . S
C3066 C3065 1.414 . S
C3066 C3067 1.374 . S
C3067 H3047 0.950 . S
C3067 C3063 1.385 . S
C3067 C3066 1.374 . S
C3068 C3065 1.499 . S
C3068 C3069 1.373 . S
C3068 C3070 1.389 . S
C3069 H3048 0.950 . S
C3069 C3068 1.373 . S
C3069 C3085 1.377 . S
C3070 C3068 1.389 . S
C3070 C3071 1.524 . S
C3070 C3084 1.377 . S
C3071 C3070 1.524 . S
C3071 C3072 1.397 . S
C3071 C3076 1.363 . S
C3072 H3049 0.950 . S
C3072 C3071 1.397 . S
C3072 C3073 1.334 . S
C3073 H3050 0.950 . S
C3073 C3072 1.334 . S
C3073 C3074 1.287 . S
C3074 C3073 1.287 . S
C3074 C3075 1.524 . S
C3074 H3093 0.913 . S
C3075 H3051 0.950 . S
C3075 C3074 1.524 . S
C3075 C3076 1.415 . S
C3076 H3052 0.950 . S
C3076 C3071 1.363 . S
C3076 C3075 1.415 . S
C3077 H3053 0.951 . S
C3077 C3078 1.366 . S
C3077 C3079 1.388 . S
C3078 C3077 1.366 . S
C3078 C3082 1.385 . S
C3079 H3054 0.951 . S
C3079 C3077 1.388 . S
C3079 C3080 1.366 . S
C3080 C3079 1.366 . S
C3080 C3081 1.414 . S
C3080 C3083 1.499 . S
C3081 H3055 0.950 . S
C3081 C3080 1.414 . S
C3081 C3082 1.374 . S
C3082 H3056 0.950 . S
C3082 C3078 1.385 . S
C3082 C3081 1.374 . S
C3083 C3080 1.499 . S
C3083 C3084 1.373 . S
C3083 C3085 1.389 . S
C3084 H3057 0.950 . S
C3084 C3070 1.377 . S
C3084 C3083 1.373 . S
C3085 C3069 1.377 . S
C3085 C3083 1.389 . S
C3085 C3086 1.524 . S
C3086 C3085 1.524 . S
C3086 C3087 1.397 . S
C3086 C3091 1.363 . S
C3087 H3058 0.950 . S
C3087 C3086 1.397 . S
C3087 C3088 1.334 . S
C3088 H3059 0.950 . S
C3088 C3087 1.334 . S
C3088 C3089 1.287 . S
C3089 C3088 1.287 . S
C3089 C3090 1.524 . S
C3089 H3092 0.999 . S
C3090 H3060 0.950 . S
C3090 C3089 1.524 . S
C3090 C3091 1.415 . S
C3091 H3061 0.950 . S
C3091 C3086 1.363 . S
C3091 C3090 1.415 . S
H3092 C3089 0.999 . S
H3093 C3074 0.913 . S
H3094 C3112 0.951 . S
H3095 C3114 0.951 . S
H3096 C3116 0.950 . S
H3097 C3117 0.950 . S
H3098 C3119 0.950 . S
H3099 C3122 0.950 . S
H3100 C3123 0.950 . S
H3101 C3125 0.950 . S
H3102 C3126 0.950 . S
H3103 C3127 0.951 . S
H3104 C3129 0.951 . S
H3105 C3131 0.950 . S
H3106 C3132 0.950 . S
H3107 C3134 0.950 . S
H3108 C3137 0.950 . S
H3109 C3138 0.950 . S
H3110 C3140 0.950 . S
H3111 C3141 0.950 . S
C3112 H3094 0.951 . S
C3112 C3113 1.366 . S
C3112 C3114 1.388 . S
C3113 C3112 1.366 . S
C3113 C3117 1.385 . S
C3114 H3095 0.951 . S
C3114 C3112 1.388 . S
C3114 C3115 1.366 . S
C3115 C3114 1.366 . S
C3115 C3116 1.414 . S
C3115 C3118 1.499 . S
C3116 H3096 0.950 . S
C3116 C3115 1.414 . S
C3116 C3117 1.374 . S
C3117 H3097 0.950 . S
C3117 C3113 1.385 . S
C3117 C3116 1.374 . S
C3118 C3115 1.499 . S
C3118 C3119 1.373 . S
C3118 C3120 1.389 . S
C3119 H3098 0.950 . S
C3119 C3118 1.373 . S
C3119 C3135 1.377 . S
C3120 C3118 1.389 . S
C3120 C3121 1.524 . S
C3120 C3134 1.377 . S
C3121 C3120 1.524 . S
C3121 C3122 1.397 . S
C3121 C3126 1.363 . S
C3122 H3099 0.950 . S
C3122 C3121 1.397 . S
C3122 C3123 1.334 . S
C3123 H3100 0.950 . S
C3123 C3122 1.334 . S
C3123 C3124 1.287 . S
C3124 C3123 1.287 . S
C3124 C3125 1.524 . S
C3124 H3143 0.913 . S
C3125 H3101 0.950 . S
C3125 C3124 1.524 . S
C3125 C3126 1.415 . S
C3126 H3102 0.950 . S
C3126 C3121 1.363 . S
C3126 C3125 1.415 . S
C3127 H3103 0.951 . S
C3127 C3128 1.366 . S
C3127 C3129 1.388 . S
C3128 C3127 1.366 . S
C3128 C3132 1.385 . S
C3129 H3104 0.951 . S
C3129 C3127 1.388 . S
C3129 C3130 1.366 . S
C3130 C3129 1.366 . S
C3130 C3131 1.414 . S
C3130 C3133 1.499 . S
C3131 H3105 0.950 . S
C3131 C3130 1.414 . S
C3131 C3132 1.374 . S
C3132 H3106 0.950 . S
C3132 C3128 1.385 . S
C3132 C3131 1.374 . S
C3133 C3130 1.499 . S
C3133 C3134 1.373 . S
C3133 C3135 1.389 . S
C3134 H3107 0.950 . S
C3134 C3120 1.377 . S
C3134 C3133 1.373 . S
C3135 C3119 1.377 . S
C3135 C3133 1.389 . S
C3135 C3136 1.524 . S
C3136 C3135 1.524 . S
C3136 C3137 1.397 . S
C3136 C3141 1.363 . S
C3137 H3108 0.950 . S
C3137 C3136 1.397 . S
C3137 C3138 1.334 . S
C3138 H3109 0.950 . S
C3138 C3137 1.334 . S
C3138 C3139 1.287 . S
C3139 C3138 1.287 . S
C3139 C3140 1.524 . S
C3139 H3142 0.999 . S
C3140 H3110 0.950 . S
C3140 C3139 1.524 . S
C3140 C3141 1.415 . S
C3141 H3111 0.950 . S
C3141 C3136 1.363 . S
C3141 C3140 1.415 . S
H3142 C3139 0.999 . S
H3143 C3124 0.913 . S
H3144 C3162 0.951 . S
H3145 C3164 0.951 . S
H3146 C3166 0.950 . S
H3147 C3167 0.950 . S
H3148 C3169 0.950 . S
H3149 C3172 0.950 . S
H3150 C3173 0.950 . S
H3151 C3175 0.950 . S
H3152 C3176 0.950 . S
H3153 C3177 0.951 . S
H3154 C3179 0.951 . S
H3155 C3181 0.950 . S
H3156 C3182 0.950 . S
H3157 C3184 0.950 . S
H3158 C3187 0.950 . S
H3159 C3188 0.950 . S
H3160 C3190 0.950 . S
H3161 C3191 0.950 . S
C3162 H3144 0.951 . S
C3162 C3163 1.366 . S
C3162 C3164 1.388 . S
C3163 C3162 1.366 . S
C3163 C3167 1.385 . S
C3164 H3145 0.951 . S
C3164 C3162 1.388 . S
C3164 C3165 1.366 . S
C3165 C3164 1.366 . S
C3165 C3166 1.414 . S
C3165 C3168 1.499 . S
C3166 H3146 0.950 . S
C3166 C3165 1.414 . S
C3166 C3167 1.374 . S
C3167 H3147 0.950 . S
C3167 C3163 1.385 . S
C3167 C3166 1.374 . S
C3168 C3165 1.499 . S
C3168 C3169 1.373 . S
C3168 C3170 1.389 . S
C3169 H3148 0.950 . S
C3169 C3168 1.373 . S
C3169 C3185 1.377 . S
C3170 C3168 1.389 . S
C3170 C3171 1.524 . S
C3170 C3184 1.377 . S
C3171 C3170 1.524 . S
C3171 C3172 1.397 . S
C3171 C3176 1.363 . S
C3172 H3149 0.950 . S
C3172 C3171 1.397 . S
C3172 C3173 1.334 . S
C3173 H3150 0.950 . S
C3173 C3172 1.334 . S
C3173 C3174 1.287 . S
C3174 C3173 1.287 . S
C3174 C3175 1.524 . S
C3174 H3193 0.913 . S
C3175 H3151 0.950 . S
C3175 C3174 1.524 . S
C3175 C3176 1.415 . S
C3176 H3152 0.950 . S
C3176 C3171 1.363 . S
C3176 C3175 1.415 . S
C3177 H3153 0.951 . S
C3177 C3178 1.366 . S
C3177 C3179 1.388 . S
C3178 C3177 1.366 . S
C3178 C3182 1.385 . S
C3179 H3154 0.951 . S
C3179 C3177 1.388 . S
C3179 C3180 1.366 . S
C3180 C3179 1.366 . S
C3180 C3181 1.414 . S
C3180 C3183 1.499 . S
C3181 H3155 0.950 . S
C3181 C3180 1.414 . S
C3181 C3182 1.374 . S
C3182 H3156 0.950 . S
C3182 C3178 1.385 . S
C3182 C3181 1.374 . S
C3183 C3180 1.499 . S
C3183 C3184 1.373 . S
C3183 C3185 1.389 . S
C3184 H3157 0.950 . S
C3184 C3170 1.377 . S
C3184 C3183 1.373 . S
C3185 C3169 1.377 . S
C3185 C3183 1.389 . S
C3185 C3186 1.524 . S
C3186 C3185 1.524 . S
C3186 C3187 1.397 . S
C3186 C3191 1.363 . S
C3187 H3158 0.950 . S
C3187 C3186 1.397 . S
C3187 C3188 1.334 . S
C3188 H3159 0.950 . S
C3188 C3187 1.334 . S
C3188 C3189 1.287 . S
C3189 C3188 1.287 . S
C3189 C3190 1.524 . S
C3189 H3192 0.999 . S
C3190 H3160 0.950 . S
C3190 C3189 1.524 . S
C3190 C3191 1.415 . S
C3191 H3161 0.950 . S
C3191 C3186 1.363 . S
C3191 C3190 1.415 . S
H3192 C3189 0.999 . S
H3193 C3174 0.913 . S
H3194 C3212 0.951 . S
H3195 C3214 0.951 . S
H3196 C3216 0.950 . S
H3197 C3217 0.950 . S
H3198 C3219 0.950 . S
H3199 C3222 0.950 . S
H3200 C3223 0.950 . S
H3201 C3225 0.950 . S
H3202 C3226 0.950 . S
H3203 C3227 0.951 . S
H3204 C3229 0.951 . S
H3205 C3231 0.950 . S
H3206 C3232 0.950 . S
H3207 C3234 0.950 . S
H3208 C3237 0.950 . S
H3209 C3238 0.950 . S
H3210 C3240 0.950 . S
H3211 C3241 0.950 . S
C3212 H3194 0.951 . S
C3212 C3213 1.366 . S
C3212 C3214 1.388 . S
C3213 C3212 1.366 . S
C3213 C3217 1.385 . S
C3214 H3195 0.951 . S
C3214 C3212 1.388 . S
C3214 C3215 1.366 . S
C3215 C3214 1.366 . S
C3215 C3216 1.414 . S
C3215 C3218 1.499 . S
C3216 H3196 0.950 . S
C3216 C3215 1.414 . S
C3216 C3217 1.374 . S
C3217 H3197 0.950 . S
C3217 C3213 1.385 . S
C3217 C3216 1.374 . S
C3218 C3215 1.499 . S
C3218 C3219 1.373 . S
C3218 C3220 1.389 . S
C3219 H3198 0.950 . S
C3219 C3218 1.373 . S
C3219 C3235 1.377 . S
C3220 C3218 1.389 . S
C3220 C3221 1.524 . S
C3220 C3234 1.377 . S
C3221 C3220 1.524 . S
C3221 C3222 1.397 . S
C3221 C3226 1.363 . S
C3222 H3199 0.950 . S
C3222 C3221 1.397 . S
C3222 C3223 1.334 . S
C3223 H3200 0.950 . S
C3223 C3222 1.334 . S
C3223 C3224 1.287 . S
C3224 C3223 1.287 . S
C3224 C3225 1.524 . S
C3224 H3243 0.913 . S
C3225 H3201 0.950 . S
C3225 C3224 1.524 . S
C3225 C3226 1.415 . S
C3226 H3202 0.950 . S
C3226 C3221 1.363 . S
C3226 C3225 1.415 . S
C3227 H3203 0.951 . S
C3227 C3228 1.366 . S
C3227 C3229 1.388 . S
C3228 C3227 1.366 . S
C3228 C3232 1.385 . S
C3229 H3204 0.951 . S
C3229 C3227 1.388 . S
C3229 C3230 1.366 . S
C3230 C3229 1.366 . S
C3230 C3231 1.414 . S
C3230 C3233 1.499 . S
C3231 H3205 0.950 . S
C3231 C3230 1.414 . S
C3231 C3232 1.374 . S
C3232 H3206 0.950 . S
C3232 C3228 1.385 . S
C3232 C3231 1.374 . S
C3233 C3230 1.499 . S
C3233 C3234 1.373 . S
C3233 C3235 1.389 . S
C3234 H3207 0.950 . S
C3234 C3220 1.377 . S
C3234 C3233 1.373 . S
C3235 C3219 1.377 . S
C3235 C3233 1.389 . S
C3235 C3236 1.524 . S
C3236 C3235 1.524 . S
C3236 C3237 1.397 . S
C3236 C3241 1.363 . S
C3237 H3208 0.950 . S
C3237 C3236 1.397 . S
C3237 C3238 1.334 . S
C3238 H3209 0.950 . S
C3238 C3237 1.334 . S
C3238 C3239 1.287 . S
C3239 C3238 1.287 . S
C3239 C3240 1.524 . S
C3239 H3242 0.999 . S
C3240 H3210 0.950 . S
C3240 C3239 1.524 . S
C3240 C3241 1.415 . S
C3241 H3211 0.950 . S
C3241 C3236 1.363 . S
C3241 C3240 1.415 . S
H3242 C3239 0.999 . S
H3243 C3224 0.913 . S
H3244 C3262 0.951 . S
H3245 C3264 0.951 . S
H3246 C3266 0.950 . S
H3247 C3267 0.950 . S
H3248 C3269 0.950 . S
H3249 C3272 0.950 . S
H3250 C3273 0.950 . S
H3251 C3275 0.950 . S
H3252 C3276 0.950 . S
H3253 C3277 0.951 . S
H3254 C3279 0.951 . S
H3255 C3281 0.950 . S
H3256 C3282 0.950 . S
H3257 C3284 0.950 . S
H3258 C3287 0.950 . S
H3259 C3288 0.950 . S
H3260 C3290 0.950 . S
H3261 C3291 0.950 . S
C3262 H3244 0.951 . S
C3262 C3263 1.366 . S
C3262 C3264 1.388 . S
C3263 C3262 1.366 . S
C3263 C3267 1.385 . S
C3264 H3245 0.951 . S
C3264 C3262 1.388 . S
C3264 C3265 1.366 . S
C3265 C3264 1.366 . S
C3265 C3266 1.414 . S
C3265 C3268 1.499 . S
C3266 H3246 0.950 . S
C3266 C3265 1.414 . S
C3266 C3267 1.374 . S
C3267 H3247 0.950 . S
C3267 C3263 1.385 . S
C3267 C3266 1.374 . S
C3268 C3265 1.499 . S
C3268 C3269 1.373 . S
C3268 C3270 1.389 . S
C3269 H3248 0.950 . S
C3269 C3268 1.373 . S
C3269 C3285 1.377 . S
C3270 C3268 1.389 . S
C3270 C3271 1.524 . S
C3270 C3284 1.377 . S
C3271 C3270 1.524 . S
C3271 C3272 1.397 . S
C3271 C3276 1.363 . S
C3272 H3249 0.950 . S
C3272 C3271 1.397 . S
C3272 C3273 1.334 . S
C3273 H3250 0.950 . S
C3273 C3272 1.334 . S
C3273 C3274 1.287 . S
C3274 C3273 1.287 . S
C3274 C3275 1.524 . S
C3274 H3293 0.913 . S
C3275 H3251 0.950 . S
C3275 C3274 1.524 . S
C3275 C3276 1.415 . S
C3276 H3252 0.950 . S
C3276 C3271 1.363 . S
C3276 C3275 1.415 . S
C3277 H3253 0.951 . S
C3277 C3278 1.366 . S
C3277 C3279 1.388 . S
C3278 C3277 1.366 . S
C3278 C3282 1.385 . S
C3279 H3254 0.951 . S
C3279 C3277 1.388 . S
C3279 C3280 1.366 . S
C3280 C3279 1.366 . S
C3280 C3281 1.414 . S
C3280 C3283 1.499 . S
C3281 H3255 0.950 . S
C3281 C3280 1.414 . S
C3281 C3282 1.374 . S
C3282 H3256 0.950 . S
C3282 C3278 1.385 . S
C3282 C3281 1.374 . S
C3283 C3280 1.499 . S
C3283 C3284 1.373 . S
C3283 C3285 1.389 . S
C3284 H3257 0.950 . S
C3284 C3270 1.377 . S
C3284 C3283 1.373 . S
C3285 C3269 1.377 . S
C3285 C3283 1.389 . S
C3285 C3286 1.524 . S
C3286 C3285 1.524 . S
C3286 C3287 1.397 . S
C3286 C3291 1.363 . S
C3287 H3258 0.950 . S
C3287 C3286 1.397 . S
C3287 C3288 1.334 . S
C3288 H3259 0.950 . S
C3288 C3287 1.334 . S
C3288 C3289 1.287 . S
C3289 C3288 1.287 . S
C3289 C3290 1.524 . S
C3289 H3292 0.999 . S
C3290 H3260 0.950 . S
C3290 C3289 1.524 . S
C3290 C3291 1.415 . S
C3291 H3261 0.950 . S
C3291 C3286 1.363 . S
C3291 C3290 1.415 . S
H3292 C3289 0.999 . S
H3293 C3274 0.913 . S
C613 C177 1.690 . S
C628 C246 1.699 . S
C663 C190 1.848 . S
C678 C286 1.846 . S
C713 C164 1.609 . S
C728 C316 1.595 . S
C763 C151 1.466 . S
C778 C276 1.461 . S
C828 C326 1.492 1_556 S
C813 C125 1.493 . S
C863 C138 1.314 . S
C878 C236 1.308 . S
C928 C265 1.684 1_556 S
C913 C147 1.642 . S
C978 C305 1.711 . S
C963 C121 1.652 . S
C1013 C134 1.632 . S
C1028 C331 1.691 . S
C1063 C173 1.454 . S
C1078 C291 1.494 . S
C1113 C186 1.410 . S
C1128 C345 1.443 . S
C1178 C251 1.431 . S
C1163 C160 1.392 . S
C1228 C366 1.698 . S
C1213 C21 1.689 . S
C1263 C34 1.848 . S
C1278 C406 1.846 . S
C1313 C8 1.609 . S
C1328 C436 1.595 . S
C1363 C229 1.466 . S
C1378 C396 1.444 . S
C1413 C203 1.493 . S
C1428 C446 1.493 . S
C1463 C216 1.314 . S
C1478 C356 1.308 . S
C1513 C225 1.642 . S
C1528 C385 1.684 . S
C1563 C199 1.652 . S
C1578 C425 1.711 . S
C1628 C451 1.690 . S
C1613 C212 1.632 . S
C1663 C17 1.454 . S
C1678 C411 1.494 . S
C1728 C465 1.443 . S
C1713 C30 1.410 . S
C1763 C4 1.392 . S
C1778 C371 1.431 . S
C1828 C486 1.699 . S
C1813 C99 1.690 . S
C1863 C112 1.848 . S
C1878 C526 1.846 . S
C1928 C556 1.594 . S
C1913 C86 1.609 . S
C1978 C516 1.444 . S
C1963 C73 1.466 . S
C2028 C566 1.492 . S
C2013 C47 1.493 . S
C2063 C60 1.314 . S
C2078 C476 1.309 . S
C2113 C69 1.643 . S
C2128 C505 1.684 . S
C2163 C43 1.651 . S
C2178 C545 1.711 . S
C2228 C571 1.690 . S
C2213 C56 1.632 . S
C2263 C95 1.455 . S
C2278 C531 1.495 . S
C2313 C108 1.410 . S
C2328 C585 1.443 . S
C2363 C82 1.393 . S
C2378 C491 1.431 . S
C2413 C204 1.412 . S
C2428 C263 1.390 . S
C2478 C303 1.965 . S
C2463 C217 1.995 . S
C2513 C230 1.567 . S
C2528 C322 1.581 . S
C2563 C87 1.838 . S
C2578 C282 1.842 . S
C2613 C100 1.692 . S
C2628 C343 1.675 . S
C2678 C242 1.248 . S
C2663 C113 1.241 . S
C2713 C48 1.413 . S
C2728 C383 1.391 . S
C2763 C61 1.995 . S
C2778 C423 1.965 . S
C2813 C74 1.566 . S
C2828 C442 1.580 . S
C2863 C165 1.838 . S
C2878 C402 1.842 . S
C2928 C463 1.676 . S
C2913 C178 1.692 . S
C2963 C191 1.240 . S
C2978 C362 1.248 . S
C3013 C126 1.412 . S
C3028 C503 1.390 . S
C3063 C139 1.995 . S
C3078 C543 1.966 . S
C3128 C562 1.580 . S
C3113 C152 1.566 . S
C3163 C9 1.838 . S
C3178 C522 1.842 . S
C3213 C22 1.693 . S
C3228 C583 1.676 . S
C3263 C35 1.241 . S
C3278 C482 1.248 . S
