# Generated by pormake.
# Topology eea, (3,6)-cn, num edge types: 1
# Building blocks:
#     Node 0, Type 0, BuildingBlock: PAMTOO_clean_linker_0, # of connection points: 3
#     Node 1, Type 0, BuildingBlock: PAMTOO_clean_linker_0, # of connection points: 3
#     Node 2, Type 0, BuildingBlock: PAMTOO_clean_linker_0, # of connection points: 3
#     Node 3, Type 0, BuildingBlock: PAMTOO_clean_linker_0, # of connection points: 3
#     Node 4, Type 0, BuildingBlock: PAMTOO_clean_linker_0, # of connection points: 3
#     Node 5, Type 0, BuildingBlock: PAMTOO_clean_linker_0, # of connection points: 3
#     Node 6, Type 0, BuildingBlock: PAMTOO_clean_linker_0, # of connection points: 3
#     Node 7, Type 0, BuildingBlock: PAMTOO_clean_linker_0, # of connection points: 3
#     Node 8, Type 0, BuildingBlock: PAMTOO_clean_linker_0, # of connection points: 3
#     Node 9, Type 0, BuildingBlock: PAMTOO_clean_linker_0, # of connection points: 3
#     Node 10, Type 0, BuildingBlock: PAMTOO_clean_linker_0, # of connection points: 3
#     Node 11, Type 0, BuildingBlock: PAMTOO_clean_linker_0, # of connection points: 3
#     Node 12, Type 0, BuildingBlock: PAMTOO_clean_linker_0, # of connection points: 3
#     Node 13, Type 0, BuildingBlock: PAMTOO_clean_linker_0, # of connection points: 3
#     Node 14, Type 0, BuildingBlock: PAMTOO_clean_linker_0, # of connection points: 3
#     Node 15, Type 0, BuildingBlock: PAMTOO_clean_linker_0, # of connection points: 3
#     Node 16, Type 0, BuildingBlock: PAMTOO_clean_linker_0, # of connection points: 3
#     Node 17, Type 0, BuildingBlock: PAMTOO_clean_linker_0, # of connection points: 3
#     Node 18, Type 1, BuildingBlock: KUMJIN_clean_sbu_0, # of connection points: 6
#     Node 19, Type 1, BuildingBlock: KUMJIN_clean_sbu_0, # of connection points: 6
#     Node 20, Type 1, BuildingBlock: KUMJIN_clean_sbu_0, # of connection points: 6
#     Node 21, Type 1, BuildingBlock: KUMJIN_clean_sbu_0, # of connection points: 6
#     Node 22, Type 1, BuildingBlock: KUMJIN_clean_sbu_0, # of connection points: 6
#     Node 23, Type 1, BuildingBlock: KUMJIN_clean_sbu_0, # of connection points: 6
#     Node 24, Type 1, BuildingBlock: KUMJIN_clean_sbu_0, # of connection points: 6
#     Node 25, Type 1, BuildingBlock: KUMJIN_clean_sbu_0, # of connection points: 6
#     Node 26, Type 1, BuildingBlock: KUMJIN_clean_sbu_0, # of connection points: 6
#     Edge 27, Type (0, 1), BuildingBlock: TEMPAE_clean_linker_10, # of connection points: 2
#     Edge 28, Type (0, 1), BuildingBlock: TEMPAE_clean_linker_10, # of connection points: 2
#     Edge 29, Type (0, 1), BuildingBlock: TEMPAE_clean_linker_10, # of connection points: 2
#     Edge 30, Type (0, 1), BuildingBlock: TEMPAE_clean_linker_10, # of connection points: 2
#     Edge 31, Type (0, 1), BuildingBlock: TEMPAE_clean_linker_10, # of connection points: 2
#     Edge 32, Type (0, 1), BuildingBlock: TEMPAE_clean_linker_10, # of connection points: 2
#     Edge 33, Type (0, 1), BuildingBlock: TEMPAE_clean_linker_10, # of connection points: 2
#     Edge 34, Type (0, 1), BuildingBlock: TEMPAE_clean_linker_10, # of connection points: 2
#     Edge 35, Type (0, 1), BuildingBlock: TEMPAE_clean_linker_10, # of connection points: 2
#     Edge 36, Type (0, 1), BuildingBlock: TEMPAE_clean_linker_10, # of connection points: 2
#     Edge 37, Type (0, 1), BuildingBlock: TEMPAE_clean_linker_10, # of connection points: 2
#     Edge 38, Type (0, 1), BuildingBlock: TEMPAE_clean_linker_10, # of connection points: 2
#     Edge 39, Type (0, 1), BuildingBlock: TEMPAE_clean_linker_10, # of connection points: 2
#     Edge 40, Type (0, 1), BuildingBlock: TEMPAE_clean_linker_10, # of connection points: 2
#     Edge 41, Type (0, 1), BuildingBlock: TEMPAE_clean_linker_10, # of connection points: 2
#     Edge 42, Type (0, 1), BuildingBlock: TEMPAE_clean_linker_10, # of connection points: 2
#     Edge 43, Type (0, 1), BuildingBlock: TEMPAE_clean_linker_10, # of connection points: 2
#     Edge 44, Type (0, 1), BuildingBlock: TEMPAE_clean_linker_10, # of connection points: 2
#     Edge 45, Type (0, 1), BuildingBlock: TEMPAE_clean_linker_10, # of connection points: 2
#     Edge 46, Type (0, 1), BuildingBlock: TEMPAE_clean_linker_10, # of connection points: 2
#     Edge 47, Type (0, 1), BuildingBlock: TEMPAE_clean_linker_10, # of connection points: 2
#     Edge 48, Type (0, 1), BuildingBlock: TEMPAE_clean_linker_10, # of connection points: 2
#     Edge 49, Type (0, 1), BuildingBlock: TEMPAE_clean_linker_10, # of connection points: 2
#     Edge 50, Type (0, 1), BuildingBlock: TEMPAE_clean_linker_10, # of connection points: 2
#     Edge 51, Type (0, 1), BuildingBlock: TEMPAE_clean_linker_10, # of connection points: 2
#     Edge 52, Type (0, 1), BuildingBlock: TEMPAE_clean_linker_10, # of connection points: 2
#     Edge 53, Type (0, 1), BuildingBlock: TEMPAE_clean_linker_10, # of connection points: 2
#     Edge 54, Type (0, 1), BuildingBlock: TEMPAE_clean_linker_10, # of connection points: 2
#     Edge 55, Type (0, 1), BuildingBlock: TEMPAE_clean_linker_10, # of connection points: 2
#     Edge 56, Type (0, 1), BuildingBlock: TEMPAE_clean_linker_10, # of connection points: 2
#     Edge 57, Type (0, 1), BuildingBlock: TEMPAE_clean_linker_10, # of connection points: 2
#     Edge 58, Type (0, 1), BuildingBlock: TEMPAE_clean_linker_10, # of connection points: 2
#     Edge 59, Type (0, 1), BuildingBlock: TEMPAE_clean_linker_10, # of connection points: 2
#     Edge 60, Type (0, 1), BuildingBlock: TEMPAE_clean_linker_10, # of connection points: 2
#     Edge 61, Type (0, 1), BuildingBlock: TEMPAE_clean_linker_10, # of connection points: 2
#     Edge 62, Type (0, 1), BuildingBlock: TEMPAE_clean_linker_10, # of connection points: 2
#     Edge 63, Type (0, 1), BuildingBlock: TEMPAE_clean_linker_10, # of connection points: 2
#     Edge 64, Type (0, 1), BuildingBlock: TEMPAE_clean_linker_10, # of connection points: 2
#     Edge 65, Type (0, 1), BuildingBlock: TEMPAE_clean_linker_10, # of connection points: 2
#     Edge 66, Type (0, 1), BuildingBlock: TEMPAE_clean_linker_10, # of connection points: 2
#     Edge 67, Type (0, 1), BuildingBlock: TEMPAE_clean_linker_10, # of connection points: 2
#     Edge 68, Type (0, 1), BuildingBlock: TEMPAE_clean_linker_10, # of connection points: 2
#     Edge 69, Type (0, 1), BuildingBlock: TEMPAE_clean_linker_10, # of connection points: 2
#     Edge 70, Type (0, 1), BuildingBlock: TEMPAE_clean_linker_10, # of connection points: 2
#     Edge 71, Type (0, 1), BuildingBlock: TEMPAE_clean_linker_10, # of connection points: 2
#     Edge 72, Type (0, 1), BuildingBlock: TEMPAE_clean_linker_10, # of connection points: 2
#     Edge 73, Type (0, 1), BuildingBlock: TEMPAE_clean_linker_10, # of connection points: 2
#     Edge 74, Type (0, 1), BuildingBlock: TEMPAE_clean_linker_10, # of connection points: 2
#     Edge 75, Type (0, 1), BuildingBlock: TEMPAE_clean_linker_10, # of connection points: 2
#     Edge 76, Type (0, 1), BuildingBlock: TEMPAE_clean_linker_10, # of connection points: 2
#     Edge 77, Type (0, 1), BuildingBlock: TEMPAE_clean_linker_10, # of connection points: 2
#     Edge 78, Type (0, 1), BuildingBlock: TEMPAE_clean_linker_10, # of connection points: 2
#     Edge 79, Type (0, 1), BuildingBlock: TEMPAE_clean_linker_10, # of connection points: 2
#     Edge 80, Type (0, 1), BuildingBlock: TEMPAE_clean_linker_10, # of connection points: 2
# Relax obj value: 0.023
# Max RMSD: 0.165
# Mean RMSD: 0.119
data_MOF--net-eea--node1-KUMJIN_clean_sbu_0--node2-PAMTOO_clean_linker_0--edge1-TEMPAE_clean_linker_10
_symmetry_space_group_name_H-M    P1
_symmetry_Int_Tables_number       1
_symmetry_cell_setting            triclinic
loop_
_symmetry_equiv_pos_as_xyz
'x, y, z'
_cell_length_a     54.916106
_cell_length_b     56.563013
_cell_length_c     67.263761
_cell_angle_alpha  90.033907
_cell_angle_beta   90.019069
_cell_angle_gamma 120.00579
loop_
_atom_site_label
_atom_site_type_symbol
_atom_site_fract_x
_atom_site_fract_y
_atom_site_fract_z
_atom_type_partial_charge
H0 H 0.24884 0.07378 0.43319 0.0
H1 H 0.24578 0.14849 0.43197 0.0
H2 H 0.21101 0.09168 0.38372 0.0
H3 H 0.24115 0.15095 0.37138 0.0
C4 C 0.23914 0.15971 0.38569 0.0
O5 O 0.22041 0.13869 0.39773 0.0
H6 H 0.26021 0.17084 0.39288 0.0
C7 C 0.24324 0.08743 0.42582 0.0
C8 C 0.22943 0.07983 0.40737 0.0
C9 C 0.2492 0.1121 0.435 0.0
C10 C 0.24102 0.12913 0.42544 0.0
C11 C 0.22744 0.12178 0.40698 0.0
C12 C 0.22144 0.0971 0.39804 0.0
H13 H 0.95066 0.1773 0.42853 0.0
H14 H 0.88018 0.09537 0.42606 0.0
H15 H 0.93824 0.12618 0.37753 0.0
H16 H 0.87663 0.08918 0.36411 0.0
C17 C 0.86869 0.08048 0.37911 0.0
O18 O 0.89133 0.08479 0.39074 0.0
H19 H 0.85798 0.09101 0.38558 0.0
C20 C 0.93905 0.15785 0.42098 0.0
C21 C 0.94817 0.15437 0.40216 0.0
C22 C 0.91455 0.1368 0.42984 0.0
C23 C 0.89896 0.11204 0.41953 0.0
C24 C 0.90723 0.10851 0.40062 0.0
C25 C 0.93183 0.12951 0.39201 0.0
H26 H 0.84093 0.78022 0.43638 0.0
H27 H 0.92321 0.78881 0.43242 0.0
H28 H 0.89027 0.81155 0.3829 0.0
H29 H 0.92346 0.78427 0.37144 0.0
C30 C 0.93676 0.78923 0.38499 0.0
O31 O 0.93331 0.80783 0.39628 0.0
H32 H 0.92945 0.76996 0.39349 0.0
C33 C 0.85992 0.78603 0.42801 0.0
C34 C 0.86247 0.79621 0.40849 0.0
C35 C 0.88168 0.78346 0.43699 0.0
C36 C 0.90628 0.79087 0.42599 0.0
C37 C 0.90921 0.80062 0.40648 0.0
C38 C 0.88741 0.80338 0.39781 0.0
H39 H 0.07069 0.22972 0.59748 0.0
H40 H 0.14013 0.21408 0.5977 0.0
H41 H 0.08413 0.19008 0.64721 0.0
H42 H 0.14478 0.21735 0.65915 0.0
C43 C 0.15363 0.21397 0.64526 0.0
O44 O 0.1316 0.19535 0.63354 0.0
H45 H 0.16534 0.23394 0.63746 0.0
C46 C 0.08234 0.22101 0.60412 0.0
C47 C 0.07333 0.20818 0.62278 0.0
C48 C 0.10628 0.22332 0.5944 0.0
C49 C 0.12194 0.21338 0.60446 0.0
C50 C 0.11464 0.20251 0.62368 0.0
C51 C 0.0901 0.19945 0.63266 0.0
H52 H 0.80677 0.84934 0.58648 0.0
H53 H 0.80335 0.9236 0.59049 0.0
H54 H 0.82002 0.89047 0.6427 0.0
H55 H 0.78371 0.91694 0.6504 0.0
C56 C 0.78982 0.92937 0.63657 0.0
O57 O 0.81332 0.93 0.62864 0.0
H58 H 0.77189 0.91984 0.62594 0.0
C59 C 0.80894 0.86649 0.59511 0.0
C60 C 0.81451 0.86768 0.61556 0.0
C61 C 0.80472 0.88642 0.58587 0.0
C62 C 0.80642 0.90794 0.59733 0.0
C63 C 0.81176 0.90922 0.61778 0.0
C64 C 0.81573 0.88914 0.62688 0.0
H65 H 0.16658 0.93738 0.59165 0.0
H66 H 0.08895 0.86094 0.59668 0.0
H67 H 0.11734 0.91786 0.64526 0.0
H68 H 0.0891 0.85885 0.65792 0.0
C69 C 0.07639 0.84947 0.64429 0.0
O70 O 0.07728 0.86994 0.63255 0.0
H71 H 0.08581 0.83878 0.63624 0.0
C72 C 0.1479 0.92366 0.60001 0.0
C73 C 0.14432 0.93099 0.61931 0.0
C74 C 0.12827 0.89837 0.59172 0.0
C75 C 0.1045 0.8804 0.60289 0.0
C76 C 0.10056 0.88739 0.62214 0.0
C77 C 0.12056 0.91257 0.63039 0.0
H78 H 0.9124 0.40092 0.76649 0.0
H79 H 0.90632 0.47386 0.76321 0.0
H80 H 0.87298 0.41502 0.71604 0.0
H81 H 0.90051 0.47367 0.70181 0.0
C82 C 0.89959 0.48286 0.71621 0.0
O83 O 0.88124 0.46225 0.7287 0.0
H84 H 0.9211 0.49376 0.72276 0.0
C85 C 0.90565 0.41348 0.75877 0.0
C86 C 0.89189 0.40481 0.74035 0.0
C87 C 0.91097 0.43835 0.76718 0.0
C88 C 0.9024 0.45459 0.75697 0.0
C89 C 0.88883 0.44617 0.73857 0.0
C90 C 0.88336 0.42125 0.73036 0.0
H91 H 0.62657 0.49608 0.77031 0.0
H92 H 0.54896 0.42048 0.76569 0.0
H93 H 0.5951 0.45855 0.71281 0.0
H94 H 0.53046 0.42343 0.7067 0.0
C95 C 0.52664 0.41175 0.72075 0.0
O96 O 0.55195 0.415 0.72746 0.0
H97 H 0.51766 0.41996 0.7318 0.0
C98 C 0.61101 0.48016 0.76097 0.0
C99 C 0.61459 0.48104 0.74008 0.0
C100 C 0.58701 0.45909 0.77024 0.0
C101 C 0.5672 0.43727 0.75873 0.0
C102 C 0.57064 0.43696 0.73816 0.0
C103 C 0.59378 0.45898 0.72882 0.0
H104 H 0.50826 0.11034 0.76747 0.0
H105 H 0.58909 0.11546 0.76471 0.0
H106 H 0.56229 0.14691 0.71672 0.0
H107 H 0.5929 0.11805 0.70399 0.0
C108 C 0.60566 0.12111 0.71761 0.0
O109 O 0.60284 0.1391 0.73005 0.0
H110 H 0.59729 0.10094 0.72503 0.0
C111 C 0.52783 0.11656 0.75974 0.0
C112 C 0.53246 0.12936 0.74102 0.0
C113 C 0.54803 0.11147 0.7686 0.0
C114 C 0.57336 0.11948 0.75841 0.0
C115 C 0.57836 0.13195 0.73969 0.0
C116 C 0.55799 0.13694 0.73107 0.0
H117 H 0.74257 0.56615 0.93036 0.0
H118 H 0.81546 0.55665 0.93356 0.0
H119 H 0.75609 0.52821 0.98157 0.0
H120 H 0.81631 0.55349 0.99501 0.0
C121 C 0.82562 0.5512 0.98096 0.0
O122 O 0.80397 0.53367 0.96851 0.0
H123 H 0.83775 0.57175 0.97401 0.0
C124 C 0.75491 0.55906 0.93825 0.0
C125 C 0.74573 0.54643 0.95696 0.0
C126 C 0.77988 0.56277 0.92956 0.0
C127 C 0.79599 0.55373 0.93987 0.0
C128 C 0.78767 0.54167 0.95868 0.0
C129 C 0.76254 0.53795 0.96717 0.0
H130 H 0.43206 0.16594 0.93412 0.0
H131 H 0.4506 0.24984 0.93173 0.0
H132 H 0.47752 0.22178 0.98132 0.0
H133 H 0.45345 0.25619 0.99371 0.0
C134 C 0.4545 0.26572 0.97903 0.0
O135 O 0.47251 0.26195 0.96685 0.0
H136 H 0.43294 0.25577 0.97256 0.0
C137 C 0.44143 0.18635 0.94017 0.0
C138 C 0.45604 0.19172 0.95828 0.0
C139 C 0.43926 0.20705 0.92996 0.0
C140 C 0.4512 0.23306 0.93892 0.0
C141 C 0.46399 0.23788 0.95761 0.0
C142 C 0.46704 0.21755 0.96702 0.0
H143 H 0.83335 0.27276 0.91991 0.0
H144 H 0.75352 0.19864 0.92539 0.0
H145 H 0.78233 0.25832 0.9721 0.0
H146 H 0.75429 0.20229 0.98695 0.0
C147 C 0.74144 0.19124 0.97372 0.0
O148 O 0.74188 0.21016 0.9605 0.0
H149 H 0.75095 0.17988 0.96677 0.0
C150 C 0.81423 0.26005 0.92819 0.0
C151 C 0.81043 0.26884 0.94689 0.0
C152 C 0.79391 0.23481 0.92021 0.0
C153 C 0.76939 0.21824 0.9312 0.0
C154 C 0.76522 0.22675 0.94983 0.0
C155 C 0.78557 0.25212 0.95756 0.0
H156 H 0.57946 0.73788 0.10215 0.0
H157 H 0.57874 0.81348 0.0967 0.0
H158 H 0.54763 0.75536 0.04904 0.0
H159 H 0.57777 0.81548 0.03564 0.0
C160 C 0.57533 0.8239 0.04997 0.0
O161 O 0.55584 0.80265 0.06149 0.0
H162 H 0.5961 0.83457 0.0576 0.0
C163 C 0.57475 0.75144 0.09373 0.0
C164 C 0.56283 0.74356 0.07471 0.0
C165 C 0.58094 0.77677 0.10182 0.0
C166 C 0.57415 0.79382 0.09084 0.0
C167 C 0.56233 0.78611 0.07185 0.0
C168 C 0.5569 0.76117 0.06372 0.0
H169 H 0.28615 0.84229 0.0987 0.0
H170 H 0.21566 0.76023 0.09726 0.0
H171 H 0.27565 0.78864 0.04983 0.0
H172 H 0.21716 0.74819 0.03444 0.0
C173 C 0.20769 0.74303 0.04954 0.0
O174 O 0.22843 0.74764 0.06321 0.0
H175 H 0.19876 0.75655 0.0526 0.0
C176 C 0.27475 0.82245 0.09163 0.0
C177 C 0.28447 0.81806 0.07338 0.0
C178 C 0.24992 0.80185 0.10048 0.0
C179 C 0.23468 0.77657 0.09073 0.0
C180 C 0.24379 0.772 0.07246 0.0
C181 C 0.26867 0.79261 0.06385 0.0
H182 H 0.17887 0.44515 0.09851 0.0
H183 H 0.26041 0.45188 0.0968 0.0
H184 H 0.23319 0.48139 0.04778 0.0
H185 H 0.26446 0.45314 0.0356 0.0
C186 C 0.27708 0.45635 0.04932 0.0
O187 O 0.27394 0.47429 0.06162 0.0
H188 H 0.26878 0.43623 0.05681 0.0
C189 C 0.19875 0.452 0.09102 0.0
C190 C 0.20329 0.46425 0.07208 0.0
C191 C 0.21911 0.44744 0.10016 0.0
C192 C 0.24438 0.45508 0.09002 0.0
C193 C 0.24933 0.46704 0.07112 0.0
C194 C 0.22888 0.47172 0.06224 0.0
H195 H 0.40233 0.89804 0.26364 0.0
H196 H 0.47529 0.88872 0.26742 0.0
H197 H 0.41588 0.86089 0.31537 0.0
H198 H 0.47643 0.88712 0.32881 0.0
C199 C 0.48569 0.88459 0.31482 0.0
O200 O 0.46399 0.86655 0.30261 0.0
H201 H 0.49752 0.90497 0.30758 0.0
C202 C 0.41462 0.89102 0.27169 0.0
C203 C 0.40541 0.87862 0.29048 0.0
C204 C 0.43964 0.89463 0.26313 0.0
C205 C 0.45577 0.88581 0.27363 0.0
C206 C 0.4475 0.8741 0.29253 0.0
C207 C 0.4223 0.8704 0.30089 0.0
H208 H 0.10764 0.50813 0.26108 0.0
H209 H 0.12303 0.59092 0.26304 0.0
H210 H 0.14753 0.55908 0.31181 0.0
H211 H 0.12218 0.59234 0.32548 0.0
C212 C 0.12316 0.60205 0.31091 0.0
O213 O 0.14251 0.59998 0.299 0.0
H214 H 0.10185 0.59125 0.30404 0.0
C215 C 0.11589 0.52772 0.26835 0.0
C216 C 0.12882 0.53139 0.287 0.0
C217 C 0.11367 0.549 0.25916 0.0
C218 C 0.12398 0.57388 0.26948 0.0
C219 C 0.13538 0.57706 0.28856 0.0
C220 C 0.13837 0.55616 0.29711 0.0
H221 H 0.50774 0.60314 0.25938 0.0
H222 H 0.42774 0.52864 0.26282 0.0
H223 H 0.45251 0.5887 0.30897 0.0
H224 H 0.42364 0.53294 0.32384 0.0
C225 C 0.41137 0.52177 0.31044 0.0
O226 O 0.41304 0.54057 0.29659 0.0
H227 H 0.42077 0.50984 0.30431 0.0
C228 C 0.48822 0.59004 0.26712 0.0
C229 C 0.48277 0.59893 0.28523 0.0
C230 C 0.46856 0.56479 0.25872 0.0
C231 C 0.44301 0.54842 0.26872 0.0
C232 C 0.43729 0.55703 0.28679 0.0
C233 C 0.457 0.58236 0.2949 0.0
Eu234 Eu 0.49775 0.99228 0.99127 0.0
C235 C 0.55174 0.0823 0.05785 0.0
C236 C 0.60094 0.09544 0.05826 0.0
C237 C 0.58679 0.12804 0.06836 0.0
C238 C 0.57264 0.07614 0.05406 0.0
C239 C 0.55848 0.10806 0.06558 0.0
C240 C 0.608 0.12168 0.06481 0.0
C241 C 0.50881 0.09095 0.07017 0.0
N242 N 0.52465 0.06218 0.0558 0.0
C243 C 0.50327 0.06562 0.06277 0.0
C244 C 0.53653 0.11244 0.07125 0.0
Eu245 Eu 0.51633 0.01991 0.04275 0.0
N246 N 0.56504 0.05047 0.048 0.0
C247 C 0.58466 0.0424 0.04683 0.0
C248 C 0.62111 0.08735 0.0567 0.0
C249 C 0.61294 0.06073 0.05094 0.0
H250 H 0.4818 0.049 0.06198 0.0
H251 H 0.62838 0.05422 0.04985 0.0
H252 H 0.62969 0.1369 0.06781 0.0
H253 H 0.49171 0.09385 0.07508 0.0
H254 H 0.5788 0.02189 0.04258 0.0
H255 H 0.38529 0.95664 0.98585 0.0
H256 H 0.64287 0.10122 0.06053 0.0
H257 H 0.53267 0.9612 0.97565 0.0
H258 H 0.43542 0.99039 0.99047 0.0
H259 H 0.5224 0.9149 0.96581 0.0
H260 H 0.59242 0.14806 0.07407 0.0
H261 H 0.37064 0.90849 0.97857 0.0
H262 H 0.38427 0.87281 0.97238 0.0
H263 H 0.54081 0.13195 0.07722 0.0
H264 H 0.42155 0.86135 0.96716 0.0
N265 N 0.44917 0.96157 0.98639 0.0
C266 C 0.42942 0.96948 0.98731 0.0
C267 C 0.39271 0.92318 0.98075 0.0
C268 C 0.41314 0.91542 0.97902 0.0
C269 C 0.40091 0.95037 0.98473 0.0
C270 C 0.44162 0.93544 0.98171 0.0
H271 H 0.47313 0.87698 0.96444 0.0
N272 N 0.48973 0.94918 0.98029 0.0
C273 C 0.50537 0.91858 0.96944 0.0
C274 C 0.46254 0.92899 0.97869 0.0
C275 C 0.51112 0.94473 0.97493 0.0
C276 C 0.47753 0.8972 0.96875 0.0
C277 C 0.45566 0.90236 0.97303 0.0
O278 O 0.52159 0.00425 0.96348 0.0
O279 O 0.52953 0.02508 0.0109 0.0
O280 O 0.50911 0.05002 0.02516 0.0
O281 O 0.48429 0.02374 0.99742 0.0
O282 O 0.54499 0.00954 0.98976 0.0
O283 O 0.48434 0.00782 0.9663 0.0
O284 O 0.49223 0.00621 0.07043 0.0
O285 O 0.4845 0.98789 0.02292 0.0
O286 O 0.5015 0.96147 0.01017 0.0
O287 O 0.53106 0.98948 0.03532 0.0
O288 O 0.46906 0.00276 0.04438 0.0
O289 O 0.52869 0.00171 0.06658 0.0
C290 C 0.55185 0.02757 0.00361 0.0
C291 C 0.49573 0.9992 0.93419 0.0
C292 C 0.49886 0.00618 0.89814 0.0
C293 C 0.50617 0.01673 0.91762 0.0
C294 C 0.48074 0.97794 0.89559 0.0
C295 C 0.4776 0.97118 0.93121 0.0
C296 C 0.47017 0.96066 0.91201 0.0
C297 C 0.49364 0.04563 0.00895 0.0
C298 C 0.50426 0.01015 0.95447 0.0
C299 C 0.42728 0.88202 0.97129 0.0
C300 C 0.40606 0.88855 0.97425 0.0
C301 C 0.4621 0.98519 0.03021 0.0
C302 C 0.51811 0.0092 0.09923 0.0
C303 C 0.50672 0.99127 0.11551 0.0
C304 C 0.5151 0.00084 0.13514 0.0
C305 C 0.53477 0.02869 0.13807 0.0
C306 C 0.53793 0.0367 0.10263 0.0
C307 C 0.54611 0.04637 0.12193 0.0
C308 C 0.51927 0.96644 0.02493 0.0
C309 C 0.50911 0.99925 0.07878 0.0
H310 H 0.52029 0.03839 0.91988 0.0
H311 H 0.47444 0.96926 0.88084 0.0
H312 H 0.46923 0.95744 0.9437 0.0
H313 H 0.45614 0.93899 0.90985 0.0
H314 H 0.49167 0.96992 0.11284 0.0
H315 H 0.54122 0.03697 0.1529 0.0
H316 H 0.54704 0.05072 0.09038 0.0
H317 H 0.56126 0.06771 0.12441 0.0
Eu318 Eu 0.02774 0.50538 0.98746 0.0
C319 C 0.93343 0.46573 0.05255 0.0
C320 C 0.92569 0.50401 0.05677 0.0
C321 C 0.88792 0.45803 0.06384 0.0
C322 C 0.94321 0.4935 0.05118 0.0
C323 C 0.90583 0.44778 0.05926 0.0
C324 C 0.89789 0.48611 0.06272 0.0
C325 C 0.91673 0.41137 0.05896 0.0
N326 N 0.95139 0.45646 0.04853 0.0
C327 C 0.94398 0.43003 0.05268 0.0
C328 C 0.89741 0.4202 0.06198 0.0
Eu329 Eu 0.99731 0.48934 0.03824 0.0
N330 N 0.97022 0.51039 0.04539 0.0
C331 C 0.98123 0.53808 0.0456 0.0
C332 C 0.93687 0.5323 0.05681 0.0
C333 C 0.9647 0.54938 0.05112 0.0
H334 H 0.95913 0.42333 0.05066 0.0
H335 H 0.97353 0.5713 0.05113 0.0
H336 H 0.8841 0.49383 0.0669 0.0
H337 H 0.91075 0.39028 0.06163 0.0
H338 H 1.00267 0.55177 0.04132 0.0
H339 H 0.04334 0.41718 0.98086 0.0
H340 H 0.92436 0.54118 0.06158 0.0
H341 H 0.07209 0.56964 0.97257 0.0
H342 H 0.01625 0.44059 0.98459 0.0
H343 H 0.12279 0.59953 0.96571 0.0
H344 H 0.86661 0.44453 0.06888 0.0
H345 H 0.09493 0.44384 0.97672 0.0
H346 H 0.13843 0.48945 0.97255 0.0
H347 H 0.87639 0.40579 0.06707 0.0
H348 H 0.16036 0.53927 0.96943 0.0
N349 N 0.05202 0.48067 0.98304 0.0
C350 C 0.03867 0.45276 0.98272 0.0
C351 C 0.08312 0.45437 0.97838 0.0
C352 C 0.09655 0.48286 0.97775 0.0
C353 C 0.05401 0.43926 0.98065 0.0
C354 C 0.08021 0.49559 0.98004 0.0
H355 H 0.15471 0.58051 0.96674 0.0
N356 N 0.07586 0.53487 0.97928 0.0
C357 C 0.11467 0.57829 0.96949 0.0
C358 C 0.09257 0.5236 0.97837 0.0
C359 C 0.08607 0.5614 0.97352 0.0
C360 C 0.13261 0.56749 0.97013 0.0
C361 C 0.12149 0.53966 0.97399 0.0
O362 O 0.0253 0.52513 0.96023 0.0
O363 O 0.99363 0.50181 0.00742 0.0
O364 O 0.96557 0.45513 0.01871 0.0
O365 O 0.98941 0.46232 0.98846 0.0
O366 O 0.01041 0.53443 0.98805 0.0
O367 O 0.01005 0.4817 0.96027 0.0
O368 O 0.01166 0.47353 0.06219 0.0
O369 O 0.03243 0.49436 0.01858 0.0
O370 O 0.05575 0.54218 0.00615 0.0
O371 O 0.0328 0.53395 0.03686 0.0
O372 O 0.01285 0.4592 0.03563 0.0
O373 O 1.00802 0.50932 0.06758 0.0
C374 C 0.99152 0.52192 1.00153 0.0
C375 C 0.02851 0.50528 0.93015 0.0
C376 C 0.02391 0.49878 0.89416 0.0
C377 C 0.01173 0.49653 0.913 0.0
C378 C 0.05323 0.50995 0.89283 0.0
C379 C 0.05762 0.516 0.92848 0.0
C380 C 0.06988 0.51838 0.90991 0.0
C381 C 0.96796 0.44756 1.00053 0.0
C382 C 0.01526 0.50294 0.94959 0.0
C383 C 0.13807 0.52724 0.97261 0.0
C384 C 0.12559 0.49888 0.9744 0.0
C385 C 0.0337 0.47353 0.02383 0.0
C386 C 1.00183 0.48028 0.09518 0.0
C387 C 0.01363 0.49688 0.11202 0.0
C388 C 1.00637 0.48574 0.13137 0.0
C389 C 0.98592 0.45788 0.13335 0.0
C390 C 0.98163 0.45264 0.09774 0.0
C391 C 0.97341 0.4417 0.11668 0.0
C392 C 0.05297 0.54971 0.0242 0.0
C393 C 0.01325 0.49117 0.07529 0.0
H394 H 0.98916 0.4877 0.91441 0.0
H395 H 0.06337 0.51246 0.87856 0.0
H396 H 0.07091 0.5226 0.94143 0.0
H397 H 0.0924 0.52688 0.90873 0.0
H398 H 0.02913 0.51819 0.10989 0.0
H399 H 0.98025 0.44801 0.14772 0.0
H400 H 0.97298 0.43911 0.08521 0.0
H401 H 0.95811 0.42026 0.11845 0.0
Eu402 Eu 0.52693 0.50493 0.03725 0.0
C403 C 0.4734 0.54593 0.97473 0.0
C404 C 0.42543 0.5092 0.97029 0.0
C405 C 0.43668 0.55623 0.96604 0.0
C406 C 0.45378 0.51825 0.97516 0.0
C407 C 0.46509 0.56516 0.96988 0.0
C408 C 0.41693 0.52831 0.96612 0.0
C409 C 0.51397 0.60052 0.97103 0.0
N410 N 0.50081 0.55402 0.97812 0.0
C411 C 0.52124 0.58072 0.97551 0.0
C412 C 0.48572 0.59276 0.96845 0.0
Eu413 Eu 0.51117 0.51951 0.98697 0.0
N414 N 0.46251 0.50013 0.97944 0.0
C415 C 0.44407 0.47269 0.97804 0.0
C416 C 0.40655 0.48115 0.96921 0.0
C417 C 0.4159 0.46285 0.97311 0.0
H418 H 0.54313 0.58678 0.97758 0.0
H419 H 0.40146 0.44109 0.97217 0.0
H420 H 0.39519 0.52168 0.96258 0.0
H421 H 0.53013 0.62172 0.96957 0.0
H422 H 0.45052 0.45794 0.98068 0.0
H423 H 0.63949 0.57577 0.04652 0.0
H424 H 0.38485 0.47342 0.96494 0.0
H425 H 0.49004 0.43819 0.04835 0.0
H426 H 0.58985 0.56241 0.04131 0.0
H427 H 0.4988 0.4002 0.0556 0.0
H428 H 0.42988 0.57071 0.96245 0.0
H429 H 0.65273 0.5404 0.05175 0.0
H430 H 0.63775 0.49069 0.05503 0.0
H431 H 0.48014 0.60812 0.96486 0.0
H432 H 0.59952 0.44289 0.05729 0.0
N433 N 0.57503 0.51977 0.043 0.0
C434 C 0.59525 0.54671 0.04355 0.0
C435 C 0.63089 0.53436 0.0493 0.0
C436 C 0.60995 0.50683 0.04948 0.0
C437 C 0.62348 0.5544 0.04647 0.0
C438 C 0.58178 0.50011 0.04649 0.0
H439 H 0.54762 0.40897 0.0577 0.0
N440 N 0.53343 0.46785 0.04593 0.0
C441 C 0.51629 0.42065 0.05344 0.0
C442 C 0.56033 0.47329 0.04789 0.0
C443 C 0.5114 0.44218 0.04942 0.0
C444 C 0.54389 0.42568 0.05455 0.0
C445 C 0.56634 0.45233 0.05212 0.0
O446 O 0.50237 0.49118 0.06463 0.0
O447 O 0.4954 0.50803 0.01794 0.0
O448 O 0.51323 0.55123 0.0084 0.0
O449 O 0.54144 0.5502 0.03375 0.0
O450 O 0.47948 0.47574 0.03737 0.0
O451 O 0.53946 0.53132 0.06345 0.0
O452 O 0.51886 0.49631 0.96393 0.0
O453 O 0.54299 0.51763 0.00637 0.0
O454 O 0.52527 0.47345 0.01606 0.0
O455 O 0.49586 0.47401 0.9913 0.0
O456 O 0.55788 0.55127 0.98866 0.0
O457 O 0.52184 0.53466 0.95658 0.0
C458 C 0.47286 0.48789 0.02403 0.0
C459 C 0.5275 0.50877 0.09449 0.0
C460 C 0.52385 0.51031 0.13062 0.0
C461 C 0.51691 0.5151 0.11144 0.0
C462 C 0.54166 0.49923 0.13253 0.0
C463 C 0.54532 0.49787 0.09675 0.0
C464 C 0.55234 0.49313 0.11568 0.0
C465 C 0.5297 0.56226 0.02399 0.0
C466 C 0.51938 0.51312 0.07458 0.0
C467 C 0.59444 0.45874 0.05423 0.0
C468 C 0.6162 0.48595 0.05296 0.0
C469 C 0.56526 0.53843 1.00085 0.0
C470 C 0.55121 0.52301 0.93851 0.0
C471 C 0.54968 0.50896 0.92082 0.0
C472 C 0.57347 0.51827 0.90845 0.0
C473 C 0.599 0.54101 0.91437 0.0
C474 C 0.57688 0.5461 0.94378 0.0
C475 C 0.60063 0.55475 0.93194 0.0
C476 C 0.50792 0.46207 1.00095 0.0
C477 C 0.52551 0.51493 0.95034 0.0
H478 H 0.50297 0.52336 0.10969 0.0
H479 H 0.54766 0.49563 0.14707 0.0
H480 H 0.55375 0.49298 0.08392 0.0
H481 H 0.56614 0.48473 0.11731 0.0
H482 H 0.52979 0.49166 0.91625 0.0
H483 H 0.61763 0.5484 0.90521 0.0
H484 H 0.57864 0.55809 0.95668 0.0
H485 H 0.62026 0.57257 0.93619 0.0
Eu486 Eu 0.16452 0.32761 0.32283 0.0
C487 C 0.21308 0.41842 0.38905 0.0
C488 C 0.26243 0.43245 0.39178 0.0
C489 C 0.24666 0.46448 0.39997 0.0
C490 C 0.23461 0.4127 0.38673 0.0
C491 C 0.21875 0.44413 0.39623 0.0
C492 C 0.26846 0.4586 0.39783 0.0
C493 C 0.16866 0.4264 0.39837 0.0
N494 N 0.1863 0.39806 0.38594 0.0
C495 C 0.16412 0.40116 0.39152 0.0
C496 C 0.19611 0.44815 0.40038 0.0
Eu497 Eu 0.18009 0.35588 0.37433 0.0
N498 N 0.22807 0.38718 0.38103 0.0
C499 C 0.24813 0.37963 0.38111 0.0
C500 C 0.28312 0.42495 0.39149 0.0
C501 C 0.27595 0.39843 0.38611 0.0
H502 H 0.14287 0.38429 0.39017 0.0
H503 H 0.29178 0.39237 0.38601 0.0
H504 H 0.28978 0.47414 0.40149 0.0
H505 H 0.151 0.42901 0.40218 0.0
H506 H 0.24288 0.35913 0.37721 0.0
H507 H 0.05282 0.29355 0.31388 0.0
H508 H 0.30448 0.4392 0.39599 0.0
H509 H 0.19927 0.29525 0.30991 0.0
H510 H 0.10289 0.32682 0.31946 0.0
H511 H 0.1887 0.24851 0.30117 0.0
H512 H 0.25148 0.48444 0.40528 0.0
H513 H 0.03771 0.24508 0.30752 0.0
H514 H 0.05084 0.20875 0.30285 0.0
H515 H 0.19959 0.46761 0.4059 0.0
H516 H 0.08776 0.1964 0.29962 0.0
N517 N 0.11611 0.29743 0.31675 0.0
C518 C 0.09668 0.30577 0.31666 0.0
C519 C 0.05975 0.25957 0.31004 0.0
C520 C 0.07992 0.25137 0.30932 0.0
C521 C 0.06822 0.28694 0.31353 0.0
C522 C 0.10836 0.27112 0.31253 0.0
H523 H 0.13925 0.21115 0.29875 0.0
N524 N 0.15629 0.28405 0.31289 0.0
C525 C 0.17173 0.25262 0.30385 0.0
C526 C 0.12907 0.26416 0.31069 0.0
C527 C 0.17765 0.27903 0.30871 0.0
C528 C 0.14379 0.23157 0.30257 0.0
C529 C 0.12203 0.23729 0.30563 0.0
O530 O 0.18947 0.33834 0.29556 0.0
O531 O 0.19544 0.3601 0.34302 0.0
O532 O 0.17482 0.38619 0.3555 0.0
O533 O 0.15167 0.35987 0.32734 0.0
O534 O 0.21167 0.34417 0.32278 0.0
O535 O 0.15327 0.34381 0.29707 0.0
O536 O 0.15223 0.33779 0.39987 0.0
O537 O 0.14944 0.32372 0.35399 0.0
O538 O 0.16683 0.29702 0.34294 0.0
O539 O 0.19515 0.32529 0.36849 0.0
O540 O 0.13292 0.33931 0.37415 0.0
O541 O 0.19395 0.3434 0.40101 0.0
C542 C 0.218 0.36215 0.33659 0.0
C543 C 0.16519 0.33402 0.26553 0.0
C544 C 0.16592 0.34118 0.2295 0.0
C545 C 0.17345 0.35173 0.24901 0.0
C546 C 0.15025 0.31265 0.22696 0.0
C547 C 0.14933 0.30576 0.2625 0.0
C548 C 0.14198 0.29518 0.24332 0.0
C549 C 0.16055 0.38186 0.3387 0.0
C550 C 0.17327 0.34508 0.28585 0.0
C551 C 0.09363 0.21724 0.30329 0.0
C552 C 0.07262 0.22428 0.30511 0.0
C553 C 0.12671 0.32143 0.36025 0.0
C554 C 0.17333 0.34581 0.43148 0.0
C555 C 0.16684 0.32774 0.44766 0.0
C556 C 0.16585 0.33625 0.46737 0.0
C557 C 0.17131 0.36326 0.47013 0.0
C558 C 0.18026 0.37282 0.4351 0.0
C559 C 0.17904 0.38139 0.45425 0.0
C560 C 0.1837 0.30207 0.35832 0.0
C561 C 0.17077 0.33595 0.4108 0.0
H562 H 0.1854 0.3736 0.2514 0.0
H563 H 0.14461 0.30371 0.21225 0.0
H564 H 0.14273 0.29186 0.27492 0.0
H565 H 0.12992 0.2733 0.24112 0.0
H566 H 0.16252 0.30722 0.44465 0.0
H567 H 0.16931 0.37067 0.48449 0.0
H568 H 0.186 0.3872 0.42312 0.0
H569 H 0.18358 0.40212 0.45676 0.0
Eu570 Eu 0.69005 0.84136 0.32457 0.0
C571 C 0.59558 0.80253 0.38894 0.0
C572 C 0.5864 0.84002 0.39198 0.0
C573 C 0.54937 0.79385 0.39936 0.0
C574 C 0.60469 0.83014 0.38694 0.0
C575 C 0.56801 0.78423 0.39558 0.0
C576 C 0.55861 0.82171 0.39772 0.0
C577 C 0.58038 0.74888 0.39712 0.0
N578 N 0.61422 0.79382 0.38586 0.0
C579 C 0.60756 0.76784 0.39093 0.0
C580 C 0.56035 0.757 0.39913 0.0
Eu581 Eu 0.65952 0.82659 0.37459 0.0
N582 N 0.63176 0.84752 0.38128 0.0
C583 C 0.64181 0.87512 0.38125 0.0
C584 C 0.59677 0.86814 0.39181 0.0
C585 C 0.62451 0.88571 0.38634 0.0
H586 H 0.6232 0.76164 0.38971 0.0
H587 H 0.63271 0.90755 0.38616 0.0
H588 H 0.54427 0.82899 0.40139 0.0
H589 H 0.57499 0.72811 0.40047 0.0
H590 H 0.66297 0.88956 0.37712 0.0
H591 H 0.72375 0.76591 0.31587 0.0
H592 H 0.58371 0.87654 0.39629 0.0
H593 H 0.72558 0.90828 0.31385 0.0
H594 H 0.68971 0.78183 0.3202 0.0
H595 H 0.7747 0.94452 0.30739 0.0
H596 H 0.52807 0.78007 0.40429 0.0
H597 H 0.77438 0.79937 0.31213 0.0
H598 H 0.81281 0.84838 0.30967 0.0
H599 H 0.53937 0.74236 0.40417 0.0
H600 H 0.82674 0.89699 0.30759 0.0
N601 N 0.7208 0.82397 0.31941 0.0
C602 C 0.71172 0.79668 0.31853 0.0
C603 C 0.75955 0.80651 0.31411 0.0
C604 C 0.76857 0.83444 0.31412 0.0
C605 C 0.73097 0.78756 0.31612 0.0
C606 C 0.74837 0.84265 0.31662 0.0
H607 H 0.81264 0.93301 0.30649 0.0
N608 N 0.73601 0.877 0.31699 0.0
C609 C 0.76981 0.92367 0.30971 0.0
C610 C 0.75626 0.87001 0.3155 0.0
C611 C 0.74207 0.90316 0.31327 0.0
C612 C 0.79118 0.91709 0.30927 0.0
C613 C 0.78448 0.88991 0.3118 0.0
O614 O 0.68348 0.85819 0.29724 0.0
O615 O 0.65452 0.83727 0.34352 0.0
O616 O 0.63065 0.78981 0.35558 0.0
O617 O 0.65522 0.79681 0.32571 0.0
O618 O 0.67293 0.87067 0.32495 0.0
O619 O 0.67643 0.81687 0.29746 0.0
O620 O 0.69553 0.84531 0.39497 0.0
O621 O 0.69278 0.82782 0.35516 0.0
O622 O 0.72109 0.87224 0.34604 0.0
O623 O 0.69126 0.87219 0.37051 0.0
O624 O 0.67164 0.79365 0.37244 0.0
O625 O 0.65442 0.8178 0.40647 0.0
C626 C 0.65293 0.8576 0.33758 0.0
C627 C 0.6913 0.84126 0.26731 0.0
C628 C 0.68772 0.83808 0.23116 0.0
C629 C 0.67494 0.83356 0.24997 0.0
C630 C 0.71717 0.85043 0.22999 0.0
C631 C 0.72059 0.85341 0.26585 0.0
C632 C 0.73344 0.85799 0.24726 0.0
C633 C 0.63381 0.78185 0.33771 0.0
C634 C 0.67741 0.83654 0.28672 0.0
C635 C 0.80488 0.88196 0.3102 0.0
C636 C 0.79694 0.85428 0.31135 0.0
C637 C 0.69261 0.80636 0.36047 0.0
C638 C 0.69293 0.81843 0.42255 0.0
C639 C 0.70928 0.83197 0.43927 0.0
C640 C 0.72035 0.81931 0.45137 0.0
C641 C 0.71576 0.79334 0.44606 0.0
C642 C 0.68769 0.79206 0.41797 0.0
C643 C 0.69952 0.77985 0.42945 0.0
C644 C 0.71575 0.88392 0.36105 0.0
C645 C 0.68109 0.83191 0.41042 0.0
H646 H 0.65229 0.82433 0.25113 0.0
H647 H 0.72756 0.85386 0.21573 0.0
H648 H 0.73353 0.85936 0.27898 0.0
H649 H 0.75607 0.86735 0.24625 0.0
H650 H 0.71252 0.85194 0.4432 0.0
H651 H 0.72449 0.78334 0.45487 0.0
H652 H 0.67418 0.7806 0.40579 0.0
H653 H 0.69572 0.75969 0.42564 0.0
Eu654 Eu 0.18733 0.84073 0.36946 0.0
C655 C 0.13335 0.87932 0.30391 0.0
C656 C 0.08439 0.8441 0.30271 0.0
C657 C 0.09797 0.89059 0.29342 0.0
C658 C 0.11269 0.85261 0.30721 0.0
C659 C 0.12633 0.89847 0.29648 0.0
C660 C 0.07703 0.86338 0.29642 0.0
C661 C 0.17596 0.93047 0.29273 0.0
N662 N 0.16054 0.88592 0.30619 0.0
C663 C 0.1818 0.91058 0.2998 0.0
C664 C 0.14809 0.92455 0.29137 0.0
Eu665 Eu 0.16928 0.85172 0.31857 0.0
N666 N 0.12056 0.83443 0.31301 0.0
C667 C 0.10129 0.80716 0.31362 0.0
C668 C 0.06457 0.81628 0.30368 0.0
C669 C 0.07304 0.79773 0.30919 0.0
H670 H 0.20338 0.91518 0.30078 0.0
H671 H 0.05788 0.77612 0.30981 0.0
H672 H 0.05533 0.85727 0.29321 0.0
H673 H 0.19294 0.9503 0.28827 0.0
H674 H 0.10743 0.79246 0.31762 0.0
H675 H 0.29905 0.91617 0.37636 0.0
H676 H 0.04288 0.80881 0.29954 0.0
H677 H 0.15362 0.77483 0.38302 0.0
H678 H 0.24877 0.90019 0.37126 0.0
H679 H 0.16504 0.73893 0.39169 0.0
H680 H 0.09212 0.90507 0.28792 0.0
H681 H 0.31478 0.88294 0.38307 0.0
H682 H 0.3024 0.83414 0.388 0.0
H683 H 0.14359 0.93986 0.28566 0.0
H684 H 0.26601 0.78587 0.39181 0.0
N685 N 0.23604 0.85814 0.37453 0.0
C686 C 0.25526 0.8854 0.37414 0.0
C687 C 0.29267 0.87573 0.38065 0.0
C688 C 0.27278 0.8479 0.38168 0.0
C689 C 0.28385 0.89457 0.37699 0.0
C690 C 0.24418 0.83965 0.37876 0.0
H691 H 0.21473 0.7502 0.3934 0.0
N692 N 0.19636 0.80563 0.37928 0.0
C693 C 0.18174 0.75953 0.3887 0.0
C694 C 0.22374 0.81252 0.38104 0.0
C695 C 0.17534 0.77986 0.38387 0.0
C696 C 0.20982 0.76596 0.38957 0.0
C697 C 0.23125 0.79284 0.38612 0.0
O698 O 0.16381 0.82749 0.3973 0.0
O699 O 0.15507 0.84264 0.35023 0.0
O700 O 0.17496 0.88774 0.33687 0.0
O701 O 0.19964 0.88521 0.3645 0.0
O702 O 0.14023 0.81108 0.37048 0.0
O703 O 0.19976 0.86828 0.39497 0.0
O704 O 0.19356 0.86277 0.29097 0.0
O705 O 0.2014 0.85053 0.33806 0.0
O706 O 0.18558 0.80803 0.34959 0.0
O707 O 0.15535 0.80688 0.32492 0.0
O708 O 0.21661 0.8811 0.31729 0.0
O709 O 0.15739 0.82244 0.29418 0.0
C710 C 0.13291 0.82269 0.35713 0.0
C711 C 0.18978 0.84729 0.42657 0.0
C712 C 0.18827 0.85149 0.46268 0.0
C713 C 0.17974 0.85436 0.44347 0.0
C714 C 0.20685 0.84125 0.4646 0.0
C715 C 0.20846 0.83741 0.42888 0.0
C716 C 0.21688 0.83436 0.4478 0.0
C717 C 0.18996 0.89801 0.3533 0.0
C718 C 0.18049 0.85015 0.40665 0.0
C719 C 0.25979 0.80074 0.38811 0.0
C720 C 0.28051 0.82823 0.38596 0.0
C721 C 0.22381 0.86997 0.33108 0.0
C722 C 0.1681 0.84136 0.26191 0.0
C723 C 0.18127 0.83693 0.24557 0.0
C724 C 0.1735 0.83926 0.226 0.0
C725 C 0.15231 0.84597 0.22309 0.0
C726 C 0.1469 0.84786 0.25864 0.0
C727 C 0.13909 0.85016 0.23932 0.0
C728 C 0.16808 0.79578 0.33472 0.0
C729 C 0.17694 0.83962 0.28224 0.0
H730 H 0.16562 0.86238 0.44162 0.0
H731 H 0.21342 0.83828 0.47911 0.0
H732 H 0.21649 0.832 0.41611 0.0
H733 H 0.23118 0.82654 0.44946 0.0
H734 H 0.19778 0.83207 0.24808 0.0
H735 H 0.14566 0.84758 0.20823 0.0
H736 H 0.13639 0.85112 0.27097 0.0
H737 H 0.1227 0.85517 0.23693 0.0
Eu738 Eu 0.82854 0.65419 0.65625 0.0
C739 C 0.87998 0.74589 0.72069 0.0
C740 C 0.92888 0.75862 0.72444 0.0
C741 C 0.91445 0.79224 0.73034 0.0
C742 C 0.90096 0.73921 0.71938 0.0
C743 C 0.88641 0.77236 0.72644 0.0
C744 C 0.93563 0.78532 0.72949 0.0
C745 C 0.83661 0.75678 0.72612 0.0
N746 N 0.85303 0.72599 0.71744 0.0
C747 C 0.83126 0.7307 0.72081 0.0
C748 C 0.86433 0.7778 0.72873 0.0
Eu749 Eu 0.84579 0.68279 0.70743 0.0
N750 N 0.89379 0.71327 0.71441 0.0
C751 C 0.91332 0.70507 0.71497 0.0
C752 C 0.94898 0.75034 0.72495 0.0
C753 C 0.9412 0.72349 0.7201 0.0
H754 H 0.80981 0.7145 0.71874 0.0
H755 H 0.95661 0.7169 0.7205 0.0
H756 H 0.95705 0.8006 0.73315 0.0
H757 H 0.81937 0.76064 0.72823 0.0
H758 H 0.90757 0.68434 0.71144 0.0
H759 H 0.71665 0.61897 0.64707 0.0
H760 H 0.97039 0.76434 0.72949 0.0
H761 H 0.86375 0.62227 0.64303 0.0
H762 H 0.76671 0.65272 0.65241 0.0
H763 H 0.85357 0.57543 0.63516 0.0
H764 H 0.91985 0.81276 0.73463 0.0
H765 H 0.7018 0.57026 0.64223 0.0
H766 H 0.71535 0.53405 0.63854 0.0
H767 H 0.86841 0.79793 0.73302 0.0
H768 H 0.75263 0.52218 0.6353 0.0
N769 N 0.78017 0.62344 0.65061 0.0
C770 C 0.76059 0.63158 0.6501 0.0
C771 C 0.72385 0.58499 0.64447 0.0
C772 C 0.74419 0.57699 0.64411 0.0
C773 C 0.73216 0.6125 0.6471 0.0
C774 C 0.77262 0.59707 0.64688 0.0
H775 H 0.80427 0.53755 0.63371 0.0
N776 N 0.82071 0.61073 0.64632 0.0
C777 C 0.83649 0.57939 0.63782 0.0
C778 C 0.79354 0.59048 0.64472 0.0
C779 C 0.84219 0.60587 0.64216 0.0
C780 C 0.80863 0.55804 0.63709 0.0
C781 C 0.78672 0.56351 0.6402 0.0
O782 O 0.81531 0.66922 0.63092 0.0
O783 O 0.86049 0.68607 0.67616 0.0
O784 O 0.84542 0.71415 0.68706 0.0
O785 O 0.81541 0.68618 0.6621 0.0
O786 O 0.87581 0.67042 0.65519 0.0
O787 O 0.85235 0.66527 0.62841 0.0
O788 O 0.82151 0.67192 0.73501 0.0
O789 O 0.81418 0.65099 0.68748 0.0
O790 O 0.83019 0.62327 0.67644 0.0
O791 O 0.85989 0.65151 0.70149 0.0
O792 O 0.79836 0.6663 0.70804 0.0
O793 O 0.85667 0.66495 0.73234 0.0
C794 C 0.8828 0.68804 0.66935 0.0
C795 C 0.85259 0.70201 0.61157 0.0
C796 C 0.86598 0.73272 0.58293 0.0
C797 C 0.85221 0.70608 0.59094 0.0
C798 C 0.88014 0.75509 0.59592 0.0
C799 C 0.86719 0.72464 0.62414 0.0
C800 C 0.88079 0.75101 0.61634 0.0
C801 C 0.82877 0.70986 0.67165 0.0
C802 C 0.83713 0.67434 0.62012 0.0
C803 C 0.75834 0.54309 0.63855 0.0
C804 C 0.73711 0.54984 0.64043 0.0
C805 C 0.7916 0.64861 0.69397 0.0
C806 C 0.84655 0.67499 0.76435 0.0
C807 C 0.83743 0.6572 0.78079 0.0
C808 C 0.84607 0.66744 0.80025 0.0
C809 C 0.8638 0.69575 0.80286 0.0
C810 C 0.86429 0.70305 0.76742 0.0
C811 C 0.87284 0.71333 0.78655 0.0
C812 C 0.84757 0.62815 0.69148 0.0
C813 C 0.83742 0.66426 0.74409 0.0
H814 H 0.84085 0.68861 0.58122 0.0
H815 H 0.89109 0.77577 0.59023 0.0
H816 H 0.86793 0.7219 0.63999 0.0
H817 H 0.8919 0.76836 0.62617 0.0
H818 H 0.82389 0.63547 0.7784 0.0
H819 H 0.87039 0.70444 0.81757 0.0
H820 H 0.87144 0.71702 0.75505 0.0
H821 H 0.88641 0.73506 0.78877 0.0
Eu822 Eu 0.35793 0.17078 0.65811 0.0
C823 C 0.25856 0.12149 0.71853 0.0
C824 C 0.24345 0.15459 0.72378 0.0
C825 C 0.21007 0.1062 0.7277 0.0
C826 C 0.26444 0.14835 0.71847 0.0
C827 C 0.23137 0.10014 0.72334 0.0
C828 C 0.21616 0.13338 0.72807 0.0
C829 C 0.24885 0.06859 0.72102 0.0
N830 N 0.27972 0.1163 0.71469 0.0
C831 C 0.27558 0.09045 0.71669 0.0
C832 C 0.22657 0.07341 0.72416 0.0
Eu833 Eu 0.32419 0.1547 0.7074 0.0
N834 N 0.29093 0.16848 0.71406 0.0
C835 C 0.29807 0.19529 0.71524 0.0
C836 C 0.25072 0.18202 0.72518 0.0
C837 C 0.27808 0.20245 0.72073 0.0
H838 H 0.29275 0.08662 0.71435 0.0
H839 H 0.28385 0.22372 0.72172 0.0
H840 H 0.1997 0.13781 0.73196 0.0
H841 H 0.24547 0.04807 0.72202 0.0
H842 H 0.31923 0.21126 0.71207 0.0
H843 H 0.39541 0.09812 0.65022 0.0
H844 H 0.2355 0.18766 0.72999 0.0
H845 H 0.3914 0.23742 0.64671 0.0
H846 H 0.36022 0.11251 0.65474 0.0
H847 H 0.43994 0.27476 0.64012 0.0
H848 H 0.18902 0.09007 0.73132 0.0
H849 H 0.44553 0.13272 0.64583 0.0
H850 H 0.48278 0.18217 0.64325 0.0
H851 H 0.20593 0.05646 0.72769 0.0
H852 H 0.495 0.23031 0.64086 0.0
N853 N 0.39017 0.15498 0.65354 0.0
C854 C 0.38201 0.12788 0.65291 0.0
C855 C 0.43023 0.13921 0.64805 0.0
C856 C 0.43834 0.16693 0.648 0.0
C857 C 0.40192 0.11961 0.65038 0.0
C858 C 0.41748 0.17425 0.65057 0.0
H859 H 0.47913 0.26501 0.63945 0.0
N860 N 0.40338 0.20729 0.65034 0.0
C861 C 0.43585 0.2542 0.64266 0.0
C862 C 0.42435 0.20129 0.64912 0.0
C863 C 0.40844 0.23306 0.64631 0.0
C864 C 0.45793 0.24862 0.64238 0.0
C865 C 0.45226 0.22181 0.64521 0.0
O866 O 0.34999 0.18538 0.63019 0.0
O867 O 0.32268 0.16752 0.67645 0.0
O868 O 0.29365 0.12426 0.68538 0.0
O869 O 0.3246 0.12525 0.66136 0.0
O870 O 0.34 0.19955 0.65686 0.0
O871 O 0.34398 0.14453 0.63185 0.0
O872 O 0.33806 0.14204 0.73354 0.0
O873 O 0.36025 0.15917 0.68932 0.0
O874 O 0.38733 0.20309 0.6796 0.0
O875 O 0.35622 0.20064 0.70418 0.0
O876 O 0.34162 0.12564 0.70759 0.0
O877 O 0.33304 0.17757 0.7354 0.0
C878 C 0.32056 0.18734 0.67001 0.0
C879 C 0.35839 0.16742 0.60107 0.0
C880 C 0.35564 0.16508 0.56488 0.0
C881 C 0.34245 0.16059 0.58354 0.0
C882 C 0.38497 0.1764 0.56403 0.0
C883 C 0.38759 0.17851 0.59993 0.0
C884 C 0.40079 0.18297 0.58149 0.0
C885 C 0.29955 0.1133 0.6701 0.0
C886 C 0.34434 0.16331 0.62038 0.0
C887 C 0.47337 0.21479 0.64365 0.0
C888 C 0.46641 0.18739 0.64499 0.0
C889 C 0.3621 0.13902 0.69536 0.0
C890 C 0.32473 0.15089 0.76458 0.0
C891 C 0.33968 0.16358 0.78199 0.0
C892 C 0.32922 0.15189 0.80088 0.0
C893 C 0.30284 0.12761 0.8017 0.0
C894 C 0.29824 0.12734 0.76601 0.0
C895 C 0.28734 0.1159 0.78447 0.0
C896 C 0.38085 0.21364 0.69485 0.0
C897 C 0.33828 0.16064 0.74509 0.0
H898 H 0.31988 0.15218 0.58442 0.0
H899 H 0.39561 0.17981 0.54987 0.0
H900 H 0.40018 0.18376 0.61321 0.0
H901 H 0.42335 0.19154 0.58073 0.0
H902 H 0.35967 0.18223 0.78053 0.0
H903 H 0.29419 0.11696 0.81552 0.0
H904 H 0.28634 0.11723 0.7529 0.0
H905 H 0.26715 0.09732 0.78538 0.0
Eu906 Eu 0.85395 0.16662 0.70199 0.0
C907 C 0.8012 0.20719 0.63707 0.0
C908 C 0.75207 0.17243 0.63572 0.0
C909 C 0.76626 0.2192 0.62688 0.0
C910 C 0.78028 0.18053 0.64019 0.0
C911 C 0.79453 0.22669 0.62988 0.0
C912 C 0.74506 0.19205 0.62968 0.0
C913 C 0.84428 0.25826 0.6262 0.0
N914 N 0.82829 0.2134 0.63927 0.0
C915 C 0.84977 0.23803 0.63302 0.0
C916 C 0.81653 0.25272 0.62494 0.0
Eu917 Eu 0.83642 0.17862 0.65123 0.0
N918 N 0.78781 0.16201 0.64575 0.0
C919 C 0.76828 0.13481 0.64616 0.0
C920 C 0.73199 0.14466 0.63644 0.0
C921 C 0.74011 0.12578 0.64173 0.0
H922 H 0.87125 0.24233 0.63394 0.0
H923 H 0.72474 0.10422 0.64217 0.0
H924 H 0.72344 0.18625 0.62649 0.0
H925 H 0.86143 0.27804 0.62186 0.0
H926 H 0.77416 0.11986 0.64998 0.0
H927 H 0.96587 0.24111 0.70969 0.0
H928 H 0.71036 0.1375 0.63229 0.0
H929 H 0.81942 0.10068 0.71532 0.0
H930 H 0.91576 0.22571 0.70434 0.0
H931 H 0.83016 0.06437 0.72416 0.0
H932 H 0.76069 0.23396 0.62157 0.0
H933 H 0.98098 0.2074 0.71637 0.0
H934 H 0.96795 0.15842 0.7212 0.0
H935 H 0.8123 0.2683 0.61941 0.0
H936 H 0.93109 0.11028 0.72486 0.0
N937 N 0.90251 0.18351 0.70741 0.0
C938 C 0.92197 0.21071 0.70721 0.0
C939 C 0.95894 0.20045 0.71384 0.0
C940 C 0.93878 0.17268 0.71475 0.0
C941 C 0.95046 0.21956 0.71021 0.0
C942 C 0.9103 0.16477 0.71168 0.0
H943 H 0.87964 0.07506 0.7262 0.0
N944 N 0.86234 0.13115 0.71187 0.0
C945 C 0.84707 0.0849 0.72125 0.0
C946 C 0.8896 0.13773 0.71382 0.0
C947 C 0.84106 0.10546 0.71632 0.0
C948 C 0.87503 0.091 0.72232 0.0
C949 C 0.89673 0.11779 0.71897 0.0
O950 O 0.82997 0.1534 0.72963 0.0
O951 O 0.82211 0.16922 0.68281 0.0
O952 O 0.84223 0.21441 0.6699 0.0
O953 O 0.8669 0.21134 0.69733 0.0
O954 O 0.80673 0.13737 0.7028 0.0
O955 O 0.86631 0.19401 0.72759 0.0
O956 O 0.86082 0.18985 0.62368 0.0
O957 O 0.86826 0.17675 0.67064 0.0
O958 O 0.85165 0.13374 0.68197 0.0
O959 O 0.82198 0.13356 0.65721 0.0
O960 O 0.88375 0.20781 0.6502 0.0
O961 O 0.82419 0.14976 0.62654 0.0
C962 C 0.79975 0.14939 0.68957 0.0
C963 C 0.85521 0.17303 0.75918 0.0
C964 C 0.85324 0.17818 0.79515 0.0
C965 C 0.84551 0.18114 0.77571 0.0
C966 C 0.87079 0.16687 0.79768 0.0
C967 C 0.87283 0.16202 0.76207 0.0
C968 C 0.88053 0.15894 0.78124 0.0
C969 C 0.85726 0.22438 0.68635 0.0
C970 C 0.84662 0.17599 0.73907 0.0
C971 C 0.92516 0.12535 0.72111 0.0
C972 C 0.94615 0.15276 0.71905 0.0
C973 C 0.89073 0.19635 0.66387 0.0
C974 C 0.83505 0.16948 0.59451 0.0
C975 C 0.84844 0.16593 0.57791 0.0
C976 C 0.8407 0.16902 0.55851 0.0
C977 C 0.81934 0.1756 0.55603 0.0
C978 C 0.81368 0.17583 0.59166 0.0
C979 C 0.80592 0.17891 0.57252 0.0
C980 C 0.83412 0.12187 0.66703 0.0
C981 C 0.84386 0.16702 0.6147 0.0
H982 H 0.83223 0.19002 0.77337 0.0
H983 H 0.87676 0.16384 0.81239 0.0
H984 H 0.88056 0.15576 0.74956 0.0
H985 H 0.89401 0.15028 0.78337 0.0
H986 H 0.86507 0.16115 0.58009 0.0
H987 H 0.81272 0.17779 0.5413 0.0
H988 H 0.80297 0.17838 0.60418 0.0
H989 H 0.78938 0.1838 0.57045 0.0
C990 C 0.31243 0.84613 0.04394 0.0
C991 C 0.31086 0.84032 0.06435 0.0
C992 C 0.33662 0.86832 0.03564 0.0
C993 C 0.35984 0.88507 0.04802 0.0
C994 C 0.35869 0.87875 0.0685 0.0
C995 C 0.33431 0.85651 0.07638 0.0
C996 C 0.33713 0.87413 0.01372 0.0
C997 C 0.38299 0.89593 0.08226 0.0
C998 C 0.43377 0.934 0.02935 0.0
C999 C 0.43495 0.95925 0.03119 0.0
C1000 C 0.40886 0.90943 0.03343 0.0
C1001 C 0.38476 0.91018 0.04006 0.0
C1002 C 0.38559 0.9356 0.04117 0.0
C1003 C 0.41069 0.95979 0.0368 0.0
C1004 C 0.40891 0.88286 0.03169 0.0
C1005 C 0.3604 0.93741 0.04804 0.0
H1006 H 0.29441 0.83383 0.03453 0.0
H1007 H 0.33354 0.85188 0.09208 0.0
H1008 H 0.3411 0.89519 0.01143 0.0
H1009 H 0.35458 0.87282 0.00652 0.0
H1010 H 0.31714 0.85961 0.00619 0.0
H1011 H 0.37921 0.88771 0.09764 0.0
H1012 H 0.40252 0.8971 0.07656 0.0
H1013 H 0.38664 0.91707 0.08278 0.0
H1014 H 0.45257 0.93342 0.02548 0.0
H1015 H 0.41164 0.97932 0.03841 0.0
H1016 H 0.3896 0.86721 0.02409 0.0
H1017 H 0.40916 0.87507 0.04678 0.0
H1018 H 0.42753 0.88532 0.02338 0.0
H1019 H 0.3414 0.92295 0.03953 0.0
H1020 H 0.36359 0.95831 0.04633 0.0
H1021 H 0.35624 0.93156 0.06395 0.0
C1022 C 0.16436 0.47564 0.07453 0.0
C1023 C 0.18095 0.46862 0.06274 0.0
C1024 C 0.14184 0.47765 0.06642 0.0
C1025 C 0.13575 0.47301 0.04585 0.0
C1026 C 0.15297 0.46689 0.03368 0.0
C1027 C 0.17527 0.46476 0.04224 0.0
C1028 C 0.124 0.48399 0.08006 0.0
C1029 C 0.14797 0.46266 0.0116 0.0
C1030 C 0.05947 0.44881 0.03196 0.0
C1031 C 0.06045 0.47322 0.02663 0.0
C1032 C 0.08395 0.44833 0.03744 0.0
C1033 C 0.11027 0.47288 0.03755 0.0
C1034 C 0.11156 0.49744 0.03132 0.0
C1035 C 0.0866 0.49742 0.02633 0.0
C1036 C 0.08146 0.42164 0.04387 0.0
C1037 C 0.13918 0.52391 0.03048 0.0
H1038 H 0.16884 0.4794 0.09027 0.0
H1039 H 0.18776 0.4593 0.03288 0.0
H1040 H 0.12361 0.50235 0.07473 0.0
H1041 H 0.102 0.46676 0.07993 0.0
H1042 H 0.13178 0.48761 0.09564 0.0
H1043 H 0.15999 0.45376 0.00476 0.0
H1044 H 0.12531 0.44918 0.00827 0.0
H1045 H 0.15472 0.48269 0.00451 0.0
H1046 H 0.03931 0.43008 0.03236 0.0
H1047 H 0.08751 0.51648 0.02257 0.0
H1048 H 0.08774 0.42301 0.0597 0.0
H1049 H 0.09592 0.41744 0.03501 0.0
H1050 H 0.05973 0.40417 0.04215 0.0
H1051 H 0.14756 0.53036 0.04574 0.0
H1052 H 0.13703 0.54053 0.02341 0.0
H1053 H 0.15485 0.52106 0.02199 0.0
C1054 C 0.56738 0.71562 0.04774 0.0
C1055 C 0.55687 0.71698 0.06641 0.0
C1056 C 0.5632 0.69069 0.04024 0.0
C1057 C 0.54776 0.6666 0.0516 0.0
C1058 C 0.53655 0.66781 0.07028 0.0
C1059 C 0.54147 0.69306 0.07754 0.0
C1060 C 0.57577 0.69021 0.02039 0.0
C1061 C 0.51952 0.64248 0.08264 0.0
C1062 C 0.51591 0.59802 0.02556 0.0
C1063 C 0.53466 0.58907 0.03092 0.0
C1064 C 0.52002 0.6233 0.03205 0.0
C1065 C 0.54356 0.6401 0.04411 0.0
C1066 C 0.56271 0.6313 0.04944 0.0
C1067 C 0.55792 0.60576 0.04288 0.0
C1068 C 0.49895 0.63181 0.02623 0.0
C1069 C 0.58823 0.64884 0.06209 0.0
H1070 H 0.57951 0.7342 0.03924 0.0
H1071 H 0.53316 0.69415 0.09192 0.0
H1072 H 0.59087 0.68276 0.02234 0.0
H1073 H 0.55907 0.67583 0.01015 0.0
H1074 H 0.58691 0.71068 0.01331 0.0
H1075 H 0.51147 0.6468 0.09651 0.0
H1076 H 0.5014 0.627 0.07388 0.0
H1077 H 0.53261 0.63332 0.08669 0.0
H1078 H 0.49766 0.58505 0.01652 0.0
H1079 H 0.57253 0.59898 0.04698 0.0
H1080 H 0.50967 0.65171 0.0184 0.0
H1081 H 0.48909 0.63457 0.03977 0.0
H1082 H 0.48209 0.61658 0.01643 0.0
H1083 H 0.60111 0.66915 0.05506 0.0
H1084 H 0.60162 0.63945 0.0643 0.0
H1085 H 0.58156 0.65226 0.07686 0.0
C1086 C 0.86118 0.30142 0.95446 0.0
C1087 C 0.83301 0.29506 0.95536 0.0
C1088 C 0.88296 0.32632 0.9618 0.0
C1089 C 0.87652 0.34549 0.97021 0.0
C1090 C 0.8481 0.33916 0.97128 0.0
C1091 C 0.82666 0.31395 0.96394 0.0
C1092 C 0.9129 0.33206 0.9606 0.0
C1093 C 0.84039 0.35911 0.98005 0.0
C1094 C 0.93059 0.39878 0.0052 0.0
C1095 C 0.94461 0.42154 0.99275 0.0
C1096 C 0.90816 0.37407 0.99816 0.0
C1097 C 0.89957 0.37199 0.97807 0.0
C1098 C 0.91372 0.39492 0.96537 0.0
C1099 C 0.93619 0.41938 0.97284 0.0
C1100 C 0.89398 0.35007 0.01215 0.0
C1101 C 0.90516 0.39361 0.9439 0.0
H1102 H 0.8662 0.28675 0.94812 0.0
H1103 H 0.80496 0.30923 0.96455 0.0
H1104 H 0.92582 0.35082 0.95176 0.0
H1105 H 0.92223 0.33578 0.97571 0.0
H1106 H 0.91437 0.31497 0.9537 0.0
H1107 H 0.81736 0.3512 0.9797 0.0
H1108 H 0.84772 0.36374 0.99568 0.0
H1109 H 0.8511 0.37864 0.97171 0.0
H1110 H 0.93765 0.39997 0.02032 0.0
H1111 H 0.94695 0.43696 0.96315 0.0
H1112 H 0.89681 0.3331 0.00665 0.0
H1113 H 0.87105 0.34245 0.01267 0.0
H1114 H 0.90251 0.35535 0.02751 0.0
H1115 H 0.90776 0.37784 0.93592 0.0
H1116 H 0.91774 0.41344 0.93613 0.0
H1117 H 0.8826 0.38753 0.94296 0.0
C1118 C 0.69541 0.53528 0.95315 0.0
C1119 C 0.71873 0.54256 0.96554 0.0
C1120 C 0.67065 0.53375 0.9604 0.0
C1121 C 0.66879 0.53947 0.98067 0.0
C1122 C 0.69183 0.54587 0.99347 0.0
C1123 C 0.71645 0.5473 0.98578 0.0
C1124 C 0.6469 0.5271 0.94607 0.0
C1125 C 0.69052 0.55127 0.01529 0.0
C1126 C 0.61646 0.56348 0.99216 0.0
C1127 C 0.59259 0.53922 0.99813 0.0
C1128 C 0.64162 0.56402 0.98707 0.0
C1129 C 0.64314 0.53974 0.9881 0.0
C1130 C 0.61934 0.51537 0.99478 0.0
C1131 C 0.5943 0.51532 0.99934 0.0
C1132 C 0.66632 0.59043 0.97993 0.0
C1133 C 0.61993 0.48905 0.99639 0.0
H1134 H 0.69656 0.53096 0.93758 0.0
H1135 H 0.73423 0.55293 0.99554 0.0
H1136 H 0.62648 0.51136 0.95234 0.0
H1137 H 0.64558 0.54577 0.9435 0.0
H1138 H 0.65005 0.51977 0.93149 0.0
H1139 H 0.71124 0.55932 0.02273 0.0
H1140 H 0.68301 0.56601 0.01748 0.0
H1141 H 0.67528 0.53192 0.02268 0.0
H1142 H 0.6152 0.58194 0.99093 0.0
H1143 H 0.57585 0.49631 0.0034 0.0
H1144 H 0.67086 0.58824 0.96418 0.0
H1145 H 0.68536 0.59527 0.98873 0.0
H1146 H 0.66239 0.60784 0.98107 0.0
H1147 H 0.62184 0.48211 0.98134 0.0
H1148 H 0.60067 0.47258 0.00357 0.0
H1149 H 0.63851 0.49233 0.00512 0.0
C1150 C 0.48765 0.17693 0.9736 0.0
C1151 C 0.46056 0.17055 0.96771 0.0
C1152 C 0.49281 0.15676 0.98118 0.0
C1153 C 0.47025 0.12965 0.98309 0.0
C1154 C 0.44268 0.12326 0.97772 0.0
C1155 C 0.43819 0.14379 0.96997 0.0
C1156 C 0.52254 0.16428 0.98655 0.0
C1157 C 0.41805 0.09465 0.97981 0.0
C1158 C 0.48722 0.0724 0.98226 0.0
C1159 C 0.4872 0.06684 1.00255 0.0
C1160 C 0.48175 0.09281 0.97573 0.0
C1161 C 0.47574 0.10775 0.98985 0.0
C1162 C 0.4753 0.10195 0.01036 0.0
C1163 C 0.48114 0.08158 0.01645 0.0
C1164 C 0.48276 0.09862 0.95373 0.0
C1165 C 0.46857 0.11717 0.02584 0.0
H1166 H 0.50501 0.19757 0.97167 0.0
H1167 H 0.41718 0.13892 0.96559 0.0
H1168 H 0.52342 0.15834 1.00214 0.0
H1169 H 0.52956 0.15291 0.9769 0.0
H1170 H 0.53754 0.18648 0.98487 0.0
H1171 H 0.39773 0.09342 0.9761 0.0
H1172 H 0.42094 0.08062 0.96984 0.0
H1173 H 0.4169 0.08724 0.99524 0.0
H1174 H 0.49208 0.06111 0.97146 0.0
H1175 H 0.4803 0.0768 0.03204 0.0
H1176 H 0.49887 0.12018 0.95075 0.0
H1177 H 0.46223 0.0958 0.94871 0.0
H1178 H 0.48779 0.08516 0.94471 0.0
H1179 H 0.48392 0.13935 0.02493 0.0
H1180 H 0.46898 0.11009 0.04118 0.0
H1181 H 0.44744 0.11449 0.02296 0.0
C1182 C 0.70595 0.16217 0.9997 0.0
C1183 C 0.71172 0.17062 0.97984 0.0
C1184 C 0.67959 0.14047 0.00542 0.0
C1185 C 0.65831 0.12676 0.99095 0.0
C1186 C 0.66378 0.13576 0.97091 0.0
C1187 C 0.6905 0.15738 0.96557 0.0
C1188 C 0.67485 0.13174 0.02686 0.0
C1189 C 0.64174 0.12185 0.95498 0.0
C1190 C 0.60343 0.05178 0.99771 0.0
C1191 C 0.57949 0.05307 1.00309 0.0
C1192 C 0.62935 0.07562 0.99445 0.0
C1193 C 0.63138 0.10151 0.99631 0.0
C1194 C 0.60741 0.10295 1.00235 0.0
C1195 C 0.58168 0.07869 0.00554 0.0
C1196 C 0.65441 0.07302 0.98845 0.0
C1197 C 0.60858 0.13002 0.00469 0.0
H1198 H 0.72242 0.17208 0.01074 0.0
H1199 H 0.69505 0.16351 0.95013 0.0
H1200 H 0.65763 0.13441 0.03296 0.0
H1201 H 0.66839 0.10981 0.02802 0.0
H1202 H 0.6939 0.14372 0.03616 0.0
H1203 H 0.6484 0.13267 0.9405 0.0
H1204 H 0.63743 0.10064 0.95288 0.0
H1205 H 0.62174 0.12063 0.95957 0.0
H1206 H 0.60171 0.03198 0.9957 0.0
H1207 H 0.56309 0.07978 0.00934 0.0
H1208 H 0.67236 0.08527 0.99857 0.0
H1209 H 0.66115 0.08118 0.97321 0.0
H1210 H 0.64975 0.05152 0.98872 0.0
H1211 H 0.62668 0.14396 0.01415 0.0
H1212 H 0.58903 0.12775 0.0114 0.0
H1213 H 0.6117 0.13984 0.98992 0.0
C1214 C 0.85583 0.54226 0.00467 0.0
C1215 C 0.84604 0.54108 0.98524 0.0
C1216 C 0.87777 0.53694 0.00876 0.0
C1217 C 0.89048 0.53026 0.99306 0.0
C1218 C 0.88004 0.52818 0.97344 0.0
C1219 C 0.85816 0.53384 0.96974 0.0
C1220 C 0.88803 0.5395 0.02983 0.0
C1221 C 0.89279 0.52107 0.95621 0.0
C1222 C 0.96747 0.54913 0.9976 0.0
C1223 C 0.9655 0.52395 1.00175 0.0
C1224 C 0.9433 0.55148 0.99525 0.0
C1225 C 0.91624 0.52798 0.99685 0.0
C1226 C 0.91411 0.50253 1.0015 0.0
C1227 C 0.93874 0.50078 0.00372 0.0
C1228 C 0.9468 0.57912 0.9906 0.0
C1229 C 0.88585 0.47697 0.00357 0.0
H1230 H 0.84689 0.54825 0.01669 0.0
H1231 H 0.85104 0.53339 0.95464 0.0
H1232 H 0.8866 0.52006 0.03445 0.0
H1233 H 0.91043 0.55576 0.03072 0.0
H1234 H 0.87572 0.54443 0.04045 0.0
H1235 H 0.88086 0.518 0.94219 0.0
H1236 H 0.91476 0.53772 0.95389 0.0
H1237 H 0.8935 0.50221 0.95953 0.0
H1238 H 0.9881 0.56706 0.99591 0.0
H1239 H 0.93701 0.48114 0.00651 0.0
H1240 H 0.93527 0.58436 1.00168 0.0
H1241 H 0.93765 0.57862 0.97579 0.0
H1242 H 0.96921 0.59555 0.9906 0.0
H1243 H 0.87247 0.48038 0.0142 0.0
H1244 H 0.88773 0.45932 0.0088 0.0
H1245 H 0.87491 0.47173 0.989 0.0
C1246 C 0.47648 0.31379 0.96555 0.0
C1247 C 0.46438 0.29562 0.9815 0.0
C1248 C 0.48446 0.34143 0.96756 0.0
C1249 C 0.47942 0.35084 0.98574 0.0
C1250 C 0.46664 0.33245 1.00174 0.0
C1251 C 0.45925 0.30503 0.9994 0.0
C1252 C 0.49825 0.36054 0.95026 0.0
C1253 C 0.46059 0.3417 0.02127 0.0
C1254 C 0.52066 0.42568 0.99968 0.0
C1255 C 0.50139 0.43433 0.99526 0.0
C1256 C 0.51408 0.39873 0.99616 0.0
C1257 C 0.48749 0.37994 0.98812 0.0
C1258 C 0.4682 0.38872 0.98315 0.0
C1259 C 0.47548 0.41594 0.98666 0.0
C1260 C 0.53532 0.39025 1.00152 0.0
C1261 C 0.43947 0.36914 0.97482 0.0
H1262 H 0.47972 0.30639 0.9515 0.0
H1263 H 0.44921 0.2908 0.01154 0.0
H1264 H 0.4853 0.36958 0.94558 0.0
H1265 H 0.51908 0.37763 0.95483 0.0
H1266 H 0.50118 0.35008 0.93726 0.0
H1267 H 0.45015 0.32472 0.03212 0.0
H1268 H 0.48044 0.35792 0.02794 0.0
H1269 H 0.44686 0.35061 0.01874 0.0
H1270 H 0.54087 0.43994 0.00616 0.0
H1271 H 0.46045 0.42246 0.98339 0.0
H1272 H 0.53903 0.3802 0.98864 0.0
H1273 H 0.52702 0.37517 0.01381 0.0
H1274 H 0.55575 0.40783 0.0063 0.0
H1275 H 0.44146 0.35898 0.96131 0.0
H1276 H 0.42741 0.37946 0.97097 0.0
H1277 H 0.42726 0.35291 0.98588 0.0
C1278 C 0.15681 0.70632 0.05393 0.0
C1279 C 0.18469 0.71342 0.04981 0.0
C1280 C 0.13477 0.67921 0.05205 0.0
C1281 C 0.14075 0.65867 0.04594 0.0
C1282 C 0.16904 0.66556 0.04264 0.0
C1283 C 0.19066 0.69288 0.04454 0.0
C1284 C 0.10494 0.67282 0.05562 0.0
C1285 C 0.17635 0.64429 0.03619 0.0
C1286 C 0.08409 0.58349 0.05003 0.0
C1287 C 0.07409 0.57773 0.03044 0.0
C1288 C 0.10572 0.60979 0.05543 0.0
C1289 C 0.11731 0.63076 0.04091 0.0
C1290 C 0.10662 0.6251 0.02126 0.0
C1291 C 0.08515 0.59874 0.01633 0.0
C1292 C 0.11659 0.61499 0.0765 0.0
C1293 C 0.11803 0.64682 0.00533 0.0
H1294 H 0.15212 0.72215 0.05802 0.0
H1295 H 0.21221 0.69838 0.04133 0.0
H1296 H 0.09326 0.66724 0.04133 0.0
H1297 H 0.09394 0.65506 0.06572 0.0
H1298 H 0.10403 0.69042 0.06213 0.0
H1299 H 0.19941 0.65233 0.03616 0.0
H1300 H 0.16624 0.62629 0.04617 0.0
H1301 H 0.16817 0.63713 0.02097 0.0
H1302 H 0.07557 0.56727 0.06099 0.0
H1303 H 0.07684 0.59463 1.00136 0.0
H1304 H 0.11529 0.63239 0.08294 0.0
H1305 H 0.13909 0.6207 0.07661 0.0
H1306 H 0.1047 0.59685 0.08618 0.0
H1307 H 0.1157 0.6644 0.01 0.0
H1308 H 0.10718 0.63913 0.99084 0.0
H1309 H 0.14081 0.65452 0.00316 0.0
C1310 C 0.328 0.47372 0.05911 0.0
C1311 C 0.30772 0.46671 0.04414 0.0
C1312 C 0.35558 0.47964 0.05456 0.0
C1313 C 0.36304 0.47813 0.03458 0.0
C1314 C 0.34277 0.47176 0.01941 0.0
C1315 C 0.31548 0.46617 0.02435 0.0
C1316 C 0.37641 0.48643 0.07125 0.0
C1317 C 0.34958 0.46998 0.99797 0.0
C1318 C 0.44136 0.50844 0.02253 0.0
C1319 C 0.44457 0.48539 0.02388 0.0
C1320 C 0.41488 0.50637 0.02529 0.0
C1321 C 0.39105 0.4807 0.02986 0.0
C1322 C 0.39417 0.45729 0.03067 0.0
C1323 C 0.42082 0.45996 0.0278 0.0
C1324 C 0.41269 0.53187 0.02404 0.0
C1325 C 0.36945 0.42942 0.03515 0.0
H1326 H 0.322 0.47377 0.07445 0.0
H1327 H 0.29986 0.46047 0.01272 0.0
H1328 H 0.3815 0.46985 0.07282 0.0
H1329 H 0.39632 0.50548 0.06782 0.0
H1330 H 0.36821 0.48902 0.08569 0.0
H1331 H 0.33143 0.46438 0.98793 0.0
H1332 H 0.36727 0.48996 0.99319 0.0
H1333 H 0.35632 0.45458 0.99633 0.0
H1334 H 0.45969 0.52826 0.01995 0.0
H1335 H 0.42324 0.44213 0.02903 0.0
H1336 H 0.40801 0.53689 0.039 0.0
H1337 H 0.39516 0.52853 0.01408 0.0
H1338 H 0.43241 0.54965 0.01848 0.0
H1339 H 0.36135 0.42934 0.05028 0.0
H1340 H 0.37505 0.41309 0.03434 0.0
H1341 H 0.35211 0.42449 0.02451 0.0
C1342 C 0.57311 0.85926 0.02857 0.0
C1343 C 0.56593 0.84442 0.04636 0.0
C1344 C 0.56558 0.87926 0.02518 0.0
C1345 C 0.55053 0.8845 0.03997 0.0
C1346 C 0.5435 0.86978 0.05806 0.0
C1347 C 0.55168 0.85021 0.06117 0.0
C1348 C 0.57389 0.89492 0.00585 0.0
C1349 C 0.52729 0.87467 0.07411 0.0
C1350 C 0.55223 0.95245 0.03918 0.0
C1351 C 0.52693 0.94544 0.02947 0.0
C1352 C 0.56022 0.93281 0.04266 0.0
C1353 C 0.54226 0.90548 0.03654 0.0
C1354 C 0.51643 0.89821 0.02706 0.0
C1355 C 0.50913 0.9183 0.02358 0.0
C1356 C 0.5881 0.9414 0.05259 0.0
C1357 C 0.49654 0.86924 0.02051 0.0
H1358 H 0.58475 0.85528 0.01733 0.0
H1359 H 0.5468 0.83934 0.07518 0.0
H1360 H 0.55488 0.89191 0.99785 0.0
H1361 H 0.58712 0.91709 0.00889 0.0
H1362 H 0.58574 0.88851 0.99594 0.0
H1363 H 0.52293 0.86106 0.08714 0.0
H1364 H 0.53927 0.89617 0.07924 0.0
H1365 H 0.50699 0.87129 0.06807 0.0
H1366 H 0.56611 0.9734 0.04369 0.0
H1367 H 0.48935 0.91269 0.01629 0.0
H1368 H 0.60149 0.93705 0.04263 0.0
H1369 H 0.58478 0.92945 0.0664 0.0
H1370 H 0.59964 0.96347 0.05642 0.0
H1371 H 0.50703 0.86277 0.00944 0.0
H1372 H 0.47696 0.86688 0.01378 0.0
H1373 H 0.49081 0.85522 0.0334 0.0
C1374 C 0.99797 0.1929 0.40541 0.0
C1375 C 0.97457 0.1769 0.39328 0.0
C1376 C 0.02239 0.21525 0.39771 0.0
C1377 C 0.02377 0.22171 0.37726 0.0
C1378 C 1.00066 0.20515 0.36474 0.0
C1379 C 0.97631 0.183 0.3729 0.0
C1380 C 0.04651 0.23235 0.41163 0.0
C1381 C 1.00156 0.211 0.34279 0.0
C1382 C 0.0751 0.29628 0.36602 0.0
C1383 C 0.09946 0.29557 0.36097 0.0
C1384 C 0.04984 0.27219 0.37026 0.0
C1385 C 0.0489 0.24671 0.36943 0.0
C1386 C 0.07309 0.24578 0.3633 0.0
C1387 C 0.0982 0.27026 0.3595 0.0
C1388 C 0.02462 0.27419 0.37677 0.0
C1389 C 0.07296 0.2191 0.36175 0.0
H1390 H 0.99719 0.18802 0.42106 0.0
H1391 H 0.95838 0.17091 0.36337 0.0
H1392 H 0.066 0.23314 0.40626 0.0
H1393 H 0.0505 0.25362 0.41189 0.0
H1394 H 0.04234 0.22431 0.42707 0.0
H1395 H 0.98154 0.19676 0.33517 0.0
H1396 H 1.00607 0.23222 0.34039 0.0
H1397 H 0.01883 0.20921 0.33575 0.0
H1398 H 0.07611 0.31586 0.36737 0.0
H1399 H 0.11705 0.26953 0.35611 0.0
H1400 H 0.02006 0.26827 0.39264 0.0
H1401 H 1.00577 0.25986 0.36807 0.0
H1402 H 0.02802 0.29515 0.375 0.0
H1403 H 0.07253 0.21111 0.37688 0.0
H1404 H 0.09183 0.22147 0.35385 0.0
H1405 H 0.05389 0.20365 0.3538 0.0
C1406 C 0.83202 0.79407 0.37932 0.0
C1407 C 0.83905 0.79932 0.39958 0.0
C1408 C 0.80921 0.79571 0.37117 0.0
C1409 C 0.79271 0.80254 0.38353 0.0
C1410 C 0.79993 0.80828 0.40388 0.0
C1411 C 0.82304 0.8069 0.41155 0.0
C1412 C 0.80279 0.79017 0.34929 0.0
C1413 C 0.78286 0.81539 0.4177 0.0
C1414 C 0.74529 0.82848 0.36333 0.0
C1415 C 0.71864 0.8049 0.36392 0.0
C1416 C 0.76971 0.82774 0.36862 0.0
C1417 C 0.76745 0.80302 0.37548 0.0
C1418 C 0.74057 0.7791 0.37598 0.0
C1419 C 0.71659 0.78031 0.37012 0.0
C1420 C 0.79783 0.85367 0.36746 0.0
C1421 C 0.73699 0.75238 0.38342 0.0
H1422 H 0.84396 0.78808 0.36984 0.0
H1423 H 0.82852 0.81181 0.42707 0.0
H1424 H 0.78031 0.77477 0.34699 0.0
H1425 H 0.8067 0.80923 0.34182 0.0
H1426 H 0.81595 0.78283 0.34201 0.0
H1427 H 0.79114 0.81934 0.43315 0.0
H1428 H 0.78259 0.83375 0.41221 0.0
H1429 H 0.76076 0.7984 0.41798 0.0
H1430 H 0.7471 0.84775 0.35917 0.0
H1431 H 0.69603 0.76211 0.37094 0.0
H1432 H 0.81308 0.84998 0.35918 0.0
H1433 H 0.80634 0.86043 0.38266 0.0
H1434 H 0.79634 0.87046 0.36003 0.0
H1435 H 0.75109 0.74708 0.37516 0.0
H1436 H 0.715 0.73533 0.38188 0.0
H1437 H 0.74303 0.7544 0.39935 0.0
C1438 C 0.24506 0.04752 0.396 0.0
C1439 C 0.22355 0.05386 0.39792 0.0
C1440 C 0.23968 0.02256 0.38782 0.0
C1441 C 0.21203 0.00333 0.38173 0.0
C1442 C 0.19029 0.00977 0.38342 0.0
C1443 C 0.19637 0.0351 0.39137 0.0
C1444 C 0.26351 0.01662 0.38595 0.0
C1445 C 0.16048 0.98962 0.37732 0.0
C1446 C 0.20201 0.94621 0.34695 0.0
C1447 C 0.19537 0.9249 0.36032 0.0
C1448 C 0.20733 0.97186 0.35366 0.0
C1449 C 0.20574 0.97613 0.37424 0.0
C1450 C 0.19879 0.95454 0.38781 0.0
C1451 C 0.19392 0.92924 0.38069 0.0
C1452 C 0.21515 0.9945 0.33876 0.0
C1453 C 0.19652 0.95817 0.40986 0.0
H1454 H 0.26614 0.06219 0.40089 0.0
H1455 H 0.17972 0.03996 0.393 0.0
H1456 H 0.25928 0.99892 0.39542 0.0
H1457 H 0.26514 0.01107 0.37038 0.0
H1458 H 0.28405 0.03431 0.39042 0.0
H1459 H 0.14616 0.99804 0.37911 0.0
H1460 H 0.15991 0.98354 0.36157 0.0
H1461 H 0.15237 0.97083 0.38643 0.0
H1462 H 0.20389 0.94313 0.33133 0.0
H1463 H 0.18857 0.91268 0.39105 0.0
H1464 H 0.23659 0.01162 0.34202 0.0
H1465 H 0.20053 0.00261 0.33997 0.0
H1466 H 0.21467 0.98759 0.32323 0.0
H1467 H 0.21708 0.97428 0.41571 0.0
H1468 H 0.19 0.93906 0.41832 0.0
H1469 H 0.18104 0.96495 0.41263 0.0
C1470 C 0.53252 0.63156 0.29516 0.0
C1471 C 0.50441 0.62532 0.29402 0.0
C1472 C 0.55354 0.65675 0.30269 0.0
C1473 C 0.54637 0.67637 0.30903 0.0
C1474 C 0.51797 0.6701 0.30808 0.0
C1475 C 0.49728 0.64456 0.30072 0.0
C1476 C 0.58345 0.6624 0.30374 0.0
C1477 C 0.50953 0.69057 0.31452 0.0
C1478 C 0.59681 0.73313 0.34366 0.0
C1479 C 0.61176 0.75476 0.33041 0.0
C1480 C 0.57541 0.70757 0.33695 0.0
C1481 C 0.56871 0.70354 0.31645 0.0
C1482 C 0.58381 0.72532 0.30296 0.0
C1483 C 0.60527 0.75059 0.31008 0.0
C1484 C 0.5602 0.68481 0.35181 0.0
C1485 C 0.57718 0.72196 0.281 0.0
H1486 H 0.53806 0.61661 0.29022 0.0
H1487 H 0.47561 0.63988 0.29972 0.0
H1488 H 0.59721 0.68022 0.29428 0.0
H1489 H 0.59142 0.66766 0.31921 0.0
H1490 H 0.5854 0.64468 0.29878 0.0
H1491 H 0.48655 0.68248 0.31303 0.0
H1492 H 0.51566 0.69652 0.33024 0.0
H1493 H 0.52081 0.70937 0.30542 0.0
H1494 H 0.6022 0.73594 0.35925 0.0
H1495 H 0.61667 0.76729 0.29975 0.0
H1496 H 0.56335 0.66743 0.34801 0.0
H1497 H 0.53727 0.67719 0.35118 0.0
H1498 H 0.56759 0.69141 0.36727 0.0
H1499 H 0.58045 0.70557 0.27483 0.0
H1500 H 0.59044 0.74105 0.27254 0.0
H1501 H 0.55475 0.71569 0.27862 0.0
C1502 C 0.37589 0.87941 0.3192 0.0
C1503 C 0.37832 0.87471 0.29896 0.0
C1504 C 0.35111 0.87771 0.32684 0.0
C1505 C 0.32809 0.87117 0.314 0.0
C1506 C 0.33013 0.86561 0.29371 0.0
C1507 C 0.35501 0.86729 0.28652 0.0
C1508 C 0.34969 0.88322 0.34861 0.0
C1509 C 0.30621 0.8585 0.27942 0.0
C1510 C 0.25305 0.84694 0.33159 0.0
C1511 C 0.2513 0.87076 0.3298 0.0
C1512 C 0.27835 0.84708 0.32775 0.0
C1513 C 0.30237 0.87145 0.32129 0.0
C1514 C 0.30086 0.89572 0.31995 0.0
C1515 C 0.27541 0.89505 0.32418 0.0
C1516 C 0.27893 0.8208 0.3298 0.0
C1517 C 0.3258 0.92218 0.31313 0.0
H1518 H 0.39367 0.88522 0.32899 0.0
H1519 H 0.35624 0.86293 0.27098 0.0
H1520 H 0.34437 0.8996 0.35049 0.0
H1521 H 0.33277 0.86456 0.35577 0.0
H1522 H 0.36978 0.88932 0.35648 0.0
H1523 H 0.31079 0.85408 0.26422 0.0
H1524 H 0.28675 0.84041 0.28486 0.0
H1525 H 0.30195 0.87569 0.27853 0.0
H1526 H 0.23445 0.82792 0.33537 0.0
H1527 H 0.27411 0.91346 0.32254 0.0
H1528 H 0.29794 0.82433 0.33808 0.0
H1529 H 0.27986 0.81306 0.31483 0.0
H1530 H 0.26002 0.80479 0.33762 0.0
H1531 H 0.34462 0.9269 0.32214 0.0
H1532 H 0.32191 0.93962 0.31422 0.0
H1533 H 0.33071 0.92016 0.29743 0.0
C1534 C 0.11042 0.48229 0.2957 0.0
C1535 C 0.13261 0.50938 0.29575 0.0
C1536 C 0.11419 0.46113 0.30305 0.0
C1537 C 0.14082 0.46725 0.31051 0.0
C1538 C 0.1632 0.49461 0.31083 0.0
C1539 C 0.15878 0.51538 0.3035 0.0
C1540 C 0.08977 0.43221 0.30265 0.0
C1541 C 0.19192 0.50188 0.3186 0.0
C1542 C 0.14577 0.41643 0.34463 0.0
C1543 C 0.1549 0.40326 0.33155 0.0
C1544 C 0.14102 0.43728 0.338 0.0
C1545 C 0.14541 0.44497 0.31773 0.0
C1546 C 0.15427 0.43142 0.30436 0.0
C1547 C 0.15878 0.41059 0.31143 0.0
C1548 C 0.13125 0.451 0.35267 0.0
C1549 C 0.15929 0.43912 0.28264 0.0
H1550 H 0.09006 0.47765 0.28994 0.0
H1551 H 0.17604 0.53628 0.30337 0.0
H1552 H 0.09503 0.41931 0.2932 0.0
H1553 H 0.0856 0.42343 0.31785 0.0
H1554 H 0.07024 0.431 0.29683 0.0
H1555 H 0.20695 0.5242 0.31813 0.0
H1556 H 0.19028 0.49476 0.33417 0.0
H1557 H 0.20064 0.49135 0.30965 0.0
H1558 H 0.14163 0.41002 0.35993 0.0
H1559 H 0.16586 0.40036 0.30129 0.0
H1560 H 0.11075 0.44845 0.34784 0.0
H1561 H 0.14648 0.47324 0.35316 0.0
H1562 H 0.12888 0.44262 0.36793 0.0
H1563 H 0.13983 0.43677 0.27577 0.0
H1564 H 0.16598 0.42644 0.27419 0.0
H1565 H 0.17577 0.46089 0.28114 0.0
C1566 C 0.36072 0.48859 0.30117 0.0
C1567 C 0.38117 0.50184 0.31593 0.0
C1568 C 0.33344 0.46763 0.30606 0.0
C1569 C 0.3266 0.45931 0.32615 0.0
C1570 C 0.34711 0.47303 0.3411 0.0
C1571 C 0.37407 0.4941 0.33582 0.0
C1572 C 0.31228 0.45364 0.28962 0.0
C1573 C 0.34088 0.4651 0.36265 0.0
C1574 C 0.24877 0.41314 0.33844 0.0
C1575 C 0.24598 0.38718 0.33682 0.0
C1576 C 0.27507 0.43693 0.33579 0.0
C1577 C 0.29901 0.43465 0.33115 0.0
C1578 C 0.29632 0.40841 0.3302 0.0
C1579 C 0.26985 0.38506 0.33289 0.0
C1580 C 0.27697 0.46442 0.33718 0.0
C1581 C 0.32131 0.40494 0.32575 0.0
H1582 H 0.36631 0.49419 0.28574 0.0
H1583 H 0.38992 0.50407 0.34725 0.0
H1584 H 0.30746 0.43218 0.2882 0.0
H1585 H 0.29231 0.45313 0.29323 0.0
H1586 H 0.32004 0.46395 0.27505 0.0
H1587 H 0.35979 0.47607 0.37223 0.0
H1588 H 0.32476 0.46996 0.36792 0.0
H1589 H 0.3323 0.44282 0.36441 0.0
H1590 H 0.23025 0.41484 0.34113 0.0
H1591 H 0.26765 0.36498 0.33153 0.0
H1592 H 0.2817 0.47413 0.32228 0.0
H1593 H 0.29437 0.4781 0.34724 0.0
H1594 H 0.25713 0.46281 0.3427 0.0
H1595 H 0.3293 0.41265 0.3106 0.0
H1596 H 0.31602 0.38327 0.32664 0.0
H1597 H 0.3386 0.41711 0.33637 0.0
C1598 C 0.51679 0.8772 0.33869 0.0
C1599 C 0.50648 0.87499 0.3193 0.0
C1600 C 0.53905 0.87242 0.34291 0.0
C1601 C 0.55155 0.86516 0.32741 0.0
C1602 C 0.54065 0.8621 0.30784 0.0
C1603 C 0.51846 0.86729 0.30399 0.0
C1604 C 0.54974 0.87599 0.36392 0.0
C1605 C 0.55316 0.85437 0.2908 0.0
C1606 C 0.62871 0.88446 0.33204 0.0
C1607 C 0.62686 0.85953 0.33696 0.0
C1608 C 0.60446 0.88658 0.32929 0.0
C1609 C 0.57744 0.86312 0.33132 0.0
C1610 C 0.57544 0.83794 0.33671 0.0
C1611 C 0.60014 0.8364 0.3393 0.0
C1612 C 0.60781 0.91396 0.32389 0.0
C1613 C 0.54724 0.81246 0.33928 0.0
H1614 H 0.50796 0.88356 0.35055 0.0
H1615 H 0.51098 0.86607 0.2889 0.0
H1616 H 0.54735 0.85642 0.36926 0.0
H1617 H 0.57243 0.89154 0.36437 0.0
H1618 H 0.53829 0.88236 0.37424 0.0
H1619 H 0.54097 0.85066 0.27684 0.0
H1620 H 0.57506 0.87098 0.28814 0.0
H1621 H 0.55404 0.83572 0.29457 0.0
H1622 H 0.64929 0.90237 0.33011 0.0
H1623 H 0.59852 0.81695 0.34276 0.0
H1624 H 0.59658 0.91975 0.33483 0.0
H1625 H 0.59825 0.91269 0.30911 0.0
H1626 H 0.63021 0.93038 0.32343 0.0
H1627 H 0.53412 0.81623 0.34992 0.0
H1628 H 0.54923 0.79497 0.34476 0.0
H1629 H 0.53593 0.80675 0.32485 0.0
C1630 C 0.14379 0.65048 0.29835 0.0
C1631 C 0.13118 0.63146 0.31376 0.0
C1632 C 0.15027 0.67766 0.30076 0.0
C1633 C 0.14317 0.6857 0.31877 0.0
C1634 C 0.12974 0.66639 0.33415 0.0
C1635 C 0.12388 0.63947 0.33144 0.0
C1636 C 0.16484 0.69778 0.28412 0.0
C1637 C 0.12148 0.67416 0.35345 0.0
C1638 C 0.18157 0.75989 0.33455 0.0
C1639 C 0.16222 0.76816 0.32936 0.0
C1640 C 0.1759 0.73328 0.33078 0.0
C1641 C 0.15014 0.71442 0.3217 0.0
C1642 C 0.13074 0.72278 0.31605 0.0
C1643 C 0.13713 0.74969 0.31983 0.0
C1644 C 0.19727 0.72526 0.33685 0.0
C1645 C 0.10292 0.7031 0.30655 0.0
H1646 H 0.14869 0.64414 0.28443 0.0
H1647 H 0.11343 0.62456 0.34313 0.0
H1648 H 0.15174 0.70653 0.27915 0.0
H1649 H 0.18508 0.71498 0.28952 0.0
H1650 H 0.16911 0.68828 0.27112 0.0
H1651 H 0.11068 0.65657 0.36376 0.0
H1652 H 0.14042 0.69049 0.361 0.0
H1653 H 0.10731 0.68244 0.35042 0.0
H1654 H 0.20121 0.77422 0.34169 0.0
H1655 H 0.12211 0.75601 0.31586 0.0
H1656 H 0.2026 0.71642 0.32397 0.0
H1657 H 0.18825 0.70932 0.34853 0.0
H1658 H 0.21694 0.74284 0.34269 0.0
H1659 H 0.10636 0.69403 0.29297 0.0
H1660 H 0.09057 0.71306 0.30249 0.0
H1661 H 0.09027 0.68608 0.31696 0.0
C1662 C 0.8314 0.04021 0.36014 0.0
C1663 C 0.84723 0.05041 0.37759 0.0
C1664 C 0.80998 0.0128 0.35867 0.0
C1665 C 0.80413 0.99512 0.37511 0.0
C1666 C 0.8199 0.00535 0.39286 0.0
C1667 C 0.84102 0.03297 0.39398 0.0
C1668 C 0.79349 0.0028 0.33954 0.0
C1669 C 0.81447 0.9871 0.41064 0.0
C1670 C 0.7322 0.93049 0.37548 0.0
C1671 C 0.73836 0.91153 0.36689 0.0
C1672 C 0.75353 0.95766 0.37875 0.0
C1673 C 0.78169 0.96589 0.37353 0.0
C1674 C 0.78813 0.94644 0.36569 0.0
C1675 C 0.76643 0.91957 0.36245 0.0
C1676 C 0.74574 0.97783 0.38698 0.0
C1677 C 0.81782 0.95417 0.36006 0.0
H1678 H 0.83567 0.05381 0.34763 0.0
H1679 H 0.85266 0.04095 0.4077 0.0
H1680 H 0.79619 0.98619 0.33311 0.0
H1681 H 0.77073 0.99417 0.34254 0.0
H1682 H 0.80017 0.01929 0.32831 0.0
H1683 H 0.82879 0.99809 0.42325 0.0
H1684 H 0.79244 0.97858 0.41573 0.0
H1685 H 0.8172 0.96959 0.40643 0.0
H1686 H 0.71061 0.92447 0.3789 0.0
H1687 H 0.77143 0.90489 0.35608 0.0
H1688 H 0.74977 0.99356 0.37559 0.0
H1689 H 0.75898 0.98854 0.40007 0.0
H1690 H 0.72327 0.96788 0.39143 0.0
H1691 H 0.82477 0.96842 0.34725 0.0
H1692 H 0.81967 0.93612 0.35587 0.0
H1693 H 0.83241 0.9649 0.37257 0.0
C1694 C 0.97457 0.7985 0.35962 0.0
C1695 C 0.96737 0.80003 0.37939 0.0
C1696 C 1.00188 0.80441 0.35443 0.0
C1697 C 0.02283 0.81221 0.3693 0.0
C1698 C 0.01592 0.81478 0.38923 0.0
C1699 C 0.98828 0.80847 0.39405 0.0
C1700 C 1.00803 0.80155 0.33304 0.0
C1701 C 0.03743 0.82309 0.40563 0.0
C1702 C 0.08123 0.7948 0.36286 0.0
C1703 C 0.10453 0.82004 0.3578 0.0
C1704 C 0.05456 0.79194 0.36606 0.0
C1705 C 0.05092 0.81498 0.36445 0.0
C1706 C 0.07428 0.84047 0.35882 0.0
C1707 C 0.10083 0.84273 0.35569 0.0
C1708 C 0.03033 0.76423 0.37157 0.0
C1709 C 0.07149 0.86553 0.35668 0.0
H1710 H 0.9585 0.79178 0.34822 0.0
H1711 H 0.98274 0.80932 0.4094 0.0
H1712 H 0.02383 0.82187 0.32727 0.0
H1713 H 0.01697 0.78783 0.33186 0.0
H1714 H 0.98901 0.79334 0.32348 0.0
H1715 H 0.02962 0.82654 0.41996 0.0
H1716 H 0.04296 0.80689 0.40782 0.0
H1717 H 0.05701 0.84205 0.40147 0.0
H1718 H 0.084 0.77723 0.36461 0.0
H1719 H 0.11883 0.86242 0.35213 0.0
H1720 H 0.01265 0.75824 0.36102 0.0
H1721 H 0.02253 0.76508 0.38662 0.0
H1722 H 0.03632 0.74816 0.37149 0.0
H1723 H 0.05395 0.86137 0.34644 0.0
H1724 H 0.09105 0.88331 0.35093 0.0
H1725 H 0.06641 0.871 0.37134 0.0
C1726 C 0.21467 0.18542 0.39666 0.0
C1727 C 0.22929 0.17987 0.38199 0.0
C1728 C 0.20645 0.20495 0.39347 0.0
C1729 C 0.21379 0.21985 0.37545 0.0
C1730 C 0.22912 0.21478 0.36079 0.0
C1731 C 0.2367 0.19485 0.36426 0.0
C1732 C 0.18991 0.20965 0.40937 0.0
C1733 C 0.23772 0.23059 0.34152 0.0
C1734 C 0.17297 0.25375 0.35801 0.0
C1735 C 0.19081 0.28096 0.36373 0.0
C1736 C 0.17995 0.23357 0.36203 0.0
C1737 C 0.20551 0.24081 0.3719 0.0
C1738 C 0.22343 0.26817 0.37799 0.0
C1739 C 0.21575 0.28792 0.37395 0.0
C1740 C 0.16013 0.20458 0.35548 0.0
C1741 C 0.25102 0.27672 0.38833 0.0
H1742 H 0.2096 0.17445 0.41064 0.0
H1743 H 0.24864 0.19106 0.35314 0.0
H1744 H 0.20176 0.23111 0.41461 0.0
H1745 H 0.16971 0.2063 0.40313 0.0
H1746 H 0.18533 0.19593 0.42235 0.0
H1747 H 0.24976 0.22429 0.33172 0.0
H1748 H 0.21883 0.22761 0.33336 0.0
H1749 H 0.25086 0.25275 0.34467 0.0
H1750 H 0.15346 0.24819 0.35033 0.0
H1751 H 0.22965 0.30893 0.37832 0.0
H1752 H 0.15446 0.19053 0.36835 0.0
H1753 H 0.17066 0.19821 0.34438 0.0
H1754 H 0.14052 0.20216 0.34877 0.0
H1755 H 0.24739 0.2645 0.40203 0.0
H1756 H 0.26231 0.29871 0.39239 0.0
H1757 H 0.26479 0.27271 0.3785 0.0
C1758 C 0.65454 0.53032 0.74024 0.0
C1759 C 0.63976 0.50496 0.7304 0.0
C1760 C 0.67928 0.55213 0.73241 0.0
C1761 C 0.68849 0.54994 0.71319 0.0
C1762 C 0.67298 0.52516 0.70252 0.0
C1763 C 0.64954 0.5028 0.71147 0.0
C1764 C 0.69552 0.57741 0.74506 0.0
C1765 C 0.68115 0.52199 0.6817 0.0
C1766 C 0.73917 0.62176 0.69488 0.0
C1767 C 0.76491 0.62232 0.69526 0.0
C1768 C 0.7138 0.59742 0.69849 0.0
C1769 C 0.71438 0.57368 0.70461 0.0
C1770 C 0.74052 0.57417 0.70476 0.0
C1771 C 0.76527 0.59827 0.69954 0.0
C1772 C 0.68661 0.59766 0.69607 0.0
C1773 C 0.74318 0.54994 0.71108 0.0
H1774 H 0.64711 0.53358 0.75428 0.0
H1775 H 0.63917 0.48365 0.70348 0.0
H1776 H 0.71855 0.58696 0.74274 0.0
H1777 H 0.68912 0.59255 0.74115 0.0
H1778 H 0.69111 0.5727 0.76113 0.0
H1779 H 0.6632 0.50521 0.67357 0.0
H1780 H 0.68882 0.54115 0.67311 0.0
H1781 H 0.69829 0.51706 0.68238 0.0
H1782 H 0.73883 0.64035 0.69153 0.0
H1783 H 0.7852 0.5987 0.70018 0.0
H1784 H 0.6826 0.60638 0.7096 0.0
H1785 H 0.66841 0.57693 0.69348 0.0
H1786 H 0.68812 0.61092 0.68339 0.0
H1787 H 0.72531 0.53509 0.72029 0.0
H1788 H 0.76293 0.55675 0.71962 0.0
H1789 H 0.74454 0.53935 0.69759 0.0
C1790 C 0.50412 0.13035 0.71156 0.0
C1791 C 0.51021 0.13413 0.73201 0.0
C1792 C 0.48169 0.13259 0.70338 0.0
C1793 C 0.46469 0.1386 0.71588 0.0
C1794 C 0.47129 0.14329 0.73638 0.0
C1795 C 0.49399 0.14126 0.74411 0.0
C1796 C 0.47601 0.12825 0.68136 0.0
C1797 C 0.4538 0.14966 0.75036 0.0
C1798 C 0.41505 0.16288 0.6973 0.0
C1799 C 0.38889 0.13871 0.69786 0.0
C1800 C 0.44012 0.16293 0.70191 0.0
C1801 C 0.43899 0.1384 0.70798 0.0
C1802 C 0.41264 0.11386 0.70821 0.0
C1803 C 0.38802 0.11433 0.70313 0.0
C1804 C 0.46767 0.18947 0.70092 0.0
C1805 C 0.41027 0.08723 0.71466 0.0
H1806 H 0.51634 0.1248 0.702 0.0
H1807 H 0.49883 0.14501 0.75981 0.0
H1808 H 0.45381 0.11239 0.67863 0.0
H1809 H 0.47934 0.14749 0.67452 0.0
H1810 H 0.48995 0.12206 0.67382 0.0
H1811 H 0.46204 0.1534 0.76582 0.0
H1812 H 0.4532 0.16795 0.74513 0.0
H1813 H 0.43183 0.13238 0.75051 0.0
H1814 H 0.41595 0.18194 0.69374 0.0
H1815 H 0.36784 0.09563 0.7038 0.0
H1816 H 0.48354 0.18664 0.69271 0.0
H1817 H 0.47586 0.1963 0.71618 0.0
H1818 H 0.46543 0.20586 0.69354 0.0
H1819 H 0.42471 0.08302 0.70579 0.0
H1820 H 0.38855 0.06972 0.71303 0.0
H1821 H 0.41665 0.08869 0.73048 0.0
C1822 C 0.90895 0.3732 0.73001 0.0
C1823 C 0.88686 0.37877 0.73151 0.0
C1824 C 0.90448 0.34841 0.72206 0.0
C1825 C 0.87715 0.32859 0.71576 0.0
C1826 C 0.85478 0.33417 0.71717 0.0
C1827 C 0.85997 0.35934 0.72489 0.0
C1828 C 0.92895 0.34337 0.72049 0.0
C1829 C 0.8253 0.31337 0.71086 0.0
C1830 C 0.86917 0.27264 0.68054 0.0
C1831 C 0.8626 0.25112 0.69369 0.0
C1832 C 0.87396 0.29801 0.68749 0.0
C1833 C 0.8719 0.30179 0.7081 0.0
C1834 C 0.86519 0.28004 0.72146 0.0
C1835 C 0.86084 0.25502 0.71409 0.0
C1836 C 0.88156 0.32084 0.67281 0.0
C1837 C 0.86244 0.28314 0.74352 0.0
H1838 H 0.92982 0.38837 0.73494 0.0
H1839 H 0.84286 0.36361 0.7262 0.0
H1840 H 0.92494 0.32558 0.72978 0.0
H1841 H 0.9313 0.33838 0.70491 0.0
H1842 H 0.94906 0.3613 0.72536 0.0
H1843 H 0.8103 0.32099 0.71275 0.0
H1844 H 0.82515 0.30776 0.69504 0.0
H1845 H 0.81774 0.29445 0.71975 0.0
H1846 H 0.8713 0.26992 0.66489 0.0
H1847 H 0.85554 0.23829 0.72429 0.0
H1848 H 0.90256 0.33839 0.67649 0.0
H1849 H 0.86624 0.32815 0.67378 0.0
H1850 H 0.88194 0.31444 0.65724 0.0
H1851 H 0.88262 0.29967 0.74956 0.0
H1852 H 0.85651 0.26405 0.75184 0.0
H1853 H 0.84629 0.28908 0.74626 0.0
C1854 C 0.17775 0.9595 0.64643 0.0
C1855 C 0.16582 0.95782 0.62767 0.0
C1856 C 0.19963 0.98452 0.65371 0.0
C1857 C 0.20953 0.00849 0.64207 0.0
C1858 C 0.19706 0.00697 0.62333 0.0
C1859 C 0.17554 0.98167 0.61632 0.0
C1860 C 0.21255 0.98521 0.67367 0.0
C1861 C 0.20653 0.03207 0.61062 0.0
C1862 C 0.24869 0.07774 0.66765 0.0
C1863 C 0.2768 0.08655 0.66269 0.0
C1864 C 0.2267 0.0524 0.66117 0.0
C1865 C 0.23284 0.03523 0.64946 0.0
C1866 C 0.26119 0.04394 0.64443 0.0
C1867 C 0.28281 0.06958 0.65099 0.0
C1868 C 0.19685 0.04417 0.66671 0.0
C1869 C 0.26866 0.02613 0.63216 0.0
H1870 H 0.17051 0.94108 0.65516 0.0
H1871 H 0.16622 0.98051 0.60188 0.0
H1872 H 0.23526 0.99232 0.67182 0.0
H1873 H 0.21089 0.99995 0.68366 0.0
H1874 H 0.20232 0.96488 0.68097 0.0
H1875 H 0.19422 0.02757 0.59663 0.0
H1876 H 0.20444 0.04784 0.61903 0.0
H1877 H 0.22907 0.04094 0.60675 0.0
H1878 H 0.24374 0.0908 0.67649 0.0
H1879 H 0.30445 0.07616 0.64717 0.0
H1880 H 0.18703 0.02459 0.67497 0.0
H1881 H 0.1842 0.04089 0.65305 0.0
H1882 H 0.19567 0.05979 0.67604 0.0
H1883 H 0.2606 0.00599 0.63947 0.0
H1884 H 0.29172 0.03547 0.63002 0.0
H1885 H 0.25848 0.02235 0.61735 0.0
C1886 C 0.02294 0.19675 0.61922 0.0
C1887 C 0.04633 0.20408 0.63156 0.0
C1888 C 0.99791 0.19445 0.62665 0.0
C1889 C 0.99579 0.19931 0.64708 0.0
C1890 C 0.01893 0.2058 0.6598 0.0
C1891 C 0.04386 0.20808 0.65192 0.0
C1892 C 0.9739 0.18743 0.61247 0.0
C1893 C 0.01743 0.2106 0.6817 0.0
C1894 C 0.94241 0.22209 0.65764 0.0
C1895 C 0.91837 0.1975 0.66285 0.0
C1896 C 0.96811 0.22321 0.65355 0.0
C1897 C 0.96992 0.1991 0.65458 0.0
C1898 C 0.94598 0.17441 0.66071 0.0
C1899 C 0.92043 0.17383 0.66445 0.0
C1900 C 0.99296 0.25001 0.64713 0.0
C1901 C 0.94691 0.14828 0.66243 0.0
H1902 H 0.02423 0.19292 0.60358 0.0
H1903 H 0.06169 0.21375 0.66164 0.0
H1904 H 0.95456 0.16908 0.61777 0.0
H1905 H 0.96937 0.20447 0.61193 0.0
H1906 H 0.97853 0.18348 0.59714 0.0
H1907 H 0.03766 0.21697 0.68944 0.0
H1908 H 0.01156 0.22654 0.684 0.0
H1909 H 1.00086 0.19155 0.68868 0.0
H1910 H 0.94087 0.24039 0.65618 0.0
H1911 H 0.90187 0.15461 0.66799 0.0
H1912 H 0.99801 0.24858 0.63136 0.0
H1913 H 0.01177 0.25458 0.65611 0.0
H1914 H 0.98887 0.26728 0.64862 0.0
H1915 H 0.92798 0.13194 0.67002 0.0
H1916 H 0.96588 0.15184 0.67077 0.0
H1917 H 0.94818 0.14098 0.64736 0.0
C1918 C 0.80372 0.83328 0.64251 0.0
C1919 C 0.81808 0.84588 0.62495 0.0
C1920 C 0.80532 0.81127 0.65069 0.0
C1921 C 0.82182 0.80182 0.64112 0.0
C1922 C 0.83686 0.81484 0.62363 0.0
C1923 C 0.83477 0.83669 0.61574 0.0
C1924 C 0.78888 0.79774 0.66931 0.0
C1925 C 0.85489 0.80548 0.61313 0.0
C1926 C 0.84525 0.7597 0.67073 0.0
C1927 C 0.82625 0.73313 0.66423 0.0
C1928 C 0.84395 0.78222 0.66343 0.0
C1929 C 0.82313 0.77809 0.64928 0.0
C1930 C 0.80384 0.75133 0.64266 0.0
C1931 C 0.8057 0.72914 0.65016 0.0
C1932 C 0.86511 0.81046 0.67068 0.0
C1933 C 0.78132 0.74615 0.62758 0.0
H1934 H 0.79055 0.84011 0.64953 0.0
H1935 H 0.84614 0.84659 0.60227 0.0
H1936 H 0.77333 0.77605 0.66617 0.0
H1937 H 0.80319 0.79796 0.68104 0.0
H1938 H 0.77753 0.80793 0.67517 0.0
H1939 H 0.86577 0.81821 0.59993 0.0
H1940 H 0.87094 0.80614 0.6235 0.0
H1941 H 0.84174 0.78398 0.60821 0.0
H1942 H 0.86154 0.76307 0.68133 0.0
H1943 H 0.79104 0.70869 0.645 0.0
H1944 H 0.85411 0.82058 0.67719 0.0
H1945 H 0.87778 0.82315 0.65798 0.0
H1946 H 0.8796 0.81007 0.68204 0.0
H1947 H 0.76813 0.75457 0.63304 0.0
H1948 H 0.76749 0.72407 0.62439 0.0
H1949 H 0.79117 0.75677 0.61347 0.0
C1950 C 0.02609 0.81551 0.63469 0.0
C1951 C 0.0464 0.8285 0.64959 0.0
C1952 C 0.99893 0.794 0.6393 0.0
C1953 C 0.99203 0.78495 0.65924 0.0
C1954 C 0.01242 0.79837 0.67433 0.0
C1955 C 0.03925 0.81995 0.66934 0.0
C1956 C 0.97791 0.78039 0.62271 0.0
C1957 C 1.00607 0.7898 0.69576 0.0
C1958 C 0.91411 0.73898 0.67139 0.0
C1959 C 0.91102 0.7129 0.66969 0.0
C1960 C 0.94047 0.76267 0.66876 0.0
C1961 C 0.96428 0.76024 0.664 0.0
C1962 C 0.96133 0.7339 0.66285 0.0
C1963 C 0.93474 0.71061 0.66556 0.0
C1964 C 0.94253 0.79022 0.67031 0.0
C1965 C 0.98614 0.73026 0.65817 0.0
H1966 H 0.03169 0.82183 0.61937 0.0
H1967 H 0.05494 0.82979 0.68089 0.0
H1968 H 0.97297 0.75891 0.6211 0.0
H1969 H 0.95796 0.77993 0.6263 0.0
H1970 H 0.98585 0.79093 0.60824 0.0
H1971 H 0.02504 0.80015 0.70536 0.0
H1972 H 0.99033 0.79502 0.7013 0.0
H1973 H 0.99699 0.7674 0.69716 0.0
H1974 H 0.89579 0.74095 0.67406 0.0
H1975 H 0.93235 0.69047 0.66404 0.0
H1976 H 0.94727 0.80005 0.65545 0.0
H1977 H 0.95998 0.80375 0.6804 0.0
H1978 H 0.92275 0.78869 0.6759 0.0
H1979 H 0.99425 0.73835 0.64311 0.0
H1980 H 0.98064 0.70851 0.65872 0.0
H1981 H 1.00343 0.74204 0.66889 0.0
C1982 C 0.18792 0.19843 0.63485 0.0
C1983 C 0.17444 0.20451 0.65006 0.0
C1984 C 0.21018 0.1935 0.63909 0.0
C1985 C 0.21954 0.1951 0.65899 0.0
C1986 C 0.20548 0.20066 0.67438 0.0
C1987 C 0.18314 0.20516 0.66975 0.0
C1988 C 0.22437 0.18756 0.62218 0.0
C1989 C 0.21413 0.20221 0.69578 0.0
C1990 C 0.26772 0.16593 0.67067 0.0
C1991 C 0.2945 0.18929 0.6696 0.0
C1992 C 0.24312 0.16751 0.66784 0.0
C1993 C 0.24526 0.19302 0.66345 0.0
C1994 C 0.27229 0.21673 0.66279 0.0
C1995 C 0.29648 0.21453 0.66573 0.0
C1996 C 0.21488 0.14174 0.66904 0.0
C1997 C 0.27571 0.24445 0.65865 0.0
H1998 H 0.18157 0.19832 0.61958 0.0
H1999 H 0.17297 0.21005 0.68157 0.0
H2000 H 0.24637 0.20453 0.6207 0.0
H2001 H 0.22519 0.16871 0.6253 0.0
H2002 H 0.21339 0.18504 0.60778 0.0
H2003 H 0.20432 0.211 0.70552 0.0
H2004 H 0.20739 0.18126 0.70106 0.0
H2005 H 0.2373 0.21469 0.69734 0.0
H2006 H 0.26592 0.14624 0.67315 0.0
H2007 H 0.31712 0.23262 0.66472 0.0
H2008 H 0.20407 0.13767 0.65445 0.0
H2009 H 0.2014 0.14427 0.68012 0.0
H2010 H 0.21672 0.12371 0.67328 0.0
H2011 H 0.29805 0.261 0.65923 0.0
H2012 H 0.26358 0.24901 0.66967 0.0
H2013 H 0.26715 0.24454 0.64372 0.0
C2014 C 0.78703 0.96412 0.65855 0.0
C2015 C 0.79604 0.95803 0.64078 0.0
C2016 C 0.79242 0.99069 0.66251 0.0
C2017 C 0.80716 0.01158 0.64833 0.0
C2018 C 0.81581 0.00539 0.63019 0.0
C2019 C 0.80984 0.97858 0.62653 0.0
C2020 C 0.78251 0.99646 0.6819 0.0
C2021 C 0.83173 0.02715 0.61477 0.0
C2022 C 0.80268 0.07644 0.65124 0.0
C2023 C 0.82745 0.09397 0.66155 0.0
C2024 C 0.79573 0.04949 0.64686 0.0
C2025 C 0.8142 0.04008 0.65271 0.0
C2026 C 0.83947 0.05788 0.66282 0.0
C2027 C 0.84575 0.08457 0.66714 0.0
C2028 C 0.76844 0.03098 0.63626 0.0
C2029 C 0.85985 0.04874 0.66915 0.0
H2030 H 0.77583 0.94809 0.66939 0.0
H2031 H 0.81623 0.97371 0.61259 0.0
H2032 H 0.80081 0.01167 0.69065 0.0
H2033 H 0.76892 0.00541 0.67895 0.0
H2034 H 0.77055 0.97778 0.69106 0.0
H2035 H 0.83671 0.0189 0.60135 0.0
H2036 H 0.81927 0.03674 0.61016 0.0
H2037 H 0.8517 0.04349 0.62124 0.0
H2038 H 0.78842 0.08356 0.64696 0.0
H2039 H 0.86513 0.09815 0.67488 0.0
H2040 H 0.75509 0.01295 0.64566 0.0
H2041 H 0.77266 0.0233 0.62225 0.0
H2042 H 0.75646 0.04148 0.63266 0.0
H2043 H 0.84941 0.03137 0.67965 0.0
H2044 H 0.87888 0.06534 0.67649 0.0
H2045 H 0.86652 0.04146 0.65605 0.0
C2046 C 0.48952 0.373 0.70012 0.0
C2047 C 0.50556 0.38179 0.7176 0.0
C2048 C 0.46899 0.34544 0.69733 0.0
C2049 C 0.46425 0.32614 0.71243 0.0
C2050 C 0.48025 0.33495 0.7302 0.0
C2051 C 0.50054 0.36269 0.73263 0.0
C2052 C 0.45232 0.33697 0.67821 0.0
C2053 C 0.47603 0.31503 0.74659 0.0
C2054 C 0.39455 0.25875 0.71102 0.0
C2055 C 0.40223 0.2417 0.70103 0.0
C2056 C 0.4146 0.28616 0.71517 0.0
C2057 C 0.44301 0.29666 0.70936 0.0
C2058 C 0.45097 0.2792 0.69988 0.0
C2059 C 0.43054 0.25202 0.69587 0.0
C2060 C 0.40521 0.30412 0.72522 0.0
C2061 C 0.48096 0.28936 0.69349 0.0
H2062 H 0.49298 0.38777 0.68861 0.0
H2063 H 0.51255 0.36953 0.74631 0.0
H2064 H 0.45573 0.32162 0.67035 0.0
H2065 H 0.42952 0.32721 0.68152 0.0
H2066 H 0.45821 0.35452 0.66808 0.0
H2067 H 0.49006 0.32514 0.75951 0.0
H2068 H 0.45389 0.3047 0.75176 0.0
H2069 H 0.48016 0.29897 0.74085 0.0
H2070 H 0.37273 0.25096 0.71501 0.0
H2071 H 0.43679 0.23887 0.68844 0.0
H2072 H 0.40836 0.32083 0.71502 0.0
H2073 H 0.41815 0.31375 0.73866 0.0
H2074 H 0.38271 0.29259 0.72963 0.0
H2075 H 0.48693 0.30512 0.68179 0.0
H2076 H 0.48405 0.27272 0.68753 0.0
H2077 H 0.49548 0.29908 0.70621 0.0
C2078 C 0.6434 0.12984 0.69241 0.0
C2079 C 0.63617 0.13121 0.7122 0.0
C2080 C 0.67047 0.13501 0.68728 0.0
C2081 C 0.69113 0.14187 0.70224 0.0
C2082 C 0.68422 0.14424 0.7222 0.0
C2083 C 0.6568 0.13865 0.72697 0.0
C2084 C 0.67662 0.13233 0.66586 0.0
C2085 C 0.70547 0.15159 0.73868 0.0
C2086 C 0.74801 0.1225 0.69533 0.0
C2087 C 0.77174 0.14751 0.69043 0.0
C2088 C 0.72168 0.12036 0.69865 0.0
C2089 C 0.71888 0.14392 0.69736 0.0
C2090 C 0.74269 0.16919 0.69195 0.0
C2091 C 0.76885 0.17071 0.68867 0.0
C2092 C 0.69692 0.09287 0.70393 0.0
C2093 C 0.74079 0.19479 0.69021 0.0
H2094 H 0.6275 0.1238 0.68094 0.0
H2095 H 0.65121 0.13931 0.74233 0.0
H2096 H 0.69326 0.15247 0.66038 0.0
H2097 H 0.68449 0.11775 0.66453 0.0
H2098 H 0.65785 0.12521 0.65617 0.0
H2099 H 0.69777 0.15503 0.75306 0.0
H2100 H 0.7103 0.13489 0.74066 0.0
H2101 H 0.72542 0.1703 0.73474 0.0
H2102 H 0.75017 0.10455 0.69682 0.0
H2103 H 0.78721 0.19022 0.68525 0.0
H2104 H 0.67936 0.08754 0.69339 0.0
H2105 H 0.68924 0.09367 0.71903 0.0
H2106 H 0.70229 0.07636 0.7036 0.0
H2107 H 0.72349 0.19138 0.67998 0.0
H2108 H 0.76066 0.21239 0.68467 0.0
H2109 H 0.73585 0.20012 0.70497 0.0
C2110 C 0.8962 0.51767 0.69497 0.0
C2111 C 0.89017 0.50344 0.713 0.0
C2112 C 0.88904 0.53798 0.69192 0.0
C2113 C 0.87555 0.5442 0.70731 0.0
C2114 C 0.8696 0.53005 0.72562 0.0
C2115 C 0.87738 0.51012 0.72836 0.0
C2116 C 0.89614 0.55296 0.67231 0.0
C2117 C 0.85503 0.53598 0.7423 0.0
C2118 C 0.87972 0.61326 0.70581 0.0
C2119 C 0.85414 0.60663 0.6967 0.0
C2120 C 0.8869 0.59308 0.7095 0.0
C2121 C 0.8678 0.56562 0.70423 0.0
C2122 C 0.8416 0.55874 0.69554 0.0
C2123 C 0.83515 0.57936 0.6918 0.0
C2124 C 0.91521 0.60126 0.71853 0.0
C2125 C 0.82052 0.52968 0.68993 0.0
H2126 H 0.90675 0.513 0.68329 0.0
H2127 H 0.87341 0.49972 0.74253 0.0
H2128 H 0.87671 0.5502 0.66509 0.0
H2129 H 0.91006 0.57517 0.67485 0.0
H2130 H 0.9068 0.54578 0.66191 0.0
H2131 H 0.85129 0.52269 0.75543 0.0
H2132 H 0.86788 0.5576 0.74703 0.0
H2133 H 0.83452 0.53301 0.73705 0.0
H2134 H 0.89451 0.63435 0.70951 0.0
H2135 H 0.81517 0.5741 0.68497 0.0
H2136 H 0.92769 0.59641 0.70803 0.0
H2137 H 0.91251 0.58945 0.73231 0.0
H2138 H 0.92738 0.62337 0.72215 0.0
H2139 H 0.82948 0.52246 0.67822 0.0
H2140 H 0.8005 0.52758 0.68431 0.0
H2141 H 0.81584 0.51608 0.70298 0.0
C2142 C 0.45894 0.8973 0.22876 0.0
C2143 C 0.44926 0.90826 0.24343 0.0
C2144 C 0.46858 0.91032 0.21028 0.0
C2145 C 0.46889 0.9351 0.20644 0.0
C2146 C 0.45891 0.94612 0.22114 0.0
C2147 C 0.44912 0.93252 0.23939 0.0
C2148 C 0.4787 0.89772 0.19493 0.0
C2149 C 0.4592 0.97265 0.21778 0.0
C2150 C 0.52082 0.98534 0.16897 0.0
C2151 C 0.50343 0.98226 0.15269 0.0
C2152 C 0.50994 0.96981 0.18634 0.0
C2153 C 0.48093 0.9503 0.18749 0.0
C2154 C 0.46339 0.94627 0.17086 0.0
C2155 C 0.47481 0.96235 0.1537 0.0
C2156 C 0.52941 0.97482 0.20369 0.0
C2157 C 0.43241 0.92547 0.17139 0.0
H2158 H 0.45882 0.8784 0.23172 0.0
H2159 H 0.44196 0.94127 0.25073 0.0
H2160 H 0.46726 0.89482 0.18073 0.0
H2161 H 0.50136 0.91164 0.19188 0.0
H2162 H 0.47576 0.87769 0.19981 0.0
H2163 H 0.44995 0.97807 0.23046 0.0
H2164 H 0.48115 0.98943 0.21557 0.0
H2165 H 0.4473 0.97132 0.2041 0.0
H2166 H 0.54307 1.00019 0.16822 0.0
H2167 H 0.46111 0.95989 0.14132 0.0
H2168 H 0.52852 0.95552 0.20812 0.0
H2169 H 0.52253 0.98209 0.21669 0.0
H2170 H 0.55158 0.99021 0.20024 0.0
H2171 H 0.42922 0.90526 0.17593 0.0
H2172 H 0.42209 0.9233 0.15677 0.0
H2173 H 0.42181 0.93159 0.18262 0.0
C2174 C 0.10041 0.52619 0.22557 0.0
C2175 C 0.10002 0.54486 0.23919 0.0
C2176 C 0.08521 0.51979 0.20775 0.0
C2177 C 0.0708 0.5338 0.20258 0.0
C2178 C 0.07201 0.55418 0.21541 0.0
C2179 C 0.0858 0.55883 0.2338 0.0
C2180 C 0.08374 0.49724 0.19482 0.0
C2181 C 0.0582 0.57068 0.21014 0.0
C2182 C 0.05007 0.52267 0.14826 0.0
C2183 C 0.02167 0.502 0.14937 0.0
C2184 C 0.06566 0.53513 0.16551 0.0
C2185 C 0.05314 0.52564 0.18435 0.0
C2186 C 0.02422 0.50599 0.18562 0.0
C2187 C 0.00867 0.49517 0.16813 0.0
C2188 C 0.0959 0.5576 0.16356 0.0
C2189 C 0.01006 0.49507 0.20543 0.0
H2190 H 0.11221 0.51605 0.22887 0.0
H2191 H 0.08475 0.57307 0.24403 0.0
H2192 H 0.06145 0.48151 0.19214 0.0
H2193 H 0.09345 0.50552 0.18015 0.0
H2194 H 0.09464 0.48716 0.20162 0.0
H2195 H 0.06909 0.59101 0.21746 0.0
H2196 H 0.05807 0.57369 0.19385 0.0
H2197 H 0.03613 0.55988 0.21545 0.0
H2198 H 0.06073 0.52844 0.13407 0.0
H2199 H 0.98647 0.48039 0.16932 0.0
H2200 H 0.11007 0.54936 0.16665 0.0
H2201 H 0.10079 0.57411 0.17449 0.0
H2202 H 0.10058 0.56653 0.14838 0.0
H2203 H 0.02121 0.48634 0.21373 0.0
H2204 H 0.98764 0.47901 0.2038 0.0
H2205 H 0.01109 0.51186 0.21455 0.0
C2206 C 0.5023 0.56022 0.23604 0.0
C2207 C 0.47508 0.55557 0.23969 0.0
C2208 C 0.50913 0.55246 0.21801 0.0
C2209 C 0.48817 0.53941 0.20325 0.0
C2210 C 0.46054 0.53426 0.20689 0.0
C2211 C 0.45434 0.54247 0.22503 0.0
C2212 C 0.53885 0.55831 0.21474 0.0
C2213 C 0.43758 0.52024 0.19157 0.0
C2214 C 0.5139 0.54226 0.1503 0.0
C2215 C 0.5129 0.51706 0.14868 0.0
C2216 C 0.50534 0.54957 0.16782 0.0
C2217 C 0.49533 0.53116 0.18405 0.0
C2218 C 0.49348 0.50536 0.18227 0.0
C2219 C 0.50238 0.49868 0.16464 0.0
C2220 C 0.50784 0.57734 0.16919 0.0
C2221 C 0.48264 0.48504 0.19913 0.0
H2222 H 0.51835 0.56982 0.2474 0.0
H2223 H 0.43333 0.53903 0.2276 0.0
H2224 H 0.53886 0.53896 0.21207 0.0
H2225 H 0.54786 0.5712 0.20132 0.0
H2226 H 0.55277 0.56892 0.22761 0.0
H2227 H 0.41703 0.51717 0.19686 0.0
H2228 H 0.44342 0.53254 0.17773 0.0
H2229 H 0.43507 0.50007 0.18769 0.0
H2230 H 0.52224 0.55663 0.13808 0.0
H2231 H 0.50119 0.47902 0.16336 0.0
H2232 H 0.52327 0.58959 0.18091 0.0
H2233 H 0.48737 0.57526 0.17352 0.0
H2234 H 0.51471 0.58874 0.15494 0.0
H2235 H 0.49689 0.49354 0.21213 0.0
H2236 H 0.48104 0.46529 0.19497 0.0
H2237 H 0.4616 0.48111 0.2039 0.0
C2238 C 0.91808 0.42966 0.80258 0.0
C2239 C 0.92609 0.44758 0.78638 0.0
C2240 C 0.93287 0.43782 0.82062 0.0
C2241 C 0.95643 0.46443 0.82236 0.0
C2242 C 0.96442 0.48271 0.8061 0.0
C2243 C 0.94904 0.4741 0.78833 0.0
C2244 C 0.92351 0.4179 0.83772 0.0
C2245 C 0.98962 0.51113 0.80733 0.0
C2246 C 0.98367 0.4944 0.87357 0.0
C2247 C 1.0062 0.48954 0.87593 0.0
C2248 C 0.96707 0.48606 0.85631 0.0
C2249 C 0.97333 0.47284 0.84095 0.0
C2250 C 0.99597 0.46781 0.84323 0.0
C2251 C 0.01199 0.47606 0.86074 0.0
C2252 C 0.94295 0.49158 0.85445 0.0
C2253 C 1.00337 0.45386 0.82713 0.0
H2254 H 0.90015 0.40924 0.80114 0.0
H2255 H 0.95542 0.48788 0.77574 0.0
H2256 H 0.94036 0.4133 0.84155 0.0
H2257 H 0.91967 0.42706 0.8511 0.0
H2258 H 0.90403 0.39841 0.83423 0.0
H2259 H 0.99257 0.52307 0.79354 0.0
H2260 H 0.98732 0.52234 0.82005 0.0
H2261 H 0.0089 0.5099 0.80999 0.0
H2262 H 0.97926 0.50513 0.8851 0.0
H2263 H 0.02901 0.47177 0.86256 0.0
H2264 H 0.92307 0.47222 0.85161 0.0
H2265 H 0.94651 0.5052 0.84158 0.0
H2266 H 0.94028 0.50127 0.86801 0.0
H2267 H 0.9852 0.43325 0.82416 0.0
H2268 H 0.0218 0.45171 0.83115 0.0
H2269 H 1.00814 0.46565 0.81309 0.0
C2270 C 0.556 0.45779 0.79801 0.0
C2271 C 0.5819 0.46111 0.79174 0.0
C2272 C 0.55209 0.46362 0.81768 0.0
C2273 C 0.57455 0.47281 0.83144 0.0
C2274 C 0.60016 0.47458 0.82549 0.0
C2275 C 0.60357 0.46883 0.80569 0.0
C2276 C 0.52454 0.46167 0.82333 0.0
C2277 C 0.62453 0.48396 0.83974 0.0
C2278 C 0.58128 0.52255 0.87185 0.0
C2279 C 0.57172 0.50579 0.88871 0.0
C2280 C 0.58166 0.51188 0.85312 0.0
C2281 C 0.57256 0.48373 0.85119 0.0
C2282 C 0.56238 0.46655 0.86811 0.0
C2283 C 0.56187 0.47778 0.8867 0.0
C2284 C 0.59226 0.53088 0.83545 0.0
C2285 C 0.55277 0.43652 0.86667 0.0
H2286 H 0.53925 0.45204 0.78726 0.0
H2287 H 0.6235 0.47108 0.80097 0.0
H2288 H 0.5167 0.45059 0.8376 0.0
H2289 H 0.52779 0.4825 0.82549 0.0
H2290 H 0.50815 0.45114 0.81176 0.0
H2291 H 0.64165 0.48112 0.83356 0.0
H2292 H 0.63326 0.50595 0.84312 0.0
H2293 H 0.61736 0.47267 0.85399 0.0
H2294 H 0.5886 0.54417 0.87336 0.0
H2295 H 0.55462 0.46486 0.89977 0.0
H2296 H 0.57619 0.52316 0.82348 0.0
H2297 H 0.6114 0.53163 0.82935 0.0
H2298 H 0.59744 0.55198 0.83933 0.0
H2299 H 0.53629 0.42673 0.85508 0.0
H2300 H 0.5443 0.42572 0.88099 0.0
H2301 H 0.57067 0.43385 0.86212 0.0
C2302 C 0.56369 0.10555 0.80264 0.0
C2303 C 0.54233 0.0974 0.78831 0.0
C2304 C 0.5585 0.09233 0.82117 0.0
C2305 C 0.53124 0.0705 0.82562 0.0
C2306 C 0.50956 0.06231 0.81131 0.0
C2307 C 0.51539 0.07569 0.79285 0.0
C2308 C 0.58224 0.10159 0.83595 0.0
C2309 C 0.48018 0.03916 0.8154 0.0
C2310 C 0.51996 0.01651 0.86398 0.0
C2311 C 0.50968 0.02423 0.88035 0.0
C2312 C 0.52796 0.0319 0.84636 0.0
C2313 C 0.52542 0.05555 0.84494 0.0
C2314 C 0.51584 0.06394 0.86164 0.0
C2315 C 0.50823 0.04826 0.87918 0.0
C2316 C 0.53842 0.0224 0.82907 0.0
C2317 C 0.51262 0.0889 0.86072 0.0
H2318 H 0.58448 0.12249 0.79944 0.0
H2319 H 0.49882 0.0688 0.78182 0.0
H2320 H 0.57656 0.1078 0.85006 0.0
H2321 H 0.58588 0.08444 0.83948 0.0
H2322 H 0.60218 0.11899 0.83032 0.0
H2323 H 0.4654 0.03597 0.80305 0.0
H2324 H 0.48059 0.01995 0.81774 0.0
H2325 H 0.47193 0.04329 0.82924 0.0
H2326 H 0.52149 0.99815 0.86489 0.0
H2327 H 0.50012 0.05424 0.89172 0.0
H2328 H 0.55895 0.03925 0.82379 0.0
H2329 H 0.52341 0.01648 0.81649 0.0
H2330 H 0.54093 0.00466 0.83299 0.0
H2331 H 0.53254 0.10687 0.85574 0.0
H2332 H 0.50661 0.09367 0.87531 0.0
H2333 H 0.49622 0.08559 0.84964 0.0
C2334 C 0.14305 0.24809 0.56745 0.0
C2335 C 0.11509 0.23663 0.57417 0.0
C2336 C 0.15154 0.26112 0.54888 0.0
C2337 C 0.13231 0.26488 0.53714 0.0
C2338 C 0.1041 0.25334 0.54362 0.0
C2339 C 0.09566 0.2385 0.56149 0.0
C2340 C 0.18143 0.27116 0.5423 0.0
C2341 C 0.08264 0.25694 0.53197 0.0
C2342 C 0.16693 0.32811 0.50433 0.0
C2343 C 0.15858 0.31739 0.48502 0.0
C2344 C 0.1579 0.31138 0.52124 0.0
C2345 C 0.14212 0.28266 0.51903 0.0
C2346 C 0.1353 0.27137 0.49961 0.0
C2347 C 0.14276 0.28879 0.48298 0.0
C2348 C 0.16515 0.32488 0.54147 0.0
C2349 C 0.11988 0.24096 0.49598 0.0
H2350 H 0.15886 0.2475 0.57667 0.0
H2351 H 0.07367 0.2287 0.56548 0.0
H2352 H 0.1844 0.27494 0.52607 0.0
H2353 H 0.19575 0.29032 0.55032 0.0
H2354 H 0.1879 0.25603 0.54631 0.0
H2355 H 0.06438 0.2532 0.54133 0.0
H2356 H 0.09201 0.27779 0.52562 0.0
H2357 H 0.07464 0.24209 0.51953 0.0
H2358 H 0.18044 0.34983 0.50654 0.0
H2359 H 0.13571 0.27965 0.46847 0.0
H2360 H 0.18437 0.32542 0.54715 0.0
H2361 H 0.14795 0.31361 0.55234 0.0
H2362 H 0.16951 0.34627 0.54072 0.0
H2363 H 0.12035 0.22913 0.50897 0.0
H2364 H 0.12914 0.23608 0.48302 0.0
H2365 H 0.09766 0.23409 0.49215 0.0
C2366 C 0.81042 0.8755 0.55075 0.0
C2367 C 0.79672 0.88339 0.56458 0.0
C2368 C 0.80032 0.86836 0.53126 0.0
C2369 C 0.77594 0.86913 0.5255 0.0
C2370 C 0.76309 0.87876 0.53902 0.0
C2371 C 0.77366 0.8858 0.55843 0.0
C2372 C 0.81471 0.85835 0.51725 0.0
C2373 C 0.73707 0.8799 0.53342 0.0
C2374 C 0.75503 0.86031 0.47093 0.0
C2375 C 0.73518 0.83235 0.47015 0.0
C2376 C 0.76855 0.87272 0.48886 0.0
C2377 C 0.76197 0.85673 0.50633 0.0
C2378 C 0.74194 0.82852 0.50559 0.0
C2379 C 0.72879 0.8167 0.48754 0.0
C2380 C 0.78984 0.90284 0.48912 0.0
C2381 C 0.73425 0.81077 0.52393 0.0
H2382 H 0.82853 0.87404 0.55539 0.0
H2383 H 0.76289 0.89172 0.56911 0.0
H2384 H 0.801 0.83609 0.51477 0.0
H2385 H 0.81827 0.86852 0.50258 0.0
H2386 H 0.83521 0.86204 0.52317 0.0
H2387 H 0.73178 0.89104 0.54464 0.0
H2388 H 0.73987 0.88994 0.51877 0.0
H2389 H 0.71898 0.85882 0.53208 0.0
H2390 H 0.76016 0.87244 0.45749 0.0
H2391 H 0.71307 0.7952 0.4871 0.0
H2392 H 0.81054 0.90606 0.49413 0.0
H2393 H 0.78331 0.91347 0.49989 0.0
H2394 H 0.79246 0.91243 0.47428 0.0
H2395 H 0.75326 0.81135 0.53014 0.0
H2396 H 0.71827 0.78917 0.5208 0.0
H2397 H 0.72586 0.81871 0.53554 0.0
C2398 C 0.1305 0.86474 0.56857 0.0
C2399 C 0.13337 0.89053 0.5717 0.0
C2400 C 0.1377 0.85795 0.55025 0.0
C2401 C 0.14783 0.87735 0.53464 0.0
C2402 C 0.14977 0.90304 0.53748 0.0
C2403 C 0.14261 0.90935 0.556 0.0
C2404 C 0.13551 0.8304 0.54787 0.0
C2405 C 0.16018 0.92417 0.52116 0.0
C2406 C 0.19626 0.87232 0.49669 0.0
C2407 C 0.17793 0.85902 0.48075 0.0
C2408 C 0.18673 0.87849 0.51422 0.0
C2409 C 0.15818 0.87144 0.51585 0.0
C2410 C 0.13965 0.85853 0.49969 0.0
C2411 C 0.14973 0.85241 0.48234 0.0
C2412 C 0.2072 0.89231 0.53109 0.0
C2413 C 0.10911 0.85084 0.50083 0.0
H2414 H 0.12362 0.85021 0.58071 0.0
H2415 H 0.14452 0.92919 0.55827 0.0
H2416 H 0.12305 0.81993 0.53443 0.0
H2417 H 0.15681 0.83313 0.5458 0.0
H2418 H 0.12559 0.817 0.56096 0.0
H2419 H 0.15849 0.94233 0.52524 0.0
H2420 H 0.18252 0.93098 0.51785 0.0
H2421 H 0.14804 0.9152 0.5073 0.0
H2422 H 0.21819 0.87799 0.49547 0.0
H2423 H 0.13534 0.8419 0.4702 0.0
H2424 H 0.19984 0.87927 0.54456 0.0
H2425 H 0.20825 0.9119 0.53487 0.0
H2426 H 0.22873 0.89651 0.52744 0.0
H2427 H 0.09854 0.83579 0.51292 0.0
H2428 H 0.09771 0.84191 0.48669 0.0
H2429 H 0.10737 0.86907 0.50448 0.0
C2430 C 0.58717 0.79889 0.13526 0.0
C2431 C 0.59535 0.78569 0.12135 0.0
C2432 C 0.60106 0.80774 0.1536 0.0
C2433 C 0.62358 0.80321 0.15812 0.0
C2434 C 0.63182 0.78979 0.1442 0.0
C2435 C 0.61768 0.78128 0.12597 0.0
C2436 C 0.59173 0.82201 0.16811 0.0
C2437 C 0.65577 0.78462 0.14847 0.0
C2438 C 0.67866 0.84713 0.1963 0.0
C2439 C 0.67044 0.82968 0.2128 0.0
C2440 C 0.66317 0.83904 0.17856 0.0
C2441 C 0.63893 0.81282 0.17729 0.0
C2442 C 0.63019 0.79531 0.19402 0.0
C2443 C 0.64604 0.80398 0.2116 0.0
C2444 C 0.67303 0.85834 0.16106 0.0
C2445 C 0.60453 0.76715 0.19318 0.0
H2446 H 0.56975 0.8021 0.13186 0.0
H2447 H 0.62444 0.77154 0.11516 0.0
H2448 H 0.58542 0.81067 0.18237 0.0
H2449 H 0.60947 0.84276 0.17139 0.0
H2450 H 0.57379 0.82386 0.16236 0.0
H2451 H 0.65913 0.77335 0.13624 0.0
H2452 H 0.67551 0.80431 0.15074 0.0
H2453 H 0.65157 0.77267 0.16238 0.0
H2454 H 0.69728 0.86717 0.19727 0.0
H2455 H 0.63976 0.79033 0.22426 0.0
H2456 H 0.65581 0.86161 0.15575 0.0
H2457 H 0.67878 0.84925 0.14857 0.0
H2458 H 0.69154 0.87847 0.16478 0.0
H2459 H 0.58596 0.76843 0.18822 0.0
H2460 H 0.59972 0.75663 0.2078 0.0
H2461 H 0.6079 0.75449 0.18214 0.0
C2462 C 0.21087 0.79713 0.12261 0.0
C2463 C 0.23966 0.80692 0.11965 0.0
C2464 C 0.2009 0.80208 0.14044 0.0
C2465 C 0.22017 0.81744 0.15569 0.0
C2466 C 0.24923 0.82726 0.15289 0.0
C2467 C 0.25861 0.8218 0.13495 0.0
C2468 C 0.16973 0.79118 0.14286 0.0
C2469 C 0.27045 0.84379 0.16876 0.0
C2470 C 0.19572 0.85241 0.19231 0.0
C2471 C 0.18716 0.83452 0.20857 0.0
C2472 C 0.20714 0.84744 0.17522 0.0
C2473 C 0.2099 0.82388 0.17429 0.0
C2474 C 0.20184 0.80602 0.19082 0.0
C2475 C 0.19068 0.81163 0.20781 0.0
C2476 C 0.21579 0.86716 0.15802 0.0
C2477 C 0.20427 0.7806 0.19035 0.0
H2478 H 0.19609 0.78599 0.1108 0.0
H2479 H 0.28084 0.8291 0.13296 0.0
H2480 H 0.16199 0.77852 0.15649 0.0
H2481 H 0.16565 0.80839 0.14464 0.0
H2482 H 0.15741 0.77865 0.12995 0.0
H2483 H 0.29226 0.84963 0.16439 0.0
H2484 H 0.26965 0.86266 0.17187 0.0
H2485 H 0.26524 0.83199 0.18281 0.0
H2486 H 0.19341 0.87034 0.19294 0.0
H2487 H 0.18388 0.79762 0.22027 0.0
H2488 H 0.20274 0.85666 0.14479 0.0
H2489 H 0.238 0.87442 0.15396 0.0
H2490 H 0.21348 0.88516 0.16145 0.0
H2491 H 0.19045 0.76666 0.17852 0.0
H2492 H 0.1983 0.76948 0.20474 0.0
H2493 H 0.22612 0.78592 0.18669 0.0
C2494 C 0.21939 0.4131 0.12382 0.0
C2495 C 0.21357 0.4342 0.12014 0.0
C2496 C 0.21282 0.39944 0.14222 0.0
C2497 C 0.20033 0.40718 0.15744 0.0
C2498 C 0.19514 0.42898 0.154 0.0
C2499 C 0.20169 0.44211 0.1354 0.0
C2500 C 0.21848 0.37616 0.14515 0.0
C2501 C 0.18216 0.4381 0.16985 0.0
C2502 C 0.15569 0.35298 0.19562 0.0
C2503 C 0.17435 0.35945 0.21169 0.0
C2504 C 0.1638 0.36848 0.17806 0.0
C2505 C 0.1912 0.39138 0.17646 0.0
C2506 C 0.20988 0.39864 0.19283 0.0
C2507 C 0.20128 0.38257 0.21021 0.0
C2508 C 0.14315 0.35999 0.16104 0.0
C2509 C 0.23917 0.42305 0.19183 0.0
H2510 H 0.22831 0.40667 0.11207 0.0
H2511 H 0.19748 0.45865 0.13278 0.0
H2512 H 0.23147 0.37969 0.15865 0.0
H2513 H 0.19832 0.35689 0.14746 0.0
H2514 H 0.22947 0.37347 0.13223 0.0
H2515 H 0.18108 0.45644 0.16531 0.0
H2516 H 0.16055 0.42138 0.17317 0.0
H2517 H 0.19447 0.44279 0.18383 0.0
H2518 H 0.13463 0.33555 0.19671 0.0
H2519 H 0.21596 0.38769 0.22242 0.0
H2520 H 0.15186 0.35508 0.1478 0.0
H2521 H 0.13969 0.37705 0.15686 0.0
H2522 H 0.12251 0.34189 0.16472 0.0
H2523 H 0.25143 0.41974 0.18016 0.0
H2524 H 0.25057 0.42695 0.20618 0.0
H2525 H 0.23826 0.44156 0.18763 0.0
C2526 C 0.78818 0.60033 0.90584 0.0
C2527 C 0.78928 0.57655 0.90988 0.0
C2528 C 0.79699 0.61367 0.88743 0.0
C2529 C 0.8071 0.60298 0.87258 0.0
C2530 C 0.80809 0.57886 0.8765 0.0
C2531 C 0.79928 0.566 0.89512 0.0
C2532 C 0.79584 0.63948 0.88397 0.0
C2533 C 0.81853 0.56669 0.86104 0.0
C2534 C 0.80845 0.62798 0.81972 0.0
C2535 C 0.83648 0.64907 0.81796 0.0
C2536 C 0.79876 0.6122 0.83716 0.0
C2537 C 0.81751 0.61768 0.85327 0.0
C2538 C 0.84602 0.63831 0.85131 0.0
C2539 C 0.85516 0.65362 0.8337 0.0
C2540 C 0.76824 0.59026 0.8386 0.0
C2541 C 0.86675 0.64482 0.86807 0.0
H2542 H 0.78085 0.60882 0.91725 0.0
H2543 H 0.79991 0.54747 0.89806 0.0
H2544 H 0.81731 0.65675 0.88106 0.0
H2545 H 0.7829 0.63713 0.87065 0.0
H2546 H 0.78689 0.64483 0.89687 0.0
H2547 H 0.8173 0.54747 0.86619 0.0
H2548 H 0.80599 0.5624 0.8472 0.0
H2549 H 0.84069 0.58151 0.85719 0.0
H2550 H 0.79379 0.62441 0.80774 0.0
H2551 H 0.87699 0.66948 0.83234 0.0
H2552 H 0.75761 0.59597 0.85009 0.0
H2553 H 0.76648 0.57066 0.84328 0.0
H2554 H 0.75692 0.58706 0.82428 0.0
H2555 H 0.86021 0.65224 0.88115 0.0
H2556 H 0.88845 0.66063 0.86387 0.0
H2557 H 0.867 0.62613 0.87272 0.0
C2558 C 0.4124 0.21698 0.90373 0.0
C2559 C 0.42444 0.20143 0.91026 0.0
C2560 C 0.3987 0.212 0.88529 0.0
C2561 C 0.39491 0.18957 0.87366 0.0
C2562 C 0.4064 0.17344 0.88018 0.0
C2563 C 0.42192 0.18022 0.8979 0.0
C2564 C 0.38803 0.23066 0.87855 0.0
C2565 C 0.40172 0.1485 0.86872 0.0
C2566 C 0.33286 0.15833 0.8382 0.0
C2567 C 0.34613 0.16385 0.8195 0.0
C2568 C 0.34844 0.16631 0.8559 0.0
C2569 C 0.37808 0.18221 0.85504 0.0
C2570 C 0.39163 0.18993 0.83636 0.0
C2571 C 0.37568 0.17987 0.8189 0.0
C2572 C 0.3331 0.15698 0.8755 0.0
C2573 C 0.42306 0.20854 0.83477 0.0
H2574 H 0.41323 0.23301 0.91298 0.0
H2575 H 0.43184 0.16854 0.90197 0.0
H2576 H 0.38942 0.23328 0.86216 0.0
H2577 H 0.3657 0.22183 0.88294 0.0
H2578 H 0.40007 0.25112 0.88559 0.0
H2579 H 0.40947 0.1365 0.8769 0.0
H2580 H 0.37897 0.13504 0.8656 0.0
H2581 H 0.41272 0.15468 0.85423 0.0
H2582 H 0.31017 0.14729 0.83923 0.0
H2583 H 0.38675 0.18428 0.8049 0.0
H2584 H 0.33466 0.17471 0.88366 0.0
H2585 H 0.34282 0.14781 0.88493 0.0
H2586 H 0.31047 0.14172 0.87351 0.0
H2587 H 0.43032 0.22589 0.84533 0.0
H2588 H 0.42954 0.21682 0.81951 0.0
H2589 H 0.43397 0.19716 0.83867 0.0
C2590 C 0.7949 0.19904 0.89873 0.0
C2591 C 0.79911 0.2255 0.90081 0.0
C2592 C 0.8021 0.19079 0.88103 0.0
C2593 C 0.81362 0.2094 0.865 0.0
C2594 C 0.81697 0.23581 0.86677 0.0
C2595 C 0.80975 0.24356 0.88467 0.0
C2596 C 0.79835 0.16251 0.87978 0.0
C2597 C 0.82889 0.25615 0.84995 0.0
C2598 C 0.86122 0.19988 0.82887 0.0
C2599 C 0.84311 0.18677 0.81278 0.0
C2600 C 0.85187 0.20735 0.84589 0.0
C2601 C 0.82374 0.20181 0.84685 0.0
C2602 C 0.80543 0.18896 0.83057 0.0
C2603 C 0.8153 0.18153 0.81376 0.0
C2604 C 0.8721 0.22107 0.8629 0.0
C2605 C 0.77534 0.18283 0.831 0.0
H2606 H 0.78694 0.18509 0.91121 0.0
H2607 H 0.8127 0.26392 0.88612 0.0
H2608 H 0.78602 0.15179 0.86635 0.0
H2609 H 0.81921 0.164 0.87837 0.0
H2610 H 0.78756 0.14996 0.89306 0.0
H2611 H 0.82841 0.27516 0.85321 0.0
H2612 H 0.851 0.26159 0.84715 0.0
H2613 H 0.81692 0.24701 0.83607 0.0
H2614 H 0.88287 0.20447 0.82812 0.0
H2615 H 0.80105 0.17113 0.80152 0.0
H2616 H 0.86372 0.20873 0.87663 0.0
H2617 H 0.87437 0.24137 0.86588 0.0
H2618 H 0.89325 0.22384 0.85985 0.0
H2619 H 0.76393 0.1687 0.84344 0.0
H2620 H 0.76402 0.17345 0.81692 0.0
H2621 H 0.7747 0.20187 0.83369 0.0
C2622 C 0.25636 0.13254 0.46916 0.0
C2623 C 0.26426 0.12016 0.45438 0.0
C2624 C 0.27051 0.14028 0.48747 0.0
C2625 C 0.29293 0.13529 0.49115 0.0
C2626 C 0.30094 0.12272 0.47635 0.0
C2627 C 0.28663 0.11546 0.45812 0.0
C2628 C 0.2615 0.15379 0.50287 0.0
C2629 C 0.32471 0.11701 0.47974 0.0
C2630 C 0.34774 0.17625 0.53036 0.0
C2631 C 0.33889 0.15786 0.54631 0.0
C2632 C 0.33262 0.16939 0.51246 0.0
C2633 C 0.30824 0.1434 0.51041 0.0
C2634 C 0.29901 0.12486 0.52654 0.0
C2635 C 0.3144 0.13237 0.54435 0.0
C2636 C 0.34292 0.18982 0.49566 0.0
C2637 C 0.27327 0.09686 0.52484 0.0
H2638 H 0.23887 0.13592 0.46651 0.0
H2639 H 0.29322 0.10636 0.44667 0.0
H2640 H 0.25481 0.14136 0.51664 0.0
H2641 H 0.2795 0.17408 0.50685 0.0
H2642 H 0.24389 0.15653 0.49759 0.0
H2643 H 0.32789 0.10651 0.46689 0.0
H2644 H 0.34456 0.13641 0.4825 0.0
H2645 H 0.3204 0.10408 0.49314 0.0
H2646 H 0.36648 0.19611 0.53194 0.0
H2647 H 0.30768 0.11802 0.55661 0.0
H2648 H 0.32597 0.19379 0.49084 0.0
H2649 H 0.3485 0.1814 0.48266 0.0
H2650 H 0.36162 0.20953 0.49992 0.0
H2651 H 0.25476 0.09865 0.52053 0.0
H2652 H 0.26842 0.08518 0.53896 0.0
H2653 H 0.27649 0.08505 0.51298 0.0
C2654 C 0.9243 0.15508 0.46483 0.0
C2655 C 0.9049 0.14095 0.44958 0.0
C2656 C 0.91548 0.15981 0.48327 0.0
C2657 C 0.88653 0.15001 0.48663 0.0
C2658 C 0.8668 0.13535 0.47145 0.0
C2659 C 0.87622 0.13112 0.45311 0.0
C2660 C 0.93716 0.1756 0.49908 0.0
C2661 C 0.83573 0.1245 0.47445 0.0
C2662 C 0.85797 0.14229 0.53923 0.0
C2663 C 0.85449 0.16515 0.54079 0.0
C2664 C 0.86894 0.13737 0.52185 0.0
C2665 C 0.87683 0.15588 0.50573 0.0
C2666 C 0.87423 0.17946 0.5075 0.0
C2667 C 0.86301 0.18375 0.52497 0.0
C2668 C 0.87123 0.11191 0.52048 0.0
C2669 C 0.88272 0.19987 0.49077 0.0
H2670 H 0.94645 0.16241 0.46237 0.0
H2671 H 0.86109 0.12055 0.44136 0.0
H2672 H 0.93674 0.1945 0.50281 0.0
H2673 H 0.93214 0.16331 0.51288 0.0
H2674 H 0.95878 0.18133 0.49429 0.0
H2675 H 0.82301 0.11244 0.4615 0.0
H2676 H 0.82831 0.11139 0.48788 0.0
H2677 H 0.83183 0.14172 0.47692 0.0
H2678 H 0.8512 0.12775 0.55136 0.0
H2679 H 0.86071 0.20165 0.52622 0.0
H2680 H 0.89291 0.11724 0.51627 0.0
H2681 H 0.85695 0.09834 0.50868 0.0
H2682 H 0.86571 0.10038 0.5347 0.0
H2683 H 0.90478 0.20705 0.48631 0.0
H2684 H 0.88078 0.21788 0.49491 0.0
H2685 H 0.86928 0.18998 0.47757 0.0
C2686 C 0.8531 0.75257 0.4652 0.0
C2687 C 0.8789 0.77367 0.458 0.0
C2688 C 0.84985 0.74419 0.48519 0.0
C2689 C 0.87301 0.757 0.49838 0.0
C2690 C 0.89928 0.7778 0.49112 0.0
C2691 C 0.90187 0.78594 0.47111 0.0
C2692 C 0.82148 0.72195 0.49229 0.0
C2693 C 0.92457 0.79192 0.50462 0.0
C2694 C 0.86066 0.75788 0.55405 0.0
C2695 C 0.8659 0.7375 0.56113 0.0
C2696 C 0.86227 0.76395 0.53367 0.0
C2697 C 0.86957 0.74949 0.51994 0.0
C2698 C 0.87437 0.72853 0.52696 0.0
C2699 C 0.87232 0.72269 0.54744 0.0
C2700 C 0.85657 0.78616 0.52686 0.0
C2701 C 0.88241 0.71279 0.51288 0.0
H2702 H 0.83532 0.74255 0.45518 0.0
H2703 H 0.92181 0.80247 0.46586 0.0
H2704 H 0.82342 0.70509 0.49906 0.0
H2705 H 0.81343 0.73011 0.50398 0.0
H2706 H 0.80578 0.71347 0.48007 0.0
H2707 H 0.94386 0.80663 0.49648 0.0
H2708 H 0.92045 0.80308 0.5165 0.0
H2709 H 0.92854 0.77662 0.512 0.0
H2710 H 0.85535 0.76917 0.56453 0.0
H2711 H 0.87663 0.70709 0.55283 0.0
H2712 H 0.83981 0.77808 0.51537 0.0
H2713 H 0.87576 0.80299 0.51993 0.0
H2714 H 0.85003 0.7947 0.53928 0.0
H2715 H 0.86656 0.70348 0.50085 0.0
H2716 H 0.88431 0.69638 0.52054 0.0
H2717 H 0.90283 0.7269 0.50573 0.0
loop_
_geom_bond_atom_site_label_1
_geom_bond_atom_site_label_2
_geom_bond_distance
_geom_bond_site_symmetry_2
_ccdc_geom_bond_type
H0 C7 0.929 . S
H1 C10 0.930 . S
H2 C12 0.929 . S
H3 C4 0.969 . S
C4 H3 0.969 . S
C4 O5 1.550 . S
C4 H6 0.973 . S
O5 C4 1.550 . S
O5 C11 1.412 . S
H6 C4 0.973 . S
C7 H0 0.929 . S
C7 C8 1.400 . S
C7 C9 1.364 . S
C8 C7 1.400 . S
C8 C12 1.377 . S
C9 C7 1.364 . S
C9 C10 1.374 . S
C10 H1 0.930 . S
C10 C9 1.374 . S
C10 C11 1.383 . S
C11 O5 1.412 . S
C11 C10 1.383 . S
C11 C12 1.394 . S
C12 H2 0.929 . S
C12 C8 1.377 . S
C12 C11 1.394 . S
H13 C20 0.929 . S
H14 C23 0.930 . S
H15 C25 0.929 . S
H16 C17 0.969 . S
C17 H16 0.969 . S
C17 O18 1.550 . S
C17 H19 0.973 . S
O18 C17 1.550 . S
O18 C24 1.412 . S
H19 C17 0.973 . S
C20 H13 0.929 . S
C20 C21 1.400 . S
C20 C22 1.364 . S
C21 C20 1.400 . S
C21 C25 1.377 . S
C22 C20 1.364 . S
C22 C23 1.374 . S
C23 H14 0.930 . S
C23 C22 1.374 . S
C23 C24 1.383 . S
C24 O18 1.412 . S
C24 C23 1.383 . S
C24 C25 1.394 . S
C25 H15 0.929 . S
C25 C21 1.377 . S
C25 C24 1.394 . S
H26 C33 0.929 . S
H27 C36 0.930 . S
H28 C38 0.929 . S
H29 C30 0.969 . S
C30 H29 0.969 . S
C30 O31 1.550 . S
C30 H32 0.973 . S
O31 C30 1.550 . S
O31 C37 1.412 . S
H32 C30 0.973 . S
C33 H26 0.929 . S
C33 C34 1.400 . S
C33 C35 1.364 . S
C34 C33 1.400 . S
C34 C38 1.377 . S
C35 C33 1.364 . S
C35 C36 1.374 . S
C36 H27 0.930 . S
C36 C35 1.374 . S
C36 C37 1.383 . S
C37 O31 1.412 . S
C37 C36 1.383 . S
C37 C38 1.394 . S
C38 H28 0.929 . S
C38 C34 1.377 . S
C38 C37 1.394 . S
H39 C46 0.929 . S
H40 C49 0.930 . S
H41 C51 0.929 . S
H42 C43 0.969 . S
C43 H42 0.969 . S
C43 O44 1.550 . S
C43 H45 0.973 . S
O44 C43 1.550 . S
O44 C50 1.412 . S
H45 C43 0.973 . S
C46 H39 0.929 . S
C46 C47 1.400 . S
C46 C48 1.364 . S
C47 C46 1.400 . S
C47 C51 1.377 . S
C48 C46 1.364 . S
C48 C49 1.374 . S
C49 H40 0.930 . S
C49 C48 1.374 . S
C49 C50 1.383 . S
C50 O44 1.412 . S
C50 C49 1.383 . S
C50 C51 1.394 . S
C51 H41 0.929 . S
C51 C47 1.377 . S
C51 C50 1.394 . S
H52 C59 0.929 . S
H53 C62 0.930 . S
H54 C64 0.929 . S
H55 C56 0.969 . S
C56 H55 0.969 . S
C56 O57 1.550 . S
C56 H58 0.973 . S
O57 C56 1.550 . S
O57 C63 1.412 . S
H58 C56 0.973 . S
C59 H52 0.929 . S
C59 C60 1.400 . S
C59 C61 1.364 . S
C60 C59 1.400 . S
C60 C64 1.377 . S
C61 C59 1.364 . S
C61 C62 1.374 . S
C62 H53 0.930 . S
C62 C61 1.374 . S
C62 C63 1.383 . S
C63 O57 1.412 . S
C63 C62 1.383 . S
C63 C64 1.394 . S
C64 H54 0.929 . S
C64 C60 1.377 . S
C64 C63 1.394 . S
H65 C72 0.929 . S
H66 C75 0.930 . S
H67 C77 0.929 . S
H68 C69 0.969 . S
C69 H68 0.969 . S
C69 O70 1.550 . S
C69 H71 0.973 . S
O70 C69 1.550 . S
O70 C76 1.412 . S
H71 C69 0.973 . S
C72 H65 0.929 . S
C72 C73 1.400 . S
C72 C74 1.364 . S
C73 C72 1.400 . S
C73 C77 1.377 . S
C74 C72 1.364 . S
C74 C75 1.374 . S
C75 H66 0.930 . S
C75 C74 1.374 . S
C75 C76 1.383 . S
C76 O70 1.412 . S
C76 C75 1.383 . S
C76 C77 1.394 . S
C77 H67 0.929 . S
C77 C73 1.377 . S
C77 C76 1.394 . S
H78 C85 0.929 . S
H79 C88 0.930 . S
H80 C90 0.929 . S
H81 C82 0.969 . S
C82 H81 0.969 . S
C82 O83 1.550 . S
C82 H84 0.973 . S
O83 C82 1.550 . S
O83 C89 1.412 . S
H84 C82 0.973 . S
C85 H78 0.929 . S
C85 C86 1.400 . S
C85 C87 1.364 . S
C86 C85 1.400 . S
C86 C90 1.377 . S
C87 C85 1.364 . S
C87 C88 1.374 . S
C88 H79 0.930 . S
C88 C87 1.374 . S
C88 C89 1.383 . S
C89 O83 1.412 . S
C89 C88 1.383 . S
C89 C90 1.394 . S
C90 H80 0.929 . S
C90 C86 1.377 . S
C90 C89 1.394 . S
H91 C98 0.929 . S
H92 C101 0.930 . S
H93 C103 0.929 . S
H94 C95 0.969 . S
C95 H94 0.969 . S
C95 O96 1.550 . S
C95 H97 0.973 . S
O96 C95 1.550 . S
O96 C102 1.412 . S
H97 C95 0.973 . S
C98 H91 0.929 . S
C98 C99 1.400 . S
C98 C100 1.364 . S
C99 C98 1.400 . S
C99 C103 1.377 . S
C100 C98 1.364 . S
C100 C101 1.374 . S
C101 H92 0.930 . S
C101 C100 1.374 . S
C101 C102 1.383 . S
C102 O96 1.412 . S
C102 C101 1.383 . S
C102 C103 1.394 . S
C103 H93 0.929 . S
C103 C99 1.377 . S
C103 C102 1.394 . S
H104 C111 0.929 . S
H105 C114 0.930 . S
H106 C116 0.929 . S
H107 C108 0.969 . S
C108 H107 0.969 . S
C108 O109 1.550 . S
C108 H110 0.973 . S
O109 C108 1.550 . S
O109 C115 1.412 . S
H110 C108 0.973 . S
C111 H104 0.929 . S
C111 C112 1.400 . S
C111 C113 1.364 . S
C112 C111 1.400 . S
C112 C116 1.377 . S
C113 C111 1.364 . S
C113 C114 1.374 . S
C114 H105 0.930 . S
C114 C113 1.374 . S
C114 C115 1.383 . S
C115 O109 1.412 . S
C115 C114 1.383 . S
C115 C116 1.394 . S
C116 H106 0.929 . S
C116 C112 1.377 . S
C116 C115 1.394 . S
H117 C124 0.929 . S
H118 C127 0.930 . S
H119 C129 0.929 . S
H120 C121 0.969 . S
C121 H120 0.969 . S
C121 O122 1.550 . S
C121 H123 0.973 . S
O122 C121 1.550 . S
O122 C128 1.412 . S
H123 C121 0.973 . S
C124 H117 0.929 . S
C124 C125 1.400 . S
C124 C126 1.364 . S
C125 C124 1.400 . S
C125 C129 1.377 . S
C126 C124 1.364 . S
C126 C127 1.374 . S
C127 H118 0.930 . S
C127 C126 1.374 . S
C127 C128 1.383 . S
C128 O122 1.412 . S
C128 C127 1.383 . S
C128 C129 1.394 . S
C129 H119 0.929 . S
C129 C125 1.377 . S
C129 C128 1.394 . S
H130 C137 0.929 . S
H131 C140 0.930 . S
H132 C142 0.929 . S
H133 C134 0.969 . S
C134 H133 0.969 . S
C134 O135 1.550 . S
C134 H136 0.973 . S
O135 C134 1.550 . S
O135 C141 1.412 . S
H136 C134 0.973 . S
C137 H130 0.929 . S
C137 C138 1.400 . S
C137 C139 1.364 . S
C138 C137 1.400 . S
C138 C142 1.377 . S
C139 C137 1.364 . S
C139 C140 1.374 . S
C140 H131 0.930 . S
C140 C139 1.374 . S
C140 C141 1.383 . S
C141 O135 1.412 . S
C141 C140 1.383 . S
C141 C142 1.394 . S
C142 H132 0.929 . S
C142 C138 1.377 . S
C142 C141 1.394 . S
H143 C150 0.929 . S
H144 C153 0.930 . S
H145 C155 0.929 . S
H146 C147 0.969 . S
C147 H146 0.969 . S
C147 O148 1.550 . S
C147 H149 0.973 . S
O148 C147 1.550 . S
O148 C154 1.412 . S
H149 C147 0.973 . S
C150 H143 0.929 . S
C150 C151 1.400 . S
C150 C152 1.364 . S
C151 C150 1.400 . S
C151 C155 1.377 . S
C152 C150 1.364 . S
C152 C153 1.374 . S
C153 H144 0.930 . S
C153 C152 1.374 . S
C153 C154 1.383 . S
C154 O148 1.412 . S
C154 C153 1.383 . S
C154 C155 1.394 . S
C155 H145 0.929 . S
C155 C151 1.377 . S
C155 C154 1.394 . S
H156 C163 0.929 . S
H157 C166 0.930 . S
H158 C168 0.929 . S
H159 C160 0.969 . S
C160 H159 0.969 . S
C160 O161 1.550 . S
C160 H162 0.973 . S
O161 C160 1.550 . S
O161 C167 1.412 . S
H162 C160 0.973 . S
C163 H156 0.929 . S
C163 C164 1.400 . S
C163 C165 1.364 . S
C164 C163 1.400 . S
C164 C168 1.377 . S
C165 C163 1.364 . S
C165 C166 1.374 . S
C166 H157 0.930 . S
C166 C165 1.374 . S
C166 C167 1.383 . S
C167 O161 1.412 . S
C167 C166 1.383 . S
C167 C168 1.394 . S
C168 H158 0.929 . S
C168 C164 1.377 . S
C168 C167 1.394 . S
H169 C176 0.929 . S
H170 C179 0.930 . S
H171 C181 0.929 . S
H172 C173 0.969 . S
C173 H172 0.969 . S
C173 O174 1.550 . S
C173 H175 0.973 . S
O174 C173 1.550 . S
O174 C180 1.412 . S
H175 C173 0.973 . S
C176 H169 0.929 . S
C176 C177 1.400 . S
C176 C178 1.364 . S
C177 C176 1.400 . S
C177 C181 1.377 . S
C178 C176 1.364 . S
C178 C179 1.374 . S
C179 H170 0.930 . S
C179 C178 1.374 . S
C179 C180 1.383 . S
C180 O174 1.412 . S
C180 C179 1.383 . S
C180 C181 1.394 . S
C181 H171 0.929 . S
C181 C177 1.377 . S
C181 C180 1.394 . S
H182 C189 0.929 . S
H183 C192 0.930 . S
H184 C194 0.929 . S
H185 C186 0.969 . S
C186 H185 0.969 . S
C186 O187 1.550 . S
C186 H188 0.973 . S
O187 C186 1.550 . S
O187 C193 1.412 . S
H188 C186 0.973 . S
C189 H182 0.929 . S
C189 C190 1.400 . S
C189 C191 1.364 . S
C190 C189 1.400 . S
C190 C194 1.377 . S
C191 C189 1.364 . S
C191 C192 1.374 . S
C192 H183 0.930 . S
C192 C191 1.374 . S
C192 C193 1.383 . S
C193 O187 1.412 . S
C193 C192 1.383 . S
C193 C194 1.394 . S
C194 H184 0.929 . S
C194 C190 1.377 . S
C194 C193 1.394 . S
H195 C202 0.929 . S
H196 C205 0.930 . S
H197 C207 0.929 . S
H198 C199 0.969 . S
C199 H198 0.969 . S
C199 O200 1.550 . S
C199 H201 0.973 . S
O200 C199 1.550 . S
O200 C206 1.412 . S
H201 C199 0.973 . S
C202 H195 0.929 . S
C202 C203 1.400 . S
C202 C204 1.364 . S
C203 C202 1.400 . S
C203 C207 1.377 . S
C204 C202 1.364 . S
C204 C205 1.374 . S
C205 H196 0.930 . S
C205 C204 1.374 . S
C205 C206 1.383 . S
C206 O200 1.412 . S
C206 C205 1.383 . S
C206 C207 1.394 . S
C207 H197 0.929 . S
C207 C203 1.377 . S
C207 C206 1.394 . S
H208 C215 0.929 . S
H209 C218 0.930 . S
H210 C220 0.929 . S
H211 C212 0.969 . S
C212 H211 0.969 . S
C212 O213 1.550 . S
C212 H214 0.973 . S
O213 C212 1.550 . S
O213 C219 1.412 . S
H214 C212 0.973 . S
C215 H208 0.929 . S
C215 C216 1.400 . S
C215 C217 1.364 . S
C216 C215 1.400 . S
C216 C220 1.377 . S
C217 C215 1.364 . S
C217 C218 1.374 . S
C218 H209 0.930 . S
C218 C217 1.374 . S
C218 C219 1.383 . S
C219 O213 1.412 . S
C219 C218 1.383 . S
C219 C220 1.394 . S
C220 H210 0.929 . S
C220 C216 1.377 . S
C220 C219 1.394 . S
H221 C228 0.929 . S
H222 C231 0.930 . S
H223 C233 0.929 . S
H224 C225 0.969 . S
C225 H224 0.969 . S
C225 O226 1.550 . S
C225 H227 0.973 . S
O226 C225 1.550 . S
O226 C232 1.412 . S
H227 C225 0.973 . S
C228 H221 0.929 . S
C228 C229 1.400 . S
C228 C230 1.364 . S
C229 C228 1.400 . S
C229 C233 1.377 . S
C230 C228 1.364 . S
C230 C231 1.374 . S
C231 H222 0.930 . S
C231 C230 1.374 . S
C231 C232 1.383 . S
C232 O226 1.412 . S
C232 C231 1.383 . S
C232 C233 1.394 . S
C233 H223 0.929 . S
C233 C229 1.377 . S
C233 C232 1.394 . S
Eu234 N265 2.657 . S
Eu234 N272 2.609 . S
Eu234 O278 2.558 . S
Eu234 O279 2.612 1_566 S
Eu234 O281 2.339 1_565 S
Eu234 O282 2.563 1_565 S
Eu234 O283 2.419 1_565 S
Eu234 O285 2.380 1_556 S
Eu234 O286 2.431 . S
Eu234 C298 2.845 1_565 S
C235 C238 1.429 . S
C235 C239 1.411 . S
C235 N242 1.377 . S
C236 C238 1.420 . S
C236 C240 1.423 . S
C236 C248 1.392 . S
C237 C239 1.420 . S
C237 C240 1.351 . S
C237 H260 0.931 . S
C238 C235 1.429 . S
C238 C236 1.420 . S
C238 N246 1.362 . S
C239 C235 1.411 . S
C239 C237 1.420 . S
C239 C244 1.395 . S
C240 C236 1.423 . S
C240 C237 1.351 . S
C240 H252 0.930 . S
C241 C243 1.400 . S
C241 C244 1.386 . S
C241 H253 0.930 . S
N242 C235 1.377 . S
N242 C243 1.321 . S
N242 Eu245 2.609 . S
C243 C241 1.400 . S
C243 N242 1.321 . S
C243 H250 0.930 . S
C244 C239 1.395 . S
C244 C241 1.386 . S
C244 H263 0.930 . S
Eu245 N242 2.609 . S
Eu245 N246 2.657 . S
Eu245 O279 2.380 . S
Eu245 O280 2.432 . S
Eu245 O284 2.558 . S
Eu245 O285 2.612 1_545 S
Eu245 O287 2.339 1_545 S
Eu245 O288 2.563 1_545 S
Eu245 O289 2.419 1_545 S
Eu245 C309 2.848 . S
N246 C238 1.362 . S
N246 Eu245 2.657 . S
N246 C247 1.334 . S
C247 N246 1.334 . S
C247 C249 1.413 . S
C247 H254 0.929 . S
C248 C236 1.392 . S
C248 C249 1.367 . S
C248 H256 0.930 . S
C249 C247 1.413 . S
C249 C248 1.367 . S
C249 H251 0.930 . S
H250 C243 0.930 . S
H251 C249 0.930 . S
H252 C240 0.930 . S
H253 C241 0.930 . S
H254 C247 0.929 . S
H255 C269 0.930 . S
H256 C248 0.930 . S
H257 C275 0.930 . S
H258 C266 0.959 . S
H259 C273 0.930 . S
H260 C237 0.931 . S
H261 C267 0.930 . S
H262 C300 0.930 . S
H263 C244 0.930 . S
H264 C299 0.931 . S
N265 Eu234 2.657 . S
N265 C266 1.334 . S
N265 C270 1.362 . S
C266 H258 0.959 . S
C266 N265 1.334 . S
C266 C269 1.413 . S
C267 H261 0.930 . S
C267 C268 1.392 . S
C267 C269 1.367 . S
C268 C267 1.392 . S
C268 C270 1.420 . S
C268 C300 1.423 . S
C269 H255 0.930 . S
C269 C266 1.413 . S
C269 C267 1.367 . S
C270 N265 1.362 . S
C270 C268 1.420 . S
C270 C274 1.429 . S
H271 C276 0.930 . S
N272 Eu234 2.609 . S
N272 C274 1.377 . S
N272 C275 1.321 . S
C273 H259 0.930 . S
C273 C275 1.400 . S
C273 C276 1.386 . S
C274 C270 1.429 . S
C274 N272 1.377 . S
C274 C277 1.411 . S
C275 H257 0.930 . S
C275 N272 1.321 . S
C275 C273 1.400 . S
C276 H271 0.930 . S
C276 C273 1.386 . S
C276 C277 1.395 . S
C277 C274 1.411 . S
C277 C276 1.395 . S
C277 C299 1.420 . S
O278 Eu234 2.558 . S
O278 C298 1.224 1_565 S
O279 Eu234 2.612 1_544 S
O279 Eu245 2.380 . S
O279 C290 1.276 1_554 S
O280 Eu245 2.432 . S
O280 C297 1.264 . S
O281 Eu234 2.339 1_545 S
O281 C297 1.254 1_556 S
O282 Eu234 2.563 1_545 S
O282 C290 1.235 . S
O283 Eu234 2.419 1_545 S
O283 C298 1.277 . S
O284 Eu245 2.558 . S
O284 C309 1.257 . S
O285 Eu234 2.380 1_554 S
O285 Eu245 2.612 1_565 S
O285 C301 1.276 . S
O286 Eu234 2.431 . S
O286 C308 1.267 1_556 S
O287 Eu245 2.339 1_565 S
O287 C308 1.254 . S
O288 Eu245 2.563 1_565 S
O288 C301 1.235 . S
O289 Eu245 2.419 1_565 S
O289 C309 1.249 1_565 S
C290 O279 1.276 1_556 S
C290 O282 1.235 . S
C291 C293 1.393 . S
C291 C295 1.395 1_545 S
C291 C298 1.497 . S
C292 C293 1.392 . S
C292 C294 1.386 . S
C293 C291 1.393 . S
C293 C292 1.392 . S
C293 H310 0.930 . S
C294 C292 1.386 . S
C294 C296 1.395 1_545 S
C294 H311 0.930 . S
C295 C291 1.395 1_565 S
C295 C296 1.379 . S
C295 H312 0.930 . S
C296 C294 1.395 1_565 S
C296 C295 1.379 . S
C296 H313 0.930 . S
C297 O280 1.264 . S
C297 O281 1.254 1_554 S
C298 Eu234 2.845 1_545 S
C298 O278 1.224 1_545 S
C298 O283 1.277 . S
C298 C291 1.497 . S
C299 H264 0.931 . S
C299 C277 1.420 . S
C299 C300 1.351 . S
C300 H262 0.930 . S
C300 C268 1.423 . S
C300 C299 1.351 . S
C301 O285 1.276 . S
C301 O288 1.235 . S
C302 C303 1.393 1_545 S
C302 C306 1.395 . S
C302 C309 1.492 . S
C303 C302 1.393 1_565 S
C303 C304 1.392 . S
C303 H314 0.930 . S
C304 C303 1.392 . S
C304 C305 1.386 . S
C305 C304 1.386 . S
C305 C307 1.395 1_565 S
C305 H315 0.930 . S
C306 C302 1.395 . S
C306 C307 1.379 . S
C306 H316 0.930 . S
C307 C305 1.395 1_545 S
C307 C306 1.379 . S
C307 H317 0.930 . S
C308 O286 1.267 1_554 S
C308 O287 1.254 . S
C309 Eu245 2.848 . S
C309 O284 1.257 . S
C309 O289 1.249 1_545 S
C309 C302 1.492 . S
H310 C293 0.930 . S
H311 C294 0.930 . S
H312 C295 0.930 . S
H313 C296 0.930 . S
H314 C303 0.930 . S
H315 C305 0.930 . S
H316 C306 0.930 . S
H317 C307 0.930 . S
Eu318 N349 2.657 . S
Eu318 N356 2.609 . S
Eu318 O362 2.558 . S
Eu318 O363 2.612 1_456 S
Eu318 O365 2.339 1_455 S
Eu318 O366 2.563 1_455 S
Eu318 O367 2.418 1_455 S
Eu318 O369 2.380 1_556 S
Eu318 O370 2.405 1_556 S
Eu318 C382 2.848 . S
C319 C322 1.429 . S
C319 C323 1.411 . S
C319 N326 1.377 . S
C320 C322 1.420 . S
C320 C324 1.423 . S
C320 C332 1.392 . S
C321 C323 1.420 . S
C321 C324 1.351 . S
C321 H344 0.931 . S
C322 C319 1.429 . S
C322 C320 1.420 . S
C322 N330 1.362 . S
C323 C319 1.411 . S
C323 C321 1.420 . S
C323 C328 1.395 . S
C324 C320 1.423 . S
C324 C321 1.351 . S
C324 H336 0.930 . S
C325 C327 1.400 . S
C325 C328 1.386 . S
C325 H337 0.930 . S
N326 C319 1.377 . S
N326 C327 1.321 . S
N326 Eu329 2.609 . S
C327 C325 1.400 . S
C327 N326 1.321 . S
C327 H334 0.930 . S
C328 C323 1.395 . S
C328 C325 1.386 . S
C328 H347 0.930 . S
Eu329 N326 2.609 . S
Eu329 N330 2.657 . S
Eu329 O363 2.380 . S
Eu329 O364 2.432 . S
Eu329 O368 2.558 . S
Eu329 O369 2.612 1_655 S
Eu329 O371 2.339 1_655 S
Eu329 O372 2.563 1_655 S
Eu329 O373 2.419 1_655 S
Eu329 C393 2.848 . S
N330 C322 1.362 . S
N330 Eu329 2.657 . S
N330 C331 1.334 . S
C331 N330 1.334 . S
C331 C333 1.413 . S
C331 H338 0.929 . S
C332 C320 1.392 . S
C332 C333 1.367 . S
C332 H340 0.930 . S
C333 C331 1.413 . S
C333 C332 1.367 . S
C333 H335 0.930 . S
H334 C327 0.930 . S
H335 C333 0.930 . S
H336 C324 0.930 . S
H337 C325 0.930 . S
H338 C331 0.929 . S
H339 C353 0.930 . S
H340 C332 0.930 . S
H341 C359 0.930 . S
H342 C350 0.929 . S
H343 C357 0.930 . S
H344 C321 0.931 . S
H345 C351 0.930 . S
H346 C384 0.930 . S
H347 C328 0.930 . S
H348 C383 0.931 . S
N349 Eu318 2.657 . S
N349 C350 1.334 . S
N349 C354 1.362 . S
C350 H342 0.929 . S
C350 N349 1.334 . S
C350 C353 1.413 . S
C351 H345 0.930 . S
C351 C352 1.392 . S
C351 C353 1.367 . S
C352 C351 1.392 . S
C352 C354 1.420 . S
C352 C384 1.423 . S
C353 H339 0.930 . S
C353 C350 1.413 . S
C353 C351 1.367 . S
C354 N349 1.362 . S
C354 C352 1.420 . S
C354 C358 1.429 . S
H355 C360 0.930 . S
N356 Eu318 2.609 . S
N356 C358 1.377 . S
N356 C359 1.321 . S
C357 H343 0.930 . S
C357 C359 1.400 . S
C357 C360 1.386 . S
C358 C354 1.429 . S
C358 N356 1.377 . S
C358 C361 1.411 . S
C359 H341 0.930 . S
C359 N356 1.321 . S
C359 C357 1.400 . S
C360 H355 0.930 . S
C360 C357 1.386 . S
C360 C361 1.395 . S
C361 C358 1.411 . S
C361 C360 1.395 . S
C361 C383 1.420 . S
O362 Eu318 2.558 . S
O362 C382 1.257 . S
O363 Eu318 2.612 1_654 S
O363 Eu329 2.380 . S
O363 C374 1.276 1_554 S
O364 Eu329 2.432 . S
O364 C381 1.264 . S
O365 Eu318 2.339 1_655 S
O365 C381 1.254 1_556 S
O366 Eu318 2.563 1_655 S
O366 C374 1.235 . S
O367 Eu318 2.418 1_655 S
O367 C382 1.249 1_655 S
O368 Eu329 2.558 . S
O368 C393 1.257 . S
O369 Eu318 2.380 1_554 S
O369 Eu329 2.612 1_455 S
O369 C385 1.276 . S
O370 Eu318 2.405 1_554 S
O370 C392 1.319 . S
O371 Eu329 2.339 1_455 S
O371 C392 1.254 . S
O372 Eu329 2.563 1_455 S
O372 C385 1.235 . S
O373 Eu329 2.419 1_455 S
O373 C393 1.249 1_455 S
C374 O363 1.276 1_556 S
C374 O366 1.235 . S
C375 C377 1.393 1_455 S
C375 C379 1.395 . S
C375 C382 1.492 . S
C376 C377 1.392 . S
C376 C378 1.386 . S
C377 C375 1.393 1_655 S
C377 C376 1.392 . S
C377 H394 0.930 . S
C378 C376 1.386 . S
C378 C380 1.395 1_655 S
C378 H395 0.930 . S
C379 C375 1.395 . S
C379 C380 1.379 . S
C379 H396 0.930 . S
C380 C378 1.395 1_455 S
C380 C379 1.379 . S
C380 H397 0.930 . S
C381 O364 1.264 . S
C381 O365 1.254 1_554 S
C382 Eu318 2.848 . S
C382 O362 1.257 . S
C382 O367 1.249 1_455 S
C382 C375 1.492 . S
C383 H348 0.931 . S
C383 C361 1.420 . S
C383 C384 1.351 . S
C384 H346 0.930 . S
C384 C352 1.423 . S
C384 C383 1.351 . S
C385 O369 1.276 . S
C385 O372 1.235 . S
C386 C387 1.393 . S
C386 C390 1.395 1_455 S
C386 C393 1.492 1_455 S
C387 C386 1.393 . S
C387 C388 1.392 . S
C387 H398 0.930 . S
C388 C387 1.392 . S
C388 C389 1.386 . S
C389 C388 1.386 . S
C389 C391 1.395 1_455 S
C389 H399 0.930 . S
C390 C386 1.395 1_655 S
C390 C391 1.379 . S
C390 H400 0.930 . S
C391 C389 1.395 1_655 S
C391 C390 1.379 . S
C391 H401 0.930 . S
C392 O370 1.319 . S
C392 O371 1.254 . S
C393 Eu329 2.848 . S
C393 O368 1.257 . S
C393 O373 1.249 1_655 S
C393 C386 1.492 1_655 S
H394 C377 0.930 . S
H395 C378 0.930 . S
H396 C379 0.930 . S
H397 C380 0.930 . S
H398 C387 0.930 . S
H399 C389 0.930 . S
H400 C390 0.930 . S
H401 C391 0.930 . S
Eu402 N433 2.657 . S
Eu402 N440 2.609 . S
Eu402 O446 2.558 . S
Eu402 O447 2.612 . S
Eu402 O449 2.339 . S
Eu402 O450 2.563 . S
Eu402 O451 2.419 . S
Eu402 O453 2.380 . S
Eu402 O454 2.432 . S
Eu402 C466 2.848 . S
C403 C406 1.429 . S
C403 C407 1.411 . S
C403 N410 1.377 . S
C404 C406 1.420 . S
C404 C408 1.423 . S
C404 C416 1.392 . S
C405 C407 1.420 . S
C405 C408 1.351 . S
C405 H428 0.931 . S
C406 C403 1.429 . S
C406 C404 1.420 . S
C406 N414 1.362 . S
C407 C403 1.411 . S
C407 C405 1.420 . S
C407 C412 1.395 . S
C408 C404 1.423 . S
C408 C405 1.351 . S
C408 H420 0.930 . S
C409 C411 1.400 . S
C409 C412 1.386 . S
C409 H421 0.930 . S
N410 C403 1.377 . S
N410 C411 1.321 . S
N410 Eu413 2.609 . S
C411 C409 1.400 . S
C411 N410 1.321 . S
C411 H418 0.930 . S
C412 C407 1.395 . S
C412 C409 1.386 . S
C412 H431 0.930 . S
Eu413 N410 2.609 . S
Eu413 N414 2.657 . S
Eu413 O447 2.380 1_556 S
Eu413 O448 2.432 1_556 S
Eu413 O452 2.558 . S
Eu413 O453 2.612 1_556 S
Eu413 O455 2.339 . S
Eu413 O456 2.563 . S
Eu413 O457 2.419 . S
Eu413 C477 2.848 . S
N414 C406 1.362 . S
N414 Eu413 2.657 . S
N414 C415 1.334 . S
C415 N414 1.334 . S
C415 C417 1.413 . S
C415 H422 0.929 . S
C416 C404 1.392 . S
C416 C417 1.367 . S
C416 H424 0.930 . S
C417 C415 1.413 . S
C417 C416 1.367 . S
C417 H419 0.930 . S
H418 C411 0.930 . S
H419 C417 0.930 . S
H420 C408 0.930 . S
H421 C409 0.930 . S
H422 C415 0.929 . S
H423 C437 0.930 . S
H424 C416 0.930 . S
H425 C443 0.930 . S
H426 C434 0.929 . S
H427 C441 0.930 . S
H428 C405 0.931 . S
H429 C435 0.930 . S
H430 C468 0.930 . S
H431 C412 0.930 . S
H432 C467 0.931 . S
N433 Eu402 2.657 . S
N433 C434 1.334 . S
N433 C438 1.362 . S
C434 H426 0.929 . S
C434 N433 1.334 . S
C434 C437 1.413 . S
C435 H429 0.930 . S
C435 C436 1.392 . S
C435 C437 1.367 . S
C436 C435 1.392 . S
C436 C438 1.420 . S
C436 C468 1.423 . S
C437 H423 0.930 . S
C437 C434 1.413 . S
C437 C435 1.367 . S
C438 N433 1.362 . S
C438 C436 1.420 . S
C438 C442 1.429 . S
H439 C444 0.930 . S
N440 Eu402 2.609 . S
N440 C442 1.377 . S
N440 C443 1.321 . S
C441 H427 0.930 . S
C441 C443 1.400 . S
C441 C444 1.386 . S
C442 C438 1.429 . S
C442 N440 1.377 . S
C442 C445 1.411 . S
C443 H425 0.930 . S
C443 N440 1.321 . S
C443 C441 1.400 . S
C444 H439 0.930 . S
C444 C441 1.386 . S
C444 C445 1.395 . S
C445 C442 1.411 . S
C445 C444 1.395 . S
C445 C467 1.420 . S
O446 Eu402 2.558 . S
O446 C466 1.257 . S
O447 Eu402 2.612 . S
O447 Eu413 2.380 1_554 S
O447 C458 1.276 . S
O448 Eu413 2.432 1_554 S
O448 C465 1.264 . S
O449 Eu402 2.339 . S
O449 C465 1.254 . S
O450 Eu402 2.563 . S
O450 C458 1.235 . S
O451 Eu402 2.419 . S
O451 C466 1.249 . S
O452 Eu413 2.558 . S
O452 C477 1.257 . S
O453 Eu402 2.380 . S
O453 Eu413 2.612 1_554 S
O453 C469 1.276 1_554 S
O454 Eu402 2.432 . S
O454 C476 1.264 . S
O455 Eu413 2.339 . S
O455 C476 1.254 1_556 S
O456 Eu413 2.563 . S
O456 C469 1.235 . S
O457 Eu413 2.419 . S
O457 C477 1.249 . S
C458 O447 1.276 . S
C458 O450 1.235 . S
C459 C461 1.393 . S
C459 C463 1.395 . S
C459 C466 1.492 . S
C460 C461 1.392 . S
C460 C462 1.386 . S
C461 C459 1.393 . S
C461 C460 1.392 . S
C461 H478 0.930 . S
C462 C460 1.386 . S
C462 C464 1.395 . S
C462 H479 0.930 . S
C463 C459 1.395 . S
C463 C464 1.379 . S
C463 H480 0.930 . S
C464 C462 1.395 . S
C464 C463 1.379 . S
C464 H481 0.930 . S
C465 O448 1.264 . S
C465 O449 1.254 . S
C466 Eu402 2.848 . S
C466 O446 1.257 . S
C466 O451 1.249 . S
C466 C459 1.492 . S
C467 H432 0.931 . S
C467 C445 1.420 . S
C467 C468 1.351 . S
C468 H430 0.930 . S
C468 C436 1.423 . S
C468 C467 1.351 . S
C469 O453 1.276 1_556 S
C469 O456 1.235 . S
C470 C471 1.393 . S
C470 C474 1.395 . S
C470 C477 1.492 . S
C471 C470 1.393 . S
C471 C472 1.392 . S
C471 H482 0.930 . S
C472 C471 1.392 . S
C472 C473 1.386 . S
C473 C472 1.386 . S
C473 C475 1.395 . S
C473 H483 0.930 . S
C474 C470 1.395 . S
C474 C475 1.379 . S
C474 H484 0.930 . S
C475 C473 1.395 . S
C475 C474 1.379 . S
C475 H485 0.930 . S
C476 O454 1.264 . S
C476 O455 1.254 1_554 S
C477 Eu413 2.848 . S
C477 O452 1.257 . S
C477 O457 1.249 . S
C477 C470 1.492 . S
H478 C461 0.930 . S
H479 C462 0.930 . S
H480 C463 0.930 . S
H481 C464 0.930 . S
H482 C471 0.930 . S
H483 C473 0.930 . S
H484 C474 0.930 . S
H485 C475 0.930 . S
Eu486 N517 2.657 . S
Eu486 N524 2.609 . S
Eu486 O530 2.558 . S
Eu486 O531 2.612 . S
Eu486 O533 2.339 . S
Eu486 O534 2.563 . S
Eu486 O535 2.419 . S
Eu486 O537 2.380 . S
Eu486 O538 2.432 . S
Eu486 C550 2.848 . S
C487 C490 1.429 . S
C487 C491 1.411 . S
C487 N494 1.377 . S
C488 C490 1.420 . S
C488 C492 1.423 . S
C488 C500 1.392 . S
C489 C491 1.420 . S
C489 C492 1.351 . S
C489 H512 0.931 . S
C490 C487 1.429 . S
C490 C488 1.420 . S
C490 N498 1.362 . S
C491 C487 1.411 . S
C491 C489 1.420 . S
C491 C496 1.395 . S
C492 C488 1.423 . S
C492 C489 1.351 . S
C492 H504 0.930 . S
C493 C495 1.400 . S
C493 C496 1.386 . S
C493 H505 0.930 . S
N494 C487 1.377 . S
N494 C495 1.321 . S
N494 Eu497 2.609 . S
C495 C493 1.400 . S
C495 N494 1.321 . S
C495 H502 0.930 . S
C496 C491 1.395 . S
C496 C493 1.386 . S
C496 H515 0.930 . S
Eu497 N494 2.609 . S
Eu497 N498 2.657 . S
Eu497 O531 2.380 . S
Eu497 O532 2.432 . S
Eu497 O536 2.558 . S
Eu497 O537 2.612 . S
Eu497 O539 2.339 . S
Eu497 O540 2.563 . S
Eu497 O541 2.419 . S
Eu497 C561 2.848 . S
N498 C490 1.362 . S
N498 Eu497 2.657 . S
N498 C499 1.334 . S
C499 N498 1.334 . S
C499 C501 1.413 . S
C499 H506 0.929 . S
C500 C488 1.392 . S
C500 C501 1.367 . S
C500 H508 0.930 . S
C501 C499 1.413 . S
C501 C500 1.367 . S
C501 H503 0.930 . S
H502 C495 0.930 . S
H503 C501 0.930 . S
H504 C492 0.930 . S
H505 C493 0.930 . S
H506 C499 0.929 . S
H507 C521 0.930 . S
H508 C500 0.930 . S
H509 C527 0.930 . S
H510 C518 0.929 . S
H511 C525 0.930 . S
H512 C489 0.931 . S
H513 C519 0.930 . S
H514 C552 0.930 . S
H515 C496 0.930 . S
H516 C551 0.931 . S
N517 Eu486 2.657 . S
N517 C518 1.334 . S
N517 C522 1.362 . S
C518 H510 0.929 . S
C518 N517 1.334 . S
C518 C521 1.413 . S
C519 H513 0.930 . S
C519 C520 1.392 . S
C519 C521 1.367 . S
C520 C519 1.392 . S
C520 C522 1.420 . S
C520 C552 1.423 . S
C521 H507 0.930 . S
C521 C518 1.413 . S
C521 C519 1.367 . S
C522 N517 1.362 . S
C522 C520 1.420 . S
C522 C526 1.429 . S
H523 C528 0.930 . S
N524 Eu486 2.609 . S
N524 C526 1.377 . S
N524 C527 1.321 . S
C525 H511 0.930 . S
C525 C527 1.400 . S
C525 C528 1.386 . S
C526 C522 1.429 . S
C526 N524 1.377 . S
C526 C529 1.411 . S
C527 H509 0.930 . S
C527 N524 1.321 . S
C527 C525 1.400 . S
C528 H523 0.930 . S
C528 C525 1.386 . S
C528 C529 1.395 . S
C529 C526 1.411 . S
C529 C528 1.395 . S
C529 C551 1.420 . S
O530 Eu486 2.558 . S
O530 C550 1.257 . S
O531 Eu486 2.612 . S
O531 Eu497 2.380 . S
O531 C542 1.276 . S
O532 Eu497 2.432 . S
O532 C549 1.264 . S
O533 Eu486 2.339 . S
O533 C549 1.254 . S
O534 Eu486 2.563 . S
O534 C542 1.235 . S
O535 Eu486 2.419 . S
O535 C550 1.249 . S
O536 Eu497 2.558 . S
O536 C561 1.257 . S
O537 Eu486 2.380 . S
O537 Eu497 2.612 . S
O537 C553 1.276 . S
O538 Eu486 2.432 . S
O538 C560 1.264 . S
O539 Eu497 2.339 . S
O539 C560 1.254 . S
O540 Eu497 2.563 . S
O540 C553 1.235 . S
O541 Eu497 2.419 . S
O541 C561 1.249 . S
C542 O531 1.276 . S
C542 O534 1.235 . S
C543 C545 1.393 . S
C543 C547 1.395 . S
C543 C550 1.492 . S
C544 C545 1.392 . S
C544 C546 1.386 . S
C545 C543 1.393 . S
C545 C544 1.392 . S
C545 H562 0.930 . S
C546 C544 1.386 . S
C546 C548 1.395 . S
C546 H563 0.930 . S
C547 C543 1.395 . S
C547 C548 1.379 . S
C547 H564 0.930 . S
C548 C546 1.395 . S
C548 C547 1.379 . S
C548 H565 0.930 . S
C549 O532 1.264 . S
C549 O533 1.254 . S
C550 Eu486 2.848 . S
C550 O530 1.257 . S
C550 O535 1.249 . S
C550 C543 1.492 . S
C551 H516 0.931 . S
C551 C529 1.420 . S
C551 C552 1.351 . S
C552 H514 0.930 . S
C552 C520 1.423 . S
C552 C551 1.351 . S
C553 O537 1.276 . S
C553 O540 1.235 . S
C554 C555 1.393 . S
C554 C558 1.395 . S
C554 C561 1.492 . S
C555 C554 1.393 . S
C555 C556 1.392 . S
C555 H566 0.930 . S
C556 C555 1.392 . S
C556 C557 1.386 . S
C557 C556 1.386 . S
C557 C559 1.395 . S
C557 H567 0.930 . S
C558 C554 1.395 . S
C558 C559 1.379 . S
C558 H568 0.930 . S
C559 C557 1.395 . S
C559 C558 1.379 . S
C559 H569 0.930 . S
C560 O538 1.264 . S
C560 O539 1.254 . S
C561 Eu497 2.848 . S
C561 O536 1.257 . S
C561 O541 1.249 . S
C561 C554 1.492 . S
H562 C545 0.930 . S
H563 C546 0.930 . S
H564 C547 0.930 . S
H565 C548 0.930 . S
H566 C555 0.930 . S
H567 C557 0.930 . S
H568 C558 0.930 . S
H569 C559 0.930 . S
Eu570 N601 2.657 . S
Eu570 N608 2.609 . S
Eu570 O614 2.558 . S
Eu570 O615 2.612 . S
Eu570 O617 2.339 . S
Eu570 O618 2.563 . S
Eu570 O619 2.419 . S
Eu570 O621 2.380 . S
Eu570 O622 2.432 . S
Eu570 C634 2.848 . S
C571 C574 1.429 . S
C571 C575 1.411 . S
C571 N578 1.377 . S
C572 C574 1.420 . S
C572 C576 1.423 . S
C572 C584 1.392 . S
C573 C575 1.420 . S
C573 C576 1.351 . S
C573 H596 0.931 . S
C574 C571 1.429 . S
C574 C572 1.420 . S
C574 N582 1.362 . S
C575 C571 1.411 . S
C575 C573 1.420 . S
C575 C580 1.395 . S
C576 C572 1.423 . S
C576 C573 1.351 . S
C576 H588 0.930 . S
C577 C579 1.400 . S
C577 C580 1.386 . S
C577 H589 0.930 . S
N578 C571 1.377 . S
N578 C579 1.321 . S
N578 Eu581 2.609 . S
C579 C577 1.400 . S
C579 N578 1.321 . S
C579 H586 0.930 . S
C580 C575 1.395 . S
C580 C577 1.386 . S
C580 H599 0.930 . S
Eu581 N578 2.609 . S
Eu581 N582 2.657 . S
Eu581 O615 2.380 . S
Eu581 O616 2.432 . S
Eu581 O620 2.558 . S
Eu581 O621 2.612 . S
Eu581 O623 2.339 . S
Eu581 O624 2.563 . S
Eu581 O625 2.419 . S
Eu581 C645 2.848 . S
N582 C574 1.362 . S
N582 Eu581 2.657 . S
N582 C583 1.334 . S
C583 N582 1.334 . S
C583 C585 1.413 . S
C583 H590 0.929 . S
C584 C572 1.392 . S
C584 C585 1.367 . S
C584 H592 0.930 . S
C585 C583 1.413 . S
C585 C584 1.367 . S
C585 H587 0.930 . S
H586 C579 0.930 . S
H587 C585 0.930 . S
H588 C576 0.930 . S
H589 C577 0.930 . S
H590 C583 0.929 . S
H591 C605 0.930 . S
H592 C584 0.930 . S
H593 C611 0.930 . S
H594 C602 0.929 . S
H595 C609 0.930 . S
H596 C573 0.931 . S
H597 C603 0.930 . S
H598 C636 0.930 . S
H599 C580 0.930 . S
H600 C635 0.931 . S
N601 Eu570 2.657 . S
N601 C602 1.334 . S
N601 C606 1.362 . S
C602 H594 0.929 . S
C602 N601 1.334 . S
C602 C605 1.413 . S
C603 H597 0.930 . S
C603 C604 1.392 . S
C603 C605 1.367 . S
C604 C603 1.392 . S
C604 C606 1.420 . S
C604 C636 1.423 . S
C605 H591 0.930 . S
C605 C602 1.413 . S
C605 C603 1.367 . S
C606 N601 1.362 . S
C606 C604 1.420 . S
C606 C610 1.429 . S
H607 C612 0.930 . S
N608 Eu570 2.609 . S
N608 C610 1.377 . S
N608 C611 1.321 . S
C609 H595 0.930 . S
C609 C611 1.400 . S
C609 C612 1.386 . S
C610 C606 1.429 . S
C610 N608 1.377 . S
C610 C613 1.411 . S
C611 H593 0.930 . S
C611 N608 1.321 . S
C611 C609 1.400 . S
C612 H607 0.930 . S
C612 C609 1.386 . S
C612 C613 1.395 . S
C613 C610 1.411 . S
C613 C612 1.395 . S
C613 C635 1.420 . S
O614 Eu570 2.558 . S
O614 C634 1.257 . S
O615 Eu570 2.612 . S
O615 Eu581 2.380 . S
O615 C626 1.276 . S
O616 Eu581 2.432 . S
O616 C633 1.264 . S
O617 Eu570 2.339 . S
O617 C633 1.254 . S
O618 Eu570 2.563 . S
O618 C626 1.235 . S
O619 Eu570 2.419 . S
O619 C634 1.249 . S
O620 Eu581 2.558 . S
O620 C645 1.257 . S
O621 Eu570 2.380 . S
O621 Eu581 2.612 . S
O621 C637 1.276 . S
O622 Eu570 2.432 . S
O622 C644 1.264 . S
O623 Eu581 2.339 . S
O623 C644 1.254 . S
O624 Eu581 2.563 . S
O624 C637 1.235 . S
O625 Eu581 2.419 . S
O625 C645 1.249 . S
C626 O615 1.276 . S
C626 O618 1.235 . S
C627 C629 1.393 . S
C627 C631 1.395 . S
C627 C634 1.492 . S
C628 C629 1.392 . S
C628 C630 1.386 . S
C629 C627 1.393 . S
C629 C628 1.392 . S
C629 H646 0.930 . S
C630 C628 1.386 . S
C630 C632 1.395 . S
C630 H647 0.930 . S
C631 C627 1.395 . S
C631 C632 1.379 . S
C631 H648 0.930 . S
C632 C630 1.395 . S
C632 C631 1.379 . S
C632 H649 0.930 . S
C633 O616 1.264 . S
C633 O617 1.254 . S
C634 Eu570 2.848 . S
C634 O614 1.257 . S
C634 O619 1.249 . S
C634 C627 1.492 . S
C635 H600 0.931 . S
C635 C613 1.420 . S
C635 C636 1.351 . S
C636 H598 0.930 . S
C636 C604 1.423 . S
C636 C635 1.351 . S
C637 O621 1.276 . S
C637 O624 1.235 . S
C638 C639 1.393 . S
C638 C642 1.395 . S
C638 C645 1.492 . S
C639 C638 1.393 . S
C639 C640 1.392 . S
C639 H650 0.930 . S
C640 C639 1.392 . S
C640 C641 1.386 . S
C641 C640 1.386 . S
C641 C643 1.395 . S
C641 H651 0.930 . S
C642 C638 1.395 . S
C642 C643 1.379 . S
C642 H652 0.930 . S
C643 C641 1.395 . S
C643 C642 1.379 . S
C643 H653 0.930 . S
C644 O622 1.264 . S
C644 O623 1.254 . S
C645 Eu581 2.848 . S
C645 O620 1.257 . S
C645 O625 1.249 . S
C645 C638 1.492 . S
H646 C629 0.930 . S
H647 C630 0.930 . S
H648 C631 0.930 . S
H649 C632 0.930 . S
H650 C639 0.930 . S
H651 C641 0.930 . S
H652 C642 0.930 . S
H653 C643 0.930 . S
Eu654 N685 2.657 . S
Eu654 N692 2.609 . S
Eu654 O698 2.558 . S
Eu654 O699 2.612 . S
Eu654 O701 2.339 . S
Eu654 O702 2.563 . S
Eu654 O703 2.419 . S
Eu654 O705 2.380 . S
Eu654 O706 2.432 . S
Eu654 C718 2.848 . S
C655 C658 1.429 . S
C655 C659 1.411 . S
C655 N662 1.377 . S
C656 C658 1.420 . S
C656 C660 1.423 . S
C656 C668 1.392 . S
C657 C659 1.420 . S
C657 C660 1.351 . S
C657 H680 0.931 . S
C658 C655 1.429 . S
C658 C656 1.420 . S
C658 N666 1.362 . S
C659 C655 1.411 . S
C659 C657 1.420 . S
C659 C664 1.395 . S
C660 C656 1.423 . S
C660 C657 1.351 . S
C660 H672 0.930 . S
C661 C663 1.400 . S
C661 C664 1.386 . S
C661 H673 0.930 . S
N662 C655 1.377 . S
N662 C663 1.321 . S
N662 Eu665 2.609 . S
C663 C661 1.400 . S
C663 N662 1.321 . S
C663 H670 0.930 . S
C664 C659 1.395 . S
C664 C661 1.386 . S
C664 H683 0.930 . S
Eu665 N662 2.609 . S
Eu665 N666 2.657 . S
Eu665 O699 2.380 . S
Eu665 O700 2.432 . S
Eu665 O704 2.558 . S
Eu665 O705 2.612 . S
Eu665 O707 2.339 . S
Eu665 O708 2.563 . S
Eu665 O709 2.419 . S
Eu665 C729 2.848 . S
N666 C658 1.362 . S
N666 Eu665 2.657 . S
N666 C667 1.334 . S
C667 N666 1.334 . S
C667 C669 1.413 . S
C667 H674 0.929 . S
C668 C656 1.392 . S
C668 C669 1.367 . S
C668 H676 0.930 . S
C669 C667 1.413 . S
C669 C668 1.367 . S
C669 H671 0.930 . S
H670 C663 0.930 . S
H671 C669 0.930 . S
H672 C660 0.930 . S
H673 C661 0.930 . S
H674 C667 0.929 . S
H675 C689 0.930 . S
H676 C668 0.930 . S
H677 C695 0.930 . S
H678 C686 0.929 . S
H679 C693 0.930 . S
H680 C657 0.931 . S
H681 C687 0.930 . S
H682 C720 0.930 . S
H683 C664 0.930 . S
H684 C719 0.931 . S
N685 Eu654 2.657 . S
N685 C686 1.334 . S
N685 C690 1.362 . S
C686 H678 0.929 . S
C686 N685 1.334 . S
C686 C689 1.413 . S
C687 H681 0.930 . S
C687 C688 1.392 . S
C687 C689 1.367 . S
C688 C687 1.392 . S
C688 C690 1.420 . S
C688 C720 1.423 . S
C689 H675 0.930 . S
C689 C686 1.413 . S
C689 C687 1.367 . S
C690 N685 1.362 . S
C690 C688 1.420 . S
C690 C694 1.429 . S
H691 C696 0.930 . S
N692 Eu654 2.609 . S
N692 C694 1.377 . S
N692 C695 1.321 . S
C693 H679 0.930 . S
C693 C695 1.400 . S
C693 C696 1.386 . S
C694 C690 1.429 . S
C694 N692 1.377 . S
C694 C697 1.411 . S
C695 H677 0.930 . S
C695 N692 1.321 . S
C695 C693 1.400 . S
C696 H691 0.930 . S
C696 C693 1.386 . S
C696 C697 1.395 . S
C697 C694 1.411 . S
C697 C696 1.395 . S
C697 C719 1.420 . S
O698 Eu654 2.558 . S
O698 C718 1.257 . S
O699 Eu654 2.612 . S
O699 Eu665 2.380 . S
O699 C710 1.276 . S
O700 Eu665 2.432 . S
O700 C717 1.264 . S
O701 Eu654 2.339 . S
O701 C717 1.254 . S
O702 Eu654 2.563 . S
O702 C710 1.235 . S
O703 Eu654 2.419 . S
O703 C718 1.249 . S
O704 Eu665 2.558 . S
O704 C729 1.257 . S
O705 Eu654 2.380 . S
O705 Eu665 2.612 . S
O705 C721 1.276 . S
O706 Eu654 2.432 . S
O706 C728 1.264 . S
O707 Eu665 2.339 . S
O707 C728 1.254 . S
O708 Eu665 2.563 . S
O708 C721 1.235 . S
O709 Eu665 2.419 . S
O709 C729 1.249 . S
C710 O699 1.276 . S
C710 O702 1.235 . S
C711 C713 1.393 . S
C711 C715 1.395 . S
C711 C718 1.492 . S
C712 C713 1.392 . S
C712 C714 1.386 . S
C713 C711 1.393 . S
C713 C712 1.392 . S
C713 H730 0.930 . S
C714 C712 1.386 . S
C714 C716 1.395 . S
C714 H731 0.930 . S
C715 C711 1.395 . S
C715 C716 1.379 . S
C715 H732 0.930 . S
C716 C714 1.395 . S
C716 C715 1.379 . S
C716 H733 0.930 . S
C717 O700 1.264 . S
C717 O701 1.254 . S
C718 Eu654 2.848 . S
C718 O698 1.257 . S
C718 O703 1.249 . S
C718 C711 1.492 . S
C719 H684 0.931 . S
C719 C697 1.420 . S
C719 C720 1.351 . S
C720 H682 0.930 . S
C720 C688 1.423 . S
C720 C719 1.351 . S
C721 O705 1.276 . S
C721 O708 1.235 . S
C722 C723 1.393 . S
C722 C726 1.395 . S
C722 C729 1.492 . S
C723 C722 1.393 . S
C723 C724 1.392 . S
C723 H734 0.930 . S
C724 C723 1.392 . S
C724 C725 1.386 . S
C725 C724 1.386 . S
C725 C727 1.395 . S
C725 H735 0.930 . S
C726 C722 1.395 . S
C726 C727 1.379 . S
C726 H736 0.930 . S
C727 C725 1.395 . S
C727 C726 1.379 . S
C727 H737 0.930 . S
C728 O706 1.264 . S
C728 O707 1.254 . S
C729 Eu665 2.848 . S
C729 O704 1.257 . S
C729 O709 1.249 . S
C729 C722 1.492 . S
H730 C713 0.930 . S
H731 C714 0.930 . S
H732 C715 0.930 . S
H733 C716 0.930 . S
H734 C723 0.930 . S
H735 C725 0.930 . S
H736 C726 0.930 . S
H737 C727 0.930 . S
Eu738 N769 2.657 . S
Eu738 N776 2.609 . S
Eu738 O782 2.558 . S
Eu738 O783 2.612 . S
Eu738 O785 2.339 . S
Eu738 O786 2.563 . S
Eu738 O787 2.419 . S
Eu738 O789 2.380 . S
Eu738 O790 2.432 . S
Eu738 C802 2.848 . S
C739 C742 1.429 . S
C739 C743 1.411 . S
C739 N746 1.377 . S
C740 C742 1.420 . S
C740 C744 1.423 . S
C740 C752 1.392 . S
C741 C743 1.420 . S
C741 C744 1.351 . S
C741 H764 0.931 . S
C742 C739 1.429 . S
C742 C740 1.420 . S
C742 N750 1.362 . S
C743 C739 1.411 . S
C743 C741 1.420 . S
C743 C748 1.395 . S
C744 C740 1.423 . S
C744 C741 1.351 . S
C744 H756 0.930 . S
C745 C747 1.400 . S
C745 C748 1.386 . S
C745 H757 0.930 . S
N746 C739 1.377 . S
N746 C747 1.321 . S
N746 Eu749 2.609 . S
C747 C745 1.400 . S
C747 N746 1.321 . S
C747 H754 0.930 . S
C748 C743 1.395 . S
C748 C745 1.386 . S
C748 H767 0.930 . S
Eu749 N746 2.609 . S
Eu749 N750 2.657 . S
Eu749 O783 2.380 . S
Eu749 O784 2.432 . S
Eu749 O788 2.558 . S
Eu749 O789 2.612 . S
Eu749 O791 2.339 . S
Eu749 O792 2.563 . S
Eu749 O793 2.419 . S
Eu749 C813 2.848 . S
N750 C742 1.362 . S
N750 Eu749 2.657 . S
N750 C751 1.334 . S
C751 N750 1.334 . S
C751 C753 1.413 . S
C751 H758 0.929 . S
C752 C740 1.392 . S
C752 C753 1.367 . S
C752 H760 0.930 . S
C753 C751 1.413 . S
C753 C752 1.367 . S
C753 H755 0.930 . S
H754 C747 0.930 . S
H755 C753 0.930 . S
H756 C744 0.930 . S
H757 C745 0.930 . S
H758 C751 0.929 . S
H759 C773 0.930 . S
H760 C752 0.930 . S
H761 C779 0.930 . S
H762 C770 0.929 . S
H763 C777 0.930 . S
H764 C741 0.931 . S
H765 C771 0.930 . S
H766 C804 0.930 . S
H767 C748 0.930 . S
H768 C803 0.931 . S
N769 Eu738 2.657 . S
N769 C770 1.334 . S
N769 C774 1.362 . S
C770 H762 0.929 . S
C770 N769 1.334 . S
C770 C773 1.413 . S
C771 H765 0.930 . S
C771 C772 1.392 . S
C771 C773 1.367 . S
C772 C771 1.392 . S
C772 C774 1.420 . S
C772 C804 1.423 . S
C773 H759 0.930 . S
C773 C770 1.413 . S
C773 C771 1.367 . S
C774 N769 1.362 . S
C774 C772 1.420 . S
C774 C778 1.429 . S
H775 C780 0.930 . S
N776 Eu738 2.609 . S
N776 C778 1.377 . S
N776 C779 1.321 . S
C777 H763 0.930 . S
C777 C779 1.400 . S
C777 C780 1.386 . S
C778 C774 1.429 . S
C778 N776 1.377 . S
C778 C781 1.411 . S
C779 H761 0.930 . S
C779 N776 1.321 . S
C779 C777 1.400 . S
C780 H775 0.930 . S
C780 C777 1.386 . S
C780 C781 1.395 . S
C781 C778 1.411 . S
C781 C780 1.395 . S
C781 C803 1.420 . S
O782 Eu738 2.558 . S
O782 C802 1.257 . S
O783 Eu738 2.612 . S
O783 Eu749 2.380 . S
O783 C794 1.276 . S
O784 Eu749 2.432 . S
O784 C801 1.264 . S
O785 Eu738 2.339 . S
O785 C801 1.254 . S
O786 Eu738 2.563 . S
O786 C794 1.235 . S
O787 Eu738 2.419 . S
O787 C802 1.249 . S
O788 Eu749 2.558 . S
O788 C813 1.257 . S
O789 Eu738 2.380 . S
O789 Eu749 2.612 . S
O789 C805 1.276 . S
O790 Eu738 2.432 . S
O790 C812 1.264 . S
O791 Eu749 2.339 . S
O791 C812 1.254 . S
O792 Eu749 2.563 . S
O792 C805 1.235 . S
O793 Eu749 2.419 . S
O793 C813 1.249 . S
C794 O783 1.276 . S
C794 O786 1.235 . S
C795 C797 1.393 . S
C795 C799 1.395 . S
C795 C802 1.492 . S
C796 C797 1.392 . S
C796 C798 1.386 . S
C797 C795 1.393 . S
C797 C796 1.392 . S
C797 H814 0.930 . S
C798 C796 1.386 . S
C798 C800 1.395 . S
C798 H815 0.930 . S
C799 C795 1.395 . S
C799 C800 1.379 . S
C799 H816 0.930 . S
C800 C798 1.395 . S
C800 C799 1.379 . S
C800 H817 0.930 . S
C801 O784 1.264 . S
C801 O785 1.254 . S
C802 Eu738 2.848 . S
C802 O782 1.257 . S
C802 O787 1.249 . S
C802 C795 1.492 . S
C803 H768 0.931 . S
C803 C781 1.420 . S
C803 C804 1.351 . S
C804 H766 0.930 . S
C804 C772 1.423 . S
C804 C803 1.351 . S
C805 O789 1.276 . S
C805 O792 1.235 . S
C806 C807 1.393 . S
C806 C810 1.395 . S
C806 C813 1.492 . S
C807 C806 1.393 . S
C807 C808 1.392 . S
C807 H818 0.930 . S
C808 C807 1.392 . S
C808 C809 1.386 . S
C809 C808 1.386 . S
C809 C811 1.395 . S
C809 H819 0.930 . S
C810 C806 1.395 . S
C810 C811 1.379 . S
C810 H820 0.930 . S
C811 C809 1.395 . S
C811 C810 1.379 . S
C811 H821 0.930 . S
C812 O790 1.264 . S
C812 O791 1.254 . S
C813 Eu749 2.848 . S
C813 O788 1.257 . S
C813 O793 1.249 . S
C813 C806 1.492 . S
H814 C797 0.930 . S
H815 C798 0.930 . S
H816 C799 0.930 . S
H817 C800 0.930 . S
H818 C807 0.930 . S
H819 C809 0.930 . S
H820 C810 0.930 . S
H821 C811 0.930 . S
Eu822 N853 2.657 . S
Eu822 N860 2.609 . S
Eu822 O866 2.558 . S
Eu822 O867 2.612 . S
Eu822 O869 2.339 . S
Eu822 O870 2.563 . S
Eu822 O871 2.419 . S
Eu822 O873 2.380 . S
Eu822 O874 2.432 . S
Eu822 C886 2.848 . S
C823 C826 1.429 . S
C823 C827 1.411 . S
C823 N830 1.377 . S
C824 C826 1.420 . S
C824 C828 1.423 . S
C824 C836 1.392 . S
C825 C827 1.420 . S
C825 C828 1.351 . S
C825 H848 0.931 . S
C826 C823 1.429 . S
C826 C824 1.420 . S
C826 N834 1.362 . S
C827 C823 1.411 . S
C827 C825 1.420 . S
C827 C832 1.395 . S
C828 C824 1.423 . S
C828 C825 1.351 . S
C828 H840 0.930 . S
C829 C831 1.400 . S
C829 C832 1.386 . S
C829 H841 0.930 . S
N830 C823 1.377 . S
N830 C831 1.321 . S
N830 Eu833 2.609 . S
C831 C829 1.400 . S
C831 N830 1.321 . S
C831 H838 0.930 . S
C832 C827 1.395 . S
C832 C829 1.386 . S
C832 H851 0.930 . S
Eu833 N830 2.609 . S
Eu833 N834 2.657 . S
Eu833 O867 2.380 . S
Eu833 O868 2.432 . S
Eu833 O872 2.558 . S
Eu833 O873 2.612 . S
Eu833 O875 2.339 . S
Eu833 O876 2.563 . S
Eu833 O877 2.419 . S
Eu833 C897 2.848 . S
N834 C826 1.362 . S
N834 Eu833 2.657 . S
N834 C835 1.334 . S
C835 N834 1.334 . S
C835 C837 1.413 . S
C835 H842 0.929 . S
C836 C824 1.392 . S
C836 C837 1.367 . S
C836 H844 0.930 . S
C837 C835 1.413 . S
C837 C836 1.367 . S
C837 H839 0.930 . S
H838 C831 0.930 . S
H839 C837 0.930 . S
H840 C828 0.930 . S
H841 C829 0.930 . S
H842 C835 0.929 . S
H843 C857 0.930 . S
H844 C836 0.930 . S
H845 C863 0.930 . S
H846 C854 0.929 . S
H847 C861 0.930 . S
H848 C825 0.931 . S
H849 C855 0.930 . S
H850 C888 0.930 . S
H851 C832 0.930 . S
H852 C887 0.931 . S
N853 Eu822 2.657 . S
N853 C854 1.334 . S
N853 C858 1.362 . S
C854 H846 0.929 . S
C854 N853 1.334 . S
C854 C857 1.413 . S
C855 H849 0.930 . S
C855 C856 1.392 . S
C855 C857 1.367 . S
C856 C855 1.392 . S
C856 C858 1.420 . S
C856 C888 1.423 . S
C857 H843 0.930 . S
C857 C854 1.413 . S
C857 C855 1.367 . S
C858 N853 1.362 . S
C858 C856 1.420 . S
C858 C862 1.429 . S
H859 C864 0.930 . S
N860 Eu822 2.609 . S
N860 C862 1.377 . S
N860 C863 1.321 . S
C861 H847 0.930 . S
C861 C863 1.400 . S
C861 C864 1.386 . S
C862 C858 1.429 . S
C862 N860 1.377 . S
C862 C865 1.411 . S
C863 H845 0.930 . S
C863 N860 1.321 . S
C863 C861 1.400 . S
C864 H859 0.930 . S
C864 C861 1.386 . S
C864 C865 1.395 . S
C865 C862 1.411 . S
C865 C864 1.395 . S
C865 C887 1.420 . S
O866 Eu822 2.558 . S
O866 C886 1.257 . S
O867 Eu822 2.612 . S
O867 Eu833 2.380 . S
O867 C878 1.276 . S
O868 Eu833 2.432 . S
O868 C885 1.264 . S
O869 Eu822 2.339 . S
O869 C885 1.254 . S
O870 Eu822 2.563 . S
O870 C878 1.235 . S
O871 Eu822 2.419 . S
O871 C886 1.249 . S
O872 Eu833 2.558 . S
O872 C897 1.257 . S
O873 Eu822 2.380 . S
O873 Eu833 2.612 . S
O873 C889 1.276 . S
O874 Eu822 2.432 . S
O874 C896 1.264 . S
O875 Eu833 2.339 . S
O875 C896 1.254 . S
O876 Eu833 2.563 . S
O876 C889 1.235 . S
O877 Eu833 2.419 . S
O877 C897 1.249 . S
C878 O867 1.276 . S
C878 O870 1.235 . S
C879 C881 1.393 . S
C879 C883 1.395 . S
C879 C886 1.492 . S
C880 C881 1.392 . S
C880 C882 1.386 . S
C881 C879 1.393 . S
C881 C880 1.392 . S
C881 H898 0.930 . S
C882 C880 1.386 . S
C882 C884 1.395 . S
C882 H899 0.930 . S
C883 C879 1.395 . S
C883 C884 1.379 . S
C883 H900 0.930 . S
C884 C882 1.395 . S
C884 C883 1.379 . S
C884 H901 0.930 . S
C885 O868 1.264 . S
C885 O869 1.254 . S
C886 Eu822 2.848 . S
C886 O866 1.257 . S
C886 O871 1.249 . S
C886 C879 1.492 . S
C887 H852 0.931 . S
C887 C865 1.420 . S
C887 C888 1.351 . S
C888 H850 0.930 . S
C888 C856 1.423 . S
C888 C887 1.351 . S
C889 O873 1.276 . S
C889 O876 1.235 . S
C890 C891 1.393 . S
C890 C894 1.395 . S
C890 C897 1.492 . S
C891 C890 1.393 . S
C891 C892 1.392 . S
C891 H902 0.930 . S
C892 C891 1.392 . S
C892 C893 1.386 . S
C893 C892 1.386 . S
C893 C895 1.395 . S
C893 H903 0.930 . S
C894 C890 1.395 . S
C894 C895 1.379 . S
C894 H904 0.930 . S
C895 C893 1.395 . S
C895 C894 1.379 . S
C895 H905 0.930 . S
C896 O874 1.264 . S
C896 O875 1.254 . S
C897 Eu833 2.848 . S
C897 O872 1.257 . S
C897 O877 1.249 . S
C897 C890 1.492 . S
H898 C881 0.930 . S
H899 C882 0.930 . S
H900 C883 0.930 . S
H901 C884 0.930 . S
H902 C891 0.930 . S
H903 C893 0.930 . S
H904 C894 0.930 . S
H905 C895 0.930 . S
Eu906 N937 2.657 . S
Eu906 N944 2.609 . S
Eu906 O950 2.558 . S
Eu906 O951 2.612 . S
Eu906 O953 2.339 . S
Eu906 O954 2.563 . S
Eu906 O955 2.419 . S
Eu906 O957 2.380 . S
Eu906 O958 2.432 . S
Eu906 C970 2.848 . S
C907 C910 1.429 . S
C907 C911 1.411 . S
C907 N914 1.377 . S
C908 C910 1.420 . S
C908 C912 1.423 . S
C908 C920 1.392 . S
C909 C911 1.420 . S
C909 C912 1.351 . S
C909 H932 0.931 . S
C910 C907 1.429 . S
C910 C908 1.420 . S
C910 N918 1.362 . S
C911 C907 1.411 . S
C911 C909 1.420 . S
C911 C916 1.395 . S
C912 C908 1.423 . S
C912 C909 1.351 . S
C912 H924 0.930 . S
C913 C915 1.400 . S
C913 C916 1.386 . S
C913 H925 0.930 . S
N914 C907 1.377 . S
N914 C915 1.321 . S
N914 Eu917 2.609 . S
C915 C913 1.400 . S
C915 N914 1.321 . S
C915 H922 0.930 . S
C916 C911 1.395 . S
C916 C913 1.386 . S
C916 H935 0.930 . S
Eu917 N914 2.609 . S
Eu917 N918 2.657 . S
Eu917 O951 2.380 . S
Eu917 O952 2.432 . S
Eu917 O956 2.558 . S
Eu917 O957 2.612 . S
Eu917 O959 2.339 . S
Eu917 O960 2.563 . S
Eu917 O961 2.419 . S
Eu917 C981 2.848 . S
N918 C910 1.362 . S
N918 Eu917 2.657 . S
N918 C919 1.334 . S
C919 N918 1.334 . S
C919 C921 1.413 . S
C919 H926 0.929 . S
C920 C908 1.392 . S
C920 C921 1.367 . S
C920 H928 0.930 . S
C921 C919 1.413 . S
C921 C920 1.367 . S
C921 H923 0.930 . S
H922 C915 0.930 . S
H923 C921 0.930 . S
H924 C912 0.930 . S
H925 C913 0.930 . S
H926 C919 0.929 . S
H927 C941 0.930 . S
H928 C920 0.930 . S
H929 C947 0.930 . S
H930 C938 0.929 . S
H931 C945 0.930 . S
H932 C909 0.931 . S
H933 C939 0.930 1_455 S
H934 C972 0.930 1_455 S
H935 C916 0.930 . S
H936 C971 0.931 . S
N937 Eu906 2.657 . S
N937 C938 1.334 . S
N937 C942 1.362 . S
C938 H930 0.929 . S
C938 N937 1.334 . S
C938 C941 1.413 . S
C939 H933 0.930 1_655 S
C939 C940 1.392 . S
C939 C941 1.367 . S
C940 C939 1.392 . S
C940 C942 1.420 . S
C940 C972 1.423 . S
C941 H927 0.930 . S
C941 C938 1.413 . S
C941 C939 1.367 . S
C942 N937 1.362 . S
C942 C940 1.420 . S
C942 C946 1.429 . S
H943 C948 0.930 . S
N944 Eu906 2.609 . S
N944 C946 1.377 . S
N944 C947 1.321 . S
C945 H931 0.930 . S
C945 C947 1.400 . S
C945 C948 1.386 . S
C946 C942 1.429 . S
C946 N944 1.377 . S
C946 C949 1.411 . S
C947 H929 0.930 . S
C947 N944 1.321 . S
C947 C945 1.400 . S
C948 H943 0.930 . S
C948 C945 1.386 . S
C948 C949 1.395 . S
C949 C946 1.411 . S
C949 C948 1.395 . S
C949 C971 1.420 . S
O950 Eu906 2.558 . S
O950 C970 1.257 . S
O951 Eu906 2.612 . S
O951 Eu917 2.380 . S
O951 C962 1.276 . S
O952 Eu917 2.432 . S
O952 C969 1.264 . S
O953 Eu906 2.339 . S
O953 C969 1.254 . S
O954 Eu906 2.563 . S
O954 C962 1.235 . S
O955 Eu906 2.419 . S
O955 C970 1.249 . S
O956 Eu917 2.558 . S
O956 C981 1.257 . S
O957 Eu906 2.380 . S
O957 Eu917 2.612 . S
O957 C973 1.276 . S
O958 Eu906 2.432 . S
O958 C980 1.264 . S
O959 Eu917 2.339 . S
O959 C980 1.254 . S
O960 Eu917 2.563 . S
O960 C973 1.235 . S
O961 Eu917 2.419 . S
O961 C981 1.249 . S
C962 O951 1.276 . S
C962 O954 1.235 . S
C963 C965 1.393 . S
C963 C967 1.395 . S
C963 C970 1.492 . S
C964 C965 1.392 . S
C964 C966 1.386 . S
C965 C963 1.393 . S
C965 C964 1.392 . S
C965 H982 0.930 . S
C966 C964 1.386 . S
C966 C968 1.395 . S
C966 H983 0.930 . S
C967 C963 1.395 . S
C967 C968 1.379 . S
C967 H984 0.930 . S
C968 C966 1.395 . S
C968 C967 1.379 . S
C968 H985 0.930 . S
C969 O952 1.264 . S
C969 O953 1.254 . S
C970 Eu906 2.848 . S
C970 O950 1.257 . S
C970 O955 1.249 . S
C970 C963 1.492 . S
C971 H936 0.931 . S
C971 C949 1.420 . S
C971 C972 1.351 . S
C972 H934 0.930 1_655 S
C972 C940 1.423 . S
C972 C971 1.351 . S
C973 O957 1.276 . S
C973 O960 1.235 . S
C974 C975 1.393 . S
C974 C978 1.395 . S
C974 C981 1.492 . S
C975 C974 1.393 . S
C975 C976 1.392 . S
C975 H986 0.930 . S
C976 C975 1.392 . S
C976 C977 1.386 . S
C977 C976 1.386 . S
C977 C979 1.395 . S
C977 H987 0.930 . S
C978 C974 1.395 . S
C978 C979 1.379 . S
C978 H988 0.930 . S
C979 C977 1.395 . S
C979 C978 1.379 . S
C979 H989 0.930 . S
C980 O958 1.264 . S
C980 O959 1.254 . S
C981 Eu917 2.848 . S
C981 O956 1.257 . S
C981 O961 1.249 . S
C981 C974 1.492 . S
H982 C965 0.930 . S
H983 C966 0.930 . S
H984 C967 0.930 . S
H985 C968 0.930 . S
H986 C975 0.930 . S
H987 C977 0.930 . S
H988 C978 0.930 . S
H989 C979 0.930 . S
C990 C991 1.391 . S
C990 C992 1.394 . S
C990 H1006 0.931 . S
C991 C990 1.391 . S
C991 C995 1.376 . S
C992 C990 1.394 . S
C992 C993 1.369 . S
C992 C996 1.531 . S
C993 C992 1.369 . S
C993 C994 1.410 . S
C993 C1001 1.503 . S
C994 C993 1.410 . S
C994 C995 1.392 . S
C994 C997 1.511 . S
C995 C991 1.376 . S
C995 C994 1.392 . S
C995 H1007 0.929 . S
C996 C992 1.531 . S
C996 H1008 0.960 . S
C996 H1009 0.962 . S
C996 H1010 0.960 . S
C997 C994 1.511 . S
C997 H1011 0.961 . S
C997 H1012 0.961 . S
C997 H1013 0.961 . S
C998 C999 1.370 . S
C998 C1000 1.363 . S
C998 H1014 0.931 . S
C999 C998 1.370 . S
C999 C1003 1.408 . S
C1000 C998 1.363 . S
C1000 C1001 1.370 . S
C1000 C1004 1.524 . S
C1001 C993 1.503 . S
C1001 C1000 1.370 . S
C1001 C1002 1.403 . S
C1002 C1001 1.403 . S
C1002 C1003 1.404 . S
C1002 C1005 1.539 . S
C1003 C999 1.408 . S
C1003 C1002 1.404 . S
C1003 H1015 0.930 . S
C1004 C1000 1.524 . S
C1004 H1016 0.956 . S
C1004 H1017 0.961 . S
C1004 H1018 0.961 . S
C1005 C1002 1.539 . S
C1005 H1019 0.958 1_554 S
C1005 H1020 0.961 . S
C1005 H1021 0.960 . S
H1006 C990 0.931 . S
H1007 C995 0.929 . S
H1008 C996 0.960 . S
H1009 C996 0.962 . S
H1010 C996 0.960 . S
H1011 C997 0.961 . S
H1012 C997 0.961 . S
H1013 C997 0.961 . S
H1014 C998 0.931 . S
H1015 C1003 0.930 . S
H1016 C1004 0.956 . S
H1017 C1004 0.961 . S
H1018 C1004 0.961 . S
H1019 C1005 0.958 1_556 S
H1020 C1005 0.961 . S
H1021 C1005 0.960 . S
C1022 C1023 1.391 . S
C1022 C1024 1.394 . S
C1022 H1038 0.931 . S
C1023 C1022 1.391 . S
C1023 C1027 1.376 . S
C1024 C1022 1.394 . S
C1024 C1025 1.369 . S
C1024 C1028 1.531 . S
C1025 C1024 1.369 . S
C1025 C1026 1.410 . S
C1025 C1033 1.503 . S
C1026 C1025 1.410 . S
C1026 C1027 1.392 . S
C1026 C1029 1.511 . S
C1027 C1023 1.376 . S
C1027 C1026 1.392 . S
C1027 H1039 0.929 . S
C1028 C1024 1.531 . S
C1028 H1040 0.960 . S
C1028 H1041 0.962 . S
C1028 H1042 0.960 . S
C1029 C1026 1.511 . S
C1029 H1043 0.961 . S
C1029 H1044 0.961 . S
C1029 H1045 0.961 . S
C1030 C1031 1.370 . S
C1030 C1032 1.363 . S
C1030 H1046 0.931 . S
C1031 C1030 1.370 . S
C1031 C1035 1.408 . S
C1032 C1030 1.363 . S
C1032 C1033 1.370 . S
C1032 C1036 1.524 . S
C1033 C1025 1.503 . S
C1033 C1032 1.370 . S
C1033 C1034 1.403 . S
C1034 C1033 1.403 . S
C1034 C1035 1.404 . S
C1034 C1037 1.539 . S
C1035 C1031 1.408 . S
C1035 C1034 1.404 . S
C1035 H1047 0.930 . S
C1036 C1032 1.524 . S
C1036 H1048 0.956 . S
C1036 H1049 0.961 . S
C1036 H1050 0.961 . S
C1037 C1034 1.539 . S
C1037 H1051 0.958 . S
C1037 H1052 0.961 1_554 S
C1037 H1053 0.960 . S
H1038 C1022 0.931 . S
H1039 C1027 0.929 . S
H1040 C1028 0.960 . S
H1041 C1028 0.962 . S
H1042 C1028 0.960 . S
H1043 C1029 0.961 . S
H1044 C1029 0.961 . S
H1045 C1029 0.961 . S
H1046 C1030 0.931 . S
H1047 C1035 0.930 . S
H1048 C1036 0.956 . S
H1049 C1036 0.961 . S
H1050 C1036 0.961 . S
H1051 C1037 0.958 . S
H1052 C1037 0.961 1_556 S
H1053 C1037 0.960 . S
C1054 C1055 1.391 . S
C1054 C1056 1.394 . S
C1054 H1070 0.931 . S
C1055 C1054 1.391 . S
C1055 C1059 1.376 . S
C1056 C1054 1.394 . S
C1056 C1057 1.369 . S
C1056 C1060 1.531 . S
C1057 C1056 1.369 . S
C1057 C1058 1.410 . S
C1057 C1065 1.503 . S
C1058 C1057 1.410 . S
C1058 C1059 1.392 . S
C1058 C1061 1.511 . S
C1059 C1055 1.376 . S
C1059 C1058 1.392 . S
C1059 H1071 0.929 . S
C1060 C1056 1.531 . S
C1060 H1072 0.960 . S
C1060 H1073 0.962 . S
C1060 H1074 0.960 1_554 S
C1061 C1058 1.511 . S
C1061 H1075 0.961 . S
C1061 H1076 0.961 . S
C1061 H1077 0.961 . S
C1062 C1063 1.370 . S
C1062 C1064 1.363 . S
C1062 H1078 0.931 . S
C1063 C1062 1.370 . S
C1063 C1067 1.408 . S
C1064 C1062 1.363 . S
C1064 C1065 1.370 . S
C1064 C1068 1.524 . S
C1065 C1057 1.503 . S
C1065 C1064 1.370 . S
C1065 C1066 1.403 . S
C1066 C1065 1.403 . S
C1066 C1067 1.404 . S
C1066 C1069 1.539 . S
C1067 C1063 1.408 . S
C1067 C1066 1.404 . S
C1067 H1079 0.930 . S
C1068 C1064 1.524 . S
C1068 H1080 0.956 . S
C1068 H1081 0.961 . S
C1068 H1082 0.961 . S
C1069 C1066 1.539 . S
C1069 H1083 0.958 . S
C1069 H1084 0.961 . S
C1069 H1085 0.960 . S
H1070 C1054 0.931 . S
H1071 C1059 0.929 . S
H1072 C1060 0.960 . S
H1073 C1060 0.962 . S
H1074 C1060 0.960 1_556 S
H1075 C1061 0.961 . S
H1076 C1061 0.961 . S
H1077 C1061 0.961 . S
H1078 C1062 0.931 . S
H1079 C1067 0.930 . S
H1080 C1068 0.956 . S
H1081 C1068 0.961 . S
H1082 C1068 0.961 . S
H1083 C1069 0.958 . S
H1084 C1069 0.961 . S
H1085 C1069 0.960 . S
C1086 C1087 1.391 . S
C1086 C1088 1.394 . S
C1086 H1102 0.931 . S
C1087 C1086 1.391 . S
C1087 C1091 1.376 . S
C1088 C1086 1.394 . S
C1088 C1089 1.369 . S
C1088 C1092 1.531 . S
C1089 C1088 1.369 . S
C1089 C1090 1.410 . S
C1089 C1097 1.503 . S
C1090 C1089 1.410 . S
C1090 C1091 1.392 . S
C1090 C1093 1.511 . S
C1091 C1087 1.376 . S
C1091 C1090 1.392 . S
C1091 H1103 0.929 . S
C1092 C1088 1.531 . S
C1092 H1104 0.960 . S
C1092 H1105 0.962 . S
C1092 H1106 0.960 . S
C1093 C1090 1.511 . S
C1093 H1107 0.961 1_556 S
C1093 H1108 0.961 1_556 S
C1093 H1109 0.961 . S
C1094 C1095 1.370 1_554 S
C1094 C1096 1.363 1_554 S
C1094 H1110 0.931 . S
C1095 C1094 1.370 1_556 S
C1095 C1099 1.408 . S
C1096 C1094 1.363 1_556 S
C1096 C1097 1.370 . S
C1096 C1100 1.524 1_556 S
C1097 C1089 1.503 . S
C1097 C1096 1.370 . S
C1097 C1098 1.403 . S
C1098 C1097 1.403 . S
C1098 C1099 1.404 . S
C1098 C1101 1.539 . S
C1099 C1095 1.408 . S
C1099 C1098 1.404 . S
C1099 H1111 0.930 . S
C1100 C1096 1.524 1_554 S
C1100 H1112 0.956 1_554 S
C1100 H1113 0.961 . S
C1100 H1114 0.961 . S
C1101 C1098 1.539 . S
C1101 H1115 0.958 . S
C1101 H1116 0.961 . S
C1101 H1117 0.960 . S
H1102 C1086 0.931 . S
H1103 C1091 0.929 . S
H1104 C1092 0.960 . S
H1105 C1092 0.962 . S
H1106 C1092 0.960 . S
H1107 C1093 0.961 1_554 S
H1108 C1093 0.961 1_554 S
H1109 C1093 0.961 . S
H1110 C1094 0.931 . S
H1111 C1099 0.930 . S
H1112 C1100 0.956 1_556 S
H1113 C1100 0.961 . S
H1114 C1100 0.961 . S
H1115 C1101 0.958 . S
H1116 C1101 0.961 . S
H1117 C1101 0.960 . S
C1118 C1119 1.391 . S
C1118 C1120 1.394 . S
C1118 H1134 0.931 . S
C1119 C1118 1.391 . S
C1119 C1123 1.376 . S
C1120 C1118 1.394 . S
C1120 C1121 1.369 . S
C1120 C1124 1.531 . S
C1121 C1120 1.369 . S
C1121 C1122 1.410 . S
C1121 C1129 1.503 . S
C1122 C1121 1.410 . S
C1122 C1123 1.392 . S
C1122 C1125 1.511 1_556 S
C1123 C1119 1.376 . S
C1123 C1122 1.392 . S
C1123 H1135 0.929 . S
C1124 C1120 1.531 . S
C1124 H1136 0.960 . S
C1124 H1137 0.962 . S
C1124 H1138 0.960 . S
C1125 C1122 1.511 1_554 S
C1125 H1139 0.961 . S
C1125 H1140 0.961 . S
C1125 H1141 0.961 . S
C1126 C1127 1.370 . S
C1126 C1128 1.363 . S
C1126 H1142 0.931 . S
C1127 C1126 1.370 . S
C1127 C1131 1.408 1_556 S
C1128 C1126 1.363 . S
C1128 C1129 1.370 . S
C1128 C1132 1.524 . S
C1129 C1121 1.503 . S
C1129 C1128 1.370 . S
C1129 C1130 1.403 . S
C1130 C1129 1.403 . S
C1130 C1131 1.404 1_556 S
C1130 C1133 1.539 1_556 S
C1131 C1127 1.408 1_554 S
C1131 C1130 1.404 1_554 S
C1131 H1143 0.930 . S
C1132 C1128 1.524 . S
C1132 H1144 0.956 . S
C1132 H1145 0.961 . S
C1132 H1146 0.961 . S
C1133 C1130 1.539 1_554 S
C1133 H1147 0.958 1_554 S
C1133 H1148 0.961 . S
C1133 H1149 0.960 . S
H1134 C1118 0.931 . S
H1135 C1123 0.929 . S
H1136 C1124 0.960 . S
H1137 C1124 0.962 . S
H1138 C1124 0.960 . S
H1139 C1125 0.961 . S
H1140 C1125 0.961 . S
H1141 C1125 0.961 . S
H1142 C1126 0.931 . S
H1143 C1131 0.930 . S
H1144 C1132 0.956 . S
H1145 C1132 0.961 . S
H1146 C1132 0.961 . S
H1147 C1133 0.958 1_556 S
H1148 C1133 0.961 . S
H1149 C1133 0.960 . S
C1150 C1151 1.391 . S
C1150 C1152 1.394 . S
C1150 H1166 0.931 . S
C1151 C1150 1.391 . S
C1151 C1155 1.376 . S
C1152 C1150 1.394 . S
C1152 C1153 1.369 . S
C1152 C1156 1.531 1_556 S
C1153 C1152 1.369 . S
C1153 C1154 1.410 . S
C1153 C1161 1.503 . S
C1154 C1153 1.410 . S
C1154 C1155 1.392 . S
C1154 C1157 1.511 . S
C1155 C1151 1.376 . S
C1155 C1154 1.392 . S
C1155 H1167 0.929 . S
C1156 C1152 1.531 1_554 S
C1156 H1168 0.960 . S
C1156 H1169 0.962 1_554 S
C1156 H1170 0.960 . S
C1157 C1154 1.511 . S
C1157 H1171 0.961 . S
C1157 H1172 0.961 . S
C1157 H1173 0.961 . S
C1158 C1159 1.370 . S
C1158 C1160 1.363 . S
C1158 H1174 0.931 . S
C1159 C1158 1.370 . S
C1159 C1163 1.408 1_556 S
C1160 C1158 1.363 . S
C1160 C1161 1.370 . S
C1160 C1164 1.524 . S
C1161 C1153 1.503 . S
C1161 C1160 1.370 . S
C1161 C1162 1.403 1_556 S
C1162 C1161 1.403 1_554 S
C1162 C1163 1.404 . S
C1162 C1165 1.539 . S
C1163 C1159 1.408 1_554 S
C1163 C1162 1.404 . S
C1163 H1175 0.930 . S
C1164 C1160 1.524 . S
C1164 H1176 0.956 . S
C1164 H1177 0.961 . S
C1164 H1178 0.961 . S
C1165 C1162 1.539 . S
C1165 H1179 0.958 . S
C1165 H1180 0.961 . S
C1165 H1181 0.960 . S
H1166 C1150 0.931 . S
H1167 C1155 0.929 . S
H1168 C1156 0.960 . S
H1169 C1156 0.962 1_556 S
H1170 C1156 0.960 . S
H1171 C1157 0.961 . S
H1172 C1157 0.961 . S
H1173 C1157 0.961 . S
H1174 C1158 0.931 . S
H1175 C1163 0.930 . S
H1176 C1164 0.956 . S
H1177 C1164 0.961 . S
H1178 C1164 0.961 . S
H1179 C1165 0.958 . S
H1180 C1165 0.961 . S
H1181 C1165 0.960 . S
C1182 C1183 1.391 . S
C1182 C1184 1.394 . S
C1182 H1198 0.931 . S
C1183 C1182 1.391 . S
C1183 C1187 1.376 . S
C1184 C1182 1.394 . S
C1184 C1185 1.369 . S
C1184 C1188 1.531 . S
C1185 C1184 1.369 . S
C1185 C1186 1.410 . S
C1185 C1193 1.503 . S
C1186 C1185 1.410 . S
C1186 C1187 1.392 . S
C1186 C1189 1.511 . S
C1187 C1183 1.376 . S
C1187 C1186 1.392 . S
C1187 H1199 0.929 . S
C1188 C1184 1.531 . S
C1188 H1200 0.960 . S
C1188 H1201 0.962 . S
C1188 H1202 0.960 . S
C1189 C1186 1.511 . S
C1189 H1203 0.961 . S
C1189 H1204 0.961 . S
C1189 H1205 0.961 . S
C1190 C1191 1.370 . S
C1190 C1192 1.363 . S
C1190 H1206 0.931 . S
C1191 C1190 1.370 . S
C1191 C1195 1.408 1_556 S
C1192 C1190 1.363 . S
C1192 C1193 1.370 . S
C1192 C1196 1.524 . S
C1193 C1185 1.503 . S
C1193 C1192 1.370 . S
C1193 C1194 1.403 1_556 S
C1194 C1193 1.403 1_554 S
C1194 C1195 1.404 . S
C1194 C1197 1.539 . S
C1195 C1191 1.408 1_554 S
C1195 C1194 1.404 . S
C1195 H1207 0.930 . S
C1196 C1192 1.524 . S
C1196 H1208 0.956 . S
C1196 H1209 0.961 . S
C1196 H1210 0.961 . S
C1197 C1194 1.539 . S
C1197 H1211 0.958 . S
C1197 H1212 0.961 . S
C1197 H1213 0.960 . S
H1198 C1182 0.931 . S
H1199 C1187 0.929 . S
H1200 C1188 0.960 . S
H1201 C1188 0.962 . S
H1202 C1188 0.960 . S
H1203 C1189 0.961 . S
H1204 C1189 0.961 . S
H1205 C1189 0.961 . S
H1206 C1190 0.931 . S
H1207 C1195 0.930 . S
H1208 C1196 0.956 . S
H1209 C1196 0.961 . S
H1210 C1196 0.961 . S
H1211 C1197 0.958 . S
H1212 C1197 0.961 . S
H1213 C1197 0.960 . S
C1214 C1215 1.391 . S
C1214 C1216 1.394 . S
C1214 H1230 0.931 . S
C1215 C1214 1.391 . S
C1215 C1219 1.376 . S
C1216 C1214 1.394 . S
C1216 C1217 1.369 . S
C1216 C1220 1.531 1_556 S
C1217 C1216 1.369 . S
C1217 C1218 1.410 . S
C1217 C1225 1.503 . S
C1218 C1217 1.410 . S
C1218 C1219 1.392 . S
C1218 C1221 1.511 . S
C1219 C1215 1.376 . S
C1219 C1218 1.392 . S
C1219 H1231 0.929 . S
C1220 C1216 1.531 1_554 S
C1220 H1232 0.960 . S
C1220 H1233 0.962 . S
C1220 H1234 0.960 . S
C1221 C1218 1.511 . S
C1221 H1235 0.961 . S
C1221 H1236 0.961 . S
C1221 H1237 0.961 . S
C1222 C1223 1.370 . S
C1222 C1224 1.363 . S
C1222 H1238 0.931 . S
C1223 C1222 1.370 . S
C1223 C1227 1.408 . S
C1224 C1222 1.363 . S
C1224 C1225 1.370 . S
C1224 C1228 1.524 . S
C1225 C1217 1.503 . S
C1225 C1224 1.370 . S
C1225 C1226 1.403 . S
C1226 C1225 1.403 . S
C1226 C1227 1.404 . S
C1226 C1229 1.539 . S
C1227 C1223 1.408 . S
C1227 C1226 1.404 . S
C1227 H1239 0.930 . S
C1228 C1224 1.524 . S
C1228 H1240 0.956 . S
C1228 H1241 0.961 . S
C1228 H1242 0.961 . S
C1229 C1226 1.539 . S
C1229 H1243 0.989 . S
C1229 H1244 0.961 . S
C1229 H1245 0.960 . S
H1230 C1214 0.931 . S
H1231 C1219 0.929 . S
H1232 C1220 0.960 . S
H1233 C1220 0.962 . S
H1234 C1220 0.960 . S
H1235 C1221 0.961 . S
H1236 C1221 0.961 . S
H1237 C1221 0.961 . S
H1238 C1222 0.931 . S
H1239 C1227 0.930 . S
H1240 C1228 0.956 . S
H1241 C1228 0.961 . S
H1242 C1228 0.961 . S
H1243 C1229 0.989 . S
H1244 C1229 0.961 . S
H1245 C1229 0.960 . S
C1246 C1247 1.391 . S
C1246 C1248 1.394 . S
C1246 H1262 0.931 . S
C1247 C1246 1.391 . S
C1247 C1251 1.376 . S
C1248 C1246 1.394 . S
C1248 C1249 1.369 . S
C1248 C1252 1.531 . S
C1249 C1248 1.369 . S
C1249 C1250 1.410 . S
C1249 C1257 1.503 . S
C1250 C1249 1.410 . S
C1250 C1251 1.392 . S
C1250 C1253 1.511 1_556 S
C1251 C1247 1.376 . S
C1251 C1250 1.392 . S
C1251 H1263 0.929 . S
C1252 C1248 1.531 . S
C1252 H1264 0.960 . S
C1252 H1265 0.962 . S
C1252 H1266 0.960 . S
C1253 C1250 1.511 1_554 S
C1253 H1267 0.961 . S
C1253 H1268 0.961 . S
C1253 H1269 0.961 1_554 S
C1254 C1255 1.370 1_554 S
C1254 C1256 1.371 . S
C1254 H1270 0.931 . S
C1255 C1254 1.370 1_556 S
C1255 C1259 1.408 . S
C1256 C1254 1.371 . S
C1256 C1257 1.348 1_554 S
C1256 C1260 1.539 . S
C1257 C1249 1.503 . S
C1257 C1256 1.348 1_556 S
C1257 C1258 1.403 . S
C1258 C1257 1.403 . S
C1258 C1259 1.404 . S
C1258 C1261 1.539 . S
C1259 C1255 1.408 . S
C1259 C1258 1.404 . S
C1259 H1271 0.930 . S
C1260 C1256 1.539 . S
C1260 H1272 0.956 . S
C1260 H1273 0.961 . S
C1260 H1274 0.961 . S
C1261 C1258 1.539 . S
C1261 H1275 0.958 . S
C1261 H1276 0.961 . S
C1261 H1277 0.960 . S
H1262 C1246 0.931 . S
H1263 C1251 0.929 . S
H1264 C1252 0.960 . S
H1265 C1252 0.962 . S
H1266 C1252 0.960 . S
H1267 C1253 0.961 . S
H1268 C1253 0.961 . S
H1269 C1253 0.961 1_556 S
H1270 C1254 0.931 . S
H1271 C1259 0.930 . S
H1272 C1260 0.956 . S
H1273 C1260 0.961 . S
H1274 C1260 0.961 . S
H1275 C1261 0.958 . S
H1276 C1261 0.961 . S
H1277 C1261 0.960 . S
C1278 C1279 1.391 . S
C1278 C1280 1.394 . S
C1278 H1294 0.931 . S
C1279 C1278 1.391 . S
C1279 C1283 1.376 . S
C1280 C1278 1.394 . S
C1280 C1281 1.369 . S
C1280 C1284 1.531 . S
C1281 C1280 1.369 . S
C1281 C1282 1.410 . S
C1281 C1289 1.503 . S
C1282 C1281 1.410 . S
C1282 C1283 1.392 . S
C1282 C1285 1.511 . S
C1283 C1279 1.376 . S
C1283 C1282 1.392 . S
C1283 H1295 0.929 . S
C1284 C1280 1.531 . S
C1284 H1296 0.960 . S
C1284 H1297 0.962 . S
C1284 H1298 0.960 . S
C1285 C1282 1.511 . S
C1285 H1299 0.961 . S
C1285 H1300 0.961 . S
C1285 H1301 0.916 1_554 S
C1286 C1287 1.370 . S
C1286 C1288 1.363 . S
C1286 H1302 0.931 . S
C1287 C1286 1.370 . S
C1287 C1291 1.408 . S
C1288 C1286 1.363 . S
C1288 C1289 1.370 . S
C1288 C1292 1.524 . S
C1289 C1281 1.503 . S
C1289 C1288 1.370 . S
C1289 C1290 1.403 . S
C1290 C1289 1.403 . S
C1290 C1291 1.404 . S
C1290 C1293 1.539 . S
C1291 C1287 1.408 . S
C1291 C1290 1.404 . S
C1291 H1303 0.930 . S
C1292 C1288 1.524 . S
C1292 H1304 0.956 . S
C1292 H1305 0.961 . S
C1292 H1306 0.961 . S
C1293 C1290 1.539 . S
C1293 H1307 0.958 . S
C1293 H1308 0.961 1_554 S
C1293 H1309 0.960 . S
H1294 C1278 0.931 . S
H1295 C1283 0.929 . S
H1296 C1284 0.960 . S
H1297 C1284 0.962 . S
H1298 C1284 0.960 . S
H1299 C1285 0.961 . S
H1300 C1285 0.961 . S
H1301 C1285 0.916 1_556 S
H1302 C1286 0.931 . S
H1303 C1291 0.930 . S
H1304 C1292 0.956 . S
H1305 C1292 0.961 . S
H1306 C1292 0.961 . S
H1307 C1293 0.958 . S
H1308 C1293 0.961 1_556 S
H1309 C1293 0.960 . S
C1310 C1311 1.391 . S
C1310 C1312 1.394 . S
C1310 H1326 0.931 . S
C1311 C1310 1.391 . S
C1311 C1315 1.376 . S
C1312 C1310 1.394 . S
C1312 C1313 1.369 . S
C1312 C1316 1.531 . S
C1313 C1312 1.369 . S
C1313 C1314 1.410 . S
C1313 C1321 1.503 . S
C1314 C1313 1.410 . S
C1314 C1315 1.392 . S
C1314 C1317 1.511 . S
C1315 C1311 1.376 . S
C1315 C1314 1.392 . S
C1315 H1327 0.929 . S
C1316 C1312 1.531 . S
C1316 H1328 0.960 . S
C1316 H1329 0.962 . S
C1316 H1330 0.960 . S
C1317 C1314 1.511 . S
C1317 H1331 0.961 . S
C1317 H1332 0.961 . S
C1317 H1333 0.961 . S
C1318 C1319 1.370 . S
C1318 C1320 1.363 . S
C1318 H1334 0.931 . S
C1319 C1318 1.370 . S
C1319 C1323 1.408 . S
C1320 C1318 1.363 . S
C1320 C1321 1.370 . S
C1320 C1324 1.524 . S
C1321 C1313 1.503 . S
C1321 C1320 1.370 . S
C1321 C1322 1.403 . S
C1322 C1321 1.403 . S
C1322 C1323 1.404 . S
C1322 C1325 1.539 . S
C1323 C1319 1.408 . S
C1323 C1322 1.404 . S
C1323 H1335 0.930 . S
C1324 C1320 1.524 . S
C1324 H1336 0.956 . S
C1324 H1337 0.961 . S
C1324 H1338 0.961 . S
C1325 C1322 1.539 . S
C1325 H1339 0.958 . S
C1325 H1340 0.961 . S
C1325 H1341 0.960 . S
H1326 C1310 0.931 . S
H1327 C1315 0.929 . S
H1328 C1316 0.960 . S
H1329 C1316 0.962 . S
H1330 C1316 0.960 . S
H1331 C1317 0.961 . S
H1332 C1317 0.961 . S
H1333 C1317 0.961 . S
H1334 C1318 0.931 . S
H1335 C1323 0.930 . S
H1336 C1324 0.956 . S
H1337 C1324 0.961 . S
H1338 C1324 0.961 . S
H1339 C1325 0.958 . S
H1340 C1325 0.961 . S
H1341 C1325 0.960 . S
C1342 C1343 1.391 . S
C1342 C1344 1.394 . S
C1342 H1358 0.931 . S
C1343 C1342 1.391 . S
C1343 C1347 1.376 . S
C1344 C1342 1.394 . S
C1344 C1345 1.369 . S
C1344 C1348 1.531 . S
C1345 C1344 1.369 . S
C1345 C1346 1.410 . S
C1345 C1353 1.503 . S
C1346 C1345 1.410 . S
C1346 C1347 1.392 . S
C1346 C1349 1.511 . S
C1347 C1343 1.376 . S
C1347 C1346 1.392 . S
C1347 H1359 0.929 . S
C1348 C1344 1.531 . S
C1348 H1360 0.981 . S
C1348 H1361 0.962 . S
C1348 H1362 0.960 1_554 S
C1349 C1346 1.511 . S
C1349 H1363 0.961 . S
C1349 H1364 0.961 . S
C1349 H1365 0.961 . S
C1350 C1351 1.370 . S
C1350 C1352 1.363 . S
C1350 H1366 0.931 . S
C1351 C1350 1.370 . S
C1351 C1355 1.408 . S
C1352 C1350 1.363 . S
C1352 C1353 1.370 . S
C1352 C1356 1.524 . S
C1353 C1345 1.503 . S
C1353 C1352 1.370 . S
C1353 C1354 1.403 . S
C1354 C1353 1.403 . S
C1354 C1355 1.404 . S
C1354 C1357 1.539 . S
C1355 C1351 1.408 . S
C1355 C1354 1.404 . S
C1355 H1367 0.930 . S
C1356 C1352 1.524 . S
C1356 H1368 0.956 . S
C1356 H1369 0.961 . S
C1356 H1370 0.961 . S
C1357 C1354 1.539 . S
C1357 H1371 0.958 1_554 S
C1357 H1372 0.961 . S
C1357 H1373 0.960 . S
H1358 C1342 0.931 . S
H1359 C1347 0.929 . S
H1360 C1348 0.981 . S
H1361 C1348 0.962 . S
H1362 C1348 0.960 1_556 S
H1363 C1349 0.961 . S
H1364 C1349 0.961 . S
H1365 C1349 0.961 . S
H1366 C1350 0.931 . S
H1367 C1355 0.930 . S
H1368 C1356 0.956 . S
H1369 C1356 0.961 . S
H1370 C1356 0.961 . S
H1371 C1357 0.958 1_556 S
H1372 C1357 0.961 . S
H1373 C1357 0.960 . S
C1374 C1375 1.391 . S
C1374 C1376 1.394 . S
C1374 H1390 0.931 . S
C1375 C1374 1.391 . S
C1375 C1379 1.376 . S
C1376 C1374 1.394 . S
C1376 C1377 1.369 . S
C1376 C1380 1.531 . S
C1377 C1376 1.369 . S
C1377 C1378 1.410 . S
C1377 C1385 1.503 1_655 S
C1378 C1377 1.410 . S
C1378 C1379 1.392 . S
C1378 C1381 1.511 1_655 S
C1379 C1375 1.376 . S
C1379 C1378 1.392 . S
C1379 H1391 0.929 . S
C1380 C1376 1.531 . S
C1380 H1392 0.960 1_655 S
C1380 H1393 0.962 . S
C1380 H1394 0.960 . S
C1381 C1378 1.511 1_455 S
C1381 H1395 0.961 1_455 S
C1381 H1396 0.961 . S
C1381 H1397 0.961 . S
C1382 C1383 1.370 . S
C1382 C1384 1.363 . S
C1382 H1398 0.931 . S
C1383 C1382 1.370 . S
C1383 C1387 1.408 . S
C1384 C1382 1.363 . S
C1384 C1385 1.370 . S
C1384 C1388 1.524 1_455 S
C1385 C1377 1.503 1_455 S
C1385 C1384 1.370 . S
C1385 C1386 1.403 . S
C1386 C1385 1.403 . S
C1386 C1387 1.404 . S
C1386 C1389 1.539 . S
C1387 C1383 1.408 . S
C1387 C1386 1.404 . S
C1387 H1399 0.930 . S
C1388 C1384 1.524 1_655 S
C1388 H1400 0.956 . S
C1388 H1401 0.961 . S
C1388 H1402 0.961 . S
C1389 C1386 1.539 . S
C1389 H1403 0.958 . S
C1389 H1404 0.961 . S
C1389 H1405 0.960 . S
H1390 C1374 0.931 . S
H1391 C1379 0.929 . S
H1392 C1380 0.960 1_455 S
H1393 C1380 0.962 . S
H1394 C1380 0.960 . S
H1395 C1381 0.961 1_655 S
H1396 C1381 0.961 . S
H1397 C1381 0.961 . S
H1398 C1382 0.931 . S
H1399 C1387 0.930 . S
H1400 C1388 0.956 . S
H1401 C1388 0.961 . S
H1402 C1388 0.961 . S
H1403 C1389 0.958 . S
H1404 C1389 0.961 . S
H1405 C1389 0.960 . S
C1406 C1407 1.391 . S
C1406 C1408 1.394 . S
C1406 H1422 0.931 . S
C1407 C1406 1.391 . S
C1407 C1411 1.376 . S
C1408 C1406 1.394 . S
C1408 C1409 1.369 . S
C1408 C1412 1.531 . S
C1409 C1408 1.369 . S
C1409 C1410 1.410 . S
C1409 C1417 1.503 . S
C1410 C1409 1.410 . S
C1410 C1411 1.392 . S
C1410 C1413 1.511 . S
C1411 C1407 1.376 . S
C1411 C1410 1.392 . S
C1411 H1423 0.929 . S
C1412 C1408 1.531 . S
C1412 H1424 0.960 . S
C1412 H1425 0.962 . S
C1412 H1426 0.960 . S
C1413 C1410 1.511 . S
C1413 H1427 0.961 . S
C1413 H1428 0.961 . S
C1413 H1429 0.961 . S
C1414 C1415 1.370 . S
C1414 C1416 1.363 . S
C1414 H1430 0.931 . S
C1415 C1414 1.370 . S
C1415 C1419 1.408 . S
C1416 C1414 1.363 . S
C1416 C1417 1.370 . S
C1416 C1420 1.524 . S
C1417 C1409 1.503 . S
C1417 C1416 1.370 . S
C1417 C1418 1.403 . S
C1418 C1417 1.403 . S
C1418 C1419 1.404 . S
C1418 C1421 1.539 . S
C1419 C1415 1.408 . S
C1419 C1418 1.404 . S
C1419 H1431 0.930 . S
C1420 C1416 1.524 . S
C1420 H1432 0.956 . S
C1420 H1433 0.961 . S
C1420 H1434 0.961 . S
C1421 C1418 1.539 . S
C1421 H1435 0.958 . S
C1421 H1436 0.961 . S
C1421 H1437 0.960 . S
H1422 C1406 0.931 . S
H1423 C1411 0.929 . S
H1424 C1412 0.960 . S
H1425 C1412 0.962 . S
H1426 C1412 0.960 . S
H1427 C1413 0.961 . S
H1428 C1413 0.961 . S
H1429 C1413 0.961 . S
H1430 C1414 0.931 . S
H1431 C1419 0.930 . S
H1432 C1420 0.956 . S
H1433 C1420 0.961 . S
H1434 C1420 0.961 . S
H1435 C1421 0.958 . S
H1436 C1421 0.961 . S
H1437 C1421 0.960 . S
C1438 C1439 1.391 . S
C1438 C1440 1.394 . S
C1438 H1454 0.931 . S
C1439 C1438 1.391 . S
C1439 C1443 1.376 . S
C1440 C1438 1.394 . S
C1440 C1441 1.369 . S
C1440 C1444 1.531 . S
C1441 C1440 1.369 . S
C1441 C1442 1.410 . S
C1441 C1449 1.503 1_545 S
C1442 C1441 1.410 . S
C1442 C1443 1.392 . S
C1442 C1445 1.511 1_545 S
C1443 C1439 1.376 . S
C1443 C1442 1.392 . S
C1443 H1455 0.929 . S
C1444 C1440 1.531 . S
C1444 H1456 0.960 . S
C1444 H1457 0.962 . S
C1444 H1458 0.960 . S
C1445 C1442 1.511 1_565 S
C1445 H1459 0.961 1_565 S
C1445 H1460 0.961 . S
C1445 H1461 0.961 . S
C1446 C1447 1.370 . S
C1446 C1448 1.363 . S
C1446 H1462 0.931 . S
C1447 C1446 1.370 . S
C1447 C1451 1.408 . S
C1448 C1446 1.363 . S
C1448 C1449 1.370 . S
C1448 C1452 1.524 1_565 S
C1449 C1441 1.503 1_565 S
C1449 C1448 1.370 . S
C1449 C1450 1.403 . S
C1450 C1449 1.403 . S
C1450 C1451 1.404 . S
C1450 C1453 1.539 . S
C1451 C1447 1.408 . S
C1451 C1450 1.404 . S
C1451 H1463 0.930 . S
C1452 C1448 1.524 1_545 S
C1452 H1464 0.956 . S
C1452 H1465 0.961 . S
C1452 H1466 0.961 . S
C1453 C1450 1.539 . S
C1453 H1467 0.958 . S
C1453 H1468 0.961 . S
C1453 H1469 0.960 . S
H1454 C1438 0.931 . S
H1455 C1443 0.929 . S
H1456 C1444 0.960 . S
H1457 C1444 0.962 . S
H1458 C1444 0.960 . S
H1459 C1445 0.961 1_545 S
H1460 C1445 0.961 . S
H1461 C1445 0.961 . S
H1462 C1446 0.931 . S
H1463 C1451 0.930 . S
H1464 C1452 0.956 . S
H1465 C1452 0.961 . S
H1466 C1452 0.961 . S
H1467 C1453 0.958 . S
H1468 C1453 0.961 . S
H1469 C1453 0.960 . S
C1470 C1471 1.391 . S
C1470 C1472 1.394 . S
C1470 H1486 0.931 . S
C1471 C1470 1.391 . S
C1471 C1475 1.376 . S
C1472 C1470 1.394 . S
C1472 C1473 1.369 . S
C1472 C1476 1.531 . S
C1473 C1472 1.369 . S
C1473 C1474 1.410 . S
C1473 C1481 1.503 . S
C1474 C1473 1.410 . S
C1474 C1475 1.392 . S
C1474 C1477 1.511 . S
C1475 C1471 1.376 . S
C1475 C1474 1.392 . S
C1475 H1487 0.929 . S
C1476 C1472 1.531 . S
C1476 H1488 0.960 . S
C1476 H1489 0.962 . S
C1476 H1490 0.960 . S
C1477 C1474 1.511 . S
C1477 H1491 0.961 . S
C1477 H1492 0.961 . S
C1477 H1493 0.961 . S
C1478 C1479 1.370 . S
C1478 C1480 1.363 . S
C1478 H1494 0.931 . S
C1479 C1478 1.370 . S
C1479 C1483 1.408 . S
C1480 C1478 1.363 . S
C1480 C1481 1.370 . S
C1480 C1484 1.524 . S
C1481 C1473 1.503 . S
C1481 C1480 1.370 . S
C1481 C1482 1.403 . S
C1482 C1481 1.403 . S
C1482 C1483 1.404 . S
C1482 C1485 1.539 . S
C1483 C1479 1.408 . S
C1483 C1482 1.404 . S
C1483 H1495 0.930 . S
C1484 C1480 1.524 . S
C1484 H1496 0.956 . S
C1484 H1497 0.961 . S
C1484 H1498 0.961 . S
C1485 C1482 1.539 . S
C1485 H1499 0.958 . S
C1485 H1500 0.961 . S
C1485 H1501 0.960 . S
H1486 C1470 0.931 . S
H1487 C1475 0.929 . S
H1488 C1476 0.960 . S
H1489 C1476 0.962 . S
H1490 C1476 0.960 . S
H1491 C1477 0.961 . S
H1492 C1477 0.961 . S
H1493 C1477 0.961 . S
H1494 C1478 0.931 . S
H1495 C1483 0.930 . S
H1496 C1484 0.956 . S
H1497 C1484 0.961 . S
H1498 C1484 0.961 . S
H1499 C1485 0.958 . S
H1500 C1485 0.961 . S
H1501 C1485 0.960 . S
C1502 C1503 1.391 . S
C1502 C1504 1.394 . S
C1502 H1518 0.931 . S
C1503 C1502 1.391 . S
C1503 C1507 1.376 . S
C1504 C1502 1.394 . S
C1504 C1505 1.369 . S
C1504 C1508 1.531 . S
C1505 C1504 1.369 . S
C1505 C1506 1.410 . S
C1505 C1513 1.503 . S
C1506 C1505 1.410 . S
C1506 C1507 1.392 . S
C1506 C1509 1.511 . S
C1507 C1503 1.376 . S
C1507 C1506 1.392 . S
C1507 H1519 0.929 . S
C1508 C1504 1.531 . S
C1508 H1520 0.960 . S
C1508 H1521 0.962 . S
C1508 H1522 0.960 . S
C1509 C1506 1.511 . S
C1509 H1523 0.961 . S
C1509 H1524 0.961 . S
C1509 H1525 0.961 . S
C1510 C1511 1.370 . S
C1510 C1512 1.363 . S
C1510 H1526 0.931 . S
C1511 C1510 1.370 . S
C1511 C1515 1.408 . S
C1512 C1510 1.363 . S
C1512 C1513 1.370 . S
C1512 C1516 1.524 . S
C1513 C1505 1.503 . S
C1513 C1512 1.370 . S
C1513 C1514 1.403 . S
C1514 C1513 1.403 . S
C1514 C1515 1.404 . S
C1514 C1517 1.539 . S
C1515 C1511 1.408 . S
C1515 C1514 1.404 . S
C1515 H1527 0.930 . S
C1516 C1512 1.524 . S
C1516 H1528 0.956 . S
C1516 H1529 0.961 . S
C1516 H1530 0.961 . S
C1517 C1514 1.539 . S
C1517 H1531 0.958 . S
C1517 H1532 0.961 . S
C1517 H1533 0.960 . S
H1518 C1502 0.931 . S
H1519 C1507 0.929 . S
H1520 C1508 0.960 . S
H1521 C1508 0.962 . S
H1522 C1508 0.960 . S
H1523 C1509 0.961 . S
H1524 C1509 0.961 . S
H1525 C1509 0.961 . S
H1526 C1510 0.931 . S
H1527 C1515 0.930 . S
H1528 C1516 0.956 . S
H1529 C1516 0.961 . S
H1530 C1516 0.961 . S
H1531 C1517 0.958 . S
H1532 C1517 0.961 . S
H1533 C1517 0.960 . S
C1534 C1535 1.391 . S
C1534 C1536 1.394 . S
C1534 H1550 0.931 . S
C1535 C1534 1.391 . S
C1535 C1539 1.376 . S
C1536 C1534 1.394 . S
C1536 C1537 1.369 . S
C1536 C1540 1.531 . S
C1537 C1536 1.369 . S
C1537 C1538 1.410 . S
C1537 C1545 1.503 . S
C1538 C1537 1.410 . S
C1538 C1539 1.392 . S
C1538 C1541 1.511 . S
C1539 C1535 1.376 . S
C1539 C1538 1.392 . S
C1539 H1551 0.929 . S
C1540 C1536 1.531 . S
C1540 H1552 0.960 . S
C1540 H1553 0.962 . S
C1540 H1554 0.960 . S
C1541 C1538 1.511 . S
C1541 H1555 0.961 . S
C1541 H1556 0.961 . S
C1541 H1557 0.961 . S
C1542 C1543 1.370 . S
C1542 C1544 1.363 . S
C1542 H1558 0.931 . S
C1543 C1542 1.370 . S
C1543 C1547 1.408 . S
C1544 C1542 1.363 . S
C1544 C1545 1.370 . S
C1544 C1548 1.524 . S
C1545 C1537 1.503 . S
C1545 C1544 1.370 . S
C1545 C1546 1.403 . S
C1546 C1545 1.403 . S
C1546 C1547 1.404 . S
C1546 C1549 1.539 . S
C1547 C1543 1.408 . S
C1547 C1546 1.404 . S
C1547 H1559 0.930 . S
C1548 C1544 1.524 . S
C1548 H1560 0.956 . S
C1548 H1561 0.961 . S
C1548 H1562 0.961 . S
C1549 C1546 1.539 . S
C1549 H1563 0.958 . S
C1549 H1564 0.961 . S
C1549 H1565 0.960 . S
H1550 C1534 0.931 . S
H1551 C1539 0.929 . S
H1552 C1540 0.960 . S
H1553 C1540 0.962 . S
H1554 C1540 0.960 . S
H1555 C1541 0.961 . S
H1556 C1541 0.961 . S
H1557 C1541 0.961 . S
H1558 C1542 0.931 . S
H1559 C1547 0.930 . S
H1560 C1548 0.956 . S
H1561 C1548 0.961 . S
H1562 C1548 0.961 . S
H1563 C1549 0.958 . S
H1564 C1549 0.961 . S
H1565 C1549 0.960 . S
C1566 C1567 1.391 . S
C1566 C1568 1.394 . S
C1566 H1582 0.931 . S
C1567 C1566 1.391 . S
C1567 C1571 1.376 . S
C1568 C1566 1.394 . S
C1568 C1569 1.369 . S
C1568 C1572 1.531 . S
C1569 C1568 1.369 . S
C1569 C1570 1.410 . S
C1569 C1577 1.503 . S
C1570 C1569 1.410 . S
C1570 C1571 1.392 . S
C1570 C1573 1.511 . S
C1571 C1567 1.376 . S
C1571 C1570 1.392 . S
C1571 H1583 0.929 . S
C1572 C1568 1.531 . S
C1572 H1584 0.960 . S
C1572 H1585 0.962 . S
C1572 H1586 0.960 . S
C1573 C1570 1.511 . S
C1573 H1587 0.961 . S
C1573 H1588 0.961 . S
C1573 H1589 0.961 . S
C1574 C1575 1.370 . S
C1574 C1576 1.363 . S
C1574 H1590 0.931 . S
C1575 C1574 1.370 . S
C1575 C1579 1.408 . S
C1576 C1574 1.363 . S
C1576 C1577 1.370 . S
C1576 C1580 1.524 . S
C1577 C1569 1.503 . S
C1577 C1576 1.370 . S
C1577 C1578 1.403 . S
C1578 C1577 1.403 . S
C1578 C1579 1.404 . S
C1578 C1581 1.539 . S
C1579 C1575 1.408 . S
C1579 C1578 1.404 . S
C1579 H1591 0.930 . S
C1580 C1576 1.524 . S
C1580 H1592 0.956 . S
C1580 H1593 0.961 . S
C1580 H1594 0.961 . S
C1581 C1578 1.539 . S
C1581 H1595 0.958 . S
C1581 H1596 0.961 . S
C1581 H1597 0.960 . S
H1582 C1566 0.931 . S
H1583 C1571 0.929 . S
H1584 C1572 0.960 . S
H1585 C1572 0.962 . S
H1586 C1572 0.960 . S
H1587 C1573 0.961 . S
H1588 C1573 0.961 . S
H1589 C1573 0.961 . S
H1590 C1574 0.931 . S
H1591 C1579 0.930 . S
H1592 C1580 0.956 . S
H1593 C1580 0.961 . S
H1594 C1580 0.961 . S
H1595 C1581 0.958 . S
H1596 C1581 0.961 . S
H1597 C1581 0.960 . S
C1598 C1599 1.391 . S
C1598 C1600 1.394 . S
C1598 H1614 0.931 . S
C1599 C1598 1.391 . S
C1599 C1603 1.376 . S
C1600 C1598 1.394 . S
C1600 C1601 1.369 . S
C1600 C1604 1.531 . S
C1601 C1600 1.369 . S
C1601 C1602 1.410 . S
C1601 C1609 1.503 . S
C1602 C1601 1.410 . S
C1602 C1603 1.392 . S
C1602 C1605 1.511 . S
C1603 C1599 1.376 . S
C1603 C1602 1.392 . S
C1603 H1615 0.929 . S
C1604 C1600 1.531 . S
C1604 H1616 0.960 . S
C1604 H1617 0.962 . S
C1604 H1618 0.960 . S
C1605 C1602 1.511 . S
C1605 H1619 0.961 . S
C1605 H1620 0.961 . S
C1605 H1621 0.961 . S
C1606 C1607 1.370 . S
C1606 C1608 1.363 . S
C1606 H1622 0.931 . S
C1607 C1606 1.370 . S
C1607 C1611 1.408 . S
C1608 C1606 1.363 . S
C1608 C1609 1.370 . S
C1608 C1612 1.524 . S
C1609 C1601 1.503 . S
C1609 C1608 1.370 . S
C1609 C1610 1.403 . S
C1610 C1609 1.403 . S
C1610 C1611 1.404 . S
C1610 C1613 1.539 . S
C1611 C1607 1.408 . S
C1611 C1610 1.404 . S
C1611 H1623 0.930 . S
C1612 C1608 1.524 . S
C1612 H1624 0.956 . S
C1612 H1625 0.961 . S
C1612 H1626 0.961 . S
C1613 C1610 1.539 . S
C1613 H1627 0.958 . S
C1613 H1628 0.961 . S
C1613 H1629 0.960 . S
H1614 C1598 0.931 . S
H1615 C1603 0.929 . S
H1616 C1604 0.960 . S
H1617 C1604 0.962 . S
H1618 C1604 0.960 . S
H1619 C1605 0.961 . S
H1620 C1605 0.961 . S
H1621 C1605 0.961 . S
H1622 C1606 0.931 . S
H1623 C1611 0.930 . S
H1624 C1612 0.956 . S
H1625 C1612 0.961 . S
H1626 C1612 0.961 . S
H1627 C1613 0.958 . S
H1628 C1613 0.961 . S
H1629 C1613 0.960 . S
C1630 C1631 1.391 . S
C1630 C1632 1.394 . S
C1630 H1646 0.931 . S
C1631 C1630 1.391 . S
C1631 C1635 1.376 . S
C1632 C1630 1.394 . S
C1632 C1633 1.369 . S
C1632 C1636 1.531 . S
C1633 C1632 1.369 . S
C1633 C1634 1.410 . S
C1633 C1641 1.503 . S
C1634 C1633 1.410 . S
C1634 C1635 1.392 . S
C1634 C1637 1.511 . S
C1635 C1631 1.376 . S
C1635 C1634 1.392 . S
C1635 H1647 0.929 . S
C1636 C1632 1.531 . S
C1636 H1648 0.960 . S
C1636 H1649 0.962 . S
C1636 H1650 0.960 . S
C1637 C1634 1.511 . S
C1637 H1651 0.961 . S
C1637 H1652 0.961 . S
C1637 H1653 0.961 . S
C1638 C1639 1.370 . S
C1638 C1640 1.363 . S
C1638 H1654 0.931 . S
C1639 C1638 1.370 . S
C1639 C1643 1.408 . S
C1640 C1638 1.363 . S
C1640 C1641 1.370 . S
C1640 C1644 1.524 . S
C1641 C1633 1.503 . S
C1641 C1640 1.370 . S
C1641 C1642 1.403 . S
C1642 C1641 1.403 . S
C1642 C1643 1.404 . S
C1642 C1645 1.539 . S
C1643 C1639 1.408 . S
C1643 C1642 1.404 . S
C1643 H1655 0.930 . S
C1644 C1640 1.524 . S
C1644 H1656 0.956 . S
C1644 H1657 0.961 . S
C1644 H1658 0.961 . S
C1645 C1642 1.539 . S
C1645 H1659 0.958 . S
C1645 H1660 0.961 . S
C1645 H1661 0.960 . S
H1646 C1630 0.931 . S
H1647 C1635 0.929 . S
H1648 C1636 0.960 . S
H1649 C1636 0.962 . S
H1650 C1636 0.960 . S
H1651 C1637 0.961 . S
H1652 C1637 0.961 . S
H1653 C1637 0.961 . S
H1654 C1638 0.931 . S
H1655 C1643 0.930 . S
H1656 C1644 0.956 . S
H1657 C1644 0.961 . S
H1658 C1644 0.961 . S
H1659 C1645 0.958 . S
H1660 C1645 0.961 . S
H1661 C1645 0.960 . S
C1662 C1663 1.391 . S
C1662 C1664 1.394 1_545 S
C1662 H1678 0.931 . S
C1663 C1662 1.391 . S
C1663 C1667 1.409 . S
C1664 C1662 1.394 1_565 S
C1664 C1665 1.369 . S
C1664 C1668 1.531 . S
C1665 C1664 1.369 . S
C1665 C1666 1.410 . S
C1665 C1673 1.503 . S
C1666 C1665 1.410 . S
C1666 C1667 1.366 1_565 S
C1666 C1669 1.511 . S
C1667 C1663 1.409 . S
C1667 C1666 1.366 1_545 S
C1667 H1679 0.922 . S
C1668 C1664 1.531 . S
C1668 H1680 0.960 . S
C1668 H1681 0.962 . S
C1668 H1682 0.960 . S
C1669 C1666 1.511 . S
C1669 H1683 0.961 . S
C1669 H1684 0.961 . S
C1669 H1685 0.961 . S
C1670 C1671 1.370 . S
C1670 C1672 1.363 . S
C1670 H1686 0.931 . S
C1671 C1670 1.370 . S
C1671 C1675 1.408 . S
C1672 C1670 1.363 . S
C1672 C1673 1.370 . S
C1672 C1676 1.524 . S
C1673 C1665 1.503 . S
C1673 C1672 1.370 . S
C1673 C1674 1.403 . S
C1674 C1673 1.403 . S
C1674 C1675 1.404 . S
C1674 C1677 1.539 . S
C1675 C1671 1.408 . S
C1675 C1674 1.404 . S
C1675 H1687 0.930 . S
C1676 C1672 1.524 . S
C1676 H1688 0.956 . S
C1676 H1689 0.961 . S
C1676 H1690 0.961 . S
C1677 C1674 1.539 . S
C1677 H1691 0.958 . S
C1677 H1692 0.961 . S
C1677 H1693 0.960 . S
H1678 C1662 0.931 . S
H1679 C1667 0.922 . S
H1680 C1668 0.960 . S
H1681 C1668 0.962 . S
H1682 C1668 0.960 . S
H1683 C1669 0.961 . S
H1684 C1669 0.961 . S
H1685 C1669 0.961 . S
H1686 C1670 0.931 . S
H1687 C1675 0.930 . S
H1688 C1676 0.956 . S
H1689 C1676 0.961 . S
H1690 C1676 0.961 . S
H1691 C1677 0.958 . S
H1692 C1677 0.961 . S
H1693 C1677 0.960 . S
C1694 C1695 1.391 . S
C1694 C1696 1.394 1_655 S
C1694 H1710 0.931 . S
C1695 C1694 1.391 . S
C1695 C1699 1.376 1_655 S
C1696 C1694 1.394 1_455 S
C1696 C1697 1.369 . S
C1696 C1700 1.531 . S
C1697 C1696 1.369 . S
C1697 C1698 1.410 . S
C1697 C1705 1.503 . S
C1698 C1697 1.410 . S
C1698 C1699 1.392 . S
C1698 C1701 1.511 . S
C1699 C1695 1.376 1_455 S
C1699 C1698 1.392 . S
C1699 H1711 0.929 . S
C1700 C1696 1.531 . S
C1700 H1712 0.960 . S
C1700 H1713 0.962 . S
C1700 H1714 0.960 . S
C1701 C1698 1.511 . S
C1701 H1715 0.961 . S
C1701 H1716 0.961 . S
C1701 H1717 0.961 . S
C1702 C1703 1.370 . S
C1702 C1704 1.363 . S
C1702 H1718 0.931 . S
C1703 C1702 1.370 . S
C1703 C1707 1.408 . S
C1704 C1702 1.363 . S
C1704 C1705 1.370 . S
C1704 C1708 1.524 . S
C1705 C1697 1.503 . S
C1705 C1704 1.370 . S
C1705 C1706 1.403 . S
C1706 C1705 1.403 . S
C1706 C1707 1.404 . S
C1706 C1709 1.539 . S
C1707 C1703 1.408 . S
C1707 C1706 1.404 . S
C1707 H1719 0.930 . S
C1708 C1704 1.524 . S
C1708 H1720 0.956 . S
C1708 H1721 0.961 . S
C1708 H1722 0.961 . S
C1709 C1706 1.539 . S
C1709 H1723 0.958 . S
C1709 H1724 0.961 . S
C1709 H1725 0.960 . S
H1710 C1694 0.931 . S
H1711 C1699 0.929 . S
H1712 C1700 0.960 . S
H1713 C1700 0.962 . S
H1714 C1700 0.960 . S
H1715 C1701 0.961 . S
H1716 C1701 0.961 . S
H1717 C1701 0.961 . S
H1718 C1702 0.931 . S
H1719 C1707 0.930 . S
H1720 C1708 0.956 . S
H1721 C1708 0.961 . S
H1722 C1708 0.961 . S
H1723 C1709 0.958 . S
H1724 C1709 0.961 . S
H1725 C1709 0.960 . S
C1726 C1727 1.391 . S
C1726 C1728 1.394 . S
C1726 H1742 0.931 . S
C1727 C1726 1.391 . S
C1727 C1731 1.376 . S
C1728 C1726 1.394 . S
C1728 C1729 1.369 . S
C1728 C1732 1.531 . S
C1729 C1728 1.369 . S
C1729 C1730 1.410 . S
C1729 C1737 1.503 . S
C1730 C1729 1.410 . S
C1730 C1731 1.392 . S
C1730 C1733 1.511 . S
C1731 C1727 1.376 . S
C1731 C1730 1.392 . S
C1731 H1743 0.929 . S
C1732 C1728 1.531 . S
C1732 H1744 0.960 . S
C1732 H1745 0.962 . S
C1732 H1746 0.960 . S
C1733 C1730 1.511 . S
C1733 H1747 0.961 . S
C1733 H1748 0.961 . S
C1733 H1749 0.961 . S
C1734 C1735 1.370 . S
C1734 C1736 1.363 . S
C1734 H1750 0.931 . S
C1735 C1734 1.370 . S
C1735 C1739 1.408 . S
C1736 C1734 1.363 . S
C1736 C1737 1.370 . S
C1736 C1740 1.524 . S
C1737 C1729 1.503 . S
C1737 C1736 1.370 . S
C1737 C1738 1.403 . S
C1738 C1737 1.403 . S
C1738 C1739 1.404 . S
C1738 C1741 1.539 . S
C1739 C1735 1.408 . S
C1739 C1738 1.404 . S
C1739 H1751 0.930 . S
C1740 C1736 1.524 . S
C1740 H1752 0.956 . S
C1740 H1753 0.961 . S
C1740 H1754 0.961 . S
C1741 C1738 1.539 . S
C1741 H1755 0.958 . S
C1741 H1756 0.961 . S
C1741 H1757 0.960 . S
H1742 C1726 0.931 . S
H1743 C1731 0.929 . S
H1744 C1732 0.960 . S
H1745 C1732 0.962 . S
H1746 C1732 0.960 . S
H1747 C1733 0.961 . S
H1748 C1733 0.961 . S
H1749 C1733 0.961 . S
H1750 C1734 0.931 . S
H1751 C1739 0.930 . S
H1752 C1740 0.956 . S
H1753 C1740 0.961 . S
H1754 C1740 0.961 . S
H1755 C1741 0.958 . S
H1756 C1741 0.961 . S
H1757 C1741 0.960 . S
C1758 C1759 1.391 . S
C1758 C1760 1.394 . S
C1758 H1774 0.931 . S
C1759 C1758 1.391 . S
C1759 C1763 1.376 . S
C1760 C1758 1.394 . S
C1760 C1761 1.369 . S
C1760 C1764 1.531 . S
C1761 C1760 1.369 . S
C1761 C1762 1.410 . S
C1761 C1769 1.503 . S
C1762 C1761 1.410 . S
C1762 C1763 1.392 . S
C1762 C1765 1.511 . S
C1763 C1759 1.376 . S
C1763 C1762 1.392 . S
C1763 H1775 0.929 . S
C1764 C1760 1.531 . S
C1764 H1776 0.960 . S
C1764 H1777 0.962 . S
C1764 H1778 0.960 . S
C1765 C1762 1.511 . S
C1765 H1779 0.961 . S
C1765 H1780 0.961 . S
C1765 H1781 0.961 . S
C1766 C1767 1.370 . S
C1766 C1768 1.363 . S
C1766 H1782 0.931 . S
C1767 C1766 1.370 . S
C1767 C1771 1.408 . S
C1768 C1766 1.363 . S
C1768 C1769 1.370 . S
C1768 C1772 1.524 . S
C1769 C1761 1.503 . S
C1769 C1768 1.370 . S
C1769 C1770 1.403 . S
C1770 C1769 1.403 . S
C1770 C1771 1.404 . S
C1770 C1773 1.539 . S
C1771 C1767 1.408 . S
C1771 C1770 1.404 . S
C1771 H1783 0.930 . S
C1772 C1768 1.524 . S
C1772 H1784 0.956 . S
C1772 H1785 0.961 . S
C1772 H1786 0.961 . S
C1773 C1770 1.539 . S
C1773 H1787 0.958 . S
C1773 H1788 0.961 . S
C1773 H1789 0.960 . S
H1774 C1758 0.931 . S
H1775 C1763 0.929 . S
H1776 C1764 0.960 . S
H1777 C1764 0.962 . S
H1778 C1764 0.960 . S
H1779 C1765 0.961 . S
H1780 C1765 0.961 . S
H1781 C1765 0.961 . S
H1782 C1766 0.931 . S
H1783 C1771 0.930 . S
H1784 C1772 0.956 . S
H1785 C1772 0.961 . S
H1786 C1772 0.961 . S
H1787 C1773 0.958 . S
H1788 C1773 0.961 . S
H1789 C1773 0.960 . S
C1790 C1791 1.391 . S
C1790 C1792 1.394 . S
C1790 H1806 0.931 . S
C1791 C1790 1.391 . S
C1791 C1795 1.376 . S
C1792 C1790 1.394 . S
C1792 C1793 1.369 . S
C1792 C1796 1.531 . S
C1793 C1792 1.369 . S
C1793 C1794 1.410 . S
C1793 C1801 1.503 . S
C1794 C1793 1.410 . S
C1794 C1795 1.392 . S
C1794 C1797 1.511 . S
C1795 C1791 1.376 . S
C1795 C1794 1.392 . S
C1795 H1807 0.929 . S
C1796 C1792 1.531 . S
C1796 H1808 0.960 . S
C1796 H1809 0.962 . S
C1796 H1810 0.960 . S
C1797 C1794 1.511 . S
C1797 H1811 0.961 . S
C1797 H1812 0.961 . S
C1797 H1813 0.961 . S
C1798 C1799 1.370 . S
C1798 C1800 1.363 . S
C1798 H1814 0.931 . S
C1799 C1798 1.370 . S
C1799 C1803 1.408 . S
C1800 C1798 1.363 . S
C1800 C1801 1.370 . S
C1800 C1804 1.524 . S
C1801 C1793 1.503 . S
C1801 C1800 1.370 . S
C1801 C1802 1.403 . S
C1802 C1801 1.403 . S
C1802 C1803 1.404 . S
C1802 C1805 1.539 . S
C1803 C1799 1.408 . S
C1803 C1802 1.404 . S
C1803 H1815 0.930 . S
C1804 C1800 1.524 . S
C1804 H1816 0.956 . S
C1804 H1817 0.961 . S
C1804 H1818 0.961 . S
C1805 C1802 1.539 . S
C1805 H1819 0.958 . S
C1805 H1820 0.961 . S
C1805 H1821 0.960 . S
H1806 C1790 0.931 . S
H1807 C1795 0.929 . S
H1808 C1796 0.960 . S
H1809 C1796 0.962 . S
H1810 C1796 0.960 . S
H1811 C1797 0.961 . S
H1812 C1797 0.961 . S
H1813 C1797 0.961 . S
H1814 C1798 0.931 . S
H1815 C1803 0.930 . S
H1816 C1804 0.956 . S
H1817 C1804 0.961 . S
H1818 C1804 0.961 . S
H1819 C1805 0.958 . S
H1820 C1805 0.961 . S
H1821 C1805 0.960 . S
C1822 C1823 1.391 . S
C1822 C1824 1.394 . S
C1822 H1838 0.931 . S
C1823 C1822 1.391 . S
C1823 C1827 1.376 . S
C1824 C1822 1.394 . S
C1824 C1825 1.369 . S
C1824 C1828 1.531 . S
C1825 C1824 1.369 . S
C1825 C1826 1.410 . S
C1825 C1833 1.503 . S
C1826 C1825 1.410 . S
C1826 C1827 1.392 . S
C1826 C1829 1.511 . S
C1827 C1823 1.376 . S
C1827 C1826 1.392 . S
C1827 H1839 0.929 . S
C1828 C1824 1.531 . S
C1828 H1840 0.960 . S
C1828 H1841 0.962 . S
C1828 H1842 0.960 . S
C1829 C1826 1.511 . S
C1829 H1843 0.961 . S
C1829 H1844 0.961 . S
C1829 H1845 0.961 . S
C1830 C1831 1.370 . S
C1830 C1832 1.363 . S
C1830 H1846 0.931 . S
C1831 C1830 1.370 . S
C1831 C1835 1.408 . S
C1832 C1830 1.363 . S
C1832 C1833 1.370 . S
C1832 C1836 1.524 . S
C1833 C1825 1.503 . S
C1833 C1832 1.370 . S
C1833 C1834 1.403 . S
C1834 C1833 1.403 . S
C1834 C1835 1.404 . S
C1834 C1837 1.539 . S
C1835 C1831 1.408 . S
C1835 C1834 1.404 . S
C1835 H1847 0.930 . S
C1836 C1832 1.524 . S
C1836 H1848 0.956 . S
C1836 H1849 0.961 . S
C1836 H1850 0.961 . S
C1837 C1834 1.539 . S
C1837 H1851 0.958 . S
C1837 H1852 0.961 . S
C1837 H1853 0.960 . S
H1838 C1822 0.931 . S
H1839 C1827 0.929 . S
H1840 C1828 0.960 . S
H1841 C1828 0.962 . S
H1842 C1828 0.960 . S
H1843 C1829 0.961 . S
H1844 C1829 0.961 . S
H1845 C1829 0.961 . S
H1846 C1830 0.931 . S
H1847 C1835 0.930 . S
H1848 C1836 0.956 . S
H1849 C1836 0.961 . S
H1850 C1836 0.961 . S
H1851 C1837 0.958 . S
H1852 C1837 0.961 . S
H1853 C1837 0.960 . S
C1854 C1855 1.391 . S
C1854 C1856 1.394 . S
C1854 H1870 0.931 . S
C1855 C1854 1.391 . S
C1855 C1859 1.376 . S
C1856 C1854 1.394 . S
C1856 C1857 1.369 . S
C1856 C1860 1.531 . S
C1857 C1856 1.369 . S
C1857 C1858 1.410 . S
C1857 C1865 1.503 1_565 S
C1858 C1857 1.410 . S
C1858 C1859 1.392 . S
C1858 C1861 1.511 . S
C1859 C1855 1.376 . S
C1859 C1858 1.392 . S
C1859 H1871 0.929 . S
C1860 C1856 1.531 . S
C1860 H1872 0.960 . S
C1860 H1873 0.962 . S
C1860 H1874 0.960 . S
C1861 C1858 1.511 . S
C1861 H1875 0.961 . S
C1861 H1876 0.961 1_565 S
C1861 H1877 0.961 . S
C1862 C1863 1.370 . S
C1862 C1864 1.363 . S
C1862 H1878 0.931 . S
C1863 C1862 1.370 . S
C1863 C1867 1.408 . S
C1864 C1862 1.363 . S
C1864 C1865 1.370 . S
C1864 C1868 1.524 . S
C1865 C1857 1.503 1_545 S
C1865 C1864 1.370 . S
C1865 C1866 1.403 . S
C1866 C1865 1.403 . S
C1866 C1867 1.404 . S
C1866 C1869 1.539 1_545 S
C1867 C1863 1.408 . S
C1867 C1866 1.404 . S
C1867 H1879 0.930 . S
C1868 C1864 1.524 . S
C1868 H1880 0.956 . S
C1868 H1881 0.961 . S
C1868 H1882 0.961 . S
C1869 C1866 1.539 1_565 S
C1869 H1883 0.958 . S
C1869 H1884 0.961 . S
C1869 H1885 0.960 . S
H1870 C1854 0.931 . S
H1871 C1859 0.929 . S
H1872 C1860 0.960 . S
H1873 C1860 0.962 . S
H1874 C1860 0.960 . S
H1875 C1861 0.961 . S
H1876 C1861 0.961 1_545 S
H1877 C1861 0.961 . S
H1878 C1862 0.931 . S
H1879 C1867 0.930 . S
H1880 C1868 0.956 . S
H1881 C1868 0.961 . S
H1882 C1868 0.961 . S
H1883 C1869 0.958 . S
H1884 C1869 0.961 . S
H1885 C1869 0.960 . S
C1886 C1887 1.391 . S
C1886 C1888 1.394 . S
C1886 H1902 0.931 . S
C1887 C1886 1.391 . S
C1887 C1891 1.376 . S
C1888 C1886 1.394 . S
C1888 C1889 1.369 . S
C1888 C1892 1.531 1_455 S
C1889 C1888 1.369 . S
C1889 C1890 1.410 . S
C1889 C1897 1.503 1_455 S
C1890 C1889 1.410 . S
C1890 C1891 1.392 . S
C1890 C1893 1.511 . S
C1891 C1887 1.376 . S
C1891 C1890 1.392 . S
C1891 H1903 0.929 . S
C1892 C1888 1.531 1_655 S
C1892 H1904 0.960 . S
C1892 H1905 0.962 . S
C1892 H1906 0.960 . S
C1893 C1890 1.511 . S
C1893 H1907 0.961 . S
C1893 H1908 0.961 . S
C1893 H1909 0.961 . S
C1894 C1895 1.370 . S
C1894 C1896 1.363 . S
C1894 H1910 0.931 . S
C1895 C1894 1.370 . S
C1895 C1899 1.408 . S
C1896 C1894 1.363 . S
C1896 C1897 1.370 . S
C1896 C1900 1.524 . S
C1897 C1889 1.503 1_655 S
C1897 C1896 1.370 . S
C1897 C1898 1.403 . S
C1898 C1897 1.403 . S
C1898 C1899 1.404 . S
C1898 C1901 1.538 1_655 S
C1899 C1895 1.408 . S
C1899 C1898 1.404 . S
C1899 H1911 0.930 . S
C1900 C1896 1.524 . S
C1900 H1912 0.956 . S
C1900 H1913 0.961 . S
C1900 H1914 0.961 . S
C1901 C1898 1.538 1_455 S
C1901 H1915 0.959 1_455 S
C1901 H1916 0.946 1_455 S
C1901 H1917 0.962 . S
H1902 C1886 0.931 . S
H1903 C1891 0.929 . S
H1904 C1892 0.960 . S
H1905 C1892 0.962 . S
H1906 C1892 0.960 . S
H1907 C1893 0.961 . S
H1908 C1893 0.961 . S
H1909 C1893 0.961 . S
H1910 C1894 0.931 . S
H1911 C1899 0.930 . S
H1912 C1900 0.956 . S
H1913 C1900 0.961 . S
H1914 C1900 0.961 . S
H1915 C1901 0.959 1_655 S
H1916 C1901 0.946 1_655 S
H1917 C1901 0.962 . S
C1918 C1919 1.391 . S
C1918 C1920 1.394 . S
C1918 H1934 0.931 . S
C1919 C1918 1.391 . S
C1919 C1923 1.376 . S
C1920 C1918 1.394 . S
C1920 C1921 1.369 . S
C1920 C1924 1.531 . S
C1921 C1920 1.369 . S
C1921 C1922 1.410 . S
C1921 C1929 1.503 . S
C1922 C1921 1.410 . S
C1922 C1923 1.392 . S
C1922 C1925 1.511 . S
C1923 C1919 1.376 . S
C1923 C1922 1.392 . S
C1923 H1935 0.929 . S
C1924 C1920 1.531 . S
C1924 H1936 0.960 . S
C1924 H1937 0.962 . S
C1924 H1938 0.960 . S
C1925 C1922 1.511 . S
C1925 H1939 0.961 . S
C1925 H1940 0.961 . S
C1925 H1941 0.961 . S
C1926 C1927 1.370 . S
C1926 C1928 1.363 . S
C1926 H1942 0.931 . S
C1927 C1926 1.370 . S
C1927 C1931 1.408 . S
C1928 C1926 1.363 . S
C1928 C1929 1.370 . S
C1928 C1932 1.524 . S
C1929 C1921 1.503 . S
C1929 C1928 1.370 . S
C1929 C1930 1.403 . S
C1930 C1929 1.403 . S
C1930 C1931 1.404 . S
C1930 C1933 1.539 . S
C1931 C1927 1.408 . S
C1931 C1930 1.404 . S
C1931 H1943 0.930 . S
C1932 C1928 1.524 . S
C1932 H1944 0.956 . S
C1932 H1945 0.961 . S
C1932 H1946 0.961 . S
C1933 C1930 1.539 . S
C1933 H1947 0.958 . S
C1933 H1948 0.961 . S
C1933 H1949 0.960 . S
H1934 C1918 0.931 . S
H1935 C1923 0.929 . S
H1936 C1924 0.960 . S
H1937 C1924 0.962 . S
H1938 C1924 0.960 . S
H1939 C1925 0.961 . S
H1940 C1925 0.961 . S
H1941 C1925 0.961 . S
H1942 C1926 0.931 . S
H1943 C1931 0.930 . S
H1944 C1932 0.956 . S
H1945 C1932 0.961 . S
H1946 C1932 0.961 . S
H1947 C1933 0.958 . S
H1948 C1933 0.961 . S
H1949 C1933 0.960 . S
C1950 C1951 1.391 1_655 S
C1950 C1952 1.394 . S
C1950 H1966 0.931 1_655 S
C1951 C1950 1.391 1_455 S
C1951 C1955 1.376 . S
C1952 C1950 1.394 . S
C1952 C1953 1.369 . S
C1952 C1956 1.531 . S
C1953 C1952 1.369 . S
C1953 C1954 1.410 . S
C1953 C1961 1.503 . S
C1954 C1953 1.410 . S
C1954 C1955 1.392 1_655 S
C1954 C1957 1.511 . S
C1955 C1951 1.376 . S
C1955 C1954 1.392 1_455 S
C1955 H1967 0.929 . S
C1956 C1952 1.531 . S
C1956 H1968 0.960 . S
C1956 H1969 0.962 . S
C1956 H1970 0.960 . S
C1957 C1954 1.511 . S
C1957 H1971 0.961 . S
C1957 H1972 0.961 . S
C1957 H1973 0.961 . S
C1958 C1959 1.370 . S
C1958 C1960 1.363 . S
C1958 H1974 0.931 . S
C1959 C1958 1.370 . S
C1959 C1963 1.408 . S
C1960 C1958 1.363 . S
C1960 C1961 1.370 . S
C1960 C1964 1.524 . S
C1961 C1953 1.503 . S
C1961 C1960 1.370 . S
C1961 C1962 1.403 . S
C1962 C1961 1.403 . S
C1962 C1963 1.404 . S
C1962 C1965 1.539 . S
C1963 C1959 1.408 . S
C1963 C1962 1.404 . S
C1963 H1975 0.930 . S
C1964 C1960 1.524 . S
C1964 H1976 0.956 . S
C1964 H1977 0.961 . S
C1964 H1978 0.961 . S
C1965 C1962 1.539 . S
C1965 H1979 0.958 . S
C1965 H1980 0.961 . S
C1965 H1981 0.960 . S
H1966 C1950 0.931 1_455 S
H1967 C1955 0.929 . S
H1968 C1956 0.960 . S
H1969 C1956 0.962 . S
H1970 C1956 0.960 . S
H1971 C1957 0.961 . S
H1972 C1957 0.961 . S
H1973 C1957 0.961 . S
H1974 C1958 0.931 . S
H1975 C1963 0.930 . S
H1976 C1964 0.956 . S
H1977 C1964 0.961 . S
H1978 C1964 0.961 . S
H1979 C1965 0.958 . S
H1980 C1965 0.961 . S
H1981 C1965 0.960 . S
C1982 C1983 1.391 . S
C1982 C1984 1.394 . S
C1982 H1998 0.931 . S
C1983 C1982 1.391 . S
C1983 C1987 1.376 . S
C1984 C1982 1.394 . S
C1984 C1985 1.369 . S
C1984 C1988 1.531 . S
C1985 C1984 1.369 . S
C1985 C1986 1.410 . S
C1985 C1993 1.503 . S
C1986 C1985 1.410 . S
C1986 C1987 1.392 . S
C1986 C1989 1.511 . S
C1987 C1983 1.376 . S
C1987 C1986 1.392 . S
C1987 H1999 0.929 . S
C1988 C1984 1.531 . S
C1988 H2000 0.960 . S
C1988 H2001 0.962 . S
C1988 H2002 0.960 . S
C1989 C1986 1.511 . S
C1989 H2003 0.961 . S
C1989 H2004 0.961 . S
C1989 H2005 0.961 . S
C1990 C1991 1.370 . S
C1990 C1992 1.363 . S
C1990 H2006 0.931 . S
C1991 C1990 1.370 . S
C1991 C1995 1.408 . S
C1992 C1990 1.363 . S
C1992 C1993 1.370 . S
C1992 C1996 1.524 . S
C1993 C1985 1.503 . S
C1993 C1992 1.370 . S
C1993 C1994 1.403 . S
C1994 C1993 1.403 . S
C1994 C1995 1.404 . S
C1994 C1997 1.539 . S
C1995 C1991 1.408 . S
C1995 C1994 1.404 . S
C1995 H2007 0.930 . S
C1996 C1992 1.524 . S
C1996 H2008 0.956 . S
C1996 H2009 0.961 . S
C1996 H2010 0.961 . S
C1997 C1994 1.539 . S
C1997 H2011 0.958 . S
C1997 H2012 0.961 . S
C1997 H2013 0.960 . S
H1998 C1982 0.931 . S
H1999 C1987 0.929 . S
H2000 C1988 0.960 . S
H2001 C1988 0.962 . S
H2002 C1988 0.960 . S
H2003 C1989 0.961 . S
H2004 C1989 0.961 . S
H2005 C1989 0.961 . S
H2006 C1990 0.931 . S
H2007 C1995 0.930 . S
H2008 C1996 0.956 . S
H2009 C1996 0.961 . S
H2010 C1996 0.961 . S
H2011 C1997 0.958 . S
H2012 C1997 0.961 . S
H2013 C1997 0.960 . S
C2014 C2015 1.391 . S
C2014 C2016 1.394 1_565 S
C2014 H2030 0.931 . S
C2015 C2014 1.391 . S
C2015 C2019 1.376 1_565 S
C2016 C2014 1.394 1_545 S
C2016 C2017 1.369 . S
C2016 C2020 1.531 . S
C2017 C2016 1.369 . S
C2017 C2018 1.410 . S
C2017 C2025 1.503 . S
C2018 C2017 1.410 . S
C2018 C2019 1.392 . S
C2018 C2021 1.511 . S
C2019 C2015 1.376 1_545 S
C2019 C2018 1.392 . S
C2019 H2031 0.929 . S
C2020 C2016 1.531 . S
C2020 H2032 0.960 . S
C2020 H2033 0.962 . S
C2020 H2034 0.960 . S
C2021 C2018 1.511 . S
C2021 H2035 0.961 . S
C2021 H2036 0.961 . S
C2021 H2037 0.961 . S
C2022 C2023 1.370 . S
C2022 C2024 1.363 . S
C2022 H2038 0.931 . S
C2023 C2022 1.370 . S
C2023 C2027 1.408 . S
C2024 C2022 1.363 . S
C2024 C2025 1.370 . S
C2024 C2028 1.524 . S
C2025 C2017 1.503 . S
C2025 C2024 1.370 . S
C2025 C2026 1.403 . S
C2026 C2025 1.403 . S
C2026 C2027 1.404 . S
C2026 C2029 1.539 . S
C2027 C2023 1.408 . S
C2027 C2026 1.404 . S
C2027 H2039 0.930 . S
C2028 C2024 1.524 . S
C2028 H2040 0.956 . S
C2028 H2041 0.961 . S
C2028 H2042 0.961 . S
C2029 C2026 1.539 . S
C2029 H2043 0.958 . S
C2029 H2044 0.961 . S
C2029 H2045 0.960 . S
H2030 C2014 0.931 . S
H2031 C2019 0.929 . S
H2032 C2020 0.960 . S
H2033 C2020 0.962 . S
H2034 C2020 0.960 . S
H2035 C2021 0.961 . S
H2036 C2021 0.961 . S
H2037 C2021 0.961 . S
H2038 C2022 0.931 . S
H2039 C2027 0.930 . S
H2040 C2028 0.956 . S
H2041 C2028 0.961 . S
H2042 C2028 0.961 . S
H2043 C2029 0.958 . S
H2044 C2029 0.961 . S
H2045 C2029 0.960 . S
C2046 C2047 1.391 . S
C2046 C2048 1.394 . S
C2046 H2062 0.931 . S
C2047 C2046 1.391 . S
C2047 C2051 1.376 . S
C2048 C2046 1.394 . S
C2048 C2049 1.369 . S
C2048 C2052 1.531 . S
C2049 C2048 1.369 . S
C2049 C2050 1.410 . S
C2049 C2057 1.503 . S
C2050 C2049 1.410 . S
C2050 C2051 1.392 . S
C2050 C2053 1.511 . S
C2051 C2047 1.376 . S
C2051 C2050 1.392 . S
C2051 H2063 0.929 . S
C2052 C2048 1.531 . S
C2052 H2064 0.960 . S
C2052 H2065 0.962 . S
C2052 H2066 0.960 . S
C2053 C2050 1.511 . S
C2053 H2067 0.961 . S
C2053 H2068 0.961 . S
C2053 H2069 0.961 . S
C2054 C2055 1.370 . S
C2054 C2056 1.363 . S
C2054 H2070 0.931 . S
C2055 C2054 1.370 . S
C2055 C2059 1.408 . S
C2056 C2054 1.363 . S
C2056 C2057 1.370 . S
C2056 C2060 1.524 . S
C2057 C2049 1.503 . S
C2057 C2056 1.370 . S
C2057 C2058 1.403 . S
C2058 C2057 1.403 . S
C2058 C2059 1.404 . S
C2058 C2061 1.539 . S
C2059 C2055 1.408 . S
C2059 C2058 1.404 . S
C2059 H2071 0.930 . S
C2060 C2056 1.524 . S
C2060 H2072 0.956 . S
C2060 H2073 0.961 . S
C2060 H2074 0.961 . S
C2061 C2058 1.539 . S
C2061 H2075 0.958 . S
C2061 H2076 0.961 . S
C2061 H2077 0.960 . S
H2062 C2046 0.931 . S
H2063 C2051 0.929 . S
H2064 C2052 0.960 . S
H2065 C2052 0.962 . S
H2066 C2052 0.960 . S
H2067 C2053 0.961 . S
H2068 C2053 0.961 . S
H2069 C2053 0.961 . S
H2070 C2054 0.931 . S
H2071 C2059 0.930 . S
H2072 C2060 0.956 . S
H2073 C2060 0.961 . S
H2074 C2060 0.961 . S
H2075 C2061 0.958 . S
H2076 C2061 0.961 . S
H2077 C2061 0.960 . S
C2078 C2079 1.391 . S
C2078 C2080 1.394 . S
C2078 H2094 0.931 . S
C2079 C2078 1.391 . S
C2079 C2083 1.376 . S
C2080 C2078 1.394 . S
C2080 C2081 1.369 . S
C2080 C2084 1.531 . S
C2081 C2080 1.369 . S
C2081 C2082 1.410 . S
C2081 C2089 1.503 . S
C2082 C2081 1.410 . S
C2082 C2083 1.392 . S
C2082 C2085 1.511 . S
C2083 C2079 1.376 . S
C2083 C2082 1.392 . S
C2083 H2095 0.929 . S
C2084 C2080 1.531 . S
C2084 H2096 0.960 . S
C2084 H2097 0.962 . S
C2084 H2098 0.960 . S
C2085 C2082 1.511 . S
C2085 H2099 0.961 . S
C2085 H2100 0.961 . S
C2085 H2101 0.961 . S
C2086 C2087 1.370 . S
C2086 C2088 1.363 . S
C2086 H2102 0.931 . S
C2087 C2086 1.370 . S
C2087 C2091 1.408 . S
C2088 C2086 1.363 . S
C2088 C2089 1.370 . S
C2088 C2092 1.524 . S
C2089 C2081 1.503 . S
C2089 C2088 1.370 . S
C2089 C2090 1.403 . S
C2090 C2089 1.403 . S
C2090 C2091 1.404 . S
C2090 C2093 1.539 . S
C2091 C2087 1.408 . S
C2091 C2090 1.404 . S
C2091 H2103 0.930 . S
C2092 C2088 1.524 . S
C2092 H2104 0.956 . S
C2092 H2105 0.961 . S
C2092 H2106 0.961 . S
C2093 C2090 1.539 . S
C2093 H2107 0.958 . S
C2093 H2108 0.961 . S
C2093 H2109 0.960 . S
H2094 C2078 0.931 . S
H2095 C2083 0.929 . S
H2096 C2084 0.960 . S
H2097 C2084 0.962 . S
H2098 C2084 0.960 . S
H2099 C2085 0.961 . S
H2100 C2085 0.961 . S
H2101 C2085 0.961 . S
H2102 C2086 0.931 . S
H2103 C2091 0.930 . S
H2104 C2092 0.956 . S
H2105 C2092 0.961 . S
H2106 C2092 0.961 . S
H2107 C2093 0.958 . S
H2108 C2093 0.961 . S
H2109 C2093 0.960 . S
C2110 C2111 1.391 . S
C2110 C2112 1.394 . S
C2110 H2126 0.931 . S
C2111 C2110 1.391 . S
C2111 C2115 1.376 . S
C2112 C2110 1.394 . S
C2112 C2113 1.369 . S
C2112 C2116 1.531 . S
C2113 C2112 1.369 . S
C2113 C2114 1.410 . S
C2113 C2121 1.503 . S
C2114 C2113 1.410 . S
C2114 C2115 1.392 . S
C2114 C2117 1.511 . S
C2115 C2111 1.376 . S
C2115 C2114 1.392 . S
C2115 H2127 0.929 . S
C2116 C2112 1.531 . S
C2116 H2128 0.960 . S
C2116 H2129 0.962 . S
C2116 H2130 0.960 . S
C2117 C2114 1.511 . S
C2117 H2131 0.961 . S
C2117 H2132 0.961 . S
C2117 H2133 0.961 . S
C2118 C2119 1.370 . S
C2118 C2120 1.363 . S
C2118 H2134 0.931 . S
C2119 C2118 1.370 . S
C2119 C2123 1.408 . S
C2120 C2118 1.363 . S
C2120 C2121 1.370 . S
C2120 C2124 1.524 . S
C2121 C2113 1.503 . S
C2121 C2120 1.370 . S
C2121 C2122 1.403 . S
C2122 C2121 1.403 . S
C2122 C2123 1.404 . S
C2122 C2125 1.539 . S
C2123 C2119 1.408 . S
C2123 C2122 1.404 . S
C2123 H2135 0.930 . S
C2124 C2120 1.524 . S
C2124 H2136 0.956 . S
C2124 H2137 0.961 . S
C2124 H2138 0.961 . S
C2125 C2122 1.539 . S
C2125 H2139 0.958 . S
C2125 H2140 0.961 . S
C2125 H2141 0.960 . S
H2126 C2110 0.931 . S
H2127 C2115 0.929 . S
H2128 C2116 0.960 . S
H2129 C2116 0.962 . S
H2130 C2116 0.960 . S
H2131 C2117 0.961 . S
H2132 C2117 0.961 . S
H2133 C2117 0.961 . S
H2134 C2118 0.931 . S
H2135 C2123 0.930 . S
H2136 C2124 0.956 . S
H2137 C2124 0.961 . S
H2138 C2124 0.961 . S
H2139 C2125 0.958 . S
H2140 C2125 0.961 . S
H2141 C2125 0.960 . S
C2142 C2143 1.391 . S
C2142 C2144 1.394 . S
C2142 H2158 0.931 . S
C2143 C2142 1.391 . S
C2143 C2147 1.376 . S
C2144 C2142 1.394 . S
C2144 C2145 1.369 . S
C2144 C2148 1.531 . S
C2145 C2144 1.369 . S
C2145 C2146 1.410 . S
C2145 C2153 1.503 . S
C2146 C2145 1.410 . S
C2146 C2147 1.392 . S
C2146 C2149 1.511 . S
C2147 C2143 1.376 . S
C2147 C2146 1.392 . S
C2147 H2159 0.929 . S
C2148 C2144 1.531 . S
C2148 H2160 0.960 . S
C2148 H2161 0.962 . S
C2148 H2162 0.960 . S
C2149 C2146 1.511 . S
C2149 H2163 0.961 . S
C2149 H2164 0.961 . S
C2149 H2165 0.961 . S
C2150 C2151 1.370 . S
C2150 C2152 1.363 . S
C2150 H2166 0.931 . S
C2151 C2150 1.370 . S
C2151 C2155 1.408 . S
C2152 C2150 1.363 . S
C2152 C2153 1.370 . S
C2152 C2156 1.524 . S
C2153 C2145 1.503 . S
C2153 C2152 1.370 . S
C2153 C2154 1.403 . S
C2154 C2153 1.403 . S
C2154 C2155 1.404 . S
C2154 C2157 1.539 . S
C2155 C2151 1.408 . S
C2155 C2154 1.404 . S
C2155 H2167 0.930 . S
C2156 C2152 1.524 . S
C2156 H2168 0.956 . S
C2156 H2169 0.961 . S
C2156 H2170 0.961 . S
C2157 C2154 1.539 . S
C2157 H2171 0.958 . S
C2157 H2172 0.961 . S
C2157 H2173 0.960 . S
H2158 C2142 0.931 . S
H2159 C2147 0.929 . S
H2160 C2148 0.960 . S
H2161 C2148 0.962 . S
H2162 C2148 0.960 . S
H2163 C2149 0.961 . S
H2164 C2149 0.961 . S
H2165 C2149 0.961 . S
H2166 C2150 0.931 . S
H2167 C2155 0.930 . S
H2168 C2156 0.956 . S
H2169 C2156 0.961 . S
H2170 C2156 0.961 . S
H2171 C2157 0.958 . S
H2172 C2157 0.961 . S
H2173 C2157 0.960 . S
C2174 C2175 1.391 . S
C2174 C2176 1.394 . S
C2174 H2190 0.931 . S
C2175 C2174 1.391 . S
C2175 C2179 1.376 . S
C2176 C2174 1.394 . S
C2176 C2177 1.369 . S
C2176 C2180 1.531 . S
C2177 C2176 1.369 . S
C2177 C2178 1.410 . S
C2177 C2185 1.503 . S
C2178 C2177 1.410 . S
C2178 C2179 1.392 . S
C2178 C2181 1.511 . S
C2179 C2175 1.376 . S
C2179 C2178 1.392 . S
C2179 H2191 0.929 . S
C2180 C2176 1.531 . S
C2180 H2192 0.960 . S
C2180 H2193 0.962 . S
C2180 H2194 0.960 . S
C2181 C2178 1.511 . S
C2181 H2195 0.961 . S
C2181 H2196 0.961 . S
C2181 H2197 0.961 . S
C2182 C2183 1.370 . S
C2182 C2184 1.363 . S
C2182 H2198 0.931 . S
C2183 C2182 1.370 . S
C2183 C2187 1.408 . S
C2184 C2182 1.363 . S
C2184 C2185 1.370 . S
C2184 C2188 1.524 . S
C2185 C2177 1.503 . S
C2185 C2184 1.370 . S
C2185 C2186 1.403 . S
C2186 C2185 1.403 . S
C2186 C2187 1.404 . S
C2186 C2189 1.539 . S
C2187 C2183 1.408 . S
C2187 C2186 1.404 . S
C2187 H2199 0.930 . S
C2188 C2184 1.524 . S
C2188 H2200 0.956 . S
C2188 H2201 0.961 . S
C2188 H2202 0.961 . S
C2189 C2186 1.539 . S
C2189 H2203 0.958 . S
C2189 H2204 0.961 . S
C2189 H2205 0.960 . S
H2190 C2174 0.931 . S
H2191 C2179 0.929 . S
H2192 C2180 0.960 . S
H2193 C2180 0.962 . S
H2194 C2180 0.960 . S
H2195 C2181 0.961 . S
H2196 C2181 0.961 . S
H2197 C2181 0.961 . S
H2198 C2182 0.931 . S
H2199 C2187 0.930 . S
H2200 C2188 0.956 . S
H2201 C2188 0.961 . S
H2202 C2188 0.961 . S
H2203 C2189 0.958 . S
H2204 C2189 0.961 . S
H2205 C2189 0.960 . S
C2206 C2207 1.391 . S
C2206 C2208 1.394 . S
C2206 H2222 0.931 . S
C2207 C2206 1.391 . S
C2207 C2211 1.376 . S
C2208 C2206 1.394 . S
C2208 C2209 1.369 . S
C2208 C2212 1.531 . S
C2209 C2208 1.369 . S
C2209 C2210 1.410 . S
C2209 C2217 1.503 . S
C2210 C2209 1.410 . S
C2210 C2211 1.392 . S
C2210 C2213 1.511 . S
C2211 C2207 1.376 . S
C2211 C2210 1.392 . S
C2211 H2223 0.929 . S
C2212 C2208 1.531 . S
C2212 H2224 0.960 . S
C2212 H2225 0.962 . S
C2212 H2226 0.960 . S
C2213 C2210 1.511 . S
C2213 H2227 0.961 . S
C2213 H2228 0.961 . S
C2213 H2229 0.961 . S
C2214 C2215 1.370 . S
C2214 C2216 1.363 . S
C2214 H2230 0.931 . S
C2215 C2214 1.370 . S
C2215 C2219 1.408 . S
C2216 C2214 1.363 . S
C2216 C2217 1.370 . S
C2216 C2220 1.524 . S
C2217 C2209 1.503 . S
C2217 C2216 1.370 . S
C2217 C2218 1.403 . S
C2218 C2217 1.403 . S
C2218 C2219 1.404 . S
C2218 C2221 1.539 . S
C2219 C2215 1.408 . S
C2219 C2218 1.404 . S
C2219 H2231 0.930 . S
C2220 C2216 1.524 . S
C2220 H2232 0.956 . S
C2220 H2233 0.961 . S
C2220 H2234 0.961 . S
C2221 C2218 1.539 . S
C2221 H2235 0.958 . S
C2221 H2236 0.961 . S
C2221 H2237 0.960 . S
H2222 C2206 0.931 . S
H2223 C2211 0.929 . S
H2224 C2212 0.960 . S
H2225 C2212 0.962 . S
H2226 C2212 0.960 . S
H2227 C2213 0.961 . S
H2228 C2213 0.961 . S
H2229 C2213 0.961 . S
H2230 C2214 0.931 . S
H2231 C2219 0.930 . S
H2232 C2220 0.956 . S
H2233 C2220 0.961 . S
H2234 C2220 0.961 . S
H2235 C2221 0.958 . S
H2236 C2221 0.961 . S
H2237 C2221 0.960 . S
C2238 C2239 1.391 . S
C2238 C2240 1.394 . S
C2238 H2254 0.931 . S
C2239 C2238 1.391 . S
C2239 C2243 1.376 . S
C2240 C2238 1.394 . S
C2240 C2241 1.369 . S
C2240 C2244 1.531 . S
C2241 C2240 1.369 . S
C2241 C2242 1.410 . S
C2241 C2249 1.503 . S
C2242 C2241 1.410 . S
C2242 C2243 1.392 . S
C2242 C2245 1.511 . S
C2243 C2239 1.376 . S
C2243 C2242 1.392 . S
C2243 H2255 0.929 . S
C2244 C2240 1.531 . S
C2244 H2256 0.960 . S
C2244 H2257 0.962 . S
C2244 H2258 0.960 . S
C2245 C2242 1.511 . S
C2245 H2259 0.961 . S
C2245 H2260 0.961 . S
C2245 H2261 0.961 . S
C2246 C2247 1.370 . S
C2246 C2248 1.363 . S
C2246 H2262 0.931 . S
C2247 C2246 1.370 . S
C2247 C2251 1.408 . S
C2248 C2246 1.363 . S
C2248 C2249 1.370 . S
C2248 C2252 1.524 . S
C2249 C2241 1.503 . S
C2249 C2248 1.370 . S
C2249 C2250 1.403 . S
C2250 C2249 1.403 . S
C2250 C2251 1.404 . S
C2250 C2253 1.539 . S
C2251 C2247 1.408 . S
C2251 C2250 1.404 . S
C2251 H2263 0.930 . S
C2252 C2248 1.524 . S
C2252 H2264 0.956 . S
C2252 H2265 0.961 . S
C2252 H2266 0.961 . S
C2253 C2250 1.539 . S
C2253 H2267 0.958 . S
C2253 H2268 0.961 . S
C2253 H2269 0.960 . S
H2254 C2238 0.931 . S
H2255 C2243 0.929 . S
H2256 C2244 0.960 . S
H2257 C2244 0.962 . S
H2258 C2244 0.960 . S
H2259 C2245 0.961 . S
H2260 C2245 0.961 . S
H2261 C2245 0.961 . S
H2262 C2246 0.931 . S
H2263 C2251 0.930 . S
H2264 C2252 0.956 . S
H2265 C2252 0.961 . S
H2266 C2252 0.961 . S
H2267 C2253 0.958 . S
H2268 C2253 0.961 . S
H2269 C2253 0.960 . S
C2270 C2271 1.391 . S
C2270 C2272 1.394 . S
C2270 H2286 0.931 . S
C2271 C2270 1.391 . S
C2271 C2275 1.376 . S
C2272 C2270 1.394 . S
C2272 C2273 1.369 . S
C2272 C2276 1.531 . S
C2273 C2272 1.369 . S
C2273 C2274 1.410 . S
C2273 C2281 1.503 . S
C2274 C2273 1.410 . S
C2274 C2275 1.392 . S
C2274 C2277 1.511 . S
C2275 C2271 1.376 . S
C2275 C2274 1.392 . S
C2275 H2287 0.929 . S
C2276 C2272 1.531 . S
C2276 H2288 0.960 . S
C2276 H2289 0.962 . S
C2276 H2290 0.960 . S
C2277 C2274 1.511 . S
C2277 H2291 0.961 . S
C2277 H2292 0.961 . S
C2277 H2293 0.961 . S
C2278 C2279 1.370 . S
C2278 C2280 1.363 . S
C2278 H2294 0.931 . S
C2279 C2278 1.370 . S
C2279 C2283 1.408 . S
C2280 C2278 1.363 . S
C2280 C2281 1.370 . S
C2280 C2284 1.524 . S
C2281 C2273 1.503 . S
C2281 C2280 1.370 . S
C2281 C2282 1.403 . S
C2282 C2281 1.403 . S
C2282 C2283 1.404 . S
C2282 C2285 1.539 . S
C2283 C2279 1.408 . S
C2283 C2282 1.404 . S
C2283 H2295 0.930 . S
C2284 C2280 1.524 . S
C2284 H2296 0.956 . S
C2284 H2297 0.961 . S
C2284 H2298 0.961 . S
C2285 C2282 1.539 . S
C2285 H2299 0.958 . S
C2285 H2300 0.961 . S
C2285 H2301 0.960 . S
H2286 C2270 0.931 . S
H2287 C2275 0.929 . S
H2288 C2276 0.960 . S
H2289 C2276 0.962 . S
H2290 C2276 0.960 . S
H2291 C2277 0.961 . S
H2292 C2277 0.961 . S
H2293 C2277 0.961 . S
H2294 C2278 0.931 . S
H2295 C2283 0.930 . S
H2296 C2284 0.956 . S
H2297 C2284 0.961 . S
H2298 C2284 0.961 . S
H2299 C2285 0.958 . S
H2300 C2285 0.961 . S
H2301 C2285 0.960 . S
C2302 C2303 1.391 . S
C2302 C2304 1.394 . S
C2302 H2318 0.931 . S
C2303 C2302 1.391 . S
C2303 C2307 1.376 . S
C2304 C2302 1.394 . S
C2304 C2305 1.369 . S
C2304 C2308 1.531 . S
C2305 C2304 1.369 . S
C2305 C2306 1.410 . S
C2305 C2313 1.503 . S
C2306 C2305 1.410 . S
C2306 C2307 1.392 . S
C2306 C2309 1.511 . S
C2307 C2303 1.376 . S
C2307 C2306 1.392 . S
C2307 H2319 0.929 . S
C2308 C2304 1.531 . S
C2308 H2320 0.960 . S
C2308 H2321 0.962 . S
C2308 H2322 0.960 . S
C2309 C2306 1.511 . S
C2309 H2323 0.961 . S
C2309 H2324 0.961 . S
C2309 H2325 0.961 . S
C2310 C2311 1.370 . S
C2310 C2312 1.363 . S
C2310 H2326 0.931 . S
C2311 C2310 1.370 . S
C2311 C2315 1.408 . S
C2312 C2310 1.363 . S
C2312 C2313 1.370 . S
C2312 C2316 1.524 . S
C2313 C2305 1.503 . S
C2313 C2312 1.370 . S
C2313 C2314 1.403 . S
C2314 C2313 1.403 . S
C2314 C2315 1.404 . S
C2314 C2317 1.539 . S
C2315 C2311 1.408 . S
C2315 C2314 1.404 . S
C2315 H2327 0.930 . S
C2316 C2312 1.524 . S
C2316 H2328 0.956 . S
C2316 H2329 0.961 . S
C2316 H2330 0.961 . S
C2317 C2314 1.539 . S
C2317 H2331 0.958 . S
C2317 H2332 0.961 . S
C2317 H2333 0.960 . S
H2318 C2302 0.931 . S
H2319 C2307 0.929 . S
H2320 C2308 0.960 . S
H2321 C2308 0.962 . S
H2322 C2308 0.960 . S
H2323 C2309 0.961 . S
H2324 C2309 0.961 . S
H2325 C2309 0.961 . S
H2326 C2310 0.931 . S
H2327 C2315 0.930 . S
H2328 C2316 0.956 . S
H2329 C2316 0.961 . S
H2330 C2316 0.961 . S
H2331 C2317 0.958 . S
H2332 C2317 0.961 . S
H2333 C2317 0.960 . S
C2334 C2335 1.391 . S
C2334 C2336 1.394 . S
C2334 H2350 0.931 . S
C2335 C2334 1.391 . S
C2335 C2339 1.376 . S
C2336 C2334 1.394 . S
C2336 C2337 1.369 . S
C2336 C2340 1.531 . S
C2337 C2336 1.369 . S
C2337 C2338 1.410 . S
C2337 C2345 1.503 . S
C2338 C2337 1.410 . S
C2338 C2339 1.392 . S
C2338 C2341 1.511 . S
C2339 C2335 1.376 . S
C2339 C2338 1.392 . S
C2339 H2351 0.929 . S
C2340 C2336 1.531 . S
C2340 H2352 0.960 . S
C2340 H2353 0.962 . S
C2340 H2354 0.960 . S
C2341 C2338 1.511 . S
C2341 H2355 0.961 . S
C2341 H2356 0.961 . S
C2341 H2357 0.961 . S
C2342 C2343 1.370 . S
C2342 C2344 1.363 . S
C2342 H2358 0.931 . S
C2343 C2342 1.370 . S
C2343 C2347 1.408 . S
C2344 C2342 1.363 . S
C2344 C2345 1.370 . S
C2344 C2348 1.524 . S
C2345 C2337 1.503 . S
C2345 C2344 1.370 . S
C2345 C2346 1.403 . S
C2346 C2345 1.403 . S
C2346 C2347 1.404 . S
C2346 C2349 1.539 . S
C2347 C2343 1.408 . S
C2347 C2346 1.404 . S
C2347 H2359 0.930 . S
C2348 C2344 1.524 . S
C2348 H2360 0.956 . S
C2348 H2361 0.961 . S
C2348 H2362 0.961 . S
C2349 C2346 1.539 . S
C2349 H2363 0.958 . S
C2349 H2364 0.961 . S
C2349 H2365 0.960 . S
H2350 C2334 0.931 . S
H2351 C2339 0.929 . S
H2352 C2340 0.960 . S
H2353 C2340 0.962 . S
H2354 C2340 0.960 . S
H2355 C2341 0.961 . S
H2356 C2341 0.961 . S
H2357 C2341 0.961 . S
H2358 C2342 0.931 . S
H2359 C2347 0.930 . S
H2360 C2348 0.956 . S
H2361 C2348 0.961 . S
H2362 C2348 0.961 . S
H2363 C2349 0.958 . S
H2364 C2349 0.961 . S
H2365 C2349 0.960 . S
C2366 C2367 1.391 . S
C2366 C2368 1.394 . S
C2366 H2382 0.931 . S
C2367 C2366 1.391 . S
C2367 C2371 1.376 . S
C2368 C2366 1.394 . S
C2368 C2369 1.369 . S
C2368 C2372 1.531 . S
C2369 C2368 1.369 . S
C2369 C2370 1.410 . S
C2369 C2377 1.503 . S
C2370 C2369 1.410 . S
C2370 C2371 1.392 . S
C2370 C2373 1.511 . S
C2371 C2367 1.376 . S
C2371 C2370 1.392 . S
C2371 H2383 0.929 . S
C2372 C2368 1.531 . S
C2372 H2384 0.960 . S
C2372 H2385 0.962 . S
C2372 H2386 0.960 . S
C2373 C2370 1.511 . S
C2373 H2387 0.961 . S
C2373 H2388 0.961 . S
C2373 H2389 0.961 . S
C2374 C2375 1.370 . S
C2374 C2376 1.363 . S
C2374 H2390 0.931 . S
C2375 C2374 1.370 . S
C2375 C2379 1.408 . S
C2376 C2374 1.363 . S
C2376 C2377 1.370 . S
C2376 C2380 1.524 . S
C2377 C2369 1.503 . S
C2377 C2376 1.370 . S
C2377 C2378 1.403 . S
C2378 C2377 1.403 . S
C2378 C2379 1.404 . S
C2378 C2381 1.539 . S
C2379 C2375 1.408 . S
C2379 C2378 1.404 . S
C2379 H2391 0.930 . S
C2380 C2376 1.524 . S
C2380 H2392 0.956 . S
C2380 H2393 0.961 . S
C2380 H2394 0.961 . S
C2381 C2378 1.539 . S
C2381 H2395 0.958 . S
C2381 H2396 0.961 . S
C2381 H2397 0.960 . S
H2382 C2366 0.931 . S
H2383 C2371 0.929 . S
H2384 C2372 0.960 . S
H2385 C2372 0.962 . S
H2386 C2372 0.960 . S
H2387 C2373 0.961 . S
H2388 C2373 0.961 . S
H2389 C2373 0.961 . S
H2390 C2374 0.931 . S
H2391 C2379 0.930 . S
H2392 C2380 0.956 . S
H2393 C2380 0.961 . S
H2394 C2380 0.961 . S
H2395 C2381 0.958 . S
H2396 C2381 0.961 . S
H2397 C2381 0.960 . S
C2398 C2399 1.391 . S
C2398 C2400 1.394 . S
C2398 H2414 0.931 . S
C2399 C2398 1.391 . S
C2399 C2403 1.376 . S
C2400 C2398 1.394 . S
C2400 C2401 1.369 . S
C2400 C2404 1.531 . S
C2401 C2400 1.369 . S
C2401 C2402 1.410 . S
C2401 C2409 1.503 . S
C2402 C2401 1.410 . S
C2402 C2403 1.392 . S
C2402 C2405 1.511 . S
C2403 C2399 1.376 . S
C2403 C2402 1.392 . S
C2403 H2415 0.929 . S
C2404 C2400 1.531 . S
C2404 H2416 0.960 . S
C2404 H2417 0.962 . S
C2404 H2418 0.960 . S
C2405 C2402 1.511 . S
C2405 H2419 0.961 . S
C2405 H2420 0.961 . S
C2405 H2421 0.961 . S
C2406 C2407 1.370 . S
C2406 C2408 1.363 . S
C2406 H2422 0.931 . S
C2407 C2406 1.370 . S
C2407 C2411 1.408 . S
C2408 C2406 1.363 . S
C2408 C2409 1.370 . S
C2408 C2412 1.524 . S
C2409 C2401 1.503 . S
C2409 C2408 1.370 . S
C2409 C2410 1.403 . S
C2410 C2409 1.403 . S
C2410 C2411 1.404 . S
C2410 C2413 1.539 . S
C2411 C2407 1.408 . S
C2411 C2410 1.404 . S
C2411 H2423 0.930 . S
C2412 C2408 1.524 . S
C2412 H2424 0.956 . S
C2412 H2425 0.961 . S
C2412 H2426 0.961 . S
C2413 C2410 1.539 . S
C2413 H2427 0.958 . S
C2413 H2428 0.961 . S
C2413 H2429 0.960 . S
H2414 C2398 0.931 . S
H2415 C2403 0.929 . S
H2416 C2404 0.960 . S
H2417 C2404 0.962 . S
H2418 C2404 0.960 . S
H2419 C2405 0.961 . S
H2420 C2405 0.961 . S
H2421 C2405 0.961 . S
H2422 C2406 0.931 . S
H2423 C2411 0.930 . S
H2424 C2412 0.956 . S
H2425 C2412 0.961 . S
H2426 C2412 0.961 . S
H2427 C2413 0.958 . S
H2428 C2413 0.961 . S
H2429 C2413 0.960 . S
C2430 C2431 1.391 . S
C2430 C2432 1.394 . S
C2430 H2446 0.931 . S
C2431 C2430 1.391 . S
C2431 C2435 1.376 . S
C2432 C2430 1.394 . S
C2432 C2433 1.369 . S
C2432 C2436 1.531 . S
C2433 C2432 1.369 . S
C2433 C2434 1.410 . S
C2433 C2441 1.503 . S
C2434 C2433 1.410 . S
C2434 C2435 1.392 . S
C2434 C2437 1.511 . S
C2435 C2431 1.376 . S
C2435 C2434 1.392 . S
C2435 H2447 0.929 . S
C2436 C2432 1.531 . S
C2436 H2448 0.960 . S
C2436 H2449 0.962 . S
C2436 H2450 0.960 . S
C2437 C2434 1.511 . S
C2437 H2451 0.961 . S
C2437 H2452 0.961 . S
C2437 H2453 0.961 . S
C2438 C2439 1.370 . S
C2438 C2440 1.363 . S
C2438 H2454 0.931 . S
C2439 C2438 1.370 . S
C2439 C2443 1.408 . S
C2440 C2438 1.363 . S
C2440 C2441 1.370 . S
C2440 C2444 1.524 . S
C2441 C2433 1.503 . S
C2441 C2440 1.370 . S
C2441 C2442 1.403 . S
C2442 C2441 1.403 . S
C2442 C2443 1.404 . S
C2442 C2445 1.539 . S
C2443 C2439 1.408 . S
C2443 C2442 1.404 . S
C2443 H2455 0.930 . S
C2444 C2440 1.524 . S
C2444 H2456 0.956 . S
C2444 H2457 0.961 . S
C2444 H2458 0.961 . S
C2445 C2442 1.539 . S
C2445 H2459 0.958 . S
C2445 H2460 0.961 . S
C2445 H2461 0.960 . S
H2446 C2430 0.931 . S
H2447 C2435 0.929 . S
H2448 C2436 0.960 . S
H2449 C2436 0.962 . S
H2450 C2436 0.960 . S
H2451 C2437 0.961 . S
H2452 C2437 0.961 . S
H2453 C2437 0.961 . S
H2454 C2438 0.931 . S
H2455 C2443 0.930 . S
H2456 C2444 0.956 . S
H2457 C2444 0.961 . S
H2458 C2444 0.961 . S
H2459 C2445 0.958 . S
H2460 C2445 0.961 . S
H2461 C2445 0.960 . S
C2462 C2463 1.391 . S
C2462 C2464 1.394 . S
C2462 H2478 0.931 . S
C2463 C2462 1.391 . S
C2463 C2467 1.376 . S
C2464 C2462 1.394 . S
C2464 C2465 1.369 . S
C2464 C2468 1.531 . S
C2465 C2464 1.369 . S
C2465 C2466 1.410 . S
C2465 C2473 1.503 . S
C2466 C2465 1.410 . S
C2466 C2467 1.392 . S
C2466 C2469 1.511 . S
C2467 C2463 1.376 . S
C2467 C2466 1.392 . S
C2467 H2479 0.929 . S
C2468 C2464 1.531 . S
C2468 H2480 0.960 . S
C2468 H2481 0.962 . S
C2468 H2482 0.960 . S
C2469 C2466 1.511 . S
C2469 H2483 0.961 . S
C2469 H2484 0.961 . S
C2469 H2485 0.961 . S
C2470 C2471 1.370 . S
C2470 C2472 1.363 . S
C2470 H2486 0.931 . S
C2471 C2470 1.370 . S
C2471 C2475 1.408 . S
C2472 C2470 1.363 . S
C2472 C2473 1.370 . S
C2472 C2476 1.524 . S
C2473 C2465 1.503 . S
C2473 C2472 1.370 . S
C2473 C2474 1.403 . S
C2474 C2473 1.403 . S
C2474 C2475 1.404 . S
C2474 C2477 1.539 . S
C2475 C2471 1.408 . S
C2475 C2474 1.404 . S
C2475 H2487 0.930 . S
C2476 C2472 1.524 . S
C2476 H2488 0.956 . S
C2476 H2489 0.961 . S
C2476 H2490 0.961 . S
C2477 C2474 1.539 . S
C2477 H2491 0.958 . S
C2477 H2492 0.961 . S
C2477 H2493 0.960 . S
H2478 C2462 0.931 . S
H2479 C2467 0.929 . S
H2480 C2468 0.960 . S
H2481 C2468 0.962 . S
H2482 C2468 0.960 . S
H2483 C2469 0.961 . S
H2484 C2469 0.961 . S
H2485 C2469 0.961 . S
H2486 C2470 0.931 . S
H2487 C2475 0.930 . S
H2488 C2476 0.956 . S
H2489 C2476 0.961 . S
H2490 C2476 0.961 . S
H2491 C2477 0.958 . S
H2492 C2477 0.961 . S
H2493 C2477 0.960 . S
C2494 C2495 1.391 . S
C2494 C2496 1.394 . S
C2494 H2510 0.931 . S
C2495 C2494 1.391 . S
C2495 C2499 1.376 . S
C2496 C2494 1.394 . S
C2496 C2497 1.369 . S
C2496 C2500 1.531 . S
C2497 C2496 1.369 . S
C2497 C2498 1.410 . S
C2497 C2505 1.503 . S
C2498 C2497 1.410 . S
C2498 C2499 1.392 . S
C2498 C2501 1.511 . S
C2499 C2495 1.376 . S
C2499 C2498 1.392 . S
C2499 H2511 0.929 . S
C2500 C2496 1.531 . S
C2500 H2512 0.960 . S
C2500 H2513 0.962 . S
C2500 H2514 0.960 . S
C2501 C2498 1.511 . S
C2501 H2515 0.961 . S
C2501 H2516 0.961 . S
C2501 H2517 0.961 . S
C2502 C2503 1.370 . S
C2502 C2504 1.363 . S
C2502 H2518 0.931 . S
C2503 C2502 1.370 . S
C2503 C2507 1.408 . S
C2504 C2502 1.363 . S
C2504 C2505 1.370 . S
C2504 C2508 1.524 . S
C2505 C2497 1.503 . S
C2505 C2504 1.370 . S
C2505 C2506 1.403 . S
C2506 C2505 1.403 . S
C2506 C2507 1.404 . S
C2506 C2509 1.539 . S
C2507 C2503 1.408 . S
C2507 C2506 1.404 . S
C2507 H2519 0.930 . S
C2508 C2504 1.524 . S
C2508 H2520 0.956 . S
C2508 H2521 0.961 . S
C2508 H2522 0.961 . S
C2509 C2506 1.539 . S
C2509 H2523 0.958 . S
C2509 H2524 0.961 . S
C2509 H2525 0.960 . S
H2510 C2494 0.931 . S
H2511 C2499 0.929 . S
H2512 C2500 0.960 . S
H2513 C2500 0.962 . S
H2514 C2500 0.960 . S
H2515 C2501 0.961 . S
H2516 C2501 0.961 . S
H2517 C2501 0.961 . S
H2518 C2502 0.931 . S
H2519 C2507 0.930 . S
H2520 C2508 0.956 . S
H2521 C2508 0.961 . S
H2522 C2508 0.961 . S
H2523 C2509 0.958 . S
H2524 C2509 0.961 . S
H2525 C2509 0.960 . S
C2526 C2527 1.391 . S
C2526 C2528 1.394 . S
C2526 H2542 0.931 . S
C2527 C2526 1.391 . S
C2527 C2531 1.376 . S
C2528 C2526 1.394 . S
C2528 C2529 1.369 . S
C2528 C2532 1.531 . S
C2529 C2528 1.369 . S
C2529 C2530 1.410 . S
C2529 C2537 1.503 . S
C2530 C2529 1.410 . S
C2530 C2531 1.392 . S
C2530 C2533 1.511 . S
C2531 C2527 1.376 . S
C2531 C2530 1.392 . S
C2531 H2543 0.929 . S
C2532 C2528 1.531 . S
C2532 H2544 0.960 . S
C2532 H2545 0.962 . S
C2532 H2546 0.960 . S
C2533 C2530 1.511 . S
C2533 H2547 0.961 . S
C2533 H2548 0.961 . S
C2533 H2549 0.961 . S
C2534 C2535 1.370 . S
C2534 C2536 1.363 . S
C2534 H2550 0.931 . S
C2535 C2534 1.370 . S
C2535 C2539 1.408 . S
C2536 C2534 1.363 . S
C2536 C2537 1.370 . S
C2536 C2540 1.524 . S
C2537 C2529 1.503 . S
C2537 C2536 1.370 . S
C2537 C2538 1.403 . S
C2538 C2537 1.403 . S
C2538 C2539 1.404 . S
C2538 C2541 1.539 . S
C2539 C2535 1.408 . S
C2539 C2538 1.404 . S
C2539 H2551 0.930 . S
C2540 C2536 1.524 . S
C2540 H2552 0.956 . S
C2540 H2553 0.961 . S
C2540 H2554 0.961 . S
C2541 C2538 1.539 . S
C2541 H2555 0.958 . S
C2541 H2556 0.961 . S
C2541 H2557 0.960 . S
H2542 C2526 0.931 . S
H2543 C2531 0.929 . S
H2544 C2532 0.960 . S
H2545 C2532 0.962 . S
H2546 C2532 0.960 . S
H2547 C2533 0.961 . S
H2548 C2533 0.961 . S
H2549 C2533 0.961 . S
H2550 C2534 0.931 . S
H2551 C2539 0.930 . S
H2552 C2540 0.956 . S
H2553 C2540 0.961 . S
H2554 C2540 0.961 . S
H2555 C2541 0.958 . S
H2556 C2541 0.961 . S
H2557 C2541 0.960 . S
C2558 C2559 1.391 . S
C2558 C2560 1.394 . S
C2558 H2574 0.931 . S
C2559 C2558 1.391 . S
C2559 C2563 1.376 . S
C2560 C2558 1.394 . S
C2560 C2561 1.369 . S
C2560 C2564 1.531 . S
C2561 C2560 1.369 . S
C2561 C2562 1.410 . S
C2561 C2569 1.503 . S
C2562 C2561 1.410 . S
C2562 C2563 1.392 . S
C2562 C2565 1.511 . S
C2563 C2559 1.376 . S
C2563 C2562 1.392 . S
C2563 H2575 0.929 . S
C2564 C2560 1.531 . S
C2564 H2576 0.960 . S
C2564 H2577 0.962 . S
C2564 H2578 0.960 . S
C2565 C2562 1.511 . S
C2565 H2579 0.961 . S
C2565 H2580 0.961 . S
C2565 H2581 0.961 . S
C2566 C2567 1.370 . S
C2566 C2568 1.363 . S
C2566 H2582 0.931 . S
C2567 C2566 1.370 . S
C2567 C2571 1.408 . S
C2568 C2566 1.363 . S
C2568 C2569 1.370 . S
C2568 C2572 1.524 . S
C2569 C2561 1.503 . S
C2569 C2568 1.370 . S
C2569 C2570 1.403 . S
C2570 C2569 1.403 . S
C2570 C2571 1.404 . S
C2570 C2573 1.539 . S
C2571 C2567 1.408 . S
C2571 C2570 1.404 . S
C2571 H2583 0.930 . S
C2572 C2568 1.524 . S
C2572 H2584 0.956 . S
C2572 H2585 0.961 . S
C2572 H2586 0.961 . S
C2573 C2570 1.539 . S
C2573 H2587 0.958 . S
C2573 H2588 0.961 . S
C2573 H2589 0.960 . S
H2574 C2558 0.931 . S
H2575 C2563 0.929 . S
H2576 C2564 0.960 . S
H2577 C2564 0.962 . S
H2578 C2564 0.960 . S
H2579 C2565 0.961 . S
H2580 C2565 0.961 . S
H2581 C2565 0.961 . S
H2582 C2566 0.931 . S
H2583 C2571 0.930 . S
H2584 C2572 0.956 . S
H2585 C2572 0.961 . S
H2586 C2572 0.961 . S
H2587 C2573 0.958 . S
H2588 C2573 0.961 . S
H2589 C2573 0.960 . S
C2590 C2591 1.391 . S
C2590 C2592 1.394 . S
C2590 H2606 0.931 . S
C2591 C2590 1.391 . S
C2591 C2595 1.376 . S
C2592 C2590 1.394 . S
C2592 C2593 1.369 . S
C2592 C2596 1.531 . S
C2593 C2592 1.369 . S
C2593 C2594 1.410 . S
C2593 C2601 1.503 . S
C2594 C2593 1.410 . S
C2594 C2595 1.392 . S
C2594 C2597 1.511 . S
C2595 C2591 1.376 . S
C2595 C2594 1.392 . S
C2595 H2607 0.929 . S
C2596 C2592 1.531 . S
C2596 H2608 0.960 . S
C2596 H2609 0.962 . S
C2596 H2610 0.960 . S
C2597 C2594 1.511 . S
C2597 H2611 0.961 . S
C2597 H2612 0.961 . S
C2597 H2613 0.961 . S
C2598 C2599 1.370 . S
C2598 C2600 1.363 . S
C2598 H2614 0.931 . S
C2599 C2598 1.370 . S
C2599 C2603 1.408 . S
C2600 C2598 1.363 . S
C2600 C2601 1.370 . S
C2600 C2604 1.524 . S
C2601 C2593 1.503 . S
C2601 C2600 1.370 . S
C2601 C2602 1.403 . S
C2602 C2601 1.403 . S
C2602 C2603 1.404 . S
C2602 C2605 1.539 . S
C2603 C2599 1.408 . S
C2603 C2602 1.404 . S
C2603 H2615 0.930 . S
C2604 C2600 1.524 . S
C2604 H2616 0.956 . S
C2604 H2617 0.961 . S
C2604 H2618 0.961 . S
C2605 C2602 1.539 . S
C2605 H2619 0.958 . S
C2605 H2620 0.961 . S
C2605 H2621 0.960 . S
H2606 C2590 0.931 . S
H2607 C2595 0.929 . S
H2608 C2596 0.960 . S
H2609 C2596 0.962 . S
H2610 C2596 0.960 . S
H2611 C2597 0.961 . S
H2612 C2597 0.961 . S
H2613 C2597 0.961 . S
H2614 C2598 0.931 . S
H2615 C2603 0.930 . S
H2616 C2604 0.956 . S
H2617 C2604 0.961 . S
H2618 C2604 0.961 . S
H2619 C2605 0.958 . S
H2620 C2605 0.961 . S
H2621 C2605 0.960 . S
C2622 C2623 1.391 . S
C2622 C2624 1.394 . S
C2622 H2638 0.931 . S
C2623 C2622 1.391 . S
C2623 C2627 1.376 . S
C2624 C2622 1.394 . S
C2624 C2625 1.369 . S
C2624 C2628 1.531 . S
C2625 C2624 1.369 . S
C2625 C2626 1.410 . S
C2625 C2633 1.503 . S
C2626 C2625 1.410 . S
C2626 C2627 1.392 . S
C2626 C2629 1.511 . S
C2627 C2623 1.376 . S
C2627 C2626 1.392 . S
C2627 H2639 0.929 . S
C2628 C2624 1.531 . S
C2628 H2640 0.960 . S
C2628 H2641 0.962 . S
C2628 H2642 0.960 . S
C2629 C2626 1.511 . S
C2629 H2643 0.961 . S
C2629 H2644 0.961 . S
C2629 H2645 0.961 . S
C2630 C2631 1.370 . S
C2630 C2632 1.363 . S
C2630 H2646 0.931 . S
C2631 C2630 1.370 . S
C2631 C2635 1.408 . S
C2632 C2630 1.363 . S
C2632 C2633 1.370 . S
C2632 C2636 1.524 . S
C2633 C2625 1.503 . S
C2633 C2632 1.370 . S
C2633 C2634 1.403 . S
C2634 C2633 1.403 . S
C2634 C2635 1.404 . S
C2634 C2637 1.539 . S
C2635 C2631 1.408 . S
C2635 C2634 1.404 . S
C2635 H2647 0.930 . S
C2636 C2632 1.524 . S
C2636 H2648 0.956 . S
C2636 H2649 0.961 . S
C2636 H2650 0.961 . S
C2637 C2634 1.539 . S
C2637 H2651 0.958 . S
C2637 H2652 0.961 . S
C2637 H2653 0.960 . S
H2638 C2622 0.931 . S
H2639 C2627 0.929 . S
H2640 C2628 0.960 . S
H2641 C2628 0.962 . S
H2642 C2628 0.960 . S
H2643 C2629 0.961 . S
H2644 C2629 0.961 . S
H2645 C2629 0.961 . S
H2646 C2630 0.931 . S
H2647 C2635 0.930 . S
H2648 C2636 0.956 . S
H2649 C2636 0.961 . S
H2650 C2636 0.961 . S
H2651 C2637 0.958 . S
H2652 C2637 0.961 . S
H2653 C2637 0.960 . S
C2654 C2655 1.391 . S
C2654 C2656 1.394 . S
C2654 H2670 0.931 . S
C2655 C2654 1.391 . S
C2655 C2659 1.376 . S
C2656 C2654 1.394 . S
C2656 C2657 1.369 . S
C2656 C2660 1.531 . S
C2657 C2656 1.369 . S
C2657 C2658 1.410 . S
C2657 C2665 1.503 . S
C2658 C2657 1.410 . S
C2658 C2659 1.392 . S
C2658 C2661 1.511 . S
C2659 C2655 1.376 . S
C2659 C2658 1.392 . S
C2659 H2671 0.929 . S
C2660 C2656 1.531 . S
C2660 H2672 0.960 . S
C2660 H2673 0.962 . S
C2660 H2674 0.960 . S
C2661 C2658 1.511 . S
C2661 H2675 0.961 . S
C2661 H2676 0.961 . S
C2661 H2677 0.961 . S
C2662 C2663 1.370 . S
C2662 C2664 1.363 . S
C2662 H2678 0.931 . S
C2663 C2662 1.370 . S
C2663 C2667 1.408 . S
C2664 C2662 1.363 . S
C2664 C2665 1.370 . S
C2664 C2668 1.524 . S
C2665 C2657 1.503 . S
C2665 C2664 1.370 . S
C2665 C2666 1.403 . S
C2666 C2665 1.403 . S
C2666 C2667 1.404 . S
C2666 C2669 1.539 . S
C2667 C2663 1.408 . S
C2667 C2666 1.404 . S
C2667 H2679 0.930 . S
C2668 C2664 1.524 . S
C2668 H2680 0.956 . S
C2668 H2681 0.961 . S
C2668 H2682 0.961 . S
C2669 C2666 1.539 . S
C2669 H2683 0.958 . S
C2669 H2684 0.961 . S
C2669 H2685 0.960 . S
H2670 C2654 0.931 . S
H2671 C2659 0.929 . S
H2672 C2660 0.960 . S
H2673 C2660 0.962 . S
H2674 C2660 0.960 . S
H2675 C2661 0.961 . S
H2676 C2661 0.961 . S
H2677 C2661 0.961 . S
H2678 C2662 0.931 . S
H2679 C2667 0.930 . S
H2680 C2668 0.956 . S
H2681 C2668 0.961 . S
H2682 C2668 0.961 . S
H2683 C2669 0.958 . S
H2684 C2669 0.961 . S
H2685 C2669 0.960 . S
C2686 C2687 1.391 . S
C2686 C2688 1.394 . S
C2686 H2702 0.931 . S
C2687 C2686 1.391 . S
C2687 C2691 1.376 . S
C2688 C2686 1.394 . S
C2688 C2689 1.369 . S
C2688 C2692 1.531 . S
C2689 C2688 1.369 . S
C2689 C2690 1.410 . S
C2689 C2697 1.503 . S
C2690 C2689 1.410 . S
C2690 C2691 1.392 . S
C2690 C2693 1.511 . S
C2691 C2687 1.376 . S
C2691 C2690 1.392 . S
C2691 H2703 0.929 . S
C2692 C2688 1.531 . S
C2692 H2704 0.960 . S
C2692 H2705 0.962 . S
C2692 H2706 0.960 . S
C2693 C2690 1.511 . S
C2693 H2707 0.961 . S
C2693 H2708 0.961 . S
C2693 H2709 0.961 . S
C2694 C2695 1.370 . S
C2694 C2696 1.363 . S
C2694 H2710 0.931 . S
C2695 C2694 1.370 . S
C2695 C2699 1.408 . S
C2696 C2694 1.363 . S
C2696 C2697 1.370 . S
C2696 C2700 1.524 . S
C2697 C2689 1.503 . S
C2697 C2696 1.370 . S
C2697 C2698 1.403 . S
C2698 C2697 1.403 . S
C2698 C2699 1.404 . S
C2698 C2701 1.539 . S
C2699 C2695 1.408 . S
C2699 C2698 1.404 . S
C2699 H2711 0.930 . S
C2700 C2696 1.524 . S
C2700 H2712 0.956 . S
C2700 H2713 0.961 . S
C2700 H2714 0.961 . S
C2701 C2698 1.539 . S
C2701 H2715 0.958 . S
C2701 H2716 0.961 . S
C2701 H2717 0.960 . S
H2702 C2686 0.931 . S
H2703 C2691 0.929 . S
H2704 C2692 0.960 . S
H2705 C2692 0.962 . S
H2706 C2692 0.960 . S
H2707 C2693 0.961 . S
H2708 C2693 0.961 . S
H2709 C2693 0.961 . S
H2710 C2694 0.931 . S
H2711 C2699 0.930 . S
H2712 C2700 0.956 . S
H2713 C2700 0.961 . S
H2714 C2700 0.961 . S
H2715 C2701 0.958 . S
H2716 C2701 0.961 . S
H2717 C2701 0.960 . S
C991 C177 1.455 . S
C999 C301 1.405 . S
C1023 C190 1.485 . S
C1031 C385 1.441 . S
C1055 C164 1.445 . S
C1063 C465 1.436 . S
C1087 C151 1.422 . S
C1095 C381 1.431 1_556 S
C1127 C469 1.393 . S
C1119 C125 1.443 . S
C1151 C138 1.412 . S
C1159 C297 1.394 1_556 S
C1191 C290 1.459 . S
C1183 C147 1.475 . S
C1223 C374 1.478 . S
C1215 C121 1.491 . S
C1247 C134 1.429 . S
C1255 C476 1.475 1_556 S
C1279 C173 1.436 . S
C1287 C392 1.443 . S
C1311 C186 1.383 . S
C1319 C458 1.403 . S
C1351 C308 1.443 . S
C1343 C160 1.453 . S
C1383 C553 1.392 . S
C1375 C21 1.445 . S
C1407 C34 1.473 . S
C1415 C637 1.428 . S
C1439 C8 1.434 . S
C1447 C717 1.447 . S
C1471 C229 1.416 . S
C1479 C633 1.429 . S
C1503 C203 1.428 . S
C1511 C721 1.377 . S
C1535 C216 1.393 . S
C1543 C549 1.405 . S
C1567 C225 1.462 . S
C1575 C542 1.455 . S
C1599 C199 1.488 . S
C1607 C626 1.483 . S
C1639 C728 1.470 . S
C1631 C212 1.438 . S
C1663 C17 1.469 . S
C1671 C644 1.458 . S
C1703 C710 1.432 . S
C1695 C30 1.454 . S
C1727 C4 1.383 . S
C1735 C560 1.427 . S
C1767 C805 1.391 . S
C1759 C99 1.445 . S
C1791 C112 1.470 . S
C1799 C889 1.424 . S
C1831 C969 1.448 . S
C1823 C86 1.434 . S
C1863 C885 1.418 . S
C1855 C73 1.424 . S
C1895 C973 1.395 . S
C1887 C47 1.441 . S
C1919 C60 1.393 . S
C1927 C801 1.399 . S
C1951 C69 1.429 . S
C1959 C794 1.441 . S
C1983 C43 1.479 . S
C1991 C878 1.480 . S
C2023 C980 1.488 . S
C2015 C56 1.499 . S
C2047 C95 1.463 . S
C2055 C896 1.466 . S
C2079 C108 1.445 . S
C2087 C962 1.432 . S
C2111 C82 1.443 . S
C2119 C812 1.447 . S
C2143 C204 1.542 . S
C2151 C304 1.442 . S
C2183 C388 1.456 . S
C2175 C217 1.607 . S
C2207 C230 1.577 . S
C2215 C460 1.375 . S
C2239 C87 1.570 . S
C2247 C376 1.403 . S
C2271 C100 1.579 . S
C2279 C472 1.464 . S
C2311 C292 1.386 . S
C2303 C113 1.521 . S
C2335 C48 1.556 . S
C2343 C556 1.457 . S
C2367 C61 1.615 . S
C2375 C640 1.456 . S
C2399 C74 1.577 . S
C2407 C712 1.375 . S
C2431 C165 1.573 . S
C2439 C628 1.415 . S
C2471 C724 1.462 . S
C2463 C178 1.586 . S
C2495 C191 1.540 . S
C2503 C544 1.355 . S
C2527 C126 1.566 . S
C2535 C808 1.436 . S
C2559 C139 1.617 . S
C2567 C892 1.495 . S
C2599 C964 1.401 . S
C2591 C152 1.570 . S
C2623 C9 1.574 . S
C2631 C880 1.417 . S
C2655 C22 1.565 . S
C2663 C976 1.426 . S
C2687 C35 1.528 . S
C2695 C796 1.341 . S
