# Generated by pormake.
# Topology pyr, (3,6)-cn, num edge types: 1
# Building blocks:
#     Node 0, Type 0, BuildingBlock: CUQRIR_clean_linker_1, # of connection points: 3
#     Node 1, Type 0, BuildingBlock: CUQRIR_clean_linker_1, # of connection points: 3
#     Node 2, Type 0, BuildingBlock: CUQRIR_clean_linker_1, # of connection points: 3
#     Node 3, Type 0, BuildingBlock: CUQRIR_clean_linker_1, # of connection points: 3
#     Node 4, Type 0, BuildingBlock: CUQRIR_clean_linker_1, # of connection points: 3
#     Node 5, Type 0, BuildingBlock: CUQRIR_clean_linker_1, # of connection points: 3
#     Node 6, Type 0, BuildingBlock: CUQRIR_clean_linker_1, # of connection points: 3
#     Node 7, Type 0, BuildingBlock: CUQRIR_clean_linker_1, # of connection points: 3
#     Node 8, Type 1, BuildingBlock: JUFBIX_clean_sbu_0, # of connection points: 6
#     Node 9, Type 1, BuildingBlock: JUFBIX_clean_sbu_0, # of connection points: 6
#     Node 10, Type 1, BuildingBlock: JUFBIX_clean_sbu_0, # of connection points: 6
#     Node 11, Type 1, BuildingBlock: JUFBIX_clean_sbu_0, # of connection points: 6
#     Edge 12, Type (0, 1), BuildingBlock: TEMPAE_clean_linker_10, # of connection points: 2
#     Edge 13, Type (0, 1), BuildingBlock: TEMPAE_clean_linker_10, # of connection points: 2
#     Edge 14, Type (0, 1), BuildingBlock: TEMPAE_clean_linker_10, # of connection points: 2
#     Edge 15, Type (0, 1), BuildingBlock: TEMPAE_clean_linker_10, # of connection points: 2
#     Edge 16, Type (0, 1), BuildingBlock: TEMPAE_clean_linker_10, # of connection points: 2
#     Edge 17, Type (0, 1), BuildingBlock: TEMPAE_clean_linker_10, # of connection points: 2
#     Edge 18, Type (0, 1), BuildingBlock: TEMPAE_clean_linker_10, # of connection points: 2
#     Edge 19, Type (0, 1), BuildingBlock: TEMPAE_clean_linker_10, # of connection points: 2
#     Edge 20, Type (0, 1), BuildingBlock: TEMPAE_clean_linker_10, # of connection points: 2
#     Edge 21, Type (0, 1), BuildingBlock: TEMPAE_clean_linker_10, # of connection points: 2
#     Edge 22, Type (0, 1), BuildingBlock: TEMPAE_clean_linker_10, # of connection points: 2
#     Edge 23, Type (0, 1), BuildingBlock: TEMPAE_clean_linker_10, # of connection points: 2
#     Edge 24, Type (0, 1), BuildingBlock: TEMPAE_clean_linker_10, # of connection points: 2
#     Edge 25, Type (0, 1), BuildingBlock: TEMPAE_clean_linker_10, # of connection points: 2
#     Edge 26, Type (0, 1), BuildingBlock: TEMPAE_clean_linker_10, # of connection points: 2
#     Edge 27, Type (0, 1), BuildingBlock: TEMPAE_clean_linker_10, # of connection points: 2
#     Edge 28, Type (0, 1), BuildingBlock: TEMPAE_clean_linker_10, # of connection points: 2
#     Edge 29, Type (0, 1), BuildingBlock: TEMPAE_clean_linker_10, # of connection points: 2
#     Edge 30, Type (0, 1), BuildingBlock: TEMPAE_clean_linker_10, # of connection points: 2
#     Edge 31, Type (0, 1), BuildingBlock: TEMPAE_clean_linker_10, # of connection points: 2
#     Edge 32, Type (0, 1), BuildingBlock: TEMPAE_clean_linker_10, # of connection points: 2
#     Edge 33, Type (0, 1), BuildingBlock: TEMPAE_clean_linker_10, # of connection points: 2
#     Edge 34, Type (0, 1), BuildingBlock: TEMPAE_clean_linker_10, # of connection points: 2
#     Edge 35, Type (0, 1), BuildingBlock: TEMPAE_clean_linker_10, # of connection points: 2
# Relax obj value: 0.141
# Max RMSD: 0.221
# Mean RMSD: 0.152
data_MOF--net-pry--node1-JUFBIX_clean_sbu_0--node2-CUQRIR_clean_linker_1--edge1-TEMPAE_clean_linker_10
_symmetry_space_group_name_H-M    P1
_symmetry_Int_Tables_number       1
_symmetry_cell_setting            triclinic
loop_
_symmetry_equiv_pos_as_xyz
'x, y, z'
_cell_length_a     35.127295
_cell_length_b     33.388161
_cell_length_c     34.467913
_cell_angle_alpha  81.398601
_cell_angle_beta   90.561673
_cell_angle_gamma 94.132424
loop_
_atom_site_label
_atom_site_type_symbol
_atom_site_fract_x
_atom_site_fract_y
_atom_site_fract_z
_atom_type_partial_charge
C0 C 0.18775 0.20792 0.18924 0.0
N1 N 0.21464 0.18095 0.20017 0.0
N2 N 0.19821 0.23379 0.15624 0.0
C3 C 0.15217 0.21029 0.21266 0.0
C4 C 0.23279 0.22143 0.14743 0.0
N5 N 0.24326 0.18937 0.17406 0.0
C6 C 0.25523 0.23942 0.11128 0.0
H7 H 0.1367 0.17983 0.21862 0.0
H8 H 0.13281 0.23242 0.19776 0.0
H9 H 0.1603 0.21951 0.2414 0.0
H10 H 0.23622 0.25344 0.088 0.0
H11 H 0.27084 0.21593 0.0998 0.0
H12 H 0.2763 0.26343 0.11881 0.0
C13 C 0.40805 0.81595 0.6727 0.0
N14 N 0.40657 0.84855 0.69137 0.0
N15 N 0.43406 0.79099 0.68986 0.0
C16 C 0.38266 0.80737 0.63896 0.0
C17 C 0.44858 0.80974 0.71954 0.0
N18 N 0.4315 0.84461 0.72058 0.0
C19 C 0.47779 0.79324 0.74865 0.0
H20 H 0.35508 0.79241 0.65081 0.0
H21 H 0.39586 0.78709 0.62106 0.0
H22 H 0.3766 0.83578 0.61963 0.0
H23 H 0.49423 0.77029 0.73745 0.0
H24 H 0.46296 0.77859 0.77594 0.0
H25 H 0.49763 0.81832 0.7562 0.0
C26 C 0.67447 0.35859 0.83905 0.0
N27 N 0.69734 0.35714 0.87091 0.0
N28 N 0.68338 0.39264 0.81348 0.0
C29 C 0.64204 0.32774 0.83386 0.0
C30 C 0.71229 0.41214 0.83105 0.0
N31 N 0.72065 0.39068 0.86638 0.0
C32 C 0.734 0.45051 0.81223 0.0
H33 H 0.65327 0.30297 0.82015 0.0
H34 H 0.6195 0.34153 0.81461 0.0
H35 H 0.62916 0.31416 0.86249 0.0
H36 H 0.73166 0.45405 0.77979 0.0
H37 H 0.76458 0.45055 0.82063 0.0
H38 H 0.72182 0.47693 0.82231 0.0
C39 C 0.93701 0.6348 0.40086 0.0
N40 N 0.9708 0.65656 0.39306 0.0
N41 N 0.91961 0.64588 0.432 0.0
C42 C 0.9196 0.6047 0.37618 0.0
C43 C 0.94414 0.67513 0.44316 0.0
N44 N 0.97534 0.68159 0.4196 0.0
C45 C 0.93567 0.70106 0.47379 0.0
H46 H 0.90814 0.62144 0.34883 0.0
H47 H 0.89611 0.58507 0.39197 0.0
H48 H 0.94159 0.58527 0.36801 0.0
H49 H 0.90562 0.69622 0.48389 0.0
H50 H 0.94178 0.73358 0.4618 0.0
H51 H 0.95468 0.69379 0.49938 0.0
C52 C 0.83555 0.87262 0.89089 0.0
N53 N 0.86418 0.86707 0.86623 0.0
N54 N 0.81782 0.90709 0.87808 0.0
C55 C 0.82659 0.84536 0.92909 0.0
C56 C 0.83742 0.92252 0.84443 0.0
N57 N 0.86593 0.8986 0.83718 0.0
C58 C 0.82618 0.95891 0.81665 0.0
H59 H 0.80537 0.82056 0.92362 0.0
H60 H 0.81458 0.86241 0.9508 0.0
H61 H 0.85252 0.83134 0.94174 0.0
H62 H 0.84225 0.98653 0.8242 0.0
H63 H 0.79522 0.9628 0.81901 0.0
H64 H 0.8329 0.95593 0.78587 0.0
C65 C 0.66603 0.18379 0.47481 0.0
N66 N 0.67251 0.14967 0.45978 0.0
N67 N 0.63228 0.19778 0.46199 0.0
C68 C 0.69379 0.20557 0.49937 0.0
C69 C 0.61816 0.17049 0.43929 0.0
N70 N 0.64245 0.14114 0.43803 0.0
C71 C 0.5834 0.17583 0.41368 0.0
H72 H 0.67827 0.21925 0.5214 0.0
H73 H 0.70994 0.23059 0.48017 0.0
H74 H 0.71411 0.18465 0.51469 0.0
H75 H 0.59249 0.18935 0.38351 0.0
H76 H 0.56391 0.19612 0.42501 0.0
H77 H 0.56799 0.14593 0.41204 0.0
C78 C 0.33305 0.65828 0.1777 0.0
N79 N 0.36396 0.67895 0.19063 0.0
N80 N 0.31877 0.67968 0.14494 0.0
C81 C 0.31486 0.61903 0.19907 0.0
C82 C 0.34194 0.71417 0.13866 0.0
N83 N 0.36912 0.71383 0.16664 0.0
C84 C 0.3392 0.74747 0.1043 0.0
H85 H 0.28356 0.61681 0.19419 0.0
H86 H 0.32048 0.6163 0.23107 0.0
H87 H 0.32721 0.59328 0.18794 0.0
H88 H 0.32237 0.7715 0.11315 0.0
H89 H 0.32496 0.73579 0.07896 0.0
H90 H 0.36796 0.76148 0.09519 0.0
C91 C 0.05162 0.38335 0.6044 0.0
N92 N 0.07749 0.37064 0.58094 0.0
N93 N 0.06375 0.41949 0.61503 0.0
C94 C 1.01531 0.35954 0.61916 0.0
C95 C 0.09767 0.42878 0.59635 0.0
N96 N 0.10598 0.39927 0.57548 0.0
C97 C 0.12584 0.46265 0.60459 0.0
H98 H 0.99338 0.38049 0.62432 0.0
H99 H 0.02085 0.34034 0.64751 0.0
H100 H 1.00434 0.33962 0.59789 0.0
H101 H 0.14169 0.45238 0.63186 0.0
H102 H 0.11085 0.48972 0.60906 0.0
H103 H 0.14667 0.47119 0.58024 0.0
Co104 Co 0.03064 0.01372 0.50244 0.0
C105 C 0.06029 0.93682 0.50374 0.0
Co106 Co 0.08575 0.00513 0.53226 0.0
C107 C 0.95277 0.03251 0.48582 0.0
C108 C 0.97534 0.99959 0.44365 0.0
N109 N 0.98454 0.01576 0.47635 0.0
N110 N 0.9239 0.02739 0.46037 0.0
C111 C 0.93816 0.00657 0.43382 0.0
H112 H 0.95119 0.04853 0.51075 0.0
H113 H 0.99441 0.98348 0.42811 0.0
C114 C 0.05653 0.0825 0.52942 0.0
N115 N 0.13254 0.00482 0.5574 0.0
C116 C 0.14819 0.97693 0.5841 0.0
C117 C 0.15877 0.03677 0.55219 0.0
N118 N 0.18282 0.99082 0.59603 0.0
C119 C 0.18948 0.02836 0.57593 0.0
C120 C 0.09387 0.03611 0.45133 0.0
O121 O 0.02842 0.0682 0.5112 0.0
O122 O 0.08284 0.05967 0.54147 0.0
O123 O 0.11196 0.02477 0.48279 0.0
O124 O 0.05747 0.03354 0.45286 0.0
O125 O 0.08864 0.95068 0.52217 0.0
H126 H 0.15587 0.06453 0.53209 0.0
H127 H 0.1345 0.94726 0.59466 0.0
O128 O 0.03303 0.95915 0.49365 0.0
O129 O 1.00423 0.99437 0.55222 0.0
O130 O 0.05886 0.98512 0.58215 0.0
C131 C 0.02235 0.98314 0.58387 0.0
H132 H 0.92281 0.9965 0.40926 0.0
H133 H 0.21533 0.04781 0.57736 0.0
Co134 Co 0.52372 0.04423 0.02482 0.0
C135 C 0.51447 0.97364 0.08044 0.0
Co136 Co 0.55812 0.04477 0.07862 0.0
C137 C 0.50096 0.03318 0.94552 0.0
C138 C 0.45347 0.03936 0.98188 0.0
N139 N 0.49198 0.04136 0.98143 0.0
N140 N 0.46966 0.02522 0.92399 0.0
C141 C 0.43979 0.02961 0.94684 0.0
H142 H 0.52988 0.03099 0.93612 0.0
H143 H 0.43606 0.04161 1.00702 0.0
C144 C 0.56884 0.11507 0.02364 0.0
N145 N 0.58955 0.04658 0.12188 0.0
C146 C 0.58011 0.04396 0.1601 0.0
C147 C 0.62807 0.05082 0.12124 0.0
N148 N 0.61125 0.04599 0.18318 0.0
C149 C 0.64145 0.05024 0.15885 0.0
C150 C 0.59571 0.0138 1.0167 0.0
O151 O 0.54432 0.09729 1.00329 0.0
O152 O 0.57778 0.09747 0.05741 0.0
O153 O 0.59902 0.02147 0.05182 0.0
O154 O 0.5643 0.02092 0.99918 0.0
O155 O 0.53894 0.99235 0.09972 0.0
H156 H 0.64546 0.05489 0.09504 0.0
H157 H 0.55103 0.04083 0.17082 0.0
O158 O 0.50374 0.99086 0.04704 0.0
O159 O 0.48368 0.06789 0.05062 0.0
O160 O 0.51617 0.06774 0.10486 0.0
C161 C 0.48537 0.07518 0.08582 0.0
H162 H 0.41004 0.02285 0.94027 0.0
H163 H 0.67102 0.05438 0.16751 0.0
Co164 Co 0.53748 0.54038 0.49649 0.0
C165 C 0.48037 0.55272 0.44126 0.0
Co166 Co 0.4857 0.49943 0.51079 0.0
C167 C 0.61658 0.56912 0.48854 0.0
C168 C 0.57931 0.61724 0.47465 0.0
N169 N 0.5794 0.57677 0.48576 0.0
N170 N 0.63975 0.60325 0.4798 0.0
C171 C 0.61638 0.63362 0.47101 0.0
H172 H 0.62641 0.53912 0.49744 0.0
H173 H 0.55389 0.63375 0.46963 0.0
C174 C 0.54423 0.48833 0.56559 0.0
N175 N 0.44387 0.46221 0.52145 0.0
C176 C 0.40614 0.46788 0.51965 0.0
C177 C 0.44574 0.42172 0.53107 0.0
N178 N 0.38452 0.4324 0.52741 0.0
C179 C 0.40942 0.40336 0.53464 0.0
C180 C 0.54056 0.46957 0.46673 0.0
O181 O 0.56058 0.51772 0.54285 0.0
O182 O 0.51084 0.47469 0.55721 0.0
O183 O 0.50728 0.46357 0.48132 0.0
O184 O 0.56004 0.50252 0.46962 0.0
O185 O 0.46141 0.52506 0.46423 0.0
H186 H 0.47195 0.40643 0.53487 0.0
H187 H 0.39478 0.49732 0.51199 0.0
O188 O 0.51444 0.56307 0.45001 0.0
O189 O 0.51481 0.57751 0.52408 0.0
O190 O 0.46466 0.53525 0.5407 0.0
C191 C 0.48325 0.56901 0.5421 0.0
H192 H 0.62542 0.66529 0.46196 0.0
H193 H 0.40189 0.37116 0.5424 0.0
Co194 Co 0.0317 0.54053 0.97681 0.0
C195 C 0.95846 0.50125 0.98524 0.0
Co196 Co 1.0047 0.54199 0.03399 0.0
C197 C 0.04488 0.51566 0.90135 0.0
C198 C 0.07695 0.57092 0.90889 0.0
N199 N 0.05286 0.54115 0.92773 0.0
N200 N 0.06297 0.52848 0.86688 0.0
C201 C 0.08337 0.5631 0.87163 0.0
H202 H 0.02555 0.4887 0.90697 0.0
H203 H 0.08792 0.59764 0.92078 0.0
C204 C 0.07725 0.58065 0.02592 0.0
N205 N 0.98448 0.54297 0.08342 0.0
C206 C 0.99212 0.57151 0.10698 0.0
C207 C 0.96385 0.51273 0.10588 0.0
N208 N 0.97766 0.56007 0.14343 0.0
C209 C 0.95953 0.52316 0.14268 0.0
C210 C 0.04992 0.4744 0.03264 0.0
O211 O 0.07612 0.57 0.99215 0.0
O212 O 0.04869 0.57162 0.04838 0.0
O213 O 0.02853 0.49161 0.05398 0.0
O214 O 0.05456 0.49021 0.99676 0.0
O215 O 0.96026 0.51166 0.01925 0.0
H216 H 0.95426 0.48407 0.09675 0.0
H217 H 1.00901 0.59969 0.09788 0.0
O218 O 0.98669 0.51089 0.96204 0.0
O219 O 1.0094 0.59068 0.95713 0.0
O220 O 0.98169 0.59284 1.01323 0.0
C221 C 0.98831 0.60885 0.97763 0.0
H222 H 0.10027 0.58242 0.84917 0.0
H223 H 0.94585 0.50404 0.1675 0.0
C224 C 0.19321 0.11397 0.23728 0.0
C225 C 0.21235 0.15248 0.23661 0.0
C226 C 0.17729 0.09166 0.27237 0.0
C227 C 0.17928 0.10862 0.30788 0.0
C228 C 0.20044 0.14656 0.30771 0.0
C229 C 0.2169 0.1676 0.27243 0.0
C230 C 0.1562 0.05098 0.27077 0.0
C231 C 0.20307 0.16671 0.34411 0.0
C232 C 0.09784 0.07856 0.38353 0.0
C233 C 0.11518 0.05323 0.4139 0.0
C234 C 0.11824 0.09658 0.34926 0.0
C235 C 0.15695 0.08852 0.34417 0.0
C236 C 0.17429 0.06212 0.37432 0.0
C237 C 0.15354 0.04541 0.40878 0.0
C238 C 0.09845 0.12507 0.31871 0.0
C239 C 0.21492 0.0515 0.37021 0.0
H240 H 0.18831 0.10256 0.2097 0.0
H241 H 0.23037 0.1979 0.272 0.0
H242 H 0.16407 0.02854 0.29614 0.0
H243 H 0.12504 0.05396 0.2725 0.0
H244 H 0.16223 0.03906 0.24322 0.0
H245 H 0.22309 0.19433 0.34032 0.0
H246 H 0.17439 0.17552 0.35129 0.0
H247 H 0.21253 0.14534 0.36953 0.0
H248 H 0.06843 0.08522 0.38698 0.0
H249 H 0.16742 0.02583 0.43173 0.0
H250 H 0.09797 0.1134 0.29022 0.0
H251 H 0.1145 0.15528 0.31415 0.0
H252 H 0.06865 0.129 0.32712 0.0
H253 H 0.21832 0.03917 0.34237 0.0
H254 H 0.22375 0.02882 0.39498 0.0
H255 H 0.23454 0.07923 0.36884 0.0
C256 C 0.45178 0.9132 0.73317 0.0
C257 C 0.43878 0.87319 0.7474 0.0
C258 C 0.45902 0.9417 0.75885 0.0
C259 C 0.4523 0.92979 0.79951 0.0
C260 C 0.43865 0.88933 0.81383 0.0
C261 C 0.43224 0.8614 0.78749 0.0
C262 C 0.47401 0.98436 0.74259 0.0
C263 C 0.43049 0.87566 0.85689 0.0
C264 C 0.49814 0.98552 0.87787 0.0
C265 C 0.46778 0.00682 0.88858 0.0
C266 C 0.49425 0.96215 0.84728 0.0
C267 C 0.459 0.95949 0.8273 0.0
C268 C 0.42904 0.98269 0.8363 0.0
C269 C 0.43397 0.00643 0.86649 0.0
C270 C 0.52718 0.93852 0.83787 0.0
C271 C 0.39097 0.98058 0.81565 0.0
H272 H 0.45661 0.92186 0.70194 0.0
H273 H 0.42152 0.83047 0.79799 0.0
H274 H 0.45386 0.00644 0.7494 0.0
H275 H 0.50162 0.99182 0.75671 0.0
H276 H 0.47829 0.98846 0.71031 0.0
H277 H 0.41961 0.84327 0.8631 0.0
H278 H 0.45684 0.87985 0.87427 0.0
H279 H 0.40904 0.89456 0.86716 0.0
H280 H 0.52441 0.98531 0.89449 0.0
H281 H 0.41072 0.0236 0.87371 0.0
H282 H 0.5321 0.94264 0.80572 0.0
H283 H 0.52023 0.90565 0.84774 0.0
H284 H 0.55403 0.94785 0.85245 0.0
H285 H 0.39496 0.98621 0.78337 0.0
H286 H 0.37168 1.00287 0.82392 0.0
H287 H 0.37675 0.94965 0.82325 0.0
C288 C 0.64693 0.4425 0.77195 0.0
C289 C 0.66455 0.40586 0.77717 0.0
C290 C 0.62638 0.45462 0.73764 0.0
C291 C 0.62374 0.42946 0.70792 0.0
C292 C 0.64184 0.39249 0.71306 0.0
C293 C 0.66202 0.38109 0.74778 0.0
C294 C 0.60741 0.49422 0.73322 0.0
C295 C 0.64001 0.36512 0.68186 0.0
C296 C 0.54482 0.44596 0.63212 0.0
C297 C 0.56435 0.4711 0.60139 0.0
C298 C 0.56387 0.43175 0.66698 0.0
C299 C 0.60331 0.44269 0.67082 0.0
C300 C 0.62329 0.46719 0.63946 0.0
C301 C 0.60356 0.48119 0.60522 0.0
C302 C 0.54169 0.40578 0.69999 0.0
C303 C 0.66543 0.47915 0.64226 0.0
H304 H 0.64873 0.46118 0.79514 0.0
H305 H 0.67584 0.35277 0.7522 0.0
H306 H 0.61923 0.51493 0.70728 0.0
H307 H 0.57637 0.48871 0.72813 0.0
H308 H 0.61146 0.50972 0.75948 0.0
H309 H 0.6552 0.33713 0.69072 0.0
H310 H 0.60984 0.35625 0.67541 0.0
H311 H 0.65289 0.38164 0.65423 0.0
H312 H 0.51453 0.43815 0.6293 0.0
H313 H 0.61895 0.50032 0.58142 0.0
H314 H 0.54228 0.42151 0.72618 0.0
H315 H 0.55515 0.37669 0.70849 0.0
H316 H 0.51146 0.399 0.69194 0.0
H317 H 0.67061 0.49739 0.66643 0.0
H318 H 0.677 0.49719 0.61464 0.0
H319 H 0.6816 0.45164 0.64926 0.0
C320 C 0.97871 0.68274 0.32358 0.0
C321 C 0.99145 0.65822 0.35701 0.0
C322 C 0.98389 0.67267 0.28594 0.0
C323 C 1.00178 0.63682 0.28188 0.0
C324 C 1.01877 0.61483 0.31518 0.0
C325 C 1.01349 0.62599 0.35241 0.0
C326 C 0.9659 0.69751 0.25133 0.0
C327 C 0.03823 0.57654 0.3124 0.0
C328 C 0.95687 0.57386 0.20795 0.0
C329 C 0.98342 0.58076 0.17722 0.0
C330 C 0.96261 0.59205 0.24186 0.0
C331 C 0.99579 0.6181 0.24534 0.0
C332 C 0.02259 0.62572 0.21423 0.0
C333 C 1.01612 0.60693 0.18055 0.0
C334 C 0.93317 0.58293 0.27419 0.0
C335 C 0.05819 0.65335 0.21667 0.0
H336 H 0.96072 0.70694 0.32725 0.0
H337 H 0.02259 0.6066 0.37841 0.0
H338 H 0.98433 0.70066 0.22495 0.0
H339 H 0.93825 0.6819 0.24439 0.0
H340 H 0.96039 0.72827 0.25759 0.0
H341 H 0.05618 0.56773 0.33858 0.0
H342 H 1.01624 0.55136 0.31029 0.0
H343 H 0.05633 0.58017 0.28575 0.0
H344 H 0.93135 0.55421 0.20543 0.0
H345 H 0.03714 0.61206 0.15724 0.0
H346 H 0.9221 0.61156 0.28048 0.0
H347 H 0.94656 0.56817 0.30139 0.0
H348 H 0.90868 0.56258 0.26663 0.0
H349 H 0.05038 0.6839 0.22129 0.0
H350 H 0.076 0.65655 0.18977 0.0
H351 H 0.0756 0.64135 0.24224 0.0
C352 C 0.27929 0.12804 0.16901 0.0
C353 C 0.27906 0.16934 0.17296 0.0
C354 C 0.31322 0.11082 0.15904 0.0
C355 C 0.34813 0.13537 0.15205 0.0
C356 C 0.34821 0.17664 0.15784 0.0
C357 C 0.31418 0.19274 0.16849 0.0
C358 C 0.31123 0.06659 0.15426 0.0
C359 C 0.38387 0.20468 0.15056 0.0
C360 C 0.44634 0.08962 0.14441 0.0
C361 C 0.45105 0.09123 0.10363 0.0
C362 C 0.41308 0.10294 0.16059 0.0
C363 C 0.38352 0.1192 0.13571 0.0
C364 C 0.38846 0.12124 0.09455 0.0
C365 C 0.42151 0.10706 0.07928 0.0
C366 C 0.40938 0.09922 0.20454 0.0
C367 C 0.35876 0.13884 0.06632 0.0
H368 H 0.25252 0.10962 0.17172 0.0
H369 H 0.31456 0.22461 0.17148 0.0
H370 H 0.31372 0.06386 0.12272 0.0
H371 H 0.33537 0.05147 0.16977 0.0
H372 H 0.284 0.05027 0.16565 0.0
H373 H 0.38023 0.23513 0.15872 0.0
H374 H 0.40816 0.19139 0.16741 0.0
H375 H 0.39157 0.20849 0.119 0.0
H376 H 0.46841 0.07724 0.16386 0.0
H377 H 0.4243 0.10871 0.04778 0.0
H378 H 0.38276 0.08072 0.2144 0.0
H379 H 0.40723 0.12967 0.2132 0.0
H380 H 0.43397 0.08501 0.22014 0.0
H381 H 0.33096 0.12106 0.07206 0.0
H382 H 0.36677 0.13899 0.0352 0.0
H383 H 0.35459 0.17047 0.07079 0.0
C384 C 0.34733 0.87119 0.71449 0.0
C385 C 0.37689 0.87612 0.68697 0.0
C386 C 0.31397 0.89162 0.70664 0.0
C387 C 0.3104 0.91706 0.67027 0.0
C388 C 0.34156 0.92432 0.64372 0.0
C389 C 0.37465 0.90381 0.65261 0.0
C390 C 0.28174 0.88383 0.73602 0.0
C391 C 0.33901 0.95149 0.60474 0.0
C392 C 0.2157 0.92902 0.61832 0.0
C393 C 0.20987 0.96947 0.62118 0.0
C394 C 0.24732 0.91061 0.63632 0.0
C395 C 0.27322 0.9332 0.65798 0.0
C396 C 0.26558 0.97289 0.66368 0.0
C397 C 0.23404 0.99065 0.64496 0.0
C398 C 0.25455 0.86812 0.62966 0.0
C399 C 0.29204 0.99757 0.68727 0.0
H400 H 0.34953 0.84954 0.74104 0.0
H401 H 0.39797 0.9074 0.63173 0.0
H402 H 0.2691 0.91257 0.73958 0.0
H403 H 0.25886 0.86359 0.72525 0.0
H404 H 0.29133 0.86909 0.76517 0.0
H405 H 0.36669 0.95611 0.58882 0.0
H406 H 0.31736 0.93778 0.58604 0.0
H407 H 0.32967 0.98155 0.60904 0.0
H408 H 0.19709 0.91279 0.59978 0.0
H409 H 0.22907 0.0218 0.64757 0.0
H410 H 0.2604 0.84892 0.65791 0.0
H411 H 0.28018 0.86917 0.61084 0.0
H412 H 0.23003 0.85344 0.61519 0.0
H413 H 0.3003 0.97898 0.71508 0.0
H414 H 0.27888 0.02493 0.69424 0.0
H415 H 0.31859 0.00763 0.6703 0.0
C416 C 0.7547 0.44004 0.90301 0.0
C417 C 0.75074 0.40096 0.89269 0.0
C418 C 0.78775 0.45357 0.9218 0.0
C419 C 0.81719 0.42695 0.93138 0.0
C420 C 0.81194 0.38634 0.92378 0.0
C421 C 0.77882 0.37391 0.90418 0.0
C422 C 0.79213 0.49715 0.92908 0.0
C423 C 0.84217 0.35669 0.93433 0.0
C424 C 0.91768 0.47743 0.93208 0.0
C425 C 0.92336 0.47968 0.97206 0.0
C426 C 0.8836 0.45958 0.91864 0.0
C427 C 0.85462 0.4429 0.94589 0.0
C428 C 0.86074 0.44372 0.98645 0.0
C429 C 0.89488 0.46245 0.99903 0.0
C430 C 0.87814 0.4598 0.87508 0.0
C431 C 0.83093 0.42549 1.01646 0.0
H432 H 0.73258 0.46063 0.89462 0.0
H433 H 0.77581 0.34377 0.89597 0.0
H434 H 0.80001 0.49861 0.96009 0.0
H435 H 0.81555 0.51373 0.9105 0.0
H436 H 0.76562 0.51308 0.92232 0.0
H437 H 0.83148 0.32505 0.93183 0.0
H438 H 0.867 0.36515 0.9144 0.0
H439 H 0.85248 0.35779 0.96471 0.0
H440 H 0.93949 0.49067 0.91102 0.0
H441 H 0.89917 0.46376 0.03001 0.0
H442 H 0.85361 0.47772 0.86475 0.0
H443 H 0.87139 0.42843 0.86885 0.0
H444 H 0.90383 0.47297 0.85787 0.0
H445 H 0.80514 0.44299 1.01247 0.0
H446 H 0.84135 0.42543 0.04701 0.0
H447 H 0.8221 0.39383 1.01231 0.0
C448 C 0.869 0.61995 0.48005 0.0
C449 C 0.87998 0.63793 0.44219 0.0
C450 C 0.83019 0.61239 0.49002 0.0
C451 C 0.80211 0.62299 0.46123 0.0
C452 C 0.81334 0.64117 0.42291 0.0
C453 C 0.85219 0.64864 0.41398 0.0
C454 C 0.81921 0.59327 0.53122 0.0
C455 C 0.78433 0.65286 0.39135 0.0
C456 C 0.70088 0.57497 0.46837 0.0
C457 C 0.68081 0.60659 0.47876 0.0
C458 C 0.74071 0.57916 0.46422 0.0
C459 C 0.76087 0.61577 0.47085 0.0
C460 C 0.74094 0.64707 0.48307 0.0
C461 C 0.70111 0.64214 0.48674 0.0
C462 C 0.76097 0.54522 0.4509 0.0
C463 C 0.7615 0.6864 0.49078 0.0
H464 H 0.89086 0.61195 0.50166 0.0
H465 H 0.86108 0.66306 0.38489 0.0
H466 H 0.80159 0.61372 0.54481 0.0
H467 H 0.80156 0.56446 0.53054 0.0
H468 H 0.84453 0.58681 0.55008 0.0
H469 H 0.79792 0.6659 0.36284 0.0
H470 H 0.76537 0.62587 0.38696 0.0
H471 H 0.76607 0.67554 0.40053 0.0
H472 H 0.6853 0.54755 0.46191 0.0
H473 H 0.68574 0.66631 0.49552 0.0
H474 H 0.7855 0.53747 0.47041 0.0
H475 H 0.77253 0.55529 0.4209 0.0
H476 H 0.74172 0.51739 0.45045 0.0
H477 H 0.78583 0.6802 0.51103 0.0
H478 H 0.74237 0.70605 0.50362 0.0
H479 H 0.77338 0.7034 0.46289 0.0
C480 C 0.19385 0.30779 0.13284 0.0
C481 C 0.17779 0.26765 0.13626 0.0
C482 C 0.17345 0.3411 0.11555 0.0
C483 C 0.13587 0.33453 0.10087 0.0
C484 C 0.11992 0.29383 0.10361 0.0
C485 C 0.14095 0.26115 0.12109 0.0
C486 C 0.19199 0.38354 0.11353 0.0
C487 C 0.08032 0.28475 0.08838 0.0
C488 C 0.06844 0.42213 0.09012 0.0
C489 C 0.07077 0.43764 0.04983 0.0
C490 C 0.0892 0.3889 0.1069 0.0
C491 C 0.11318 0.37004 0.08315 0.0
C492 C 0.11538 0.38532 0.04241 0.0
C493 C 0.09441 0.41867 0.0264 0.0
C494 C 0.08567 0.37416 0.15037 0.0
C495 C 0.14019 0.36652 1.01558 0.0
H496 H 0.22221 0.31312 0.1445 0.0
H497 H 0.12845 0.23026 0.12332 0.0
H498 H 0.19291 0.39894 0.08268 0.0
H499 H 0.17478 0.40158 0.13041 0.0
H500 H 0.2215 0.38376 0.12541 0.0
H501 H 0.07215 0.25164 0.09183 0.0
H502 H 0.05924 0.29947 0.10428 0.0
H503 H 0.07849 0.29756 0.05686 0.0
H504 H 0.05058 0.43628 0.10883 0.0
H505 H 0.09679 0.43007 0.99533 0.0
H506 H 0.11411 0.3767 0.16446 0.0
H507 H 0.07535 0.34161 0.15549 0.0
H508 H 0.06579 0.39163 0.16495 0.0
H509 H 0.17034 0.3689 0.02537 0.0
H510 H 0.13861 0.3813 0.98458 0.0
H511 H 0.13144 0.33373 1.01704 0.0
C512 C 0.66727 0.33366 0.93441 0.0
C513 C 0.69255 0.32723 0.90525 0.0
C514 C 0.64952 0.30072 0.95945 0.0
C515 C 0.65772 0.26068 0.95516 0.0
C516 C 0.6864 0.25457 0.92848 0.0
C517 C 0.70327 0.28804 0.90356 0.0
C518 C 0.6192 0.30863 0.98751 0.0
C519 C 0.69657 0.21249 0.92344 0.0
C520 C 0.62076 0.16958 0.02781 0.0
C521 C 0.58932 0.15433 1.00755 0.0
C522 C 0.64283 0.2047 1.01163 0.0
C523 C 0.63309 0.22529 0.97442 0.0
C524 C 0.60063 0.21089 0.9544 0.0
C525 C 0.57923 0.17546 0.97113 0.0
C526 C 0.67732 0.21892 0.03371 0.0
C527 C 0.58903 0.23237 0.9148 0.0
H528 H 0.65853 0.36407 0.93483 0.0
H529 H 0.72231 0.28338 0.88034 0.0
H530 H 0.59062 0.30099 0.97545 0.0
H531 H 0.62175 0.2892 1.01633 0.0
H532 H 0.62077 0.34095 0.99208 0.0
H533 H 0.72314 0.21322 0.90604 0.0
H534 H 0.70031 0.19362 0.95238 0.0
H535 H 0.67299 0.19745 0.90804 0.0
H536 H 0.6289 0.15343 0.05598 0.0
H537 H 0.55496 0.16398 0.95537 0.0
H538 H 0.67638 0.25153 0.0364 0.0
H539 H 0.70362 0.21583 1.01717 0.0
H540 H 0.67944 0.20129 0.06356 0.0
H541 H 0.5851 0.26474 0.91651 0.0
H542 H 0.56215 0.21834 0.9039 0.0
H543 H 0.61195 0.23164 0.89305 0.0
C544 C 0.02749 0.71004 0.4565 0.0
C545 C 1.00566 0.71242 0.42214 0.0
C546 C 0.04545 0.74505 0.46854 0.0
C547 C 0.04186 0.78325 0.44519 0.0
C548 C 0.02409 0.78489 0.4079 0.0
C549 C 1.00573 0.7494 0.39702 0.0
C550 C 0.06383 0.74161 0.50854 0.0
C551 C 0.0205 0.82477 0.38154 0.0
C552 C 0.02284 0.87283 0.49625 0.0
C553 C 0.05805 0.89547 0.49322 0.0
C554 C 1.01787 0.83567 0.482 0.0
C555 C 0.04863 0.8212 0.46308 0.0
C556 C 0.08465 0.84355 0.46068 0.0
C557 C 0.08908 0.88036 0.47624 0.0
C558 C 0.97926 0.81239 0.48645 0.0
C559 C 0.11789 0.82962 0.44012 0.0
H560 H 0.02689 0.68138 0.47606 0.0
H561 H 0.98827 0.75143 0.37085 0.0
H562 H 0.09005 0.76226 0.50818 0.0
H563 H 0.04363 0.75057 0.52973 0.0
H564 H 0.0712 0.71006 0.51926 0.0
H565 H 1.01326 0.82023 0.35097 0.0
H566 H 0.99752 0.84108 0.39279 0.0
H567 H 0.0474 0.84438 0.38127 0.0
H568 H 0.99888 0.88456 0.50945 0.0
H569 H 0.11617 0.89826 0.47337 0.0
H570 H 0.98236 0.78096 0.50134 0.0
H571 H 0.96666 0.81039 0.45711 0.0
H572 H 0.959 0.82684 0.50366 0.0
H573 H 0.12161 0.79703 0.45036 0.0
H574 H 0.14499 0.84754 0.44486 0.0
H575 H 0.11211 0.83293 0.40814 0.0
C576 C 0.47835 0.74757 0.66479 0.0
C577 C 0.4423 0.75265 0.67927 0.0
C578 C 0.48466 0.71352 0.64706 0.0
C579 C 0.45374 0.68482 0.64282 0.0
C580 C 0.41779 0.68879 0.65942 0.0
C581 C 0.41269 0.72253 0.678 0.0
C582 C 0.52369 0.70965 0.63066 0.0
C583 C 0.38397 0.65931 0.65483 0.0
C584 C 0.46008 0.63488 0.55184 0.0
C585 C 0.47095 0.5965 0.56781 0.0
C586 C 0.45276 0.66338 0.57627 0.0
C587 C 0.45796 0.65345 0.61734 0.0
C588 C 0.46856 0.61436 0.63353 0.0
C589 C 0.47451 0.58603 0.60843 0.0
C590 C 0.44052 0.70445 0.55806 0.0
C591 C 0.47538 0.60317 0.67699 0.0
H592 H 0.50096 0.77131 0.66555 0.0
H593 H 0.38488 0.72687 0.6894 0.0
H594 H 0.53243 0.67821 0.63875 0.0
H595 H 0.52285 0.71621 0.59816 0.0
H596 H 0.54569 0.731 0.64135 0.0
H597 H 0.35925 0.6643 0.67295 0.0
H598 H 0.37503 0.66296 0.6236 0.0
H599 H 0.3917 0.62754 0.66306 0.0
H600 H 0.4578 0.64268 0.52024 0.0
H601 H 0.48371 0.55634 0.62034 0.0
H602 H 0.46327 0.72829 0.56208 0.0
H603 H 0.41447 0.71164 0.57283 0.0
H604 H 0.4346 0.70596 0.52617 0.0
H605 H 0.5 0.62241 0.68602 0.0
H606 H 0.48145 0.57078 0.68506 0.0
H607 H 0.45023 0.60907 0.69392 0.0
C608 C 0.91204 0.94551 0.79445 0.0
C609 C 0.89296 0.90679 0.80417 0.0
C610 C 0.93409 0.95648 0.75974 0.0
C611 C 0.93814 0.92804 0.73349 0.0
C612 C 0.92025 0.88822 0.744 0.0
C613 C 0.89794 0.87817 0.77888 0.0
C614 C 0.95217 0.99921 0.75059 0.0
C615 C 0.92376 0.85641 0.71773 0.0
C616 C 0.96115 0.97048 0.62462 0.0
C617 C 1.00095 0.96818 0.62211 0.0
C618 C 0.94062 0.95726 0.6601 0.0
C619 C 0.9598 0.94063 0.69469 0.0
C620 C 0.99992 0.93773 0.69225 0.0
C621 C 0.01984 0.95157 0.65643 0.0
C622 C 0.89819 0.96164 0.66063 0.0
C623 C 0.022 0.92011 0.72772 0.0
H624 H 0.90894 0.96778 0.81383 0.0
H625 H 0.88324 0.84832 0.78561 0.0
H626 H 0.98333 0.9986 0.74605 0.0
H627 H 0.94011 0.01465 0.72292 0.0
H628 H 0.94749 0.01748 0.77432 0.0
H629 H 0.911 0.82616 0.73115 0.0
H630 H 0.90921 0.86564 0.68943 0.0
H631 H 0.95423 0.85372 0.71106 0.0
H632 H 0.94584 0.98315 0.59873 0.0
H633 H 0.05041 0.94928 0.65535 0.0
H634 H 0.89148 0.98169 0.6822 0.0
H635 H 0.88282 0.93162 0.67012 0.0
H636 H 0.88715 0.97455 0.63145 0.0
H637 H 0.02002 0.93914 0.75129 0.0
H638 H 0.05261 0.91813 0.72098 0.0
H639 H 1.00941 0.88927 0.73939 0.0
C640 C 0.66298 0.13364 0.37239 0.0
C641 C 0.64303 0.1175 0.40664 0.0
C642 C 0.65805 0.11576 0.33833 0.0
C643 C 0.63288 0.08053 0.33898 0.0
C644 C 0.61469 0.06253 0.37449 0.0
C645 C 0.61965 0.08166 0.40798 0.0
C646 C 0.67772 0.1362 0.30105 0.0
C647 C 0.5885 0.02442 0.37656 0.0
C648 C 0.58742 0.07264 0.24028 0.0
C649 C 0.61262 0.04888 0.22431 0.0
C650 C 0.5925 0.08147 0.27857 0.0
C651 C 0.62308 0.06537 0.30155 0.0
C652 C 0.64682 0.03883 0.28654 0.0
C653 C 0.64159 0.0313 0.24783 0.0
C654 C 0.56687 0.11038 0.29332 0.0
C655 C 0.679 0.02021 0.31057 0.0
H656 H 0.68065 0.16172 0.37183 0.0
H657 H 0.60421 0.06969 0.43476 0.0
H658 H 0.69367 0.11412 0.28785 0.0
H659 H 0.65605 0.14771 0.27934 0.0
H660 H 0.69791 0.16207 0.30614 0.0
H661 H 0.58167 0.01082 0.40734 0.0
H662 H 0.56141 0.03166 0.36116 0.0
H663 H 0.60157 1.00155 0.36164 0.0
H664 H 0.56524 0.08644 0.22193 0.0
H665 H 0.66074 0.0125 0.23548 0.0
H666 H 0.58375 0.13904 0.29676 0.0
H667 H 0.55509 0.09724 0.32256 0.0
H668 H 0.54277 0.11777 0.27302 0.0
H669 H 0.70231 0.0439 0.31314 0.0
H670 H 0.69087 0.99556 0.2971 0.0
H671 H 0.66909 0.00776 0.34073 0.0
C672 C 0.40387 0.62944 0.2273 0.0
C673 C 0.38618 0.66592 0.22468 0.0
C674 C 0.42019 0.61225 0.26256 0.0
C675 C 0.41843 0.63207 0.29598 0.0
C676 C 0.40178 0.66984 0.29299 0.0
C677 C 0.38586 0.68642 0.25714 0.0
C678 C 0.43814 0.57225 0.26437 0.0
C679 C 0.39945 0.69187 0.32798 0.0
C680 C 0.42537 0.56528 0.39497 0.0
C681 C 0.46375 0.57321 0.40459 0.0
C682 C 0.40998 0.58489 0.36 0.0
C683 C 0.43362 0.61282 0.33409 0.0
C684 C 0.47225 0.62113 0.34382 0.0
C685 C 0.4868 0.60133 0.37893 0.0
C686 C 0.36854 0.57546 0.35055 0.0
C687 C 0.49842 0.65045 0.31683 0.0
H688 H 0.40371 0.61381 0.2019 0.0
H689 H 0.37154 0.71436 0.25487 0.0
H690 H 0.46781 0.57497 0.27553 0.0
H691 H 0.42197 0.54864 0.28512 0.0
H692 H 0.4387 0.56182 0.23526 0.0
H693 H 0.38736 0.72188 0.32023 0.0
H694 H 0.38126 0.67315 0.35098 0.0
H695 H 0.42819 0.69649 0.34088 0.0
H696 H 0.40738 0.54377 0.41471 0.0
H697 H 0.51652 0.60774 0.38607 0.0
H698 H 0.36634 0.56178 0.32313 0.0
H699 H 0.35351 0.60389 0.34543 0.0
H700 H 0.35366 0.55419 0.3744 0.0
H701 H 0.50092 0.63929 0.28828 0.0
H702 H 0.52748 0.65451 0.32931 0.0
H703 H 0.4863 0.68053 0.31079 0.0
C704 C 0.04195 0.4714 0.6516 0.0
C705 C 0.05433 0.43264 0.65127 0.0
C706 C 0.03842 0.48657 0.68716 0.0
C707 C 0.04788 0.46229 0.72281 0.0
C708 C 0.0586 0.4223 0.72253 0.0
C709 C 0.06179 0.40802 0.68666 0.0
C710 C 0.0267 0.52928 0.6864 0.0
C711 C 0.06917 0.39553 0.7598 0.0
C712 C 0.08972 0.51499 0.80494 0.0
C713 C 0.05904 0.51117 0.83118 0.0
C714 C 0.08621 0.4996 0.76938 0.0
C715 C 0.05103 0.48006 0.75974 0.0
C716 C 0.01983 0.47616 0.78602 0.0
C717 C 0.02426 0.49166 0.8216 0.0
C718 C 0.12033 0.50387 0.74232 0.0
C719 C 0.98187 0.45568 0.77655 0.0
H720 H 0.03649 0.49022 0.62395 0.0
H721 H 0.07198 0.37826 0.68596 0.0
H722 H 1.00432 0.52998 0.70872 0.0
H723 H 0.05163 0.54907 0.69381 0.0
H724 H 1.01581 0.54218 0.65715 0.0
H725 H 0.07302 0.36392 0.75493 0.0
H726 H 0.09623 0.40818 0.77155 0.0
H727 H 0.0469 0.39476 0.78254 0.0
H728 H 0.1167 0.52969 0.81252 0.0
H729 H 1.00031 0.48925 0.84157 0.0
H730 H 0.11297 0.52021 0.71309 0.0
H731 H 0.12857 0.47338 0.73797 0.0
H732 H 0.1454 0.52054 0.75391 0.0
H733 H 0.97093 0.47104 0.74829 0.0
H734 H 0.96018 0.456 0.79973 0.0
H735 H 0.98545 0.42369 0.77298 0.0
C736 C 0.78563 0.96407 0.90132 0.0
C737 C 0.7854 0.92299 0.89619 0.0
C738 C 0.75497 0.97936 0.91997 0.0
C739 C 0.72304 0.95307 0.9349 0.0
C740 C 0.72267 0.91159 0.92966 0.0
C741 C 0.75328 0.89736 0.91015 0.0
C742 C 0.75689 0.02384 0.92387 0.0
C743 C 0.68997 0.88191 0.94511 0.0
C744 C 0.66096 0.98438 1.01641 0.0
C745 C 0.62819 0.99781 0.99601 0.0
C746 C 0.69155 0.96967 0.99716 0.0
C747 C 0.69028 0.96873 0.95601 0.0
C748 C 0.65735 0.98251 0.93525 0.0
C749 C 0.62693 0.99643 0.95533 0.0
C750 C 0.72528 0.95478 0.0211 0.0
C751 C 0.65431 0.98292 0.89151 0.0
H752 H 0.81017 0.98428 0.8912 0.0
H753 H 0.7521 0.86582 0.90588 0.0
H754 H 0.73104 0.0377 0.91081 0.0
H755 H 0.75741 0.02747 0.95534 0.0
H756 H 0.78253 0.04082 0.90933 0.0
H757 H 0.6941 0.85054 0.93968 0.0
H758 H 0.68675 0.88159 0.97716 0.0
H759 H 0.6629 0.89155 0.93108 0.0
H760 H 0.66266 0.98505 0.04772 0.0
H761 H 0.60215 0.00677 0.93885 0.0
H762 H 0.75171 0.97304 1.01027 0.0
H763 H 0.72915 0.92279 1.01768 0.0
H764 H 0.72191 0.95657 0.05279 0.0
H765 H 0.67866 1.00191 0.87655 0.0
H766 H 0.62727 0.9949 0.87935 0.0
H767 H 0.65594 0.95175 0.88446 0.0
C768 C 0.742 0.15352 0.44968 0.0
C769 C 0.70786 0.13039 0.46023 0.0
C770 C 0.77665 0.13519 0.45021 0.0
C771 C 0.77686 0.09254 0.46045 0.0
C772 C 0.7422 0.06887 0.46991 0.0
C773 C 0.70802 0.08821 0.4698 0.0
C774 C 0.813 0.16149 0.43994 0.0
C775 C 0.74125 0.02325 0.48014 0.0
C776 C 0.86387 0.04639 0.42667 0.0
C777 C 0.88614 0.0418 0.46092 0.0
C778 C 0.82764 0.06151 0.42646 0.0
C779 C 0.81353 0.07298 0.46116 0.0
C780 C 0.83542 0.06786 0.49599 0.0
C781 C 0.87131 0.05206 0.49552 0.0
C782 C 0.80488 0.06617 0.38882 0.0
C783 C 0.82132 0.08001 0.53351 0.0
H784 H 0.74149 0.18598 0.44079 0.0
H785 H 0.68133 0.07052 0.47735 0.0
H786 H 0.83357 0.15706 0.46459 0.0
H787 H 0.82661 0.15249 0.41397 0.0
H788 H 0.80792 0.19428 0.43344 0.0
H789 H 0.7118 0.00925 0.48587 0.0
H790 H 0.75371 0.0101 0.45583 0.0
H791 H 0.7589 0.01487 0.50658 0.0
H792 H 0.87499 0.03906 0.39964 0.0
H793 H 0.88772 0.0479 0.52237 0.0
H794 H 0.80185 0.09883 0.37827 0.0
H795 H 0.77568 0.0514 0.39404 0.0
H796 H 0.81852 0.0528 0.36528 0.0
H797 H 0.81771 0.11314 0.52912 0.0
H798 H 0.84123 0.07282 0.55842 0.0
H799 H 0.79298 0.06428 0.54154 0.0
C800 C 0.28044 0.63075 0.11159 0.0
C801 C 0.28541 0.66912 0.12325 0.0
C802 C 0.24672 0.61878 0.0932 0.0
C803 C 0.21795 0.64647 0.08534 0.0
C804 C 0.22364 0.68601 0.0954 0.0
C805 C 0.25716 0.69664 0.11489 0.0
C806 C 0.24128 0.57605 0.08363 0.0
C807 C 0.19389 0.71658 0.0867 0.0
C808 C 0.14114 0.61829 1.01439 0.0
C809 C 0.11212 0.60062 0.04036 0.0
C810 C 0.17538 0.63493 0.02853 0.0
C811 C 0.18078 0.63282 0.0695 0.0
C812 C 0.15122 0.61578 0.09576 0.0
C813 C 0.11706 0.60026 0.08081 0.0
C814 C 0.206 0.65401 0.99976 0.0
C815 C 0.15615 0.61247 0.13972 0.0
H816 H 0.30271 0.60987 0.11769 0.0
H817 H 0.26099 0.72614 0.12443 0.0
H818 H 0.21671 0.55957 0.10051 0.0
H819 H 0.23458 0.57665 0.05205 0.0
H820 H 0.26694 0.55873 0.09068 0.0
H821 H 0.20466 0.74734 0.09216 0.0
H822 H 0.18446 0.71847 0.05569 0.0
H823 H 0.16842 0.70675 0.10543 0.0
H824 H 0.13718 0.61889 0.98307 0.0
H825 H 0.09469 0.58652 0.10101 0.0
H826 H 0.23123 0.63564 1.00304 0.0
H827 H 0.21554 0.68483 1.00597 0.0
H828 H 0.19602 0.65638 0.96887 0.0
H829 H 0.17985 0.59302 0.14927 0.0
H830 H 0.1299 0.59934 0.15598 0.0
H831 H 0.16389 0.64281 0.14808 0.0
C832 C 0.16998 0.37664 0.58922 0.0
C833 C 0.14365 0.39393 0.56227 0.0
C834 C 0.20909 0.38026 0.58045 0.0
C835 C 0.22191 0.40147 0.54366 0.0
C836 C 0.19492 0.41655 0.51533 0.0
C837 C 0.15598 0.41289 0.52519 0.0
C838 C 0.23682 0.36391 0.61158 0.0
C839 C 0.20732 0.4387 0.47557 0.0
C840 C 0.32148 0.45441 0.54256 0.0
C841 C 0.34349 0.42623 0.52861 0.0
C842 C 0.28176 0.44705 0.54687 0.0
C843 C 0.26355 0.4109 0.5364 0.0
C844 C 0.28547 0.38307 0.5209 0.0
C845 C 0.3252 0.39094 0.51745 0.0
C846 C 0.25943 0.47732 0.56388 0.0
C847 C 0.26705 0.3446 0.50874 0.0
H848 H 0.16003 0.36266 0.6181 0.0
H849 H 0.1353 0.42666 0.5048 0.0
H850 H 0.25704 0.34503 0.59934 0.0
H851 H 0.25389 0.38958 0.62184 0.0
H852 H 0.2221 0.34537 0.63728 0.0
H853 H 0.1828 0.44359 0.45523 0.0
H854 H 0.22158 0.46874 0.4789 0.0
H855 H 0.22829 0.42155 0.46217 0.0
H856 H 0.33556 0.48151 0.55149 0.0
H857 H 0.34207 0.3694 0.50606 0.0
H858 H 0.24589 0.46269 0.5919 0.0
H859 H 0.23617 0.48751 0.54359 0.0
H860 H 0.27767 0.50442 0.56955 0.0
H861 H 0.25458 0.3246 0.53479 0.0
H862 H 0.2877 0.32754 0.49468 0.0
H863 H 0.24335 0.35185 0.48794 0.0
C864 C 0.92363 0.83487 0.88898 0.0
C865 C 0.88732 0.8322 0.87182 0.0
C866 C 0.94197 0.79954 0.90481 0.0
C867 C 0.92358 0.7603 0.90381 0.0
C868 C 0.88757 0.75768 0.88491 0.0
C869 C 0.86999 0.79342 0.86945 0.0
C870 C 0.98028 0.80429 0.92435 0.0
C871 C 0.86663 0.71702 0.88264 0.0
C872 C 0.9804 0.66467 0.92019 0.0
C873 C 0.97204 0.64806 0.95949 0.0
C874 C 0.96542 0.70107 0.90208 0.0
C875 C 0.94116 0.7221 0.92341 0.0
C876 C 0.93279 0.70573 0.96318 0.0
C877 C 0.94822 0.66917 0.98064 0.0
C878 C 0.97531 0.71685 0.85978 0.0
C879 C 0.90715 0.72675 0.9873 0.0
H880 H 0.93667 0.86465 0.892 0.0
H881 H 0.84151 0.79119 0.85721 0.0
H882 H 0.97737 0.79346 0.9563 0.0
H883 H 1.00084 0.78538 0.91264 0.0
H884 H 0.99225 0.83635 0.92009 0.0
H885 H 0.84017 0.71988 0.86483 0.0
H886 H 0.88533 0.69708 0.86972 0.0
H887 H 0.85886 0.70176 0.91264 0.0
H888 H 0.99874 0.64905 0.90326 0.0
H889 H 0.94143 0.65703 1.01091 0.0
H890 H 0.98845 0.74836 0.85715 0.0
H891 H 0.94895 0.71781 0.84177 0.0
H892 H 0.99533 0.69778 0.84739 0.0
H893 H 0.91878 0.75844 0.98792 0.0
H894 H 0.90396 0.71096 0.01796 0.0
H895 H 0.87845 0.72827 0.97364 0.0
C896 C 0.38722 0.78224 0.17966 0.0
C897 C 0.39797 0.7458 0.16929 0.0
C898 C 0.41047 0.81819 0.17029 0.0
C899 C 0.44505 0.81738 0.14975 0.0
C900 C 0.45758 0.77978 0.14245 0.0
C901 C 0.43368 0.74424 0.15237 0.0
C902 C 0.39618 0.8575 0.17895 0.0
C903 C 0.49435 0.77759 0.12088 0.0
C904 C 0.47039 0.91206 0.07678 0.0
C905 C 0.49818 0.93269 0.09729 0.0
C906 C 0.4536 0.87401 0.09326 0.0
C907 C 0.46491 0.85618 0.13115 0.0
C908 C 0.49354 0.87639 0.15165 0.0
C909 C 0.50984 0.91444 0.13449 0.0
C910 C 0.42312 0.85329 0.07043 0.0
C911 C 0.5063 0.85826 0.19204 0.0
H912 H 0.35918 0.78301 0.19227 0.0
H913 H 0.44134 0.71588 0.14391 0.0
H914 H 0.41934 0.87615 0.19129 0.0
H915 H 0.3866 0.87535 0.15127 0.0
H916 H 0.37183 0.85222 0.19987 0.0
H917 H 0.50306 0.74597 0.12348 0.0
H918 H 0.49056 0.78928 0.08931 0.0
H919 H 0.51773 0.79685 0.13214 0.0
H920 H 0.46132 0.92587 0.04802 0.0
H921 H 0.5314 0.93012 0.15053 0.0
H922 H 0.3957 0.84975 0.08672 0.0
H923 H 0.43102 0.8224 0.06708 0.0
H924 H 0.41858 0.87053 0.0408 0.0
H925 H 0.48223 0.85616 0.21302 0.0
H926 H 0.53064 0.87657 0.20298 0.0
H927 H 0.51482 0.82695 0.19176 0.0
C928 C 0.07453 0.29692 0.60178 0.0
C929 C 0.07847 0.33012 0.57173 0.0
C930 C 0.07125 0.25712 0.59333 0.0
C931 C 0.07318 0.2504 0.55385 0.0
C932 C 0.07921 0.28387 0.52346 0.0
C933 C 0.08163 0.32354 0.53283 0.0
C934 C 0.06491 0.22235 0.62661 0.0
C935 C 0.08244 0.27779 0.48115 0.0
C936 C 0.09651 0.14401 0.54164 0.0
C937 C 0.06036 0.12573 0.53466 0.0
C938 C 0.10129 0.18503 0.54629 0.0
C939 C 0.069 0.20817 0.54479 0.0
C940 C 0.03243 0.19004 0.53739 0.0
C941 C 0.02859 0.14905 0.53198 0.0
C942 C 0.14084 0.20343 0.55343 0.0
C943 C 0.99726 0.21364 0.53628 0.0
H944 H 0.07337 0.30228 0.63195 0.0
H945 H 0.08505 0.34948 0.50983 0.0
H946 H 0.03786 0.20439 0.62194 0.0
H947 H 0.0883 0.20164 0.62736 0.0
H948 H 0.06351 0.23293 0.65559 0.0
H949 H 0.08915 0.30684 0.46135 0.0
H950 H 0.10503 0.25692 0.47798 0.0
H951 H 0.05521 0.26342 0.47151 0.0
H952 H 0.1213 0.1263 0.54318 0.0
H953 H 1.00063 0.13504 0.52649 0.0
H954 H 0.14247 0.21194 0.58333 0.0
H955 H 0.14713 0.23161 0.53234 0.0
H956 H 0.16327 0.18222 0.55063 0.0
H957 H 0.99305 0.22328 0.56529 0.0
H958 H 0.97112 0.19556 0.52885 0.0
H959 H 1.00094 0.24158 0.51439 0.0
C960 C 0.62672 0.26466 0.42299 0.0
C961 C 0.6226 0.23907 0.45899 0.0
C962 C 0.61647 0.30481 0.41893 0.0
C963 C 0.60214 0.31954 0.45187 0.0
C964 C 0.59901 0.29399 0.48865 0.0
C965 C 0.60924 0.25382 0.49171 0.0
C966 C 0.62008 0.33107 0.3793 0.0
C967 C 0.58407 0.30881 0.5245 0.0
C968 C 0.59731 0.43142 0.45756 0.0
C969 C 0.55799 0.43537 0.45317 0.0
C970 C 0.61269 0.39425 0.45509 0.0
C971 C 0.58812 0.36076 0.44761 0.0
C972 C 0.54903 0.36578 0.43967 0.0
C973 C 0.53439 0.40305 0.44273 0.0
C974 C 0.65456 0.39 0.4636 0.0
C975 C 0.52206 0.33097 0.43086 0.0
H976 H 0.63767 0.25288 0.39799 0.0
H977 H 0.6064 0.23367 0.51941 0.0
H978 H 0.59138 0.33919 0.36847 0.0
H979 H 0.63714 0.35986 0.38175 0.0
H980 H 0.63369 0.31562 0.35722 0.0
H981 H 0.58539 0.28583 0.55126 0.0
H982 H 0.60078 0.33699 0.52974 0.0
H983 H 0.55397 0.31634 0.51963 0.0
H984 H 0.61559 0.45631 0.46588 0.0
H985 H 0.50399 0.40619 0.43907 0.0
H986 H 0.66756 0.37366 0.44191 0.0
H987 H 0.65781 0.37182 0.49299 0.0
H988 H 0.67065 0.41995 0.46331 0.0
H989 H 0.53417 0.31563 0.40787 0.0
H990 H 0.49365 0.34112 0.42095 0.0
H991 H 0.51802 0.30813 0.45766 0.0
loop_
_geom_bond_atom_site_label_1
_geom_bond_atom_site_label_2
_geom_bond_distance
_geom_bond_site_symmetry_2
_ccdc_geom_bond_type
C0 N1 1.317 . S
C0 N2 1.348 . S
C0 C3 1.485 . S
N1 C0 1.317 . S
N1 N5 1.370 . S
N2 C0 1.348 . S
N2 C4 1.346 . S
C3 C0 1.485 . S
C3 H7 0.960 . S
C3 H8 0.961 . S
C3 H9 0.960 . S
C4 N2 1.346 . S
C4 N5 1.307 . S
C4 C6 1.486 . S
N5 N1 1.370 . S
N5 C4 1.307 . S
C6 C4 1.486 . S
C6 H10 0.960 . S
C6 H11 0.960 . S
C6 H12 0.959 . S
H7 C3 0.960 . S
H8 C3 0.961 . S
H9 C3 0.960 . S
H10 C6 0.960 . S
H11 C6 0.960 . S
H12 C6 0.959 . S
C13 N14 1.317 . S
C13 N15 1.348 . S
C13 C16 1.485 . S
N14 C13 1.317 . S
N14 N18 1.370 . S
N15 C13 1.348 . S
N15 C17 1.346 . S
C16 C13 1.485 . S
C16 H20 0.960 . S
C16 H21 0.961 . S
C16 H22 0.960 . S
C17 N15 1.346 . S
C17 N18 1.307 . S
C17 C19 1.486 . S
N18 N14 1.370 . S
N18 C17 1.307 . S
C19 C17 1.486 . S
C19 H23 0.960 . S
C19 H24 0.960 . S
C19 H25 0.959 . S
H20 C16 0.960 . S
H21 C16 0.961 . S
H22 C16 0.960 . S
H23 C19 0.960 . S
H24 C19 0.960 . S
H25 C19 0.959 . S
C26 N27 1.317 . S
C26 N28 1.348 . S
C26 C29 1.485 . S
N27 C26 1.317 . S
N27 N31 1.370 . S
N28 C26 1.348 . S
N28 C30 1.346 . S
C29 C26 1.485 . S
C29 H33 0.960 . S
C29 H34 0.961 . S
C29 H35 0.960 . S
C30 N28 1.346 . S
C30 N31 1.307 . S
C30 C32 1.486 . S
N31 N27 1.370 . S
N31 C30 1.307 . S
C32 C30 1.486 . S
C32 H36 0.960 . S
C32 H37 0.960 . S
C32 H38 0.959 . S
H33 C29 0.960 . S
H34 C29 0.961 . S
H35 C29 0.960 . S
H36 C32 0.960 . S
H37 C32 0.960 . S
H38 C32 0.959 . S
C39 N40 1.317 . S
C39 N41 1.348 . S
C39 C42 1.485 . S
N40 C39 1.317 . S
N40 N44 1.370 . S
N41 C39 1.348 . S
N41 C43 1.346 . S
C42 C39 1.485 . S
C42 H46 0.960 . S
C42 H47 0.961 . S
C42 H48 0.960 . S
C43 N41 1.346 . S
C43 N44 1.307 . S
C43 C45 1.486 . S
N44 N40 1.370 . S
N44 C43 1.307 . S
C45 C43 1.486 . S
C45 H49 0.960 . S
C45 H50 0.960 . S
C45 H51 0.959 . S
H46 C42 0.960 . S
H47 C42 0.961 . S
H48 C42 0.960 . S
H49 C45 0.960 . S
H50 C45 0.960 . S
H51 C45 0.959 . S
C52 N53 1.317 . S
C52 N54 1.348 . S
C52 C55 1.485 . S
N53 C52 1.317 . S
N53 N57 1.370 . S
N54 C52 1.348 . S
N54 C56 1.346 . S
C55 C52 1.485 . S
C55 H59 0.960 . S
C55 H60 0.961 . S
C55 H61 0.960 . S
C56 N54 1.346 . S
C56 N57 1.307 . S
C56 C58 1.486 . S
N57 N53 1.370 . S
N57 C56 1.307 . S
C58 C56 1.486 . S
C58 H62 0.948 1_565 S
C58 H63 0.960 . S
C58 H64 0.959 . S
H59 C55 0.960 . S
H60 C55 0.961 . S
H61 C55 0.960 . S
H62 C58 0.948 1_545 S
H63 C58 0.960 . S
H64 C58 0.959 . S
C65 N66 1.317 . S
C65 N67 1.348 . S
C65 C68 1.485 . S
N66 C65 1.317 . S
N66 N70 1.370 . S
N67 C65 1.348 . S
N67 C69 1.346 . S
C68 C65 1.485 . S
C68 H72 0.960 . S
C68 H73 0.961 . S
C68 H74 0.960 . S
C69 N67 1.346 . S
C69 N70 1.307 . S
C69 C71 1.486 . S
N70 N66 1.370 . S
N70 C69 1.307 . S
C71 C69 1.486 . S
C71 H75 0.960 . S
C71 H76 0.960 . S
C71 H77 0.959 . S
H72 C68 0.960 . S
H73 C68 0.961 . S
H74 C68 0.960 . S
H75 C71 0.960 . S
H76 C71 0.960 . S
H77 C71 0.959 . S
C78 N79 1.317 . S
C78 N80 1.348 . S
C78 C81 1.485 . S
N79 C78 1.317 . S
N79 N83 1.370 . S
N80 C78 1.348 . S
N80 C82 1.346 . S
C81 C78 1.485 . S
C81 H85 0.960 . S
C81 H86 0.961 . S
C81 H87 0.960 . S
C82 N80 1.346 . S
C82 N83 1.307 . S
C82 C84 1.486 . S
N83 N79 1.370 . S
N83 C82 1.307 . S
C84 C82 1.486 . S
C84 H88 0.960 . S
C84 H89 0.960 . S
C84 H90 0.959 . S
H85 C81 0.960 . S
H86 C81 0.961 . S
H87 C81 0.960 . S
H88 C84 0.960 . S
H89 C84 0.960 . S
H90 C84 0.959 . S
C91 N92 1.317 . S
C91 N93 1.348 . S
C91 C94 1.485 . S
N92 C91 1.317 . S
N92 N96 1.370 . S
N93 C91 1.348 . S
N93 C95 1.346 . S
C94 C91 1.485 . S
C94 H98 0.960 . S
C94 H99 0.961 . S
C94 H100 0.960 . S
C95 N93 1.346 . S
C95 N96 1.307 . S
C95 C97 1.486 . S
N96 N92 1.370 . S
N96 C95 1.307 . S
C97 C95 1.486 . S
C97 H101 0.960 . S
C97 H102 0.960 . S
C97 H103 0.959 . S
H98 C94 0.960 . S
H99 C94 0.961 . S
H100 C94 0.960 . S
H101 C97 0.960 . S
H102 C97 0.960 . S
H103 C97 0.959 . S
Co104 N109 2.057 1_455 S
Co104 O121 2.021 . S
Co104 O124 2.062 . S
Co104 O128 2.119 1_445 S
Co104 O129 2.020 1_455 S
C105 O125 1.259 . S
C105 O128 1.240 1_455 S
Co106 N115 2.057 . S
Co106 O122 2.117 1_565 S
Co106 O123 2.020 1_565 S
Co106 O125 2.021 . S
Co106 O130 2.062 . S
C107 N109 1.316 . S
C107 N110 1.347 . S
C107 H112 0.931 . S
C108 N109 1.375 . S
C108 C111 1.350 . S
C108 H113 0.930 1_545 S
N109 Co104 2.057 1_655 S
N109 C107 1.316 . S
N109 C108 1.375 . S
N110 C107 1.347 . S
N110 C111 1.373 . S
C111 C108 1.350 . S
C111 N110 1.373 . S
C111 H132 0.931 . S
H112 C107 0.931 . S
H113 C108 0.930 1_565 S
C114 O121 1.259 . S
C114 O122 1.258 . S
N115 Co106 2.057 . S
N115 C116 1.316 . S
N115 C117 1.375 1_565 S
C116 N115 1.316 . S
C116 N118 1.347 . S
C116 H127 0.931 . S
C117 N115 1.375 1_545 S
C117 C119 1.350 . S
C117 H126 0.930 . S
N118 C116 1.347 . S
N118 C119 1.373 1_565 S
C119 C117 1.350 . S
C119 N118 1.373 1_545 S
C119 H133 0.931 . S
C120 O123 1.256 . S
C120 O124 1.255 . S
O121 Co104 2.021 . S
O121 C114 1.259 . S
O122 Co106 2.117 1_545 S
O122 C114 1.258 . S
O123 Co106 2.020 1_545 S
O123 C120 1.256 . S
O124 Co104 2.062 . S
O124 C120 1.255 . S
O125 C105 1.259 . S
O125 Co106 2.021 . S
H126 C117 0.930 . S
H127 C116 0.931 . S
O128 Co104 2.119 1_665 S
O128 C105 1.240 1_655 S
O129 Co104 2.020 1_655 S
O129 C131 1.256 1_645 S
O130 Co106 2.062 . S
O130 C131 1.255 . S
C131 O129 1.256 1_465 S
C131 O130 1.255 . S
H132 C111 0.931 . S
H133 C119 0.931 . S
Co134 N139 2.057 1_545 S
Co134 O151 2.021 . S
Co134 O154 2.064 . S
Co134 O158 2.117 1_546 S
Co134 O159 2.020 1_556 S
C135 O155 1.259 . S
C135 O158 1.258 . S
Co136 N145 2.057 . S
Co136 O152 2.117 . S
Co136 O153 2.020 . S
Co136 O155 2.021 1_545 S
Co136 O160 2.062 . S
C137 N139 1.317 1_545 S
C137 N140 1.349 1_545 S
C137 H142 0.928 . S
C138 N139 1.375 . S
C138 C141 1.350 . S
C138 H143 0.930 . S
N139 Co134 2.057 1_565 S
N139 C137 1.317 1_565 S
N139 C138 1.375 . S
N140 C137 1.349 1_565 S
N140 C141 1.373 . S
C141 C138 1.350 . S
C141 N140 1.373 . S
C141 H162 0.931 . S
H142 C137 0.928 . S
H143 C138 0.930 . S
C144 O151 1.259 . S
C144 O152 1.258 1_556 S
N145 Co136 2.057 . S
N145 C146 1.316 . S
N145 C147 1.375 . S
C146 N145 1.316 . S
C146 N148 1.347 . S
C146 H157 0.931 . S
C147 N145 1.375 . S
C147 C149 1.350 . S
C147 H156 0.930 . S
N148 C146 1.347 . S
N148 C149 1.373 . S
C149 C147 1.350 . S
C149 N148 1.373 . S
C149 H163 0.931 . S
C150 O153 1.253 1_565 S
C150 O154 1.254 1_564 S
O151 Co134 2.021 . S
O151 C144 1.259 . S
O152 Co136 2.117 . S
O152 C144 1.258 1_554 S
O153 Co136 2.020 . S
O153 C150 1.253 1_545 S
O154 Co134 2.064 . S
O154 C150 1.254 1_546 S
O155 C135 1.259 . S
O155 Co136 2.021 1_565 S
H156 C147 0.930 . S
H157 C146 0.931 . S
O158 Co134 2.117 1_564 S
O158 C135 1.258 . S
O159 Co134 2.020 1_554 S
O159 C161 1.256 . S
O160 Co136 2.062 . S
O160 C161 1.255 . S
C161 O159 1.256 . S
C161 O160 1.255 . S
H162 C141 0.931 . S
H163 C149 0.931 . S
Co164 N169 2.057 . S
Co164 O181 2.021 . S
Co164 O184 2.062 . S
Co164 O188 2.117 . S
Co164 O189 2.020 . S
C165 O185 1.259 . S
C165 O188 1.258 . S
Co166 N175 2.057 . S
Co166 O182 2.117 . S
Co166 O183 2.020 . S
Co166 O185 2.021 . S
Co166 O190 2.062 . S
C167 N169 1.316 . S
C167 N170 1.347 . S
C167 H172 0.931 . S
C168 N169 1.375 . S
C168 C171 1.350 . S
C168 H173 0.930 . S
N169 Co164 2.057 . S
N169 C167 1.316 . S
N169 C168 1.375 . S
N170 C167 1.347 . S
N170 C171 1.373 . S
C171 C168 1.350 . S
C171 N170 1.373 . S
C171 H192 0.931 . S
H172 C167 0.931 . S
H173 C168 0.930 . S
C174 O181 1.259 . S
C174 O182 1.258 . S
N175 Co166 2.057 . S
N175 C176 1.316 . S
N175 C177 1.375 . S
C176 N175 1.316 . S
C176 N178 1.347 . S
C176 H187 0.931 . S
C177 N175 1.375 . S
C177 C179 1.350 . S
C177 H186 0.930 . S
N178 C176 1.347 . S
N178 C179 1.373 . S
C179 C177 1.350 . S
C179 N178 1.373 . S
C179 H193 0.931 . S
C180 O183 1.256 . S
C180 O184 1.255 . S
O181 Co164 2.021 . S
O181 C174 1.259 . S
O182 Co166 2.117 . S
O182 C174 1.258 . S
O183 Co166 2.020 . S
O183 C180 1.256 . S
O184 Co164 2.062 . S
O184 C180 1.255 . S
O185 C165 1.259 . S
O185 Co166 2.021 . S
H186 C177 0.930 . S
H187 C176 0.931 . S
O188 Co164 2.117 . S
O188 C165 1.258 . S
O189 Co164 2.020 . S
O189 C191 1.256 . S
O190 Co166 2.062 . S
O190 C191 1.255 . S
C191 O189 1.256 . S
C191 O190 1.255 . S
H192 C171 0.931 . S
H193 C179 0.931 . S
Co194 N199 2.057 . S
Co194 O211 2.021 . S
Co194 O214 2.062 . S
Co194 O218 2.117 1_455 S
Co194 O219 2.020 1_455 S
C195 O215 1.259 1_556 S
C195 O218 1.258 . S
Co196 N205 2.057 . S
Co196 O212 2.117 1_655 S
Co196 O213 2.020 1_655 S
Co196 O215 2.021 . S
Co196 O220 2.062 . S
C197 N199 1.316 . S
C197 N200 1.347 . S
C197 H202 0.931 . S
C198 N199 1.375 1_655 S
C198 C201 1.350 1_655 S
C198 H203 0.930 . S
N199 Co194 2.057 . S
N199 C197 1.316 . S
N199 C198 1.375 1_455 S
N200 C197 1.347 . S
N200 C201 1.373 . S
C201 C198 1.350 1_455 S
C201 N200 1.373 . S
C201 H222 0.931 1_455 S
H202 C197 0.931 . S
H203 C198 0.930 . S
C204 O211 1.259 1_554 S
C204 O212 1.258 . S
N205 Co196 2.057 . S
N205 C206 1.316 . S
N205 C207 1.375 1_655 S
C206 N205 1.316 . S
C206 N208 1.347 . S
C206 H217 0.931 . S
C207 N205 1.375 1_455 S
C207 C209 1.350 . S
C207 H216 0.930 . S
N208 C206 1.347 . S
N208 C209 1.373 1_655 S
C209 C207 1.350 . S
C209 N208 1.373 1_455 S
C209 H223 0.931 . S
C210 O213 1.256 . S
C210 O214 1.255 1_554 S
O211 Co194 2.021 . S
O211 C204 1.259 1_556 S
O212 Co196 2.117 1_455 S
O212 C204 1.258 . S
O213 Co196 2.020 1_455 S
O213 C210 1.256 . S
O214 Co194 2.062 . S
O214 C210 1.255 1_556 S
O215 C195 1.259 1_554 S
O215 Co196 2.021 . S
H216 C207 0.930 . S
H217 C206 0.931 . S
O218 Co194 2.117 1_655 S
O218 C195 1.258 . S
O219 Co194 2.020 1_655 S
O219 C221 1.256 . S
O220 Co196 2.062 . S
O220 C221 1.255 1_554 S
C221 O219 1.256 . S
C221 O220 1.255 1_556 S
H222 C201 0.931 1_655 S
H223 C209 0.931 . S
C224 C225 1.391 . S
C224 C226 1.394 . S
C224 H240 0.931 . S
C225 C224 1.391 . S
C225 C229 1.376 . S
C226 C224 1.394 . S
C226 C227 1.369 . S
C226 C230 1.531 . S
C227 C226 1.369 . S
C227 C228 1.410 . S
C227 C235 1.503 . S
C228 C227 1.410 . S
C228 C229 1.392 . S
C228 C231 1.511 . S
C229 C225 1.376 . S
C229 C228 1.392 . S
C229 H241 0.929 . S
C230 C226 1.531 . S
C230 H242 0.960 . S
C230 H243 0.962 . S
C230 H244 0.960 . S
C231 C228 1.511 . S
C231 H245 0.961 . S
C231 H246 0.961 . S
C231 H247 0.961 . S
C232 C233 1.370 . S
C232 C234 1.363 . S
C232 H248 0.931 . S
C233 C232 1.370 . S
C233 C237 1.408 . S
C234 C232 1.363 . S
C234 C235 1.370 . S
C234 C238 1.524 . S
C235 C227 1.503 . S
C235 C234 1.370 . S
C235 C236 1.403 . S
C236 C235 1.403 . S
C236 C237 1.404 . S
C236 C239 1.539 . S
C237 C233 1.408 . S
C237 C236 1.404 . S
C237 H249 0.930 . S
C238 C234 1.524 . S
C238 H250 0.956 . S
C238 H251 0.961 . S
C238 H252 0.961 . S
C239 C236 1.539 . S
C239 H253 0.958 1_545 S
C239 H254 0.961 1_545 S
C239 H255 0.960 . S
H240 C224 0.931 . S
H241 C229 0.929 . S
H242 C230 0.960 . S
H243 C230 0.962 . S
H244 C230 0.960 . S
H245 C231 0.961 . S
H246 C231 0.961 . S
H247 C231 0.961 . S
H248 C232 0.931 . S
H249 C237 0.930 . S
H250 C238 0.956 . S
H251 C238 0.961 . S
H252 C238 0.961 . S
H253 C239 0.958 1_565 S
H254 C239 0.961 1_565 S
H255 C239 0.960 . S
C256 C257 1.391 . S
C256 C258 1.394 . S
C256 H272 0.931 . S
C257 C256 1.391 . S
C257 C261 1.376 . S
C258 C256 1.394 . S
C258 C259 1.369 . S
C258 C262 1.531 . S
C259 C258 1.369 . S
C259 C260 1.410 . S
C259 C267 1.503 . S
C260 C259 1.410 . S
C260 C261 1.392 . S
C260 C263 1.511 . S
C261 C257 1.376 . S
C261 C260 1.392 . S
C261 H273 0.929 . S
C262 C258 1.531 . S
C262 H274 0.954 1_565 S
C262 H275 0.962 . S
C262 H276 0.960 1_565 S
C263 C260 1.511 . S
C263 H277 0.961 . S
C263 H278 0.961 . S
C263 H279 0.961 . S
C264 C265 1.370 . S
C264 C266 1.363 . S
C264 H280 0.931 . S
C265 C264 1.370 . S
C265 C269 1.408 . S
C266 C264 1.363 . S
C266 C267 1.370 . S
C266 C270 1.524 . S
C267 C259 1.503 . S
C267 C266 1.370 . S
C267 C268 1.403 . S
C268 C267 1.403 . S
C268 C269 1.404 . S
C268 C271 1.539 . S
C269 C265 1.408 . S
C269 C268 1.404 . S
C269 H281 0.930 . S
C270 C266 1.524 . S
C270 H282 0.956 . S
C270 H283 0.961 . S
C270 H284 0.961 . S
C271 C268 1.539 . S
C271 H285 0.937 1_565 S
C271 H286 0.961 . S
C271 H287 0.960 . S
H272 C256 0.931 . S
H273 C261 0.929 . S
H274 C262 0.954 1_545 S
H275 C262 0.962 . S
H276 C262 0.960 1_545 S
H277 C263 0.961 . S
H278 C263 0.961 . S
H279 C263 0.961 . S
H280 C264 0.931 . S
H281 C269 0.930 . S
H282 C270 0.956 . S
H283 C270 0.961 . S
H284 C270 0.961 . S
H285 C271 0.937 1_545 S
H286 C271 0.961 . S
H287 C271 0.960 . S
C288 C289 1.391 . S
C288 C290 1.394 . S
C288 H304 0.931 . S
C289 C288 1.391 . S
C289 C293 1.376 . S
C290 C288 1.394 . S
C290 C291 1.369 . S
C290 C294 1.531 . S
C291 C290 1.369 . S
C291 C292 1.410 . S
C291 C299 1.503 . S
C292 C291 1.410 . S
C292 C293 1.392 . S
C292 C295 1.511 . S
C293 C289 1.376 . S
C293 C292 1.392 . S
C293 H305 0.929 . S
C294 C290 1.531 . S
C294 H306 0.960 . S
C294 H307 0.962 . S
C294 H308 0.960 . S
C295 C292 1.511 . S
C295 H309 0.961 . S
C295 H310 0.961 . S
C295 H311 0.961 . S
C296 C297 1.370 . S
C296 C298 1.363 . S
C296 H312 0.931 . S
C297 C296 1.370 . S
C297 C301 1.408 . S
C298 C296 1.363 . S
C298 C299 1.370 . S
C298 C302 1.524 . S
C299 C291 1.503 . S
C299 C298 1.370 . S
C299 C300 1.403 . S
C300 C299 1.403 . S
C300 C301 1.404 . S
C300 C303 1.539 . S
C301 C297 1.408 . S
C301 C300 1.404 . S
C301 H313 0.930 . S
C302 C298 1.524 . S
C302 H314 0.956 . S
C302 H315 0.961 . S
C302 H316 0.961 . S
C303 C300 1.539 . S
C303 H317 0.958 . S
C303 H318 0.961 . S
C303 H319 0.960 . S
H304 C288 0.931 . S
H305 C293 0.929 . S
H306 C294 0.960 . S
H307 C294 0.962 . S
H308 C294 0.960 . S
H309 C295 0.961 . S
H310 C295 0.961 . S
H311 C295 0.961 . S
H312 C296 0.931 . S
H313 C301 0.930 . S
H314 C302 0.956 . S
H315 C302 0.961 . S
H316 C302 0.961 . S
H317 C303 0.958 . S
H318 C303 0.961 . S
H319 C303 0.960 . S
C320 C321 1.391 . S
C320 C322 1.394 . S
C320 H336 0.931 . S
C321 C320 1.391 . S
C321 C325 1.376 . S
C322 C320 1.394 . S
C322 C323 1.369 . S
C322 C326 1.531 . S
C323 C322 1.369 . S
C323 C324 1.410 . S
C323 C331 1.503 . S
C324 C323 1.410 . S
C324 C325 1.392 . S
C324 C327 1.510 1_655 S
C325 C321 1.376 . S
C325 C324 1.392 . S
C325 H337 0.929 . S
C326 C322 1.531 . S
C326 H338 0.960 . S
C326 H339 0.962 . S
C326 H340 0.960 . S
C327 C324 1.510 1_455 S
C327 H341 0.961 . S
C327 H342 0.961 1_455 S
C327 H343 0.961 . S
C328 C329 1.370 . S
C328 C330 1.363 . S
C328 H344 0.931 . S
C329 C328 1.370 . S
C329 C333 1.408 . S
C330 C328 1.363 . S
C330 C331 1.370 . S
C330 C334 1.524 . S
C331 C323 1.503 . S
C331 C330 1.370 . S
C331 C332 1.403 . S
C332 C331 1.403 . S
C332 C333 1.404 . S
C332 C335 1.539 . S
C333 C329 1.408 . S
C333 C332 1.404 . S
C333 H345 0.930 . S
C334 C330 1.524 . S
C334 H346 0.956 . S
C334 H347 0.961 . S
C334 H348 0.961 . S
C335 C332 1.539 . S
C335 H349 0.958 . S
C335 H350 0.961 1_655 S
C335 H351 0.966 . S
H336 C320 0.931 . S
H337 C325 0.929 . S
H338 C326 0.960 . S
H339 C326 0.962 . S
H340 C326 0.960 . S
H341 C327 0.961 . S
H342 C327 0.961 1_655 S
H343 C327 0.961 . S
H344 C328 0.931 . S
H345 C333 0.930 . S
H346 C334 0.956 . S
H347 C334 0.961 . S
H348 C334 0.961 . S
H349 C335 0.958 . S
H350 C335 0.961 1_455 S
H351 C335 0.966 . S
C352 C353 1.391 . S
C352 C354 1.394 . S
C352 H368 0.931 . S
C353 C352 1.391 . S
C353 C357 1.376 . S
C354 C352 1.394 . S
C354 C355 1.369 . S
C354 C358 1.531 . S
C355 C354 1.369 . S
C355 C356 1.410 . S
C355 C363 1.503 . S
C356 C355 1.410 . S
C356 C357 1.392 . S
C356 C359 1.511 . S
C357 C353 1.376 . S
C357 C356 1.392 . S
C357 H369 0.929 . S
C358 C354 1.531 . S
C358 H370 0.960 . S
C358 H371 0.962 . S
C358 H372 0.960 1_554 S
C359 C356 1.511 . S
C359 H373 0.961 . S
C359 H374 0.961 . S
C359 H375 0.961 . S
C360 C361 1.370 . S
C360 C362 1.363 . S
C360 H376 0.931 . S
C361 C360 1.370 . S
C361 C365 1.408 . S
C362 C360 1.363 . S
C362 C363 1.370 . S
C362 C366 1.524 . S
C363 C355 1.503 . S
C363 C362 1.370 . S
C363 C364 1.403 . S
C364 C363 1.403 . S
C364 C365 1.404 . S
C364 C367 1.539 . S
C365 C361 1.408 . S
C365 C364 1.404 . S
C365 H377 0.930 . S
C366 C362 1.524 . S
C366 H378 0.956 . S
C366 H379 0.961 . S
C366 H380 0.952 1_545 S
C367 C364 1.539 . S
C367 H381 0.958 . S
C367 H382 0.961 . S
C367 H383 0.960 . S
H368 C352 0.931 . S
H369 C357 0.929 . S
H370 C358 0.960 . S
H371 C358 0.962 . S
H372 C358 0.960 1_556 S
H373 C359 0.961 . S
H374 C359 0.961 . S
H375 C359 0.961 . S
H376 C360 0.931 . S
H377 C365 0.930 . S
H378 C366 0.956 . S
H379 C366 0.961 . S
H380 C366 0.952 1_565 S
H381 C367 0.958 . S
H382 C367 0.961 . S
H383 C367 0.960 . S
C384 C385 1.391 . S
C384 C386 1.394 . S
C384 H400 0.931 . S
C385 C384 1.391 . S
C385 C389 1.376 . S
C386 C384 1.394 . S
C386 C387 1.369 . S
C386 C390 1.531 . S
C387 C386 1.369 . S
C387 C388 1.410 . S
C387 C395 1.503 . S
C388 C387 1.410 . S
C388 C389 1.392 . S
C388 C391 1.511 . S
C389 C385 1.376 . S
C389 C388 1.392 . S
C389 H401 0.929 . S
C390 C386 1.531 . S
C390 H402 0.960 . S
C390 H403 0.962 . S
C390 H404 0.960 . S
C391 C388 1.511 . S
C391 H405 0.961 . S
C391 H406 0.961 . S
C391 H407 0.961 . S
C392 C393 1.370 . S
C392 C394 1.363 . S
C392 H408 0.931 . S
C393 C392 1.370 . S
C393 C397 1.408 . S
C394 C392 1.363 . S
C394 C395 1.370 . S
C394 C398 1.524 . S
C395 C387 1.503 . S
C395 C394 1.370 . S
C395 C396 1.403 . S
C396 C395 1.403 . S
C396 C397 1.404 . S
C396 C399 1.539 . S
C397 C393 1.408 . S
C397 C396 1.404 . S
C397 H409 0.930 . S
C398 C394 1.524 . S
C398 H410 0.956 . S
C398 H411 0.961 . S
C398 H412 0.961 . S
C399 C396 1.539 . S
C399 H413 0.958 . S
C399 H414 0.961 1_565 S
C399 H415 0.960 . S
H400 C384 0.931 . S
H401 C389 0.929 . S
H402 C390 0.960 . S
H403 C390 0.962 . S
H404 C390 0.960 . S
H405 C391 0.961 . S
H406 C391 0.961 . S
H407 C391 0.961 . S
H408 C392 0.931 . S
H409 C397 0.930 . S
H410 C398 0.956 . S
H411 C398 0.961 . S
H412 C398 0.961 . S
H413 C399 0.958 . S
H414 C399 0.961 1_545 S
H415 C399 0.960 . S
C416 C417 1.391 . S
C416 C418 1.394 . S
C416 H432 0.931 . S
C417 C416 1.391 . S
C417 C421 1.376 . S
C418 C416 1.394 . S
C418 C419 1.369 . S
C418 C422 1.531 . S
C419 C418 1.369 . S
C419 C420 1.410 . S
C419 C427 1.503 . S
C420 C419 1.410 . S
C420 C421 1.392 . S
C420 C423 1.511 . S
C421 C417 1.376 . S
C421 C420 1.392 . S
C421 H433 0.929 . S
C422 C418 1.531 . S
C422 H434 0.960 . S
C422 H435 0.962 1_556 S
C422 H436 0.960 1_556 S
C423 C420 1.511 . S
C423 H437 0.961 . S
C423 H438 0.961 . S
C423 H439 0.961 . S
C424 C425 1.370 . S
C424 C426 1.363 . S
C424 H440 0.931 . S
C425 C424 1.370 . S
C425 C429 1.408 . S
C426 C424 1.363 . S
C426 C427 1.370 . S
C426 C430 1.524 . S
C427 C419 1.503 . S
C427 C426 1.370 . S
C427 C428 1.403 . S
C428 C427 1.403 . S
C428 C429 1.404 . S
C428 C431 1.539 . S
C429 C425 1.408 . S
C429 C428 1.404 . S
C429 H441 0.930 . S
C430 C426 1.524 . S
C430 H442 0.956 . S
C430 H443 0.961 . S
C430 H444 0.961 . S
C431 C428 1.539 . S
C431 H445 0.958 . S
C431 H446 0.961 . S
C431 H447 0.960 . S
H432 C416 0.931 . S
H433 C421 0.929 . S
H434 C422 0.960 . S
H435 C422 0.962 1_554 S
H436 C422 0.960 1_554 S
H437 C423 0.961 . S
H438 C423 0.961 . S
H439 C423 0.961 . S
H440 C424 0.931 . S
H441 C429 0.930 . S
H442 C430 0.956 . S
H443 C430 0.961 . S
H444 C430 0.961 . S
H445 C431 0.958 . S
H446 C431 0.961 . S
H447 C431 0.960 . S
C448 C449 1.391 . S
C448 C450 1.394 . S
C448 H464 0.931 . S
C449 C448 1.391 . S
C449 C453 1.376 . S
C450 C448 1.394 . S
C450 C451 1.369 . S
C450 C454 1.531 . S
C451 C450 1.369 . S
C451 C452 1.410 . S
C451 C459 1.503 . S
C452 C451 1.410 . S
C452 C453 1.392 . S
C452 C455 1.511 . S
C453 C449 1.376 . S
C453 C452 1.392 . S
C453 H465 0.929 . S
C454 C450 1.531 . S
C454 H466 0.960 . S
C454 H467 0.962 . S
C454 H468 0.960 . S
C455 C452 1.511 . S
C455 H469 0.961 . S
C455 H470 0.961 . S
C455 H471 0.961 . S
C456 C457 1.370 . S
C456 C458 1.363 . S
C456 H472 0.931 . S
C457 C456 1.370 . S
C457 C461 1.408 . S
C458 C456 1.363 . S
C458 C459 1.370 . S
C458 C462 1.524 . S
C459 C451 1.503 . S
C459 C458 1.370 . S
C459 C460 1.403 . S
C460 C459 1.403 . S
C460 C461 1.404 . S
C460 C463 1.539 . S
C461 C457 1.408 . S
C461 C460 1.404 . S
C461 H473 0.930 . S
C462 C458 1.524 . S
C462 H474 0.956 . S
C462 H475 0.961 . S
C462 H476 0.961 . S
C463 C460 1.539 . S
C463 H477 0.958 . S
C463 H478 0.961 . S
C463 H479 0.960 . S
H464 C448 0.931 . S
H465 C453 0.929 . S
H466 C454 0.960 . S
H467 C454 0.962 . S
H468 C454 0.960 . S
H469 C455 0.961 . S
H470 C455 0.961 . S
H471 C455 0.961 . S
H472 C456 0.931 . S
H473 C461 0.930 . S
H474 C462 0.956 . S
H475 C462 0.961 . S
H476 C462 0.961 . S
H477 C463 0.958 . S
H478 C463 0.961 . S
H479 C463 0.960 . S
C480 C481 1.391 . S
C480 C482 1.394 . S
C480 H496 0.931 . S
C481 C480 1.391 . S
C481 C485 1.376 . S
C482 C480 1.394 . S
C482 C483 1.369 . S
C482 C486 1.531 . S
C483 C482 1.369 . S
C483 C484 1.410 . S
C483 C491 1.503 . S
C484 C483 1.410 . S
C484 C485 1.392 . S
C484 C487 1.511 1_554 S
C485 C481 1.376 . S
C485 C484 1.392 . S
C485 H497 0.929 . S
C486 C482 1.531 . S
C486 H498 0.960 . S
C486 H499 0.962 . S
C486 H500 0.960 . S
C487 C484 1.511 1_556 S
C487 H501 0.961 . S
C487 H502 0.961 . S
C487 H503 0.961 . S
C488 C489 1.370 . S
C488 C490 1.363 . S
C488 H504 0.931 1_455 S
C489 C488 1.370 . S
C489 C493 1.408 . S
C490 C488 1.363 . S
C490 C491 1.370 . S
C490 C494 1.524 . S
C491 C483 1.503 . S
C491 C490 1.370 . S
C491 C492 1.403 . S
C492 C491 1.403 . S
C492 C493 1.404 . S
C492 C495 1.539 . S
C493 C489 1.408 . S
C493 C492 1.404 . S
C493 H505 0.930 . S
C494 C490 1.524 . S
C494 H506 0.956 . S
C494 H507 0.961 . S
C494 H508 0.961 1_455 S
C495 C492 1.539 . S
C495 H509 0.958 . S
C495 H510 0.961 . S
C495 H511 0.960 . S
H496 C480 0.931 . S
H497 C485 0.929 . S
H498 C486 0.960 . S
H499 C486 0.962 . S
H500 C486 0.960 . S
H501 C487 0.961 . S
H502 C487 0.961 . S
H503 C487 0.961 . S
H504 C488 0.931 1_655 S
H505 C493 0.930 . S
H506 C494 0.956 . S
H507 C494 0.961 . S
H508 C494 0.961 1_655 S
H509 C495 0.958 . S
H510 C495 0.961 . S
H511 C495 0.960 . S
C512 C513 1.391 . S
C512 C514 1.394 . S
C512 H528 0.931 . S
C513 C512 1.391 . S
C513 C517 1.376 . S
C514 C512 1.394 . S
C514 C515 1.369 . S
C514 C518 1.531 1_556 S
C515 C514 1.369 . S
C515 C516 1.410 . S
C515 C523 1.503 . S
C516 C515 1.410 . S
C516 C517 1.392 . S
C516 C519 1.511 . S
C517 C513 1.376 . S
C517 C516 1.392 . S
C517 H529 0.929 . S
C518 C514 1.531 1_554 S
C518 H530 0.960 . S
C518 H531 0.962 . S
C518 H532 0.960 . S
C519 C516 1.511 . S
C519 H533 0.961 . S
C519 H534 0.961 . S
C519 H535 0.961 . S
C520 C521 1.370 . S
C520 C522 1.363 . S
C520 H536 0.931 . S
C521 C520 1.370 . S
C521 C525 1.408 . S
C522 C520 1.363 . S
C522 C523 1.370 . S
C522 C526 1.524 . S
C523 C515 1.503 . S
C523 C522 1.370 . S
C523 C524 1.403 . S
C524 C523 1.403 . S
C524 C525 1.404 . S
C524 C527 1.539 . S
C525 C521 1.408 . S
C525 C524 1.404 . S
C525 H537 0.930 . S
C526 C522 1.524 . S
C526 H538 0.956 . S
C526 H539 0.961 . S
C526 H540 0.961 . S
C527 C524 1.539 . S
C527 H541 0.958 . S
C527 H542 0.961 . S
C527 H543 0.960 . S
H528 C512 0.931 . S
H529 C517 0.929 . S
H530 C518 0.960 . S
H531 C518 0.962 . S
H532 C518 0.960 . S
H533 C519 0.961 . S
H534 C519 0.961 . S
H535 C519 0.961 . S
H536 C520 0.931 . S
H537 C525 0.930 . S
H538 C526 0.956 . S
H539 C526 0.961 . S
H540 C526 0.961 . S
H541 C527 0.958 . S
H542 C527 0.961 . S
H543 C527 0.960 . S
C544 C545 1.391 . S
C544 C546 1.394 . S
C544 H560 0.931 . S
C545 C544 1.391 . S
C545 C549 1.376 . S
C546 C544 1.394 . S
C546 C547 1.369 . S
C546 C550 1.531 1_655 S
C547 C546 1.369 . S
C547 C548 1.410 . S
C547 C555 1.503 . S
C548 C547 1.410 . S
C548 C549 1.392 . S
C548 C551 1.511 . S
C549 C545 1.376 . S
C549 C548 1.392 . S
C549 H561 0.929 . S
C550 C546 1.531 1_455 S
C550 H562 0.960 . S
C550 H563 0.962 . S
C550 H564 0.960 . S
C551 C548 1.511 . S
C551 H565 0.961 . S
C551 H566 0.961 . S
C551 H567 0.961 . S
C552 C553 1.370 . S
C552 C554 1.363 1_455 S
C552 H568 0.931 . S
C553 C552 1.370 . S
C553 C557 1.408 1_455 S
C554 C552 1.363 1_655 S
C554 C555 1.370 . S
C554 C558 1.524 . S
C555 C547 1.503 . S
C555 C554 1.370 . S
C555 C556 1.403 . S
C556 C555 1.403 . S
C556 C557 1.404 . S
C556 C559 1.539 . S
C557 C553 1.408 1_655 S
C557 C556 1.404 . S
C557 H569 0.930 . S
C558 C554 1.524 . S
C558 H570 0.956 1_655 S
C558 H571 0.961 . S
C558 H572 0.961 . S
C559 C556 1.539 . S
C559 H573 0.958 . S
C559 H574 0.961 . S
C559 H575 0.960 . S
H560 C544 0.931 . S
H561 C549 0.929 . S
H562 C550 0.960 . S
H563 C550 0.962 . S
H564 C550 0.960 . S
H565 C551 0.961 . S
H566 C551 0.961 . S
H567 C551 0.961 . S
H568 C552 0.931 . S
H569 C557 0.930 . S
H570 C558 0.956 1_455 S
H571 C558 0.961 . S
H572 C558 0.961 . S
H573 C559 0.958 . S
H574 C559 0.961 . S
H575 C559 0.960 . S
C576 C577 1.391 . S
C576 C578 1.394 . S
C576 H592 0.931 . S
C577 C576 1.391 . S
C577 C581 1.376 . S
C578 C576 1.394 . S
C578 C579 1.369 . S
C578 C582 1.531 . S
C579 C578 1.369 . S
C579 C580 1.410 . S
C579 C587 1.503 . S
C580 C579 1.410 . S
C580 C581 1.392 . S
C580 C583 1.511 . S
C581 C577 1.376 . S
C581 C580 1.392 . S
C581 H593 0.929 . S
C582 C578 1.531 . S
C582 H594 0.960 . S
C582 H595 0.962 . S
C582 H596 0.960 . S
C583 C580 1.511 . S
C583 H597 0.961 . S
C583 H598 0.961 . S
C583 H599 0.961 . S
C584 C585 1.370 . S
C584 C586 1.363 . S
C584 H600 0.931 . S
C585 C584 1.370 . S
C585 C589 1.408 . S
C586 C584 1.363 . S
C586 C587 1.370 . S
C586 C590 1.524 . S
C587 C579 1.503 . S
C587 C586 1.370 . S
C587 C588 1.403 . S
C588 C587 1.403 . S
C588 C589 1.404 . S
C588 C591 1.539 . S
C589 C585 1.408 . S
C589 C588 1.404 . S
C589 H601 0.930 . S
C590 C586 1.524 . S
C590 H602 0.956 . S
C590 H603 0.961 . S
C590 H604 0.961 . S
C591 C588 1.539 . S
C591 H605 0.958 . S
C591 H606 0.961 . S
C591 H607 0.960 . S
H592 C576 0.931 . S
H593 C581 0.929 . S
H594 C582 0.960 . S
H595 C582 0.962 . S
H596 C582 0.960 . S
H597 C583 0.961 . S
H598 C583 0.961 . S
H599 C583 0.961 . S
H600 C584 0.931 . S
H601 C589 0.930 . S
H602 C590 0.956 . S
H603 C590 0.961 . S
H604 C590 0.961 . S
H605 C591 0.958 . S
H606 C591 0.961 . S
H607 C591 0.960 . S
C608 C609 1.391 . S
C608 C610 1.394 . S
C608 H624 0.931 . S
C609 C608 1.391 . S
C609 C613 1.376 . S
C610 C608 1.394 . S
C610 C611 1.369 . S
C610 C614 1.531 1_565 S
C611 C610 1.369 . S
C611 C612 1.410 . S
C611 C619 1.503 . S
C612 C611 1.410 . S
C612 C613 1.392 . S
C612 C615 1.511 1_655 S
C613 C609 1.376 . S
C613 C612 1.392 . S
C613 H625 0.929 . S
C614 C610 1.531 1_545 S
C614 H626 0.960 . S
C614 H627 0.962 . S
C614 H628 0.960 . S
C615 C612 1.511 1_455 S
C615 H629 0.958 1_455 S
C615 H630 0.961 . S
C615 H631 0.961 . S
C616 C617 1.370 1_655 S
C616 C618 1.363 . S
C616 H632 0.931 . S
C617 C616 1.370 1_455 S
C617 C621 1.408 . S
C618 C616 1.363 . S
C618 C619 1.370 . S
C618 C622 1.524 . S
C619 C611 1.503 . S
C619 C618 1.370 . S
C619 C620 1.403 1_655 S
C620 C619 1.403 1_455 S
C620 C621 1.404 . S
C620 C623 1.539 1_565 S
C621 C617 1.408 . S
C621 C620 1.404 . S
C621 H633 0.930 1_565 S
C622 C618 1.524 . S
C622 H634 0.956 . S
C622 H635 0.961 . S
C622 H636 0.961 . S
C623 C620 1.539 1_545 S
C623 H637 0.958 . S
C623 H638 0.961 . S
C623 H639 0.960 1_545 S
H624 C608 0.931 . S
H625 C613 0.929 . S
H626 C614 0.960 . S
H627 C614 0.962 . S
H628 C614 0.960 . S
H629 C615 0.958 1_655 S
H630 C615 0.961 . S
H631 C615 0.961 . S
H632 C616 0.931 . S
H633 C621 0.930 1_545 S
H634 C622 0.956 . S
H635 C622 0.961 . S
H636 C622 0.961 . S
H637 C623 0.958 . S
H638 C623 0.961 . S
H639 C623 0.960 1_565 S
C640 C641 1.391 . S
C640 C642 1.394 . S
C640 H656 0.931 . S
C641 C640 1.391 . S
C641 C645 1.376 . S
C642 C640 1.394 . S
C642 C643 1.369 . S
C642 C646 1.531 . S
C643 C642 1.369 . S
C643 C644 1.410 . S
C643 C651 1.503 . S
C644 C643 1.410 . S
C644 C645 1.392 . S
C644 C647 1.511 . S
C645 C641 1.376 . S
C645 C644 1.392 . S
C645 H657 0.929 . S
C646 C642 1.531 . S
C646 H658 0.960 . S
C646 H659 0.962 . S
C646 H660 0.960 . S
C647 C644 1.511 . S
C647 H661 0.961 . S
C647 H662 0.961 . S
C647 H663 0.961 . S
C648 C649 1.370 . S
C648 C650 1.363 . S
C648 H664 0.931 . S
C649 C648 1.370 . S
C649 C653 1.408 . S
C650 C648 1.363 . S
C650 C651 1.370 . S
C650 C654 1.524 . S
C651 C643 1.503 . S
C651 C650 1.370 . S
C651 C652 1.403 . S
C652 C651 1.403 . S
C652 C653 1.404 . S
C652 C655 1.539 . S
C653 C649 1.408 . S
C653 C652 1.404 . S
C653 H665 0.930 . S
C654 C650 1.524 . S
C654 H666 0.956 . S
C654 H667 0.961 . S
C654 H668 0.961 . S
C655 C652 1.539 . S
C655 H669 0.958 . S
C655 H670 0.961 . S
C655 H671 0.960 . S
H656 C640 0.931 . S
H657 C645 0.929 . S
H658 C646 0.960 . S
H659 C646 0.962 . S
H660 C646 0.960 . S
H661 C647 0.961 . S
H662 C647 0.961 . S
H663 C647 0.961 . S
H664 C648 0.931 . S
H665 C653 0.930 . S
H666 C654 0.956 . S
H667 C654 0.961 . S
H668 C654 0.961 . S
H669 C655 0.958 . S
H670 C655 0.961 . S
H671 C655 0.960 . S
C672 C673 1.391 . S
C672 C674 1.394 . S
C672 H688 0.931 . S
C673 C672 1.391 . S
C673 C677 1.376 . S
C674 C672 1.394 . S
C674 C675 1.369 . S
C674 C678 1.531 . S
C675 C674 1.369 . S
C675 C676 1.410 . S
C675 C683 1.503 . S
C676 C675 1.410 . S
C676 C677 1.392 . S
C676 C679 1.511 . S
C677 C673 1.376 . S
C677 C676 1.392 . S
C677 H689 0.929 . S
C678 C674 1.531 . S
C678 H690 0.960 . S
C678 H691 0.962 . S
C678 H692 0.960 . S
C679 C676 1.511 . S
C679 H693 0.961 . S
C679 H694 0.961 . S
C679 H695 0.961 . S
C680 C681 1.370 . S
C680 C682 1.363 . S
C680 H696 0.931 . S
C681 C680 1.370 . S
C681 C685 1.408 . S
C682 C680 1.363 . S
C682 C683 1.370 . S
C682 C686 1.524 . S
C683 C675 1.503 . S
C683 C682 1.370 . S
C683 C684 1.403 . S
C684 C683 1.403 . S
C684 C685 1.404 . S
C684 C687 1.539 . S
C685 C681 1.408 . S
C685 C684 1.404 . S
C685 H697 0.930 . S
C686 C682 1.524 . S
C686 H698 0.956 . S
C686 H699 0.961 . S
C686 H700 0.961 . S
C687 C684 1.539 . S
C687 H701 0.958 . S
C687 H702 0.961 . S
C687 H703 0.960 . S
H688 C672 0.931 . S
H689 C677 0.929 . S
H690 C678 0.960 . S
H691 C678 0.962 . S
H692 C678 0.960 . S
H693 C679 0.961 . S
H694 C679 0.961 . S
H695 C679 0.961 . S
H696 C680 0.931 . S
H697 C685 0.930 . S
H698 C686 0.956 . S
H699 C686 0.961 . S
H700 C686 0.961 . S
H701 C687 0.958 . S
H702 C687 0.961 . S
H703 C687 0.960 . S
C704 C705 1.391 . S
C704 C706 1.394 . S
C704 H720 0.931 . S
C705 C704 1.391 . S
C705 C709 1.376 . S
C706 C704 1.394 . S
C706 C707 1.369 . S
C706 C710 1.531 . S
C707 C706 1.369 . S
C707 C708 1.410 . S
C707 C715 1.503 . S
C708 C707 1.410 . S
C708 C709 1.392 . S
C708 C711 1.511 . S
C709 C705 1.376 . S
C709 C708 1.392 . S
C709 H721 0.929 . S
C710 C706 1.531 . S
C710 H722 0.960 . S
C710 H723 0.962 . S
C710 H724 0.960 . S
C711 C708 1.511 . S
C711 H725 0.961 1_455 S
C711 H726 0.961 . S
C711 H727 0.961 1_455 S
C712 C713 1.370 . S
C712 C714 1.363 . S
C712 H728 0.931 . S
C713 C712 1.370 . S
C713 C717 1.408 . S
C714 C712 1.363 . S
C714 C715 1.370 . S
C714 C718 1.524 . S
C715 C707 1.503 . S
C715 C714 1.370 . S
C715 C716 1.403 . S
C716 C715 1.403 . S
C716 C717 1.404 . S
C716 C719 1.539 . S
C717 C713 1.408 . S
C717 C716 1.404 . S
C717 H729 0.930 . S
C718 C714 1.524 . S
C718 H730 0.956 . S
C718 H731 0.961 . S
C718 H732 0.961 . S
C719 C716 1.539 . S
C719 H733 0.958 . S
C719 H734 0.979 . S
C719 H735 0.960 . S
H720 C704 0.931 . S
H721 C709 0.929 . S
H722 C710 0.960 . S
H723 C710 0.962 . S
H724 C710 0.960 . S
H725 C711 0.961 1_655 S
H726 C711 0.961 . S
H727 C711 0.961 1_655 S
H728 C712 0.931 . S
H729 C717 0.930 . S
H730 C718 0.956 . S
H731 C718 0.961 . S
H732 C718 0.961 . S
H733 C719 0.958 . S
H734 C719 0.979 . S
H735 C719 0.960 . S
C736 C737 1.391 . S
C736 C738 1.394 . S
C736 H752 0.929 1_565 S
C737 C736 1.391 . S
C737 C741 1.376 . S
C738 C736 1.394 . S
C738 C739 1.369 . S
C738 C742 1.531 1_565 S
C739 C738 1.369 . S
C739 C740 1.410 . S
C739 C747 1.503 . S
C740 C739 1.410 . S
C740 C741 1.392 . S
C740 C743 1.511 . S
C741 C737 1.376 . S
C741 C740 1.392 . S
C741 H753 0.929 . S
C742 C738 1.531 1_545 S
C742 H754 0.960 . S
C742 H755 0.962 . S
C742 H756 0.960 . S
C743 C740 1.511 . S
C743 H757 0.961 . S
C743 H758 0.961 . S
C743 H759 0.961 . S
C744 C745 1.370 1_554 S
C744 C746 1.363 1_554 S
C744 H760 0.931 . S
C745 C744 1.370 1_556 S
C745 C749 1.408 1_565 S
C746 C744 1.363 1_556 S
C746 C747 1.370 . S
C746 C750 1.524 1_556 S
C747 C739 1.503 . S
C747 C746 1.370 . S
C747 C748 1.403 . S
C748 C747 1.403 . S
C748 C749 1.404 1_565 S
C748 C751 1.539 1_565 S
C749 C745 1.408 1_545 S
C749 C748 1.404 1_545 S
C749 H761 0.930 . S
C750 C746 1.524 1_554 S
C750 H762 0.956 . S
C750 H763 0.961 . S
C750 H764 0.961 . S
C751 C748 1.539 1_545 S
C751 H765 0.958 . S
C751 H766 0.961 . S
C751 H767 0.960 1_545 S
H752 C736 0.929 1_545 S
H753 C741 0.929 . S
H754 C742 0.960 . S
H755 C742 0.962 . S
H756 C742 0.960 . S
H757 C743 0.961 . S
H758 C743 0.961 . S
H759 C743 0.961 . S
H760 C744 0.931 . S
H761 C749 0.930 . S
H762 C750 0.956 . S
H763 C750 0.961 . S
H764 C750 0.961 . S
H765 C751 0.958 . S
H766 C751 0.961 . S
H767 C751 0.960 1_565 S
C768 C769 1.391 . S
C768 C770 1.394 . S
C768 H784 0.931 . S
C769 C768 1.391 . S
C769 C773 1.376 . S
C770 C768 1.394 . S
C770 C771 1.369 . S
C770 C774 1.531 . S
C771 C770 1.369 . S
C771 C772 1.410 . S
C771 C779 1.503 . S
C772 C771 1.410 . S
C772 C773 1.392 . S
C772 C775 1.511 . S
C773 C769 1.376 . S
C773 C772 1.392 . S
C773 H785 0.929 . S
C774 C770 1.531 . S
C774 H786 0.960 . S
C774 H787 0.962 . S
C774 H788 0.960 . S
C775 C772 1.511 . S
C775 H789 0.961 . S
C775 H790 0.961 . S
C775 H791 0.961 . S
C776 C777 1.370 . S
C776 C778 1.363 . S
C776 H792 0.931 . S
C777 C776 1.370 . S
C777 C781 1.408 . S
C778 C776 1.363 . S
C778 C779 1.370 . S
C778 C782 1.524 . S
C779 C771 1.503 . S
C779 C778 1.370 . S
C779 C780 1.403 . S
C780 C779 1.403 . S
C780 C781 1.404 . S
C780 C783 1.539 . S
C781 C777 1.408 . S
C781 C780 1.404 . S
C781 H793 0.930 . S
C782 C778 1.524 . S
C782 H794 0.956 . S
C782 H795 0.961 . S
C782 H796 0.961 . S
C783 C780 1.539 . S
C783 H797 0.958 . S
C783 H798 0.961 . S
C783 H799 0.960 . S
H784 C768 0.931 . S
H785 C773 0.929 . S
H786 C774 0.960 . S
H787 C774 0.962 . S
H788 C774 0.960 . S
H789 C775 0.961 . S
H790 C775 0.961 . S
H791 C775 0.961 . S
H792 C776 0.931 . S
H793 C781 0.930 . S
H794 C782 0.956 . S
H795 C782 0.961 . S
H796 C782 0.961 . S
H797 C783 0.958 . S
H798 C783 0.961 . S
H799 C783 0.960 . S
C800 C801 1.391 . S
C800 C802 1.394 . S
C800 H816 0.931 . S
C801 C800 1.391 . S
C801 C805 1.376 . S
C802 C800 1.394 . S
C802 C803 1.369 . S
C802 C806 1.531 . S
C803 C802 1.369 . S
C803 C804 1.410 . S
C803 C811 1.503 . S
C804 C803 1.410 . S
C804 C805 1.392 . S
C804 C807 1.511 . S
C805 C801 1.376 . S
C805 C804 1.392 . S
C805 H817 0.929 . S
C806 C802 1.531 . S
C806 H818 0.960 . S
C806 H819 0.961 1_554 S
C806 H820 0.960 . S
C807 C804 1.511 . S
C807 H821 0.961 . S
C807 H822 0.961 . S
C807 H823 0.961 . S
C808 C809 1.370 . S
C808 C810 1.363 . S
C808 H824 0.931 . S
C809 C808 1.370 . S
C809 C813 1.408 . S
C810 C808 1.363 . S
C810 C811 1.370 . S
C810 C814 1.524 . S
C811 C803 1.503 . S
C811 C810 1.370 . S
C811 C812 1.403 . S
C812 C811 1.403 . S
C812 C813 1.404 . S
C812 C815 1.539 . S
C813 C809 1.408 . S
C813 C812 1.404 . S
C813 H825 0.930 . S
C814 C810 1.524 . S
C814 H826 0.956 . S
C814 H827 0.961 . S
C814 H828 0.961 . S
C815 C812 1.539 . S
C815 H829 0.958 . S
C815 H830 0.961 . S
C815 H831 0.960 . S
H816 C800 0.931 . S
H817 C805 0.929 . S
H818 C806 0.960 . S
H819 C806 0.961 1_556 S
H820 C806 0.960 . S
H821 C807 0.961 . S
H822 C807 0.961 . S
H823 C807 0.961 . S
H824 C808 0.931 . S
H825 C813 0.930 . S
H826 C814 0.956 . S
H827 C814 0.961 . S
H828 C814 0.961 . S
H829 C815 0.958 . S
H830 C815 0.961 . S
H831 C815 0.960 . S
C832 C833 1.391 . S
C832 C834 1.394 . S
C832 H848 0.931 . S
C833 C832 1.391 . S
C833 C837 1.376 . S
C834 C832 1.394 . S
C834 C835 1.369 . S
C834 C838 1.531 . S
C835 C834 1.369 . S
C835 C836 1.410 . S
C835 C843 1.503 . S
C836 C835 1.410 . S
C836 C837 1.392 . S
C836 C839 1.511 . S
C837 C833 1.376 . S
C837 C836 1.392 . S
C837 H849 0.929 . S
C838 C834 1.531 . S
C838 H850 0.960 . S
C838 H851 0.962 . S
C838 H852 0.960 . S
C839 C836 1.511 . S
C839 H853 0.961 . S
C839 H854 0.961 . S
C839 H855 0.961 . S
C840 C841 1.370 . S
C840 C842 1.363 . S
C840 H856 0.931 . S
C841 C840 1.370 . S
C841 C845 1.408 . S
C842 C840 1.363 . S
C842 C843 1.370 . S
C842 C846 1.524 . S
C843 C835 1.503 . S
C843 C842 1.370 . S
C843 C844 1.403 . S
C844 C843 1.403 . S
C844 C845 1.404 . S
C844 C847 1.539 . S
C845 C841 1.408 . S
C845 C844 1.404 . S
C845 H857 0.930 . S
C846 C842 1.524 . S
C846 H858 0.956 . S
C846 H859 0.961 . S
C846 H860 0.961 . S
C847 C844 1.539 . S
C847 H861 0.958 . S
C847 H862 0.961 . S
C847 H863 0.960 . S
H848 C832 0.931 . S
H849 C837 0.929 . S
H850 C838 0.960 . S
H851 C838 0.962 . S
H852 C838 0.960 . S
H853 C839 0.961 . S
H854 C839 0.961 . S
H855 C839 0.961 . S
H856 C840 0.931 . S
H857 C845 0.930 . S
H858 C846 0.956 . S
H859 C846 0.961 . S
H860 C846 0.961 . S
H861 C847 0.958 . S
H862 C847 0.961 . S
H863 C847 0.960 . S
C864 C865 1.391 . S
C864 C866 1.394 . S
C864 H880 0.931 . S
C865 C864 1.391 . S
C865 C869 1.376 . S
C866 C864 1.394 . S
C866 C867 1.369 . S
C866 C870 1.531 1_655 S
C867 C866 1.369 . S
C867 C868 1.410 . S
C867 C875 1.503 . S
C868 C867 1.410 . S
C868 C869 1.392 . S
C868 C871 1.511 . S
C869 C865 1.376 . S
C869 C868 1.392 . S
C869 H881 0.929 . S
C870 C866 1.531 1_455 S
C870 H882 0.960 . S
C870 H883 0.962 . S
C870 H884 0.960 . S
C871 C868 1.511 . S
C871 H885 0.961 . S
C871 H886 0.961 . S
C871 H887 0.961 . S
C872 C873 1.370 . S
C872 C874 1.363 . S
C872 H888 0.931 . S
C873 C872 1.370 . S
C873 C877 1.408 . S
C874 C872 1.363 . S
C874 C875 1.370 . S
C874 C878 1.524 . S
C875 C867 1.503 . S
C875 C874 1.370 . S
C875 C876 1.403 . S
C876 C875 1.403 . S
C876 C877 1.404 . S
C876 C879 1.539 1_556 S
C877 C873 1.408 . S
C877 C876 1.404 . S
C877 H889 0.930 1_556 S
C878 C874 1.524 . S
C878 H890 0.956 . S
C878 H891 0.961 . S
C878 H892 0.961 . S
C879 C876 1.539 1_554 S
C879 H893 0.958 . S
C879 H894 0.961 . S
C879 H895 0.960 . S
H880 C864 0.931 . S
H881 C869 0.929 . S
H882 C870 0.960 . S
H883 C870 0.962 . S
H884 C870 0.960 . S
H885 C871 0.961 . S
H886 C871 0.961 . S
H887 C871 0.961 . S
H888 C872 0.931 . S
H889 C877 0.930 1_554 S
H890 C878 0.956 . S
H891 C878 0.961 . S
H892 C878 0.961 . S
H893 C879 0.958 . S
H894 C879 0.961 . S
H895 C879 0.960 . S
C896 C897 1.391 . S
C896 C898 1.394 . S
C896 H912 0.931 . S
C897 C896 1.391 . S
C897 C901 1.376 . S
C898 C896 1.394 . S
C898 C899 1.369 . S
C898 C902 1.531 . S
C899 C898 1.369 . S
C899 C900 1.410 . S
C899 C907 1.503 . S
C900 C899 1.410 . S
C900 C901 1.392 . S
C900 C903 1.511 . S
C901 C897 1.376 . S
C901 C900 1.392 . S
C901 H913 0.929 . S
C902 C898 1.531 . S
C902 H914 0.960 . S
C902 H915 0.962 . S
C902 H916 0.960 . S
C903 C900 1.511 . S
C903 H917 0.961 . S
C903 H918 0.961 . S
C903 H919 0.961 . S
C904 C905 1.370 . S
C904 C906 1.363 . S
C904 H920 0.931 . S
C905 C904 1.370 . S
C905 C909 1.408 . S
C906 C904 1.363 . S
C906 C907 1.370 . S
C906 C910 1.524 . S
C907 C899 1.503 . S
C907 C906 1.370 . S
C907 C908 1.403 . S
C908 C907 1.403 . S
C908 C909 1.404 . S
C908 C911 1.539 . S
C909 C905 1.408 . S
C909 C908 1.404 . S
C909 H921 0.930 . S
C910 C906 1.524 . S
C910 H922 0.956 . S
C910 H923 0.961 . S
C910 H924 0.961 . S
C911 C908 1.539 . S
C911 H925 0.958 . S
C911 H926 0.961 . S
C911 H927 0.960 . S
H912 C896 0.931 . S
H913 C901 0.929 . S
H914 C902 0.960 . S
H915 C902 0.962 . S
H916 C902 0.960 . S
H917 C903 0.961 . S
H918 C903 0.961 . S
H919 C903 0.961 . S
H920 C904 0.931 . S
H921 C909 0.930 . S
H922 C910 0.956 . S
H923 C910 0.961 . S
H924 C910 0.961 . S
H925 C911 0.958 . S
H926 C911 0.961 . S
H927 C911 0.960 . S
C928 C929 1.391 . S
C928 C930 1.394 . S
C928 H944 0.931 . S
C929 C928 1.391 . S
C929 C933 1.376 . S
C930 C928 1.394 . S
C930 C931 1.369 . S
C930 C934 1.531 . S
C931 C930 1.369 . S
C931 C932 1.410 . S
C931 C939 1.503 . S
C932 C931 1.410 . S
C932 C933 1.392 . S
C932 C935 1.511 . S
C933 C929 1.376 . S
C933 C932 1.392 . S
C933 H945 0.929 . S
C934 C930 1.531 . S
C934 H946 0.960 . S
C934 H947 0.962 . S
C934 H948 0.960 . S
C935 C932 1.511 . S
C935 H949 0.961 1_455 S
C935 H950 0.961 . S
C935 H951 0.961 . S
C936 C937 1.370 . S
C936 C938 1.363 . S
C936 H952 0.931 . S
C937 C936 1.370 . S
C937 C941 1.408 . S
C938 C936 1.363 . S
C938 C939 1.370 . S
C938 C942 1.524 . S
C939 C931 1.503 . S
C939 C938 1.370 . S
C939 C940 1.403 . S
C940 C939 1.403 . S
C940 C941 1.404 . S
C940 C943 1.539 . S
C941 C937 1.408 . S
C941 C940 1.404 . S
C941 H953 0.930 . S
C942 C938 1.524 . S
C942 H954 0.956 . S
C942 H955 0.961 . S
C942 H956 0.961 . S
C943 C940 1.539 . S
C943 H957 0.958 . S
C943 H958 0.961 . S
C943 H959 0.960 . S
H944 C928 0.931 . S
H945 C933 0.929 . S
H946 C934 0.960 . S
H947 C934 0.962 . S
H948 C934 0.960 . S
H949 C935 0.961 1_655 S
H950 C935 0.961 . S
H951 C935 0.961 . S
H952 C936 0.931 . S
H953 C941 0.930 . S
H954 C942 0.956 . S
H955 C942 0.961 . S
H956 C942 0.961 . S
H957 C943 0.958 . S
H958 C943 0.961 . S
H959 C943 0.960 . S
C960 C961 1.391 . S
C960 C962 1.394 . S
C960 H976 0.931 . S
C961 C960 1.391 . S
C961 C965 1.376 . S
C962 C960 1.394 . S
C962 C963 1.369 . S
C962 C966 1.531 . S
C963 C962 1.369 . S
C963 C964 1.410 . S
C963 C971 1.503 . S
C964 C963 1.410 . S
C964 C965 1.392 . S
C964 C967 1.511 . S
C965 C961 1.376 . S
C965 C964 1.392 . S
C965 H977 0.929 . S
C966 C962 1.531 . S
C966 H978 0.960 . S
C966 H979 0.962 . S
C966 H980 0.960 . S
C967 C964 1.511 . S
C967 H981 0.961 . S
C967 H982 0.961 . S
C967 H983 0.961 . S
C968 C969 1.370 . S
C968 C970 1.363 . S
C968 H984 0.931 . S
C969 C968 1.370 . S
C969 C973 1.408 . S
C970 C968 1.363 . S
C970 C971 1.370 . S
C970 C974 1.524 . S
C971 C963 1.503 . S
C971 C970 1.370 . S
C971 C972 1.403 . S
C972 C971 1.403 . S
C972 C973 1.404 . S
C972 C975 1.539 . S
C973 C969 1.408 . S
C973 C972 1.404 . S
C973 H985 0.930 . S
C974 C970 1.524 . S
C974 H986 0.956 . S
C974 H987 0.961 . S
C974 H988 0.961 . S
C975 C972 1.539 . S
C975 H989 0.958 . S
C975 H990 0.961 . S
C975 H991 0.960 . S
H976 C960 0.931 . S
H977 C965 0.929 . S
H978 C966 0.960 . S
H979 C966 0.962 . S
H980 C966 0.960 . S
H981 C967 0.961 . S
H982 C967 0.961 . S
H983 C967 0.961 . S
H984 C968 0.931 . S
H985 C973 0.930 . S
H986 C974 0.956 . S
H987 C974 0.961 . S
H988 C974 0.961 . S
H989 C975 0.958 . S
H990 C975 0.961 . S
H991 C975 0.960 . S
C225 N1 2.050 . S
C233 C120 2.105 . S
C257 N18 1.401 . S
C265 N140 1.362 . S
C297 C174 1.505 . S
C289 N28 1.503 . S
C321 N40 1.396 . S
C329 N208 1.342 . S
C361 C161 2.629 . S
C353 N5 2.566 . S
C393 N118 1.161 . S
C385 N14 1.211 . S
C425 C195 1.935 . S
C417 N31 1.895 . S
C457 N170 0.686 . S
C449 N41 0.682 . S
C481 N2 1.688 . S
C489 C210 1.716 . S
C521 C144 1.739 . S
C513 N27 1.697 . S
C545 N44 1.504 . S
C553 C105 1.559 . S
C577 N15 1.196 . S
C585 C191 1.219 . S
C617 C131 2.428 . S
C609 N57 2.416 . S
C641 N70 0.993 . S
C649 N148 0.958 . S
C673 N79 1.762 . S
C681 C165 1.823 . S
C705 N93 1.124 . S
C713 N200 1.057 . S
C737 N54 2.229 . S
C745 C150 2.236 1_556 S
C777 N110 1.513 . S
C769 N66 1.563 . S
C809 C204 1.446 . S
C801 N80 1.437 . S
C841 N178 0.990 . S
C833 N96 1.009 . S
C865 N53 1.729 . S
C873 C221 1.772 . S
C905 C135 1.631 . S
C897 N83 1.603 . S
C937 C114 1.561 . S
C929 N92 1.509 . S
C961 N67 1.193 . S
C969 C180 1.235 . S
