# Generated by pormake.
# Topology ptr, (4,4)-cn, num edge types: 1
# Building blocks:
#     Node 0, Type 0, BuildingBlock: AZAVOO_clean_sbu_0, # of connection points: 4
#     Node 1, Type 0, BuildingBlock: AZAVOO_clean_sbu_0, # of connection points: 4
#     Node 2, Type 0, BuildingBlock: AZAVOO_clean_sbu_0, # of connection points: 4
#     Node 3, Type 0, BuildingBlock: AZAVOO_clean_sbu_0, # of connection points: 4
#     Node 4, Type 0, BuildingBlock: AZAVOO_clean_sbu_0, # of connection points: 4
#     Node 5, Type 0, BuildingBlock: AZAVOO_clean_sbu_0, # of connection points: 4
#     Node 6, Type 0, BuildingBlock: AZAVOO_clean_sbu_0, # of connection points: 4
#     Node 7, Type 0, BuildingBlock: AZAVOO_clean_sbu_0, # of connection points: 4
#     Node 8, Type 0, BuildingBlock: AZAVOO_clean_sbu_0, # of connection points: 4
#     Node 9, Type 0, BuildingBlock: AZAVOO_clean_sbu_0, # of connection points: 4
#     Node 10, Type 0, BuildingBlock: AZAVOO_clean_sbu_0, # of connection points: 4
#     Node 11, Type 0, BuildingBlock: AZAVOO_clean_sbu_0, # of connection points: 4
#     Node 12, Type 0, BuildingBlock: AZAVOO_clean_sbu_0, # of connection points: 4
#     Node 13, Type 0, BuildingBlock: AZAVOO_clean_sbu_0, # of connection points: 4
#     Node 14, Type 0, BuildingBlock: AZAVOO_clean_sbu_0, # of connection points: 4
#     Node 15, Type 0, BuildingBlock: AZAVOO_clean_sbu_0, # of connection points: 4
#     Node 16, Type 0, BuildingBlock: AZAVOO_clean_sbu_0, # of connection points: 4
#     Node 17, Type 0, BuildingBlock: AZAVOO_clean_sbu_0, # of connection points: 4
#     Node 18, Type 1, BuildingBlock: NAWXER_clean_linker_0, # of connection points: 4
#     Node 19, Type 1, BuildingBlock: NAWXER_clean_linker_0, # of connection points: 4
#     Node 20, Type 1, BuildingBlock: NAWXER_clean_linker_0, # of connection points: 4
#     Node 21, Type 1, BuildingBlock: NAWXER_clean_linker_0, # of connection points: 4
#     Node 22, Type 1, BuildingBlock: NAWXER_clean_linker_0, # of connection points: 4
#     Node 23, Type 1, BuildingBlock: NAWXER_clean_linker_0, # of connection points: 4
#     Node 24, Type 1, BuildingBlock: NAWXER_clean_linker_0, # of connection points: 4
#     Node 25, Type 1, BuildingBlock: NAWXER_clean_linker_0, # of connection points: 4
#     Node 26, Type 1, BuildingBlock: NAWXER_clean_linker_0, # of connection points: 4
#     Node 27, Type 1, BuildingBlock: NAWXER_clean_linker_0, # of connection points: 4
#     Node 28, Type 1, BuildingBlock: NAWXER_clean_linker_0, # of connection points: 4
#     Node 29, Type 1, BuildingBlock: NAWXER_clean_linker_0, # of connection points: 4
#     Node 30, Type 1, BuildingBlock: NAWXER_clean_linker_0, # of connection points: 4
#     Node 31, Type 1, BuildingBlock: NAWXER_clean_linker_0, # of connection points: 4
#     Node 32, Type 1, BuildingBlock: NAWXER_clean_linker_0, # of connection points: 4
#     Node 33, Type 1, BuildingBlock: NAWXER_clean_linker_0, # of connection points: 4
#     Node 34, Type 1, BuildingBlock: NAWXER_clean_linker_0, # of connection points: 4
#     Node 35, Type 1, BuildingBlock: NAWXER_clean_linker_0, # of connection points: 4
#     Edge 36, Type (0, 1), BuildingBlock: XUDNAN_clean_linker_2, # of connection points: 2
#     Edge 37, Type (0, 1), BuildingBlock: XUDNAN_clean_linker_2, # of connection points: 2
#     Edge 38, Type (0, 1), BuildingBlock: XUDNAN_clean_linker_2, # of connection points: 2
#     Edge 39, Type (0, 1), BuildingBlock: XUDNAN_clean_linker_2, # of connection points: 2
#     Edge 40, Type (0, 1), BuildingBlock: XUDNAN_clean_linker_2, # of connection points: 2
#     Edge 41, Type (0, 1), BuildingBlock: XUDNAN_clean_linker_2, # of connection points: 2
#     Edge 42, Type (0, 1), BuildingBlock: XUDNAN_clean_linker_2, # of connection points: 2
#     Edge 43, Type (0, 1), BuildingBlock: XUDNAN_clean_linker_2, # of connection points: 2
#     Edge 44, Type (0, 1), BuildingBlock: XUDNAN_clean_linker_2, # of connection points: 2
#     Edge 45, Type (0, 1), BuildingBlock: XUDNAN_clean_linker_2, # of connection points: 2
#     Edge 46, Type (0, 1), BuildingBlock: XUDNAN_clean_linker_2, # of connection points: 2
#     Edge 47, Type (0, 1), BuildingBlock: XUDNAN_clean_linker_2, # of connection points: 2
#     Edge 48, Type (0, 1), BuildingBlock: XUDNAN_clean_linker_2, # of connection points: 2
#     Edge 49, Type (0, 1), BuildingBlock: XUDNAN_clean_linker_2, # of connection points: 2
#     Edge 50, Type (0, 1), BuildingBlock: XUDNAN_clean_linker_2, # of connection points: 2
#     Edge 51, Type (0, 1), BuildingBlock: XUDNAN_clean_linker_2, # of connection points: 2
#     Edge 52, Type (0, 1), BuildingBlock: XUDNAN_clean_linker_2, # of connection points: 2
#     Edge 53, Type (0, 1), BuildingBlock: XUDNAN_clean_linker_2, # of connection points: 2
#     Edge 54, Type (0, 1), BuildingBlock: XUDNAN_clean_linker_2, # of connection points: 2
#     Edge 55, Type (0, 1), BuildingBlock: XUDNAN_clean_linker_2, # of connection points: 2
#     Edge 56, Type (0, 1), BuildingBlock: XUDNAN_clean_linker_2, # of connection points: 2
#     Edge 57, Type (0, 1), BuildingBlock: XUDNAN_clean_linker_2, # of connection points: 2
#     Edge 58, Type (0, 1), BuildingBlock: XUDNAN_clean_linker_2, # of connection points: 2
#     Edge 59, Type (0, 1), BuildingBlock: XUDNAN_clean_linker_2, # of connection points: 2
#     Edge 60, Type (0, 1), BuildingBlock: XUDNAN_clean_linker_2, # of connection points: 2
#     Edge 61, Type (0, 1), BuildingBlock: XUDNAN_clean_linker_2, # of connection points: 2
#     Edge 62, Type (0, 1), BuildingBlock: XUDNAN_clean_linker_2, # of connection points: 2
#     Edge 63, Type (0, 1), BuildingBlock: XUDNAN_clean_linker_2, # of connection points: 2
#     Edge 64, Type (0, 1), BuildingBlock: XUDNAN_clean_linker_2, # of connection points: 2
#     Edge 65, Type (0, 1), BuildingBlock: XUDNAN_clean_linker_2, # of connection points: 2
#     Edge 66, Type (0, 1), BuildingBlock: XUDNAN_clean_linker_2, # of connection points: 2
#     Edge 67, Type (0, 1), BuildingBlock: XUDNAN_clean_linker_2, # of connection points: 2
#     Edge 68, Type (0, 1), BuildingBlock: XUDNAN_clean_linker_2, # of connection points: 2
#     Edge 69, Type (0, 1), BuildingBlock: XUDNAN_clean_linker_2, # of connection points: 2
#     Edge 70, Type (0, 1), BuildingBlock: XUDNAN_clean_linker_2, # of connection points: 2
#     Edge 71, Type (0, 1), BuildingBlock: XUDNAN_clean_linker_2, # of connection points: 2
#     Edge 72, Type (0, 1), BuildingBlock: XUDNAN_clean_linker_2, # of connection points: 2
#     Edge 73, Type (0, 1), BuildingBlock: XUDNAN_clean_linker_2, # of connection points: 2
#     Edge 74, Type (0, 1), BuildingBlock: XUDNAN_clean_linker_2, # of connection points: 2
#     Edge 75, Type (0, 1), BuildingBlock: XUDNAN_clean_linker_2, # of connection points: 2
#     Edge 76, Type (0, 1), BuildingBlock: XUDNAN_clean_linker_2, # of connection points: 2
#     Edge 77, Type (0, 1), BuildingBlock: XUDNAN_clean_linker_2, # of connection points: 2
#     Edge 78, Type (0, 1), BuildingBlock: XUDNAN_clean_linker_2, # of connection points: 2
#     Edge 79, Type (0, 1), BuildingBlock: XUDNAN_clean_linker_2, # of connection points: 2
#     Edge 80, Type (0, 1), BuildingBlock: XUDNAN_clean_linker_2, # of connection points: 2
#     Edge 81, Type (0, 1), BuildingBlock: XUDNAN_clean_linker_2, # of connection points: 2
#     Edge 82, Type (0, 1), BuildingBlock: XUDNAN_clean_linker_2, # of connection points: 2
#     Edge 83, Type (0, 1), BuildingBlock: XUDNAN_clean_linker_2, # of connection points: 2
#     Edge 84, Type (0, 1), BuildingBlock: XUDNAN_clean_linker_2, # of connection points: 2
#     Edge 85, Type (0, 1), BuildingBlock: XUDNAN_clean_linker_2, # of connection points: 2
#     Edge 86, Type (0, 1), BuildingBlock: XUDNAN_clean_linker_2, # of connection points: 2
#     Edge 87, Type (0, 1), BuildingBlock: XUDNAN_clean_linker_2, # of connection points: 2
#     Edge 88, Type (0, 1), BuildingBlock: XUDNAN_clean_linker_2, # of connection points: 2
#     Edge 89, Type (0, 1), BuildingBlock: XUDNAN_clean_linker_2, # of connection points: 2
#     Edge 90, Type (0, 1), BuildingBlock: XUDNAN_clean_linker_2, # of connection points: 2
#     Edge 91, Type (0, 1), BuildingBlock: XUDNAN_clean_linker_2, # of connection points: 2
#     Edge 92, Type (0, 1), BuildingBlock: XUDNAN_clean_linker_2, # of connection points: 2
#     Edge 93, Type (0, 1), BuildingBlock: XUDNAN_clean_linker_2, # of connection points: 2
#     Edge 94, Type (0, 1), BuildingBlock: XUDNAN_clean_linker_2, # of connection points: 2
#     Edge 95, Type (0, 1), BuildingBlock: XUDNAN_clean_linker_2, # of connection points: 2
#     Edge 96, Type (0, 1), BuildingBlock: XUDNAN_clean_linker_2, # of connection points: 2
#     Edge 97, Type (0, 1), BuildingBlock: XUDNAN_clean_linker_2, # of connection points: 2
#     Edge 98, Type (0, 1), BuildingBlock: XUDNAN_clean_linker_2, # of connection points: 2
#     Edge 99, Type (0, 1), BuildingBlock: XUDNAN_clean_linker_2, # of connection points: 2
#     Edge 100, Type (0, 1), BuildingBlock: XUDNAN_clean_linker_2, # of connection points: 2
#     Edge 101, Type (0, 1), BuildingBlock: XUDNAN_clean_linker_2, # of connection points: 2
#     Edge 102, Type (0, 1), BuildingBlock: XUDNAN_clean_linker_2, # of connection points: 2
#     Edge 103, Type (0, 1), BuildingBlock: XUDNAN_clean_linker_2, # of connection points: 2
#     Edge 104, Type (0, 1), BuildingBlock: XUDNAN_clean_linker_2, # of connection points: 2
#     Edge 105, Type (0, 1), BuildingBlock: XUDNAN_clean_linker_2, # of connection points: 2
#     Edge 106, Type (0, 1), BuildingBlock: XUDNAN_clean_linker_2, # of connection points: 2
#     Edge 107, Type (0, 1), BuildingBlock: XUDNAN_clean_linker_2, # of connection points: 2
# Relax obj value: 0.082
# Max RMSD: 0.299
# Mean RMSD: 0.121
data_MOF--net-ptr--node1-AZAVOO_clean_sbu_0--node2-NAWXER_clean_linker_0--edge1-XUDNAN_clean_linker_2
_symmetry_space_group_name_H-M    P1
_symmetry_Int_Tables_number       1
_symmetry_cell_setting            triclinic
loop_
_symmetry_equiv_pos_as_xyz
'x, y, z'
_cell_length_a     89.405484
_cell_length_b     87.560585
_cell_length_c     62.089687
_cell_angle_alpha  91.0374
_cell_angle_beta   90.81967
_cell_angle_gamma 120.39438
loop_
_atom_site_label
_atom_site_type_symbol
_atom_site_fract_x
_atom_site_fract_y
_atom_site_fract_z
_atom_type_partial_charge
Mg0 Mg 0.00432 0.33198 0.9886 0.0
O1 O -0.0015 0.34451 0.01808 0.0
O2 O 0.9797 0.35258 0.00668 0.0
Mg3 Mg 0.97425 0.34642 0.97067 0.0
C4 C 0.98897 0.3513 0.02156 0.0
C5 C 0.02235 0.31132 0.00088 0.0
O6 O 0.0198 0.30859 0.97992 0.0
O7 O 0.97752 0.30653 0.9892 0.0
O8 O 0.9608 0.3168 0.97673 0.0
O9 O 0.02633 0.35866 0.98026 0.0
O10 O -0.00057 0.34783 0.96816 0.0
C11 C 0.96272 0.30414 0.98322 0.0
C12 C 0.01516 0.36089 0.96937 0.0
O13 O 0.01683 0.32042 0.01036 0.0
Mg14 Mg 0.64958 0.64836 0.03678 0.0
O15 O 0.62973 0.63841 0.00849 0.0
O16 O 0.6033 0.628 0.02156 0.0
Mg17 Mg 0.60625 0.6315 0.05824 0.0
C18 C 0.61334 0.63127 0.00574 0.0
C19 C 0.68583 0.66378 0.01563 0.0
O20 O 0.68898 0.65764 0.03321 0.0
O21 O 0.64762 0.67317 0.04183 0.0
O22 O 0.62139 0.66175 0.05604 0.0
O23 O 0.64585 0.62119 0.04005 0.0
O24 O 0.63059 0.63078 0.05723 0.0
C25 C 0.63558 0.67499 0.05004 0.0
C26 C 0.63337 0.61801 0.05289 0.0
O27 O 0.671 0.66217 0.01273 0.0
Mg28 Mg 0.33607 0.99499 0.98778 0.0
O29 O 0.34937 -0.00081 0.02112 0.0
O30 O 0.37427 0.02505 0.02128 0.0
Mg31 Mg 0.37748 0.03672 0.98793 0.0
C32 C 0.36335 0.01102 0.03064 0.0
C33 C 0.30728 0.96292 0.01477 0.0
O34 O 0.31984 0.96017 0.02082 0.0
O35 O 0.3292 0.01621 0.99417 0.0
O36 O 0.35462 0.04142 0.99218 0.0
O37 O 0.34961 0.98102 0.97553 0.0
O38 O 0.35996 0.00982 0.97392 0.0
C39 C 0.3382 0.03307 0.99436 0.0
C40 C 0.36203 -0.00349 0.97028 0.0
O41 O 0.31028 0.97492 0.00147 0.0
Mg42 Mg 0.97989 0.65116 0.02198 0.0
O43 O -0.00396 0.64504 0.99846 0.0
O44 O 0.01306 0.63859 0.01834 0.0
Mg45 Mg 0.00941 0.64255 0.054 0.0
C46 C 0.00726 0.64014 9e-05 0.0
C47 C 0.95714 0.6628 0.99812 0.0
O48 O 0.94976 0.65798 0.01687 0.0
O49 O 0.00283 0.67877 0.03015 0.0
O50 O 0.01972 0.67239 0.05038 0.0
O51 O 0.96077 0.62205 0.02251 0.0
O52 O 0.98292 0.63623 0.0456 0.0
C53 C 0.0165 0.68362 0.04177 0.0
C54 C 0.97008 0.62149 0.03831 0.0
O55 O 0.97051 0.66164 0.99457 0.0
Mg56 Mg 0.33685 0.34528 0.98172 0.0
O57 O 0.35567 0.35095 0.01059 0.0
O58 O 0.3812 0.35728 0.99715 0.0
Mg59 Mg 0.37879 0.35529 0.96039 0.0
C60 C 0.37159 0.35538 0.0131 0.0
C61 C 0.3077 0.34086 0.01377 0.0
O62 O 0.31489 0.35804 0.01162 0.0
O63 O 0.33415 0.31839 0.97531 0.0
O64 O 0.35968 0.32525 0.96128 0.0
O65 O 0.34566 0.37429 0.9805 0.0
O66 O 0.35775 0.36124 0.96297 0.0
C67 C 0.34444 0.31396 0.96713 0.0
C68 C 0.35799 0.37557 0.96859 0.0
O69 O 0.31387 0.33256 0.00383 0.0
Mg70 Mg 0.65055 0.01265 0.03194 0.0
O71 O 0.62816 0.99519 0.00834 0.0
O72 O 0.60584 0.97511 0.02698 0.0
Mg73 Mg 0.61332 0.98118 0.06291 0.0
C74 C 0.6128 0.98192 0.00918 0.0
C75 C 0.66557 0.02867 0.98786 0.0
O76 O 0.65101 0.02894 0.98756 0.0
O77 O 0.65576 0.99001 0.03801 0.0
O78 O 0.63398 0.97333 0.05966 0.0
O79 O 0.64104 0.03186 0.03487 0.0
O80 O 0.63253 0.00867 0.05535 0.0
C81 C 0.64798 0.97689 0.05037 0.0
C82 C 0.63106 0.02195 0.04978 0.0
O83 O 0.66932 0.02254 0.00415 0.0
Mg84 Mg 0.67394 0.67459 0.32499 0.0
O85 O 0.66205 0.68364 0.3515 0.0
O86 O 0.64344 0.68981 0.33493 0.0
Mg87 Mg 0.64353 0.68507 0.29851 0.0
C88 C 0.65103 0.68886 0.35201 0.0
C89 C 0.69888 0.67201 0.35947 0.0
O90 O 0.70821 0.68907 0.35611 0.0
O91 O 0.64902 0.64804 0.32041 0.0
O92 O 0.63172 0.65485 0.30186 0.0
O93 O 0.69519 0.70247 0.32077 0.0
O94 O 0.67015 0.68999 0.30271 0.0
C95 C 0.63481 0.64345 0.3102 0.0
C96 C 0.68501 0.7039 0.30696 0.0
O97 O 0.68423 0.66291 0.34978 0.0
Mg98 Mg 0.31627 0.98689 0.36924 0.0
O99 O 0.29611 0.97757 0.34096 0.0
O100 O 0.27096 0.97134 0.3557 0.0
Mg101 Mg 0.27424 0.97447 0.39226 0.0
C102 C 0.28001 0.97271 0.33936 0.0
C103 C 0.35321 0.00274 0.35634 0.0
O104 O 0.35324 0.00206 0.37747 0.0
O105 O 0.31683 0.01331 0.37283 0.0
O106 O 0.29134 0.00441 0.38827 0.0
O107 O 0.31047 0.95925 0.37384 0.0
O108 O 0.2969 0.9711 0.39033 0.0
C109 C 0.30573 0.01659 0.38115 0.0
C110 C 0.29853 0.95748 0.38683 0.0
O111 O 0.33891 -0.00204 0.3464 0.0
Mg112 Mg 0.00182 0.32068 0.3174 0.0
O113 O 0.01978 0.32966 0.34753 0.0
O114 O 0.04464 0.35381 0.33921 0.0
Mg115 Mg 0.04259 0.36052 0.30432 0.0
C116 C 0.03513 0.34209 0.35253 0.0
C117 C 0.96404 0.29645 0.32823 0.0
O118 O 0.96334 0.30035 0.30804 0.0
O119 O -0.00385 0.34306 0.3223 0.0
O120 O 0.02084 0.36629 0.3117 0.0
O121 O 0.01342 0.30475 0.30433 0.0
O122 O 0.0228 0.33271 0.2975 0.0
C123 C 0.00525 0.35945 0.318 0.0
C124 C 0.02435 0.31903 0.29477 0.0
O125 O 0.97879 0.30258 0.33754 0.0
Mg126 Mg 0.64421 0.98366 0.35651 0.0
O127 O 0.6583 0.97474 0.33293 0.0
O128 O 0.67425 0.96649 0.3521 0.0
Mg129 Mg 0.67274 0.97285 0.38752 0.0
C130 C 0.66841 0.96842 0.3341 0.0
C131 C 0.62624 0.98146 0.31293 0.0
O132 O 0.62601 0.96634 0.31337 0.0
O133 O 0.66905 0.01072 0.36157 0.0
O134 O 0.68546 0.00238 0.37975 0.0
O135 O 0.6235 0.9554 0.35957 0.0
O136 O 0.64681 0.96884 0.38097 0.0
C137 C 0.68331 0.01426 0.37098 0.0
C138 C 0.63289 0.95447 0.37496 0.0
O139 O 0.63389 0.99271 0.32835 0.0
Mg140 Mg 0.00349 0.67915 0.32054 0.0
O141 O 0.02696 0.68843 0.34368 0.0
O142 O 0.04981 0.69482 0.32345 0.0
Mg143 Mg 0.0417 0.69268 0.28785 0.0
C144 C 0.04295 0.6933 0.34177 0.0
C145 C 0.97796 0.67305 0.3595 0.0
O146 O 0.98423 0.66467 0.3487 0.0
O147 O 0.00316 0.65345 0.31226 0.0
O148 O 0.02495 0.66254 0.28935 0.0
O149 O 0.00851 0.70705 0.31917 0.0
O150 O 0.0195 0.69546 0.29713 0.0
C151 C 0.01203 0.65024 0.29891 0.0
C152 C 0.01856 0.70903 0.30332 0.0
O153 O 0.98433 0.6653 0.34862 0.0
Mg154 Mg 0.31301 0.34478 0.36057 0.0
O155 O 0.29232 0.3286 0.33406 0.0
O156 O 0.26974 0.30709 0.35102 0.0
Mg157 Mg 0.27466 0.31105 0.38746 0.0
C158 C 0.2772 0.31479 0.33382 0.0
C159 C 0.34942 0.36334 0.34593 0.0
O160 O 0.34997 0.36181 0.3669 0.0
O161 O 0.31833 0.32227 0.36593 0.0
O162 O 0.29565 0.3034 0.38498 0.0
O163 O 0.30308 0.36351 0.36417 0.0
O164 O 0.29378 0.33909 0.38248 0.0
C165 C 0.3103 0.30815 0.37662 0.0
C166 C 0.29265 0.35281 0.37824 0.0
O167 O 0.33469 0.35703 0.33648 0.0
Mg168 Mg 0.34286 0.01241 0.65846 0.0
O169 O 0.32672 0.02021 0.67961 0.0
O170 O 0.30754 0.02182 0.65762 0.0
Mg171 Mg 0.31294 0.01776 0.62258 0.0
C172 C 0.31398 0.0227 0.6764 0.0
C173 C 0.36901 0.01362 0.69327 0.0
O174 O 0.37908 0.028 0.6827 0.0
O175 O 0.31965 0.98388 0.65314 0.0
O176 O 0.30403 0.98885 0.62875 0.0
O177 O 0.36211 0.04148 0.65299 0.0
O178 O 0.33923 0.02448 0.6321 0.0
C179 C 0.30681 0.9783 0.63974 0.0
C180 C 0.35255 0.03974 0.63623 0.0
O181 O 0.35299 0.00455 0.68789 0.0
Mg182 Mg 0.97683 0.30798 0.7069 0.0
O183 O 0.95794 0.29806 0.67746 0.0
O184 O 0.93101 0.28581 0.68963 0.0
Mg185 Mg 0.9325 0.28801 0.72644 0.0
C186 C 0.94153 0.29016 0.67416 0.0
C187 C 0.00337 0.31447 0.67186 0.0
O188 O -0.00606 0.2971 0.6716 0.0
O189 O 0.97303 0.33172 0.71237 0.0
O190 O 0.94642 0.31834 0.72576 0.0
O191 O 0.97475 0.28144 0.71001 0.0
O192 O 0.95762 0.28909 0.72616 0.0
C193 C 0.96029 0.33233 0.72052 0.0
C194 C 0.96167 0.27719 0.7222 0.0
O195 O -0.0005 0.32335 0.68469 0.0
Mg196 Mg 0.66679 0.65463 0.65289 0.0
O197 O 0.68498 0.66377 0.68252 0.0
O198 O 0.70936 0.68864 0.67497 0.0
Mg199 Mg 0.70717 0.69459 0.63955 0.0
C200 C 0.70004 0.67652 0.68798 0.0
C201 C 0.62938 0.62829 0.66391 0.0
O202 O 0.62843 0.63012 0.64306 0.0
O203 O 0.66078 0.67682 0.6574 0.0
O204 O 0.68515 0.70013 0.64621 0.0
O205 O 0.67862 0.63885 0.64047 0.0
O206 O 0.68755 0.66662 0.63272 0.0
C207 C 0.66957 0.69312 0.65258 0.0
C208 C 0.68928 0.65301 0.63048 0.0
O209 O 0.64411 0.63659 0.67353 0.0
Mg210 Mg 0.30758 0.31567 0.69222 0.0
O211 O 0.32293 0.31017 0.66648 0.0
O212 O 0.34261 0.30668 0.68522 0.0
Mg213 Mg 0.33839 0.30708 0.72134 0.0
C214 C 0.33579 0.30757 0.66741 0.0
C215 C 0.29218 0.33738 0.67731 0.0
O216 O 0.29519 0.34049 0.69818 0.0
O217 O 0.33091 0.34313 0.70036 0.0
O218 O 0.3479 0.3368 0.72039 0.0
O219 O 0.28768 0.28685 0.69301 0.0
O220 O 0.31155 0.29987 0.71342 0.0
C221 C 0.34447 0.34799 0.71217 0.0
C222 C 0.29763 0.28553 0.70729 0.0
O223 O 0.29659 0.32722 0.6681 0.0
Mg224 Mg 0.67349 0.01472 0.6558 0.0
O225 O 0.69822 0.02231 0.67606 0.0
O226 O 0.71836 0.02487 0.65318 0.0
Mg227 Mg 0.70713 0.01989 0.61881 0.0
C228 C 0.71352 0.02543 0.67228 0.0
C229 C 0.64219 -0.00416 0.68758 0.0
O230 O 0.63449 0.98483 0.67107 0.0
O231 O 0.66794 0.98648 0.6501 0.0
O232 O 0.68782 0.99079 0.6258 0.0
O233 O 0.68204 0.04314 0.65194 0.0
O234 O 0.6884 0.0276 0.62934 0.0
C235 C 0.67484 0.98053 0.63706 0.0
C236 C 0.69006 0.04263 0.635 0.0
O237 O 0.6579 0.00811 0.68624 0.0
Mg238 Mg 0.98083 0.67422 0.69833 0.0
O239 O 0.95877 0.65806 0.67352 0.0
O240 O 0.93562 0.63906 0.69199 0.0
Mg241 Mg 0.94198 0.64514 0.72806 0.0
C242 C 0.94309 0.64535 0.67427 0.0
C243 C 0.00813 0.69684 0.66385 0.0
O244 O 0.00332 0.70825 0.66936 0.0
O245 O 0.98321 0.65027 0.70591 0.0
O246 O 0.96047 0.63415 0.72645 0.0
O247 O 0.97383 0.69532 0.6996 0.0
O248 O 0.9628 0.67213 0.72049 0.0
C249 C 0.97444 0.63696 0.71766 0.0
C250 C 0.96307 0.68625 0.71439 0.0
O251 O 0.00098 0.68181 0.67249 0.0
C252 C 0.20834 0.30894 0.12149 0.0
C253 C 0.20557 0.29695 0.10443 0.0
C254 C 0.19457 0.3067 0.13397 0.0
C255 C 0.17776 0.29228 0.12989 0.0
C256 C 0.18875 0.2825 0.10036 0.0
C257 C 0.17494 0.28027 0.11289 0.0
C258 C 0.16302 0.29069 0.14219 0.0
C259 C 0.19506 0.28123 0.19098 0.0
C260 C 0.20233 0.29393 0.20797 0.0
C261 C 0.18284 0.28115 0.17659 0.0
C262 C 0.17768 0.29382 0.17888 0.0
C263 C 0.19733 0.30674 0.21001 0.0
C264 C 0.18506 0.30661 0.1957 0.0
C265 C 0.1638 0.29313 0.16481 0.0
C266 C 0.0962 0.28901 0.18601 0.0
C267 C 0.10307 0.30453 0.199 0.0
C268 C 0.10724 0.28536 0.17401 0.0
C269 C 0.12525 0.29715 0.17504 0.0
C270 C 0.12109 0.31608 0.2002 0.0
C271 C 0.13206 0.31237 0.18844 0.0
C272 C 0.13741 0.29369 0.16308 0.0
C273 C 0.1074 0.30395 0.11125 0.0
C274 C 0.0977 0.28931 0.09705 0.0
C275 C 0.11953 0.30411 0.1259 0.0
C276 C 0.12221 0.28964 0.12669 0.0
C277 C 0.10015 0.27467 0.09836 0.0
C278 C 0.1124 0.27493 0.11284 0.0
C279 C 0.13612 0.29031 0.14062 0.0
H280 H 0.22115 0.32013 0.12513 0.0
H281 H 0.19703 0.3165 0.14653 0.0
H282 H 0.18618 0.27318 0.08713 0.0
H283 H 0.16203 0.26922 0.10924 0.0
H284 H 0.19868 0.27122 0.18896 0.0
H285 H 0.17708 0.27091 0.16404 0.0
H286 H 0.20246 0.31652 0.22312 0.0
H287 H 0.18121 0.31643 0.1979 0.0
H288 H 0.08233 0.27991 0.18487 0.0
H289 H 0.10175 0.27334 0.1641 0.0
H290 H 0.12673 0.328 0.21033 0.0
H291 H 0.14592 0.32154 0.18964 0.0
H292 H 0.10612 0.31558 0.11052 0.0
H293 H 0.12723 0.31578 0.13613 0.0
H294 H 0.09272 0.26301 0.08803 0.0
H295 H 0.11429 0.26365 0.11315 0.0
N296 N 0.14904 0.28904 0.131 0.0
N297 N 0.15111 0.29481 0.17429 0.0
C298 C 0.67552 0.89199 0.1332 0.0
C299 C 0.68824 0.90354 0.11901 0.0
C300 C 0.67852 0.88094 0.14621 0.0
C301 C 0.69417 0.881 0.14509 0.0
C302 C 0.70403 0.90366 0.11823 0.0
C303 C 0.70685 0.89229 0.13094 0.0
C304 C 0.69657 0.86809 0.15716 0.0
C305 C 0.70542 0.91277 0.20215 0.0
C306 C 0.69516 0.90724 0.22051 0.0
C307 C 0.70711 0.90052 0.18913 0.0
C308 C 0.69817 0.88242 0.19392 0.0
C309 C 0.68682 0.88929 0.22574 0.0
C310 C 0.68829 0.87704 0.2126 0.0
C311 C 0.69861 0.86876 0.17978 0.0
C312 C 0.71289 0.82001 0.21873 0.0
C313 C 0.69996 0.80198 0.21723 0.0
C314 C 0.71206 0.83233 0.20561 0.0
C315 C 0.69824 0.82707 0.19076 0.0
C316 C 0.68594 0.79675 0.20249 0.0
C317 C 0.68494 0.80923 0.18968 0.0
C318 C 0.69743 0.84081 0.17809 0.0
C319 C 0.66844 0.80314 0.11453 0.0
C320 C 0.67538 0.79198 0.1165 0.0
C321 C 0.67502 0.81864 0.12703 0.0
C322 C 0.68896 0.82368 0.14167 0.0
C323 C 0.69 0.79745 0.13027 0.0
C324 C 0.69689 0.81332 0.14255 0.0
C325 C 0.69454 0.8398 0.15547 0.0
H326 H 0.66302 0.89111 0.13393 0.0
H327 H 0.66845 0.87198 0.15674 0.0
H328 H 0.71426 0.91252 0.10783 0.0
H329 H 0.71895 0.89233 0.12978 0.0
H330 H 0.71223 0.9266 0.19796 0.0
H331 H 0.71542 0.90526 0.17541 0.0
H332 H 0.67874 0.88461 0.23971 0.0
H333 H 0.68131 0.86322 0.21679 0.0
H334 H 0.72359 0.82476 0.2303 0.0
H335 H 0.72225 0.8461 0.20717 0.0
H336 H 0.67575 0.78303 0.20073 0.0
H337 H 0.67375 0.80492 0.179 0.0
H338 H 0.65762 0.79976 0.10353 0.0
H339 H 0.66882 0.82649 0.1256 0.0
H340 H 0.69578 0.78925 0.13206 0.0
H341 H 0.70811 0.81723 0.15303 0.0
N342 N 0.69448 0.85365 0.14603 0.0
N343 N 0.69926 0.85522 0.18924 0.0
C344 C 0.10369 0.79393 0.13362 0.0
C345 C 0.09772 0.79729 0.11418 0.0
C346 C 0.11667 0.80782 0.14628 0.0
C347 C 0.12371 0.82547 0.1401 0.0
C348 C 0.10482 0.81497 0.10801 0.0
C349 C 0.11767 0.82887 0.1208 0.0
C350 C 0.13848 0.84028 0.15237 0.0
C351 C 0.09567 0.81742 0.20072 0.0
C352 C 0.09888 0.8083 0.21679 0.0
C353 C 0.10884 0.82825 0.18684 0.0
C354 C 0.1254 0.83023 0.18912 0.0
C355 C 0.11547 0.81041 0.21912 0.0
C356 C 0.12869 0.82148 0.20557 0.0
C357 C 0.1396 0.84195 0.17508 0.0
C358 C 0.20149 0.91327 0.19474 0.0
C359 C 0.20832 0.90919 0.21287 0.0
C360 C 0.18877 0.89976 0.18136 0.0
C361 C 0.18272 0.88192 0.18577 0.0
C362 C 0.2025 0.89132 0.21691 0.0
C363 C 0.18976 0.87785 0.20359 0.0
C364 C 0.16793 0.86741 0.17334 0.0
C365 C 0.21114 0.89365 0.12627 0.0
C366 C 0.20677 0.89898 0.10707 0.0
C367 C 0.19828 0.88298 0.14058 0.0
C368 C 0.18085 0.87784 0.13629 0.0
C369 C 0.18925 0.89342 0.10264 0.0
C370 C 0.17649 0.88306 0.1171 0.0
C371 C 0.1668 0.8659 0.15058 0.0
H372 H 0.09844 0.78053 0.13904 0.0
H373 H 0.12149 0.80463 0.16058 0.0
H374 H 0.1008 0.81808 0.09299 0.0
H375 H 0.12307 0.84232 0.11545 0.0
H376 H 0.08292 0.81588 0.19866 0.0
H377 H 0.10617 0.83516 0.17444 0.0
H378 H 0.11819 0.80351 0.23148 0.0
H379 H 0.14142 0.82299 0.20768 0.0
H380 H 0.20575 0.92691 0.19114 0.0
H381 H 0.18328 0.90326 0.16799 0.0
H382 H 0.20724 0.88769 0.23092 0.0
H383 H 0.18515 0.86418 0.20745 0.0
H384 H 0.22448 0.89772 0.13032 0.0
H385 H 0.20199 0.87857 0.15478 0.0
H386 H 0.18527 0.89681 0.08779 0.0
H387 H 0.16311 0.879 0.11317 0.0
N388 N 0.1521 0.85242 0.14108 0.0
N389 N 0.15429 0.85531 0.18463 0.0
C390 C 0.30274 0.08932 0.81172 0.0
C391 C 0.29 0.08186 0.79506 0.0
C392 C 0.30393 0.1028 0.82541 0.0
C393 C 0.29211 0.10884 0.82316 0.0
C394 C 0.27805 0.08778 0.79308 0.0
C395 C 0.27908 0.10103 0.80696 0.0
C396 C 0.29444 0.12467 0.83546 0.0
C397 C 0.28984 0.09137 0.89482 0.0
C398 C 0.30546 0.09875 0.90706 0.0
C399 C 0.28832 0.10035 0.87722 0.0
C400 C 0.30241 0.11676 0.87168 0.0
C401 C 0.3198 0.11462 0.90046 0.0
C402 C 0.31823 0.1236 0.88311 0.0
C403 C 0.30006 0.12859 0.85726 0.0
C404 C 0.29568 0.19216 0.88318 0.0
C405 C 0.31107 0.20085 0.8959 0.0
C406 C 0.29244 0.17795 0.86929 0.0
C407 C 0.30466 0.17243 0.86773 0.0
C408 C 0.32338 0.19549 0.89385 0.0
C409 C 0.32017 0.1814 0.88001 0.0
C410 C 0.3009 0.15622 0.85542 0.0
C411 C 0.30284 0.19438 0.80673 0.0
C412 C 0.2888 0.1877 0.79178 0.0
C413 C 0.30508 0.18303 0.82018 0.0
C414 C 0.29293 0.16478 0.81972 0.0
C415 C 0.27699 0.16932 0.79086 0.0
C416 C 0.279 0.15804 0.80471 0.0
C417 C 0.29514 0.1524 0.83364 0.0
H418 H 0.31208 0.08505 0.81394 0.0
H419 H 0.31461 0.10895 0.83703 0.0
H420 H 0.26828 0.08272 0.78024 0.0
H421 H 0.26993 0.10556 0.8046 0.0
H422 H 0.27858 0.07913 0.89947 0.0
H423 H 0.27591 0.09504 0.86881 0.0
H424 H 0.33217 0.12039 0.90908 0.0
H425 H 0.32923 0.1363 0.87912 0.0
H426 H 0.28593 0.19597 0.88452 0.0
H427 H 0.28022 0.17097 0.86031 0.0
H428 H 0.33551 0.20214 0.90306 0.0
H429 H 0.32975 0.17733 0.87912 0.0
H430 H 0.31217 0.20842 0.80819 0.0
H431 H 0.31646 0.1886 0.83075 0.0
H432 H 0.26628 0.16352 0.77923 0.0
H433 H 0.26964 0.14398 0.80363 0.0
N434 N 0.2921 0.13674 0.82461 0.0
N435 N 0.30311 0.14416 0.86619 0.0
C436 C 0.88444 0.18341 0.90592 0.0
C437 C 0.87638 0.18959 0.92018 0.0
C438 C 0.87451 0.16849 0.89235 0.0
C439 C 0.85626 0.15992 0.89183 0.0
C440 C 0.85815 0.17996 0.92087 0.0
C441 C 0.8483 0.16563 0.90672 0.0
C442 C 0.84502 0.14466 0.87677 0.0
C443 C 0.88158 0.18524 0.83029 0.0
C444 C 0.8907 0.17979 0.81688 0.0
C445 C 0.86865 0.17323 0.84357 0.0
C446 C 0.86492 0.15562 0.8443 0.0
C447 C 0.8871 0.16222 0.81789 0.0
C448 C 0.87433 0.15027 0.83142 0.0
C449 C 0.84959 0.14217 0.85571 0.0
C450 C 0.78498 0.09075 0.81037 0.0
C451 C 0.78931 0.07886 0.80073 0.0
C452 C 0.7951 0.10209 0.82747 0.0
C453 C 0.80979 0.10184 0.83521 0.0
C454 C 0.80363 0.07815 0.80929 0.0
C455 C 0.81389 0.0897 0.82614 0.0
C456 C 0.82201 0.11567 0.85076 0.0
C457 C 0.77508 0.07925 0.88922 0.0
C458 C 0.76585 0.0876 0.89547 0.0
C459 C 0.79174 0.08918 0.88101 0.0
C460 C 0.79946 0.10761 0.87932 0.0
C461 C 0.77361 0.10602 0.89365 0.0
C462 C 0.79032 0.11594 0.88586 0.0
C463 C 0.81714 0.11853 0.87119 0.0
H464 H 0.8984 0.19022 0.90481 0.0
H465 H 0.88122 0.16387 0.88219 0.0
H466 H 0.85126 0.18348 0.93226 0.0
H467 H 0.8343 0.15913 0.90738 0.0
H468 H 0.88415 0.19872 0.83022 0.0
H469 H 0.86121 0.17759 0.85274 0.0
H470 H 0.89364 0.15745 0.8076 0.0
H471 H 0.87143 0.13666 0.83135 0.0
H472 H 0.77429 0.09197 0.80409 0.0
H473 H 0.79192 0.11165 0.83393 0.0
H474 H 0.80718 0.06894 0.80266 0.0
H475 H 0.82524 0.08938 0.83184 0.0
H476 H 0.76934 0.06506 0.89053 0.0
H477 H 0.79867 0.08254 0.87626 0.0
H478 H 0.76683 0.11278 0.8986 0.0
H479 H 0.79608 0.13015 0.88475 0.0
N480 N 0.82885 0.13274 0.8834 0.0
N481 N 0.83799 0.1276 0.84382 0.0
C482 C 0.78815 0.7099 0.89993 0.0
C483 C 0.7803 0.69655 0.91515 0.0
C484 C 0.80132 0.71093 0.88708 0.0
C485 C 0.80683 0.69857 0.88914 0.0
C486 C 0.78626 0.68455 0.91757 0.0
C487 C 0.79948 0.68565 0.90481 0.0
C488 C 0.82021 0.699 0.87504 0.0
C489 C 0.77327 0.6823 0.83158 0.0
C490 C 0.77596 0.69105 0.81195 0.0
C491 C 0.78727 0.68529 0.84492 0.0
C492 C 0.80436 0.69782 0.83963 0.0
C493 C 0.79311 0.70357 0.80668 0.0
C494 C 0.80706 0.70698 0.8204 0.0
C495 C 0.81959 0.69992 0.85234 0.0
C496 C 0.87944 0.69234 0.82313 0.0
C497 C 0.88535 0.70482 0.8067 0.0
C498 C 0.86706 0.69124 0.83748 0.0
C499 C 0.86079 0.70303 0.83624 0.0
C500 C 0.87874 0.71633 0.80526 0.0
C501 C 0.86665 0.71546 0.81989 0.0
C502 C 0.84714 0.70172 0.8506 0.0
C503 C 0.89177 0.70969 0.89337 0.0
C504 C 0.88727 0.69536 0.90693 0.0
C505 C 0.87889 0.71154 0.88272 0.0
C506 C 0.86127 0.69894 0.88517 0.0
C507 C 0.8696 0.68314 0.90987 0.0
C508 C 0.85677 0.68497 0.89919 0.0
C509 C 0.84735 0.69995 0.87318 0.0
H510 H 0.78413 0.71958 0.89795 0.0
H511 H 0.80712 0.72129 0.87543 0.0
H512 H 0.78038 0.67396 0.92891 0.0
H513 H 0.80361 0.67604 0.90672 0.0
H514 H 0.76034 0.6728 0.83657 0.0
H515 H 0.78462 0.67727 0.85896 0.0
H516 H 0.79595 0.71033 0.79157 0.0
H517 H 0.82008 0.71647 0.81562 0.0
H518 H 0.88432 0.68335 0.82495 0.0
H519 H 0.86227 0.68103 0.84936 0.0
H520 H 0.88261 0.72582 0.79256 0.0
H521 H 0.86174 0.72446 0.81831 0.0
H522 H 0.90525 0.71951 0.89106 0.0
H523 H 0.88268 0.7227 0.87241 0.0
H524 H 0.86566 0.67185 0.92001 0.0
H525 H 0.84327 0.67514 0.90143 0.0
N526 N 0.83388 0.69871 0.88449 0.0
N527 N 0.83325 0.70155 0.84118 0.0
C528 C 0.76335 0.62177 0.45908 0.0
C529 C 0.76867 0.63488 0.44352 0.0
C530 C 0.77554 0.61977 0.47108 0.0
C531 C 0.79338 0.63106 0.46816 0.0
C532 C 0.78655 0.64588 0.4402 0.0
C533 C 0.79877 0.64393 0.45236 0.0
C534 C 0.80636 0.62932 0.48143 0.0
C535 C 0.78464 0.65203 0.5282 0.0
C536 C 0.77043 0.63853 0.53889 0.0
C537 C 0.79584 0.64838 0.51686 0.0
C538 C 0.79336 0.63127 0.51634 0.0
C539 C 0.76819 0.6214 0.53861 0.0
C540 C 0.77974 0.61786 0.52764 0.0
C541 C 0.80527 0.62775 0.50398 0.0
C542 C 0.87301 0.63551 0.53301 0.0
C543 C 0.867 0.62255 0.54886 0.0
C544 C 0.86135 0.63644 0.51857 0.0
C545 C 0.84349 0.62413 0.5193 0.0
C546 C 0.84908 0.61039 0.54962 0.0
C547 C 0.8375 0.61118 0.53501 0.0
C548 C 0.83071 0.62546 0.50522 0.0
C549 C 0.86694 0.61857 0.46217 0.0
C550 C 0.87545 0.63231 0.44756 0.0
C551 C 0.85257 0.6166 0.47323 0.0
C552 C 0.84671 0.62862 0.47032 0.0
C553 C 0.86899 0.64376 0.44397 0.0
C554 C 0.85483 0.64195 0.45525 0.0
C555 C 0.83216 0.62757 0.48262 0.0
H556 H 0.74973 0.61313 0.46221 0.0
H557 H 0.77097 0.60933 0.48263 0.0
H558 H 0.79112 0.6559 0.42809 0.0
H559 H 0.81245 0.65265 0.44961 0.0
H560 H 0.78723 0.66552 0.52861 0.0
H561 H 0.80653 0.65896 0.50852 0.0
H562 H 0.75736 0.61062 0.54646 0.0
H563 H 0.77775 0.60458 0.52744 0.0
H564 H 0.8867 0.64506 0.53185 0.0
H565 H 0.86628 0.64696 0.50708 0.0
H566 H 0.84385 0.60053 0.5619 0.0
H567 H 0.82376 0.60176 0.53618 0.0
H568 H 0.87152 0.60949 0.46536 0.0
H569 H 0.84618 0.60582 0.48422 0.0
H570 H 0.87483 0.65415 0.43238 0.0
H571 H 0.85039 0.65121 0.45242 0.0
N572 N 0.81988 0.62939 0.47163 0.0
N573 N 0.81732 0.62572 0.51499 0.0
C574 C 0.34163 0.23236 0.47008 0.0
C575 C 0.35132 0.23857 0.45128 0.0
C576 C 0.34395 0.22115 0.48369 0.0
C577 C 0.35633 0.21626 0.47911 0.0
C578 C 0.36363 0.23357 0.44671 0.0
C579 C 0.36607 0.22252 0.46045 0.0
C580 C 0.35807 0.20331 0.49231 0.0
C581 C 0.37065 0.24957 0.53723 0.0
C582 C 0.3588 0.24511 0.55397 0.0
C583 C 0.37089 0.23632 0.52455 0.0
C584 C 0.35927 0.21837 0.52834 0.0
C585 C 0.34729 0.22712 0.55778 0.0
C586 C 0.34761 0.21391 0.5452 0.0
C587 C 0.3592 0.20409 0.51511 0.0
C588 C 0.37466 0.14544 0.53146 0.0
C589 C 0.36455 0.13763 0.54954 0.0
C590 C 0.3734 0.15852 0.5205 0.0
C591 C 0.3619 0.16402 0.52726 0.0
C592 C 0.35371 0.1438 0.55699 0.0
C593 C 0.35246 0.15695 0.54597 0.0
C594 C 0.35979 0.17711 0.51478 0.0
C595 C 0.33413 0.12864 0.47081 0.0
C596 C 0.34274 0.13 0.45158 0.0
C597 C 0.33964 0.14341 0.48456 0.0
C598 C 0.35381 0.15986 0.47924 0.0
C599 C 0.35732 0.14626 0.44662 0.0
C600 C 0.36267 0.16116 0.46023 0.0
C601 C 0.35785 0.17596 0.49209 0.0
H602 H 0.33215 0.23607 0.47426 0.0
H603 H 0.33579 0.21602 0.49752 0.0
H604 H 0.3711 0.23781 0.43221 0.0
H605 H 0.37547 0.21866 0.45636 0.0
H606 H 0.37967 0.26331 0.53389 0.0
H607 H 0.3802 0.2401 0.51186 0.0
H608 H 0.33824 0.22324 0.5708 0.0
H609 H 0.33861 0.20014 0.54851 0.0
H610 H 0.38344 0.14128 0.52561 0.0
H611 H 0.38132 0.16423 0.50657 0.0
H612 H 0.34572 0.13801 0.57083 0.0
H613 H 0.34366 0.16114 0.55164 0.0
H614 H 0.32284 0.11621 0.47493 0.0
H615 H 0.33235 0.14214 0.49886 0.0
H616 H 0.36406 0.1476 0.43179 0.0
H617 H 0.37349 0.17379 0.45571 0.0
N618 N 0.35734 0.18921 0.48176 0.0
N619 N 0.36011 0.19099 0.52546 0.0
C620 C 0.77845 0.12598 0.45006 0.0
C621 C 0.76915 0.12804 0.43307 0.0
C622 C 0.78935 0.14031 0.46372 0.0
C623 C 0.79128 0.15706 0.46062 0.0
C624 C 0.77064 0.14463 0.43026 0.0
C625 C 0.78184 0.15913 0.44378 0.0
C626 C 0.80444 0.17251 0.47369 0.0
C627 C 0.76189 0.14322 0.52081 0.0
C628 C 0.76619 0.13484 0.53679 0.0
C629 C 0.77456 0.15496 0.50703 0.0
C630 C 0.79173 0.15863 0.50927 0.0
C631 C 0.78327 0.13821 0.53866 0.0
C632 C 0.79598 0.15018 0.52516 0.0
C633 C 0.80556 0.17227 0.4963 0.0
C634 C 0.86943 0.24178 0.52265 0.0
C635 C 0.87429 0.23517 0.54022 0.0
C636 C 0.85644 0.23011 0.50784 0.0
C637 C 0.84843 0.21167 0.51016 0.0
C638 C 0.86655 0.21679 0.5422 0.0
C639 C 0.85383 0.20521 0.52734 0.0
C640 C 0.83324 0.19881 0.49659 0.0
C641 C 0.87422 0.22495 0.44551 0.0
C642 C 0.86986 0.23347 0.4297 0.0
C643 C 0.86218 0.21466 0.46087 0.0
C644 C 0.84563 0.21277 0.46067 0.0
C645 C 0.85356 0.23224 0.43033 0.0
C646 C 0.84152 0.22184 0.44551 0.0
C647 C 0.83177 0.19951 0.47396 0.0
H648 H 0.77751 0.11331 0.45251 0.0
H649 H 0.7968 0.13844 0.47623 0.0
H650 H 0.76366 0.14651 0.41714 0.0
H651 H 0.7833 0.17198 0.44095 0.0
H652 H 0.74877 0.14077 0.51909 0.0
H653 H 0.77108 0.16157 0.49508 0.0
H654 H 0.78689 0.132 0.55099 0.0
H655 H 0.80919 0.15294 0.52722 0.0
H656 H 0.87513 0.25592 0.5209 0.0
H657 H 0.85224 0.23555 0.49519 0.0
H658 H 0.87019 0.21136 0.55546 0.0
H659 H 0.84792 0.19109 0.52958 0.0
H660 H 0.88656 0.22544 0.44536 0.0
H661 H 0.86548 0.20746 0.47215 0.0
H662 H 0.84991 0.23892 0.4187 0.0
H663 H 0.82877 0.22048 0.44506 0.0
N664 N 0.81748 0.18626 0.46339 0.0
N665 N 0.81992 0.18526 0.5068 0.0
C666 C 0.95821 0.52097 0.13781 0.0
C667 C 0.96723 0.52465 0.11853 0.0
C668 C 0.95918 0.50961 0.15254 0.0
C669 C 0.96976 0.50225 0.14868 0.0
C670 C 0.97729 0.51687 0.1142 0.0
C671 C 0.97862 0.50585 0.12919 0.0
C672 C 0.97095 0.49008 0.16412 0.0
C673 C -0.00961 0.5391 0.20863 0.0
C674 C 0.97829 0.53712 0.22427 0.0
C675 C 0.98757 0.52474 0.19543 0.0
C676 C 0.97274 0.50809 0.1978 0.0
C677 C 0.96308 0.5205 0.22586 0.0
C678 C 0.96049 0.50608 0.213 0.0
C679 C 0.97116 0.49231 0.18671 0.0
C680 C 0.98285 0.44977 0.24183 0.0
C681 C 0.97213 0.4313 0.23971 0.0
C682 C 0.98282 0.46071 0.22586 0.0
C683 C 0.9721 0.45349 0.20734 0.0
C684 C 0.96114 0.42403 0.22131 0.0
C685 C 0.96105 0.43506 0.2053 0.0
C686 C 0.97187 0.4657 0.19137 0.0
C687 C 0.96965 0.43059 0.12657 0.0
C688 C 0.98098 0.42526 0.13493 0.0
C689 C 0.96666 0.44264 0.13799 0.0
C690 C 0.97506 0.44996 0.15796 0.0
C691 C 0.98934 0.43256 0.15503 0.0
C692 C 0.98671 0.44502 0.16616 0.0
C693 C 0.97269 0.46387 0.16878 0.0
H694 H 0.95012 0.52661 0.14125 0.0
H695 H 0.95136 0.50637 0.16671 0.0
H696 H 0.98431 0.51952 0.09936 0.0
H697 H 0.98667 0.5002 0.12557 0.0
H698 H 0.0024 0.55154 0.2071 0.0
H699 H -0.00264 0.52642 0.18408 0.0
H700 H 0.95325 0.5185 0.23725 0.0
H701 H 0.94901 0.49326 0.21511 0.0
H702 H -0.00877 0.45583 0.25595 0.0
H703 H -0.00872 0.47491 0.22798 0.0
H704 H 0.95281 0.40984 0.21913 0.0
H705 H 0.95231 0.42921 0.19145 0.0
H706 H 0.96334 0.42586 0.11089 0.0
H707 H 0.9579 0.44646 0.13097 0.0
H708 H -0.00193 0.4288 0.16222 0.0
H709 H -0.00589 0.451 0.18095 0.0
N710 N 0.97191 0.47602 0.15611 0.0
N711 N 0.97136 0.47996 0.19931 0.0
C712 C 0.44952 0.41156 0.15932 0.0
C713 C 0.44551 0.41664 0.13973 0.0
C714 C 0.46275 0.42419 0.17309 0.0
C715 C 0.47182 0.44218 0.16775 0.0
C716 C 0.45466 0.43455 0.13437 0.0
C717 C 0.46762 0.44716 0.14822 0.0
C718 C 0.48637 0.45599 0.18137 0.0
C719 C 0.44254 0.43347 0.2307 0.0
C720 C 0.44604 0.42461 0.24697 0.0
C721 C 0.45522 0.44356 0.21584 0.0
C722 C 0.47154 0.44494 0.21711 0.0
C723 C 0.46213 0.42533 0.2473 0.0
C724 C 0.47481 0.43558 0.23271 0.0
C725 C 0.48596 0.45754 0.20399 0.0
C726 C 0.53498 0.52344 0.24307 0.0
C727 C 0.55244 0.52792 0.24302 0.0
C728 C 0.52249 0.50906 0.23059 0.0
C729 C 0.52725 0.49907 0.21749 0.0
C730 C 0.55716 0.51769 0.23019 0.0
C731 C 0.54467 0.5034 0.21747 0.0
C732 C 0.51371 0.484 0.20434 0.0
C733 C 0.54856 0.50027 0.1393 0.0
C734 C 0.5551 0.51861 0.14129 0.0
C735 C 0.53562 0.48861 0.15283 0.0
C736 C 0.52897 0.495 0.16871 0.0
C737 C 0.5485 0.52499 0.15734 0.0
C738 C 0.53542 0.5133 0.17071 0.0
C739 C 0.5144 0.48225 0.18177 0.0
H740 H 0.44278 0.39778 0.16366 0.0
H741 H 0.46611 0.41975 0.18754 0.0
H742 H 0.45174 0.43884 0.11943 0.0
H743 H 0.47441 0.46088 0.1436 0.0
H744 H 0.43035 0.4333 0.23007 0.0
H745 H 0.45258 0.45089 0.204 0.0
H746 H 0.46512 0.41832 0.25922 0.0
H747 H 0.48734 0.43649 0.23387 0.0
H748 H 0.53093 0.53095 0.25298 0.0
H749 H 0.5091 0.50587 0.23095 0.0
H750 H 0.57055 0.52089 0.22978 0.0
H751 H 0.54857 0.49571 0.2077 0.0
H752 H 0.5531 0.49485 0.12691 0.0
H753 H 0.53066 0.47452 0.15076 0.0
H754 H 0.55333 0.53903 0.15952 0.0
H755 H 0.53014 0.51858 0.18227 0.0
N756 N 0.50067 0.46838 0.17124 0.0
N757 N 0.49957 0.47151 0.21453 0.0
C758 C 0.44541 0.01977 0.24072 0.0
C759 C 0.44075 0.00845 0.25821 0.0
C760 C 0.45645 0.01954 0.22514 0.0
C761 C 0.46252 0.00754 0.22637 0.0
C762 C 0.44688 -0.00344 0.25955 0.0
C763 C 0.45761 -0.00393 0.24376 0.0
C764 C 0.47519 0.0079 0.21086 0.0
C765 C 0.42831 -0.00462 0.16921 0.0
C766 C 0.43122 0.0064 0.15161 0.0
C767 C 0.44223 -0.00324 0.18146 0.0
C768 C 0.45939 0.00961 0.17691 0.0
C769 C 0.44845 0.01915 0.14704 0.0
C770 C 0.4623 0.02077 0.15957 0.0
C771 C 0.47448 0.01045 0.18849 0.0
C772 C 0.53629 0.00792 0.1544 0.0
C773 C 0.54257 0.02237 0.14059 0.0
C774 C 0.52302 0.00446 0.16859 0.0
C775 C 0.5161 0.01571 0.16984 0.0
C776 C 0.53519 0.03325 0.14142 0.0
C777 C 0.52215 0.02996 0.15589 0.0
C778 C 0.50199 0.01241 0.18467 0.0
C779 C 0.54632 0.01747 0.22612 0.0
C780 C 0.54209 0.00075 0.23367 0.0
C781 C 0.53333 0.0203 0.21769 0.0
C782 C 0.51593 0.00651 0.21697 0.0
C783 C 0.52462 0.98717 0.23348 0.0
C784 C 0.51164 0.99009 0.22544 0.0
C785 C 0.50212 0.00868 0.20668 0.0
H786 H 0.44107 0.02925 0.23957 0.0
H787 H 0.46057 0.02907 0.21247 0.0
H788 H 0.44345 0.98772 0.27293 0.0
H789 H 0.46224 0.98684 0.24527 0.0
H790 H 0.41528 0.9855 0.17343 0.0
H791 H 0.43951 0.98747 0.19416 0.0
H792 H 0.4514 0.02758 0.13333 0.0
H793 H 0.47539 0.0306 0.1554 0.0
H794 H 0.54169 -0.0007 0.15439 0.0
H795 H 0.51812 0.99291 0.17844 0.0
H796 H 0.53932 0.04421 0.13071 0.0
H797 H 0.51679 0.03863 0.15622 0.0
H798 H 0.55971 0.02812 0.2261 0.0
H799 H 0.53686 0.03312 0.21137 0.0
H800 H 0.52103 0.97422 0.23939 0.0
H801 H 0.49829 0.97932 0.22512 0.0
N802 N 0.4888 0.0067 0.21892 0.0
N803 N 0.48811 0.01298 0.17648 0.0
C804 C 0.55459 0.99478 0.80586 0.0
C805 C 0.55285 0.98718 0.78515 0.0
C806 C 0.54012 0.99231 0.81685 0.0
C807 C 0.52331 0.98127 0.80814 0.0
C808 C 0.53601 0.9765 0.7761 0.0
C809 C 0.5214 0.97354 0.78752 0.0
C810 C 0.50796 0.97903 0.81982 0.0
C811 C 0.53271 0.95831 0.86644 0.0
C812 C 0.54066 0.96968 0.88451 0.0
C813 C 0.52194 0.96102 0.85237 0.0
C814 C 0.5188 0.97499 0.85639 0.0
C815 C 0.53763 0.98374 0.8883 0.0
C816 C 0.52666 0.98624 0.87451 0.0
C817 C 0.50678 0.97762 0.84248 0.0
C818 C 0.44145 0.97816 0.86378 0.0
C819 C 0.44864 0.99142 0.88016 0.0
C820 C 0.45223 0.97479 0.85086 0.0
C821 C 0.47031 0.98469 0.85415 0.0
C822 C 0.46671 0.00105 0.88355 0.0
C823 C 0.4774 -0.00232 0.87073 0.0
C824 C 0.4822 0.98136 0.84134 0.0
C825 C 0.45578 0.00048 0.79653 0.0
C826 C 0.44402 0.98668 0.78247 0.0
C827 C 0.46859 -0.00099 0.80794 0.0
C828 C 0.4699 0.98375 0.80543 0.0
C829 C 0.44568 0.97163 0.77958 0.0
C830 C 0.4586 0.97026 0.79083 0.0
C831 C 0.48252 0.9815 0.81862 0.0
H832 H 0.56719 0.00283 0.8137 0.0
H833 H 0.54224 -0.00062 0.8321 0.0
H834 H 0.53405 0.97071 0.76003 0.0
H835 H 0.50862 0.96533 0.78016 0.0
H836 H 0.53482 0.94735 0.86325 0.0
H837 H 0.51581 0.95205 0.83862 0.0
H838 H 0.5434 0.99253 0.90229 0.0
H839 H 0.52435 -0.00296 0.87796 0.0
H840 H 0.42755 0.97055 0.86083 0.0
H841 H 0.44645 0.9644 0.83848 0.0
H842 H 0.47261 0.01112 0.8963 0.0
H843 H 0.49131 0.00533 0.8737 0.0
H844 H 0.4548 0.0122 0.79913 0.0
H845 H 0.47729 0.00965 0.819 0.0
H846 H 0.43695 0.96091 0.76864 0.0
H847 H 0.45946 0.95843 0.78861 0.0
N848 N 0.49548 0.98046 0.80867 0.0
N849 N 0.4942 0.97924 0.8523 0.0
C850 C 0.00034 0.55521 0.80936 0.0
C851 C 0.00839 0.55999 0.78929 0.0
C852 C 0.00246 0.54354 0.82239 0.0
C853 C 0.01305 0.53682 0.81587 0.0
C854 C 0.01865 0.55289 0.78267 0.0
C855 C 0.02095 0.54146 0.79582 0.0
C856 C 0.01494 0.52383 0.82872 0.0
C857 C 0.03309 0.57293 0.87035 0.0
C858 C 0.02423 0.56963 0.88981 0.0
C859 C 0.03218 0.55894 0.85794 0.0
C860 C 0.02197 0.54135 0.86446 0.0
C861 C 0.01473 0.55213 0.89677 0.0
C862 C 0.01363 0.53817 0.88424 0.0
C863 C 0.01948 0.52603 0.85092 0.0
C864 C 0.03626 0.47814 0.88824 0.0
C865 C 0.02344 0.46007 0.88782 0.0
C866 C 0.03416 0.49014 0.87594 0.0
C867 C 0.01918 0.48445 0.86299 0.0
C868 C 0.00823 0.45446 0.87516 0.0
C869 C 0.006 0.46658 0.86318 0.0
C870 C 0.01737 0.49762 0.85031 0.0
C871 C 0.98515 0.45675 0.78988 0.0
C872 C -0.00653 0.44677 0.79055 0.0
C873 C -0.00848 0.47238 0.8021 0.0
C874 C 0.00653 0.47871 0.81519 0.0
C875 C 0.00896 0.45345 0.80298 0.0
C876 C 0.01556 0.46941 0.81497 0.0
C877 C 0.01242 0.49528 0.82818 0.0
H878 H -0.00756 0.5605 0.81506 0.0
H879 H -0.00427 0.53969 0.83745 0.0
H880 H 0.02471 0.55591 0.76714 0.0
H881 H 0.02888 0.53614 0.79025 0.0
H882 H 0.04072 0.58632 0.86476 0.0
H883 H 0.03924 0.56186 0.84312 0.0
H884 H 0.00767 0.54914 0.9116 0.0
H885 H 0.00577 0.52477 0.88974 0.0
H886 H 0.04791 0.48311 0.89823 0.0
H887 H 0.04434 0.50394 0.87645 0.0
H888 H -0.00192 0.44068 0.87426 0.0
H889 H -0.00598 0.46194 0.85398 0.0
H890 H 0.97357 0.45244 0.77995 0.0
H891 H 0.98446 0.47943 0.80155 0.0
H892 H 0.01577 0.44618 0.80384 0.0
H893 H 0.02755 0.47433 0.82424 0.0
N894 N 0.01158 0.50858 0.8184 0.0
N895 N 0.02063 0.51286 0.86073 0.0
C896 C 0.53382 0.57132 0.78244 0.0
C897 C 0.53729 0.5622 0.76627 0.0
C898 C 0.52162 0.56191 0.79812 0.0
C899 C 0.51311 0.54329 0.79809 0.0
C900 C 0.52909 0.54369 0.76656 0.0
C901 C 0.51719 0.53436 0.78234 0.0
C902 C 0.49866 0.53263 0.81262 0.0
C903 C 0.54374 0.5646 0.85993 0.0
C904 C 0.54095 0.57487 0.87527 0.0
C905 C 0.53024 0.55263 0.84602 0.0
C906 C 0.51374 0.55084 0.84702 0.0
C907 C 0.52454 0.57339 0.87577 0.0
C908 C 0.51107 0.56142 0.86189 0.0
C909 C 0.49868 0.53643 0.83487 0.0
C910 C 0.44594 0.46852 0.86844 0.0
C911 C 0.43834 0.47377 0.88436 0.0
C912 C 0.45575 0.48017 0.85253 0.0
C913 C 0.4582 0.49732 0.8523 0.0
C914 C 0.44022 0.49067 0.88373 0.0
C915 C 0.45031 0.50248 0.86795 0.0
C916 C 0.4708 0.51037 0.83754 0.0
C917 C 0.42533 0.4725 0.79478 0.0
C918 C 0.42899 0.46248 0.78008 0.0
C919 C 0.43876 0.48677 0.80653 0.0
C920 C 0.45609 0.4913 0.80374 0.0
C921 C 0.44633 0.46706 0.77734 0.0
C922 C 0.45973 0.4814 0.78892 0.0
C923 C 0.47059 0.50683 0.81527 0.0
H924 H 0.53992 0.58561 0.78233 0.0
H925 H 0.51839 0.56914 0.80964 0.0
H926 H 0.53166 0.53642 0.7543 0.0
H927 H 0.51084 0.52003 0.78189 0.0
H928 H 0.55612 0.56519 0.85933 0.0
H929 H 0.53251 0.54423 0.83517 0.0
H930 H 0.52201 0.58126 0.88718 0.0
H931 H 0.49841 0.56015 0.8631 0.0
H932 H 0.44463 0.45553 0.86864 0.0
H933 H 0.46207 0.47603 0.84099 0.0
H934 H 0.43453 0.49498 0.89598 0.0
H935 H 0.45226 0.51574 0.86821 0.0
H936 H 0.41208 0.46923 0.7973 0.0
H937 H 0.43562 0.49443 0.81752 0.0
H938 H 0.44956 0.45973 0.76595 0.0
H939 H 0.47299 0.48472 0.78636 0.0
N940 N 0.48454 0.51804 0.80379 0.0
N941 N 0.48473 0.52511 0.84641 0.0
C942 C 0.64392 0.76393 0.48582 0.0
C943 C 0.63188 0.75367 0.46921 0.0
C944 C 0.64184 0.77631 0.498 0.0
C945 C 0.62767 0.77868 0.49389 0.0
C946 C 0.61755 0.75591 0.46543 0.0
C947 C 0.61557 0.76838 0.47749 0.0
C948 C 0.62615 0.79283 0.50528 0.0
C949 C 0.61962 0.75418 0.55714 0.0
C950 C 0.63155 0.76183 0.57463 0.0
C951 C 0.61832 0.76488 0.5416 0.0
C952 C 0.62906 0.78338 0.54316 0.0
C953 C 0.64209 0.78035 0.57623 0.0
C954 C 0.64084 0.79097 0.56071 0.0
C955 C 0.62732 0.79523 0.52792 0.0
C956 C 0.62054 0.8488 0.56819 0.0
C957 C 0.63246 0.86625 0.56254 0.0
C958 C 0.61802 0.83447 0.55521 0.0
C959 C 0.62734 0.83719 0.53627 0.0
C960 C 0.64158 0.86898 0.54333 0.0
C961 C 0.63921 0.85459 0.53047 0.0
C962 C 0.62598 0.82167 0.52446 0.0
C963 C 0.6306 0.84659 0.45275 0.0
C964 C 0.62071 0.85447 0.45753 0.0
C965 C 0.63171 0.83517 0.46725 0.0
C966 C 0.62283 0.83128 0.48672 0.0
C967 C 0.61159 0.85046 0.47676 0.0
C968 C 0.61236 0.83868 0.49106 0.0
C969 C 0.62431 0.81906 0.50178 0.0
H970 H 0.65529 0.76285 0.48897 0.0
H971 H 0.65162 0.78442 0.51017 0.0
H972 H 0.60787 0.74809 0.45303 0.0
H973 H 0.60458 0.77005 0.47395 0.0
H974 H 0.61138 0.73994 0.55537 0.0
H975 H 0.60874 0.75869 0.52861 0.0
H976 H 0.65121 0.7867 0.58965 0.0
H977 H 0.64911 0.80522 0.56247 0.0
H978 H 0.61352 0.84611 0.58302 0.0
H979 H 0.60902 0.82116 0.56025 0.0
H980 H 0.65072 0.88223 0.53831 0.0
H981 H 0.64696 0.85707 0.51631 0.0
H982 H 0.63767 0.84949 0.43792 0.0
H983 H 0.6397 0.82952 0.46331 0.0
H984 H 0.60368 0.85624 0.48054 0.0
H985 H 0.60473 0.83536 0.50541 0.0
N986 N 0.62455 0.80476 0.49317 0.0
N987 N 0.62725 0.80956 0.53646 0.0
C988 C 0.1241 0.74914 0.48546 0.0
C989 C 0.11675 0.75396 0.46864 0.0
C990 C 0.13541 0.76184 0.50075 0.0
C991 C 0.13969 0.77959 0.49933 0.0
C992 C 0.12063 0.77161 0.46766 0.0
C993 C 0.13215 0.78434 0.48273 0.0
C994 C 0.15318 0.7935 0.51379 0.0
C995 C 0.10708 0.76438 0.555 0.0
C996 C 0.10919 0.75496 0.57168 0.0
C997 C 0.12129 0.77631 0.54328 0.0
C998 C 0.13788 0.77901 0.54796 0.0
C999 C 0.12578 0.75757 0.57627 0.0
C1000 C 0.14005 0.76963 0.56462 0.0
C1001 C 0.15306 0.7925 0.53646 0.0
C1002 C 0.20873 0.86494 0.56481 0.0
C1003 C 0.21922 0.86199 0.57929 0.0
C1004 C 0.19612 0.85115 0.55178 0.0
C1005 C 0.19352 0.83401 0.55305 0.0
C1006 C 0.21628 0.84465 0.58088 0.0
C1007 C 0.20343 0.83076 0.56799 0.0
C1008 C 0.18022 0.81955 0.539 0.0
C1009 C 0.22446 0.85198 0.4946 0.0
C1010 C 0.22031 0.86062 0.47878 0.0
C1011 C 0.21153 0.83939 0.50744 0.0
C1012 C 0.19424 0.8352 0.50455 0.0
C1013 C 0.20306 0.85666 0.47627 0.0
C1014 C 0.19013 0.84394 0.4889 0.0
C1015 C 0.18014 0.82068 0.51635 0.0
H1016 H 0.12131 0.73562 0.48655 0.0
H1017 H 0.1413 0.75793 0.51321 0.0
H1018 H 0.11532 0.77572 0.45472 0.0
H1019 H 0.13538 0.79798 0.48125 0.0
H1020 H 0.09443 0.76259 0.55107 0.0
H1021 H 0.11935 0.78373 0.53087 0.0
H1022 H 0.1278 0.75063 0.58922 0.0
H1023 H 0.15279 0.7717 0.56865 0.0
H1024 H 0.21017 0.87794 0.56355 0.0
H1025 H 0.1883 0.85386 0.54074 0.0
H1026 H 0.22414 0.84187 0.59172 0.0
H1027 H 0.2015 0.81757 0.56931 0.0
H1028 H 0.23768 0.85484 0.49689 0.0
H1029 H 0.21494 0.83256 0.51915 0.0
H1030 H 0.19948 0.86299 0.46405 0.0
H1031 H 0.17684 0.84078 0.4863 0.0
N1032 N 0.16665 0.80761 0.50463 0.0
N1033 N 0.16666 0.8055 0.54826 0.0
C1034 C 0.21721 0.37308 0.49571 0.0
C1035 C 0.2133 0.36001 0.47962 0.0
C1036 C 0.20458 0.37117 0.5102 0.0
C1037 C 0.18785 0.35621 0.50868 0.0
C1038 C 0.19671 0.34481 0.47859 0.0
C1039 C 0.18404 0.34303 0.49286 0.0
C1040 C 0.17371 0.35522 0.52165 0.0
C1041 C 0.2058 0.34549 0.57067 0.0
C1042 C 0.21539 0.36004 0.58504 0.0
C1043 C 0.19298 0.34488 0.55687 0.0
C1044 C 0.1893 0.35867 0.55734 0.0
C1045 C 0.21202 0.37413 0.58477 0.0
C1046 C 0.19893 0.3733 0.57133 0.0
C1047 C 0.17472 0.35732 0.54425 0.0
C1048 C 0.1016 0.33726 0.56542 0.0
C1049 C 0.10477 0.34981 0.58197 0.0
C1050 C 0.11517 0.33862 0.55316 0.0
C1051 C 0.13217 0.35278 0.55685 0.0
C1052 C 0.12189 0.36374 0.58596 0.0
C1053 C 0.13545 0.36516 0.57357 0.0
C1054 C 0.14667 0.35443 0.54389 0.0
C1055 C 0.1104 0.35972 0.49709 0.0
C1056 C 0.10518 0.34833 0.47885 0.0
C1057 C 0.12355 0.36119 0.51101 0.0
C1058 C 0.13122 0.35078 0.50733 0.0
C1059 C 0.113 0.33818 0.47494 0.0
C1060 C 0.12582 0.33932 0.48909 0.0
C1061 C 0.1458 0.35262 0.52111 0.0
H1062 H 0.22994 0.38488 0.49688 0.0
H1063 H 0.20768 0.38169 0.52199 0.0
H1064 H 0.19332 0.33462 0.46621 0.0
H1065 H 0.17114 0.3315 0.49127 0.0
H1066 H 0.20771 0.33423 0.57054 0.0
H1067 H 0.18552 0.33334 0.54635 0.0
H1068 H 0.21936 0.38579 0.5951 0.0
H1069 H 0.19632 0.38411 0.57185 0.0
H1070 H 0.08858 0.32642 0.56178 0.0
H1071 H 0.11237 0.32859 0.54077 0.0
H1072 H 0.12488 0.37342 0.59887 0.0
H1073 H 0.1485 0.37603 0.57694 0.0
H1074 H 0.10468 0.36787 0.50018 0.0
H1075 H 0.12792 0.37073 0.52435 0.0
H1076 H 0.10917 0.32934 0.4609 0.0
H1077 H 0.13162 0.3313 0.48566 0.0
N1078 N 0.15934 0.35297 0.51101 0.0
N1079 N 0.16118 0.35688 0.55454 0.0
H1080 H 0.96383 0.35587 0.03971 0.0
H1081 H 0.01602 0.3658 0.05115 0.0
H1082 H 0.01888 0.38383 0.08379 0.0
H1083 H 0.97159 0.39743 0.05336 0.0
H1084 H 0.95141 0.39045 0.06659 0.0
H1085 H 0.9526 0.37652 0.04588 0.0
H1086 H 0.94147 0.35054 0.07216 0.0
H1087 H 0.94 0.36433 0.09293 0.0
H1088 H 0.95255 0.3538 0.09781 0.0
H1089 H 0.01757 0.40468 0.11145 0.0
H1090 H 0.01136 0.42415 0.13387 0.0
H1091 H 0.95888 0.39816 0.1065 0.0
C1092 C 0.97571 0.36148 0.04938 0.0
C1093 C 0.98971 0.35945 0.04293 0.0
C1094 C 0.00507 0.36705 0.05593 0.0
C1095 C 0.00683 0.37736 0.07444 0.0
C1096 C -0.00704 0.37959 0.07995 0.0
C1097 C 0.97755 0.37152 0.06806 0.0
C1098 C 0.96488 0.37659 0.07678 0.0
C1099 C 0.95984 0.38579 0.05963 0.0
C1100 C 0.94877 0.36035 0.08544 0.0
C1101 C 0.97582 0.38938 0.09488 0.0
C1102 C -0.00805 0.39093 0.09651 0.0
C1103 C 0.00479 0.40319 0.11074 0.0
C1104 C 0.00106 0.41416 0.12357 0.0
C1105 C 0.98453 0.41275 0.12229 0.0
C1106 C 0.97172 0.39987 0.10793 0.0
H1107 H 0.60236 0.60542 0.07277 0.0
H1108 H 0.6406 0.59111 0.05549 0.0
H1109 H 0.62418 0.56318 0.0751 0.0
H1110 H 0.59548 0.59025 0.12484 0.0
H1111 H 0.57247 0.58201 0.12413 0.0
H1112 H 0.58652 0.60005 0.10744 0.0
H1113 H 0.56839 0.58248 0.07341 0.0
H1114 H 0.55411 0.56443 0.09002 0.0
H1115 H 0.56461 0.56051 0.06781 0.0
H1116 H 0.60464 0.53809 0.09969 0.0
H1117 H 0.58295 0.51734 0.12479 0.0
H1118 H 0.55707 0.548 0.12355 0.0
C1119 C 0.60722 0.59639 0.07271 0.0
C1120 C 0.62278 0.60049 0.06255 0.0
C1121 C 0.62864 0.58819 0.06306 0.0
C1122 C 0.61942 0.57233 0.0742 0.0
C1123 C 0.60427 0.5689 0.0844 0.0
C1124 C 0.5981 0.5805 0.08341 0.0
C1125 C 0.58172 0.57407 0.09596 0.0
C1126 C 0.58421 0.58739 0.11417 0.0
C1127 C 0.5663 0.57013 0.0809 0.0
C1128 C 0.57987 0.55726 0.10479 0.0
C1129 C 0.59292 0.55442 0.09794 0.0
C1130 C 0.59421 0.54006 0.10486 0.0
C1131 C 0.58179 0.52832 0.11907 0.0
C1132 C 0.56825 0.53099 0.12619 0.0
C1133 C 0.56733 0.54564 0.11873 0.0
H1134 H 0.38926 0.03463 0.05837 0.0
H1135 H 0.34858 0.97947 0.05149 0.0
H1136 H 0.35963 0.9728 0.0845 0.0
H1137 H 0.42204 0.02749 0.07366 0.0
H1138 H 0.43249 0.0457 0.09301 0.0
H1139 H 0.4199 0.04677 0.07089 0.0
H1140 H 0.40089 0.05218 0.09753 0.0
H1141 H 0.41358 0.05135 0.1198 0.0
H1142 H 0.39037 0.03688 0.11881 0.0
H1143 H 0.37804 0.9713 0.11449 0.0
H1144 H 0.40093 0.9754 0.14043 0.0
H1145 H 0.42839 0.03199 0.12956 0.0
C1146 C 0.38238 0.02123 0.06409 0.0
C1147 C 0.36805 0.00758 0.05228 0.0
C1148 C 0.3595 0.99019 0.06028 0.0
C1149 C 0.36571 0.98626 0.07903 0.0
C1150 C 0.38026 -8e-05 0.08983 0.0
C1151 C 0.38828 0.01712 0.08287 0.0
C1152 C 0.40436 0.02916 0.0965 0.0
C1153 C 0.42065 0.03777 0.08269 0.0
C1154 C 0.40216 0.04322 0.1089 0.0
C1155 C 0.40459 0.0159 0.11159 0.0
C1156 C 0.39053 -0.00087 0.10761 0.0
C1157 C 0.38885 0.98446 0.11817 0.0
C1158 C 0.40194 0.98697 0.13304 0.0
C1159 C 0.41655 0.00407 0.13734 0.0
C1160 C 0.41755 0.0187 0.12668 0.0
H1161 H 0.36824 0.97085 0.95397 0.0
H1162 H 0.39094 0.02784 0.96124 0.0
H1163 H 0.41565 0.03241 0.93993 0.0
H1164 H 0.40946 0.97077 0.95551 0.0
H1165 H 0.40205 0.95323 0.9353 0.0
H1166 H 0.38674 0.95429 0.95292 0.0
H1167 H 0.36886 0.9542 0.91965 0.0
H1168 H 0.38423 0.95339 0.90193 0.0
H1169 H 0.37928 0.97087 0.89972 0.0
H1170 H 0.43677 0.03119 0.91594 0.0
H1171 H 0.45412 0.02406 0.89172 0.0
H1172 H 0.41815 0.96792 0.89929 0.0
C1173 C 0.37859 0.98427 0.95145 0.0
C1174 C 0.3777 -0.00102 0.95954 0.0
C1175 C 0.39135 0.01634 0.95551 0.0
C1176 C 0.40547 0.01911 0.94331 0.0
C1177 C 0.40576 0.00438 0.93517 0.0
C1178 C 0.3928 0.9873 0.93913 0.0
C1179 C 0.39602 0.97386 0.92758 0.0
C1180 C 0.39873 0.96236 0.9438 0.0
C1181 C 0.38122 0.96241 0.91125 0.0
C1182 C 0.41267 0.98613 0.91632 0.0
C1183 C 0.41804 0.00367 0.92102 0.0
C1184 C 0.43284 0.01751 0.9123 0.0
C1185 C 0.44261 0.01333 0.89861 0.0
C1186 C 0.43755 -0.00455 0.89378 0.0
C1187 C 0.42228 0.98169 0.90262 0.0
H1188 H -0.00614 0.37277 0.95448 0.0
H1189 H 0.04792 0.38732 0.96021 0.0
H1190 H 0.05618 0.41467 0.94047 0.0
H1191 H -0.00544 0.38766 0.90213 0.0
H1192 H 0.98016 0.39595 0.90757 0.0
H1193 H 0.97863 0.37789 0.9227 0.0
H1194 H 0.98278 0.39553 0.95844 0.0
H1195 H 0.98416 0.4136 0.94343 0.0
H1196 H 0.0014 0.41747 0.96216 0.0
H1197 H 0.05808 0.43925 0.91765 0.0
H1198 H 0.05389 0.46024 0.89617 0.0
H1199 H -0.00134 0.43045 0.90824 0.0
C1200 C 0.00744 0.38168 0.95181 0.0
C1201 C 0.02022 0.37782 0.95887 0.0
C1202 C 0.03789 0.39002 0.95501 0.0
C1203 C 0.0427 0.40556 0.94377 0.0
C1204 C 0.02969 0.40881 0.93682 0.0
C1205 C 0.01245 0.39732 0.94098 0.0
C1206 C 0.00095 0.40386 0.93192 0.0
C1207 C 0.9878 0.39055 0.91508 0.0
C1208 C -0.00821 0.40786 0.95007 0.0
C1209 C 0.01437 0.42065 0.92157 0.0
C1210 C 0.03086 0.42326 0.9245 0.0
C1211 C 0.04526 0.4375 0.9156 0.0
C1212 C 0.04273 0.44944 0.90351 0.0
C1213 C 0.02595 0.44721 0.90058 0.0
C1214 C 0.01165 0.43257 0.90988 0.0
H1215 H 0.57883 0.61166 0.99393 0.0
H1216 H 0.63037 0.6384 0.96742 0.0
H1217 H 0.61746 0.6281 0.93084 0.0
H1218 H 0.56159 0.57353 0.95967 0.0
H1219 H 0.54031 0.57095 0.95723 0.0
H1220 H 0.55357 0.5814 0.98108 0.0
H1221 H 0.55079 0.60912 0.97537 0.0
H1222 H 0.5375 0.59874 0.95147 0.0
H1223 H 0.55686 0.62018 0.95005 0.0
H1224 H 0.59882 0.61366 0.89715 0.0
H1225 H 0.576 0.59626 0.86934 0.0
H1226 H 0.53699 0.57868 0.91837 0.0
C1227 C 0.58744 0.61557 0.98045 0.0
C1228 C 0.60564 0.62592 0.98361 0.0
C1229 C 0.61639 0.63051 0.96546 0.0
C1230 C 0.60918 0.62474 0.94459 0.0
C1231 C 0.5912 0.6144 0.94211 0.0
C1232 C 0.58049 0.60988 0.95957 0.0
C1233 C 0.56164 0.59804 0.95273 0.0
C1234 C 0.55383 0.57991 0.9633 0.0
C1235 C 0.55108 0.60707 0.9577 0.0
C1236 C 0.56341 0.59647 0.92871 0.0
C1237 C 0.58054 0.60605 0.92285 0.0
C1238 C 0.58535 0.60617 0.90156 0.0
C1239 C 0.57232 0.59618 0.8859 0.0
C1240 C 0.55468 0.58617 0.89161 0.0
C1241 C 0.55028 0.58646 0.91334 0.0
H1242 H 0.01988 0.61756 0.99753 0.0
H1243 H 0.00515 0.64848 0.95808 0.0
H1244 H 0.01071 0.63588 0.92522 0.0
H1245 H 0.05359 0.61899 0.96268 0.0
H1246 H 0.04735 0.59638 0.96798 0.0
H1247 H 0.04447 0.60965 0.98818 0.0
H1248 H 0.01186 0.58588 0.9898 0.0
H1249 H 0.0146 0.5726 0.96956 0.0
H1250 H -0.00137 0.57912 0.9654 0.0
H1251 H 0.016 0.61817 0.89663 0.0
H1252 H 0.01894 0.59586 0.87497 0.0
H1253 H 0.02904 0.57588 0.93347 0.0
C1254 C 0.01827 0.62208 0.98201 0.0
C1255 C 0.01232 0.63423 0.98039 0.0
C1256 C 0.00984 0.63932 0.95972 0.0
C1257 C 0.013 0.63225 0.94098 0.0
C1258 C 0.01854 0.62004 0.94318 0.0
C1259 C 0.0211 0.61497 0.96321 0.0
C1260 C 0.02551 0.60044 0.9613 0.0
C1261 C 0.04382 0.60675 0.97058 0.0
C1262 C 0.01183 0.58351 0.97215 0.0
C1263 C 0.02475 0.59787 0.93707 0.0
C1264 C 0.02099 0.60947 0.92685 0.0
C1265 C 0.0191 0.60915 0.90448 0.0
C1266 C 0.02087 0.59649 0.8923 0.0
C1267 C 0.02425 0.58418 0.90255 0.0
C1268 C 0.02642 0.5851 0.9252 0.0
H1269 H 0.35701 0.40217 0.94748 0.0
H1270 H 0.39198 0.38708 0.976 0.0
H1271 H 0.41698 0.41352 0.96144 0.0
H1272 H 0.37741 0.41461 0.89936 0.0
H1273 H 0.37438 0.43319 0.89508 0.0
H1274 H 0.35945 0.41526 0.91126 0.0
H1275 H 0.36533 0.43726 0.94313 0.0
H1276 H 0.38022 0.45534 0.92694 0.0
H1277 H 0.3873 0.45188 0.95278 0.0
H1278 H 0.43736 0.43822 0.93956 0.0
H1279 H 0.45228 0.46038 0.91175 0.0
H1280 H 0.40467 0.46011 0.89668 0.0
C1281 C 0.37002 0.40489 0.95126 0.0
C1282 C 0.37272 0.39279 0.96297 0.0
C1283 C 0.38975 0.39626 0.96706 0.0
C1284 C 0.40401 0.41129 0.95898 0.0
C1285 C 0.40097 0.4227 0.9468 0.0
C1286 C 0.38443 0.4198 0.94303 0.0
C1287 C 0.38466 0.43296 0.92727 0.0
C1288 C 0.37331 0.42343 0.90705 0.0
C1289 C 0.37905 0.44508 0.93819 0.0
C1290 C 0.40376 0.44315 0.9221 0.0
C1291 C 0.41294 0.43716 0.93386 0.0
C1292 C 0.43043 0.44331 0.93059 0.0
C1293 C 0.43876 0.45579 0.91472 0.0
C1294 C 0.4296 0.46194 0.90233 0.0
C1295 C 0.41198 0.45582 0.90632 0.0
H1296 H 0.61544 0.00064 0.97347 0.0
H1297 H 0.58566 0.94841 6e-05 0.0
H1298 H 0.56609 0.93831 0.9678 0.0
H1299 H 0.57999 0.00283 0.95548 0.0
H1300 H 0.58976 0.01488 0.93153 0.0
H1301 H 0.6032 0.01701 0.95452 0.0
H1302 H 0.62087 0.00745 0.93087 0.0
H1303 H 0.6075 0.00534 0.9077 0.0
H1304 H 0.60977 0.98686 0.91547 0.0
H1305 H 0.54824 0.93478 0.93434 0.0
H1306 H 0.53227 0.93879 0.90416 0.0
H1307 H 0.57289 0.99379 0.90074 0.0
C1308 C 0.60512 0.98692 0.97219 0.0
C1309 C 0.6022 0.97521 0.98906 0.0
C1310 C 0.58818 0.95754 0.98719 0.0
C1311 C 0.57707 0.95168 0.9689 0.0
C1312 C 0.58009 0.96369 0.95274 0.0
C1313 C 0.59374 0.98098 0.95428 0.0
C1314 C 0.59294 0.99189 0.93615 0.0
C1315 C 0.59137 0.00757 0.94496 0.0
C1316 C 0.60871 -0.00174 0.92169 0.0
C1317 C 0.57643 0.97819 0.9245 0.0
C1318 C 0.56942 0.96189 0.93398 0.0
C1319 C 0.55372 0.94742 0.92663 0.0
C1320 C 0.54477 0.94979 0.90946 0.0
C1321 C 0.55141 0.96657 0.90017 0.0
C1322 C 0.56759 0.98081 0.90755 0.0
H1323 H 0.59965 -0.00194 0.06594 0.0
H1324 H 0.63395 0.05421 0.05691 0.0
H1325 H 0.61427 0.06063 0.07784 0.0
H1326 H 0.55901 -0.00128 0.06237 0.0
H1327 H 0.54892 0.98211 0.08242 0.0
H1328 H 0.56511 0.98214 0.06543 0.0
H1329 H 0.58293 0.98328 0.09935 0.0
H1330 H 0.56691 0.98343 0.11643 0.0
H1331 H 0.58928 0.00084 0.11931 0.0
H1332 H 0.59242 0.0608 0.10316 0.0
H1333 H 0.56904 0.05482 0.12821 0.0
H1334 H 0.54829 -0.00174 0.11856 0.0
C1335 C 0.60304 0.01169 0.06829 0.0
C1336 C 0.61843 0.02566 0.06008 0.0
C1337 C 0.62217 0.04332 0.06306 0.0
C1338 C 0.61111 0.04708 0.07497 0.0
C1339 C 0.59625 0.03297 0.08338 0.0
C1340 C 0.59207 0.01561 0.07985 0.0
C1341 C 0.57555 0.00284 0.09089 0.0
C1342 C 0.5613 0.99074 0.07429 0.0
C1343 C 0.57888 0.99196 0.10748 0.0
C1344 C 0.57134 0.01574 0.10178 0.0
C1345 C 0.5834 0.03305 0.09725 0.0
C1346 C 0.5827 0.04729 0.10647 0.0
C1347 C 0.56929 0.04372 0.12062 0.0
C1348 C 0.55665 0.02604 0.12534 0.0
C1349 C 0.55775 0.01194 0.11557 0.0
H1350 H 0.9795 0.61595 0.07796 0.0
H1351 H 0.95425 0.58894 0.01751 0.0
H1352 H 0.95093 0.56102 0.03128 0.0
H1353 H 0.00295 0.59373 0.08777 0.0
H1354 H -0.00022 0.59262 0.11643 0.0
H1355 H 0.0002 0.61035 0.1017 0.0
H1356 H 0.96997 0.60202 0.11601 0.0
H1357 H 0.9695 0.58431 0.13086 0.0
H1358 H 0.9521 0.57967 0.11199 0.0
H1359 H 0.95196 0.53649 0.05125 0.0
H1360 H 0.95463 0.51663 0.07707 0.0
H1361 H 0.97732 0.55942 0.12507 0.0
C1362 C 0.97324 0.60414 0.06763 0.0
C1363 C 0.96719 0.60456 0.04665 0.0
C1364 C 0.95891 0.58884 0.03367 0.0
C1365 C 0.95705 0.57297 0.04132 0.0
C1366 C 0.96329 0.57306 0.06208 0.0
C1367 C 0.97099 0.58819 0.07515 0.0
C1368 C 0.97621 0.58473 0.097 0.0
C1369 C -0.00404 0.59603 0.10095 0.0
C1370 C 0.96635 0.58786 0.11503 0.0
C1371 C 0.97039 0.5653 0.09418 0.0
C1372 C 0.96314 0.55883 0.07385 0.0
C1373 C 0.95744 0.54137 0.06727 0.0
C1374 C 0.95904 0.53023 0.08195 0.0
C1375 C 0.96603 0.53656 0.10296 0.0
C1376 C 0.97175 0.55428 0.10912 0.0
H1377 H 0.40602 0.37604 0.02347 0.0
H1378 H 0.35556 0.34615 0.05216 0.0
H1379 H 0.3694 0.35643 0.08846 0.0
H1380 H 0.43166 0.37023 0.06581 0.0
H1381 H 0.44955 0.39255 0.06359 0.0
H1382 H 0.43587 0.38103 0.04033 0.0
H1383 H 0.4297 0.40668 0.03533 0.0
H1384 H 0.44328 0.41824 0.05857 0.0
H1385 H 0.42111 0.41331 0.05736 0.0
H1386 H 0.38894 0.37155 0.12164 0.0
H1387 H 0.41194 0.39155 0.14815 0.0
H1388 H 0.44891 0.41226 0.09692 0.0
C1389 C 0.39788 0.37127 0.03738 0.0
C1390 C 0.37973 0.36008 0.03499 0.0
C1391 C 0.36952 0.35462 0.05362 0.0
C1392 C 0.37727 0.36035 0.07429 0.0
C1393 C 0.39522 0.37161 0.07601 0.0
C1394 C 0.40535 0.37705 0.05799 0.0
C1395 C 0.42407 0.3904 0.06386 0.0
C1396 C 0.43599 0.38311 0.05806 0.0
C1397 C 0.42987 0.40821 0.05315 0.0
C1398 C 0.42289 0.39189 0.08798 0.0
C1399 C 0.40624 0.38076 0.09481 0.0
C1400 C 0.40203 0.38023 0.11646 0.0
C1401 C 0.41515 0.39156 0.1314 0.0
C1402 C 0.43211 0.40343 0.1245 0.0
C1403 C 0.43601 0.40336 0.10257 0.0
H1404 H 0.63551 0.70869 0.358 0.0
H1405 H 0.65984 0.68412 0.39301 0.0
H1406 H 0.65621 0.69669 0.42721 0.0
H1407 H 0.65568 0.74885 0.38832 0.0
H1408 H 0.63713 0.75178 0.38731 0.0
H1409 H 0.64029 0.7396 0.36598 0.0
H1410 H 0.60972 0.71261 0.37198 0.0
H1411 H 0.60645 0.72474 0.39334 0.0
H1412 H 0.60418 0.70347 0.39842 0.0
H1413 H 0.65085 0.7131 0.45755 0.0
H1414 H 0.64487 0.73232 0.48113 0.0
H1415 H 0.62544 0.74709 0.42557 0.0
C1416 C 0.63982 0.70566 0.37287 0.0
C1417 C 0.64783 0.69526 0.37279 0.0
C1418 C 0.6536 0.69198 0.39263 0.0
C1419 C 0.65157 0.69904 0.41215 0.0
C1420 C 0.64382 0.70943 0.41156 0.0
C1421 C 0.63807 0.71273 0.3924 0.0
C1422 C 0.63109 0.72512 0.3959 0.0
C1423 C 0.64169 0.74236 0.38365 0.0
C1424 C 0.61171 0.71593 0.38953 0.0
C1425 C 0.63392 0.72841 0.42002 0.0
C1426 C 0.64114 0.71915 0.42883 0.0
C1427 C 0.64519 0.7204 0.45079 0.0
C1428 C 0.64186 0.73146 0.46405 0.0
C1429 C 0.63467 0.74129 0.4553 0.0
C1430 C 0.63062 0.73957 0.43295 0.0
H1431 H 0.27166 0.94952 0.4138 0.0
H1432 H 0.30087 0.9275 0.38497 0.0
H1433 H 0.28416 0.9003 0.40557 0.0
H1434 H 0.26903 0.93287 0.4659 0.0
H1435 H 0.24721 0.92813 0.4702 0.0
H1436 H 0.26105 0.94563 0.45269 0.0
H1437 H 0.23815 0.93106 0.42153 0.0
H1438 H 0.22414 0.91361 0.43902 0.0
H1439 H 0.23025 0.90826 0.41368 0.0
H1440 H 0.2653 0.87619 0.43086 0.0
H1441 H 0.24396 0.85591 0.45668 0.0
H1442 H 0.22669 0.89352 0.468 0.0
C1443 C 0.27441 0.93892 0.41153 0.0
C1444 C 0.28754 0.94063 0.3977 0.0
C1445 C 0.29081 0.92646 0.39541 0.0
C1446 C 0.28143 0.91099 0.40709 0.0
C1447 C 0.26875 0.90986 0.42084 0.0
C1448 C 0.26509 0.92336 0.42291 0.0
C1449 C 0.25084 0.91888 0.43876 0.0
C1450 C 0.25744 0.93217 0.45803 0.0
C1451 C 0.2349 0.91789 0.42757 0.0
C1452 C 0.24714 0.90079 0.44544 0.0
C1453 C 0.25768 0.89586 0.43504 0.0
C1454 C 0.2569 0.87986 0.439 0.0
C1455 C 0.24486 0.86851 0.45378 0.0
C1456 C 0.2337 0.87317 0.46425 0.0
C1457 C 0.23496 0.88956 0.46005 0.0
H1458 H 0.06896 0.35374 0.36321 0.0
H1459 H 0.01788 0.33103 0.3904 0.0
H1460 H 0.03047 0.33154 0.42642 0.0
H1461 H 0.08209 0.32825 0.39365 0.0
H1462 H 0.10443 0.34573 0.39649 0.0
H1463 H 0.09155 0.34479 0.3734 0.0
H1464 H 0.09859 0.37683 0.38229 0.0
H1465 H 0.11148 0.37786 0.40544 0.0
H1466 H 0.09394 0.38219 0.4086 0.0
H1467 H 0.04902 0.33495 0.45964 0.0
H1468 H 0.07141 0.33816 0.48642 0.0
H1469 H 0.10956 0.3564 0.4365 0.0
C1470 C 0.06045 0.34909 0.37681 0.0
C1471 C 0.0425 0.34257 0.37415 0.0
C1472 C 0.0317 0.33615 0.39217 0.0
C1473 C 0.03874 0.33645 0.41267 0.0
C1474 C 0.05653 0.34295 0.41472 0.0
C1475 C 0.06719 0.34893 0.3972 0.0
C1476 C 0.08564 0.35414 0.40331 0.0
C1477 C 0.09125 0.34253 0.39098 0.0
C1478 C 0.09815 0.37393 0.3997 0.0
C1479 C 0.08376 0.35018 0.42704 0.0
C1480 C 0.06694 0.34399 0.43344 0.0
C1481 C 0.0622 0.33971 0.45477 0.0
C1482 C 0.07494 0.34161 0.46985 0.0
C1483 C 0.09206 0.34742 0.46336 0.0
C1484 C 0.09649 0.35182 0.44174 0.0
H1485 H 0.03151 0.29254 0.28411 0.0
H1486 H 0.0472 0.34734 0.27212 0.0
H1487 H 0.06833 0.34901 0.24632 0.0
H1488 H 0.07453 0.29786 0.27979 0.0
H1489 H 0.06671 0.27672 0.26615 0.0
H1490 H 0.05299 0.27978 0.28458 0.0
H1491 H 0.0292 0.26949 0.25451 0.0
H1492 H 0.04291 0.26659 0.23592 0.0
H1493 H 0.03438 0.28073 0.22928 0.0
H1494 H 0.08718 0.34515 0.22138 0.0
H1495 H 0.10413 0.33601 0.19926 0.0
H1496 H 0.07665 0.28359 0.22602 0.0
C1497 C 0.03955 0.30492 0.27623 0.0
C1498 C 0.03782 0.31988 0.28048 0.0
C1499 C 0.04843 0.33578 0.26959 0.0
C1500 C 0.06043 0.33686 0.2547 0.0
C1501 C 0.06168 0.32191 0.25069 0.0
C1502 C 0.05166 0.30624 0.26113 0.0
C1503 C 0.05566 0.29217 0.25344 0.0
C1504 C 0.06291 0.28629 0.2721 0.0
C1505 C 0.03958 0.27631 0.24264 0.0
C1506 C 0.06947 0.30247 0.23713 0.0
C1507 C 0.07264 0.31958 0.23586 0.0
C1508 C 0.08489 0.3318 0.22222 0.0
C1509 C 0.09445 0.32651 0.20977 0.0
C1510 C 0.0917 0.30916 0.21103 0.0
C1511 C 0.07887 0.29689 0.22465 0.0
H1512 H 0.66448 0.71471 0.28671 0.0
H1513 H 0.7181 0.73098 0.30206 0.0
H1514 H 0.72776 0.75787 0.28092 0.0
H1515 H 0.6701 0.72907 0.23312 0.0
H1516 H 0.65503 0.73699 0.23431 0.0
H1517 H 0.65222 0.71927 0.25119 0.0
H1518 H 0.65262 0.73715 0.28513 0.0
H1519 H 0.65522 0.75485 0.26833 0.0
H1520 H 0.67061 0.7593 0.29005 0.0
H1521 H 0.73155 0.78145 0.25555 0.0
H1522 H 0.7294 0.80206 0.2311 0.0
H1523 H 0.67319 0.77186 0.2349 0.0
C1524 C 0.67823 0.72396 0.28577 0.0
C1525 C 0.69055 0.7207 0.29594 0.0
C1526 C 0.70844 0.73325 0.29446 0.0
C1527 C 0.71405 0.74851 0.28241 0.0
C1528 C 0.70159 0.75116 0.27226 0.0
C1529 C 0.68405 0.73942 0.27414 0.0
C1530 C 0.67334 0.74553 0.26185 0.0
C1531 C 0.66201 0.7319 0.24406 0.0
C1532 C 0.6623 0.74944 0.27726 0.0
C1533 C 0.68762 0.76236 0.2524 0.0
C1534 C 0.70379 0.76528 0.2585 0.0
C1535 C 0.71895 0.77952 0.25103 0.0
C1536 C 0.71757 0.79125 0.23722 0.0
C1537 C 0.70113 0.7889 0.23121 0.0
C1538 C 0.68598 0.77412 0.23894 0.0
H1539 H 0.28007 0.95046 0.30781 0.0
H1540 H 0.25927 0.98435 0.32371 0.0
H1541 H 0.24139 0.97448 0.29008 0.0
H1542 H 0.2791 0.95367 0.24775 0.0
H1543 H 0.2721 0.93056 0.2435 0.0
H1544 H 0.28561 0.94262 0.26669 0.0
H1545 H 0.26281 0.91937 0.29169 0.0
H1546 H 0.24922 0.90733 0.26865 0.0
H1547 H 0.24073 0.9147 0.29002 0.0
H1548 H 0.2237 0.95891 0.25709 0.0
H1549 H 0.20606 0.93743 0.22804 0.0
H1550 H 0.23722 0.91245 0.23389 0.0
C1551 C 0.27217 0.95619 0.30375 0.0
C1552 C 0.27123 0.9684 0.31801 0.0
C1553 C 0.26026 0.97514 0.31277 0.0
C1554 C 0.25012 0.96966 0.2937 0.0
C1555 C 0.25097 0.95727 0.28017 0.0
C1556 C 0.26165 0.95055 0.28494 0.0
C1557 C 0.25852 0.9358 0.26903 0.0
C1558 C 0.2748 0.94098 0.25597 0.0
C1559 C 0.25246 0.91827 0.28054 0.0
C1560 C 0.2441 0.93499 0.25498 0.0
C1561 C 0.24021 0.94774 0.26143 0.0
C1562 C 0.22679 0.94904 0.25166 0.0
C1563 C 0.21689 0.93682 0.23508 0.0
C1564 C 0.22031 0.92332 0.22856 0.0
C1565 C 0.2343 0.92263 0.23848 0.0
H1566 H 0.68185 0.94653 0.33041 0.0
H1567 H 0.66513 0.97659 0.29238 0.0
H1568 H 0.67214 0.96587 0.25905 0.0
H1569 H 0.7173 0.95243 0.29671 0.0
H1570 H 0.71291 0.93019 0.30052 0.0
H1571 H 0.70785 0.94136 0.32132 0.0
H1572 H 0.67599 0.91542 0.32064 0.0
H1573 H 0.68094 0.90419 0.29987 0.0
H1574 H 0.66365 0.9088 0.29555 0.0
H1575 H 0.68035 0.95105 0.22973 0.0
H1576 H 0.68705 0.93185 0.207 0.0
H1577 H 0.69738 0.91093 0.2645 0.0
C1578 C 0.67988 0.95109 0.31511 0.0
C1579 C 0.67309 0.96255 0.31404 0.0
C1580 C 0.67038 0.96787 0.29362 0.0
C1581 C 0.67438 0.9619 0.27461 0.0
C1582 C 0.68098 0.95053 0.27627 0.0
C1583 C 0.6836 0.94511 0.29602 0.0
C1584 C 0.68979 0.93198 0.29346 0.0
C1585 C 0.70805 0.93944 0.3036 0.0
C1586 C 0.67682 0.91404 0.30294 0.0
C1587 C 0.69006 0.93068 0.26917 0.0
C1588 C 0.68518 0.94165 0.2595 0.0
C1589 C 0.68425 0.94247 0.23714 0.0
C1590 C 0.68815 0.9316 0.22437 0.0
C1591 C 0.69271 0.91992 0.23401 0.0
C1592 C 0.69384 0.91967 0.2567 0.0
H1593 H 0.04018 0.71589 0.26985 0.0
H1594 H 0.02027 0.74086 0.31252 0.0
H1595 H 0.0377 0.76917 0.29386 0.0
H1596 H 0.08344 0.75225 0.26937 0.0
H1597 H 0.0864 0.74822 0.24161 0.0
H1598 H 0.07169 0.73009 0.25778 0.0
H1599 H 0.0469 0.72195 0.22961 0.0
H1600 H 0.06149 0.74015 0.21342 0.0
H1601 H 0.04158 0.73848 0.22213 0.0
H1602 H 0.05761 0.79482 0.2697 0.0
H1603 H 0.0796 0.81561 0.24455 0.0
H1604 H 0.08696 0.77329 0.22013 0.0
C1605 C 0.03954 0.72727 0.27556 0.0
C1606 C 0.02898 0.72618 0.29282 0.0
C1607 C 0.02834 0.74142 0.29937 0.0
C1608 C 0.03815 0.75751 0.28883 0.0
C1609 C 0.04852 0.75807 0.27191 0.0
C1610 C 0.04932 0.74332 0.2655 0.0
C1611 C 0.06183 0.74728 0.2475 0.0
C1612 C 0.07672 0.74429 0.2545 0.0
C1613 C 0.05238 0.73632 0.22695 0.0
C1614 C 0.06812 0.76665 0.24476 0.0
C1615 C 0.06017 0.77268 0.25871 0.0
C1616 C 0.06394 0.79022 0.25879 0.0
C1617 C 0.07634 0.80189 0.24447 0.0
C1618 C 0.0849 0.79594 0.23065 0.0
C1619 C 0.08061 0.77811 0.23071 0.0
H1620 H 0.27679 0.33379 0.29954 0.0
H1621 H 0.25471 0.28031 0.32234 0.0
H1622 H 0.23545 0.26881 0.28992 0.0
H1623 H 0.23766 0.32906 0.28209 0.0
H1624 H 0.24589 0.34265 0.25883 0.0
H1625 H 0.26007 0.34648 0.28168 0.0
H1626 H 0.28126 0.34271 0.25716 0.0
H1627 H 0.26717 0.33897 0.23414 0.0
H1628 H 0.27331 0.32286 0.24057 0.0
H1629 H 0.21672 0.2634 0.25719 0.0
H1630 H 0.19884 0.26454 0.22734 0.0
H1631 H 0.23221 0.32166 0.22627 0.0
C1632 C 0.26828 0.31962 0.2973 0.0
C1633 C 0.26738 0.30788 0.3132 0.0
C1634 C 0.25566 0.28948 0.31021 0.0
C1635 C 0.24473 0.28284 0.29183 0.0
C1636 C 0.24559 0.29478 0.27669 0.0
C1637 C 0.25704 0.3128 0.27922 0.0
C1638 C 0.25398 0.32294 0.26185 0.0
C1639 C 0.24911 0.33605 0.27171 0.0
C1640 C 0.26988 0.33243 0.24758 0.0
C1641 C 0.23875 0.30787 0.24953 0.0
C1642 C 0.23434 0.29171 0.25811 0.0
C1643 C 0.2202 0.27594 0.25013 0.0
C1644 C 0.21016 0.27672 0.2331 0.0
C1645 C 0.21417 0.29317 0.22439 0.0
C1646 C 0.22882 0.30889 0.23259 0.0
H1647 H 0.26791 0.33156 0.40647 0.0
H1648 H 0.29033 0.38282 0.37688 0.0
H1649 H 0.27225 0.39032 0.39948 0.0
H1650 H 0.22411 0.32438 0.41075 0.0
H1651 H 0.22078 0.31363 0.43617 0.0
H1652 H 0.23485 0.31217 0.41682 0.0
H1653 H 0.25977 0.32473 0.44569 0.0
H1654 H 0.24586 0.32646 0.46504 0.0
H1655 H 0.26631 0.34573 0.45902 0.0
H1656 H 0.25327 0.39293 0.4274 0.0
H1657 H 0.23286 0.38939 0.45605 0.0
H1658 H 0.22258 0.3361 0.4663 0.0
C1659 C 0.26885 0.34424 0.40439 0.0
C1660 C 0.28051 0.35658 0.38983 0.0
C1661 C 0.28141 0.37312 0.38784 0.0
C1662 C 0.27124 0.37751 0.40066 0.0
C1663 C 0.26015 0.36515 0.41519 0.0
C1664 C 0.25872 0.34876 0.41687 0.0
C1665 C 0.24603 0.33789 0.43388 0.0
C1666 C 0.23052 0.32102 0.4238 0.0
C1667 C 0.25504 0.33345 0.45198 0.0
C1668 C 0.24069 0.35082 0.44177 0.0
C1669 C 0.24902 0.36651 0.43088 0.0
C1670 C 0.24656 0.38065 0.4359 0.0
C1671 C 0.23508 0.37858 0.45227 0.0
C1672 C 0.22617 0.36246 0.46328 0.0
C1673 C 0.2291 0.34848 0.45796 0.0
H1674 H 0.64258 0.94868 0.41453 0.0
H1675 H 0.61363 0.92159 0.35583 0.0
H1676 H 0.60715 0.89289 0.37067 0.0
H1677 H 0.66119 0.92166 0.4247 0.0
H1678 H 0.65892 0.92186 0.45348 0.0
H1679 H 0.66143 0.94022 0.4381 0.0
H1680 H 0.63296 0.93635 0.45349 0.0
H1681 H 0.63036 0.91796 0.46892 0.0
H1682 H 0.61326 0.91515 0.4506 0.0
H1683 H 0.60514 0.86738 0.39126 0.0
H1684 H 0.60589 0.84661 0.4173 0.0
H1685 H 0.63423 0.89005 0.4635 0.0
C1686 C 0.63488 0.93669 0.40482 0.0
C1687 C 0.62866 0.9373 0.38401 0.0
C1688 C 0.61847 0.92136 0.37184 0.0
C1689 C 0.61477 0.90504 0.38011 0.0
C1690 C 0.62111 0.90488 0.4007 0.0
C1691 C 0.63077 0.92026 0.413 0.0
C1692 C 0.63566 0.91642 0.43486 0.0
C1693 C 0.65548 0.92558 0.43796 0.0
C1694 C 0.62757 0.92179 0.45304 0.0
C1695 C 0.62744 0.89649 0.43285 0.0
C1696 C 0.61923 0.8901 0.41294 0.0
C1697 C 0.61133 0.8722 0.40698 0.0
C1698 C 0.61182 0.86052 0.42179 0.0
C1699 C 0.61991 0.8668 0.44233 0.0
C1700 C 0.62774 0.88497 0.44795 0.0
H1701 H 0.04153 0.71051 0.37811 0.0
H1702 H 0.07026 0.68819 0.34889 0.0
H1703 H 0.09061 0.69871 0.38038 0.0
H1704 H 0.07827 0.74976 0.39669 0.0
H1705 H 0.06888 0.75191 0.42123 0.0
H1706 H 0.05513 0.74042 0.39807 0.0
H1707 H 0.03717 0.71265 0.42077 0.0
H1708 H 0.05086 0.72409 0.44406 0.0
H1709 H 0.04801 0.70308 0.43503 0.0
H1710 H 0.10868 0.71302 0.41399 0.0
H1711 H 0.12464 0.73226 0.44567 0.0
H1712 H 0.08529 0.74699 0.45183 0.0
C1713 C 0.05186 0.70747 0.37865 0.0
C1714 C 0.05421 0.6983 0.36131 0.0
C1715 C 0.0682 0.69508 0.36214 0.0
C1716 C 0.07976 0.70094 0.37998 0.0
C1717 C 0.07726 0.71019 0.39669 0.0
C1718 C 0.06374 0.71358 0.3961 0.0
C1719 C 0.065 0.72541 0.41501 0.0
C1720 C 0.06694 0.74291 0.40728 0.0
C1721 C 0.04933 0.71572 0.42958 0.0
C1722 C 0.08149 0.72837 0.42612 0.0
C1723 C 0.08816 0.71918 0.41554 0.0
C1724 C 0.10352 0.72017 0.42249 0.0
C1725 C 0.11246 0.73106 0.44054 0.0
C1726 C 0.10615 0.74102 0.45119 0.0
C1727 C 0.09037 0.73948 0.44398 0.0
H1728 H 0.33179 0.04511 0.71056 0.0
H1729 H 0.27998 0.0115 0.68327 0.0
H1730 H 0.26788 0.02078 0.71299 0.0
H1731 H 0.32069 0.04029 0.76791 0.0
H1732 H 0.33584 0.06328 0.7745 0.0
H1733 H 0.34019 0.05224 0.7528 0.0
H1734 H 0.34313 0.07628 0.72661 0.0
H1735 H 0.33884 0.08739 0.74821 0.0
H1736 H 0.32562 0.08075 0.72383 0.0
H1737 H 0.26159 0.03452 0.74491 0.0
H1738 H 0.26165 0.05369 0.77448 0.0
H1739 H 0.31794 0.08059 0.77869 0.0
C1740 C 0.31787 0.03942 0.71117 0.0
C1741 C 0.30674 0.02738 0.6949 0.0
C1742 C 0.28866 0.02064 0.69573 0.0
C1743 C 0.28169 0.02577 0.71258 0.0
C1744 C 0.29301 0.03785 0.72826 0.0
C1745 C 0.31074 0.04475 0.72758 0.0
C1746 C 0.3202 0.05889 0.7451 0.0
C1747 C 0.32979 0.05334 0.76102 0.0
C1748 C 0.33268 0.07689 0.73535 0.0
C1749 C 0.30506 0.05901 0.75557 0.0
C1750 C 0.28948 0.04655 0.74589 0.0
C1751 C 0.27373 0.04438 0.75256 0.0
C1752 C 0.27392 0.05547 0.76929 0.0
C1753 C 0.28979 0.06887 0.77895 0.0
C1754 C 0.30552 0.07038 0.77206 0.0
H1755 H 0.92896 0.26085 0.73822 0.0
H1756 H 0.97346 0.25431 0.72965 0.0
H1757 H 0.95952 0.2274 0.75147 0.0
H1758 H 0.92191 0.24947 0.79146 0.0
H1759 H 0.89856 0.23767 0.78925 0.0
H1760 H 0.91112 0.25513 0.77106 0.0
H1761 H 0.89599 0.23363 0.73829 0.0
H1762 H 0.88314 0.21613 0.75638 0.0
H1763 H 0.89601 0.21307 0.73657 0.0
H1764 H 0.94206 0.20337 0.7781 0.0
H1765 H 0.92162 0.18289 0.80446 0.0
H1766 H 0.88812 0.20472 0.79351 0.0
C1767 C 0.9357 0.25366 0.74057 0.0
C1768 C 0.95233 0.25973 0.7323 0.0
C1769 C 0.96063 0.24981 0.73573 0.0
C1770 C 0.95285 0.23456 0.74816 0.0
C1771 C 0.93664 0.22928 0.75667 0.0
C1772 C 0.92803 0.23837 0.75265 0.0
C1773 C 0.91102 0.23041 0.76414 0.0
C1774 C 0.91065 0.24398 0.77991 0.0
C1775 C 0.89563 0.22286 0.74787 0.0
C1776 C 0.91166 0.21582 0.77597 0.0
C1777 C 0.92647 0.21528 0.77143 0.0
C1778 C 0.93026 0.20346 0.78144 0.0
C1779 C 0.91854 0.19185 0.79637 0.0
C1780 C 0.9032 0.19213 0.80114 0.0
C1781 C 0.89979 0.20425 0.79056 0.0
H1782 H 0.72902 0.7036 0.70887 0.0
H1783 H 0.68806 0.64893 0.71547 0.0
H1784 H 0.70198 0.64741 0.74925 0.0
H1785 H 0.76342 0.69868 0.72694 0.0
H1786 H 0.77488 0.71957 0.74167 0.0
H1787 H 0.761 0.71703 0.71895 0.0
H1788 H 0.74362 0.72681 0.74284 0.0
H1789 H 0.75756 0.72955 0.76563 0.0
H1790 H 0.7344 0.71536 0.76732 0.0
H1791 H 0.72215 0.65053 0.77944 0.0
H1792 H 0.74586 0.65871 0.80578 0.0
H1793 H 0.77248 0.71236 0.78203 0.0
C1794 C 0.72282 0.6914 0.7176 0.0
C1795 C 0.70744 0.67638 0.70945 0.0
C1796 C 0.69978 0.66066 0.72138 0.0
C1797 C 0.7076 0.65964 0.7406 0.0
C1798 C 0.72293 0.67454 0.74791 0.0
C1799 C 0.73032 0.69023 0.73701 0.0
C1800 C 0.7471 0.70413 0.74809 0.0
C1801 C 0.76251 0.7102 0.73301 0.0
C1802 C 0.74557 0.71989 0.75647 0.0
C1803 C 0.74826 0.6936 0.7665 0.0
C1804 C 0.73418 0.67658 0.76607 0.0
C1805 C 0.73301 0.66398 0.78034 0.0
C1806 C 0.74658 0.66887 0.79545 0.0
C1807 C 0.76114 0.68635 0.7965 0.0
C1808 C 0.76173 0.69886 0.78184 0.0
H1809 H 0.70412 0.63187 0.62942 0.0
H1810 H 0.70336 0.67525 0.59757 0.0
H1811 H 0.72324 0.6755 0.5705 0.0
H1812 H 0.75018 0.64862 0.62128 0.0
H1813 H 0.74742 0.6269 0.61708 0.0
H1814 H 0.73277 0.62978 0.63399 0.0
H1815 H 0.70673 0.60622 0.61063 0.0
H1816 H 0.72132 0.60341 0.59352 0.0
H1817 H 0.70621 0.60909 0.582 0.0
H1818 H 0.7412 0.66992 0.54557 0.0
H1819 H 0.75995 0.66162 0.52641 0.0
H1820 H 0.75222 0.62405 0.57606 0.0
C1821 C 0.70823 0.64144 0.61679 0.0
C1822 C 0.70217 0.6535 0.61554 0.0
C1823 C 0.70791 0.66594 0.5989 0.0
C1824 C 0.71912 0.66613 0.58335 0.0
C1825 C 0.72473 0.654 0.58484 0.0
C1826 C 0.71981 0.6421 0.6013 0.0
C1827 C 0.72845 0.63104 0.59941 0.0
C1828 C 0.74042 0.63429 0.61911 0.0
C1829 C 0.71486 0.61127 0.5962 0.0
C1830 C 0.73877 0.6385 0.57921 0.0
C1831 C 0.73618 0.65155 0.571 0.0
C1832 C 0.74368 0.66 0.55206 0.0
C1833 C 0.75446 0.65527 0.5414 0.0
C1834 C 0.75803 0.64248 0.54991 0.0
C1835 C 0.74984 0.63386 0.56901 0.0
H1836 H 0.35942 0.0739 0.64437 0.0
H1837 H 0.35486 0.03703 0.59359 0.0
H1838 H 0.35949 0.05899 0.56631 0.0
H1839 H 0.33542 0.08958 0.61617 0.0
H1840 H 0.34815 0.11226 0.62586 0.0
H1841 H 0.34673 0.09468 0.64194 0.0
H1842 H 0.38023 0.10975 0.6433 0.0
H1843 H 0.38177 0.12746 0.62734 0.0
H1844 H 0.39186 0.11517 0.6185 0.0
H1845 H 0.36268 0.08352 0.54448 0.0
H1846 H 0.36354 0.10951 0.5287 0.0
H1847 H 0.365 0.13088 0.59288 0.0
C1848 C 0.35986 0.07075 0.62753 0.0
C1849 C 0.3571 0.05397 0.62095 0.0
C1850 C 0.35713 0.04992 0.59882 0.0
C1851 C 0.35977 0.0623 0.58324 0.0
C1852 C 0.36214 0.07861 0.59006 0.0
C1853 C 0.36215 0.08292 0.61161 0.0
C1854 C 0.36355 0.10089 0.61419 0.0
C1855 C 0.34751 0.09924 0.62519 0.0
C1856 C 0.38035 0.1141 0.62657 0.0
C1857 C 0.3641 0.10579 0.59075 0.0
C1858 C 0.36347 0.09279 0.5772 0.0
C1859 C 0.36338 0.09393 0.55489 0.0
C1860 C 0.36395 0.10879 0.54608 0.0
C1861 C 0.36452 0.12233 0.55953 0.0
C1862 C 0.36458 0.12076 0.58219 0.0
H1863 H 0.90843 0.26542 0.6612 0.0
H1864 H 0.95844 0.30386 0.63645 0.0
H1865 H 0.94629 0.29533 0.5992 0.0
H1866 H 0.89871 0.23204 0.62133 0.0
H1867 H 0.8758 0.2243 0.6201 0.0
H1868 H 0.88816 0.2344 0.64464 0.0
H1869 H 0.87791 0.25731 0.64458 0.0
H1870 H 0.86552 0.24728 0.62001 0.0
H1871 H 0.88145 0.27059 0.62127 0.0
H1872 H 0.92835 0.28209 0.56432 0.0
H1873 H 0.90698 0.26374 0.5353 0.0
H1874 H 0.86955 0.23345 0.58349 0.0
C1875 C 0.91681 0.27223 0.64799 0.0
C1876 C 0.93436 0.28543 0.65177 0.0
C1877 C 0.94494 0.29373 0.63396 0.0
C1878 C 0.93814 0.28902 0.61275 0.0
C1879 C 0.92078 0.2759 0.60962 0.0
C1880 C 0.91032 0.26754 0.6268 0.0
C1881 C 0.89241 0.25316 0.61924 0.0
C1882 C 0.88855 0.2349 0.62677 0.0
C1883 C 0.87851 0.25734 0.62672 0.0
C1884 C 0.8944 0.2546 0.5951 0.0
C1885 C 0.91076 0.26793 0.58978 0.0
C1886 C 0.91552 0.27162 0.56834 0.0
C1887 C 0.90333 0.26121 0.55197 0.0
C1888 C 0.88672 0.24717 0.55722 0.0
C1889 C 0.88223 0.24402 0.57906 0.0
H1890 H 0.31718 0.28457 0.63413 0.0
H1891 H 0.36954 0.32178 0.65701 0.0
H1892 H 0.38123 0.31234 0.62704 0.0
H1893 H 0.32477 0.25051 0.62349 0.0
H1894 H 0.3108 0.24153 0.59982 0.0
H1895 H 0.30644 0.25363 0.62004 0.0
H1896 H 0.30737 0.27518 0.59134 0.0
H1897 H 0.31155 0.26301 0.57092 0.0
H1898 H 0.32614 0.2865 0.57484 0.0
H1899 H 0.38717 0.29652 0.59759 0.0
H1900 H 0.38701 0.27476 0.5716 0.0
H1901 H 0.33074 0.24672 0.56864 0.0
C1902 C 0.33108 0.2912 0.63222 0.0
C1903 C 0.34252 0.30419 0.64747 0.0
C1904 C 0.36064 0.31202 0.6452 0.0
C1905 C 0.36737 0.30675 0.62824 0.0
C1906 C 0.35578 0.29349 0.61382 0.0
C1907 C 0.33801 0.2858 0.6156 0.0
C1908 C 0.32842 0.27029 0.59973 0.0
C1909 C 0.31694 0.25297 0.61148 0.0
C1910 C 0.31774 0.27397 0.58322 0.0
C1911 C 0.34355 0.27013 0.58926 0.0
C1912 C 0.35921 0.28384 0.5973 0.0
C1913 C 0.375 0.28589 0.59092 0.0
C1914 C 0.37478 0.27349 0.5761 0.0
C1915 C 0.35887 0.25907 0.56803 0.0
C1916 C 0.3431 0.25758 0.57454 0.0
H1917 H 0.71353 0.04762 0.60394 0.0
H1918 H 0.69034 0.07395 0.63785 0.0
H1919 H 0.70678 0.10028 0.61573 0.0
H1920 H 0.75606 0.08641 0.60041 0.0
H1921 H 0.75977 0.08005 0.57415 0.0
H1922 H 0.746 0.06331 0.59254 0.0
H1923 H 0.7211 0.05012 0.56364 0.0
H1924 H 0.73473 0.0669 0.54522 0.0
H1925 H 0.71398 0.06415 0.55195 0.0
H1926 H 0.72484 0.12321 0.58877 0.0
H1927 H 0.74544 0.14218 0.56139 0.0
H1928 H 0.75774 0.10123 0.54672 0.0
C1929 C 0.71195 0.0589 0.60687 0.0
C1930 C 0.70063 0.0587 0.62262 0.0
C1931 C 0.69899 0.07383 0.6259 0.0
C1932 C 0.70821 0.08882 0.61337 0.0
C1933 C 0.71914 0.0885 0.59783 0.0
C1934 C 0.72123 0.07402 0.59476 0.0
C1935 C 0.73411 0.07717 0.57742 0.0
C1936 C 0.74992 0.07671 0.58669 0.0
C1937 C 0.72546 0.06379 0.55843 0.0
C1938 C 0.73887 0.09565 0.57109 0.0
C1939 C 0.72997 0.10189 0.58288 0.0
C1940 C 0.73196 0.11851 0.57953 0.0
C1941 C 0.74357 0.12912 0.56391 0.0
C1942 C 0.75312 0.12311 0.5521 0.0
C1943 C 0.75065 0.10614 0.55569 0.0
H1944 H 0.94143 0.66402 0.64062 0.0
H1945 H 0.9209 0.6107 0.66323 0.0
H1946 H 0.90154 0.59878 0.63082 0.0
H1947 H 0.90127 0.65767 0.62371 0.0
H1948 H 0.90916 0.67163 0.60072 0.0
H1949 H 0.92341 0.67572 0.62357 0.0
H1950 H 0.94528 0.6734 0.59875 0.0
H1951 H 0.93105 0.66929 0.57577 0.0
H1952 H 0.9381 0.65383 0.58186 0.0
H1953 H 0.8833 0.59287 0.5973 0.0
H1954 H 0.86549 0.59336 0.56699 0.0
H1955 H 0.89594 0.65087 0.56831 0.0
C1956 C 0.9332 0.64981 0.63836 0.0
C1957 C 0.93282 0.63819 0.65407 0.0
C1958 C 0.92144 0.61974 0.65115 0.0
C1959 C 0.91049 0.61287 0.63279 0.0
C1960 C 0.91093 0.62469 0.61772 0.0
C1961 C 0.92187 0.64279 0.6204 0.0
C1962 C 0.9183 0.65272 0.60326 0.0
C1963 C 0.9127 0.66516 0.61343 0.0
C1964 C 0.93413 0.66291 0.58907 0.0
C1965 C 0.90343 0.63741 0.59078 0.0
C1966 C 0.89965 0.62136 0.5991 0.0
C1967 C 0.88613 0.60537 0.59066 0.0
C1968 C 0.87598 0.60581 0.57354 0.0
C1969 C 0.87913 0.62216 0.56529 0.0
C1970 C 0.89328 0.63812 0.57389 0.0
H1971 H 0.93332 0.66632 0.73653 0.0
H1972 H 0.9678 0.71962 0.71521 0.0
H1973 H 0.951 0.73021 0.73543 0.0
H1974 H 0.89356 0.6689 0.73402 0.0
H1975 H 0.88493 0.65562 0.75745 0.0
H1976 H 0.89906 0.65225 0.7401 0.0
H1977 H 0.91943 0.65717 0.7729 0.0
H1978 H 0.90551 0.66077 0.7903 0.0
H1979 H 0.92816 0.67737 0.78898 0.0
H1980 H 0.93229 0.73534 0.76123 0.0
H1981 H 0.91157 0.73428 0.78777 0.0
H1982 H 0.88814 0.67709 0.78979 0.0
C1983 C 0.93726 0.68017 0.73587 0.0
C1984 C 0.95192 0.69216 0.72439 0.0
C1985 C 0.95654 0.71019 0.72384 0.0
C1986 C 0.94712 0.71633 0.73533 0.0
C1987 C 0.93296 0.7042 0.74692 0.0
C1988 C 0.92786 0.68644 0.74694 0.0
C1989 C 0.91235 0.67614 0.76091 0.0
C1990 C 0.89654 0.66242 0.7473 0.0
C1991 C 0.91663 0.66735 0.77936 0.0
C1992 C 0.9098 0.69097 0.76927 0.0
C1993 C 0.92181 0.70705 0.76106 0.0
C1994 C 0.92259 0.72277 0.76742 0.0
C1995 C 0.91068 0.72199 0.78246 0.0
C1996 C 0.89804 0.70558 0.79086 0.0
C1997 C 0.89767 0.6899 0.78397 0.0
H1998 H 0.3194 0.27572 0.72598 0.0
H1999 H 0.26529 0.25649 0.70975 0.0
H2000 H 0.25703 0.22873 0.72848 0.0
H2001 H 0.31683 0.23271 0.71937 0.0
H2002 H 0.33206 0.23736 0.74137 0.0
H2003 H 0.3336 0.25521 0.72571 0.0
H2004 H 0.33186 0.27083 0.76064 0.0
H2005 H 0.33013 0.25297 0.77638 0.0
H2006 H 0.31373 0.2591 0.77801 0.0
H2007 H 0.2546 0.20458 0.75231 0.0
H2008 H 0.25823 0.18459 0.77637 0.0
H2009 H 0.31424 0.21862 0.77417 0.0
C2010 C 0.30584 0.26566 0.72621 0.0
C2011 C 0.29297 0.26831 0.71656 0.0
C2012 C 0.27536 0.25468 0.71699 0.0
C2013 C 0.27054 0.23891 0.72765 0.0
C2014 C 0.28354 0.23688 0.73741 0.0
C2015 C 0.30085 0.24975 0.73644 0.0
C2016 C 0.31229 0.24437 0.74833 0.0
C2017 C 0.32441 0.24228 0.73276 0.0
C2018 C 0.3226 0.2576 0.76694 0.0
C2019 C 0.29867 0.22666 0.75665 0.0
C2020 C 0.28218 0.2226 0.75024 0.0
C2021 C 0.26748 0.20743 0.75703 0.0
C2022 C 0.26971 0.19607 0.77063 0.0
C2023 C 0.28655 0.19979 0.77716 0.0
C2024 C 0.30116 0.21532 0.76982 0.0
H2025 H 0.71031 0.03316 0.71468 0.0
H2026 H 0.74616 0.03012 0.67071 0.0
H2027 H 0.76855 0.04123 0.69969 0.0
H2028 H 0.74066 0.07317 0.74066 0.0
H2029 H 0.73189 0.06712 0.76715 0.0
H2030 H 0.71796 0.05728 0.74365 0.0
H2031 H 0.70883 0.02596 0.75702 0.0
H2032 H 0.72268 0.03571 0.78065 0.0
H2033 H 0.72526 0.02048 0.76339 0.0
H2034 H 0.78789 0.05517 0.73206 0.0
H2035 H 0.80283 0.07066 0.76594 0.0
H2036 H 0.75438 0.06374 0.78986 0.0
C2037 C 0.72276 0.03452 0.71123 0.0
C2038 C 0.72641 0.03071 0.69035 0.0
C2039 C 0.74298 0.03293 0.68651 0.0
C2040 C 0.75582 0.0392 0.7029 0.0
C2041 C 0.7519 0.04312 0.72313 0.0
C2042 C 0.73576 0.04078 0.72744 0.0
C2043 C 0.73528 0.04691 0.7503 0.0
C2044 C 0.73121 0.06202 0.75043 0.0
C2045 C 0.72224 0.03133 0.76362 0.0
C2046 C 0.75378 0.05344 0.75794 0.0
C2047 C 0.76308 0.051 0.74205 0.0
C2048 C 0.78066 0.05685 0.7448 0.0
C2049 C 0.78902 0.06554 0.76426 0.0
C2050 C 0.77983 0.06831 0.78087 0.0
C2051 C 0.76188 0.06193 0.7776 0.0
H2052 H 0.0327 0.31689 0.04386 0.0
H2053 H 0.0353 0.29134 0.98457 0.0
H2054 H 0.05376 0.28203 0.00315 0.0
H2055 H 0.07633 0.33367 0.06135 0.0
H2056 H 0.07164 0.32985 0.08953 0.0
H2057 H 0.05771 0.33371 0.07206 0.0
H2058 H 0.03118 0.30412 0.08323 0.0
H2059 H 0.04503 0.30021 0.10082 0.0
H2060 H 0.03171 0.28388 0.08034 0.0
H2061 H 0.07334 0.27706 0.02719 0.0
H2062 H 0.09229 0.27604 0.05551 0.0
H2063 H 0.0765 0.30384 0.09997 0.0
C2064 C 0.03698 0.30916 0.03486 0.0
C2065 C 0.03251 0.30484 0.01272 0.0
C2066 C 0.03851 0.29481 0.00151 0.0
C2067 C 0.04901 0.28944 0.01192 0.0
C2068 C 0.05338 0.29411 0.03362 0.0
C2069 C 0.0475 0.30364 0.04504 0.0
C2070 C 0.05454 0.30729 0.06811 0.0
C2071 C 0.06572 0.32732 0.07304 0.0
C2072 C 0.03973 0.29834 0.08407 0.0
C2073 C 0.0655 0.29856 0.06772 0.0
C2074 C 0.06457 0.291 0.04767 0.0
C2075 C 0.07398 0.28269 0.04306 0.0
C2076 C 0.08464 0.28208 0.05937 0.0
C2077 C 0.08581 0.28965 0.08018 0.0
C2078 C 0.076 0.29796 0.08429 0.0
H2079 H 0.66683 0.70597 0.05639 0.0
H2080 H 0.61109 0.68422 0.05637 0.0
H2081 H 0.61561 0.71254 0.07127 0.0
H2082 H 0.67586 0.72842 0.10565 0.0
H2083 H 0.69591 0.74767 0.09842 0.0
H2084 H 0.68879 0.72671 0.08476 0.0
H2085 H 0.69023 0.7407 0.04789 0.0
H2086 H 0.69767 0.76182 0.0614 0.0
H2087 H 0.67873 0.75243 0.04375 0.0
H2088 H 0.62556 0.74103 0.09047 0.0
H2089 H 0.64053 0.76961 0.11024 0.0
H2090 H 0.69024 0.77411 0.09727 0.0
C2091 C 0.65562 0.70738 0.05886 0.0
C2092 C 0.6386 0.69291 0.05512 0.0
C2093 C 0.62424 0.69512 0.05908 0.0
C2094 C 0.62667 0.71116 0.06754 0.0
C2095 C 0.64354 0.7249 0.07188 0.0
C2096 C 0.65782 0.72334 0.06743 0.0
C2097 C 0.67448 0.73983 0.07504 0.0
C2098 C 0.68433 0.73538 0.09197 0.0
C2099 C 0.68595 0.74926 0.05587 0.0
C2100 C 0.66726 0.75063 0.08498 0.0
C2101 C 0.64938 0.74173 0.08284 0.0
C2102 C 0.63959 0.74837 0.09177 0.0
C2103 C 0.64827 0.7647 0.10291 0.0
C2104 C 0.66664 0.77442 0.10494 0.0
C2105 C 0.67622 0.76714 0.09593 0.0
H2106 H 0.29507 0.9354 0.04299 0.0
H2107 H 0.28114 0.97021 0.01055 0.0
H2108 H 0.25397 0.95738 0.03031 0.0
H2109 H 0.25079 0.89706 0.04331 0.0
H2110 H 0.25389 0.89032 0.06946 0.0
H2111 H 0.27205 0.90174 0.05209 0.0
H2112 H 0.28866 0.92547 0.08238 0.0
H2113 H 0.27049 0.91424 0.09975 0.0
H2114 H 0.27889 0.93724 0.09403 0.0
H2115 H 0.22967 0.94284 0.05548 0.0
H2116 H 0.20808 0.92526 0.08229 0.0
H2117 H 0.23638 0.8982 0.0968 0.0
C2118 C 0.28621 0.94017 0.03986 0.0
C2119 C 0.29029 0.95385 0.02525 0.0
C2120 C 0.27833 0.95973 0.02163 0.0
C2121 C 0.26286 0.95256 0.03281 0.0
C2122 C 0.25939 0.93937 0.04739 0.0
C2123 C 0.27055 0.93301 0.05074 0.0
C2124 C 0.26363 0.91876 0.06743 0.0
C2125 C 0.25986 0.90091 0.05747 0.0
C2126 C 0.27617 0.92426 0.08706 0.0
C2127 C 0.24702 0.91838 0.07315 0.0
C2128 C 0.24491 0.93044 0.06145 0.0
C2129 C 0.23098 0.93308 0.06447 0.0
C2130 C 0.21871 0.92293 0.07968 0.0
C2131 C 0.2203 0.9101 0.09154 0.0
C2132 C 0.23475 0.90792 0.08818 0.0
H2133 H 0.31017 0.02378 0.96875 0.0
H2134 H 0.34742 0.06561 0.01191 0.0
H2135 H 0.3374 0.08551 0.99884 0.0
H2136 H 0.31991 0.04874 0.92659 0.0
H2137 H 0.29862 0.03902 0.91403 0.0
H2138 H 0.30366 0.02613 0.93163 0.0
H2139 H 0.27775 0.01989 0.95548 0.0
H2140 H 0.27236 0.03254 0.93766 0.0
H2141 H 0.27584 0.0381 0.96609 0.0
H2142 H 0.32826 0.10238 0.9762 0.0
H2143 H 0.32184 0.11539 0.94515 0.0
H2144 H 0.2927 0.06337 0.91392 0.0
C2145 C 0.31544 0.03679 0.97634 0.0
C2146 C 0.32918 0.04308 0.99175 0.0
C2147 C 0.33658 0.06049 0.00047 0.0
C2148 C 0.33094 0.07184 0.99313 0.0
C2149 C 0.31807 0.0656 0.9769 0.0
C2150 C 0.31033 0.04841 0.96864 0.0
C2151 C 0.29961 0.04603 0.94837 0.0
C2152 C 0.30584 0.03962 0.92904 0.0
C2153 C 0.28024 0.03339 0.95213 0.0
C2154 C 0.30345 0.0648 0.94569 0.0
C2155 C 0.31358 0.07572 0.96274 0.0
C2156 C 0.32011 0.09391 0.96295 0.0
C2157 C 0.31658 0.1012 0.94509 0.0
C2158 C 0.30694 0.09041 0.92697 0.0
C2159 C 0.29987 0.07191 0.92764 0.0
H2160 H 0.96152 0.27255 0.97408 0.0
H2161 H 0.92917 0.29535 0.98688 0.0
H2162 H 0.90325 0.26724 0.97553 0.0
H2163 H 0.9409 0.25044 0.92731 0.0
H2164 H 0.94199 0.23067 0.93121 0.0
H2165 H 0.95791 0.25125 0.94414 0.0
H2166 H 0.95042 0.23684 0.98145 0.0
H2167 H 0.93469 0.21606 0.9686 0.0
H2168 H 0.92823 0.22563 0.98986 0.0
H2169 H 0.88225 0.23991 0.95611 0.0
H2170 H 0.86604 0.21281 0.93412 0.0
H2171 H 0.9106 0.20528 0.93616 0.0
C2172 C 0.94889 0.27133 0.97536 0.0
C2173 C 0.94733 0.28611 0.98146 0.0
C2174 C 0.93065 0.2842 0.9823 0.0
C2175 C 0.91584 0.26828 0.97588 0.0
C2176 C 0.91785 0.25426 0.96887 0.0
C2177 C 0.93385 0.2554 0.96899 0.0
C2178 C 0.9324 0.23872 0.95893 0.0
C2179 C 0.94399 0.24304 0.93923 0.0
C2180 C 0.93669 0.22872 0.97571 0.0
C2181 C 0.91328 0.2285 0.95231 0.0
C2182 C 0.90522 0.23776 0.95831 0.0
C2183 C 0.88818 0.23213 0.95208 0.0
C2184 C 0.879 0.21649 0.93963 0.0
C2185 C 0.88663 0.20623 0.93373 0.0
C2186 C 0.90412 0.21248 0.94033 0.0
H2187 H 0.71842 0.66802 0.01591 0.0
H2188 H 0.68286 0.67684 0.97705 0.0
H2189 H 0.70404 0.68807 0.94799 0.0
H2190 H 0.75848 0.7069 0.99848 0.0
H2191 H 0.77039 0.69534 0.99853 0.0
H2192 H 0.75297 0.68926 0.01692 0.0
H2193 H 0.73806 0.65681 0.00223 0.0
H2194 H 0.75538 0.6628 0.98376 0.0
H2195 H 0.73325 0.65227 0.97375 0.0
H2196 H 0.72811 0.69624 0.92215 0.0
H2197 H 0.7534 0.70093 0.90154 0.0
H2198 H 0.77363 0.68762 0.95764 0.0
C2199 C 0.71516 0.67252 0.00142 0.0
C2200 C 0.69898 0.67156 0.99879 0.0
C2201 C 0.69519 0.67747 0.97947 0.0
C2202 C 0.70714 0.6839 0.96287 0.0
C2203 C 0.72287 0.68444 0.96587 0.0
C2204 C 0.72695 0.679 0.9847 0.0
C2205 C 0.74443 0.68024 0.9835 0.0
C2206 C 0.75733 0.69374 0.00036 0.0
C2207 C 0.74266 0.66194 0.98595 0.0
C2208 C 0.74935 0.68683 0.96087 0.0
C2209 C 0.73681 0.6893 0.95103 0.0
C2210 C 0.73814 0.6946 0.92979 0.0
C2211 C 0.75262 0.69733 0.91825 0.0
C2212 C 0.76559 0.69474 0.92796 0.0
C2213 C 0.76393 0.68961 0.94966 0.0
H2214 H 0.92798 0.66543 0.00074 0.0
H2215 H 0.96957 0.67482 0.9579 0.0
H2216 H 0.9569 0.68531 0.93028 0.0
H2217 H 0.89425 0.649 0.96057 0.0
H2218 H 0.8832 0.65925 0.97274 0.0
H2219 H 0.89593 0.65315 0.9893 0.0
H2220 H 0.91392 0.68543 0.00444 0.0
H2221 H 0.90123 0.69163 0.98792 0.0
H2222 H 0.92452 0.70334 0.98607 0.0
H2223 H 0.93909 0.69415 0.90699 0.0
H2224 H 0.91736 0.69987 0.88976 0.0
H2225 H 0.88778 0.68488 0.94825 0.0
C2226 C 0.93451 0.66977 0.9856 0.0
C2227 C 0.9498 0.66933 0.98151 0.0
C2228 C 0.95785 0.67505 0.96142 0.0
C2229 C 0.95077 0.68105 0.94565 0.0
C2230 C 0.93564 0.68127 0.95022 0.0
C2231 C 0.92762 0.67576 0.96972 0.0
C2232 C 0.91128 0.67687 0.97052 0.0
C2233 C 0.89522 0.65847 0.97345 0.0
C2234 C 0.91284 0.69011 0.98829 0.0
C2235 C 0.91124 0.68372 0.94833 0.0
C2236 C 0.92544 0.68628 0.93689 0.0
C2237 C 0.92799 0.69229 0.91587 0.0
C2238 C 0.91562 0.69561 0.90626 0.0
C2239 C 0.90085 0.69285 0.91764 0.0
C2240 C 0.89882 0.68697 0.93903 0.0
H2241 H 0.32509 0.295 0.93228 0.0
H2242 H 0.3503 0.29141 0.99044 0.0
H2243 H 0.34166 0.26044 0.98013 0.0
H2244 H 0.28882 0.24842 0.92927 0.0
H2245 H 0.28955 0.24708 0.90033 0.0
H2246 H 0.29571 0.26796 0.91371 0.0
H2247 H 0.32548 0.28235 0.89535 0.0
H2248 H 0.31945 0.26155 0.88198 0.0
H2249 H 0.33901 0.27269 0.8985 0.0
H2250 H 0.33238 0.23108 0.96206 0.0
H2251 H 0.32409 0.20562 0.93714 0.0
H2252 H 0.30581 0.22882 0.88991 0.0
C2253 C 0.32837 0.28745 0.94302 0.0
C2254 C 0.33803 0.29522 0.96227 0.0
C2255 C 0.34266 0.28539 0.97578 0.0
C2256 C 0.33779 0.26787 0.97006 0.0
C2257 C 0.3284 0.26057 0.95077 0.0
C2258 C 0.32375 0.27005 0.93743 0.0
C2259 C 0.31503 0.25973 0.91672 0.0
C2260 C 0.29616 0.25555 0.91491 0.0
C2261 C 0.32537 0.26967 0.89698 0.0
C2262 C 0.31588 0.24313 0.92022 0.0
C2263 C 0.32342 0.24378 0.94008 0.0
C2264 C 0.32636 0.23037 0.94654 0.0
C2265 C 0.32172 0.21603 0.93221 0.0
C2266 C 0.31438 0.21529 0.91155 0.0
C2267 C 0.31116 0.2289 0.9057 0.0
H2268 H 0.69733 0.03117 0.98379 0.0
H2269 H 0.66143 0.04343 0.95148 0.0
H2270 H 0.68237 0.05773 0.92268 0.0
H2271 H 0.73528 0.07117 0.97361 0.0
H2272 H 0.74864 0.06147 0.96923 0.0
H2273 H 0.73027 0.05083 0.98637 0.0
H2274 H 0.71798 0.02189 0.96314 0.0
H2275 H 0.73636 0.03246 0.9459 0.0
H2276 H 0.71466 0.02243 0.93452 0.0
H2277 H 0.7081 0.07308 0.89928 0.0
H2278 H 0.73677 0.08785 0.88237 0.0
H2279 H 0.75573 0.065 0.9291 0.0
C2280 C 0.69377 0.03664 0.97051 0.0
C2281 C 0.67773 0.03619 0.96992 0.0
C2282 C 0.67362 0.04361 0.95232 0.0
C2283 C 0.68542 0.05173 0.93583 0.0
C2284 C 0.70121 0.05219 0.93707 0.0
C2285 C 0.70537 0.04474 0.95386 0.0
C2286 C 0.72353 0.04775 0.95184 0.0
C2287 C 0.73511 0.05844 0.97142 0.0
C2288 C 0.7231 0.03007 0.94865 0.0
C2289 C 0.72909 0.05844 0.93159 0.0
C2290 C 0.71597 0.06077 0.92327 0.0
C2291 C 0.71838 0.07114 0.90544 0.0
C2292 C 0.73468 0.0795 0.896 0.0
C2293 C 0.74831 0.07738 0.90434 0.0
C2294 C 0.74538 0.06651 0.92216 0.0
H2295 H 0.64441 0.95983 0.08756 0.0
H2296 H 0.67006 0.97048 0.02627 0.0
H2297 H 0.68352 0.95283 0.03696 0.0
H2298 H 0.68016 0.96406 0.11909 0.0
H2299 H 0.66651 0.94699 0.13724 0.0
H2300 H 0.65862 0.95985 0.12422 0.0
H2301 H 0.632 0.931 0.10876 0.0
H2302 H 0.63981 0.91805 0.12175 0.0
H2303 H 0.63537 0.91551 0.09309 0.0
H2304 H 0.69313 0.9328 0.05452 0.0
H2305 H 0.69932 0.91392 0.07764 0.0
H2306 H 0.66932 0.91952 0.1284 0.0
C2307 C 0.65272 0.95833 0.07623 0.0
C2308 C 0.65602 0.96628 0.05596 0.0
C2309 C 0.66731 0.96438 0.04184 0.0
C2310 C 0.67497 0.95439 0.04778 0.0
C2311 C 0.67141 0.94673 0.06798 0.0
C2312 C 0.66068 0.9488 0.08204 0.0
C2313 C 0.65932 0.93989 0.10311 0.0
C2314 C 0.66659 0.95351 0.12203 0.0
C2315 C 0.64051 0.92524 0.10688 0.0
C2316 C 0.67079 0.93222 0.09871 0.0
C2317 C 0.67758 0.93615 0.07836 0.0
C2318 C 0.68806 0.92986 0.07059 0.0
C2319 C 0.69161 0.91924 0.08396 0.0
C2320 C 0.68488 0.91519 0.105 0.0
C2321 C 0.67449 0.92202 0.11237 0.0
H2322 H 0.04779 0.69899 0.06378 0.0
H2323 H 0.01143 0.71142 0.03306 0.0
H2324 H 0.02906 0.74238 0.0467 0.0
H2325 H 0.05479 0.72389 0.11105 0.0
H2326 H 0.07755 0.73125 0.114 0.0
H2327 H 0.06316 0.7106 0.10002 0.0
H2328 H 0.08224 0.72117 0.06632 0.0
H2329 H 0.09685 0.7418 0.08031 0.0
H2330 H 0.08725 0.74187 0.05462 0.0
H2331 H 0.04916 0.77126 0.06693 0.0
H2332 H 0.07093 0.796 0.09013 0.0
H2333 H 0.09449 0.76468 0.10641 0.0
C2334 C 0.04365 0.70825 0.05954 0.0
C2335 C 0.02818 0.70271 0.04731 0.0
C2336 C 0.02326 0.71532 0.04228 0.0
C2337 C 0.03317 0.73294 0.05001 0.0
C2338 C 0.04806 0.7378 0.06256 0.0
C2339 C 0.05339 0.72586 0.06703 0.0
C2340 C 0.06947 0.73416 0.08157 0.0
C2341 C 0.06602 0.72439 0.10292 0.0
C2342 C 0.08486 0.73479 0.07001 0.0
C2343 C 0.07213 0.75252 0.08505 0.0
C2344 C 0.05971 0.75442 0.0739 0.0
C2345 C 0.05912 0.77001 0.07544 0.0
C2346 C 0.0716 0.78402 0.08862 0.0
C2347 C 0.08453 0.7824 0.10012 0.0
C2348 C 0.08473 0.76639 0.0981 0.0
H2349 H 0.29032 0.35411 0.03631 0.0
H2350 H 0.29017 0.30535 0.02151 0.0
H2351 H 0.26412 0.28879 0.0432 0.0
H2352 H 0.27662 0.34415 0.0912 0.0
H2353 H 0.26329 0.35416 0.08999 0.0
H2354 H 0.28208 0.36224 0.07349 0.0
H2355 H 0.26285 0.35702 0.03936 0.0
H2356 H 0.24401 0.34892 0.05575 0.0
H2357 H 0.24426 0.33536 0.03373 0.0
H2358 H 0.23776 0.27741 0.06607 0.0
H2359 H 0.21335 0.27226 0.08905 0.0
H2360 H 0.23068 0.32837 0.08847 0.0
C2361 C 0.28486 0.33996 0.03768 0.0
C2362 C 0.2923 0.33105 0.02719 0.0
C2363 C 0.28471 0.3125 0.02938 0.0
C2364 C 0.26991 0.30296 0.04166 0.0
C2365 C 0.26285 0.31214 0.05169 0.0
C2366 C 0.27009 0.33023 0.04987 0.0
C2367 C 0.25991 0.33689 0.06213 0.0
C2368 C 0.27115 0.35014 0.08028 0.0
C2369 C 0.25231 0.34502 0.04683 0.0
C2370 C 0.24582 0.31973 0.07108 0.0
C2371 C 0.24772 0.30559 0.06487 0.0
C2372 C 0.23614 0.28838 0.07105 0.0
C2373 C 0.22227 0.28557 0.08398 0.0
C2374 C 0.22015 0.29991 0.0906 0.0
C2375 C 0.2321 0.31717 0.08396 0.0
H2376 H 0.72984 0.68748 0.38247 0.0
H2377 H 0.6841 0.63652 0.3666 0.0
H2378 H 0.69678 0.62159 0.38678 0.0
H2379 H 0.76069 0.67369 0.37724 0.0
H2380 H 0.77437 0.68717 0.39961 0.0
H2381 H 0.76142 0.69404 0.3848 0.0
H2382 H 0.74715 0.69576 0.42009 0.0
H2383 H 0.76017 0.68904 0.43505 0.0
H2384 H 0.73688 0.67668 0.43681 0.0
H2385 H 0.71508 0.61205 0.40694 0.0
H2386 H 0.73711 0.60865 0.42715 0.0
H2387 H 0.77058 0.66586 0.43094 0.0
C2388 C 0.7224 0.67319 0.3834 0.0
C2389 C 0.70596 0.66318 0.37291 0.0
C2390 C 0.6967 0.6445 0.37451 0.0
C2391 C 0.7038 0.63588 0.38591 0.0
C2392 C 0.72014 0.64611 0.39576 0.0
C2393 C 0.72927 0.66437 0.39479 0.0
C2394 C 0.74669 0.67224 0.40656 0.0
C2395 C 0.76167 0.68238 0.39112 0.0
C2396 C 0.74778 0.68413 0.42577 0.0
C2397 C 0.74602 0.65554 0.41405 0.0
C2398 C 0.73059 0.64062 0.40765 0.0
C2399 C 0.72713 0.62365 0.41226 0.0
C2400 C 0.73971 0.62187 0.42386 0.0
C2401 C 0.75558 0.63698 0.43083 0.0
C2402 C 0.75869 0.65402 0.42574 0.0
H2403 H 0.33712 0.04588 0.39231 0.0
H2404 H 0.28305 0.02845 0.37859 0.0
H2405 H 0.288 0.05763 0.3908 0.0
H2406 H 0.34003 0.06697 0.44019 0.0
H2407 H 0.36179 0.08537 0.43772 0.0
H2408 H 0.35528 0.06471 0.4237 0.0
H2409 H 0.36409 0.0807 0.38742 0.0
H2410 H 0.37087 0.10152 0.40138 0.0
H2411 H 0.35524 0.09426 0.37931 0.0
H2412 H 0.29711 0.08598 0.40994 0.0
H2413 H 0.31037 0.11282 0.43362 0.0
H2414 H 0.35877 0.11267 0.43541 0.0
C2415 C 0.32656 0.04853 0.39105 0.0
C2416 C 0.30975 0.03505 0.38427 0.0
C2417 C 0.29603 0.03868 0.38359 0.0
C2418 C 0.29874 0.05522 0.39044 0.0
C2419 C 0.31525 0.06801 0.39793 0.0
C2420 C 0.32902 0.06499 0.3981 0.0
C2421 C 0.3449 0.08027 0.4093 0.0
C2422 C 0.35084 0.07394 0.42888 0.0
C2423 C 0.35965 0.08975 0.3934 0.0
C2424 C 0.33766 0.09191 0.41619 0.0
C2425 C 0.32059 0.08465 0.40918 0.0
C2426 C 0.31057 0.09202 0.41511 0.0
C2427 C 0.31815 0.10716 0.42866 0.0
C2428 C 0.33556 0.11477 0.43611 0.0
C2429 C 0.34553 0.10723 0.42953 0.0
H2430 H 0.96057 0.28996 0.37161 0.0
H2431 H 0.93093 0.27906 0.31155 0.0
H2432 H 0.90378 0.26209 0.33111 0.0
H2433 H 0.93317 0.24752 0.39514 0.0
H2434 H 0.93541 0.25667 0.42203 0.0
H2435 H 0.95262 0.2678 0.4033 0.0
H2436 H 0.95137 0.29653 0.40897 0.0
H2437 H 0.93412 0.28547 0.42766 0.0
H2438 H 0.93109 0.2959 0.40458 0.0
H2439 H 0.87996 0.24632 0.35684 0.0
H2440 H 0.86075 0.23243 0.38722 0.0
H2441 H 0.90561 0.25428 0.43103 0.0
C2442 C 0.94837 0.28392 0.36255 0.0
C2443 C 0.94787 0.2858 0.34002 0.0
C2444 C 0.93165 0.2778 0.3288 0.0
C2445 C 0.91615 0.26814 0.33976 0.0
C2446 C 0.91709 0.26665 0.36195 0.0
C2447 C 0.93275 0.27429 0.37326 0.0
C2448 C 0.93006 0.2708 0.39713 0.0
C2449 C 0.9383 0.26006 0.40485 0.0
C2450 C 0.93707 0.28821 0.41036 0.0
C2451 C 0.91044 0.25993 0.3974 0.0
C2452 C 0.90325 0.25773 0.37693 0.0
C2453 C 0.88541 0.24806 0.37298 0.0
C2454 C 0.8746 0.24034 0.39042 0.0
C2455 C 0.88162 0.2424 0.41162 0.0
C2456 C 0.89982 0.25238 0.41506 0.0
H2457 H 0.02055 0.3946 0.30967 0.0
H2458 H 0.97041 0.34796 0.31994 0.0
H2459 H 0.95596 0.36341 0.30552 0.0
H2460 H 0.00686 0.42895 0.31848 0.0
H2461 H 0.02073 0.44205 0.29727 0.0
H2462 H 0.02684 0.42922 0.31373 0.0
H2463 H 0.02966 0.41389 0.27921 0.0
H2464 H 0.0232 0.42628 0.2627 0.0
H2465 H 0.01129 0.40242 0.26077 0.0
H2466 H 0.94728 0.38128 0.28267 0.0
H2467 H 0.94519 0.40109 0.25641 0.0
H2468 H 0.00113 0.43521 0.26013 0.0
C2469 C 0.00653 0.38786 0.30978 0.0
C2470 C -0.00336 0.37005 0.3159 0.0
C2471 C 0.9783 0.36165 0.3155 0.0
C2472 C 0.96995 0.37032 0.30726 0.0
C2473 C 0.98014 0.38744 0.29982 0.0
C2474 C -0.00195 0.39626 0.30147 0.0
C2475 C 0.00614 0.41355 0.2898 0.0
C2476 C 0.0157 0.42938 0.30578 0.0
C2477 C 0.01827 0.41404 0.27208 0.0
C2478 C 0.99006 0.41263 0.28029 0.0
C2479 C 0.97514 0.39767 0.28652 0.0
C2480 C 0.95885 0.39325 0.2781 0.0
C2481 C 0.9578 0.40445 0.26299 0.0
C2482 C 0.97298 0.41978 0.25635 0.0
C2483 C 0.98924 0.42388 0.26532 0.0
H2484 H 0.60409 0.62827 0.28664 0.0
H2485 H 0.63788 0.61524 0.32285 0.0
H2486 H 0.61969 0.58396 0.31094 0.0
H2487 H 0.56318 0.58664 0.29627 0.0
H2488 H 0.55467 0.58593 0.26954 0.0
H2489 H 0.56939 0.60694 0.28268 0.0
H2490 H 0.58964 0.61537 0.25013 0.0
H2491 H 0.57513 0.59433 0.23702 0.0
H2492 H 0.59758 0.60099 0.24175 0.0
H2493 H 0.59965 0.55469 0.29196 0.0
H2494 H 0.57777 0.52918 0.26963 0.0
H2495 H 0.55693 0.56124 0.24631 0.0
C2496 C 0.60749 0.61881 0.29249 0.0
C2497 C 0.62246 0.6243 0.30573 0.0
C2498 C 0.62648 0.61143 0.31277 0.0
C2499 C 0.61623 0.5936 0.30606 0.0
C2500 C 0.6019 0.58877 0.29245 0.0
C2501 C 0.59738 0.60096 0.28599 0.0
C2502 C 0.58179 0.59251 0.27061 0.0
C2503 C 0.56634 0.59303 0.28037 0.0
C2504 C 0.58632 0.60132 0.24858 0.0
C2505 C 0.57848 0.57376 0.26907 0.0
C2506 C 0.59021 0.57186 0.28179 0.0
C2507 C 0.59025 0.55596 0.28215 0.0
C2508 C 0.57789 0.5416 0.26931 0.0
C2509 C 0.56562 0.54322 0.25636 0.0
C2510 C 0.56597 0.55953 0.25633 0.0
H2511 H 0.35741 0.00247 0.31235 0.0
H2512 H 0.38491 0.01211 0.37389 0.0
H2513 H 0.41061 0.01596 0.35518 0.0
H2514 H 0.37347 0.97734 0.28799 0.0
H2515 H 0.3756 0.98629 0.26156 0.0
H2516 H 0.35965 0.98568 0.27943 0.0
H2517 H 0.3727 0.0195 0.27599 0.0
H2518 H 0.38863 0.0202 0.25794 0.0
H2519 H 0.39548 0.03427 0.28189 0.0
H2520 H 0.43219 0.01579 0.3306 0.0
H2521 H 0.44936 0.01393 0.30089 0.0
H2522 H 0.40878 0.00564 0.25491 0.0
C2523 C 0.36894 0.00571 0.32185 0.0
C2524 C 0.36911 0.00697 0.34461 0.0
C2525 C 0.38443 0.01107 0.35645 0.0
C2526 C 0.39912 0.01329 0.34598 0.0
C2527 C 0.39841 0.01155 0.32362 0.0
C2528 C 0.38383 0.00809 0.31162 0.0
C2529 C 0.38638 0.00633 0.28778 0.0
C2530 C 0.37298 0.98781 0.27866 0.0
C2531 C 0.38576 0.02095 0.27516 0.0
C2532 C 0.40451 0.00896 0.28839 0.0
C2533 C 0.41116 0.01193 0.30926 0.0
C2534 C 0.42725 0.01374 0.31415 0.0
C2535 C 0.43684 0.01256 0.29724 0.0
C2536 C 0.43039 0.00974 0.27572 0.0
C2537 C 0.41407 0.00804 0.27123 0.0
H2538 H 0.61706 0.00721 0.3117 0.0
H2539 H 0.61147 0.96125 0.27641 0.0
H2540 H 0.59112 0.96283 0.2507 0.0
H2541 H 0.57364 -0.00446 0.30775 0.0
H2542 H 0.57749 0.01763 0.30422 0.0
H2543 H 0.59328 0.01441 0.31853 0.0
H2544 H 0.617 0.035 0.29242 0.0
H2545 H 0.60129 0.0384 0.2781 0.0
H2546 H 0.61349 0.03039 0.2638 0.0
H2547 H 0.56892 0.96695 0.23144 0.0
H2548 H 0.54728 0.97456 0.21856 0.0
H2549 H 0.56739 0.01832 0.26524 0.0
C2550 C 0.61189 -0.00224 0.29826 0.0
C2551 C 0.61591 0.98412 0.29608 0.0
C2552 C 0.60862 0.97182 0.27846 0.0
C2553 C 0.59705 0.97262 0.26371 0.0
C2554 C 0.59296 0.98587 0.26665 0.0
C2555 C 0.60028 -0.00163 0.28331 0.0
C2556 C 0.59284 0.01058 0.28347 0.0
C2557 C 0.58378 0.00946 0.30475 0.0
C2558 C 0.607 0.02973 0.27919 0.0
C2559 C 0.57987 0.00266 0.2647 0.0
C2560 C 0.58024 0.98846 0.25519 0.0
C2561 C 0.5687 0.97822 0.23851 0.0
C2562 C 0.55641 0.98257 0.23138 0.0
C2563 C 0.55579 -0.00294 0.24083 0.0
C2564 C 0.56782 0.00736 0.25753 0.0
H2565 H 0.01694 0.63827 0.26052 0.0
H2566 H -0.0063 0.62042 0.3227 0.0
H2567 H 0.98305 0.58933 0.31076 0.0
H2568 H 0.98217 0.60371 0.22979 0.0
H2569 H -0.00407 0.60216 0.20999 0.0
H2570 H 0.00278 0.62289 0.22408 0.0
H2571 H 0.03118 0.6242 0.23676 0.0
H2572 H 0.02444 0.60348 0.22264 0.0
H2573 H 0.02998 0.60587 0.25101 0.0
H2574 H 0.97521 0.56026 0.29171 0.0
H2575 H 0.96941 0.53551 0.26688 0.0
H2576 H -0.00451 0.57283 0.21617 0.0
C2577 C 0.00986 0.62786 0.27179 0.0
C2578 C 0.00634 0.63172 0.29265 0.0
C2579 C -0.00339 0.6177 0.30669 0.0
C2580 C -0.00945 0.60006 0.30006 0.0
C2581 C -0.00586 0.59673 0.27926 0.0
C2582 C 0.00345 0.61026 0.2653 0.0
C2583 C 0.00471 0.60321 0.2434 0.0
C2584 C -0.00413 0.60829 0.22578 0.0
C2585 C 0.0237 0.60957 0.23816 0.0
C2586 C -0.00532 0.58355 0.24718 0.0
C2587 C 0.98884 0.58006 0.268 0.0
C2588 C 0.97956 0.56284 0.2753 0.0
C2589 C 0.97618 0.54884 0.26094 0.0
C2590 C 0.9818 0.55208 0.23935 0.0
C2591 C -0.00886 0.56976 0.23253 0.0
H2592 H 0.35358 0.36904 0.3022 0.0
H2593 H 0.38227 0.37874 0.36285 0.0
H2594 H 0.40973 0.39491 0.3439 0.0
H2595 H 0.3834 0.36251 0.26943 0.0
H2596 H 0.38103 0.37352 0.24651 0.0
H2597 H 0.36338 0.36235 0.26467 0.0
H2598 H 0.36261 0.3913 0.2707 0.0
H2599 H 0.38028 0.40257 0.25261 0.0
H2600 H 0.38209 0.41123 0.27968 0.0
H2601 H 0.43393 0.4108 0.31924 0.0
H2602 H 0.45391 0.42511 0.28973 0.0
H2603 H 0.41014 0.4046 0.24427 0.0
C2604 C 0.36564 0.37451 0.31146 0.0
C2605 C 0.36575 0.37262 0.33404 0.0
C2606 C 0.38182 0.37999 0.34557 0.0
C2607 C 0.39751 0.38921 0.33496 0.0
C2608 C 0.39698 0.39093 0.31278 0.0
C2609 C 0.38152 0.38376 0.30108 0.0
C2610 C 0.38476 0.3877 0.27735 0.0
C2611 C 0.37772 0.37049 0.26369 0.0
C2612 C 0.37697 0.39887 0.26964 0.0
C2613 C 0.40443 0.3983 0.27766 0.0
C2614 C 0.41114 0.39996 0.29831 0.0
C2615 C 0.42887 0.40943 0.30293 0.0
C2616 C 0.44013 0.4174 0.28598 0.0
C2617 C 0.43367 0.41577 0.26455 0.0
C2618 C 0.41552 0.40611 0.26043 0.0
H2619 H 0.29625 0.27606 0.39586 0.0
H2620 H 0.34411 0.31749 0.36948 0.0
H2621 H 0.35953 0.3028 0.3833 0.0
H2622 H 0.3138 0.27252 0.44371 0.0
H2623 H 0.30043 0.24882 0.44544 0.0
H2624 H 0.29256 0.26102 0.43086 0.0
H2625 H 0.2874 0.24146 0.39658 0.0
H2626 H 0.29501 0.22897 0.41117 0.0
H2627 H 0.30496 0.23917 0.38635 0.0
H2628 H 0.37043 0.28582 0.40431 0.0
H2629 H 0.37552 0.26684 0.42866 0.0
H2630 H 0.32028 0.23604 0.44009 0.0
C2631 C 0.30988 0.28185 0.3925 0.0
C2632 C 0.31895 0.29794 0.38157 0.0
C2633 C 0.33683 0.30511 0.37768 0.0
C2634 C 0.34573 0.29688 0.38551 0.0
C2635 C 0.33651 0.28138 0.39693 0.0
C2636 C 0.31892 0.27379 0.4001 0.0
C2637 C 0.3122 0.25772 0.41401 0.0
C2638 C 0.30429 0.26019 0.43473 0.0
C2639 C 0.29912 0.24083 0.40126 0.0
C2640 C 0.32888 0.25784 0.41886 0.0
C2641 C 0.34274 0.27149 0.40875 0.0
C2642 C 0.35961 0.27486 0.41194 0.0
C2643 C 0.36237 0.26397 0.42578 0.0
C2644 C 0.34831 0.24987 0.43629 0.0
C2645 C 0.33135 0.24677 0.43252 0.0
H2646 H 0.68311 0.04393 0.38554 0.0
H2647 H 0.71662 0.02539 0.36163 0.0
H2648 H 0.74229 0.05466 0.37027 0.0
H2649 H 0.71091 0.09191 0.3701 0.0
H2650 H 0.7062 0.09977 0.39465 0.0
H2651 H 0.69026 0.07875 0.3825 0.0
H2652 H 0.68875 0.06342 0.41834 0.0
H2653 H 0.70475 0.0843 0.43052 0.0
H2654 H 0.70837 0.06582 0.43026 0.0
H2655 H 0.76415 0.08353 0.38635 0.0
H2656 H 0.78115 0.11069 0.40894 0.0
H2657 H 0.73413 0.1112 0.42346 0.0
C2658 C 0.69584 0.04637 0.38134 0.0
C2659 C 0.69797 0.03262 0.37252 0.0
C2660 C 0.7148 0.0359 0.3681 0.0
C2661 C 0.72942 0.05248 0.37291 0.0
C2662 C 0.72702 0.06562 0.38229 0.0
C2663 C 0.71067 0.06285 0.3864 0.0
C2664 C 0.71189 0.07847 0.39908 0.0
C2665 C 0.70437 0.08778 0.38578 0.0
C2666 C 0.70291 0.07265 0.42084 0.0
C2667 C 0.73141 0.09007 0.40215 0.0
C2668 C 0.73985 0.08248 0.392 0.0
C2669 C 0.75775 0.0898 0.39399 0.0
C2670 C 0.76728 0.10516 0.4069 0.0
C2671 C 0.75893 0.11304 0.41768 0.0
C2672 C 0.74081 0.10559 0.41496 0.0
H2673 H 0.96373 0.68717 0.38508 0.0
H2674 H 0.95953 0.63702 0.36696 0.0
H2675 H 0.93387 0.62133 0.38952 0.0
H2676 H 0.94968 0.67567 0.44116 0.0
H2677 H 0.93801 0.68747 0.44092 0.0
H2678 H 0.95692 0.69483 0.42478 0.0
H2679 H 0.93881 0.69287 0.39076 0.0
H2680 H 0.91984 0.68537 0.40674 0.0
H2681 H 0.91932 0.67226 0.38371 0.0
H2682 H 0.90703 0.61088 0.4112 0.0
H2683 H 0.88174 0.6066 0.43152 0.0
H2684 H 0.90431 0.66367 0.43707 0.0
C2685 C 0.95756 0.67292 0.38621 0.0
C2686 C 0.96363 0.66335 0.37438 0.0
C2687 C 0.95517 0.64467 0.37599 0.0
C2688 C 0.94057 0.63562 0.38876 0.0
C2689 C 0.93472 0.64544 0.39995 0.0
C2690 C 0.94306 0.6637 0.399 0.0
C2691 C 0.93374 0.67104 0.41189 0.0
C2692 C 0.94528 0.68296 0.43081 0.0
C2693 C 0.92756 0.68097 0.3974 0.0
C2694 C 0.91862 0.65405 0.41974 0.0
C2695 C 0.91944 0.63943 0.41278 0.0
C2696 C 0.9064 0.62225 0.41707 0.0
C2697 C 0.89211 0.61996 0.42873 0.0
C2698 C 0.89097 0.63478 0.43601 0.0
C2699 C 0.9046 0.65202 0.43159 0.0
H2700 H 0.40246 0.03069 0.7095 0.0
H2701 H 0.35303 0.98179 0.71354 0.0
H2702 H 0.3666 0.96999 0.73792 0.0
H2703 H 0.42873 0.01151 0.70791 0.0
H2704 H 0.44625 0.02863 0.72421 0.0
H2705 H 0.43243 0.03376 0.70835 0.0
H2706 H 0.42522 0.04593 0.74257 0.0
H2707 H 0.43913 0.04095 0.75853 0.0
H2708 H 0.41681 0.0321 0.7656 0.0
H2709 H 0.38613 0.96264 0.75953 0.0
H2710 H 0.40976 0.96099 0.77852 0.0
H2711 H 0.44628 0.01486 0.76086 0.0
C2712 C 0.3944 0.01758 0.71573 0.0
C2713 C 0.37665 0.00717 0.70957 0.0
C2714 C 0.36662 0.99006 0.71806 0.0
C2715 C 0.37423 0.98322 0.7319 0.0
C2716 C 0.39183 0.99371 0.73727 0.0
C2717 C 0.40175 0.01061 0.72965 0.0
C2718 C 0.42049 0.019 0.73742 0.0
C2719 C 0.43269 0.02348 0.71833 0.0
C2720 C 0.42572 0.03547 0.75189 0.0
C2721 C 0.41966 0.00406 0.75025 0.0
C2722 C 0.40301 0.98959 0.74999 0.0
C2723 C 0.39918 0.97394 0.76 0.0
C2724 C 0.4127 0.97309 0.77061 0.0
C2725 C 0.42984 0.9878 0.77119 0.0
C2726 C 0.43327 0.00349 0.76093 0.0
H2727 H -0.00964 0.36464 0.72674 0.0
H2728 H 0.93423 0.3389 0.72891 0.0
H2729 H 0.93687 0.366 0.74523 0.0
H2730 H -0.00081 0.38632 0.77663 0.0
H2731 H 0.01814 0.40657 0.76905 0.0
H2732 H 0.01219 0.38611 0.75482 0.0
H2733 H 0.01138 0.39992 0.7186 0.0
H2734 H 0.01764 0.42056 0.73267 0.0
H2735 H -0.00176 0.41004 0.71581 0.0
H2736 H 0.94527 0.39378 0.76553 0.0
H2737 H 0.95892 0.4222 0.78566 0.0
H2738 H 0.00986 0.43125 0.76942 0.0
C2739 C 0.97863 0.36491 0.73002 0.0
C2740 C 0.96207 0.34964 0.72648 0.0
C2741 C 0.94704 0.35041 0.73146 0.0
C2742 C 0.9484 0.36575 0.74075 0.0
C2743 C 0.96488 0.38029 0.74484 0.0
C2744 C 0.97974 0.38018 0.73936 0.0
C2745 C -0.00415 0.39735 0.74671 0.0
C2746 C 0.00699 0.39387 0.76275 0.0
C2747 C 0.0064 0.40757 0.72729 0.0
C2748 C 0.98765 0.40685 0.75767 0.0
C2749 C 0.96977 0.39673 0.7563 0.0
C2750 C 0.95926 0.40206 0.76623 0.0
C2751 C 0.96718 0.41833 0.77757 0.0
C2752 C 0.98551 0.42929 0.7788 0.0
C2753 C -0.00416 0.42331 0.76877 0.0
H2754 H 0.62578 0.62603 0.70786 0.0
H2755 H 0.59695 0.60563 0.64714 0.0
H2756 H 0.57018 0.58739 0.66692 0.0
H2757 H 0.60331 0.58566 0.73657 0.0
H2758 H 0.60353 0.59641 0.76171 0.0
H2759 H 0.62048 0.60801 0.7428 0.0
H2760 H 0.61376 0.63353 0.74266 0.0
H2761 H 0.59672 0.62197 0.7615 0.0
H2762 H 0.59202 0.62866 0.73621 0.0
H2763 H 0.54686 0.57065 0.6929 0.0
H2764 H 0.52814 0.5566 0.72388 0.0
H2765 H 0.57154 0.58852 0.76793 0.0
C2766 C 0.61384 0.6177 0.69873 0.0
C2767 C 0.61346 0.61721 0.67594 0.0
C2768 C 0.59756 0.60623 0.66459 0.0
C2769 C 0.58227 0.59583 0.67567 0.0
C2770 C 0.58308 0.59667 0.6981 0.0
C2771 C 0.5984 0.60734 0.70955 0.0
C2772 C 0.59564 0.60572 0.73363 0.0
C2773 C 0.60637 0.59852 0.7443 0.0
C2774 C 0.59978 0.62353 0.74411 0.0
C2775 C 0.5764 0.59234 0.7339 0.0
C2776 C 0.56944 0.58729 0.7132 0.0
C2777 C 0.5521 0.57458 0.70919 0.0
C2778 C 0.5416 0.56667 0.72682 0.0
C2779 C 0.54845 0.57161 0.74813 0.0
C2780 C 0.566 0.58474 0.75174 0.0
H2781 H 0.68394 0.72775 0.64183 0.0
H2782 H 0.63472 0.68122 0.65602 0.0
H2783 H 0.6193 0.69572 0.64162 0.0
H2784 H 0.67006 0.76175 0.65051 0.0
H2785 H 0.68286 0.77428 0.62827 0.0
H2786 H 0.6899 0.76211 0.64453 0.0
H2787 H 0.69139 0.74585 0.61007 0.0
H2788 H 0.68402 0.7576 0.59377 0.0
H2789 H 0.67229 0.73372 0.5929 0.0
H2790 H 0.6093 0.7127 0.61903 0.0
H2791 H 0.60573 0.7318 0.59305 0.0
H2792 H 0.66161 0.76637 0.59274 0.0
C2793 C 0.66994 0.72084 0.64275 0.0
C2794 C 0.66057 0.70332 0.65005 0.0
C2795 C 0.64223 0.6947 0.65067 0.0
C2796 C 0.63334 0.70282 0.64245 0.0
C2797 C 0.64298 0.71964 0.63398 0.0
C2798 C 0.66092 0.72869 0.6345 0.0
C2799 C 0.66828 0.7456 0.62209 0.0
C2800 C 0.67837 0.7619 0.63726 0.0
C2801 C 0.67965 0.74567 0.60362 0.0
C2802 C 0.65171 0.74421 0.61356 0.0
C2803 C 0.63723 0.72933 0.62084 0.0
C2804 C 0.62055 0.72459 0.61361 0.0
C2805 C 0.61866 0.73539 0.59866 0.0
C2806 C 0.63338 0.75065 0.59096 0.0
C2807 C 0.65006 0.75507 0.59871 0.0
H2808 H 0.28957 0.96306 0.60218 0.0
H2809 H 0.29788 0.95023 0.66674 0.0
H2810 H 0.27694 0.91837 0.65829 0.0
H2811 H 0.24484 0.93303 0.59717 0.0
H2812 H 0.24537 0.92776 0.56911 0.0
H2813 H 0.26134 0.94909 0.5803 0.0
H2814 H 0.28598 0.944 0.56735 0.0
H2815 H 0.27007 0.92267 0.556 0.0
H2816 H 0.28621 0.92439 0.5752 0.0
H2817 H 0.25309 0.88789 0.6426 0.0
H2818 H 0.23032 0.86225 0.62126 0.0
H2819 H 0.2401 0.8961 0.5667 0.0
C2820 C 0.28705 0.9536 0.61462 0.0
C2821 C 0.29518 0.95911 0.63521 0.0
C2822 C 0.29174 0.94625 0.65087 0.0
C2823 C 0.27987 0.92818 0.6462 0.0
C2824 C 0.27188 0.92327 0.62571 0.0
C2825 C 0.27556 0.93569 0.61015 0.0
C2826 C 0.26544 0.92735 0.58938 0.0
C2827 C 0.25354 0.93475 0.58367 0.0
C2828 C 0.27765 0.92974 0.5709 0.0
C2829 C 0.25509 0.90825 0.59568 0.0
C2830 C 0.25888 0.90604 0.61666 0.0
C2831 C 0.25023 0.88951 0.62608 0.0
C2832 C 0.23736 0.87498 0.61378 0.0
C2833 C 0.23329 0.87708 0.59224 0.0
C2834 C 0.24257 0.89397 0.58317 0.0
H2835 H 0.01777 0.29896 0.64787 0.0
H2836 H 0.02388 0.35011 0.66519 0.0
H2837 H 0.05014 0.36481 0.64325 0.0
H2838 H 0.06257 0.31275 0.65067 0.0
H2839 H 0.06139 0.29879 0.62823 0.0
H2840 H 0.04266 0.29235 0.64437 0.0
H2841 H 0.02458 0.29002 0.61015 0.0
H2842 H 0.04327 0.29645 0.59389 0.0
H2843 H 0.03215 0.30881 0.59304 0.0
H2844 H 0.0761 0.37386 0.6198 0.0
H2845 H 0.09979 0.37658 0.5972 0.0
H2846 H 0.07701 0.31944 0.59677 0.0
C2847 C 0.02451 0.31325 0.64693 0.0
C2848 C 0.01873 0.32339 0.65818 0.0
C2849 C 0.02806 0.34207 0.65668 0.0
C2850 C 0.04297 0.35053 0.64424 0.0
C2851 C 0.04838 0.34012 0.63349 0.0
C2852 C 0.03943 0.32188 0.63475 0.0
C2853 C 0.04821 0.31374 0.62228 0.0
C2854 C 0.05406 0.30383 0.63729 0.0
C2855 C 0.03634 0.30153 0.60374 0.0
C2856 C 0.06357 0.33024 0.61386 0.0
C2857 C 0.06341 0.34532 0.62038 0.0
C2858 C 0.07636 0.36213 0.61464 0.0
C2859 C 0.08984 0.36354 0.60193 0.0
C2860 C 0.09033 0.34824 0.5952 0.0
C2861 C 0.07694 0.3314 0.60132 0.0
H2862 H 0.2809 0.33157 0.63456 0.0
H2863 H 0.28131 0.35906 0.69372 0.0
H2864 H 0.26317 0.36905 0.67587 0.0
H2865 H 0.28197 0.3648 0.59764 0.0
H2866 H 0.26769 0.34826 0.5779 0.0
H2867 H 0.2818 0.34419 0.59479 0.0
H2868 H 0.25526 0.31523 0.60739 0.0
H2869 H 0.24107 0.31927 0.59068 0.0
H2870 H 0.23735 0.31608 0.61913 0.0
H2871 H 0.24287 0.37372 0.65321 0.0
H2872 H 0.22275 0.3742 0.62634 0.0
H2873 H 0.23655 0.34544 0.58058 0.0
C2874 C 0.27739 0.33992 0.64364 0.0
C2875 C 0.28255 0.34449 0.66558 0.0
C2876 C 0.27755 0.35534 0.67693 0.0
C2877 C 0.26724 0.36111 0.66693 0.0
C2878 C 0.26211 0.35611 0.64548 0.0
C2879 C 0.26713 0.34592 0.63384 0.0
C2880 C 0.25929 0.34201 0.61114 0.0
C2881 C 0.27354 0.35031 0.59438 0.0
C2882 C 0.24755 0.32196 0.60684 0.0
C2883 C 0.24879 0.35124 0.6121 0.0
C2884 C 0.25067 0.3593 0.63206 0.0
C2885 C 0.24157 0.36781 0.63733 0.0
C2886 C 0.23023 0.36812 0.6218 0.0
C2887 C 0.22812 0.36013 0.60102 0.0
C2888 C 0.2377 0.35167 0.59621 0.0
H2889 H 0.68853 0.96286 0.61612 0.0
H2890 H 0.64184 0.95468 0.64689 0.0
H2891 H 0.62619 0.92368 0.63303 0.0
H2892 H 0.66914 0.93988 0.56895 0.0
H2893 H 0.68263 0.93022 0.56545 0.0
H2894 H 0.69091 0.95088 0.5803 0.0
H2895 H 0.69783 0.9377 0.61342 0.0
H2896 H 0.68989 0.91706 0.59852 0.0
H2897 H 0.68098 0.91738 0.62427 0.0
H2898 H 0.61469 0.89511 0.6113 0.0
H2899 H 0.60893 0.87023 0.5866 0.0
H2900 H 0.66357 0.89684 0.57142 0.0
C2901 C 0.67513 0.95444 0.62044 0.0
C2902 C 0.66641 0.96122 0.63258 0.0
C2903 C 0.64884 0.94977 0.63777 0.0
C2904 C 0.63983 0.93215 0.62988 0.0
C2905 C 0.64864 0.92615 0.61715 0.0
C2906 C 0.66601 0.93685 0.61285 0.0
C2907 C 0.67228 0.92758 0.59784 0.0
C2908 C 0.67914 0.93775 0.5769 0.0
C2909 C 0.68606 0.92476 0.60919 0.0
C2910 C 0.65558 0.91021 0.5937 0.0
C2911 C 0.64211 0.90958 0.60504 0.0
C2912 C 0.62523 0.89528 0.60274 0.0
C2913 C 0.6221 0.88119 0.58867 0.0
C2914 C 0.63579 0.88143 0.57709 0.0
C2915 C 0.65274 0.8962 0.57981 0.0
H2916 H 0.02611 0.72782 0.64226 0.0
H2917 H 0.02288 0.67724 0.65187 0.0
H2918 H 0.04804 0.68628 0.62867 0.0
H2919 H 0.03852 0.73206 0.58621 0.0
H2920 H 0.05299 0.75567 0.58893 0.0
H2921 H 0.03432 0.7449 0.60565 0.0
H2922 H 0.05425 0.75802 0.63979 0.0
H2923 H 0.07297 0.76877 0.62319 0.0
H2924 H 0.072 0.75405 0.64376 0.0
H2925 H 0.07455 0.70152 0.60592 0.0
H2926 H 0.0996 0.72137 0.58394 0.0
H2927 H 0.08511 0.76165 0.58907 0.0
C2928 C 0.03058 0.71857 0.63935 0.0
C2929 C 0.02252 0.70183 0.6489 0.0
C2930 C 0.02882 0.69013 0.64471 0.0
C2931 C 0.04312 0.69515 0.63157 0.0
C2932 C 0.05089 0.71184 0.62264 0.0
C2933 C 0.04477 0.72332 0.62623 0.0
C2934 C 0.05561 0.74062 0.61503 0.0
C2935 C 0.04471 0.74347 0.59794 0.0
C2936 C 0.06422 0.75628 0.63142 0.0
C2937 C 0.06888 0.73714 0.60474 0.0
C2938 C 0.06597 0.72049 0.60933 0.0
C2939 C 0.07689 0.71454 0.60209 0.0
C2940 C 0.09111 0.72591 0.58974 0.0
C2941 C 0.09419 0.74296 0.58472 0.0
C2942 C 0.08289 0.74857 0.59236 0.0
H2943 H 0.95896 0.6065 0.74068 0.0
H2944 H 0.00608 0.64139 0.70713 0.0
H2945 H 0.01929 0.62433 0.72013 0.0
H2946 H 0.97877 0.60256 0.7869 0.0
H2947 H 0.96331 0.57951 0.79087 0.0
H2948 H 0.95669 0.59308 0.777 0.0
H2949 H 0.94609 0.57127 0.74399 0.0
H2950 H 0.95245 0.55747 0.75788 0.0
H2951 H 0.96076 0.5655 0.73164 0.0
H2952 H 0.02857 0.60584 0.74024 0.0
H2953 H 0.03253 0.58577 0.76383 0.0
H2954 H 0.97892 0.56208 0.78295 0.0
C2955 C 0.97193 0.61037 0.73568 0.0
C2956 C 0.98148 0.62533 0.7229 0.0
C2957 C -0.00154 0.62996 0.71685 0.0
C2958 C 0.0061 0.62037 0.72418 0.0
C2959 C -0.00348 0.60606 0.73731 0.0
C2960 C 0.97971 0.6009 0.74274 0.0
C2961 C 0.9725 0.58553 0.75785 0.0
C2962 C 0.96754 0.59048 0.77943 0.0
C2963 C 0.95704 0.56896 0.7472 0.0
C2964 C 0.98808 0.58322 0.76061 0.0
C2965 C 0.00176 0.59513 0.74855 0.0
C2966 C 0.01783 0.59619 0.7494 0.0
C2967 C 0.01992 0.58467 0.76282 0.0
C2968 C 0.006 0.57218 0.77517 0.0
C2969 C 0.98987 0.5715 0.77389 0.0
H2970 H 0.37631 0.36346 0.73271 0.0
H2971 H 0.33866 0.37555 0.7053 0.0
H2972 H 0.35665 0.40658 0.71867 0.0
H2973 H 0.38539 0.38894 0.7804 0.0
H2974 H 0.4082 0.3962 0.78151 0.0
H2975 H 0.39309 0.37538 0.76835 0.0
H2976 H 0.4105 0.38539 0.73328 0.0
H2977 H 0.42578 0.40621 0.7464 0.0
H2978 H 0.41495 0.40591 0.72154 0.0
H2979 H 0.37775 0.43575 0.73779 0.0
H2980 H 0.40117 0.46109 0.75884 0.0
H2981 H 0.4248 0.42957 0.77324 0.0
C2982 C 0.37191 0.37264 0.72922 0.0
C2983 C 0.35604 0.36702 0.71794 0.0
C2984 C 0.3508 0.37953 0.71379 0.0
C2985 C 0.36091 0.39718 0.72139 0.0
C2986 C 0.37628 0.40213 0.73291 0.0
C2987 C 0.38184 0.39025 0.73657 0.0
C2988 C 0.39858 0.39869 0.74987 0.0
C2989 C 0.39615 0.38924 0.7713 0.0
C2990 C 0.41333 0.39908 0.737 0.0
C2991 C 0.40144 0.41712 0.75348 0.0
C2992 C 0.38847 0.41888 0.74359 0.0
C2993 C 0.38805 0.43456 0.74542 0.0
C2994 C 0.40132 0.44882 0.75753 0.0
C2995 C 0.41483 0.44731 0.76757 0.0
C2996 C 0.4148 0.43121 0.76546 0.0
H2997 H 0.60888 0.97065 0.69794 0.0
H2998 H 0.65239 0.0218 0.71874 0.0
H2999 H 0.63448 0.02447 0.74654 0.0
H3000 H 0.57622 0.98105 0.70384 0.0
H3001 H 0.56027 0.96009 0.71436 0.0
H3002 H 0.57674 0.96123 0.69699 0.0
H3003 H 0.58639 0.94688 0.72604 0.0
H3004 H 0.56977 0.94545 0.7434 0.0
H3005 H 0.59206 0.95662 0.75289 0.0
H3006 H 0.61117 0.02369 0.76833 0.0
H3007 H 0.58482 0.01772 0.7868 0.0
H3008 H 0.55675 0.9656 0.75512 0.0
C3009 C 0.61472 0.98225 0.70861 0.0
C3010 C 0.63203 -0.00396 0.70607 0.0
C3011 C 0.63919 0.01103 0.72035 0.0
C3012 C 0.62911 0.01272 0.73618 0.0
C3013 C 0.61197 -0.00084 0.73783 0.0
C3014 C 0.6049 0.98403 0.7248 0.0
C3015 C 0.58602 0.97159 0.72989 0.0
C3016 C 0.57412 0.96831 0.71009 0.0
C3017 C 0.58341 0.9541 0.73858 0.0
C3018 C 0.58352 0.98239 0.74733 0.0
C3019 C 0.59866 -0.00173 0.75151 0.0
C3020 C 0.59936 0.01106 0.76574 0.0
C3021 C 0.58425 0.00743 0.77632 0.0
C3022 C 0.56862 0.99093 0.77305 0.0
C3023 C 0.56836 0.97832 0.75818 0.0
loop_
_geom_bond_atom_site_label_1
_geom_bond_atom_site_label_2
_geom_bond_distance
_geom_bond_site_symmetry_2
_ccdc_geom_bond_type
Mg0 O1 2.028 1_556 S
Mg0 O7 1.986 1_455 S
Mg0 O9 2.114 . S
Mg0 O10 2.217 1_455 S
Mg0 O13 2.010 1_556 S
O1 Mg0 2.028 1_554 S
O1 C4 1.250 1_455 S
O2 Mg3 2.028 1_554 S
O2 C4 1.248 . S
Mg3 O2 2.028 1_556 S
Mg3 O8 2.032 . S
Mg3 O10 2.124 . S
C4 O1 1.250 1_655 S
C4 O2 1.248 . S
C5 O6 1.264 . S
C5 O13 1.249 . S
O6 C5 1.264 . S
O7 Mg0 1.986 1_655 S
O7 C11 1.246 . S
O8 Mg3 2.032 . S
O8 C11 1.259 . S
O9 Mg0 2.114 . S
O9 C12 1.252 . S
O10 Mg0 2.217 1_655 S
O10 Mg3 2.124 . S
O10 C12 1.240 1_655 S
C11 O7 1.246 . S
C11 O8 1.259 . S
C12 O9 1.252 . S
C12 O10 1.240 1_455 S
O13 Mg0 2.010 1_554 S
O13 C5 1.249 . S
Mg14 O15 2.028 1_554 S
Mg14 O21 1.986 . S
Mg14 O23 2.114 . S
Mg14 O24 2.251 . S
Mg14 O27 2.010 . S
O15 Mg14 2.028 1_556 S
O15 C18 1.250 . S
O16 Mg17 2.028 . S
O16 C18 1.248 1_554 S
Mg17 O16 2.028 . S
Mg17 O22 2.032 . S
Mg17 O24 2.079 . S
C18 O15 1.250 . S
C18 O16 1.248 1_556 S
C19 O20 1.264 1_556 S
C19 O27 1.249 1_556 S
O20 C19 1.264 1_554 S
O21 Mg14 1.986 . S
O21 C25 1.246 . S
O22 Mg17 2.032 . S
O22 C25 1.259 . S
O23 Mg14 2.114 . S
O23 C26 1.252 . S
O24 Mg14 2.251 . S
O24 Mg17 2.079 . S
O24 C26 1.273 . S
C25 O21 1.246 . S
C25 O22 1.259 . S
C26 O23 1.252 . S
C26 O24 1.273 . S
O27 Mg14 2.010 . S
O27 C19 1.249 1_554 S
Mg28 O29 1.994 1_566 S
Mg28 O35 1.986 1_565 S
Mg28 O37 2.127 . S
Mg28 O38 2.274 1_565 S
Mg28 O41 1.996 1_556 S
O29 Mg28 1.994 1_544 S
O29 C32 1.250 . S
O30 Mg31 2.028 1_554 S
O30 C32 1.248 . S
Mg31 O30 2.028 1_556 S
Mg31 O36 2.032 . S
Mg31 O38 2.079 . S
C32 O29 1.250 . S
C32 O30 1.248 . S
C33 O34 1.264 . S
C33 O41 1.249 . S
O34 C33 1.264 . S
O35 Mg28 1.986 1_545 S
O35 C39 1.250 . S
O36 Mg31 2.032 . S
O36 C39 1.259 . S
O37 Mg28 2.127 . S
O37 C40 1.252 . S
O38 Mg28 2.274 1_545 S
O38 Mg31 2.079 . S
O38 C40 1.273 1_545 S
C39 O35 1.250 . S
C39 O36 1.259 . S
C40 O37 1.252 . S
C40 O38 1.273 1_565 S
O41 Mg28 1.996 1_554 S
O41 C33 1.249 . S
Mg42 O43 2.007 1_654 S
Mg42 O49 1.986 1_655 S
Mg42 O51 2.114 . S
Mg42 O52 2.251 1_655 S
Mg42 O55 2.010 . S
O43 Mg42 2.007 1_456 S
O43 C46 1.300 . S
O44 Mg45 2.020 1_556 S
O44 C46 1.253 . S
Mg45 O44 2.020 1_554 S
Mg45 O50 2.032 . S
Mg45 O52 2.079 . S
C46 O43 1.300 . S
C46 O44 1.253 . S
C47 O48 1.264 . S
C47 O55 1.249 . S
O48 C47 1.264 . S
O49 Mg42 1.986 1_455 S
O49 C53 1.246 . S
O50 Mg45 2.032 . S
O50 C53 1.259 . S
O51 Mg42 2.114 . S
O51 C54 1.252 . S
O52 Mg42 2.251 1_455 S
O52 Mg45 2.079 . S
O52 C54 1.273 1_455 S
C53 O49 1.246 . S
C53 O50 1.259 . S
C54 O51 1.252 . S
C54 O52 1.273 1_655 S
O55 Mg42 2.010 . S
O55 C47 1.249 . S
Mg56 O57 2.048 . S
Mg56 O63 1.985 1_554 S
Mg56 O65 2.107 1_554 S
Mg56 O66 2.238 1_554 S
Mg56 O69 2.020 . S
O57 Mg56 2.048 . S
O57 C60 1.250 . S
O58 Mg59 2.028 1_554 S
O58 C60 1.248 . S
Mg59 O58 2.028 1_556 S
Mg59 O64 2.032 . S
Mg59 O66 2.079 . S
C60 O57 1.250 . S
C60 O58 1.248 . S
C61 O62 1.264 . S
C61 O69 1.249 . S
O62 C61 1.264 . S
O63 Mg56 1.985 1_556 S
O63 C67 1.246 . S
O64 Mg59 2.032 . S
O64 C67 1.259 . S
O65 Mg56 2.107 1_556 S
O65 C68 1.252 . S
O66 Mg56 2.238 1_556 S
O66 Mg59 2.079 . S
O66 C68 1.273 . S
C67 O63 1.246 . S
C67 O64 1.259 . S
C68 O65 1.252 . S
C68 O66 1.273 . S
O69 Mg56 2.020 . S
O69 C61 1.249 . S
Mg70 O71 2.028 1_554 S
Mg70 O77 1.986 1_545 S
Mg70 O79 2.114 . S
Mg70 O80 2.251 1_545 S
Mg70 O83 2.010 . S
O71 Mg70 2.028 1_556 S
O71 C74 1.250 1_545 S
O72 Mg73 2.073 . S
O72 C74 1.219 1_554 S
Mg73 O72 2.073 . S
Mg73 O78 2.032 . S
Mg73 O80 2.079 . S
C74 O71 1.250 1_565 S
C74 O72 1.219 1_556 S
C75 O76 1.264 . S
C75 O83 1.249 . S
O76 C75 1.264 . S
O77 Mg70 1.986 1_565 S
O77 C81 1.246 . S
O78 Mg73 2.032 . S
O78 C81 1.259 . S
O79 Mg70 2.114 . S
O79 C82 1.252 . S
O80 Mg70 2.251 1_565 S
O80 Mg73 2.079 . S
O80 C82 1.273 1_565 S
C81 O77 1.246 . S
C81 O78 1.259 . S
C82 O79 1.252 . S
C82 O80 1.273 1_545 S
O83 Mg70 2.010 . S
O83 C75 1.249 . S
Mg84 O85 2.028 . S
Mg84 O91 1.986 . S
Mg84 O93 2.114 . S
Mg84 O94 2.251 . S
Mg84 O97 2.010 . S
O85 Mg84 2.028 . S
O85 C88 1.250 . S
O86 Mg87 2.028 . S
O86 C88 1.248 . S
Mg87 O86 2.028 . S
Mg87 O92 2.032 . S
Mg87 O94 2.079 . S
C88 O85 1.250 . S
C88 O86 1.248 . S
C89 O90 1.264 . S
C89 O97 1.249 . S
O90 C89 1.264 . S
O91 Mg84 1.986 . S
O91 C95 1.246 . S
O92 Mg87 2.032 . S
O92 C95 1.259 . S
O93 Mg84 2.114 . S
O93 C96 1.252 . S
O94 Mg84 2.251 . S
O94 Mg87 2.079 . S
O94 C96 1.273 . S
C95 O91 1.246 . S
C95 O92 1.259 . S
C96 O93 1.252 . S
C96 O94 1.273 . S
O97 Mg84 2.010 . S
O97 C89 1.249 . S
Mg98 O99 2.028 . S
Mg98 O105 1.986 1_565 S
Mg98 O107 2.114 . S
Mg98 O108 2.251 . S
Mg98 O111 2.010 . S
O99 Mg98 2.028 . S
O99 C102 1.250 . S
O100 Mg101 2.028 . S
O100 C102 1.248 . S
Mg101 O100 2.028 . S
Mg101 O106 2.032 1_565 S
Mg101 O108 2.079 . S
C102 O99 1.250 . S
C102 O100 1.248 . S
C103 O104 1.264 . S
C103 O111 1.249 . S
O104 C103 1.264 . S
O105 Mg98 1.986 1_545 S
O105 C109 1.246 . S
O106 Mg101 2.032 1_545 S
O106 C109 1.259 . S
O107 Mg98 2.114 . S
O107 C110 1.252 . S
O108 Mg98 2.251 . S
O108 Mg101 2.079 . S
O108 C110 1.273 . S
C109 O105 1.246 . S
C109 O106 1.259 . S
C110 O107 1.252 . S
C110 O108 1.273 . S
O111 Mg98 2.010 . S
O111 C103 1.249 . S
Mg112 O113 2.028 . S
Mg112 O119 1.986 . S
Mg112 O121 2.114 . S
Mg112 O122 2.251 . S
Mg112 O125 2.010 1_455 S
O113 Mg112 2.028 . S
O113 C116 1.250 . S
O114 Mg115 2.028 . S
O114 C116 1.248 . S
Mg115 O114 2.028 . S
Mg115 O120 2.032 . S
Mg115 O122 2.079 . S
C116 O113 1.250 . S
C116 O114 1.248 . S
C117 O118 1.264 . S
C117 O125 1.249 . S
O118 C117 1.264 . S
O119 Mg112 1.986 . S
O119 C123 1.246 . S
O120 Mg115 2.032 . S
O120 C123 1.259 . S
O121 Mg112 2.114 . S
O121 C124 1.252 . S
O122 Mg112 2.251 . S
O122 Mg115 2.079 . S
O122 C124 1.273 . S
C123 O119 1.246 . S
C123 O120 1.259 . S
C124 O121 1.252 . S
C124 O122 1.273 . S
O125 Mg112 2.010 1_655 S
O125 C117 1.249 . S
Mg126 O127 2.028 . S
Mg126 O133 1.986 1_565 S
Mg126 O135 2.114 . S
Mg126 O136 2.251 . S
Mg126 O139 2.010 . S
O127 Mg126 2.028 . S
O127 C130 1.250 . S
O128 Mg129 2.028 . S
O128 C130 1.248 . S
Mg129 O128 2.028 . S
Mg129 O134 2.032 1_565 S
Mg129 O136 2.079 . S
C130 O127 1.250 . S
C130 O128 1.248 . S
C131 O132 1.264 . S
C131 O139 1.249 . S
O132 C131 1.264 . S
O133 Mg126 1.986 1_545 S
O133 C137 1.246 . S
O134 Mg129 2.032 1_545 S
O134 C137 1.259 . S
O135 Mg126 2.114 . S
O135 C138 1.252 . S
O136 Mg126 2.251 . S
O136 Mg129 2.079 . S
O136 C138 1.273 . S
C137 O133 1.246 . S
C137 O134 1.259 . S
C138 O135 1.252 . S
C138 O136 1.273 . S
O139 Mg126 2.010 . S
O139 C131 1.249 . S
Mg140 O141 2.028 . S
Mg140 O147 1.986 . S
Mg140 O149 2.114 . S
Mg140 O150 2.251 . S
Mg140 O153 2.010 1_455 S
O141 Mg140 2.028 . S
O141 C144 1.250 . S
O142 Mg143 2.028 . S
O142 C144 1.248 . S
Mg143 O142 2.028 . S
Mg143 O148 2.032 . S
Mg143 O150 2.079 . S
C144 O141 1.250 . S
C144 O142 1.248 . S
C145 O146 1.264 . S
C145 O153 1.249 . S
O146 C145 1.264 . S
O147 Mg140 1.986 . S
O147 C151 1.246 . S
O148 Mg143 2.032 . S
O148 C151 1.259 . S
O149 Mg140 2.114 . S
O149 C152 1.252 . S
O150 Mg140 2.251 . S
O150 Mg143 2.079 . S
O150 C152 1.273 . S
C151 O147 1.246 . S
C151 O148 1.259 . S
C152 O149 1.252 . S
C152 O150 1.273 . S
O153 Mg140 2.010 1_655 S
O153 C145 1.249 . S
Mg154 O155 2.028 . S
Mg154 O161 1.986 . S
Mg154 O163 2.114 . S
Mg154 O164 2.251 . S
Mg154 O167 2.010 . S
O155 Mg154 2.028 . S
O155 C158 1.250 . S
O156 Mg157 2.028 . S
O156 C158 1.248 . S
Mg157 O156 2.028 . S
Mg157 O162 2.032 . S
Mg157 O164 2.079 . S
C158 O155 1.250 . S
C158 O156 1.248 . S
C159 O160 1.264 . S
C159 O167 1.249 . S
O160 C159 1.264 . S
O161 Mg154 1.986 . S
O161 C165 1.246 . S
O162 Mg157 2.032 . S
O162 C165 1.259 . S
O163 Mg154 2.114 . S
O163 C166 1.252 . S
O164 Mg154 2.251 . S
O164 Mg157 2.079 . S
O164 C166 1.273 . S
C165 O161 1.246 . S
C165 O162 1.259 . S
C166 O163 1.252 . S
C166 O164 1.273 . S
O167 Mg154 2.010 . S
O167 C159 1.249 . S
Mg168 O169 2.028 . S
Mg168 O175 1.986 1_545 S
Mg168 O177 2.114 . S
Mg168 O178 2.251 . S
Mg168 O181 2.010 . S
O169 Mg168 2.028 . S
O169 C172 1.250 . S
O170 Mg171 2.028 . S
O170 C172 1.248 . S
Mg171 O170 2.028 . S
Mg171 O176 2.032 1_545 S
Mg171 O178 2.079 . S
C172 O169 1.250 . S
C172 O170 1.248 . S
C173 O174 1.264 . S
C173 O181 1.249 . S
O174 C173 1.264 . S
O175 Mg168 1.986 1_565 S
O175 C179 1.246 . S
O176 Mg171 2.032 1_565 S
O176 C179 1.259 . S
O177 Mg168 2.114 . S
O177 C180 1.252 . S
O178 Mg168 2.251 . S
O178 Mg171 2.079 . S
O178 C180 1.273 . S
C179 O175 1.246 . S
C179 O176 1.259 . S
C180 O177 1.252 . S
C180 O178 1.273 . S
O181 Mg168 2.010 . S
O181 C173 1.249 . S
Mg182 O183 2.028 . S
Mg182 O189 1.986 . S
Mg182 O191 2.114 . S
Mg182 O192 2.251 . S
Mg182 O195 2.010 1_655 S
O183 Mg182 2.028 . S
O183 C186 1.250 . S
O184 Mg185 2.028 . S
O184 C186 1.248 . S
Mg185 O184 2.028 . S
Mg185 O190 2.032 . S
Mg185 O192 2.079 . S
C186 O183 1.250 . S
C186 O184 1.248 . S
C187 O188 1.264 . S
C187 O195 1.249 . S
O188 C187 1.264 . S
O189 Mg182 1.986 . S
O189 C193 1.246 . S
O190 Mg185 2.032 . S
O190 C193 1.259 . S
O191 Mg182 2.114 . S
O191 C194 1.252 . S
O192 Mg182 2.251 . S
O192 Mg185 2.079 . S
O192 C194 1.273 . S
C193 O189 1.246 . S
C193 O190 1.259 . S
C194 O191 1.252 . S
C194 O192 1.273 . S
O195 Mg182 2.010 1_455 S
O195 C187 1.249 . S
Mg196 O197 2.028 . S
Mg196 O203 1.986 . S
Mg196 O205 2.114 . S
Mg196 O206 2.251 . S
Mg196 O209 2.010 . S
O197 Mg196 2.028 . S
O197 C200 1.250 . S
O198 Mg199 2.028 . S
O198 C200 1.248 . S
Mg199 O198 2.028 . S
Mg199 O204 2.032 . S
Mg199 O206 2.079 . S
C200 O197 1.250 . S
C200 O198 1.248 . S
C201 O202 1.264 . S
C201 O209 1.249 . S
O202 C201 1.264 . S
O203 Mg196 1.986 . S
O203 C207 1.246 . S
O204 Mg199 2.032 . S
O204 C207 1.259 . S
O205 Mg196 2.114 . S
O205 C208 1.252 . S
O206 Mg196 2.251 . S
O206 Mg199 2.079 . S
O206 C208 1.273 . S
C207 O203 1.246 . S
C207 O204 1.259 . S
C208 O205 1.252 . S
C208 O206 1.273 . S
O209 Mg196 2.010 . S
O209 C201 1.249 . S
Mg210 O211 2.028 . S
Mg210 O217 1.986 . S
Mg210 O219 2.114 . S
Mg210 O220 2.251 . S
Mg210 O223 2.010 . S
O211 Mg210 2.028 . S
O211 C214 1.250 . S
O212 Mg213 2.028 . S
O212 C214 1.248 . S
Mg213 O212 2.028 . S
Mg213 O218 2.032 . S
Mg213 O220 2.079 . S
C214 O211 1.250 . S
C214 O212 1.248 . S
C215 O216 1.264 . S
C215 O223 1.249 . S
O216 C215 1.264 . S
O217 Mg210 1.986 . S
O217 C221 1.246 . S
O218 Mg213 2.032 . S
O218 C221 1.259 . S
O219 Mg210 2.114 . S
O219 C222 1.252 . S
O220 Mg210 2.251 . S
O220 Mg213 2.079 . S
O220 C222 1.273 . S
C221 O217 1.246 . S
C221 O218 1.259 . S
C222 O219 1.252 . S
C222 O220 1.273 . S
O223 Mg210 2.010 . S
O223 C215 1.249 . S
Mg224 O225 2.028 . S
Mg224 O231 1.986 1_545 S
Mg224 O233 2.114 . S
Mg224 O234 2.251 . S
Mg224 O237 2.010 . S
O225 Mg224 2.028 . S
O225 C228 1.250 . S
O226 Mg227 2.028 . S
O226 C228 1.248 . S
Mg227 O226 2.028 . S
Mg227 O232 2.032 1_545 S
Mg227 O234 2.079 . S
C228 O225 1.250 . S
C228 O226 1.248 . S
C229 O230 1.264 . S
C229 O237 1.249 . S
O230 C229 1.264 . S
O231 Mg224 1.986 1_565 S
O231 C235 1.246 . S
O232 Mg227 2.032 1_565 S
O232 C235 1.259 . S
O233 Mg224 2.114 . S
O233 C236 1.252 . S
O234 Mg224 2.251 . S
O234 Mg227 2.079 . S
O234 C236 1.273 . S
C235 O231 1.246 . S
C235 O232 1.259 . S
C236 O233 1.252 . S
C236 O234 1.273 . S
O237 Mg224 2.010 . S
O237 C229 1.249 . S
Mg238 O239 2.028 . S
Mg238 O245 1.986 . S
Mg238 O247 2.114 . S
Mg238 O248 2.251 . S
Mg238 O251 2.010 1_655 S
O239 Mg238 2.028 . S
O239 C242 1.250 . S
O240 Mg241 2.028 . S
O240 C242 1.248 . S
Mg241 O240 2.028 . S
Mg241 O246 2.032 . S
Mg241 O248 2.079 . S
C242 O239 1.250 . S
C242 O240 1.248 . S
C243 O244 1.264 . S
C243 O251 1.249 . S
O244 C243 1.264 . S
O245 Mg238 1.986 . S
O245 C249 1.246 . S
O246 Mg241 2.032 . S
O246 C249 1.259 . S
O247 Mg238 2.114 . S
O247 C250 1.252 . S
O248 Mg238 2.251 . S
O248 Mg241 2.079 . S
O248 C250 1.273 . S
C249 O245 1.246 . S
C249 O246 1.259 . S
C250 O247 1.252 . S
C250 O248 1.273 . S
O251 Mg238 2.010 1_455 S
O251 C243 1.249 . S
C252 C253 1.384 . S
C252 C254 1.384 . S
C252 H280 0.931 . S
C253 C252 1.384 . S
C253 C256 1.382 . S
C254 C252 1.384 . S
C254 C255 1.381 . S
C254 H281 0.930 . S
C255 C254 1.381 . S
C255 C257 1.381 . S
C255 C258 1.487 . S
C256 C253 1.382 . S
C256 C257 1.387 . S
C256 H282 0.930 . S
C257 C255 1.381 . S
C257 C256 1.387 . S
C257 H283 0.931 . S
C258 C255 1.487 . S
C258 C265 1.399 . S
C258 N296 1.343 . S
C259 C260 1.384 . S
C259 C261 1.384 . S
C259 H284 0.931 . S
C260 C259 1.384 . S
C260 C263 1.382 . S
C261 C259 1.384 . S
C261 C262 1.381 . S
C261 H285 0.930 . S
C262 C261 1.381 . S
C262 C264 1.381 . S
C262 C265 1.487 . S
C263 C260 1.382 . S
C263 C264 1.387 . S
C263 H286 0.930 . S
C264 C262 1.381 . S
C264 C263 1.387 . S
C264 H287 0.931 . S
C265 C258 1.399 . S
C265 C262 1.487 . S
C265 N297 1.343 . S
C266 C267 1.384 . S
C266 C268 1.384 . S
C266 H288 0.931 . S
C267 C266 1.384 . S
C267 C270 1.382 . S
C268 C266 1.384 . S
C268 C269 1.381 . S
C268 H289 0.930 . S
C269 C268 1.381 . S
C269 C271 1.381 . S
C269 C272 1.487 . S
C270 C267 1.382 . S
C270 C271 1.387 . S
C270 H290 0.930 . S
C271 C269 1.381 . S
C271 C270 1.387 . S
C271 H291 0.931 . S
C272 C269 1.487 . S
C272 C279 1.399 . S
C272 N297 1.343 . S
C273 C274 1.384 . S
C273 C275 1.384 . S
C273 H292 0.931 . S
C274 C273 1.384 . S
C274 C277 1.382 . S
C275 C273 1.384 . S
C275 C276 1.381 . S
C275 H293 0.930 . S
C276 C275 1.381 . S
C276 C278 1.381 . S
C276 C279 1.487 . S
C277 C274 1.382 . S
C277 C278 1.387 . S
C277 H294 0.930 . S
C278 C276 1.381 . S
C278 C277 1.387 . S
C278 H295 0.931 . S
C279 C272 1.399 . S
C279 C276 1.487 . S
C279 N296 1.343 . S
H280 C252 0.931 . S
H281 C254 0.930 . S
H282 C256 0.930 . S
H283 C257 0.931 . S
H284 C259 0.931 . S
H285 C261 0.930 . S
H286 C263 0.930 . S
H287 C264 0.931 . S
H288 C266 0.931 . S
H289 C268 0.930 . S
H290 C270 0.930 . S
H291 C271 0.931 . S
H292 C273 0.931 . S
H293 C275 0.930 . S
H294 C277 0.930 . S
H295 C278 0.931 . S
N296 C258 1.343 . S
N296 C279 1.343 . S
N297 C265 1.343 . S
N297 C272 1.343 . S
C298 C299 1.384 . S
C298 C300 1.384 . S
C298 H326 0.931 . S
C299 C298 1.384 . S
C299 C302 1.382 . S
C300 C298 1.384 . S
C300 C301 1.381 . S
C300 H327 0.930 . S
C301 C300 1.381 . S
C301 C303 1.381 . S
C301 C304 1.487 . S
C302 C299 1.382 . S
C302 C303 1.387 . S
C302 H328 0.930 . S
C303 C301 1.381 . S
C303 C302 1.387 . S
C303 H329 0.931 . S
C304 C301 1.487 . S
C304 C311 1.399 . S
C304 N342 1.343 . S
C305 C306 1.384 . S
C305 C307 1.384 . S
C305 H330 0.931 . S
C306 C305 1.384 . S
C306 C309 1.382 . S
C307 C305 1.384 . S
C307 C308 1.381 . S
C307 H331 0.930 . S
C308 C307 1.381 . S
C308 C310 1.381 . S
C308 C311 1.487 . S
C309 C306 1.382 . S
C309 C310 1.387 . S
C309 H332 0.930 . S
C310 C308 1.381 . S
C310 C309 1.387 . S
C310 H333 0.931 . S
C311 C304 1.399 . S
C311 C308 1.487 . S
C311 N343 1.343 . S
C312 C313 1.384 . S
C312 C314 1.384 . S
C312 H334 0.931 . S
C313 C312 1.384 . S
C313 C316 1.382 . S
C314 C312 1.384 . S
C314 C315 1.381 . S
C314 H335 0.930 . S
C315 C314 1.381 . S
C315 C317 1.381 . S
C315 C318 1.487 . S
C316 C313 1.382 . S
C316 C317 1.387 . S
C316 H336 0.930 . S
C317 C315 1.381 . S
C317 C316 1.387 . S
C317 H337 0.931 . S
C318 C315 1.487 . S
C318 C325 1.399 . S
C318 N343 1.343 . S
C319 C320 1.384 . S
C319 C321 1.384 . S
C319 H338 0.931 . S
C320 C319 1.384 . S
C320 C323 1.382 . S
C321 C319 1.384 . S
C321 C322 1.381 . S
C321 H339 0.930 . S
C322 C321 1.381 . S
C322 C324 1.381 . S
C322 C325 1.487 . S
C323 C320 1.382 . S
C323 C324 1.387 . S
C323 H340 0.930 . S
C324 C322 1.381 . S
C324 C323 1.387 . S
C324 H341 0.931 . S
C325 C318 1.399 . S
C325 C322 1.487 . S
C325 N342 1.343 . S
H326 C298 0.931 . S
H327 C300 0.930 . S
H328 C302 0.930 . S
H329 C303 0.931 . S
H330 C305 0.931 . S
H331 C307 0.930 . S
H332 C309 0.930 . S
H333 C310 0.931 . S
H334 C312 0.931 . S
H335 C314 0.930 . S
H336 C316 0.930 . S
H337 C317 0.931 . S
H338 C319 0.931 . S
H339 C321 0.930 . S
H340 C323 0.930 . S
H341 C324 0.931 . S
N342 C304 1.343 . S
N342 C325 1.343 . S
N343 C311 1.343 . S
N343 C318 1.343 . S
C344 C345 1.384 . S
C344 C346 1.384 . S
C344 H372 0.931 . S
C345 C344 1.384 . S
C345 C348 1.382 . S
C346 C344 1.384 . S
C346 C347 1.381 . S
C346 H373 0.930 . S
C347 C346 1.381 . S
C347 C349 1.381 . S
C347 C350 1.487 . S
C348 C345 1.382 . S
C348 C349 1.387 . S
C348 H374 0.930 . S
C349 C347 1.381 . S
C349 C348 1.387 . S
C349 H375 0.931 . S
C350 C347 1.487 . S
C350 C357 1.399 . S
C350 N388 1.343 . S
C351 C352 1.384 . S
C351 C353 1.384 . S
C351 H376 0.931 . S
C352 C351 1.384 . S
C352 C355 1.382 . S
C353 C351 1.384 . S
C353 C354 1.381 . S
C353 H377 0.930 . S
C354 C353 1.381 . S
C354 C356 1.381 . S
C354 C357 1.487 . S
C355 C352 1.382 . S
C355 C356 1.387 . S
C355 H378 0.930 . S
C356 C354 1.381 . S
C356 C355 1.387 . S
C356 H379 0.931 . S
C357 C350 1.399 . S
C357 C354 1.487 . S
C357 N389 1.343 . S
C358 C359 1.384 . S
C358 C360 1.384 . S
C358 H380 0.931 . S
C359 C358 1.384 . S
C359 C362 1.382 . S
C360 C358 1.384 . S
C360 C361 1.381 . S
C360 H381 0.930 . S
C361 C360 1.381 . S
C361 C363 1.381 . S
C361 C364 1.487 . S
C362 C359 1.382 . S
C362 C363 1.387 . S
C362 H382 0.930 . S
C363 C361 1.381 . S
C363 C362 1.387 . S
C363 H383 0.931 . S
C364 C361 1.487 . S
C364 C371 1.399 . S
C364 N389 1.343 . S
C365 C366 1.384 . S
C365 C367 1.384 . S
C365 H384 0.931 . S
C366 C365 1.384 . S
C366 C369 1.382 . S
C367 C365 1.384 . S
C367 C368 1.381 . S
C367 H385 0.930 . S
C368 C367 1.381 . S
C368 C370 1.381 . S
C368 C371 1.487 . S
C369 C366 1.382 . S
C369 C370 1.387 . S
C369 H386 0.930 . S
C370 C368 1.381 . S
C370 C369 1.387 . S
C370 H387 0.931 . S
C371 C364 1.399 . S
C371 C368 1.487 . S
C371 N388 1.343 . S
H372 C344 0.931 . S
H373 C346 0.930 . S
H374 C348 0.930 . S
H375 C349 0.931 . S
H376 C351 0.931 . S
H377 C353 0.930 . S
H378 C355 0.930 . S
H379 C356 0.931 . S
H380 C358 0.931 . S
H381 C360 0.930 . S
H382 C362 0.930 . S
H383 C363 0.931 . S
H384 C365 0.931 . S
H385 C367 0.930 . S
H386 C369 0.930 . S
H387 C370 0.931 . S
N388 C350 1.343 . S
N388 C371 1.343 . S
N389 C357 1.343 . S
N389 C364 1.343 . S
C390 C391 1.384 . S
C390 C392 1.384 . S
C390 H418 0.931 . S
C391 C390 1.384 . S
C391 C394 1.382 . S
C392 C390 1.384 . S
C392 C393 1.381 . S
C392 H419 0.930 . S
C393 C392 1.381 . S
C393 C395 1.381 . S
C393 C396 1.487 . S
C394 C391 1.382 . S
C394 C395 1.387 . S
C394 H420 0.930 . S
C395 C393 1.381 . S
C395 C394 1.387 . S
C395 H421 0.931 . S
C396 C393 1.487 . S
C396 C403 1.399 . S
C396 N434 1.343 . S
C397 C398 1.384 . S
C397 C399 1.384 . S
C397 H422 0.931 . S
C398 C397 1.384 . S
C398 C401 1.382 . S
C399 C397 1.384 . S
C399 C400 1.381 . S
C399 H423 0.930 . S
C400 C399 1.381 . S
C400 C402 1.381 . S
C400 C403 1.487 . S
C401 C398 1.382 . S
C401 C402 1.387 . S
C401 H424 0.930 . S
C402 C400 1.381 . S
C402 C401 1.387 . S
C402 H425 0.931 . S
C403 C396 1.399 . S
C403 C400 1.487 . S
C403 N435 1.343 . S
C404 C405 1.384 . S
C404 C406 1.384 . S
C404 H426 0.931 . S
C405 C404 1.384 . S
C405 C408 1.382 . S
C406 C404 1.384 . S
C406 C407 1.381 . S
C406 H427 0.930 . S
C407 C406 1.381 . S
C407 C409 1.381 . S
C407 C410 1.487 . S
C408 C405 1.382 . S
C408 C409 1.387 . S
C408 H428 0.930 . S
C409 C407 1.381 . S
C409 C408 1.387 . S
C409 H429 0.931 . S
C410 C407 1.487 . S
C410 C417 1.399 . S
C410 N435 1.343 . S
C411 C412 1.384 . S
C411 C413 1.384 . S
C411 H430 0.931 . S
C412 C411 1.384 . S
C412 C415 1.382 . S
C413 C411 1.384 . S
C413 C414 1.381 . S
C413 H431 0.930 . S
C414 C413 1.381 . S
C414 C416 1.381 . S
C414 C417 1.487 . S
C415 C412 1.382 . S
C415 C416 1.387 . S
C415 H432 0.930 . S
C416 C414 1.381 . S
C416 C415 1.387 . S
C416 H433 0.931 . S
C417 C410 1.399 . S
C417 C414 1.487 . S
C417 N434 1.343 . S
H418 C390 0.931 . S
H419 C392 0.930 . S
H420 C394 0.930 . S
H421 C395 0.931 . S
H422 C397 0.931 . S
H423 C399 0.930 . S
H424 C401 0.930 . S
H425 C402 0.931 . S
H426 C404 0.931 . S
H427 C406 0.930 . S
H428 C408 0.930 . S
H429 C409 0.931 . S
H430 C411 0.931 . S
H431 C413 0.930 . S
H432 C415 0.930 . S
H433 C416 0.931 . S
N434 C396 1.343 . S
N434 C417 1.343 . S
N435 C403 1.343 . S
N435 C410 1.343 . S
C436 C437 1.384 . S
C436 C438 1.384 . S
C436 H464 0.931 . S
C437 C436 1.384 . S
C437 C440 1.382 . S
C438 C436 1.384 . S
C438 C439 1.381 . S
C438 H465 0.930 . S
C439 C438 1.381 . S
C439 C441 1.381 . S
C439 C442 1.487 . S
C440 C437 1.382 . S
C440 C441 1.387 . S
C440 H466 0.930 . S
C441 C439 1.381 . S
C441 C440 1.387 . S
C441 H467 0.931 . S
C442 C439 1.487 . S
C442 C449 1.399 . S
C442 N480 1.343 . S
C443 C444 1.384 . S
C443 C445 1.384 . S
C443 H468 0.931 . S
C444 C443 1.384 . S
C444 C447 1.382 . S
C445 C443 1.384 . S
C445 C446 1.381 . S
C445 H469 0.930 . S
C446 C445 1.381 . S
C446 C448 1.381 . S
C446 C449 1.487 . S
C447 C444 1.382 . S
C447 C448 1.387 . S
C447 H470 0.930 . S
C448 C446 1.381 . S
C448 C447 1.387 . S
C448 H471 0.931 . S
C449 C442 1.399 . S
C449 C446 1.487 . S
C449 N481 1.343 . S
C450 C451 1.384 . S
C450 C452 1.384 . S
C450 H472 0.931 . S
C451 C450 1.384 . S
C451 C454 1.382 . S
C452 C450 1.384 . S
C452 C453 1.381 . S
C452 H473 0.930 . S
C453 C452 1.381 . S
C453 C455 1.381 . S
C453 C456 1.487 . S
C454 C451 1.382 . S
C454 C455 1.387 . S
C454 H474 0.930 . S
C455 C453 1.381 . S
C455 C454 1.387 . S
C455 H475 0.931 . S
C456 C453 1.487 . S
C456 C463 1.399 . S
C456 N481 1.343 . S
C457 C458 1.384 . S
C457 C459 1.384 . S
C457 H476 0.931 . S
C458 C457 1.384 . S
C458 C461 1.382 . S
C459 C457 1.384 . S
C459 C460 1.381 . S
C459 H477 0.930 . S
C460 C459 1.381 . S
C460 C462 1.381 . S
C460 C463 1.487 . S
C461 C458 1.382 . S
C461 C462 1.387 . S
C461 H478 0.930 . S
C462 C460 1.381 . S
C462 C461 1.387 . S
C462 H479 0.931 . S
C463 C456 1.399 . S
C463 C460 1.487 . S
C463 N480 1.343 . S
H464 C436 0.931 . S
H465 C438 0.930 . S
H466 C440 0.930 . S
H467 C441 0.931 . S
H468 C443 0.931 . S
H469 C445 0.930 . S
H470 C447 0.930 . S
H471 C448 0.931 . S
H472 C450 0.931 . S
H473 C452 0.930 . S
H474 C454 0.930 . S
H475 C455 0.931 . S
H476 C457 0.931 . S
H477 C459 0.930 . S
H478 C461 0.930 . S
H479 C462 0.931 . S
N480 C442 1.343 . S
N480 C463 1.343 . S
N481 C449 1.343 . S
N481 C456 1.343 . S
C482 C483 1.384 . S
C482 C484 1.384 . S
C482 H510 0.931 . S
C483 C482 1.384 . S
C483 C486 1.382 . S
C484 C482 1.384 . S
C484 C485 1.381 . S
C484 H511 0.930 . S
C485 C484 1.381 . S
C485 C487 1.381 . S
C485 C488 1.487 . S
C486 C483 1.382 . S
C486 C487 1.387 . S
C486 H512 0.930 . S
C487 C485 1.381 . S
C487 C486 1.387 . S
C487 H513 0.931 . S
C488 C485 1.487 . S
C488 C495 1.399 . S
C488 N526 1.343 . S
C489 C490 1.384 . S
C489 C491 1.384 . S
C489 H514 0.931 . S
C490 C489 1.384 . S
C490 C493 1.382 . S
C491 C489 1.384 . S
C491 C492 1.381 . S
C491 H515 0.930 . S
C492 C491 1.381 . S
C492 C494 1.381 . S
C492 C495 1.487 . S
C493 C490 1.382 . S
C493 C494 1.387 . S
C493 H516 0.930 . S
C494 C492 1.381 . S
C494 C493 1.387 . S
C494 H517 0.931 . S
C495 C488 1.399 . S
C495 C492 1.487 . S
C495 N527 1.343 . S
C496 C497 1.384 . S
C496 C498 1.384 . S
C496 H518 0.931 . S
C497 C496 1.384 . S
C497 C500 1.382 . S
C498 C496 1.384 . S
C498 C499 1.381 . S
C498 H519 0.930 . S
C499 C498 1.381 . S
C499 C501 1.381 . S
C499 C502 1.487 . S
C500 C497 1.382 . S
C500 C501 1.387 . S
C500 H520 0.930 . S
C501 C499 1.381 . S
C501 C500 1.387 . S
C501 H521 0.931 . S
C502 C499 1.487 . S
C502 C509 1.399 . S
C502 N527 1.343 . S
C503 C504 1.384 . S
C503 C505 1.384 . S
C503 H522 0.931 . S
C504 C503 1.384 . S
C504 C507 1.382 . S
C505 C503 1.384 . S
C505 C506 1.381 . S
C505 H523 0.930 . S
C506 C505 1.381 . S
C506 C508 1.381 . S
C506 C509 1.487 . S
C507 C504 1.382 . S
C507 C508 1.387 . S
C507 H524 0.930 . S
C508 C506 1.381 . S
C508 C507 1.387 . S
C508 H525 0.931 . S
C509 C502 1.399 . S
C509 C506 1.487 . S
C509 N526 1.343 . S
H510 C482 0.931 . S
H511 C484 0.930 . S
H512 C486 0.930 . S
H513 C487 0.931 . S
H514 C489 0.931 . S
H515 C491 0.930 . S
H516 C493 0.930 . S
H517 C494 0.931 . S
H518 C496 0.931 . S
H519 C498 0.930 . S
H520 C500 0.930 . S
H521 C501 0.931 . S
H522 C503 0.931 . S
H523 C505 0.930 . S
H524 C507 0.930 . S
H525 C508 0.931 . S
N526 C488 1.343 . S
N526 C509 1.343 . S
N527 C495 1.343 . S
N527 C502 1.343 . S
C528 C529 1.384 . S
C528 C530 1.384 . S
C528 H556 0.931 . S
C529 C528 1.384 . S
C529 C532 1.382 . S
C530 C528 1.384 . S
C530 C531 1.381 . S
C530 H557 0.930 . S
C531 C530 1.381 . S
C531 C533 1.381 . S
C531 C534 1.487 . S
C532 C529 1.382 . S
C532 C533 1.387 . S
C532 H558 0.930 . S
C533 C531 1.381 . S
C533 C532 1.387 . S
C533 H559 0.931 . S
C534 C531 1.487 . S
C534 C541 1.399 . S
C534 N572 1.343 . S
C535 C536 1.384 . S
C535 C537 1.384 . S
C535 H560 0.931 . S
C536 C535 1.384 . S
C536 C539 1.382 . S
C537 C535 1.384 . S
C537 C538 1.381 . S
C537 H561 0.930 . S
C538 C537 1.381 . S
C538 C540 1.381 . S
C538 C541 1.487 . S
C539 C536 1.382 . S
C539 C540 1.387 . S
C539 H562 0.930 . S
C540 C538 1.381 . S
C540 C539 1.387 . S
C540 H563 0.931 . S
C541 C534 1.399 . S
C541 C538 1.487 . S
C541 N573 1.343 . S
C542 C543 1.384 . S
C542 C544 1.384 . S
C542 H564 0.931 . S
C543 C542 1.384 . S
C543 C546 1.382 . S
C544 C542 1.384 . S
C544 C545 1.381 . S
C544 H565 0.930 . S
C545 C544 1.381 . S
C545 C547 1.381 . S
C545 C548 1.487 . S
C546 C543 1.382 . S
C546 C547 1.387 . S
C546 H566 0.930 . S
C547 C545 1.381 . S
C547 C546 1.387 . S
C547 H567 0.931 . S
C548 C545 1.487 . S
C548 C555 1.399 . S
C548 N573 1.343 . S
C549 C550 1.384 . S
C549 C551 1.384 . S
C549 H568 0.931 . S
C550 C549 1.384 . S
C550 C553 1.382 . S
C551 C549 1.384 . S
C551 C552 1.381 . S
C551 H569 0.930 . S
C552 C551 1.381 . S
C552 C554 1.381 . S
C552 C555 1.487 . S
C553 C550 1.382 . S
C553 C554 1.387 . S
C553 H570 0.930 . S
C554 C552 1.381 . S
C554 C553 1.387 . S
C554 H571 0.931 . S
C555 C548 1.399 . S
C555 C552 1.487 . S
C555 N572 1.343 . S
H556 C528 0.931 . S
H557 C530 0.930 . S
H558 C532 0.930 . S
H559 C533 0.931 . S
H560 C535 0.931 . S
H561 C537 0.930 . S
H562 C539 0.930 . S
H563 C540 0.931 . S
H564 C542 0.931 . S
H565 C544 0.930 . S
H566 C546 0.930 . S
H567 C547 0.931 . S
H568 C549 0.931 . S
H569 C551 0.930 . S
H570 C553 0.930 . S
H571 C554 0.931 . S
N572 C534 1.343 . S
N572 C555 1.343 . S
N573 C541 1.343 . S
N573 C548 1.343 . S
C574 C575 1.384 . S
C574 C576 1.384 . S
C574 H602 0.931 . S
C575 C574 1.384 . S
C575 C578 1.382 . S
C576 C574 1.384 . S
C576 C577 1.381 . S
C576 H603 0.930 . S
C577 C576 1.381 . S
C577 C579 1.381 . S
C577 C580 1.487 . S
C578 C575 1.382 . S
C578 C579 1.387 . S
C578 H604 0.930 . S
C579 C577 1.381 . S
C579 C578 1.387 . S
C579 H605 0.931 . S
C580 C577 1.487 . S
C580 C587 1.399 . S
C580 N618 1.343 . S
C581 C582 1.384 . S
C581 C583 1.384 . S
C581 H606 0.931 . S
C582 C581 1.384 . S
C582 C585 1.382 . S
C583 C581 1.384 . S
C583 C584 1.381 . S
C583 H607 0.930 . S
C584 C583 1.381 . S
C584 C586 1.381 . S
C584 C587 1.487 . S
C585 C582 1.382 . S
C585 C586 1.387 . S
C585 H608 0.930 . S
C586 C584 1.381 . S
C586 C585 1.387 . S
C586 H609 0.931 . S
C587 C580 1.399 . S
C587 C584 1.487 . S
C587 N619 1.343 . S
C588 C589 1.384 . S
C588 C590 1.384 . S
C588 H610 0.931 . S
C589 C588 1.384 . S
C589 C592 1.382 . S
C590 C588 1.384 . S
C590 C591 1.381 . S
C590 H611 0.930 . S
C591 C590 1.381 . S
C591 C593 1.381 . S
C591 C594 1.487 . S
C592 C589 1.382 . S
C592 C593 1.387 . S
C592 H612 0.930 . S
C593 C591 1.381 . S
C593 C592 1.387 . S
C593 H613 0.931 . S
C594 C591 1.487 . S
C594 C601 1.399 . S
C594 N619 1.343 . S
C595 C596 1.384 . S
C595 C597 1.384 . S
C595 H614 0.931 . S
C596 C595 1.384 . S
C596 C599 1.382 . S
C597 C595 1.384 . S
C597 C598 1.381 . S
C597 H615 0.930 . S
C598 C597 1.381 . S
C598 C600 1.381 . S
C598 C601 1.487 . S
C599 C596 1.382 . S
C599 C600 1.387 . S
C599 H616 0.930 . S
C600 C598 1.381 . S
C600 C599 1.387 . S
C600 H617 0.931 . S
C601 C594 1.399 . S
C601 C598 1.487 . S
C601 N618 1.343 . S
H602 C574 0.931 . S
H603 C576 0.930 . S
H604 C578 0.930 . S
H605 C579 0.931 . S
H606 C581 0.931 . S
H607 C583 0.930 . S
H608 C585 0.930 . S
H609 C586 0.931 . S
H610 C588 0.931 . S
H611 C590 0.930 . S
H612 C592 0.930 . S
H613 C593 0.931 . S
H614 C595 0.931 . S
H615 C597 0.930 . S
H616 C599 0.930 . S
H617 C600 0.931 . S
N618 C580 1.343 . S
N618 C601 1.343 . S
N619 C587 1.343 . S
N619 C594 1.343 . S
C620 C621 1.384 . S
C620 C622 1.384 . S
C620 H648 0.931 . S
C621 C620 1.384 . S
C621 C624 1.382 . S
C622 C620 1.384 . S
C622 C623 1.381 . S
C622 H649 0.930 . S
C623 C622 1.381 . S
C623 C625 1.381 . S
C623 C626 1.487 . S
C624 C621 1.382 . S
C624 C625 1.387 . S
C624 H650 0.930 . S
C625 C623 1.381 . S
C625 C624 1.387 . S
C625 H651 0.931 . S
C626 C623 1.487 . S
C626 C633 1.399 . S
C626 N664 1.343 . S
C627 C628 1.384 . S
C627 C629 1.384 . S
C627 H652 0.931 . S
C628 C627 1.384 . S
C628 C631 1.382 . S
C629 C627 1.384 . S
C629 C630 1.381 . S
C629 H653 0.930 . S
C630 C629 1.381 . S
C630 C632 1.381 . S
C630 C633 1.487 . S
C631 C628 1.382 . S
C631 C632 1.387 . S
C631 H654 0.930 . S
C632 C630 1.381 . S
C632 C631 1.387 . S
C632 H655 0.931 . S
C633 C626 1.399 . S
C633 C630 1.487 . S
C633 N665 1.343 . S
C634 C635 1.384 . S
C634 C636 1.384 . S
C634 H656 0.931 . S
C635 C634 1.384 . S
C635 C638 1.382 . S
C636 C634 1.384 . S
C636 C637 1.381 . S
C636 H657 0.930 . S
C637 C636 1.381 . S
C637 C639 1.381 . S
C637 C640 1.487 . S
C638 C635 1.382 . S
C638 C639 1.387 . S
C638 H658 0.930 . S
C639 C637 1.381 . S
C639 C638 1.387 . S
C639 H659 0.931 . S
C640 C637 1.487 . S
C640 C647 1.399 . S
C640 N665 1.343 . S
C641 C642 1.384 . S
C641 C643 1.384 . S
C641 H660 0.931 . S
C642 C641 1.384 . S
C642 C645 1.382 . S
C643 C641 1.384 . S
C643 C644 1.381 . S
C643 H661 0.930 . S
C644 C643 1.381 . S
C644 C646 1.381 . S
C644 C647 1.487 . S
C645 C642 1.382 . S
C645 C646 1.387 . S
C645 H662 0.930 . S
C646 C644 1.381 . S
C646 C645 1.387 . S
C646 H663 0.931 . S
C647 C640 1.399 . S
C647 C644 1.487 . S
C647 N664 1.343 . S
H648 C620 0.931 . S
H649 C622 0.930 . S
H650 C624 0.930 . S
H651 C625 0.931 . S
H652 C627 0.931 . S
H653 C629 0.930 . S
H654 C631 0.930 . S
H655 C632 0.931 . S
H656 C634 0.931 . S
H657 C636 0.930 . S
H658 C638 0.930 . S
H659 C639 0.931 . S
H660 C641 0.931 . S
H661 C643 0.930 . S
H662 C645 0.930 . S
H663 C646 0.931 . S
N664 C626 1.343 . S
N664 C647 1.343 . S
N665 C633 1.343 . S
N665 C640 1.343 . S
C666 C667 1.384 . S
C666 C668 1.384 . S
C666 H694 0.931 . S
C667 C666 1.384 . S
C667 C670 1.382 1_655 S
C668 C666 1.384 . S
C668 C669 1.391 . S
C668 H695 0.930 . S
C669 C668 1.391 . S
C669 C671 1.376 1_655 S
C669 C672 1.477 1_655 S
C670 C667 1.382 1_455 S
C670 C671 1.387 . S
C670 H696 0.930 . S
C671 C669 1.376 1_455 S
C671 C670 1.387 . S
C671 H697 0.931 . S
C672 C669 1.477 1_455 S
C672 C679 1.398 1_455 S
C672 N710 1.350 . S
C673 C674 1.384 . S
C673 C675 1.384 . S
C673 H698 0.931 . S
C674 C673 1.384 . S
C674 C677 1.382 1_455 S
C675 C673 1.384 . S
C675 C676 1.383 1_455 S
C675 H699 0.930 . S
C676 C675 1.383 1_655 S
C676 C678 1.377 . S
C676 C679 1.496 . S
C677 C674 1.382 1_655 S
C677 C678 1.387 . S
C677 H700 0.930 . S
C678 C676 1.377 . S
C678 C677 1.387 . S
C678 H701 0.931 . S
C679 C672 1.398 1_655 S
C679 C676 1.496 . S
C679 N711 1.363 . S
C680 C681 1.384 . S
C680 C682 1.384 . S
C680 H702 0.931 . S
C681 C680 1.384 . S
C681 C684 1.382 1_455 S
C682 C680 1.384 . S
C682 C683 1.407 . S
C682 H703 0.930 . S
C683 C682 1.407 . S
C683 C685 1.368 1_455 S
C683 C686 1.477 1_455 S
C684 C681 1.382 1_655 S
C684 C685 1.387 . S
C684 H704 0.930 . S
C685 C683 1.368 1_655 S
C685 C684 1.387 . S
C685 H705 0.931 . S
C686 C683 1.477 1_655 S
C686 C693 1.398 1_655 S
C686 N711 1.312 . S
C687 C688 1.384 . S
C687 C689 1.384 . S
C687 H706 0.931 . S
C688 C687 1.384 . S
C688 C691 1.382 1_655 S
C689 C687 1.384 . S
C689 C690 1.379 1_655 S
C689 H707 0.930 . S
C690 C689 1.379 1_455 S
C690 C692 1.387 . S
C690 C693 1.496 . S
C691 C688 1.382 1_455 S
C691 C692 1.387 . S
C691 H708 0.930 . S
C692 C690 1.387 . S
C692 C691 1.387 . S
C692 H709 0.931 . S
C693 C686 1.398 1_455 S
C693 C690 1.496 . S
C693 N710 1.330 . S
H694 C666 0.931 . S
H695 C668 0.930 . S
H696 C670 0.930 . S
H697 C671 0.931 . S
H698 C673 0.931 . S
H699 C675 0.930 . S
H700 C677 0.930 . S
H701 C678 0.931 . S
H702 C680 0.931 . S
H703 C682 0.930 . S
H704 C684 0.930 . S
H705 C685 0.931 . S
H706 C687 0.931 . S
H707 C689 0.930 . S
H708 C691 0.930 . S
H709 C692 0.931 . S
N710 C672 1.350 . S
N710 C693 1.330 . S
N711 C679 1.363 . S
N711 C686 1.312 . S
C712 C713 1.384 . S
C712 C714 1.384 . S
C712 H740 0.931 . S
C713 C712 1.384 . S
C713 C716 1.382 . S
C714 C712 1.384 . S
C714 C715 1.381 . S
C714 H741 0.930 . S
C715 C714 1.381 . S
C715 C717 1.381 . S
C715 C718 1.487 . S
C716 C713 1.382 . S
C716 C717 1.387 . S
C716 H742 0.930 . S
C717 C715 1.381 . S
C717 C716 1.387 . S
C717 H743 0.931 . S
C718 C715 1.487 . S
C718 C725 1.399 . S
C718 N756 1.343 . S
C719 C720 1.384 . S
C719 C721 1.384 . S
C719 H744 0.931 . S
C720 C719 1.384 . S
C720 C723 1.382 . S
C721 C719 1.384 . S
C721 C722 1.381 . S
C721 H745 0.930 . S
C722 C721 1.381 . S
C722 C724 1.381 . S
C722 C725 1.487 . S
C723 C720 1.382 . S
C723 C724 1.387 . S
C723 H746 0.930 . S
C724 C722 1.381 . S
C724 C723 1.387 . S
C724 H747 0.931 . S
C725 C718 1.399 . S
C725 C722 1.487 . S
C725 N757 1.343 . S
C726 C727 1.384 . S
C726 C728 1.384 . S
C726 H748 0.931 . S
C727 C726 1.384 . S
C727 C730 1.382 . S
C728 C726 1.384 . S
C728 C729 1.381 . S
C728 H749 0.930 . S
C729 C728 1.381 . S
C729 C731 1.381 . S
C729 C732 1.487 . S
C730 C727 1.382 . S
C730 C731 1.387 . S
C730 H750 0.930 . S
C731 C729 1.381 . S
C731 C730 1.387 . S
C731 H751 0.931 . S
C732 C729 1.487 . S
C732 C739 1.399 . S
C732 N757 1.343 . S
C733 C734 1.384 . S
C733 C735 1.384 . S
C733 H752 0.931 . S
C734 C733 1.384 . S
C734 C737 1.382 . S
C735 C733 1.384 . S
C735 C736 1.381 . S
C735 H753 0.930 . S
C736 C735 1.381 . S
C736 C738 1.381 . S
C736 C739 1.487 . S
C737 C734 1.382 . S
C737 C738 1.387 . S
C737 H754 0.930 . S
C738 C736 1.381 . S
C738 C737 1.387 . S
C738 H755 0.931 . S
C739 C732 1.399 . S
C739 C736 1.487 . S
C739 N756 1.343 . S
H740 C712 0.931 . S
H741 C714 0.930 . S
H742 C716 0.930 . S
H743 C717 0.931 . S
H744 C719 0.931 . S
H745 C721 0.930 . S
H746 C723 0.930 . S
H747 C724 0.931 . S
H748 C726 0.931 . S
H749 C728 0.930 . S
H750 C730 0.930 . S
H751 C731 0.931 . S
H752 C733 0.931 . S
H753 C735 0.930 . S
H754 C737 0.930 . S
H755 C738 0.931 . S
N756 C718 1.343 . S
N756 C739 1.343 . S
N757 C725 1.343 . S
N757 C732 1.343 . S
C758 C759 1.384 1_545 S
C758 C760 1.384 . S
C758 H786 0.931 . S
C759 C758 1.384 1_565 S
C759 C762 1.382 . S
C760 C758 1.384 . S
C760 C761 1.381 1_545 S
C760 H787 0.930 . S
C761 C760 1.381 1_565 S
C761 C763 1.381 . S
C761 C764 1.487 . S
C762 C759 1.382 . S
C762 C763 1.387 . S
C762 H788 0.930 . S
C763 C761 1.381 . S
C763 C762 1.387 . S
C763 H789 0.931 . S
C764 C761 1.487 . S
C764 C771 1.399 1_565 S
C764 N802 1.343 . S
C765 C766 1.384 1_565 S
C765 C767 1.384 . S
C765 H790 0.931 . S
C766 C765 1.384 1_545 S
C766 C769 1.382 . S
C767 C765 1.384 . S
C767 C768 1.381 1_565 S
C767 H791 0.930 . S
C768 C767 1.381 1_545 S
C768 C770 1.381 . S
C768 C771 1.487 . S
C769 C766 1.382 . S
C769 C770 1.387 . S
C769 H792 0.930 . S
C770 C768 1.381 . S
C770 C769 1.387 . S
C770 H793 0.931 . S
C771 C764 1.399 1_545 S
C771 C768 1.487 . S
C771 N803 1.343 . S
C772 C773 1.384 1_565 S
C772 C774 1.384 . S
C772 H794 0.931 . S
C773 C772 1.384 1_545 S
C773 C776 1.382 . S
C774 C772 1.384 . S
C774 C775 1.381 1_565 S
C774 H795 0.930 . S
C775 C774 1.381 1_545 S
C775 C777 1.381 . S
C775 C778 1.487 . S
C776 C773 1.382 . S
C776 C777 1.387 . S
C776 H796 0.930 . S
C777 C775 1.381 . S
C777 C776 1.387 . S
C777 H797 0.931 . S
C778 C775 1.487 . S
C778 C785 1.399 1_545 S
C778 N803 1.343 . S
C779 C780 1.384 1_545 S
C779 C781 1.384 . S
C779 H798 0.931 . S
C780 C779 1.384 1_565 S
C780 C783 1.382 . S
C781 C779 1.384 . S
C781 C782 1.381 1_545 S
C781 H799 0.930 . S
C782 C781 1.381 1_565 S
C782 C784 1.381 . S
C782 C785 1.487 . S
C783 C780 1.382 . S
C783 C784 1.387 . S
C783 H800 0.930 . S
C784 C782 1.381 . S
C784 C783 1.387 . S
C784 H801 0.931 . S
C785 C778 1.399 1_565 S
C785 C782 1.487 . S
C785 N802 1.343 . S
H786 C758 0.931 . S
H787 C760 0.930 . S
H788 C762 0.930 . S
H789 C763 0.931 . S
H790 C765 0.931 . S
H791 C767 0.930 . S
H792 C769 0.930 . S
H793 C770 0.931 . S
H794 C772 0.931 . S
H795 C774 0.930 . S
H796 C776 0.930 . S
H797 C777 0.931 . S
H798 C779 0.931 . S
H799 C781 0.930 . S
H800 C783 0.930 . S
H801 C784 0.931 . S
N802 C764 1.343 . S
N802 C785 1.343 . S
N803 C771 1.343 . S
N803 C778 1.343 . S
C804 C805 1.384 . S
C804 C806 1.384 . S
C804 H832 0.931 . S
C805 C804 1.384 . S
C805 C808 1.382 1_545 S
C806 C804 1.384 . S
C806 C807 1.385 . S
C806 H833 0.930 . S
C807 C806 1.385 . S
C807 C809 1.371 1_545 S
C807 C810 1.495 1_545 S
C808 C805 1.382 1_565 S
C808 C809 1.387 . S
C808 H834 0.930 . S
C809 C807 1.371 1_565 S
C809 C808 1.387 . S
C809 H835 0.931 . S
C810 C807 1.495 1_565 S
C810 C817 1.399 1_565 S
C810 N848 1.367 . S
C811 C812 1.384 . S
C811 C813 1.384 . S
C811 H836 0.931 . S
C812 C811 1.384 . S
C812 C815 1.382 1_565 S
C813 C811 1.384 . S
C813 C814 1.379 . S
C813 H837 0.930 . S
C814 C813 1.379 . S
C814 C816 1.382 1_565 S
C814 C817 1.479 1_565 S
C815 C812 1.382 1_545 S
C815 C816 1.387 . S
C815 H838 0.930 . S
C816 C814 1.382 1_545 S
C816 C815 1.387 . S
C816 H839 0.931 . S
C817 C810 1.399 1_545 S
C817 C814 1.479 1_545 S
C817 N849 1.320 . S
C818 C819 1.384 . S
C818 C820 1.384 . S
C818 H840 0.931 . S
C819 C818 1.384 . S
C819 C822 1.382 1_565 S
C820 C818 1.384 . S
C820 C821 1.382 . S
C820 H841 0.930 . S
C821 C820 1.382 . S
C821 C823 1.380 1_565 S
C821 C824 1.495 1_565 S
C822 C819 1.382 1_545 S
C822 C823 1.387 . S
C822 H842 0.930 . S
C823 C821 1.380 1_545 S
C823 C822 1.387 . S
C823 H843 0.931 . S
C824 C821 1.495 1_545 S
C824 C831 1.399 1_545 S
C824 N849 1.367 . S
C825 C826 1.384 . S
C825 C827 1.384 . S
C825 H844 0.931 . S
C826 C825 1.384 . S
C826 C829 1.382 1_545 S
C827 C825 1.384 . S
C827 C828 1.396 . S
C827 H845 0.930 . S
C828 C827 1.396 . S
C828 C830 1.374 1_545 S
C828 C831 1.479 1_545 S
C829 C826 1.382 1_565 S
C829 C830 1.387 . S
C829 H846 0.930 . S
C830 C828 1.374 1_565 S
C830 C829 1.387 . S
C830 H847 0.931 . S
C831 C824 1.399 1_565 S
C831 C828 1.479 1_565 S
C831 N848 1.320 . S
H832 C804 0.931 . S
H833 C806 0.930 . S
H834 C808 0.930 . S
H835 C809 0.931 . S
H836 C811 0.931 . S
H837 C813 0.930 . S
H838 C815 0.930 . S
H839 C816 0.931 . S
H840 C818 0.931 . S
H841 C820 0.930 . S
H842 C822 0.930 . S
H843 C823 0.931 . S
H844 C825 0.931 . S
H845 C827 0.930 . S
H846 C829 0.930 . S
H847 C830 0.931 . S
N848 C810 1.367 . S
N848 C831 1.320 . S
N849 C817 1.320 . S
N849 C824 1.367 . S
C850 C851 1.384 . S
C850 C852 1.384 . S
C850 H878 0.931 . S
C851 C850 1.384 . S
C851 C854 1.382 1_655 S
C852 C850 1.384 . S
C852 C853 1.424 . S
C852 H879 0.930 . S
C853 C852 1.424 . S
C853 C855 1.359 1_655 S
C853 C856 1.466 . S
C854 C851 1.382 1_455 S
C854 C855 1.387 . S
C854 H880 0.930 . S
C855 C853 1.359 1_455 S
C855 C854 1.387 . S
C855 H881 0.931 . S
C856 C853 1.466 . S
C856 C863 1.398 . S
C856 N894 1.324 1_655 S
C857 C858 1.384 . S
C857 C859 1.384 . S
C857 H882 0.931 . S
C858 C857 1.384 . S
C858 C861 1.382 1_455 S
C859 C857 1.384 . S
C859 C860 1.383 1_455 S
C859 H883 0.930 . S
C860 C859 1.383 1_655 S
C860 C862 1.377 . S
C860 C863 1.500 . S
C861 C858 1.382 1_655 S
C861 C862 1.387 . S
C861 H884 0.930 . S
C862 C860 1.377 . S
C862 C861 1.387 . S
C862 H885 0.931 . S
C863 C856 1.398 . S
C863 C860 1.500 . S
C863 N895 1.360 . S
C864 C865 1.384 . S
C864 C866 1.384 . S
C864 H886 0.931 . S
C865 C864 1.384 . S
C865 C868 1.382 1_455 S
C866 C864 1.384 . S
C866 C867 1.408 . S
C866 H887 0.930 . S
C867 C866 1.408 . S
C867 C869 1.368 1_455 S
C867 C870 1.473 1_455 S
C868 C865 1.382 1_655 S
C868 C869 1.387 . S
C868 H888 0.930 . S
C869 C867 1.368 1_655 S
C869 C868 1.387 . S
C869 H889 0.931 . S
C870 C867 1.473 1_655 S
C870 C877 1.399 1_655 S
C870 N895 1.316 . S
C871 C872 1.384 . S
C871 C873 1.384 . S
C871 H890 0.931 . S
C872 C871 1.384 . S
C872 C875 1.382 1_655 S
C873 C871 1.384 . S
C873 C874 1.383 . S
C873 H891 0.930 . S
C874 C873 1.383 . S
C874 C876 1.377 1_655 S
C874 C877 1.493 1_655 S
C875 C872 1.382 1_455 S
C875 C876 1.387 . S
C875 H892 0.930 . S
C876 C874 1.377 1_455 S
C876 C875 1.387 . S
C876 H893 0.931 . S
C877 C870 1.399 1_455 S
C877 C874 1.493 1_455 S
C877 N894 1.360 . S
H878 C850 0.931 . S
H879 C852 0.930 . S
H880 C854 0.930 . S
H881 C855 0.931 . S
H882 C857 0.931 . S
H883 C859 0.930 . S
H884 C861 0.930 . S
H885 C862 0.931 . S
H886 C864 0.931 . S
H887 C866 0.930 . S
H888 C868 0.930 . S
H889 C869 0.931 . S
H890 C871 0.931 . S
H891 C873 0.930 . S
H892 C875 0.930 . S
H893 C876 0.931 . S
N894 C856 1.324 1_455 S
N894 C877 1.360 . S
N895 C863 1.360 . S
N895 C870 1.316 . S
C896 C897 1.384 . S
C896 C898 1.384 . S
C896 H924 0.931 . S
C897 C896 1.384 . S
C897 C900 1.382 . S
C898 C896 1.384 . S
C898 C899 1.381 . S
C898 H925 0.930 . S
C899 C898 1.381 . S
C899 C901 1.381 . S
C899 C902 1.487 . S
C900 C897 1.382 . S
C900 C901 1.387 . S
C900 H926 0.930 . S
C901 C899 1.381 . S
C901 C900 1.387 . S
C901 H927 0.931 . S
C902 C899 1.487 . S
C902 C909 1.399 . S
C902 N940 1.343 . S
C903 C904 1.384 . S
C903 C905 1.384 . S
C903 H928 0.931 . S
C904 C903 1.384 . S
C904 C907 1.382 . S
C905 C903 1.384 . S
C905 C906 1.381 . S
C905 H929 0.930 . S
C906 C905 1.381 . S
C906 C908 1.381 . S
C906 C909 1.487 . S
C907 C904 1.382 . S
C907 C908 1.387 . S
C907 H930 0.930 . S
C908 C906 1.381 . S
C908 C907 1.387 . S
C908 H931 0.931 . S
C909 C902 1.399 . S
C909 C906 1.487 . S
C909 N941 1.343 . S
C910 C911 1.384 . S
C910 C912 1.384 . S
C910 H932 0.931 . S
C911 C910 1.384 . S
C911 C914 1.382 . S
C912 C910 1.384 . S
C912 C913 1.381 . S
C912 H933 0.930 . S
C913 C912 1.381 . S
C913 C915 1.381 . S
C913 C916 1.487 . S
C914 C911 1.382 . S
C914 C915 1.387 . S
C914 H934 0.930 . S
C915 C913 1.381 . S
C915 C914 1.387 . S
C915 H935 0.931 . S
C916 C913 1.487 . S
C916 C923 1.399 . S
C916 N941 1.343 . S
C917 C918 1.384 . S
C917 C919 1.384 . S
C917 H936 0.931 . S
C918 C917 1.384 . S
C918 C921 1.382 . S
C919 C917 1.384 . S
C919 C920 1.381 . S
C919 H937 0.930 . S
C920 C919 1.381 . S
C920 C922 1.381 . S
C920 C923 1.487 . S
C921 C918 1.382 . S
C921 C922 1.387 . S
C921 H938 0.930 . S
C922 C920 1.381 . S
C922 C921 1.387 . S
C922 H939 0.931 . S
C923 C916 1.399 . S
C923 C920 1.487 . S
C923 N940 1.343 . S
H924 C896 0.931 . S
H925 C898 0.930 . S
H926 C900 0.930 . S
H927 C901 0.931 . S
H928 C903 0.931 . S
H929 C905 0.930 . S
H930 C907 0.930 . S
H931 C908 0.931 . S
H932 C910 0.931 . S
H933 C912 0.930 . S
H934 C914 0.930 . S
H935 C915 0.931 . S
H936 C917 0.931 . S
H937 C919 0.930 . S
H938 C921 0.930 . S
H939 C922 0.931 . S
N940 C902 1.343 . S
N940 C923 1.343 . S
N941 C909 1.343 . S
N941 C916 1.343 . S
C942 C943 1.384 . S
C942 C944 1.384 . S
C942 H970 0.931 . S
C943 C942 1.384 . S
C943 C946 1.382 . S
C944 C942 1.384 . S
C944 C945 1.381 . S
C944 H971 0.930 . S
C945 C944 1.381 . S
C945 C947 1.381 . S
C945 C948 1.487 . S
C946 C943 1.382 . S
C946 C947 1.387 . S
C946 H972 0.930 . S
C947 C945 1.381 . S
C947 C946 1.387 . S
C947 H973 0.931 . S
C948 C945 1.487 . S
C948 C955 1.399 . S
C948 N986 1.343 . S
C949 C950 1.384 . S
C949 C951 1.384 . S
C949 H974 0.931 . S
C950 C949 1.384 . S
C950 C953 1.382 . S
C951 C949 1.384 . S
C951 C952 1.381 . S
C951 H975 0.930 . S
C952 C951 1.381 . S
C952 C954 1.381 . S
C952 C955 1.487 . S
C953 C950 1.382 . S
C953 C954 1.387 . S
C953 H976 0.930 . S
C954 C952 1.381 . S
C954 C953 1.387 . S
C954 H977 0.931 . S
C955 C948 1.399 . S
C955 C952 1.487 . S
C955 N987 1.343 . S
C956 C957 1.384 . S
C956 C958 1.384 . S
C956 H978 0.931 . S
C957 C956 1.384 . S
C957 C960 1.382 . S
C958 C956 1.384 . S
C958 C959 1.381 . S
C958 H979 0.930 . S
C959 C958 1.381 . S
C959 C961 1.381 . S
C959 C962 1.487 . S
C960 C957 1.382 . S
C960 C961 1.387 . S
C960 H980 0.930 . S
C961 C959 1.381 . S
C961 C960 1.387 . S
C961 H981 0.931 . S
C962 C959 1.487 . S
C962 C969 1.399 . S
C962 N987 1.343 . S
C963 C964 1.384 . S
C963 C965 1.384 . S
C963 H982 0.931 . S
C964 C963 1.384 . S
C964 C967 1.382 . S
C965 C963 1.384 . S
C965 C966 1.381 . S
C965 H983 0.930 . S
C966 C965 1.381 . S
C966 C968 1.381 . S
C966 C969 1.487 . S
C967 C964 1.382 . S
C967 C968 1.387 . S
C967 H984 0.930 . S
C968 C966 1.381 . S
C968 C967 1.387 . S
C968 H985 0.931 . S
C969 C962 1.399 . S
C969 C966 1.487 . S
C969 N986 1.343 . S
H970 C942 0.931 . S
H971 C944 0.930 . S
H972 C946 0.930 . S
H973 C947 0.931 . S
H974 C949 0.931 . S
H975 C951 0.930 . S
H976 C953 0.930 . S
H977 C954 0.931 . S
H978 C956 0.931 . S
H979 C958 0.930 . S
H980 C960 0.930 . S
H981 C961 0.931 . S
H982 C963 0.931 . S
H983 C965 0.930 . S
H984 C967 0.930 . S
H985 C968 0.931 . S
N986 C948 1.343 . S
N986 C969 1.343 . S
N987 C955 1.343 . S
N987 C962 1.343 . S
C988 C989 1.384 . S
C988 C990 1.384 . S
C988 H1016 0.931 . S
C989 C988 1.384 . S
C989 C992 1.382 . S
C990 C988 1.384 . S
C990 C991 1.381 . S
C990 H1017 0.930 . S
C991 C990 1.381 . S
C991 C993 1.381 . S
C991 C994 1.487 . S
C992 C989 1.382 . S
C992 C993 1.387 . S
C992 H1018 0.930 . S
C993 C991 1.381 . S
C993 C992 1.387 . S
C993 H1019 0.931 . S
C994 C991 1.487 . S
C994 C1001 1.399 . S
C994 N1032 1.343 . S
C995 C996 1.384 . S
C995 C997 1.384 . S
C995 H1020 0.931 . S
C996 C995 1.384 . S
C996 C999 1.382 . S
C997 C995 1.384 . S
C997 C998 1.381 . S
C997 H1021 0.930 . S
C998 C997 1.381 . S
C998 C1000 1.381 . S
C998 C1001 1.487 . S
C999 C996 1.382 . S
C999 C1000 1.387 . S
C999 H1022 0.930 . S
C1000 C998 1.381 . S
C1000 C999 1.387 . S
C1000 H1023 0.931 . S
C1001 C994 1.399 . S
C1001 C998 1.487 . S
C1001 N1033 1.343 . S
C1002 C1003 1.384 . S
C1002 C1004 1.384 . S
C1002 H1024 0.931 . S
C1003 C1002 1.384 . S
C1003 C1006 1.382 . S
C1004 C1002 1.384 . S
C1004 C1005 1.381 . S
C1004 H1025 0.930 . S
C1005 C1004 1.381 . S
C1005 C1007 1.381 . S
C1005 C1008 1.487 . S
C1006 C1003 1.382 . S
C1006 C1007 1.387 . S
C1006 H1026 0.930 . S
C1007 C1005 1.381 . S
C1007 C1006 1.387 . S
C1007 H1027 0.931 . S
C1008 C1005 1.487 . S
C1008 C1015 1.399 . S
C1008 N1033 1.343 . S
C1009 C1010 1.384 . S
C1009 C1011 1.384 . S
C1009 H1028 0.931 . S
C1010 C1009 1.384 . S
C1010 C1013 1.382 . S
C1011 C1009 1.384 . S
C1011 C1012 1.381 . S
C1011 H1029 0.930 . S
C1012 C1011 1.381 . S
C1012 C1014 1.381 . S
C1012 C1015 1.487 . S
C1013 C1010 1.382 . S
C1013 C1014 1.387 . S
C1013 H1030 0.930 . S
C1014 C1012 1.381 . S
C1014 C1013 1.387 . S
C1014 H1031 0.931 . S
C1015 C1008 1.399 . S
C1015 C1012 1.487 . S
C1015 N1032 1.343 . S
H1016 C988 0.931 . S
H1017 C990 0.930 . S
H1018 C992 0.930 . S
H1019 C993 0.931 . S
H1020 C995 0.931 . S
H1021 C997 0.930 . S
H1022 C999 0.930 . S
H1023 C1000 0.931 . S
H1024 C1002 0.931 . S
H1025 C1004 0.930 . S
H1026 C1006 0.930 . S
H1027 C1007 0.931 . S
H1028 C1009 0.931 . S
H1029 C1011 0.930 . S
H1030 C1013 0.930 . S
H1031 C1014 0.931 . S
N1032 C994 1.343 . S
N1032 C1015 1.343 . S
N1033 C1001 1.343 . S
N1033 C1008 1.343 . S
C1034 C1035 1.384 . S
C1034 C1036 1.384 . S
C1034 H1062 0.931 . S
C1035 C1034 1.384 . S
C1035 C1038 1.382 . S
C1036 C1034 1.384 . S
C1036 C1037 1.381 . S
C1036 H1063 0.930 . S
C1037 C1036 1.381 . S
C1037 C1039 1.381 . S
C1037 C1040 1.487 . S
C1038 C1035 1.382 . S
C1038 C1039 1.387 . S
C1038 H1064 0.930 . S
C1039 C1037 1.381 . S
C1039 C1038 1.387 . S
C1039 H1065 0.931 . S
C1040 C1037 1.487 . S
C1040 C1047 1.399 . S
C1040 N1078 1.343 . S
C1041 C1042 1.384 . S
C1041 C1043 1.384 . S
C1041 H1066 0.931 . S
C1042 C1041 1.384 . S
C1042 C1045 1.382 . S
C1043 C1041 1.384 . S
C1043 C1044 1.381 . S
C1043 H1067 0.930 . S
C1044 C1043 1.381 . S
C1044 C1046 1.381 . S
C1044 C1047 1.487 . S
C1045 C1042 1.382 . S
C1045 C1046 1.387 . S
C1045 H1068 0.930 . S
C1046 C1044 1.381 . S
C1046 C1045 1.387 . S
C1046 H1069 0.931 . S
C1047 C1040 1.399 . S
C1047 C1044 1.487 . S
C1047 N1079 1.343 . S
C1048 C1049 1.384 . S
C1048 C1050 1.384 . S
C1048 H1070 0.931 . S
C1049 C1048 1.384 . S
C1049 C1052 1.382 . S
C1050 C1048 1.384 . S
C1050 C1051 1.381 . S
C1050 H1071 0.930 . S
C1051 C1050 1.381 . S
C1051 C1053 1.381 . S
C1051 C1054 1.487 . S
C1052 C1049 1.382 . S
C1052 C1053 1.387 . S
C1052 H1072 0.930 . S
C1053 C1051 1.381 . S
C1053 C1052 1.387 . S
C1053 H1073 0.931 . S
C1054 C1051 1.487 . S
C1054 C1061 1.399 . S
C1054 N1079 1.343 . S
C1055 C1056 1.384 . S
C1055 C1057 1.384 . S
C1055 H1074 0.931 . S
C1056 C1055 1.384 . S
C1056 C1059 1.382 . S
C1057 C1055 1.384 . S
C1057 C1058 1.381 . S
C1057 H1075 0.930 . S
C1058 C1057 1.381 . S
C1058 C1060 1.381 . S
C1058 C1061 1.487 . S
C1059 C1056 1.382 . S
C1059 C1060 1.387 . S
C1059 H1076 0.930 . S
C1060 C1058 1.381 . S
C1060 C1059 1.387 . S
C1060 H1077 0.931 . S
C1061 C1054 1.399 . S
C1061 C1058 1.487 . S
C1061 N1078 1.343 . S
H1062 C1034 0.931 . S
H1063 C1036 0.930 . S
H1064 C1038 0.930 . S
H1065 C1039 0.931 . S
H1066 C1041 0.931 . S
H1067 C1043 0.930 . S
H1068 C1045 0.930 . S
H1069 C1046 0.931 . S
H1070 C1048 0.931 . S
H1071 C1050 0.930 . S
H1072 C1052 0.930 . S
H1073 C1053 0.931 . S
H1074 C1055 0.931 . S
H1075 C1057 0.930 . S
H1076 C1059 0.930 . S
H1077 C1060 0.931 . S
N1078 C1040 1.343 . S
N1078 C1061 1.343 . S
N1079 C1047 1.343 . S
N1079 C1054 1.343 . S
H1080 C1092 0.930 . S
H1081 C1094 0.930 . S
H1082 C1095 0.930 . S
H1083 C1099 0.959 . S
H1084 C1099 0.959 . S
H1085 C1099 0.961 . S
H1086 C1100 0.948 . S
H1087 C1100 0.974 . S
H1088 C1100 0.932 1_455 S
H1089 C1103 0.929 . S
H1090 C1104 0.931 . S
H1091 C1106 0.930 . S
C1092 H1080 0.930 . S
C1092 C1093 1.399 . S
C1092 C1097 1.399 . S
C1093 C1092 1.399 . S
C1093 C1094 1.376 1_655 S
C1094 H1081 0.930 . S
C1094 C1093 1.376 1_455 S
C1094 C1095 1.388 . S
C1095 H1082 0.930 . S
C1095 C1094 1.388 . S
C1095 C1096 1.390 . S
C1096 C1095 1.390 . S
C1096 C1097 1.394 1_455 S
C1096 C1102 1.465 . S
C1097 C1092 1.399 . S
C1097 C1096 1.394 1_655 S
C1097 C1098 1.516 . S
C1098 C1097 1.516 . S
C1098 C1099 1.502 . S
C1098 C1100 1.588 . S
C1098 C1101 1.526 . S
C1099 H1083 0.959 . S
C1099 H1084 0.959 . S
C1099 H1085 0.961 . S
C1099 C1098 1.502 . S
C1100 H1086 0.948 . S
C1100 H1087 0.974 . S
C1100 H1088 0.932 1_655 S
C1100 C1098 1.588 . S
C1101 C1098 1.526 . S
C1101 C1102 1.396 1_655 S
C1101 C1106 1.390 . S
C1102 C1096 1.465 . S
C1102 C1101 1.396 1_455 S
C1102 C1103 1.399 . S
C1103 H1089 0.929 . S
C1103 C1102 1.399 . S
C1103 C1104 1.385 . S
C1104 H1090 0.931 . S
C1104 C1103 1.385 . S
C1104 C1105 1.389 1_455 S
C1105 C1104 1.389 1_655 S
C1105 C1106 1.387 . S
C1106 H1091 0.930 . S
C1106 C1101 1.390 . S
C1106 C1105 1.387 . S
H1107 C1119 0.930 . S
H1108 C1121 0.930 . S
H1109 C1122 0.930 . S
H1110 C1126 0.959 . S
H1111 C1126 0.959 . S
H1112 C1126 0.961 . S
H1113 C1127 0.960 . S
H1114 C1127 0.961 . S
H1115 C1127 0.959 . S
H1116 C1130 0.929 . S
H1117 C1131 0.931 . S
H1118 C1133 0.930 . S
C1119 H1107 0.930 . S
C1119 C1120 1.399 . S
C1119 C1124 1.399 . S
C1120 C1119 1.399 . S
C1120 C1121 1.376 . S
C1121 H1108 0.930 . S
C1121 C1120 1.376 . S
C1121 C1122 1.388 . S
C1122 H1109 0.930 . S
C1122 C1121 1.388 . S
C1122 C1123 1.390 . S
C1123 C1122 1.390 . S
C1123 C1124 1.394 . S
C1123 C1129 1.465 . S
C1124 C1119 1.399 . S
C1124 C1123 1.394 . S
C1124 C1125 1.516 . S
C1125 C1124 1.516 . S
C1125 C1126 1.502 . S
C1125 C1127 1.561 . S
C1125 C1128 1.526 . S
C1126 H1110 0.959 . S
C1126 H1111 0.959 . S
C1126 H1112 0.961 . S
C1126 C1125 1.502 . S
C1127 H1113 0.960 . S
C1127 H1114 0.961 . S
C1127 H1115 0.959 . S
C1127 C1125 1.561 . S
C1128 C1125 1.526 . S
C1128 C1129 1.396 . S
C1128 C1133 1.390 . S
C1129 C1123 1.465 . S
C1129 C1128 1.396 . S
C1129 C1130 1.399 . S
C1130 H1116 0.929 . S
C1130 C1129 1.399 . S
C1130 C1131 1.385 . S
C1131 H1117 0.931 . S
C1131 C1130 1.385 . S
C1131 C1132 1.389 . S
C1132 C1131 1.389 . S
C1132 C1133 1.387 . S
C1133 H1118 0.930 . S
C1133 C1128 1.390 . S
C1133 C1132 1.387 . S
H1134 C1146 0.930 . S
H1135 C1148 0.930 . S
H1136 C1149 0.930 . S
H1137 C1153 0.959 . S
H1138 C1153 0.959 . S
H1139 C1153 0.961 . S
H1140 C1154 0.960 . S
H1141 C1154 0.961 . S
H1142 C1154 0.959 . S
H1143 C1157 0.929 . S
H1144 C1158 0.931 . S
H1145 C1160 0.930 . S
C1146 H1134 0.930 . S
C1146 C1147 1.399 . S
C1146 C1151 1.399 . S
C1147 C1146 1.399 . S
C1147 C1148 1.376 1_545 S
C1148 H1135 0.930 . S
C1148 C1147 1.376 1_565 S
C1148 C1149 1.388 . S
C1149 H1136 0.930 . S
C1149 C1148 1.388 . S
C1149 C1150 1.388 . S
C1150 C1149 1.388 . S
C1150 C1151 1.400 1_565 S
C1150 C1156 1.462 . S
C1151 C1146 1.399 . S
C1151 C1150 1.400 1_545 S
C1151 C1152 1.516 . S
C1152 C1151 1.516 . S
C1152 C1153 1.502 . S
C1152 C1154 1.561 . S
C1152 C1155 1.526 . S
C1153 H1137 0.959 . S
C1153 H1138 0.959 . S
C1153 H1139 0.961 . S
C1153 C1152 1.502 . S
C1154 H1140 0.960 . S
C1154 H1141 0.961 . S
C1154 H1142 0.959 . S
C1154 C1152 1.561 . S
C1155 C1152 1.526 . S
C1155 C1156 1.396 1_545 S
C1155 C1160 1.390 . S
C1156 C1150 1.462 . S
C1156 C1155 1.396 1_565 S
C1156 C1157 1.399 . S
C1157 H1143 0.929 . S
C1157 C1156 1.399 . S
C1157 C1158 1.385 . S
C1158 H1144 0.931 . S
C1158 C1157 1.385 . S
C1158 C1159 1.389 1_565 S
C1159 C1158 1.389 1_545 S
C1159 C1160 1.387 . S
C1160 H1145 0.930 . S
C1160 C1155 1.390 . S
C1160 C1159 1.387 . S
H1161 C1173 0.930 . S
H1162 C1175 0.930 . S
H1163 C1176 0.930 . S
H1164 C1180 0.959 . S
H1165 C1180 0.959 . S
H1166 C1180 0.961 . S
H1167 C1181 0.960 . S
H1168 C1181 0.961 . S
H1169 C1181 0.959 . S
H1170 C1184 0.929 . S
H1171 C1185 0.931 . S
H1172 C1187 0.930 . S
C1173 H1161 0.930 . S
C1173 C1174 1.399 . S
C1173 C1178 1.399 . S
C1174 C1173 1.399 . S
C1174 C1175 1.376 1_565 S
C1175 H1162 0.930 . S
C1175 C1174 1.376 1_545 S
C1175 C1176 1.388 . S
C1176 H1163 0.930 . S
C1176 C1175 1.388 . S
C1176 C1177 1.416 . S
C1177 C1176 1.416 . S
C1177 C1178 1.371 1_545 S
C1177 C1183 1.456 . S
C1178 C1173 1.399 . S
C1178 C1177 1.371 1_565 S
C1178 C1179 1.516 . S
C1179 C1178 1.516 . S
C1179 C1180 1.502 . S
C1179 C1181 1.561 . S
C1179 C1182 1.526 . S
C1180 H1164 0.959 . S
C1180 H1165 0.959 . S
C1180 H1166 0.961 . S
C1180 C1179 1.502 . S
C1181 H1167 0.960 . S
C1181 H1168 0.961 . S
C1181 H1169 0.959 . S
C1181 C1179 1.561 . S
C1182 C1179 1.526 . S
C1182 C1183 1.396 1_565 S
C1182 C1187 1.390 . S
C1183 C1177 1.456 . S
C1183 C1182 1.396 1_545 S
C1183 C1184 1.399 . S
C1184 H1170 0.929 . S
C1184 C1183 1.399 . S
C1184 C1185 1.385 . S
C1185 H1171 0.931 . S
C1185 C1184 1.385 . S
C1185 C1186 1.389 1_545 S
C1186 C1185 1.389 1_565 S
C1186 C1187 1.387 . S
C1187 H1172 0.930 . S
C1187 C1182 1.390 . S
C1187 C1186 1.387 . S
H1188 C1200 0.930 . S
H1189 C1202 0.930 . S
H1190 C1203 0.930 . S
H1191 C1207 0.999 . S
H1192 C1207 0.972 . S
H1193 C1207 0.938 1_455 S
H1194 C1208 0.960 . S
H1195 C1208 0.961 . S
H1196 C1208 0.959 . S
H1197 C1211 0.929 . S
H1198 C1212 0.931 . S
H1199 C1214 0.930 . S
C1200 H1188 0.930 . S
C1200 C1201 1.399 . S
C1200 C1205 1.399 . S
C1201 C1200 1.399 . S
C1201 C1202 1.376 . S
C1202 H1189 0.930 . S
C1202 C1201 1.376 . S
C1202 C1203 1.388 . S
C1203 H1190 0.930 . S
C1203 C1202 1.388 . S
C1203 C1204 1.390 . S
C1204 C1203 1.390 . S
C1204 C1205 1.394 . S
C1204 C1210 1.465 . S
C1205 C1200 1.399 . S
C1205 C1204 1.394 . S
C1205 C1206 1.516 . S
C1206 C1205 1.516 . S
C1206 C1207 1.451 1_455 S
C1206 C1208 1.561 . S
C1206 C1209 1.526 . S
C1207 H1191 0.999 . S
C1207 H1192 0.972 . S
C1207 H1193 0.938 1_655 S
C1207 C1206 1.451 1_655 S
C1208 H1194 0.960 . S
C1208 H1195 0.961 . S
C1208 H1196 0.959 . S
C1208 C1206 1.561 . S
C1209 C1206 1.526 . S
C1209 C1210 1.396 . S
C1209 C1214 1.390 . S
C1210 C1204 1.465 . S
C1210 C1209 1.396 . S
C1210 C1211 1.399 . S
C1211 H1197 0.929 . S
C1211 C1210 1.399 . S
C1211 C1212 1.385 . S
C1212 H1198 0.931 . S
C1212 C1211 1.385 . S
C1212 C1213 1.389 . S
C1213 C1212 1.389 . S
C1213 C1214 1.387 . S
C1214 H1199 0.930 . S
C1214 C1209 1.390 . S
C1214 C1213 1.387 . S
H1215 C1227 0.930 . S
H1216 C1229 0.930 . S
H1217 C1230 0.930 . S
H1218 C1234 0.959 . S
H1219 C1234 0.959 . S
H1220 C1234 0.961 . S
H1221 C1235 0.960 . S
H1222 C1235 0.961 . S
H1223 C1235 0.959 . S
H1224 C1238 0.929 . S
H1225 C1239 0.931 . S
H1226 C1241 0.930 . S
C1227 H1215 0.930 . S
C1227 C1228 1.399 . S
C1227 C1232 1.399 . S
C1228 C1227 1.399 . S
C1228 C1229 1.376 . S
C1229 H1216 0.930 . S
C1229 C1228 1.376 . S
C1229 C1230 1.388 . S
C1230 H1217 0.930 . S
C1230 C1229 1.388 . S
C1230 C1231 1.390 . S
C1231 C1230 1.390 . S
C1231 C1232 1.394 . S
C1231 C1237 1.465 . S
C1232 C1227 1.399 . S
C1232 C1231 1.394 . S
C1232 C1233 1.516 . S
C1233 C1232 1.516 . S
C1233 C1234 1.502 . S
C1233 C1235 1.561 . S
C1233 C1236 1.526 . S
C1234 H1218 0.959 . S
C1234 H1219 0.959 . S
C1234 H1220 0.961 . S
C1234 C1233 1.502 . S
C1235 H1221 0.960 . S
C1235 H1222 0.961 . S
C1235 H1223 0.959 . S
C1235 C1233 1.561 . S
C1236 C1233 1.526 . S
C1236 C1237 1.396 . S
C1236 C1241 1.390 . S
C1237 C1231 1.465 . S
C1237 C1236 1.396 . S
C1237 C1238 1.399 . S
C1238 H1224 0.929 . S
C1238 C1237 1.399 . S
C1238 C1239 1.385 . S
C1239 H1225 0.931 . S
C1239 C1238 1.385 . S
C1239 C1240 1.389 . S
C1240 C1239 1.389 . S
C1240 C1241 1.387 . S
C1241 H1226 0.930 . S
C1241 C1236 1.390 . S
C1241 C1240 1.387 . S
H1242 C1254 0.930 . S
H1243 C1256 0.930 . S
H1244 C1257 0.930 . S
H1245 C1261 0.959 . S
H1246 C1261 0.959 . S
H1247 C1261 0.961 . S
H1248 C1262 0.960 . S
H1249 C1262 0.961 . S
H1250 C1262 0.959 . S
H1251 C1265 0.929 . S
H1252 C1266 0.931 . S
H1253 C1268 0.930 . S
C1254 H1242 0.930 . S
C1254 C1255 1.399 . S
C1254 C1259 1.399 . S
C1255 C1254 1.399 . S
C1255 C1256 1.376 1_455 S
C1256 H1243 0.930 . S
C1256 C1255 1.376 1_655 S
C1256 C1257 1.388 . S
C1257 H1244 0.930 . S
C1257 C1256 1.388 . S
C1257 C1258 1.434 . S
C1258 C1257 1.434 . S
C1258 C1259 1.357 1_655 S
C1258 C1264 1.450 . S
C1259 C1254 1.399 . S
C1259 C1258 1.357 1_455 S
C1259 C1260 1.516 . S
C1260 C1259 1.516 . S
C1260 C1261 1.502 . S
C1260 C1262 1.561 . S
C1260 C1263 1.526 . S
C1261 H1245 0.959 . S
C1261 H1246 0.959 . S
C1261 H1247 0.961 . S
C1261 C1260 1.502 . S
C1262 H1248 0.960 . S
C1262 H1249 0.961 . S
C1262 H1250 0.959 . S
C1262 C1260 1.561 . S
C1263 C1260 1.526 . S
C1263 C1264 1.396 1_455 S
C1263 C1268 1.390 . S
C1264 C1258 1.450 . S
C1264 C1263 1.396 1_655 S
C1264 C1265 1.399 . S
C1265 H1251 0.929 . S
C1265 C1264 1.399 . S
C1265 C1266 1.385 . S
C1266 H1252 0.931 . S
C1266 C1265 1.385 . S
C1266 C1267 1.389 1_655 S
C1267 C1266 1.389 1_455 S
C1267 C1268 1.387 . S
C1268 H1253 0.930 . S
C1268 C1263 1.390 . S
C1268 C1267 1.387 . S
H1269 C1281 0.930 . S
H1270 C1283 0.930 . S
H1271 C1284 0.930 . S
H1272 C1288 0.959 . S
H1273 C1288 0.959 . S
H1274 C1288 0.961 . S
H1275 C1289 0.960 . S
H1276 C1289 0.961 . S
H1277 C1289 0.959 . S
H1278 C1292 0.929 . S
H1279 C1293 0.931 . S
H1280 C1295 0.930 . S
C1281 H1269 0.930 . S
C1281 C1282 1.399 . S
C1281 C1286 1.399 . S
C1282 C1281 1.399 . S
C1282 C1283 1.376 . S
C1283 H1270 0.930 . S
C1283 C1282 1.376 . S
C1283 C1284 1.388 . S
C1284 H1271 0.930 . S
C1284 C1283 1.388 . S
C1284 C1285 1.390 . S
C1285 C1284 1.390 . S
C1285 C1286 1.394 . S
C1285 C1291 1.465 . S
C1286 C1281 1.399 . S
C1286 C1285 1.394 . S
C1286 C1287 1.516 . S
C1287 C1286 1.516 . S
C1287 C1288 1.502 . S
C1287 C1289 1.561 . S
C1287 C1290 1.526 . S
C1288 H1272 0.959 . S
C1288 H1273 0.959 . S
C1288 H1274 0.961 . S
C1288 C1287 1.502 . S
C1289 H1275 0.960 . S
C1289 H1276 0.961 . S
C1289 H1277 0.959 . S
C1289 C1287 1.561 . S
C1290 C1287 1.526 . S
C1290 C1291 1.396 . S
C1290 C1295 1.390 . S
C1291 C1285 1.465 . S
C1291 C1290 1.396 . S
C1291 C1292 1.399 . S
C1292 H1278 0.929 . S
C1292 C1291 1.399 . S
C1292 C1293 1.385 . S
C1293 H1279 0.931 . S
C1293 C1292 1.385 . S
C1293 C1294 1.389 . S
C1294 C1293 1.389 . S
C1294 C1295 1.387 . S
C1295 H1280 0.930 . S
C1295 C1290 1.390 . S
C1295 C1294 1.387 . S
H1296 C1308 0.930 . S
H1297 C1310 0.930 . S
H1298 C1311 0.930 . S
H1299 C1315 0.959 . S
H1300 C1315 0.959 . S
H1301 C1315 0.961 . S
H1302 C1316 0.960 . S
H1303 C1316 0.961 . S
H1304 C1316 0.959 . S
H1305 C1319 0.929 . S
H1306 C1320 0.931 . S
H1307 C1322 0.930 . S
C1308 H1296 0.930 . S
C1308 C1309 1.399 1_545 S
C1308 C1313 1.399 . S
C1309 C1308 1.399 1_565 S
C1309 C1310 1.376 . S
C1310 H1297 0.930 . S
C1310 C1309 1.376 . S
C1310 C1311 1.388 . S
C1311 H1298 0.930 . S
C1311 C1310 1.388 . S
C1311 C1312 1.390 . S
C1312 C1311 1.390 . S
C1312 C1313 1.394 1_565 S
C1312 C1318 1.465 . S
C1313 C1308 1.399 . S
C1313 C1312 1.394 1_545 S
C1313 C1314 1.516 . S
C1314 C1313 1.516 . S
C1314 C1315 1.502 . S
C1314 C1316 1.561 . S
C1314 C1317 1.526 . S
C1315 H1299 0.959 . S
C1315 H1300 0.959 . S
C1315 H1301 0.961 . S
C1315 C1314 1.502 . S
C1316 H1302 0.960 . S
C1316 H1303 0.961 . S
C1316 H1304 0.959 . S
C1316 C1314 1.561 . S
C1317 C1314 1.526 . S
C1317 C1318 1.396 1_545 S
C1317 C1322 1.390 . S
C1318 C1312 1.465 . S
C1318 C1317 1.396 1_565 S
C1318 C1319 1.399 . S
C1319 H1305 0.929 . S
C1319 C1318 1.399 . S
C1319 C1320 1.385 . S
C1320 H1306 0.931 . S
C1320 C1319 1.385 . S
C1320 C1321 1.389 . S
C1321 C1320 1.389 . S
C1321 C1322 1.387 1_565 S
C1322 H1307 0.930 . S
C1322 C1317 1.390 . S
C1322 C1321 1.387 1_545 S
H1323 C1335 0.930 1_565 S
H1324 C1337 0.930 . S
H1325 C1338 0.930 . S
H1326 C1342 0.959 . S
H1327 C1342 0.959 . S
H1328 C1342 0.961 . S
H1329 C1343 0.960 . S
H1330 C1343 0.961 . S
H1331 C1343 0.959 . S
H1332 C1346 0.929 . S
H1333 C1347 0.931 . S
H1334 C1349 0.930 . S
C1335 H1323 0.930 1_545 S
C1335 C1336 1.399 . S
C1335 C1340 1.399 . S
C1336 C1335 1.399 . S
C1336 C1337 1.376 . S
C1337 H1324 0.930 . S
C1337 C1336 1.376 . S
C1337 C1338 1.388 . S
C1338 H1325 0.930 . S
C1338 C1337 1.388 . S
C1338 C1339 1.390 . S
C1339 C1338 1.390 . S
C1339 C1340 1.394 . S
C1339 C1345 1.465 . S
C1340 C1335 1.399 . S
C1340 C1339 1.394 . S
C1340 C1341 1.516 1_545 S
C1341 C1340 1.516 1_565 S
C1341 C1342 1.502 . S
C1341 C1343 1.561 . S
C1341 C1344 1.528 1_565 S
C1342 H1326 0.959 . S
C1342 H1327 0.959 . S
C1342 H1328 0.961 . S
C1342 C1341 1.502 . S
C1343 H1329 0.960 . S
C1343 H1330 0.961 . S
C1343 H1331 0.959 . S
C1343 C1341 1.561 . S
C1344 C1341 1.528 1_545 S
C1344 C1345 1.394 . S
C1344 C1349 1.389 1_545 S
C1345 C1339 1.465 . S
C1345 C1344 1.394 . S
C1345 C1346 1.399 . S
C1346 H1332 0.929 . S
C1346 C1345 1.399 . S
C1346 C1347 1.385 . S
C1347 H1333 0.931 . S
C1347 C1346 1.385 . S
C1347 C1348 1.389 . S
C1348 C1347 1.389 . S
C1348 C1349 1.387 1_545 S
C1349 H1334 0.930 . S
C1349 C1344 1.389 1_565 S
C1349 C1348 1.387 1_565 S
H1350 C1362 0.930 . S
H1351 C1364 0.930 . S
H1352 C1365 0.930 . S
H1353 C1369 0.959 . S
H1354 C1369 0.959 . S
H1355 C1369 0.961 . S
H1356 C1370 0.960 . S
H1357 C1370 0.961 . S
H1358 C1370 0.959 . S
H1359 C1373 0.929 . S
H1360 C1374 0.931 . S
H1361 C1376 0.930 . S
C1362 H1350 0.930 . S
C1362 C1363 1.399 . S
C1362 C1367 1.399 . S
C1363 C1362 1.399 . S
C1363 C1364 1.376 . S
C1364 H1351 0.930 . S
C1364 C1363 1.376 . S
C1364 C1365 1.388 . S
C1365 H1352 0.930 . S
C1365 C1364 1.388 . S
C1365 C1366 1.390 . S
C1366 C1365 1.390 . S
C1366 C1367 1.394 . S
C1366 C1372 1.465 . S
C1367 C1362 1.399 . S
C1367 C1366 1.394 . S
C1367 C1368 1.516 . S
C1368 C1367 1.516 . S
C1368 C1369 1.502 1_655 S
C1368 C1370 1.561 . S
C1368 C1371 1.526 . S
C1369 H1353 0.959 . S
C1369 H1354 0.959 . S
C1369 H1355 0.961 . S
C1369 C1368 1.502 1_455 S
C1370 H1356 0.960 . S
C1370 H1357 0.961 . S
C1370 H1358 0.959 . S
C1370 C1368 1.561 . S
C1371 C1368 1.526 . S
C1371 C1372 1.396 . S
C1371 C1376 1.390 . S
C1372 C1366 1.465 . S
C1372 C1371 1.396 . S
C1372 C1373 1.399 . S
C1373 H1359 0.929 . S
C1373 C1372 1.399 . S
C1373 C1374 1.385 . S
C1374 H1360 0.931 . S
C1374 C1373 1.385 . S
C1374 C1375 1.389 . S
C1375 C1374 1.389 . S
C1375 C1376 1.387 . S
C1376 H1361 0.930 . S
C1376 C1371 1.390 . S
C1376 C1375 1.387 . S
H1377 C1389 0.930 . S
H1378 C1391 0.930 . S
H1379 C1392 0.930 . S
H1380 C1396 0.959 . S
H1381 C1396 0.959 . S
H1382 C1396 0.961 . S
H1383 C1397 0.960 . S
H1384 C1397 0.961 . S
H1385 C1397 0.959 . S
H1386 C1400 0.929 . S
H1387 C1401 0.931 . S
H1388 C1403 0.930 . S
C1389 H1377 0.930 . S
C1389 C1390 1.399 . S
C1389 C1394 1.399 . S
C1390 C1389 1.399 . S
C1390 C1391 1.376 . S
C1391 H1378 0.930 . S
C1391 C1390 1.376 . S
C1391 C1392 1.388 . S
C1392 H1379 0.930 . S
C1392 C1391 1.388 . S
C1392 C1393 1.390 . S
C1393 C1392 1.390 . S
C1393 C1394 1.394 . S
C1393 C1399 1.465 . S
C1394 C1389 1.399 . S
C1394 C1393 1.394 . S
C1394 C1395 1.516 . S
C1395 C1394 1.516 . S
C1395 C1396 1.502 . S
C1395 C1397 1.561 . S
C1395 C1398 1.526 . S
C1396 H1380 0.959 . S
C1396 H1381 0.959 . S
C1396 H1382 0.961 . S
C1396 C1395 1.502 . S
C1397 H1383 0.960 . S
C1397 H1384 0.961 . S
C1397 H1385 0.959 . S
C1397 C1395 1.561 . S
C1398 C1395 1.526 . S
C1398 C1399 1.396 . S
C1398 C1403 1.390 . S
C1399 C1393 1.465 . S
C1399 C1398 1.396 . S
C1399 C1400 1.399 . S
C1400 H1386 0.929 . S
C1400 C1399 1.399 . S
C1400 C1401 1.385 . S
C1401 H1387 0.931 . S
C1401 C1400 1.385 . S
C1401 C1402 1.389 . S
C1402 C1401 1.389 . S
C1402 C1403 1.387 . S
C1403 H1388 0.930 . S
C1403 C1398 1.390 . S
C1403 C1402 1.387 . S
H1404 C1416 0.930 . S
H1405 C1418 0.930 . S
H1406 C1419 0.930 . S
H1407 C1423 0.959 . S
H1408 C1423 0.959 . S
H1409 C1423 0.961 . S
H1410 C1424 0.960 . S
H1411 C1424 0.961 . S
H1412 C1424 0.959 . S
H1413 C1427 0.929 . S
H1414 C1428 0.931 . S
H1415 C1430 0.930 . S
C1416 H1404 0.930 . S
C1416 C1417 1.399 . S
C1416 C1421 1.399 . S
C1417 C1416 1.399 . S
C1417 C1418 1.376 . S
C1418 H1405 0.930 . S
C1418 C1417 1.376 . S
C1418 C1419 1.388 . S
C1419 H1406 0.930 . S
C1419 C1418 1.388 . S
C1419 C1420 1.390 . S
C1420 C1419 1.390 . S
C1420 C1421 1.394 . S
C1420 C1426 1.465 . S
C1421 C1416 1.399 . S
C1421 C1420 1.394 . S
C1421 C1422 1.516 . S
C1422 C1421 1.516 . S
C1422 C1423 1.502 . S
C1422 C1424 1.561 . S
C1422 C1425 1.526 . S
C1423 H1407 0.959 . S
C1423 H1408 0.959 . S
C1423 H1409 0.961 . S
C1423 C1422 1.502 . S
C1424 H1410 0.960 . S
C1424 H1411 0.961 . S
C1424 H1412 0.959 . S
C1424 C1422 1.561 . S
C1425 C1422 1.526 . S
C1425 C1426 1.396 . S
C1425 C1430 1.390 . S
C1426 C1420 1.465 . S
C1426 C1425 1.396 . S
C1426 C1427 1.399 . S
C1427 H1413 0.929 . S
C1427 C1426 1.399 . S
C1427 C1428 1.385 . S
C1428 H1414 0.931 . S
C1428 C1427 1.385 . S
C1428 C1429 1.389 . S
C1429 C1428 1.389 . S
C1429 C1430 1.387 . S
C1430 H1415 0.930 . S
C1430 C1425 1.390 . S
C1430 C1429 1.387 . S
H1431 C1443 0.930 . S
H1432 C1445 0.930 . S
H1433 C1446 0.930 . S
H1434 C1450 0.959 . S
H1435 C1450 0.959 . S
H1436 C1450 0.961 . S
H1437 C1451 0.960 . S
H1438 C1451 0.961 . S
H1439 C1451 0.959 . S
H1440 C1454 0.929 . S
H1441 C1455 0.931 . S
H1442 C1457 0.930 . S
C1443 H1431 0.930 . S
C1443 C1444 1.399 . S
C1443 C1448 1.399 . S
C1444 C1443 1.399 . S
C1444 C1445 1.376 . S
C1445 H1432 0.930 . S
C1445 C1444 1.376 . S
C1445 C1446 1.388 . S
C1446 H1433 0.930 . S
C1446 C1445 1.388 . S
C1446 C1447 1.390 . S
C1447 C1446 1.390 . S
C1447 C1448 1.394 . S
C1447 C1453 1.465 . S
C1448 C1443 1.399 . S
C1448 C1447 1.394 . S
C1448 C1449 1.516 . S
C1449 C1448 1.516 . S
C1449 C1450 1.502 . S
C1449 C1451 1.561 . S
C1449 C1452 1.526 . S
C1450 H1434 0.959 . S
C1450 H1435 0.959 . S
C1450 H1436 0.961 . S
C1450 C1449 1.502 . S
C1451 H1437 0.960 . S
C1451 H1438 0.961 . S
C1451 H1439 0.959 . S
C1451 C1449 1.561 . S
C1452 C1449 1.526 . S
C1452 C1453 1.396 . S
C1452 C1457 1.390 . S
C1453 C1447 1.465 . S
C1453 C1452 1.396 . S
C1453 C1454 1.399 . S
C1454 H1440 0.929 . S
C1454 C1453 1.399 . S
C1454 C1455 1.385 . S
C1455 H1441 0.931 . S
C1455 C1454 1.385 . S
C1455 C1456 1.389 . S
C1456 C1455 1.389 . S
C1456 C1457 1.387 . S
C1457 H1442 0.930 . S
C1457 C1452 1.390 . S
C1457 C1456 1.387 . S
H1458 C1470 0.930 . S
H1459 C1472 0.930 . S
H1460 C1473 0.930 . S
H1461 C1477 0.959 . S
H1462 C1477 0.959 . S
H1463 C1477 0.961 . S
H1464 C1478 0.960 . S
H1465 C1478 0.961 . S
H1466 C1478 0.959 . S
H1467 C1481 0.929 . S
H1468 C1482 0.931 . S
H1469 C1484 0.930 . S
C1470 H1458 0.930 . S
C1470 C1471 1.399 . S
C1470 C1475 1.399 . S
C1471 C1470 1.399 . S
C1471 C1472 1.376 . S
C1472 H1459 0.930 . S
C1472 C1471 1.376 . S
C1472 C1473 1.388 . S
C1473 H1460 0.930 . S
C1473 C1472 1.388 . S
C1473 C1474 1.390 . S
C1474 C1473 1.390 . S
C1474 C1475 1.394 . S
C1474 C1480 1.465 . S
C1475 C1470 1.399 . S
C1475 C1474 1.394 . S
C1475 C1476 1.516 . S
C1476 C1475 1.516 . S
C1476 C1477 1.502 . S
C1476 C1478 1.561 . S
C1476 C1479 1.526 . S
C1477 H1461 0.959 . S
C1477 H1462 0.959 . S
C1477 H1463 0.961 . S
C1477 C1476 1.502 . S
C1478 H1464 0.960 . S
C1478 H1465 0.961 . S
C1478 H1466 0.959 . S
C1478 C1476 1.561 . S
C1479 C1476 1.526 . S
C1479 C1480 1.396 . S
C1479 C1484 1.390 . S
C1480 C1474 1.465 . S
C1480 C1479 1.396 . S
C1480 C1481 1.399 . S
C1481 H1467 0.929 . S
C1481 C1480 1.399 . S
C1481 C1482 1.385 . S
C1482 H1468 0.931 . S
C1482 C1481 1.385 . S
C1482 C1483 1.389 . S
C1483 C1482 1.389 . S
C1483 C1484 1.387 . S
C1484 H1469 0.930 . S
C1484 C1479 1.390 . S
C1484 C1483 1.387 . S
H1485 C1497 0.930 . S
H1486 C1499 0.930 . S
H1487 C1500 0.930 . S
H1488 C1504 0.959 . S
H1489 C1504 0.959 . S
H1490 C1504 0.961 . S
H1491 C1505 0.960 . S
H1492 C1505 0.961 . S
H1493 C1505 0.959 . S
H1494 C1508 0.929 . S
H1495 C1509 0.931 . S
H1496 C1511 0.930 . S
C1497 H1485 0.930 . S
C1497 C1498 1.399 . S
C1497 C1502 1.399 . S
C1498 C1497 1.399 . S
C1498 C1499 1.376 . S
C1499 H1486 0.930 . S
C1499 C1498 1.376 . S
C1499 C1500 1.388 . S
C1500 H1487 0.930 . S
C1500 C1499 1.388 . S
C1500 C1501 1.390 . S
C1501 C1500 1.390 . S
C1501 C1502 1.394 . S
C1501 C1507 1.465 . S
C1502 C1497 1.399 . S
C1502 C1501 1.394 . S
C1502 C1503 1.516 . S
C1503 C1502 1.516 . S
C1503 C1504 1.502 . S
C1503 C1505 1.561 . S
C1503 C1506 1.526 . S
C1504 H1488 0.959 . S
C1504 H1489 0.959 . S
C1504 H1490 0.961 . S
C1504 C1503 1.502 . S
C1505 H1491 0.960 . S
C1505 H1492 0.961 . S
C1505 H1493 0.959 . S
C1505 C1503 1.561 . S
C1506 C1503 1.526 . S
C1506 C1507 1.396 . S
C1506 C1511 1.390 . S
C1507 C1501 1.465 . S
C1507 C1506 1.396 . S
C1507 C1508 1.399 . S
C1508 H1494 0.929 . S
C1508 C1507 1.399 . S
C1508 C1509 1.385 . S
C1509 H1495 0.931 . S
C1509 C1508 1.385 . S
C1509 C1510 1.389 . S
C1510 C1509 1.389 . S
C1510 C1511 1.387 . S
C1511 H1496 0.930 . S
C1511 C1506 1.390 . S
C1511 C1510 1.387 . S
H1512 C1524 0.930 . S
H1513 C1526 0.930 . S
H1514 C1527 0.930 . S
H1515 C1531 0.959 . S
H1516 C1531 0.959 . S
H1517 C1531 0.961 . S
H1518 C1532 0.960 . S
H1519 C1532 0.961 . S
H1520 C1532 0.959 . S
H1521 C1535 0.929 . S
H1522 C1536 0.931 . S
H1523 C1538 0.930 . S
C1524 H1512 0.930 . S
C1524 C1525 1.399 . S
C1524 C1529 1.399 . S
C1525 C1524 1.399 . S
C1525 C1526 1.376 . S
C1526 H1513 0.930 . S
C1526 C1525 1.376 . S
C1526 C1527 1.388 . S
C1527 H1514 0.930 . S
C1527 C1526 1.388 . S
C1527 C1528 1.390 . S
C1528 C1527 1.390 . S
C1528 C1529 1.394 . S
C1528 C1534 1.465 . S
C1529 C1524 1.399 . S
C1529 C1528 1.394 . S
C1529 C1530 1.516 . S
C1530 C1529 1.516 . S
C1530 C1531 1.502 . S
C1530 C1532 1.561 . S
C1530 C1533 1.526 . S
C1531 H1515 0.959 . S
C1531 H1516 0.959 . S
C1531 H1517 0.961 . S
C1531 C1530 1.502 . S
C1532 H1518 0.960 . S
C1532 H1519 0.961 . S
C1532 H1520 0.959 . S
C1532 C1530 1.561 . S
C1533 C1530 1.526 . S
C1533 C1534 1.396 . S
C1533 C1538 1.390 . S
C1534 C1528 1.465 . S
C1534 C1533 1.396 . S
C1534 C1535 1.399 . S
C1535 H1521 0.929 . S
C1535 C1534 1.399 . S
C1535 C1536 1.385 . S
C1536 H1522 0.931 . S
C1536 C1535 1.385 . S
C1536 C1537 1.389 . S
C1537 C1536 1.389 . S
C1537 C1538 1.387 . S
C1538 H1523 0.930 . S
C1538 C1533 1.390 . S
C1538 C1537 1.387 . S
H1539 C1551 0.930 . S
H1540 C1553 0.930 . S
H1541 C1554 0.930 . S
H1542 C1558 0.959 . S
H1543 C1558 0.959 . S
H1544 C1558 0.961 . S
H1545 C1559 0.960 . S
H1546 C1559 0.961 . S
H1547 C1559 0.959 . S
H1548 C1562 0.929 . S
H1549 C1563 0.931 . S
H1550 C1565 0.930 . S
C1551 H1539 0.930 . S
C1551 C1552 1.399 . S
C1551 C1556 1.399 . S
C1552 C1551 1.399 . S
C1552 C1553 1.376 . S
C1553 H1540 0.930 . S
C1553 C1552 1.376 . S
C1553 C1554 1.388 . S
C1554 H1541 0.930 . S
C1554 C1553 1.388 . S
C1554 C1555 1.390 . S
C1555 C1554 1.390 . S
C1555 C1556 1.394 . S
C1555 C1561 1.465 . S
C1556 C1551 1.399 . S
C1556 C1555 1.394 . S
C1556 C1557 1.516 . S
C1557 C1556 1.516 . S
C1557 C1558 1.502 . S
C1557 C1559 1.561 . S
C1557 C1560 1.526 . S
C1558 H1542 0.959 . S
C1558 H1543 0.959 . S
C1558 H1544 0.961 . S
C1558 C1557 1.502 . S
C1559 H1545 0.960 . S
C1559 H1546 0.961 . S
C1559 H1547 0.959 . S
C1559 C1557 1.561 . S
C1560 C1557 1.526 . S
C1560 C1561 1.396 . S
C1560 C1565 1.390 . S
C1561 C1555 1.465 . S
C1561 C1560 1.396 . S
C1561 C1562 1.399 . S
C1562 H1548 0.929 . S
C1562 C1561 1.399 . S
C1562 C1563 1.385 . S
C1563 H1549 0.931 . S
C1563 C1562 1.385 . S
C1563 C1564 1.389 . S
C1564 C1563 1.389 . S
C1564 C1565 1.387 . S
C1565 H1550 0.930 . S
C1565 C1560 1.390 . S
C1565 C1564 1.387 . S
H1566 C1578 0.930 . S
H1567 C1580 0.930 . S
H1568 C1581 0.930 . S
H1569 C1585 0.959 . S
H1570 C1585 0.959 . S
H1571 C1585 0.961 . S
H1572 C1586 0.960 . S
H1573 C1586 0.961 . S
H1574 C1586 0.959 . S
H1575 C1589 0.929 . S
H1576 C1590 0.931 . S
H1577 C1592 0.930 . S
C1578 H1566 0.930 . S
C1578 C1579 1.399 . S
C1578 C1583 1.399 . S
C1579 C1578 1.399 . S
C1579 C1580 1.376 . S
C1580 H1567 0.930 . S
C1580 C1579 1.376 . S
C1580 C1581 1.388 . S
C1581 H1568 0.930 . S
C1581 C1580 1.388 . S
C1581 C1582 1.390 . S
C1582 C1581 1.390 . S
C1582 C1583 1.394 . S
C1582 C1588 1.465 . S
C1583 C1578 1.399 . S
C1583 C1582 1.394 . S
C1583 C1584 1.516 . S
C1584 C1583 1.516 . S
C1584 C1585 1.502 . S
C1584 C1586 1.561 . S
C1584 C1587 1.526 . S
C1585 H1569 0.959 . S
C1585 H1570 0.959 . S
C1585 H1571 0.961 . S
C1585 C1584 1.502 . S
C1586 H1572 0.960 . S
C1586 H1573 0.961 . S
C1586 H1574 0.959 . S
C1586 C1584 1.561 . S
C1587 C1584 1.526 . S
C1587 C1588 1.396 . S
C1587 C1592 1.390 . S
C1588 C1582 1.465 . S
C1588 C1587 1.396 . S
C1588 C1589 1.399 . S
C1589 H1575 0.929 . S
C1589 C1588 1.399 . S
C1589 C1590 1.385 . S
C1590 H1576 0.931 . S
C1590 C1589 1.385 . S
C1590 C1591 1.389 . S
C1591 C1590 1.389 . S
C1591 C1592 1.387 . S
C1592 H1577 0.930 . S
C1592 C1587 1.390 . S
C1592 C1591 1.387 . S
H1593 C1605 0.930 . S
H1594 C1607 0.930 . S
H1595 C1608 0.930 . S
H1596 C1612 0.959 . S
H1597 C1612 0.959 . S
H1598 C1612 0.961 . S
H1599 C1613 0.960 . S
H1600 C1613 0.961 . S
H1601 C1613 0.959 . S
H1602 C1616 0.929 . S
H1603 C1617 0.931 . S
H1604 C1619 0.930 . S
C1605 H1593 0.930 . S
C1605 C1606 1.399 . S
C1605 C1610 1.399 . S
C1606 C1605 1.399 . S
C1606 C1607 1.376 . S
C1607 H1594 0.930 . S
C1607 C1606 1.376 . S
C1607 C1608 1.388 . S
C1608 H1595 0.930 . S
C1608 C1607 1.388 . S
C1608 C1609 1.390 . S
C1609 C1608 1.390 . S
C1609 C1610 1.394 . S
C1609 C1615 1.465 . S
C1610 C1605 1.399 . S
C1610 C1609 1.394 . S
C1610 C1611 1.516 . S
C1611 C1610 1.516 . S
C1611 C1612 1.502 . S
C1611 C1613 1.561 . S
C1611 C1614 1.526 . S
C1612 H1596 0.959 . S
C1612 H1597 0.959 . S
C1612 H1598 0.961 . S
C1612 C1611 1.502 . S
C1613 H1599 0.960 . S
C1613 H1600 0.961 . S
C1613 H1601 0.959 . S
C1613 C1611 1.561 . S
C1614 C1611 1.526 . S
C1614 C1615 1.396 . S
C1614 C1619 1.390 . S
C1615 C1609 1.465 . S
C1615 C1614 1.396 . S
C1615 C1616 1.399 . S
C1616 H1602 0.929 . S
C1616 C1615 1.399 . S
C1616 C1617 1.385 . S
C1617 H1603 0.931 . S
C1617 C1616 1.385 . S
C1617 C1618 1.389 . S
C1618 C1617 1.389 . S
C1618 C1619 1.387 . S
C1619 H1604 0.930 . S
C1619 C1614 1.390 . S
C1619 C1618 1.387 . S
H1620 C1632 0.930 . S
H1621 C1634 0.930 . S
H1622 C1635 0.930 . S
H1623 C1639 0.959 . S
H1624 C1639 0.959 . S
H1625 C1639 0.961 . S
H1626 C1640 0.960 . S
H1627 C1640 0.961 . S
H1628 C1640 0.959 . S
H1629 C1643 0.929 . S
H1630 C1644 0.931 . S
H1631 C1646 0.930 . S
C1632 H1620 0.930 . S
C1632 C1633 1.399 . S
C1632 C1637 1.399 . S
C1633 C1632 1.399 . S
C1633 C1634 1.376 . S
C1634 H1621 0.930 . S
C1634 C1633 1.376 . S
C1634 C1635 1.388 . S
C1635 H1622 0.930 . S
C1635 C1634 1.388 . S
C1635 C1636 1.390 . S
C1636 C1635 1.390 . S
C1636 C1637 1.394 . S
C1636 C1642 1.465 . S
C1637 C1632 1.399 . S
C1637 C1636 1.394 . S
C1637 C1638 1.516 . S
C1638 C1637 1.516 . S
C1638 C1639 1.502 . S
C1638 C1640 1.561 . S
C1638 C1641 1.526 . S
C1639 H1623 0.959 . S
C1639 H1624 0.959 . S
C1639 H1625 0.961 . S
C1639 C1638 1.502 . S
C1640 H1626 0.960 . S
C1640 H1627 0.961 . S
C1640 H1628 0.959 . S
C1640 C1638 1.561 . S
C1641 C1638 1.526 . S
C1641 C1642 1.396 . S
C1641 C1646 1.390 . S
C1642 C1636 1.465 . S
C1642 C1641 1.396 . S
C1642 C1643 1.399 . S
C1643 H1629 0.929 . S
C1643 C1642 1.399 . S
C1643 C1644 1.385 . S
C1644 H1630 0.931 . S
C1644 C1643 1.385 . S
C1644 C1645 1.389 . S
C1645 C1644 1.389 . S
C1645 C1646 1.387 . S
C1646 H1631 0.930 . S
C1646 C1641 1.390 . S
C1646 C1645 1.387 . S
H1647 C1659 0.930 . S
H1648 C1661 0.930 . S
H1649 C1662 0.930 . S
H1650 C1666 0.959 . S
H1651 C1666 0.959 . S
H1652 C1666 0.961 . S
H1653 C1667 0.960 . S
H1654 C1667 0.961 . S
H1655 C1667 0.959 . S
H1656 C1670 0.929 . S
H1657 C1671 0.931 . S
H1658 C1673 0.930 . S
C1659 H1647 0.930 . S
C1659 C1660 1.399 . S
C1659 C1664 1.399 . S
C1660 C1659 1.399 . S
C1660 C1661 1.376 . S
C1661 H1648 0.930 . S
C1661 C1660 1.376 . S
C1661 C1662 1.388 . S
C1662 H1649 0.930 . S
C1662 C1661 1.388 . S
C1662 C1663 1.390 . S
C1663 C1662 1.390 . S
C1663 C1664 1.394 . S
C1663 C1669 1.465 . S
C1664 C1659 1.399 . S
C1664 C1663 1.394 . S
C1664 C1665 1.516 . S
C1665 C1664 1.516 . S
C1665 C1666 1.502 . S
C1665 C1667 1.561 . S
C1665 C1668 1.526 . S
C1666 H1650 0.959 . S
C1666 H1651 0.959 . S
C1666 H1652 0.961 . S
C1666 C1665 1.502 . S
C1667 H1653 0.960 . S
C1667 H1654 0.961 . S
C1667 H1655 0.959 . S
C1667 C1665 1.561 . S
C1668 C1665 1.526 . S
C1668 C1669 1.396 . S
C1668 C1673 1.390 . S
C1669 C1663 1.465 . S
C1669 C1668 1.396 . S
C1669 C1670 1.399 . S
C1670 H1656 0.929 . S
C1670 C1669 1.399 . S
C1670 C1671 1.385 . S
C1671 H1657 0.931 . S
C1671 C1670 1.385 . S
C1671 C1672 1.389 . S
C1672 C1671 1.389 . S
C1672 C1673 1.387 . S
C1673 H1658 0.930 . S
C1673 C1668 1.390 . S
C1673 C1672 1.387 . S
H1674 C1686 0.930 . S
H1675 C1688 0.930 . S
H1676 C1689 0.930 . S
H1677 C1693 0.959 . S
H1678 C1693 0.959 . S
H1679 C1693 0.961 . S
H1680 C1694 0.960 . S
H1681 C1694 0.961 . S
H1682 C1694 0.959 . S
H1683 C1697 0.929 . S
H1684 C1698 0.931 . S
H1685 C1700 0.930 . S
C1686 H1674 0.930 . S
C1686 C1687 1.399 . S
C1686 C1691 1.399 . S
C1687 C1686 1.399 . S
C1687 C1688 1.376 . S
C1688 H1675 0.930 . S
C1688 C1687 1.376 . S
C1688 C1689 1.388 . S
C1689 H1676 0.930 . S
C1689 C1688 1.388 . S
C1689 C1690 1.390 . S
C1690 C1689 1.390 . S
C1690 C1691 1.394 . S
C1690 C1696 1.465 . S
C1691 C1686 1.399 . S
C1691 C1690 1.394 . S
C1691 C1692 1.516 . S
C1692 C1691 1.516 . S
C1692 C1693 1.502 . S
C1692 C1694 1.561 . S
C1692 C1695 1.526 . S
C1693 H1677 0.959 . S
C1693 H1678 0.959 . S
C1693 H1679 0.961 . S
C1693 C1692 1.502 . S
C1694 H1680 0.960 . S
C1694 H1681 0.961 . S
C1694 H1682 0.959 . S
C1694 C1692 1.561 . S
C1695 C1692 1.526 . S
C1695 C1696 1.396 . S
C1695 C1700 1.390 . S
C1696 C1690 1.465 . S
C1696 C1695 1.396 . S
C1696 C1697 1.399 . S
C1697 H1683 0.929 . S
C1697 C1696 1.399 . S
C1697 C1698 1.385 . S
C1698 H1684 0.931 . S
C1698 C1697 1.385 . S
C1698 C1699 1.389 . S
C1699 C1698 1.389 . S
C1699 C1700 1.387 . S
C1700 H1685 0.930 . S
C1700 C1695 1.390 . S
C1700 C1699 1.387 . S
H1701 C1713 0.930 . S
H1702 C1715 0.930 . S
H1703 C1716 0.930 . S
H1704 C1720 0.959 . S
H1705 C1720 0.959 . S
H1706 C1720 0.961 . S
H1707 C1721 0.960 . S
H1708 C1721 0.961 . S
H1709 C1721 0.959 . S
H1710 C1724 0.929 . S
H1711 C1725 0.931 . S
H1712 C1727 0.930 . S
C1713 H1701 0.930 . S
C1713 C1714 1.399 . S
C1713 C1718 1.399 . S
C1714 C1713 1.399 . S
C1714 C1715 1.376 . S
C1715 H1702 0.930 . S
C1715 C1714 1.376 . S
C1715 C1716 1.388 . S
C1716 H1703 0.930 . S
C1716 C1715 1.388 . S
C1716 C1717 1.390 . S
C1717 C1716 1.390 . S
C1717 C1718 1.394 . S
C1717 C1723 1.465 . S
C1718 C1713 1.399 . S
C1718 C1717 1.394 . S
C1718 C1719 1.516 . S
C1719 C1718 1.516 . S
C1719 C1720 1.502 . S
C1719 C1721 1.561 . S
C1719 C1722 1.526 . S
C1720 H1704 0.959 . S
C1720 H1705 0.959 . S
C1720 H1706 0.961 . S
C1720 C1719 1.502 . S
C1721 H1707 0.960 . S
C1721 H1708 0.961 . S
C1721 H1709 0.959 . S
C1721 C1719 1.561 . S
C1722 C1719 1.526 . S
C1722 C1723 1.396 . S
C1722 C1727 1.390 . S
C1723 C1717 1.465 . S
C1723 C1722 1.396 . S
C1723 C1724 1.399 . S
C1724 H1710 0.929 . S
C1724 C1723 1.399 . S
C1724 C1725 1.385 . S
C1725 H1711 0.931 . S
C1725 C1724 1.385 . S
C1725 C1726 1.389 . S
C1726 C1725 1.389 . S
C1726 C1727 1.387 . S
C1727 H1712 0.930 . S
C1727 C1722 1.390 . S
C1727 C1726 1.387 . S
H1728 C1740 0.930 . S
H1729 C1742 0.930 . S
H1730 C1743 0.930 . S
H1731 C1747 0.959 . S
H1732 C1747 0.959 . S
H1733 C1747 0.961 . S
H1734 C1748 0.960 . S
H1735 C1748 0.961 . S
H1736 C1748 0.959 . S
H1737 C1751 0.929 . S
H1738 C1752 0.931 . S
H1739 C1754 0.930 . S
C1740 H1728 0.930 . S
C1740 C1741 1.399 . S
C1740 C1745 1.399 . S
C1741 C1740 1.399 . S
C1741 C1742 1.376 . S
C1742 H1729 0.930 . S
C1742 C1741 1.376 . S
C1742 C1743 1.388 . S
C1743 H1730 0.930 . S
C1743 C1742 1.388 . S
C1743 C1744 1.390 . S
C1744 C1743 1.390 . S
C1744 C1745 1.394 . S
C1744 C1750 1.465 . S
C1745 C1740 1.399 . S
C1745 C1744 1.394 . S
C1745 C1746 1.516 . S
C1746 C1745 1.516 . S
C1746 C1747 1.502 . S
C1746 C1748 1.561 . S
C1746 C1749 1.526 . S
C1747 H1731 0.959 . S
C1747 H1732 0.959 . S
C1747 H1733 0.961 . S
C1747 C1746 1.502 . S
C1748 H1734 0.960 . S
C1748 H1735 0.961 . S
C1748 H1736 0.959 . S
C1748 C1746 1.561 . S
C1749 C1746 1.526 . S
C1749 C1750 1.396 . S
C1749 C1754 1.390 . S
C1750 C1744 1.465 . S
C1750 C1749 1.396 . S
C1750 C1751 1.399 . S
C1751 H1737 0.929 . S
C1751 C1750 1.399 . S
C1751 C1752 1.385 . S
C1752 H1738 0.931 . S
C1752 C1751 1.385 . S
C1752 C1753 1.389 . S
C1753 C1752 1.389 . S
C1753 C1754 1.387 . S
C1754 H1739 0.930 . S
C1754 C1749 1.390 . S
C1754 C1753 1.387 . S
H1755 C1767 0.930 . S
H1756 C1769 0.930 . S
H1757 C1770 0.930 . S
H1758 C1774 0.959 . S
H1759 C1774 0.959 . S
H1760 C1774 0.961 . S
H1761 C1775 0.960 . S
H1762 C1775 0.961 . S
H1763 C1775 0.959 . S
H1764 C1778 0.929 . S
H1765 C1779 0.931 . S
H1766 C1781 0.930 . S
C1767 H1755 0.930 . S
C1767 C1768 1.399 . S
C1767 C1772 1.399 . S
C1768 C1767 1.399 . S
C1768 C1769 1.376 . S
C1769 H1756 0.930 . S
C1769 C1768 1.376 . S
C1769 C1770 1.388 . S
C1770 H1757 0.930 . S
C1770 C1769 1.388 . S
C1770 C1771 1.390 . S
C1771 C1770 1.390 . S
C1771 C1772 1.394 . S
C1771 C1777 1.465 . S
C1772 C1767 1.399 . S
C1772 C1771 1.394 . S
C1772 C1773 1.516 . S
C1773 C1772 1.516 . S
C1773 C1774 1.502 . S
C1773 C1775 1.561 . S
C1773 C1776 1.526 . S
C1774 H1758 0.959 . S
C1774 H1759 0.959 . S
C1774 H1760 0.961 . S
C1774 C1773 1.502 . S
C1775 H1761 0.960 . S
C1775 H1762 0.961 . S
C1775 H1763 0.959 . S
C1775 C1773 1.561 . S
C1776 C1773 1.526 . S
C1776 C1777 1.396 . S
C1776 C1781 1.390 . S
C1777 C1771 1.465 . S
C1777 C1776 1.396 . S
C1777 C1778 1.399 . S
C1778 H1764 0.929 . S
C1778 C1777 1.399 . S
C1778 C1779 1.385 . S
C1779 H1765 0.931 . S
C1779 C1778 1.385 . S
C1779 C1780 1.389 . S
C1780 C1779 1.389 . S
C1780 C1781 1.387 . S
C1781 H1766 0.930 . S
C1781 C1776 1.390 . S
C1781 C1780 1.387 . S
H1782 C1794 0.930 . S
H1783 C1796 0.930 . S
H1784 C1797 0.930 . S
H1785 C1801 0.959 . S
H1786 C1801 0.959 . S
H1787 C1801 0.961 . S
H1788 C1802 0.960 . S
H1789 C1802 0.961 . S
H1790 C1802 0.959 . S
H1791 C1805 0.929 . S
H1792 C1806 0.931 . S
H1793 C1808 0.930 . S
C1794 H1782 0.930 . S
C1794 C1795 1.399 . S
C1794 C1799 1.399 . S
C1795 C1794 1.399 . S
C1795 C1796 1.376 . S
C1796 H1783 0.930 . S
C1796 C1795 1.376 . S
C1796 C1797 1.388 . S
C1797 H1784 0.930 . S
C1797 C1796 1.388 . S
C1797 C1798 1.390 . S
C1798 C1797 1.390 . S
C1798 C1799 1.394 . S
C1798 C1804 1.465 . S
C1799 C1794 1.399 . S
C1799 C1798 1.394 . S
C1799 C1800 1.516 . S
C1800 C1799 1.516 . S
C1800 C1801 1.502 . S
C1800 C1802 1.561 . S
C1800 C1803 1.526 . S
C1801 H1785 0.959 . S
C1801 H1786 0.959 . S
C1801 H1787 0.961 . S
C1801 C1800 1.502 . S
C1802 H1788 0.960 . S
C1802 H1789 0.961 . S
C1802 H1790 0.959 . S
C1802 C1800 1.561 . S
C1803 C1800 1.526 . S
C1803 C1804 1.396 . S
C1803 C1808 1.390 . S
C1804 C1798 1.465 . S
C1804 C1803 1.396 . S
C1804 C1805 1.399 . S
C1805 H1791 0.929 . S
C1805 C1804 1.399 . S
C1805 C1806 1.385 . S
C1806 H1792 0.931 . S
C1806 C1805 1.385 . S
C1806 C1807 1.389 . S
C1807 C1806 1.389 . S
C1807 C1808 1.387 . S
C1808 H1793 0.930 . S
C1808 C1803 1.390 . S
C1808 C1807 1.387 . S
H1809 C1821 0.930 . S
H1810 C1823 0.930 . S
H1811 C1824 0.930 . S
H1812 C1828 0.959 . S
H1813 C1828 0.959 . S
H1814 C1828 0.961 . S
H1815 C1829 0.960 . S
H1816 C1829 0.961 . S
H1817 C1829 0.959 . S
H1818 C1832 0.929 . S
H1819 C1833 0.931 . S
H1820 C1835 0.930 . S
C1821 H1809 0.930 . S
C1821 C1822 1.399 . S
C1821 C1826 1.399 . S
C1822 C1821 1.399 . S
C1822 C1823 1.376 . S
C1823 H1810 0.930 . S
C1823 C1822 1.376 . S
C1823 C1824 1.388 . S
C1824 H1811 0.930 . S
C1824 C1823 1.388 . S
C1824 C1825 1.390 . S
C1825 C1824 1.390 . S
C1825 C1826 1.394 . S
C1825 C1831 1.465 . S
C1826 C1821 1.399 . S
C1826 C1825 1.394 . S
C1826 C1827 1.516 . S
C1827 C1826 1.516 . S
C1827 C1828 1.502 . S
C1827 C1829 1.561 . S
C1827 C1830 1.526 . S
C1828 H1812 0.959 . S
C1828 H1813 0.959 . S
C1828 H1814 0.961 . S
C1828 C1827 1.502 . S
C1829 H1815 0.960 . S
C1829 H1816 0.961 . S
C1829 H1817 0.959 . S
C1829 C1827 1.561 . S
C1830 C1827 1.526 . S
C1830 C1831 1.396 . S
C1830 C1835 1.390 . S
C1831 C1825 1.465 . S
C1831 C1830 1.396 . S
C1831 C1832 1.399 . S
C1832 H1818 0.929 . S
C1832 C1831 1.399 . S
C1832 C1833 1.385 . S
C1833 H1819 0.931 . S
C1833 C1832 1.385 . S
C1833 C1834 1.389 . S
C1834 C1833 1.389 . S
C1834 C1835 1.387 . S
C1835 H1820 0.930 . S
C1835 C1830 1.390 . S
C1835 C1834 1.387 . S
H1836 C1848 0.930 . S
H1837 C1850 0.930 . S
H1838 C1851 0.930 . S
H1839 C1855 0.959 . S
H1840 C1855 0.959 . S
H1841 C1855 0.961 . S
H1842 C1856 0.960 . S
H1843 C1856 0.961 . S
H1844 C1856 0.959 . S
H1845 C1859 0.929 . S
H1846 C1860 0.931 . S
H1847 C1862 0.930 . S
C1848 H1836 0.930 . S
C1848 C1849 1.399 . S
C1848 C1853 1.399 . S
C1849 C1848 1.399 . S
C1849 C1850 1.376 . S
C1850 H1837 0.930 . S
C1850 C1849 1.376 . S
C1850 C1851 1.388 . S
C1851 H1838 0.930 . S
C1851 C1850 1.388 . S
C1851 C1852 1.390 . S
C1852 C1851 1.390 . S
C1852 C1853 1.394 . S
C1852 C1858 1.465 . S
C1853 C1848 1.399 . S
C1853 C1852 1.394 . S
C1853 C1854 1.516 . S
C1854 C1853 1.516 . S
C1854 C1855 1.502 . S
C1854 C1856 1.561 . S
C1854 C1857 1.526 . S
C1855 H1839 0.959 . S
C1855 H1840 0.959 . S
C1855 H1841 0.961 . S
C1855 C1854 1.502 . S
C1856 H1842 0.960 . S
C1856 H1843 0.961 . S
C1856 H1844 0.959 . S
C1856 C1854 1.561 . S
C1857 C1854 1.526 . S
C1857 C1858 1.396 . S
C1857 C1862 1.390 . S
C1858 C1852 1.465 . S
C1858 C1857 1.396 . S
C1858 C1859 1.399 . S
C1859 H1845 0.929 . S
C1859 C1858 1.399 . S
C1859 C1860 1.385 . S
C1860 H1846 0.931 . S
C1860 C1859 1.385 . S
C1860 C1861 1.389 . S
C1861 C1860 1.389 . S
C1861 C1862 1.387 . S
C1862 H1847 0.930 . S
C1862 C1857 1.390 . S
C1862 C1861 1.387 . S
H1863 C1875 0.930 . S
H1864 C1877 0.930 . S
H1865 C1878 0.930 . S
H1866 C1882 0.959 . S
H1867 C1882 0.959 . S
H1868 C1882 0.961 . S
H1869 C1883 0.960 . S
H1870 C1883 0.961 . S
H1871 C1883 0.959 . S
H1872 C1886 0.929 . S
H1873 C1887 0.931 . S
H1874 C1889 0.930 . S
C1875 H1863 0.930 . S
C1875 C1876 1.399 . S
C1875 C1880 1.399 . S
C1876 C1875 1.399 . S
C1876 C1877 1.376 . S
C1877 H1864 0.930 . S
C1877 C1876 1.376 . S
C1877 C1878 1.388 . S
C1878 H1865 0.930 . S
C1878 C1877 1.388 . S
C1878 C1879 1.390 . S
C1879 C1878 1.390 . S
C1879 C1880 1.394 . S
C1879 C1885 1.465 . S
C1880 C1875 1.399 . S
C1880 C1879 1.394 . S
C1880 C1881 1.516 . S
C1881 C1880 1.516 . S
C1881 C1882 1.502 . S
C1881 C1883 1.561 . S
C1881 C1884 1.526 . S
C1882 H1866 0.959 . S
C1882 H1867 0.959 . S
C1882 H1868 0.961 . S
C1882 C1881 1.502 . S
C1883 H1869 0.960 . S
C1883 H1870 0.961 . S
C1883 H1871 0.959 . S
C1883 C1881 1.561 . S
C1884 C1881 1.526 . S
C1884 C1885 1.396 . S
C1884 C1889 1.390 . S
C1885 C1879 1.465 . S
C1885 C1884 1.396 . S
C1885 C1886 1.399 . S
C1886 H1872 0.929 . S
C1886 C1885 1.399 . S
C1886 C1887 1.385 . S
C1887 H1873 0.931 . S
C1887 C1886 1.385 . S
C1887 C1888 1.389 . S
C1888 C1887 1.389 . S
C1888 C1889 1.387 . S
C1889 H1874 0.930 . S
C1889 C1884 1.390 . S
C1889 C1888 1.387 . S
H1890 C1902 0.930 . S
H1891 C1904 0.930 . S
H1892 C1905 0.930 . S
H1893 C1909 0.959 . S
H1894 C1909 0.959 . S
H1895 C1909 0.961 . S
H1896 C1910 0.960 . S
H1897 C1910 0.961 . S
H1898 C1910 0.959 . S
H1899 C1913 0.929 . S
H1900 C1914 0.931 . S
H1901 C1916 0.930 . S
C1902 H1890 0.930 . S
C1902 C1903 1.399 . S
C1902 C1907 1.399 . S
C1903 C1902 1.399 . S
C1903 C1904 1.376 . S
C1904 H1891 0.930 . S
C1904 C1903 1.376 . S
C1904 C1905 1.388 . S
C1905 H1892 0.930 . S
C1905 C1904 1.388 . S
C1905 C1906 1.390 . S
C1906 C1905 1.390 . S
C1906 C1907 1.394 . S
C1906 C1912 1.465 . S
C1907 C1902 1.399 . S
C1907 C1906 1.394 . S
C1907 C1908 1.516 . S
C1908 C1907 1.516 . S
C1908 C1909 1.502 . S
C1908 C1910 1.561 . S
C1908 C1911 1.526 . S
C1909 H1893 0.959 . S
C1909 H1894 0.959 . S
C1909 H1895 0.961 . S
C1909 C1908 1.502 . S
C1910 H1896 0.960 . S
C1910 H1897 0.961 . S
C1910 H1898 0.959 . S
C1910 C1908 1.561 . S
C1911 C1908 1.526 . S
C1911 C1912 1.396 . S
C1911 C1916 1.390 . S
C1912 C1906 1.465 . S
C1912 C1911 1.396 . S
C1912 C1913 1.399 . S
C1913 H1899 0.929 . S
C1913 C1912 1.399 . S
C1913 C1914 1.385 . S
C1914 H1900 0.931 . S
C1914 C1913 1.385 . S
C1914 C1915 1.389 . S
C1915 C1914 1.389 . S
C1915 C1916 1.387 . S
C1916 H1901 0.930 . S
C1916 C1911 1.390 . S
C1916 C1915 1.387 . S
H1917 C1929 0.930 . S
H1918 C1931 0.930 . S
H1919 C1932 0.930 . S
H1920 C1936 0.959 . S
H1921 C1936 0.959 . S
H1922 C1936 0.961 . S
H1923 C1937 0.960 . S
H1924 C1937 0.961 . S
H1925 C1937 0.959 . S
H1926 C1940 0.929 . S
H1927 C1941 0.931 . S
H1928 C1943 0.930 . S
C1929 H1917 0.930 . S
C1929 C1930 1.399 . S
C1929 C1934 1.399 . S
C1930 C1929 1.399 . S
C1930 C1931 1.376 . S
C1931 H1918 0.930 . S
C1931 C1930 1.376 . S
C1931 C1932 1.388 . S
C1932 H1919 0.930 . S
C1932 C1931 1.388 . S
C1932 C1933 1.390 . S
C1933 C1932 1.390 . S
C1933 C1934 1.394 . S
C1933 C1939 1.465 . S
C1934 C1929 1.399 . S
C1934 C1933 1.394 . S
C1934 C1935 1.516 . S
C1935 C1934 1.516 . S
C1935 C1936 1.502 . S
C1935 C1937 1.561 . S
C1935 C1938 1.526 . S
C1936 H1920 0.959 . S
C1936 H1921 0.959 . S
C1936 H1922 0.961 . S
C1936 C1935 1.502 . S
C1937 H1923 0.960 . S
C1937 H1924 0.961 . S
C1937 H1925 0.959 . S
C1937 C1935 1.561 . S
C1938 C1935 1.526 . S
C1938 C1939 1.396 . S
C1938 C1943 1.390 . S
C1939 C1933 1.465 . S
C1939 C1938 1.396 . S
C1939 C1940 1.399 . S
C1940 H1926 0.929 . S
C1940 C1939 1.399 . S
C1940 C1941 1.385 . S
C1941 H1927 0.931 . S
C1941 C1940 1.385 . S
C1941 C1942 1.389 . S
C1942 C1941 1.389 . S
C1942 C1943 1.387 . S
C1943 H1928 0.930 . S
C1943 C1938 1.390 . S
C1943 C1942 1.387 . S
H1944 C1956 0.930 . S
H1945 C1958 0.930 . S
H1946 C1959 0.930 . S
H1947 C1963 0.959 . S
H1948 C1963 0.959 . S
H1949 C1963 0.961 . S
H1950 C1964 0.960 . S
H1951 C1964 0.961 . S
H1952 C1964 0.959 . S
H1953 C1967 0.929 . S
H1954 C1968 0.931 . S
H1955 C1970 0.930 . S
C1956 H1944 0.930 . S
C1956 C1957 1.399 . S
C1956 C1961 1.399 . S
C1957 C1956 1.399 . S
C1957 C1958 1.376 . S
C1958 H1945 0.930 . S
C1958 C1957 1.376 . S
C1958 C1959 1.388 . S
C1959 H1946 0.930 . S
C1959 C1958 1.388 . S
C1959 C1960 1.390 . S
C1960 C1959 1.390 . S
C1960 C1961 1.394 . S
C1960 C1966 1.465 . S
C1961 C1956 1.399 . S
C1961 C1960 1.394 . S
C1961 C1962 1.516 . S
C1962 C1961 1.516 . S
C1962 C1963 1.502 . S
C1962 C1964 1.561 . S
C1962 C1965 1.526 . S
C1963 H1947 0.959 . S
C1963 H1948 0.959 . S
C1963 H1949 0.961 . S
C1963 C1962 1.502 . S
C1964 H1950 0.960 . S
C1964 H1951 0.961 . S
C1964 H1952 0.959 . S
C1964 C1962 1.561 . S
C1965 C1962 1.526 . S
C1965 C1966 1.396 . S
C1965 C1970 1.390 . S
C1966 C1960 1.465 . S
C1966 C1965 1.396 . S
C1966 C1967 1.399 . S
C1967 H1953 0.929 . S
C1967 C1966 1.399 . S
C1967 C1968 1.385 . S
C1968 H1954 0.931 . S
C1968 C1967 1.385 . S
C1968 C1969 1.389 . S
C1969 C1968 1.389 . S
C1969 C1970 1.387 . S
C1970 H1955 0.930 . S
C1970 C1965 1.390 . S
C1970 C1969 1.387 . S
H1971 C1983 0.930 . S
H1972 C1985 0.930 . S
H1973 C1986 0.930 . S
H1974 C1990 0.959 . S
H1975 C1990 0.959 . S
H1976 C1990 0.961 . S
H1977 C1991 0.960 . S
H1978 C1991 0.961 . S
H1979 C1991 0.959 . S
H1980 C1994 0.929 . S
H1981 C1995 0.931 . S
H1982 C1997 0.930 . S
C1983 H1971 0.930 . S
C1983 C1984 1.399 . S
C1983 C1988 1.399 . S
C1984 C1983 1.399 . S
C1984 C1985 1.376 . S
C1985 H1972 0.930 . S
C1985 C1984 1.376 . S
C1985 C1986 1.388 . S
C1986 H1973 0.930 . S
C1986 C1985 1.388 . S
C1986 C1987 1.390 . S
C1987 C1986 1.390 . S
C1987 C1988 1.394 . S
C1987 C1993 1.465 . S
C1988 C1983 1.399 . S
C1988 C1987 1.394 . S
C1988 C1989 1.516 . S
C1989 C1988 1.516 . S
C1989 C1990 1.502 . S
C1989 C1991 1.561 . S
C1989 C1992 1.526 . S
C1990 H1974 0.959 . S
C1990 H1975 0.959 . S
C1990 H1976 0.961 . S
C1990 C1989 1.502 . S
C1991 H1977 0.960 . S
C1991 H1978 0.961 . S
C1991 H1979 0.959 . S
C1991 C1989 1.561 . S
C1992 C1989 1.526 . S
C1992 C1993 1.396 . S
C1992 C1997 1.390 . S
C1993 C1987 1.465 . S
C1993 C1992 1.396 . S
C1993 C1994 1.399 . S
C1994 H1980 0.929 . S
C1994 C1993 1.399 . S
C1994 C1995 1.385 . S
C1995 H1981 0.931 . S
C1995 C1994 1.385 . S
C1995 C1996 1.389 . S
C1996 C1995 1.389 . S
C1996 C1997 1.387 . S
C1997 H1982 0.930 . S
C1997 C1992 1.390 . S
C1997 C1996 1.387 . S
H1998 C2010 0.930 . S
H1999 C2012 0.930 . S
H2000 C2013 0.930 . S
H2001 C2017 0.959 . S
H2002 C2017 0.959 . S
H2003 C2017 0.961 . S
H2004 C2018 0.960 . S
H2005 C2018 0.961 . S
H2006 C2018 0.959 . S
H2007 C2021 0.929 . S
H2008 C2022 0.931 . S
H2009 C2024 0.930 . S
C2010 H1998 0.930 . S
C2010 C2011 1.399 . S
C2010 C2015 1.399 . S
C2011 C2010 1.399 . S
C2011 C2012 1.376 . S
C2012 H1999 0.930 . S
C2012 C2011 1.376 . S
C2012 C2013 1.388 . S
C2013 H2000 0.930 . S
C2013 C2012 1.388 . S
C2013 C2014 1.390 . S
C2014 C2013 1.390 . S
C2014 C2015 1.394 . S
C2014 C2020 1.465 . S
C2015 C2010 1.399 . S
C2015 C2014 1.394 . S
C2015 C2016 1.516 . S
C2016 C2015 1.516 . S
C2016 C2017 1.502 . S
C2016 C2018 1.561 . S
C2016 C2019 1.526 . S
C2017 H2001 0.959 . S
C2017 H2002 0.959 . S
C2017 H2003 0.961 . S
C2017 C2016 1.502 . S
C2018 H2004 0.960 . S
C2018 H2005 0.961 . S
C2018 H2006 0.959 . S
C2018 C2016 1.561 . S
C2019 C2016 1.526 . S
C2019 C2020 1.396 . S
C2019 C2024 1.390 . S
C2020 C2014 1.465 . S
C2020 C2019 1.396 . S
C2020 C2021 1.399 . S
C2021 H2007 0.929 . S
C2021 C2020 1.399 . S
C2021 C2022 1.385 . S
C2022 H2008 0.931 . S
C2022 C2021 1.385 . S
C2022 C2023 1.389 . S
C2023 C2022 1.389 . S
C2023 C2024 1.387 . S
C2024 H2009 0.930 . S
C2024 C2019 1.390 . S
C2024 C2023 1.387 . S
H2025 C2037 0.930 . S
H2026 C2039 0.930 . S
H2027 C2040 0.930 . S
H2028 C2044 0.959 . S
H2029 C2044 0.959 . S
H2030 C2044 0.961 . S
H2031 C2045 0.960 . S
H2032 C2045 0.961 . S
H2033 C2045 0.959 . S
H2034 C2048 0.929 . S
H2035 C2049 0.931 . S
H2036 C2051 0.930 . S
C2037 H2025 0.930 . S
C2037 C2038 1.399 . S
C2037 C2042 1.399 . S
C2038 C2037 1.399 . S
C2038 C2039 1.376 . S
C2039 H2026 0.930 . S
C2039 C2038 1.376 . S
C2039 C2040 1.388 . S
C2040 H2027 0.930 . S
C2040 C2039 1.388 . S
C2040 C2041 1.390 . S
C2041 C2040 1.390 . S
C2041 C2042 1.394 . S
C2041 C2047 1.465 . S
C2042 C2037 1.399 . S
C2042 C2041 1.394 . S
C2042 C2043 1.516 . S
C2043 C2042 1.516 . S
C2043 C2044 1.502 . S
C2043 C2045 1.561 . S
C2043 C2046 1.526 . S
C2044 H2028 0.959 . S
C2044 H2029 0.959 . S
C2044 H2030 0.961 . S
C2044 C2043 1.502 . S
C2045 H2031 0.960 . S
C2045 H2032 0.961 . S
C2045 H2033 0.959 . S
C2045 C2043 1.561 . S
C2046 C2043 1.526 . S
C2046 C2047 1.396 . S
C2046 C2051 1.390 . S
C2047 C2041 1.465 . S
C2047 C2046 1.396 . S
C2047 C2048 1.399 . S
C2048 H2034 0.929 . S
C2048 C2047 1.399 . S
C2048 C2049 1.385 . S
C2049 H2035 0.931 . S
C2049 C2048 1.385 . S
C2049 C2050 1.389 . S
C2050 C2049 1.389 . S
C2050 C2051 1.387 . S
C2051 H2036 0.930 . S
C2051 C2046 1.390 . S
C2051 C2050 1.387 . S
H2052 C2064 0.930 . S
H2053 C2066 0.930 . S
H2054 C2067 0.930 . S
H2055 C2071 0.959 . S
H2056 C2071 0.959 . S
H2057 C2071 0.961 . S
H2058 C2072 0.960 . S
H2059 C2072 0.961 . S
H2060 C2072 0.959 . S
H2061 C2075 0.929 . S
H2062 C2076 0.931 . S
H2063 C2078 0.930 . S
C2064 H2052 0.930 . S
C2064 C2065 1.399 . S
C2064 C2069 1.399 . S
C2065 C2064 1.399 . S
C2065 C2066 1.376 . S
C2066 H2053 0.930 . S
C2066 C2065 1.376 . S
C2066 C2067 1.388 . S
C2067 H2054 0.930 . S
C2067 C2066 1.388 . S
C2067 C2068 1.390 . S
C2068 C2067 1.390 . S
C2068 C2069 1.394 . S
C2068 C2074 1.465 . S
C2069 C2064 1.399 . S
C2069 C2068 1.394 . S
C2069 C2070 1.516 . S
C2070 C2069 1.516 . S
C2070 C2071 1.502 . S
C2070 C2072 1.561 . S
C2070 C2073 1.526 . S
C2071 H2055 0.959 . S
C2071 H2056 0.959 . S
C2071 H2057 0.961 . S
C2071 C2070 1.502 . S
C2072 H2058 0.960 . S
C2072 H2059 0.961 . S
C2072 H2060 0.959 . S
C2072 C2070 1.561 . S
C2073 C2070 1.526 . S
C2073 C2074 1.396 . S
C2073 C2078 1.390 . S
C2074 C2068 1.465 . S
C2074 C2073 1.396 . S
C2074 C2075 1.399 . S
C2075 H2061 0.929 . S
C2075 C2074 1.399 . S
C2075 C2076 1.385 . S
C2076 H2062 0.931 . S
C2076 C2075 1.385 . S
C2076 C2077 1.389 . S
C2077 C2076 1.389 . S
C2077 C2078 1.387 . S
C2078 H2063 0.930 . S
C2078 C2073 1.390 . S
C2078 C2077 1.387 . S
H2079 C2091 0.930 . S
H2080 C2093 0.930 . S
H2081 C2094 0.930 . S
H2082 C2098 0.959 . S
H2083 C2098 0.959 . S
H2084 C2098 0.961 . S
H2085 C2099 0.960 . S
H2086 C2099 0.961 . S
H2087 C2099 0.959 . S
H2088 C2102 0.929 . S
H2089 C2103 0.931 . S
H2090 C2105 0.930 . S
C2091 H2079 0.930 . S
C2091 C2092 1.399 . S
C2091 C2096 1.399 . S
C2092 C2091 1.399 . S
C2092 C2093 1.376 . S
C2093 H2080 0.930 . S
C2093 C2092 1.376 . S
C2093 C2094 1.388 . S
C2094 H2081 0.930 . S
C2094 C2093 1.388 . S
C2094 C2095 1.390 . S
C2095 C2094 1.390 . S
C2095 C2096 1.394 . S
C2095 C2101 1.465 . S
C2096 C2091 1.399 . S
C2096 C2095 1.394 . S
C2096 C2097 1.516 . S
C2097 C2096 1.516 . S
C2097 C2098 1.502 . S
C2097 C2099 1.561 . S
C2097 C2100 1.526 . S
C2098 H2082 0.959 . S
C2098 H2083 0.959 . S
C2098 H2084 0.961 . S
C2098 C2097 1.502 . S
C2099 H2085 0.960 . S
C2099 H2086 0.961 . S
C2099 H2087 0.959 . S
C2099 C2097 1.561 . S
C2100 C2097 1.526 . S
C2100 C2101 1.396 . S
C2100 C2105 1.390 . S
C2101 C2095 1.465 . S
C2101 C2100 1.396 . S
C2101 C2102 1.399 . S
C2102 H2088 0.929 . S
C2102 C2101 1.399 . S
C2102 C2103 1.385 . S
C2103 H2089 0.931 . S
C2103 C2102 1.385 . S
C2103 C2104 1.389 . S
C2104 C2103 1.389 . S
C2104 C2105 1.387 . S
C2105 H2090 0.930 . S
C2105 C2100 1.390 . S
C2105 C2104 1.387 . S
H2106 C2118 0.930 . S
H2107 C2120 0.930 . S
H2108 C2121 0.930 . S
H2109 C2125 0.959 . S
H2110 C2125 0.959 . S
H2111 C2125 0.961 . S
H2112 C2126 0.960 . S
H2113 C2126 0.961 . S
H2114 C2126 0.959 . S
H2115 C2129 0.929 . S
H2116 C2130 0.931 . S
H2117 C2132 0.930 . S
C2118 H2106 0.930 . S
C2118 C2119 1.399 . S
C2118 C2123 1.399 . S
C2119 C2118 1.399 . S
C2119 C2120 1.376 . S
C2120 H2107 0.930 . S
C2120 C2119 1.376 . S
C2120 C2121 1.388 . S
C2121 H2108 0.930 . S
C2121 C2120 1.388 . S
C2121 C2122 1.390 . S
C2122 C2121 1.390 . S
C2122 C2123 1.394 . S
C2122 C2128 1.465 . S
C2123 C2118 1.399 . S
C2123 C2122 1.394 . S
C2123 C2124 1.516 . S
C2124 C2123 1.516 . S
C2124 C2125 1.502 . S
C2124 C2126 1.561 . S
C2124 C2127 1.526 . S
C2125 H2109 0.959 . S
C2125 H2110 0.959 . S
C2125 H2111 0.961 . S
C2125 C2124 1.502 . S
C2126 H2112 0.960 . S
C2126 H2113 0.961 . S
C2126 H2114 0.959 . S
C2126 C2124 1.561 . S
C2127 C2124 1.526 . S
C2127 C2128 1.396 . S
C2127 C2132 1.390 . S
C2128 C2122 1.465 . S
C2128 C2127 1.396 . S
C2128 C2129 1.399 . S
C2129 H2115 0.929 . S
C2129 C2128 1.399 . S
C2129 C2130 1.385 . S
C2130 H2116 0.931 . S
C2130 C2129 1.385 . S
C2130 C2131 1.389 . S
C2131 C2130 1.389 . S
C2131 C2132 1.387 . S
C2132 H2117 0.930 . S
C2132 C2127 1.390 . S
C2132 C2131 1.387 . S
H2133 C2145 0.930 . S
H2134 C2147 0.930 . S
H2135 C2148 0.930 1_554 S
H2136 C2152 0.959 . S
H2137 C2152 0.959 . S
H2138 C2152 0.961 . S
H2139 C2153 0.960 . S
H2140 C2153 0.961 . S
H2141 C2153 0.959 . S
H2142 C2156 0.929 . S
H2143 C2157 0.931 . S
H2144 C2159 0.930 . S
C2145 H2133 0.930 . S
C2145 C2146 1.399 . S
C2145 C2150 1.399 . S
C2146 C2145 1.399 . S
C2146 C2147 1.376 1_556 S
C2147 H2134 0.930 . S
C2147 C2146 1.376 1_554 S
C2147 C2148 1.388 1_554 S
C2148 H2135 0.930 1_556 S
C2148 C2147 1.388 1_556 S
C2148 C2149 1.390 . S
C2149 C2148 1.390 . S
C2149 C2150 1.394 . S
C2149 C2155 1.465 . S
C2150 C2145 1.399 . S
C2150 C2149 1.394 . S
C2150 C2151 1.516 . S
C2151 C2150 1.516 . S
C2151 C2152 1.502 . S
C2151 C2153 1.561 . S
C2151 C2154 1.526 . S
C2152 H2136 0.959 . S
C2152 H2137 0.959 . S
C2152 H2138 0.961 . S
C2152 C2151 1.502 . S
C2153 H2139 0.960 . S
C2153 H2140 0.961 . S
C2153 H2141 0.959 . S
C2153 C2151 1.561 . S
C2154 C2151 1.526 . S
C2154 C2155 1.396 . S
C2154 C2159 1.390 . S
C2155 C2149 1.465 . S
C2155 C2154 1.396 . S
C2155 C2156 1.399 . S
C2156 H2142 0.929 . S
C2156 C2155 1.399 . S
C2156 C2157 1.385 . S
C2157 H2143 0.931 . S
C2157 C2156 1.385 . S
C2157 C2158 1.389 . S
C2158 C2157 1.389 . S
C2158 C2159 1.387 . S
C2159 H2144 0.930 . S
C2159 C2154 1.390 . S
C2159 C2158 1.387 . S
H2160 C2172 0.930 . S
H2161 C2174 0.930 . S
H2162 C2175 0.930 . S
H2163 C2179 0.959 . S
H2164 C2179 0.959 . S
H2165 C2179 0.961 . S
H2166 C2180 0.960 . S
H2167 C2180 0.961 . S
H2168 C2180 0.959 . S
H2169 C2183 0.929 . S
H2170 C2184 0.931 . S
H2171 C2186 0.930 . S
C2172 H2160 0.930 . S
C2172 C2173 1.399 . S
C2172 C2177 1.399 . S
C2173 C2172 1.399 . S
C2173 C2174 1.376 . S
C2174 H2161 0.930 . S
C2174 C2173 1.376 . S
C2174 C2175 1.388 . S
C2175 H2162 0.930 . S
C2175 C2174 1.388 . S
C2175 C2176 1.390 . S
C2176 C2175 1.390 . S
C2176 C2177 1.394 . S
C2176 C2182 1.465 . S
C2177 C2172 1.399 . S
C2177 C2176 1.394 . S
C2177 C2178 1.516 . S
C2178 C2177 1.516 . S
C2178 C2179 1.502 . S
C2178 C2180 1.561 . S
C2178 C2181 1.526 . S
C2179 H2163 0.959 . S
C2179 H2164 0.959 . S
C2179 H2165 0.961 . S
C2179 C2178 1.502 . S
C2180 H2166 0.960 . S
C2180 H2167 0.961 . S
C2180 H2168 0.959 . S
C2180 C2178 1.561 . S
C2181 C2178 1.526 . S
C2181 C2182 1.396 . S
C2181 C2186 1.390 . S
C2182 C2176 1.465 . S
C2182 C2181 1.396 . S
C2182 C2183 1.399 . S
C2183 H2169 0.929 . S
C2183 C2182 1.399 . S
C2183 C2184 1.385 . S
C2184 H2170 0.931 . S
C2184 C2183 1.385 . S
C2184 C2185 1.389 . S
C2185 C2184 1.389 . S
C2185 C2186 1.387 . S
C2186 H2171 0.930 . S
C2186 C2181 1.390 . S
C2186 C2185 1.387 . S
H2187 C2199 0.930 . S
H2188 C2201 0.930 . S
H2189 C2202 0.930 . S
H2190 C2206 0.959 . S
H2191 C2206 0.959 . S
H2192 C2206 0.961 . S
H2193 C2207 0.960 . S
H2194 C2207 0.961 . S
H2195 C2207 0.959 . S
H2196 C2210 0.929 . S
H2197 C2211 0.931 . S
H2198 C2213 0.930 . S
C2199 H2187 0.930 . S
C2199 C2200 1.399 . S
C2199 C2204 1.399 . S
C2200 C2199 1.399 . S
C2200 C2201 1.376 . S
C2201 H2188 0.930 . S
C2201 C2200 1.376 . S
C2201 C2202 1.388 . S
C2202 H2189 0.930 . S
C2202 C2201 1.388 . S
C2202 C2203 1.390 . S
C2203 C2202 1.390 . S
C2203 C2204 1.394 . S
C2203 C2209 1.465 . S
C2204 C2199 1.399 . S
C2204 C2203 1.394 . S
C2204 C2205 1.516 . S
C2205 C2204 1.516 . S
C2205 C2206 1.502 . S
C2205 C2207 1.561 . S
C2205 C2208 1.526 . S
C2206 H2190 0.959 . S
C2206 H2191 0.959 . S
C2206 H2192 0.961 . S
C2206 C2205 1.502 . S
C2207 H2193 0.960 . S
C2207 H2194 0.961 . S
C2207 H2195 0.959 . S
C2207 C2205 1.561 . S
C2208 C2205 1.526 . S
C2208 C2209 1.396 . S
C2208 C2213 1.390 . S
C2209 C2203 1.465 . S
C2209 C2208 1.396 . S
C2209 C2210 1.399 . S
C2210 H2196 0.929 . S
C2210 C2209 1.399 . S
C2210 C2211 1.385 . S
C2211 H2197 0.931 . S
C2211 C2210 1.385 . S
C2211 C2212 1.389 . S
C2212 C2211 1.389 . S
C2212 C2213 1.387 . S
C2213 H2198 0.930 . S
C2213 C2208 1.390 . S
C2213 C2212 1.387 . S
H2214 C2226 0.946 . S
H2215 C2228 0.930 . S
H2216 C2229 0.930 . S
H2217 C2233 0.959 . S
H2218 C2233 0.959 . S
H2219 C2233 0.961 . S
H2220 C2234 0.960 1_554 S
H2221 C2234 0.961 . S
H2222 C2234 0.959 . S
H2223 C2237 0.929 . S
H2224 C2238 0.931 . S
H2225 C2240 0.930 . S
C2226 H2214 0.946 . S
C2226 C2227 1.399 . S
C2226 C2231 1.399 . S
C2227 C2226 1.399 . S
C2227 C2228 1.376 . S
C2228 H2215 0.930 . S
C2228 C2227 1.376 . S
C2228 C2229 1.388 . S
C2229 H2216 0.930 . S
C2229 C2228 1.388 . S
C2229 C2230 1.390 . S
C2230 C2229 1.390 . S
C2230 C2231 1.394 . S
C2230 C2236 1.465 . S
C2231 C2226 1.399 . S
C2231 C2230 1.394 . S
C2231 C2232 1.516 . S
C2232 C2231 1.516 . S
C2232 C2233 1.502 . S
C2232 C2234 1.561 . S
C2232 C2235 1.526 . S
C2233 H2217 0.959 . S
C2233 H2218 0.959 . S
C2233 H2219 0.961 . S
C2233 C2232 1.502 . S
C2234 H2220 0.960 1_556 S
C2234 H2221 0.961 . S
C2234 H2222 0.959 . S
C2234 C2232 1.561 . S
C2235 C2232 1.526 . S
C2235 C2236 1.396 . S
C2235 C2240 1.390 . S
C2236 C2230 1.465 . S
C2236 C2235 1.396 . S
C2236 C2237 1.399 . S
C2237 H2223 0.929 . S
C2237 C2236 1.399 . S
C2237 C2238 1.385 . S
C2238 H2224 0.931 . S
C2238 C2237 1.385 . S
C2238 C2239 1.389 . S
C2239 C2238 1.389 . S
C2239 C2240 1.387 . S
C2240 H2225 0.930 . S
C2240 C2235 1.390 . S
C2240 C2239 1.387 . S
H2241 C2253 0.930 . S
H2242 C2255 0.930 1_554 S
H2243 C2256 0.930 . S
H2244 C2260 0.959 . S
H2245 C2260 0.959 . S
H2246 C2260 0.961 . S
H2247 C2261 0.960 . S
H2248 C2261 0.961 . S
H2249 C2261 0.959 . S
H2250 C2264 0.929 . S
H2251 C2265 0.931 . S
H2252 C2267 0.930 . S
C2253 H2241 0.930 . S
C2253 C2254 1.399 . S
C2253 C2258 1.399 . S
C2254 C2253 1.399 . S
C2254 C2255 1.376 . S
C2255 H2242 0.930 1_556 S
C2255 C2254 1.376 . S
C2255 C2256 1.388 . S
C2256 H2243 0.930 . S
C2256 C2255 1.388 . S
C2256 C2257 1.390 . S
C2257 C2256 1.390 . S
C2257 C2258 1.394 . S
C2257 C2263 1.465 . S
C2258 C2253 1.399 . S
C2258 C2257 1.394 . S
C2258 C2259 1.516 . S
C2259 C2258 1.516 . S
C2259 C2260 1.502 . S
C2259 C2261 1.561 . S
C2259 C2262 1.526 . S
C2260 H2244 0.959 . S
C2260 H2245 0.959 . S
C2260 H2246 0.961 . S
C2260 C2259 1.502 . S
C2261 H2247 0.960 . S
C2261 H2248 0.961 . S
C2261 H2249 0.959 . S
C2261 C2259 1.561 . S
C2262 C2259 1.526 . S
C2262 C2263 1.396 . S
C2262 C2267 1.390 . S
C2263 C2257 1.465 . S
C2263 C2262 1.396 . S
C2263 C2264 1.399 . S
C2264 H2250 0.929 . S
C2264 C2263 1.399 . S
C2264 C2265 1.385 . S
C2265 H2251 0.931 . S
C2265 C2264 1.385 . S
C2265 C2266 1.389 . S
C2266 C2265 1.389 . S
C2266 C2267 1.387 . S
C2267 H2252 0.930 . S
C2267 C2262 1.390 . S
C2267 C2266 1.387 . S
H2268 C2280 0.930 . S
H2269 C2282 0.930 . S
H2270 C2283 0.930 . S
H2271 C2287 0.959 . S
H2272 C2287 0.959 . S
H2273 C2287 0.961 . S
H2274 C2288 0.960 . S
H2275 C2288 0.961 . S
H2276 C2288 0.959 . S
H2277 C2291 0.929 . S
H2278 C2292 0.931 . S
H2279 C2294 0.930 . S
C2280 H2268 0.930 . S
C2280 C2281 1.399 . S
C2280 C2285 1.399 . S
C2281 C2280 1.399 . S
C2281 C2282 1.376 . S
C2282 H2269 0.930 . S
C2282 C2281 1.376 . S
C2282 C2283 1.388 . S
C2283 H2270 0.930 . S
C2283 C2282 1.388 . S
C2283 C2284 1.390 . S
C2284 C2283 1.390 . S
C2284 C2285 1.394 . S
C2284 C2290 1.465 . S
C2285 C2280 1.399 . S
C2285 C2284 1.394 . S
C2285 C2286 1.516 . S
C2286 C2285 1.516 . S
C2286 C2287 1.502 . S
C2286 C2288 1.561 . S
C2286 C2289 1.526 . S
C2287 H2271 0.959 . S
C2287 H2272 0.959 . S
C2287 H2273 0.961 . S
C2287 C2286 1.502 . S
C2288 H2274 0.960 . S
C2288 H2275 0.961 . S
C2288 H2276 0.959 . S
C2288 C2286 1.561 . S
C2289 C2286 1.526 . S
C2289 C2290 1.396 . S
C2289 C2294 1.390 . S
C2290 C2284 1.465 . S
C2290 C2289 1.396 . S
C2290 C2291 1.399 . S
C2291 H2277 0.929 . S
C2291 C2290 1.399 . S
C2291 C2292 1.385 . S
C2292 H2278 0.931 . S
C2292 C2291 1.385 . S
C2292 C2293 1.389 . S
C2293 C2292 1.389 . S
C2293 C2294 1.387 . S
C2294 H2279 0.930 . S
C2294 C2289 1.390 . S
C2294 C2293 1.387 . S
H2295 C2307 0.930 . S
H2296 C2309 0.930 . S
H2297 C2310 0.930 . S
H2298 C2314 0.959 . S
H2299 C2314 0.959 . S
H2300 C2314 0.961 . S
H2301 C2315 0.960 . S
H2302 C2315 0.961 . S
H2303 C2315 0.959 . S
H2304 C2318 0.929 . S
H2305 C2319 0.931 . S
H2306 C2321 0.930 . S
C2307 H2295 0.930 . S
C2307 C2308 1.399 . S
C2307 C2312 1.399 . S
C2308 C2307 1.399 . S
C2308 C2309 1.376 . S
C2309 H2296 0.930 . S
C2309 C2308 1.376 . S
C2309 C2310 1.388 . S
C2310 H2297 0.930 . S
C2310 C2309 1.388 . S
C2310 C2311 1.390 . S
C2311 C2310 1.390 . S
C2311 C2312 1.394 . S
C2311 C2317 1.465 . S
C2312 C2307 1.399 . S
C2312 C2311 1.394 . S
C2312 C2313 1.516 . S
C2313 C2312 1.516 . S
C2313 C2314 1.502 . S
C2313 C2315 1.561 . S
C2313 C2316 1.526 . S
C2314 H2298 0.959 . S
C2314 H2299 0.959 . S
C2314 H2300 0.961 . S
C2314 C2313 1.502 . S
C2315 H2301 0.960 . S
C2315 H2302 0.961 . S
C2315 H2303 0.959 . S
C2315 C2313 1.561 . S
C2316 C2313 1.526 . S
C2316 C2317 1.396 . S
C2316 C2321 1.390 . S
C2317 C2311 1.465 . S
C2317 C2316 1.396 . S
C2317 C2318 1.399 . S
C2318 H2304 0.929 . S
C2318 C2317 1.399 . S
C2318 C2319 1.385 . S
C2319 H2305 0.931 . S
C2319 C2318 1.385 . S
C2319 C2320 1.389 . S
C2320 C2319 1.389 . S
C2320 C2321 1.387 . S
C2321 H2306 0.930 . S
C2321 C2316 1.390 . S
C2321 C2320 1.387 . S
H2322 C2334 0.930 . S
H2323 C2336 0.930 . S
H2324 C2337 0.930 . S
H2325 C2341 0.959 . S
H2326 C2341 0.959 . S
H2327 C2341 0.961 . S
H2328 C2342 0.960 . S
H2329 C2342 0.961 . S
H2330 C2342 0.959 . S
H2331 C2345 0.929 . S
H2332 C2346 0.931 . S
H2333 C2348 0.930 . S
C2334 H2322 0.930 . S
C2334 C2335 1.399 . S
C2334 C2339 1.399 . S
C2335 C2334 1.399 . S
C2335 C2336 1.376 . S
C2336 H2323 0.930 . S
C2336 C2335 1.376 . S
C2336 C2337 1.388 . S
C2337 H2324 0.930 . S
C2337 C2336 1.388 . S
C2337 C2338 1.390 . S
C2338 C2337 1.390 . S
C2338 C2339 1.394 . S
C2338 C2344 1.465 . S
C2339 C2334 1.399 . S
C2339 C2338 1.394 . S
C2339 C2340 1.516 . S
C2340 C2339 1.516 . S
C2340 C2341 1.502 . S
C2340 C2342 1.561 . S
C2340 C2343 1.526 . S
C2341 H2325 0.959 . S
C2341 H2326 0.959 . S
C2341 H2327 0.961 . S
C2341 C2340 1.502 . S
C2342 H2328 0.960 . S
C2342 H2329 0.961 . S
C2342 H2330 0.959 . S
C2342 C2340 1.561 . S
C2343 C2340 1.526 . S
C2343 C2344 1.396 . S
C2343 C2348 1.390 . S
C2344 C2338 1.465 . S
C2344 C2343 1.396 . S
C2344 C2345 1.399 . S
C2345 H2331 0.929 . S
C2345 C2344 1.399 . S
C2345 C2346 1.385 . S
C2346 H2332 0.931 . S
C2346 C2345 1.385 . S
C2346 C2347 1.389 . S
C2347 C2346 1.389 . S
C2347 C2348 1.387 . S
C2348 H2333 0.930 . S
C2348 C2343 1.390 . S
C2348 C2347 1.387 . S
H2349 C2361 0.930 . S
H2350 C2363 0.930 . S
H2351 C2364 0.930 . S
H2352 C2368 0.959 . S
H2353 C2368 0.959 . S
H2354 C2368 0.961 . S
H2355 C2369 0.960 . S
H2356 C2369 0.961 . S
H2357 C2369 0.959 . S
H2358 C2372 0.929 . S
H2359 C2373 0.931 . S
H2360 C2375 0.930 . S
C2361 H2349 0.930 . S
C2361 C2362 1.399 . S
C2361 C2366 1.399 . S
C2362 C2361 1.399 . S
C2362 C2363 1.376 . S
C2363 H2350 0.930 . S
C2363 C2362 1.376 . S
C2363 C2364 1.388 . S
C2364 H2351 0.930 . S
C2364 C2363 1.388 . S
C2364 C2365 1.390 . S
C2365 C2364 1.390 . S
C2365 C2366 1.394 . S
C2365 C2371 1.465 . S
C2366 C2361 1.399 . S
C2366 C2365 1.394 . S
C2366 C2367 1.516 . S
C2367 C2366 1.516 . S
C2367 C2368 1.502 . S
C2367 C2369 1.561 . S
C2367 C2370 1.526 . S
C2368 H2352 0.959 . S
C2368 H2353 0.959 . S
C2368 H2354 0.961 . S
C2368 C2367 1.502 . S
C2369 H2355 0.960 . S
C2369 H2356 0.961 . S
C2369 H2357 0.959 . S
C2369 C2367 1.561 . S
C2370 C2367 1.526 . S
C2370 C2371 1.396 . S
C2370 C2375 1.390 . S
C2371 C2365 1.465 . S
C2371 C2370 1.396 . S
C2371 C2372 1.399 . S
C2372 H2358 0.929 . S
C2372 C2371 1.399 . S
C2372 C2373 1.385 . S
C2373 H2359 0.931 . S
C2373 C2372 1.385 . S
C2373 C2374 1.389 . S
C2374 C2373 1.389 . S
C2374 C2375 1.387 . S
C2375 H2360 0.930 . S
C2375 C2370 1.390 . S
C2375 C2374 1.387 . S
H2376 C2388 0.930 . S
H2377 C2390 0.930 . S
H2378 C2391 0.930 . S
H2379 C2395 0.959 . S
H2380 C2395 0.959 . S
H2381 C2395 0.961 . S
H2382 C2396 0.960 . S
H2383 C2396 0.961 . S
H2384 C2396 0.959 . S
H2385 C2399 0.929 . S
H2386 C2400 0.931 . S
H2387 C2402 0.930 . S
C2388 H2376 0.930 . S
C2388 C2389 1.399 . S
C2388 C2393 1.399 . S
C2389 C2388 1.399 . S
C2389 C2390 1.376 . S
C2390 H2377 0.930 . S
C2390 C2389 1.376 . S
C2390 C2391 1.388 . S
C2391 H2378 0.930 . S
C2391 C2390 1.388 . S
C2391 C2392 1.390 . S
C2392 C2391 1.390 . S
C2392 C2393 1.394 . S
C2392 C2398 1.465 . S
C2393 C2388 1.399 . S
C2393 C2392 1.394 . S
C2393 C2394 1.516 . S
C2394 C2393 1.516 . S
C2394 C2395 1.502 . S
C2394 C2396 1.561 . S
C2394 C2397 1.526 . S
C2395 H2379 0.959 . S
C2395 H2380 0.959 . S
C2395 H2381 0.961 . S
C2395 C2394 1.502 . S
C2396 H2382 0.960 . S
C2396 H2383 0.961 . S
C2396 H2384 0.959 . S
C2396 C2394 1.561 . S
C2397 C2394 1.526 . S
C2397 C2398 1.396 . S
C2397 C2402 1.390 . S
C2398 C2392 1.465 . S
C2398 C2397 1.396 . S
C2398 C2399 1.399 . S
C2399 H2385 0.929 . S
C2399 C2398 1.399 . S
C2399 C2400 1.385 . S
C2400 H2386 0.931 . S
C2400 C2399 1.385 . S
C2400 C2401 1.389 . S
C2401 C2400 1.389 . S
C2401 C2402 1.387 . S
C2402 H2387 0.930 . S
C2402 C2397 1.390 . S
C2402 C2401 1.387 . S
H2403 C2415 0.930 . S
H2404 C2417 0.930 . S
H2405 C2418 0.930 . S
H2406 C2422 0.959 . S
H2407 C2422 0.959 . S
H2408 C2422 0.961 . S
H2409 C2423 0.960 . S
H2410 C2423 0.961 . S
H2411 C2423 0.959 . S
H2412 C2426 0.929 . S
H2413 C2427 0.931 . S
H2414 C2429 0.930 . S
C2415 H2403 0.930 . S
C2415 C2416 1.399 . S
C2415 C2420 1.399 . S
C2416 C2415 1.399 . S
C2416 C2417 1.376 . S
C2417 H2404 0.930 . S
C2417 C2416 1.376 . S
C2417 C2418 1.388 . S
C2418 H2405 0.930 . S
C2418 C2417 1.388 . S
C2418 C2419 1.390 . S
C2419 C2418 1.390 . S
C2419 C2420 1.394 . S
C2419 C2425 1.465 . S
C2420 C2415 1.399 . S
C2420 C2419 1.394 . S
C2420 C2421 1.516 . S
C2421 C2420 1.516 . S
C2421 C2422 1.502 . S
C2421 C2423 1.561 . S
C2421 C2424 1.526 . S
C2422 H2406 0.959 . S
C2422 H2407 0.959 . S
C2422 H2408 0.961 . S
C2422 C2421 1.502 . S
C2423 H2409 0.960 . S
C2423 H2410 0.961 . S
C2423 H2411 0.959 . S
C2423 C2421 1.561 . S
C2424 C2421 1.526 . S
C2424 C2425 1.396 . S
C2424 C2429 1.390 . S
C2425 C2419 1.465 . S
C2425 C2424 1.396 . S
C2425 C2426 1.399 . S
C2426 H2412 0.929 . S
C2426 C2425 1.399 . S
C2426 C2427 1.385 . S
C2427 H2413 0.931 . S
C2427 C2426 1.385 . S
C2427 C2428 1.389 . S
C2428 C2427 1.389 . S
C2428 C2429 1.387 . S
C2429 H2414 0.930 . S
C2429 C2424 1.390 . S
C2429 C2428 1.387 . S
H2430 C2442 0.930 . S
H2431 C2444 0.930 . S
H2432 C2445 0.930 . S
H2433 C2449 0.959 . S
H2434 C2449 0.959 . S
H2435 C2449 0.961 . S
H2436 C2450 0.960 . S
H2437 C2450 0.961 . S
H2438 C2450 0.959 . S
H2439 C2453 0.929 . S
H2440 C2454 0.931 . S
H2441 C2456 0.930 . S
C2442 H2430 0.930 . S
C2442 C2443 1.399 . S
C2442 C2447 1.399 . S
C2443 C2442 1.399 . S
C2443 C2444 1.376 . S
C2444 H2431 0.930 . S
C2444 C2443 1.376 . S
C2444 C2445 1.388 . S
C2445 H2432 0.930 . S
C2445 C2444 1.388 . S
C2445 C2446 1.390 . S
C2446 C2445 1.390 . S
C2446 C2447 1.394 . S
C2446 C2452 1.465 . S
C2447 C2442 1.399 . S
C2447 C2446 1.394 . S
C2447 C2448 1.516 . S
C2448 C2447 1.516 . S
C2448 C2449 1.502 . S
C2448 C2450 1.561 . S
C2448 C2451 1.526 . S
C2449 H2433 0.959 . S
C2449 H2434 0.959 . S
C2449 H2435 0.961 . S
C2449 C2448 1.502 . S
C2450 H2436 0.960 . S
C2450 H2437 0.961 . S
C2450 H2438 0.959 . S
C2450 C2448 1.561 . S
C2451 C2448 1.526 . S
C2451 C2452 1.396 . S
C2451 C2456 1.390 . S
C2452 C2446 1.465 . S
C2452 C2451 1.396 . S
C2452 C2453 1.399 . S
C2453 H2439 0.929 . S
C2453 C2452 1.399 . S
C2453 C2454 1.385 . S
C2454 H2440 0.931 . S
C2454 C2453 1.385 . S
C2454 C2455 1.389 . S
C2455 C2454 1.389 . S
C2455 C2456 1.387 . S
C2456 H2441 0.930 . S
C2456 C2451 1.390 . S
C2456 C2455 1.387 . S
H2457 C2469 0.930 . S
H2458 C2471 0.926 1_655 S
H2459 C2472 0.930 . S
H2460 C2476 0.959 . S
H2461 C2476 0.959 . S
H2462 C2476 0.961 . S
H2463 C2477 0.960 . S
H2464 C2477 0.961 . S
H2465 C2477 0.959 . S
H2466 C2480 0.929 . S
H2467 C2481 0.931 . S
H2468 C2483 0.930 . S
C2469 H2457 0.930 . S
C2469 C2470 1.399 . S
C2469 C2474 1.399 . S
C2470 C2469 1.399 . S
C2470 C2471 1.393 . S
C2471 H2458 0.926 1_455 S
C2471 C2470 1.393 . S
C2471 C2472 1.376 1_455 S
C2472 H2459 0.930 . S
C2472 C2471 1.376 1_655 S
C2472 C2473 1.390 1_655 S
C2473 C2472 1.390 1_455 S
C2473 C2474 1.394 . S
C2473 C2479 1.465 . S
C2474 C2469 1.399 . S
C2474 C2473 1.394 . S
C2474 C2475 1.516 . S
C2475 C2474 1.516 . S
C2475 C2476 1.502 . S
C2475 C2477 1.561 . S
C2475 C2478 1.526 . S
C2476 H2460 0.959 . S
C2476 H2461 0.959 . S
C2476 H2462 0.961 . S
C2476 C2475 1.502 . S
C2477 H2463 0.960 . S
C2477 H2464 0.961 . S
C2477 H2465 0.959 . S
C2477 C2475 1.561 . S
C2478 C2475 1.526 . S
C2478 C2479 1.396 . S
C2478 C2483 1.390 . S
C2479 C2473 1.465 . S
C2479 C2478 1.396 . S
C2479 C2480 1.399 1_455 S
C2480 H2466 0.929 . S
C2480 C2479 1.399 1_655 S
C2480 C2481 1.385 . S
C2481 H2467 0.931 . S
C2481 C2480 1.385 . S
C2481 C2482 1.389 1_655 S
C2482 C2481 1.389 1_455 S
C2482 C2483 1.387 . S
C2483 H2468 0.930 . S
C2483 C2478 1.390 . S
C2483 C2482 1.387 . S
H2484 C2496 0.930 . S
H2485 C2498 0.930 . S
H2486 C2499 0.930 . S
H2487 C2503 0.959 . S
H2488 C2503 0.959 . S
H2489 C2503 0.961 . S
H2490 C2504 0.960 . S
H2491 C2504 0.961 . S
H2492 C2504 0.959 . S
H2493 C2507 0.929 . S
H2494 C2508 0.931 . S
H2495 C2510 0.930 . S
C2496 H2484 0.930 . S
C2496 C2497 1.399 . S
C2496 C2501 1.399 . S
C2497 C2496 1.399 . S
C2497 C2498 1.376 . S
C2498 H2485 0.930 . S
C2498 C2497 1.376 . S
C2498 C2499 1.388 . S
C2499 H2486 0.930 . S
C2499 C2498 1.388 . S
C2499 C2500 1.390 . S
C2500 C2499 1.390 . S
C2500 C2501 1.394 . S
C2500 C2506 1.465 . S
C2501 C2496 1.399 . S
C2501 C2500 1.394 . S
C2501 C2502 1.516 . S
C2502 C2501 1.516 . S
C2502 C2503 1.502 . S
C2502 C2504 1.561 . S
C2502 C2505 1.526 . S
C2503 H2487 0.959 . S
C2503 H2488 0.959 . S
C2503 H2489 0.961 . S
C2503 C2502 1.502 . S
C2504 H2490 0.960 . S
C2504 H2491 0.961 . S
C2504 H2492 0.959 . S
C2504 C2502 1.561 . S
C2505 C2502 1.526 . S
C2505 C2506 1.396 . S
C2505 C2510 1.390 . S
C2506 C2500 1.465 . S
C2506 C2505 1.396 . S
C2506 C2507 1.399 . S
C2507 H2493 0.929 . S
C2507 C2506 1.399 . S
C2507 C2508 1.385 . S
C2508 H2494 0.931 . S
C2508 C2507 1.385 . S
C2508 C2509 1.389 . S
C2509 C2508 1.389 . S
C2509 C2510 1.387 . S
C2510 H2495 0.930 . S
C2510 C2505 1.390 . S
C2510 C2509 1.387 . S
H2511 C2523 0.930 . S
H2512 C2525 0.921 1_545 S
H2513 C2526 0.932 . S
H2514 C2530 0.959 . S
H2515 C2530 0.959 . S
H2516 C2530 0.961 . S
H2517 C2531 0.960 . S
H2518 C2531 0.961 . S
H2519 C2531 0.959 1_545 S
H2520 C2534 0.929 . S
H2521 C2535 0.931 . S
H2522 C2537 0.930 . S
C2523 H2511 0.930 . S
C2523 C2524 1.399 . S
C2523 C2528 1.399 . S
C2524 C2523 1.399 . S
C2524 C2525 1.376 . S
C2525 H2512 0.921 1_565 S
C2525 C2524 1.376 . S
C2525 C2526 1.406 1_565 S
C2526 H2513 0.932 . S
C2526 C2525 1.406 1_545 S
C2526 C2527 1.374 1_545 S
C2527 C2526 1.374 1_565 S
C2527 C2528 1.394 . S
C2527 C2533 1.465 . S
C2528 C2523 1.399 . S
C2528 C2527 1.394 . S
C2528 C2529 1.516 . S
C2529 C2528 1.516 . S
C2529 C2530 1.502 . S
C2529 C2531 1.561 . S
C2529 C2532 1.526 . S
C2530 H2514 0.959 . S
C2530 H2515 0.959 . S
C2530 H2516 0.961 . S
C2530 C2529 1.502 . S
C2531 H2517 0.960 . S
C2531 H2518 0.961 . S
C2531 H2519 0.959 1_565 S
C2531 C2529 1.561 . S
C2532 C2529 1.526 . S
C2532 C2533 1.396 . S
C2532 C2537 1.390 . S
C2533 C2527 1.465 . S
C2533 C2532 1.396 . S
C2533 C2534 1.399 1_565 S
C2534 H2520 0.929 . S
C2534 C2533 1.399 1_545 S
C2534 C2535 1.385 . S
C2535 H2521 0.931 . S
C2535 C2534 1.385 . S
C2535 C2536 1.389 1_545 S
C2536 C2535 1.389 1_565 S
C2536 C2537 1.387 . S
C2537 H2522 0.930 . S
C2537 C2532 1.390 . S
C2537 C2536 1.387 . S
H2538 C2550 0.930 1_545 S
H2539 C2552 0.930 . S
H2540 C2553 0.930 . S
H2541 C2557 0.959 . S
H2542 C2557 0.959 . S
H2543 C2557 0.961 . S
H2544 C2558 0.960 . S
H2545 C2558 0.961 . S
H2546 C2558 0.959 . S
H2547 C2561 0.929 . S
H2548 C2562 0.931 . S
H2549 C2564 0.930 . S
C2550 H2538 0.930 1_565 S
C2550 C2551 1.399 . S
C2550 C2555 1.399 . S
C2551 C2550 1.399 . S
C2551 C2552 1.376 . S
C2552 H2539 0.930 . S
C2552 C2551 1.376 . S
C2552 C2553 1.388 . S
C2553 H2540 0.930 . S
C2553 C2552 1.388 . S
C2553 C2554 1.390 . S
C2554 C2553 1.390 . S
C2554 C2555 1.394 . S
C2554 C2560 1.465 . S
C2555 C2550 1.399 . S
C2555 C2554 1.394 . S
C2555 C2556 1.516 1_565 S
C2556 C2555 1.516 1_545 S
C2556 C2557 1.502 . S
C2556 C2558 1.561 . S
C2556 C2559 1.526 . S
C2557 H2541 0.959 . S
C2557 H2542 0.959 . S
C2557 H2543 0.961 . S
C2557 C2556 1.502 . S
C2558 H2544 0.960 . S
C2558 H2545 0.961 . S
C2558 H2546 0.959 . S
C2558 C2556 1.561 . S
C2559 C2556 1.526 . S
C2559 C2560 1.394 1_545 S
C2559 C2564 1.391 . S
C2560 C2554 1.465 . S
C2560 C2559 1.394 1_565 S
C2560 C2561 1.399 . S
C2561 H2547 0.929 . S
C2561 C2560 1.399 . S
C2561 C2562 1.385 . S
C2562 H2548 0.931 . S
C2562 C2561 1.385 . S
C2562 C2563 1.389 . S
C2563 C2562 1.389 . S
C2563 C2564 1.387 1_565 S
C2564 H2549 0.930 . S
C2564 C2559 1.391 . S
C2564 C2563 1.387 1_545 S
H2565 C2577 0.930 . S
H2566 C2579 0.934 . S
H2567 C2580 0.932 . S
H2568 C2584 0.959 . S
H2569 C2584 0.959 . S
H2570 C2584 0.961 . S
H2571 C2585 0.960 . S
H2572 C2585 0.961 . S
H2573 C2585 0.959 . S
H2574 C2588 0.929 . S
H2575 C2589 0.931 . S
H2576 C2591 0.930 . S
C2577 H2565 0.930 . S
C2577 C2578 1.399 . S
C2577 C2582 1.399 . S
C2578 C2577 1.399 . S
C2578 C2579 1.376 . S
C2579 H2566 0.934 . S
C2579 C2578 1.376 . S
C2579 C2580 1.390 1_455 S
C2580 H2567 0.932 . S
C2580 C2579 1.390 1_655 S
C2580 C2581 1.385 1_655 S
C2581 C2580 1.385 1_455 S
C2581 C2582 1.394 . S
C2581 C2587 1.465 . S
C2582 C2577 1.399 . S
C2582 C2581 1.394 . S
C2582 C2583 1.516 . S
C2583 C2582 1.516 . S
C2583 C2584 1.502 . S
C2583 C2585 1.561 . S
C2583 C2586 1.526 . S
C2584 H2568 0.959 . S
C2584 H2569 0.959 . S
C2584 H2570 0.961 . S
C2584 C2583 1.502 . S
C2585 H2571 0.960 . S
C2585 H2572 0.961 . S
C2585 H2573 0.959 . S
C2585 C2583 1.561 . S
C2586 C2583 1.526 . S
C2586 C2587 1.396 . S
C2586 C2591 1.390 . S
C2587 C2581 1.465 . S
C2587 C2586 1.396 . S
C2587 C2588 1.399 1_455 S
C2588 H2574 0.929 . S
C2588 C2587 1.399 1_655 S
C2588 C2589 1.385 . S
C2589 H2575 0.931 . S
C2589 C2588 1.385 . S
C2589 C2590 1.389 1_655 S
C2590 C2589 1.389 1_455 S
C2590 C2591 1.387 . S
C2591 H2576 0.930 . S
C2591 C2586 1.390 . S
C2591 C2590 1.387 . S
H2592 C2604 0.930 . S
H2593 C2606 0.930 . S
H2594 C2607 0.930 . S
H2595 C2611 0.959 . S
H2596 C2611 0.959 . S
H2597 C2611 0.961 . S
H2598 C2612 0.960 . S
H2599 C2612 0.961 . S
H2600 C2612 0.959 . S
H2601 C2615 0.929 . S
H2602 C2616 0.931 . S
H2603 C2618 0.930 . S
C2604 H2592 0.930 . S
C2604 C2605 1.399 . S
C2604 C2609 1.399 . S
C2605 C2604 1.399 . S
C2605 C2606 1.376 . S
C2606 H2593 0.930 . S
C2606 C2605 1.376 . S
C2606 C2607 1.388 . S
C2607 H2594 0.930 . S
C2607 C2606 1.388 . S
C2607 C2608 1.390 . S
C2608 C2607 1.390 . S
C2608 C2609 1.394 . S
C2608 C2614 1.465 . S
C2609 C2604 1.399 . S
C2609 C2608 1.394 . S
C2609 C2610 1.516 . S
C2610 C2609 1.516 . S
C2610 C2611 1.502 . S
C2610 C2612 1.561 . S
C2610 C2613 1.526 . S
C2611 H2595 0.959 . S
C2611 H2596 0.959 . S
C2611 H2597 0.961 . S
C2611 C2610 1.502 . S
C2612 H2598 0.960 . S
C2612 H2599 0.961 . S
C2612 H2600 0.959 . S
C2612 C2610 1.561 . S
C2613 C2610 1.526 . S
C2613 C2614 1.396 . S
C2613 C2618 1.390 . S
C2614 C2608 1.465 . S
C2614 C2613 1.396 . S
C2614 C2615 1.399 . S
C2615 H2601 0.929 . S
C2615 C2614 1.399 . S
C2615 C2616 1.385 . S
C2616 H2602 0.931 . S
C2616 C2615 1.385 . S
C2616 C2617 1.389 . S
C2617 C2616 1.389 . S
C2617 C2618 1.387 . S
C2618 H2603 0.930 . S
C2618 C2613 1.390 . S
C2618 C2617 1.387 . S
H2619 C2631 0.930 . S
H2620 C2633 0.930 . S
H2621 C2634 0.930 . S
H2622 C2638 0.959 . S
H2623 C2638 0.959 . S
H2624 C2638 0.961 . S
H2625 C2639 0.960 . S
H2626 C2639 0.961 . S
H2627 C2639 0.959 . S
H2628 C2642 0.929 . S
H2629 C2643 0.931 . S
H2630 C2645 0.930 . S
C2631 H2619 0.930 . S
C2631 C2632 1.399 . S
C2631 C2636 1.399 . S
C2632 C2631 1.399 . S
C2632 C2633 1.376 . S
C2633 H2620 0.930 . S
C2633 C2632 1.376 . S
C2633 C2634 1.388 . S
C2634 H2621 0.930 . S
C2634 C2633 1.388 . S
C2634 C2635 1.390 . S
C2635 C2634 1.390 . S
C2635 C2636 1.394 . S
C2635 C2641 1.465 . S
C2636 C2631 1.399 . S
C2636 C2635 1.394 . S
C2636 C2637 1.516 . S
C2637 C2636 1.516 . S
C2637 C2638 1.502 . S
C2637 C2639 1.561 . S
C2637 C2640 1.526 . S
C2638 H2622 0.959 . S
C2638 H2623 0.959 . S
C2638 H2624 0.961 . S
C2638 C2637 1.502 . S
C2639 H2625 0.960 . S
C2639 H2626 0.961 . S
C2639 H2627 0.959 . S
C2639 C2637 1.561 . S
C2640 C2637 1.526 . S
C2640 C2641 1.396 . S
C2640 C2645 1.390 . S
C2641 C2635 1.465 . S
C2641 C2640 1.396 . S
C2641 C2642 1.399 . S
C2642 H2628 0.929 . S
C2642 C2641 1.399 . S
C2642 C2643 1.385 . S
C2643 H2629 0.931 . S
C2643 C2642 1.385 . S
C2643 C2644 1.389 . S
C2644 C2643 1.389 . S
C2644 C2645 1.387 . S
C2645 H2630 0.930 . S
C2645 C2640 1.390 . S
C2645 C2644 1.387 . S
H2646 C2658 0.930 . S
H2647 C2660 0.930 . S
H2648 C2661 0.930 . S
H2649 C2665 0.959 . S
H2650 C2665 0.959 . S
H2651 C2665 0.961 . S
H2652 C2666 0.960 . S
H2653 C2666 0.961 . S
H2654 C2666 0.959 . S
H2655 C2669 0.929 . S
H2656 C2670 0.931 . S
H2657 C2672 0.930 . S
C2658 H2646 0.930 . S
C2658 C2659 1.399 . S
C2658 C2663 1.399 . S
C2659 C2658 1.399 . S
C2659 C2660 1.376 . S
C2660 H2647 0.930 . S
C2660 C2659 1.376 . S
C2660 C2661 1.388 . S
C2661 H2648 0.930 . S
C2661 C2660 1.388 . S
C2661 C2662 1.390 . S
C2662 C2661 1.390 . S
C2662 C2663 1.394 . S
C2662 C2668 1.465 . S
C2663 C2658 1.399 . S
C2663 C2662 1.394 . S
C2663 C2664 1.516 . S
C2664 C2663 1.516 . S
C2664 C2665 1.502 . S
C2664 C2666 1.561 . S
C2664 C2667 1.526 . S
C2665 H2649 0.959 . S
C2665 H2650 0.959 . S
C2665 H2651 0.961 . S
C2665 C2664 1.502 . S
C2666 H2652 0.960 . S
C2666 H2653 0.961 . S
C2666 H2654 0.959 . S
C2666 C2664 1.561 . S
C2667 C2664 1.526 . S
C2667 C2668 1.396 . S
C2667 C2672 1.390 . S
C2668 C2662 1.465 . S
C2668 C2667 1.396 . S
C2668 C2669 1.399 . S
C2669 H2655 0.929 . S
C2669 C2668 1.399 . S
C2669 C2670 1.385 . S
C2670 H2656 0.931 . S
C2670 C2669 1.385 . S
C2670 C2671 1.389 . S
C2671 C2670 1.389 . S
C2671 C2672 1.387 . S
C2672 H2657 0.930 . S
C2672 C2667 1.390 . S
C2672 C2671 1.387 . S
H2673 C2685 0.930 . S
H2674 C2687 0.930 . S
H2675 C2688 0.930 . S
H2676 C2692 0.959 . S
H2677 C2692 0.959 . S
H2678 C2692 0.961 . S
H2679 C2693 0.960 . S
H2680 C2693 0.961 . S
H2681 C2693 0.959 . S
H2682 C2696 0.929 . S
H2683 C2697 0.931 . S
H2684 C2699 0.930 . S
C2685 H2673 0.930 . S
C2685 C2686 1.399 . S
C2685 C2690 1.399 . S
C2686 C2685 1.399 . S
C2686 C2687 1.376 . S
C2687 H2674 0.930 . S
C2687 C2686 1.376 . S
C2687 C2688 1.388 . S
C2688 H2675 0.930 . S
C2688 C2687 1.388 . S
C2688 C2689 1.390 . S
C2689 C2688 1.390 . S
C2689 C2690 1.394 . S
C2689 C2695 1.465 . S
C2690 C2685 1.399 . S
C2690 C2689 1.394 . S
C2690 C2691 1.516 . S
C2691 C2690 1.516 . S
C2691 C2692 1.502 . S
C2691 C2693 1.561 . S
C2691 C2694 1.526 . S
C2692 H2676 0.959 . S
C2692 H2677 0.959 . S
C2692 H2678 0.961 . S
C2692 C2691 1.502 . S
C2693 H2679 0.960 . S
C2693 H2680 0.961 . S
C2693 H2681 0.959 . S
C2693 C2691 1.561 . S
C2694 C2691 1.526 . S
C2694 C2695 1.396 . S
C2694 C2699 1.390 . S
C2695 C2689 1.465 . S
C2695 C2694 1.396 . S
C2695 C2696 1.399 . S
C2696 H2682 0.929 . S
C2696 C2695 1.399 . S
C2696 C2697 1.385 . S
C2697 H2683 0.931 . S
C2697 C2696 1.385 . S
C2697 C2698 1.389 . S
C2698 C2697 1.389 . S
C2698 C2699 1.387 . S
C2699 H2684 0.930 . S
C2699 C2694 1.390 . S
C2699 C2698 1.387 . S
H2700 C2712 0.930 . S
H2701 C2714 0.930 . S
H2702 C2715 0.930 . S
H2703 C2719 0.959 . S
H2704 C2719 0.959 . S
H2705 C2719 0.961 . S
H2706 C2720 0.960 . S
H2707 C2720 0.961 . S
H2708 C2720 0.959 . S
H2709 C2723 0.929 . S
H2710 C2724 0.931 . S
H2711 C2726 0.930 . S
C2712 H2700 0.930 . S
C2712 C2713 1.399 . S
C2712 C2717 1.399 . S
C2713 C2712 1.399 . S
C2713 C2714 1.376 1_545 S
C2714 H2701 0.930 . S
C2714 C2713 1.376 1_565 S
C2714 C2715 1.388 . S
C2715 H2702 0.930 . S
C2715 C2714 1.388 . S
C2715 C2716 1.390 1_565 S
C2716 C2715 1.390 1_545 S
C2716 C2717 1.394 . S
C2716 C2722 1.463 . S
C2717 C2712 1.399 . S
C2717 C2716 1.394 . S
C2717 C2718 1.516 . S
C2718 C2717 1.516 . S
C2718 C2719 1.502 . S
C2718 C2720 1.561 . S
C2718 C2721 1.526 . S
C2719 H2703 0.959 . S
C2719 H2704 0.959 . S
C2719 H2705 0.961 . S
C2719 C2718 1.502 . S
C2720 H2706 0.960 . S
C2720 H2707 0.961 . S
C2720 H2708 0.959 . S
C2720 C2718 1.561 . S
C2721 C2718 1.526 . S
C2721 C2722 1.394 . S
C2721 C2726 1.390 . S
C2722 C2716 1.463 . S
C2722 C2721 1.394 . S
C2722 C2723 1.402 1_545 S
C2723 H2709 0.929 . S
C2723 C2722 1.402 1_565 S
C2723 C2724 1.385 . S
C2724 H2710 0.931 . S
C2724 C2723 1.385 . S
C2724 C2725 1.389 1_565 S
C2725 C2724 1.389 1_545 S
C2725 C2726 1.387 . S
C2726 H2711 0.930 . S
C2726 C2721 1.390 . S
C2726 C2725 1.387 . S
H2727 C2739 0.921 1_455 S
H2728 C2741 0.930 . S
H2729 C2742 0.930 . S
H2730 C2746 0.959 . S
H2731 C2746 0.959 . S
H2732 C2746 0.961 . S
H2733 C2747 0.960 . S
H2734 C2747 0.961 . S
H2735 C2747 0.959 . S
H2736 C2750 0.929 . S
H2737 C2751 0.931 . S
H2738 C2753 0.946 . S
C2739 H2727 0.921 1_655 S
C2739 C2740 1.399 . S
C2739 C2744 1.399 . S
C2740 C2739 1.399 . S
C2740 C2741 1.376 . S
C2741 H2728 0.930 . S
C2741 C2740 1.376 . S
C2741 C2742 1.388 . S
C2742 H2729 0.930 . S
C2742 C2741 1.388 . S
C2742 C2743 1.390 . S
C2743 C2742 1.390 . S
C2743 C2744 1.394 . S
C2743 C2749 1.465 . S
C2744 C2739 1.399 . S
C2744 C2743 1.394 . S
C2744 C2745 1.527 1_655 S
C2745 C2744 1.527 1_455 S
C2745 C2746 1.564 . S
C2745 C2747 1.513 1_455 S
C2745 C2748 1.497 1_455 S
C2746 H2730 0.959 . S
C2746 H2731 0.959 . S
C2746 H2732 0.961 . S
C2746 C2745 1.564 . S
C2747 H2733 0.960 . S
C2747 H2734 0.961 . S
C2747 H2735 0.959 . S
C2747 C2745 1.513 1_655 S
C2748 C2745 1.497 1_655 S
C2748 C2749 1.396 . S
C2748 C2753 1.411 1_655 S
C2749 C2743 1.465 . S
C2749 C2748 1.396 . S
C2749 C2750 1.399 . S
C2750 H2736 0.929 . S
C2750 C2749 1.399 . S
C2750 C2751 1.385 . S
C2751 H2737 0.931 . S
C2751 C2750 1.385 . S
C2751 C2752 1.389 . S
C2752 C2751 1.389 . S
C2752 C2753 1.356 1_655 S
C2753 H2738 0.946 . S
C2753 C2748 1.411 1_455 S
C2753 C2752 1.356 1_455 S
H2754 C2766 0.930 . S
H2755 C2768 0.930 . S
H2756 C2769 0.930 . S
H2757 C2773 0.959 . S
H2758 C2773 0.959 . S
H2759 C2773 0.961 . S
H2760 C2774 0.960 . S
H2761 C2774 0.961 . S
H2762 C2774 0.959 . S
H2763 C2777 0.929 . S
H2764 C2778 0.931 . S
H2765 C2780 0.930 . S
C2766 H2754 0.930 . S
C2766 C2767 1.399 . S
C2766 C2771 1.399 . S
C2767 C2766 1.399 . S
C2767 C2768 1.376 . S
C2768 H2755 0.930 . S
C2768 C2767 1.376 . S
C2768 C2769 1.388 . S
C2769 H2756 0.930 . S
C2769 C2768 1.388 . S
C2769 C2770 1.390 . S
C2770 C2769 1.390 . S
C2770 C2771 1.394 . S
C2770 C2776 1.465 . S
C2771 C2766 1.399 . S
C2771 C2770 1.394 . S
C2771 C2772 1.516 . S
C2772 C2771 1.516 . S
C2772 C2773 1.502 . S
C2772 C2774 1.561 . S
C2772 C2775 1.526 . S
C2773 H2757 0.959 . S
C2773 H2758 0.959 . S
C2773 H2759 0.961 . S
C2773 C2772 1.502 . S
C2774 H2760 0.960 . S
C2774 H2761 0.961 . S
C2774 H2762 0.959 . S
C2774 C2772 1.561 . S
C2775 C2772 1.526 . S
C2775 C2776 1.396 . S
C2775 C2780 1.390 . S
C2776 C2770 1.465 . S
C2776 C2775 1.396 . S
C2776 C2777 1.399 . S
C2777 H2763 0.929 . S
C2777 C2776 1.399 . S
C2777 C2778 1.385 . S
C2778 H2764 0.931 . S
C2778 C2777 1.385 . S
C2778 C2779 1.389 . S
C2779 C2778 1.389 . S
C2779 C2780 1.387 . S
C2780 H2765 0.930 . S
C2780 C2775 1.390 . S
C2780 C2779 1.387 . S
H2781 C2793 0.930 . S
H2782 C2795 0.930 . S
H2783 C2796 0.930 . S
H2784 C2800 0.959 . S
H2785 C2800 0.959 . S
H2786 C2800 0.961 . S
H2787 C2801 0.960 . S
H2788 C2801 0.961 . S
H2789 C2801 0.959 . S
H2790 C2804 0.929 . S
H2791 C2805 0.931 . S
H2792 C2807 0.930 . S
C2793 H2781 0.930 . S
C2793 C2794 1.399 . S
C2793 C2798 1.399 . S
C2794 C2793 1.399 . S
C2794 C2795 1.376 . S
C2795 H2782 0.930 . S
C2795 C2794 1.376 . S
C2795 C2796 1.388 . S
C2796 H2783 0.930 . S
C2796 C2795 1.388 . S
C2796 C2797 1.390 . S
C2797 C2796 1.390 . S
C2797 C2798 1.394 . S
C2797 C2803 1.465 . S
C2798 C2793 1.399 . S
C2798 C2797 1.394 . S
C2798 C2799 1.516 . S
C2799 C2798 1.516 . S
C2799 C2800 1.502 . S
C2799 C2801 1.561 . S
C2799 C2802 1.526 . S
C2800 H2784 0.959 . S
C2800 H2785 0.959 . S
C2800 H2786 0.961 . S
C2800 C2799 1.502 . S
C2801 H2787 0.960 . S
C2801 H2788 0.961 . S
C2801 H2789 0.959 . S
C2801 C2799 1.561 . S
C2802 C2799 1.526 . S
C2802 C2803 1.396 . S
C2802 C2807 1.390 . S
C2803 C2797 1.465 . S
C2803 C2802 1.396 . S
C2803 C2804 1.399 . S
C2804 H2790 0.929 . S
C2804 C2803 1.399 . S
C2804 C2805 1.385 . S
C2805 H2791 0.931 . S
C2805 C2804 1.385 . S
C2805 C2806 1.389 . S
C2806 C2805 1.389 . S
C2806 C2807 1.387 . S
C2807 H2792 0.930 . S
C2807 C2802 1.390 . S
C2807 C2806 1.387 . S
H2808 C2820 0.930 . S
H2809 C2822 0.930 . S
H2810 C2823 0.930 . S
H2811 C2827 0.959 . S
H2812 C2827 0.959 . S
H2813 C2827 0.961 . S
H2814 C2828 0.960 . S
H2815 C2828 0.961 . S
H2816 C2828 0.959 . S
H2817 C2831 0.929 . S
H2818 C2832 0.931 . S
H2819 C2834 0.930 . S
C2820 H2808 0.930 . S
C2820 C2821 1.399 . S
C2820 C2825 1.399 . S
C2821 C2820 1.399 . S
C2821 C2822 1.376 . S
C2822 H2809 0.930 . S
C2822 C2821 1.376 . S
C2822 C2823 1.388 . S
C2823 H2810 0.930 . S
C2823 C2822 1.388 . S
C2823 C2824 1.390 . S
C2824 C2823 1.390 . S
C2824 C2825 1.394 . S
C2824 C2830 1.465 . S
C2825 C2820 1.399 . S
C2825 C2824 1.394 . S
C2825 C2826 1.516 . S
C2826 C2825 1.516 . S
C2826 C2827 1.502 . S
C2826 C2828 1.561 . S
C2826 C2829 1.526 . S
C2827 H2811 0.959 . S
C2827 H2812 0.959 . S
C2827 H2813 0.961 . S
C2827 C2826 1.502 . S
C2828 H2814 0.960 . S
C2828 H2815 0.961 . S
C2828 H2816 0.959 . S
C2828 C2826 1.561 . S
C2829 C2826 1.526 . S
C2829 C2830 1.396 . S
C2829 C2834 1.390 . S
C2830 C2824 1.465 . S
C2830 C2829 1.396 . S
C2830 C2831 1.399 . S
C2831 H2817 0.929 . S
C2831 C2830 1.399 . S
C2831 C2832 1.385 . S
C2832 H2818 0.931 . S
C2832 C2831 1.385 . S
C2832 C2833 1.389 . S
C2833 C2832 1.389 . S
C2833 C2834 1.387 . S
C2834 H2819 0.930 . S
C2834 C2829 1.390 . S
C2834 C2833 1.387 . S
H2835 C2847 0.930 . S
H2836 C2849 0.930 . S
H2837 C2850 0.930 . S
H2838 C2854 0.959 . S
H2839 C2854 0.959 . S
H2840 C2854 0.961 . S
H2841 C2855 0.960 . S
H2842 C2855 0.961 . S
H2843 C2855 0.959 . S
H2844 C2858 0.929 . S
H2845 C2859 0.931 . S
H2846 C2861 0.930 . S
C2847 H2835 0.930 . S
C2847 C2848 1.399 . S
C2847 C2852 1.399 . S
C2848 C2847 1.399 . S
C2848 C2849 1.376 . S
C2849 H2836 0.930 . S
C2849 C2848 1.376 . S
C2849 C2850 1.388 . S
C2850 H2837 0.930 . S
C2850 C2849 1.388 . S
C2850 C2851 1.390 . S
C2851 C2850 1.390 . S
C2851 C2852 1.394 . S
C2851 C2857 1.465 . S
C2852 C2847 1.399 . S
C2852 C2851 1.394 . S
C2852 C2853 1.516 . S
C2853 C2852 1.516 . S
C2853 C2854 1.502 . S
C2853 C2855 1.561 . S
C2853 C2856 1.526 . S
C2854 H2838 0.959 . S
C2854 H2839 0.959 . S
C2854 H2840 0.961 . S
C2854 C2853 1.502 . S
C2855 H2841 0.960 . S
C2855 H2842 0.961 . S
C2855 H2843 0.959 . S
C2855 C2853 1.561 . S
C2856 C2853 1.526 . S
C2856 C2857 1.396 . S
C2856 C2861 1.390 . S
C2857 C2851 1.465 . S
C2857 C2856 1.396 . S
C2857 C2858 1.399 . S
C2858 H2844 0.929 . S
C2858 C2857 1.399 . S
C2858 C2859 1.385 . S
C2859 H2845 0.931 . S
C2859 C2858 1.385 . S
C2859 C2860 1.389 . S
C2860 C2859 1.389 . S
C2860 C2861 1.387 . S
C2861 H2846 0.930 . S
C2861 C2856 1.390 . S
C2861 C2860 1.387 . S
H2862 C2874 0.930 . S
H2863 C2876 0.930 . S
H2864 C2877 0.930 . S
H2865 C2881 0.959 . S
H2866 C2881 0.959 . S
H2867 C2881 0.961 . S
H2868 C2882 0.960 . S
H2869 C2882 0.961 . S
H2870 C2882 0.959 . S
H2871 C2885 0.929 . S
H2872 C2886 0.931 . S
H2873 C2888 0.930 . S
C2874 H2862 0.930 . S
C2874 C2875 1.399 . S
C2874 C2879 1.399 . S
C2875 C2874 1.399 . S
C2875 C2876 1.376 . S
C2876 H2863 0.930 . S
C2876 C2875 1.376 . S
C2876 C2877 1.388 . S
C2877 H2864 0.930 . S
C2877 C2876 1.388 . S
C2877 C2878 1.390 . S
C2878 C2877 1.390 . S
C2878 C2879 1.394 . S
C2878 C2884 1.465 . S
C2879 C2874 1.399 . S
C2879 C2878 1.394 . S
C2879 C2880 1.516 . S
C2880 C2879 1.516 . S
C2880 C2881 1.502 . S
C2880 C2882 1.561 . S
C2880 C2883 1.526 . S
C2881 H2865 0.959 . S
C2881 H2866 0.959 . S
C2881 H2867 0.961 . S
C2881 C2880 1.502 . S
C2882 H2868 0.960 . S
C2882 H2869 0.961 . S
C2882 H2870 0.959 . S
C2882 C2880 1.561 . S
C2883 C2880 1.526 . S
C2883 C2884 1.396 . S
C2883 C2888 1.390 . S
C2884 C2878 1.465 . S
C2884 C2883 1.396 . S
C2884 C2885 1.399 . S
C2885 H2871 0.929 . S
C2885 C2884 1.399 . S
C2885 C2886 1.385 . S
C2886 H2872 0.931 . S
C2886 C2885 1.385 . S
C2886 C2887 1.389 . S
C2887 C2886 1.389 . S
C2887 C2888 1.387 . S
C2888 H2873 0.930 . S
C2888 C2883 1.390 . S
C2888 C2887 1.387 . S
H2889 C2901 0.930 . S
H2890 C2903 0.930 . S
H2891 C2904 0.930 . S
H2892 C2908 0.959 . S
H2893 C2908 0.959 . S
H2894 C2908 0.961 . S
H2895 C2909 0.960 . S
H2896 C2909 0.961 . S
H2897 C2909 0.959 . S
H2898 C2912 0.929 . S
H2899 C2913 0.931 . S
H2900 C2915 0.930 . S
C2901 H2889 0.930 . S
C2901 C2902 1.399 . S
C2901 C2906 1.399 . S
C2902 C2901 1.399 . S
C2902 C2903 1.376 . S
C2903 H2890 0.930 . S
C2903 C2902 1.376 . S
C2903 C2904 1.388 . S
C2904 H2891 0.930 . S
C2904 C2903 1.388 . S
C2904 C2905 1.390 . S
C2905 C2904 1.390 . S
C2905 C2906 1.394 . S
C2905 C2911 1.465 . S
C2906 C2901 1.399 . S
C2906 C2905 1.394 . S
C2906 C2907 1.516 . S
C2907 C2906 1.516 . S
C2907 C2908 1.502 . S
C2907 C2909 1.561 . S
C2907 C2910 1.526 . S
C2908 H2892 0.959 . S
C2908 H2893 0.959 . S
C2908 H2894 0.961 . S
C2908 C2907 1.502 . S
C2909 H2895 0.960 . S
C2909 H2896 0.961 . S
C2909 H2897 0.959 . S
C2909 C2907 1.561 . S
C2910 C2907 1.526 . S
C2910 C2911 1.396 . S
C2910 C2915 1.390 . S
C2911 C2905 1.465 . S
C2911 C2910 1.396 . S
C2911 C2912 1.399 . S
C2912 H2898 0.929 . S
C2912 C2911 1.399 . S
C2912 C2913 1.385 . S
C2913 H2899 0.931 . S
C2913 C2912 1.385 . S
C2913 C2914 1.389 . S
C2914 C2913 1.389 . S
C2914 C2915 1.387 . S
C2915 H2900 0.930 . S
C2915 C2910 1.390 . S
C2915 C2914 1.387 . S
H2916 C2928 0.930 . S
H2917 C2930 0.930 . S
H2918 C2931 0.930 . S
H2919 C2935 0.959 . S
H2920 C2935 0.959 . S
H2921 C2935 0.961 . S
H2922 C2936 0.960 . S
H2923 C2936 0.961 . S
H2924 C2936 0.959 . S
H2925 C2939 0.929 . S
H2926 C2940 0.931 . S
H2927 C2942 0.930 . S
C2928 H2916 0.930 . S
C2928 C2929 1.399 . S
C2928 C2933 1.399 . S
C2929 C2928 1.399 . S
C2929 C2930 1.376 . S
C2930 H2917 0.930 . S
C2930 C2929 1.376 . S
C2930 C2931 1.388 . S
C2931 H2918 0.930 . S
C2931 C2930 1.388 . S
C2931 C2932 1.390 . S
C2932 C2931 1.390 . S
C2932 C2933 1.394 . S
C2932 C2938 1.465 . S
C2933 C2928 1.399 . S
C2933 C2932 1.394 . S
C2933 C2934 1.516 . S
C2934 C2933 1.516 . S
C2934 C2935 1.502 . S
C2934 C2936 1.561 . S
C2934 C2937 1.526 . S
C2935 H2919 0.959 . S
C2935 H2920 0.959 . S
C2935 H2921 0.961 . S
C2935 C2934 1.502 . S
C2936 H2922 0.960 . S
C2936 H2923 0.961 . S
C2936 H2924 0.959 . S
C2936 C2934 1.561 . S
C2937 C2934 1.526 . S
C2937 C2938 1.396 . S
C2937 C2942 1.390 . S
C2938 C2932 1.465 . S
C2938 C2937 1.396 . S
C2938 C2939 1.399 . S
C2939 H2925 0.929 . S
C2939 C2938 1.399 . S
C2939 C2940 1.385 . S
C2940 H2926 0.931 . S
C2940 C2939 1.385 . S
C2940 C2941 1.389 . S
C2941 C2940 1.389 . S
C2941 C2942 1.387 . S
C2942 H2927 0.930 . S
C2942 C2937 1.390 . S
C2942 C2941 1.387 . S
H2943 C2955 0.930 . S
H2944 C2957 0.930 . S
H2945 C2958 0.930 . S
H2946 C2962 0.959 . S
H2947 C2962 0.959 . S
H2948 C2962 0.961 . S
H2949 C2963 0.960 . S
H2950 C2963 0.961 . S
H2951 C2963 0.959 . S
H2952 C2966 0.929 . S
H2953 C2967 0.931 . S
H2954 C2969 0.930 . S
C2955 H2943 0.930 . S
C2955 C2956 1.399 . S
C2955 C2960 1.399 . S
C2956 C2955 1.399 . S
C2956 C2957 1.376 1_655 S
C2957 H2944 0.930 . S
C2957 C2956 1.376 1_455 S
C2957 C2958 1.388 . S
C2958 H2945 0.930 . S
C2958 C2957 1.388 . S
C2958 C2959 1.390 1_455 S
C2959 C2958 1.390 1_655 S
C2959 C2960 1.393 . S
C2959 C2965 1.466 1_655 S
C2960 C2955 1.399 . S
C2960 C2959 1.393 . S
C2960 C2961 1.516 . S
C2961 C2960 1.516 . S
C2961 C2962 1.502 . S
C2961 C2963 1.561 . S
C2961 C2964 1.526 . S
C2962 H2946 0.959 . S
C2962 H2947 0.959 . S
C2962 H2948 0.961 . S
C2962 C2961 1.502 . S
C2963 H2949 0.960 . S
C2963 H2950 0.961 . S
C2963 H2951 0.959 . S
C2963 C2961 1.561 . S
C2964 C2961 1.526 . S
C2964 C2965 1.396 1_655 S
C2964 C2969 1.390 . S
C2965 C2959 1.466 1_455 S
C2965 C2964 1.396 1_455 S
C2965 C2966 1.399 . S
C2966 H2952 0.929 . S
C2966 C2965 1.399 . S
C2966 C2967 1.385 . S
C2967 H2953 0.931 . S
C2967 C2966 1.385 . S
C2967 C2968 1.389 1_455 S
C2968 C2967 1.389 1_655 S
C2968 C2969 1.387 . S
C2969 H2954 0.930 . S
C2969 C2964 1.390 . S
C2969 C2968 1.387 . S
H2970 C2982 0.930 . S
H2971 C2984 0.930 . S
H2972 C2985 0.930 . S
H2973 C2989 0.959 . S
H2974 C2989 0.959 . S
H2975 C2989 0.961 . S
H2976 C2990 0.960 . S
H2977 C2990 0.961 . S
H2978 C2990 0.959 . S
H2979 C2993 0.929 . S
H2980 C2994 0.931 . S
H2981 C2996 0.930 . S
C2982 H2970 0.930 . S
C2982 C2983 1.399 . S
C2982 C2987 1.399 . S
C2983 C2982 1.399 . S
C2983 C2984 1.376 . S
C2984 H2971 0.930 . S
C2984 C2983 1.376 . S
C2984 C2985 1.388 . S
C2985 H2972 0.930 . S
C2985 C2984 1.388 . S
C2985 C2986 1.390 . S
C2986 C2985 1.390 . S
C2986 C2987 1.394 . S
C2986 C2992 1.465 . S
C2987 C2982 1.399 . S
C2987 C2986 1.394 . S
C2987 C2988 1.516 . S
C2988 C2987 1.516 . S
C2988 C2989 1.502 . S
C2988 C2990 1.561 . S
C2988 C2991 1.526 . S
C2989 H2973 0.959 . S
C2989 H2974 0.959 . S
C2989 H2975 0.961 . S
C2989 C2988 1.502 . S
C2990 H2976 0.960 . S
C2990 H2977 0.961 . S
C2990 H2978 0.959 . S
C2990 C2988 1.561 . S
C2991 C2988 1.526 . S
C2991 C2992 1.396 . S
C2991 C2996 1.390 . S
C2992 C2986 1.465 . S
C2992 C2991 1.396 . S
C2992 C2993 1.399 . S
C2993 H2979 0.929 . S
C2993 C2992 1.399 . S
C2993 C2994 1.385 . S
C2994 H2980 0.931 . S
C2994 C2993 1.385 . S
C2994 C2995 1.389 . S
C2995 C2994 1.389 . S
C2995 C2996 1.387 . S
C2996 H2981 0.930 . S
C2996 C2991 1.390 . S
C2996 C2995 1.387 . S
H2997 C3009 0.906 1_565 S
H2998 C3011 0.930 . S
H2999 C3012 0.930 . S
H3000 C3016 0.959 . S
H3001 C3016 0.959 . S
H3002 C3016 0.961 . S
H3003 C3017 0.960 . S
H3004 C3017 0.961 . S
H3005 C3017 0.959 . S
H3006 C3020 0.929 . S
H3007 C3021 0.931 . S
H3008 C3023 0.930 . S
C3009 H2997 0.906 1_545 S
C3009 C3010 1.411 . S
C3009 C3014 1.412 . S
C3010 C3009 1.411 . S
C3010 C3011 1.376 . S
C3011 H2998 0.930 . S
C3011 C3010 1.376 . S
C3011 C3012 1.388 . S
C3012 H2999 0.930 . S
C3012 C3011 1.388 . S
C3012 C3013 1.390 . S
C3013 C3012 1.390 . S
C3013 C3014 1.394 . S
C3013 C3019 1.465 . S
C3014 C3009 1.412 . S
C3014 C3013 1.394 . S
C3014 C3015 1.516 1_545 S
C3015 C3014 1.516 1_565 S
C3015 C3016 1.502 . S
C3015 C3017 1.561 . S
C3015 C3018 1.526 . S
C3016 H3000 0.959 . S
C3016 H3001 0.959 . S
C3016 H3002 0.961 . S
C3016 C3015 1.502 . S
C3017 H3003 0.960 . S
C3017 H3004 0.961 . S
C3017 H3005 0.959 . S
C3017 C3015 1.561 . S
C3018 C3015 1.526 . S
C3018 C3019 1.396 1_565 S
C3018 C3023 1.390 . S
C3019 C3013 1.465 . S
C3019 C3018 1.396 1_545 S
C3019 C3020 1.399 . S
C3020 H3006 0.929 . S
C3020 C3019 1.399 . S
C3020 C3021 1.385 . S
C3021 H3007 0.931 . S
C3021 C3020 1.385 . S
C3021 C3022 1.389 . S
C3022 C3021 1.389 . S
C3022 C3023 1.387 1_545 S
C3023 H3008 0.930 . S
C3023 C3018 1.390 . S
C3023 C3022 1.387 1_565 S
C1093 C4 1.396 . S
C1105 C688 1.455 . S
C1120 C26 1.546 . S
C1132 C734 1.521 . S
C1159 C766 1.416 . S
C1147 C32 1.393 . S
C1174 C40 1.368 . S
C1186 C819 1.410 . S
C1201 C12 1.460 . S
C1213 C865 1.467 . S
C1228 C18 1.497 . S
C1240 C904 1.501 . S
C1255 C46 1.411 . S
C1267 C858 1.442 . S
C1294 C911 1.523 . S
C1282 C68 1.521 . S
C1321 C812 1.426 . S
C1309 C74 1.406 . S
C1336 C82 1.410 . S
C1348 C773 1.396 . S
C1375 C667 1.472 . S
C1363 C54 1.446 . S
C1390 C60 1.494 . S
C1402 C713 1.493 . S
C1417 C88 1.600 . S
C1429 C943 1.647 . S
C1444 C110 1.607 . S
C1456 C1010 1.603 . S
C1483 C1056 1.573 . S
C1471 C116 1.574 . S
C1498 C124 1.457 . S
C1510 C267 1.434 . S
C1525 C96 1.554 . S
C1537 C313 1.547 . S
C1552 C102 1.485 . S
C1564 C359 1.554 . S
C1579 C130 1.536 . S
C1591 C306 1.543 . S
C1606 C152 1.604 . S
C1618 C352 1.593 . S
C1645 C260 1.597 . S
C1633 C158 1.561 . S
C1672 C1035 1.555 . S
C1660 C166 1.560 . S
C1699 C964 1.512 . S
C1687 C138 1.515 . S
C1726 C989 1.560 . S
C1714 C144 1.512 . S
C1741 C172 1.480 . S
C1753 C391 1.561 . S
C1768 C194 1.606 . S
C1780 C444 1.606 . S
C1795 C200 1.580 . S
C1807 C490 1.577 . S
C1822 C208 1.541 . S
C1834 C536 1.528 . S
C1861 C589 1.537 . S
C1849 C180 1.542 . S
C1888 C635 1.547 . S
C1876 C186 1.568 . S
C1915 C582 1.620 . S
C1903 C214 1.565 . S
C1942 C628 1.609 . S
C1930 C236 1.612 . S
C1957 C242 1.546 . S
C1969 C543 1.587 . S
C1996 C497 1.468 . S
C1984 C250 1.471 . S
C2011 C222 1.556 . S
C2023 C412 1.558 . S
C2050 C451 1.549 . S
C2038 C228 1.486 . S
C2077 C274 1.559 . S
C2065 C5 1.266 . S
C2092 C25 1.452 . S
C2104 C320 1.410 . S
C2131 C366 1.583 . S
C2119 C33 1.369 . S
C2158 C398 1.457 . S
C2146 C39 1.467 . S
C2185 C437 1.460 . S
C2173 C11 1.523 . S
C2212 C483 1.433 . S
C2200 C19 1.287 . S
C2227 C47 1.362 1_556 S
C2239 C504 1.552 . S
C2254 C67 1.464 . S
C2266 C405 1.414 . S
C2281 C75 1.411 1_556 S
C2293 C458 1.520 . S
C2308 C81 1.481 . S
C2320 C299 1.467 . S
C2347 C345 1.492 . S
C2335 C53 1.489 . S
C2362 C61 1.192 . S
C2374 C253 1.446 . S
C2401 C529 1.495 . S
C2389 C89 1.218 . S
C2416 C109 1.538 . S
C2428 C596 1.507 . S
C2443 C117 1.247 . S
C2455 C642 1.548 . S
C2482 C681 1.243 . S
C2470 C123 1.240 . S
C2497 C95 1.448 . S
C2509 C727 1.430 . S
C2524 C103 1.020 . S
C2536 C759 1.264 . S
C2551 C131 1.174 . S
C2563 C780 1.228 . S
C2578 C151 1.267 . S
C2590 C674 1.273 . S
C2617 C720 1.460 . S
C2605 C159 1.198 . S
C2632 C165 1.425 . S
C2644 C575 1.424 . S
C2659 C137 1.512 . S
C2671 C621 1.483 . S
C2698 C550 1.517 . S
C2686 C145 1.242 . S
C2725 C826 1.270 . S
C2713 C173 1.115 . S
C2740 C193 1.193 . S
C2752 C872 1.226 . S
C2767 C201 1.159 . S
C2779 C897 1.455 . S
C2806 C950 1.419 . S
C2794 C207 1.418 . S
C2833 C1003 1.544 . S
C2821 C179 1.557 . S
C2848 C187 1.266 . S
C2860 C1049 1.546 . S
C2875 C215 1.205 . S
C2887 C1042 1.509 . S
C2902 C235 1.540 . S
C2914 C957 1.507 . S
C2941 C996 1.551 . S
C2929 C243 1.292 . S
C2968 C851 1.210 . S
C2956 C249 1.217 . S
C2995 C918 1.446 . S
C2983 C221 1.453 . S
C3010 C229 1.172 . S
C3022 C805 1.252 . S
