# Generated by pormake.
# Topology the, (3,8)-cn, num edge types: 1
# Building blocks:
#     Node 0, Type 0, BuildingBlock: INOVEN_clean_linker_0, # of connection points: 3
#     Node 1, Type 0, BuildingBlock: INOVEN_clean_linker_0, # of connection points: 3
#     Node 2, Type 0, BuildingBlock: INOVEN_clean_linker_0, # of connection points: 3
#     Node 3, Type 0, BuildingBlock: INOVEN_clean_linker_0, # of connection points: 3
#     Node 4, Type 0, BuildingBlock: INOVEN_clean_linker_0, # of connection points: 3
#     Node 5, Type 0, BuildingBlock: INOVEN_clean_linker_0, # of connection points: 3
#     Node 6, Type 0, BuildingBlock: INOVEN_clean_linker_0, # of connection points: 3
#     Node 7, Type 0, BuildingBlock: INOVEN_clean_linker_0, # of connection points: 3
#     Node 8, Type 1, BuildingBlock: GIZVER_clean_sbu_0, # of connection points: 8
#     Node 9, Type 1, BuildingBlock: GIZVER_clean_sbu_0, # of connection points: 8
#     Node 10, Type 1, BuildingBlock: GIZVER_clean_sbu_0, # of connection points: 8
#     Edge 11, Type (0, 1), BuildingBlock: XIVTED_clean_linker_0, # of connection points: 2
#     Edge 12, Type (0, 1), BuildingBlock: XIVTED_clean_linker_0, # of connection points: 2
#     Edge 13, Type (0, 1), BuildingBlock: XIVTED_clean_linker_0, # of connection points: 2
#     Edge 14, Type (0, 1), BuildingBlock: XIVTED_clean_linker_0, # of connection points: 2
#     Edge 15, Type (0, 1), BuildingBlock: XIVTED_clean_linker_0, # of connection points: 2
#     Edge 16, Type (0, 1), BuildingBlock: XIVTED_clean_linker_0, # of connection points: 2
#     Edge 17, Type (0, 1), BuildingBlock: XIVTED_clean_linker_0, # of connection points: 2
#     Edge 18, Type (0, 1), BuildingBlock: XIVTED_clean_linker_0, # of connection points: 2
#     Edge 19, Type (0, 1), BuildingBlock: XIVTED_clean_linker_0, # of connection points: 2
#     Edge 20, Type (0, 1), BuildingBlock: XIVTED_clean_linker_0, # of connection points: 2
#     Edge 21, Type (0, 1), BuildingBlock: XIVTED_clean_linker_0, # of connection points: 2
#     Edge 22, Type (0, 1), BuildingBlock: XIVTED_clean_linker_0, # of connection points: 2
#     Edge 23, Type (0, 1), BuildingBlock: XIVTED_clean_linker_0, # of connection points: 2
#     Edge 24, Type (0, 1), BuildingBlock: XIVTED_clean_linker_0, # of connection points: 2
#     Edge 25, Type (0, 1), BuildingBlock: XIVTED_clean_linker_0, # of connection points: 2
#     Edge 26, Type (0, 1), BuildingBlock: XIVTED_clean_linker_0, # of connection points: 2
#     Edge 27, Type (0, 1), BuildingBlock: XIVTED_clean_linker_0, # of connection points: 2
#     Edge 28, Type (0, 1), BuildingBlock: XIVTED_clean_linker_0, # of connection points: 2
#     Edge 29, Type (0, 1), BuildingBlock: XIVTED_clean_linker_0, # of connection points: 2
#     Edge 30, Type (0, 1), BuildingBlock: XIVTED_clean_linker_0, # of connection points: 2
#     Edge 31, Type (0, 1), BuildingBlock: XIVTED_clean_linker_0, # of connection points: 2
#     Edge 32, Type (0, 1), BuildingBlock: XIVTED_clean_linker_0, # of connection points: 2
#     Edge 33, Type (0, 1), BuildingBlock: XIVTED_clean_linker_0, # of connection points: 2
#     Edge 34, Type (0, 1), BuildingBlock: XIVTED_clean_linker_0, # of connection points: 2
# Relax obj value: 0.071
# Max RMSD: 0.194
# Mean RMSD: 0.128
data_MOF--net-the--node1-GIZVER_clean_sbu_0--node2-INOVEN_clean_linker_0--edge1-XIVTED_clean_linker_0
_symmetry_space_group_name_H-M    P1
_symmetry_Int_Tables_number       1
_symmetry_cell_setting            triclinic
loop_
_symmetry_equiv_pos_as_xyz
'x, y, z'
_cell_length_a     40.592697
_cell_length_b     38.600634
_cell_length_c     36.991585
_cell_angle_alpha  87.336915
_cell_angle_beta   95.955981
_cell_angle_gamma 109.06269
loop_
_atom_site_label
_atom_site_type_symbol
_atom_site_fract_x
_atom_site_fract_y
_atom_site_fract_z
_atom_type_partial_charge
H0 H 0.32487 0.34883 0.33434 0.0
H1 H 0.4042 0.29662 0.34692 0.0
H2 H 0.33301 0.28266 0.42926 0.0
N3 N 0.29803 0.32593 0.39568 0.0
N4 N 0.29394 0.32636 0.42859 0.0
C5 C 0.33763 0.33143 0.34978 0.0
C6 C 0.36628 0.32491 0.33684 0.0
C7 C 0.32615 0.3171 0.38333 0.0
C8 C 0.34242 0.29448 0.40363 0.0
C9 C 0.37049 0.28667 0.39048 0.0
C10 C 0.38272 0.30264 0.3574 0.0
H11 H 0.68968 0.25818 0.27545 0.0
H12 H 0.7764 0.27376 0.35775 0.0
H13 H 0.77437 0.35969 0.28009 0.0
N14 N 0.71209 0.32111 0.24345 0.0
N15 N 0.72271 0.35208 0.22892 0.0
C16 C 0.71523 0.27428 0.28764 0.0
C17 C 0.73107 0.26094 0.31828 0.0
C18 C 0.73076 0.30932 0.2734 0.0
C19 C 0.7627 0.33204 0.29025 0.0
C20 C 0.77927 0.31917 0.32076 0.0
C21 C 0.76369 0.2834 0.33407 0.0
H22 H 0.70892 0.72494 0.28275 0.0
H23 H 0.77369 0.6555 0.29322 0.0
H24 H 0.78184 0.73178 0.37732 0.0
N25 N 0.73146 0.75799 0.34549 0.0
N26 N 0.73363 0.76281 0.37891 0.0
C27 C 0.72968 0.71649 0.29725 0.0
C28 C 0.7393 0.68806 0.28367 0.0
C29 C 0.74466 0.73217 0.33105 0.0
C30 C 0.77061 0.72026 0.35094 0.0
C31 C 0.78112 0.69251 0.33741 0.0
C32 C 0.76557 0.6769 0.30369 0.0
H33 H 0.29165 0.63866 0.30031 0.0
H34 H 0.30391 0.73414 0.36294 0.0
H35 H 0.3898 0.72591 0.30886 0.0
N36 N 0.35448 0.6592 0.27967 0.0
N37 N 0.37877 0.67275 0.25995 0.0
C38 C 0.30699 0.66581 0.30988 0.0
C39 C 0.29283 0.6848 0.33211 0.0
C40 C 0.34136 0.68084 0.30052 0.0
C41 C 0.3626 0.7151 0.31443 0.0
C42 C 0.34937 0.7338 0.33805 0.0
C43 C 0.31424 0.71905 0.34566 0.0
H44 H 0.41302 0.75699 0.76136 0.0
H45 H 0.33995 0.74397 0.66601 0.0
H46 H 0.32683 0.65717 0.74638 0.0
N47 N 0.3874 0.69234 0.78854 0.0
N48 N 0.37744 0.65984 0.79947 0.0
C49 C 0.38966 0.74101 0.74514 0.0
C50 C 0.37914 0.75498 0.71185 0.0
C51 C 0.3716 0.70583 0.75741 0.0
C52 C 0.34081 0.68461 0.7372 0.0
C53 C 0.32889 0.69861 0.70431 0.0
C54 C 0.34839 0.73368 0.69183 0.0
H55 H 0.34136 0.25682 0.64983 0.0
H56 H 0.42524 0.27244 0.73574 0.0
H57 H 0.35181 0.33113 0.73637 0.0
N58 N 0.31423 0.3045 0.67359 0.0
N59 N 0.30536 0.3292 0.68623 0.0
C60 C 0.35464 0.26922 0.6753 0.0
C61 C 0.38416 0.2607 0.6913 0.0
C62 C 0.34264 0.29437 0.69143 0.0
C63 C 0.3605 0.31117 0.72391 0.0
C64 C 0.3904 0.30378 0.73997 0.0
C65 C 0.4017 0.27772 0.72404 0.0
H66 H 0.72234 0.27498 0.72696 0.0
H67 H 0.80923 0.29366 0.66308 0.0
H68 H 0.81516 0.36674 0.75004 0.0
N69 N 0.74837 0.33457 0.76561 0.0
N70 N 0.7622 0.36312 0.78355 0.0
C71 C 0.74904 0.29029 0.72173 0.0
C72 C 0.76433 0.27968 0.69369 0.0
C73 C 0.76692 0.32196 0.74154 0.0
C74 C 0.80121 0.34251 0.73428 0.0
C75 C 0.81694 0.33271 0.70593 0.0
C76 C 0.79813 0.30112 0.68573 0.0
H77 H 0.71248 0.68625 0.68682 0.0
H78 H 0.78778 0.62938 0.69013 0.0
H79 H 0.78381 0.70776 0.60417 0.0
N80 N 0.73035 0.72543 0.62858 0.0
N81 N 0.74372 0.74959 0.60597 0.0
C82 C 0.73384 0.68093 0.6753 0.0
C83 C 0.74891 0.65588 0.69241 0.0
C84 C 0.74663 0.70018 0.64407 0.0
C85 C 0.77439 0.69362 0.62895 0.0
C86 C 0.78884 0.66741 0.64505 0.0
C87 C 0.77641 0.64918 0.67721 0.0
Co88 Co 0.11281 0.47929 0.53682 0.0
Co89 Co 0.07573 0.46221 0.4743 0.0
Co90 Co 0.04773 0.51585 0.51478 0.0
O91 O 0.06526 0.47299 0.51931 0.0
H92 H 0.04891 0.45161 0.52967 0.0
O93 O 0.02918 0.55828 0.50979 0.0
Co94 Co 0.97992 0.54966 0.49554 0.0
Co95 Co 0.02129 0.57 0.55581 0.0
H96 H 0.04434 0.5794 0.49786 0.0
O97 O 0.07869 0.41674 0.4648 0.0
O98 O 0.1219 0.46549 0.48868 0.0
O99 O 0.07672 0.49746 0.43545 0.0
O100 O 0.07643 0.54018 0.47357 0.0
O101 O 0.00882 0.48675 0.47951 0.0
O102 O 0.93612 0.54559 0.48119 0.0
O103 O 0.9833 0.5963 0.48021 0.0
O104 O 0.96941 0.4996 0.50764 0.0
O105 O 0.01932 0.49195 0.55638 0.0
O106 O 0.02573 0.53654 0.59502 0.0
O107 O 0.9734 0.5607 0.54537 0.0
O108 O 0.0129 0.61347 0.56559 0.0
C109 C 0.13952 0.44753 0.56335 0.0
C110 C 0.11912 0.54975 0.54463 0.0
C111 C 0.08279 0.5308 0.44303 0.0
C112 C 0.11143 0.43231 0.47602 0.0
C113 C 0.94964 0.58006 0.4729 0.0
C114 C 0.97687 0.48055 0.48468 0.0
C115 C 0.01691 0.5027 0.58789 0.0
C116 C 0.98053 0.59354 0.55778 0.0
O117 O 0.1554 0.48161 0.55509 0.0
O118 O 0.10609 0.43277 0.55366 0.0
O119 O 0.08731 0.54484 0.54995 0.0
O120 O 0.12588 0.52908 0.52281 0.0
Co121 Co 0.58197 0.94514 0.4983 0.0
Co122 Co 0.60312 0.97997 0.56048 0.0
Co123 Co 0.54948 0.01306 0.51572 0.0
O124 O 0.58937 0.99394 0.51394 0.0
H125 H 0.60919 0.01165 0.50382 0.0
O126 O 0.51002 0.03305 0.51721 0.0
Co127 Co 0.51884 0.08204 0.53451 0.0
Co128 Co 0.49792 0.05007 0.47121 0.0
H129 H 0.48977 0.01539 0.52665 0.0
O130 O 0.64678 0.97329 0.57193 0.0
O131 O 0.59702 0.93217 0.54813 0.0
O132 O 0.57161 0.97601 0.59715 0.0
O133 O 0.52809 0.97918 0.55668 0.0
O134 O 0.57969 0.05037 0.5512 0.0
O135 O 0.52289 0.12567 0.55164 0.0
O136 O 0.47567 0.07464 0.54934 0.0
O137 O 0.56593 0.09616 0.52324 0.0
O138 O 0.57112 0.04668 0.47509 0.0
O139 O 0.52993 0.05504 0.43442 0.0
O140 O 0.50418 0.0975 0.48541 0.0
O141 O 0.45473 0.05738 0.45964 0.0
C142 C 0.61152 0.9185 0.47654 0.0
C143 C 0.51416 0.9411 0.48641 0.0
C144 C 0.53922 0.97008 0.58814 0.0
C145 C 0.62956 0.94022 0.56116 0.0
C146 C 0.49072 0.10891 0.55853 0.0
C147 C 0.58679 0.08459 0.5446 0.0
C148 C 0.56164 0.05793 0.444 0.0
C149 C 0.47199 0.09013 0.47129 0.0
O150 O 0.57927 0.90117 0.48292 0.0
O151 O 0.62537 0.95325 0.48429 0.0
O152 O 0.51951 0.97522 0.48015 0.0
O153 O 0.53493 0.93081 0.50916 0.0
Co154 Co 0.51084 0.50998 0.08768 0.0
Co155 Co 0.49385 0.4453 0.05896 0.0
Co156 Co 0.5506 0.50466 0.01377 0.0
O157 O 0.5074 0.49261 0.03951 0.0
H158 H 0.48812 0.49652 0.02418 0.0
O159 O 0.59421 0.51709 0.98856 0.0
Co160 Co 0.59172 0.49717 0.94204 0.0
Co161 Co 0.60757 0.56342 0.96671 0.0
H162 H 0.61357 0.5143 1.0046 0.0
O163 O 0.44898 0.42134 0.07422 0.0
O164 O 0.4953 0.45932 0.10666 0.0
O165 O 0.52793 0.42019 0.05954 0.0
O166 O 0.57083 0.47002 0.04407 0.0
O167 O 0.52439 0.46401 0.97865 0.0
O168 O 0.59325 0.47746 0.90011 0.0
O169 O 0.63527 0.49416 0.9468 0.0
O170 O 0.54566 0.49725 0.93168 0.0
O171 O 0.53024 0.53929 0.98319 0.0
O172 O 0.5724 0.5873 0.96276 0.0
O173 O 0.60765 0.54654 0.92056 0.0
O174 O 0.65309 0.58665 0.95191 0.0
C175 C 0.47911 0.52659 0.11723 0.0
C176 C 0.58038 0.53726 0.08293 0.0
C177 C 0.56019 0.43744 0.05725 0.0
C178 C 0.46371 0.43636 0.105 0.0
C179 C 0.62418 0.47904 0.91508 0.0
C180 C 0.52278 0.47001 0.94443 0.0
C181 C 0.54041 0.57071 0.9673 0.0
C182 C 0.63951 0.56877 0.92222 0.0
O183 O 0.50992 0.52688 0.13133 0.0
O184 O 0.46738 0.51329 0.08485 0.0
O185 O 0.57696 0.54479 0.04909 0.0
O186 O 0.5574 0.51044 0.09638 0.0
H187 H 0.29271 0.35722 0.49125 0.0
H188 H 0.09984 0.3667 0.44346 0.0
H189 H 0.23088 0.31724 0.39077 0.0
H190 H 0.18116 0.45346 0.50122 0.0
H191 H 0.14281 0.33623 0.4359 0.0
H192 H 0.24633 0.38043 0.50748 0.0
C193 C 0.26913 0.35294 0.47299 0.0
C194 C 0.26563 0.33592 0.43959 0.0
C195 C 0.15103 0.36177 0.45054 0.0
C196 C 0.21282 0.36148 0.45786 0.0
C197 C 0.1266 0.3792 0.45489 0.0
C198 C 0.13689 0.41279 0.47295 0.0
C199 C 0.18586 0.37766 0.46486 0.0
C200 C 0.17199 0.42761 0.48719 0.0
C201 C 0.24294 0.36626 0.48207 0.0
C202 C 0.2347 0.33077 0.41658 0.0
N203 N 0.19526 0.40988 0.48292 0.0
N204 N 0.20944 0.34352 0.42618 0.0
H205 H 0.7308 0.2426 0.39113 0.0
H206 H 0.55522 0.07967 0.37232 0.0
H207 H 0.68604 0.19793 0.28533 0.0
H208 H 0.63123 0.08859 0.46521 0.0
H209 H 0.6006 0.12438 0.33959 0.0
H210 H 0.69317 0.1877 0.41917 0.0
C211 C 0.7137 0.22109 0.37362 0.0
C212 C 0.71162 0.2254 0.33559 0.0
C213 C 0.60734 0.11596 0.36693 0.0
C214 C 0.66731 0.1628 0.36795 0.0
C215 C 0.58148 0.09057 0.38563 0.0
C216 C 0.58932 0.08049 0.42163 0.0
C217 C 0.64093 0.13192 0.3847 0.0
C218 C 0.62387 0.09548 0.43752 0.0
C219 C 0.69195 0.18978 0.38979 0.0
C220 C 0.68803 0.19651 0.31471 0.0
N221 N 0.6482 0.12089 0.41919 0.0
N222 N 0.66636 0.16675 0.33116 0.0
H223 H 0.77371 0.62083 0.35198 0.0
H224 H 0.96494 0.65367 0.45381 0.0
H225 H 0.84531 0.72978 0.37322 0.0
H226 H 0.8801 0.55096 0.45253 0.0
H227 H 0.92408 0.68311 0.42262 0.0
H228 H 0.81502 0.59542 0.38646 0.0
C229 C 0.79829 0.63943 0.36384 0.0
C230 C 0.80621 0.67745 0.35947 0.0
C231 C 0.91457 0.65417 0.42942 0.0
C232 C 0.85391 0.64848 0.39939 0.0
C233 C 0.93785 0.63737 0.44711 0.0
C234 C 0.92607 0.59971 0.45558 0.0
C235 C 0.87949 0.633 0.41996 0.0
C236 C 0.89061 0.57998 0.44647 0.0
C237 C 0.82185 0.62492 0.38377 0.0
C238 C 0.83823 0.70027 0.37603 0.0
N239 N 0.8688 0.59676 0.42906 0.0
N240 N 0.86111 0.68543 0.39508 0.0
H241 H 0.39605 0.79698 0.31176 0.0
H242 H 0.47937 0.87193 0.50822 0.0
H243 H 0.35598 0.74421 0.41081 0.0
H244 H 0.4867 0.94552 0.41579 0.0
H245 H 0.43815 0.82277 0.47134 0.0
H246 H 0.43418 0.84992 0.34761 0.0
C247 C 0.3953 0.7966 0.34096 0.0
C248 C 0.37273 0.76636 0.35836 0.0
C249 C 0.4485 0.84972 0.45913 0.0
C250 C 0.41615 0.82618 0.39927 0.0
C251 C 0.47202 0.87778 0.48017 0.0
C252 C 0.48634 0.91281 0.46503 0.0
C253 C 0.4397 0.85642 0.42237 0.0
C254 C 0.47596 0.91891 0.42853 0.0
C255 C 0.41679 0.82679 0.36131 0.0
C256 C 0.37267 0.76715 0.39626 0.0
N257 N 0.45353 0.8908 0.40821 0.0
N258 N 0.39417 0.79639 0.4154 0.0
H259 H 0.26381 0.66001 0.72579 0.0
H260 H 0.18639 0.57955 0.52824 0.0
H261 H 0.32173 0.6866 0.63129 0.0
H262 H 0.11964 0.57706 0.61245 0.0
H263 H 0.23675 0.61594 0.56728 0.0
H264 H 0.21138 0.62573 0.68683 0.0
C265 C 0.26552 0.65846 0.69692 0.0
C266 C 0.29714 0.67632 0.68174 0.0
C267 C 0.21111 0.60773 0.57724 0.0
C268 C 0.23744 0.63734 0.63712 0.0
C269 C 0.18229 0.58693 0.55492 0.0
C270 C 0.14873 0.57523 0.56708 0.0
C271 C 0.20664 0.61663 0.61238 0.0
C272 C 0.14503 0.58571 0.60192 0.0
C273 C 0.23557 0.63919 0.67469 0.0
C274 C 0.29784 0.67365 0.64412 0.0
N275 N 0.17372 0.60553 0.62353 0.0
N276 N 0.26856 0.65449 0.62321 0.0
H277 H 0.39766 0.19807 0.71638 0.0
H278 H 0.49765 0.18102 0.54907 0.0
H279 H 0.40273 0.26879 0.62202 0.0
H280 H 0.44135 0.0842 0.60767 0.0
H281 H 0.46983 0.21673 0.58069 0.0
H282 H 0.42073 0.15876 0.68261 0.0
C283 C 0.40369 0.20528 0.68862 0.0
C284 C 0.39825 0.23658 0.67186 0.0
C285 C 0.46339 0.18764 0.5865 0.0
C286 C 0.42491 0.19233 0.63349 0.0
C287 C 0.47927 0.16725 0.56852 0.0
C288 C 0.4717 0.1296 0.57574 0.0
C289 C 0.44049 0.17053 0.61273 0.0
C290 C 0.44767 0.11314 0.60119 0.0
C291 C 0.41658 0.1828 0.66935 0.0
C292 C 0.40637 0.24476 0.63581 0.0
N293 N 0.43324 0.13383 0.61922 0.0
N294 N 0.41961 0.22301 0.61798 0.0
H295 H 0.84317 0.40796 0.70763 0.0
H296 H 0.9948 0.42759 0.58455 0.0
H297 H 0.86979 0.31356 0.67951 0.0
H298 H 0.99074 0.51627 0.64912 0.0
H299 H 0.95059 0.38468 0.61961 0.0
H300 H 0.89783 0.44762 0.68687 0.0
C301 C 0.8607 0.39538 0.69777 0.0
C302 C 0.85157 0.35709 0.69547 0.0
C303 C 0.9599 0.41344 0.6265 0.0
C304 C 0.91417 0.40291 0.67036 0.0
C305 C 0.98516 0.43798 0.60652 0.0
C306 C 0.99618 0.47571 0.61352 0.0
C307 C 0.94522 0.42684 0.65322 0.0
C308 C 0.98289 0.48751 0.64249 0.0
C309 C 0.89196 0.41822 0.68567 0.0
C310 C 0.87526 0.34284 0.68126 0.0
N311 N 0.95766 0.46326 0.66081 0.0
N312 N 0.90526 0.36576 0.66882 0.0
H313 H 0.67414 0.73928 0.60345 0.0
H314 H 0.69979 0.94992 0.56545 0.0
H315 H 0.77287 0.8161 0.57728 0.0
H316 H 0.59852 0.86606 0.56044 0.0
H317 H 0.72753 0.90201 0.56947 0.0
H318 H 0.64601 0.78546 0.58675 0.0
C319 C 0.68983 0.76591 0.59389 0.0
C320 C 0.72601 0.77431 0.59218 0.0
C321 C 0.69924 0.89414 0.56724 0.0
C322 C 0.69404 0.82743 0.57341 0.0
C323 C 0.68343 0.92143 0.56525 0.0
C324 C 0.64684 0.91188 0.56302 0.0
C325 C 0.67829 0.85712 0.56759 0.0
C326 C 0.62683 0.87461 0.56237 0.0
C327 C 0.67376 0.79224 0.58425 0.0
C328 C 0.74498 0.80891 0.57909 0.0
N329 N 0.64282 0.8486 0.56499 0.0
N330 N 0.7289 0.83455 0.57073 0.0
H331 H 0.4398 0.29414 0.40698 0.0
H332 H 0.40286 0.08312 0.4545 0.0
H333 H 0.33595 0.21881 0.41735 0.0
H334 H 0.50466 0.16423 0.47638 0.0
H335 H 0.37771 0.13238 0.4412 0.0
H336 H 0.46432 0.24722 0.43275 0.0
C337 C 0.42221 0.2678 0.41501 0.0
C338 C 0.38582 0.26023 0.40989 0.0
C339 C 0.4055 0.13941 0.44925 0.0
C340 C 0.41358 0.20636 0.43899 0.0
C341 C 0.41989 0.11129 0.4567 0.0
C342 C 0.45597 0.11958 0.46615 0.0
C343 C 0.42742 0.17609 0.45072 0.0
C344 C 0.47674 0.15659 0.46894 0.0
C345 C 0.43618 0.2411 0.42982 0.0
C346 C 0.36416 0.2258 0.42101 0.0
N347 N 0.46224 0.18348 0.46082 0.0
N348 N 0.37835 0.19996 0.4346 0.0
H349 H 0.84138 0.30707 0.34251 0.0
H350 H 0.90708 0.47253 0.47948 0.0
H351 H 0.78847 0.38698 0.34652 0.0
H352 H 0.98118 0.43144 0.43504 0.0
H353 H 0.86072 0.43457 0.43721 0.0
H354 H 0.89096 0.34635 0.38174 0.0
C355 C 0.84041 0.33304 0.3514 0.0
C356 C 0.81095 0.34397 0.34118 0.0
C357 C 0.88714 0.43393 0.43665 0.0
C358 C 0.86685 0.38832 0.38651 0.0
C359 C 0.9137 0.45553 0.46087 0.0
C360 C 0.94829 0.45558 0.46059 0.0
C361 C 0.89488 0.41146 0.41239 0.0
C362 C 0.95495 0.43246 0.43605 0.0
C363 C 0.86862 0.35537 0.37367 0.0
C364 C 0.81085 0.37776 0.35346 0.0
N365 N 0.92843 0.41114 0.41302 0.0
N366 N 0.83816 0.39852 0.37584 0.0
H367 H 0.71636 0.76104 0.44633 0.0
H368 H 0.66773 0.94423 0.43579 0.0
H369 H 0.71969 0.8217 0.34529 0.0
H370 H 0.60313 0.84593 0.48621 0.0
H371 H 0.7007 0.90805 0.41211 0.0
H372 H 0.68868 0.80122 0.47201 0.0
C373 C 0.7115 0.78307 0.42978 0.0
C374 C 0.71977 0.78786 0.39373 0.0
C375 C 0.67937 0.89466 0.42853 0.0
C376 C 0.68915 0.83416 0.4228 0.0
C377 C 0.66069 0.91519 0.44209 0.0
C378 C 0.63257 0.89796 0.46278 0.0
C379 C 0.67051 0.85706 0.43683 0.0
C380 C 0.62446 0.86024 0.47015 0.0
C381 C 0.69571 0.80579 0.4443 0.0
C382 C 0.71322 0.81686 0.37314 0.0
N383 N 0.64355 0.84112 0.4575 0.0
N384 N 0.69837 0.8391 0.38806 0.0
H385 H 0.23418 0.64021 0.29234 0.0
H386 H 0.11611 0.60313 0.4587 0.0
H387 H 0.26888 0.68952 0.39803 0.0
H388 H 0.1009 0.52371 0.37478 0.0
H389 H 0.16293 0.64586 0.42699 0.0
H390 H 0.17716 0.60725 0.31411 0.0
C391 C 0.2299 0.64436 0.31998 0.0
C392 C 0.25677 0.66756 0.34341 0.0
C393 C 0.1489 0.6193 0.41524 0.0
C394 C 0.19117 0.63072 0.36794 0.0
C395 C 0.12197 0.59491 0.43317 0.0
C396 C 0.1049 0.55943 0.41974 0.0
C397 C 0.15867 0.60834 0.3835 0.0
C398 C 0.11368 0.55056 0.38641 0.0
C399 C 0.19724 0.62572 0.33222 0.0
C400 C 0.24913 0.67246 0.37866 0.0
N401 N 0.14028 0.57471 0.36961 0.0
N402 N 0.21715 0.65409 0.38984 0.0
H403 H 0.45087 0.78217 0.71789 0.0
H404 H 0.46726 0.94588 0.57692 0.0
H405 H 0.35975 0.80854 0.67118 0.0
H406 H 0.55276 0.93764 0.65291 0.0
H407 H 0.42681 0.89669 0.61036 0.0
H408 H 0.48805 0.83906 0.69319 0.0
C409 C 0.43851 0.80013 0.70296 0.0
C410 C 0.40186 0.79041 0.69709 0.0
C411 C 0.45436 0.90611 0.61998 0.0
C412 C 0.44488 0.85571 0.66748 0.0
C413 C 0.4775 0.93427 0.60097 0.0
C414 C 0.51363 0.94572 0.6118 0.0
C415 C 0.4675 0.88904 0.64974 0.0
C416 C 0.52525 0.92962 0.64325 0.0
C417 C 0.45992 0.83268 0.68862 0.0
C418 C 0.38778 0.81455 0.6762 0.0
N419 N 0.50236 0.9018 0.66073 0.0
N420 N 0.40931 0.84597 0.66192 0.0
H421 H 0.28949 0.38455 0.70907 0.0
H422 H 0.13091 0.37394 0.5582 0.0
H423 H 0.2601 0.3031 0.62553 0.0
H424 H 0.196 0.4732 0.61183 0.0
H425 H 0.16967 0.34145 0.58865 0.0
H426 H 0.24602 0.41108 0.68036 0.0
C427 C 0.27355 0.37221 0.68472 0.0
C428 C 0.27838 0.34202 0.66953 0.0
C429 C 0.17518 0.37028 0.59377 0.0
C430 C 0.22858 0.37187 0.6364 0.0
C431 C 0.15301 0.38868 0.57673 0.0
C432 C 0.16028 0.4262 0.58275 0.0
C433 C 0.2041 0.38952 0.61749 0.0
C434 C 0.1895 0.44428 0.60644 0.0
C435 C 0.24891 0.38733 0.66828 0.0
C436 C 0.2572 0.32664 0.63796 0.0
N437 N 0.21015 0.42576 0.62306 0.0
N438 N 0.23308 0.34183 0.62231 0.0
H439 H 0.72767 0.21048 0.71586 0.0
H440 H 0.61971 0.15552 0.52481 0.0
H441 H 0.75291 0.27751 0.6196 0.0
H442 H 0.62394 0.07471 0.60821 0.0
H443 H 0.66738 0.20119 0.55962 0.0
H444 H 0.68834 0.16064 0.67777 0.0
C445 C 0.72514 0.2145 0.68666 0.0
C446 C 0.74347 0.24807 0.67079 0.0
C447 C 0.65814 0.17338 0.57013 0.0
C448 C 0.69832 0.19158 0.62722 0.0
C449 C 0.63084 0.14734 0.55036 0.0
C450 C 0.6177 0.11135 0.5638 0.0
C451 C 0.67196 0.16356 0.60392 0.0
C452 C 0.63329 0.10217 0.5969 0.0
C453 C 0.70284 0.18608 0.66496 0.0
C454 C 0.73942 0.25193 0.63284 0.0
N455 N 0.6593 0.12826 0.61611 0.0
N456 N 0.71692 0.22419 0.61237 0.0
H457 H 0.78852 0.59922 0.6294 0.0
H458 H 0.98476 0.66253 0.57801 0.0
H459 H 0.85014 0.71337 0.62129 0.0
H460 H 0.9106 0.55526 0.55399 0.0
H461 H 0.93692 0.68224 0.5949 0.0
H462 H 0.83411 0.58266 0.60335 0.0
C463 C 0.81174 0.62079 0.62208 0.0
C464 C 0.81581 0.65766 0.62772 0.0
C465 C 0.93114 0.65451 0.5856 0.0
C466 C 0.86812 0.63899 0.59796 0.0
C467 C 0.95842 0.6432 0.57606 0.0
C468 C 0.95174 0.60705 0.56501 0.0
C469 C 0.89709 0.62934 0.58449 0.0
C470 C 0.91706 0.58329 0.56265 0.0
C471 C 0.83763 0.61136 0.607 0.0
C472 C 0.84611 0.68461 0.61731 0.0
N473 N 0.89113 0.59473 0.57271 0.0
N474 N 0.87137 0.67472 0.60327 0.0
H475 H 0.32819 0.32576 0.27142 0.0
H476 H 0.49166 0.45592 0.17432 0.0
H477 H 0.43358 0.36274 0.32345 0.0
H478 H 0.39815 0.38758 0.11358 0.0
H479 H 0.46695 0.42999 0.23067 0.0
H480 H 0.35019 0.35533 0.21455 0.0
C481 C 0.35594 0.34018 0.27083 0.0
C482 C 0.37918 0.34178 0.30205 0.0
C483 C 0.4518 0.42075 0.20501 0.0
C484 C 0.40433 0.37583 0.2375 0.0
C485 C 0.46578 0.43566 0.17277 0.0
C486 C 0.4471 0.4236 0.13908 0.0
C487 C 0.41871 0.3938 0.2037 0.0
C488 C 0.41357 0.39747 0.13892 0.0
C489 C 0.36844 0.3569 0.23843 0.0
C490 C 0.41488 0.36058 0.29987 0.0
N491 N 0.40045 0.38332 0.17079 0.0
N492 N 0.42635 0.37705 0.26818 0.0
H493 H 0.36364 0.59171 0.82693 0.0
H494 H 0.54967 0.6411 0.94297 0.0
H495 H 0.43614 0.70149 0.83945 0.0
H496 H 0.47032 0.53517 0.94984 0.0
H497 H 0.50715 0.66385 0.90667 0.0
H498 H 0.40075 0.57018 0.87348 0.0
C499 C 0.38708 0.61125 0.83985 0.0
C500 C 0.39682 0.64822 0.8292 0.0
C501 C 0.49885 0.63573 0.91643 0.0
C502 C 0.43957 0.6241 0.88193 0.0
C503 C 0.52319 0.62271 0.9372 0.0
C504 C 0.51367 0.58612 0.94943 0.0
C505 C 0.46476 0.6119 0.90723 0.0
C506 C 0.47884 0.56362 0.94111 0.0
C507 C 0.40826 0.59904 0.8663 0.0
C508 C 0.42757 0.67263 0.8466 0.0
N509 N 0.45579 0.57673 0.92016 0.0
N510 N 0.4479 0.66006 0.87178 0.0
H511 H 0.41345 0.37779 0.74245 0.0
H512 H 0.49347 0.39455 0.95114 0.0
H513 H 0.41432 0.2825 0.80758 0.0
H514 H 0.49817 0.48538 0.87716 0.0
H515 H 0.46117 0.35203 0.90193 0.0
H516 H 0.44253 0.41664 0.79376 0.0
C517 C 0.41992 0.36505 0.76771 0.0
C518 C 0.41123 0.32685 0.77083 0.0
C519 C 0.46908 0.38129 0.8967 0.0
C520 C 0.44475 0.37145 0.83036 0.0
C521 C 0.48714 0.40552 0.92483 0.0
C522 C 0.49854 0.44353 0.91816 0.0
C523 C 0.46228 0.39537 0.86196 0.0
C524 C 0.49008 0.4563 0.88349 0.0
C525 C 0.43655 0.38728 0.79713 0.0
C526 C 0.42066 0.31188 0.80409 0.0
N527 N 0.47267 0.43238 0.85686 0.0
N528 N 0.43678 0.33423 0.83276 0.0
H529 H 0.69145 0.33954 0.78567 0.0
H530 H 0.69432 0.48841 0.92993 0.0
H531 H 0.78762 0.41915 0.82905 0.0
H532 H 0.6038 0.43323 0.85725 0.0
H533 H 0.72889 0.45905 0.89925 0.0
H534 H 0.65855 0.36838 0.81879 0.0
C535 C 0.70566 0.36289 0.80255 0.0
C536 C 0.74237 0.3771 0.80487 0.0
C537 C 0.70148 0.45353 0.89005 0.0
C538 C 0.70482 0.41035 0.84257 0.0
C539 C 0.68175 0.47021 0.90753 0.0
C540 C 0.64613 0.46321 0.89614 0.0
C541 C 0.68526 0.42932 0.86142 0.0
C542 C 0.63119 0.43951 0.86689 0.0
C543 C 0.68687 0.3795 0.82124 0.0
C544 C 0.75937 0.40752 0.82684 0.0
N545 N 0.65076 0.42325 0.85073 0.0
N546 N 0.74048 0.42323 0.84496 0.0
H547 H 0.78582 0.65388 0.75825 0.0
H548 H 0.61478 0.54096 0.85467 0.0
H549 H 0.68182 0.61572 0.70313 0.0
H550 H 0.70726 0.61256 0.91421 0.0
H551 H 0.64378 0.55671 0.799 0.0
H552 H 0.76162 0.62782 0.81558 0.0
C553 C 0.758 0.63951 0.75822 0.0
C554 C 0.73564 0.63701 0.72619 0.0
C555 C 0.65782 0.56882 0.82427 0.0
C556 C 0.70803 0.60725 0.79104 0.0
C557 C 0.64133 0.55979 0.85617 0.0
C558 C 0.65845 0.57588 0.88917 0.0
C559 C 0.69177 0.59403 0.82522 0.0
C560 C 0.69296 0.59986 0.8893 0.0
C561 C 0.74424 0.62489 0.79082 0.0
C562 C 0.6998 0.61841 0.72739 0.0
N563 N 0.70848 0.60843 0.85769 0.0
N564 N 0.6871 0.60426 0.7593 0.0
H565 H 0.71575 0.71481 0.21884 0.0
H566 H 0.61016 0.51418 0.144 0.0
H567 H 0.71762 0.61407 0.27338 0.0
H568 H 0.61645 0.61148 0.07912 0.0
H569 H 0.65212 0.55149 0.19013 0.0
H570 H 0.68118 0.67898 0.16651 0.0
C571 C 0.70907 0.68526 0.21979 0.0
C572 C 0.71983 0.66752 0.25061 0.0
C573 C 0.64471 0.56487 0.16575 0.0
C574 C 0.68041 0.62644 0.19085 0.0
C575 C 0.62071 0.5435 0.13934 0.0
C576 C 0.60966 0.5598 0.1078 0.0
C577 C 0.65756 0.60311 0.16107 0.0
C578 C 0.6244 0.59787 0.10305 0.0
C579 C 0.68953 0.66486 0.18983 0.0
C580 C 0.71057 0.62914 0.25014 0.0
N581 N 0.64731 0.61839 0.12969 0.0
N582 N 0.69136 0.61004 0.22095 0.0
H583 H 0.37906 0.60391 0.27827 0.0
H584 H 0.43774 0.56669 0.09 0.0
H585 H 0.40737 0.68934 0.19697 0.0
H586 H 0.47539 0.52515 0.1905 0.0
H587 H 0.4115 0.60186 0.12505 0.0
H588 H 0.4007 0.56509 0.2426 0.0
C589 C 0.38965 0.61434 0.25277 0.0
C590 C 0.39144 0.64978 0.24024 0.0
C591 C 0.42521 0.58469 0.13927 0.0
C592 C 0.41533 0.60542 0.19929 0.0
C593 C 0.43981 0.5644 0.11939 0.0
C594 C 0.45872 0.54313 0.13749 0.0
C595 C 0.4288 0.58282 0.17739 0.0
C596 C 0.4611 0.54141 0.17561 0.0
C597 C 0.40201 0.59229 0.23258 0.0
C598 C 0.40568 0.66219 0.20733 0.0
N599 N 0.44616 0.5609 0.19436 0.0
N600 N 0.41678 0.63988 0.18767 0.0
H601 H 0.73847 0.41712 0.19484 0.0
H602 H 0.54966 0.36732 0.08338 0.0
H603 H 0.6596 0.31058 0.19643 0.0
H604 H 0.63054 0.47189 0.0737 0.0
H605 H 0.59149 0.34475 0.1211 0.0
H606 H 0.70119 0.43686 0.14716 0.0
C607 C 0.71345 0.39791 0.18487 0.0
C608 C 0.70205 0.36246 0.19968 0.0
C609 C 0.60023 0.37252 0.11042 0.0
C610 C 0.65925 0.38447 0.14553 0.0
C611 C 0.57632 0.38542 0.08878 0.0
C612 C 0.58645 0.42166 0.07549 0.0
C613 C 0.6345 0.39609 0.11922 0.0
C614 C 0.62147 0.44375 0.08334 0.0
C615 C 0.69221 0.40906 0.15775 0.0
C616 C 0.66941 0.33833 0.18597 0.0
N617 N 0.64411 0.43076 0.10502 0.0
N618 N 0.64913 0.34988 0.15989 0.0
loop_
_geom_bond_atom_site_label_1
_geom_bond_atom_site_label_2
_geom_bond_distance
_geom_bond_site_symmetry_2
_ccdc_geom_bond_type
H0 C5 0.929 . S
H1 C10 0.931 . S
H2 C8 0.930 . S
N3 N4 1.234 . S
N3 C7 1.453 . S
N4 N3 1.234 . S
C5 H0 0.929 . S
C5 C6 1.373 . S
C5 C7 1.368 . S
C6 C5 1.373 . S
C6 C10 1.397 . S
C7 N3 1.453 . S
C7 C5 1.368 . S
C7 C8 1.373 . S
C8 H2 0.930 . S
C8 C7 1.373 . S
C8 C9 1.371 . S
C9 C8 1.371 . S
C9 C10 1.383 . S
C10 H1 0.931 . S
C10 C6 1.397 . S
C10 C9 1.383 . S
H11 C16 0.929 . S
H12 C21 0.931 . S
H13 C19 0.930 . S
N14 N15 1.234 . S
N14 C18 1.453 . S
N15 N14 1.234 . S
C16 H11 0.929 . S
C16 C17 1.373 . S
C16 C18 1.368 . S
C17 C16 1.373 . S
C17 C21 1.397 . S
C18 N14 1.453 . S
C18 C16 1.368 . S
C18 C19 1.373 . S
C19 H13 0.930 . S
C19 C18 1.373 . S
C19 C20 1.371 . S
C20 C19 1.371 . S
C20 C21 1.383 . S
C21 H12 0.931 . S
C21 C17 1.397 . S
C21 C20 1.383 . S
H22 C27 0.929 . S
H23 C32 0.931 . S
H24 C30 0.930 . S
N25 N26 1.234 . S
N25 C29 1.453 . S
N26 N25 1.234 . S
C27 H22 0.929 . S
C27 C28 1.373 . S
C27 C29 1.368 . S
C28 C27 1.373 . S
C28 C32 1.397 . S
C29 N25 1.453 . S
C29 C27 1.368 . S
C29 C30 1.373 . S
C30 H24 0.930 . S
C30 C29 1.373 . S
C30 C31 1.371 . S
C31 C30 1.371 . S
C31 C32 1.383 . S
C32 H23 0.931 . S
C32 C28 1.397 . S
C32 C31 1.383 . S
H33 C38 0.929 . S
H34 C43 0.931 . S
H35 C41 0.930 . S
N36 N37 1.234 . S
N36 C40 1.453 . S
N37 N36 1.234 . S
C38 H33 0.929 . S
C38 C39 1.373 . S
C38 C40 1.368 . S
C39 C38 1.373 . S
C39 C43 1.397 . S
C40 N36 1.453 . S
C40 C38 1.368 . S
C40 C41 1.373 . S
C41 H35 0.930 . S
C41 C40 1.373 . S
C41 C42 1.371 . S
C42 C41 1.371 . S
C42 C43 1.383 . S
C43 H34 0.931 . S
C43 C39 1.397 . S
C43 C42 1.383 . S
H44 C49 0.929 . S
H45 C54 0.931 . S
H46 C52 0.930 . S
N47 N48 1.234 . S
N47 C51 1.453 . S
N48 N47 1.234 . S
C49 H44 0.929 . S
C49 C50 1.373 . S
C49 C51 1.368 . S
C50 C49 1.373 . S
C50 C54 1.397 . S
C51 N47 1.453 . S
C51 C49 1.368 . S
C51 C52 1.373 . S
C52 H46 0.930 . S
C52 C51 1.373 . S
C52 C53 1.371 . S
C53 C52 1.371 . S
C53 C54 1.383 . S
C54 H45 0.931 . S
C54 C50 1.397 . S
C54 C53 1.383 . S
H55 C60 0.929 . S
H56 C65 0.931 . S
H57 C63 0.930 . S
N58 N59 1.234 . S
N58 C62 1.453 . S
N59 N58 1.234 . S
C60 H55 0.929 . S
C60 C61 1.373 . S
C60 C62 1.368 . S
C61 C60 1.373 . S
C61 C65 1.397 . S
C62 N58 1.453 . S
C62 C60 1.368 . S
C62 C63 1.373 . S
C63 H57 0.930 . S
C63 C62 1.373 . S
C63 C64 1.371 . S
C64 C63 1.371 . S
C64 C65 1.383 . S
C65 H56 0.931 . S
C65 C61 1.397 . S
C65 C64 1.383 . S
H66 C71 0.929 . S
H67 C76 0.931 . S
H68 C74 0.930 . S
N69 N70 1.234 . S
N69 C73 1.453 . S
N70 N69 1.234 . S
C71 H66 0.929 . S
C71 C72 1.373 . S
C71 C73 1.368 . S
C72 C71 1.373 . S
C72 C76 1.397 . S
C73 N69 1.453 . S
C73 C71 1.368 . S
C73 C74 1.373 . S
C74 H68 0.930 . S
C74 C73 1.373 . S
C74 C75 1.371 . S
C75 C74 1.371 . S
C75 C76 1.383 . S
C76 H67 0.931 . S
C76 C72 1.397 . S
C76 C75 1.383 . S
H77 C82 0.929 . S
H78 C87 0.931 . S
H79 C85 0.930 . S
N80 N81 1.234 . S
N80 C84 1.453 . S
N81 N80 1.234 . S
C82 H77 0.929 . S
C82 C83 1.373 . S
C82 C84 1.368 . S
C83 C82 1.373 . S
C83 C87 1.397 . S
C84 N80 1.453 . S
C84 C82 1.368 . S
C84 C85 1.373 . S
C85 H79 0.930 . S
C85 C84 1.373 . S
C85 C86 1.371 . S
C86 C85 1.371 . S
C86 C87 1.383 . S
C87 H78 0.931 . S
C87 C83 1.397 . S
C87 C86 1.383 . S
Co88 O91 2.042 . S
Co88 O98 2.264 . S
Co88 O117 2.286 . S
Co88 O118 2.069 . S
Co88 O120 2.015 . S
Co89 O91 2.122 . S
Co89 O97 2.073 . S
Co89 O98 2.327 . S
Co89 O99 1.976 . S
Co90 O91 2.087 . S
Co90 O93 2.087 . S
Co90 O100 2.111 . S
Co90 O101 2.143 1_455 S
Co90 O105 2.111 . S
Co90 O119 2.143 . S
O91 Co88 2.042 . S
O91 Co89 2.122 . S
O91 Co90 2.087 . S
O91 H92 0.980 . S
H92 O91 0.980 . S
O93 Co90 2.087 . S
O93 Co94 2.042 1_455 S
O93 Co95 2.122 1_455 S
O93 H96 0.980 . S
Co94 O93 2.042 1_655 S
Co94 O102 2.286 . S
Co94 O103 2.069 . S
Co94 O104 2.015 . S
Co94 O107 2.264 . S
Co95 O93 2.122 1_655 S
Co95 O106 1.976 . S
Co95 O107 2.327 . S
Co95 O108 2.073 . S
H96 O93 0.980 . S
O97 Co89 2.073 . S
O97 C112 1.245 . S
O98 Co88 2.264 . S
O98 Co89 2.327 . S
O98 C112 1.257 . S
O99 Co89 1.976 . S
O99 C111 1.251 . S
O100 Co90 2.111 . S
O100 C111 1.274 . S
O101 Co90 2.143 1_655 S
O101 C114 1.246 . S
O102 Co94 2.286 . S
O102 C113 1.259 . S
O103 Co94 2.069 . S
O103 C113 1.289 . S
O104 Co94 2.015 . S
O104 C114 1.257 . S
O105 Co90 2.111 . S
O105 C115 1.274 1_455 S
O106 Co95 1.976 . S
O106 C115 1.251 . S
O107 Co94 2.264 . S
O107 Co95 2.327 . S
O107 C116 1.257 . S
O108 Co95 2.073 . S
O108 C116 1.245 . S
C109 O117 1.259 . S
C109 O118 1.289 . S
C110 O119 1.246 . S
C110 O120 1.257 . S
C111 O99 1.251 . S
C111 O100 1.274 . S
C112 O97 1.245 . S
C112 O98 1.257 . S
C113 O102 1.259 . S
C113 O103 1.289 . S
C114 O101 1.246 . S
C114 O104 1.257 . S
C115 O105 1.274 1_655 S
C115 O106 1.251 . S
C116 O107 1.257 . S
C116 O108 1.245 . S
O117 Co88 2.286 . S
O117 C109 1.259 . S
O118 Co88 2.069 . S
O118 C109 1.289 . S
O119 Co90 2.143 . S
O119 C110 1.246 . S
O120 Co88 2.015 . S
O120 C110 1.257 . S
Co121 O124 2.042 . S
Co121 O131 2.264 . S
Co121 O150 2.286 . S
Co121 O151 2.069 . S
Co121 O153 2.015 . S
Co122 O124 2.122 . S
Co122 O130 2.073 . S
Co122 O131 2.327 . S
Co122 O132 1.976 . S
Co123 O124 2.087 1_545 S
Co123 O126 2.087 . S
Co123 O133 2.111 1_545 S
Co123 O134 2.143 . S
Co123 O138 2.111 . S
Co123 O152 2.143 1_545 S
O124 Co121 2.042 . S
O124 Co122 2.122 . S
O124 Co123 2.087 1_565 S
O124 H125 0.980 1_565 S
H125 O124 0.980 1_545 S
O126 Co123 2.087 . S
O126 Co127 2.042 . S
O126 Co128 2.122 . S
O126 H129 0.980 . S
Co127 O126 2.042 . S
Co127 O135 2.286 . S
Co127 O136 2.069 . S
Co127 O137 2.015 . S
Co127 O140 2.264 . S
Co128 O126 2.122 . S
Co128 O139 1.976 . S
Co128 O140 2.327 . S
Co128 O141 2.073 . S
H129 O126 0.980 . S
O130 Co122 2.073 . S
O130 C145 1.245 . S
O131 Co121 2.264 . S
O131 Co122 2.327 . S
O131 C145 1.257 . S
O132 Co122 1.976 . S
O132 C144 1.251 . S
O133 Co123 2.111 1_565 S
O133 C144 1.274 . S
O134 Co123 2.143 . S
O134 C147 1.246 . S
O135 Co127 2.286 . S
O135 C146 1.259 . S
O136 Co127 2.069 . S
O136 C146 1.289 . S
O137 Co127 2.015 . S
O137 C147 1.257 . S
O138 Co123 2.111 . S
O138 C148 1.274 . S
O139 Co128 1.976 . S
O139 C148 1.251 . S
O140 Co127 2.264 . S
O140 Co128 2.327 . S
O140 C149 1.257 . S
O141 Co128 2.073 . S
O141 C149 1.245 . S
C142 O150 1.259 . S
C142 O151 1.289 . S
C143 O152 1.246 . S
C143 O153 1.257 . S
C144 O132 1.251 . S
C144 O133 1.274 . S
C145 O130 1.245 . S
C145 O131 1.257 . S
C146 O135 1.259 . S
C146 O136 1.289 . S
C147 O134 1.246 . S
C147 O137 1.257 . S
C148 O138 1.274 . S
C148 O139 1.251 . S
C149 O140 1.257 . S
C149 O141 1.245 . S
O150 Co121 2.286 . S
O150 C142 1.259 . S
O151 Co121 2.069 . S
O151 C142 1.289 . S
O152 Co123 2.143 1_565 S
O152 C143 1.246 . S
O153 Co121 2.015 . S
O153 C143 1.257 . S
Co154 O157 2.042 . S
Co154 O164 2.264 . S
Co154 O183 2.286 . S
Co154 O184 2.069 . S
Co154 O186 2.015 . S
Co155 O157 2.122 . S
Co155 O163 2.073 . S
Co155 O164 2.327 . S
Co155 O165 1.976 . S
Co156 O157 2.087 . S
Co156 O159 2.087 1_554 S
Co156 O166 2.111 . S
Co156 O167 2.143 1_554 S
Co156 O171 2.111 1_554 S
Co156 O185 2.143 . S
O157 Co154 2.042 . S
O157 Co155 2.122 . S
O157 Co156 2.087 . S
O157 H158 0.980 . S
H158 O157 0.980 . S
O159 Co156 2.087 1_556 S
O159 Co160 2.042 . S
O159 Co161 2.122 . S
O159 H162 0.980 . S
Co160 O159 2.042 . S
Co160 O168 2.286 . S
Co160 O169 2.069 . S
Co160 O170 2.015 . S
Co160 O173 2.264 . S
Co161 O159 2.122 . S
Co161 O172 1.976 . S
Co161 O173 2.327 . S
Co161 O174 2.073 . S
H162 O159 0.980 . S
O163 Co155 2.073 . S
O163 C178 1.245 . S
O164 Co154 2.264 . S
O164 Co155 2.327 . S
O164 C178 1.257 . S
O165 Co155 1.976 . S
O165 C177 1.251 . S
O166 Co156 2.111 . S
O166 C177 1.274 . S
O167 Co156 2.143 1_556 S
O167 C180 1.246 . S
O168 Co160 2.286 . S
O168 C179 1.259 . S
O169 Co160 2.069 . S
O169 C179 1.289 . S
O170 Co160 2.015 . S
O170 C180 1.257 . S
O171 Co156 2.111 1_556 S
O171 C181 1.274 . S
O172 Co161 1.976 . S
O172 C181 1.251 . S
O173 Co160 2.264 . S
O173 Co161 2.327 . S
O173 C182 1.257 . S
O174 Co161 2.073 . S
O174 C182 1.245 . S
C175 O183 1.259 . S
C175 O184 1.289 . S
C176 O185 1.246 . S
C176 O186 1.257 . S
C177 O165 1.251 . S
C177 O166 1.274 . S
C178 O163 1.245 . S
C178 O164 1.257 . S
C179 O168 1.259 . S
C179 O169 1.289 . S
C180 O167 1.246 . S
C180 O170 1.257 . S
C181 O171 1.274 . S
C181 O172 1.251 . S
C182 O173 1.257 . S
C182 O174 1.245 . S
O183 Co154 2.286 . S
O183 C175 1.259 . S
O184 Co154 2.069 . S
O184 C175 1.289 . S
O185 Co156 2.143 . S
O185 C176 1.246 . S
O186 Co154 2.015 . S
O186 C176 1.257 . S
H187 C193 0.930 . S
H188 C197 0.930 . S
H189 C202 0.929 . S
H190 C200 0.929 . S
H191 C195 0.929 . S
H192 C201 0.929 . S
C193 H187 0.930 . S
C193 C194 1.367 . S
C193 C201 1.378 . S
C194 C193 1.367 . S
C194 C202 1.433 . S
C195 H191 0.929 . S
C195 C197 1.378 . S
C195 C199 1.350 . S
C196 C199 1.463 . S
C196 C201 1.350 . S
C196 N204 1.427 . S
C197 H188 0.930 . S
C197 C195 1.378 . S
C197 C198 1.367 . S
C198 C197 1.367 . S
C198 C200 1.433 . S
C199 C195 1.350 . S
C199 C196 1.463 . S
C199 N203 1.427 . S
C200 H190 0.929 . S
C200 C198 1.433 . S
C200 N203 1.384 . S
C201 H192 0.929 . S
C201 C193 1.378 . S
C201 C196 1.350 . S
C202 H189 0.929 . S
C202 C194 1.433 . S
C202 N204 1.384 . S
N203 C199 1.427 . S
N203 C200 1.384 . S
N204 C196 1.427 . S
N204 C202 1.384 . S
H205 C211 0.930 . S
H206 C215 0.930 . S
H207 C220 0.929 . S
H208 C218 0.929 . S
H209 C213 0.929 . S
H210 C219 0.929 . S
C211 H205 0.930 . S
C211 C212 1.367 . S
C211 C219 1.378 . S
C212 C211 1.367 . S
C212 C220 1.433 . S
C213 H209 0.929 . S
C213 C215 1.378 . S
C213 C217 1.350 . S
C214 C217 1.463 . S
C214 C219 1.350 . S
C214 N222 1.427 . S
C215 H206 0.930 . S
C215 C213 1.378 . S
C215 C216 1.367 . S
C216 C215 1.367 . S
C216 C218 1.433 . S
C217 C213 1.350 . S
C217 C214 1.463 . S
C217 N221 1.427 . S
C218 H208 0.929 . S
C218 C216 1.433 . S
C218 N221 1.384 . S
C219 H210 0.929 . S
C219 C211 1.378 . S
C219 C214 1.350 . S
C220 H207 0.929 . S
C220 C212 1.433 . S
C220 N222 1.384 . S
N221 C217 1.427 . S
N221 C218 1.384 . S
N222 C214 1.427 . S
N222 C220 1.384 . S
H223 C229 0.930 . S
H224 C233 0.930 . S
H225 C238 0.929 . S
H226 C236 0.929 . S
H227 C231 0.929 . S
H228 C237 0.929 . S
C229 H223 0.930 . S
C229 C230 1.367 . S
C229 C237 1.378 . S
C230 C229 1.367 . S
C230 C238 1.433 . S
C231 H227 0.929 . S
C231 C233 1.378 . S
C231 C235 1.350 . S
C232 C235 1.463 . S
C232 C237 1.350 . S
C232 N240 1.427 . S
C233 H224 0.930 . S
C233 C231 1.378 . S
C233 C234 1.367 . S
C234 C233 1.367 . S
C234 C236 1.433 . S
C235 C231 1.350 . S
C235 C232 1.463 . S
C235 N239 1.427 . S
C236 H226 0.929 . S
C236 C234 1.433 . S
C236 N239 1.384 . S
C237 H228 0.929 . S
C237 C229 1.378 . S
C237 C232 1.350 . S
C238 H225 0.929 . S
C238 C230 1.433 . S
C238 N240 1.384 . S
N239 C235 1.427 . S
N239 C236 1.384 . S
N240 C232 1.427 . S
N240 C238 1.384 . S
H241 C247 0.930 . S
H242 C251 0.930 . S
H243 C256 0.929 . S
H244 C254 0.929 . S
H245 C249 0.929 . S
H246 C255 0.929 . S
C247 H241 0.930 . S
C247 C248 1.367 . S
C247 C255 1.378 . S
C248 C247 1.367 . S
C248 C256 1.433 . S
C249 H245 0.929 . S
C249 C251 1.378 . S
C249 C253 1.350 . S
C250 C253 1.463 . S
C250 C255 1.350 . S
C250 N258 1.427 . S
C251 H242 0.930 . S
C251 C249 1.378 . S
C251 C252 1.367 . S
C252 C251 1.367 . S
C252 C254 1.433 . S
C253 C249 1.350 . S
C253 C250 1.463 . S
C253 N257 1.427 . S
C254 H244 0.929 . S
C254 C252 1.433 . S
C254 N257 1.384 . S
C255 H246 0.929 . S
C255 C247 1.378 . S
C255 C250 1.350 . S
C256 H243 0.929 . S
C256 C248 1.433 . S
C256 N258 1.384 . S
N257 C253 1.427 . S
N257 C254 1.384 . S
N258 C250 1.427 . S
N258 C256 1.384 . S
H259 C265 0.930 . S
H260 C269 0.930 . S
H261 C274 0.929 . S
H262 C272 0.929 . S
H263 C267 0.929 . S
H264 C273 0.929 . S
C265 H259 0.930 . S
C265 C266 1.367 . S
C265 C273 1.378 . S
C266 C265 1.367 . S
C266 C274 1.433 . S
C267 H263 0.929 . S
C267 C269 1.378 . S
C267 C271 1.350 . S
C268 C271 1.463 . S
C268 C273 1.350 . S
C268 N276 1.427 . S
C269 H260 0.930 . S
C269 C267 1.378 . S
C269 C270 1.367 . S
C270 C269 1.367 . S
C270 C272 1.433 . S
C271 C267 1.350 . S
C271 C268 1.463 . S
C271 N275 1.427 . S
C272 H262 0.929 . S
C272 C270 1.433 . S
C272 N275 1.384 . S
C273 H264 0.929 . S
C273 C265 1.378 . S
C273 C268 1.350 . S
C274 H261 0.929 . S
C274 C266 1.433 . S
C274 N276 1.384 . S
N275 C271 1.427 . S
N275 C272 1.384 . S
N276 C268 1.427 . S
N276 C274 1.384 . S
H277 C283 0.930 . S
H278 C287 0.930 . S
H279 C292 0.929 . S
H280 C290 0.929 . S
H281 C285 0.929 . S
H282 C291 0.929 . S
C283 H277 0.930 . S
C283 C284 1.367 . S
C283 C291 1.378 . S
C284 C283 1.367 . S
C284 C292 1.433 . S
C285 H281 0.929 . S
C285 C287 1.378 . S
C285 C289 1.350 . S
C286 C289 1.463 . S
C286 C291 1.350 . S
C286 N294 1.427 . S
C287 H278 0.930 . S
C287 C285 1.378 . S
C287 C288 1.367 . S
C288 C287 1.367 . S
C288 C290 1.433 . S
C289 C285 1.350 . S
C289 C286 1.463 . S
C289 N293 1.427 . S
C290 H280 0.929 . S
C290 C288 1.433 . S
C290 N293 1.384 . S
C291 H282 0.929 . S
C291 C283 1.378 . S
C291 C286 1.350 . S
C292 H279 0.929 . S
C292 C284 1.433 . S
C292 N294 1.384 . S
N293 C289 1.427 . S
N293 C290 1.384 . S
N294 C286 1.427 . S
N294 C292 1.384 . S
H295 C301 0.930 . S
H296 C305 0.930 . S
H297 C310 0.929 . S
H298 C308 0.929 . S
H299 C303 0.929 . S
H300 C309 0.929 . S
C301 H295 0.930 . S
C301 C302 1.367 . S
C301 C309 1.378 . S
C302 C301 1.367 . S
C302 C310 1.433 . S
C303 H299 0.929 . S
C303 C305 1.378 . S
C303 C307 1.350 . S
C304 C307 1.463 . S
C304 C309 1.350 . S
C304 N312 1.427 . S
C305 H296 0.930 . S
C305 C303 1.378 . S
C305 C306 1.367 . S
C306 C305 1.367 . S
C306 C308 1.433 . S
C307 C303 1.350 . S
C307 C304 1.463 . S
C307 N311 1.427 . S
C308 H298 0.929 . S
C308 C306 1.433 . S
C308 N311 1.384 . S
C309 H300 0.929 . S
C309 C301 1.378 . S
C309 C304 1.350 . S
C310 H297 0.929 . S
C310 C302 1.433 . S
C310 N312 1.384 . S
N311 C307 1.427 . S
N311 C308 1.384 . S
N312 C304 1.427 . S
N312 C310 1.384 . S
H313 C319 0.930 . S
H314 C323 0.930 . S
H315 C328 0.929 . S
H316 C326 0.929 . S
H317 C321 0.929 . S
H318 C327 0.929 . S
C319 H313 0.930 . S
C319 C320 1.367 . S
C319 C327 1.378 . S
C320 C319 1.367 . S
C320 C328 1.433 . S
C321 H317 0.929 . S
C321 C323 1.378 . S
C321 C325 1.350 . S
C322 C325 1.463 . S
C322 C327 1.350 . S
C322 N330 1.427 . S
C323 H314 0.930 . S
C323 C321 1.378 . S
C323 C324 1.367 . S
C324 C323 1.367 . S
C324 C326 1.433 . S
C325 C321 1.350 . S
C325 C322 1.463 . S
C325 N329 1.427 . S
C326 H316 0.929 . S
C326 C324 1.433 . S
C326 N329 1.384 . S
C327 H318 0.929 . S
C327 C319 1.378 . S
C327 C322 1.350 . S
C328 H315 0.929 . S
C328 C320 1.433 . S
C328 N330 1.384 . S
N329 C325 1.427 . S
N329 C326 1.384 . S
N330 C322 1.427 . S
N330 C328 1.384 . S
H331 C337 0.930 . S
H332 C341 0.930 . S
H333 C346 0.929 . S
H334 C344 0.929 . S
H335 C339 0.929 . S
H336 C345 0.929 . S
C337 H331 0.930 . S
C337 C338 1.367 . S
C337 C345 1.378 . S
C338 C337 1.367 . S
C338 C346 1.433 . S
C339 H335 0.929 . S
C339 C341 1.378 . S
C339 C343 1.350 . S
C340 C343 1.463 . S
C340 C345 1.350 . S
C340 N348 1.427 . S
C341 H332 0.930 . S
C341 C339 1.378 . S
C341 C342 1.367 . S
C342 C341 1.367 . S
C342 C344 1.433 . S
C343 C339 1.350 . S
C343 C340 1.463 . S
C343 N347 1.427 . S
C344 H334 0.929 . S
C344 C342 1.433 . S
C344 N347 1.384 . S
C345 H336 0.929 . S
C345 C337 1.378 . S
C345 C340 1.350 . S
C346 H333 0.929 . S
C346 C338 1.433 . S
C346 N348 1.384 . S
N347 C343 1.427 . S
N347 C344 1.384 . S
N348 C340 1.427 . S
N348 C346 1.384 . S
H349 C355 0.930 . S
H350 C359 0.930 . S
H351 C364 0.929 . S
H352 C362 0.929 . S
H353 C357 0.929 . S
H354 C363 0.929 . S
C355 H349 0.930 . S
C355 C356 1.367 . S
C355 C363 1.378 . S
C356 C355 1.367 . S
C356 C364 1.433 . S
C357 H353 0.929 . S
C357 C359 1.378 . S
C357 C361 1.350 . S
C358 C361 1.463 . S
C358 C363 1.350 . S
C358 N366 1.427 . S
C359 H350 0.930 . S
C359 C357 1.378 . S
C359 C360 1.367 . S
C360 C359 1.367 . S
C360 C362 1.433 . S
C361 C357 1.350 . S
C361 C358 1.463 . S
C361 N365 1.427 . S
C362 H352 0.929 . S
C362 C360 1.433 . S
C362 N365 1.384 . S
C363 H354 0.929 . S
C363 C355 1.378 . S
C363 C358 1.350 . S
C364 H351 0.929 . S
C364 C356 1.433 . S
C364 N366 1.384 . S
N365 C361 1.427 . S
N365 C362 1.384 . S
N366 C358 1.427 . S
N366 C364 1.384 . S
H367 C373 0.930 . S
H368 C377 0.930 . S
H369 C382 0.929 . S
H370 C380 0.929 . S
H371 C375 0.929 . S
H372 C381 0.929 . S
C373 H367 0.930 . S
C373 C374 1.367 . S
C373 C381 1.378 . S
C374 C373 1.367 . S
C374 C382 1.433 . S
C375 H371 0.929 . S
C375 C377 1.378 . S
C375 C379 1.350 . S
C376 C379 1.463 . S
C376 C381 1.350 . S
C376 N384 1.427 . S
C377 H368 0.930 . S
C377 C375 1.378 . S
C377 C378 1.367 . S
C378 C377 1.367 . S
C378 C380 1.433 . S
C379 C375 1.350 . S
C379 C376 1.463 . S
C379 N383 1.427 . S
C380 H370 0.929 . S
C380 C378 1.433 . S
C380 N383 1.384 . S
C381 H372 0.929 . S
C381 C373 1.378 . S
C381 C376 1.350 . S
C382 H369 0.929 . S
C382 C374 1.433 . S
C382 N384 1.384 . S
N383 C379 1.427 . S
N383 C380 1.384 . S
N384 C376 1.427 . S
N384 C382 1.384 . S
H385 C391 0.930 . S
H386 C395 0.930 . S
H387 C400 0.929 . S
H388 C398 0.929 . S
H389 C393 0.929 . S
H390 C399 0.929 . S
C391 H385 0.930 . S
C391 C392 1.367 . S
C391 C399 1.378 . S
C392 C391 1.367 . S
C392 C400 1.433 . S
C393 H389 0.929 . S
C393 C395 1.378 . S
C393 C397 1.350 . S
C394 C397 1.463 . S
C394 C399 1.350 . S
C394 N402 1.427 . S
C395 H386 0.930 . S
C395 C393 1.378 . S
C395 C396 1.367 . S
C396 C395 1.367 . S
C396 C398 1.433 . S
C397 C393 1.350 . S
C397 C394 1.463 . S
C397 N401 1.427 . S
C398 H388 0.929 . S
C398 C396 1.433 . S
C398 N401 1.384 . S
C399 H390 0.929 . S
C399 C391 1.378 . S
C399 C394 1.350 . S
C400 H387 0.929 . S
C400 C392 1.433 . S
C400 N402 1.384 . S
N401 C397 1.427 . S
N401 C398 1.384 . S
N402 C394 1.427 . S
N402 C400 1.384 . S
H403 C409 0.930 . S
H404 C413 0.930 . S
H405 C418 0.929 . S
H406 C416 0.929 . S
H407 C411 0.929 . S
H408 C417 0.929 . S
C409 H403 0.930 . S
C409 C410 1.367 . S
C409 C417 1.378 . S
C410 C409 1.367 . S
C410 C418 1.433 . S
C411 H407 0.929 . S
C411 C413 1.378 . S
C411 C415 1.350 . S
C412 C415 1.463 . S
C412 C417 1.350 . S
C412 N420 1.427 . S
C413 H404 0.930 . S
C413 C411 1.378 . S
C413 C414 1.367 . S
C414 C413 1.367 . S
C414 C416 1.433 . S
C415 C411 1.350 . S
C415 C412 1.463 . S
C415 N419 1.427 . S
C416 H406 0.929 . S
C416 C414 1.433 . S
C416 N419 1.384 . S
C417 H408 0.929 . S
C417 C409 1.378 . S
C417 C412 1.350 . S
C418 H405 0.929 . S
C418 C410 1.433 . S
C418 N420 1.384 . S
N419 C415 1.427 . S
N419 C416 1.384 . S
N420 C412 1.427 . S
N420 C418 1.384 . S
H421 C427 0.930 . S
H422 C431 0.930 . S
H423 C436 0.929 . S
H424 C434 0.929 . S
H425 C429 0.929 . S
H426 C435 0.929 . S
C427 H421 0.930 . S
C427 C428 1.367 . S
C427 C435 1.378 . S
C428 C427 1.367 . S
C428 C436 1.433 . S
C429 H425 0.929 . S
C429 C431 1.378 . S
C429 C433 1.350 . S
C430 C433 1.463 . S
C430 C435 1.350 . S
C430 N438 1.427 . S
C431 H422 0.930 . S
C431 C429 1.378 . S
C431 C432 1.367 . S
C432 C431 1.367 . S
C432 C434 1.433 . S
C433 C429 1.350 . S
C433 C430 1.463 . S
C433 N437 1.427 . S
C434 H424 0.929 . S
C434 C432 1.433 . S
C434 N437 1.384 . S
C435 H426 0.929 . S
C435 C427 1.378 . S
C435 C430 1.350 . S
C436 H423 0.929 . S
C436 C428 1.433 . S
C436 N438 1.384 . S
N437 C433 1.427 . S
N437 C434 1.384 . S
N438 C430 1.427 . S
N438 C436 1.384 . S
H439 C445 0.930 . S
H440 C449 0.930 . S
H441 C454 0.929 . S
H442 C452 0.929 . S
H443 C447 0.929 . S
H444 C453 0.929 . S
C445 H439 0.930 . S
C445 C446 1.367 . S
C445 C453 1.378 . S
C446 C445 1.367 . S
C446 C454 1.433 . S
C447 H443 0.929 . S
C447 C449 1.378 . S
C447 C451 1.350 . S
C448 C451 1.463 . S
C448 C453 1.350 . S
C448 N456 1.427 . S
C449 H440 0.930 . S
C449 C447 1.378 . S
C449 C450 1.367 . S
C450 C449 1.367 . S
C450 C452 1.433 . S
C451 C447 1.350 . S
C451 C448 1.463 . S
C451 N455 1.427 . S
C452 H442 0.929 . S
C452 C450 1.433 . S
C452 N455 1.384 . S
C453 H444 0.929 . S
C453 C445 1.378 . S
C453 C448 1.350 . S
C454 H441 0.929 . S
C454 C446 1.433 . S
C454 N456 1.384 . S
N455 C451 1.427 . S
N455 C452 1.384 . S
N456 C448 1.427 . S
N456 C454 1.384 . S
H457 C463 0.930 . S
H458 C467 0.930 . S
H459 C472 0.929 . S
H460 C470 0.929 . S
H461 C465 0.929 . S
H462 C471 0.929 . S
C463 H457 0.930 . S
C463 C464 1.367 . S
C463 C471 1.378 . S
C464 C463 1.367 . S
C464 C472 1.433 . S
C465 H461 0.929 . S
C465 C467 1.378 . S
C465 C469 1.350 . S
C466 C469 1.463 . S
C466 C471 1.350 . S
C466 N474 1.427 . S
C467 H458 0.930 . S
C467 C465 1.378 . S
C467 C468 1.367 . S
C468 C467 1.367 . S
C468 C470 1.433 . S
C469 C465 1.350 . S
C469 C466 1.463 . S
C469 N473 1.427 . S
C470 H460 0.929 . S
C470 C468 1.433 . S
C470 N473 1.384 . S
C471 H462 0.929 . S
C471 C463 1.378 . S
C471 C466 1.350 . S
C472 H459 0.929 . S
C472 C464 1.433 . S
C472 N474 1.384 . S
N473 C469 1.427 . S
N473 C470 1.384 . S
N474 C466 1.427 . S
N474 C472 1.384 . S
H475 C481 0.930 . S
H476 C485 0.930 . S
H477 C490 0.929 . S
H478 C488 0.929 . S
H479 C483 0.929 . S
H480 C489 0.929 . S
C481 H475 0.930 . S
C481 C482 1.367 . S
C481 C489 1.378 . S
C482 C481 1.367 . S
C482 C490 1.433 . S
C483 H479 0.929 . S
C483 C485 1.378 . S
C483 C487 1.350 . S
C484 C487 1.463 . S
C484 C489 1.350 . S
C484 N492 1.427 . S
C485 H476 0.930 . S
C485 C483 1.378 . S
C485 C486 1.367 . S
C486 C485 1.367 . S
C486 C488 1.433 . S
C487 C483 1.350 . S
C487 C484 1.463 . S
C487 N491 1.427 . S
C488 H478 0.929 . S
C488 C486 1.433 . S
C488 N491 1.384 . S
C489 H480 0.929 . S
C489 C481 1.378 . S
C489 C484 1.350 . S
C490 H477 0.929 . S
C490 C482 1.433 . S
C490 N492 1.384 . S
N491 C487 1.427 . S
N491 C488 1.384 . S
N492 C484 1.427 . S
N492 C490 1.384 . S
H493 C499 0.930 . S
H494 C503 0.930 . S
H495 C508 0.929 . S
H496 C506 0.929 . S
H497 C501 0.929 . S
H498 C507 0.929 . S
C499 H493 0.930 . S
C499 C500 1.367 . S
C499 C507 1.378 . S
C500 C499 1.367 . S
C500 C508 1.433 . S
C501 H497 0.929 . S
C501 C503 1.378 . S
C501 C505 1.350 . S
C502 C505 1.463 . S
C502 C507 1.350 . S
C502 N510 1.427 . S
C503 H494 0.930 . S
C503 C501 1.378 . S
C503 C504 1.367 . S
C504 C503 1.367 . S
C504 C506 1.433 . S
C505 C501 1.350 . S
C505 C502 1.463 . S
C505 N509 1.427 . S
C506 H496 0.929 . S
C506 C504 1.433 . S
C506 N509 1.384 . S
C507 H498 0.929 . S
C507 C499 1.378 . S
C507 C502 1.350 . S
C508 H495 0.929 . S
C508 C500 1.433 . S
C508 N510 1.384 . S
N509 C505 1.427 . S
N509 C506 1.384 . S
N510 C502 1.427 . S
N510 C508 1.384 . S
H511 C517 0.930 . S
H512 C521 0.930 . S
H513 C526 0.929 . S
H514 C524 0.929 . S
H515 C519 0.929 . S
H516 C525 0.929 . S
C517 H511 0.930 . S
C517 C518 1.367 . S
C517 C525 1.378 . S
C518 C517 1.367 . S
C518 C526 1.433 . S
C519 H515 0.929 . S
C519 C521 1.378 . S
C519 C523 1.350 . S
C520 C523 1.463 . S
C520 C525 1.350 . S
C520 N528 1.427 . S
C521 H512 0.930 . S
C521 C519 1.378 . S
C521 C522 1.367 . S
C522 C521 1.367 . S
C522 C524 1.433 . S
C523 C519 1.350 . S
C523 C520 1.463 . S
C523 N527 1.427 . S
C524 H514 0.929 . S
C524 C522 1.433 . S
C524 N527 1.384 . S
C525 H516 0.929 . S
C525 C517 1.378 . S
C525 C520 1.350 . S
C526 H513 0.929 . S
C526 C518 1.433 . S
C526 N528 1.384 . S
N527 C523 1.427 . S
N527 C524 1.384 . S
N528 C520 1.427 . S
N528 C526 1.384 . S
H529 C535 0.930 . S
H530 C539 0.930 . S
H531 C544 0.929 . S
H532 C542 0.929 . S
H533 C537 0.929 . S
H534 C543 0.929 . S
C535 H529 0.930 . S
C535 C536 1.367 . S
C535 C543 1.378 . S
C536 C535 1.367 . S
C536 C544 1.433 . S
C537 H533 0.929 . S
C537 C539 1.378 . S
C537 C541 1.350 . S
C538 C541 1.463 . S
C538 C543 1.350 . S
C538 N546 1.427 . S
C539 H530 0.930 . S
C539 C537 1.378 . S
C539 C540 1.367 . S
C540 C539 1.367 . S
C540 C542 1.433 . S
C541 C537 1.350 . S
C541 C538 1.463 . S
C541 N545 1.427 . S
C542 H532 0.929 . S
C542 C540 1.433 . S
C542 N545 1.384 . S
C543 H534 0.929 . S
C543 C535 1.378 . S
C543 C538 1.350 . S
C544 H531 0.929 . S
C544 C536 1.433 . S
C544 N546 1.384 . S
N545 C541 1.427 . S
N545 C542 1.384 . S
N546 C538 1.427 . S
N546 C544 1.384 . S
H547 C553 0.930 . S
H548 C557 0.930 . S
H549 C562 0.929 . S
H550 C560 0.929 . S
H551 C555 0.929 . S
H552 C561 0.929 . S
C553 H547 0.930 . S
C553 C554 1.367 . S
C553 C561 1.378 . S
C554 C553 1.367 . S
C554 C562 1.433 . S
C555 H551 0.929 . S
C555 C557 1.378 . S
C555 C559 1.350 . S
C556 C559 1.463 . S
C556 C561 1.350 . S
C556 N564 1.427 . S
C557 H548 0.930 . S
C557 C555 1.378 . S
C557 C558 1.367 . S
C558 C557 1.367 . S
C558 C560 1.433 . S
C559 C555 1.350 . S
C559 C556 1.463 . S
C559 N563 1.427 . S
C560 H550 0.929 . S
C560 C558 1.433 . S
C560 N563 1.384 . S
C561 H552 0.929 . S
C561 C553 1.378 . S
C561 C556 1.350 . S
C562 H549 0.929 . S
C562 C554 1.433 . S
C562 N564 1.384 . S
N563 C559 1.427 . S
N563 C560 1.384 . S
N564 C556 1.427 . S
N564 C562 1.384 . S
H565 C571 0.930 . S
H566 C575 0.930 . S
H567 C580 0.929 . S
H568 C578 0.929 . S
H569 C573 0.929 . S
H570 C579 0.929 . S
C571 H565 0.930 . S
C571 C572 1.367 . S
C571 C579 1.378 . S
C572 C571 1.367 . S
C572 C580 1.433 . S
C573 H569 0.929 . S
C573 C575 1.378 . S
C573 C577 1.350 . S
C574 C577 1.463 . S
C574 C579 1.350 . S
C574 N582 1.427 . S
C575 H566 0.930 . S
C575 C573 1.378 . S
C575 C576 1.367 . S
C576 C575 1.367 . S
C576 C578 1.433 . S
C577 C573 1.350 . S
C577 C574 1.463 . S
C577 N581 1.427 . S
C578 H568 0.929 . S
C578 C576 1.433 . S
C578 N581 1.384 . S
C579 H570 0.929 . S
C579 C571 1.378 . S
C579 C574 1.350 . S
C580 H567 0.929 . S
C580 C572 1.433 . S
C580 N582 1.384 . S
N581 C577 1.427 . S
N581 C578 1.384 . S
N582 C574 1.427 . S
N582 C580 1.384 . S
H583 C589 0.930 . S
H584 C593 0.930 . S
H585 C598 0.929 . S
H586 C596 0.929 . S
H587 C591 0.929 . S
H588 C597 0.929 . S
C589 H583 0.930 . S
C589 C590 1.367 . S
C589 C597 1.378 . S
C590 C589 1.367 . S
C590 C598 1.433 . S
C591 H587 0.929 . S
C591 C593 1.378 . S
C591 C595 1.350 . S
C592 C595 1.463 . S
C592 C597 1.350 . S
C592 N600 1.427 . S
C593 H584 0.930 . S
C593 C591 1.378 . S
C593 C594 1.367 . S
C594 C593 1.367 . S
C594 C596 1.433 . S
C595 C591 1.350 . S
C595 C592 1.463 . S
C595 N599 1.427 . S
C596 H586 0.929 . S
C596 C594 1.433 . S
C596 N599 1.384 . S
C597 H588 0.929 . S
C597 C589 1.378 . S
C597 C592 1.350 . S
C598 H585 0.929 . S
C598 C590 1.433 . S
C598 N600 1.384 . S
N599 C595 1.427 . S
N599 C596 1.384 . S
N600 C592 1.427 . S
N600 C598 1.384 . S
H601 C607 0.930 . S
H602 C611 0.930 . S
H603 C616 0.929 . S
H604 C614 0.929 . S
H605 C609 0.929 . S
H606 C615 0.929 . S
C607 H601 0.930 . S
C607 C608 1.367 . S
C607 C615 1.378 . S
C608 C607 1.367 . S
C608 C616 1.433 . S
C609 H605 0.929 . S
C609 C611 1.378 . S
C609 C613 1.350 . S
C610 C613 1.463 . S
C610 C615 1.350 . S
C610 N618 1.427 . S
C611 H602 0.930 . S
C611 C609 1.378 . S
C611 C612 1.367 . S
C612 C611 1.367 . S
C612 C614 1.433 . S
C613 C609 1.350 . S
C613 C610 1.463 . S
C613 N617 1.427 . S
C614 H604 0.929 . S
C614 C612 1.433 . S
C614 N617 1.384 . S
C615 H606 0.929 . S
C615 C607 1.378 . S
C615 C610 1.350 . S
C616 H603 0.929 . S
C616 C608 1.433 . S
C616 N618 1.384 . S
N617 C613 1.427 . S
N617 C614 1.384 . S
N618 C610 1.427 . S
N618 C616 1.384 . S
C198 C112 1.385 . S
C194 N4 1.469 . S
C216 C148 1.323 . S
C212 C17 1.417 . S
C234 C113 1.632 . S
C230 C31 1.638 . S
C252 C143 1.548 . S
C248 C42 1.613 . S
C270 C110 1.430 . S
C266 C53 1.497 . S
C284 C61 1.850 . S
C288 C146 1.856 . S
C302 C75 0.796 . S
C306 C115 0.792 . S
C324 C145 1.478 . S
C320 N81 1.520 . S
C342 C149 1.761 . S
C338 C9 1.782 . S
C360 C114 1.158 . S
C356 C20 1.206 . S
C378 C142 1.594 . S
C374 N26 1.579 . S
C396 C111 1.179 . S
C392 C39 1.295 . S
C414 C144 1.680 . S
C410 C50 1.789 . S
C428 N59 1.299 . S
C432 C109 1.299 . S
C446 C72 1.168 . S
C450 C147 1.142 . S
C468 C116 1.464 . S
C464 C86 1.522 . S
C486 C178 1.842 . S
C482 C6 1.934 . S
C500 N48 1.929 . S
C504 C181 1.796 . S
C522 C180 1.919 . S
C518 C64 1.972 . S
C536 N70 1.325 . S
C540 C179 1.317 . S
C558 C182 1.886 . S
C554 C83 2.015 . S
C572 C28 1.863 . S
C576 C176 1.776 . S
C594 C175 1.956 . S
C590 N37 1.973 . S
C608 N15 1.209 . S
C612 C177 1.133 . S
