# Generated by pormake.
# Topology tsx, (6,3)-cn, num edge types: 1
# Building blocks:
#     Node 0, Type 0, BuildingBlock: MIDCAF_clean_sbu_0, # of connection points: 6
#     Node 1, Type 0, BuildingBlock: MIDCAF_clean_sbu_0, # of connection points: 6
#     Node 2, Type 1, BuildingBlock: CUQRIR_clean_linker_1, # of connection points: 3
#     Node 3, Type 1, BuildingBlock: CUQRIR_clean_linker_1, # of connection points: 3
#     Node 4, Type 1, BuildingBlock: CUQRIR_clean_linker_1, # of connection points: 3
#     Node 5, Type 1, BuildingBlock: CUQRIR_clean_linker_1, # of connection points: 3
#     Edge 6, Type (0, 1), BuildingBlock: UVAHIK_clean_linker_0, # of connection points: 2
#     Edge 7, Type (0, 1), BuildingBlock: UVAHIK_clean_linker_0, # of connection points: 2
#     Edge 8, Type (0, 1), BuildingBlock: UVAHIK_clean_linker_0, # of connection points: 2
#     Edge 9, Type (0, 1), BuildingBlock: UVAHIK_clean_linker_0, # of connection points: 2
#     Edge 10, Type (0, 1), BuildingBlock: UVAHIK_clean_linker_0, # of connection points: 2
#     Edge 11, Type (0, 1), BuildingBlock: UVAHIK_clean_linker_0, # of connection points: 2
#     Edge 12, Type (0, 1), BuildingBlock: UVAHIK_clean_linker_0, # of connection points: 2
#     Edge 13, Type (0, 1), BuildingBlock: UVAHIK_clean_linker_0, # of connection points: 2
#     Edge 14, Type (0, 1), BuildingBlock: UVAHIK_clean_linker_0, # of connection points: 2
#     Edge 15, Type (0, 1), BuildingBlock: UVAHIK_clean_linker_0, # of connection points: 2
#     Edge 16, Type (0, 1), BuildingBlock: UVAHIK_clean_linker_0, # of connection points: 2
#     Edge 17, Type (0, 1), BuildingBlock: UVAHIK_clean_linker_0, # of connection points: 2
# Relax obj value: 0.117
# Max RMSD: 0.170
# Mean RMSD: 0.152
data_MOF--net-tsx--node1-MIDCAF_clean_sbu_0--node2-CUQRIR_clean_linker_1--edge1-UVAHIK_clean_linker_0
_symmetry_space_group_name_H-M    P1
_symmetry_Int_Tables_number       1
_symmetry_cell_setting            triclinic
loop_
_symmetry_equiv_pos_as_xyz
'x, y, z'
_cell_length_a     24.630612
_cell_length_b     25.533969
_cell_length_c     43.966536
_cell_angle_alpha  80.335932
_cell_angle_beta   94.914502
_cell_angle_gamma 90.464822
loop_
_atom_site_label
_atom_site_type_symbol
_atom_site_fract_x
_atom_site_fract_y
_atom_site_fract_z
_atom_type_partial_charge
Zn0 Zn 0.93735 0.004 0.97853 0.0
Zn1 Zn 0.19215 0.98098 0.04512 0.0
Zn2 Zn 0.03605 0.00683 0.00023 0.0
C3 C 0.11471 0.08081 0.0167 0.0
C4 C 0.13299 0.96425 0.98323 0.0
O5 O -0.00239 0.94935 0.035 0.0
O6 O 0.9144 0.94822 0.01193 0.0
C7 C 0.95965 0.10969 0.98706 0.0
O8 O 0.06599 0.08699 0.00412 0.0
O9 O 0.13139 0.03305 0.02353 0.0
O10 O 0.14173 0.98579 0.00694 0.0
O11 O 0.08528 0.97177 0.96972 0.0
O12 O 0.92123 0.07928 0.98064 0.0
O13 O 0.00849 0.09132 0.99424 0.0
O14 O 0.03576 0.98153 0.95407 0.0
O15 O 0.94877 0.98562 0.9369 0.0
C16 C -0.00215 0.97783 0.93241 0.0
O17 O 0.05543 0.95975 0.04945 0.0
O18 O 0.13996 0.94239 0.07483 0.0
C19 C 0.94876 0.93106 0.0343 0.0
C20 C 0.08775 0.93878 0.0735 0.0
Zn21 Zn 0.64794 0.50566 0.53885 0.0
Zn22 Zn 0.4632 0.49445 0.4733 0.0
Zn23 Zn 0.55198 0.50073 0.50899 0.0
C24 C 0.54078 0.45191 0.4442 0.0
C25 C 0.47765 0.60197 0.4749 0.0
O26 O 0.54175 0.46073 0.55718 0.0
O27 O 0.6247 0.47016 0.57901 0.0
C28 C 0.66692 0.44632 0.49487 0.0
O29 O 0.56921 0.4655 0.46765 0.0
O30 O 0.48968 0.45739 0.44153 0.0
O31 O 0.44748 0.57128 0.46138 0.0
O32 O 0.51869 0.58321 0.49373 0.0
O33 O 0.69371 0.46458 0.51646 0.0
O34 O 0.61551 0.45705 0.48893 0.0
O35 O 0.57214 0.58664 0.50773 0.0
O36 O 0.65493 0.58368 0.532 0.0
C37 C 0.61494 0.61027 0.51765 0.0
O38 O 0.49366 0.45198 0.5384 0.0
O39 O 0.42059 0.45405 0.50518 0.0
C40 C 0.57633 0.45415 0.58129 0.0
C41 C 0.44373 0.43909 0.53193 0.0
C42 C 0.03955 0.01999 0.42198 0.0
N43 N 0.06229 0.9895 0.40383 0.0
N44 N 0.99524 0.04651 0.40654 0.0
C45 C 0.06026 0.02367 0.45476 0.0
C46 C 0.99206 0.03153 0.37837 0.0
N47 N 0.03261 -0.00294 0.37668 0.0
C48 C 0.94982 0.05131 0.35226 0.0
H49 H 0.04173 0.99146 0.4707 0.0
H50 H 0.04891 0.06199 0.46119 0.0
H51 H 0.10521 0.0188 0.45807 0.0
H52 H 0.96639 0.05266 0.32947 0.0
H53 H 0.93475 0.0914 0.35407 0.0
H54 H 0.91486 0.02357 0.35346 0.0
C55 C 0.01422 0.0321 0.56247 0.0
N56 N 0.04889 0.04079 0.58682 0.0
N57 N 0.98142 0.99021 0.57103 0.0
C58 C 0.01041 0.06616 0.53094 0.0
C59 C -0.00203 0.97349 0.6013 0.0
N60 N 0.03898 0.00409 0.6109 0.0
C61 C 0.97141 0.92955 0.62214 0.0
H62 H 0.98356 0.10076 0.53114 0.0
H63 H 0.99272 0.04408 0.51286 0.0
H64 H 0.05121 0.08122 0.52498 0.0
H65 H 0.00269 0.9037 0.63683 0.0
H66 H 0.94531 0.90432 0.60879 0.0
H67 H 0.94631 0.94723 0.63766 0.0
C68 C 0.53609 0.53855 0.92895 0.0
N69 N 0.55575 0.50576 0.91103 0.0
N70 N 0.49152 0.56559 0.9142 0.0
C71 C 0.55737 0.54085 0.96178 0.0
C72 C 0.48486 0.54822 0.88667 0.0
N73 N 0.52313 0.51128 0.88491 0.0
C74 C 0.4446 0.5716 0.8602 0.0
H75 H 0.52434 0.55167 0.97526 0.0
H76 H 0.58944 0.5716 0.96174 0.0
H77 H 0.5754 0.50211 0.97325 0.0
H78 H 0.43466 0.61342 0.86151 0.0
H79 H 0.40647 0.54819 0.86131 0.0
H80 H 0.46094 0.57039 0.83758 0.0
C81 C 0.55757 0.49006 0.07904 0.0
N82 N 0.58833 0.50764 0.10243 0.0
N83 N 0.51791 0.45679 0.09037 0.0
C84 C 0.56392 0.50794 0.04524 0.0
C85 C 0.52624 0.45444 0.12142 0.0
N86 N 0.56844 0.48545 0.12863 0.0
C87 C 0.49436 0.42038 0.14494 0.0
H88 H 0.5247 0.50509 0.03122 0.0
H89 H 0.59425 0.48189 0.03779 0.0
H90 H 0.57897 0.54939 0.04093 0.0
H91 H 0.47836 0.38457 0.13608 0.0
H92 H 0.45949 0.44384 0.14998 0.0
H93 H 0.51993 0.40777 0.16695 0.0
C94 C 0.19891 0.11511 0.04235 0.0
C95 C 0.15097 0.12548 0.02254 0.0
C96 C 0.23637 0.15542 0.04604 0.0
C97 C 0.25476 0.30252 0.0327 0.0
H98 H 0.40729 0.26159 0.04562 0.0
C99 C 0.42073 0.4356 0.08078 0.0
C100 C 0.475 0.43086 0.07406 0.0
C101 C 0.38003 0.40349 0.06959 0.0
C102 C 0.36509 0.27428 0.0415 0.0
H103 H 0.1042 0.18689 0.99152 0.0
H104 H 0.17034 0.2575 0.99737 0.0
H105 H 0.33902 0.19622 0.03591 0.0
H106 H 0.52874 0.39172 0.04855 0.0
H107 H 0.45736 0.33689 0.02766 0.0
H108 H 0.28118 0.38108 0.03742 0.0
C109 C 0.17865 0.21817 0.01048 0.0
C110 C 0.32555 0.23626 0.03649 0.0
C111 C 0.14067 0.17769 0.00706 0.0
C112 C 0.48717 0.396 0.05407 0.0
C113 C 0.44629 0.36411 0.04253 0.0
C114 C 0.29445 0.34078 0.03741 0.0
C115 C 0.22754 0.20738 0.02969 0.0
C116 C 0.26965 0.24941 0.03271 0.0
C117 C 0.39236 0.36613 0.05095 0.0
C118 C 0.35023 0.32703 0.0425 0.0
H119 H 0.20786 0.07549 0.05493 0.0
H120 H 0.27244 0.1456 0.06179 0.0
H121 H 0.21229 0.3144 0.02994 0.0
H122 H 0.41029 0.46269 0.09588 0.0
H123 H 0.33946 0.4063 0.07691 0.0
C124 C 0.1544 0.88891 0.95616 0.0
C125 C 0.17204 0.92626 0.97488 0.0
C126 C 0.19054 0.85072 0.95 0.0
C127 C 0.32601 0.78685 0.97845 0.0
H128 H 0.30718 0.73285 0.90094 0.0
C129 C 0.48087 0.64762 0.93641 0.0
C130 C 0.45779 0.60359 0.92491 0.0
C131 C 0.44742 0.68695 0.94394 0.0
C132 C 0.31276 0.7474 0.92276 0.0
H133 H 0.24187 0.95417 0.00089 0.0
H134 H 0.30547 0.88923 0.98917 0.0
H135 H 0.24741 0.80332 0.90972 0.0
H136 H 0.38211 0.56473 0.91376 0.0
H137 H 0.32362 0.63403 0.92599 0.0
H138 H 0.39272 0.73156 0.99084 0.0
C139 C 0.26333 0.88789 0.98008 0.0
C140 C 0.27825 0.78768 0.92793 0.0
C141 C 0.22693 0.92553 0.98663 0.0
C142 C 0.40081 0.59879 0.92203 0.0
C143 C 0.36744 0.63837 0.92903 0.0
C144 C 0.36114 0.74714 0.97301 0.0
C145 C 0.24558 0.84941 0.96198 0.0
C146 C 0.2839 0.80771 0.956 0.0
C147 C 0.39033 0.68324 0.93966 0.0
C148 C 0.35447 0.72661 0.94525 0.0
H149 H 0.11222 0.88817 0.94695 0.0
H150 H 0.17475 0.82143 0.93644 0.0
H151 H 0.33131 0.8003 0.00057 0.0
H152 H 0.52466 0.65242 0.93857 0.0
H153 H 0.46614 0.72118 0.95204 0.0
C154 C 0.95512 0.83541 0.05809 0.0
C155 C 0.93182 0.88578 0.05695 0.0
C156 C 0.92681 0.78937 0.06966 0.0
C157 C 0.8086 0.73747 0.11271 0.0
H158 H 0.78735 0.64596 0.05075 0.0
C159 C 0.62587 0.59432 0.11097 0.0
C160 C 0.63147 0.54632 0.10004 0.0
C161 C 0.66772 0.63188 0.10907 0.0
C162 C 0.79341 0.67018 0.06873 0.0
H163 H 0.86323 0.92786 0.06915 0.0
H164 H 0.81509 0.84803 0.09059 0.0
H165 H 0.85487 0.71625 0.04498 0.0
H166 H 0.68488 0.49926 0.07885 0.0
H167 H 0.75912 0.56396 0.07613 0.0
H168 H 0.74729 0.69166 0.13655 0.0
C169 C 0.85475 0.84367 0.08236 0.0
C170 C 0.83232 0.71065 0.06537 0.0
C171 C 0.88246 0.88949 0.07026 0.0
C172 C 0.67973 0.5363 0.08721 0.0
C173 C 0.72203 0.57358 0.08559 0.0
C174 C 0.77018 0.69654 0.11632 0.0
C175 C 0.87522 0.79305 0.08077 0.0
C176 C 0.83966 0.74548 0.08698 0.0
C177 C 0.71668 0.62211 0.09646 0.0
C178 C 0.76104 0.66294 0.09401 0.0
H179 H 0.9926 0.83147 0.04742 0.0
H180 H 0.94388 0.75092 0.06838 0.0
H181 H 0.81352 0.76338 0.12989 0.0
H182 H 0.58861 0.60305 0.12058 0.0
H183 H 0.66108 0.66902 0.117 0.0
C184 C 0.9149 0.18246 0.00644 0.0
C185 C 0.94585 0.16637 0.98424 0.0
C186 C 0.88236 0.22834 0.99904 0.0
C187 C 0.80335 0.2996 0.93099 0.0
H188 H 0.7691 0.39729 0.98536 0.0
C189 C 0.60021 0.41771 0.91561 0.0
C190 C 0.60324 0.47158 0.91855 0.0
C191 C 0.64636 0.38479 0.923 0.0
C192 C 0.77843 0.37054 0.96981 0.0
H193 H 0.96917 0.1866 0.93744 0.0
H194 H 0.91295 0.26724 0.92448 0.0
H195 H 0.84684 0.33635 -1e-05 0.0
H196 H 0.65688 0.53344 0.93107 0.0
H197 H 0.73729 0.47573 0.94483 0.0
H198 H 0.73429 0.33275 0.90119 0.0
C199 C 0.91386 0.24458 0.94767 0.0
C200 C 0.82282 0.33551 0.97826 0.0
C201 C 0.94682 0.19897 0.95523 0.0
C202 C 0.6533 0.49185 0.92909 0.0
C203 C 0.69927 0.45885 0.93688 0.0
C204 C 0.75863 0.33408 0.92276 0.0
C205 C 0.87936 0.25843 0.96903 0.0
C206 C 0.83564 0.29937 0.95902 0.0
C207 C 0.69642 0.40492 0.93387 0.0
C208 C 0.74531 0.36967 0.94217 0.0
H209 H 0.91221 0.15709 0.02864 0.0
H210 H 0.85608 0.23757 0.01597 0.0
H211 H 0.81149 0.27179 0.91583 0.0
H212 H 0.56195 0.40098 0.90793 0.0
H213 H 0.64262 0.34329 0.92076 0.0
C214 C 0.64613 0.68874 0.48285 0.0
C215 C 0.62205 0.66808 0.51009 0.0
C216 C 0.67394 0.73711 0.48046 0.0
C217 C 0.7047 0.85715 0.51536 0.0
H218 H 0.85509 0.82552 0.50526 0.0
C219 C 0.88299 0.97266 0.56538 0.0
C220 C 0.93439 0.972 0.55398 0.0
C221 C 0.83905 0.94607 0.55272 0.0
C222 C 0.81331 0.83621 0.5073 0.0
H223 H 0.60466 0.68294 0.55525 0.0
H224 H 0.65122 0.76868 0.55064 0.0
H225 H 0.78451 0.76256 0.49507 0.0
H226 H 0.97953 0.9467 0.51898 0.0
H227 H 0.90205 0.90323 0.49516 0.0
H228 H 0.73313 0.93091 0.52747 0.0
C229 C 0.64872 0.74765 0.53112 0.0
C230 C 0.77269 0.79969 0.50155 0.0
C231 C 0.62173 0.69879 0.53371 0.0
C232 C 0.94015 0.94777 0.52809 0.0
C233 C 0.89583 0.9221 0.51487 0.0
C234 C 0.74521 0.89437 0.52047 0.0
C235 C 0.67758 0.76585 0.50517 0.0
C236 C 0.7182 0.80905 0.50632 0.0
C237 C 0.84506 0.91899 0.52777 0.0
C238 C 0.80051 0.88373 0.51751 0.0
H239 H 0.64802 0.6651 0.46467 0.0
H240 H 0.69567 0.75029 0.46017 0.0
H241 H 0.66294 0.86549 0.51905 0.0
H242 H 0.87776 0.99131 0.58533 0.0
H243 H 0.80136 0.94445 0.56378 0.0
C244 C 0.66757 0.36682 0.46806 0.0
C245 C 0.6949 0.4101 0.47819 0.0
C246 C 0.69659 0.328 0.45693 0.0
C247 C 0.82878 0.30025 0.42784 0.0
H248 H 0.80235 0.1541 0.46416 0.0
C249 C 0.98179 0.13346 0.4221 0.0
C250 C 0.96081 0.08446 0.41654 0.0
C251 C 0.9473 0.17258 0.42869 0.0
C252 C 0.80985 0.19459 0.45345 0.0
H253 H 0.77343 0.44793 0.48335 0.0
H254 H 0.8238 0.38085 0.46375 0.0
H255 H 0.74381 0.22479 0.47433 0.0
H256 H 0.88801 0.03735 0.41344 0.0
H257 H 0.82704 0.10577 0.42472 0.0
H258 H 0.89486 0.27034 0.40707 0.0
C259 C 0.78008 0.3767 0.46428 0.0
C260 C 0.77616 0.23512 0.45923 0.0
C261 C 0.75124 0.41506 0.47565 0.0
C262 C 0.90489 0.07482 0.41802 0.0
C263 C 0.87023 0.11394 0.42455 0.0
C264 C 0.86228 0.25977 0.42196 0.0
C265 C 0.7534 0.33202 0.45548 0.0
C266 C 0.78569 0.28852 0.44683 0.0
C267 C 0.89088 0.16365 0.42957 0.0
C268 C 0.85379 0.20645 0.43504 0.0
H269 H 0.62431 0.36153 0.47017 0.0
H270 H 0.6748 0.29427 0.45007 0.0
H271 H 0.83678 0.34089 0.4176 0.0
H272 H 0.02474 0.14183 0.42057 0.0
H273 H 0.96484 0.20999 0.43291 0.0
C274 C 0.35775 0.41804 0.55628 0.0
C275 C 0.41207 0.40407 0.55402 0.0
C276 C 0.32036 0.37964 0.56729 0.0
C277 C 0.29946 0.23988 0.60386 0.0
H278 H 0.17347 0.25168 0.54377 0.0
C279 C 0.14407 0.06828 0.59691 0.0
C280 C 0.08944 0.0818 0.58737 0.0
C281 C 0.18399 0.10774 0.59671 0.0
C282 C 0.20766 0.24802 0.56121 0.0
H283 H 0.47117 0.33999 0.56394 0.0
H284 H 0.40546 0.27215 0.58334 0.0
H285 H 0.24231 0.32018 0.53949 0.0
H286 H 0.03276 0.14683 0.57206 0.0
H287 H 0.10175 0.21613 0.57219 0.0
H288 H 0.26443 0.1674 0.62558 0.0
C289 C 0.3919 0.31303 0.57675 0.0
C290 C 0.24738 0.28746 0.5587 0.0
C291 C 0.42964 0.35186 0.56586 0.0
C292 C 0.07492 0.13551 0.57869 0.0
C293 C 0.1146 0.17505 0.57877 0.0
C294 C 0.25923 0.20041 0.60658 0.0
C295 C 0.33624 0.3261 0.57594 0.0
C296 C 0.29376 0.28408 0.57997 0.0
C297 C 0.16993 0.16176 0.5873 0.0
C298 C 0.2127 0.20395 0.58523 0.0
H299 H 0.34319 0.45804 0.54723 0.0
H300 H 0.27813 0.39129 0.56711 0.0
H301 H 0.33469 0.23612 0.62062 0.0
H302 H 0.1559 0.02696 0.60385 0.0
H303 H 0.22601 0.09569 0.60315 0.0
C304 C 0.44182 0.67705 0.49675 0.0
C305 C 0.45993 0.6578 0.47127 0.0
C306 C 0.40667 0.72113 0.49212 0.0
C307 C 0.34967 0.83682 0.43935 0.0
H308 H 0.20822 0.78689 0.46372 0.0
C309 C 0.15381 0.95952 0.39434 0.0
C310 C 0.10908 0.95464 0.4123 0.0
C311 C 0.19971 0.92668 0.40308 0.0
C312 C 0.24739 0.80244 0.45733 0.0
H313 H 0.45949 0.67155 0.42133 0.0
H314 H 0.40074 0.75044 0.41335 0.0
H315 H 0.28756 0.72942 0.47819 0.0
H316 H 0.07741 0.91192 0.45365 0.0
H317 H 0.15847 0.85737 0.47035 0.0
H318 H 0.31049 0.91035 0.41921 0.0
C319 C 0.41296 0.73115 0.43679 0.0
C320 C 0.29294 0.76914 0.46559 0.0
C321 C 0.44678 0.68627 0.44135 0.0
C322 C 0.11146 0.91666 0.43944 0.0
C323 C 0.15788 0.88479 0.44871 0.0
C324 C 0.30434 0.87083 0.43174 0.0
C325 C 0.39044 0.74734 0.462 0.0
C326 C 0.34432 0.78569 0.45634 0.0
C327 C 0.20281 0.88896 0.43059 0.0
C328 C 0.25213 0.85388 0.44014 0.0
H329 H 0.45047 0.65508 0.51996 0.0
H330 H 0.3897 0.7329 0.5119 0.0
H331 H 0.38893 0.85038 0.43187 0.0
H332 H 0.15388 0.98944 0.37383 0.0
H333 H 0.23256 0.93093 0.38804 0.0
C334 C 0.09534 0.87993 0.12492 0.0
C335 C 0.0648 0.91723 0.10308 0.0
C336 C 0.08533 0.87228 0.15613 0.0
C337 C 0.99498 0.90592 0.21378 0.0
H338 H 0.13229 0.92674 0.26036 0.0
C339 C 0.07235 0.00139 0.32707 0.0
C340 C 0.04169 0.97383 0.34994 0.0
C341 C 0.07465 0.98372 0.29882 0.0
C342 C 0.09368 0.9205 0.24776 0.0
H343 H 0.996 0.97152 0.09632 0.0
H344 H 0.9783 0.95801 0.15091 0.0
H345 H 0.13196 0.91157 0.20715 0.0
H346 H 0.98776 0.90773 0.3613 0.0
H347 H 0.99102 0.87654 0.31135 0.0
H348 H 0.95684 0.91668 0.25447 0.0
C349 C 0.01005 0.93465 0.1439 0.0
C350 C 0.09343 0.9113 0.21734 0.0
C351 C 0.02002 0.94224 0.11253 0.0
C352 C 0.01285 0.92847 0.34413 0.0
C353 C 0.01431 0.91114 0.31558 0.0
C354 C 0.9953 0.91451 0.24449 0.0
C355 C 0.04467 0.9019 0.16623 0.0
C356 C 0.04407 0.90485 0.19974 0.0
C357 C 0.04501 0.93886 0.29256 0.0
C358 C 0.04464 0.92308 0.26152 0.0
H359 H 0.12978 0.85965 0.11826 0.0
H360 H 0.11185 0.84578 0.17266 0.0
H361 H 0.95635 0.90104 0.20085 0.0
H362 H 0.09307 0.03763 0.3308 0.0
H363 H 0.09784 0.00646 0.28135 0.0
C364 C 0.97027 0.95883 0.8793 0.0
C365 C 0.01163 0.96994 0.90131 0.0
C366 C 0.981 0.95978 0.84854 0.0
C367 C 0.09043 0.963 0.79503 0.0
H368 H 0.97803 0.03443 0.73577 0.0
C369 C 0.03911 0.05072 0.65536 0.0
C370 C 0.05536 0.00704 0.64279 0.0
C371 C 0.04342 0.04896 0.68739 0.0
C372 C 0.01031 0.0151 0.75193 0.0
H373 H 0.09756 0.9881 0.90847 0.0
H374 H 0.11609 0.99025 0.85469 0.0
H375 H 0.96567 0.02211 0.79057 0.0
H376 H 0.09346 0.92951 0.65309 0.0
H377 H 0.09981 0.92533 0.70935 0.0
H378 H 0.13538 0.95688 0.75605 0.0
C379 C 0.07542 0.98034 0.86129 0.0
C380 C 0.00273 0.00712 0.78344 0.0
C381 C 0.06474 0.97911 0.89219 0.0
C382 C 0.0801 0.9633 0.66251 0.0
C383 C 0.08399 0.9612 0.69464 0.0
C384 C 0.09809 0.97105 0.76334 0.0
C385 C 0.03324 0.97232 0.83892 0.0
C386 C 0.04237 0.98055 0.8054 0.0
C387 C 0.06359 0.00317 0.70751 0.0
C388 C 0.05797 -0.0029 0.74139 0.0
H389 H 0.92905 0.95103 0.8856 0.0
H390 H 0.94787 0.952 0.83209 0.0
H391 H 0.12174 0.9423 0.81133 0.0
H392 H 0.01992 0.0848 0.64045 0.0
H393 H 0.02863 0.08258 0.69645 0.0
C394 C 0.50697 0.43621 0.6208 0.0
C395 C 0.56061 0.43267 0.61276 0.0
C396 C 0.49597 0.42731 0.65207 0.0
C397 C 0.56344 0.38619 0.73327 0.0
H398 H 0.46319 0.48968 0.75257 0.0
C399 C 0.57537 0.48599 0.84386 0.0
C400 C 0.52737 0.48385 0.85906 0.0
C401 C 0.57614 0.46633 0.81599 0.0
C402 C 0.49093 0.4602 0.74748 0.0
H403 H 0.64381 0.41232 0.631 0.0
H404 H 0.62553 0.39918 0.6846 0.0
H405 H 0.467 0.47763 0.69905 0.0
H406 H 0.44393 0.45675 0.85841 0.0
H407 H 0.44453 0.42447 0.80897 0.0
H408 H 0.59001 0.37229 0.78182 0.0
C409 C 0.59129 0.4078 0.66738 0.0
C410 C 0.49283 0.45279 0.71679 0.0
C411 C 0.60201 0.41596 0.63636 0.0
C412 C 0.48112 0.4594 0.8468 0.0
C413 C 0.48148 0.44089 0.81868 0.0
C414 C 0.56245 0.39467 0.76386 0.0
C415 C 0.53851 0.41528 0.67587 0.0
C416 C 0.53003 0.41653 0.70906 0.0
C417 C 0.52865 0.44517 0.80275 0.0
C418 C 0.5268 0.43235 0.77109 0.0
H419 H 0.47418 0.44913 0.60321 0.0
H420 H 0.45449 0.43213 0.65756 0.0
H421 H 0.59157 0.35679 0.72858 0.0
H422 H 0.6113 0.50509 0.85277 0.0
H423 H 0.61291 0.47026 0.80394 0.0
C424 C 0.61263 0.4657 0.40694 0.0
C425 C 0.56703 0.43745 0.41784 0.0
C426 C 0.62663 0.46494 0.37678 0.0
C427 C 0.55124 0.45233 0.30337 0.0
H428 H 0.691 0.46997 0.2686 0.0
C429 C 0.62931 0.46052 0.17602 0.0
C430 C 0.58746 0.49291 0.15936 0.0
C431 C 0.6375 0.45647 0.20827 0.0
C432 C 0.65175 0.46501 0.27807 0.0
H433 H 0.50495 0.38093 0.40771 0.0
H434 H 0.53058 0.3778 0.35575 0.0
H435 H 0.68759 0.44767 0.32504 0.0
H436 H 0.52384 0.54894 0.16216 0.0
H437 H 0.539 0.54374 0.21831 0.0
H438 H 0.51509 0.46913 0.25697 0.0
C439 C 0.55429 0.40217 0.36983 0.0
C440 C 0.6498 0.45238 0.3103 0.0
C441 C 0.53986 0.40357 0.39966 0.0
C442 C 0.55668 0.52427 0.17478 0.0
C443 C 0.56501 0.52066 0.20684 0.0
C444 C 0.55318 0.46511 0.27146 0.0
C445 C 0.59543 0.43553 0.35733 0.0
C446 C 0.59938 0.44577 0.32327 0.0
C447 C 0.60368 0.48475 0.22412 0.0
C448 C 0.60331 0.47205 0.25836 0.0
H449 H 0.63416 0.49226 0.42052 0.0
H450 H 0.65869 0.4909 0.36791 0.0
H451 H 0.51164 0.44872 0.31248 0.0
H452 H 0.65269 0.43544 0.16435 0.0
H453 H 0.66743 0.42833 0.22092 0.0
loop_
_geom_bond_atom_site_label_1
_geom_bond_atom_site_label_2
_geom_bond_distance
_geom_bond_site_symmetry_2
_ccdc_geom_bond_type
Zn0 O6 1.920 1_545 S
Zn0 O12 1.898 . S
Zn0 O15 1.905 1_545 S
Zn1 O9 1.905 1_565 S
Zn1 O10 1.898 . S
Zn1 O18 1.920 . S
Zn2 O5 2.080 1_545 S
Zn2 O8 2.115 . S
Zn2 O11 2.120 1_545 S
Zn2 O13 2.120 1_455 S
Zn2 O14 2.114 1_554 S
Zn2 O17 2.080 . S
C3 O8 1.182 . S
C3 O9 1.182 . S
C4 O10 1.167 . S
C4 O11 1.299 . S
O5 Zn2 2.080 1_565 S
O5 C19 1.305 1_455 S
O6 Zn0 1.920 1_565 S
O6 C19 1.234 1_556 S
C7 O12 1.167 . S
C7 O13 1.299 1_556 S
O8 Zn2 2.115 . S
O8 C3 1.182 . S
O9 Zn1 1.905 1_545 S
O9 C3 1.182 . S
O10 Zn1 1.898 . S
O10 C4 1.167 . S
O11 Zn2 2.120 1_565 S
O11 C4 1.299 . S
O12 Zn0 1.898 . S
O12 C7 1.167 . S
O13 Zn2 2.120 1_655 S
O13 C7 1.299 1_554 S
O14 Zn2 2.114 1_556 S
O14 C16 1.166 1_545 S
O15 Zn0 1.905 1_565 S
O15 C16 1.182 1_655 S
C16 O14 1.166 1_565 S
C16 O15 1.182 1_455 S
O17 Zn2 2.080 . S
O17 C20 1.305 1_545 S
O18 Zn1 1.920 . S
O18 C20 1.234 . S
C19 O5 1.305 1_655 S
C19 O6 1.234 1_554 S
C20 O17 1.305 1_565 S
C20 O18 1.234 . S
Zn21 O27 1.920 . S
Zn21 O33 1.898 . S
Zn21 O36 1.905 . S
Zn22 O30 1.905 . S
Zn22 O31 1.898 . S
Zn22 O39 1.920 . S
Zn23 O26 2.080 . S
Zn23 O29 2.114 . S
Zn23 O32 2.120 . S
Zn23 O34 2.120 . S
Zn23 O35 2.114 . S
Zn23 O38 2.080 . S
C24 O29 1.166 . S
C24 O30 1.182 . S
C25 O31 1.167 . S
C25 O32 1.299 . S
O26 Zn23 2.080 . S
O26 C40 1.305 . S
O27 Zn21 1.920 . S
O27 C40 1.234 . S
C28 O33 1.167 . S
C28 O34 1.299 . S
O29 Zn23 2.114 . S
O29 C24 1.166 . S
O30 Zn22 1.905 . S
O30 C24 1.182 . S
O31 Zn22 1.898 . S
O31 C25 1.167 . S
O32 Zn23 2.120 . S
O32 C25 1.299 . S
O33 Zn21 1.898 . S
O33 C28 1.167 . S
O34 Zn23 2.120 . S
O34 C28 1.299 . S
O35 Zn23 2.114 . S
O35 C37 1.166 . S
O36 Zn21 1.905 . S
O36 C37 1.182 . S
C37 O35 1.166 . S
C37 O36 1.182 . S
O38 Zn23 2.080 . S
O38 C41 1.305 . S
O39 Zn22 1.920 . S
O39 C41 1.234 . S
C40 O26 1.305 . S
C40 O27 1.234 . S
C41 O38 1.305 . S
C41 O39 1.234 . S
C42 N43 1.317 . S
C42 N44 1.348 . S
C42 C45 1.485 . S
N43 C42 1.317 . S
N43 N47 1.370 . S
N44 C42 1.348 . S
N44 C46 1.346 . S
C45 C42 1.485 . S
C45 H49 0.960 1_545 S
C45 H50 0.961 . S
C45 H51 0.962 . S
C46 N44 1.346 . S
C46 N47 1.307 . S
C46 C48 1.486 . S
N47 N43 1.370 . S
N47 C46 1.307 . S
C48 C46 1.486 . S
C48 H52 0.960 . S
C48 H53 0.960 1_455 S
C48 H54 0.959 . S
H49 C45 0.960 1_565 S
H50 C45 0.961 . S
H51 C45 0.962 . S
H52 C48 0.960 . S
H53 C48 0.960 1_655 S
H54 C48 0.959 . S
C55 N56 1.317 . S
C55 N57 1.348 1_445 S
C55 C58 1.485 . S
N56 C55 1.317 . S
N56 N60 1.370 . S
N57 C55 1.348 1_665 S
N57 C59 1.346 . S
C58 C55 1.485 . S
C58 H62 0.960 1_455 S
C58 H63 0.961 1_545 S
C58 H64 0.960 . S
C59 N57 1.346 . S
C59 N60 1.307 1_665 S
C59 C61 1.486 . S
N60 N56 1.370 . S
N60 C59 1.307 1_445 S
C61 C59 1.486 . S
C61 H65 0.960 . S
C61 H66 0.960 . S
C61 H67 0.959 . S
H62 C58 0.960 1_655 S
H63 C58 0.961 1_565 S
H64 C58 0.960 . S
H65 C61 0.960 . S
H66 C61 0.960 . S
H67 C61 0.959 . S
C68 N69 1.317 . S
C68 N70 1.348 . S
C68 C71 1.485 . S
N69 C68 1.317 . S
N69 N73 1.370 . S
N70 C68 1.348 . S
N70 C72 1.346 . S
C71 C68 1.485 . S
C71 H75 0.960 . S
C71 H76 0.961 . S
C71 H77 0.960 . S
C72 N70 1.346 . S
C72 N73 1.307 . S
C72 C74 1.486 . S
N73 N69 1.370 . S
N73 C72 1.307 . S
C74 C72 1.486 . S
C74 H78 0.960 . S
C74 H79 0.960 . S
C74 H80 0.959 . S
H75 C71 0.960 . S
H76 C71 0.961 . S
H77 C71 0.960 . S
H78 C74 0.960 . S
H79 C74 0.960 . S
H80 C74 0.959 . S
C81 N82 1.317 . S
C81 N83 1.348 . S
C81 C84 1.485 . S
N82 C81 1.317 . S
N82 N86 1.370 . S
N83 C81 1.348 . S
N83 C85 1.346 . S
C84 C81 1.485 . S
C84 H88 0.960 . S
C84 H89 0.961 . S
C84 H90 0.960 . S
C85 N83 1.346 . S
C85 N86 1.307 . S
C85 C87 1.486 . S
N86 N82 1.370 . S
N86 C85 1.307 . S
C87 C85 1.486 . S
C87 H91 0.960 . S
C87 H92 0.960 . S
C87 H93 0.959 . S
H88 C84 0.960 . S
H89 C84 0.961 . S
H90 C84 0.960 . S
H91 C87 0.960 . S
H92 C87 0.960 . S
H93 C87 0.959 . S
C94 C95 1.349 . S
C94 C96 1.327 . S
C94 H119 0.950 . S
C95 C94 1.349 . S
C95 C111 1.349 1_554 S
C96 C94 1.327 . S
C96 C115 1.429 . S
C96 H120 0.950 . S
C97 C114 1.574 . S
C97 C116 1.368 . S
C97 H121 0.949 1_554 S
H98 C102 0.949 . S
C99 C100 1.349 . S
C99 C101 1.327 . S
C99 H122 0.950 . S
C100 C99 1.349 . S
C100 C112 1.349 . S
C101 C99 1.327 . S
C101 C117 1.429 . S
C101 H123 0.950 . S
C102 H98 0.949 . S
C102 C110 1.574 . S
C102 C118 1.368 . S
H103 C111 0.950 . S
H104 C109 0.950 . S
H105 C110 0.949 . S
H106 C112 0.950 . S
H107 C113 0.950 . S
H108 C114 0.949 . S
C109 H104 0.950 . S
C109 C111 1.327 . S
C109 C115 1.429 1_556 S
C110 C102 1.574 . S
C110 H105 0.949 . S
C110 C116 1.368 . S
C111 C95 1.349 1_556 S
C111 H103 0.950 . S
C111 C109 1.327 . S
C112 C100 1.349 . S
C112 H106 0.950 . S
C112 C113 1.327 . S
C113 H107 0.950 . S
C113 C112 1.327 . S
C113 C117 1.429 . S
C114 C97 1.574 . S
C114 H108 0.949 . S
C114 C118 1.368 . S
C115 C96 1.429 . S
C115 C109 1.429 1_554 S
C115 C116 1.523 . S
C116 C97 1.368 . S
C116 C110 1.368 . S
C116 C115 1.523 . S
C117 C101 1.429 . S
C117 C113 1.429 . S
C117 C118 1.523 . S
C118 C102 1.368 . S
C118 C114 1.368 . S
C118 C117 1.523 . S
H119 C94 0.950 . S
H120 C96 0.950 . S
H121 C97 0.949 1_556 S
H122 C99 0.950 . S
H123 C101 0.950 . S
C124 C125 1.349 . S
C124 C126 1.327 . S
C124 H149 0.950 . S
C125 C124 1.349 . S
C125 C141 1.349 1_556 S
C126 C124 1.327 . S
C126 C145 1.429 . S
C126 H150 0.950 . S
C127 C144 1.574 . S
C127 C146 1.368 . S
C127 H151 0.949 1_556 S
H128 C132 0.949 . S
C129 C130 1.349 . S
C129 C131 1.327 . S
C129 H152 0.950 . S
C130 C129 1.349 . S
C130 C142 1.349 . S
C131 C129 1.327 . S
C131 C147 1.429 . S
C131 H153 0.950 . S
C132 H128 0.949 . S
C132 C140 1.574 . S
C132 C148 1.368 . S
H133 C141 0.950 . S
H134 C139 0.950 . S
H135 C140 0.949 . S
H136 C142 0.950 . S
H137 C143 0.950 . S
H138 C144 0.951 . S
C139 H134 0.950 . S
C139 C141 1.327 . S
C139 C145 1.429 1_554 S
C140 C132 1.574 . S
C140 H135 0.949 . S
C140 C146 1.368 . S
C141 C125 1.349 1_554 S
C141 H133 0.950 . S
C141 C139 1.327 . S
C142 C130 1.349 . S
C142 H136 0.950 . S
C142 C143 1.327 . S
C143 H137 0.950 . S
C143 C142 1.327 . S
C143 C147 1.429 . S
C144 C127 1.574 . S
C144 H138 0.951 . S
C144 C148 1.368 . S
C145 C126 1.429 . S
C145 C139 1.429 1_556 S
C145 C146 1.523 . S
C146 C127 1.368 . S
C146 C140 1.368 . S
C146 C145 1.523 . S
C147 C131 1.429 . S
C147 C143 1.429 . S
C147 C148 1.523 . S
C148 C132 1.368 . S
C148 C144 1.368 . S
C148 C147 1.523 . S
H149 C124 0.950 . S
H150 C126 0.950 . S
H151 C127 0.949 1_554 S
H152 C129 0.950 . S
H153 C131 0.950 . S
C154 C155 1.349 . S
C154 C156 1.327 . S
C154 H179 0.955 . S
C155 C154 1.349 . S
C155 C171 1.349 . S
C156 C154 1.327 . S
C156 C175 1.429 . S
C156 H180 0.950 . S
C157 C174 1.574 . S
C157 C176 1.368 . S
C157 H181 0.949 . S
H158 C162 0.949 . S
C159 C160 1.349 . S
C159 C161 1.327 . S
C159 H182 0.950 . S
C160 C159 1.349 . S
C160 C172 1.349 . S
C161 C159 1.327 . S
C161 C177 1.429 . S
C161 H183 0.950 . S
C162 H158 0.949 . S
C162 C170 1.574 . S
C162 C178 1.368 . S
H163 C171 0.950 . S
H164 C169 0.950 . S
H165 C170 0.949 . S
H166 C172 0.950 . S
H167 C173 0.950 . S
H168 C174 0.949 . S
C169 H164 0.950 . S
C169 C171 1.327 . S
C169 C175 1.429 . S
C170 C162 1.574 . S
C170 H165 0.949 . S
C170 C176 1.368 . S
C171 C155 1.349 . S
C171 H163 0.950 . S
C171 C169 1.327 . S
C172 C160 1.349 . S
C172 H166 0.950 . S
C172 C173 1.327 . S
C173 H167 0.950 . S
C173 C172 1.327 . S
C173 C177 1.429 . S
C174 C157 1.574 . S
C174 H168 0.949 . S
C174 C178 1.368 . S
C175 C156 1.429 . S
C175 C169 1.429 . S
C175 C176 1.523 . S
C176 C157 1.368 . S
C176 C170 1.368 . S
C176 C175 1.523 . S
C177 C161 1.429 . S
C177 C173 1.429 . S
C177 C178 1.523 . S
C178 C162 1.368 . S
C178 C174 1.368 . S
C178 C177 1.523 . S
H179 C154 0.955 . S
H180 C156 0.950 . S
H181 C157 0.949 . S
H182 C159 0.950 . S
H183 C161 0.950 . S
C184 C185 1.348 1_554 S
C184 C186 1.327 1_554 S
C184 H209 0.951 . S
C185 C184 1.348 1_556 S
C185 C201 1.349 . S
C186 C184 1.327 1_556 S
C186 C205 1.429 . S
C186 H210 0.950 1_556 S
C187 C204 1.574 . S
C187 C206 1.368 . S
C187 H211 0.949 . S
H188 C192 0.949 . S
C189 C190 1.349 . S
C189 C191 1.327 . S
C189 H212 0.950 . S
C190 C189 1.349 . S
C190 C202 1.349 . S
C191 C189 1.327 . S
C191 C207 1.429 . S
C191 H213 0.950 . S
C192 H188 0.949 . S
C192 C200 1.574 . S
C192 C208 1.368 . S
H193 C201 0.950 . S
H194 C199 0.950 . S
H195 C200 0.949 . S
H196 C202 0.950 . S
H197 C203 0.950 . S
H198 C204 0.949 . S
C199 H194 0.950 . S
C199 C201 1.327 . S
C199 C205 1.429 . S
C200 C192 1.574 . S
C200 H195 0.949 . S
C200 C206 1.368 . S
C201 C185 1.349 . S
C201 H193 0.950 . S
C201 C199 1.327 . S
C202 C190 1.349 . S
C202 H196 0.950 . S
C202 C203 1.327 . S
C203 H197 0.950 . S
C203 C202 1.327 . S
C203 C207 1.429 . S
C204 C187 1.574 . S
C204 H198 0.949 . S
C204 C208 1.368 . S
C205 C186 1.429 . S
C205 C199 1.429 . S
C205 C206 1.523 . S
C206 C187 1.368 . S
C206 C200 1.368 . S
C206 C205 1.523 . S
C207 C191 1.429 . S
C207 C203 1.429 . S
C207 C208 1.523 . S
C208 C192 1.368 . S
C208 C204 1.368 . S
C208 C207 1.523 . S
H209 C184 0.951 . S
H210 C186 0.950 1_554 S
H211 C187 0.949 . S
H212 C189 0.950 . S
H213 C191 0.950 . S
C214 C215 1.349 . S
C214 C216 1.327 . S
C214 H239 0.950 . S
C215 C214 1.349 . S
C215 C231 1.349 . S
C216 C214 1.327 . S
C216 C235 1.429 . S
C216 H240 0.950 . S
C217 C234 1.574 . S
C217 C236 1.368 . S
C217 H241 0.949 . S
H218 C222 0.949 . S
C219 C220 1.349 . S
C219 C221 1.327 . S
C219 H242 0.950 1_565 S
C220 C219 1.349 . S
C220 C232 1.349 . S
C221 C219 1.327 . S
C221 C237 1.429 . S
C221 H243 0.950 . S
C222 H218 0.949 . S
C222 C230 1.574 . S
C222 C238 1.368 . S
H223 C231 0.950 . S
H224 C229 0.950 . S
H225 C230 0.949 . S
H226 C232 0.950 . S
H227 C233 0.950 . S
H228 C234 0.949 . S
C229 H224 0.950 . S
C229 C231 1.327 . S
C229 C235 1.429 . S
C230 C222 1.574 . S
C230 H225 0.949 . S
C230 C236 1.368 . S
C231 C215 1.349 . S
C231 H223 0.950 . S
C231 C229 1.327 . S
C232 C220 1.349 . S
C232 H226 0.950 . S
C232 C233 1.327 . S
C233 H227 0.950 . S
C233 C232 1.327 . S
C233 C237 1.429 . S
C234 C217 1.574 . S
C234 H228 0.949 . S
C234 C238 1.368 . S
C235 C216 1.429 . S
C235 C229 1.429 . S
C235 C236 1.523 . S
C236 C217 1.368 . S
C236 C230 1.368 . S
C236 C235 1.523 . S
C237 C221 1.429 . S
C237 C233 1.429 . S
C237 C238 1.523 . S
C238 C222 1.368 . S
C238 C234 1.368 . S
C238 C237 1.523 . S
H239 C214 0.950 . S
H240 C216 0.950 . S
H241 C217 0.949 . S
H242 C219 0.950 1_545 S
H243 C221 0.950 . S
C244 C245 1.349 . S
C244 C246 1.327 . S
C244 H269 0.950 . S
C245 C244 1.349 . S
C245 C261 1.349 . S
C246 C244 1.327 . S
C246 C265 1.429 . S
C246 H270 0.950 . S
C247 C264 1.574 . S
C247 C266 1.368 . S
C247 H271 0.949 . S
H248 C252 0.949 . S
C249 C250 1.349 . S
C249 C251 1.327 . S
C249 H272 0.950 . S
C250 C249 1.349 . S
C250 C262 1.349 . S
C251 C249 1.327 . S
C251 C267 1.429 . S
C251 H273 0.950 . S
C252 H248 0.949 . S
C252 C260 1.574 . S
C252 C268 1.368 . S
H253 C261 0.950 . S
H254 C259 0.950 . S
H255 C260 0.949 . S
H256 C262 0.950 1_455 S
H257 C263 0.950 . S
H258 C264 0.949 . S
C259 H254 0.950 . S
C259 C261 1.327 . S
C259 C265 1.429 . S
C260 C252 1.574 . S
C260 H255 0.949 . S
C260 C266 1.368 . S
C261 C245 1.349 . S
C261 H253 0.950 . S
C261 C259 1.327 . S
C262 C250 1.349 . S
C262 H256 0.950 1_655 S
C262 C263 1.327 . S
C263 H257 0.950 . S
C263 C262 1.327 . S
C263 C267 1.429 . S
C264 C247 1.574 . S
C264 H258 0.949 . S
C264 C268 1.368 . S
C265 C246 1.429 . S
C265 C259 1.429 . S
C265 C266 1.523 . S
C266 C247 1.368 . S
C266 C260 1.368 . S
C266 C265 1.523 . S
C267 C251 1.429 . S
C267 C263 1.429 . S
C267 C268 1.523 . S
C268 C252 1.368 . S
C268 C264 1.368 . S
C268 C267 1.523 . S
H269 C244 0.950 . S
H270 C246 0.950 . S
H271 C247 0.949 . S
H272 C249 0.950 . S
H273 C251 0.950 . S
C274 C275 1.349 . S
C274 C276 1.327 . S
C274 H299 0.950 . S
C275 C274 1.349 . S
C275 C291 1.349 . S
C276 C274 1.327 . S
C276 C295 1.429 . S
C276 H300 0.950 . S
C277 C294 1.574 . S
C277 C296 1.368 . S
C277 H301 0.949 . S
H278 C282 0.949 . S
C279 C280 1.349 . S
C279 C281 1.327 . S
C279 H302 0.950 . S
C280 C279 1.349 . S
C280 C292 1.349 . S
C281 C279 1.327 . S
C281 C297 1.429 . S
C281 H303 0.950 . S
C282 H278 0.949 . S
C282 C290 1.574 . S
C282 C298 1.368 . S
H283 C291 0.950 . S
H284 C289 0.950 . S
H285 C290 0.949 . S
H286 C292 0.950 . S
H287 C293 0.950 . S
H288 C294 0.949 . S
C289 H284 0.950 . S
C289 C291 1.327 . S
C289 C295 1.429 . S
C290 C282 1.574 . S
C290 H285 0.949 . S
C290 C296 1.368 . S
C291 C275 1.349 . S
C291 H283 0.950 . S
C291 C289 1.327 . S
C292 C280 1.349 . S
C292 H286 0.950 . S
C292 C293 1.327 . S
C293 H287 0.950 . S
C293 C292 1.327 . S
C293 C297 1.429 . S
C294 C277 1.574 . S
C294 H288 0.949 . S
C294 C298 1.368 . S
C295 C276 1.429 . S
C295 C289 1.429 . S
C295 C296 1.523 . S
C296 C277 1.368 . S
C296 C290 1.368 . S
C296 C295 1.523 . S
C297 C281 1.429 . S
C297 C293 1.429 . S
C297 C298 1.523 . S
C298 C282 1.368 . S
C298 C294 1.368 . S
C298 C297 1.523 . S
H299 C274 0.950 . S
H300 C276 0.950 . S
H301 C277 0.949 . S
H302 C279 0.950 . S
H303 C281 0.950 . S
C304 C305 1.349 . S
C304 C306 1.327 . S
C304 H329 0.950 . S
C305 C304 1.349 . S
C305 C321 1.349 . S
C306 C304 1.327 . S
C306 C325 1.429 . S
C306 H330 0.950 . S
C307 C324 1.574 . S
C307 C326 1.368 . S
C307 H331 0.949 . S
H308 C312 0.949 . S
C309 C310 1.349 . S
C309 C311 1.327 . S
C309 H332 0.950 1_565 S
C310 C309 1.349 . S
C310 C322 1.349 . S
C311 C309 1.327 . S
C311 C327 1.429 . S
C311 H333 0.950 . S
C312 H308 0.949 . S
C312 C320 1.574 . S
C312 C328 1.368 . S
H313 C321 0.950 . S
H314 C319 0.950 . S
H315 C320 0.949 . S
H316 C322 0.950 . S
H317 C323 0.950 . S
H318 C324 0.949 . S
C319 H314 0.950 . S
C319 C321 1.327 . S
C319 C325 1.429 . S
C320 C312 1.574 . S
C320 H315 0.949 . S
C320 C326 1.368 . S
C321 C305 1.349 . S
C321 H313 0.950 . S
C321 C319 1.327 . S
C322 C310 1.349 . S
C322 H316 0.950 . S
C322 C323 1.327 . S
C323 H317 0.950 . S
C323 C322 1.327 . S
C323 C327 1.429 . S
C324 C307 1.574 . S
C324 H318 0.949 . S
C324 C328 1.368 . S
C325 C306 1.429 . S
C325 C319 1.429 . S
C325 C326 1.523 . S
C326 C307 1.368 . S
C326 C320 1.368 . S
C326 C325 1.523 . S
C327 C311 1.429 . S
C327 C323 1.429 . S
C327 C328 1.523 . S
C328 C312 1.368 . S
C328 C324 1.368 . S
C328 C327 1.523 . S
H329 C304 0.950 . S
H330 C306 0.950 . S
H331 C307 0.949 . S
H332 C309 0.950 1_545 S
H333 C311 0.950 . S
C334 C335 1.349 . S
C334 C336 1.327 . S
C334 H359 0.950 . S
C335 C334 1.349 . S
C335 C351 1.349 1_565 S
C336 C334 1.327 . S
C336 C355 1.429 . S
C336 H360 0.950 . S
C337 C354 1.574 . S
C337 C356 1.368 1_545 S
C337 H361 0.949 . S
H338 C342 0.949 . S
C339 C340 1.349 . S
C339 C341 1.327 . S
C339 H362 0.950 . S
C340 C339 1.349 . S
C340 C352 1.349 1_545 S
C341 C339 1.327 . S
C341 C357 1.429 . S
C341 H363 0.950 . S
C342 H338 0.949 . S
C342 C350 1.574 . S
C342 C358 1.368 . S
H343 C351 0.950 . S
H344 C349 0.950 . S
H345 C350 0.949 . S
H346 C352 0.950 . S
H347 C353 0.950 . S
H348 C354 0.949 . S
C349 H344 0.950 . S
C349 C351 1.327 . S
C349 C355 1.429 1_545 S
C350 C342 1.574 . S
C350 H345 0.949 . S
C350 C356 1.368 . S
C351 C335 1.349 1_545 S
C351 H343 0.950 . S
C351 C349 1.327 . S
C352 C340 1.349 1_565 S
C352 H346 0.950 . S
C352 C353 1.327 . S
C353 H347 0.950 . S
C353 C352 1.327 . S
C353 C357 1.429 1_565 S
C354 C337 1.574 . S
C354 H348 0.949 . S
C354 C358 1.368 1_545 S
C355 C336 1.429 . S
C355 C349 1.429 1_565 S
C355 C356 1.523 . S
C356 C337 1.368 1_565 S
C356 C350 1.368 . S
C356 C355 1.523 . S
C357 C341 1.429 . S
C357 C353 1.429 1_545 S
C357 C358 1.523 1_545 S
C358 C342 1.368 . S
C358 C354 1.368 1_565 S
C358 C357 1.523 1_565 S
H359 C334 0.950 . S
H360 C336 0.950 . S
H361 C337 0.949 . S
H362 C339 0.950 . S
H363 C341 0.950 . S
C364 C365 1.349 . S
C364 C366 1.327 . S
C364 H389 0.953 . S
C365 C364 1.349 . S
C365 C381 1.349 1_565 S
C366 C364 1.327 . S
C366 C385 1.429 . S
C366 H390 0.950 1_455 S
C367 C384 1.574 . S
C367 C386 1.368 . S
C367 H391 0.949 . S
H368 C372 0.956 . S
C369 C370 1.349 . S
C369 C371 1.327 . S
C369 H392 0.950 . S
C370 C369 1.349 . S
C370 C382 1.349 1_445 S
C371 C369 1.327 . S
C371 C387 1.429 . S
C371 H393 0.950 . S
C372 H368 0.956 . S
C372 C380 1.574 1_655 S
C372 C388 1.360 1_665 S
H373 C381 0.950 . S
H374 C379 0.950 . S
H375 C380 0.949 1_655 S
H376 C382 0.950 . S
H377 C383 0.950 . S
H378 C384 0.949 . S
C379 H374 0.950 . S
C379 C381 1.327 . S
C379 C385 1.429 1_545 S
C380 C372 1.574 1_455 S
C380 H375 0.949 1_455 S
C380 C386 1.368 1_565 S
C381 C365 1.349 1_545 S
C381 H373 0.950 . S
C381 C379 1.327 . S
C382 C370 1.349 1_665 S
C382 H376 0.950 . S
C382 C383 1.327 . S
C383 H377 0.950 . S
C383 C382 1.327 . S
C383 C387 1.429 1_665 S
C384 C367 1.574 . S
C384 H378 0.949 . S
C384 C388 1.368 . S
C385 C366 1.429 . S
C385 C379 1.429 1_565 S
C385 C386 1.523 1_565 S
C386 C367 1.368 . S
C386 C380 1.368 1_545 S
C386 C385 1.523 1_545 S
C387 C371 1.429 . S
C387 C383 1.429 1_445 S
C387 C388 1.523 . S
C388 C372 1.360 1_445 S
C388 C384 1.368 . S
C388 C387 1.523 . S
H389 C364 0.953 . S
H390 C366 0.950 1_655 S
H391 C367 0.949 . S
H392 C369 0.950 . S
H393 C371 0.950 . S
C394 C395 1.349 . S
C394 C396 1.327 . S
C394 H419 0.950 . S
C395 C394 1.349 . S
C395 C411 1.349 . S
C396 C394 1.327 . S
C396 C415 1.429 . S
C396 H420 0.950 . S
C397 C414 1.574 . S
C397 C416 1.368 . S
C397 H421 0.949 . S
H398 C402 0.949 . S
C399 C400 1.349 . S
C399 C401 1.327 . S
C399 H422 0.950 . S
C400 C399 1.349 . S
C400 C412 1.349 . S
C401 C399 1.327 . S
C401 C417 1.429 . S
C401 H423 0.950 . S
C402 H398 0.949 . S
C402 C410 1.574 . S
C402 C418 1.368 . S
H403 C411 0.950 . S
H404 C409 0.950 . S
H405 C410 0.949 . S
H406 C412 0.950 . S
H407 C413 0.950 . S
H408 C414 0.949 . S
C409 H404 0.950 . S
C409 C411 1.327 . S
C409 C415 1.429 . S
C410 C402 1.574 . S
C410 H405 0.949 . S
C410 C416 1.368 . S
C411 C395 1.349 . S
C411 H403 0.950 . S
C411 C409 1.327 . S
C412 C400 1.349 . S
C412 H406 0.950 . S
C412 C413 1.327 . S
C413 H407 0.950 . S
C413 C412 1.327 . S
C413 C417 1.429 . S
C414 C397 1.574 . S
C414 H408 0.949 . S
C414 C418 1.368 . S
C415 C396 1.429 . S
C415 C409 1.429 . S
C415 C416 1.523 . S
C416 C397 1.368 . S
C416 C410 1.368 . S
C416 C415 1.523 . S
C417 C401 1.429 . S
C417 C413 1.429 . S
C417 C418 1.523 . S
C418 C402 1.368 . S
C418 C414 1.368 . S
C418 C417 1.523 . S
H419 C394 0.950 . S
H420 C396 0.950 . S
H421 C397 0.949 . S
H422 C399 0.950 . S
H423 C401 0.950 . S
C424 C425 1.349 . S
C424 C426 1.327 . S
C424 H449 0.950 . S
C425 C424 1.349 . S
C425 C441 1.349 . S
C426 C424 1.327 . S
C426 C445 1.429 . S
C426 H450 0.950 . S
C427 C444 1.574 . S
C427 C446 1.368 . S
C427 H451 0.949 . S
H428 C432 0.949 . S
C429 C430 1.349 . S
C429 C431 1.327 . S
C429 H452 0.950 . S
C430 C429 1.349 . S
C430 C442 1.349 . S
C431 C429 1.327 . S
C431 C447 1.429 . S
C431 H453 0.950 . S
C432 H428 0.949 . S
C432 C440 1.574 . S
C432 C448 1.368 . S
H433 C441 0.950 . S
H434 C439 0.950 . S
H435 C440 0.949 . S
H436 C442 0.950 . S
H437 C443 0.950 . S
H438 C444 0.949 . S
C439 H434 0.950 . S
C439 C441 1.327 . S
C439 C445 1.429 . S
C440 C432 1.574 . S
C440 H435 0.949 . S
C440 C446 1.368 . S
C441 C425 1.349 . S
C441 H433 0.950 . S
C441 C439 1.327 . S
C442 C430 1.349 . S
C442 H436 0.950 . S
C442 C443 1.327 . S
C443 H437 0.950 . S
C443 C442 1.327 . S
C443 C447 1.429 . S
C444 C427 1.574 . S
C444 H438 0.949 . S
C444 C448 1.368 . S
C445 C426 1.429 . S
C445 C439 1.429 . S
C445 C446 1.523 . S
C446 C427 1.368 . S
C446 C440 1.368 . S
C446 C445 1.523 . S
C447 C431 1.429 . S
C447 C443 1.429 . S
C447 C448 1.523 . S
C448 C432 1.368 . S
C448 C444 1.368 . S
C448 C447 1.523 . S
H449 C424 0.950 . S
H450 C426 0.950 . S
H451 C427 0.949 . S
H452 C429 0.950 . S
H453 C431 0.950 . S
C100 N83 1.149 . S
C95 C3 1.038 . S
C125 C4 1.431 1_556 S
C130 N70 1.509 . S
C155 C19 1.581 . S
C160 N82 1.711 . S
C185 C7 1.154 . S
C190 N69 1.307 . S
C215 C37 1.039 . S
C220 N57 1.149 . S
C245 C28 1.431 . S
C250 N44 1.509 1_655 S
C280 N56 1.711 . S
C275 C41 1.581 . S
C310 N43 1.307 1_565 S
C305 C25 1.154 . S
C335 C20 1.338 . S
C340 N47 1.489 . S
C365 C16 1.354 . S
C370 N60 1.473 . S
C400 N73 1.489 . S
C395 C40 1.338 . S
C425 C24 1.354 . S
C430 N86 1.474 . S
