# Generated by pormake.
# Topology sit, (3,6)-cn, num edge types: 1
# Building blocks:
#     Node 0, Type 0, BuildingBlock: ESEHIV_clean_linker_0, # of connection points: 3
#     Node 1, Type 0, BuildingBlock: ESEHIV_clean_linker_0, # of connection points: 3
#     Node 2, Type 0, BuildingBlock: ESEHIV_clean_linker_0, # of connection points: 3
#     Node 3, Type 0, BuildingBlock: ESEHIV_clean_linker_0, # of connection points: 3
#     Node 4, Type 1, BuildingBlock: MIDCAF_clean_sbu_0, # of connection points: 6
#     Node 5, Type 1, BuildingBlock: MIDCAF_clean_sbu_0, # of connection points: 6
#     Edge 6, Type (0, 1), BuildingBlock: XUDNAN_clean_linker_2, # of connection points: 2
#     Edge 7, Type (0, 1), BuildingBlock: XUDNAN_clean_linker_2, # of connection points: 2
#     Edge 8, Type (0, 1), BuildingBlock: XUDNAN_clean_linker_2, # of connection points: 2
#     Edge 9, Type (0, 1), BuildingBlock: XUDNAN_clean_linker_2, # of connection points: 2
#     Edge 10, Type (0, 1), BuildingBlock: XUDNAN_clean_linker_2, # of connection points: 2
#     Edge 11, Type (0, 1), BuildingBlock: XUDNAN_clean_linker_2, # of connection points: 2
#     Edge 12, Type (0, 1), BuildingBlock: XUDNAN_clean_linker_2, # of connection points: 2
#     Edge 13, Type (0, 1), BuildingBlock: XUDNAN_clean_linker_2, # of connection points: 2
#     Edge 14, Type (0, 1), BuildingBlock: XUDNAN_clean_linker_2, # of connection points: 2
#     Edge 15, Type (0, 1), BuildingBlock: XUDNAN_clean_linker_2, # of connection points: 2
#     Edge 16, Type (0, 1), BuildingBlock: XUDNAN_clean_linker_2, # of connection points: 2
#     Edge 17, Type (0, 1), BuildingBlock: XUDNAN_clean_linker_2, # of connection points: 2
# Relax obj value: 0.110
# Max RMSD: 0.193
# Mean RMSD: 0.106
data_MOF--net-sit--node1-MIDCAF_clean_sbu_0--node2-ESEHIV_clean_linker_0--edge1-XUDNAN_clean_linker_2
_symmetry_space_group_name_H-M    P1
_symmetry_Int_Tables_number       1
_symmetry_cell_setting            triclinic
loop_
_symmetry_equiv_pos_as_xyz
'x, y, z'
_cell_length_a     22.461201
_cell_length_b     29.014749
_cell_length_c     33.821427
_cell_angle_alpha  90.606687
_cell_angle_beta   89.375755
_cell_angle_gamma 82.71656
loop_
_atom_site_label
_atom_site_type_symbol
_atom_site_fract_x
_atom_site_fract_y
_atom_site_fract_z
_atom_type_partial_charge
H0 H 0.05257 0.41317 -0.0021 0.0
H1 H 0.14895 0.29374 0.053 0.0
H2 H 0.95578 0.31215 0.05326 0.0
C3 C 0.05275 0.38059 0.01332 0.0
C4 C -0.00199 0.3652 0.02355 0.0
C5 C 0.10745 0.35526 0.02391 0.0
C6 C 0.1069 0.31396 0.04516 0.0
C7 C 0.05245 0.29813 0.05594 0.0
C8 C -0.00197 0.32392 0.04492 0.0
H9 H 0.94665 0.67432 0.97341 0.0
H10 H 0.89274 0.79712 0.04311 0.0
H11 H 0.08051 0.75269 0.0197 0.0
C12 C 0.9584 0.70334 -0.00921 0.0
C13 C 0.0189 0.70995 -0.00599 0.0
C14 C 0.91269 0.73455 0.00828 0.0
C15 C 0.9281 0.77258 0.03012 0.0
C16 C -0.01137 0.77932 0.03495 0.0
C17 C 0.03382 0.74769 0.01669 0.0
H18 H 0.61719 0.87586 0.47573 0.0
H19 H 0.68967 0.75047 0.53445 0.0
H20 H 0.50047 0.79866 0.54213 0.0
C21 C 0.61121 0.84677 0.4946 0.0
C22 C 0.55349 0.84141 0.50839 0.0
C23 C 0.66078 0.81438 0.50404 0.0
C24 C 0.65182 0.77592 0.52734 0.0
C25 C 0.59404 0.76974 0.54098 0.0
C26 C 0.54523 0.80304 0.53176 0.0
H27 H 0.52325 0.13392 0.49472 0.0
H28 H 0.43069 0.256 0.55203 0.0
H29 H 0.62396 0.23312 0.54874 0.0
C30 C 0.52398 0.16665 0.51036 0.0
C31 C 0.57935 0.18075 0.52007 0.0
C32 C 0.46998 0.19353 0.52162 0.0
C33 C 0.47213 0.23513 0.54304 0.0
C34 C 0.52744 0.24963 0.55343 0.0
C35 C 0.58094 0.22206 0.54172 0.0
Zn36 Zn 0.0264 0.09258 0.35246 0.0
Zn37 Zn 0.11735 0.92712 0.32862 0.0
Zn38 Zn 0.0648 1.01053 0.34359 0.0
C39 C 0.08318 0.96048 0.25619 0.0
C40 C 0.01071 0.92183 0.37496 0.0
O41 O 0.12895 0.04465 0.37936 0.0
O42 O 0.0712 0.10772 0.40009 0.0
C43 C 0.05655 0.08687 0.27524 0.0
O44 O 0.06429 0.99591 0.2784 0.0
O45 O 0.11039 0.92416 0.27092 0.0
O46 O 0.05653 0.8979 0.35993 0.0
O47 O 0.00395 0.96641 0.37184 0.0
O48 O 0.05188 0.11764 0.30205 0.0
O49 O 0.05558 0.04396 0.2844 0.0
O50 O -0.02031 1.01571 0.37785 0.0
O51 O 0.94067 0.08603 0.36015 0.0
C52 C 0.93549 0.04871 0.37784 0.0
O53 O 0.15429 0.99852 0.3724 0.0
O54 O 0.19726 0.92976 0.35127 0.0
C55 C 0.12022 0.08135 0.40152 0.0
C56 C 0.19938 0.96621 0.37153 0.0
Zn57 Zn 0.47485 0.61797 0.83399 0.0
Zn58 Zn 0.56048 0.4526 0.85476 0.0
Zn59 Zn 0.52058 0.53552 0.84678 0.0
C60 C 0.54476 0.45813 0.7762 0.0
C61 C 0.45779 0.46493 0.89993 0.0
O62 O 0.57706 0.58013 0.88034 0.0
O63 O 0.52094 0.64777 0.87389 0.0
C64 C 0.52098 0.58735 0.76225 0.0
O65 O 0.53595 0.50136 0.78695 0.0
O66 O 0.55235 0.42688 0.80189 0.0
O67 O 0.50551 0.43697 0.89759 0.0
O68 O 0.45232 0.50263 0.87982 0.0
O69 O 0.4995 0.62489 0.77891 0.0
O70 O 0.52885 0.54926 0.78197 0.0
O71 O 0.42614 0.54642 0.86939 0.0
O72 O 0.3895 0.61452 0.8451 0.0
C73 C 0.38188 0.57846 0.86392 0.0
O74 O 0.60195 0.53125 0.88443 0.0
O75 O 0.64233 0.45948 0.87003 0.0
C76 C 0.56632 0.62405 0.88837 0.0
C77 C 0.64555 0.49791 0.88692 0.0
H78 H 0.11702 0.27727 0.12233 0.0
H79 H -0.01285 0.22481 0.04554 0.0
H80 H -0.01473 0.15663 0.08898 0.0
H81 H 0.19835 0.1637 0.15095 0.0
H82 H 0.20755 0.1835 0.20095 0.0
H83 H 0.20468 0.22406 0.1608 0.0
H84 H 0.11676 0.27595 0.19588 0.0
H85 H 0.11971 0.23583 0.2361 0.0
H86 H 0.05041 0.25084 0.21014 0.0
H87 H -0.00711 0.09678 0.14444 0.0
H88 H 0.00012 0.05755 0.20949 0.0
H89 H 0.12235 0.15194 0.24923 0.0
C90 C 0.08935 0.25082 0.11408 0.0
C91 C 0.05281 0.25593 0.08039 0.0
C92 C 0.0156 0.22142 0.07127 0.0
C93 C 0.01468 0.18243 0.09554 0.0
C94 C 0.05118 0.1786 0.12879 0.0
C95 C 0.08754 0.21217 0.13807 0.0
C96 C 0.1176 0.20309 0.17743 0.0
C97 C 0.18611 0.19298 0.1722 0.0
C98 C 0.10002 0.24382 0.20659 0.0
C99 C 0.09103 0.16005 0.18964 0.0
C100 C 0.05402 0.14549 0.16091 0.0
C101 C 0.02227 0.10764 0.16691 0.0
C102 C 0.02686 0.08536 0.20376 0.0
C103 C 0.06191 0.10181 0.23404 0.0
C104 C 0.09556 0.1386 0.22634 0.0
H105 H 0.93403 0.81484 0.10359 0.0
H106 H 0.07944 0.83363 0.02212 0.0
H107 H 0.10915 0.89537 0.06569 0.0
H108 H 0.89837 0.94065 0.13289 0.0
H109 H 0.88168 0.92564 0.18303 0.0
H110 H 0.86717 0.8876 0.14272 0.0
H111 H 0.93288 0.81907 0.1759 0.0
H112 H 0.94689 0.85668 0.21626 0.0
H113 H 0.00902 0.82556 0.18896 0.0
H114 H 0.13244 0.94568 0.12335 0.0
H115 H 0.14796 0.97726 0.19036 0.0
H116 H -0.01741 0.9308 0.23073 0.0
C117 C 0.97088 0.8329 0.09405 0.0
C118 C 0.00427 0.81915 0.0593 0.0
C119 C 0.05352 0.84288 0.04885 0.0
C120 C 0.07025 0.87854 0.07314 0.0
C121 C 0.03662 0.89081 0.1074 0.0
C122 C -0.01242 0.86888 0.11759 0.0
C123 C 0.96211 0.88517 0.15764 0.0
C124 C 0.89856 0.91133 0.15382 0.0
C125 C 0.96284 0.8442 0.18636 0.0
C126 C 0.00638 0.91786 0.16945 0.0
C127 C 0.04855 0.92139 0.13985 0.0
C128 C 0.09859 0.94452 0.1462 0.0
C129 C 0.10696 0.96264 0.18416 0.0
C130 C 0.06519 0.95779 0.21486 0.0
C131 C 0.01341 0.93677 0.207 0.0
H132 H 0.6591 0.73316 0.60387 0.0
H133 H 0.50563 0.71387 0.53172 0.0
H134 H 0.48287 0.6501 0.57482 0.0
H135 H 0.69931 0.60668 0.63117 0.0
H136 H 0.71921 0.62247 0.68053 0.0
H137 H 0.73045 0.66014 0.63978 0.0
H138 H 0.66642 0.72869 0.67619 0.0
H139 H 0.65567 0.69144 0.71697 0.0
H140 H 0.59147 0.72183 0.69269 0.0
H141 H 0.46555 0.60009 0.63175 0.0
H142 H 0.45324 0.57066 0.69912 0.0
H143 H 0.62046 0.61777 0.73323 0.0
C144 C 0.62195 0.71441 0.59642 0.0
C145 C 0.5842 0.72835 0.56446 0.0
C146 C 0.53489 0.70394 0.55627 0.0
C147 C 0.52204 0.66731 0.5803 0.0
C148 C 0.55931 0.65507 0.61219 0.0
C149 C 0.6085 0.67776 0.62018 0.0
C150 C 0.63679 0.66209 0.65902 0.0
C151 C 0.70021 0.6363 0.6522 0.0
C152 C 0.63756 0.70346 0.6879 0.0
C153 C 0.5938 0.62913 0.67274 0.0
C154 C 0.55021 0.62466 0.64485 0.0
C155 C 0.50076 0.60156 0.65314 0.0
C156 C 0.49446 0.58425 0.69132 0.0
C157 C 0.5378 0.5895 0.72039 0.0
C158 C 0.58874 0.61103 0.71063 0.0
H159 H 0.60263 0.26191 0.61466 0.0
H160 H 0.45524 0.33365 0.54842 0.0
H161 H 0.45277 0.40144 0.59359 0.0
H162 H 0.54994 0.2958 0.70681 0.0
H163 H 0.62198 0.30239 0.72759 0.0
H164 H 0.61723 0.26284 0.68688 0.0
H165 H 0.69227 0.30509 0.64642 0.0
H166 H 0.69719 0.34497 0.68716 0.0
H167 H 0.67652 0.36683 0.63887 0.0
H168 H 0.45804 0.45703 0.65166 0.0
H169 H 0.46943 0.49292 0.71762 0.0
H170 H 0.61652 0.38647 0.74261 0.0
C171 C 0.57106 0.29238 0.60876 0.0
C172 C 0.52926 0.29239 0.57789 0.0
C173 C 0.4874 0.33258 0.57211 0.0
C174 C 0.48606 0.37147 0.59737 0.0
C175 C 0.52736 0.36992 0.62796 0.0
C176 C 0.56937 0.33143 0.63347 0.0
C177 C 0.60535 0.33641 0.67041 0.0
C178 C 0.59813 0.29705 0.69963 0.0
C179 C 0.67177 0.33846 0.66008 0.0
C180 C 0.5754 0.38281 0.68582 0.0
C181 C 0.53117 0.40218 0.66071 0.0
C182 C 0.49377 0.44289 0.67093 0.0
C183 C 0.50093 0.46351 0.70814 0.0
C184 C 0.54496 0.44332 0.73441 0.0
C185 C 0.58335 0.40316 0.72259 0.0
H186 H 0.13685 0.39479 0.95411 0.0
H187 H 0.20788 0.35483 0.06943 0.0
H188 H 0.30328 0.38355 0.05144 0.0
H189 H 0.27186 0.3631 0.89977 0.0
H190 H 0.25986 0.41103 0.8661 0.0
H191 H 0.19661 0.3885 0.88845 0.0
H192 H 0.15701 0.47059 0.91632 0.0
H193 H 0.21995 0.49262 0.89311 0.0
H194 H 0.20609 0.50156 0.9454 0.0
H195 H 0.39251 0.41132 0.01953 0.0
H196 H 0.47003 0.43771 0.9758 0.0
H197 H 0.33887 0.46554 0.88325 0.0
C198 C 0.17208 0.39273 0.97586 0.0
C199 C 0.16487 0.37253 0.01321 0.0
C200 C 0.21263 0.36955 0.04045 0.0
C201 C 0.26675 0.38619 0.03066 0.0
C202 C 0.27216 0.40603 -0.00632 0.0
C203 C 0.22613 0.40949 0.96673 0.0
C204 C 0.24428 0.43077 0.92844 0.0
C205 C 0.24309 0.39628 0.89365 0.0
C206 C 0.20443 0.47665 0.9204 0.0
C207 C 0.30782 0.43882 0.93807 0.0
C208 C 0.32307 0.42395 0.9758 0.0
C209 C 0.38086 0.42389 -0.00975 0.0
C210 C 0.42448 0.43882 0.96529 0.0
C211 C 0.40974 0.45423 0.92668 0.0
C212 C 0.35053 0.45504 0.91311 0.0
H213 H 0.86216 0.65342 0.00769 0.0
H214 H 0.82027 0.8019 -0.00986 0.0
H215 H 0.72001 0.78993 0.9661 0.0
H216 H 0.80638 0.62106 0.92122 0.0
H217 H 0.77524 0.57061 0.93818 0.0
H218 H 0.8376 0.58976 0.96357 0.0
H219 H 0.77927 0.59474 0.02908 0.0
H220 H 0.71417 0.57634 0.00595 0.0
H221 H 0.70741 0.63013 0.03336 0.0
H222 H 0.63159 0.76091 0.9347 0.0
H223 H 0.56149 0.71788 0.8987 0.0
H224 H 0.66338 0.58787 0.93273 0.0
C225 C 0.83143 0.68357 -0.00039 0.0
C226 C 0.84906 0.72861 0.00088 0.0
C227 C 0.80747 0.76715 -0.00988 0.0
C228 C 0.75047 0.76066 0.97625 0.0
C229 C 0.73573 0.71549 0.97356 0.0
C230 C 0.77484 0.67765 0.98528 0.0
C231 C 0.75121 0.63243 0.97526 0.0
C232 C 0.79528 0.60169 0.94794 0.0
C233 C 0.73725 0.60688 0.01316 0.0
C234 C 0.69424 0.65056 0.954 0.0
C235 C 0.6854 0.69857 0.9543 0.0
C236 C 0.63761 0.72331 0.93482 0.0
C237 C 0.59811 0.69835 0.91428 0.0
C238 C 0.60696 0.64898 0.91272 0.0
C239 C 0.65536 0.62511 0.93334 0.0
H240 H 0.96984 0.39954 0.95057 0.0
H241 H 0.89819 0.39242 0.06958 0.0
H242 H 0.80364 0.43892 0.04903 0.0
H243 H 0.89784 0.51779 0.92821 0.0
H244 H 0.8833 0.5028 0.87769 0.0
H245 H 0.94794 0.47376 0.90248 0.0
H246 H 0.91353 0.39357 0.88752 0.0
H247 H 0.8498 0.42194 0.86178 0.0
H248 H 0.83884 0.38326 0.90184 0.0
H249 H 0.71471 0.4804 0.01412 0.0
H250 H 0.63497 0.50615 0.96636 0.0
H251 H 0.76451 0.48434 0.87022 0.0
C252 C 0.93459 0.40853 0.97245 0.0
C253 C 0.9412 0.39279 0.01168 0.0
C254 C 0.89372 0.40411 0.03933 0.0
C255 C 0.84028 0.43091 0.02803 0.0
C256 C 0.83528 0.44602 -0.01095 0.0
C257 C 0.88106 0.43489 0.96163 0.0
C258 C 0.86248 0.45118 0.92073 0.0
C259 C 0.90013 0.48861 0.90644 0.0
C260 C 0.86636 0.41004 0.89126 0.0
C261 C 0.79821 0.47161 0.92904 0.0
C262 C 0.78381 0.46947 0.9688 0.0
C263 C 0.72576 0.4832 0.98309 0.0
C264 C 0.68094 0.49825 0.95591 0.0
C265 C 0.69447 0.4988 0.91501 0.0
C266 C 0.75391 0.48609 0.90157 0.0
H267 H 0.13366 0.67504 0.01704 0.0
H268 H 0.01025 0.6759 0.91896 0.0
H269 H 0.08629 0.62612 0.88019 0.0
H270 H 0.25816 0.68892 0.95915 0.0
H271 H 0.3116 0.65256 -0.01174 0.0
H272 H 0.24396 0.68104 0.01105 0.0
H273 H 0.21924 0.60151 0.03528 0.0
H274 H 0.28549 0.57188 0.01114 0.0
H275 H 0.21269 0.55545 0.00014 0.0
H276 H 0.17779 0.58809 0.848 0.0
H277 H 0.28186 0.56756 0.82358 0.0
H278 H 0.34844 0.58941 0.94097 0.0
C279 C 0.1224 0.66421 -0.01238 0.0
C280 C 0.06534 0.67876 0.97148 0.0
C281 C 0.05278 0.66417 0.93262 0.0
C282 C 0.09578 0.63582 0.91024 0.0
C283 C 0.15144 0.62219 0.92692 0.0
C284 C 0.16512 0.63592 0.96466 0.0
C285 C 0.23073 0.62104 0.97358 0.0
C286 C 0.26299 0.66341 0.98357 0.0
C287 C 0.23742 0.58533 0.007 0.0
C288 C 0.25222 0.59889 0.93428 0.0
C289 C 0.20531 0.59922 0.90807 0.0
C290 C 0.2147 0.58635 0.86845 0.0
C291 C 0.27375 0.57448 0.85485 0.0
C292 C 0.3223 0.57556 0.88081 0.0
C293 C 0.3115 0.58633 0.9212 0.0
H294 H 0.71265 0.89474 0.49874 0.0
H295 H 0.74439 0.74704 0.47159 0.0
H296 H 0.84058 0.7579 0.43909 0.0
H297 H 0.76354 0.93191 0.40879 0.0
H298 H 0.79962 0.97915 0.42789 0.0
H299 H 0.73676 0.96101 0.45418 0.0
H300 H 0.79804 0.94837 0.51722 0.0
H301 H 0.86333 0.96613 0.49328 0.0
H302 H 0.86812 0.91038 0.51648 0.0
H303 H 0.92925 0.78593 0.40531 0.0
H304 H 0.00476 0.82835 0.37366 0.0
H305 H 0.91408 0.9579 0.42159 0.0
C306 C 0.74002 0.86458 0.48623 0.0
C307 C 0.72106 0.82 0.48779 0.0
C308 C 0.75841 0.7814 0.4713 0.0
C309 C 0.81295 0.78727 0.45259 0.0
C310 C 0.82954 0.83189 0.45081 0.0
C311 C 0.79437 0.86981 0.46742 0.0
C312 C 0.82095 0.91433 0.45993 0.0
C313 C 0.77757 0.9486 0.43631 0.0
C314 C 0.8386 0.9361 0.49905 0.0
C315 C 0.87581 0.89581 0.43552 0.0
C316 C 0.88026 0.84811 0.43099 0.0
C317 C 0.92643 0.82325 0.40893 0.0
C318 C 0.96912 0.84781 0.39103 0.0
C319 C 0.9653 0.89689 0.39498 0.0
C320 C 0.91803 0.92085 0.41774 0.0
H321 H 0.4411 0.15028 0.453 0.0
H322 H 0.3669 0.19992 0.56712 0.0
H323 H 0.27069 0.17262 0.55002 0.0
H324 H 0.31042 0.17866 0.39651 0.0
H325 H 0.32286 0.12711 0.36578 0.0
H326 H 0.38566 0.15064 0.38723 0.0
H327 H 0.42002 0.07117 0.41843 0.0
H328 H 0.35631 0.04707 0.39869 0.0
H329 H 0.37004 0.04557 0.45116 0.0
H330 H 0.18123 0.14422 0.51901 0.0
H331 H 0.10486 0.11519 0.47645 0.0
H332 H 0.23993 0.07797 0.38522 0.0
C333 C 0.40503 0.15489 0.47474 0.0
C334 C 0.41171 0.17746 0.51142 0.0
C335 C 0.36272 0.18355 0.53855 0.0
C336 C 0.30806 0.1677 0.52929 0.0
C337 C 0.30336 0.14532 0.49303 0.0
C338 C 0.35058 0.13872 0.46625 0.0
C339 C 0.33373 0.11403 0.42914 0.0
C340 C 0.33843 0.14444 0.39252 0.0
C341 C 0.37229 0.06662 0.42405 0.0
C342 C 0.26915 0.10855 0.43891 0.0
C343 C 0.25253 0.12689 0.47591 0.0
C344 C 0.19391 0.12905 0.49029 0.0
C345 C 0.15093 0.11262 0.46598 0.0
C346 C 0.1671 0.09382 0.42805 0.0
C347 C 0.22703 0.09117 0.41457 0.0
H348 H 0.52431 0.86629 0.43325 0.0
H349 H 0.46387 0.88763 0.55488 0.0
H350 H 0.37216 0.93642 0.53232 0.0
H351 H 0.45816 0.98193 0.39471 0.0
H352 H 0.43712 0.95662 0.34885 0.0
H353 H 0.50308 0.93117 0.37443 0.0
H354 H 0.46253 0.85162 0.37584 0.0
H355 H 0.39715 0.87609 0.34967 0.0
H356 H 0.38885 0.84803 0.39636 0.0
H357 H 0.28234 0.9753 0.49589 0.0
H358 H 0.19821 0.99182 0.44933 0.0
H359 H 0.31629 0.94149 0.35193 0.0
C360 C 0.49262 0.88253 0.45515 0.0
C361 C 0.50125 0.87394 0.49575 0.0
C362 C 0.45797 0.8942 0.52361 0.0
C363 C 0.40615 0.92222 0.51108 0.0
C364 C 0.39842 0.92942 0.47063 0.0
C365 C 0.44049 0.90992 0.44309 0.0
C366 C 0.41819 0.91721 0.40133 0.0
C367 C 0.4564 0.94861 0.37848 0.0
C368 C 0.41655 0.87047 0.37956 0.0
C369 C 0.35579 0.94174 0.40962 0.0
C370 C 0.34579 0.94992 0.44965 0.0
C371 C 0.28995 0.96958 0.46447 0.0
C372 C 0.24257 0.9792 0.43785 0.0
C373 C 0.25137 0.96836 0.39718 0.0
C374 C 0.30898 0.95074 0.38287 0.0
H375 H 0.60888 0.15002 0.44529 0.0
H376 H 0.67605 0.14851 0.56497 0.0
H377 H 0.7705 0.10194 0.54206 0.0
H378 H 0.68058 0.03293 0.41457 0.0
H379 H 0.69749 0.05163 0.36553 0.0
H380 H 0.63206 0.07919 0.39189 0.0
H381 H 0.6684 0.15977 0.38329 0.0
H382 H 0.73321 0.13285 0.35631 0.0
H383 H 0.74255 0.16833 0.39933 0.0
H384 H 0.85976 0.06129 0.50533 0.0
H385 H 0.94121 0.03701 0.45684 0.0
H386 H 0.81712 0.0683 0.36088 0.0
C387 C 0.64312 0.13903 0.46673 0.0
C388 C 0.63539 0.15229 0.50688 0.0
C389 C 0.68147 0.13852 0.53407 0.0
C390 C 0.73481 0.11176 0.52139 0.0
C391 C 0.74118 0.09934 0.48146 0.0
C392 C 0.69675 0.11288 0.45449 0.0
C393 C 0.7171 0.09952 0.41267 0.0
C394 C 0.67958 0.06368 0.39514 0.0
C395 C 0.71523 0.14268 0.38638 0.0
C396 C 0.78079 0.07794 0.42011 0.0
C397 C 0.79327 0.07696 0.46008 0.0
C398 C 0.85023 0.06108 0.47403 0.0
C399 C 0.89602 0.04695 0.44638 0.0
C400 C 0.88458 0.04944 0.40539 0.0
C401 C 0.82616 0.06451 0.39216 0.0
loop_
_geom_bond_atom_site_label_1
_geom_bond_atom_site_label_2
_geom_bond_distance
_geom_bond_site_symmetry_2
_ccdc_geom_bond_type
H0 C3 0.931 . S
H1 C6 0.928 . S
H2 C8 0.930 . S
C3 H0 0.931 . S
C3 C4 1.413 1_556 S
C3 C5 1.360 1_556 S
C4 C3 1.413 1_554 S
C4 C8 1.429 . S
C5 C3 1.360 1_554 S
C5 C6 1.372 . S
C6 H1 0.928 . S
C6 C5 1.372 . S
C6 C7 1.404 . S
C7 C6 1.404 . S
C7 C8 1.391 . S
C8 H2 0.930 . S
C8 C4 1.429 . S
C8 C7 1.391 . S
H9 C12 0.931 . S
H10 C15 0.928 . S
H11 C17 0.930 . S
C12 H9 0.931 . S
C12 C13 1.413 1_556 S
C12 C14 1.360 1_456 S
C13 C12 1.413 1_554 S
C13 C17 1.429 . S
C14 C12 1.360 1_654 S
C14 C15 1.372 . S
C15 H10 0.928 . S
C15 C14 1.372 . S
C15 C16 1.404 1_655 S
C16 C15 1.404 1_455 S
C16 C17 1.391 . S
C17 H11 0.930 . S
C17 C13 1.429 . S
C17 C16 1.391 . S
H18 C21 0.931 . S
H19 C24 0.928 . S
H20 C26 0.930 . S
C21 H18 0.931 . S
C21 C22 1.413 . S
C21 C23 1.360 . S
C22 C21 1.413 . S
C22 C26 1.429 . S
C23 C21 1.360 . S
C23 C24 1.372 . S
C24 H19 0.928 . S
C24 C23 1.372 . S
C24 C25 1.404 . S
C25 C24 1.404 . S
C25 C26 1.391 . S
C26 H20 0.930 . S
C26 C22 1.429 . S
C26 C25 1.391 . S
H27 C30 0.931 . S
H28 C33 0.928 . S
H29 C35 0.930 . S
C30 H27 0.931 . S
C30 C31 1.413 . S
C30 C32 1.360 . S
C31 C30 1.413 . S
C31 C35 1.429 . S
C32 C30 1.360 . S
C32 C33 1.372 . S
C33 H28 0.928 . S
C33 C32 1.372 . S
C33 C34 1.404 . S
C34 C33 1.404 . S
C34 C35 1.391 . S
C35 H29 0.930 . S
C35 C31 1.429 . S
C35 C34 1.391 . S
Zn36 O42 1.920 . S
Zn36 O48 1.898 . S
Zn36 O51 1.905 1_455 S
Zn37 O45 1.905 . S
Zn37 O46 1.898 . S
Zn37 O54 1.920 . S
Zn38 O41 2.080 . S
Zn38 O44 2.114 1_545 S
Zn38 O47 2.120 1_545 S
Zn38 O49 2.120 . S
Zn38 O50 2.114 1_455 S
Zn38 O53 2.080 1_545 S
C39 O44 1.166 . S
C39 O45 1.182 . S
C40 O46 1.169 . S
C40 O47 1.310 . S
O41 Zn38 2.080 . S
O41 C55 1.305 . S
O42 Zn36 1.920 . S
O42 C55 1.234 . S
C43 O48 1.167 . S
C43 O49 1.299 . S
O44 Zn38 2.114 1_565 S
O44 C39 1.166 . S
O45 Zn37 1.905 . S
O45 C39 1.182 . S
O46 Zn37 1.898 . S
O46 C40 1.169 . S
O47 Zn38 2.120 1_565 S
O47 C40 1.310 . S
O48 Zn36 1.898 . S
O48 C43 1.167 . S
O49 Zn38 2.120 . S
O49 C43 1.299 . S
O50 Zn38 2.114 1_655 S
O50 C52 1.166 . S
O51 Zn36 1.905 1_655 S
O51 C52 1.182 . S
C52 O50 1.166 . S
C52 O51 1.182 . S
O53 Zn38 2.080 1_565 S
O53 C56 1.305 . S
O54 Zn37 1.920 . S
O54 C56 1.234 . S
C55 O41 1.305 . S
C55 O42 1.234 . S
C56 O53 1.305 . S
C56 O54 1.234 . S
Zn57 O63 1.920 . S
Zn57 O69 1.898 . S
Zn57 O72 1.905 . S
Zn58 O66 1.905 . S
Zn58 O67 1.898 . S
Zn58 O75 1.920 . S
Zn59 O62 2.080 . S
Zn59 O65 2.114 . S
Zn59 O68 2.120 . S
Zn59 O70 2.120 . S
Zn59 O71 2.114 . S
Zn59 O74 2.080 . S
C60 O65 1.166 . S
C60 O66 1.182 . S
C61 O67 1.167 . S
C61 O68 1.299 . S
O62 Zn59 2.080 . S
O62 C76 1.305 . S
O63 Zn57 1.920 . S
O63 C76 1.234 . S
C64 O69 1.167 . S
C64 O70 1.299 . S
O65 Zn59 2.114 . S
O65 C60 1.166 . S
O66 Zn58 1.905 . S
O66 C60 1.182 . S
O67 Zn58 1.898 . S
O67 C61 1.167 . S
O68 Zn59 2.120 . S
O68 C61 1.299 . S
O69 Zn57 1.898 . S
O69 C64 1.167 . S
O70 Zn59 2.120 . S
O70 C64 1.299 . S
O71 Zn59 2.114 . S
O71 C73 1.166 . S
O72 Zn57 1.905 . S
O72 C73 1.182 . S
C73 O71 1.166 . S
C73 O72 1.182 . S
O74 Zn59 2.080 . S
O74 C77 1.305 . S
O75 Zn58 1.920 . S
O75 C77 1.234 . S
C76 O62 1.305 . S
C76 O63 1.234 . S
C77 O74 1.305 . S
C77 O75 1.234 . S
H78 C90 0.930 . S
H79 C92 0.930 . S
H80 C93 0.930 . S
H81 C97 0.959 . S
H82 C97 0.959 . S
H83 C97 0.961 . S
H84 C98 0.960 . S
H85 C98 0.961 . S
H86 C98 0.959 . S
H87 C101 0.929 . S
H88 C102 0.931 . S
H89 C104 0.930 . S
C90 H78 0.930 . S
C90 C91 1.399 . S
C90 C95 1.399 . S
C91 C90 1.399 . S
C91 C92 1.376 . S
C92 H79 0.930 . S
C92 C91 1.376 . S
C92 C93 1.388 . S
C93 H80 0.930 . S
C93 C92 1.388 . S
C93 C94 1.390 . S
C94 C93 1.390 . S
C94 C95 1.394 . S
C94 C100 1.465 . S
C95 C90 1.399 . S
C95 C94 1.394 . S
C95 C96 1.516 . S
C96 C95 1.516 . S
C96 C97 1.502 . S
C96 C98 1.561 . S
C96 C99 1.526 . S
C97 H81 0.959 . S
C97 H82 0.959 . S
C97 H83 0.961 . S
C97 C96 1.502 . S
C98 H84 0.960 . S
C98 H85 0.961 . S
C98 H86 0.959 . S
C98 C96 1.561 . S
C99 C96 1.526 . S
C99 C100 1.396 . S
C99 C104 1.390 . S
C100 C94 1.465 . S
C100 C99 1.396 . S
C100 C101 1.399 . S
C101 H87 0.929 . S
C101 C100 1.399 . S
C101 C102 1.385 . S
C102 H88 0.931 . S
C102 C101 1.385 . S
C102 C103 1.389 . S
C103 C102 1.389 . S
C103 C104 1.387 . S
C104 H89 0.930 . S
C104 C99 1.390 . S
C104 C103 1.387 . S
H105 C117 0.930 . S
H106 C119 0.930 . S
H107 C120 0.930 . S
H108 C124 0.959 . S
H109 C124 0.959 . S
H110 C124 0.961 . S
H111 C125 0.960 . S
H112 C125 0.961 . S
H113 C125 0.959 . S
H114 C128 0.929 . S
H115 C129 0.931 . S
H116 C131 0.930 . S
C117 H105 0.930 . S
C117 C118 1.399 . S
C117 C122 1.399 . S
C118 C117 1.399 . S
C118 C119 1.376 . S
C119 H106 0.930 . S
C119 C118 1.376 . S
C119 C120 1.388 . S
C120 H107 0.930 . S
C120 C119 1.388 . S
C120 C121 1.390 . S
C121 C120 1.390 . S
C121 C122 1.394 . S
C121 C127 1.465 . S
C122 C117 1.399 . S
C122 C121 1.394 . S
C122 C123 1.516 . S
C123 C122 1.516 . S
C123 C124 1.502 1_455 S
C123 C125 1.561 . S
C123 C126 1.526 . S
C124 H108 0.959 . S
C124 H109 0.959 . S
C124 H110 0.961 . S
C124 C123 1.502 1_655 S
C125 H111 0.960 . S
C125 H112 0.961 . S
C125 H113 0.959 . S
C125 C123 1.561 . S
C126 C123 1.526 . S
C126 C127 1.396 . S
C126 C131 1.390 . S
C127 C121 1.465 . S
C127 C126 1.396 . S
C127 C128 1.399 . S
C128 H114 0.929 . S
C128 C127 1.399 . S
C128 C129 1.385 . S
C129 H115 0.931 . S
C129 C128 1.385 . S
C129 C130 1.389 . S
C130 C129 1.389 . S
C130 C131 1.387 . S
C131 H116 0.930 . S
C131 C126 1.390 . S
C131 C130 1.387 . S
H132 C144 0.930 . S
H133 C146 0.930 . S
H134 C147 0.930 . S
H135 C151 0.959 . S
H136 C151 0.959 . S
H137 C151 0.961 . S
H138 C152 0.960 . S
H139 C152 0.961 . S
H140 C152 0.959 . S
H141 C155 0.929 . S
H142 C156 0.931 . S
H143 C158 0.930 . S
C144 H132 0.930 . S
C144 C145 1.399 . S
C144 C149 1.399 . S
C145 C144 1.399 . S
C145 C146 1.376 . S
C146 H133 0.930 . S
C146 C145 1.376 . S
C146 C147 1.388 . S
C147 H134 0.930 . S
C147 C146 1.388 . S
C147 C148 1.390 . S
C148 C147 1.390 . S
C148 C149 1.394 . S
C148 C154 1.465 . S
C149 C144 1.399 . S
C149 C148 1.394 . S
C149 C150 1.516 . S
C150 C149 1.516 . S
C150 C151 1.502 . S
C150 C152 1.561 . S
C150 C153 1.526 . S
C151 H135 0.959 . S
C151 H136 0.959 . S
C151 H137 0.961 . S
C151 C150 1.502 . S
C152 H138 0.960 . S
C152 H139 0.961 . S
C152 H140 0.959 . S
C152 C150 1.561 . S
C153 C150 1.526 . S
C153 C154 1.396 . S
C153 C158 1.390 . S
C154 C148 1.465 . S
C154 C153 1.396 . S
C154 C155 1.399 . S
C155 H141 0.929 . S
C155 C154 1.399 . S
C155 C156 1.385 . S
C156 H142 0.931 . S
C156 C155 1.385 . S
C156 C157 1.389 . S
C157 C156 1.389 . S
C157 C158 1.387 . S
C158 H143 0.930 . S
C158 C153 1.390 . S
C158 C157 1.387 . S
H159 C171 0.930 . S
H160 C173 0.930 . S
H161 C174 0.930 . S
H162 C178 0.959 . S
H163 C178 0.959 . S
H164 C178 0.961 . S
H165 C179 0.960 . S
H166 C179 0.961 . S
H167 C179 0.959 . S
H168 C182 0.929 . S
H169 C183 0.931 . S
H170 C185 0.930 . S
C171 H159 0.930 . S
C171 C172 1.399 . S
C171 C176 1.399 . S
C172 C171 1.399 . S
C172 C173 1.376 . S
C173 H160 0.930 . S
C173 C172 1.376 . S
C173 C174 1.388 . S
C174 H161 0.930 . S
C174 C173 1.388 . S
C174 C175 1.390 . S
C175 C174 1.390 . S
C175 C176 1.394 . S
C175 C181 1.465 . S
C176 C171 1.399 . S
C176 C175 1.394 . S
C176 C177 1.516 . S
C177 C176 1.516 . S
C177 C178 1.502 . S
C177 C179 1.561 . S
C177 C180 1.526 . S
C178 H162 0.959 . S
C178 H163 0.959 . S
C178 H164 0.961 . S
C178 C177 1.502 . S
C179 H165 0.960 . S
C179 H166 0.961 . S
C179 H167 0.959 . S
C179 C177 1.561 . S
C180 C177 1.526 . S
C180 C181 1.396 . S
C180 C185 1.390 . S
C181 C175 1.465 . S
C181 C180 1.396 . S
C181 C182 1.399 . S
C182 H168 0.929 . S
C182 C181 1.399 . S
C182 C183 1.385 . S
C183 H169 0.931 . S
C183 C182 1.385 . S
C183 C184 1.389 . S
C184 C183 1.389 . S
C184 C185 1.387 . S
C185 H170 0.930 . S
C185 C180 1.390 . S
C185 C184 1.387 . S
H186 C198 0.930 . S
H187 C200 0.930 . S
H188 C201 0.930 . S
H189 C205 0.959 . S
H190 C205 0.959 . S
H191 C205 0.961 . S
H192 C206 0.960 . S
H193 C206 0.961 . S
H194 C206 0.959 . S
H195 C209 0.929 . S
H196 C210 0.931 1_554 S
H197 C212 0.930 . S
C198 H186 0.930 . S
C198 C199 1.405 . S
C198 C203 1.399 . S
C199 C198 1.405 . S
C199 C200 1.371 1_556 S
C200 H187 0.930 . S
C200 C199 1.371 1_554 S
C200 C201 1.388 . S
C201 H188 0.930 . S
C201 C200 1.388 . S
C201 C202 1.390 1_554 S
C202 C201 1.390 1_556 S
C202 C203 1.394 . S
C202 C208 1.465 . S
C203 C198 1.399 . S
C203 C202 1.394 . S
C203 C204 1.516 . S
C204 C203 1.516 . S
C204 C205 1.502 . S
C204 C206 1.561 . S
C204 C207 1.526 . S
C205 H189 0.959 . S
C205 H190 0.959 . S
C205 H191 0.961 . S
C205 C204 1.502 . S
C206 H192 0.960 . S
C206 H193 0.961 . S
C206 H194 0.959 . S
C206 C204 1.561 . S
C207 C204 1.526 . S
C207 C208 1.396 . S
C207 C212 1.390 . S
C208 C202 1.465 . S
C208 C207 1.396 . S
C208 C209 1.399 1_556 S
C209 H195 0.929 . S
C209 C208 1.399 1_554 S
C209 C210 1.385 1_554 S
C210 H196 0.931 1_556 S
C210 C209 1.385 1_556 S
C210 C211 1.389 . S
C211 C210 1.389 . S
C211 C212 1.387 . S
C212 H197 0.930 . S
C212 C207 1.390 . S
C212 C211 1.387 . S
H213 C225 0.930 . S
H214 C227 0.930 . S
H215 C228 0.930 . S
H216 C232 0.959 1_556 S
H217 C232 0.959 . S
H218 C232 0.961 . S
H219 C233 0.960 . S
H220 C233 0.961 . S
H221 C233 0.959 . S
H222 C236 0.929 . S
H223 C237 0.931 . S
H224 C239 0.930 . S
C225 H213 0.930 . S
C225 C226 1.399 1_554 S
C225 C230 1.399 1_554 S
C226 C225 1.399 1_556 S
C226 C227 1.376 . S
C227 H214 0.930 . S
C227 C226 1.376 . S
C227 C228 1.388 . S
C228 H215 0.930 . S
C228 C227 1.388 . S
C228 C229 1.390 . S
C229 C228 1.390 . S
C229 C230 1.394 . S
C229 C235 1.465 . S
C230 C225 1.399 1_556 S
C230 C229 1.394 . S
C230 C231 1.516 1_556 S
C231 C230 1.516 1_554 S
C231 C232 1.502 . S
C231 C233 1.561 . S
C231 C234 1.526 1_554 S
C232 H216 0.959 1_554 S
C232 H217 0.959 . S
C232 H218 0.961 . S
C232 C231 1.502 . S
C233 H219 0.960 . S
C233 H220 0.961 . S
C233 H221 0.959 . S
C233 C231 1.561 . S
C234 C231 1.526 1_556 S
C234 C235 1.396 . S
C234 C239 1.390 . S
C235 C229 1.465 . S
C235 C234 1.396 . S
C235 C236 1.399 . S
C236 H222 0.929 . S
C236 C235 1.399 . S
C236 C237 1.385 . S
C237 H223 0.931 . S
C237 C236 1.385 . S
C237 C238 1.389 . S
C238 C237 1.389 . S
C238 C239 1.387 . S
C239 H224 0.930 . S
C239 C234 1.390 . S
C239 C238 1.387 . S
H240 C252 0.930 . S
H241 C254 0.930 . S
H242 C255 0.930 . S
H243 C259 0.959 . S
H244 C259 0.959 . S
H245 C259 0.961 . S
H246 C260 0.960 . S
H247 C260 0.961 . S
H248 C260 0.959 . S
H249 C263 0.929 . S
H250 C264 0.931 . S
H251 C266 0.930 . S
C252 H240 0.930 . S
C252 C253 1.399 1_655 S
C252 C257 1.399 . S
C253 C252 1.399 1_455 S
C253 C254 1.376 1_456 S
C254 H241 0.930 . S
C254 C253 1.376 1_654 S
C254 C255 1.388 . S
C255 H242 0.930 . S
C255 C254 1.388 . S
C255 C256 1.390 1_554 S
C256 C255 1.390 1_556 S
C256 C257 1.394 . S
C256 C262 1.465 . S
C257 C252 1.399 . S
C257 C256 1.394 . S
C257 C258 1.516 . S
C258 C257 1.516 . S
C258 C259 1.502 . S
C258 C260 1.561 . S
C258 C261 1.526 . S
C259 H243 0.959 . S
C259 H244 0.959 . S
C259 H245 0.961 . S
C259 C258 1.502 . S
C260 H246 0.960 . S
C260 H247 0.961 . S
C260 H248 0.959 . S
C260 C258 1.561 . S
C261 C258 1.526 . S
C261 C262 1.396 . S
C261 C266 1.390 . S
C262 C256 1.465 . S
C262 C261 1.396 . S
C262 C263 1.399 . S
C263 H249 0.929 . S
C263 C262 1.399 . S
C263 C264 1.385 . S
C264 H250 0.931 . S
C264 C263 1.385 . S
C264 C265 1.389 . S
C265 C264 1.389 . S
C265 C266 1.387 . S
C266 H251 0.930 . S
C266 C261 1.390 . S
C266 C265 1.387 . S
H267 C279 0.930 . S
H268 C281 0.930 . S
H269 C282 0.930 . S
H270 C286 0.959 1_556 S
H271 C286 0.959 . S
H272 C286 0.961 . S
H273 C287 0.960 . S
H274 C287 0.961 . S
H275 C287 0.959 . S
H276 C290 0.929 . S
H277 C291 0.931 . S
H278 C293 0.930 . S
C279 H267 0.930 . S
C279 C280 1.399 1_554 S
C279 C284 1.399 1_554 S
C280 C279 1.399 1_556 S
C280 C281 1.376 . S
C281 H268 0.930 . S
C281 C280 1.376 . S
C281 C282 1.388 . S
C282 H269 0.930 . S
C282 C281 1.388 . S
C282 C283 1.390 . S
C283 C282 1.390 . S
C283 C284 1.394 . S
C283 C289 1.465 . S
C284 C279 1.399 1_556 S
C284 C283 1.394 . S
C284 C285 1.516 . S
C285 C284 1.516 . S
C285 C286 1.502 1_556 S
C285 C287 1.561 1_556 S
C285 C288 1.526 . S
C286 H270 0.959 1_554 S
C286 H271 0.959 . S
C286 H272 0.961 . S
C286 C285 1.502 1_554 S
C287 H273 0.960 . S
C287 H274 0.961 . S
C287 H275 0.959 . S
C287 C285 1.561 1_554 S
C288 C285 1.526 . S
C288 C289 1.396 . S
C288 C293 1.390 . S
C289 C283 1.465 . S
C289 C288 1.396 . S
C289 C290 1.399 . S
C290 H276 0.929 . S
C290 C289 1.399 . S
C290 C291 1.385 . S
C291 H277 0.931 . S
C291 C290 1.385 . S
C291 C292 1.389 . S
C292 C291 1.389 . S
C292 C293 1.387 . S
C293 H278 0.930 . S
C293 C288 1.390 . S
C293 C292 1.387 . S
H294 C306 0.930 . S
H295 C308 0.930 . S
H296 C309 0.930 . S
H297 C313 0.959 . S
H298 C313 0.959 . S
H299 C313 0.961 . S
H300 C314 0.960 . S
H301 C314 0.961 . S
H302 C314 0.959 . S
H303 C317 0.929 . S
H304 C318 0.931 . S
H305 C320 0.930 . S
C306 H294 0.930 . S
C306 C307 1.399 . S
C306 C311 1.399 . S
C307 C306 1.399 . S
C307 C308 1.376 . S
C308 H295 0.930 . S
C308 C307 1.376 . S
C308 C309 1.388 . S
C309 H296 0.930 . S
C309 C308 1.388 . S
C309 C310 1.390 . S
C310 C309 1.390 . S
C310 C311 1.394 . S
C310 C316 1.465 . S
C311 C306 1.399 . S
C311 C310 1.394 . S
C311 C312 1.516 . S
C312 C311 1.516 . S
C312 C313 1.502 . S
C312 C314 1.561 . S
C312 C315 1.526 . S
C313 H297 0.959 . S
C313 H298 0.959 . S
C313 H299 0.961 . S
C313 C312 1.502 . S
C314 H300 0.960 . S
C314 H301 0.961 . S
C314 H302 0.959 . S
C314 C312 1.561 . S
C315 C312 1.526 . S
C315 C316 1.396 . S
C315 C320 1.390 . S
C316 C310 1.465 . S
C316 C315 1.396 . S
C316 C317 1.399 . S
C317 H303 0.929 . S
C317 C316 1.399 . S
C317 C318 1.385 . S
C318 H304 0.931 . S
C318 C317 1.385 . S
C318 C319 1.389 . S
C319 C318 1.389 . S
C319 C320 1.387 . S
C320 H305 0.930 . S
C320 C315 1.390 . S
C320 C319 1.387 . S
H321 C333 0.930 . S
H322 C335 0.930 . S
H323 C336 0.930 . S
H324 C340 0.959 . S
H325 C340 0.959 . S
H326 C340 0.961 . S
H327 C341 0.960 . S
H328 C341 0.961 . S
H329 C341 0.959 . S
H330 C344 0.929 . S
H331 C345 0.931 . S
H332 C347 0.930 . S
C333 H321 0.930 . S
C333 C334 1.399 . S
C333 C338 1.399 . S
C334 C333 1.399 . S
C334 C335 1.376 . S
C335 H322 0.930 . S
C335 C334 1.376 . S
C335 C336 1.388 . S
C336 H323 0.930 . S
C336 C335 1.388 . S
C336 C337 1.390 . S
C337 C336 1.390 . S
C337 C338 1.394 . S
C337 C343 1.465 . S
C338 C333 1.399 . S
C338 C337 1.394 . S
C338 C339 1.516 . S
C339 C338 1.516 . S
C339 C340 1.502 . S
C339 C341 1.561 . S
C339 C342 1.526 . S
C340 H324 0.959 . S
C340 H325 0.959 . S
C340 H326 0.961 . S
C340 C339 1.502 . S
C341 H327 0.960 . S
C341 H328 0.961 . S
C341 H329 0.959 . S
C341 C339 1.561 . S
C342 C339 1.526 . S
C342 C343 1.396 . S
C342 C347 1.390 . S
C343 C337 1.465 . S
C343 C342 1.396 . S
C343 C344 1.399 . S
C344 H330 0.929 . S
C344 C343 1.399 . S
C344 C345 1.385 . S
C345 H331 0.931 . S
C345 C344 1.385 . S
C345 C346 1.389 . S
C346 C345 1.389 . S
C346 C347 1.387 . S
C347 H332 0.930 . S
C347 C342 1.390 . S
C347 C346 1.387 . S
H348 C360 0.930 . S
H349 C362 0.930 . S
H350 C363 0.930 . S
H351 C367 0.959 . S
H352 C367 0.959 . S
H353 C367 0.961 . S
H354 C368 0.960 . S
H355 C368 0.961 . S
H356 C368 0.959 . S
H357 C371 0.929 . S
H358 C372 0.931 . S
H359 C374 0.930 . S
C360 H348 0.930 . S
C360 C361 1.399 . S
C360 C365 1.399 . S
C361 C360 1.399 . S
C361 C362 1.376 . S
C362 H349 0.930 . S
C362 C361 1.376 . S
C362 C363 1.388 . S
C363 H350 0.930 . S
C363 C362 1.388 . S
C363 C364 1.390 . S
C364 C363 1.390 . S
C364 C365 1.394 . S
C364 C370 1.465 . S
C365 C360 1.399 . S
C365 C364 1.394 . S
C365 C366 1.516 . S
C366 C365 1.516 . S
C366 C367 1.502 . S
C366 C368 1.561 . S
C366 C369 1.526 . S
C367 H351 0.959 . S
C367 H352 0.959 . S
C367 H353 0.961 . S
C367 C366 1.502 . S
C368 H354 0.960 . S
C368 H355 0.961 . S
C368 H356 0.959 . S
C368 C366 1.561 . S
C369 C366 1.526 . S
C369 C370 1.396 . S
C369 C374 1.390 . S
C370 C364 1.465 . S
C370 C369 1.396 . S
C370 C371 1.399 . S
C371 H357 0.929 . S
C371 C370 1.399 . S
C371 C372 1.385 . S
C372 H358 0.931 . S
C372 C371 1.385 . S
C372 C373 1.389 . S
C373 C372 1.389 . S
C373 C374 1.387 . S
C374 H359 0.930 . S
C374 C369 1.390 . S
C374 C373 1.387 . S
H375 C387 0.930 . S
H376 C389 0.930 . S
H377 C390 0.930 . S
H378 C394 0.959 . S
H379 C394 0.959 . S
H380 C394 0.961 . S
H381 C395 0.960 . S
H382 C395 0.961 . S
H383 C395 0.959 . S
H384 C398 0.929 . S
H385 C399 0.931 . S
H386 C401 0.930 . S
C387 H375 0.930 . S
C387 C388 1.399 . S
C387 C392 1.399 . S
C388 C387 1.399 . S
C388 C389 1.376 . S
C389 H376 0.930 . S
C389 C388 1.376 . S
C389 C390 1.388 . S
C390 H377 0.930 . S
C390 C389 1.388 . S
C390 C391 1.390 . S
C391 C390 1.390 . S
C391 C392 1.394 . S
C391 C397 1.465 . S
C392 C387 1.399 . S
C392 C391 1.394 . S
C392 C393 1.516 . S
C393 C392 1.516 . S
C393 C394 1.502 . S
C393 C395 1.561 . S
C393 C396 1.526 . S
C394 H378 0.959 . S
C394 H379 0.959 . S
C394 H380 0.961 . S
C394 C393 1.502 . S
C395 H381 0.960 . S
C395 H382 0.961 . S
C395 H383 0.959 . S
C395 C393 1.561 . S
C396 C393 1.526 . S
C396 C397 1.396 . S
C396 C401 1.390 . S
C397 C391 1.465 . S
C397 C396 1.396 . S
C397 C398 1.399 . S
C398 H384 0.929 . S
C398 C397 1.399 . S
C398 C399 1.385 . S
C399 H385 0.931 . S
C399 C398 1.385 . S
C399 C400 1.389 . S
C400 C399 1.389 . S
C400 C401 1.387 . S
C401 H386 0.930 . S
C401 C396 1.390 . S
C401 C400 1.387 . S
C103 C43 1.307 . S
C91 C7 1.472 . S
C130 C39 1.423 . S
C118 C16 1.489 . S
C157 C64 1.379 . S
C145 C25 1.478 . S
C172 C34 1.479 . S
C184 C60 1.330 . S
C199 C5 1.216 1_556 S
C211 C61 1.175 . S
C238 C76 1.049 . S
C226 C14 1.279 1_556 S
C253 C4 1.632 1_556 S
C265 C77 1.528 . S
C292 C73 1.547 . S
C280 C13 1.641 1_556 S
C319 C40 1.013 1_655 S
C307 C23 1.259 . S
C334 C32 1.238 . S
C346 C55 1.197 . S
C373 C56 1.468 . S
C361 C22 1.642 . S
C400 C52 1.508 . S
C388 C31 1.652 . S
