# Generated by pormake.
# Topology anh, (6,3)-cn, num edge types: 1
# Building blocks:
#     Node 0, Type 0, BuildingBlock: HISSIN_clean_sbu_0, # of connection points: 6
#     Node 1, Type 0, BuildingBlock: HISSIN_clean_sbu_0, # of connection points: 6
#     Node 2, Type 0, BuildingBlock: HISSIN_clean_sbu_0, # of connection points: 6
#     Node 3, Type 1, BuildingBlock: CUQRIR_clean_linker_1, # of connection points: 3
#     Node 4, Type 1, BuildingBlock: CUQRIR_clean_linker_1, # of connection points: 3
#     Node 5, Type 1, BuildingBlock: CUQRIR_clean_linker_1, # of connection points: 3
#     Node 6, Type 1, BuildingBlock: CUQRIR_clean_linker_1, # of connection points: 3
#     Node 7, Type 1, BuildingBlock: CUQRIR_clean_linker_1, # of connection points: 3
#     Node 8, Type 1, BuildingBlock: CUQRIR_clean_linker_1, # of connection points: 3
#     Edge 9, Type (0, 1), BuildingBlock: CIFDUS_clean_linker_0, # of connection points: 2
#     Edge 10, Type (0, 1), BuildingBlock: CIFDUS_clean_linker_0, # of connection points: 2
#     Edge 11, Type (0, 1), BuildingBlock: CIFDUS_clean_linker_0, # of connection points: 2
#     Edge 12, Type (0, 1), BuildingBlock: CIFDUS_clean_linker_0, # of connection points: 2
#     Edge 13, Type (0, 1), BuildingBlock: CIFDUS_clean_linker_0, # of connection points: 2
#     Edge 14, Type (0, 1), BuildingBlock: CIFDUS_clean_linker_0, # of connection points: 2
#     Edge 15, Type (0, 1), BuildingBlock: CIFDUS_clean_linker_0, # of connection points: 2
#     Edge 16, Type (0, 1), BuildingBlock: CIFDUS_clean_linker_0, # of connection points: 2
#     Edge 17, Type (0, 1), BuildingBlock: CIFDUS_clean_linker_0, # of connection points: 2
#     Edge 18, Type (0, 1), BuildingBlock: CIFDUS_clean_linker_0, # of connection points: 2
#     Edge 19, Type (0, 1), BuildingBlock: CIFDUS_clean_linker_0, # of connection points: 2
#     Edge 20, Type (0, 1), BuildingBlock: CIFDUS_clean_linker_0, # of connection points: 2
#     Edge 21, Type (0, 1), BuildingBlock: CIFDUS_clean_linker_0, # of connection points: 2
#     Edge 22, Type (0, 1), BuildingBlock: CIFDUS_clean_linker_0, # of connection points: 2
#     Edge 23, Type (0, 1), BuildingBlock: CIFDUS_clean_linker_0, # of connection points: 2
#     Edge 24, Type (0, 1), BuildingBlock: CIFDUS_clean_linker_0, # of connection points: 2
#     Edge 25, Type (0, 1), BuildingBlock: CIFDUS_clean_linker_0, # of connection points: 2
#     Edge 26, Type (0, 1), BuildingBlock: CIFDUS_clean_linker_0, # of connection points: 2
# Relax obj value: 0.354
# Max RMSD: 0.204
# Mean RMSD: 0.162
data_MOF--net-anh--node1-HISSIN_clean_sbu_0--node2-CUQRIR_clean_linker_1--edge1-CIFDUS_clean_linker_0
_symmetry_space_group_name_H-M    P1
_symmetry_Int_Tables_number       1
_symmetry_cell_setting            triclinic
loop_
_symmetry_equiv_pos_as_xyz
'x, y, z'
_cell_length_a     24.635967
_cell_length_b     24.6572
_cell_length_c     40.887273
_cell_angle_alpha  89.085708
_cell_angle_beta   89.763093
_cell_angle_gamma 120.70409
loop_
_atom_site_label
_atom_site_type_symbol
_atom_site_fract_x
_atom_site_fract_y
_atom_site_fract_z
_atom_type_partial_charge
Eu0 Eu 1.10343 0.49892 0.13995 0.0
Eu1 Eu 0.17193 0.64063 0.16397 0.0
C2 C 1.11204 0.52938 0.2192 0.0
C3 C 0.97114 0.33761 0.13926 0.0
C4 C 0.96621 0.3191 0.17242 0.0
C5 C 0.8613 0.30974 0.1411 0.0
C6 C 0.91089 0.30068 0.19023 0.0
C7 C 0.91673 0.32831 0.12327 0.0
C8 C 0.85937 0.29961 0.17511 0.0
C9 C 1.03395 0.38144 0.12456 0.0
O10 O 0.25639 0.62078 0.15703 0.0
O11 O 0.20548 0.52132 0.13631 0.0
C12 C 0.25878 0.57201 0.14474 0.0
O13 O 0.157 0.56026 0.09567 0.0
O14 O 0.25041 0.73626 0.15497 0.0
O15 O 0.1869 0.71602 0.19643 0.0
O16 O 1.14664 0.6417 0.11199 0.0
C17 C 0.16087 0.61442 0.08935 0.0
O18 O 1.02357 0.52255 0.13705 0.0
O19 O 1.07063 0.62424 0.15449 0.0
O20 O 1.1393 0.58974 0.21248 0.0
O21 O 1.03712 0.4275 0.1068 0.0
O22 O 1.08174 0.4015 0.14426 0.0
O23 O 1.09725 0.48783 0.19596 0.0
C24 C 0.23192 0.81735 0.17071 0.0
C25 C 0.18134 0.82505 0.18024 0.0
C26 C 0.29025 0.92645 0.1523 0.0
C27 C 0.18635 0.88405 0.17689 0.0
C28 C 0.28521 0.86786 0.15564 0.0
C29 C 0.24203 0.93615 0.16408 0.0
C30 C 0.23309 0.75949 0.17853 0.0
C31 C 1.01987 0.57329 0.14318 0.0
H32 H 1.0068 0.3245 0.18548 0.0
H33 H 0.82203 0.30882 0.12875 0.0
H34 H 0.90989 0.29136 0.21628 0.0
H35 H 0.91887 0.34161 0.0977 0.0
H36 H 1.13915 0.78643 0.19156 0.0
H37 H 0.33451 0.96517 0.14284 0.0
H38 H 1.14808 0.88959 0.18586 0.0
H39 H 0.3247 0.86302 0.14804 0.0
Eu40 Eu 0.68076 1.02769 0.48153 0.0
Eu41 Eu 0.6084 1.10249 0.49031 0.0
C42 C 0.64553 1.05113 0.55493 0.0
C43 C 0.80184 0.97604 0.48785 0.0
C44 C 0.8122 0.98209 0.52174 0.0
C45 C 0.88842 0.95713 0.48147 0.0
C46 C 0.85773 0.97135 0.5356 0.0
C47 C 0.84265 0.96732 0.46766 0.0
C48 C 0.89317 0.95468 0.51565 0.0
C49 C 0.74517 0.97176 0.47366 0.0
O50 O 0.71245 0.18511 0.48709 0.0
O51 O 0.76396 0.13188 0.47604 0.0
C52 C 0.76543 0.18604 0.47945 0.0
O53 O 0.63964 1.03099 0.43207 0.0
O54 O 0.58623 0.16694 0.51471 0.0
O55 O 0.53846 0.12231 0.46988 0.0
O56 O 0.6573 0.12772 0.44188 0.0
C57 C 0.64722 1.0846 0.42103 0.0
O58 O 0.57635 0.94477 0.4825 0.0
O59 O 0.52868 1.00308 0.47598 0.0
O60 O 0.60535 1.06438 0.5413 0.0
O61 O 0.69579 0.95013 0.49297 0.0
O62 O 0.75361 1.01929 0.45536 0.0
O63 O 0.68633 1.04502 0.53675 0.0
C64 C 0.57981 0.23153 0.47458 0.0
C65 C 0.61738 0.2463 0.44604 0.0
C66 C 0.63042 0.3428 0.48596 0.0
C67 C 0.66489 0.30833 0.43925 0.0
C68 C 0.58337 0.28056 0.49306 0.0
C69 C 0.67435 0.35605 0.46059 0.0
C70 C 0.5537 0.1686 0.48989 0.0
C71 C 0.52465 0.94735 0.47713 0.0
H72 H 0.78196 0.99018 0.53773 0.0
H73 H 0.9153 0.94424 0.46568 0.0
H74 H 0.86025 0.96924 0.562 0.0
H75 H 0.83597 0.96355 0.44144 0.0
H76 H 0.61531 0.20939 0.4312 0.0
H77 H 0.63759 0.37922 0.50288 0.0
H78 H 0.69856 0.31776 0.41967 0.0
H79 H 0.55513 0.27022 0.51519 0.0
Eu80 Eu 0.6316 0.56906 0.8275 0.0
Eu81 Eu 0.78036 0.64691 0.8127 0.0
C82 C 0.73378 0.61746 0.88849 0.0
C83 C 0.48783 0.53072 0.87283 0.0
C84 C 0.52985 0.5796 0.89297 0.0
C85 C 0.4003 0.53076 0.89985 0.0
C86 C 0.50767 0.60555 0.91549 0.0
C87 C 0.42276 0.50457 0.87721 0.0
C88 C 0.4429 0.58371 0.91795 0.0
C89 C 0.51384 0.51151 0.84619 0.0
O90 O 0.75927 0.54191 0.81288 0.0
O91 O 0.65113 0.48818 0.81796 0.0
C92 C 0.70423 0.48727 0.81393 0.0
O93 O 0.64464 0.54456 0.77627 0.0
O94 O 0.87483 0.7287 0.81524 0.0
O95 O 0.85264 0.66035 0.77676 0.0
O96 O 0.72102 0.64433 0.77061 0.0
C97 C 0.6841 0.59071 0.75707 0.0
O98 O 0.65015 0.67188 0.81562 0.0
O99 O 0.75805 0.72729 0.8146 0.0
O100 O 0.78268 0.64254 0.86824 0.0
O101 O 0.53555 0.55043 0.82096 0.0
O102 O 0.55334 0.49437 0.85576 0.0
O103 O 0.6756 0.59029 0.87787 0.0
C104 C 0.96119 0.73733 0.78537 0.0
C105 C 0.99973 0.7961 0.76985 0.0
C106 C 1.0539 0.73434 0.80136 0.0
C107 C 1.0652 0.82509 0.77107 0.0
C108 C 0.98824 0.70563 0.80043 0.0
C109 C 1.09279 0.79521 0.78761 0.0
C110 C 0.89405 0.71491 0.78857 0.0
C111 C 0.70425 0.72716 0.81277 0.0
H112 H 0.5803 0.60057 0.88988 0.0
H113 H 0.34999 0.5127 0.90146 0.0
H114 H 0.5419 0.6467 0.92856 0.0
H115 H 0.38972 0.46636 0.86206 0.0
H116 H 0.97913 0.82108 0.7582 0.0
H117 H 1.07418 0.71078 0.8147 0.0
H118 H 1.09423 0.87193 0.76039 0.0
H119 H 0.95886 0.66043 0.81272 0.0
C120 C 0.49963 0.25901 0.24529 0.0
N121 N 0.54779 0.25492 0.25825 0.0
N122 N 0.44302 0.21596 0.25907 0.0
C123 C 0.50909 0.30705 0.21926 0.0
C124 C 0.4603 0.18935 0.28334 0.0
N125 N 0.52332 0.21263 0.2825 0.0
C126 C 0.41548 0.13925 0.30741 0.0
H127 H 0.46546 0.30897 0.21566 0.0
H128 H 0.52392 0.29596 0.19586 0.0
H129 H 0.54801 0.35415 0.2265 0.0
H130 H 0.38379 1.09518 0.29435 0.0
H131 H 0.38648 0.15551 0.31987 0.0
H132 H 0.44023 0.12868 0.32673 0.0
C133 C 0.96022 0.65204 0.56362 0.0
N134 N 0.93143 0.67476 0.58271 0.0
N135 N 0.92804 0.58823 0.56373 0.0
C136 C 1.01225 0.69212 0.53932 0.0
C137 C 0.88171 0.5726 0.58645 0.0
N138 N 0.88478 0.62492 0.59863 0.0
C139 C 0.82473 0.50674 0.59061 0.0
H140 H 0.99235 0.70295 0.51759 0.0
H141 H 1.03664 0.66714 0.53124 0.0
H142 H 1.04661 0.73755 0.55051 0.0
H143 H 0.83724 0.47831 0.60678 0.0
H144 H 0.80954 0.48251 0.56696 0.0
H145 H 0.7833 0.50697 0.60106 0.0
C146 C 0.40414 0.91075 0.90627 0.0
N147 N 0.38857 0.86849 0.93125 0.0
N148 N 0.36347 0.93248 0.90415 0.0
C149 C 0.45606 0.92611 0.88171 0.0
C150 C 0.32689 0.90703 0.93157 0.0
N151 N 0.34202 0.86837 0.94766 0.0
C152 C 0.26833 0.90976 0.93899 0.0
H153 H 0.46494 0.96656 0.86559 0.0
H154 H 0.44379 0.8846 0.86654 0.0
H155 H 0.49986 0.93762 0.89489 0.0
H156 H 0.23332 0.88596 0.91943 0.0
H157 H 0.28043 0.95965 0.93958 0.0
H158 H 0.24599 0.88654 0.96271 0.0
C159 C 1.15345 0.55373 0.46029 0.0
N160 N 1.10602 0.51311 0.43967 0.0
N161 N 0.19926 0.60784 0.44436 0.0
C162 C 1.15368 0.54232 0.49641 0.0
C163 C 0.17823 0.59769 0.41312 0.0
N164 N 1.1229 0.5416 0.41016 0.0
C165 C 0.21362 0.64203 0.38479 0.0
H166 H 1.10473 0.51447 0.50633 0.0
H167 H 0.17972 0.58769 0.50934 0.0
H168 H 0.1778 0.51536 0.50098 0.0
H169 H 0.20414 0.61667 0.36144 0.0
H170 H 0.26525 0.66781 0.38891 0.0
H171 H 0.19813 0.67696 0.38229 0.0
C172 C 0.70018 1.10242 0.79759 0.0
N173 N 0.69652 1.05769 0.77605 0.0
N174 N 0.70315 0.15428 0.78193 0.0
C175 C 0.69871 1.0942 0.83401 0.0
C176 C 0.70159 0.13897 0.75004 0.0
N177 N 0.69695 1.08167 0.74632 0.0
C178 C 0.70701 0.18188 0.72192 0.0
H179 H 0.65034 1.05744 0.84194 0.0
H180 H 0.71172 0.13872 0.84653 0.0
H181 H 0.73123 1.07753 0.8412 0.0
H182 H 0.73513 0.23215 0.72875 0.0
H183 H 0.65902 0.17129 0.71521 0.0
H184 H 0.72946 0.17467 0.70015 0.0
C185 C 0.65693 0.60179 0.12976 0.0
N186 N 0.6993 0.59723 0.10909 0.0
N187 N 0.60515 0.59662 0.11359 0.0
C188 C 0.66441 0.60823 0.16609 0.0
C189 C 0.61904 0.59028 0.08212 0.0
N190 N 0.67447 0.59037 0.07931 0.0
C191 C 0.57968 0.58736 0.0533 0.0
H192 H 0.69028 0.58538 0.17543 0.0
H193 H 0.61766 0.58705 0.17856 0.0
H194 H 0.69191 0.65908 0.17191 0.0
H195 H 0.55463 0.6132 0.05811 0.0
H196 H 0.54416 0.53729 0.04871 0.0
H197 H 0.60907 0.60775 0.03082 0.0
H198 H 0.38991 0.65579 0.16378 0.0
H199 H 0.27284 0.48567 0.11046 0.0
H200 H 0.36405 0.4768 0.09791 0.0
H201 H 0.47889 0.51533 0.10035 0.0
H202 H 0.59996 0.68399 0.15296 0.0
H203 H 0.50808 0.69374 0.16739 0.0
C204 C 0.38386 0.6166 0.14942 0.0
C205 C 0.32148 0.57149 0.13839 0.0
C206 C 0.43866 0.61078 0.14202 0.0
C207 C 0.31782 0.5216 0.11985 0.0
C208 C 0.37097 0.51619 0.11242 0.0
C209 C 0.4858 0.55445 0.11506 0.0
C210 C 0.54843 0.59878 0.12531 0.0
C211 C 0.43189 0.56019 0.12318 0.0
C212 C 0.55381 0.64831 0.14473 0.0
C213 C 0.50051 0.65422 0.15282 0.0
H214 H 0.89654 0.23249 0.48985 0.0
H215 H 0.77173 0.28534 0.44542 0.0
H216 H 0.86207 0.38754 0.42854 0.0
H217 H 0.9789 0.46608 0.42671 0.0
H218 H 1.10414 0.41428 0.47162 0.0
H219 H 1.01384 0.31105 0.48769 0.0
C220 C 0.88875 0.26627 0.4766 0.0
C221 C 0.82526 0.24985 0.46982 0.0
C222 C 0.94233 0.32688 0.46691 0.0
C223 C 0.81846 0.29565 0.45209 0.0
C224 C 0.87085 0.35472 0.44208 0.0
C225 C 0.98681 0.43223 0.43979 0.0
C226 C 1.05007 0.44981 0.44779 0.0
C227 C 0.9334 0.37164 0.44943 0.0
C228 C 1.05728 0.40391 0.46519 0.0
C229 C 1.00499 0.34405 0.4744 0.0
H230 H 0.61458 0.77058 0.81992 0.0
H231 H 0.80418 0.83447 0.7858 0.0
H232 H 0.81829 0.9368 0.77091 0.0
H233 H 0.77945 1.01333 0.76707 0.0
H234 H 0.59322 0.95457 0.8037 0.0
H235 H 0.57643 0.84948 0.81755 0.0
C236 C 0.65917 0.80652 0.80923 0.0
C237 C 0.70812 0.7917 0.80437 0.0
C238 C 0.66815 0.86843 0.80084 0.0
C239 C 0.76503 0.84167 0.79046 0.0
C240 C 0.77342 0.90147 0.78165 0.0
C241 C 0.73487 0.97766 0.77789 0.0
C242 C 0.68747 0.99376 0.78376 0.0
C243 C 0.72571 0.91617 0.78661 0.0
C244 C 0.63083 0.94532 0.79849 0.0
C245 C 0.62117 0.88435 0.80652 0.0
H246 H 0.97582 0.65925 0.15697 0.0
H247 H 0.91695 0.48218 0.11044 0.0
H248 H 0.81772 0.47425 0.09527 0.0
H249 H 0.74323 0.51587 0.09439 0.0
H250 H 0.79808 0.68975 0.14284 0.0
H251 H 0.8993 0.69962 0.15743 0.0
C252 C 0.94157 0.61868 0.14354 0.0
C253 C 0.95672 0.57148 0.13514 0.0
C254 C 0.88184 0.61342 0.13488 0.0
C255 C 0.90926 0.5198 0.11772 0.0
C256 C 0.85135 0.51503 0.10879 0.0
C257 C 0.77718 0.55624 0.10803 0.0
C258 C 0.76096 0.60207 0.11726 0.0
C259 C 0.83648 0.56136 0.11705 0.0
C260 C 0.80719 0.6532 0.13534 0.0
C261 C 0.866 0.65899 0.14372 0.0
H262 H 0.47936 0.81625 0.48954 0.0
H263 H 0.42038 0.94067 0.44949 0.0
H264 H 0.31721 0.85038 0.43743 0.0
H265 H 0.24107 0.73448 0.43669 0.0
H266 H 0.29576 0.60793 0.47759 0.0
H267 H 0.39986 0.69845 0.49102 0.0
C268 C 0.44414 0.82396 0.47819 0.0
C269 C 0.45995 0.88738 0.47055 0.0
C270 C 0.38247 0.77032 0.47149 0.0
C271 C 0.41167 0.89412 0.45599 0.0
C272 C 0.35173 0.84178 0.44894 0.0
C273 C 0.27542 0.72637 0.44877 0.0
C274 C 0.25891 0.66289 0.45605 0.0
C275 C 0.33615 0.77945 0.45643 0.0
C276 C 0.30538 0.65508 0.47189 0.0
C277 C 0.36575 0.70745 0.47935 0.0
H278 H 0.78572 0.43669 0.82803 0.0
H279 H 0.60768 0.38615 0.78392 0.0
H280 H 0.59037 0.28222 0.7716 0.0
H281 H 0.62444 0.20231 0.7717 0.0
H282 H 0.79855 0.24716 0.81788 0.0
H283 H 0.81726 0.35258 0.83092 0.0
C284 C 0.74303 0.40326 0.81568 0.0
C285 C 0.69833 0.42209 0.80702 0.0
C286 C 0.73187 0.34045 0.80908 0.0
C287 C 0.64343 0.37547 0.79131 0.0
C288 C 0.63323 0.31492 0.78408 0.0
C289 C 0.66615 0.2345 0.78513 0.0
C290 C 0.7093 0.21425 0.79411 0.0
C291 C 0.67673 0.29623 0.79277 0.0
C292 C 0.76332 0.25894 0.81109 0.0
C293 C 0.77442 0.32033 0.8183 0.0
H294 H 0.85106 0.83611 0.50151 0.0
H295 H 0.98363 0.98423 0.5631 0.0
H296 H 1.01031 0.91024 0.58952 0.0
H297 H 0.99121 0.80004 0.59585 0.0
H298 H 0.84773 0.65387 0.53728 0.0
H299 H 0.83008 0.73029 0.50845 0.0
C300 C 0.88691 0.85261 0.52023 0.0
C301 C 0.91677 0.91545 0.52981 0.0
C302 C 0.89948 0.80982 0.53589 0.0
C303 C 0.96113 0.93597 0.555 0.0
C304 C 0.97592 0.89367 0.57016 0.0
C305 C 0.95635 0.78573 0.57679 0.0
C306 C 0.92132 0.72205 0.56809 0.0
C307 C 0.94472 0.83004 0.56103 0.0
C308 C 0.87576 0.70305 0.54359 0.0
C309 C 0.86548 0.7465 0.52733 0.0
H310 H 0.15869 0.91127 0.81347 0.0
H311 H 0.17765 0.75692 0.77948 0.0
H312 H 0.27914 0.80028 0.80664 0.0
H313 H 0.34444 0.86433 0.85025 0.0
H314 H 0.32337 1.01421 0.88873 0.0
H315 H 0.24122 0.99181 0.84849 0.0
C316 C 0.18634 0.88859 0.811 0.0
C317 C 0.16063 0.83044 0.79513 0.0
C318 C 0.24329 0.91243 0.82782 0.0
C319 C 0.19641 0.80119 0.79206 0.0
C320 C 0.2542 0.82591 0.80761 0.0
C321 C 0.3242 0.89411 0.84925 0.0
C322 C 0.33805 0.93906 0.87353 0.0
C323 C 0.27576 0.87906 0.8272 0.0
C324 C 0.31184 0.97787 0.87101 0.0
C325 C 0.26466 0.96472 0.84817 0.0
H326 H 0.20775 0.98274 0.21571 0.0
H327 H 0.3093 1.03949 0.12334 0.0
H328 H 0.37905 0.14453 0.14404 0.0
H329 H 0.42928 0.20041 0.19343 0.0
H330 H 0.3209 0.15656 0.28321 0.0
H331 H 0.2343 1.06351 0.25798 0.0
C332 C 0.24276 1.01869 0.19932 0.0
C333 C 0.2567 1.00196 0.1689 0.0
C334 C 0.28259 1.07945 0.21128 0.0
C335 C 0.30034 1.05021 0.14766 0.0
C336 C 0.34039 0.11031 0.15949 0.0
C337 C 0.38594 0.17396 0.20741 0.0
C338 C 0.38424 0.18291 0.24132 0.0
C339 C 0.33526 0.12304 0.19225 0.0
C340 C 0.326 0.14742 0.25799 0.0
C341 C 0.27593 1.09471 0.24339 0.0
H342 H 0.76981 0.35461 0.48888 0.0
H343 H 0.71745 0.47901 0.44275 0.0
H344 H 0.81318 0.57067 0.4635 0.0
H345 H 0.89311 0.60975 0.50566 0.0
H346 H 0.93522 0.483 0.55771 0.0
H347 H 0.86641 0.39765 0.52116 0.0
C348 C 0.78164 0.402 0.48177 0.0
C349 C 0.73803 0.41083 0.46399 0.0
C350 C 0.83512 0.45356 0.49477 0.0
C351 C 0.75118 0.47184 0.45617 0.0
C352 C 0.80563 0.52388 0.46811 0.0
C353 C 0.88951 0.56428 0.50802 0.0
C354 C 0.91739 0.55177 0.53483 0.0
C355 C 0.84564 0.51482 0.48902 0.0
C356 C 0.91356 0.49314 0.53737 0.0
C357 C 0.87319 0.44425 0.51695 0.0
H358 H 0.3647 0.61606 0.89077 0.0
H359 H 0.48048 0.64944 0.97552 0.0
H360 H 0.47328 0.74254 0.98815 0.0
H361 H 0.44399 0.82182 0.97049 0.0
H362 H 0.33024 0.78496 0.88489 0.0
H363 H 0.32723 0.68619 0.87682 0.0
C364 C 0.38652 0.64208 0.91274 0.0
C365 C 0.42322 0.62602 0.93206 0.0
C366 C 0.38445 0.6964 0.91894 0.0
C367 C 0.45212 0.66122 0.96013 0.0
C368 C 0.44859 0.71476 0.96715 0.0
C369 C 0.41935 0.79205 0.95005 0.0
C370 C 0.39022 0.81166 0.92722 0.0
C371 C 0.4171 0.73437 0.94585 0.0
C372 C 0.35603 0.7721 0.90147 0.0
C373 C 0.35317 0.71512 0.89729 0.0
H374 H 0.73359 0.22976 0.16402 0.0
H375 H 0.86973 0.36371 0.23053 0.0
H376 H 0.78549 0.36529 0.2614 0.0
H377 H 0.67259 0.32987 0.26879 0.0
H378 H 0.53681 0.19206 0.20395 0.0
H379 H 0.62133 0.19259 0.17219 0.0
C380 C 0.74465 0.25915 0.18531 0.0
C381 C 0.80749 0.29611 0.19512 0.0
C382 C 0.69616 0.26012 0.20281 0.0
C383 C 0.82139 0.33385 0.22285 0.0
C384 C 0.7734 0.33536 0.24031 0.0
C385 C 0.66189 0.29998 0.24782 0.0
C386 C 0.59911 0.26137 0.23843 0.0
C387 C 0.7106 0.29892 0.23042 0.0
C388 C 0.58532 0.223 0.21104 0.0
C389 C 0.63339 0.22279 0.19316 0.0
H390 H 0.22745 0.74017 0.0832 0.0
H391 H 0.16061 0.57096 0.02758 0.0
H392 H 0.20867 0.63554 0.97762 0.0
H393 H 0.26796 0.7408 0.95026 0.0
H394 H 0.34278 0.90805 0.00787 0.0
H395 H 0.2909 0.84333 0.05699 0.0
C396 C 0.22292 0.71717 0.06012 0.0
C397 C 0.18976 0.65093 0.05885 0.0
C398 C 0.25159 0.75429 0.03209 0.0
C399 C 0.18568 0.62191 0.029 0.0
C400 C 0.21297 0.65879 0.00055 0.0
C401 C 0.27402 0.76281 0.97369 0.0
C402 C 0.30993 0.82895 0.97585 0.0
C403 C 0.24598 0.72507 0.00186 0.0
C404 C 0.31545 0.85719 0.00603 0.0
C405 C 0.28606 0.82028 0.03393 0.0
H406 H 0.69028 0.19672 0.3915 0.0
H407 H 0.57114 0.99744 0.37544 0.0
H408 H 0.52645 1.02046 0.32714 0.0
H409 H 0.51028 1.09805 0.2949 0.0
H410 H 0.61732 0.29435 0.31939 0.0
H411 H 0.67781 0.27239 0.35905 0.0
C412 C 0.6552 0.15815 0.37713 0.0
C413 C 0.6334 1.09548 0.38721 0.0
C414 C 0.62685 0.17162 0.35124 0.0
C415 C 0.58885 1.0461 0.36808 0.0
C416 C 0.56266 1.05932 0.3408 0.0
C417 C 0.54713 0.13564 0.30894 0.0
C418 C 0.55991 0.19788 0.30438 0.0
C419 C 0.57932 0.12187 0.33306 0.0
C420 C 0.60776 0.24653 0.32233 0.0
C421 C 0.64188 0.23385 0.34508 0.0
H422 H 0.71448 0.66085 0.70158 0.0
H423 H 0.70762 0.49673 0.74448 0.0
H424 H 0.77466 0.4968 0.70024 0.0
H425 H 0.84362 0.55054 0.65258 0.0
H426 H 0.8325 0.70212 0.60444 0.0
H427 H 0.76796 0.70227 0.64827 0.0
C428 C 0.72604 0.62393 0.70056 0.0
C429 C 0.7063 0.57888 0.72611 0.0
C430 C 0.7636 0.62357 0.67477 0.0
C431 C 0.72181 0.53151 0.72488 0.0
C432 C 0.76087 0.5321 0.69983 0.0
C433 C 0.8257 0.58249 0.65097 0.0
C434 C 0.84446 0.62608 0.6245 0.0
C435 C 0.78336 0.57901 0.67512 0.0
C436 C 0.8221 0.66865 0.62403 0.0
C437 C 0.78331 0.66817 0.64917 0.0
H438 H 0.73461 1.05185 0.59757 0.0
H439 H 0.54999 1.03192 0.59592 0.0
H440 H 0.54469 1.02653 0.65526 0.0
H441 H 0.59616 1.03936 0.70818 0.0
H442 H 0.78283 1.06732 0.71176 0.0
H443 H 0.78295 1.05551 0.65211 0.0
C444 C 0.69293 1.04558 0.61017 0.0
C445 C 0.64307 1.04308 0.59171 0.0
C446 C 0.69023 1.04327 0.64506 0.0
C447 C 0.58962 1.03493 0.60893 0.0
C448 C 0.58626 1.0315 0.64314 0.0
C449 C 0.6357 1.04007 0.69599 0.0
C450 C 0.6887 1.0525 0.71467 0.0
C451 C 0.63661 1.03686 0.66151 0.0
C452 C 0.74064 1.05574 0.6983 0.0
C453 C 0.74113 1.05036 0.66398 0.0
H454 H 0.67603 0.52201 0.93395 0.0
H455 H 0.81029 0.72113 0.92489 0.0
H456 H 0.81168 0.72994 0.9847 0.0
H457 H 0.76365 0.68236 0.03958 0.0
H458 H 0.63388 0.48253 0.04793 0.0
H459 H 0.643 0.47199 0.98903 0.0
C460 C 0.7066 0.56713 0.94511 0.0
C461 C 0.74277 0.62094 0.92482 0.0
C462 C 0.70813 0.57151 0.97964 0.0
C463 C 0.78224 0.67893 0.93979 0.0
C464 C 0.78279 0.68398 0.97409 0.0
C465 C 0.73987 0.63623 0.02865 0.0
C466 C 0.69894 0.58292 0.04837 0.0
C467 C 0.74483 0.63081 0.99433 0.0
C468 C 0.66677 0.52378 0.03354 0.0
C469 C 0.67116 0.51802 -0.0003 0.0
H470 H 1.05887 0.56447 0.26676 0.0
H471 H 1.14269 0.45046 0.25134 0.0
H472 H 1.14345 0.43375 0.31068 0.0
H473 H 1.13464 0.46547 0.36739 0.0
H474 H 1.04709 0.57586 0.38201 0.0
H475 H 1.03124 0.57837 0.32306 0.0
C476 C 1.07598 0.53476 0.27638 0.0
C477 C 1.10124 0.50922 0.25454 0.0
C478 C 1.0752 0.52445 0.31059 0.0
C479 C 1.12286 0.47055 0.26746 0.0
C480 C 1.12352 0.46123 0.30149 0.0
C481 C 1.10907 0.48708 0.35772 0.0
C482 C 1.09095 0.51954 0.37926 0.0
C483 C 1.10143 0.4894 0.32341 0.0
C484 C 1.05988 0.54926 0.36616 0.0
C485 C 1.05204 0.55175 0.33232 0.0
loop_
_geom_bond_atom_site_label_1
_geom_bond_atom_site_label_2
_geom_bond_distance
_geom_bond_site_symmetry_2
_ccdc_geom_bond_type
Eu0 C9 2.828 . S
Eu0 O11 2.392 1_655 S
Eu0 O13 2.418 . S
Eu0 O18 2.373 . S
Eu0 O21 2.488 . S
Eu0 O22 2.471 . S
Eu0 O23 2.349 . S
Eu1 O10 2.373 . S
Eu1 O14 2.488 . S
Eu1 O15 2.471 . S
Eu1 O16 2.349 . S
Eu1 O19 2.392 1_455 S
Eu1 O20 2.418 . S
Eu1 C30 2.828 . S
C2 O20 1.244 . S
C2 O23 1.265 1_455 S
C3 C4 1.379 . S
C3 C7 1.373 . S
C3 C9 1.505 . S
C4 C3 1.379 . S
C4 C6 1.369 . S
C4 H32 0.930 . S
C5 C7 1.383 . S
C5 C8 1.382 . S
C5 H33 0.930 . S
C6 C4 1.369 . S
C6 C8 1.392 . S
C6 H34 0.930 . S
C7 C3 1.373 . S
C7 C5 1.383 . S
C7 H35 0.931 . S
C8 C5 1.382 . S
C8 C6 1.392 . S
C9 Eu0 2.828 . S
C9 C3 1.505 . S
C9 O21 1.249 . S
C9 O22 1.244 . S
O10 Eu1 2.373 . S
O10 C12 1.258 . S
O11 Eu0 2.392 1_455 S
O11 C12 1.242 . S
C12 O10 1.258 . S
C12 O11 1.242 . S
O13 Eu0 2.418 . S
O13 C17 1.244 . S
O14 Eu1 2.488 . S
O14 C30 1.249 . S
O15 Eu1 2.471 . S
O15 C30 1.244 . S
O16 Eu1 2.349 . S
O16 C17 1.265 1_455 S
C17 O13 1.244 . S
C17 O16 1.265 1_655 S
O18 Eu0 2.373 . S
O18 C31 1.258 . S
O19 Eu1 2.392 1_655 S
O19 C31 1.242 . S
O20 Eu1 2.418 . S
O20 C2 1.244 . S
O21 Eu0 2.488 . S
O21 C9 1.249 . S
O22 Eu0 2.471 . S
O22 C9 1.244 . S
O23 Eu0 2.349 . S
O23 C2 1.265 1_655 S
C24 C25 1.379 . S
C24 C28 1.373 . S
C24 C30 1.505 . S
C25 C24 1.379 . S
C25 C27 1.369 . S
C25 H36 0.930 . S
C26 C28 1.383 . S
C26 C29 1.382 . S
C26 H37 0.930 . S
C27 C25 1.369 . S
C27 C29 1.392 . S
C27 H38 0.930 . S
C28 C24 1.373 . S
C28 C26 1.383 . S
C28 H39 0.931 . S
C29 C26 1.382 . S
C29 C27 1.392 . S
C30 Eu1 2.828 . S
C30 O14 1.249 . S
C30 O15 1.244 . S
C30 C24 1.505 . S
C31 O18 1.258 . S
C31 O19 1.242 . S
H32 C4 0.930 . S
H33 C5 0.930 . S
H34 C6 0.930 . S
H35 C7 0.931 . S
H36 C25 0.930 . S
H37 C26 0.930 . S
H38 C27 0.930 . S
H39 C28 0.931 . S
Eu40 C49 2.828 . S
Eu40 O51 2.392 1_565 S
Eu40 O53 2.418 . S
Eu40 O58 2.373 . S
Eu40 O61 2.488 . S
Eu40 O62 2.471 . S
Eu40 O63 2.349 1_565 S
Eu41 O50 2.373 . S
Eu41 O54 2.488 . S
Eu41 O55 2.471 . S
Eu41 O56 2.349 . S
Eu41 O59 2.392 1_545 S
Eu41 O60 2.418 . S
Eu41 C70 2.828 . S
C42 O60 1.244 . S
C42 O63 1.265 . S
C43 C44 1.379 . S
C43 C47 1.373 . S
C43 C49 1.505 . S
C44 C43 1.379 . S
C44 C46 1.369 . S
C44 H72 0.930 . S
C45 C47 1.383 . S
C45 C48 1.382 . S
C45 H73 0.930 . S
C46 C44 1.369 . S
C46 C48 1.392 . S
C46 H74 0.930 . S
C47 C43 1.373 . S
C47 C45 1.383 . S
C47 H75 0.931 . S
C48 C45 1.382 . S
C48 C46 1.392 . S
C49 Eu40 2.828 . S
C49 C43 1.505 . S
C49 O61 1.249 . S
C49 O62 1.244 . S
O50 Eu41 2.373 . S
O50 C52 1.258 . S
O51 Eu40 2.392 1_545 S
O51 C52 1.242 . S
C52 O50 1.258 . S
C52 O51 1.242 . S
O53 Eu40 2.418 . S
O53 C57 1.244 1_565 S
O54 Eu41 2.488 . S
O54 C70 1.249 . S
O55 Eu41 2.471 . S
O55 C70 1.244 . S
O56 Eu41 2.349 . S
O56 C57 1.265 . S
C57 O53 1.244 1_545 S
C57 O56 1.265 . S
O58 Eu40 2.373 . S
O58 C71 1.258 . S
O59 Eu41 2.392 1_565 S
O59 C71 1.242 . S
O60 Eu41 2.418 . S
O60 C42 1.244 . S
O61 Eu40 2.488 . S
O61 C49 1.249 . S
O62 Eu40 2.471 . S
O62 C49 1.244 . S
O63 Eu40 2.349 1_545 S
O63 C42 1.265 . S
C64 C65 1.379 . S
C64 C68 1.373 . S
C64 C70 1.505 . S
C65 C64 1.379 . S
C65 C67 1.369 . S
C65 H76 0.930 . S
C66 C68 1.383 . S
C66 C69 1.382 . S
C66 H77 0.930 . S
C67 C65 1.369 . S
C67 C69 1.392 . S
C67 H78 0.930 . S
C68 C64 1.373 . S
C68 C66 1.383 . S
C68 H79 0.931 . S
C69 C66 1.382 . S
C69 C67 1.392 . S
C70 Eu41 2.828 . S
C70 O54 1.249 . S
C70 O55 1.244 . S
C70 C64 1.505 . S
C71 O58 1.258 . S
C71 O59 1.242 . S
H72 C44 0.930 . S
H73 C45 0.930 . S
H74 C46 0.930 . S
H75 C47 0.931 . S
H76 C65 0.930 . S
H77 C66 0.930 . S
H78 C67 0.930 . S
H79 C68 0.931 . S
Eu80 C89 2.828 . S
Eu80 O91 2.392 . S
Eu80 O93 2.418 . S
Eu80 O98 2.373 . S
Eu80 O101 2.488 . S
Eu80 O102 2.471 . S
Eu80 O103 2.349 . S
Eu81 O90 2.373 . S
Eu81 O94 2.488 . S
Eu81 O95 2.471 . S
Eu81 O96 2.349 . S
Eu81 O99 2.392 . S
Eu81 O100 2.418 . S
Eu81 C110 2.828 . S
C82 O100 1.244 . S
C82 O103 1.265 . S
C83 C84 1.379 . S
C83 C87 1.373 . S
C83 C89 1.505 . S
C84 C83 1.379 . S
C84 C86 1.369 . S
C84 H112 0.930 . S
C85 C87 1.383 . S
C85 C88 1.382 . S
C85 H113 0.930 . S
C86 C84 1.369 . S
C86 C88 1.392 . S
C86 H114 0.930 . S
C87 C83 1.373 . S
C87 C85 1.383 . S
C87 H115 0.931 . S
C88 C85 1.382 . S
C88 C86 1.392 . S
C89 Eu80 2.828 . S
C89 C83 1.505 . S
C89 O101 1.249 . S
C89 O102 1.244 . S
O90 Eu81 2.373 . S
O90 C92 1.258 . S
O91 Eu80 2.392 . S
O91 C92 1.242 . S
C92 O90 1.258 . S
C92 O91 1.242 . S
O93 Eu80 2.418 . S
O93 C97 1.244 . S
O94 Eu81 2.488 . S
O94 C110 1.249 . S
O95 Eu81 2.471 . S
O95 C110 1.244 . S
O96 Eu81 2.349 . S
O96 C97 1.265 . S
C97 O93 1.244 . S
C97 O96 1.265 . S
O98 Eu80 2.373 . S
O98 C111 1.258 . S
O99 Eu81 2.392 . S
O99 C111 1.242 . S
O100 Eu81 2.418 . S
O100 C82 1.244 . S
O101 Eu80 2.488 . S
O101 C89 1.249 . S
O102 Eu80 2.471 . S
O102 C89 1.244 . S
O103 Eu80 2.349 . S
O103 C82 1.265 . S
C104 C105 1.379 . S
C104 C108 1.373 . S
C104 C110 1.505 . S
C105 C104 1.379 . S
C105 C107 1.369 . S
C105 H116 0.930 . S
C106 C108 1.383 . S
C106 C109 1.382 . S
C106 H117 0.930 . S
C107 C105 1.369 . S
C107 C109 1.392 . S
C107 H118 0.930 . S
C108 C104 1.373 . S
C108 C106 1.383 . S
C108 H119 0.931 . S
C109 C106 1.382 . S
C109 C107 1.392 . S
C110 Eu81 2.828 . S
C110 O94 1.249 . S
C110 O95 1.244 . S
C110 C104 1.505 . S
C111 O98 1.258 . S
C111 O99 1.242 . S
H112 C84 0.930 . S
H113 C85 0.930 . S
H114 C86 0.930 . S
H115 C87 0.931 . S
H116 C105 0.930 . S
H117 C106 0.930 . S
H118 C107 0.930 . S
H119 C108 0.931 . S
C120 N121 1.317 . S
C120 N122 1.348 1_545 S
C120 C123 1.485 . S
N121 C120 1.317 . S
N121 N125 1.370 . S
N122 C120 1.348 1_565 S
N122 C124 1.346 . S
C123 C120 1.485 . S
C123 H127 0.960 . S
C123 H128 0.961 1_545 S
C123 H129 0.960 . S
C124 N122 1.346 . S
C124 N125 1.307 1_565 S
C124 C126 1.486 . S
N125 N121 1.370 . S
N125 C124 1.307 1_545 S
C126 C124 1.486 . S
C126 H130 0.960 . S
C126 H131 0.960 . S
C126 H132 0.959 . S
H127 C123 0.960 . S
H128 C123 0.961 1_565 S
H129 C123 0.960 . S
H130 C126 0.960 . S
H131 C126 0.960 . S
H132 C126 0.959 . S
C133 N134 1.317 . S
C133 N135 1.348 . S
C133 C136 1.485 . S
N134 C133 1.317 . S
N134 N138 1.370 . S
N135 C133 1.348 . S
N135 C137 1.346 . S
C136 C133 1.485 . S
C136 H140 0.960 . S
C136 H141 0.961 . S
C136 H142 0.960 . S
C137 N135 1.346 . S
C137 N138 1.307 . S
C137 C139 1.486 . S
N138 N134 1.370 . S
N138 C137 1.307 . S
C139 C137 1.486 . S
C139 H143 0.960 . S
C139 H144 0.960 . S
C139 H145 0.959 . S
H140 C136 0.960 . S
H141 C136 0.961 . S
H142 C136 0.960 . S
H143 C139 0.960 . S
H144 C139 0.960 . S
H145 C139 0.959 . S
C146 N147 1.317 . S
C146 N148 1.348 1_455 S
C146 C149 1.485 . S
N147 C146 1.317 . S
N147 N151 1.370 . S
N148 C146 1.348 1_655 S
N148 C150 1.346 . S
C149 C146 1.485 . S
C149 H153 0.960 . S
C149 H154 0.961 . S
C149 H155 0.960 . S
C150 N148 1.346 . S
C150 N151 1.307 1_655 S
C150 C152 1.486 . S
N151 N147 1.370 . S
N151 C150 1.307 1_455 S
C152 C150 1.486 . S
C152 H156 0.960 . S
C152 H157 0.960 . S
C152 H158 0.959 . S
H153 C149 0.960 . S
H154 C149 0.961 . S
H155 C149 0.960 . S
H156 C152 0.960 . S
H157 C152 0.960 . S
H158 C152 0.959 . S
C159 N160 1.317 . S
C159 N161 1.348 . S
C159 C162 1.485 . S
N160 C159 1.317 . S
N160 N164 1.370 . S
N161 C159 1.348 . S
N161 C163 1.346 . S
C162 C159 1.485 . S
C162 H166 0.960 . S
C162 H167 0.961 . S
C162 H168 0.960 . S
C163 N161 1.346 . S
C163 N164 1.307 . S
C163 C165 1.486 . S
N164 N160 1.370 . S
N164 C163 1.307 . S
C165 C163 1.486 . S
C165 H169 0.960 . S
C165 H170 0.960 . S
C165 H171 0.959 . S
H166 C162 0.960 . S
H167 C162 0.961 . S
H168 C162 0.960 . S
H169 C165 0.960 . S
H170 C165 0.960 . S
H171 C165 0.959 . S
C172 N173 1.317 . S
C172 N174 1.348 . S
C172 C175 1.485 . S
N173 C172 1.317 . S
N173 N177 1.370 . S
N174 C172 1.348 . S
N174 C176 1.346 . S
C175 C172 1.485 . S
C175 H179 0.960 . S
C175 H180 0.961 . S
C175 H181 0.960 . S
C176 N174 1.346 . S
C176 N177 1.307 . S
C176 C178 1.486 . S
N177 N173 1.370 . S
N177 C176 1.307 . S
C178 C176 1.486 . S
C178 H182 0.960 . S
C178 H183 0.960 . S
C178 H184 0.959 . S
H179 C175 0.960 . S
H180 C175 0.961 . S
H181 C175 0.960 . S
H182 C178 0.960 . S
H183 C178 0.960 . S
H184 C178 0.959 . S
C185 N186 1.317 . S
C185 N187 1.348 . S
C185 C188 1.485 . S
N186 C185 1.317 . S
N186 N190 1.370 . S
N187 C185 1.348 . S
N187 C189 1.346 . S
C188 C185 1.485 . S
C188 H192 0.960 . S
C188 H193 0.961 . S
C188 H194 0.960 . S
C189 N187 1.346 . S
C189 N190 1.307 . S
C189 C191 1.486 . S
N190 N186 1.370 . S
N190 C189 1.307 . S
C191 C189 1.486 . S
C191 H195 0.960 . S
C191 H196 0.960 . S
C191 H197 0.959 . S
H192 C188 0.960 . S
H193 C188 0.961 . S
H194 C188 0.960 . S
H195 C191 0.960 . S
H196 C191 0.960 . S
H197 C191 0.959 . S
H198 C204 0.930 . S
H199 C207 0.930 . S
H200 C208 0.930 . S
H201 C209 0.930 . S
H202 C212 0.930 . S
H203 C213 0.930 . S
C204 H198 0.930 . S
C204 C205 1.355 . S
C204 C206 1.415 . S
C205 C204 1.355 . S
C205 C207 1.419 . S
C206 C204 1.415 . S
C206 C211 1.425 . S
C206 C213 1.409 . S
C207 H199 0.930 . S
C207 C205 1.419 . S
C207 C208 1.362 . S
C208 H200 0.930 . S
C208 C207 1.362 . S
C208 C211 1.409 . S
C209 H201 0.930 . S
C209 C210 1.355 . S
C209 C211 1.415 . S
C210 C209 1.355 . S
C210 C212 1.419 . S
C211 C206 1.425 . S
C211 C208 1.409 . S
C211 C209 1.415 . S
C212 H202 0.930 . S
C212 C210 1.419 . S
C212 C213 1.362 . S
C213 H203 0.930 . S
C213 C206 1.409 . S
C213 C212 1.362 . S
H214 C220 0.930 . S
H215 C223 0.930 . S
H216 C224 0.930 . S
H217 C225 0.930 . S
H218 C228 0.930 . S
H219 C229 0.930 . S
C220 H214 0.930 . S
C220 C221 1.355 . S
C220 C222 1.415 . S
C221 C220 1.355 . S
C221 C223 1.419 . S
C222 C220 1.415 . S
C222 C227 1.425 . S
C222 C229 1.409 . S
C223 H215 0.930 . S
C223 C221 1.419 . S
C223 C224 1.362 . S
C224 H216 0.930 . S
C224 C223 1.362 . S
C224 C227 1.409 . S
C225 H217 0.930 . S
C225 C226 1.355 . S
C225 C227 1.415 . S
C226 C225 1.355 . S
C226 C228 1.419 . S
C227 C222 1.425 . S
C227 C224 1.409 . S
C227 C225 1.415 . S
C228 H218 0.930 . S
C228 C226 1.419 . S
C228 C229 1.362 . S
C229 H219 0.930 . S
C229 C222 1.409 . S
C229 C228 1.362 . S
H230 C236 0.930 . S
H231 C239 0.930 . S
H232 C240 0.930 . S
H233 C241 0.930 . S
H234 C244 0.930 . S
H235 C245 0.930 . S
C236 H230 0.930 . S
C236 C237 1.355 . S
C236 C238 1.415 . S
C237 C236 1.355 . S
C237 C239 1.419 . S
C238 C236 1.415 . S
C238 C243 1.425 . S
C238 C245 1.409 . S
C239 H231 0.930 . S
C239 C237 1.419 . S
C239 C240 1.362 . S
C240 H232 0.930 . S
C240 C239 1.362 . S
C240 C243 1.409 . S
C241 H233 0.930 . S
C241 C242 1.355 . S
C241 C243 1.415 . S
C242 C241 1.355 . S
C242 C244 1.419 . S
C243 C238 1.425 . S
C243 C240 1.409 . S
C243 C241 1.415 . S
C244 H234 0.930 . S
C244 C242 1.419 . S
C244 C245 1.362 . S
C245 H235 0.930 . S
C245 C238 1.409 . S
C245 C244 1.362 . S
H246 C252 0.930 . S
H247 C255 0.930 . S
H248 C256 0.930 . S
H249 C257 0.930 . S
H250 C260 0.930 . S
H251 C261 0.930 . S
C252 H246 0.930 . S
C252 C253 1.355 . S
C252 C254 1.415 . S
C253 C252 1.355 . S
C253 C255 1.419 . S
C254 C252 1.415 . S
C254 C259 1.425 . S
C254 C261 1.409 . S
C255 H247 0.930 . S
C255 C253 1.419 . S
C255 C256 1.362 . S
C256 H248 0.930 . S
C256 C255 1.362 . S
C256 C259 1.409 . S
C257 H249 0.930 . S
C257 C258 1.355 . S
C257 C259 1.415 . S
C258 C257 1.355 . S
C258 C260 1.419 . S
C259 C254 1.425 . S
C259 C256 1.409 . S
C259 C257 1.415 . S
C260 H250 0.930 . S
C260 C258 1.419 . S
C260 C261 1.362 . S
C261 H251 0.930 . S
C261 C254 1.409 . S
C261 C260 1.362 . S
H262 C268 0.930 . S
H263 C271 0.930 . S
H264 C272 0.930 . S
H265 C273 0.930 . S
H266 C276 0.930 . S
H267 C277 0.930 . S
C268 H262 0.930 . S
C268 C269 1.355 . S
C268 C270 1.415 . S
C269 C268 1.355 . S
C269 C271 1.419 . S
C270 C268 1.415 . S
C270 C275 1.425 . S
C270 C277 1.409 . S
C271 H263 0.930 . S
C271 C269 1.419 . S
C271 C272 1.362 . S
C272 H264 0.930 . S
C272 C271 1.362 . S
C272 C275 1.409 . S
C273 H265 0.930 . S
C273 C274 1.355 . S
C273 C275 1.415 . S
C274 C273 1.355 . S
C274 C276 1.419 . S
C275 C270 1.425 . S
C275 C272 1.409 . S
C275 C273 1.415 . S
C276 H266 0.930 . S
C276 C274 1.419 . S
C276 C277 1.362 . S
C277 H267 0.930 . S
C277 C270 1.409 . S
C277 C276 1.362 . S
H278 C284 0.930 . S
H279 C287 0.930 . S
H280 C288 0.930 . S
H281 C289 0.930 . S
H282 C292 0.930 . S
H283 C293 0.930 . S
C284 H278 0.930 . S
C284 C285 1.355 . S
C284 C286 1.415 . S
C285 C284 1.355 . S
C285 C287 1.419 . S
C286 C284 1.415 . S
C286 C291 1.425 . S
C286 C293 1.409 . S
C287 H279 0.930 . S
C287 C285 1.419 . S
C287 C288 1.362 . S
C288 H280 0.930 . S
C288 C287 1.362 . S
C288 C291 1.409 . S
C289 H281 0.930 . S
C289 C290 1.355 . S
C289 C291 1.415 . S
C290 C289 1.355 . S
C290 C292 1.419 . S
C291 C286 1.425 . S
C291 C288 1.409 . S
C291 C289 1.415 . S
C292 H282 0.930 . S
C292 C290 1.419 . S
C292 C293 1.362 . S
C293 H283 0.930 . S
C293 C286 1.409 . S
C293 C292 1.362 . S
H294 C300 0.930 . S
H295 C303 0.930 . S
H296 C304 0.930 . S
H297 C305 0.930 . S
H298 C308 0.930 . S
H299 C309 0.930 . S
C300 H294 0.930 . S
C300 C301 1.355 . S
C300 C302 1.415 . S
C301 C300 1.355 . S
C301 C303 1.419 . S
C302 C300 1.415 . S
C302 C307 1.425 . S
C302 C309 1.409 . S
C303 H295 0.930 . S
C303 C301 1.419 . S
C303 C304 1.362 . S
C304 H296 0.930 . S
C304 C303 1.362 . S
C304 C307 1.409 . S
C305 H297 0.930 . S
C305 C306 1.355 . S
C305 C307 1.415 . S
C306 C305 1.355 . S
C306 C308 1.419 . S
C307 C302 1.425 . S
C307 C304 1.409 . S
C307 C305 1.415 . S
C308 H298 0.930 . S
C308 C306 1.419 . S
C308 C309 1.362 . S
C309 H299 0.930 . S
C309 C302 1.409 . S
C309 C308 1.362 . S
H310 C316 0.930 . S
H311 C319 0.930 . S
H312 C320 0.930 . S
H313 C321 0.930 . S
H314 C324 0.926 1_455 S
H315 C325 0.930 . S
C316 H310 0.930 . S
C316 C317 1.355 . S
C316 C318 1.415 . S
C317 C316 1.355 . S
C317 C319 1.419 . S
C318 C316 1.415 . S
C318 C323 1.425 . S
C318 C325 1.409 . S
C319 H311 0.930 . S
C319 C317 1.419 . S
C319 C320 1.362 . S
C320 H312 0.930 . S
C320 C319 1.362 . S
C320 C323 1.409 . S
C321 H313 0.930 . S
C321 C322 1.355 . S
C321 C323 1.415 . S
C322 C321 1.355 . S
C322 C324 1.418 . S
C323 C318 1.425 . S
C323 C320 1.409 . S
C323 C321 1.415 . S
C324 H314 0.926 1_655 S
C324 C322 1.418 . S
C324 C325 1.368 . S
C325 H315 0.930 . S
C325 C318 1.409 . S
C325 C324 1.368 . S
H326 C332 0.930 . S
H327 C335 0.930 . S
H328 C336 0.930 . S
H329 C337 0.930 . S
H330 C340 0.930 1_545 S
H331 C341 0.930 . S
C332 H326 0.930 . S
C332 C333 1.355 . S
C332 C334 1.415 . S
C333 C332 1.355 . S
C333 C335 1.419 . S
C334 C332 1.415 . S
C334 C339 1.425 . S
C334 C341 1.409 . S
C335 H327 0.930 . S
C335 C333 1.419 . S
C335 C336 1.362 . S
C336 H328 0.930 . S
C336 C335 1.362 . S
C336 C339 1.409 . S
C337 H329 0.930 . S
C337 C338 1.355 . S
C337 C339 1.415 . S
C338 C337 1.355 . S
C338 C340 1.419 . S
C339 C334 1.425 . S
C339 C336 1.409 . S
C339 C337 1.415 . S
C340 H330 0.930 1_565 S
C340 C338 1.419 . S
C340 C341 1.362 . S
C341 H331 0.930 . S
C341 C334 1.409 . S
C341 C340 1.362 . S
H342 C348 0.930 . S
H343 C351 0.930 . S
H344 C352 0.930 . S
H345 C353 0.930 . S
H346 C356 0.930 . S
H347 C357 0.930 . S
C348 H342 0.930 . S
C348 C349 1.355 . S
C348 C350 1.415 . S
C349 C348 1.355 . S
C349 C351 1.419 . S
C350 C348 1.415 . S
C350 C355 1.425 . S
C350 C357 1.409 . S
C351 H343 0.930 . S
C351 C349 1.419 . S
C351 C352 1.362 . S
C352 H344 0.930 . S
C352 C351 1.362 . S
C352 C355 1.409 . S
C353 H345 0.930 . S
C353 C354 1.355 . S
C353 C355 1.415 . S
C354 C353 1.355 . S
C354 C356 1.419 . S
C355 C350 1.425 . S
C355 C352 1.409 . S
C355 C353 1.415 . S
C356 H346 0.930 . S
C356 C354 1.419 . S
C356 C357 1.362 . S
C357 H347 0.930 . S
C357 C350 1.409 . S
C357 C356 1.362 . S
H358 C364 0.930 . S
H359 C367 0.930 . S
H360 C368 0.930 . S
H361 C369 0.930 . S
H362 C372 0.930 . S
H363 C373 0.930 . S
C364 H358 0.930 . S
C364 C365 1.355 . S
C364 C366 1.415 . S
C365 C364 1.355 . S
C365 C367 1.419 . S
C366 C364 1.415 . S
C366 C371 1.425 . S
C366 C373 1.409 . S
C367 H359 0.930 . S
C367 C365 1.419 . S
C367 C368 1.362 . S
C368 H360 0.930 . S
C368 C367 1.362 . S
C368 C371 1.409 . S
C369 H361 0.930 . S
C369 C370 1.355 . S
C369 C371 1.415 . S
C370 C369 1.355 . S
C370 C372 1.419 . S
C371 C366 1.425 . S
C371 C368 1.409 . S
C371 C369 1.415 . S
C372 H362 0.930 . S
C372 C370 1.419 . S
C372 C373 1.362 . S
C373 H363 0.930 . S
C373 C366 1.409 . S
C373 C372 1.362 . S
H374 C380 0.930 . S
H375 C383 0.930 . S
H376 C384 0.930 . S
H377 C385 0.930 . S
H378 C388 0.930 1_565 S
H379 C389 0.930 . S
C380 H374 0.930 . S
C380 C381 1.355 . S
C380 C382 1.415 . S
C381 C380 1.355 . S
C381 C383 1.419 . S
C382 C380 1.415 . S
C382 C387 1.425 . S
C382 C389 1.409 . S
C383 H375 0.930 . S
C383 C381 1.419 . S
C383 C384 1.362 . S
C384 H376 0.930 . S
C384 C383 1.362 . S
C384 C387 1.409 . S
C385 H377 0.930 . S
C385 C386 1.355 . S
C385 C387 1.415 . S
C386 C385 1.355 . S
C386 C388 1.419 . S
C387 C382 1.425 . S
C387 C384 1.409 . S
C387 C385 1.415 . S
C388 H378 0.930 1_545 S
C388 C386 1.419 . S
C388 C389 1.362 . S
C389 H379 0.930 . S
C389 C382 1.409 . S
C389 C388 1.362 . S
H390 C396 0.930 . S
H391 C399 0.930 . S
H392 C400 0.930 . S
H393 C401 0.930 1_655 S
H394 C404 0.930 . S
H395 C405 0.930 . S
C396 H390 0.930 . S
C396 C397 1.355 . S
C396 C398 1.415 . S
C397 C396 1.355 . S
C397 C399 1.419 1_455 S
C398 C396 1.415 . S
C398 C403 1.425 . S
C398 C405 1.409 . S
C399 H391 0.930 . S
C399 C397 1.419 1_655 S
C399 C400 1.362 . S
C400 H392 0.930 . S
C400 C399 1.362 . S
C400 C403 1.409 1_655 S
C401 H393 0.930 1_455 S
C401 C402 1.355 . S
C401 C403 1.415 1_556 S
C402 C401 1.355 . S
C402 C404 1.419 . S
C403 C398 1.425 . S
C403 C400 1.409 1_455 S
C403 C401 1.415 1_554 S
C404 H394 0.930 . S
C404 C402 1.419 . S
C404 C405 1.362 1_556 S
C405 H395 0.930 . S
C405 C398 1.409 . S
C405 C404 1.362 1_554 S
H406 C412 0.930 1_565 S
H407 C415 0.930 . S
H408 C416 0.930 . S
H409 C417 0.930 . S
H410 C420 0.930 . S
H411 C421 0.930 . S
C412 H406 0.930 1_545 S
C412 C413 1.355 . S
C412 C414 1.415 . S
C413 C412 1.355 . S
C413 C415 1.419 . S
C414 C412 1.415 . S
C414 C419 1.425 . S
C414 C421 1.409 1_545 S
C415 H407 0.930 . S
C415 C413 1.419 . S
C415 C416 1.362 . S
C416 H408 0.930 . S
C416 C415 1.362 . S
C416 C419 1.409 . S
C417 H409 0.930 . S
C417 C418 1.355 . S
C417 C419 1.415 . S
C418 C417 1.355 . S
C418 C420 1.419 1_545 S
C419 C414 1.425 . S
C419 C416 1.409 . S
C419 C417 1.415 . S
C420 H410 0.930 . S
C420 C418 1.419 1_565 S
C420 C421 1.362 . S
C421 H411 0.930 . S
C421 C414 1.409 1_565 S
C421 C420 1.362 . S
H422 C428 0.930 . S
H423 C431 0.930 . S
H424 C432 0.930 . S
H425 C433 0.930 . S
H426 C436 0.930 . S
H427 C437 0.930 . S
C428 H422 0.930 . S
C428 C429 1.355 . S
C428 C430 1.415 . S
C429 C428 1.355 . S
C429 C431 1.419 . S
C430 C428 1.415 . S
C430 C435 1.425 . S
C430 C437 1.409 . S
C431 H423 0.930 . S
C431 C429 1.419 . S
C431 C432 1.362 . S
C432 H424 0.930 . S
C432 C431 1.362 . S
C432 C435 1.409 . S
C433 H425 0.930 . S
C433 C434 1.355 . S
C433 C435 1.415 . S
C434 C433 1.355 . S
C434 C436 1.419 . S
C435 C430 1.425 . S
C435 C432 1.409 . S
C435 C433 1.415 . S
C436 H426 0.930 . S
C436 C434 1.419 . S
C436 C437 1.362 . S
C437 H427 0.930 . S
C437 C430 1.409 . S
C437 C436 1.362 . S
H438 C444 0.930 1_565 S
H439 C447 0.930 . S
H440 C448 0.930 . S
H441 C449 0.930 . S
H442 C452 0.930 1_565 S
H443 C453 0.933 . S
C444 H438 0.930 1_545 S
C444 C445 1.355 . S
C444 C446 1.415 . S
C445 C444 1.355 . S
C445 C447 1.419 . S
C446 C444 1.415 . S
C446 C451 1.425 . S
C446 C453 1.408 1_545 S
C447 H439 0.930 . S
C447 C445 1.419 . S
C447 C448 1.362 . S
C448 H440 0.930 . S
C448 C447 1.362 . S
C448 C451 1.409 . S
C449 H441 0.930 . S
C449 C450 1.355 . S
C449 C451 1.415 . S
C450 C449 1.355 . S
C450 C452 1.419 . S
C451 C446 1.425 . S
C451 C448 1.409 . S
C451 C449 1.415 . S
C452 H442 0.930 1_545 S
C452 C450 1.419 . S
C452 C453 1.361 1_545 S
C453 H443 0.933 . S
C453 C446 1.408 1_565 S
C453 C452 1.361 1_565 S
H454 C460 0.930 . S
H455 C463 0.930 . S
H456 C464 0.930 . S
H457 C465 0.930 . S
H458 C468 0.930 . S
H459 C469 0.930 . S
C460 H454 0.930 . S
C460 C461 1.355 . S
C460 C462 1.415 . S
C461 C460 1.355 . S
C461 C463 1.419 . S
C462 C460 1.415 . S
C462 C467 1.425 1_556 S
C462 C469 1.409 1_556 S
C463 H455 0.930 . S
C463 C461 1.419 . S
C463 C464 1.362 . S
C464 H456 0.930 . S
C464 C463 1.362 . S
C464 C467 1.409 1_556 S
C465 H457 0.930 . S
C465 C466 1.355 . S
C465 C467 1.415 . S
C466 C465 1.355 . S
C466 C468 1.419 . S
C467 C462 1.425 1_554 S
C467 C464 1.409 1_554 S
C467 C465 1.415 . S
C468 H458 0.930 . S
C468 C466 1.419 . S
C468 C469 1.362 . S
C469 H459 0.930 . S
C469 C462 1.409 1_554 S
C469 C468 1.362 . S
H470 C476 0.930 . S
H471 C479 0.930 . S
H472 C480 0.930 . S
H473 C481 0.930 . S
H474 C484 0.930 . S
H475 C485 0.930 . S
C476 H470 0.930 . S
C476 C477 1.355 1_655 S
C476 C478 1.415 . S
C477 C476 1.355 1_455 S
C477 C479 1.419 . S
C478 C476 1.415 . S
C478 C483 1.425 1_655 S
C478 C485 1.409 . S
C479 H471 0.930 . S
C479 C477 1.419 . S
C479 C480 1.362 . S
C480 H472 0.930 . S
C480 C479 1.362 . S
C480 C483 1.409 . S
C481 H473 0.930 . S
C481 C482 1.355 . S
C481 C483 1.415 . S
C482 C481 1.355 . S
C482 C484 1.419 1_455 S
C483 C478 1.425 1_455 S
C483 C480 1.409 . S
C483 C481 1.415 . S
C484 H474 0.930 . S
C484 C482 1.419 1_655 S
C484 C485 1.362 . S
C485 H475 0.930 . S
C485 C478 1.409 . S
C485 C484 1.362 . S
C205 C12 2.748 . S
C210 N187 2.717 . S
C221 C52 2.898 . S
C226 N160 2.893 1_655 S
C237 C111 2.920 . S
C242 N173 2.929 1_565 S
C253 C31 3.315 . S
C258 N186 3.330 . S
C274 N161 3.091 . S
C269 C71 3.139 . S
C290 N174 3.076 . S
C285 C92 3.105 . S
C301 C48 0.385 . S
C306 N134 0.394 . S
C317 C109 0.593 . S
C322 N148 0.375 . S
C333 C29 0.709 . S
C338 N122 0.743 . S
C354 N135 0.577 . S
C349 C69 0.689 . S
C370 N147 0.538 . S
C365 C88 0.573 . S
C381 C8 0.404 . S
C386 N121 0.358 . S
C402 N151 1.194 . S
C397 C17 1.167 1_455 S
C413 C57 1.236 . S
C418 N125 1.219 . S
C429 C97 1.137 . S
C434 N138 1.196 . S
C450 N177 1.834 . S
C445 C42 1.689 . S
C466 N190 1.739 . S
C461 C82 1.713 . S
C477 C2 1.673 . S
C482 N164 1.797 . S
