# Generated by pormake.
# Topology ctn, (3,4)-cn, num edge types: 1
# Building blocks:
#     Node 0, Type 0, BuildingBlock: QEWDON_clean_linker_0, # of connection points: 3
#     Node 1, Type 0, BuildingBlock: QEWDON_clean_linker_0, # of connection points: 3
#     Node 2, Type 0, BuildingBlock: QEWDON_clean_linker_0, # of connection points: 3
#     Node 3, Type 0, BuildingBlock: QEWDON_clean_linker_0, # of connection points: 3
#     Node 4, Type 0, BuildingBlock: QEWDON_clean_linker_0, # of connection points: 3
#     Node 5, Type 0, BuildingBlock: QEWDON_clean_linker_0, # of connection points: 3
#     Node 6, Type 0, BuildingBlock: QEWDON_clean_linker_0, # of connection points: 3
#     Node 7, Type 0, BuildingBlock: QEWDON_clean_linker_0, # of connection points: 3
#     Node 8, Type 0, BuildingBlock: QEWDON_clean_linker_0, # of connection points: 3
#     Node 9, Type 0, BuildingBlock: QEWDON_clean_linker_0, # of connection points: 3
#     Node 10, Type 0, BuildingBlock: QEWDON_clean_linker_0, # of connection points: 3
#     Node 11, Type 0, BuildingBlock: QEWDON_clean_linker_0, # of connection points: 3
#     Node 12, Type 0, BuildingBlock: QEWDON_clean_linker_0, # of connection points: 3
#     Node 13, Type 0, BuildingBlock: QEWDON_clean_linker_0, # of connection points: 3
#     Node 14, Type 0, BuildingBlock: QEWDON_clean_linker_0, # of connection points: 3
#     Node 15, Type 0, BuildingBlock: QEWDON_clean_linker_0, # of connection points: 3
#     Node 16, Type 1, BuildingBlock: KUFVIS_clean_sbu_0, # of connection points: 4
#     Node 17, Type 1, BuildingBlock: KUFVIS_clean_sbu_0, # of connection points: 4
#     Node 18, Type 1, BuildingBlock: KUFVIS_clean_sbu_0, # of connection points: 4
#     Node 19, Type 1, BuildingBlock: KUFVIS_clean_sbu_0, # of connection points: 4
#     Node 20, Type 1, BuildingBlock: KUFVIS_clean_sbu_0, # of connection points: 4
#     Node 21, Type 1, BuildingBlock: KUFVIS_clean_sbu_0, # of connection points: 4
#     Node 22, Type 1, BuildingBlock: KUFVIS_clean_sbu_0, # of connection points: 4
#     Node 23, Type 1, BuildingBlock: KUFVIS_clean_sbu_0, # of connection points: 4
#     Node 24, Type 1, BuildingBlock: KUFVIS_clean_sbu_0, # of connection points: 4
#     Node 25, Type 1, BuildingBlock: KUFVIS_clean_sbu_0, # of connection points: 4
#     Node 26, Type 1, BuildingBlock: KUFVIS_clean_sbu_0, # of connection points: 4
#     Node 27, Type 1, BuildingBlock: KUFVIS_clean_sbu_0, # of connection points: 4
#     Edge 28, Type (0, 1), BuildingBlock: KIFKEQ_clean_linker_1, # of connection points: 2
#     Edge 29, Type (0, 1), BuildingBlock: KIFKEQ_clean_linker_1, # of connection points: 2
#     Edge 30, Type (0, 1), BuildingBlock: KIFKEQ_clean_linker_1, # of connection points: 2
#     Edge 31, Type (0, 1), BuildingBlock: KIFKEQ_clean_linker_1, # of connection points: 2
#     Edge 32, Type (0, 1), BuildingBlock: KIFKEQ_clean_linker_1, # of connection points: 2
#     Edge 33, Type (0, 1), BuildingBlock: KIFKEQ_clean_linker_1, # of connection points: 2
#     Edge 34, Type (0, 1), BuildingBlock: KIFKEQ_clean_linker_1, # of connection points: 2
#     Edge 35, Type (0, 1), BuildingBlock: KIFKEQ_clean_linker_1, # of connection points: 2
#     Edge 36, Type (0, 1), BuildingBlock: KIFKEQ_clean_linker_1, # of connection points: 2
#     Edge 37, Type (0, 1), BuildingBlock: KIFKEQ_clean_linker_1, # of connection points: 2
#     Edge 38, Type (0, 1), BuildingBlock: KIFKEQ_clean_linker_1, # of connection points: 2
#     Edge 39, Type (0, 1), BuildingBlock: KIFKEQ_clean_linker_1, # of connection points: 2
#     Edge 40, Type (0, 1), BuildingBlock: KIFKEQ_clean_linker_1, # of connection points: 2
#     Edge 41, Type (0, 1), BuildingBlock: KIFKEQ_clean_linker_1, # of connection points: 2
#     Edge 42, Type (0, 1), BuildingBlock: KIFKEQ_clean_linker_1, # of connection points: 2
#     Edge 43, Type (0, 1), BuildingBlock: KIFKEQ_clean_linker_1, # of connection points: 2
#     Edge 44, Type (0, 1), BuildingBlock: KIFKEQ_clean_linker_1, # of connection points: 2
#     Edge 45, Type (0, 1), BuildingBlock: KIFKEQ_clean_linker_1, # of connection points: 2
#     Edge 46, Type (0, 1), BuildingBlock: KIFKEQ_clean_linker_1, # of connection points: 2
#     Edge 47, Type (0, 1), BuildingBlock: KIFKEQ_clean_linker_1, # of connection points: 2
#     Edge 48, Type (0, 1), BuildingBlock: KIFKEQ_clean_linker_1, # of connection points: 2
#     Edge 49, Type (0, 1), BuildingBlock: KIFKEQ_clean_linker_1, # of connection points: 2
#     Edge 50, Type (0, 1), BuildingBlock: KIFKEQ_clean_linker_1, # of connection points: 2
#     Edge 51, Type (0, 1), BuildingBlock: KIFKEQ_clean_linker_1, # of connection points: 2
#     Edge 52, Type (0, 1), BuildingBlock: KIFKEQ_clean_linker_1, # of connection points: 2
#     Edge 53, Type (0, 1), BuildingBlock: KIFKEQ_clean_linker_1, # of connection points: 2
#     Edge 54, Type (0, 1), BuildingBlock: KIFKEQ_clean_linker_1, # of connection points: 2
#     Edge 55, Type (0, 1), BuildingBlock: KIFKEQ_clean_linker_1, # of connection points: 2
#     Edge 56, Type (0, 1), BuildingBlock: KIFKEQ_clean_linker_1, # of connection points: 2
#     Edge 57, Type (0, 1), BuildingBlock: KIFKEQ_clean_linker_1, # of connection points: 2
#     Edge 58, Type (0, 1), BuildingBlock: KIFKEQ_clean_linker_1, # of connection points: 2
#     Edge 59, Type (0, 1), BuildingBlock: KIFKEQ_clean_linker_1, # of connection points: 2
#     Edge 60, Type (0, 1), BuildingBlock: KIFKEQ_clean_linker_1, # of connection points: 2
#     Edge 61, Type (0, 1), BuildingBlock: KIFKEQ_clean_linker_1, # of connection points: 2
#     Edge 62, Type (0, 1), BuildingBlock: KIFKEQ_clean_linker_1, # of connection points: 2
#     Edge 63, Type (0, 1), BuildingBlock: KIFKEQ_clean_linker_1, # of connection points: 2
#     Edge 64, Type (0, 1), BuildingBlock: KIFKEQ_clean_linker_1, # of connection points: 2
#     Edge 65, Type (0, 1), BuildingBlock: KIFKEQ_clean_linker_1, # of connection points: 2
#     Edge 66, Type (0, 1), BuildingBlock: KIFKEQ_clean_linker_1, # of connection points: 2
#     Edge 67, Type (0, 1), BuildingBlock: KIFKEQ_clean_linker_1, # of connection points: 2
#     Edge 68, Type (0, 1), BuildingBlock: KIFKEQ_clean_linker_1, # of connection points: 2
#     Edge 69, Type (0, 1), BuildingBlock: KIFKEQ_clean_linker_1, # of connection points: 2
#     Edge 70, Type (0, 1), BuildingBlock: KIFKEQ_clean_linker_1, # of connection points: 2
#     Edge 71, Type (0, 1), BuildingBlock: KIFKEQ_clean_linker_1, # of connection points: 2
#     Edge 72, Type (0, 1), BuildingBlock: KIFKEQ_clean_linker_1, # of connection points: 2
#     Edge 73, Type (0, 1), BuildingBlock: KIFKEQ_clean_linker_1, # of connection points: 2
#     Edge 74, Type (0, 1), BuildingBlock: KIFKEQ_clean_linker_1, # of connection points: 2
#     Edge 75, Type (0, 1), BuildingBlock: KIFKEQ_clean_linker_1, # of connection points: 2
# Relax obj value: 0.125
# Max RMSD: 0.269
# Mean RMSD: 0.161
data_MOF--net-ctn--node1-KUFVIS_clean_sbu_0--node2-QEWDON_clean_linker_0--edge1-KIFKEQ_clean_linker_1
_symmetry_space_group_name_H-M    P1
_symmetry_Int_Tables_number       1
_symmetry_cell_setting            triclinic
loop_
_symmetry_equiv_pos_as_xyz
'x, y, z'
_cell_length_a     52.809422
_cell_length_b     55.003935
_cell_length_c     58.856203
_cell_angle_alpha  99.031777
_cell_angle_beta   92.552308
_cell_angle_gamma 96.810451
loop_
_atom_site_label
_atom_site_type_symbol
_atom_site_fract_x
_atom_site_fract_y
_atom_site_fract_z
_atom_type_partial_charge
H0 H 0.11141 0.04324 0.05588 0.0
C1 C 0.09889 0.03863 0.06908 0.0
C2 C 0.09792 0.01521 0.07625 0.0
C3 C 0.08531 0.05708 0.08009 0.0
H4 H 0.0814 0.99278 0.10038 0.0
C5 C 0.08248 0.01057 0.09456 0.0
C6 C 0.06905 0.02906 0.10604 0.0
C7 C 0.07046 0.05211 0.09839 0.0
C8 C 0.08933 0.08274 0.07487 0.0
H9 H 0.06022 0.06654 0.10693 0.0
C10 C 0.08301 0.08828 0.05283 0.0
C11 C 0.08706 0.11303 0.04868 0.0
C12 C 0.09965 0.10204 0.09255 0.0
H13 H 0.10469 0.09819 0.10956 0.0
C14 C 0.10379 0.1264 0.08846 0.0
H15 H 0.07496 0.0735 0.03912 0.0
C16 C 0.09757 0.1319 0.06675 0.0
H17 H 0.10059 0.15108 0.06419 0.0
H18 H 0.11177 0.14112 0.10222 0.0
H19 H 0.38443 0.73586 0.2308 0.0
C20 C 0.37017 0.71968 0.22652 0.0
C21 C 0.37395 0.69766 0.23481 0.0
C22 C 0.34729 0.72173 0.21433 0.0
H23 H 0.35702 0.6605 0.23709 0.0
C24 C 0.35488 0.67714 0.22982 0.0
C25 C 0.33169 0.67906 0.21793 0.0
C26 C 0.32809 0.70136 0.21007 0.0
C27 C 0.34144 0.74664 0.21112 0.0
H28 H 0.30972 0.7034 0.2021 0.0
C29 C 0.34115 0.75434 0.18936 0.0
C30 C 0.3367 0.77881 0.18742 0.0
C31 C 0.3367 0.76319 0.23068 0.0
H32 H 0.33682 0.75753 0.24752 0.0
C33 C 0.33174 0.78709 0.22877 0.0
H34 H 0.34506 0.74167 0.17426 0.0
C35 C 0.33176 0.79488 0.20737 0.0
H36 H 0.32766 0.81355 0.20641 0.0
H37 H 0.32794 0.79967 0.24394 0.0
H38 H 0.04277 0.48403 0.04848 0.0
C39 C 0.02755 0.49513 0.04599 0.0
C40 C 0.0193 0.5106 0.06493 0.0
C41 C 0.01716 0.49457 0.02355 0.0
H42 H 0.99289 0.5371 0.07519 0.0
C43 C 0.99936 0.52485 0.06098 0.0
C44 C 0.988 0.52364 0.03857 0.0
C45 C 0.99723 0.50857 0.02004 0.0
C46 C 0.02913 0.48173 1.00352 0.0
H47 H 0.98935 0.50828 1.00265 0.0
C48 C 0.03218 0.45635 1.00132 0.0
C49 C 0.04467 0.44493 0.98258 0.0
C50 C 0.03854 0.49545 0.9868 0.0
H51 H 0.03659 0.51501 0.98822 0.0
C52 C 0.05108 0.48426 0.96838 0.0
H53 H 0.02487 0.44558 0.01408 0.0
C54 C 0.05422 0.45921 0.9663 0.0
H55 H 0.06366 0.45084 0.95163 0.0
H56 H 0.05837 0.49504 0.95566 0.0
H57 H 0.77201 0.83084 0.23148 0.0
C58 C 0.7695 0.82164 0.2137 0.0
C59 C 0.77855 0.83416 0.19593 0.0
C60 C 0.75945 0.7965 0.20901 0.0
H61 H 0.78355 0.83041 0.15929 0.0
C62 C 0.77644 0.82117 0.17312 0.0
C63 C 0.76662 0.79585 0.16823 0.0
C64 C 0.75801 0.78377 0.18632 0.0
C65 C 0.7546 0.78245 0.22817 0.0
H66 H 0.75087 0.76415 0.1829 0.0
C67 C 0.73478 0.78688 0.24295 0.0
C68 C 0.73124 0.77359 0.26145 0.0
C69 C 0.77064 0.76467 0.23191 0.0
H70 H 0.78602 0.76109 0.22075 0.0
C71 C 0.76729 0.75168 0.25028 0.0
H72 H 0.72227 0.80051 0.24008 0.0
C73 C 0.74779 0.75611 0.26499 0.0
H74 H 0.74534 0.7455 0.27895 0.0
H75 H 0.77981 0.73807 0.25309 0.0
H76 H 0.11118 0.97212 0.49917 0.0
C77 C 0.09897 0.97928 0.48718 0.0
C78 C 0.10696 1.00216 0.48014 0.0
C79 C 0.07588 0.96506 0.47779 0.0
H80 H 0.09823 0.028 0.45779 0.0
C81 C 0.0917 0.01072 0.46363 0.0
C82 C 0.06873 0.99664 0.45386 0.0
C83 C 0.06083 0.97406 0.46137 0.0
C84 C 0.06909 0.93918 0.48208 0.0
H85 H 0.04355 0.9627 0.45346 0.0
C86 C 0.06528 0.93336 0.50439 0.0
C87 C 0.05738 0.90856 0.50715 0.0
C88 C 0.06564 0.91992 0.46301 0.0
H89 H 0.06866 0.92383 0.44579 0.0
C90 C 0.05829 0.89548 0.46586 0.0
H91 H 0.06771 0.94798 0.51926 0.0
C92 C 0.05404 0.88983 0.48773 0.0
H93 H 0.04806 0.87072 0.48952 0.0
H94 H 0.05569 0.88085 0.45101 0.0
H95 H 0.27604 0.67815 0.79313 0.0
C96 C 0.27129 0.68735 0.80979 0.0
C97 C 0.28176 0.68084 0.83001 0.0
C98 C 0.25603 0.70667 0.81078 0.0
H99 H 0.2845 0.68873 0.86708 0.0
C100 C 0.2765 0.69385 0.85151 0.0
C101 C 0.26115 0.71339 0.85294 0.0
C102 C 0.25083 0.7194 0.8323 0.0
C103 C 0.24944 0.7163 0.78943 0.0
H104 H 0.2402 0.73514 0.83278 0.0
C105 C 0.22389 0.71583 0.781 0.0
C106 C 0.2185 0.72511 0.76044 0.0
C107 C 0.26942 0.72645 0.77749 0.0
H108 H 0.28914 0.72711 0.78378 0.0
C109 C 0.26422 0.73624 0.75764 0.0
H110 H 0.20848 0.70769 0.79005 0.0
C111 C 0.23906 0.73568 0.74921 0.0
H112 H 0.23574 0.74375 0.73387 0.0
H113 H 0.27977 0.74434 0.74875 0.0
H114 H 0.99666 0.57943 0.47145 0.0
C115 C 0.98558 0.56608 0.48 0.0
C116 C 0.98287 0.57154 0.50392 0.0
C117 C 0.97284 0.54403 0.46694 0.0
H118 H 0.96434 0.55936 0.53289 0.0
C119 C 0.96723 0.55478 0.51467 0.0
C120 C 0.95425 0.5328 0.50186 0.0
C121 C 0.95767 0.52736 0.47816 0.0
C122 C 0.97191 0.5398 0.44126 0.0
H123 H 0.94719 0.51073 0.46807 0.0
C124 C 0.99418 0.54131 0.42878 0.0
C125 C 0.99212 0.53721 0.4044 0.0
C126 C 0.94786 0.53421 0.42905 0.0
H127 H 0.93045 0.53327 0.43812 0.0
C128 C 0.94586 0.53009 0.40507 0.0
H129 H 0.01284 0.54571 0.43791 0.0
C130 C 0.96776 0.53157 0.39281 0.0
H131 H 0.96568 0.52822 0.37414 0.0
H132 H 0.92723 0.5258 0.39592 0.0
H133 H 0.86447 0.84238 0.80345 0.0
C134 C 0.86188 0.82903 0.81514 0.0
C135 C 0.87373 0.80716 0.81153 0.0
C136 C 0.84728 0.83429 0.83425 0.0
H137 H 0.87911 0.77345 0.8249 0.0
C138 C 0.87011 0.79028 0.82731 0.0
C139 C 0.85501 0.79498 0.84631 0.0
C140 C 0.84394 0.81723 0.84964 0.0
C141 C 0.83902 0.85922 0.84043 0.0
H142 H 0.83324 0.82175 0.8647 0.0
C143 C 0.81859 0.86714 0.82827 0.0
C144 C 0.81072 0.89069 0.83576 0.0
C145 C 0.85179 0.87515 0.85951 0.0
H146 H 0.8675 0.86944 0.869 0.0
C147 C 0.84457 0.89855 0.86651 0.0
H148 H 0.80846 0.85481 0.81367 0.0
C149 C 0.82425 0.90626 0.85482 0.0
H150 H 0.81917 0.92461 0.86069 0.0
H151 H 0.8547 0.91074 0.88116 0.0
H152 H 0.35942 0.34432 0.31078 0.0
C153 C 0.35656 0.32981 0.32127 0.0
C154 C 0.37016 0.3091 0.31731 0.0
C155 C 0.3406 0.33281 0.3397 0.0
H156 H 0.37694 0.27474 0.32876 0.0
C157 C 0.36704 0.29099 0.33192 0.0
C158 C 0.35058 0.29335 0.35016 0.0
C159 C 0.33767 0.31446 0.35388 0.0
C160 C 0.32954 0.35643 0.34621 0.0
H161 H 0.32566 0.31702 0.36832 0.0
C162 C 0.31388 0.3662 0.33061 0.0
C163 C 0.30423 0.38894 0.33768 0.0
C164 C 0.33519 0.36956 0.36869 0.0
H165 H 0.34726 0.3626 0.38092 0.0
C166 C 0.32574 0.39195 0.3756 0.0
H167 H 0.3093 0.35628 0.31323 0.0
C168 C 0.31046 0.40161 0.36025 0.0
H169 H 0.30323 0.41901 0.3661 0.0
H170 H 0.33033 0.4019 0.39295 0.0
H171 H 0.54351 0.98353 0.54946 0.0
C172 C 0.52816 0.9945 0.54705 0.0
C173 C 0.52018 0.01017 0.56599 0.0
C174 C 0.51733 0.9936 0.52472 0.0
H175 H 0.49376 0.0366 0.57641 0.0
C176 C 0.50006 0.02424 0.56219 0.0
C177 C 0.48827 0.02269 0.53988 0.0
C178 C 0.49725 1.00746 0.52133 0.0
C179 C 0.52894 0.98046 0.50462 0.0
H180 H 0.48904 1.0069 0.504 0.0
C181 C 0.53197 0.95511 0.5027 0.0
C182 C 0.54417 0.9434 0.48392 0.0
C183 C 0.53806 0.99387 0.48758 0.0
H184 H 0.5361 0.01342 0.48879 0.0
C185 C 0.55032 0.98238 0.46912 0.0
H186 H 0.52487 0.94459 0.51571 0.0
C187 C 0.55346 0.95735 0.46731 0.0
H188 H 0.56268 0.94873 0.45261 0.0
H189 H 0.55739 0.99292 0.45614 0.0
H190 H 0.27527 0.33752 0.73015 0.0
C191 C 0.27193 0.32726 0.71276 0.0
C192 C 0.279 0.33876 0.69384 0.0
C193 C 0.26266 0.30197 0.70972 0.0
H194 H 0.28221 0.33291 0.65694 0.0
C195 C 0.27622 0.32445 0.67157 0.0
C196 C 0.2672 0.29891 0.6683 0.0
C197 C 0.26017 0.28795 0.68754 0.0
C198 C 0.26069 0.28929 0.73 0.0
H199 H 0.25379 0.26821 0.68545 0.0
C200 C 0.23787 0.28648 0.74137 0.0
C201 C 0.23679 0.2741 0.76067 0.0
C202 C 0.28239 0.28001 0.73806 0.0
H203 H 0.30009 0.28212 0.72951 0.0
C204 C 0.2815 0.26806 0.75724 0.0
H205 H 0.22107 0.29352 0.73502 0.0
C206 C 0.25894 0.26512 0.76848 0.0
H207 H 0.25893 0.256 0.78351 0.0
H208 H 0.29838 0.26108 0.76344 0.0
H209 H 0.89621 0.22762 0.73046 0.0
C210 C 0.88007 0.21324 0.72623 0.0
C211 C 0.881 0.19011 0.7334 0.0
C212 C 0.85801 0.21871 0.71478 0.0
H213 H 0.85968 0.15419 0.73388 0.0
C214 C 0.85952 0.17203 0.72829 0.0
C215 C 0.83714 0.17725 0.71718 0.0
C216 C 0.83653 0.20057 0.71029 0.0
C217 C 0.85704 0.24431 0.70981 0.0
H218 H 0.81905 0.20491 0.70237 0.0
C219 C 0.84892 0.24885 0.68784 0.0
C220 C 0.8504 0.27342 0.68327 0.0
C221 C 0.86545 0.2646 0.72727 0.0
H222 H 0.87134 0.26169 0.74441 0.0
C223 C 0.86644 0.28883 0.72288 0.0
H224 H 0.84244 0.23343 0.67419 0.0
C225 C 0.85919 0.29324 0.70102 0.0
H226 H 0.86018 0.31226 0.69801 0.0
H227 H 0.87299 0.30426 0.73646 0.0
H228 H 0.61086 0.54149 0.55501 0.0
C229 C 0.59917 0.53747 0.56898 0.0
C230 C 0.59962 0.51482 0.57727 0.0
C231 C 0.58545 0.55586 0.57988 0.0
H232 H 0.58528 0.49303 0.60258 0.0
C233 C 0.5853 0.51052 0.59629 0.0
C234 C 0.5709 0.52855 0.6071 0.0
C235 C 0.5713 0.55117 0.59872 0.0
C236 C 0.58883 0.58131 0.57405 0.0
H237 H 0.56132 0.56571 0.60745 0.0
C238 C 0.58238 0.58619 0.55178 0.0
C239 C 0.5861 0.61075 0.54707 0.0
C240 C 0.59894 0.60109 0.59137 0.0
H241 H 0.60414 0.59778 0.60853 0.0
C242 C 0.60273 0.62526 0.58672 0.0
H243 H 0.5745 0.57106 0.53833 0.0
C244 C 0.59639 0.63009 0.56479 0.0
H245 H 0.59917 0.64913 0.56178 0.0
H246 H 0.61054 0.64034 0.60021 0.0
H247 H 0.61562 0.47645 1.0005 0.0
C248 C 0.6025 0.48178 0.98802 0.0
C249 C 0.60851 0.50423 0.97959 0.0
C250 C 0.58053 0.46544 0.97922 0.0
H251 H 0.59724 0.52724 0.95529 0.0
C252 C 0.59208 0.51048 0.96247 0.0
C253 C 0.57042 0.494 0.95305 0.0
C254 C 0.5647 0.47171 0.96176 0.0
C255 C 0.57652 0.43988 0.9848 0.0
H256 H 0.54836 0.45864 0.95425 0.0
C257 C 0.57085 0.43498 1.00704 0.0
C258 C 0.56691 0.4102 0.01118 0.0
C259 C 0.57823 0.41993 0.96707 0.0
H260 H 0.58258 0.42325 0.94991 0.0
C261 C 0.57458 0.39556 0.97126 0.0
H262 H 0.56931 0.45017 0.02085 0.0
C263 C 0.56899 0.39071 0.99314 0.0
H264 H 0.56606 0.37161 0.99599 0.0
H265 H 0.57603 0.38037 0.95747 0.0
H266 H 0.77591 0.17328 0.29178 0.0
C267 C 0.77207 0.18473 0.30769 0.0
C268 C 0.78305 0.18068 0.32876 0.0
C269 C 0.75745 0.20432 0.30672 0.0
H270 H 0.78777 0.19393 0.36549 0.0
C271 C 0.77889 0.19643 0.3492 0.0
C272 C 0.76406 0.21603 0.3485 0.0
C273 C 0.75328 0.2197 0.3272 0.0
C274 C 0.74987 0.21081 0.28407 0.0
H275 H 0.74266 0.2353 0.32646 0.0
C276 C 0.72425 0.21296 0.27763 0.0
C277 C 0.71779 0.21928 0.25589 0.0
C278 C 0.76895 0.2154 0.26887 0.0
H279 H 0.78877 0.21411 0.27356 0.0
C280 C 0.76281 0.22226 0.24774 0.0
H281 H 0.70947 0.20907 0.28922 0.0
C282 C 0.73755 0.22429 0.24131 0.0
H283 H 0.73357 0.23004 0.22488 0.0
H284 H 0.77773 0.22612 0.2363 0.0
H285 H 0.497 0.09636 0.97572 0.0
C286 C 0.48497 0.08089 0.9806 0.0
C287 C 0.47701 0.08231 1.00327 0.0
C288 C 0.47567 0.06048 0.96361 0.0
H289 H 0.453 0.06393 0.02588 0.0
C290 C 0.45973 0.06274 1.00868 0.0
C291 C 0.44982 0.04244 0.99174 0.0
C292 C 0.4585 0.04127 0.96939 0.0
C293 C 0.47871 0.06167 0.93894 0.0
H294 H 0.45086 0.026 0.95597 0.0
C295 C 0.49938 0.05286 0.92719 0.0
C296 C 0.50006 0.05232 0.90312 0.0
C297 C 0.45921 0.07035 0.92667 0.0
H298 H 0.44314 0.07705 0.93541 0.0
C299 C 0.46002 0.07013 0.90303 0.0
H300 H 0.51439 0.04596 0.93655 0.0
C301 C 0.48018 0.0611 0.8913 0.0
H302 H 0.48042 0.0613 0.87293 0.0
H303 H 0.44488 0.07687 0.89372 0.0
Mn304 Mn 0.27008 0.87338 0.0237 0.0
Mn305 Mn 0.25965 0.88958 0.97137 0.0
C306 C 0.2523 0.84403 0.99247 0.0
C307 C 0.2936 0.85853 0.05202 0.0
C308 C 0.22747 0.9038 0.01143 0.0
O309 O 0.29497 0.90531 0.02558 0.0
O310 O 0.28607 0.91439 0.99008 0.0
C311 C 0.31008 0.88301 0.95284 0.0
N312 N 0.2842 0.8771 0.95116 0.0
C313 C 0.28585 0.84862 0.91591 0.0
C314 C 0.3125 0.85448 0.91723 0.0
C315 C 0.32466 0.87174 0.93579 0.0
C316 C 0.2723 0.86057 0.93334 0.0
H317 H 0.31954 0.89618 0.96711 0.0
C318 C 0.29846 0.91888 0.00988 0.0
O319 O 0.27587 0.87249 0.05705 0.0
O320 O 0.29853 0.85383 0.03044 0.0
N321 N 0.23489 0.86648 0.95176 0.0
C322 C 0.2093 0.86155 0.95391 0.0
C323 C 0.19441 0.84402 0.93716 0.0
C324 C 0.20599 0.83178 0.91837 0.0
C325 C 0.23236 0.83717 0.91651 0.0
C326 C 0.24618 0.85495 0.93364 0.0
H327 H 0.20034 0.8708 0.96839 0.0
O328 O 0.24741 0.84091 0.01334 0.0
O329 O 0.266 0.8647 0.9907 0.0
O330 O 0.23967 0.89337 0.02551 0.0
O331 O 0.23288 0.90317 0.99045 0.0
C332 C 0.24555 0.82522 0.8986 0.0
C333 C 0.27228 0.83093 0.8983 0.0
H334 H 0.32384 0.84569 0.9042 0.0
H335 H 0.34523 0.87627 0.93698 0.0
H336 H 0.17409 0.83987 0.93877 0.0
H337 H 0.19449 0.81808 0.90561 0.0
H338 H 0.23538 0.81133 0.88515 0.0
H339 H 0.28225 0.82132 0.88465 0.0
Mn340 Mn 0.16071 0.51847 0.25209 0.0
Mn341 Mn 0.144 0.5761 0.25359 0.0
C342 C 0.18706 0.54868 0.23753 0.0
C343 C 0.18222 0.49022 0.26944 0.0
C344 C 0.11947 0.53147 0.21917 0.0
O345 O 0.1333 0.51992 0.27601 0.0
O346 O 0.12682 0.55993 0.27758 0.0
C347 C 0.1678 0.60006 0.29938 0.0
N348 N 0.16504 0.59948 0.27617 0.0
C349 C 0.19286 0.6379 0.2788 0.0
C350 C 0.19588 0.63901 0.30275 0.0
C351 C 0.18339 0.61994 0.31306 0.0
C352 C 0.17716 0.6176 0.26605 0.0
H353 H 0.15817 0.58548 0.30737 0.0
C354 C 0.12318 0.53905 0.28477 0.0
O355 O 0.16404 0.48259 0.2534 0.0
O356 O 0.187 0.514 0.27596 0.0
N357 N 0.15974 0.59392 0.23141 0.0
C358 C 0.15646 0.58905 0.20797 0.0
C359 C 0.1687 0.60571 0.19492 0.0
C360 C 0.18387 0.62735 0.20611 0.0
C361 C 0.18681 0.63204 0.23025 0.0
C362 C 0.1743 0.61469 0.24234 0.0
H363 H 0.14467 0.57254 0.19928 0.0
O364 O 0.18868 0.52531 0.23096 0.0
O365 O 0.17012 0.55361 0.25231 0.0
O366 O 0.13332 0.51569 0.22518 0.0
O367 O 0.1214 0.55393 0.22939 0.0
C368 C 0.20191 0.6531 0.24279 0.0
C369 C 0.20507 0.65596 0.26704 0.0
H370 H 0.20789 0.6543 0.31336 0.0
H371 H 0.18573 0.6206 0.33152 0.0
H372 H 0.16636 0.60193 0.17629 0.0
H373 H 0.1933 0.64015 0.19599 0.0
H374 H 0.2116 0.66698 0.23392 0.0
H375 H 0.2172 0.67196 0.27645 0.0
Mn376 Mn 0.81158 0.64478 0.99554 0.0
Mn377 Mn 0.75553 0.65664 0.97181 0.0
C378 C 0.77313 0.62017 0.99939 0.0
C379 C 0.84915 0.6257 0.997 0.0
C380 C 0.78164 0.68692 0.01581 0.0
O381 O 0.82378 0.66699 0.97171 0.0
O382 O 0.78492 0.67194 0.95696 0.0
C383 C 0.75846 0.62694 0.92564 0.0
N384 N 0.74548 0.6325 0.94487 0.0
C385 C 0.70971 0.60228 0.92934 0.0
C386 C 0.72254 0.59647 0.90923 0.0
C387 C 0.74708 0.60876 0.90744 0.0
C388 C 0.72207 0.62045 0.94695 0.0
H389 H 0.77738 0.63621 0.92426 0.0
C390 C 0.80937 0.67548 0.95746 0.0
O391 O 0.84664 0.64641 0.01001 0.0
O392 O 0.83043 0.61672 0.98172 0.0
N393 N 0.72512 0.64293 0.98413 0.0
C394 C 0.71557 0.6503 1.00488 0.0
C395 C 0.69106 0.63999 0.00938 0.0
C396 C 0.67653 0.6224 0.99245 0.0
C397 C 0.68673 0.61509 0.97123 0.0
C398 C 0.71111 0.62628 0.96761 0.0
H399 H 0.72648 0.66406 0.01787 0.0
O400 O 0.79252 0.62148 0.01404 0.0
O401 O 0.77664 0.63321 0.98297 0.0
O402 O 0.8005 0.67456 0.01599 0.0
O403 O 0.76367 0.68216 0.9999 0.0
C404 C 0.67369 0.5971 0.95357 0.0
C405 C 0.68526 0.59056 0.93271 0.0
H406 H 0.71383 0.58247 0.89515 0.0
H407 H 0.75721 0.60423 0.89206 0.0
H408 H 0.68331 0.6457 0.0258 0.0
H409 H 0.65753 0.61469 0.99589 0.0
H410 H 0.6549 0.58797 0.95596 0.0
H411 H 0.67521 0.57645 0.91938 0.0
Mn412 Mn 0.92561 0.02123 0.27717 0.0
Mn413 Mn 0.94328 0.96349 0.27065 0.0
C414 C 0.89982 0.98808 0.25493 0.0
C415 C 0.90409 0.05273 0.29636 0.0
C416 C 0.96588 1.00307 0.24421 0.0
O417 O 0.95259 0.02404 0.30401 0.0
O418 O 0.96262 0.9849 0.29776 0.0
C419 C 0.92253 0.9488 0.31314 0.0
N420 N 0.92366 0.94446 0.2898 0.0
C421 C 0.89421 0.90698 0.28648 0.0
C422 C 0.89285 0.91097 0.31049 0.0
C423 C 0.90701 0.93201 0.32386 0.0
C424 C 0.90997 0.92437 0.27676 0.0
H425 H 0.93334 0.96496 0.32348 0.0
C426 C 0.96514 1.00695 0.30926 0.0
O427 O 0.92274 0.05765 0.28348 0.0
O428 O 0.89879 0.02973 0.29896 0.0
N429 N 0.92611 0.94048 0.2453 0.0
C430 C 0.92905 0.93965 0.22231 0.0
C431 C 0.91617 0.91973 0.20655 0.0
C432 C 0.9006 0.90078 0.21457 0.0
C433 C 0.89798 0.90194 0.2383 0.0
C434 C 0.91152 0.9221 0.25322 0.0
H435 H 0.94113 0.95407 0.21603 0.0
O436 O 0.8981 0.01064 0.25173 0.0
O437 O 0.91661 0.98554 0.27093 0.0
O438 O 0.9533 0.02017 0.25336 0.0
O439 O 0.96377 0.98141 0.24976 0.0
C440 C 0.8823 0.88401 0.24773 0.0
C441 C 0.88032 0.88659 0.27179 0.0
H442 H 0.88088 0.89808 0.31883 0.0
H443 H 0.90597 0.93527 0.3424 0.0
H444 H 0.91828 0.91897 0.18825 0.0
H445 H 0.89073 0.88544 0.20236 0.0
H446 H 0.87145 0.86833 0.2366 0.0
H447 H 0.86797 0.87285 0.27881 0.0
Mn448 Mn 0.30983 0.14192 0.49841 0.0
Mn449 Mn 0.2536 0.15323 0.47467 0.0
C450 C 0.27162 0.11702 0.50238 0.0
C451 C 0.3476 0.12319 0.49967 0.0
C452 C 0.27985 0.18407 0.51841 0.0
O453 O 0.32168 0.16411 0.47448 0.0
O454 O 0.28274 0.16828 0.45927 0.0
C455 C 0.25598 0.12279 0.42876 0.0
N456 N 0.24325 0.1287 0.44807 0.0
C457 C 0.20736 0.0983 0.43324 0.0
C458 C 0.21992 0.09217 0.41303 0.0
C459 C 0.2444 0.10437 0.41085 0.0
C460 C 0.21991 0.11673 0.45054 0.0
H461 H 0.27488 0.13196 0.42711 0.0
C462 C 0.3072 0.1721 0.45992 0.0
O463 O 0.34499 0.14385 0.51273 0.0
O464 O 0.32883 0.11404 0.4845 0.0
N465 N 0.22348 0.13968 0.48753 0.0
C466 C 0.21433 0.14718 0.50844 0.0
C467 C 0.19001 0.13683 0.5134 0.0
C468 C 0.17526 0.11906 0.49677 0.0
C469 C 0.18506 0.11159 0.4754 0.0
C470 C 0.20927 0.12282 0.47131 0.0
H471 H 0.22542 0.16106 0.5212 0.0
O472 O 0.29108 0.11851 0.517 0.0
O473 O 0.27495 0.13007 0.48595 0.0
O474 O 0.29861 0.17162 0.51885 0.0
O475 O 0.26197 0.17922 0.50241 0.0
C476 C 0.17181 0.09339 0.45804 0.0
C477 C 0.18304 0.08661 0.43704 0.0
H478 H 0.21106 0.07796 0.39918 0.0
H479 H 0.25433 0.09956 0.3954 0.0
H480 H 0.18258 0.14265 0.52995 0.0
H481 H 0.15642 0.1113 0.50059 0.0
H482 H 0.15314 0.08425 0.46078 0.0
H483 H 0.17285 0.07231 0.42396 0.0
Mn484 Mn 0.42577 0.52271 0.77657 0.0
Mn485 Mn 0.43997 0.46376 0.76753 0.0
C486 C 0.39938 0.49162 0.75192 0.0
C487 C 0.40452 0.55396 0.79658 0.0
C488 C 0.46729 0.50497 0.74528 0.0
O489 O 0.45165 0.5225 0.80395 0.0
O490 O 0.45679 0.48192 0.79715 0.0
C491 C 0.41245 0.44592 0.80575 0.0
N492 N 0.4169 0.44338 0.78294 0.0
C493 C 0.3865 0.40644 0.77429 0.0
C494 C 0.38199 0.40838 0.79777 0.0
C495 C 0.3949 0.4283 0.81354 0.0
C496 C 0.40419 0.42458 0.76756 0.0
H497 H 0.42206 0.46138 0.81787 0.0
C498 C 0.46081 0.50352 0.80955 0.0
O499 O 0.42412 0.55929 0.78487 0.0
O500 O 0.39833 0.5307 0.7978 0.0
N501 N 0.42462 0.44378 0.73962 0.0
C502 C 0.42999 0.44542 0.71744 0.0
C503 C 0.41817 0.42724 0.69945 0.0
C504 C 0.40113 0.40746 0.70445 0.0
C505 C 0.39593 0.40612 0.72741 0.0
C506 C 0.40846 0.42466 0.74463 0.0
H507 H 0.44324 0.46043 0.71346 0.0
O508 O 0.39894 0.51475 0.75008 0.0
O509 O 0.41516 0.48746 0.76792 0.0
O510 O 0.45434 0.52204 0.75379 0.0
O511 O 0.46415 0.48304 0.75024 0.0
C512 C 0.37861 0.38726 0.73386 0.0
C513 C 0.37376 0.38752 0.75726 0.0
H514 H 0.36841 0.39488 0.80383 0.0
H515 H 0.39128 0.43011 0.83164 0.0
H516 H 0.42225 0.42842 0.68177 0.0
H517 H 0.39208 0.39347 0.69052 0.0
H518 H 0.36861 0.37269 0.72092 0.0
H519 H 0.36002 0.37321 0.76196 0.0
Mn520 Mn 0.76877 0.3707 0.52415 0.0
Mn521 Mn 0.76664 0.39536 0.47514 0.0
C522 C 0.75481 0.34575 0.48907 0.0
C523 C 0.78801 0.35129 0.55183 0.0
C524 C 0.72926 0.40438 0.51229 0.0
O525 O 0.79396 0.40272 0.53224 0.0
O526 O 0.79186 0.41667 0.49806 0.0
C527 C 0.81864 0.38992 0.45991 0.0
N528 N 0.79281 0.38502 0.45582 0.0
C529 C 0.79713 0.36293 0.41782 0.0
C530 C 0.82378 0.36781 0.42159 0.0
C531 C 0.83458 0.3813 0.44276 0.0
C532 C 0.78222 0.37205 0.43552 0.0
H533 H 0.82703 0.40033 0.47613 0.0
C534 C 0.80095 0.41826 0.51889 0.0
O535 O 0.76952 0.36441 0.55643 0.0
O536 O 0.7962 0.35013 0.53123 0.0
N537 N 0.74318 0.37581 0.4517 0.0
C538 C 0.71727 0.37095 0.45158 0.0
C539 C 0.70357 0.3565 0.43211 0.0
C540 C 0.71663 0.34734 0.41296 0.0
C541 C 0.7433 0.35261 0.41349 0.0
C542 C 0.75594 0.36708 0.43337 0.0
H543 H 0.70717 0.37793 0.46628 0.0
O544 O 0.7471 0.33953 0.50827 0.0
O545 O 0.76936 0.3668 0.49103 0.0
O546 O 0.73816 0.39049 0.52522 0.0
O547 O 0.73856 0.40755 0.49319 0.0
C548 C 0.75789 0.34375 0.39523 0.0
C549 C 0.78479 0.34897 0.39737 0.0
H550 H 0.83614 0.36109 0.40844 0.0
H551 H 0.85513 0.38506 0.44583 0.0
H552 H 0.68299 0.35243 0.43187 0.0
H553 H 0.706 0.33612 0.39801 0.0
H554 H 0.74865 0.33258 0.3796 0.0
H555 H 0.79581 0.34175 0.38334 0.0
Mn556 Mn 0.66513 0.01843 0.75073 0.0
Mn557 Mn 0.64761 0.07592 0.75387 0.0
C558 C 0.6909 0.04932 0.73656 0.0
C559 C 0.68664 0.98985 0.76758 0.0
C560 C 0.6231 0.03166 0.71894 0.0
O561 O 0.63773 0.01893 0.77459 0.0
O562 O 0.63149 0.05919 0.77807 0.0
C563 C 0.67287 0.09932 0.79927 0.0
N564 N 0.66903 0.09923 0.77622 0.0
C565 C 0.6963 0.13797 0.77872 0.0
C566 C 0.70028 0.13864 0.80254 0.0
C567 C 0.68863 0.11915 0.81283 0.0
C568 C 0.6804 0.11773 0.7661 0.0
H569 H 0.66403 0.08433 0.80721 0.0
C570 C 0.62796 0.03783 0.78435 0.0
O571 O 0.66867 0.98248 0.75131 0.0
O572 O 0.69146 0.01359 0.77444 0.0
N573 N 0.66227 0.0943 0.73159 0.0
C574 C 0.65832 0.08973 0.70818 0.0
C575 C 0.6698 0.10677 0.69511 0.0
C576 C 0.68496 0.12845 0.70622 0.0
C577 C 0.68861 0.13282 0.73033 0.0
C578 C 0.67677 0.11514 0.74245 0.0
H579 H 0.64656 0.07319 0.69954 0.0
O580 O 0.69293 0.02608 0.72969 0.0
O581 O 0.67406 0.05373 0.75158 0.0
O582 O 0.63766 0.01604 0.72406 0.0
O583 O 0.62455 0.0538 0.7299 0.0
C584 C 0.70385 0.15385 0.74278 0.0
C585 C 0.70784 0.15635 0.76695 0.0
H586 H 0.71248 0.15387 0.81305 0.0
H587 H 0.69179 0.11942 0.83117 0.0
H588 H 0.66693 0.10323 0.6765 0.0
H589 H 0.69384 0.14151 0.69607 0.0
H590 H 0.71303 0.16797 0.73388 0.0
H591 H 0.7201 0.17231 0.77626 0.0
Mn592 Mn 0.05555 0.22692 0.87975 0.0
Mn593 Mn 0.99609 0.22587 0.89861 0.0
C594 C 0.02077 0.20507 0.85684 0.0
C595 C 0.08957 0.2435 0.86043 0.0
C596 C 0.03573 0.19667 0.91648 0.0
O597 O 0.05908 0.25721 0.90531 0.0
O598 O 0.01831 0.25535 0.91581 0.0
C599 C 0.98183 0.27091 0.88216 0.0
N600 N 0.97726 0.24602 0.88224 0.0
C601 C 0.94017 0.2421 0.856 0.0
C602 C 0.94441 0.26771 0.85574 0.0
C603 C 0.96536 0.28215 0.86885 0.0
C604 C 0.95719 0.23194 0.86965 0.0
H605 H 0.99797 0.28209 0.89212 0.0
C606 C 0.04153 0.26577 0.91736 0.0
O607 O 0.09296 0.22996 0.87619 0.0
O608 O 0.06643 0.24825 0.85641 0.0
N609 N 0.97279 0.19848 0.88281 0.0
C610 C 0.97218 0.17387 0.88396 0.0
C611 C 0.95269 0.15679 0.8714 0.0
C612 C 0.934 0.16519 0.85789 0.0
C613 C 0.93497 0.19062 0.85706 0.0
C614 C 0.95475 0.20678 0.87004 0.0
H615 H 0.98651 0.16731 0.8943 0.0
O616 O 0.04352 0.1989 0.85385 0.0
O617 O 0.01921 0.22319 0.87349 0.0
O618 O 0.05301 0.20341 0.90351 0.0
O619 O 0.01371 0.20411 0.91625 0.0
C620 C 0.91729 0.20052 0.84361 0.0
C621 C 0.91996 0.22622 0.84299 0.0
H622 H 0.93182 0.27644 0.84542 0.0
H623 H 0.96884 0.30191 0.86865 0.0
H624 H 0.95211 0.13719 0.87209 0.0
H625 H 0.91911 0.15194 0.84809 0.0
H626 H 0.9017 0.18851 0.83349 0.0
H627 H 0.90648 0.23355 0.8323 0.0
Mn628 Mn 0.55236 0.72651 0.38034 0.0
Mn629 Mn 0.49346 0.72525 0.40038 0.0
C630 C 0.51681 0.70662 0.35712 0.0
C631 C 0.58627 0.74444 0.36174 0.0
C632 C 0.53323 0.69476 0.41606 0.0
O633 O 0.55667 0.7554 0.40736 0.0
O634 O 0.51587 0.75445 0.41776 0.0
C635 C 0.47814 0.77077 0.38567 0.0
N636 N 0.47395 0.74575 0.38509 0.0
C637 C 0.43582 0.74229 0.36021 0.0
C638 C 0.43966 0.76802 0.36064 0.0
C639 C 0.46096 0.78231 0.37337 0.0
C640 C 0.45361 0.73182 0.37277 0.0
H641 H 0.49449 0.78182 0.39543 0.0
C642 C 0.53933 0.76424 0.41953 0.0
O643 O 0.58965 0.72945 0.37623 0.0
O644 O 0.56316 0.74963 0.35844 0.0
N645 N 0.47015 0.69801 0.38434 0.0
C646 C 0.47003 0.67327 0.3846 0.0
C647 C 0.45039 0.65633 0.37211 0.0
C648 C 0.43105 0.66499 0.35957 0.0
C649 C 0.43154 0.69053 0.35961 0.0
C650 C 0.45155 0.70655 0.37243 0.0
H651 H 0.48483 0.66651 0.39422 0.0
O652 O 0.5393 0.70021 0.35315 0.0
O653 O 0.51603 0.72365 0.37488 0.0
O654 O 0.54995 0.70121 0.40248 0.0
O655 O 0.51165 0.70308 0.41705 0.0
C656 C 0.41317 0.70071 0.34717 0.0
C657 C 0.41526 0.72658 0.34755 0.0
H658 H 0.4265 0.77698 0.35113 0.0
H659 H 0.46412 0.80216 0.3737 0.0
H660 H 0.45018 0.63663 0.37212 0.0
H661 H 0.41602 0.65185 0.34985 0.0
H662 H 0.3975 0.68879 0.33707 0.0
H663 H 0.40111 0.73416 0.33779 0.0
Mn664 Mn 0.02467 0.76521 0.64376 0.0
Mn665 Mn 0.99861 0.71049 0.65732 0.0
C666 C 0.02562 0.72819 0.61838 0.0
C667 C 0.02298 0.80104 0.62683 0.0
C668 C 0.04963 0.73782 0.67859 0.0
O669 O 1.00164 0.77602 0.67006 0.0
O670 O 0.98293 0.73815 0.67475 0.0
C671 C 0.94633 0.70975 0.63656 0.0
N672 N 0.96782 0.6986 0.63853 0.0
C673 C 0.94959 0.66282 0.61128 0.0
C674 C 0.92707 0.67372 0.60932 0.0
C675 C 0.9255 0.69735 0.6219 0.0
C676 C 0.96973 0.67609 0.62614 0.0
H677 H 0.94521 0.72804 0.64594 0.0
C678 C 0.98545 0.76191 0.67933 0.0
O679 O 0.04005 0.80006 0.64308 0.0
O680 O 1.00582 0.78175 0.62141 0.0
N681 N 0.01176 0.68196 0.64155 0.0
C682 C 0.03528 0.67461 0.6445 0.0
C683 C 0.04019 0.65153 0.63282 0.0
C684 C 0.02085 0.63617 0.61839 0.0
C685 C 0.99678 0.64409 0.61565 0.0
C686 C 0.99292 0.66715 0.62794 0.0
H687 H 0.05017 0.6862 0.65575 0.0
O688 O 0.04178 0.74756 0.61717 0.0
O689 O 0.00946 0.73107 0.63426 0.0
O690 O 0.05017 0.75536 0.66674 0.0
O691 O 0.03076 0.72068 0.67721 0.0
C692 C 0.97656 0.63011 0.60105 0.0
C693 C 0.95304 0.63955 0.59875 0.0
H694 H 0.91099 0.66425 0.59798 0.0
H695 H 0.9083 0.70602 0.62025 0.0
H696 H 0.05882 0.64555 0.635 0.0
H697 H 0.0247 0.61835 0.60948 0.0
H698 H 0.97901 0.61225 0.59126 0.0
H699 H 0.93779 0.62884 0.58716 0.0
Mn700 Mn 0.52316 0.27294 0.15059 0.0
Mn701 Mn 0.49513 0.21972 0.1657 0.0
C702 C 0.52115 0.2354 0.12544 0.0
C703 C 0.52306 0.30884 0.13349 0.0
C704 C 0.54776 0.24479 0.1849 0.0
O705 O 0.50189 0.28538 0.17768 0.0
O706 O 0.48137 0.24854 0.18346 0.0
C707 C 0.44232 0.2207 0.14702 0.0
N708 N 0.46338 0.20878 0.14813 0.0
C709 C 0.44264 0.17301 0.12223 0.0
C710 C 0.42056 0.18475 0.12114 0.0
C711 C 0.42046 0.20877 0.13347 0.0
C712 C 0.46385 0.18586 0.13597 0.0
H713 H 0.44229 0.23921 0.15628 0.0
C714 C 0.48543 0.27231 0.18767 0.0
O715 O 0.54033 0.30696 0.14925 0.0
O716 O 0.50475 0.29047 0.12869 0.0
N717 N 0.50644 0.1903 0.14964 0.0
C718 C 0.52973 0.18216 0.15145 0.0
C719 C 0.53336 0.15881 0.13942 0.0
C720 C 0.51296 0.14395 0.1259 0.0
C721 C 0.4891 0.15259 0.12451 0.0
C722 C 0.48661 0.17601 0.13689 0.0
H723 H 0.54545 0.19339 0.16194 0.0
O724 O 0.53814 0.25389 0.12348 0.0
O725 O 0.50588 0.23942 0.14192 0.0
O726 O 0.54876 0.26203 0.17273 0.0
O727 O 0.52812 0.22869 0.18448 0.0
C728 C 0.46777 0.139 0.11115 0.0
C729 C 0.44457 0.14923 0.10995 0.0
H730 H 0.40368 0.17561 0.11069 0.0
H731 H 0.4036 0.21808 0.13252 0.0
H732 H 0.55184 0.15227 0.14059 0.0
H733 H 0.51587 0.126 0.11656 0.0
H734 H 0.46911 0.12082 0.10142 0.0
H735 H 0.42844 0.13879 0.09927 0.0
H736 H 0.29543 0.72645 0.89074 0.0
H737 H 0.21923 0.7362 0.86691 0.0
H738 H 0.29141 0.75416 0.92628 0.0
H739 H 0.21609 0.76567 0.90188 0.0
H740 H 0.21196 0.80834 0.97492 0.0
H741 H 0.21262 0.7737 0.94297 0.0
H742 H 0.29292 0.79693 0.93724 0.0
H743 H 0.29218 0.83042 0.96916 0.0
C744 C 0.27765 0.73421 0.89307 0.0
C745 C 0.25773 0.72897 0.87565 0.0
C746 C 0.27551 0.75056 0.91344 0.0
C747 C 0.25356 0.76258 0.91694 0.0
C748 C 0.23322 0.7567 0.89994 0.0
C749 C 0.23523 0.74004 0.87965 0.0
C750 C 0.22968 0.80571 0.96684 0.0
C751 C 0.25186 0.82233 0.97404 0.0
C752 C 0.2301 0.78602 0.94848 0.0
C753 C 0.25284 0.78241 0.93738 0.0
C754 C 0.27513 0.79866 0.94545 0.0
C755 C 0.27466 0.81816 0.96359 0.0
H756 H 0.03398 0.51179 0.40465 0.0
H757 H 1.00051 0.56614 0.37169 0.0
H758 H 0.06791 0.51131 0.37721 0.0
H759 H 0.03377 0.56557 0.34441 0.0
H760 H 0.10769 0.57817 0.31249 0.0
H761 H 0.07936 0.57796 0.34358 0.0
H762 H 0.07248 0.49797 0.33413 0.0
H763 H 0.10167 0.49808 0.3027 0.0
C764 C 0.03418 0.52393 0.39182 0.0
C765 C 0.01476 0.53914 0.39035 0.0
C766 C 0.05335 0.52342 0.37595 0.0
C767 C 0.05357 0.53838 0.35858 0.0
C768 C 0.03444 0.55402 0.35768 0.0
C769 C 0.01532 0.55435 0.37329 0.0
C770 C 0.10029 0.56039 0.31688 0.0
C771 C 0.10672 0.53806 0.30465 0.0
C772 C 0.08395 0.56033 0.33482 0.0
C773 C 0.0733 0.53796 0.34117 0.0
C774 C 0.08042 0.51556 0.32969 0.0
C775 C 0.09701 0.5156 0.31159 0.0
H776 H 0.88946 0.76778 0.86455 0.0
H777 H 0.81052 0.78105 0.86551 0.0
H778 H 0.88134 0.73785 0.89109 0.0
H779 H 0.8027 0.75197 0.89224 0.0
H780 H 0.78674 0.67951 0.91626 0.0
H781 H 0.79988 0.70724 0.88978 0.0
H782 H 0.86946 0.73382 0.93217 0.0
H783 H 0.85625 0.70523 0.95909 0.0
C784 C 0.8704 0.76432 0.87036 0.0
C785 C 0.85062 0.77684 0.86273 0.0
C786 C 0.86583 0.74737 0.88578 0.0
C787 C 0.84132 0.7423 0.89373 0.0
C788 C 0.82174 0.75507 0.88628 0.0
C789 C 0.8263 0.772 0.87105 0.0
C790 C 0.80501 0.69101 0.92003 0.0
C791 C 0.82025 0.69026 0.94011 0.0
C792 C 0.81248 0.70712 0.9048 0.0
C793 C 0.83544 0.72328 0.90905 0.0
C794 C 0.85157 0.72168 0.92841 0.0
C795 C 0.84405 0.70529 0.94382 0.0
H796 H 0.08798 0.01259 0.41564 0.0
H797 H 0.01691 0.9967 0.44711 0.0
H798 H 0.06437 0.02001 0.38125 0.0
H799 H 0.99325 1.00412 0.41261 0.0
H800 H 0.95977 0.03566 0.35103 0.0
H801 H 0.98556 0.03742 0.38724 0.0
H802 H 0.03544 0.99006 0.35114 0.0
H803 H 0.00965 0.98801 0.31534 0.0
C804 C 0.06733 0.01118 0.41542 0.0
C805 C 0.05434 1.004 0.43413 0.0
C806 C 0.0538 0.01526 0.39564 0.0
C807 C 0.02693 0.01259 0.39416 0.0
C808 C 0.01394 1.00653 0.41327 0.0
C809 C 0.02748 1.00209 0.43296 0.0
C810 C 0.97657 0.0261 0.35081 0.0
C811 C 0.98271 0.01173 0.33034 0.0
C812 C 0.99118 0.02691 0.37154 0.0
C813 C 0.01253 0.01384 0.37206 0.0
C814 C 0.01929 1.00051 0.35133 0.0
C815 C 1.00445 0.99929 0.33081 0.0
H816 H 0.25136 0.30804 0.62553 0.0
H817 H 0.28496 0.2541 0.65918 0.0
H818 H 0.25427 0.2822 0.58793 0.0
H819 H 0.28734 0.22831 0.62203 0.0
H820 H 0.31628 0.20223 0.55323 0.0
H821 H 0.31258 0.23114 0.58817 0.0
H822 H 0.23621 0.2402 0.56463 0.0
H823 H 0.23987 0.2111 0.52919 0.0
C824 C 0.25925 0.29067 0.62491 0.0
C825 C 0.26781 0.28308 0.64537 0.0
C826 C 0.26076 0.27581 0.60343 0.0
C827 C 0.27119 0.25328 0.60199 0.0
C828 C 0.2795 0.2457 0.62248 0.0
C829 C 0.27784 0.26037 0.64384 0.0
C830 C 0.29869 0.21044 0.55527 0.0
C831 C 0.27825 0.20401 0.53838 0.0
C832 C 0.29656 0.22698 0.57543 0.0
C833 C 0.27396 0.23766 0.57937 0.0
C834 C 0.25389 0.23227 0.56208 0.0
C835 C 0.25599 0.21557 0.5418 0.0
H836 H 0.52361 0.54155 0.61727 0.0
H837 H 0.58509 0.50667 0.6439 0.0
H838 H 0.50062 0.53703 0.65163 0.0
H839 H 0.562 0.50207 0.67833 0.0
H840 H 0.4991 0.47389 0.72378 0.0
H841 H 0.52449 0.47962 0.69112 0.0
H842 H 0.50188 0.55273 0.69257 0.0
H843 H 0.476 0.54687 0.72508 0.0
C844 C 0.53233 0.53303 0.63051 0.0
C845 C 0.5563 0.52453 0.62773 0.0
C846 C 0.51914 0.53051 0.65031 0.0
C847 C 0.52947 0.51935 0.66794 0.0
C848 C 0.5533 0.51054 0.66505 0.0
C849 C 0.56653 0.5131 0.64523 0.0
C850 C 0.4997 0.49135 0.71737 0.0
C851 C 0.48531 0.50988 0.72717 0.0
C852 C 0.5144 0.49465 0.69859 0.0
C853 C 0.51515 0.51656 0.68898 0.0
C854 C 0.50144 0.53542 0.69922 0.0
C855 C 0.48675 0.53215 0.71807 0.0
H856 H 0.87885 0.30111 0.6569 0.0
H857 H 0.80463 0.25935 0.65837 0.0
H858 H 0.86423 0.31696 0.62271 0.0
H859 H 0.78983 0.27532 0.62412 0.0
H860 H 0.76665 0.34222 0.5913 0.0
H861 H 0.78217 0.31915 0.61996 0.0
H862 H 0.84746 0.3054 0.5805 0.0
H863 H 0.83169 0.32846 0.55142 0.0
C864 C 0.85954 0.29494 0.64957 0.0
C865 C 0.84281 0.2791 0.66029 0.0
C866 C 0.85121 0.30393 0.62996 0.0
C867 C 0.82583 0.29756 0.62084 0.0
C868 C 0.80945 0.28072 0.6309 0.0
C869 C 0.81793 0.27142 0.65035 0.0
C870 C 0.78431 0.33426 0.58864 0.0
C871 C 0.79803 0.33731 0.56912 0.0
C872 C 0.79305 0.3208 0.60497 0.0
C873 C 0.81592 0.31028 0.60241 0.0
C874 C 0.82974 0.31331 0.58291 0.0
C875 C 0.82075 0.3265 0.5663 0.0
H876 H 0.50017 0.01553 0.60888 0.0
H877 H 0.57144 0.01016 0.57622 0.0
H878 H 0.52287 0.01832 0.64658 0.0
H879 H 0.5937 0.01217 0.61359 0.0
H880 H 0.62351 0.99437 0.68185 0.0
H881 H 0.59712 0.9877 0.64562 0.0
H882 H 0.55554 0.04777 0.67246 0.0
H883 H 0.58173 0.05443 0.70857 0.0
C884 C 0.52061 0.01499 0.60965 0.0
C885 C 0.53379 0.01235 0.5893 0.0
C886 C 0.53361 0.01646 0.63129 0.0
C887 C 0.56009 0.01513 0.63312 0.0
C888 C 0.57324 0.01264 0.61282 0.0
C889 C 0.56036 0.01145 0.59131 0.0
C890 C 0.60844 1.00586 0.68019 0.0
C891 C 0.60488 0.02501 0.69816 0.0
C892 C 0.59345 1.00218 0.65934 0.0
C893 C 0.57432 0.01734 0.65604 0.0
C894 C 0.56996 0.03566 0.67442 0.0
C895 C 0.58511 0.03953 0.69512 0.0
H896 H 0.93182 0.20654 0.7305 0.0
H897 H 0.88111 0.16491 0.77038 0.0
H898 H 0.96683 0.20704 0.75907 0.0
H899 H 0.91673 0.16416 0.79803 0.0
H900 H 0.9977 0.15935 0.83506 0.0
H901 H 0.9648 0.15122 0.80268 0.0
H902 H 0.96871 0.23 0.80232 0.0
H903 H 1.00073 0.23798 0.83462 0.0
C904 C 0.92813 0.1972 0.74512 0.0
C905 C 0.90337 0.18616 0.74827 0.0
C906 C 0.94828 0.19732 0.76136 0.0
C907 C 0.94434 0.18591 0.78086 0.0
C908 C 0.92022 0.17312 0.78315 0.0
C909 C 0.89986 0.17345 0.76715 0.0
C910 C 0.99138 0.17478 0.82795 0.0
C911 C 1.00121 0.19927 0.8375 0.0
C912 C 0.97268 0.17018 0.80953 0.0
C913 C 0.96442 0.19 0.79995 0.0
C914 C 0.97494 0.21437 0.80919 0.0
C915 C 0.99306 0.21894 0.82777 0.0
H916 H 0.58695 0.92078 0.47599 0.0
H917 H 0.50615 0.90534 0.48391 0.0
H918 H 0.5895 0.87646 0.4654 0.0
H919 H 0.50817 0.86118 0.47225 0.0
H920 H 0.51654 0.78133 0.45853 0.0
H921 H 0.52074 0.82378 0.47905 0.0
H922 H 0.57858 0.84532 0.43372 0.0
H923 H 0.57523 0.8026 0.41413 0.0
C924 C 0.56976 0.90779 0.47562 0.0
C925 C 0.54634 0.91644 0.4807 0.0
C926 C 0.57114 0.88239 0.46936 0.0
C927 C 0.54901 0.86502 0.46763 0.0
C928 C 0.52576 0.87376 0.47369 0.0
C929 C 0.5245 0.89914 0.48032 0.0
C930 C 0.53059 0.79507 0.45335 0.0
C931 C 0.54549 0.78864 0.43465 0.0
C932 C 0.53282 0.81951 0.46496 0.0
C933 C 0.54963 0.8383 0.45786 0.0
C934 C 0.56558 0.83149 0.43996 0.0
C935 C 0.56367 0.80691 0.42863 0.0
H936 H 0.20278 0.30738 0.77321 0.0
H937 H 0.21678 0.23208 0.77589 0.0
H938 H 0.16642 0.3019 0.79729 0.0
H939 H 0.18089 0.22672 0.79988 0.0
H940 H 0.13912 0.23505 0.86512 0.0
H941 H 0.1733 0.24361 0.84004 0.0
H942 H 0.12266 0.27765 0.79862 0.0
H943 H 0.0882 0.2692 0.82399 0.0
C944 C 0.19789 0.28959 0.77864 0.0
C945 C 0.21293 0.2703 0.77294 0.0
C946 C 0.17713 0.28647 0.79247 0.0
C947 C 0.17111 0.26404 0.80087 0.0
C948 C 0.18544 0.24445 0.79422 0.0
C949 C 0.20601 0.24752 0.78043 0.0
C950 C 0.13525 0.24457 0.85081 0.0
C951 C 0.11086 0.25128 0.84648 0.0
C952 C 0.15483 0.24933 0.83633 0.0
C953 C 0.15058 0.26096 0.81712 0.0
C954 C 0.12651 0.26867 0.81328 0.0
C955 C 0.1068 0.26379 0.82779 0.0
H956 H 0.5407 0.59711 0.52102 0.0
H957 H 0.61505 0.63935 0.52175 0.0
H958 H 0.52696 0.61344 0.48663 0.0
H959 H 0.60139 0.65599 0.48796 0.0
H960 H 0.57673 0.67236 0.41902 0.0
H961 H 0.58896 0.64743 0.44741 0.0
H962 H 0.51695 0.65369 0.47844 0.0
H963 H 0.50441 0.67824 0.44973 0.0
C964 C 0.55424 0.60947 0.51355 0.0
C965 C 0.57891 0.61703 0.52413 0.0
C966 C 0.54631 0.61906 0.49403 0.0
C967 C 0.56298 0.63622 0.48457 0.0
C968 C 0.58806 0.64269 0.49455 0.0
C969 C 0.59588 0.63326 0.51404 0.0
C970 C 0.56333 0.66825 0.43172 0.0
C971 C 0.53966 0.67765 0.43215 0.0
C972 C 0.57042 0.65399 0.4481 0.0
C973 C 0.55408 0.6487 0.46542 0.0
C974 C 0.52996 0.65718 0.46527 0.0
C975 C 0.52283 0.67145 0.44886 0.0
H976 H 0.90645 0.84048 0.7926 0.0
H977 H 0.87867 0.76234 0.78503 0.0
H978 H 0.93232 0.83216 0.75965 0.0
H979 H 0.90581 0.75385 0.7534 0.0
H980 H 0.93621 0.74451 0.68427 0.0
H981 H 0.90919 0.75723 0.71491 0.0
H982 H 0.96909 0.8151 0.74552 0.0
H983 H 0.99586 0.80291 0.71366 0.0
C984 C 0.90576 0.82151 0.78395 0.0
C985 C 0.89017 0.80213 0.79158 0.0
C986 C 0.92097 0.8167 0.76518 0.0
C987 C 0.92118 0.79233 0.75354 0.0
C988 C 0.90587 0.77297 0.76143 0.0
C989 C 0.89052 0.77779 0.77998 0.0
C990 C 0.94354 0.76024 0.69729 0.0
C991 C 0.96827 0.77264 0.6965 0.0
C992 C 0.92809 0.76738 0.71514 0.0
C993 C 0.93702 0.78683 0.73323 0.0
C994 C 0.96141 0.80005 0.73195 0.0
C995 C 0.97682 0.79312 0.71367 0.0
H996 H 0.09116 0.89905 0.53995 0.0
H997 H 0.01085 0.89937 0.52398 0.0
H998 H 0.08118 0.87646 0.57173 0.0
H999 H 1.00058 0.87743 0.55613 0.0
H1000 H 0.9937 0.80548 0.58844 0.0
H1001 H 1.00124 0.836 0.56288 0.0
H1002 H 0.06471 0.87426 0.60866 0.0
H1003 H 0.0575 0.84327 0.63395 0.0
C1004 C 0.0714 0.89513 0.54389 0.0
C1005 C 0.05179 0.90126 0.5298 0.0
C1006 C 0.06558 0.88209 0.56207 0.0
C1007 C 0.03999 0.87478 0.56648 0.0
C1008 C 0.02047 0.88228 0.55308 0.0
C1009 C 0.02631 0.89521 0.53488 0.0
C1010 C 0.009 0.82063 0.59328 0.0
C1011 C 0.02504 0.82179 0.61323 0.0
C1012 C 0.0133 0.83829 0.57862 0.0
C1013 C 0.03374 0.85768 0.58352 0.0
C1014 C 0.04907 0.85943 0.60406 0.0
C1015 C 0.04479 0.84173 0.61869 0.0
H1016 H 0.17417 0.73248 0.78256 0.0
H1017 H 0.20223 0.71469 0.71484 0.0
H1018 H 0.13174 0.73478 0.76463 0.0
H1019 H 0.16052 0.71805 0.69729 0.0
H1020 H 0.09725 0.76306 0.67786 0.0
H1021 H 0.13638 0.75829 0.69922 0.0
H1022 H 0.09456 0.70478 0.73435 0.0
H1023 H 0.05501 0.70912 0.71257 0.0
C1024 C 0.1713 0.72878 0.76394 0.0
C1025 C 0.19186 0.72391 0.75018 0.0
C1026 C 0.14705 0.73019 0.75372 0.0
C1027 C 0.14304 0.72701 0.72959 0.0
C1028 C 0.16322 0.72105 0.71593 0.0
C1029 C 0.18718 0.71928 0.72605 0.0
C1030 C 0.09616 0.75043 0.69027 0.0
C1031 C 0.07287 0.7364 0.69338 0.0
C1032 C 0.11867 0.74765 0.70244 0.0
C1033 C 0.1185 0.73108 0.71832 0.0
C1034 C 0.09517 0.71773 0.72223 0.0
C1035 C 0.07259 0.72018 0.70971 0.0
H1036 H 0.01425 0.5797 0.54318 0.0
H1037 H 0.97588 0.61784 0.49589 0.0
H1038 H 0.02798 0.61927 0.56843 0.0
H1039 H 0.98899 0.65743 0.52146 0.0
H1040 H 0.98285 0.71071 0.591 0.0
H1041 H 0.97593 0.67432 0.56067 0.0
H1042 H 0.05422 0.66146 0.57226 0.0
H1043 H 0.06108 0.69826 0.60262 0.0
C1044 C 0.00908 0.59664 0.53808 0.0
C1045 C 0.99406 0.59576 0.51759 0.0
C1046 C 0.01694 0.6193 0.55252 0.0
C1047 C 0.00932 0.64148 0.54712 0.0
C1048 C 0.99497 0.64065 0.52621 0.0
C1049 C 0.98762 0.61804 0.5115 0.0
C1050 C 0.99858 0.70013 0.58694 0.0
C1051 C 0.02226 0.70674 0.5995 0.0
C1052 C 0.99473 0.67947 0.56942 0.0
C1053 C 0.0145 0.66491 0.5641 0.0
C1054 C 0.03855 0.67217 0.57611 0.0
C1055 C 0.04251 0.69317 0.59342 0.0
H1056 H 0.82155 0.85335 0.17693 0.0
H1057 H 0.76844 0.87286 0.22851 0.0
H1058 H 0.84766 0.89302 0.18942 0.0
H1059 H 0.79525 0.9123 0.24155 0.0
H1060 H 0.86966 0.95859 0.27804 0.0
H1061 H 0.83732 0.92392 0.26206 0.0
H1062 H 0.85112 0.93853 0.19334 0.0
H1063 H 0.88374 0.97327 0.20961 0.0
C1064 C 0.81509 0.86625 0.19062 0.0
C1065 C 0.79284 0.85969 0.20176 0.0
C1066 C 0.83024 0.88902 0.1979 0.0
C1067 C 0.82378 0.90571 0.21672 0.0
C1068 C 0.80102 0.89966 0.22726 0.0
C1069 C 0.78568 0.87701 0.2198 0.0
C1070 C 0.86571 0.95432 0.25952 0.0
C1071 C 0.8797 0.96787 0.24493 0.0
C1072 C 0.84696 0.93471 0.25037 0.0
C1073 C 0.84173 0.92831 0.22638 0.0
C1074 C 0.85496 0.94275 0.21186 0.0
C1075 C 0.87356 0.9626 0.2211 0.0
H1076 H 0.77364 0.13204 0.30862 0.0
H1077 H 0.832 0.1856 0.34794 0.0
H1078 H 0.80371 0.10134 0.30415 0.0
H1079 H 0.86229 0.15487 0.34334 0.0
H1080 H 0.91297 0.10313 0.29765 0.0
H1081 H 0.88396 0.13381 0.30901 0.0
H1082 H 0.82926 0.07628 0.32693 0.0
H1083 H 0.85827 0.04565 0.31578 0.0
C1084 C 0.79283 0.13711 0.31658 0.0
C1085 C 0.80043 0.1612 0.32869 0.0
C1086 C 0.81004 0.11951 0.31409 0.0
C1087 C 0.83545 0.12566 0.32333 0.0
C1088 C 0.84291 0.1496 0.33591 0.0
C1089 C 0.82552 0.16711 0.33873 0.0
C1090 C 0.89492 0.09709 0.30434 0.0
C1091 C 0.88794 0.0719 0.30573 0.0
C1092 C 0.87833 0.1147 0.31094 0.0
C1093 C 0.85422 0.10748 0.31876 0.0
C1094 C 0.84759 0.08241 0.32078 0.0
C1095 C 0.8643 0.06488 0.3145 0.0
H1096 H 0.44236 0.02171 0.03119 0.0
H1097 H 0.40769 0.02224 0.96339 0.0
H1098 H 0.40517 0.99418 0.03941 0.0
H1099 H 0.37171 0.99385 0.971 0.0
H1100 H 0.29871 0.96267 0.99418 0.0
H1101 H 0.33523 0.99358 0.99257 0.0
H1102 H 0.38278 0.95248 0.03 0.0
H1103 H 0.34563 0.92198 0.03241 0.0
C1104 C 0.42695 0.01587 0.01799 0.0
C1105 C 0.4282 0.0242 0.99657 0.0
C1106 C 0.40571 0.99991 0.02264 0.0
C1107 C 0.3852 0.99195 1.006 0.0
C1108 C 0.38678 0.99996 0.98449 0.0
C1109 C 0.4078 0.01594 0.97992 0.0
C1110 C 0.31684 0.96053 1.00251 0.0
C1111 C 0.31934 0.93985 0.01331 0.0
C1112 C 0.3379 0.9781 1.00137 0.0
C1113 C 0.36221 0.97523 0.01058 0.0
C1114 C 0.36439 0.95535 0.02271 0.0
C1115 C 0.3431 0.93787 0.02416 0.0
H1116 H 0.25657 0.37008 0.31756 0.0
H1117 H 0.31391 0.43385 0.32425 0.0
H1118 H 0.22592 0.39305 0.29996 0.0
H1119 H 0.2839 0.45655 0.3062 0.0
H1120 H 0.21837 0.5017 0.30517 0.0
H1121 H 0.24753 0.47538 0.31876 0.0
H1122 H 0.21277 0.41361 0.26808 0.0
H1123 H 0.18293 0.44012 0.25473 0.0
C1124 C 0.26282 0.38872 0.31458 0.0
C1125 C 0.28759 0.40021 0.32226 0.0
C1126 C 0.24526 0.40196 0.30459 0.0
C1127 C 0.25218 0.42693 0.30209 0.0
C1128 C 0.27756 0.43766 0.30843 0.0
C1129 C 0.29493 0.42456 0.3185 0.0
C1130 C 0.21675 0.48247 0.29697 0.0
C1131 C 0.19832 0.47311 0.27878 0.0
C1132 C 0.23372 0.46736 0.30463 0.0
C1133 C 0.23297 0.44238 0.29426 0.0
C1134 C 0.21397 0.43272 0.27651 0.0
C1135 C 0.19685 0.44792 0.26884 0.0
H1136 H 0.15365 0.98819 0.47098 0.0
H1137 H 0.11733 0.0481 0.50632 0.0
H1138 H 0.19535 0.01372 0.47904 0.0
H1139 H 0.15901 0.07337 0.51519 0.0
H1140 H 0.24061 0.10937 0.53732 0.0
H1141 H 0.20205 0.0791 0.53533 0.0
H1142 H 0.21507 0.05068 0.46471 0.0
H1143 H 0.2533 0.08086 0.46686 0.0
C1144 C 0.15474 1.00666 0.48092 0.0
C1145 C 0.13238 0.01623 0.48806 0.0
C1146 C 0.17854 0.02135 0.4854 0.0
C1147 C 0.18054 0.0458 0.49747 0.0
C1148 C 0.15822 0.05477 0.50572 0.0
C1149 C 0.13435 0.0403 0.50072 0.0
C1150 C 0.23521 0.09646 0.5215 0.0
C1151 C 0.24936 0.09786 0.50202 0.0
C1152 C 0.21315 0.0792 0.52031 0.0
C1153 C 0.20531 0.06253 0.4998 0.0
C1154 C 0.22056 0.06304 0.48083 0.0
C1155 C 0.24231 0.08051 0.48194 0.0
H1156 H 0.8291 0.12889 0.69568 0.0
H1157 H 0.79281 0.18526 0.73675 0.0
H1158 H 0.79211 0.0981 0.69837 0.0
H1159 H 0.75647 0.1545 0.74017 0.0
H1160 H 0.71909 0.08464 0.76767 0.0
H1161 H 0.75272 0.11652 0.76048 0.0
H1162 H 0.74319 0.08784 0.68759 0.0
H1163 H 0.70885 0.0562 0.69491 0.0
C1164 C 0.81298 0.13472 0.7049 0.0
C1165 C 0.81359 0.15943 0.71581 0.0
C1166 C 0.79186 0.11717 0.70643 0.0
C1167 C 0.77134 0.12392 0.71943 0.0
C1168 C 0.77184 0.14878 0.72991 0.0
C1169 C 0.79259 0.16641 0.72788 0.0
C1170 C 0.72378 0.08557 0.75008 0.0
C1171 C 0.71075 0.06873 0.73173 0.0
C1172 C 0.7431 0.10369 0.74596 0.0
C1173 C 0.75033 0.10489 0.72343 0.0
C1174 C 0.73789 0.08743 0.70511 0.0
C1175 C 0.71828 0.06942 0.70925 0.0
H1176 H 0.44189 1.00634 0.51685 0.0
H1177 H 0.48778 0.07282 0.55181 0.0
H1178 H 0.40876 0.03075 0.50669 0.0
H1179 H 0.45541 0.09766 0.54069 0.0
H1180 H 0.38275 0.13382 0.53623 0.0
H1181 H 0.41583 0.1098 0.54645 0.0
H1182 H 0.39631 0.0578 0.48323 0.0
H1183 H 0.36199 0.08136 0.47373 0.0
C1184 C 0.44486 0.02627 0.52233 0.0
C1185 C 0.46736 0.03763 0.53528 0.0
C1186 C 0.42597 0.04039 0.51626 0.0
C1187 C 0.4292 0.06642 0.5226 0.0
C1188 C 0.45177 0.07771 0.53573 0.0
C1189 C 0.47047 0.06349 0.54215 0.0
C1190 C 0.3856 0.11736 0.52436 0.0
C1191 C 0.36963 0.10958 0.5041 0.0
C1192 C 0.40481 0.10354 0.53021 0.0
C1193 C 0.40904 0.08161 0.51581 0.0
C1194 C 0.39347 0.07421 0.49513 0.0
C1195 C 0.3739 0.0879 0.48946 0.0
H1196 H 0.6316 0.48953 0.59989 0.0
H1197 H 0.60609 0.49896 0.53152 0.0
H1198 H 0.66123 0.46188 0.58355 0.0
H1199 H 0.63524 0.4707 0.51498 0.0
H1200 H 0.71096 0.44275 0.49469 0.0
H1201 H 0.67875 0.46796 0.50983 0.0
H1202 H 0.66634 0.42276 0.56309 0.0
H1203 H 0.69929 0.39817 0.54845 0.0
C1204 C 0.63197 0.48532 0.58132 0.0
C1205 C 0.61643 0.49649 0.56704 0.0
C1206 C 0.64899 0.46936 0.57188 0.0
C1207 C 0.65083 0.4639 0.54784 0.0
C1208 C 0.63483 0.47473 0.53356 0.0
C1209 C 0.61798 0.49088 0.54303 0.0
C1210 C 0.70126 0.43805 0.50954 0.0
C1211 C 0.70794 0.41843 0.52037 0.0
C1212 C 0.68259 0.45249 0.51821 0.0
C1213 C 0.66983 0.44763 0.53785 0.0
C1214 C 0.67602 0.42752 0.54826 0.0
C1215 C 0.69486 0.41323 0.53972 0.0
H1216 H 0.74279 0.20807 0.38884 0.0
H1217 H 0.78051 0.26527 0.35526 0.0
H1218 H 0.7389 0.23922 0.42305 0.0
H1219 H 0.7774 0.29602 0.38938 0.0
H1220 H 0.79515 0.33546 0.46436 0.0
H1221 H 0.79649 0.30389 0.43055 0.0
H1222 H 0.71641 0.27902 0.43458 0.0
H1223 H 0.715 0.31141 0.46842 0.0
C1224 C 0.75027 0.22728 0.38886 0.0
C1225 C 0.7619 0.23435 0.36948 0.0
C1226 C 0.7479 0.2451 0.4083 0.0
C1227 C 0.7577 0.27014 0.40886 0.0
C1228 C 0.76956 0.27698 0.38949 0.0
C1229 C 0.77138 0.25938 0.36996 0.0
C1230 C 0.77768 0.32361 0.45774 0.0
C1231 C 0.75472 0.32653 0.4684 0.0
C1232 C 0.7785 0.3054 0.43848 0.0
C1233 C 0.75651 0.28911 0.42973 0.0
C1234 C 0.73366 0.29134 0.44092 0.0
C1235 C 0.7328 0.30989 0.46016 0.0
H1236 H 0.5514 0.06635 0.91257 0.0
H1237 H 0.49688 0.01891 0.8633 0.0
H1238 H 0.58542 0.05866 0.88637 0.0
H1239 H 0.53069 0.01137 0.83707 0.0
H1240 H 0.60102 0.99612 0.7968 0.0
H1241 H 0.57265 0.99482 0.82875 0.0
H1242 H 0.59131 0.07405 0.84916 0.0
H1243 H 0.61903 0.07543 0.81763 0.0
C1244 C 0.54684 0.05373 0.89645 0.0
C1245 C 0.52147 0.04346 0.88987 0.0
C1246 C 0.56625 0.04946 0.88136 0.0
C1247 C 0.56069 0.03464 0.85949 0.0
C1248 C 0.53567 0.02277 0.85377 0.0
C1249 C 0.51626 0.02723 0.86874 0.0
C1250 C 0.59924 0.01316 0.80831 0.0
C1251 C 0.61218 0.03588 0.80448 0.0
C1252 C 0.58299 0.01243 0.82656 0.0
C1253 C 0.57984 0.03433 0.84161 0.0
C1254 C 0.59356 0.05678 0.8382 0.0
C1255 C 0.60932 0.05757 0.81988 0.0
H1256 H 0.38626 0.26809 0.36929 0.0
H1257 H 0.30562 0.27482 0.36589 0.0
H1258 H 0.37889 0.23726 0.39513 0.0
H1259 H 0.29845 0.24494 0.39191 0.0
H1260 H 0.28577 0.17364 0.41761 0.0
H1261 H 0.29857 0.20106 0.39073 0.0
H1262 H 0.36555 0.23221 0.43521 0.0
H1263 H 0.35282 0.20382 0.4624 0.0
C1264 C 0.36698 0.26295 0.37394 0.0
C1265 C 0.34654 0.27401 0.36544 0.0
C1266 C 0.36281 0.24548 0.38896 0.0
C1267 C 0.33805 0.23843 0.39557 0.0
C1268 C 0.31774 0.24954 0.387 0.0
C1269 C 0.32189 0.26695 0.37219 0.0
C1270 C 0.30345 0.18604 0.4217 0.0
C1271 C 0.31809 0.18662 0.44242 0.0
C1272 C 0.31071 0.20198 0.40624 0.0
C1273 C 0.33277 0.21936 0.41097 0.0
C1274 C 0.34838 0.2191 0.43103 0.0
C1275 C 0.34113 0.20283 0.44661 0.0
H1276 H 0.54793 0.53529 0.94591 0.0
H1277 H 0.5601 0.46234 0.91272 0.0
H1278 H 0.52131 0.54009 0.91188 0.0
H1279 H 0.53479 0.46732 0.87875 0.0
H1280 H 0.46557 0.4663 0.8339 0.0
H1281 H 0.49148 0.46654 0.8686 0.0
H1282 H 0.51802 0.54432 0.87093 0.0
H1283 H 0.49046 0.54435 0.83602 0.0
C1284 C 0.54509 0.52041 0.93126 0.0
C1285 C 0.55558 0.49819 0.93217 0.0
C1286 C 0.52997 0.52318 0.91173 0.0
C1287 C 0.52532 0.50388 0.89264 0.0
C1288 C 0.53705 0.48227 0.89331 0.0
C1289 C 0.55171 0.4794 0.91281 0.0
C1290 C 0.47672 0.48363 0.84172 0.0
C1291 C 0.47604 0.50527 0.83186 0.0
C1292 C 0.49191 0.48369 0.86168 0.0
C1293 C 0.50755 0.50525 0.87239 0.0
C1294 C 0.5063 0.52731 0.86314 0.0
C1295 C 0.49057 0.52734 0.8431 0.0
H1296 H 0.75259 0.80773 0.12607 0.0
H1297 H 0.78405 0.75113 0.15755 0.0
H1298 H 0.75622 0.78361 0.08774 0.0
H1299 H 0.78731 0.72714 0.11965 0.0
H1300 H 0.81792 0.70438 0.05091 0.0
H1301 H 0.81386 0.73222 0.08646 0.0
H1302 H 0.73766 0.74186 0.06298 0.0
H1303 H 0.74164 0.71379 0.02695 0.0
C1304 C 0.7602 0.79016 0.1248 0.0
C1305 C 0.76791 0.78127 0.14484 0.0
C1306 C 0.76213 0.77631 0.10291 0.0
C1307 C 0.77219 0.75356 0.10068 0.0
C1308 C 0.77975 0.74473 0.12076 0.0
C1309 C 0.77762 0.75836 0.14251 0.0
C1310 C 0.80031 0.71252 0.05308 0.0
C1311 C 0.77998 0.7065 0.03606 0.0
C1312 C 0.79798 0.72844 0.07358 0.0
C1313 C 0.7753 0.73892 0.07769 0.0
C1314 C 0.75539 0.73405 0.06027 0.0
C1315 C 0.75767 0.71794 0.03966 0.0
H1316 H 0.06744 0.06172 0.14613 0.0
H1317 H 0.03808 0.98731 0.11318 0.0
H1318 H 0.0434 0.05593 0.17962 0.0
H1319 H 0.01404 0.98146 0.14686 0.0
H1320 H 0.99446 0.97084 0.21973 0.0
H1321 H 0.01958 0.97708 0.18704 0.0
H1322 H 1.00004 0.05167 0.19186 0.0
H1323 H 0.97509 0.0456 0.22493 0.0
C1324 C 0.05565 0.04417 0.14589 0.0
C1325 C 0.0546 0.02505 0.12675 0.0
C1326 C 0.04184 0.04085 0.16518 0.0
C1327 C 0.02663 0.01827 0.16601 0.0
C1328 C 0.02578 0.99902 0.14699 0.0
C1329 C 0.03958 1.00236 0.12764 0.0
C1330 C 0.99559 0.98869 0.21401 0.0
C1331 C 0.98264 1.00773 0.22514 0.0
C1332 C 0.00989 0.99218 0.19504 0.0
C1333 C 0.01177 0.01482 0.18661 0.0
C1334 C 0.99924 0.03404 0.19797 0.0
C1335 C 0.98484 0.03054 0.21695 0.0
H1336 H 0.31434 0.75565 0.14518 0.0
H1337 H 0.35952 0.82329 0.17899 0.0
H1338 H 0.30873 0.77452 0.11046 0.0
H1339 H 0.35369 0.84208 0.14461 0.0
H1340 H 0.29803 0.8755 0.09799 0.0
H1341 H 0.31311 0.85481 0.12866 0.0
H1342 H 0.33106 0.79454 0.07811 0.0
H1343 H 0.31608 0.8156 0.0471 0.0
C1344 C 0.32355 0.77429 0.14502 0.0
C1345 C 0.33694 0.78815 0.16499 0.0
C1346 C 0.32035 0.78509 0.12516 0.0
C1347 C 0.33043 0.80993 0.12497 0.0
C1348 C 0.34529 0.82309 0.14438 0.0
C1349 C 0.34858 0.81232 0.16409 0.0
C1350 C 0.30557 0.85804 0.09336 0.0
C1351 C 0.30593 0.84721 0.07015 0.0
C1352 C 0.3143 0.8462 0.11094 0.0
C1353 C 0.32329 0.82303 0.10581 0.0
C1354 C 0.32416 0.81235 0.08256 0.0
C1355 C 0.3158 0.82448 0.06485 0.0
H1356 H 0.07034 0.50998 0.07592 0.0
H1357 H 0.99848 0.51572 0.10747 0.0
H1358 H 0.09184 0.51158 0.11355 0.0
H1359 H 0.02042 0.5181 0.14544 0.0
H1360 H 0.0783 0.55409 0.20815 0.0
H1361 H 0.05273 0.54737 0.17171 0.0
H1362 H 0.09456 0.48716 0.14574 0.0
H1363 H 0.12033 0.49391 0.18236 0.0
C1364 C 0.05896 0.51125 0.09081 0.0
C1365 C 0.03245 0.51241 0.08841 0.0
C1366 C 0.0714 0.5122 0.11248 0.0
C1367 C 0.05787 0.5147 0.13256 0.0
C1368 C 0.03146 0.51623 0.13033 0.0
C1369 C 0.01889 0.515 0.10854 0.0
C1370 C 0.08185 0.53913 0.19482 0.0
C1371 C 0.10151 0.5246 0.19823 0.0
C1372 C 0.06706 0.53523 0.17392 0.0
C1373 C 0.07168 0.51686 0.15569 0.0
C1374 C 0.09068 0.50167 0.15935 0.0
C1375 C 0.10531 0.50538 0.18042 0.0
H1376 H 0.38963 0.73255 0.27218 0.0
H1377 H 0.40672 0.66237 0.23627 0.0
H1378 H 0.42425 0.73324 0.30056 0.0
H1379 H 0.44233 0.66319 0.2647 0.0
H1380 H 0.49005 0.66337 0.33324 0.0
H1381 H 0.45562 0.65997 0.30295 0.0
H1382 H 0.46763 0.73973 0.30648 0.0
H1383 H 0.50023 0.74287 0.33742 0.0
C1384 C 0.40116 0.71741 0.27015 0.0
C1385 C 0.39574 0.69764 0.25172 0.0
C1386 C 0.42112 0.71774 0.28653 0.0
C1387 C 0.43651 0.69839 0.28498 0.0
C1388 C 0.43085 0.67834 0.26666 0.0
C1389 C 0.41057 0.67792 0.25026 0.0
C1390 C 0.48505 0.68002 0.32744 0.0
C1391 C 0.4971 0.70341 0.338 0.0
C1392 C 0.46552 0.67815 0.30998 0.0
C1393 C 0.45832 0.69963 0.30242 0.0
C1394 C 0.47175 0.7228 0.31227 0.0
C1395 C 0.49065 0.72466 0.32993 0.0
H1396 H 1.00672 0.40663 0.98199 0.0
H1397 H 0.08757 0.42253 0.97452 0.0
H1398 H 0.00894 0.36257 0.96986 0.0
H1399 H 0.09029 0.37832 0.96341 0.0
H1400 H 0.07677 0.30468 0.91184 0.0
H1401 H 0.07954 0.34739 0.93142 0.0
H1402 H 0.02176 0.32516 0.97653 0.0
H1403 H 0.01817 0.28274 0.95606 0.0
C1404 C 0.02512 0.40056 0.97838 0.0
C1405 C 0.04692 0.41797 0.97905 0.0
C1406 C 0.02649 0.37523 0.97148 0.0
C1407 C 0.04981 0.36666 0.9654 0.0
C1408 C 0.07188 0.38412 0.96737 0.0
C1409 C 0.0704 0.40947 0.97393 0.0
C1410 C 0.06507 0.30885 0.92626 0.0
C1411 C 0.04712 0.29037 0.93227 0.0
C1412 C 0.06666 0.33341 0.93759 0.0
C1413 C 0.0506 0.34001 0.95546 0.0
C1414 C 0.03393 0.32106 0.96247 0.0
C1415 C 0.03204 0.29663 0.95088 0.0
H1416 H 0.68027 0.77074 0.24926 0.0
H1417 H 0.73429 0.78309 0.30831 0.0
H1418 H 0.64495 0.76786 0.27465 0.0
H1419 H 0.69922 0.78107 0.3338 0.0
H1420 H 0.63583 0.73584 0.36553 0.0
H1421 H 0.67034 0.74765 0.34207 0.0
H1422 H 0.62013 0.7864 0.30478 0.0
H1423 H 0.58511 0.77387 0.3281 0.0
C1424 C 0.68452 0.77357 0.26773 0.0
C1425 C 0.70996 0.77686 0.27683 0.0
C1426 C 0.66431 0.77195 0.28232 0.0
C1427 C 0.6692 0.77377 0.3063 0.0
C1428 C 0.69472 0.77889 0.3154 0.0
C1429 C 0.71483 0.78024 0.30084 0.0
C1430 C 0.63213 0.74708 0.3525 0.0
C1431 C 0.60767 0.75384 0.34867 0.0
C1432 C 0.65205 0.75406 0.3391 0.0
C1433 C 0.64815 0.76811 0.32152 0.0
C1434 C 0.62378 0.77539 0.31801 0.0
C1435 C 0.60375 0.76835 0.33147 0.0
H1436 H 0.04191 0.09966 0.02217 0.0
H1437 H 0.11606 0.14268 0.02428 0.0
H1438 H 0.02856 0.11632 0.98786 0.0
H1439 H 0.10275 0.15967 0.99059 0.0
H1440 H 0.07953 0.17513 0.92091 0.0
H1441 H 0.09133 0.15078 0.94988 0.0
H1442 H 0.01837 0.15647 0.97927 0.0
H1443 H 1.00624 0.18048 0.94992 0.0
C1444 C 0.05548 0.11231 0.01505 0.0
C1445 C 0.07999 0.11994 0.02597 0.0
C1446 C 0.04777 0.12209 0.99558 0.0
C1447 C 0.0645 0.13949 0.98649 0.0
C1448 C 0.08939 0.14616 0.99688 0.0
C1449 C 0.09699 0.13654 0.01633 0.0
C1450 C 0.06584 0.17106 0.93339 0.0
C1451 C 0.04199 0.1801 0.93314 0.0
C1452 C 0.07269 0.15712 0.95011 0.0
C1453 C 0.05594 0.15182 0.96712 0.0
C1454 C 0.03169 0.16 0.96635 0.0
C1455 C 0.02479 0.17395 0.94958 0.0
H1456 H 0.36279 0.31902 0.27338 0.0
H1457 H 0.418 0.29401 0.31784 0.0
H1458 H 0.39163 0.31512 0.24213 0.0
H1459 H 0.4466 0.28949 0.28634 0.0
H1460 H 0.50116 0.30059 0.22963 0.0
H1461 H 0.47402 0.31239 0.26141 0.0
H1462 H 0.4069 0.28114 0.21706 0.0
H1463 H 0.43387 0.26973 0.1857 0.0
C1464 C 0.38114 0.31281 0.27656 0.0
C1465 C 0.38794 0.30672 0.29817 0.0
C1466 C 0.39764 0.31042 0.25856 0.0
C1467 C 0.42151 0.30198 0.26165 0.0
C1468 C 0.42853 0.29631 0.28338 0.0
C1469 C 0.41194 0.29856 0.30137 0.0
C1470 C 0.48057 0.29698 0.2266 0.0
C1471 C 0.4696 0.28444 0.20514 0.0
C1472 C 0.46503 0.30339 0.24485 0.0
C1473 C 0.43821 0.29759 0.24189 0.0
C1474 C 0.42737 0.28614 0.22 0.0
C1475 C 0.44287 0.27952 0.20197 0.0
H1476 H 0.59824 0.39547 0.04263 0.0
H1477 H 0.52034 0.40796 0.02954 0.0
H1478 H 0.58575 0.37498 0.07508 0.0
H1479 H 0.50755 0.38755 0.06222 0.0
H1480 H 0.49357 0.31504 0.09567 0.0
H1481 H 0.50331 0.34457 0.06934 0.0
H1482 H 0.56986 0.37839 0.11334 0.0
H1483 H 0.56032 0.3487 0.13945 0.0
C1484 C 0.57857 0.39457 0.04729 0.0
C1485 C 0.56034 0.40366 0.0339 0.0
C1486 C 0.57133 0.38278 0.06586 0.0
C1487 C 0.54557 0.37946 0.07131 0.0
C1488 C 0.5275 0.38956 0.05843 0.0
C1489 C 0.53483 0.40155 0.03993 0.0
C1490 C 0.50999 0.32909 0.09997 0.0
C1491 C 0.52624 0.32933 0.11962 0.0
C1492 C 0.51556 0.34612 0.08488 0.0
C1493 C 0.53757 0.36379 0.08903 0.0
C1494 C 0.55301 0.36482 0.10935 0.0
C1495 C 0.54742 0.34786 0.12444 0.0
H1496 H 0.67883 0.23673 0.28123 0.0
H1497 H 0.6952 0.20477 0.21237 0.0
H1498 H 0.63604 0.24259 0.26653 0.0
H1499 H 0.65331 0.21184 0.19787 0.0
H1500 H 0.59634 0.26617 0.18091 0.0
H1501 H 0.63576 0.2588 0.20027 0.0
H1502 H 0.59276 0.2103 0.23953 0.0
H1503 H 0.55286 0.21714 0.21973 0.0
C1504 C 0.67331 0.2307 0.26309 0.0
C1505 C 0.69078 0.22071 0.24795 0.0
C1506 C 0.64887 0.23416 0.25471 0.0
C1507 C 0.64164 0.22795 0.23105 0.0
C1508 C 0.65861 0.21709 0.21614 0.0
C1509 C 0.68271 0.21325 0.22449 0.0
C1510 C 0.59508 0.25416 0.19386 0.0
C1511 C 0.57133 0.24219 0.19867 0.0
C1512 C 0.61772 0.24992 0.20488 0.0
C1513 C 0.61722 0.23399 0.22132 0.0
C1514 C 0.59356 0.22276 0.22696 0.0
C1515 C 0.5708 0.22664 0.21558 0.0
H1516 H 0.44688 0.10581 0.03402 0.0
H1517 H 0.52381 0.11133 0.01162 0.0
H1518 H 0.45836 0.14264 0.06237 0.0
H1519 H 0.5352 0.14933 0.03951 0.0
H1520 H 0.55395 0.20324 0.10816 0.0
H1521 H 0.54407 0.16662 0.07818 0.0
H1522 H 0.46715 0.18479 0.06891 0.0
H1523 H 0.47686 0.22014 0.09978 0.0
C1524 C 0.4664 0.11478 0.03526 0.0
C1525 C 0.4845 0.10524 0.02067 0.0
C1526 C 0.47296 0.13633 0.05143 0.0
C1527 C 0.49784 0.14925 0.05355 0.0
C1528 C 0.51596 0.13982 0.0388 0.0
C1529 C 0.50937 0.11812 0.02257 0.0
C1530 C 0.53495 0.19916 0.09966 0.0
C1531 C 0.51588 0.21387 0.10672 0.0
C1532 C 0.52928 0.17832 0.08231 0.0
C1533 C 0.50461 0.17226 0.07115 0.0
C1534 C 0.48609 0.18811 0.07748 0.0
C1535 C 0.49163 0.20853 0.09511 0.0
H1536 H 0.26712 0.37839 0.72408 0.0
H1537 H 0.32085 0.35809 0.67338 0.0
H1538 H 0.29288 0.41859 0.73585 0.0
H1539 H 0.34621 0.39846 0.68478 0.0
H1540 H 0.38443 0.47783 0.70605 0.0
H1541 H 0.3512 0.44394 0.68884 0.0
H1542 H 0.33394 0.4298 0.75704 0.0
H1543 H 0.36674 0.46349 0.77386 0.0
C1544 C 0.28425 0.3826 0.71523 0.0
C1545 C 0.29206 0.36479 0.69801 0.0
C1546 C 0.29901 0.40567 0.72197 0.0
C1547 C 0.3219 0.41159 0.71157 0.0
C1548 C 0.32871 0.39455 0.69317 0.0
C1549 C 0.31406 0.37136 0.68655 0.0
C1550 C 0.37324 0.46752 0.7172 0.0
C1551 C 0.3785 0.47259 0.74116 0.0
C1552 C 0.3543 0.44815 0.70742 0.0
C1553 C 0.33994 0.43405 0.72154 0.0
C1554 C 0.34434 0.44037 0.74561 0.0
C1555 C 0.36336 0.45944 0.75527 0.0
H1556 H 0.3297 0.6843 0.85105 0.0
H1557 H 0.27431 0.63419 0.8047 0.0
H1558 H 0.36031 0.65392 0.84558 0.0
H1559 H 0.3047 0.60378 0.79943 0.0
H1560 H 0.35696 0.54613 0.81253 0.0
H1561 H 0.32753 0.57652 0.82286 0.0
H1562 H 0.38487 0.63524 0.81134 0.0
H1563 H 0.41436 0.60474 0.80065 0.0
C1564 C 0.32394 0.66664 0.83998 0.0
C1565 C 0.29956 0.66159 0.82835 0.0
C1566 C 0.34153 0.64935 0.8367 0.0
C1567 C 0.33494 0.62643 0.82208 0.0
C1568 C 0.31031 0.62116 0.81096 0.0
C1569 C 0.29293 0.6386 0.81389 0.0
C1570 C 0.36349 0.56555 0.81249 0.0
C1571 C 0.38806 0.57297 0.80571 0.0
C1572 C 0.34652 0.58295 0.81827 0.0
C1573 C 0.35378 0.60828 0.81779 0.0
C1574 C 0.37874 0.61588 0.81199 0.0
C1575 C 0.39561 0.59839 0.80584 0.0
H1576 H 0.91619 0.54774 0.5286 0.0
H1577 H 0.94741 0.48212 0.49798 0.0
H1578 H 0.87972 0.52174 0.5401 0.0
H1579 H 0.9109 0.45611 0.50945 0.0
H1580 H 0.84651 0.41404 0.54086 0.0
H1581 H 0.886 0.44304 0.54296 0.0
H1582 H 0.84399 0.49504 0.51428 0.0
H1583 H 0.80491 0.46604 0.51188 0.0
C1584 C 0.91562 0.52776 0.52488 0.0
C1585 C 0.93463 0.51697 0.51229 0.0
C1586 C 0.89465 0.51288 0.53135 0.0
C1587 C 0.89238 0.48688 0.52562 0.0
C1588 C 0.9122 0.47607 0.51431 0.0
C1589 C 0.93301 0.49095 0.50758 0.0
C1590 C 0.84563 0.43206 0.53583 0.0
C1591 C 0.82268 0.43788 0.52631 0.0
C1592 C 0.86825 0.44852 0.53678 0.0
C1593 C 0.86813 0.47126 0.52866 0.0
C1594 C 0.84472 0.4778 0.52086 0.0
C1595 C 0.82231 0.4612 0.51949 0.0
H1596 H 0.77246 0.91272 0.85678 0.0
H1597 H 0.79861 0.88929 0.78934 0.0
H1598 H 0.74047 0.93409 0.83983 0.0
H1599 H 0.76611 0.91071 0.77219 0.0
H1600 H 0.69035 0.9409 0.75036 0.0
H1601 H 0.71794 0.91349 0.76572 0.0
H1602 H 0.7453 0.97237 0.82195 0.0
H1603 H 0.71811 0.99955 0.80668 0.0
C1604 C 0.77122 0.91193 0.83825 0.0
C1605 C 0.78846 0.89966 0.82448 0.0
C1606 C 0.75287 0.92424 0.82854 0.0
C1607 C 0.75101 0.92454 0.8047 0.0
C1608 C 0.76704 0.91085 0.79063 0.0
C1609 C 0.78562 0.89854 0.80043 0.0
C1610 C 0.70212 0.94786 0.7661 0.0
C1611 C 0.70193 0.97241 0.77734 0.0
C1612 C 0.71805 0.93222 0.7748 0.0
C1613 C 0.73377 0.94067 0.79513 0.0
C1614 C 0.73322 0.96511 0.80644 0.0
C1615 C 0.71767 0.98076 0.79762 0.0
H1616 H 0.61811 0.55153 1.00353 0.0
H1617 H 0.65532 0.49134 0.96992 0.0
H1618 H 0.65957 0.57752 0.0116 0.0
H1619 H 0.69666 0.51753 0.97706 0.0
H1620 H 0.75448 0.58412 0.96393 0.0
H1621 H 0.7159 0.55435 0.96181 0.0
H1622 H 0.7029 0.58333 0.03229 0.0
H1623 H 0.74186 0.61312 0.0343 0.0
C1624 C 0.63523 0.5439 0.99799 0.0
C1625 C 0.63362 0.5195 0.98614 0.0
C1626 C 0.65896 0.55875 1.00255 0.0
C1627 C 0.68143 0.54979 0.99462 0.0
C1628 C 0.67973 0.52513 0.98316 0.0
C1629 C 0.65613 0.51009 0.97917 0.0
C1630 C 0.74342 0.58397 0.97899 0.0
C1631 C 0.75063 0.60131 0.99905 0.0
C1632 C 0.72146 0.56678 0.97788 0.0
C1633 C 0.70614 0.56654 0.99683 0.0
C1634 C 0.71407 0.58323 0.0173 0.0
C1635 C 0.73636 0.6002 0.0185 0.0
H1636 H 0.32575 0.63034 0.19692 0.0
H1637 H 0.28869 0.68439 0.24014 0.0
H1638 H 0.29014 0.59814 0.20024 0.0
H1639 H 0.25398 0.65239 0.24428 0.0
H1640 H 0.21506 0.58335 0.26928 0.0
H1641 H 0.24965 0.61469 0.26302 0.0
H1642 H 0.24193 0.58651 0.18998 0.0
H1643 H 0.20682 0.55518 0.19641 0.0
C1644 C 0.30983 0.6353 0.20688 0.0
C1645 C 0.30965 0.6598 0.21802 0.0
C1646 C 0.28949 0.61698 0.20877 0.0
C1647 C 0.26911 0.62278 0.2224 0.0
C1648 C 0.26916 0.64735 0.23348 0.0
C1649 C 0.28901 0.66569 0.23108 0.0
C1650 C 0.22046 0.58419 0.25185 0.0
C1651 C 0.20768 0.56761 0.2332 0.0
C1652 C 0.24035 0.60201 0.24826 0.0
C1653 C 0.24831 0.60328 0.22596 0.0
C1654 C 0.23617 0.586 0.20735 0.0
C1655 C 0.21607 0.5682 0.21097 0.0
H1656 H 0.94185 0.50774 0.01495 0.0
H1657 H 0.98778 0.57379 0.0507 0.0
H1658 H 0.90917 0.53249 1.00448 0.0
H1659 H 0.9559 0.59899 0.03927 0.0
H1660 H 0.88391 0.63596 0.03386 0.0
H1661 H 0.91649 0.61158 0.04443 0.0
H1662 H 0.89724 0.55972 0.98107 0.0
H1663 H 0.86338 0.58366 0.97123 0.0
C1664 C 0.94493 0.52765 0.02054 0.0
C1665 C 0.9673 0.53879 0.03381 0.0
C1666 C 0.9263 0.54198 0.01429 0.0
C1667 C 0.92967 0.568 0.02075 0.0
C1668 C 0.95213 0.57906 0.0342 0.0
C1669 C 0.97055 0.56463 0.0408 0.0
C1670 C 0.88671 0.61946 0.02203 0.0
C1671 C 0.87094 0.61183 1.00163 0.0
C1672 C 0.90564 0.60542 0.02808 0.0
C1673 C 0.90981 0.58341 0.01375 0.0
C1674 C 0.89445 0.57618 0.99293 0.0
C1675 C 0.87514 0.59008 0.98706 0.0
H1676 H 0.12121 0.98122 0.09708 0.0
H1677 H 0.11287 1.00651 0.03153 0.0
H1678 H 0.14934 0.95246 0.08081 0.0
H1679 H 0.14322 0.97955 0.01595 0.0
H1680 H 0.18644 0.91623 0.98718 0.0
H1681 H 0.15332 0.94065 1.0021 0.0
H1682 H 0.19017 0.95016 0.07061 0.0
H1683 H 0.22202 0.92459 0.05586 0.0
C1684 C 0.12517 0.98068 0.07914 0.0
C1685 C 0.11451 0.99652 0.06578 0.0
C1686 C 0.14194 0.96439 0.06986 0.0
C1687 C 0.14919 0.9637 0.04702 0.0
C1688 C 0.13814 0.97917 0.03351 0.0
C1689 C 0.12093 0.99511 0.04266 0.0
C1690 C 0.18726 0.9234 1.00546 0.0
C1691 C 0.20683 0.91829 0.02031 0.0
C1692 C 0.16834 0.93764 0.01407 0.0
C1693 C 0.16875 0.9476 0.03772 0.0
C1694 C 0.18852 0.94245 0.05245 0.0
C1695 C 0.20705 0.92784 0.04393 0.0
loop_
_geom_bond_atom_site_label_1
_geom_bond_atom_site_label_2
_geom_bond_distance
_geom_bond_site_symmetry_2
_ccdc_geom_bond_type
H0 C1 0.949 . S
C1 H0 0.949 . S
C1 C2 1.395 . S
C1 C3 1.391 . S
C2 C1 1.395 . S
C2 C5 1.390 . S
C3 C1 1.391 . S
C3 C7 1.387 . S
C3 C8 1.491 . S
H4 C5 0.950 1_565 S
C5 C2 1.390 . S
C5 H4 0.950 1_545 S
C5 C6 1.378 . S
C6 C5 1.378 . S
C6 C7 1.409 . S
C7 C3 1.387 . S
C7 C6 1.409 . S
C7 H9 0.951 . S
C8 C3 1.491 . S
C8 C10 1.382 . S
C8 C12 1.404 . S
H9 C7 0.951 . S
C10 C8 1.382 . S
C10 C11 1.390 1_554 S
C10 H15 0.949 1_554 S
C11 C10 1.390 1_556 S
C11 C16 1.399 1_556 S
C12 C8 1.404 . S
C12 H13 0.950 . S
C12 C14 1.375 . S
H13 C12 0.950 . S
C14 C12 1.375 . S
C14 C16 1.382 . S
C14 H18 0.950 . S
H15 C10 0.949 1_556 S
C16 C11 1.399 1_554 S
C16 C14 1.382 . S
C16 H17 0.952 1_554 S
H17 C16 0.952 1_556 S
H18 C14 0.950 . S
H19 C20 0.949 . S
C20 H19 0.949 . S
C20 C21 1.395 . S
C20 C22 1.391 . S
C21 C20 1.395 . S
C21 C24 1.390 . S
C22 C20 1.391 . S
C22 C26 1.387 . S
C22 C27 1.491 . S
H23 C24 0.950 . S
C24 C21 1.390 . S
C24 H23 0.950 . S
C24 C25 1.378 . S
C25 C24 1.378 . S
C25 C26 1.409 . S
C26 C22 1.387 . S
C26 C25 1.409 . S
C26 H28 0.951 . S
C27 C22 1.491 . S
C27 C29 1.382 . S
C27 C31 1.404 . S
H28 C26 0.951 . S
C29 C27 1.382 . S
C29 C30 1.390 . S
C29 H34 0.949 . S
C30 C29 1.390 . S
C30 C35 1.399 . S
C31 C27 1.404 . S
C31 H32 0.950 . S
C31 C33 1.375 . S
H32 C31 0.950 . S
C33 C31 1.375 . S
C33 C35 1.382 . S
C33 H37 0.950 . S
H34 C29 0.949 . S
C35 C30 1.399 . S
C35 C33 1.382 . S
C35 H36 0.952 . S
H36 C35 0.952 . S
H37 C33 0.950 . S
H38 C39 0.949 . S
C39 H38 0.949 . S
C39 C40 1.395 . S
C39 C41 1.391 1_455 S
C40 C39 1.395 . S
C40 C43 1.390 1_455 S
C41 C39 1.391 1_655 S
C41 C45 1.387 . S
C41 C46 1.491 1_554 S
H42 C43 0.950 . S
C43 C40 1.390 1_655 S
C43 H42 0.950 . S
C43 C44 1.378 . S
C44 C43 1.378 . S
C44 C45 1.409 . S
C45 C41 1.387 . S
C45 C44 1.409 . S
C45 H47 0.951 1_554 S
C46 C41 1.491 1_556 S
C46 C48 1.382 1_655 S
C46 C50 1.404 . S
H47 C45 0.951 1_556 S
C48 C46 1.382 1_455 S
C48 C49 1.390 . S
C48 H53 0.949 1_556 S
C49 C48 1.390 . S
C49 C54 1.399 . S
C50 C46 1.404 . S
C50 H51 0.952 . S
C50 C52 1.373 1_655 S
H51 C50 0.952 . S
C52 C50 1.373 1_455 S
C52 C54 1.382 . S
C52 H56 0.950 . S
H53 C48 0.949 1_554 S
C54 C49 1.399 . S
C54 C52 1.382 . S
C54 H55 0.952 . S
H55 C54 0.952 . S
H56 C52 0.950 . S
H57 C58 0.949 . S
C58 H57 0.949 . S
C58 C59 1.395 . S
C58 C60 1.391 . S
C59 C58 1.395 . S
C59 C62 1.390 . S
C60 C58 1.391 . S
C60 C64 1.387 . S
C60 C65 1.491 . S
H61 C62 0.950 . S
C62 C59 1.390 . S
C62 H61 0.950 . S
C62 C63 1.378 . S
C63 C62 1.378 . S
C63 C64 1.409 . S
C64 C60 1.387 . S
C64 C63 1.409 . S
C64 H66 0.951 . S
C65 C60 1.491 . S
C65 C67 1.382 . S
C65 C69 1.404 . S
H66 C64 0.951 . S
C67 C65 1.382 . S
C67 C68 1.390 . S
C67 H72 0.949 . S
C68 C67 1.390 . S
C68 C73 1.399 . S
C69 C65 1.404 . S
C69 H70 0.950 . S
C69 C71 1.375 . S
H70 C69 0.950 . S
C71 C69 1.375 . S
C71 C73 1.382 . S
C71 H75 0.950 . S
H72 C67 0.949 . S
C73 C68 1.399 . S
C73 C71 1.382 . S
C73 H74 0.952 . S
H74 C73 0.952 . S
H75 C71 0.950 . S
H76 C77 0.949 . S
C77 H76 0.949 . S
C77 C78 1.395 . S
C77 C79 1.391 . S
C78 C77 1.395 . S
C78 C81 1.390 . S
C79 C77 1.391 . S
C79 C83 1.387 . S
C79 C84 1.491 . S
H80 C81 0.950 1_545 S
C81 C78 1.390 . S
C81 H80 0.950 1_565 S
C81 C82 1.378 . S
C82 C81 1.378 . S
C82 C83 1.409 . S
C83 C79 1.387 . S
C83 C82 1.409 . S
C83 H85 0.951 . S
C84 C79 1.491 . S
C84 C86 1.382 . S
C84 C88 1.404 . S
H85 C83 0.951 . S
C86 C84 1.382 . S
C86 C87 1.390 . S
C86 H91 0.949 . S
C87 C86 1.390 . S
C87 C92 1.399 . S
C88 C84 1.404 . S
C88 H89 0.950 . S
C88 C90 1.375 . S
H89 C88 0.950 . S
C90 C88 1.375 . S
C90 C92 1.382 . S
C90 H94 0.950 . S
H91 C86 0.949 . S
C92 C87 1.399 . S
C92 C90 1.382 . S
C92 H93 0.952 . S
H93 C92 0.952 . S
H94 C90 0.950 . S
H95 C96 0.949 . S
C96 H95 0.949 . S
C96 C97 1.395 . S
C96 C98 1.391 . S
C97 C96 1.395 . S
C97 C100 1.390 . S
C98 C96 1.391 . S
C98 C102 1.387 . S
C98 C103 1.491 . S
H99 C100 0.950 . S
C100 C97 1.390 . S
C100 H99 0.950 . S
C100 C101 1.378 . S
C101 C100 1.378 . S
C101 C102 1.409 . S
C102 C98 1.387 . S
C102 C101 1.409 . S
C102 H104 0.951 . S
C103 C98 1.491 . S
C103 C105 1.382 . S
C103 C107 1.404 . S
H104 C102 0.951 . S
C105 C103 1.382 . S
C105 C106 1.390 . S
C105 H110 0.949 . S
C106 C105 1.390 . S
C106 C111 1.399 . S
C107 C103 1.404 . S
C107 H108 0.950 . S
C107 C109 1.375 . S
H108 C107 0.950 . S
C109 C107 1.375 . S
C109 C111 1.382 . S
C109 H113 0.950 . S
H110 C105 0.949 . S
C111 C106 1.399 . S
C111 C109 1.382 . S
C111 H112 0.952 . S
H112 C111 0.952 . S
H113 C109 0.950 . S
H114 C115 0.949 1_455 S
C115 H114 0.949 1_655 S
C115 C116 1.395 . S
C115 C117 1.391 . S
C116 C115 1.395 . S
C116 C119 1.390 . S
C117 C115 1.391 . S
C117 C121 1.387 . S
C117 C122 1.491 . S
H118 C119 0.950 . S
C119 C116 1.390 . S
C119 H118 0.950 . S
C119 C120 1.378 . S
C120 C119 1.378 . S
C120 C121 1.409 . S
C121 C117 1.387 . S
C121 C120 1.409 . S
C121 H123 0.951 . S
C122 C117 1.491 . S
C122 C124 1.382 1_655 S
C122 C126 1.404 . S
H123 C121 0.951 . S
C124 C122 1.382 1_455 S
C124 C125 1.390 . S
C124 H129 0.949 . S
C125 C124 1.390 . S
C125 C130 1.399 . S
C126 C122 1.404 . S
C126 H127 0.950 . S
C126 C128 1.375 . S
H127 C126 0.950 . S
C128 C126 1.375 . S
C128 C130 1.382 1_655 S
C128 H132 0.950 . S
H129 C124 0.949 . S
C130 C125 1.399 . S
C130 C128 1.382 1_455 S
C130 H131 0.952 . S
H131 C130 0.952 . S
H132 C128 0.950 . S
H133 C134 0.949 . S
C134 H133 0.949 . S
C134 C135 1.395 . S
C134 C136 1.391 . S
C135 C134 1.395 . S
C135 C138 1.390 . S
C136 C134 1.391 . S
C136 C140 1.387 . S
C136 C141 1.491 . S
H137 C138 0.950 . S
C138 C135 1.390 . S
C138 H137 0.950 . S
C138 C139 1.378 . S
C139 C138 1.378 . S
C139 C140 1.409 . S
C140 C136 1.387 . S
C140 C139 1.409 . S
C140 H142 0.951 . S
C141 C136 1.491 . S
C141 C143 1.382 . S
C141 C145 1.404 . S
H142 C140 0.951 . S
C143 C141 1.382 . S
C143 C144 1.390 . S
C143 H148 0.949 . S
C144 C143 1.390 . S
C144 C149 1.399 . S
C145 C141 1.404 . S
C145 H146 0.950 . S
C145 C147 1.375 . S
H146 C145 0.950 . S
C147 C145 1.375 . S
C147 C149 1.382 . S
C147 H151 0.950 . S
H148 C143 0.949 . S
C149 C144 1.399 . S
C149 C147 1.382 . S
C149 H150 0.952 . S
H150 C149 0.952 . S
H151 C147 0.950 . S
H152 C153 0.949 . S
C153 H152 0.949 . S
C153 C154 1.395 . S
C153 C155 1.391 . S
C154 C153 1.395 . S
C154 C157 1.390 . S
C155 C153 1.391 . S
C155 C159 1.387 . S
C155 C160 1.491 . S
H156 C157 0.950 . S
C157 C154 1.390 . S
C157 H156 0.950 . S
C157 C158 1.378 . S
C158 C157 1.378 . S
C158 C159 1.409 . S
C159 C155 1.387 . S
C159 C158 1.409 . S
C159 H161 0.951 . S
C160 C155 1.491 . S
C160 C162 1.382 . S
C160 C164 1.404 . S
H161 C159 0.951 . S
C162 C160 1.382 . S
C162 C163 1.390 . S
C162 H167 0.949 . S
C163 C162 1.390 . S
C163 C168 1.399 . S
C164 C160 1.404 . S
C164 H165 0.950 . S
C164 C166 1.375 . S
H165 C164 0.950 . S
C166 C164 1.375 . S
C166 C168 1.382 . S
C166 H170 0.950 . S
H167 C162 0.949 . S
C168 C163 1.399 . S
C168 C166 1.382 . S
C168 H169 0.952 . S
H169 C168 0.952 . S
H170 C166 0.950 . S
H171 C172 0.949 . S
C172 H171 0.949 . S
C172 C173 1.395 . S
C172 C174 1.391 . S
C173 C172 1.395 . S
C173 C176 1.390 1_565 S
C174 C172 1.391 . S
C174 C178 1.387 . S
C174 C179 1.491 . S
H175 C176 0.950 . S
C176 C173 1.390 1_545 S
C176 H175 0.950 . S
C176 C177 1.378 . S
C177 C176 1.378 . S
C177 C178 1.409 1_545 S
C178 C174 1.387 . S
C178 C177 1.409 1_565 S
C178 H180 0.951 . S
C179 C174 1.491 . S
C179 C181 1.382 . S
C179 C183 1.404 . S
H180 C178 0.951 . S
C181 C179 1.382 . S
C181 C182 1.390 . S
C181 H186 0.949 . S
C182 C181 1.390 . S
C182 C187 1.399 . S
C183 C179 1.404 . S
C183 H184 0.950 . S
C183 C185 1.375 . S
H184 C183 0.950 . S
C185 C183 1.375 . S
C185 C187 1.382 . S
C185 H189 0.950 . S
H186 C181 0.949 . S
C187 C182 1.399 . S
C187 C185 1.382 . S
C187 H188 0.952 . S
H188 C187 0.952 . S
H189 C185 0.950 . S
H190 C191 0.949 . S
C191 H190 0.949 . S
C191 C192 1.395 . S
C191 C193 1.391 . S
C192 C191 1.395 . S
C192 C195 1.390 . S
C193 C191 1.391 . S
C193 C197 1.387 . S
C193 C198 1.491 . S
H194 C195 0.950 . S
C195 C192 1.390 . S
C195 H194 0.950 . S
C195 C196 1.378 . S
C196 C195 1.378 . S
C196 C197 1.409 . S
C197 C193 1.387 . S
C197 C196 1.409 . S
C197 H199 0.951 . S
C198 C193 1.491 . S
C198 C200 1.382 . S
C198 C202 1.404 . S
H199 C197 0.951 . S
C200 C198 1.382 . S
C200 C201 1.390 . S
C200 H205 0.949 . S
C201 C200 1.390 . S
C201 C206 1.399 . S
C202 C198 1.404 . S
C202 H203 0.950 . S
C202 C204 1.375 . S
H203 C202 0.950 . S
C204 C202 1.375 . S
C204 C206 1.382 . S
C204 H208 0.950 . S
H205 C200 0.949 . S
C206 C201 1.399 . S
C206 C204 1.382 . S
C206 H207 0.952 . S
H207 C206 0.952 . S
H208 C204 0.950 . S
H209 C210 0.949 . S
C210 H209 0.949 . S
C210 C211 1.395 . S
C210 C212 1.391 . S
C211 C210 1.395 . S
C211 C214 1.390 . S
C212 C210 1.391 . S
C212 C216 1.387 . S
C212 C217 1.491 . S
H213 C214 0.950 . S
C214 C211 1.390 . S
C214 H213 0.950 . S
C214 C215 1.378 . S
C215 C214 1.378 . S
C215 C216 1.409 . S
C216 C212 1.387 . S
C216 C215 1.409 . S
C216 H218 0.951 . S
C217 C212 1.491 . S
C217 C219 1.382 . S
C217 C221 1.404 . S
H218 C216 0.951 . S
C219 C217 1.382 . S
C219 C220 1.390 . S
C219 H224 0.949 . S
C220 C219 1.390 . S
C220 C225 1.399 . S
C221 C217 1.404 . S
C221 H222 0.950 . S
C221 C223 1.375 . S
H222 C221 0.950 . S
C223 C221 1.375 . S
C223 C225 1.382 . S
C223 H227 0.950 . S
H224 C219 0.949 . S
C225 C220 1.399 . S
C225 C223 1.382 . S
C225 H226 0.952 . S
H226 C225 0.952 . S
H227 C223 0.950 . S
H228 C229 0.949 . S
C229 H228 0.949 . S
C229 C230 1.395 . S
C229 C231 1.391 . S
C230 C229 1.395 . S
C230 C233 1.390 . S
C231 C229 1.391 . S
C231 C235 1.387 . S
C231 C236 1.491 . S
H232 C233 0.950 . S
C233 C230 1.390 . S
C233 H232 0.950 . S
C233 C234 1.378 . S
C234 C233 1.378 . S
C234 C235 1.409 . S
C235 C231 1.387 . S
C235 C234 1.409 . S
C235 H237 0.951 . S
C236 C231 1.491 . S
C236 C238 1.382 . S
C236 C240 1.404 . S
H237 C235 0.951 . S
C238 C236 1.382 . S
C238 C239 1.390 . S
C238 H243 0.949 . S
C239 C238 1.390 . S
C239 C244 1.399 . S
C240 C236 1.404 . S
C240 H241 0.950 . S
C240 C242 1.375 . S
H241 C240 0.950 . S
C242 C240 1.375 . S
C242 C244 1.382 . S
C242 H246 0.950 . S
H243 C238 0.949 . S
C244 C239 1.399 . S
C244 C242 1.382 . S
C244 H245 0.952 . S
H245 C244 0.952 . S
H246 C242 0.950 . S
H247 C248 0.949 1_554 S
C248 H247 0.949 1_556 S
C248 C249 1.395 . S
C248 C250 1.391 . S
C249 C248 1.395 . S
C249 C252 1.390 . S
C250 C248 1.391 . S
C250 C254 1.387 . S
C250 C255 1.491 . S
H251 C252 0.950 . S
C252 C249 1.390 . S
C252 H251 0.950 . S
C252 C253 1.378 . S
C253 C252 1.378 . S
C253 C254 1.409 . S
C254 C250 1.387 . S
C254 C253 1.409 . S
C254 H256 0.951 . S
C255 C250 1.491 . S
C255 C257 1.382 1_556 S
C255 C259 1.404 . S
H256 C254 0.951 . S
C257 C255 1.382 1_554 S
C257 C258 1.390 . S
C257 H262 0.949 . S
C258 C257 1.390 . S
C258 C263 1.399 . S
C259 C255 1.404 . S
C259 H260 0.950 . S
C259 C261 1.375 . S
H260 C259 0.950 . S
C261 C259 1.375 . S
C261 C263 1.382 1_556 S
C261 H265 0.950 . S
H262 C257 0.949 . S
C263 C258 1.399 . S
C263 C261 1.382 1_554 S
C263 H264 0.952 . S
H264 C263 0.952 . S
H265 C261 0.950 . S
H266 C267 0.949 . S
C267 H266 0.949 . S
C267 C268 1.395 . S
C267 C269 1.391 . S
C268 C267 1.395 . S
C268 C271 1.390 . S
C269 C267 1.391 . S
C269 C273 1.387 . S
C269 C274 1.491 . S
H270 C271 0.950 . S
C271 C268 1.390 . S
C271 H270 0.950 . S
C271 C272 1.378 . S
C272 C271 1.378 . S
C272 C273 1.409 . S
C273 C269 1.387 . S
C273 C272 1.409 . S
C273 H275 0.951 . S
C274 C269 1.491 . S
C274 C276 1.382 . S
C274 C278 1.404 . S
H275 C273 0.951 . S
C276 C274 1.382 . S
C276 C277 1.390 . S
C276 H281 0.949 . S
C277 C276 1.390 . S
C277 C282 1.399 . S
C278 C274 1.404 . S
C278 H279 0.950 . S
C278 C280 1.375 . S
H279 C278 0.950 . S
C280 C278 1.375 . S
C280 C282 1.382 . S
C280 H284 0.950 . S
H281 C276 0.949 . S
C282 C277 1.399 . S
C282 C280 1.382 . S
C282 H283 0.952 . S
H283 C282 0.952 . S
H284 C280 0.950 . S
H285 C286 0.949 . S
C286 H285 0.949 . S
C286 C287 1.395 . S
C286 C288 1.391 . S
C287 C286 1.395 . S
C287 C290 1.390 . S
C288 C286 1.391 . S
C288 C292 1.387 . S
C288 C293 1.491 . S
H289 C290 0.950 1_554 S
C290 C287 1.390 . S
C290 H289 0.950 1_556 S
C290 C291 1.378 . S
C291 C290 1.378 . S
C291 C292 1.409 . S
C292 C288 1.387 . S
C292 C291 1.409 . S
C292 H294 0.951 . S
C293 C288 1.491 . S
C293 C295 1.382 . S
C293 C297 1.404 . S
H294 C292 0.951 . S
C295 C293 1.382 . S
C295 C296 1.390 . S
C295 H300 0.949 . S
C296 C295 1.390 . S
C296 C301 1.399 . S
C297 C293 1.404 . S
C297 H298 0.950 . S
C297 C299 1.375 . S
H298 C297 0.950 . S
C299 C297 1.375 . S
C299 C301 1.382 . S
C299 H303 0.950 . S
H300 C295 0.949 . S
C301 C296 1.399 . S
C301 C299 1.382 . S
C301 H302 0.952 . S
H302 C301 0.952 . S
H303 C299 0.950 . S
Mn304 O309 2.095 . S
Mn304 O319 2.162 . S
Mn304 O320 2.297 . S
Mn304 O328 2.385 . S
Mn304 O329 2.209 . S
Mn304 O330 2.094 . S
Mn305 O310 2.121 1_556 S
Mn305 N312 2.257 . S
Mn305 N321 2.282 . S
Mn305 O329 2.215 1_556 S
Mn305 O331 2.117 1_556 S
C306 O328 1.234 . S
C306 O329 1.283 . S
C307 O319 1.281 . S
C307 O320 1.236 . S
C308 O330 1.240 . S
C308 O331 1.264 . S
O309 Mn304 2.095 . S
O309 C318 1.250 . S
O310 Mn305 2.121 1_554 S
O310 C318 1.258 . S
C311 N312 1.326 . S
C311 C315 1.460 . S
C311 H317 0.929 . S
N312 Mn305 2.257 . S
N312 C311 1.326 . S
N312 C316 1.362 . S
C313 C314 1.258 . S
C313 C316 1.431 . S
C313 C333 1.449 . S
C314 C313 1.258 . S
C314 C315 1.477 . S
C314 H334 0.931 . S
C315 C311 1.460 . S
C315 C314 1.477 . S
C315 H335 0.930 . S
C316 N312 1.362 . S
C316 C313 1.431 . S
C316 C326 1.476 . S
H317 C311 0.929 . S
C318 O309 1.250 . S
C318 O310 1.258 . S
O319 Mn304 2.162 . S
O319 C307 1.281 . S
O320 Mn304 2.297 . S
O320 C307 1.236 . S
N321 Mn305 2.282 . S
N321 C322 1.328 . S
N321 C326 1.318 . S
C322 N321 1.328 . S
C322 C323 1.457 . S
C322 H327 0.929 . S
C323 C322 1.457 . S
C323 C324 1.291 . S
C323 H336 0.931 . S
C324 C323 1.291 . S
C324 C325 1.373 . S
C324 H337 0.929 . S
C325 C324 1.373 . S
C325 C326 1.396 . S
C325 C332 1.403 . S
C326 C316 1.476 . S
C326 N321 1.318 . S
C326 C325 1.396 . S
H327 C322 0.929 . S
O328 Mn304 2.385 . S
O328 C306 1.234 . S
O329 Mn304 2.209 . S
O329 Mn305 2.215 1_554 S
O329 C306 1.283 . S
O330 Mn304 2.094 . S
O330 C308 1.240 . S
O331 Mn305 2.117 1_554 S
O331 C308 1.264 . S
C332 C325 1.403 . S
C332 C333 1.399 . S
C332 H338 0.929 . S
C333 C313 1.449 . S
C333 C332 1.399 . S
C333 H339 0.930 . S
H334 C314 0.931 . S
H335 C315 0.930 . S
H336 C323 0.931 . S
H337 C324 0.929 . S
H338 C332 0.929 . S
H339 C333 0.930 . S
Mn340 O345 2.095 . S
Mn340 O355 2.162 . S
Mn340 O356 2.297 . S
Mn340 O364 2.385 . S
Mn340 O365 2.209 . S
Mn340 O366 2.094 . S
Mn341 O346 2.121 . S
Mn341 N348 2.257 . S
Mn341 N357 2.282 . S
Mn341 O365 2.215 . S
Mn341 O367 2.117 . S
C342 O364 1.234 . S
C342 O365 1.283 . S
C343 O355 1.281 . S
C343 O356 1.236 . S
C344 O366 1.240 . S
C344 O367 1.264 . S
O345 Mn340 2.095 . S
O345 C354 1.250 . S
O346 Mn341 2.121 . S
O346 C354 1.258 . S
C347 N348 1.326 . S
C347 C351 1.460 . S
C347 H353 0.929 . S
N348 Mn341 2.257 . S
N348 C347 1.326 . S
N348 C352 1.362 . S
C349 C350 1.258 . S
C349 C352 1.431 . S
C349 C369 1.449 . S
C350 C349 1.258 . S
C350 C351 1.477 . S
C350 H370 0.931 . S
C351 C347 1.460 . S
C351 C350 1.477 . S
C351 H371 0.930 . S
C352 N348 1.362 . S
C352 C349 1.431 . S
C352 C362 1.476 . S
H353 C347 0.929 . S
C354 O345 1.250 . S
C354 O346 1.258 . S
O355 Mn340 2.162 . S
O355 C343 1.281 . S
O356 Mn340 2.297 . S
O356 C343 1.236 . S
N357 Mn341 2.282 . S
N357 C358 1.328 . S
N357 C362 1.318 . S
C358 N357 1.328 . S
C358 C359 1.457 . S
C358 H363 0.929 . S
C359 C358 1.457 . S
C359 C360 1.291 . S
C359 H372 0.931 . S
C360 C359 1.291 . S
C360 C361 1.373 . S
C360 H373 0.929 . S
C361 C360 1.373 . S
C361 C362 1.396 . S
C361 C368 1.403 . S
C362 C352 1.476 . S
C362 N357 1.318 . S
C362 C361 1.396 . S
H363 C358 0.929 . S
O364 Mn340 2.385 . S
O364 C342 1.234 . S
O365 Mn340 2.209 . S
O365 Mn341 2.215 . S
O365 C342 1.283 . S
O366 Mn340 2.094 . S
O366 C344 1.240 . S
O367 Mn341 2.117 . S
O367 C344 1.264 . S
C368 C361 1.403 . S
C368 C369 1.399 . S
C368 H374 0.929 . S
C369 C349 1.449 . S
C369 C368 1.399 . S
C369 H375 0.930 . S
H370 C350 0.931 . S
H371 C351 0.930 . S
H372 C359 0.931 . S
H373 C360 0.929 . S
H374 C368 0.929 . S
H375 C369 0.930 . S
Mn376 O381 2.095 1_554 S
Mn376 O391 2.162 . S
Mn376 O392 2.297 1_554 S
Mn376 O400 2.385 . S
Mn376 O401 2.209 1_554 S
Mn376 O402 2.094 . S
Mn377 O382 2.121 . S
Mn377 N384 2.257 . S
Mn377 N393 2.282 1_556 S
Mn377 O401 2.215 . S
Mn377 O403 2.117 1_556 S
C378 O400 1.248 . S
C378 O401 1.271 1_554 S
C379 O391 1.250 1_556 S
C379 O392 1.265 . S
C380 O402 1.240 . S
C380 O403 1.264 . S
O381 Mn376 2.095 1_556 S
O381 C390 1.250 . S
O382 Mn377 2.121 . S
O382 C390 1.258 . S
C383 N384 1.326 . S
C383 C387 1.460 . S
C383 H389 0.929 . S
N384 Mn377 2.257 . S
N384 C383 1.326 . S
N384 C388 1.362 . S
C385 C386 1.258 . S
C385 C388 1.431 . S
C385 C405 1.449 . S
C386 C385 1.258 . S
C386 C387 1.477 . S
C386 H406 0.931 . S
C387 C383 1.460 . S
C387 C386 1.477 . S
C387 H407 0.930 . S
C388 N384 1.362 . S
C388 C385 1.431 . S
C388 C398 1.476 . S
H389 C383 0.929 . S
C390 O381 1.250 . S
C390 O382 1.258 . S
O391 Mn376 2.162 . S
O391 C379 1.250 1_554 S
O392 Mn376 2.297 1_556 S
O392 C379 1.265 . S
N393 Mn377 2.282 1_554 S
N393 C394 1.328 . S
N393 C398 1.318 1_554 S
C394 N393 1.328 . S
C394 C395 1.457 . S
C394 H399 0.929 . S
C395 C394 1.457 . S
C395 C396 1.291 . S
C395 H408 0.931 . S
C396 C395 1.291 . S
C396 C397 1.373 1_554 S
C396 H409 0.929 . S
C397 C396 1.373 1_556 S
C397 C398 1.396 . S
C397 C404 1.403 . S
C398 C388 1.476 . S
C398 N393 1.318 1_556 S
C398 C397 1.396 . S
H399 C394 0.929 . S
O400 Mn376 2.385 . S
O400 C378 1.248 . S
O401 Mn376 2.209 1_556 S
O401 Mn377 2.215 . S
O401 C378 1.271 1_556 S
O402 Mn376 2.094 . S
O402 C380 1.240 . S
O403 Mn377 2.117 1_554 S
O403 C380 1.264 . S
C404 C397 1.403 . S
C404 C405 1.399 . S
C404 H410 0.929 . S
C405 C385 1.449 . S
C405 C404 1.399 . S
C405 H411 0.930 . S
H406 C386 0.931 . S
H407 C387 0.930 . S
H408 C395 0.931 . S
H409 C396 0.929 . S
H410 C404 0.929 . S
H411 C405 0.930 . S
Mn412 O417 2.095 . S
Mn412 O427 2.162 . S
Mn412 O428 2.297 . S
Mn412 O436 2.385 . S
Mn412 O437 2.209 1_545 S
Mn412 O438 2.094 . S
Mn413 O418 2.121 . S
Mn413 N420 2.257 . S
Mn413 N429 2.282 . S
Mn413 O437 2.215 . S
Mn413 O439 2.117 1_565 S
C414 O436 1.234 1_565 S
C414 O437 1.283 . S
C415 O427 1.281 . S
C415 O428 1.236 . S
C416 O438 1.240 . S
C416 O439 1.264 . S
O417 Mn412 2.095 . S
O417 C426 1.250 . S
O418 Mn413 2.121 . S
O418 C426 1.258 1_565 S
C419 N420 1.326 . S
C419 C423 1.460 . S
C419 H425 0.929 . S
N420 Mn413 2.257 . S
N420 C419 1.326 . S
N420 C424 1.362 . S
C421 C422 1.258 . S
C421 C424 1.431 . S
C421 C441 1.449 . S
C422 C421 1.258 . S
C422 C423 1.477 . S
C422 H442 0.931 . S
C423 C419 1.460 . S
C423 C422 1.477 . S
C423 H443 0.930 . S
C424 N420 1.362 . S
C424 C421 1.431 . S
C424 C434 1.476 . S
H425 C419 0.929 . S
C426 O417 1.250 . S
C426 O418 1.258 1_545 S
O427 Mn412 2.162 . S
O427 C415 1.281 . S
O428 Mn412 2.297 . S
O428 C415 1.236 . S
N429 Mn413 2.282 . S
N429 C430 1.328 . S
N429 C434 1.318 . S
C430 N429 1.328 . S
C430 C431 1.457 . S
C430 H435 0.929 . S
C431 C430 1.457 . S
C431 C432 1.291 . S
C431 H444 0.931 . S
C432 C431 1.291 . S
C432 C433 1.373 . S
C432 H445 0.929 . S
C433 C432 1.373 . S
C433 C434 1.396 . S
C433 C440 1.403 . S
C434 C424 1.476 . S
C434 N429 1.318 . S
C434 C433 1.396 . S
H435 C430 0.929 . S
O436 Mn412 2.385 . S
O436 C414 1.234 1_545 S
O437 Mn412 2.209 1_565 S
O437 Mn413 2.215 . S
O437 C414 1.283 . S
O438 Mn412 2.094 . S
O438 C416 1.240 . S
O439 Mn413 2.117 1_545 S
O439 C416 1.264 . S
C440 C433 1.403 . S
C440 C441 1.399 . S
C440 H446 0.929 . S
C441 C421 1.449 . S
C441 C440 1.399 . S
C441 H447 0.930 . S
H442 C422 0.931 . S
H443 C423 0.930 . S
H444 C431 0.931 . S
H445 C432 0.929 . S
H446 C440 0.929 . S
H447 C441 0.930 . S
Mn448 O453 2.095 . S
Mn448 O463 2.162 . S
Mn448 O464 2.297 . S
Mn448 O472 2.385 . S
Mn448 O473 2.209 . S
Mn448 O474 2.094 . S
Mn449 O454 2.121 . S
Mn449 N456 2.257 . S
Mn449 N465 2.282 . S
Mn449 O473 2.215 . S
Mn449 O475 2.117 . S
C450 O472 1.234 . S
C450 O473 1.283 . S
C451 O463 1.281 . S
C451 O464 1.236 . S
C452 O474 1.240 . S
C452 O475 1.264 . S
O453 Mn448 2.095 . S
O453 C462 1.250 . S
O454 Mn449 2.121 . S
O454 C462 1.258 . S
C455 N456 1.326 . S
C455 C459 1.460 . S
C455 H461 0.929 . S
N456 Mn449 2.257 . S
N456 C455 1.326 . S
N456 C460 1.362 . S
C457 C458 1.258 . S
C457 C460 1.431 . S
C457 C477 1.449 . S
C458 C457 1.258 . S
C458 C459 1.477 . S
C458 H478 0.931 . S
C459 C455 1.460 . S
C459 C458 1.477 . S
C459 H479 0.930 . S
C460 N456 1.362 . S
C460 C457 1.431 . S
C460 C470 1.476 . S
H461 C455 0.929 . S
C462 O453 1.250 . S
C462 O454 1.258 . S
O463 Mn448 2.162 . S
O463 C451 1.281 . S
O464 Mn448 2.297 . S
O464 C451 1.236 . S
N465 Mn449 2.282 . S
N465 C466 1.328 . S
N465 C470 1.318 . S
C466 N465 1.328 . S
C466 C467 1.457 . S
C466 H471 0.929 . S
C467 C466 1.457 . S
C467 C468 1.291 . S
C467 H480 0.931 . S
C468 C467 1.291 . S
C468 C469 1.373 . S
C468 H481 0.929 . S
C469 C468 1.373 . S
C469 C470 1.396 . S
C469 C476 1.403 . S
C470 C460 1.476 . S
C470 N465 1.318 . S
C470 C469 1.396 . S
H471 C466 0.929 . S
O472 Mn448 2.385 . S
O472 C450 1.234 . S
O473 Mn448 2.209 . S
O473 Mn449 2.215 . S
O473 C450 1.283 . S
O474 Mn448 2.094 . S
O474 C452 1.240 . S
O475 Mn449 2.117 . S
O475 C452 1.264 . S
C476 C469 1.403 . S
C476 C477 1.399 . S
C476 H482 0.929 . S
C477 C457 1.449 . S
C477 C476 1.399 . S
C477 H483 0.930 . S
H478 C458 0.931 . S
H479 C459 0.930 . S
H480 C467 0.931 . S
H481 C468 0.929 . S
H482 C476 0.929 . S
H483 C477 0.930 . S
Mn484 O489 2.095 . S
Mn484 O499 2.162 . S
Mn484 O500 2.297 . S
Mn484 O508 2.385 . S
Mn484 O509 2.209 . S
Mn484 O510 2.094 . S
Mn485 O490 2.121 . S
Mn485 N492 2.257 . S
Mn485 N501 2.282 . S
Mn485 O509 2.215 . S
Mn485 O511 2.117 . S
C486 O508 1.234 . S
C486 O509 1.283 . S
C487 O499 1.281 . S
C487 O500 1.236 . S
C488 O510 1.240 . S
C488 O511 1.264 . S
O489 Mn484 2.095 . S
O489 C498 1.250 . S
O490 Mn485 2.121 . S
O490 C498 1.258 . S
C491 N492 1.326 . S
C491 C495 1.460 . S
C491 H497 0.929 . S
N492 Mn485 2.257 . S
N492 C491 1.326 . S
N492 C496 1.362 . S
C493 C494 1.258 . S
C493 C496 1.431 . S
C493 C513 1.449 . S
C494 C493 1.258 . S
C494 C495 1.477 . S
C494 H514 0.931 . S
C495 C491 1.460 . S
C495 C494 1.477 . S
C495 H515 0.930 . S
C496 N492 1.362 . S
C496 C493 1.431 . S
C496 C506 1.476 . S
H497 C491 0.929 . S
C498 O489 1.250 . S
C498 O490 1.258 . S
O499 Mn484 2.162 . S
O499 C487 1.281 . S
O500 Mn484 2.297 . S
O500 C487 1.236 . S
N501 Mn485 2.282 . S
N501 C502 1.328 . S
N501 C506 1.318 . S
C502 N501 1.328 . S
C502 C503 1.457 . S
C502 H507 0.929 . S
C503 C502 1.457 . S
C503 C504 1.291 . S
C503 H516 0.931 . S
C504 C503 1.291 . S
C504 C505 1.373 . S
C504 H517 0.929 . S
C505 C504 1.373 . S
C505 C506 1.396 . S
C505 C512 1.403 . S
C506 C496 1.476 . S
C506 N501 1.318 . S
C506 C505 1.396 . S
H507 C502 0.929 . S
O508 Mn484 2.385 . S
O508 C486 1.234 . S
O509 Mn484 2.209 . S
O509 Mn485 2.215 . S
O509 C486 1.283 . S
O510 Mn484 2.094 . S
O510 C488 1.240 . S
O511 Mn485 2.117 . S
O511 C488 1.264 . S
C512 C505 1.403 . S
C512 C513 1.399 . S
C512 H518 0.929 . S
C513 C493 1.449 . S
C513 C512 1.399 . S
C513 H519 0.930 . S
H514 C494 0.931 . S
H515 C495 0.930 . S
H516 C503 0.931 . S
H517 C504 0.929 . S
H518 C512 0.929 . S
H519 C513 0.930 . S
Mn520 O525 2.095 . S
Mn520 O535 2.162 . S
Mn520 O536 2.297 . S
Mn520 O544 2.385 . S
Mn520 O545 2.209 . S
Mn520 O546 2.094 . S
Mn521 O526 2.121 . S
Mn521 N528 2.257 . S
Mn521 N537 2.282 . S
Mn521 O545 2.215 . S
Mn521 O547 2.117 . S
C522 O544 1.234 . S
C522 O545 1.283 . S
C523 O535 1.281 . S
C523 O536 1.236 . S
C524 O546 1.240 . S
C524 O547 1.264 . S
O525 Mn520 2.095 . S
O525 C534 1.250 . S
O526 Mn521 2.121 . S
O526 C534 1.258 . S
C527 N528 1.326 . S
C527 C531 1.460 . S
C527 H533 0.929 . S
N528 Mn521 2.257 . S
N528 C527 1.326 . S
N528 C532 1.362 . S
C529 C530 1.258 . S
C529 C532 1.431 . S
C529 C549 1.449 . S
C530 C529 1.258 . S
C530 C531 1.477 . S
C530 H550 0.931 . S
C531 C527 1.460 . S
C531 C530 1.477 . S
C531 H551 0.930 . S
C532 N528 1.362 . S
C532 C529 1.431 . S
C532 C542 1.476 . S
H533 C527 0.929 . S
C534 O525 1.250 . S
C534 O526 1.258 . S
O535 Mn520 2.162 . S
O535 C523 1.281 . S
O536 Mn520 2.297 . S
O536 C523 1.236 . S
N537 Mn521 2.282 . S
N537 C538 1.328 . S
N537 C542 1.318 . S
C538 N537 1.328 . S
C538 C539 1.457 . S
C538 H543 0.929 . S
C539 C538 1.457 . S
C539 C540 1.291 . S
C539 H552 0.931 . S
C540 C539 1.291 . S
C540 C541 1.373 . S
C540 H553 0.929 . S
C541 C540 1.373 . S
C541 C542 1.396 . S
C541 C548 1.403 . S
C542 C532 1.476 . S
C542 N537 1.318 . S
C542 C541 1.396 . S
H543 C538 0.929 . S
O544 Mn520 2.385 . S
O544 C522 1.234 . S
O545 Mn520 2.209 . S
O545 Mn521 2.215 . S
O545 C522 1.283 . S
O546 Mn520 2.094 . S
O546 C524 1.240 . S
O547 Mn521 2.117 . S
O547 C524 1.264 . S
C548 C541 1.403 . S
C548 C549 1.399 . S
C548 H554 0.929 . S
C549 C529 1.449 . S
C549 C548 1.399 . S
C549 H555 0.930 . S
H550 C530 0.931 . S
H551 C531 0.930 . S
H552 C539 0.931 . S
H553 C540 0.929 . S
H554 C548 0.929 . S
H555 C549 0.930 . S
Mn556 O561 2.095 . S
Mn556 O571 2.162 1_545 S
Mn556 O572 2.297 . S
Mn556 O580 2.385 . S
Mn556 O581 2.209 . S
Mn556 O582 2.094 . S
Mn557 O562 2.121 . S
Mn557 N564 2.257 . S
Mn557 N573 2.282 . S
Mn557 O581 2.215 . S
Mn557 O583 2.117 . S
C558 O580 1.234 . S
C558 O581 1.283 . S
C559 O571 1.281 . S
C559 O572 1.236 1_565 S
C560 O582 1.240 . S
C560 O583 1.264 . S
O561 Mn556 2.095 . S
O561 C570 1.250 . S
O562 Mn557 2.121 . S
O562 C570 1.258 . S
C563 N564 1.326 . S
C563 C567 1.460 . S
C563 H569 0.929 . S
N564 Mn557 2.257 . S
N564 C563 1.326 . S
N564 C568 1.362 . S
C565 C566 1.258 . S
C565 C568 1.431 . S
C565 C585 1.449 . S
C566 C565 1.258 . S
C566 C567 1.477 . S
C566 H586 0.931 . S
C567 C563 1.460 . S
C567 C566 1.477 . S
C567 H587 0.930 . S
C568 N564 1.362 . S
C568 C565 1.431 . S
C568 C578 1.476 . S
H569 C563 0.929 . S
C570 O561 1.250 . S
C570 O562 1.258 . S
O571 Mn556 2.162 1_565 S
O571 C559 1.281 . S
O572 Mn556 2.297 . S
O572 C559 1.236 1_545 S
N573 Mn557 2.282 . S
N573 C574 1.328 . S
N573 C578 1.318 . S
C574 N573 1.328 . S
C574 C575 1.457 . S
C574 H579 0.929 . S
C575 C574 1.457 . S
C575 C576 1.291 . S
C575 H588 0.931 . S
C576 C575 1.291 . S
C576 C577 1.373 . S
C576 H589 0.929 . S
C577 C576 1.373 . S
C577 C578 1.396 . S
C577 C584 1.403 . S
C578 C568 1.476 . S
C578 N573 1.318 . S
C578 C577 1.396 . S
H579 C574 0.929 . S
O580 Mn556 2.385 . S
O580 C558 1.234 . S
O581 Mn556 2.209 . S
O581 Mn557 2.215 . S
O581 C558 1.283 . S
O582 Mn556 2.094 . S
O582 C560 1.240 . S
O583 Mn557 2.117 . S
O583 C560 1.264 . S
C584 C577 1.403 . S
C584 C585 1.399 . S
C584 H590 0.929 . S
C585 C565 1.449 . S
C585 C584 1.399 . S
C585 H591 0.930 . S
H586 C566 0.931 . S
H587 C567 0.930 . S
H588 C575 0.931 . S
H589 C576 0.929 . S
H590 C584 0.929 . S
H591 C585 0.930 . S
Mn592 O597 2.095 . S
Mn592 O607 2.162 . S
Mn592 O608 2.297 . S
Mn592 O616 2.385 . S
Mn592 O617 2.209 1_455 S
Mn592 O618 2.094 . S
Mn593 O598 2.121 . S
Mn593 N600 2.257 . S
Mn593 N609 2.282 . S
Mn593 O617 2.215 . S
Mn593 O619 2.117 . S
C594 O616 1.234 1_655 S
C594 O617 1.283 . S
C595 O607 1.281 . S
C595 O608 1.236 . S
C596 O618 1.240 . S
C596 O619 1.264 1_455 S
O597 Mn592 2.095 . S
O597 C606 1.250 . S
O598 Mn593 2.121 . S
O598 C606 1.258 1_655 S
C599 N600 1.326 . S
C599 C603 1.460 . S
C599 H605 0.929 . S
N600 Mn593 2.257 . S
N600 C599 1.326 . S
N600 C604 1.362 . S
C601 C602 1.258 . S
C601 C604 1.431 . S
C601 C621 1.449 . S
C602 C601 1.258 . S
C602 C603 1.477 . S
C602 H622 0.931 . S
C603 C599 1.460 . S
C603 C602 1.477 . S
C603 H623 0.930 . S
C604 N600 1.362 . S
C604 C601 1.431 . S
C604 C614 1.476 . S
H605 C599 0.929 . S
C606 O597 1.250 . S
C606 O598 1.258 1_455 S
O607 Mn592 2.162 . S
O607 C595 1.281 . S
O608 Mn592 2.297 . S
O608 C595 1.236 . S
N609 Mn593 2.282 . S
N609 C610 1.328 . S
N609 C614 1.318 . S
C610 N609 1.328 . S
C610 C611 1.457 . S
C610 H615 0.929 . S
C611 C610 1.457 . S
C611 C612 1.291 . S
C611 H624 0.931 . S
C612 C611 1.291 . S
C612 C613 1.373 . S
C612 H625 0.929 . S
C613 C612 1.373 . S
C613 C614 1.396 . S
C613 C620 1.403 . S
C614 C604 1.476 . S
C614 N609 1.318 . S
C614 C613 1.396 . S
H615 C610 0.929 . S
O616 Mn592 2.385 . S
O616 C594 1.234 1_455 S
O617 Mn592 2.209 1_655 S
O617 Mn593 2.215 . S
O617 C594 1.283 . S
O618 Mn592 2.094 . S
O618 C596 1.240 . S
O619 Mn593 2.117 . S
O619 C596 1.264 1_655 S
C620 C613 1.403 . S
C620 C621 1.399 . S
C620 H626 0.929 . S
C621 C601 1.449 . S
C621 C620 1.399 . S
C621 H627 0.930 . S
H622 C602 0.931 . S
H623 C603 0.930 . S
H624 C611 0.931 . S
H625 C612 0.929 . S
H626 C620 0.929 . S
H627 C621 0.930 . S
Mn628 O633 2.095 . S
Mn628 O643 2.162 . S
Mn628 O644 2.297 . S
Mn628 O652 2.385 . S
Mn628 O653 2.209 . S
Mn628 O654 2.094 . S
Mn629 O634 2.121 . S
Mn629 N636 2.257 . S
Mn629 N645 2.282 . S
Mn629 O653 2.215 . S
Mn629 O655 2.117 . S
C630 O652 1.234 . S
C630 O653 1.283 . S
C631 O643 1.281 . S
C631 O644 1.236 . S
C632 O654 1.240 . S
C632 O655 1.264 . S
O633 Mn628 2.095 . S
O633 C642 1.250 . S
O634 Mn629 2.121 . S
O634 C642 1.258 . S
C635 N636 1.326 . S
C635 C639 1.460 . S
C635 H641 0.929 . S
N636 Mn629 2.257 . S
N636 C635 1.326 . S
N636 C640 1.362 . S
C637 C638 1.258 . S
C637 C640 1.431 . S
C637 C657 1.449 . S
C638 C637 1.258 . S
C638 C639 1.477 . S
C638 H658 0.931 . S
C639 C635 1.460 . S
C639 C638 1.477 . S
C639 H659 0.930 . S
C640 N636 1.362 . S
C640 C637 1.431 . S
C640 C650 1.476 . S
H641 C635 0.929 . S
C642 O633 1.250 . S
C642 O634 1.258 . S
O643 Mn628 2.162 . S
O643 C631 1.281 . S
O644 Mn628 2.297 . S
O644 C631 1.236 . S
N645 Mn629 2.282 . S
N645 C646 1.328 . S
N645 C650 1.318 . S
C646 N645 1.328 . S
C646 C647 1.457 . S
C646 H651 0.929 . S
C647 C646 1.457 . S
C647 C648 1.291 . S
C647 H660 0.931 . S
C648 C647 1.291 . S
C648 C649 1.373 . S
C648 H661 0.929 . S
C649 C648 1.373 . S
C649 C650 1.396 . S
C649 C656 1.403 . S
C650 C640 1.476 . S
C650 N645 1.318 . S
C650 C649 1.396 . S
H651 C646 0.929 . S
O652 Mn628 2.385 . S
O652 C630 1.234 . S
O653 Mn628 2.209 . S
O653 Mn629 2.215 . S
O653 C630 1.283 . S
O654 Mn628 2.094 . S
O654 C632 1.240 . S
O655 Mn629 2.117 . S
O655 C632 1.264 . S
C656 C649 1.403 . S
C656 C657 1.399 . S
C656 H662 0.929 . S
C657 C637 1.449 . S
C657 C656 1.399 . S
C657 H663 0.930 . S
H658 C638 0.931 . S
H659 C639 0.930 . S
H660 C647 0.931 . S
H661 C648 0.929 . S
H662 C656 0.929 . S
H663 C657 0.930 . S
Mn664 O669 2.095 1_455 S
Mn664 O679 2.162 . S
Mn664 O680 2.297 1_455 S
Mn664 O688 2.385 . S
Mn664 O689 2.209 1_455 S
Mn664 O690 2.094 . S
Mn665 O670 2.121 . S
Mn665 N672 2.257 . S
Mn665 N681 2.282 . S
Mn665 O689 2.215 . S
Mn665 O691 2.117 1_655 S
C666 O688 1.234 . S
C666 O689 1.283 1_455 S
C667 O679 1.281 . S
C667 O680 1.236 1_455 S
C668 O690 1.240 . S
C668 O691 1.264 . S
O669 Mn664 2.095 1_655 S
O669 C678 1.250 . S
O670 Mn665 2.121 . S
O670 C678 1.258 . S
C671 N672 1.326 . S
C671 C675 1.460 . S
C671 H677 0.929 . S
N672 Mn665 2.257 . S
N672 C671 1.326 . S
N672 C676 1.362 . S
C673 C674 1.258 . S
C673 C676 1.431 . S
C673 C693 1.449 . S
C674 C673 1.258 . S
C674 C675 1.477 . S
C674 H694 0.931 . S
C675 C671 1.460 . S
C675 C674 1.477 . S
C675 H695 0.930 . S
C676 N672 1.362 . S
C676 C673 1.431 . S
C676 C686 1.476 . S
H677 C671 0.929 . S
C678 O669 1.250 . S
C678 O670 1.258 . S
O679 Mn664 2.162 . S
O679 C667 1.281 . S
O680 Mn664 2.297 1_655 S
O680 C667 1.236 1_655 S
N681 Mn665 2.282 . S
N681 C682 1.328 1_655 S
N681 C686 1.318 . S
C682 N681 1.328 1_455 S
C682 C683 1.457 . S
C682 H687 0.929 . S
C683 C682 1.457 . S
C683 C684 1.291 . S
C683 H696 0.931 . S
C684 C683 1.291 . S
C684 C685 1.373 1_455 S
C684 H697 0.929 . S
C685 C684 1.373 1_655 S
C685 C686 1.396 . S
C685 C692 1.403 . S
C686 C676 1.476 . S
C686 N681 1.318 . S
C686 C685 1.396 . S
H687 C682 0.929 . S
O688 Mn664 2.385 . S
O688 C666 1.234 . S
O689 Mn664 2.209 1_655 S
O689 Mn665 2.215 . S
O689 C666 1.283 1_655 S
O690 Mn664 2.094 . S
O690 C668 1.240 . S
O691 Mn665 2.117 1_455 S
O691 C668 1.264 . S
C692 C685 1.403 . S
C692 C693 1.399 . S
C692 H698 0.929 . S
C693 C673 1.449 . S
C693 C692 1.399 . S
C693 H699 0.930 . S
H694 C674 0.931 . S
H695 C675 0.930 . S
H696 C683 0.931 . S
H697 C684 0.929 . S
H698 C692 0.929 . S
H699 C693 0.930 . S
Mn700 O705 2.095 . S
Mn700 O715 2.162 . S
Mn700 O716 2.297 . S
Mn700 O724 2.385 . S
Mn700 O725 2.209 . S
Mn700 O726 2.094 . S
Mn701 O706 2.121 . S
Mn701 N708 2.257 . S
Mn701 N717 2.282 . S
Mn701 O725 2.215 . S
Mn701 O727 2.117 . S
C702 O724 1.234 . S
C702 O725 1.283 . S
C703 O715 1.281 . S
C703 O716 1.236 . S
C704 O726 1.240 . S
C704 O727 1.264 . S
O705 Mn700 2.095 . S
O705 C714 1.250 . S
O706 Mn701 2.121 . S
O706 C714 1.258 . S
C707 N708 1.326 . S
C707 C711 1.460 . S
C707 H713 0.929 . S
N708 Mn701 2.257 . S
N708 C707 1.326 . S
N708 C712 1.362 . S
C709 C710 1.258 . S
C709 C712 1.431 . S
C709 C729 1.449 . S
C710 C709 1.258 . S
C710 C711 1.477 . S
C710 H730 0.931 . S
C711 C707 1.460 . S
C711 C710 1.477 . S
C711 H731 0.930 . S
C712 N708 1.362 . S
C712 C709 1.431 . S
C712 C722 1.476 . S
H713 C707 0.929 . S
C714 O705 1.250 . S
C714 O706 1.258 . S
O715 Mn700 2.162 . S
O715 C703 1.281 . S
O716 Mn700 2.297 . S
O716 C703 1.236 . S
N717 Mn701 2.282 . S
N717 C718 1.328 . S
N717 C722 1.318 . S
C718 N717 1.328 . S
C718 C719 1.457 . S
C718 H723 0.929 . S
C719 C718 1.457 . S
C719 C720 1.291 . S
C719 H732 0.931 . S
C720 C719 1.291 . S
C720 C721 1.373 . S
C720 H733 0.929 . S
C721 C720 1.373 . S
C721 C722 1.396 . S
C721 C728 1.403 . S
C722 C712 1.476 . S
C722 N717 1.318 . S
C722 C721 1.396 . S
H723 C718 0.929 . S
O724 Mn700 2.385 . S
O724 C702 1.234 . S
O725 Mn700 2.209 . S
O725 Mn701 2.215 . S
O725 C702 1.283 . S
O726 Mn700 2.094 . S
O726 C704 1.240 . S
O727 Mn701 2.117 . S
O727 C704 1.264 . S
C728 C721 1.403 . S
C728 C729 1.399 . S
C728 H734 0.929 . S
C729 C709 1.449 . S
C729 C728 1.399 . S
C729 H735 0.930 . S
H730 C710 0.931 . S
H731 C711 0.930 . S
H732 C719 0.931 . S
H733 C720 0.929 . S
H734 C728 0.929 . S
H735 C729 0.930 . S
H736 C744 0.950 . S
H737 C749 0.950 . S
H738 C746 0.950 . S
H739 C748 0.950 . S
H740 C750 0.950 . S
H741 C752 0.950 . S
H742 C754 0.950 . S
H743 C755 0.950 . S
C744 H736 0.950 . S
C744 C745 1.386 . S
C744 C746 1.391 . S
C745 C744 1.386 . S
C745 C749 1.393 . S
C746 H738 0.950 . S
C746 C744 1.391 . S
C746 C747 1.400 . S
C747 C746 1.400 . S
C747 C748 1.398 . S
C747 C753 1.491 . S
C748 H739 0.950 . S
C748 C747 1.398 . S
C748 C749 1.391 . S
C749 H737 0.950 . S
C749 C745 1.393 . S
C749 C748 1.391 . S
C750 H740 0.950 . S
C750 C751 1.386 . S
C750 C752 1.391 . S
C751 C750 1.386 . S
C751 C755 1.393 . S
C752 H741 0.950 . S
C752 C750 1.391 . S
C752 C753 1.400 . S
C753 C747 1.491 . S
C753 C752 1.400 . S
C753 C754 1.398 . S
C754 H742 0.950 . S
C754 C753 1.398 . S
C754 C755 1.391 . S
C755 H743 0.950 . S
C755 C751 1.393 . S
C755 C754 1.391 . S
H756 C764 0.950 . S
H757 C769 0.950 . S
H758 C766 0.950 . S
H759 C768 0.950 . S
H760 C770 0.950 . S
H761 C772 0.950 . S
H762 C774 0.950 . S
H763 C775 0.950 . S
C764 H756 0.950 . S
C764 C765 1.386 . S
C764 C766 1.391 . S
C765 C764 1.386 . S
C765 C769 1.393 . S
C766 H758 0.950 . S
C766 C764 1.391 . S
C766 C767 1.400 . S
C767 C766 1.400 . S
C767 C768 1.398 . S
C767 C773 1.491 . S
C768 H759 0.950 . S
C768 C767 1.398 . S
C768 C769 1.391 . S
C769 H757 0.950 . S
C769 C765 1.393 . S
C769 C768 1.391 . S
C770 H760 0.950 . S
C770 C771 1.386 . S
C770 C772 1.391 . S
C771 C770 1.386 . S
C771 C775 1.393 . S
C772 H761 0.950 . S
C772 C770 1.391 . S
C772 C773 1.400 . S
C773 C767 1.491 . S
C773 C772 1.400 . S
C773 C774 1.398 . S
C774 H762 0.950 . S
C774 C773 1.398 . S
C774 C775 1.391 . S
C775 H763 0.950 . S
C775 C771 1.393 . S
C775 C774 1.391 . S
H776 C784 0.950 . S
H777 C789 0.950 . S
H778 C786 0.950 . S
H779 C788 0.950 . S
H780 C790 0.950 . S
H781 C792 0.950 . S
H782 C794 0.950 . S
H783 C795 0.950 . S
C784 H776 0.950 . S
C784 C785 1.386 . S
C784 C786 1.391 . S
C785 C784 1.386 . S
C785 C789 1.393 . S
C786 H778 0.950 . S
C786 C784 1.391 . S
C786 C787 1.400 . S
C787 C786 1.400 . S
C787 C788 1.398 . S
C787 C793 1.491 . S
C788 H779 0.950 . S
C788 C787 1.398 . S
C788 C789 1.391 . S
C789 H777 0.950 . S
C789 C785 1.393 . S
C789 C788 1.391 . S
C790 H780 0.950 . S
C790 C791 1.386 . S
C790 C792 1.391 . S
C791 C790 1.386 . S
C791 C795 1.393 . S
C792 H781 0.950 . S
C792 C790 1.391 . S
C792 C793 1.400 . S
C793 C787 1.491 . S
C793 C792 1.400 . S
C793 C794 1.398 . S
C794 H782 0.950 . S
C794 C793 1.398 . S
C794 C795 1.391 . S
C795 H783 0.950 . S
C795 C791 1.393 . S
C795 C794 1.391 . S
H796 C804 0.950 . S
H797 C809 0.950 . S
H798 C806 0.950 . S
H799 C808 0.955 1_655 S
H800 C810 0.950 . S
H801 C812 0.950 . S
H802 C814 0.950 . S
H803 C815 0.950 . S
C804 H796 0.950 . S
C804 C805 1.386 . S
C804 C806 1.391 1_565 S
C805 C804 1.386 . S
C805 C809 1.393 . S
C806 H798 0.950 . S
C806 C804 1.391 1_545 S
C806 C807 1.400 . S
C807 C806 1.400 . S
C807 C808 1.398 1_545 S
C807 C813 1.491 . S
C808 H799 0.955 1_455 S
C808 C807 1.398 1_565 S
C808 C809 1.391 . S
C809 H797 0.950 . S
C809 C805 1.393 . S
C809 C808 1.391 . S
C810 H800 0.950 . S
C810 C811 1.386 . S
C810 C812 1.391 . S
C811 C810 1.386 . S
C811 C815 1.393 1_655 S
C812 H801 0.950 . S
C812 C810 1.391 . S
C812 C813 1.400 1_655 S
C813 C807 1.491 . S
C813 C812 1.400 1_455 S
C813 C814 1.398 . S
C814 H802 0.950 . S
C814 C813 1.398 . S
C814 C815 1.391 . S
C815 H803 0.950 . S
C815 C811 1.393 1_455 S
C815 C814 1.391 . S
H816 C824 0.950 . S
H817 C829 0.950 . S
H818 C826 0.950 . S
H819 C828 0.950 . S
H820 C830 0.950 . S
H821 C832 0.950 . S
H822 C834 0.950 . S
H823 C835 0.950 . S
C824 H816 0.950 . S
C824 C825 1.386 . S
C824 C826 1.391 . S
C825 C824 1.386 . S
C825 C829 1.393 . S
C826 H818 0.950 . S
C826 C824 1.391 . S
C826 C827 1.400 . S
C827 C826 1.400 . S
C827 C828 1.398 . S
C827 C833 1.491 . S
C828 H819 0.950 . S
C828 C827 1.398 . S
C828 C829 1.391 . S
C829 H817 0.950 . S
C829 C825 1.393 . S
C829 C828 1.391 . S
C830 H820 0.950 . S
C830 C831 1.386 . S
C830 C832 1.391 . S
C831 C830 1.386 . S
C831 C835 1.393 . S
C832 H821 0.950 . S
C832 C830 1.391 . S
C832 C833 1.400 . S
C833 C827 1.491 . S
C833 C832 1.400 . S
C833 C834 1.398 . S
C834 H822 0.950 . S
C834 C833 1.398 . S
C834 C835 1.391 . S
C835 H823 0.950 . S
C835 C831 1.393 . S
C835 C834 1.391 . S
H836 C844 0.950 . S
H837 C849 0.950 . S
H838 C846 0.950 . S
H839 C848 0.950 . S
H840 C850 0.950 . S
H841 C852 0.950 . S
H842 C854 0.950 . S
H843 C855 0.950 . S
C844 H836 0.950 . S
C844 C845 1.386 . S
C844 C846 1.391 . S
C845 C844 1.386 . S
C845 C849 1.393 . S
C846 H838 0.950 . S
C846 C844 1.391 . S
C846 C847 1.400 . S
C847 C846 1.400 . S
C847 C848 1.398 . S
C847 C853 1.491 . S
C848 H839 0.950 . S
C848 C847 1.398 . S
C848 C849 1.391 . S
C849 H837 0.950 . S
C849 C845 1.393 . S
C849 C848 1.391 . S
C850 H840 0.950 . S
C850 C851 1.386 . S
C850 C852 1.391 . S
C851 C850 1.386 . S
C851 C855 1.393 . S
C852 H841 0.950 . S
C852 C850 1.391 . S
C852 C853 1.400 . S
C853 C847 1.491 . S
C853 C852 1.400 . S
C853 C854 1.398 . S
C854 H842 0.950 . S
C854 C853 1.398 . S
C854 C855 1.391 . S
C855 H843 0.950 . S
C855 C851 1.393 . S
C855 C854 1.391 . S
H856 C864 0.950 . S
H857 C869 0.950 . S
H858 C866 0.950 . S
H859 C868 0.950 . S
H860 C870 0.950 . S
H861 C872 0.950 . S
H862 C874 0.950 . S
H863 C875 0.950 . S
C864 H856 0.950 . S
C864 C865 1.386 . S
C864 C866 1.391 . S
C865 C864 1.386 . S
C865 C869 1.393 . S
C866 H858 0.950 . S
C866 C864 1.391 . S
C866 C867 1.400 . S
C867 C866 1.400 . S
C867 C868 1.398 . S
C867 C873 1.491 . S
C868 H859 0.950 . S
C868 C867 1.398 . S
C868 C869 1.391 . S
C869 H857 0.950 . S
C869 C865 1.393 . S
C869 C868 1.391 . S
C870 H860 0.950 . S
C870 C871 1.386 . S
C870 C872 1.391 . S
C871 C870 1.386 . S
C871 C875 1.393 . S
C872 H861 0.950 . S
C872 C870 1.391 . S
C872 C873 1.400 . S
C873 C867 1.491 . S
C873 C872 1.400 . S
C873 C874 1.398 . S
C874 H862 0.950 . S
C874 C873 1.398 . S
C874 C875 1.391 . S
C875 H863 0.950 . S
C875 C871 1.393 . S
C875 C874 1.391 . S
H876 C884 0.950 1_545 S
H877 C889 0.950 . S
H878 C886 0.950 . S
H879 C888 0.950 . S
H880 C890 0.950 1_565 S
H881 C892 0.950 . S
H882 C894 0.950 . S
H883 C895 0.950 . S
C884 H876 0.950 1_565 S
C884 C885 1.386 . S
C884 C886 1.391 1_565 S
C885 C884 1.386 . S
C885 C889 1.393 . S
C886 H878 0.950 . S
C886 C884 1.391 1_545 S
C886 C887 1.400 1_545 S
C887 C886 1.400 1_565 S
C887 C888 1.398 . S
C887 C893 1.491 1_565 S
C888 H879 0.950 . S
C888 C887 1.398 . S
C888 C889 1.391 . S
C889 H877 0.950 . S
C889 C885 1.393 . S
C889 C888 1.391 . S
C890 H880 0.950 1_545 S
C890 C891 1.386 . S
C890 C892 1.391 1_545 S
C891 C890 1.386 . S
C891 C895 1.393 . S
C892 H881 0.950 . S
C892 C890 1.391 1_565 S
C892 C893 1.400 1_565 S
C893 C887 1.491 1_545 S
C893 C892 1.400 1_545 S
C893 C894 1.398 . S
C894 H882 0.950 . S
C894 C893 1.398 . S
C894 C895 1.391 . S
C895 H883 0.950 . S
C895 C891 1.393 . S
C895 C894 1.391 . S
H896 C904 0.950 . S
H897 C909 0.950 . S
H898 C906 0.950 . S
H899 C908 0.950 . S
H900 C910 0.950 . S
H901 C912 0.950 . S
H902 C914 0.950 . S
H903 C915 0.950 . S
C904 H896 0.950 . S
C904 C905 1.386 . S
C904 C906 1.391 . S
C905 C904 1.386 . S
C905 C909 1.393 . S
C906 H898 0.950 . S
C906 C904 1.391 . S
C906 C907 1.400 . S
C907 C906 1.400 . S
C907 C908 1.398 . S
C907 C913 1.491 . S
C908 H899 0.950 . S
C908 C907 1.398 . S
C908 C909 1.391 . S
C909 H897 0.950 . S
C909 C905 1.393 . S
C909 C908 1.391 . S
C910 H900 0.950 . S
C910 C911 1.386 . S
C910 C912 1.391 . S
C911 C910 1.386 . S
C911 C915 1.393 . S
C912 H901 0.950 . S
C912 C910 1.391 . S
C912 C913 1.400 . S
C913 C907 1.491 . S
C913 C912 1.400 . S
C913 C914 1.398 . S
C914 H902 0.950 . S
C914 C913 1.398 . S
C914 C915 1.391 . S
C915 H903 0.950 . S
C915 C911 1.393 . S
C915 C914 1.391 . S
H916 C924 0.950 . S
H917 C929 0.950 . S
H918 C926 0.950 . S
H919 C928 0.950 . S
H920 C930 0.950 . S
H921 C932 0.950 . S
H922 C934 0.950 . S
H923 C935 0.950 . S
C924 H916 0.950 . S
C924 C925 1.386 . S
C924 C926 1.391 . S
C925 C924 1.386 . S
C925 C929 1.393 . S
C926 H918 0.950 . S
C926 C924 1.391 . S
C926 C927 1.400 . S
C927 C926 1.400 . S
C927 C928 1.398 . S
C927 C933 1.491 . S
C928 H919 0.950 . S
C928 C927 1.398 . S
C928 C929 1.391 . S
C929 H917 0.950 . S
C929 C925 1.393 . S
C929 C928 1.391 . S
C930 H920 0.950 . S
C930 C931 1.386 . S
C930 C932 1.391 . S
C931 C930 1.386 . S
C931 C935 1.393 . S
C932 H921 0.950 . S
C932 C930 1.391 . S
C932 C933 1.400 . S
C933 C927 1.491 . S
C933 C932 1.400 . S
C933 C934 1.398 . S
C934 H922 0.950 . S
C934 C933 1.398 . S
C934 C935 1.391 . S
C935 H923 0.950 . S
C935 C931 1.393 . S
C935 C934 1.391 . S
H936 C944 0.950 . S
H937 C949 0.950 . S
H938 C946 0.950 . S
H939 C948 0.950 . S
H940 C950 0.950 . S
H941 C952 0.950 . S
H942 C954 0.950 . S
H943 C955 0.950 . S
C944 H936 0.950 . S
C944 C945 1.386 . S
C944 C946 1.391 . S
C945 C944 1.386 . S
C945 C949 1.393 . S
C946 H938 0.950 . S
C946 C944 1.391 . S
C946 C947 1.400 . S
C947 C946 1.400 . S
C947 C948 1.398 . S
C947 C953 1.491 . S
C948 H939 0.950 . S
C948 C947 1.398 . S
C948 C949 1.391 . S
C949 H937 0.950 . S
C949 C945 1.393 . S
C949 C948 1.391 . S
C950 H940 0.950 . S
C950 C951 1.386 . S
C950 C952 1.391 . S
C951 C950 1.386 . S
C951 C955 1.393 . S
C952 H941 0.950 . S
C952 C950 1.391 . S
C952 C953 1.400 . S
C953 C947 1.491 . S
C953 C952 1.400 . S
C953 C954 1.398 . S
C954 H942 0.950 . S
C954 C953 1.398 . S
C954 C955 1.391 . S
C955 H943 0.950 . S
C955 C951 1.393 . S
C955 C954 1.391 . S
H956 C964 0.950 . S
H957 C969 0.950 . S
H958 C966 0.950 . S
H959 C968 0.950 . S
H960 C970 0.950 . S
H961 C972 0.950 . S
H962 C974 0.950 . S
H963 C975 0.950 . S
C964 H956 0.950 . S
C964 C965 1.386 . S
C964 C966 1.391 . S
C965 C964 1.386 . S
C965 C969 1.393 . S
C966 H958 0.950 . S
C966 C964 1.391 . S
C966 C967 1.400 . S
C967 C966 1.400 . S
C967 C968 1.398 . S
C967 C973 1.491 . S
C968 H959 0.950 . S
C968 C967 1.398 . S
C968 C969 1.391 . S
C969 H957 0.950 . S
C969 C965 1.393 . S
C969 C968 1.391 . S
C970 H960 0.950 . S
C970 C971 1.386 . S
C970 C972 1.391 . S
C971 C970 1.386 . S
C971 C975 1.393 . S
C972 H961 0.950 . S
C972 C970 1.391 . S
C972 C973 1.400 . S
C973 C967 1.491 . S
C973 C972 1.400 . S
C973 C974 1.398 . S
C974 H962 0.950 . S
C974 C973 1.398 . S
C974 C975 1.391 . S
C975 H963 0.950 . S
C975 C971 1.393 . S
C975 C974 1.391 . S
H976 C984 0.950 . S
H977 C989 0.950 . S
H978 C986 0.950 . S
H979 C988 0.950 . S
H980 C990 0.950 . S
H981 C992 0.950 . S
H982 C994 0.950 . S
H983 C995 0.950 . S
C984 H976 0.950 . S
C984 C985 1.386 . S
C984 C986 1.391 . S
C985 C984 1.386 . S
C985 C989 1.393 . S
C986 H978 0.950 . S
C986 C984 1.391 . S
C986 C987 1.400 . S
C987 C986 1.400 . S
C987 C988 1.398 . S
C987 C993 1.491 . S
C988 H979 0.950 . S
C988 C987 1.398 . S
C988 C989 1.391 . S
C989 H977 0.950 . S
C989 C985 1.393 . S
C989 C988 1.391 . S
C990 H980 0.950 . S
C990 C991 1.386 . S
C990 C992 1.391 . S
C991 C990 1.386 . S
C991 C995 1.393 . S
C992 H981 0.950 . S
C992 C990 1.391 . S
C992 C993 1.400 . S
C993 C987 1.491 . S
C993 C992 1.400 . S
C993 C994 1.398 . S
C994 H982 0.950 . S
C994 C993 1.398 . S
C994 C995 1.391 . S
C995 H983 0.950 . S
C995 C991 1.393 . S
C995 C994 1.391 . S
H996 C1004 0.950 . S
H997 C1009 0.950 . S
H998 C1006 0.950 . S
H999 C1008 0.950 . S
H1000 C1010 0.950 . S
H1001 C1012 0.950 . S
H1002 C1014 0.950 . S
H1003 C1015 0.950 . S
C1004 H996 0.950 . S
C1004 C1005 1.386 . S
C1004 C1006 1.391 . S
C1005 C1004 1.386 . S
C1005 C1009 1.393 . S
C1006 H998 0.950 . S
C1006 C1004 1.391 . S
C1006 C1007 1.400 . S
C1007 C1006 1.400 . S
C1007 C1008 1.398 . S
C1007 C1013 1.491 . S
C1008 H999 0.950 . S
C1008 C1007 1.398 . S
C1008 C1009 1.391 . S
C1009 H997 0.950 . S
C1009 C1005 1.393 . S
C1009 C1008 1.391 . S
C1010 H1000 0.950 . S
C1010 C1011 1.386 . S
C1010 C1012 1.391 . S
C1011 C1010 1.386 . S
C1011 C1015 1.393 . S
C1012 H1001 0.950 . S
C1012 C1010 1.391 . S
C1012 C1013 1.400 . S
C1013 C1007 1.491 . S
C1013 C1012 1.400 . S
C1013 C1014 1.398 . S
C1014 H1002 0.950 . S
C1014 C1013 1.398 . S
C1014 C1015 1.391 . S
C1015 H1003 0.950 . S
C1015 C1011 1.393 . S
C1015 C1014 1.391 . S
H1016 C1024 0.950 . S
H1017 C1029 0.950 . S
H1018 C1026 0.950 . S
H1019 C1028 0.950 . S
H1020 C1030 0.950 . S
H1021 C1032 0.950 . S
H1022 C1034 0.950 . S
H1023 C1035 0.950 . S
C1024 H1016 0.950 . S
C1024 C1025 1.386 . S
C1024 C1026 1.391 . S
C1025 C1024 1.386 . S
C1025 C1029 1.393 . S
C1026 H1018 0.950 . S
C1026 C1024 1.391 . S
C1026 C1027 1.400 . S
C1027 C1026 1.400 . S
C1027 C1028 1.398 . S
C1027 C1033 1.491 . S
C1028 H1019 0.950 . S
C1028 C1027 1.398 . S
C1028 C1029 1.391 . S
C1029 H1017 0.950 . S
C1029 C1025 1.393 . S
C1029 C1028 1.391 . S
C1030 H1020 0.950 . S
C1030 C1031 1.386 . S
C1030 C1032 1.391 . S
C1031 C1030 1.386 . S
C1031 C1035 1.393 . S
C1032 H1021 0.950 . S
C1032 C1030 1.391 . S
C1032 C1033 1.400 . S
C1033 C1027 1.491 . S
C1033 C1032 1.400 . S
C1033 C1034 1.398 . S
C1034 H1022 0.950 . S
C1034 C1033 1.398 . S
C1034 C1035 1.391 . S
C1035 H1023 0.950 . S
C1035 C1031 1.393 . S
C1035 C1034 1.391 . S
H1036 C1044 0.950 . S
H1037 C1049 0.950 . S
H1038 C1046 0.950 . S
H1039 C1048 0.950 . S
H1040 C1050 0.950 . S
H1041 C1052 0.950 . S
H1042 C1054 0.950 . S
H1043 C1055 0.950 . S
C1044 H1036 0.950 . S
C1044 C1045 1.386 1_455 S
C1044 C1046 1.391 . S
C1045 C1044 1.386 1_655 S
C1045 C1049 1.393 . S
C1046 H1038 0.950 . S
C1046 C1044 1.391 . S
C1046 C1047 1.400 1_455 S
C1047 C1046 1.400 1_655 S
C1047 C1048 1.398 . S
C1047 C1053 1.491 . S
C1048 H1039 0.950 . S
C1048 C1047 1.398 . S
C1048 C1049 1.391 . S
C1049 H1037 0.950 . S
C1049 C1045 1.393 . S
C1049 C1048 1.391 . S
C1050 H1040 0.950 . S
C1050 C1051 1.386 . S
C1050 C1052 1.391 . S
C1051 C1050 1.386 . S
C1051 C1055 1.393 1_655 S
C1052 H1041 0.950 . S
C1052 C1050 1.391 . S
C1052 C1053 1.400 . S
C1053 C1047 1.491 . S
C1053 C1052 1.400 . S
C1053 C1054 1.398 1_655 S
C1054 H1042 0.950 . S
C1054 C1053 1.398 1_455 S
C1054 C1055 1.391 . S
C1055 H1043 0.950 . S
C1055 C1051 1.393 1_455 S
C1055 C1054 1.391 . S
H1056 C1064 0.950 . S
H1057 C1069 0.950 . S
H1058 C1066 0.950 . S
H1059 C1068 0.950 . S
H1060 C1070 0.950 . S
H1061 C1072 0.950 . S
H1062 C1074 0.950 . S
H1063 C1075 0.950 . S
C1064 H1056 0.950 . S
C1064 C1065 1.386 . S
C1064 C1066 1.391 . S
C1065 C1064 1.386 . S
C1065 C1069 1.393 . S
C1066 H1058 0.950 . S
C1066 C1064 1.391 . S
C1066 C1067 1.400 . S
C1067 C1066 1.400 . S
C1067 C1068 1.398 . S
C1067 C1073 1.491 . S
C1068 H1059 0.950 . S
C1068 C1067 1.398 . S
C1068 C1069 1.391 . S
C1069 H1057 0.950 . S
C1069 C1065 1.393 . S
C1069 C1068 1.391 . S
C1070 H1060 0.950 . S
C1070 C1071 1.386 . S
C1070 C1072 1.391 . S
C1071 C1070 1.386 . S
C1071 C1075 1.393 . S
C1072 H1061 0.950 . S
C1072 C1070 1.391 . S
C1072 C1073 1.400 . S
C1073 C1067 1.491 . S
C1073 C1072 1.400 . S
C1073 C1074 1.398 . S
C1074 H1062 0.950 . S
C1074 C1073 1.398 . S
C1074 C1075 1.391 . S
C1075 H1063 0.950 . S
C1075 C1071 1.393 . S
C1075 C1074 1.391 . S
H1076 C1084 0.950 . S
H1077 C1089 0.950 . S
H1078 C1086 0.950 . S
H1079 C1088 0.950 . S
H1080 C1090 0.950 . S
H1081 C1092 0.950 . S
H1082 C1094 0.950 . S
H1083 C1095 0.950 . S
C1084 H1076 0.950 . S
C1084 C1085 1.386 . S
C1084 C1086 1.391 . S
C1085 C1084 1.386 . S
C1085 C1089 1.393 . S
C1086 H1078 0.950 . S
C1086 C1084 1.391 . S
C1086 C1087 1.400 . S
C1087 C1086 1.400 . S
C1087 C1088 1.398 . S
C1087 C1093 1.491 . S
C1088 H1079 0.950 . S
C1088 C1087 1.398 . S
C1088 C1089 1.391 . S
C1089 H1077 0.950 . S
C1089 C1085 1.393 . S
C1089 C1088 1.391 . S
C1090 H1080 0.950 . S
C1090 C1091 1.386 . S
C1090 C1092 1.391 . S
C1091 C1090 1.386 . S
C1091 C1095 1.393 . S
C1092 H1081 0.950 . S
C1092 C1090 1.391 . S
C1092 C1093 1.400 . S
C1093 C1087 1.491 . S
C1093 C1092 1.400 . S
C1093 C1094 1.398 . S
C1094 H1082 0.950 . S
C1094 C1093 1.398 . S
C1094 C1095 1.391 . S
C1095 H1083 0.950 . S
C1095 C1091 1.393 . S
C1095 C1094 1.391 . S
H1096 C1104 0.953 . S
H1097 C1109 0.950 . S
H1098 C1106 0.950 . S
H1099 C1108 0.940 1_545 S
H1100 C1110 0.950 . S
H1101 C1112 0.950 . S
H1102 C1114 0.950 . S
H1103 C1115 0.950 . S
C1104 H1096 0.953 . S
C1104 C1105 1.386 1_565 S
C1104 C1106 1.391 1_556 S
C1105 C1104 1.386 1_545 S
C1105 C1109 1.393 . S
C1106 H1098 0.950 . S
C1106 C1104 1.391 1_554 S
C1106 C1107 1.400 . S
C1107 C1106 1.400 . S
C1107 C1108 1.398 1_554 S
C1107 C1113 1.491 . S
C1108 H1099 0.940 1_565 S
C1108 C1107 1.398 1_556 S
C1108 C1109 1.391 1_565 S
C1109 H1097 0.950 . S
C1109 C1105 1.393 . S
C1109 C1108 1.391 1_545 S
C1110 H1100 0.950 . S
C1110 C1111 1.386 . S
C1110 C1112 1.391 . S
C1111 C1110 1.386 . S
C1111 C1115 1.393 . S
C1112 H1101 0.950 . S
C1112 C1110 1.391 . S
C1112 C1113 1.400 . S
C1113 C1107 1.491 . S
C1113 C1112 1.400 . S
C1113 C1114 1.398 . S
C1114 H1102 0.950 . S
C1114 C1113 1.398 . S
C1114 C1115 1.391 . S
C1115 H1103 0.950 . S
C1115 C1111 1.393 . S
C1115 C1114 1.391 . S
H1116 C1124 0.950 . S
H1117 C1129 0.950 . S
H1118 C1126 0.950 . S
H1119 C1128 0.950 . S
H1120 C1130 0.950 . S
H1121 C1132 0.950 . S
H1122 C1134 0.950 . S
H1123 C1135 0.950 . S
C1124 H1116 0.950 . S
C1124 C1125 1.386 . S
C1124 C1126 1.391 . S
C1125 C1124 1.386 . S
C1125 C1129 1.393 . S
C1126 H1118 0.950 . S
C1126 C1124 1.391 . S
C1126 C1127 1.400 . S
C1127 C1126 1.400 . S
C1127 C1128 1.398 . S
C1127 C1133 1.491 . S
C1128 H1119 0.950 . S
C1128 C1127 1.398 . S
C1128 C1129 1.391 . S
C1129 H1117 0.950 . S
C1129 C1125 1.393 . S
C1129 C1128 1.391 . S
C1130 H1120 0.950 . S
C1130 C1131 1.386 . S
C1130 C1132 1.391 . S
C1131 C1130 1.386 . S
C1131 C1135 1.393 . S
C1132 H1121 0.950 . S
C1132 C1130 1.391 . S
C1132 C1133 1.400 . S
C1133 C1127 1.491 . S
C1133 C1132 1.400 . S
C1133 C1134 1.398 . S
C1134 H1122 0.950 . S
C1134 C1133 1.398 . S
C1134 C1135 1.391 . S
C1135 H1123 0.950 . S
C1135 C1131 1.393 . S
C1135 C1134 1.391 . S
H1136 C1144 0.950 1_565 S
H1137 C1149 0.950 . S
H1138 C1146 0.950 . S
H1139 C1148 0.950 . S
H1140 C1150 0.950 . S
H1141 C1152 0.950 . S
H1142 C1154 0.950 . S
H1143 C1155 0.950 . S
C1144 H1136 0.950 1_545 S
C1144 C1145 1.386 . S
C1144 C1146 1.391 . S
C1145 C1144 1.386 . S
C1145 C1149 1.393 . S
C1146 H1138 0.950 . S
C1146 C1144 1.391 . S
C1146 C1147 1.400 . S
C1147 C1146 1.400 . S
C1147 C1148 1.398 . S
C1147 C1153 1.491 . S
C1148 H1139 0.950 . S
C1148 C1147 1.398 . S
C1148 C1149 1.391 . S
C1149 H1137 0.950 . S
C1149 C1145 1.393 . S
C1149 C1148 1.391 . S
C1150 H1140 0.950 . S
C1150 C1151 1.386 . S
C1150 C1152 1.391 . S
C1151 C1150 1.386 . S
C1151 C1155 1.393 . S
C1152 H1141 0.950 . S
C1152 C1150 1.391 . S
C1152 C1153 1.400 . S
C1153 C1147 1.491 . S
C1153 C1152 1.400 . S
C1153 C1154 1.398 . S
C1154 H1142 0.950 . S
C1154 C1153 1.398 . S
C1154 C1155 1.391 . S
C1155 H1143 0.950 . S
C1155 C1151 1.393 . S
C1155 C1154 1.391 . S
H1156 C1164 0.950 . S
H1157 C1169 0.950 . S
H1158 C1166 0.950 . S
H1159 C1168 0.950 . S
H1160 C1170 0.950 . S
H1161 C1172 0.950 . S
H1162 C1174 0.950 . S
H1163 C1175 0.950 . S
C1164 H1156 0.950 . S
C1164 C1165 1.386 . S
C1164 C1166 1.391 . S
C1165 C1164 1.386 . S
C1165 C1169 1.393 . S
C1166 H1158 0.950 . S
C1166 C1164 1.391 . S
C1166 C1167 1.400 . S
C1167 C1166 1.400 . S
C1167 C1168 1.398 . S
C1167 C1173 1.491 . S
C1168 H1159 0.950 . S
C1168 C1167 1.398 . S
C1168 C1169 1.391 . S
C1169 H1157 0.950 . S
C1169 C1165 1.393 . S
C1169 C1168 1.391 . S
C1170 H1160 0.950 . S
C1170 C1171 1.386 . S
C1170 C1172 1.391 . S
C1171 C1170 1.386 . S
C1171 C1175 1.393 . S
C1172 H1161 0.950 . S
C1172 C1170 1.391 . S
C1172 C1173 1.400 . S
C1173 C1167 1.491 . S
C1173 C1172 1.400 . S
C1173 C1174 1.398 . S
C1174 H1162 0.950 . S
C1174 C1173 1.398 . S
C1174 C1175 1.391 . S
C1175 H1163 0.950 . S
C1175 C1171 1.393 . S
C1175 C1174 1.391 . S
H1176 C1184 0.950 . S
H1177 C1189 0.950 . S
H1178 C1186 0.950 . S
H1179 C1188 0.950 . S
H1180 C1190 0.950 . S
H1181 C1192 0.950 . S
H1182 C1194 0.950 . S
H1183 C1195 0.950 . S
C1184 H1176 0.950 . S
C1184 C1185 1.386 . S
C1184 C1186 1.391 . S
C1185 C1184 1.386 . S
C1185 C1189 1.393 . S
C1186 H1178 0.950 . S
C1186 C1184 1.391 . S
C1186 C1187 1.400 . S
C1187 C1186 1.400 . S
C1187 C1188 1.398 . S
C1187 C1193 1.491 . S
C1188 H1179 0.950 . S
C1188 C1187 1.398 . S
C1188 C1189 1.391 . S
C1189 H1177 0.950 . S
C1189 C1185 1.393 . S
C1189 C1188 1.391 . S
C1190 H1180 0.950 . S
C1190 C1191 1.386 . S
C1190 C1192 1.391 . S
C1191 C1190 1.386 . S
C1191 C1195 1.393 . S
C1192 H1181 0.950 . S
C1192 C1190 1.391 . S
C1192 C1193 1.400 . S
C1193 C1187 1.491 . S
C1193 C1192 1.400 . S
C1193 C1194 1.398 . S
C1194 H1182 0.950 . S
C1194 C1193 1.398 . S
C1194 C1195 1.391 . S
C1195 H1183 0.950 . S
C1195 C1191 1.393 . S
C1195 C1194 1.391 . S
H1196 C1204 0.950 . S
H1197 C1209 0.950 . S
H1198 C1206 0.950 . S
H1199 C1208 0.950 . S
H1200 C1210 0.950 . S
H1201 C1212 0.950 . S
H1202 C1214 0.950 . S
H1203 C1215 0.950 . S
C1204 H1196 0.950 . S
C1204 C1205 1.386 . S
C1204 C1206 1.391 . S
C1205 C1204 1.386 . S
C1205 C1209 1.393 . S
C1206 H1198 0.950 . S
C1206 C1204 1.391 . S
C1206 C1207 1.400 . S
C1207 C1206 1.400 . S
C1207 C1208 1.398 . S
C1207 C1213 1.491 . S
C1208 H1199 0.950 . S
C1208 C1207 1.398 . S
C1208 C1209 1.391 . S
C1209 H1197 0.950 . S
C1209 C1205 1.393 . S
C1209 C1208 1.391 . S
C1210 H1200 0.950 . S
C1210 C1211 1.386 . S
C1210 C1212 1.391 . S
C1211 C1210 1.386 . S
C1211 C1215 1.393 . S
C1212 H1201 0.950 . S
C1212 C1210 1.391 . S
C1212 C1213 1.400 . S
C1213 C1207 1.491 . S
C1213 C1212 1.400 . S
C1213 C1214 1.398 . S
C1214 H1202 0.950 . S
C1214 C1213 1.398 . S
C1214 C1215 1.391 . S
C1215 H1203 0.950 . S
C1215 C1211 1.393 . S
C1215 C1214 1.391 . S
H1216 C1224 0.950 . S
H1217 C1229 0.950 . S
H1218 C1226 0.950 . S
H1219 C1228 0.950 . S
H1220 C1230 0.950 . S
H1221 C1232 0.950 . S
H1222 C1234 0.950 . S
H1223 C1235 0.950 . S
C1224 H1216 0.950 . S
C1224 C1225 1.386 . S
C1224 C1226 1.391 . S
C1225 C1224 1.386 . S
C1225 C1229 1.393 . S
C1226 H1218 0.950 . S
C1226 C1224 1.391 . S
C1226 C1227 1.400 . S
C1227 C1226 1.400 . S
C1227 C1228 1.398 . S
C1227 C1233 1.491 . S
C1228 H1219 0.950 . S
C1228 C1227 1.398 . S
C1228 C1229 1.391 . S
C1229 H1217 0.950 . S
C1229 C1225 1.393 . S
C1229 C1228 1.391 . S
C1230 H1220 0.950 . S
C1230 C1231 1.386 . S
C1230 C1232 1.391 . S
C1231 C1230 1.386 . S
C1231 C1235 1.393 . S
C1232 H1221 0.950 . S
C1232 C1230 1.391 . S
C1232 C1233 1.400 . S
C1233 C1227 1.491 . S
C1233 C1232 1.400 . S
C1233 C1234 1.398 . S
C1234 H1222 0.950 . S
C1234 C1233 1.398 . S
C1234 C1235 1.391 . S
C1235 H1223 0.950 . S
C1235 C1231 1.393 . S
C1235 C1234 1.391 . S
H1236 C1244 0.950 . S
H1237 C1249 0.950 . S
H1238 C1246 0.950 . S
H1239 C1248 0.950 . S
H1240 C1250 0.950 . S
H1241 C1252 0.950 . S
H1242 C1254 0.950 . S
H1243 C1255 0.950 . S
C1244 H1236 0.950 . S
C1244 C1245 1.386 . S
C1244 C1246 1.391 . S
C1245 C1244 1.386 . S
C1245 C1249 1.393 . S
C1246 H1238 0.950 . S
C1246 C1244 1.391 . S
C1246 C1247 1.400 . S
C1247 C1246 1.400 . S
C1247 C1248 1.398 . S
C1247 C1253 1.491 . S
C1248 H1239 0.950 . S
C1248 C1247 1.398 . S
C1248 C1249 1.391 . S
C1249 H1237 0.950 . S
C1249 C1245 1.393 . S
C1249 C1248 1.391 . S
C1250 H1240 0.950 . S
C1250 C1251 1.386 . S
C1250 C1252 1.391 . S
C1251 C1250 1.386 . S
C1251 C1255 1.393 . S
C1252 H1241 0.950 . S
C1252 C1250 1.391 . S
C1252 C1253 1.400 . S
C1253 C1247 1.491 . S
C1253 C1252 1.400 . S
C1253 C1254 1.398 . S
C1254 H1242 0.950 . S
C1254 C1253 1.398 . S
C1254 C1255 1.391 . S
C1255 H1243 0.950 . S
C1255 C1251 1.393 . S
C1255 C1254 1.391 . S
H1256 C1264 0.950 . S
H1257 C1269 0.950 . S
H1258 C1266 0.950 . S
H1259 C1268 0.950 . S
H1260 C1270 0.950 . S
H1261 C1272 0.950 . S
H1262 C1274 0.950 . S
H1263 C1275 0.950 . S
C1264 H1256 0.950 . S
C1264 C1265 1.386 . S
C1264 C1266 1.391 . S
C1265 C1264 1.386 . S
C1265 C1269 1.393 . S
C1266 H1258 0.950 . S
C1266 C1264 1.391 . S
C1266 C1267 1.400 . S
C1267 C1266 1.400 . S
C1267 C1268 1.398 . S
C1267 C1273 1.491 . S
C1268 H1259 0.950 . S
C1268 C1267 1.398 . S
C1268 C1269 1.391 . S
C1269 H1257 0.950 . S
C1269 C1265 1.393 . S
C1269 C1268 1.391 . S
C1270 H1260 0.950 . S
C1270 C1271 1.386 . S
C1270 C1272 1.391 . S
C1271 C1270 1.386 . S
C1271 C1275 1.393 . S
C1272 H1261 0.950 . S
C1272 C1270 1.391 . S
C1272 C1273 1.400 . S
C1273 C1267 1.491 . S
C1273 C1272 1.400 . S
C1273 C1274 1.398 . S
C1274 H1262 0.950 . S
C1274 C1273 1.398 . S
C1274 C1275 1.391 . S
C1275 H1263 0.950 . S
C1275 C1271 1.393 . S
C1275 C1274 1.391 . S
H1276 C1284 0.950 . S
H1277 C1289 0.950 . S
H1278 C1286 0.950 . S
H1279 C1288 0.950 . S
H1280 C1290 0.950 . S
H1281 C1292 0.950 . S
H1282 C1294 0.950 . S
H1283 C1295 0.950 . S
C1284 H1276 0.950 . S
C1284 C1285 1.386 . S
C1284 C1286 1.391 . S
C1285 C1284 1.386 . S
C1285 C1289 1.393 . S
C1286 H1278 0.950 . S
C1286 C1284 1.391 . S
C1286 C1287 1.400 . S
C1287 C1286 1.400 . S
C1287 C1288 1.398 . S
C1287 C1293 1.491 . S
C1288 H1279 0.950 . S
C1288 C1287 1.398 . S
C1288 C1289 1.391 . S
C1289 H1277 0.950 . S
C1289 C1285 1.393 . S
C1289 C1288 1.391 . S
C1290 H1280 0.950 . S
C1290 C1291 1.386 . S
C1290 C1292 1.391 . S
C1291 C1290 1.386 . S
C1291 C1295 1.393 . S
C1292 H1281 0.950 . S
C1292 C1290 1.391 . S
C1292 C1293 1.400 . S
C1293 C1287 1.491 . S
C1293 C1292 1.400 . S
C1293 C1294 1.398 . S
C1294 H1282 0.950 . S
C1294 C1293 1.398 . S
C1294 C1295 1.391 . S
C1295 H1283 0.950 . S
C1295 C1291 1.393 . S
C1295 C1294 1.391 . S
H1296 C1304 0.950 . S
H1297 C1309 0.950 . S
H1298 C1306 0.950 . S
H1299 C1308 0.950 . S
H1300 C1310 0.950 . S
H1301 C1312 0.950 . S
H1302 C1314 0.950 . S
H1303 C1315 0.950 . S
C1304 H1296 0.950 . S
C1304 C1305 1.386 . S
C1304 C1306 1.391 . S
C1305 C1304 1.386 . S
C1305 C1309 1.393 . S
C1306 H1298 0.950 . S
C1306 C1304 1.391 . S
C1306 C1307 1.400 . S
C1307 C1306 1.400 . S
C1307 C1308 1.398 . S
C1307 C1313 1.491 . S
C1308 H1299 0.950 . S
C1308 C1307 1.398 . S
C1308 C1309 1.391 . S
C1309 H1297 0.950 . S
C1309 C1305 1.393 . S
C1309 C1308 1.391 . S
C1310 H1300 0.950 . S
C1310 C1311 1.386 . S
C1310 C1312 1.391 . S
C1311 C1310 1.386 . S
C1311 C1315 1.393 . S
C1312 H1301 0.950 . S
C1312 C1310 1.391 . S
C1312 C1313 1.400 . S
C1313 C1307 1.491 . S
C1313 C1312 1.400 . S
C1313 C1314 1.398 . S
C1314 H1302 0.950 . S
C1314 C1313 1.398 . S
C1314 C1315 1.391 . S
C1315 H1303 0.950 . S
C1315 C1311 1.393 . S
C1315 C1314 1.391 . S
H1316 C1324 0.950 . S
H1317 C1329 0.950 . S
H1318 C1326 0.950 . S
H1319 C1328 0.951 1_665 S
H1320 C1330 0.950 1_565 S
H1321 C1332 0.950 1_565 S
H1322 C1334 0.950 . S
H1323 C1335 0.950 . S
C1324 H1316 0.950 . S
C1324 C1325 1.386 . S
C1324 C1326 1.391 . S
C1325 C1324 1.386 . S
C1325 C1329 1.393 1_545 S
C1326 H1318 0.950 . S
C1326 C1324 1.391 . S
C1326 C1327 1.400 . S
C1327 C1326 1.400 . S
C1327 C1328 1.397 . S
C1327 C1333 1.491 . S
C1328 H1319 0.951 1_445 S
C1328 C1327 1.397 . S
C1328 C1329 1.391 1_545 S
C1329 H1317 0.950 . S
C1329 C1325 1.393 1_565 S
C1329 C1328 1.391 1_565 S
C1330 H1320 0.950 1_545 S
C1330 C1331 1.386 . S
C1330 C1332 1.391 . S
C1331 C1330 1.386 . S
C1331 C1335 1.393 1_655 S
C1332 H1321 0.950 1_545 S
C1332 C1330 1.391 . S
C1332 C1333 1.400 1_655 S
C1333 C1327 1.491 . S
C1333 C1332 1.400 1_455 S
C1333 C1334 1.398 . S
C1334 H1322 0.950 . S
C1334 C1333 1.398 . S
C1334 C1335 1.391 . S
C1335 H1323 0.950 . S
C1335 C1331 1.393 1_455 S
C1335 C1334 1.391 . S
H1336 C1344 0.950 . S
H1337 C1349 0.950 . S
H1338 C1346 0.950 . S
H1339 C1348 0.950 . S
H1340 C1350 0.950 . S
H1341 C1352 0.950 . S
H1342 C1354 0.950 . S
H1343 C1355 0.950 . S
C1344 H1336 0.950 . S
C1344 C1345 1.386 . S
C1344 C1346 1.391 . S
C1345 C1344 1.386 . S
C1345 C1349 1.393 . S
C1346 H1338 0.950 . S
C1346 C1344 1.391 . S
C1346 C1347 1.400 . S
C1347 C1346 1.400 . S
C1347 C1348 1.398 . S
C1347 C1353 1.491 . S
C1348 H1339 0.950 . S
C1348 C1347 1.398 . S
C1348 C1349 1.391 . S
C1349 H1337 0.950 . S
C1349 C1345 1.393 . S
C1349 C1348 1.391 . S
C1350 H1340 0.950 . S
C1350 C1351 1.386 . S
C1350 C1352 1.391 . S
C1351 C1350 1.386 . S
C1351 C1355 1.393 . S
C1352 H1341 0.950 . S
C1352 C1350 1.391 . S
C1352 C1353 1.400 . S
C1353 C1347 1.491 . S
C1353 C1352 1.400 . S
C1353 C1354 1.398 . S
C1354 H1342 0.950 . S
C1354 C1353 1.398 . S
C1354 C1355 1.391 . S
C1355 H1343 0.950 . S
C1355 C1351 1.393 . S
C1355 C1354 1.391 . S
H1356 C1364 0.950 . S
H1357 C1369 0.950 . S
H1358 C1366 0.950 . S
H1359 C1368 0.950 . S
H1360 C1370 0.950 . S
H1361 C1372 0.950 . S
H1362 C1374 0.950 . S
H1363 C1375 0.950 . S
C1364 H1356 0.950 . S
C1364 C1365 1.386 . S
C1364 C1366 1.391 . S
C1365 C1364 1.386 . S
C1365 C1369 1.393 . S
C1366 H1358 0.950 . S
C1366 C1364 1.391 . S
C1366 C1367 1.400 . S
C1367 C1366 1.400 . S
C1367 C1368 1.398 . S
C1367 C1373 1.491 . S
C1368 H1359 0.950 . S
C1368 C1367 1.398 . S
C1368 C1369 1.391 . S
C1369 H1357 0.950 . S
C1369 C1365 1.393 . S
C1369 C1368 1.391 . S
C1370 H1360 0.950 . S
C1370 C1371 1.386 . S
C1370 C1372 1.391 . S
C1371 C1370 1.386 . S
C1371 C1375 1.393 . S
C1372 H1361 0.950 . S
C1372 C1370 1.391 . S
C1372 C1373 1.400 . S
C1373 C1367 1.491 . S
C1373 C1372 1.400 . S
C1373 C1374 1.398 . S
C1374 H1362 0.950 . S
C1374 C1373 1.398 . S
C1374 C1375 1.391 . S
C1375 H1363 0.950 . S
C1375 C1371 1.393 . S
C1375 C1374 1.391 . S
H1376 C1384 0.950 . S
H1377 C1389 0.950 . S
H1378 C1386 0.950 . S
H1379 C1388 0.950 . S
H1380 C1390 0.950 . S
H1381 C1392 0.950 . S
H1382 C1394 0.950 . S
H1383 C1395 0.950 . S
C1384 H1376 0.950 . S
C1384 C1385 1.386 . S
C1384 C1386 1.391 . S
C1385 C1384 1.386 . S
C1385 C1389 1.393 . S
C1386 H1378 0.950 . S
C1386 C1384 1.391 . S
C1386 C1387 1.400 . S
C1387 C1386 1.400 . S
C1387 C1388 1.398 . S
C1387 C1393 1.491 . S
C1388 H1379 0.950 . S
C1388 C1387 1.398 . S
C1388 C1389 1.391 . S
C1389 H1377 0.950 . S
C1389 C1385 1.393 . S
C1389 C1388 1.391 . S
C1390 H1380 0.950 . S
C1390 C1391 1.386 . S
C1390 C1392 1.391 . S
C1391 C1390 1.386 . S
C1391 C1395 1.393 . S
C1392 H1381 0.950 . S
C1392 C1390 1.391 . S
C1392 C1393 1.400 . S
C1393 C1387 1.491 . S
C1393 C1392 1.400 . S
C1393 C1394 1.398 . S
C1394 H1382 0.950 . S
C1394 C1393 1.398 . S
C1394 C1395 1.391 . S
C1395 H1383 0.950 . S
C1395 C1391 1.393 . S
C1395 C1394 1.391 . S
H1396 C1404 0.950 . S
H1397 C1409 0.950 . S
H1398 C1406 0.950 . S
H1399 C1408 0.950 . S
H1400 C1410 0.950 . S
H1401 C1412 0.950 . S
H1402 C1414 0.950 . S
H1403 C1415 0.950 . S
C1404 H1396 0.950 . S
C1404 C1405 1.386 1_655 S
C1404 C1406 1.391 . S
C1405 C1404 1.386 1_455 S
C1405 C1409 1.393 . S
C1406 H1398 0.950 . S
C1406 C1404 1.391 . S
C1406 C1407 1.400 1_655 S
C1407 C1406 1.400 1_455 S
C1407 C1408 1.398 . S
C1407 C1413 1.491 . S
C1408 H1399 0.950 . S
C1408 C1407 1.398 . S
C1408 C1409 1.391 . S
C1409 H1397 0.950 . S
C1409 C1405 1.393 . S
C1409 C1408 1.391 . S
C1410 H1400 0.950 . S
C1410 C1411 1.386 . S
C1410 C1412 1.391 . S
C1411 C1410 1.386 . S
C1411 C1415 1.393 1_455 S
C1412 H1401 0.950 . S
C1412 C1410 1.391 . S
C1412 C1413 1.400 . S
C1413 C1407 1.491 . S
C1413 C1412 1.400 . S
C1413 C1414 1.398 1_455 S
C1414 H1402 0.950 . S
C1414 C1413 1.398 1_655 S
C1414 C1415 1.391 . S
C1415 H1403 0.950 . S
C1415 C1411 1.393 1_655 S
C1415 C1414 1.391 . S
H1416 C1424 0.950 . S
H1417 C1429 0.950 . S
H1418 C1426 0.950 . S
H1419 C1428 0.950 . S
H1420 C1430 0.950 . S
H1421 C1432 0.950 . S
H1422 C1434 0.950 . S
H1423 C1435 0.950 . S
C1424 H1416 0.950 . S
C1424 C1425 1.386 . S
C1424 C1426 1.391 . S
C1425 C1424 1.386 . S
C1425 C1429 1.393 . S
C1426 H1418 0.950 . S
C1426 C1424 1.391 . S
C1426 C1427 1.400 . S
C1427 C1426 1.400 . S
C1427 C1428 1.398 . S
C1427 C1433 1.491 . S
C1428 H1419 0.950 . S
C1428 C1427 1.398 . S
C1428 C1429 1.391 . S
C1429 H1417 0.950 . S
C1429 C1425 1.393 . S
C1429 C1428 1.391 . S
C1430 H1420 0.950 . S
C1430 C1431 1.386 . S
C1430 C1432 1.391 . S
C1431 C1430 1.386 . S
C1431 C1435 1.393 . S
C1432 H1421 0.950 . S
C1432 C1430 1.391 . S
C1432 C1433 1.400 . S
C1433 C1427 1.491 . S
C1433 C1432 1.400 . S
C1433 C1434 1.398 . S
C1434 H1422 0.950 . S
C1434 C1433 1.398 . S
C1434 C1435 1.391 . S
C1435 H1423 0.950 . S
C1435 C1431 1.393 . S
C1435 C1434 1.391 . S
H1436 C1444 0.950 . S
H1437 C1449 0.950 . S
H1438 C1446 0.950 1_655 S
H1439 C1448 0.950 . S
H1440 C1450 0.950 . S
H1441 C1452 0.950 . S
H1442 C1454 0.950 1_655 S
H1443 C1455 0.950 . S
C1444 H1436 0.950 . S
C1444 C1445 1.386 . S
C1444 C1446 1.391 . S
C1445 C1444 1.386 . S
C1445 C1449 1.393 . S
C1446 H1438 0.950 1_455 S
C1446 C1444 1.391 . S
C1446 C1447 1.400 . S
C1447 C1446 1.400 . S
C1447 C1448 1.398 . S
C1447 C1453 1.491 . S
C1448 H1439 0.950 . S
C1448 C1447 1.398 . S
C1448 C1449 1.391 . S
C1449 H1437 0.950 . S
C1449 C1445 1.393 . S
C1449 C1448 1.391 . S
C1450 H1440 0.950 . S
C1450 C1451 1.386 . S
C1450 C1452 1.391 . S
C1451 C1450 1.386 . S
C1451 C1455 1.393 1_455 S
C1452 H1441 0.950 . S
C1452 C1450 1.391 . S
C1452 C1453 1.400 . S
C1453 C1447 1.491 . S
C1453 C1452 1.400 . S
C1453 C1454 1.398 . S
C1454 H1442 0.950 1_455 S
C1454 C1453 1.398 . S
C1454 C1455 1.391 1_455 S
C1455 H1443 0.950 . S
C1455 C1451 1.393 1_655 S
C1455 C1454 1.391 1_655 S
H1456 C1464 0.950 . S
H1457 C1469 0.950 . S
H1458 C1466 0.950 . S
H1459 C1468 0.950 . S
H1460 C1470 0.950 . S
H1461 C1472 0.950 . S
H1462 C1474 0.950 . S
H1463 C1475 0.950 . S
C1464 H1456 0.950 . S
C1464 C1465 1.386 . S
C1464 C1466 1.391 . S
C1465 C1464 1.386 . S
C1465 C1469 1.393 . S
C1466 H1458 0.950 . S
C1466 C1464 1.391 . S
C1466 C1467 1.400 . S
C1467 C1466 1.400 . S
C1467 C1468 1.398 . S
C1467 C1473 1.491 . S
C1468 H1459 0.950 . S
C1468 C1467 1.398 . S
C1468 C1469 1.391 . S
C1469 H1457 0.950 . S
C1469 C1465 1.393 . S
C1469 C1468 1.391 . S
C1470 H1460 0.950 . S
C1470 C1471 1.386 . S
C1470 C1472 1.391 . S
C1471 C1470 1.386 . S
C1471 C1475 1.393 . S
C1472 H1461 0.950 . S
C1472 C1470 1.391 . S
C1472 C1473 1.400 . S
C1473 C1467 1.491 . S
C1473 C1472 1.400 . S
C1473 C1474 1.398 . S
C1474 H1462 0.950 . S
C1474 C1473 1.398 . S
C1474 C1475 1.391 . S
C1475 H1463 0.950 . S
C1475 C1471 1.393 . S
C1475 C1474 1.391 . S
H1476 C1484 0.950 . S
H1477 C1489 0.950 . S
H1478 C1486 0.950 . S
H1479 C1488 0.950 . S
H1480 C1490 0.950 . S
H1481 C1492 0.950 . S
H1482 C1494 0.950 . S
H1483 C1495 0.950 . S
C1484 H1476 0.950 . S
C1484 C1485 1.386 . S
C1484 C1486 1.391 . S
C1485 C1484 1.386 . S
C1485 C1489 1.393 . S
C1486 H1478 0.950 . S
C1486 C1484 1.391 . S
C1486 C1487 1.400 . S
C1487 C1486 1.400 . S
C1487 C1488 1.398 . S
C1487 C1493 1.491 . S
C1488 H1479 0.950 . S
C1488 C1487 1.398 . S
C1488 C1489 1.391 . S
C1489 H1477 0.950 . S
C1489 C1485 1.393 . S
C1489 C1488 1.391 . S
C1490 H1480 0.950 . S
C1490 C1491 1.386 . S
C1490 C1492 1.391 . S
C1491 C1490 1.386 . S
C1491 C1495 1.393 . S
C1492 H1481 0.950 . S
C1492 C1490 1.391 . S
C1492 C1493 1.400 . S
C1493 C1487 1.491 . S
C1493 C1492 1.400 . S
C1493 C1494 1.398 . S
C1494 H1482 0.950 . S
C1494 C1493 1.398 . S
C1494 C1495 1.391 . S
C1495 H1483 0.950 . S
C1495 C1491 1.393 . S
C1495 C1494 1.391 . S
H1496 C1504 0.950 . S
H1497 C1509 0.950 . S
H1498 C1506 0.950 . S
H1499 C1508 0.950 . S
H1500 C1510 0.950 . S
H1501 C1512 0.950 . S
H1502 C1514 0.950 . S
H1503 C1515 0.950 . S
C1504 H1496 0.950 . S
C1504 C1505 1.386 . S
C1504 C1506 1.391 . S
C1505 C1504 1.386 . S
C1505 C1509 1.393 . S
C1506 H1498 0.950 . S
C1506 C1504 1.391 . S
C1506 C1507 1.400 . S
C1507 C1506 1.400 . S
C1507 C1508 1.398 . S
C1507 C1513 1.491 . S
C1508 H1499 0.950 . S
C1508 C1507 1.398 . S
C1508 C1509 1.391 . S
C1509 H1497 0.950 . S
C1509 C1505 1.393 . S
C1509 C1508 1.391 . S
C1510 H1500 0.950 . S
C1510 C1511 1.386 . S
C1510 C1512 1.391 . S
C1511 C1510 1.386 . S
C1511 C1515 1.393 . S
C1512 H1501 0.950 . S
C1512 C1510 1.391 . S
C1512 C1513 1.400 . S
C1513 C1507 1.491 . S
C1513 C1512 1.400 . S
C1513 C1514 1.398 . S
C1514 H1502 0.950 . S
C1514 C1513 1.398 . S
C1514 C1515 1.391 . S
C1515 H1503 0.950 . S
C1515 C1511 1.393 . S
C1515 C1514 1.391 . S
H1516 C1524 0.950 . S
H1517 C1529 0.940 1_556 S
H1518 C1526 0.950 . S
H1519 C1528 0.950 . S
H1520 C1530 0.950 . S
H1521 C1532 0.950 . S
H1522 C1534 0.950 . S
H1523 C1535 0.950 . S
C1524 H1516 0.950 . S
C1524 C1525 1.386 . S
C1524 C1526 1.391 . S
C1525 C1524 1.386 . S
C1525 C1529 1.393 . S
C1526 H1518 0.950 . S
C1526 C1524 1.391 . S
C1526 C1527 1.400 . S
C1527 C1526 1.400 . S
C1527 C1528 1.398 . S
C1527 C1533 1.491 . S
C1528 H1519 0.950 . S
C1528 C1527 1.398 . S
C1528 C1529 1.391 . S
C1529 H1517 0.940 1_554 S
C1529 C1525 1.393 . S
C1529 C1528 1.391 . S
C1530 H1520 0.950 . S
C1530 C1531 1.386 . S
C1530 C1532 1.391 . S
C1531 C1530 1.386 . S
C1531 C1535 1.393 . S
C1532 H1521 0.950 . S
C1532 C1530 1.391 . S
C1532 C1533 1.400 . S
C1533 C1527 1.491 . S
C1533 C1532 1.400 . S
C1533 C1534 1.398 . S
C1534 H1522 0.950 . S
C1534 C1533 1.398 . S
C1534 C1535 1.391 . S
C1535 H1523 0.950 . S
C1535 C1531 1.393 . S
C1535 C1534 1.391 . S
H1536 C1544 0.950 . S
H1537 C1549 0.950 . S
H1538 C1546 0.950 . S
H1539 C1548 0.950 . S
H1540 C1550 0.950 . S
H1541 C1552 0.950 . S
H1542 C1554 0.950 . S
H1543 C1555 0.950 . S
C1544 H1536 0.950 . S
C1544 C1545 1.386 . S
C1544 C1546 1.391 . S
C1545 C1544 1.386 . S
C1545 C1549 1.393 . S
C1546 H1538 0.950 . S
C1546 C1544 1.391 . S
C1546 C1547 1.400 . S
C1547 C1546 1.400 . S
C1547 C1548 1.398 . S
C1547 C1553 1.491 . S
C1548 H1539 0.950 . S
C1548 C1547 1.398 . S
C1548 C1549 1.391 . S
C1549 H1537 0.950 . S
C1549 C1545 1.393 . S
C1549 C1548 1.391 . S
C1550 H1540 0.950 . S
C1550 C1551 1.386 . S
C1550 C1552 1.391 . S
C1551 C1550 1.386 . S
C1551 C1555 1.393 . S
C1552 H1541 0.950 . S
C1552 C1550 1.391 . S
C1552 C1553 1.400 . S
C1553 C1547 1.491 . S
C1553 C1552 1.400 . S
C1553 C1554 1.398 . S
C1554 H1542 0.950 . S
C1554 C1553 1.398 . S
C1554 C1555 1.391 . S
C1555 H1543 0.950 . S
C1555 C1551 1.393 . S
C1555 C1554 1.391 . S
H1556 C1564 0.950 . S
H1557 C1569 0.950 . S
H1558 C1566 0.950 . S
H1559 C1568 0.950 . S
H1560 C1570 0.950 . S
H1561 C1572 0.950 . S
H1562 C1574 0.950 . S
H1563 C1575 0.950 . S
C1564 H1556 0.950 . S
C1564 C1565 1.386 . S
C1564 C1566 1.391 . S
C1565 C1564 1.386 . S
C1565 C1569 1.393 . S
C1566 H1558 0.950 . S
C1566 C1564 1.391 . S
C1566 C1567 1.400 . S
C1567 C1566 1.400 . S
C1567 C1568 1.398 . S
C1567 C1573 1.491 . S
C1568 H1559 0.950 . S
C1568 C1567 1.398 . S
C1568 C1569 1.391 . S
C1569 H1557 0.950 . S
C1569 C1565 1.393 . S
C1569 C1568 1.391 . S
C1570 H1560 0.950 . S
C1570 C1571 1.386 . S
C1570 C1572 1.391 . S
C1571 C1570 1.386 . S
C1571 C1575 1.393 . S
C1572 H1561 0.950 . S
C1572 C1570 1.391 . S
C1572 C1573 1.400 . S
C1573 C1567 1.491 . S
C1573 C1572 1.400 . S
C1573 C1574 1.398 . S
C1574 H1562 0.950 . S
C1574 C1573 1.398 . S
C1574 C1575 1.391 . S
C1575 H1563 0.950 . S
C1575 C1571 1.393 . S
C1575 C1574 1.391 . S
H1576 C1584 0.950 . S
H1577 C1589 0.950 . S
H1578 C1586 0.950 . S
H1579 C1588 0.950 . S
H1580 C1590 0.950 . S
H1581 C1592 0.950 . S
H1582 C1594 0.950 . S
H1583 C1595 0.950 . S
C1584 H1576 0.950 . S
C1584 C1585 1.386 . S
C1584 C1586 1.391 . S
C1585 C1584 1.386 . S
C1585 C1589 1.393 . S
C1586 H1578 0.950 . S
C1586 C1584 1.391 . S
C1586 C1587 1.400 . S
C1587 C1586 1.400 . S
C1587 C1588 1.398 . S
C1587 C1593 1.491 . S
C1588 H1579 0.950 . S
C1588 C1587 1.398 . S
C1588 C1589 1.391 . S
C1589 H1577 0.950 . S
C1589 C1585 1.393 . S
C1589 C1588 1.391 . S
C1590 H1580 0.950 . S
C1590 C1591 1.386 . S
C1590 C1592 1.391 . S
C1591 C1590 1.386 . S
C1591 C1595 1.393 . S
C1592 H1581 0.950 . S
C1592 C1590 1.391 . S
C1592 C1593 1.400 . S
C1593 C1587 1.491 . S
C1593 C1592 1.400 . S
C1593 C1594 1.398 . S
C1594 H1582 0.950 . S
C1594 C1593 1.398 . S
C1594 C1595 1.391 . S
C1595 H1583 0.950 . S
C1595 C1591 1.393 . S
C1595 C1594 1.391 . S
H1596 C1604 0.950 . S
H1597 C1609 0.950 . S
H1598 C1606 0.950 . S
H1599 C1608 0.950 . S
H1600 C1610 0.950 . S
H1601 C1612 0.950 . S
H1602 C1614 0.950 . S
H1603 C1615 0.950 . S
C1604 H1596 0.950 . S
C1604 C1605 1.386 . S
C1604 C1606 1.391 . S
C1605 C1604 1.386 . S
C1605 C1609 1.393 . S
C1606 H1598 0.950 . S
C1606 C1604 1.391 . S
C1606 C1607 1.400 . S
C1607 C1606 1.400 . S
C1607 C1608 1.398 . S
C1607 C1613 1.491 . S
C1608 H1599 0.950 . S
C1608 C1607 1.398 . S
C1608 C1609 1.391 . S
C1609 H1597 0.950 . S
C1609 C1605 1.393 . S
C1609 C1608 1.391 . S
C1610 H1600 0.950 . S
C1610 C1611 1.386 . S
C1610 C1612 1.391 . S
C1611 C1610 1.386 . S
C1611 C1615 1.393 . S
C1612 H1601 0.950 . S
C1612 C1610 1.391 . S
C1612 C1613 1.400 . S
C1613 C1607 1.491 . S
C1613 C1612 1.400 . S
C1613 C1614 1.398 . S
C1614 H1602 0.950 . S
C1614 C1613 1.398 . S
C1614 C1615 1.391 . S
C1615 H1603 0.950 . S
C1615 C1611 1.393 . S
C1615 C1614 1.391 . S
H1616 C1624 0.950 . S
H1617 C1629 0.950 . S
H1618 C1626 0.950 . S
H1619 C1628 0.950 . S
H1620 C1630 0.950 . S
H1621 C1632 0.950 . S
H1622 C1634 0.950 . S
H1623 C1635 0.950 . S
C1624 H1616 0.950 . S
C1624 C1625 1.386 1_554 S
C1624 C1626 1.391 . S
C1625 C1624 1.386 1_556 S
C1625 C1629 1.393 . S
C1626 H1618 0.950 . S
C1626 C1624 1.391 . S
C1626 C1627 1.400 1_554 S
C1627 C1626 1.400 1_556 S
C1627 C1628 1.398 . S
C1627 C1633 1.491 . S
C1628 H1619 0.950 . S
C1628 C1627 1.398 . S
C1628 C1629 1.391 . S
C1629 H1617 0.950 . S
C1629 C1625 1.393 . S
C1629 C1628 1.391 . S
C1630 H1620 0.950 . S
C1630 C1631 1.386 . S
C1630 C1632 1.391 . S
C1631 C1630 1.386 . S
C1631 C1635 1.393 1_556 S
C1632 H1621 0.950 . S
C1632 C1630 1.391 . S
C1632 C1633 1.400 . S
C1633 C1627 1.491 . S
C1633 C1632 1.400 . S
C1633 C1634 1.398 1_556 S
C1634 H1622 0.950 . S
C1634 C1633 1.398 1_554 S
C1634 C1635 1.391 . S
C1635 H1623 0.950 . S
C1635 C1631 1.393 1_554 S
C1635 C1634 1.391 . S
H1636 C1644 0.950 . S
H1637 C1649 0.950 . S
H1638 C1646 0.950 . S
H1639 C1648 0.950 . S
H1640 C1650 0.950 . S
H1641 C1652 0.950 . S
H1642 C1654 0.950 . S
H1643 C1655 0.950 . S
C1644 H1636 0.950 . S
C1644 C1645 1.386 . S
C1644 C1646 1.391 . S
C1645 C1644 1.386 . S
C1645 C1649 1.393 . S
C1646 H1638 0.950 . S
C1646 C1644 1.391 . S
C1646 C1647 1.400 . S
C1647 C1646 1.400 . S
C1647 C1648 1.398 . S
C1647 C1653 1.491 . S
C1648 H1639 0.950 . S
C1648 C1647 1.398 . S
C1648 C1649 1.391 . S
C1649 H1637 0.950 . S
C1649 C1645 1.393 . S
C1649 C1648 1.391 . S
C1650 H1640 0.950 . S
C1650 C1651 1.386 . S
C1650 C1652 1.391 . S
C1651 C1650 1.386 . S
C1651 C1655 1.393 . S
C1652 H1641 0.950 . S
C1652 C1650 1.391 . S
C1652 C1653 1.400 . S
C1653 C1647 1.491 . S
C1653 C1652 1.400 . S
C1653 C1654 1.398 . S
C1654 H1642 0.950 . S
C1654 C1653 1.398 . S
C1654 C1655 1.391 . S
C1655 H1643 0.950 . S
C1655 C1651 1.393 . S
C1655 C1654 1.391 . S
H1656 C1664 0.950 . S
H1657 C1669 0.950 . S
H1658 C1666 0.950 . S
H1659 C1668 0.950 . S
H1660 C1670 0.950 . S
H1661 C1672 0.954 . S
H1662 C1674 0.950 . S
H1663 C1675 0.950 . S
C1664 H1656 0.950 . S
C1664 C1665 1.386 . S
C1664 C1666 1.391 . S
C1665 C1664 1.386 . S
C1665 C1669 1.393 . S
C1666 H1658 0.950 . S
C1666 C1664 1.391 . S
C1666 C1667 1.400 . S
C1667 C1666 1.400 . S
C1667 C1668 1.398 . S
C1667 C1673 1.491 . S
C1668 H1659 0.950 . S
C1668 C1667 1.398 . S
C1668 C1669 1.391 . S
C1669 H1657 0.950 . S
C1669 C1665 1.393 . S
C1669 C1668 1.391 . S
C1670 H1660 0.950 . S
C1670 C1671 1.382 1_556 S
C1670 C1672 1.395 . S
C1671 C1670 1.382 1_554 S
C1671 C1675 1.401 . S
C1672 H1661 0.954 . S
C1672 C1670 1.395 . S
C1672 C1673 1.392 1_556 S
C1673 C1667 1.491 . S
C1673 C1672 1.392 1_554 S
C1673 C1674 1.398 . S
C1674 H1662 0.950 . S
C1674 C1673 1.398 . S
C1674 C1675 1.391 . S
C1675 H1663 0.950 . S
C1675 C1671 1.401 . S
C1675 C1674 1.391 . S
H1676 C1684 0.950 1_545 S
H1677 C1689 0.950 . S
H1678 C1686 0.950 . S
H1679 C1688 0.950 . S
H1680 C1690 0.950 . S
H1681 C1692 0.950 . S
H1682 C1694 0.950 . S
H1683 C1695 0.950 . S
C1684 H1676 0.950 1_565 S
C1684 C1685 1.386 . S
C1684 C1686 1.391 . S
C1685 C1684 1.386 . S
C1685 C1689 1.393 . S
C1686 H1678 0.950 . S
C1686 C1684 1.391 . S
C1686 C1687 1.400 . S
C1687 C1686 1.400 . S
C1687 C1688 1.398 . S
C1687 C1693 1.491 . S
C1688 H1679 0.950 . S
C1688 C1687 1.398 . S
C1688 C1689 1.391 . S
C1689 H1677 0.950 . S
C1689 C1685 1.393 . S
C1689 C1688 1.391 . S
C1690 H1680 0.950 . S
C1690 C1691 1.386 . S
C1690 C1692 1.391 . S
C1691 C1690 1.386 . S
C1691 C1695 1.393 . S
C1692 H1681 0.950 . S
C1692 C1690 1.391 . S
C1692 C1693 1.400 . S
C1693 C1687 1.491 . S
C1693 C1692 1.400 . S
C1693 C1694 1.398 . S
C1694 H1682 0.950 . S
C1694 C1693 1.398 . S
C1694 C1695 1.391 . S
C1695 H1683 0.950 . S
C1695 C1691 1.393 . S
C1695 C1694 1.391 . S
C751 C306 1.824 1_556 S
C745 C101 1.803 . S
C771 C354 1.213 . S
C765 C125 1.104 . S
C785 C139 1.917 . S
C791 C390 1.826 . S
C811 C426 1.807 . S
C805 C82 1.877 . S
C831 C452 1.471 . S
C825 C196 1.484 . S
C851 C488 1.918 . S
C845 C234 1.943 . S
C865 C220 0.966 . S
C871 C523 1.063 . S
C891 C560 1.756 . S
C885 C173 1.763 . S
C905 C211 1.072 . S
C911 C594 1.090 . S
C931 C642 1.145 . S
C925 C182 1.120 . S
C945 C201 1.174 . S
C951 C595 1.319 . S
C971 C632 1.483 . S
C965 C239 1.327 . S
C985 C135 1.578 . S
C991 C678 1.535 . S
C1005 C87 1.845 . S
C1011 C667 2.011 . S
C1025 C106 1.173 . S
C1031 C668 1.352 . S
C1045 C116 1.309 . S
C1051 C666 1.307 1_655 S
C1065 C59 1.734 . S
C1071 C414 1.744 . S
C1085 C268 2.175 . S
C1091 C415 2.199 . S
C1111 C318 1.331 . S
C1105 C291 1.434 . S
C1131 C343 1.400 . S
C1125 C163 1.301 . S
C1145 C78 2.154 1_545 S
C1151 C450 2.168 . S
C1171 C558 1.185 . S
C1165 C215 1.194 . S
C1191 C451 1.586 . S
C1185 C177 1.598 . S
C1211 C524 1.902 . S
C1205 C230 1.901 . S
C1231 C522 1.831 . S
C1225 C272 1.814 . S
C1245 C296 1.147 . S
C1251 C570 1.199 . S
C1265 C158 1.917 . S
C1271 C462 1.826 . S
C1291 C498 1.806 . S
C1285 C253 1.876 . S
C1305 C63 1.479 . S
C1311 C380 1.472 . S
C1331 C416 1.916 . S
C1325 C6 1.940 . S
C1351 C307 1.056 . S
C1345 C30 0.904 . S
C1371 C344 1.764 . S
C1365 C40 1.763 . S
C1385 C21 1.075 . S
C1391 C630 1.092 . S
C1405 C49 1.079 . S
C1411 C606 1.142 . S
C1425 C68 1.130 . S
C1431 C631 1.314 . S
C1445 C11 1.325 . S
C1451 C596 1.483 . S
C1471 C714 1.511 . S
C1465 C154 1.585 . S
C1491 C703 2.013 . S
C1485 C258 1.857 . S
C1511 C704 1.346 . S
C1505 C277 1.148 . S
C1525 C287 1.302 1_554 S
C1531 C702 1.307 . S
C1545 C192 1.726 . S
C1551 C486 1.732 . S
C1571 C487 2.200 . S
C1565 C97 2.180 . S
C1591 C534 1.358 . S
C1585 C120 1.436 . S
C1611 C559 1.400 . S
C1605 C144 1.312 . S
C1625 C249 2.163 . S
C1631 C378 2.172 1_556 S
C1651 C342 1.175 . S
C1645 C25 1.188 . S
C1665 C44 1.598 . S
C1671 C379 1.576 1_554 S
C1691 C308 1.898 . S
C1685 C2 1.898 1_565 S
