# Generated by pormake.
# Topology zzz, (3,6)-cn, num edge types: 1
# Building blocks:
#     Node 0, Type 0, BuildingBlock: PAMTOO_clean_linker_0, # of connection points: 3
#     Node 1, Type 0, BuildingBlock: PAMTOO_clean_linker_0, # of connection points: 3
#     Node 2, Type 0, BuildingBlock: PAMTOO_clean_linker_0, # of connection points: 3
#     Node 3, Type 0, BuildingBlock: PAMTOO_clean_linker_0, # of connection points: 3
#     Node 4, Type 0, BuildingBlock: PAMTOO_clean_linker_0, # of connection points: 3
#     Node 5, Type 0, BuildingBlock: PAMTOO_clean_linker_0, # of connection points: 3
#     Node 6, Type 0, BuildingBlock: PAMTOO_clean_linker_0, # of connection points: 3
#     Node 7, Type 0, BuildingBlock: PAMTOO_clean_linker_0, # of connection points: 3
#     Node 8, Type 1, BuildingBlock: BETDIP_clean_sbu_0, # of connection points: 6
#     Node 9, Type 1, BuildingBlock: BETDIP_clean_sbu_0, # of connection points: 6
#     Node 10, Type 1, BuildingBlock: BETDIP_clean_sbu_0, # of connection points: 6
#     Node 11, Type 1, BuildingBlock: BETDIP_clean_sbu_0, # of connection points: 6
#     Edge 12, Type (0, 1), BuildingBlock: MIFKUJ_clean_linker_0, # of connection points: 2
#     Edge 13, Type (0, 1), BuildingBlock: MIFKUJ_clean_linker_0, # of connection points: 2
#     Edge 14, Type (0, 1), BuildingBlock: MIFKUJ_clean_linker_0, # of connection points: 2
#     Edge 15, Type (0, 1), BuildingBlock: MIFKUJ_clean_linker_0, # of connection points: 2
#     Edge 16, Type (0, 1), BuildingBlock: MIFKUJ_clean_linker_0, # of connection points: 2
#     Edge 17, Type (0, 1), BuildingBlock: MIFKUJ_clean_linker_0, # of connection points: 2
#     Edge 18, Type (0, 1), BuildingBlock: MIFKUJ_clean_linker_0, # of connection points: 2
#     Edge 19, Type (0, 1), BuildingBlock: MIFKUJ_clean_linker_0, # of connection points: 2
#     Edge 20, Type (0, 1), BuildingBlock: MIFKUJ_clean_linker_0, # of connection points: 2
#     Edge 21, Type (0, 1), BuildingBlock: MIFKUJ_clean_linker_0, # of connection points: 2
#     Edge 22, Type (0, 1), BuildingBlock: MIFKUJ_clean_linker_0, # of connection points: 2
#     Edge 23, Type (0, 1), BuildingBlock: MIFKUJ_clean_linker_0, # of connection points: 2
#     Edge 24, Type (0, 1), BuildingBlock: MIFKUJ_clean_linker_0, # of connection points: 2
#     Edge 25, Type (0, 1), BuildingBlock: MIFKUJ_clean_linker_0, # of connection points: 2
#     Edge 26, Type (0, 1), BuildingBlock: MIFKUJ_clean_linker_0, # of connection points: 2
#     Edge 27, Type (0, 1), BuildingBlock: MIFKUJ_clean_linker_0, # of connection points: 2
#     Edge 28, Type (0, 1), BuildingBlock: MIFKUJ_clean_linker_0, # of connection points: 2
#     Edge 29, Type (0, 1), BuildingBlock: MIFKUJ_clean_linker_0, # of connection points: 2
#     Edge 30, Type (0, 1), BuildingBlock: MIFKUJ_clean_linker_0, # of connection points: 2
#     Edge 31, Type (0, 1), BuildingBlock: MIFKUJ_clean_linker_0, # of connection points: 2
#     Edge 32, Type (0, 1), BuildingBlock: MIFKUJ_clean_linker_0, # of connection points: 2
#     Edge 33, Type (0, 1), BuildingBlock: MIFKUJ_clean_linker_0, # of connection points: 2
#     Edge 34, Type (0, 1), BuildingBlock: MIFKUJ_clean_linker_0, # of connection points: 2
#     Edge 35, Type (0, 1), BuildingBlock: MIFKUJ_clean_linker_0, # of connection points: 2
# Relax obj value: 0.218
# Max RMSD: 0.153
# Mean RMSD: 0.145
data_MOF--net-zzz--node1-BETDIP_clean_sbu_0--node2-PAMTOO_clean_linker_0--edge1-MIFKUJ_clean_linker_0
_symmetry_space_group_name_H-M    P1
_symmetry_Int_Tables_number       1
_symmetry_cell_setting            triclinic
loop_
_symmetry_equiv_pos_as_xyz
'x, y, z'
_cell_length_a     67.468597
_cell_length_b     67.609767
_cell_length_c     17.521157
_cell_angle_alpha  89.998912
_cell_angle_beta   90.019705
_cell_angle_gamma 89.783018
loop_
_atom_site_label
_atom_site_type_symbol
_atom_site_fract_x
_atom_site_fract_y
_atom_site_fract_z
_atom_type_partial_charge
H0 H 0.79295 0.54094 0.25856 0.0
H1 H 0.73235 0.53696 0.18353 0.0
H2 H 0.74864 0.51796 0.40985 0.0
H3 H 0.70471 0.49665 0.33309 0.0
C4 C 0.71006 0.50527 0.28325 0.0
O5 O 0.71875 0.52255 0.30983 0.0
H6 H 0.72116 0.49567 0.25392 0.0
C7 C 0.77748 0.53787 0.27039 0.0
C8 C 0.77263 0.53004 0.34184 0.0
C9 C 0.76325 0.54009 0.21227 0.0
C10 C 0.7435 0.53526 0.22757 0.0
C11 C 0.73811 0.52722 0.29813 0.0
C12 C 0.75276 0.52431 0.3554 0.0
H13 H 0.03589 0.79641 0.24919 0.0
H14 H 0.02049 0.74009 0.15198 0.0
H15 H 0.99567 0.75786 0.36767 0.0
H16 H 0.99524 0.70656 0.33648 0.0
C17 C 1.00463 0.71168 0.28841 0.0
O18 O 0.99703 0.72948 0.26168 0.0
H19 H 0.01984 0.71378 0.31188 0.0
C20 C 0.02837 0.78231 0.25368 0.0
C21 C 0.01607 0.77881 0.31679 0.0
C22 C 0.02998 0.76858 0.19375 0.0
C23 C 0.01949 0.75078 0.19796 0.0
C24 C 1.00742 0.74666 0.26088 0.0
C25 C 1.00544 0.76082 0.32003 0.0
H26 H 0.73343 0.99917 0.24979 0.0
H27 H 0.79546 0.9957 0.20257 0.0
H28 H 0.77555 1.012 0.42827 0.0
H29 H 0.82298 0.02896 0.37793 0.0
C30 C 0.81886 0.02206 0.32264 0.0
O31 O 0.80739 1.00548 0.33833 0.0
H32 H 0.81013 0.03328 0.29022 0.0
C33 C 0.74855 1.00065 0.26996 0.0
C34 C 0.75213 1.00616 0.34588 0.0
C35 C 0.76403 0.99704 0.21875 0.0
C36 C 0.78361 0.99837 0.24288 0.0
C37 C 0.78797 1.00391 0.31792 0.0
C38 C 0.7722 1.00768 0.3702 0.0
H39 H 0.48813 0.74021 0.26227 0.0
H40 H 0.50417 0.79776 0.17947 0.0
H41 H 0.53378 0.77338 0.37572 0.0
H42 H 0.53774 0.82731 0.34672 0.0
C43 C 0.52648 0.82237 0.30468 0.0
O44 O 0.53193 0.8038 0.27797 0.0
H45 H 0.5121 0.82159 0.33582 0.0
C46 C 0.49634 0.75383 0.26947 0.0
C47 C 0.51051 0.75497 0.32807 0.0
C48 C 0.49384 0.76909 0.21577 0.0
C49 C 0.5056 0.78602 0.22129 0.0
C50 C 0.51982 0.78777 0.27888 0.0
C51 C 0.5224 0.7722 0.33239 0.0
H52 H 0.22442 0.51604 0.16623 0.0
H53 H 0.28464 0.51329 0.24703 0.0
H54 H 0.27239 0.51038 0.00613 0.0
H55 H 0.31891 0.49147 0.06335 0.0
C56 C 0.3129 0.49533 0.12049 0.0
O57 O 0.30076 0.51183 0.11307 0.0
H58 H 0.30427 0.48223 0.13988 0.0
C59 C 0.24015 0.51443 0.15498 0.0
C60 C 0.24652 0.513 0.07906 0.0
C61 C 0.25364 0.51417 0.21622 0.0
C62 C 0.27399 0.51312 0.20075 0.0
C63 C 0.28086 0.51166 0.12556 0.0
C64 C 0.26709 0.51128 0.06435 0.0
H65 H 0.99386 0.22592 0.16159 0.0
H66 H 0.99544 0.28583 0.24473 0.0
H67 H 0.02617 0.27023 0.03769 0.0
H68 H 0.04433 0.31196 0.12195 0.0
C69 C 0.03398 0.30725 0.16769 0.0
O70 O 0.01711 0.2995 0.13394 0.0
H71 H 0.04187 0.2957 0.20161 0.0
C72 C 0.99856 0.24117 0.15529 0.0
C73 C 1.0105 0.24626 0.09313 0.0
C74 C 0.993 0.25525 0.21019 0.0
C75 C 0.99962 0.27479 0.20279 0.0
C76 C 1.01154 0.28029 0.14089 0.0
C77 C 0.01701 0.26599 0.08569 0.0
H78 H 0.2966 0.99235 0.15916 0.0
H79 H 0.23757 1.00238 0.24314 0.0
H80 H 0.25577 0.02825 0.03015 0.0
H81 H 0.21231 1.00047 0.08951 0.0
C82 C 0.20914 0.01595 0.10781 0.0
O83 O 0.22641 0.0251 0.13252 0.0
H84 H 0.20357 0.02398 0.0568 0.0
C85 C 0.28185 0.99837 0.15092 0.0
C86 C 0.27804 1.00999 0.08599 0.0
C87 C 0.26744 0.99541 0.20771 0.0
C88 C 0.24879 1.00431 0.19956 0.0
C89 C 0.24441 0.01597 0.13577 0.0
C90 C 0.25908 0.01896 0.07888 0.0
H91 H 0.53235 0.30693 0.19404 0.0
H92 H 0.53267 0.24591 0.26118 0.0
H93 H 0.50425 0.26336 0.051 0.0
H94 H 0.48661 0.21921 0.12549 0.0
C95 C 0.49601 0.22428 0.17369 0.0
O96 O 0.51291 0.23304 0.14389 0.0
H97 H 0.48692 0.23527 0.20583 0.0
C98 C 0.52795 0.29178 0.18288 0.0
C99 C 0.51746 0.28731 0.11594 0.0
C100 C 0.5334 0.27705 0.23516 0.0
C101 C 0.52846 0.25735 0.22091 0.0
C102 C 0.5177 0.25234 0.15538 0.0
C103 C 0.5124 0.26729 0.10202 0.0
Tb104 Tb 0.02872 1.00647 0.77902 0.0
Tb105 Tb 1.00066 0.01621 0.66424 0.0
C106 C 0.04734 0.98882 0.8828 0.0
C107 C 0.05403 0.96806 0.88563 0.0
C108 C 0.04093 0.95279 0.86587 0.0
C109 C 0.04786 0.93358 0.85621 0.0
C110 C 0.06799 0.92907 0.86702 0.0
C111 C 0.081 0.94409 0.89018 0.0
C112 C 0.07408 0.96353 0.89882 0.0
C113 C 0.0458 0.0192 0.65215 0.0
C114 C 1.01238 0.97222 0.66653 0.0
C115 C 0.98217 0.03379 0.5597 0.0
C116 C 0.9756 0.05455 0.55353 0.0
C117 C 0.98868 0.07008 0.57028 0.0
C118 C 0.98182 0.08952 0.57342 0.0
C119 C 0.9618 0.09389 0.55941 0.0
C120 C 0.94881 0.07848 0.54014 0.0
C121 C 0.95565 0.05892 0.53772 0.0
C122 C 0.98364 1.00385 0.79226 0.0
C123 C 0.01673 0.05039 0.77696 0.0
O124 O 0.02815 0.99179 0.88446 0.0
O125 O 0.05597 0.99959 0.83075 0.0
O126 O 0.03124 1.00745 0.65624 0.0
O127 O 0.05092 0.02419 0.72065 0.0
O128 O 0.02164 0.97695 0.73064 0.0
O129 O 1.00408 0.98604 0.62416 0.0
O130 O 1.00132 0.03062 0.55822 0.0
O131 O 0.97346 0.02356 0.6131 0.0
O132 O 0.99826 0.01544 0.78694 0.0
O133 O 0.9783 0.99884 0.72402 0.0
O134 O 1.00809 0.04569 0.71153 0.0
O135 O 0.02459 0.03649 0.82027 0.0
H136 H 0.02536 0.95571 0.85579 0.0
H137 H 0.03739 0.92219 0.8402 0.0
H138 H 0.09655 0.9409 0.8997 0.0
H139 H 0.08445 0.9751 0.91375 0.0
H140 H 1.00416 0.06724 0.5826 0.0
H141 H 0.99225 0.1012 0.58661 0.0
H142 H 0.93333 0.08154 0.52844 0.0
H143 H 0.9453 0.04716 0.52503 0.0
Tb144 Tb 0.52023 0.02802 0.78385 0.0
Tb145 Tb 0.50869 1.0086 0.64432 0.0
C146 C 0.53849 0.03428 0.90532 0.0
C147 C 0.55688 0.02424 0.92783 0.0
C148 C 0.56017 1.00466 0.9038 0.0
C149 C 0.57881 0.99605 0.91049 0.0
C150 C 0.59449 1.00676 0.94233 0.0
C151 C 0.59103 0.02605 0.96969 0.0
C152 C 0.57232 0.03479 0.96198 0.0
C153 C 0.50978 0.05336 0.67561 0.0
C154 C 0.55335 0.01505 0.66217 0.0
C155 C 0.49025 0.99795 0.52741 0.0
C156 C 0.46933 0.99165 0.52136 0.0
C157 C 0.45388 1.00546 0.53078 0.0
C158 C 0.43437 0.99914 0.5392 0.0
C159 C 0.42981 0.9789 0.5378 0.0
C160 C 0.44502 0.96512 0.52405 0.0
C161 C 0.46463 0.97145 0.51604 0.0
C162 C 0.51931 0.98383 0.75505 0.0
C163 C 0.47499 0.022 0.76583 0.0
O164 O 0.5229 0.0229 0.90136 0.0
O165 O 0.54015 0.04572 0.84549 0.0
O166 O 0.51971 0.03762 0.66657 0.0
O167 O 0.50644 0.05579 0.74794 0.0
O168 O 0.54859 0.01666 0.73538 0.0
O169 O 0.53915 0.01455 0.61037 0.0
O170 O 0.49325 0.01653 0.545 0.0
O171 O 0.50182 0.9861 0.56622 0.0
O172 O 0.50891 0.99927 0.76138 0.0
O173 O 0.52366 0.98147 0.6837 0.0
O174 O 0.4795 0.01593 0.69591 0.0
O175 O 0.48907 0.02663 0.81487 0.0
H176 H 0.54855 0.99626 0.87641 0.0
H177 H 0.58105 0.98113 0.88951 0.0
H178 H 0.60298 0.03466 0.9939 0.0
H179 H 0.57015 0.05001 0.97963 0.0
H180 H 0.45688 0.02116 0.53458 0.0
H181 H 0.42284 1.01012 0.54751 0.0
H182 H 0.44185 0.94944 0.52191 0.0
H183 H 0.47622 0.96048 0.50859 0.0
Tb184 Tb 0.50289 0.52285 0.75537 0.0
Tb185 Tb 0.52473 0.50942 0.6117 0.0
C186 C 0.49142 0.54139 0.87106 0.0
C187 C 0.48732 0.56258 0.88293 0.0
C188 C 0.50163 0.57695 0.86557 0.0
C189 C 0.4968 0.59701 0.86874 0.0
C190 C 0.47754 0.60313 0.88865 0.0
C191 C 0.46337 0.58873 0.90747 0.0
C192 C 0.46825 0.56865 0.90482 0.0
C193 C 0.48016 0.50982 0.64276 0.0
C194 C 0.51581 0.55517 0.62894 0.0
C195 C 0.53213 0.49365 0.4861 0.0
C196 C 0.54503 0.47679 0.46675 0.0
C197 C 0.53764 0.46159 0.42072 0.0
C198 C 0.54841 0.44408 0.41157 0.0
C199 C 0.56685 0.44148 0.44809 0.0
C200 C 0.57461 0.45712 0.49143 0.0
C201 C 0.56377 0.47458 0.50095 0.0
C202 C 0.55086 0.51391 0.72552 0.0
C203 C 0.51391 0.47808 0.74365 0.0
O204 O 0.50994 0.53629 0.85969 0.0
O205 O 0.47934 0.53255 0.82385 0.0
O206 O 0.49553 0.52035 0.63608 0.0
O207 O 0.47705 0.50659 0.71473 0.0
O208 O 0.50877 0.55139 0.69826 0.0
O209 O 0.5218 0.54079 0.58287 0.0
O210 O 0.51652 0.48912 0.52723 0.0
O211 O 0.54105 0.50971 0.51018 0.0
O212 O 0.53239 0.51652 0.72576 0.0
O213 O 0.55538 0.50879 0.65656 0.0
O214 O 0.51763 0.48128 0.67008 0.0
O215 O 0.51009 0.49285 0.79126 0.0
H216 H 0.51644 0.57275 0.84794 0.0
H217 H 0.5082 0.60772 0.85549 0.0
H218 H 0.44837 0.59294 0.92255 0.0
H219 H 0.45695 0.55781 0.91778 0.0
H220 H 0.52313 0.46291 0.39458 0.0
H221 H 0.54179 0.43223 0.37884 0.0
H222 H 0.58885 0.45571 0.51951 0.0
H223 H 0.5698 0.48605 0.53719 0.0
Tb224 Tb 1.00623 0.50209 0.77211 0.0
Tb225 Tb 0.01554 0.52444 0.63914 0.0
C226 C 0.99224 0.4887 0.89458 0.0
C227 C 0.97252 0.48779 0.92987 0.0
C228 C 0.96205 0.50514 0.94825 0.0
C229 C 0.94273 0.50403 0.97548 0.0
C230 C 0.9335 0.48558 0.98452 0.0
C231 C 0.94416 0.46821 0.96873 0.0
C232 C 0.96361 0.46932 0.94211 0.0
C233 C 0.01804 0.47968 0.65651 0.0
C234 C 0.97135 0.51453 0.65649 0.0
C235 C 0.03254 0.53857 0.52473 0.0
C236 C 0.05235 0.54751 0.52245 0.0
C237 C 0.06516 0.5432 0.46194 0.0
C238 C 0.08519 0.54821 0.46678 0.0
C239 C 0.09273 0.55764 0.53237 0.0
C240 C 0.0796 0.56279 0.59131 0.0
C241 C 0.05962 0.55771 0.58654 0.0
C242 C 1.00465 0.54675 0.75673 0.0
C243 C 0.05084 0.5118 0.75366 0.0
O244 O 1.00022 0.50622 0.88813 0.0
O245 O 0.99458 0.47809 0.83292 0.0
O246 O 1.00644 0.49439 0.65234 0.0
O247 O 0.02317 0.47721 0.727 0.0
O248 O 0.97632 0.51093 0.7287 0.0
O249 O 0.9854 0.51736 0.60525 0.0
O250 O 0.03252 0.51966 0.54046 0.0
O251 O 0.01914 0.54825 0.56368 0.0
O252 O 0.01596 0.53187 0.75853 0.0
O253 O 0.99941 0.54977 0.68674 0.0
O254 O 0.04559 0.51826 0.68521 0.0
O255 O 0.03722 0.50602 0.80259 0.0
H256 H 0.9685 0.51961 0.93944 0.0
H257 H 0.93468 0.51767 0.98587 0.0
H258 H 0.93729 0.45386 0.97527 0.0
H259 H 0.9715 0.45576 0.92876 0.0
H260 H 0.05992 0.53501 0.41278 0.0
H261 H 0.09495 0.54366 0.42091 0.0
H262 H 0.08489 0.57016 0.64225 0.0
H263 H 0.05006 0.56091 0.63471 0.0
H264 H 0.17998 0.98849 0.12942 0.0
H265 H 0.15181 0.98931 0.21747 0.0
H266 H 0.17222 0.04495 0.30763 0.0
H267 H 0.20051 0.04414 0.21929 0.0
H268 H 0.16016 0.02039 0.42197 0.0
H269 H 0.13297 0.0423 0.182 0.0
H270 H 0.12534 0.03992 0.04465 0.0
H271 H 0.093 0.9863 0.08385 0.0
H272 H 0.10067 0.98821 0.22138 0.0
H273 H 0.07516 0.04605 0.63233 0.0
H274 H 0.10171 0.04594 0.53754 0.0
H275 H 0.0768 0.99377 0.43391 0.0
H276 H 0.04964 0.99435 0.52758 0.0
H277 H 0.09118 0.01585 0.32563 0.0
H278 H 0.11807 0.99246 0.56065 0.0
H279 H 0.12564 0.99304 0.69833 0.0
H280 H 0.15883 0.04657 0.6691 0.0
H281 H 0.15122 0.04647 0.53134 0.0
C282 C 0.17863 1.00079 0.16873 0.0
C283 C 0.19283 0.016 0.16836 0.0
C284 C 0.16236 1.00134 0.21868 0.0
C285 C 0.15963 0.01728 0.26923 0.0
C286 C 0.1739 0.03244 0.26954 0.0
C287 C 0.19017 0.03194 0.21915 0.0
C288 C 0.14196 0.01809 0.32159 0.0
C289 C 0.14508 0.0197 0.40065 0.0
C290 C 0.12217 0.01647 0.29464 0.0
C291 C 0.11757 0.0153 0.21193 0.0
C292 C 0.12437 0.02991 0.16127 0.0
C293 C 0.12001 0.02867 0.08339 0.0
C294 C 0.10874 1.01294 0.05552 0.0
C295 C 0.10176 0.99845 0.10551 0.0
C296 C 0.1061 0.99962 0.18344 0.0
C297 C 0.07518 0.03469 0.58872 0.0
C298 C 0.0603 0.02017 0.58786 0.0
C299 C 0.09053 0.03452 0.53475 0.0
C300 C 0.09179 0.01951 0.47923 0.0
C301 C 0.0764 1.00546 0.47616 0.0
C302 C 0.06081 1.00581 0.52974 0.0
C303 C 0.10936 0.01832 0.42616 0.0
C304 C 0.10624 0.01657 0.34704 0.0
C305 C 0.1292 0.0195 0.45306 0.0
C306 C 0.13392 0.01955 0.53579 0.0
C307 C 0.12687 1.00443 0.58367 0.0
C308 C 0.13118 1.00466 0.66171 0.0
C309 C 0.14267 0.01986 0.69247 0.0
C310 C 0.14991 0.03482 0.6452 0.0
C311 C 0.14562 0.03468 0.56712 0.0
H312 H 0.14598 0.02001 0.75291 0.0
H313 H 0.10537 1.01201 0.99522 0.0
H314 H 0.51065 0.18769 0.13197 0.0
H315 H 0.51491 0.15807 0.21173 0.0
H316 H 0.49573 0.19121 0.4089 0.0
H317 H 0.49205 0.22083 0.32963 0.0
H318 H 0.52414 0.16801 0.45093 0.0
H319 H 0.46477 0.15795 0.30442 0.0
H320 H 0.44435 0.15474 0.18834 0.0
H321 H 0.48043 0.10605 0.1132 0.0
H322 H 0.50125 0.10916 0.22838 0.0
H323 H 0.49531 0.09062 0.69855 0.0
H324 H 0.49486 0.1185 0.60968 0.0
H325 H 0.52087 0.08167 0.43532 0.0
H326 H 0.52136 0.05357 0.52466 0.0
H327 H 0.49106 0.10546 0.37719 0.0
H328 H 0.5492 0.11475 0.5294 0.0
H329 H 0.56832 0.11757 0.64884 0.0
H330 H 0.53319 0.16774 0.7157 0.0
H331 H 0.51366 0.16506 0.5971 0.0
C332 C 0.50763 0.18866 0.19256 0.0
C333 C 0.50093 0.20659 0.22435 0.0
C334 C 0.50985 0.17165 0.23814 0.0
C335 C 0.50523 0.17209 0.3166 0.0
C336 C 0.49932 0.19027 0.34875 0.0
C337 C 0.4972 0.20726 0.30331 0.0
C338 C 0.5063 0.15375 0.36528 0.0
C339 C 0.51669 0.15445 0.43486 0.0
C340 C 0.49706 0.13568 0.34432 0.0
C341 C 0.48472 0.13395 0.27457 0.0
C342 C 0.46847 0.14669 0.26278 0.0
C343 C 0.4568 0.14486 0.19722 0.0
C344 C 0.46113 0.13023 0.14331 0.0
C345 C 0.47712 0.1174 0.15491 0.0
C346 C 0.48886 0.11919 0.22032 0.0
C347 C 0.50089 0.08839 0.64123 0.0
C348 C 0.5085 0.06985 0.61901 0.0
C349 C 0.5007 0.10442 0.59039 0.0
C350 C 0.5081 0.10241 0.51575 0.0
C351 C 0.51515 0.08371 0.49254 0.0
C352 C 0.51545 0.06764 0.54371 0.0
C353 C 0.50865 0.11991 0.46292 0.0
C354 C 0.49858 0.11903 0.39276 0.0
C355 C 0.51807 0.13786 0.48347 0.0
C356 C 0.52986 0.13959 0.55464 0.0
C357 C 0.54545 0.1263 0.56982 0.0
C358 C 0.55638 0.12788 0.63734 0.0
C359 C 0.55194 0.1428 0.6899 0.0
C360 C 0.5366 0.15619 0.67496 0.0
C361 C 0.52561 0.15465 0.60756 0.0
H362 H 0.56042 0.144 0.74214 0.0
H363 H 0.45205 0.12881 0.09267 0.0
H364 H 0.31648 0.48418 0.27115 0.0
H365 H 0.34516 0.48765 0.35591 0.0
H366 H 0.37658 0.51884 0.1788 0.0
H367 H 0.34796 0.5149 0.0933 0.0
H368 H 0.40087 0.49305 0.24261 0.0
H369 H 0.35697 0.54255 0.34059 0.0
H370 H 0.32532 0.55574 0.38967 0.0
H371 H 0.32823 0.51572 0.57966 0.0
H372 H 0.35975 0.50206 0.53108 0.0
H373 H 0.4795 0.52391 0.49489 0.0
H374 H 0.4518 0.52275 0.40381 0.0
H375 H 0.41709 0.4901 0.56724 0.0
H376 H 0.44453 0.49145 0.65818 0.0
H377 H 0.395 0.51845 0.50716 0.0
H378 H 0.43841 0.46827 0.40603 0.0
H379 H 0.47003 0.45515 0.35639 0.0
H380 H 0.46812 0.49695 0.17198 0.0
H381 H 0.43663 0.51053 0.22123 0.0
C382 C 0.32946 0.49191 0.25055 0.0
C383 C 0.32999 0.49917 0.17536 0.0
C384 C 0.34588 0.49396 0.29918 0.0
C385 C 0.36319 0.50365 0.27445 0.0
C386 C 0.36355 0.51125 0.19963 0.0
C387 C 0.34713 0.50912 0.15085 0.0
C388 C 0.38094 0.50547 0.32604 0.0
C389 C 0.39959 0.49891 0.30003 0.0
C390 C 0.37945 0.51277 0.40176 0.0
C391 C 0.36065 0.52116 0.43181 0.0
C392 C 0.3508 0.53647 0.3926 0.0
C393 C 0.33289 0.54404 0.42034 0.0
C394 C 0.32474 0.53654 0.48764 0.0
C395 C 0.33454 0.5215 0.52749 0.0
C396 C 0.35245 0.51385 0.49991 0.0
C397 C 0.46603 0.51632 0.511 0.0
C398 C 0.46427 0.50777 0.58391 0.0
C399 C 0.45016 0.51564 0.4588 0.0
C400 C 0.43219 0.50627 0.4781 0.0
C401 C 0.43063 0.49751 0.55062 0.0
C402 C 0.44643 0.4982 0.6026 0.0
C403 C 0.41486 0.50583 0.42404 0.0
C404 C 0.39629 0.51267 0.44961 0.0
C405 C 0.41645 0.49885 0.34792 0.0
C406 C 0.43527 0.49056 0.31779 0.0
C407 C 0.44481 0.47476 0.35521 0.0
C408 C 0.4627 0.46723 0.32711 0.0
C409 C 0.47111 0.47525 0.2612 0.0
C410 C 0.46161 0.49078 0.22311 0.0
C411 C 0.44373 0.49839 0.25107 0.0
H412 H 0.48497 0.4694 0.23956 0.0
H413 H 0.31086 0.5424 0.50897 0.0
H414 H 0.04498 0.31405 0.31635 0.0
H415 H 0.04032 0.34393 0.39281 0.0
H416 H 1.00808 0.37105 0.20741 0.0
H417 H 1.01325 0.34114 0.12978 0.0
H418 H 0.03273 0.39713 0.26603 0.0
H419 H 0.98451 0.35395 0.3727 0.0
H420 H 0.97173 0.323 0.42807 0.0
H421 H 1.01143 0.32896 0.61821 0.0
H422 H 0.02469 0.3598 0.56337 0.0
H423 H 1.00141 0.47766 0.51267 0.0
H424 H 1.0021 0.44937 0.42421 0.0
H425 H 0.03842 0.41675 0.58332 0.0
H426 H 0.03776 0.44476 0.6712 0.0
H427 H 1.00827 0.39427 0.53267 0.0
H428 H 0.05762 0.43668 0.41945 0.0
H429 H 0.06995 0.46765 0.36267 0.0
H430 H 0.02667 0.46335 0.18375 0.0
H431 H 1.01388 0.43248 0.24015 0.0
C432 C 0.03665 0.32626 0.29221 0.0
C433 C 0.02916 0.32507 0.21744 0.0
C434 C 0.03395 0.34339 0.3361 0.0
C435 C 0.02354 0.3598 0.30675 0.0
C436 C 0.01607 0.35865 0.23184 0.0
C437 C 0.01887 0.34149 0.18768 0.0
C438 C 0.02098 0.37819 0.35386 0.0
C439 C 0.02703 0.39651 0.32386 0.0
C440 C 1.01379 0.37756 0.4299 0.0
C441 C 1.0057 0.35913 0.46358 0.0
C442 C 0.99061 0.3486 0.42608 0.0
C443 C 0.98327 0.33108 0.45739 0.0
C444 C 0.99079 0.324 0.52654 0.0
C445 C 1.00563 0.33446 0.56462 0.0
C446 C 1.01305 0.35197 0.53348 0.0
C447 C 1.00969 0.46451 0.5283 0.0
C448 C 0.0195 0.46347 0.5991 0.0
C449 C 1.01009 0.44833 0.47769 0.0
C450 C 0.02032 0.4308 0.49687 0.0
C451 C 0.03033 0.42997 0.5671 0.0
C452 C 0.03001 0.44608 0.61729 0.0
C453 C 0.02036 0.41309 0.44535 0.0
C454 C 1.01379 0.39489 0.47458 0.0
C455 C 0.02693 0.41388 0.36857 0.0
C456 C 0.03464 0.43239 0.33452 0.0
C457 C 0.05062 0.44243 0.36837 0.0
C458 C 0.05771 0.45995 0.33619 0.0
C459 C 0.04906 0.4675 0.26978 0.0
C460 C 0.03333 0.4575 0.23528 0.0
C461 C 0.02616 0.43999 0.26731 0.0
H462 H 0.05458 0.48106 0.24494 0.0
H463 H 0.9851 0.31042 0.55066 0.0
H464 H 0.82855 0.98938 0.22962 0.0
H465 H 0.85749 0.98536 0.14694 0.0
H466 H 0.88105 0.04054 0.22992 0.0
H467 H 0.85164 0.04502 0.30975 0.0
H468 H 0.88643 0.04023 0.08696 0.0
H469 H 0.90043 0.99244 0.28002 0.0
H470 H 0.89454 0.96383 0.36421 0.0
H471 H 0.8882 0.9261 0.16865 0.0
H472 H 0.89381 0.95455 0.08321 0.0
H473 H 0.98247 0.02787 0.91948 0.0
H474 H 0.95627 0.0296 0.01683 0.0
H475 H 0.92601 0.98106 0.90864 0.0
H476 H 0.95202 0.97939 0.81119 0.0
H477 H 0.92519 0.97798 0.06718 0.0
H478 H 0.91106 0.02755 0.87578 0.0
H479 H 0.91917 0.05651 0.79627 0.0
H480 H 0.92798 0.09155 0.99777 0.0
H481 H 0.9202 0.06269 0.07854 0.0
C482 C 0.83986 1.00065 0.23056 0.0
C483 C 0.83771 0.01751 0.27716 0.0
C484 C 0.85663 0.99824 0.18347 0.0
C485 C 0.87184 1.01251 0.18212 0.0
C486 C 0.86971 0.02924 0.22922 0.0
C487 C 0.85291 0.03172 0.27558 0.0
C488 C 0.88956 1.01049 0.13002 0.0
C489 C 0.89502 0.02666 0.0839 0.0
C490 C 0.90086 0.99278 0.12411 0.0
C491 C 0.89732 0.97567 0.17521 0.0
C492 C 0.89761 0.97807 0.25495 0.0
C493 C 0.89436 0.96188 0.3029 0.0
C494 C 0.89095 0.94317 0.27179 0.0
C495 C 0.89082 0.94061 0.19266 0.0
C496 C 0.89404 0.95676 0.14444 0.0
C497 C 0.97038 0.01738 0.91711 0.0
C498 C 0.96933 1.00352 0.85732 0.0
C499 C 0.95532 0.01845 0.97261 0.0
C500 C 0.93894 1.00559 0.96999 0.0
C501 C 0.93839 0.99118 0.91223 0.0
C502 C 0.95329 0.99025 0.85637 0.0
C503 C 0.92192 1.00767 0.02485 0.0
C504 C 0.91659 0.99153 0.071 0.0
C505 C 0.9109 0.02548 0.03167 0.0
C506 C 0.91524 0.04292 0.98319 0.0
C507 C 0.91485 0.0414 0.90313 0.0
C508 C 0.91938 0.0578 0.85784 0.0
C509 C 0.92414 0.07585 0.89195 0.0
C510 C 0.92432 0.07755 0.97143 0.0
C511 C 0.91984 0.06118 0.01699 0.0
H512 H 0.92766 0.08852 0.85679 0.0
H513 H 0.88845 0.93065 0.30901 0.0
H514 H 0.49855 0.85149 0.28369 0.0
H515 H 0.49809 0.8783 0.19013 0.0
H516 H 0.55186 0.85551 0.08954 0.0
H517 H 0.55257 0.82885 0.18503 0.0
H518 H 0.55468 0.89392 0.09859 0.0
H519 H 0.50497 0.85107 1.00162 0.0
H520 H 0.47511 0.83018 0.00504 0.0
H521 H 0.43955 0.88074 0.06374 0.0
H522 H 0.46926 0.90189 0.0619 0.0
H523 H 0.54457 0.95216 0.75461 0.0
H524 H 0.54679 0.92511 0.84782 0.0
H525 H 0.50047 0.95234 0.98117 0.0
H526 H 0.49854 0.97969 0.88891 0.0
H527 H 0.49427 0.9112 0.9512 0.0
H528 H 0.54546 0.95311 0.05598 0.0
H529 H 0.57604 0.97301 0.05459 0.0
H530 H 0.60899 0.92298 0.97183 0.0
H531 H 0.57863 0.90269 0.97381 0.0
C532 C 0.5101 0.85198 0.24085 0.0
C533 C 0.52531 0.83767 0.24074 0.0
C534 C 0.50983 0.86737 0.18708 0.0
C535 C 0.52474 0.86892 0.13119 0.0
C536 C 0.54007 0.8547 0.13137 0.0
C537 C 0.54039 0.83932 0.18558 0.0
C538 C 0.52451 0.88565 0.07434 0.0
C539 C 0.54153 0.89743 0.06559 0.0
C540 C 0.50733 0.89067 0.03154 0.0
C541 C 0.48939 0.87804 0.03232 0.0
C542 C 0.49081 0.85771 0.01582 0.0
C543 C 0.47391 0.84583 0.0174 0.0
C544 C 0.45545 0.85412 0.03476 0.0
C545 C 0.45386 0.87433 0.05039 0.0
C546 C 0.47073 0.88628 0.04904 0.0
C547 C 0.53496 0.95246 0.80413 0.0
C548 C 0.52131 0.96803 0.81409 0.0
C549 C 0.53629 0.937 0.85757 0.0
C550 C 0.52379 0.93658 0.9218 0.0
C551 C 0.51026 0.95225 0.93218 0.0
C552 C 0.5092 0.96791 0.87947 0.0
C553 C 0.52433 0.91945 0.97629 0.0
C554 C 0.50739 0.90759 0.98426 0.0
C555 C 0.54163 0.9142 0.01754 0.0
C556 C 0.55977 0.92645 0.01439 0.0
C557 C 0.5592 0.9464 0.03694 0.0
C558 C 0.57651 0.95772 0.03641 0.0
C559 C 0.59442 0.94929 0.01276 0.0
C560 C 0.5951 0.92949 0.99001 0.0
C561 C 0.57787 0.91805 0.99122 0.0
H562 H 0.60781 0.95805 0.01237 0.0
H563 H 0.44238 0.84489 0.03594 0.0
H564 H 0.71034 0.50781 0.12629 0.0
H565 H 0.68215 0.51148 0.03901 0.0
H566 H 0.64249 0.51597 0.23129 0.0
H567 H 0.67075 0.51199 0.31864 0.0
H568 H 0.62684 0.49189 0.12689 0.0
H569 H 0.6548 0.55682 0.11953 0.0
H570 H 0.68144 0.5814 0.10485 0.0
H571 H 0.69131 0.56203 0.87455 0.0
H572 H 0.66491 0.53713 0.8882 0.0
H573 H 0.54441 0.5178 0.88175 0.0
H574 H 0.56971 0.51893 0.98322 0.0
H575 H 0.61572 0.51413 0.81332 0.0
H576 H 0.59073 0.51332 0.71302 0.0
H577 H 0.62632 0.54055 0.91518 0.0
H578 H 0.6001 0.47444 0.92418 0.0
H579 H 0.57384 0.44941 0.93766 0.0
H580 H 0.56103 0.47046 0.16358 0.0
H581 H 0.58697 0.49589 0.15089 0.0
C582 C 0.69563 0.5098 0.14989 0.0
C583 C 0.69279 0.50955 0.22942 0.0
C584 C 0.67946 0.51193 0.09991 0.0
C585 C 0.66 0.51413 0.12803 0.0
C586 C 0.65723 0.51424 0.20767 0.0
C587 C 0.67342 0.51211 0.25769 0.0
C588 C 0.64263 0.51595 0.07437 0.0
C589 C 0.6266 0.50278 0.08144 0.0
C590 C 0.64225 0.52988 0.01384 0.0
C591 C 0.65797 0.54501 0.00511 0.0
C592 C 0.66273 0.55772 0.0659 0.0
C593 C 0.67778 0.57172 0.05775 0.0
C594 C 0.68809 0.57325 0.98887 0.0
C595 C 0.68332 0.56082 0.9279 0.0
C596 C 0.6683 0.54678 0.93578 0.0
C597 C 0.55991 0.51726 0.86624 0.0
C598 C 0.5655 0.51562 0.78914 0.0
C599 C 0.57442 0.51772 0.92432 0.0
C600 C 0.5948 0.51649 0.90645 0.0
C601 C 0.60023 0.51517 0.82925 0.0
C602 C 0.58584 0.51466 0.77169 0.0
C603 C 0.61066 0.51631 0.96694 0.0
C604 C 0.62644 0.52979 0.9611 0.0
C605 C 0.61082 0.50261 0.02832 0.0
C606 C 0.59531 0.48724 0.03621 0.0
C607 C 0.59157 0.47385 0.97649 0.0
C608 C 0.57676 0.45957 0.984 0.0
C609 C 0.56574 0.45838 0.05133 0.0
C610 C 0.56955 0.47144 0.11137 0.0
C611 C 0.58429 0.48579 0.10404 0.0
H612 H 0.55428 0.44731 0.05702 0.0
H613 H 0.69974 0.58408 0.98269 0.0
H614 H 0.03414 0.685 0.25534 0.0
H615 H 0.03351 0.65713 0.16658 0.0
H616 H 0.97443 0.67358 0.09635 0.0
H617 H 0.97489 0.70132 0.18718 0.0
H618 H 0.97612 0.63489 0.11307 0.0
H619 H 0.01626 0.68174 0.9815 0.0
H620 H 0.0435 0.70555 0.96461 0.0
H621 H 0.08614 0.65948 0.00605 0.0
H622 H 0.05914 0.63544 0.02437 0.0
H623 H 0.97775 0.5767 0.76798 0.0
H624 H 0.9773 0.60416 0.85961 0.0
H625 H 0.02939 0.58037 0.96914 0.0
H626 H 0.02958 0.55252 0.87872 0.0
H627 H 0.03096 0.62268 0.93025 0.0
H628 H 0.98988 0.57587 0.06047 0.0
H629 H 0.96218 0.55235 0.07108 0.0
H630 H 0.92065 0.59912 0.02494 0.0
H631 H 0.94815 0.62287 0.0125 0.0
C632 C 0.02113 0.68289 0.22011 0.0
C633 C 1.00476 0.69573 0.22699 0.0
C634 C 0.02077 0.66689 0.16918 0.0
C635 C 1.00405 0.66327 0.12325 0.0
C636 C 0.98758 0.676 0.13051 0.0
C637 C 0.98791 0.692 0.18191 0.0
C638 C 1.00374 0.64604 0.069 0.0
C639 C 0.988 0.63244 0.07243 0.0
C640 C 0.01936 0.64243 0.01641 0.0
C641 C 0.03566 0.65682 0.00503 0.0
C642 C 0.03144 0.67671 0.98757 0.0
C643 C 0.04684 0.69025 0.97767 0.0
C644 C 0.06654 0.68404 0.98443 0.0
C645 C 0.07087 0.66427 1.00093 0.0
C646 C 0.05553 0.65068 0.01102 0.0
C647 C 0.98898 0.57721 0.81214 0.0
C648 C 1.00367 0.56243 0.81621 0.0
C649 C 0.98872 0.59292 0.86443 0.0
C650 C 1.00334 0.59441 0.92125 0.0
C651 C 0.01798 0.57958 0.92574 0.0
C652 C 0.018 0.56361 0.87435 0.0
C653 C 1.00347 0.61163 0.9749 0.0
C654 C 0.01913 0.6252 0.97106 0.0
C655 C 0.98771 0.6153 0.02644 0.0
C656 C 0.9711 0.60113 0.03484 0.0
C657 C 0.97485 0.58112 0.0519 0.0
C658 C 0.95919 0.56775 0.05835 0.0
C659 C 0.93968 0.57423 0.04865 0.0
C660 C 0.93578 0.59411 0.03242 0.0
C661 C 0.9514 0.60755 0.02569 0.0
H662 H 0.92759 0.56385 0.05398 0.0
H663 H 0.07844 0.69454 0.97673 0.0
H664 H 0.95973 0.23272 0.20881 0.0
H665 H 0.94569 0.21487 0.31605 0.0
H666 H 0.98514 0.2454 0.46989 0.0
H667 H 0.99979 0.2629 0.36129 0.0
H668 H 0.99079 0.20787 0.4801 0.0
H669 H 0.93339 0.2466 0.49821 0.0
H670 H 0.90462 0.26632 0.45604 0.0
H671 H 0.87876 0.21469 0.35456 0.0
H672 H 0.9075 0.19469 0.39495 0.0
H673 H 0.96814 0.12107 0.67156 0.0
H674 H 0.96387 0.15696 0.66117 0.0
H675 H 0.93645 0.14939 0.4406 0.0
H676 H 0.94046 0.11357 0.45138 0.0
H677 H 0.92233 0.18305 0.51624 0.0
H678 H 0.98654 0.15197 0.44907 0.0
H679 H 0.01577 0.1316 0.48179 0.0
H680 H 0.02817 0.16949 0.67254 0.0
H681 H 0.9989 0.19004 0.64096 0.0
C682 C 0.96503 0.23604 0.26576 0.0
C683 C 0.98111 0.24886 0.27668 0.0
C684 C 0.95679 0.22602 0.32742 0.0
C685 C 0.96429 0.22879 0.40143 0.0
C686 C 0.97908 0.24306 0.41336 0.0
C687 C 0.98741 0.25308 0.35135 0.0
C688 C 0.95973 0.21385 0.4609 0.0
C689 C 0.97573 0.20299 0.4907 0.0
C690 C 0.94014 0.20723 0.47423 0.0
C691 C 0.92266 0.21911 0.44984 0.0
C692 C 0.92163 0.23945 0.46658 0.0
C693 C 0.9053 0.25068 0.44299 0.0
C694 C 0.88987 0.24176 0.4027 0.0
C695 C 0.89071 0.22158 0.38595 0.0
C696 C 0.907 0.21026 0.40939 0.0
C697 C 0.96071 0.1271 0.62192 0.0
C698 C 0.95502 0.11469 0.56147 0.0
C699 C 0.95815 0.14754 0.6163 0.0
C700 C 0.95017 0.15582 0.54953 0.0
C701 C 0.94261 0.14329 0.49269 0.0
C702 C 0.94499 0.12283 0.49866 0.0
C703 C 0.95339 0.17692 0.53105 0.0
C704 C 0.93723 0.18871 0.50898 0.0
C705 C 0.97283 0.1845 0.52446 0.0
C706 C 0.99055 0.17243 0.54297 0.0
C707 C 0.99551 0.15592 0.49801 0.0
C708 C 1.01206 0.14436 0.51632 0.0
C709 C 0.02384 0.14928 0.57906 0.0
C710 C 0.01905 0.16574 0.62383 0.0
C711 C 1.0025 0.17736 0.60572 0.0
H712 H 0.03671 0.14037 0.59271 0.0
H713 H 0.87725 0.25049 0.38445 0.0
H714 H 0.25815 1.00501 0.35579 0.0
H715 H 0.27537 0.99325 0.46969 0.0
H716 H 0.3073 0.95067 0.33308 0.0
H717 H 0.28921 0.9614 0.22032 0.0
H718 H 0.30735 0.9389 0.47772 0.0
H719 H 0.32168 1.00012 0.33802 0.0
H720 H 0.31258 0.03311 0.28869 0.0
H721 H 0.29952 0.05274 0.51642 0.0
H722 H 0.30829 0.01971 0.56685 0.0
H723 H 0.40906 0.95232 0.45272 0.0
H724 H 0.37338 0.94678 0.45529 0.0
H725 H 0.36794 0.98556 0.64994 0.0
H726 H 0.40375 0.99119 0.64725 0.0
H727 H 0.34729 0.99855 0.53418 0.0
H728 H 0.35378 0.93747 0.65644 0.0
H729 H 0.36598 0.90411 0.68712 0.0
H730 H 0.34503 0.88283 0.47097 0.0
H731 H 0.33288 0.91613 0.43843 0.0
C732 C 0.26808 0.99247 0.35059 0.0
C733 C 0.27293 0.98463 0.27854 0.0
C734 C 0.27798 0.98579 0.41589 0.0
C735 C 0.29318 0.97163 0.40936 0.0
C736 C 0.29586 0.96183 0.33951 0.0
C737 C 0.28572 0.96821 0.27467 0.0
C738 C 0.30932 0.97049 0.46673 0.0
C739 C 0.31612 0.95186 0.49095 0.0
C740 C 0.32039 0.98755 0.4858 0.0
C741 C 0.31533 1.00744 0.45599 0.0
C742 C 0.31678 1.01147 0.37744 0.0
C743 C 0.31168 0.03015 0.34931 0.0
C744 C 0.30541 0.04499 0.39938 0.0
C745 C 0.3043 0.0412 0.47771 0.0
C746 C 0.3093 0.0225 0.5061 0.0
C747 C 0.40035 0.95913 0.49761 0.0
C748 C 0.40905 0.97249 0.54878 0.0
C749 C 0.37995 0.95584 0.49949 0.0
C750 C 0.36797 0.9657 0.55305 0.0
C751 C 0.37691 0.97777 0.60828 0.0
C752 C 0.3973 0.98113 0.60616 0.0
C753 C 0.34629 0.96672 0.54028 0.0
C754 C 0.33832 0.98548 0.5247 0.0
C755 C 0.33471 0.94965 0.52652 0.0
C756 C 0.34214 0.92944 0.54541 0.0
C757 C 0.35169 0.92573 0.61543 0.0
C758 C 0.35866 0.90679 0.63309 0.0
C759 C 0.35622 0.89133 0.58115 0.0
C760 C 0.34683 0.89481 0.51135 0.0
C761 C 0.33983 0.91373 0.49339 0.0
H762 H 0.36163 0.87667 0.59491 0.0
H763 H 0.30147 0.05946 0.37752 0.0
H764 H 0.57146 0.2675 0.27305 0.0
H765 H 0.59249 0.28624 0.36144 0.0
H766 H 0.54119 0.31975 0.43409 0.0
H767 H 0.52048 0.30083 0.34803 0.0
H768 H 0.5994 0.32144 0.33335 0.0
H769 H 0.54513 0.34565 0.58629 0.0
H770 H 0.52699 0.32933 0.69021 0.0
H771 H 0.56272 0.27715 0.66284 0.0
H772 H 0.58153 0.29328 0.55994 0.0
H773 H 0.57005 0.4162 0.32701 0.0
H774 H 0.58016 0.3818 0.33029 0.0
H775 H 0.598 0.38813 0.56578 0.0
H776 H 0.5863 0.42232 0.56453 0.0
H777 H 0.57654 0.35882 0.55992 0.0
H778 H 0.63255 0.37262 0.4199 0.0
H779 H 0.65444 0.38835 0.32528 0.0
H780 H 0.62081 0.36246 0.14307 0.0
H781 H 0.59851 0.34683 0.23628 0.0
C782 C 0.56466 0.27819 0.31109 0.0
C783 C 0.54449 0.28295 0.30385 0.0
C784 C 0.57666 0.28894 0.36132 0.0
C785 C 0.56855 0.30454 0.40455 0.0
C786 C 0.54792 0.30763 0.40299 0.0
C787 C 0.53602 0.29692 0.35314 0.0
C788 C 0.58131 0.32062 0.43485 0.0
C789 C 0.59475 0.32943 0.38393 0.0
C790 C 0.57645 0.3306 0.50339 0.0
C791 C 0.56487 0.32077 0.56502 0.0
C792 C 0.54934 0.33077 0.6027 0.0
C793 C 0.53887 0.32152 0.66147 0.0
C794 C 0.54369 0.30222 0.68311 0.0
C795 C 0.55898 0.2921 0.64595 0.0
C796 C 0.56955 0.3013 0.5873 0.0
C797 C 0.5763 0.41037 0.37936 0.0
C798 C 0.577 0.42195 0.44577 0.0
C799 C 0.58252 0.39071 0.38082 0.0
C800 C 0.5901 0.38226 0.44818 0.0
C801 C 0.59223 0.39425 0.5131 0.0
C802 C 0.58566 0.41389 0.51206 0.0
C803 C 0.59221 0.36039 0.45317 0.0
C804 C 0.58185 0.35053 0.51125 0.0
C805 C 0.60042 0.34925 0.39256 0.0
C806 C 0.61388 0.35843 0.33546 0.0
C807 C 0.62977 0.3703 0.35967 0.0
C808 C 0.64225 0.37922 0.30621 0.0
C809 C 0.63904 0.37637 0.22823 0.0
C810 C 0.62333 0.36459 0.20352 0.0
C811 C 0.6108 0.35563 0.25671 0.0
H812 H 0.6487 0.38331 0.18694 0.0
H813 H 0.53556 0.29509 0.72866 0.0
H814 H 0.22128 0.49612 0.27677 0.0
H815 H 0.20385 0.50537 0.39189 0.0
H816 H 0.25226 0.54354 0.45641 0.0
H817 H 0.26903 0.53567 0.33628 0.0
H818 H 0.20356 0.50695 0.53419 0.0
H819 H 0.23407 0.58314 0.54098 0.0
H820 H 0.25436 0.60652 0.46612 0.0
H821 H 0.23029 0.58314 0.25796 0.0
H822 H 0.20981 0.55974 0.33181 0.0
H823 H 0.115 0.55189 0.66173 0.0
H824 H 0.15115 0.54875 0.6686 0.0
H825 H 0.15554 0.56542 0.43199 0.0
H826 H 0.11969 0.56904 0.42478 0.0
H827 H 0.18708 0.57821 0.51071 0.0
H828 H 0.1471 0.51837 0.48985 0.0
H829 H 0.12356 0.49314 0.53477 0.0
H830 H 0.16111 0.48068 0.7269 0.0
H831 H 0.18485 0.50583 0.68281 0.0
C832 C 0.2283 0.50645 0.31545 0.0
C833 C 0.24607 0.51586 0.29558 0.0
C834 C 0.21847 0.51148 0.38241 0.0
C835 C 0.22638 0.52572 0.43216 0.0
C836 C 0.24551 0.53303 0.41781 0.0
C837 C 0.25518 0.52837 0.3493 0.0
C838 C 0.21283 0.53504 0.48882 0.0
C839 C 0.20026 0.52265 0.53111 0.0
C840 C 0.20861 0.55559 0.4863 0.0
C841 C 0.22067 0.56963 0.44167 0.0
C842 C 0.23314 0.58305 0.47925 0.0
C843 C 0.24465 0.59628 0.43704 0.0
C844 C 0.24366 0.59627 0.35733 0.0
C845 C 0.23108 0.5831 0.31965 0.0
C846 C 0.21951 0.56988 0.3616 0.0
C847 C 0.1237 0.55546 0.61177 0.0
C848 C 0.11445 0.56012 0.54189 0.0
C849 C 0.14432 0.55364 0.61607 0.0
C850 C 0.15592 0.55647 0.55077 0.0
C851 C 0.14686 0.56307 0.4832 0.0
C852 C 0.12632 0.56489 0.4788 0.0
C853 C 0.17678 0.54968 0.54744 0.0
C854 C 0.19091 0.56271 0.51771 0.0
C855 C 0.18187 0.52949 0.55768 0.0
C856 C 0.16742 0.51454 0.5847 0.0
C857 C 0.15019 0.51048 0.54233 0.0
C858 C 0.13688 0.49606 0.56725 0.0
C859 C 0.1408 0.48536 0.63381 0.0
C860 C 0.15804 0.48904 0.67552 0.0
C861 C 0.17139 0.50344 0.65076 0.0
H862 H 0.13047 0.4742 0.65292 0.0
H863 H 0.25261 0.6065 0.32477 0.0
H864 H 0.0181 0.76493 0.04521 0.0
H865 H 0.03227 0.78203 0.9351 0.0
H866 H 0.08029 0.80288 0.07644 0.0
H867 H 0.06663 0.78524 0.18512 0.0
H868 H 0.03195 0.8198 0.93734 0.0
H869 H 0.11846 0.81944 0.98457 0.0
H870 H 0.14496 0.79479 0.00414 0.0
H871 H 0.10865 0.74991 0.90256 0.0
H872 H 0.08203 0.77433 0.88113 0.0
H873 H 0.09054 0.90711 0.96499 0.0
H874 H 0.09263 0.871 0.96739 0.0
H875 H 0.06206 0.86829 0.75166 0.0
H876 H 0.06014 0.90432 0.74847 0.0
H877 H 0.10181 0.83586 0.87526 0.0
H878 H 0.02109 0.84011 0.79024 0.0
H879 H 0.99504 0.86525 0.77006 0.0
H880 H 0.01899 0.90007 0.953 0.0
H881 H 0.04524 0.87512 0.97349 0.0
C882 C 0.03216 0.77241 0.05179 0.0
C883 C 0.04109 0.7741 0.124 0.0
C884 C 0.04022 0.78223 0.98884 0.0
C885 C 0.05731 0.79384 0.99726 0.0
C886 C 0.06727 0.79382 0.06771 0.0
C887 C 0.0593 0.78396 0.13034 0.0
C888 C 0.06222 0.80931 0.94027 0.0
C889 C 0.04716 0.82283 0.92119 0.0
C890 C 0.08205 0.81348 0.91935 0.0
C891 C 0.09819 0.79878 0.9313 0.0
C892 C 0.11616 0.80437 0.96571 0.0
C893 C 0.1312 0.79041 0.97733 0.0
C894 C 0.12848 0.77079 0.95467 0.0
C895 C 0.11072 0.7651 0.92024 0.0
C896 C 0.09564 0.779 0.90845 0.0
C897 C 0.08511 0.89883 0.91639 0.0
C898 C 0.07471 0.90838 0.85751 0.0
C899 C 0.0864 0.8782 0.91759 0.0
C900 C 0.07722 0.86701 0.86015 0.0
C901 C 0.06917 0.87665 0.79644 0.0
C902 C 0.06789 0.89723 0.79518 0.0
C903 C 0.07171 0.84634 0.87691 0.0
C904 C 0.08658 0.83212 0.88838 0.0
C905 C 0.05168 0.84138 0.89095 0.0
C906 C 0.03537 0.85597 0.88195 0.0
C907 C 0.02084 0.85316 0.82572 0.0
C908 C 1.00603 0.86737 0.81434 0.0
C909 C 1.00543 0.88433 0.85989 0.0
C910 C 0.01953 0.88699 0.91742 0.0
C911 C 0.0344 0.87284 0.92876 0.0
H912 H 0.994 0.89536 0.85086 0.0
H913 H 0.14014 0.76001 0.96377 0.0
H914 H 0.74902 0.02259 0.1169 0.0
H915 H 0.7276 0.01344 0.0117 0.0
H916 H 0.74578 0.95242 0.03579 0.0
H917 H 0.76675 0.96169 0.14446 0.0
H918 H 0.71974 0.99558 0.88572 0.0
H919 H 0.70745 0.9258 0.04858 0.0
H920 H 0.71594 0.90958 0.17083 0.0
H921 H 0.7149 0.9659 0.28425 0.0
H922 H 0.70635 0.98237 0.16262 0.0
H923 H 0.61383 0.98716 0.8278 0.0
H924 H 0.64811 0.9749 0.82914 0.0
H925 H 0.6543 0.99441 0.06229 0.0
H926 H 0.62026 1.00668 0.06134 0.0
H927 H 0.67075 0.95807 0.03853 0.0
H928 H 0.66523 0.02176 0.91584 0.0
H929 H 0.6563 0.04584 0.81627 0.0
H930 H 0.69285 0.01483 0.65545 0.0
H931 H 0.70064 0.98954 0.75193 0.0
C932 C 0.74917 1.0074 0.09715 0.0
C933 C 0.75901 0.99274 0.13908 0.0
C934 C 0.737 1.00212 0.03662 0.0
C935 C 0.7345 0.98209 0.01769 0.0
C936 C 0.74713 0.96789 0.05084 0.0
C937 C 0.75917 0.97317 0.11255 0.0
C938 C 0.71544 0.97637 0.98213 0.0
C939 C 0.70908 0.9868 0.91723 0.0
C940 C 0.70149 0.96507 0.02387 0.0
C941 C 0.70651 0.95525 0.09679 0.0
C942 C 0.70904 0.93466 0.09972 0.0
C943 C 0.71387 0.92545 0.16878 0.0
C944 C 0.71604 0.93672 0.23518 0.0
C945 C 0.71329 0.95721 0.23276 0.0
C946 C 0.70845 0.96647 0.16387 0.0
C947 C 0.62249 0.9886 0.87952 0.0
C948 C 0.61457 0.99809 0.94429 0.0
C949 C 0.64197 0.98156 0.88008 0.0
C950 C 0.65364 0.98376 0.94561 0.0
C951 C 0.64545 0.99249 0.0112 0.0
C952 C 0.62612 0.9997 0.01043 0.0
C953 C 0.67487 0.97856 0.94598 0.0
C954 C 0.68151 0.96579 0.00351 0.0
C955 C 0.68883 0.98872 0.9002 0.0
C956 C 0.68296 1.00327 0.84067 0.0
C957 C 0.67075 0.01957 0.85847 0.0
C958 C 0.66586 0.03346 0.80237 0.0
C959 C 0.67363 0.03162 0.72887 0.0
C960 C 0.68632 0.0159 0.71148 0.0
C961 C 0.69085 1.00168 0.76671 0.0
H962 H 0.67007 0.04254 0.68579 0.0
H963 H 0.71979 0.92956 0.28854 0.0
H964 H 0.50259 0.77741 0.06675 0.0
H965 H 0.48975 0.75922 0.95797 0.0
H966 H 0.4451 0.73299 0.10181 0.0
H967 H 0.4571 0.75206 0.20967 0.0
H968 H 0.49815 0.72257 0.98815 0.0
H969 H 0.41346 0.70459 0.00708 0.0
H970 H 0.38174 0.72274 0.0101 0.0
H971 H 0.40901 0.77243 0.90017 0.0
H972 H 0.44084 0.75449 0.8953 0.0
H973 H 0.45446 0.62251 0.99346 0.0
H974 H 0.44941 0.65814 0.00553 0.0
H975 H 0.48457 0.66784 0.80377 0.0
H976 H 0.48901 0.63209 0.789 0.0
H977 H 0.43578 0.69036 0.90656 0.0
H978 H 0.5202 0.70575 0.87725 0.0
H979 H 0.5527 0.68963 0.89631 0.0
H980 H 0.52606 0.6471 0.0462 0.0
H981 H 0.49364 0.66328 0.02998 0.0
C982 C 0.48924 0.76878 0.07435 0.0
C983 C 0.48137 0.76543 0.14749 0.0
C984 C 0.48189 0.75835 0.01179 0.0
C985 C 0.46689 0.74425 0.02217 0.0
C986 C 0.45676 0.74367 0.0921 0.0
C987 C 0.46386 0.75437 0.15431 0.0
C988 C 0.46662 0.72639 0.97328 0.0
C989 C 0.48457 0.71593 0.9672 0.0
C990 C 0.44882 0.71736 0.94905 0.0
C991 C 0.42961 0.72816 0.951 0.0
C992 C 0.41269 0.71932 0.98295 0.0
C993 C 0.39468 0.7296 0.98515 0.0
C994 C 0.39336 0.74874 0.95543 0.0
C995 C 0.41006 0.75763 0.92335 0.0
C996 C 0.4281 0.74741 0.92098 0.0
C997 C 0.46063 0.63213 0.95023 0.0
C998 C 0.47248 0.62449 0.89107 0.0
C999 C 0.45768 0.65249 0.95716 0.0
C1000 C 0.46678 0.6655 0.90581 0.0
C1001 C 0.47759 0.65793 0.84411 0.0
C1002 C 0.48031 0.63756 0.83647 0.0
C1003 C 0.4672 0.68681 0.92325 0.0
C1004 C 0.44937 0.69759 0.92407 0.0
C1005 C 0.4851 0.69618 0.94412 0.0
C1006 C 0.50431 0.68546 0.95067 0.0
C1007 C 0.52126 0.69289 0.91393 0.0
C1008 C 0.53972 0.68385 0.92483 0.0
C1009 C 0.54143 0.6673 0.97221 0.0
C1010 C 0.5247 0.65983 0.00904 0.0
C1011 C 0.50625 0.66892 0.9989 0.0
H1012 H 0.55572 0.66028 0.98033 0.0
H1013 H 0.37941 0.75667 0.95723 0.0
H1014 H 0.7514 0.52118 0.08154 0.0
H1015 H 0.77485 0.51264 0.98147 0.0
H1016 H 0.81542 0.55644 0.06787 0.0
H1017 H 0.79122 0.56643 0.16243 0.0
H1018 H 0.82955 0.54474 0.94343 0.0
H1019 H 0.80681 0.50933 0.17399 0.0
H1020 H 0.78122 0.4929 0.25208 0.0
H1021 H 0.76781 0.45388 0.06595 0.0
H1022 H 0.79342 0.47005 0.98694 0.0
H1023 H 0.91375 0.50549 0.09614 0.0
H1024 H 0.87812 0.51214 0.09868 0.0
H1025 H 0.86949 0.47144 0.91223 0.0
H1026 H 0.90519 0.46479 0.90893 0.0
H1027 H 0.83723 0.47653 0.04524 0.0
H1028 H 0.87732 0.51079 0.85273 0.0
H1029 H 0.90898 0.52777 0.82831 0.0
H1030 H 0.89318 0.57313 0.98856 0.0
H1031 H 0.86197 0.55588 0.01737 0.0
C1032 C 0.76465 0.53005 0.07576 0.0
C1033 C 0.77022 0.5435 0.13312 0.0
C1034 C 0.77822 0.52495 0.01878 0.0
C1035 C 0.79748 0.53273 0.02152 0.0
C1036 C 0.80095 0.54956 0.06648 0.0
C1037 C 0.78709 0.55522 0.12124 0.0
C1038 C 0.8148 0.52043 0.99908 0.0
C1039 C 0.83103 0.52966 0.96385 0.0
C1040 C 0.81704 0.50081 0.02735 0.0
C1041 C 0.80178 0.491 0.07448 0.0
C1042 C 0.79839 0.49724 0.1499 0.0
C1043 C 0.7839 0.488 0.19423 0.0
C1044 C 0.77283 0.47245 0.16386 0.0
C1045 C 0.77634 0.46599 0.08927 0.0
C1046 C 0.79085 0.47515 0.04472 0.0
C1047 C 0.90416 0.49749 0.05745 0.0
C1048 C 0.91214 0.48494 1.00144 0.0
C1049 C 0.88388 0.50122 0.05912 0.0
C1050 C 0.87147 0.49253 0.00455 0.0
C1051 C 0.879 0.47825 0.95447 0.0
C1052 C 0.89934 0.47448 0.95278 0.0
C1053 C 0.85172 0.50109 0.99176 0.0
C1054 C 0.83529 0.49115 0.02063 0.0
C1055 C 0.84965 0.52041 0.96169 0.0
C1056 C 0.8673 0.53194 0.93754 0.0
C1057 C 0.88064 0.52432 0.88313 0.0
C1058 C 0.8986 0.53391 0.86896 0.0
C1059 C 0.90316 0.55143 0.90723 0.0
C1060 C 0.8897 0.55949 0.95931 0.0
C1061 C 0.87188 0.54978 0.97474 0.0
H1062 H 0.91704 0.55885 0.89597 0.0
H1063 H 0.76157 0.46537 0.19821 0.0
H1064 H 0.99038 0.23532 0.96529 0.0
H1065 H 0.99311 0.20354 0.89816 0.0
H1066 H 0.0436 0.18802 0.03708 0.0
H1067 H 0.04095 0.21991 0.10342 0.0
H1068 H 0.04796 0.17338 0.89292 0.0
H1069 H 0.99757 0.17362 0.08615 0.0
H1070 H 0.96759 0.1861 0.15091 0.0
H1071 H 0.93317 0.17492 0.94938 0.0
H1072 H 0.96306 0.16275 0.88283 0.0
H1073 H 0.04147 0.06777 0.88158 0.0
H1074 H 0.04194 0.10242 0.92296 0.0
H1075 H 0.99291 0.11538 0.77319 0.0
H1076 H 0.99232 0.08075 0.73188 0.0
H1077 H 0.98771 0.13192 0.91555 0.0
H1078 H 0.03814 0.1291 0.72634 0.0
H1079 H 0.06836 0.11694 0.66249 0.0
H1080 H 0.10297 0.13231 0.85933 0.0
H1081 H 0.07288 0.14438 0.92465 0.0
C1082 C 1.00254 0.22545 0.97917 0.0
C1083 C 0.01572 0.23025 0.03838 0.0
C1084 C 1.00394 0.20715 0.94155 0.0
C1085 C 0.01838 0.19313 0.96321 0.0
C1086 C 0.03235 0.1985 0.01904 0.0
C1087 C 0.03093 0.2168 0.05663 0.0
C1088 C 0.01784 0.17237 0.933 0.0
C1089 C 0.03485 0.16427 0.89856 0.0
C1090 C 1.00065 0.16044 0.93902 0.0
C1091 C 0.9826 0.16748 0.97923 0.0
C1092 C 0.98364 0.17396 0.05545 0.0
C1093 C 0.96666 0.18097 0.09249 0.0
C1094 C 0.9485 0.18134 0.05423 0.0
C1095 C 0.94726 0.17465 0.97889 0.0
C1096 C 0.96422 0.16771 0.94146 0.0
C1097 C 0.03078 0.07798 0.85737 0.0
C1098 C 0.01699 0.07146 0.80265 0.0
C1099 C 0.03112 0.09785 0.88086 0.0
C1100 C 0.01756 0.11167 0.85077 0.0
C1101 C 1.00357 0.1051 0.79707 0.0
C1102 C 1.00337 0.08529 0.77296 0.0
C1103 C 0.01787 0.13288 0.87578 0.0
C1104 C 1.00081 0.14105 0.90948 0.0
C1105 C 0.03505 0.14479 0.86949 0.0
C1106 C 0.0532 0.13752 0.83056 0.0
C1107 C 0.05217 0.12979 0.75615 0.0
C1108 C 0.06928 0.12292 0.71968 0.0
C1109 C 0.08757 0.12381 0.75689 0.0
C1110 C 0.08878 0.13161 0.83059 0.0
C1111 C 0.0717 0.13849 0.86733 0.0
H1112 H 0.10081 0.11849 0.72857 0.0
H1113 H 0.93536 0.18676 0.08301 0.0
H1114 H 0.29204 0.0447 0.02158 0.0
H1115 H 0.32312 0.04925 0.95022 0.0
H1116 H 0.33372 0.98635 0.95861 0.0
H1117 H 0.30259 0.98177 0.0261 0.0
H1118 H 0.35922 0.04409 0.99135 0.0
H1119 H 0.36043 0.96892 0.84255 0.0
H1120 H 0.338 0.94678 0.77167 0.0
H1121 H 0.30487 0.99693 0.69084 0.0
H1122 H 0.32655 0.01929 0.76448 0.0
H1123 H 0.45999 0.0222 0.91169 0.0
H1124 H 0.4253 0.02224 0.95191 0.0
H1125 H 0.4068 0.02435 0.71637 0.0
H1126 H 0.44155 0.02355 0.6761 0.0
H1127 H 0.38351 1.00077 0.7827 0.0
H1128 H 0.40415 0.0658 0.84574 0.0
H1129 H 0.4251 0.09173 0.90266 0.0
H1130 H 0.41299 0.06904 0.12666 0.0
H1131 H 0.39218 0.0428 0.07102 0.0
C1132 C 0.30068 0.0318 0.00581 0.0
C1133 C 0.29469 1.01286 0.02976 0.0
C1134 C 0.31864 0.03442 0.96563 0.0
C1135 C 0.331 0.01815 0.94777 0.0
C1136 C 0.32451 0.9992 0.96921 0.0
C1137 C 0.30665 0.99659 0.0088 0.0
C1138 C 0.3513 0.02089 0.913 0.0
C1139 C 0.36444 0.03467 0.94542 0.0
C1140 C 0.35835 1.00906 0.85174 0.0
C1141 C 0.34502 0.9957 0.80907 0.0
C1142 C 0.34832 0.97518 0.80977 0.0
C1143 C 0.33571 0.96261 0.76933 0.0
C1144 C 0.32015 0.97045 0.72605 0.0
C1145 C 0.31692 0.99087 0.72439 0.0
C1146 C 0.32922 1.00349 0.7662 0.0
C1147 C 0.44856 0.02276 0.86833 0.0
C1148 C 0.4537 0.02284 0.79041 0.0
C1149 C 0.4286 0.02289 0.89149 0.0
C1150 C 0.4131 0.02357 0.83757 0.0
C1151 C 0.41825 0.02372 0.75963 0.0
C1152 C 0.43822 0.02329 0.73645 0.0
C1153 C 0.39164 0.02367 0.8623 0.0
C1154 C 0.37831 1.01036 0.82817 0.0
C1155 C 0.38427 0.03645 0.92027 0.0
C1156 C 0.39674 0.05223 0.95411 0.0
C1157 C 0.40606 0.06626 0.90711 0.0
C1158 C 0.4179 0.08102 0.93915 0.0
C1159 C 0.42041 0.082 0.01822 0.0
C1160 C 0.41105 0.06825 0.06542 0.0
C1161 C 0.39921 0.05344 0.03366 0.0
H1162 H 0.42959 0.09344 0.04292 0.0
H1163 H 0.31057 0.96069 0.69394 0.0
H1164 H 0.50065 0.32262 0.15394 0.0
H1165 H 0.49864 0.35264 0.07805 0.0
H1166 H 0.52082 0.32095 0.882 0.0
H1167 H 0.52371 0.29071 0.96001 0.0
H1168 H 0.5392 0.35474 0.8897 0.0
H1169 H 0.47092 0.33871 0.89669 0.0
H1170 H 0.43894 0.32884 0.95281 0.0
H1171 H 0.43861 0.38114 0.09185 0.0
H1172 H 0.47073 0.3912 0.03736 0.0
H1173 H 0.52186 0.44328 0.66659 0.0
H1174 H 0.52079 0.40936 0.71602 0.0
H1175 H 0.50449 0.43161 0.93794 0.0
H1176 H 0.50538 0.46542 0.88905 0.0
H1177 H 0.4817 0.40056 0.89991 0.0
H1178 H 0.55187 0.41502 0.89295 0.0
H1179 H 0.58316 0.4244 0.83017 0.0
H1180 H 0.57899 0.37392 0.68272 0.0
H1181 H 0.54737 0.36451 0.74288 0.0
C1182 C 0.50483 0.32188 0.0943 0.0
C1183 C 0.51235 0.30414 0.06332 0.0
C1184 C 0.50355 0.33915 0.05049 0.0
C1185 C 0.50935 0.3393 0.9734 0.0
C1186 C 0.5162 0.3214 0.94117 0.0
C1187 C 0.51761 0.30399 0.98554 0.0
C1188 C 0.50916 0.35844 0.92901 0.0
C1189 C 0.52644 0.36454 0.89074 0.0
C1190 C 0.49269 0.37158 0.9304 0.0
C1191 C 0.47332 0.36564 0.96324 0.0
C1192 C 0.4641 0.34804 0.9396 0.0
C1193 C 0.44593 0.34243 0.97107 0.0
C1194 C 0.43677 0.35434 0.02595 0.0
C1195 C 0.44573 0.37192 0.04935 0.0
C1196 C 0.4639 0.3776 0.01809 0.0
C1197 C 0.51808 0.441 0.726 0.0
C1198 C 0.51369 0.45727 0.77358 0.0
C1199 C 0.51754 0.42151 0.75436 0.0
C1200 C 0.51266 0.41774 0.83114 0.0
C1201 C 0.50826 0.43397 0.87854 0.0
C1202 C 0.50884 0.45341 0.85037 0.0
C1203 C 0.51186 0.39702 0.8625 0.0
C1204 C 0.49437 0.39064 0.89826 0.0
C1205 C 0.52804 0.38358 0.85781 0.0
C1206 C 0.54709 0.38921 0.82178 0.0
C1207 C 0.55749 0.40604 0.8465 0.0
C1208 C 0.57529 0.41137 0.81131 0.0
C1209 C 0.58297 0.39985 0.75201 0.0
C1210 C 0.57292 0.38292 0.72805 0.0
C1211 C 0.55506 0.37759 0.76265 0.0
H1212 H 0.59676 0.40398 0.72486 0.0
H1213 H 0.42271 0.34996 0.05026 0.0
H1214 H 0.23505 0.48367 0.97978 0.0
H1215 H 0.20435 0.4827 0.90389 0.0
H1216 H 0.19111 0.54268 0.97102 0.0
H1217 H 0.22167 0.5436 0.0461 0.0
H1218 H 0.16832 0.48386 0.95208 0.0
H1219 H 0.15941 0.56559 0.83374 0.0
H1220 H 0.17938 0.59092 0.76871 0.0
H1221 H 0.22361 0.54736 0.71443 0.0
H1222 H 0.20398 0.52175 0.77874 0.0
H1223 H 0.06663 0.50494 0.8958 0.0
H1224 H 0.10141 0.50456 0.93405 0.0
H1225 H 0.11876 0.51699 0.70228 0.0
H1226 H 0.08387 0.51812 0.66406 0.0
H1227 H 0.14125 0.53672 0.78603 0.0
H1228 H 0.12372 0.46899 0.79297 0.0
H1229 H 0.10408 0.43963 0.82721 0.0
H1230 H 0.11619 0.44971 0.06463 0.0
H1231 H 0.13572 0.47929 0.0318 0.0
C1232 C 0.22592 0.49685 0.97596 0.0
C1233 C 0.23097 0.51381 0.01803 0.0
C1234 C 0.20821 0.49624 0.93331 0.0
C1235 C 0.19519 0.51263 0.93118 0.0
C1236 C 0.20083 0.52989 0.97027 0.0
C1237 C 0.2184 0.53044 0.0132 0.0
C1238 C 0.175 0.51121 0.89471 0.0
C1239 C 0.16255 0.49542 0.91524 0.0
C1240 C 0.16734 0.52593 0.84471 0.0
C1241 C 0.18012 0.54165 0.81152 0.0
C1242 C 0.17343 0.56138 0.80827 0.0
C1243 C 0.1847 0.57581 0.7714 0.0
C1244 C 0.20275 0.57076 0.73747 0.0
C1245 C 0.20965 0.55129 0.74098 0.0
C1246 C 0.19847 0.53681 0.77797 0.0
C1247 C 0.07781 0.50754 0.85266 0.0
C1248 C 0.07227 0.51143 0.77656 0.0
C1249 C 0.09784 0.50717 0.87463 0.0
C1250 C 0.11306 0.51028 0.82099 0.0
C1251 C 0.10752 0.51438 0.74505 0.0
C1252 C 0.08745 0.51499 0.72313 0.0
C1253 C 0.1346 0.50969 0.84442 0.0
C1254 C 0.14723 0.52513 0.82193 0.0
C1255 C 0.14272 0.49426 0.8898 0.0
C1256 C 0.13106 0.47645 0.90989 0.0
C1257 C 0.12211 0.46501 0.85248 0.0
C1258 C 0.111 0.44832 0.87165 0.0
C1259 C 0.10886 0.44283 0.94807 0.0
C1260 C 0.11785 0.45399 0.00546 0.0
C1261 C 0.12896 0.47071 0.98659 0.0
H1262 H 0.10025 0.42991 0.9628 0.0
H1263 H 0.21138 0.58192 0.70841 0.0
H1264 H 0.04547 0.79727 0.39617 0.0
H1265 H 0.04326 0.82815 0.46864 0.0
H1266 H 0.9799 0.82889 0.43673 0.0
H1267 H 0.98212 0.79782 0.36391 0.0
H1268 H 0.99757 0.86406 0.39398 0.0
H1269 H 1.0002 0.82143 0.61676 0.0
H1270 H 0.01466 0.79501 0.69677 0.0
H1271 H 0.06953 0.82683 0.70916 0.0
H1272 H 0.05553 0.85318 0.62757 0.0
H1273 H 0.98213 0.95319 0.59392 0.0
H1274 H 0.98091 0.91888 0.55046 0.0
H1275 H 0.04053 0.90957 0.63251 0.0
H1276 H 0.041 0.94348 0.68229 0.0
H1277 H 0.02396 0.87764 0.65284 0.0
H1278 H 0.02566 0.91799 0.42991 0.0
H1279 H 0.0155 0.94451 0.34132 0.0
H1280 H 0.95843 0.91745 0.31491 0.0
H1281 H 0.96818 0.89088 0.40407 0.0
C1282 C 0.03099 0.80372 0.40645 0.0
C1283 C 1.01394 0.79496 0.37481 0.0
C1284 C 0.02973 0.82143 0.44795 0.0
C1285 C 1.0114 0.83097 0.45872 0.0
C1286 C 0.99423 0.82186 0.42958 0.0
C1287 C 0.99547 0.80397 0.38861 0.0
C1288 C 1.01045 0.85114 0.4946 0.0
C1289 C 1.00295 0.86696 0.45124 0.0
C1290 C 0.01839 0.85524 0.56781 0.0
C1291 C 0.02681 0.8393 0.61631 0.0
C1292 C 0.0154 0.82271 0.63607 0.0
C1293 C 0.02352 0.80773 0.68156 0.0
C1294 C 0.04301 0.80923 0.708 0.0
C1295 C 0.05445 0.82567 0.68864 0.0
C1296 C 0.04641 0.84064 0.64288 0.0
C1297 C 0.99495 0.94379 0.60301 0.0
C1298 C 1.01172 0.95116 0.64097 0.0
C1299 C 0.99434 0.92411 0.57741 0.0
C1300 C 1.01087 0.91144 0.58559 0.0
C1301 C 0.02752 0.91878 0.62501 0.0
C1302 C 0.02784 0.93828 0.65317 0.0
C1303 C 1.01087 0.89078 0.55237 0.0
C1304 C 0.01833 0.87485 0.59589 0.0
C1305 C 1.00351 0.88663 0.47798 0.0
C1306 C 0.99758 0.90257 0.42429 0.0
C1307 C 1.0109 0.91777 0.40558 0.0
C1308 C 1.00522 0.9328 0.35522 0.0
C1309 C 0.98631 0.93269 0.32268 0.0
C1310 C 0.97306 0.91752 0.34026 0.0
C1311 C 0.97866 0.90247 0.39065 0.0
H1312 H 0.98194 0.94434 0.28372 0.0
H1313 H 0.04923 0.79771 0.74371 0.0
H1314 H 0.7197 0.02839 0.30943 0.0
H1315 H 0.68786 0.02983 0.37306 0.0
H1316 H 0.71142 0.99532 0.55956 0.0
H1317 H 0.74337 0.99274 0.49226 0.0
H1318 H 0.67683 0.98273 0.53897 0.0
H1319 H 0.69857 0.04831 0.57018 0.0
H1320 H 0.71261 0.08077 0.53644 0.0
H1321 H 0.66458 0.09112 0.38044 0.0
H1322 H 0.65036 0.0586 0.41254 0.0
H1323 H 0.58662 1.00861 0.75114 0.0
H1324 H 0.62154 1.00778 0.71073 0.0
H1325 H 0.6037 0.01946 0.47906 0.0
H1326 H 0.56886 0.01993 0.51847 0.0
H1327 H 0.63643 0.04416 0.53964 0.0
H1328 H 0.61602 0.97505 0.52191 0.0
H1329 H 0.60301 0.94425 0.57777 0.0
H1330 H 0.65101 0.94309 0.7387 0.0
H1331 H 0.66409 0.9741 0.68469 0.0
C1332 C 0.71828 0.02125 0.36451 0.0
C1333 C 0.7343 1.01041 0.39534 0.0
C1334 C 0.69992 0.02226 0.4016 0.0
C1335 C 0.69689 1.01306 0.47263 0.0
C1336 C 0.71309 1.00272 0.50518 0.0
C1337 C 0.73156 1.00145 0.46714 0.0
C1338 C 0.67663 0.01375 0.51008 0.0
C1339 C 0.66822 0.9963 0.53983 0.0
C1340 C 0.66503 0.03136 0.51295 0.0
C1341 C 0.67349 0.05094 0.49332 0.0
C1342 C 0.69107 0.05745 0.52829 0.0
C1343 C 0.69905 0.07587 0.50952 0.0
C1344 C 0.68952 0.08798 0.4562 0.0
C1345 C 0.67195 0.08171 0.42169 0.0
C1346 C 0.66391 0.0633 0.44023 0.0
C1347 C 0.59008 1.01089 0.69149 0.0
C1348 C 0.57474 0.01422 0.63814 0.0
C1349 C 0.61011 1.01038 0.66845 0.0
C1350 C 0.61538 0.01346 0.59164 0.0
C1351 C 0.60012 0.01701 0.53858 0.0
C1352 C 0.58012 0.01719 0.56128 0.0
C1353 C 0.63667 1.01315 0.56604 0.0
C1354 C 0.6452 0.03068 0.53869 0.0
C1355 C 0.64861 0.99586 0.56851 0.0
C1356 C 0.6409 0.97704 0.59986 0.0
C1357 C 0.6237 0.96834 0.56966 0.0
C1358 C 0.61632 0.95082 0.60094 0.0
C1359 C 0.62613 0.94176 0.66195 0.0
C1360 C 0.6434 0.95014 0.69154 0.0
C1361 C 0.6508 0.96769 0.66063 0.0
H1362 H 0.62039 0.92821 0.68613 0.0
H1363 H 0.69572 0.10223 0.44173 0.0
H1364 H 0.54523 0.73615 0.37296 0.0
H1365 H 0.54833 0.70311 0.43137 0.0
H1366 H 0.48481 0.6997 0.4511 0.0
H1367 H 0.48164 0.73269 0.39562 0.0
H1368 H 0.53144 0.68405 0.5772 0.0
H1369 H 0.47353 0.65405 0.36931 0.0
H1370 H 0.45946 0.66233 0.24319 0.0
H1371 H 0.51483 0.68796 0.17523 0.0
H1372 H 0.52931 0.6796 0.30058 0.0
H1373 H 0.50011 0.58845 0.6971 0.0
H1374 H 0.50052 0.62254 0.6509 0.0
H1375 H 0.53285 0.60405 0.45101 0.0
H1376 H 0.53208 0.56975 0.49606 0.0
H1377 H 0.50483 0.63074 0.41179 0.0
H1378 H 0.55829 0.63037 0.60249 0.0
H1379 H 0.5699 0.62104 0.73135 0.0
H1380 H 0.52237 0.6545 0.83122 0.0
H1381 H 0.51104 0.6647 0.70336 0.0
C1382 C 0.53197 0.72866 0.3921 0.0
C1383 C 0.51317 0.73713 0.37868 0.0
C1384 C 0.53375 0.70967 0.4251 0.0
C1385 C 0.51677 0.69871 0.44474 0.0
C1386 C 0.49813 0.70768 0.43584 0.0
C1387 C 0.49636 0.72662 0.40392 0.0
C1388 C 0.51814 0.6774 0.46849 0.0
C1389 C 0.52576 0.67243 0.54069 0.0
C1390 C 0.51067 0.66205 0.42146 0.0
C1391 C 0.50243 0.66635 0.34463 0.0
C1392 C 0.48274 0.66132 0.32727 0.0
C1393 C 0.47469 0.66607 0.25598 0.0
C1394 C 0.48621 0.67577 0.20142 0.0
C1395 C 0.50589 0.68055 0.21772 0.0
C1396 C 0.51402 0.67582 0.28891 0.0
C1397 C 0.50742 0.59156 0.64347 0.0
C1398 C 0.51622 0.57617 0.60092 0.0
C1399 C 0.50771 0.61121 0.61707 0.0
C1400 C 0.51705 0.61617 0.5478 0.0
C1401 C 0.52559 0.60079 0.50466 0.0
C1402 C 0.52519 0.5811 0.53079 0.0
C1403 C 0.51804 0.63733 0.52077 0.0
C1404 C 0.51075 0.64231 0.44797 0.0
C1405 C 0.52582 0.65268 0.56708 0.0
C1406 C 0.5339 0.64835 0.64371 0.0
C1407 C 0.55057 0.63602 0.65218 0.0
C1408 C 0.55713 0.63063 0.72502 0.0
C1409 C 0.54701 0.63737 0.78963 0.0
C1410 C 0.53047 0.64967 0.78144 0.0
C1411 C 0.52407 0.6554 0.70887 0.0
H1412 H 0.5519 0.63296 0.84598 0.0
H1413 H 0.47988 0.67959 0.14658 0.0
H1414 H 0.79523 0.55885 0.40515 0.0
H1415 H 0.82761 0.55524 0.46622 0.0
H1416 H 0.82148 0.49178 0.46007 0.0
H1417 H 0.78898 0.49551 0.39769 0.0
H1418 H 0.84344 0.54212 0.58723 0.0
H1419 H 0.86642 0.47029 0.42517 0.0
H1420 H 0.8599 0.45427 0.30105 0.0
H1421 H 0.84428 0.51046 0.20351 0.0
H1422 H 0.85074 0.5268 0.32687 0.0
H1423 H 0.93717 0.51074 0.74379 0.0
H1424 H 0.90249 0.51259 0.70073 0.0
H1425 H 0.92228 0.52257 0.47018 0.0
H1426 H 0.95667 0.52049 0.51224 0.0
H1427 H 0.89316 0.49895 0.46166 0.0
H1428 H 0.9046 0.55858 0.5882 0.0
H1429 H 0.91171 0.58421 0.68385 0.0
H1430 H 0.86118 0.56612 0.81474 0.0
H1431 H 0.85449 0.53946 0.7227 0.0
C1432 C 0.80049 0.54413 0.41908 0.0
C1433 C 0.7893 0.52749 0.39765 0.0
C1434 C 0.81916 0.54204 0.45366 0.0
C1435 C 0.8274 0.52322 0.46723 0.0
C1436 C 0.81577 0.50652 0.44947 0.0
C1437 C 0.79697 0.50863 0.41493 0.0
C1438 C 0.84838 0.52129 0.4967 0.0
C1439 C 0.85425 0.53242 0.56063 0.0
C1440 C 0.86293 0.5095 0.45972 0.0
C1441 C 0.85882 0.4997 0.38561 0.0
C1442 C 0.86157 0.4792 0.37727 0.0
C1443 C 0.85786 0.47007 0.30705 0.0
C1444 C 0.85156 0.48133 0.24458 0.0
C1445 C 0.84899 0.50174 0.25211 0.0
C1446 C 0.85263 0.51093 0.32221 0.0
C1447 C 0.93416 0.51332 0.6839 0.0
C1448 C 0.94994 0.51549 0.63179 0.0
C1449 C 0.91423 0.51448 0.65928 0.0
C1450 C 0.90947 0.51788 0.58191 0.0
C1451 C 0.92526 0.51985 0.53003 0.0
C1452 C 0.94509 0.51874 0.55447 0.0
C1453 C 0.88823 0.51936 0.5544 0.0
C1454 C 0.88232 0.50825 0.49013 0.0
C1455 C 0.87393 0.53208 0.58873 0.0
C1456 C 0.87924 0.54667 0.64885 0.0
C1457 C 0.89534 0.55959 0.63853 0.0
C1458 C 0.89928 0.57438 0.69212 0.0
C1459 C 0.88693 0.57677 0.75542 0.0
C1460 C 0.87077 0.56422 0.76577 0.0
C1461 C 0.86704 0.5491 0.71335 0.0
H1462 H 0.88989 0.58836 0.79647 0.0
H1463 H 0.84874 0.47424 0.19028 0.0
loop_
_geom_bond_atom_site_label_1
_geom_bond_atom_site_label_2
_geom_bond_distance
_geom_bond_site_symmetry_2
_ccdc_geom_bond_type
H0 C7 0.929 . S
H1 C10 0.930 . S
H2 C12 0.929 . S
H3 C4 0.969 . S
C4 H3 0.969 . S
C4 O5 1.550 . S
C4 H6 0.973 . S
O5 C4 1.550 . S
O5 C11 1.412 . S
H6 C4 0.973 . S
C7 H0 0.929 . S
C7 C8 1.400 . S
C7 C9 1.364 . S
C8 C7 1.400 . S
C8 C12 1.377 . S
C9 C7 1.364 . S
C9 C10 1.374 . S
C10 H1 0.930 . S
C10 C9 1.374 . S
C10 C11 1.383 . S
C11 O5 1.412 . S
C11 C10 1.383 . S
C11 C12 1.394 . S
C12 H2 0.929 . S
C12 C8 1.377 . S
C12 C11 1.394 . S
H13 C20 0.928 . S
H14 C23 0.930 . S
H15 C25 0.928 1_655 S
H16 C17 0.969 . S
C17 H16 0.969 . S
C17 O18 1.550 1_455 S
C17 H19 0.973 1_455 S
O18 C17 1.550 1_655 S
O18 C24 1.406 1_655 S
H19 C17 0.973 1_655 S
C20 H13 0.928 . S
C20 C21 1.400 1_655 S
C20 C22 1.364 1_655 S
C21 C20 1.400 1_455 S
C21 C25 1.377 . S
C22 C20 1.364 1_455 S
C22 C23 1.374 1_455 S
C23 H14 0.930 . S
C23 C22 1.374 1_655 S
C23 C24 1.382 1_655 S
C24 O18 1.406 1_455 S
C24 C23 1.382 1_455 S
C24 C25 1.394 . S
C25 H15 0.928 1_455 S
C25 C21 1.377 . S
C25 C24 1.394 . S
H26 C33 0.928 . S
H27 C36 0.930 . S
H28 C38 0.928 1_565 S
H29 C30 0.969 . S
C30 H29 0.969 . S
C30 O31 1.550 1_545 S
C30 H32 0.973 1_545 S
O31 C30 1.550 1_565 S
O31 C37 1.406 1_565 S
H32 C30 0.973 1_565 S
C33 H26 0.928 . S
C33 C34 1.400 1_565 S
C33 C35 1.364 1_565 S
C34 C33 1.400 1_545 S
C34 C38 1.377 . S
C35 C33 1.364 1_545 S
C35 C36 1.374 1_545 S
C36 H27 0.930 . S
C36 C35 1.374 1_565 S
C36 C37 1.382 1_565 S
C37 O31 1.406 1_545 S
C37 C36 1.382 1_545 S
C37 C38 1.394 . S
C38 H28 0.928 1_545 S
C38 C34 1.377 . S
C38 C37 1.394 . S
H39 C46 0.929 . S
H40 C49 0.930 . S
H41 C51 0.929 . S
H42 C43 0.969 . S
C43 H42 0.969 . S
C43 O44 1.550 . S
C43 H45 0.973 . S
O44 C43 1.550 . S
O44 C50 1.412 . S
H45 C43 0.973 . S
C46 H39 0.929 . S
C46 C47 1.400 . S
C46 C48 1.364 . S
C47 C46 1.400 . S
C47 C51 1.377 . S
C48 C46 1.364 . S
C48 C49 1.374 . S
C49 H40 0.930 . S
C49 C48 1.374 . S
C49 C50 1.383 . S
C50 O44 1.412 . S
C50 C49 1.383 . S
C50 C51 1.394 . S
C51 H41 0.929 . S
C51 C47 1.377 . S
C51 C50 1.394 . S
H52 C59 0.929 . S
H53 C62 0.930 . S
H54 C64 0.929 . S
H55 C56 0.969 . S
C56 H55 0.969 . S
C56 O57 1.550 . S
C56 H58 0.973 . S
O57 C56 1.550 . S
O57 C63 1.412 . S
H58 C56 0.973 . S
C59 H52 0.929 . S
C59 C60 1.400 1_554 S
C59 C61 1.364 . S
C60 C59 1.400 1_556 S
C60 C64 1.377 . S
C61 C59 1.364 . S
C61 C62 1.374 . S
C62 H53 0.930 . S
C62 C61 1.374 . S
C62 C63 1.383 . S
C63 O57 1.412 . S
C63 C62 1.383 . S
C63 C64 1.394 1_554 S
C64 H54 0.929 . S
C64 C60 1.377 . S
C64 C63 1.394 1_556 S
H65 C72 0.929 1_655 S
H66 C75 0.930 . S
H67 C77 0.928 1_655 S
H68 C69 0.969 . S
C69 H68 0.969 . S
C69 O70 1.550 1_455 S
C69 H71 0.973 1_455 S
O70 C69 1.550 1_655 S
O70 C76 1.402 1_655 S
H71 C69 0.973 1_655 S
C72 H65 0.929 1_455 S
C72 C73 1.400 1_554 S
C72 C74 1.364 . S
C73 C72 1.400 1_556 S
C73 C77 1.377 . S
C74 C72 1.364 . S
C74 C75 1.374 1_455 S
C75 H66 0.930 . S
C75 C74 1.374 1_655 S
C75 C76 1.382 1_655 S
C76 O70 1.402 1_455 S
C76 C75 1.382 1_455 S
C76 C77 1.394 1_554 S
C77 H67 0.928 1_455 S
C77 C73 1.377 . S
C77 C76 1.394 1_556 S
H78 C85 0.929 1_565 S
H79 C88 0.930 . S
H80 C90 0.928 1_565 S
H81 C82 0.969 . S
C82 H81 0.969 . S
C82 O83 1.550 1_545 S
C82 H84 0.973 1_545 S
O83 C82 1.550 1_565 S
O83 C89 1.402 1_565 S
H84 C82 0.973 1_565 S
C85 H78 0.929 1_545 S
C85 C86 1.400 1_554 S
C85 C87 1.364 . S
C86 C85 1.400 1_556 S
C86 C90 1.377 . S
C87 C85 1.364 . S
C87 C88 1.374 1_545 S
C88 H79 0.930 . S
C88 C87 1.374 1_565 S
C88 C89 1.382 1_565 S
C89 O83 1.402 1_545 S
C89 C88 1.382 1_545 S
C89 C90 1.394 1_554 S
C90 H80 0.928 1_545 S
C90 C86 1.377 . S
C90 C89 1.394 1_556 S
H91 C98 0.929 . S
H92 C101 0.930 . S
H93 C103 0.929 . S
H94 C95 0.969 . S
C95 H94 0.969 . S
C95 O96 1.550 . S
C95 H97 0.973 . S
O96 C95 1.550 . S
O96 C102 1.412 . S
H97 C95 0.973 . S
C98 H91 0.929 . S
C98 C99 1.400 1_554 S
C98 C100 1.364 . S
C99 C98 1.400 1_556 S
C99 C103 1.377 . S
C100 C98 1.364 . S
C100 C101 1.374 . S
C101 H92 0.930 . S
C101 C100 1.374 . S
C101 C102 1.383 . S
C102 O96 1.412 . S
C102 C101 1.383 . S
C102 C103 1.394 1_554 S
C103 H93 0.929 . S
C103 C99 1.377 . S
C103 C102 1.394 1_556 S
Tb104 C106 2.809 . S
Tb104 O124 2.479 1_455 S
Tb104 O125 2.440 . S
Tb104 O126 2.658 1_565 S
Tb104 O127 2.409 . S
Tb104 O128 2.378 . S
Tb104 O132 2.325 1_455 S
Tb104 O135 2.341 1_565 S
Tb105 C115 2.809 . S
Tb105 O126 2.325 1_655 S
Tb105 O129 2.341 1_545 S
Tb105 O130 2.474 1_655 S
Tb105 O131 2.440 . S
Tb105 O132 2.658 1_545 S
Tb105 O133 2.409 . S
Tb105 O134 2.378 . S
C106 Tb104 2.809 . S
C106 C107 1.514 . S
C106 O124 1.237 1_455 S
C106 O125 1.266 . S
C107 C106 1.514 . S
C107 C108 1.359 . S
C107 C112 1.348 . S
C108 C107 1.359 . S
C108 C109 1.380 . S
C108 H136 0.929 1_455 S
C109 C108 1.380 . S
C109 C110 1.347 . S
C109 H137 0.931 1_455 S
C110 C109 1.347 . S
C110 C111 1.369 . S
C111 C110 1.369 . S
C111 C112 1.408 . S
C111 H138 0.930 . S
C112 C107 1.348 . S
C112 C111 1.408 . S
C112 H139 0.930 . S
C113 O126 1.263 1_565 S
C113 O127 1.280 . S
C114 O128 1.236 1_655 S
C114 O129 1.266 . S
C115 Tb105 2.809 . S
C115 C116 1.514 . S
C115 O130 1.224 1_655 S
C115 O131 1.266 . S
C116 C115 1.514 . S
C116 C117 1.359 . S
C116 C121 1.348 . S
C117 C116 1.359 . S
C117 C118 1.380 . S
C117 H140 0.929 1_655 S
C118 C117 1.380 . S
C118 C119 1.347 . S
C118 H141 0.931 1_655 S
C119 C118 1.347 . S
C119 C120 1.369 . S
C120 C119 1.369 . S
C120 C121 1.408 . S
C120 H142 0.930 . S
C121 C116 1.348 . S
C121 C120 1.408 . S
C121 H143 0.930 . S
C122 O132 1.281 1_545 S
C122 O133 1.254 . S
C123 O134 1.236 1_455 S
C123 O135 1.266 . S
O124 Tb104 2.479 1_655 S
O124 C106 1.237 1_655 S
O125 Tb104 2.440 . S
O125 C106 1.266 . S
O126 Tb104 2.658 1_545 S
O126 Tb105 2.325 1_455 S
O126 C113 1.263 1_545 S
O127 Tb104 2.409 . S
O127 C113 1.280 . S
O128 Tb104 2.378 . S
O128 C114 1.236 1_455 S
O129 Tb105 2.341 1_565 S
O129 C114 1.266 . S
O130 Tb105 2.474 1_455 S
O130 C115 1.224 1_455 S
O131 Tb105 2.440 . S
O131 C115 1.266 . S
O132 Tb104 2.325 1_655 S
O132 Tb105 2.658 1_565 S
O132 C122 1.281 1_565 S
O133 Tb105 2.409 . S
O133 C122 1.254 . S
O134 Tb105 2.378 . S
O134 C123 1.236 1_655 S
O135 Tb104 2.341 1_545 S
O135 C123 1.266 . S
H136 C108 0.929 1_655 S
H137 C109 0.931 1_655 S
H138 C111 0.930 . S
H139 C112 0.930 . S
H140 C117 0.929 1_455 S
H141 C118 0.931 1_455 S
H142 C120 0.930 . S
H143 C121 0.930 . S
Tb144 C146 2.809 . S
Tb144 O164 2.476 1_545 S
Tb144 O165 2.440 . S
Tb144 O166 2.658 . S
Tb144 O167 2.409 . S
Tb144 O168 2.378 . S
Tb144 O172 2.325 1_545 S
Tb144 O175 2.341 . S
Tb145 C155 2.809 . S
Tb145 O166 2.325 1_565 S
Tb145 O169 2.341 . S
Tb145 O170 2.471 1_565 S
Tb145 O171 2.440 . S
Tb145 O172 2.658 . S
Tb145 O173 2.409 . S
Tb145 O174 2.378 . S
C146 Tb144 2.809 . S
C146 C147 1.514 . S
C146 O164 1.229 1_545 S
C146 O165 1.266 . S
C147 C146 1.514 . S
C147 C148 1.359 . S
C147 C152 1.348 . S
C148 C147 1.359 . S
C148 C149 1.380 . S
C148 H176 0.929 1_545 S
C149 C148 1.380 . S
C149 C150 1.347 . S
C149 H177 0.931 1_545 S
C150 C149 1.347 . S
C150 C151 1.369 . S
C151 C150 1.369 . S
C151 C152 1.408 . S
C151 H178 0.930 . S
C152 C147 1.348 . S
C152 C151 1.408 . S
C152 H179 0.930 . S
C153 O166 1.281 . S
C153 O167 1.254 . S
C154 O168 1.236 1_565 S
C154 O169 1.266 . S
C155 Tb145 2.809 . S
C155 C156 1.514 . S
C155 O170 1.217 1_565 S
C155 O171 1.266 . S
C156 C155 1.514 . S
C156 C157 1.359 . S
C156 C161 1.348 . S
C157 C156 1.359 . S
C157 C158 1.380 . S
C157 H180 0.929 1_565 S
C158 C157 1.380 . S
C158 C159 1.347 . S
C158 H181 0.931 1_565 S
C159 C158 1.347 . S
C159 C160 1.369 . S
C160 C159 1.369 . S
C160 C161 1.408 . S
C160 H182 0.930 . S
C161 C156 1.348 . S
C161 C160 1.408 . S
C161 H183 0.930 . S
C162 O172 1.281 . S
C162 O173 1.254 . S
C163 O174 1.236 1_545 S
C163 O175 1.266 . S
O164 Tb144 2.476 1_565 S
O164 C146 1.229 1_565 S
O165 Tb144 2.440 . S
O165 C146 1.266 . S
O166 Tb144 2.658 . S
O166 Tb145 2.325 1_545 S
O166 C153 1.281 . S
O167 Tb144 2.409 . S
O167 C153 1.254 . S
O168 Tb144 2.378 . S
O168 C154 1.236 1_545 S
O169 Tb145 2.341 . S
O169 C154 1.266 . S
O170 Tb145 2.471 1_545 S
O170 C155 1.217 1_545 S
O171 Tb145 2.440 . S
O171 C155 1.266 . S
O172 Tb144 2.325 1_565 S
O172 Tb145 2.658 . S
O172 C162 1.281 . S
O173 Tb145 2.409 . S
O173 C162 1.254 . S
O174 Tb145 2.378 . S
O174 C163 1.236 1_565 S
O175 Tb144 2.341 . S
O175 C163 1.266 . S
H176 C148 0.929 1_565 S
H177 C149 0.931 1_565 S
H178 C151 0.930 . S
H179 C152 0.930 . S
H180 C157 0.929 1_545 S
H181 C158 0.931 1_545 S
H182 C160 0.930 . S
H183 C161 0.930 . S
Tb184 C186 2.809 . S
Tb184 O204 2.484 . S
Tb184 O205 2.440 . S
Tb184 O206 2.658 . S
Tb184 O207 2.409 . S
Tb184 O208 2.378 . S
Tb184 O212 2.325 . S
Tb184 O215 2.341 . S
Tb185 C195 2.809 . S
Tb185 O206 2.325 . S
Tb185 O209 2.341 . S
Tb185 O210 2.484 . S
Tb185 O211 2.440 . S
Tb185 O212 2.658 . S
Tb185 O213 2.409 . S
Tb185 O214 2.378 . S
C186 Tb184 2.809 . S
C186 C187 1.514 . S
C186 O204 1.248 . S
C186 O205 1.266 . S
C187 C186 1.514 . S
C187 C188 1.359 . S
C187 C192 1.348 . S
C188 C187 1.359 . S
C188 C189 1.380 . S
C188 H216 0.929 . S
C189 C188 1.380 . S
C189 C190 1.347 . S
C189 H217 0.931 . S
C190 C189 1.347 . S
C190 C191 1.369 . S
C191 C190 1.369 . S
C191 C192 1.408 . S
C191 H218 0.930 . S
C192 C187 1.348 . S
C192 C191 1.408 . S
C192 H219 0.930 . S
C193 O206 1.281 . S
C193 O207 1.254 . S
C194 O208 1.236 . S
C194 O209 1.266 . S
C195 Tb185 2.809 . S
C195 C196 1.514 . S
C195 O210 1.248 . S
C195 O211 1.266 . S
C196 C195 1.514 . S
C196 C197 1.359 . S
C196 C201 1.348 . S
C197 C196 1.359 . S
C197 C198 1.380 . S
C197 H220 0.929 . S
C198 C197 1.380 . S
C198 C199 1.347 . S
C198 H221 0.931 . S
C199 C198 1.347 . S
C199 C200 1.369 . S
C200 C199 1.369 . S
C200 C201 1.408 . S
C200 H222 0.930 . S
C201 C196 1.348 . S
C201 C200 1.408 . S
C201 H223 0.930 . S
C202 O212 1.281 . S
C202 O213 1.254 . S
C203 O214 1.236 . S
C203 O215 1.266 . S
O204 Tb184 2.484 . S
O204 C186 1.248 . S
O205 Tb184 2.440 . S
O205 C186 1.266 . S
O206 Tb184 2.658 . S
O206 Tb185 2.325 . S
O206 C193 1.281 . S
O207 Tb184 2.409 . S
O207 C193 1.254 . S
O208 Tb184 2.378 . S
O208 C194 1.236 . S
O209 Tb185 2.341 . S
O209 C194 1.266 . S
O210 Tb185 2.484 . S
O210 C195 1.248 . S
O211 Tb185 2.440 . S
O211 C195 1.266 . S
O212 Tb184 2.325 . S
O212 Tb185 2.658 . S
O212 C202 1.281 . S
O213 Tb185 2.409 . S
O213 C202 1.254 . S
O214 Tb185 2.378 . S
O214 C203 1.236 . S
O215 Tb184 2.341 . S
O215 C203 1.266 . S
H216 C188 0.929 . S
H217 C189 0.931 . S
H218 C191 0.930 . S
H219 C192 0.930 . S
H220 C197 0.929 . S
H221 C198 0.931 . S
H222 C200 0.930 . S
H223 C201 0.930 . S
Tb224 C226 2.809 . S
Tb224 O244 2.484 . S
Tb224 O245 2.440 . S
Tb224 O246 2.658 1_655 S
Tb224 O247 2.409 . S
Tb224 O248 2.378 . S
Tb224 O252 2.325 . S
Tb224 O255 2.341 1_655 S
Tb225 C235 2.809 . S
Tb225 O246 2.325 . S
Tb225 O249 2.341 1_455 S
Tb225 O250 2.484 . S
Tb225 O251 2.440 . S
Tb225 O252 2.658 1_455 S
Tb225 O253 2.409 . S
Tb225 O254 2.378 . S
C226 Tb224 2.809 . S
C226 C227 1.514 . S
C226 O244 1.248 . S
C226 O245 1.266 . S
C227 C226 1.514 . S
C227 C228 1.359 . S
C227 C232 1.348 . S
C228 C227 1.359 . S
C228 C229 1.380 . S
C228 H256 0.929 . S
C229 C228 1.380 . S
C229 C230 1.347 . S
C229 H257 0.931 . S
C230 C229 1.347 . S
C230 C231 1.369 . S
C231 C230 1.369 . S
C231 C232 1.408 . S
C231 H258 0.930 . S
C232 C227 1.348 . S
C232 C231 1.408 . S
C232 H259 0.930 . S
C233 O246 1.269 1_655 S
C233 O247 1.271 . S
C234 O248 1.236 . S
C234 O249 1.266 . S
C235 Tb225 2.809 . S
C235 C236 1.514 . S
C235 O250 1.248 . S
C235 O251 1.266 . S
C236 C235 1.514 . S
C236 C237 1.359 . S
C236 C241 1.348 . S
C237 C236 1.359 . S
C237 C238 1.380 . S
C237 H260 0.929 . S
C238 C237 1.380 . S
C238 C239 1.347 . S
C238 H261 0.931 . S
C239 C238 1.347 . S
C239 C240 1.369 . S
C240 C239 1.369 . S
C240 C241 1.408 . S
C240 H262 0.930 . S
C241 C236 1.348 . S
C241 C240 1.408 . S
C241 H263 0.930 . S
C242 O252 1.265 1_455 S
C242 O253 1.277 . S
C243 O254 1.236 . S
C243 O255 1.266 . S
O244 Tb224 2.484 . S
O244 C226 1.248 . S
O245 Tb224 2.440 . S
O245 C226 1.266 . S
O246 Tb224 2.658 1_455 S
O246 Tb225 2.325 . S
O246 C233 1.269 1_455 S
O247 Tb224 2.409 . S
O247 C233 1.271 . S
O248 Tb224 2.378 . S
O248 C234 1.236 . S
O249 Tb225 2.341 1_655 S
O249 C234 1.266 . S
O250 Tb225 2.484 . S
O250 C235 1.248 . S
O251 Tb225 2.440 . S
O251 C235 1.266 . S
O252 Tb224 2.325 . S
O252 Tb225 2.658 1_655 S
O252 C242 1.265 1_655 S
O253 Tb225 2.409 . S
O253 C242 1.277 . S
O254 Tb225 2.378 . S
O254 C243 1.236 . S
O255 Tb224 2.341 1_455 S
O255 C243 1.266 . S
H256 C228 0.929 . S
H257 C229 0.931 . S
H258 C231 0.930 . S
H259 C232 0.930 . S
H260 C237 0.929 . S
H261 C238 0.931 . S
H262 C240 0.930 . S
H263 C241 0.930 . S
H264 C282 0.951 . S
H265 C284 0.951 . S
H266 C286 0.950 . S
H267 C287 0.950 . S
H268 C289 0.950 . S
H269 C292 0.950 . S
H270 C293 0.950 . S
H271 C295 0.950 . S
H272 C296 0.950 . S
H273 C297 0.951 . S
H274 C299 0.951 . S
H275 C301 0.950 . S
H276 C302 0.950 . S
H277 C304 0.950 . S
H278 C307 0.950 . S
H279 C308 0.950 . S
H280 C310 0.950 . S
H281 C311 0.950 . S
C282 H264 0.951 . S
C282 C283 1.365 1_565 S
C282 C284 1.388 . S
C283 C282 1.365 1_545 S
C283 C287 1.386 . S
C284 H265 0.951 . S
C284 C282 1.388 . S
C284 C285 1.328 1_565 S
C285 C284 1.328 1_545 S
C285 C286 1.451 . S
C285 C288 1.501 . S
C286 H266 0.950 . S
C286 C285 1.451 . S
C286 C287 1.374 . S
C287 H267 0.950 . S
C287 C283 1.386 . S
C287 C286 1.374 . S
C288 C285 1.501 . S
C288 C289 1.373 . S
C288 C290 1.388 1_545 S
C289 H268 0.950 . S
C289 C288 1.373 . S
C289 C305 1.381 . S
C290 C288 1.388 1_565 S
C290 C291 1.524 1_565 S
C290 C304 1.377 . S
C291 C290 1.524 1_545 S
C291 C292 1.416 . S
C291 C296 1.346 1_545 S
C292 H269 0.950 . S
C292 C291 1.416 . S
C292 C293 1.334 . S
C293 H270 0.950 . S
C293 C292 1.334 . S
C293 C294 1.287 . S
C294 C293 1.287 . S
C294 C295 1.524 1_545 S
C294 H313 0.913 . S
C295 H271 0.950 . S
C295 C294 1.524 1_565 S
C295 C296 1.415 . S
C296 H272 0.950 . S
C296 C291 1.346 1_565 S
C296 C295 1.415 . S
C297 H273 0.951 . S
C297 C298 1.384 . S
C297 C299 1.388 . S
C298 C297 1.384 . S
C298 C302 1.365 1_545 S
C299 H274 0.951 . S
C299 C297 1.388 . S
C299 C300 1.358 1_545 S
C300 C299 1.358 1_565 S
C300 C301 1.422 . S
C300 C303 1.498 . S
C301 H275 0.950 . S
C301 C300 1.422 . S
C301 C302 1.374 . S
C302 H276 0.950 . S
C302 C298 1.365 1_565 S
C302 C301 1.374 . S
C303 C300 1.498 . S
C303 C304 1.376 . S
C303 C305 1.384 1_565 S
C304 H277 0.950 . S
C304 C290 1.377 . S
C304 C303 1.376 . S
C305 C289 1.381 . S
C305 C303 1.384 1_545 S
C305 C306 1.524 . S
C306 C305 1.524 . S
C306 C307 1.394 1_545 S
C306 C311 1.365 . S
C307 H278 0.950 . S
C307 C306 1.394 1_565 S
C307 C308 1.334 . S
C308 H279 0.950 . S
C308 C307 1.334 . S
C308 C309 1.287 . S
C309 C308 1.287 . S
C309 C310 1.524 1_565 S
C309 H312 0.999 . S
C310 H280 0.950 . S
C310 C309 1.524 1_545 S
C310 C311 1.415 . S
C311 H281 0.950 . S
C311 C306 1.365 . S
C311 C310 1.415 . S
H312 C309 0.999 . S
H313 C294 0.913 . S
H314 C332 0.951 . S
H315 C334 0.951 . S
H316 C336 0.950 . S
H317 C337 0.950 . S
H318 C339 0.950 . S
H319 C342 0.950 . S
H320 C343 0.950 . S
H321 C345 0.950 . S
H322 C346 0.950 . S
H323 C347 0.951 . S
H324 C349 0.951 . S
H325 C351 0.950 . S
H326 C352 0.950 . S
H327 C354 0.950 . S
H328 C357 0.950 . S
H329 C358 0.950 . S
H330 C360 0.950 . S
H331 C361 0.950 . S
C332 H314 0.951 . S
C332 C333 1.366 . S
C332 C334 1.388 . S
C333 C332 1.366 . S
C333 C337 1.385 . S
C334 H315 0.951 . S
C334 C332 1.388 . S
C334 C335 1.366 . S
C335 C334 1.366 . S
C335 C336 1.414 . S
C335 C338 1.499 . S
C336 H316 0.950 . S
C336 C335 1.414 . S
C336 C337 1.374 . S
C337 H317 0.950 . S
C337 C333 1.385 . S
C337 C336 1.374 . S
C338 C335 1.499 . S
C338 C339 1.373 . S
C338 C340 1.389 . S
C339 H318 0.950 . S
C339 C338 1.373 . S
C339 C355 1.377 . S
C340 C338 1.389 . S
C340 C341 1.524 . S
C340 C354 1.377 . S
C341 C340 1.524 . S
C341 C342 1.397 . S
C341 C346 1.363 . S
C342 H319 0.950 . S
C342 C341 1.397 . S
C342 C343 1.334 . S
C343 H320 0.950 . S
C343 C342 1.334 . S
C343 C344 1.287 . S
C344 C343 1.287 . S
C344 C345 1.524 . S
C344 H363 0.913 . S
C345 H321 0.950 . S
C345 C344 1.524 . S
C345 C346 1.415 . S
C346 H322 0.950 . S
C346 C341 1.363 . S
C346 C345 1.415 . S
C347 H323 0.951 . S
C347 C348 1.366 . S
C347 C349 1.388 . S
C348 C347 1.366 . S
C348 C352 1.385 . S
C349 H324 0.951 . S
C349 C347 1.388 . S
C349 C350 1.366 . S
C350 C349 1.366 . S
C350 C351 1.414 . S
C350 C353 1.499 . S
C351 H325 0.950 . S
C351 C350 1.414 . S
C351 C352 1.374 . S
C352 H326 0.950 . S
C352 C348 1.385 . S
C352 C351 1.374 . S
C353 C350 1.499 . S
C353 C354 1.373 . S
C353 C355 1.389 . S
C354 H327 0.950 . S
C354 C340 1.377 . S
C354 C353 1.373 . S
C355 C339 1.377 . S
C355 C353 1.389 . S
C355 C356 1.524 . S
C356 C355 1.524 . S
C356 C357 1.397 . S
C356 C361 1.363 . S
C357 H328 0.950 . S
C357 C356 1.397 . S
C357 C358 1.334 . S
C358 H329 0.950 . S
C358 C357 1.334 . S
C358 C359 1.287 . S
C359 C358 1.287 . S
C359 C360 1.524 . S
C359 H362 0.999 . S
C360 H330 0.950 . S
C360 C359 1.524 . S
C360 C361 1.415 . S
C361 H331 0.950 . S
C361 C356 1.363 . S
C361 C360 1.415 . S
H362 C359 0.999 . S
H363 C344 0.913 . S
H364 C382 0.951 . S
H365 C384 0.951 . S
H366 C386 0.950 . S
H367 C387 0.950 . S
H368 C389 0.950 . S
H369 C392 0.950 . S
H370 C393 0.950 . S
H371 C395 0.950 . S
H372 C396 0.950 . S
H373 C397 0.951 . S
H374 C399 0.951 . S
H375 C401 0.950 . S
H376 C402 0.950 . S
H377 C404 0.950 . S
H378 C407 0.950 . S
H379 C408 0.950 . S
H380 C410 0.950 . S
H381 C411 0.950 . S
C382 H364 0.951 . S
C382 C383 1.366 . S
C382 C384 1.388 . S
C383 C382 1.366 . S
C383 C387 1.385 . S
C384 H365 0.951 . S
C384 C382 1.388 . S
C384 C385 1.366 . S
C385 C384 1.366 . S
C385 C386 1.414 . S
C385 C388 1.499 . S
C386 H366 0.950 . S
C386 C385 1.414 . S
C386 C387 1.374 . S
C387 H367 0.950 . S
C387 C383 1.385 . S
C387 C386 1.374 . S
C388 C385 1.499 . S
C388 C389 1.373 . S
C388 C390 1.389 . S
C389 H368 0.950 . S
C389 C388 1.373 . S
C389 C405 1.377 . S
C390 C388 1.389 . S
C390 C391 1.524 . S
C390 C404 1.377 . S
C391 C390 1.524 . S
C391 C392 1.397 . S
C391 C396 1.363 . S
C392 H369 0.950 . S
C392 C391 1.397 . S
C392 C393 1.334 . S
C393 H370 0.950 . S
C393 C392 1.334 . S
C393 C394 1.287 . S
C394 C393 1.287 . S
C394 C395 1.524 . S
C394 H413 0.913 . S
C395 H371 0.950 . S
C395 C394 1.524 . S
C395 C396 1.415 . S
C396 H372 0.950 . S
C396 C391 1.363 . S
C396 C395 1.415 . S
C397 H373 0.951 . S
C397 C398 1.366 . S
C397 C399 1.388 . S
C398 C397 1.366 . S
C398 C402 1.385 . S
C399 H374 0.951 . S
C399 C397 1.388 . S
C399 C400 1.366 . S
C400 C399 1.366 . S
C400 C401 1.414 . S
C400 C403 1.499 . S
C401 H375 0.950 . S
C401 C400 1.414 . S
C401 C402 1.374 . S
C402 H376 0.950 . S
C402 C398 1.385 . S
C402 C401 1.374 . S
C403 C400 1.499 . S
C403 C404 1.373 . S
C403 C405 1.389 . S
C404 H377 0.950 . S
C404 C390 1.377 . S
C404 C403 1.373 . S
C405 C389 1.377 . S
C405 C403 1.389 . S
C405 C406 1.524 . S
C406 C405 1.524 . S
C406 C407 1.397 . S
C406 C411 1.363 . S
C407 H378 0.950 . S
C407 C406 1.397 . S
C407 C408 1.334 . S
C408 H379 0.950 . S
C408 C407 1.334 . S
C408 C409 1.287 . S
C409 C408 1.287 . S
C409 C410 1.524 . S
C409 H412 0.999 . S
C410 H380 0.950 . S
C410 C409 1.524 . S
C410 C411 1.415 . S
C411 H381 0.950 . S
C411 C406 1.363 . S
C411 C410 1.415 . S
H412 C409 0.999 . S
H413 C394 0.913 . S
H414 C432 0.951 . S
H415 C434 0.951 . S
H416 C436 0.950 . S
H417 C437 0.950 . S
H418 C439 0.953 . S
H419 C442 0.950 . S
H420 C443 0.950 . S
H421 C445 0.950 . S
H422 C446 0.950 . S
H423 C447 0.951 . S
H424 C449 0.951 . S
H425 C451 0.950 . S
H426 C452 0.950 . S
H427 C454 0.950 . S
H428 C457 0.950 . S
H429 C458 0.950 . S
H430 C460 0.950 . S
H431 C461 0.950 . S
C432 H414 0.951 . S
C432 C433 1.369 . S
C432 C434 1.388 . S
C433 C432 1.369 . S
C433 C437 1.381 1_455 S
C434 H415 0.951 . S
C434 C432 1.388 . S
C434 C435 1.352 1_455 S
C435 C434 1.352 1_655 S
C435 C436 1.427 . S
C435 C438 1.498 . S
C436 H416 0.950 . S
C436 C435 1.427 . S
C436 C437 1.374 . S
C437 H417 0.950 . S
C437 C433 1.381 1_655 S
C437 C436 1.374 . S
C438 C435 1.498 . S
C438 C439 1.373 . S
C438 C440 1.388 1_655 S
C439 H418 0.953 . S
C439 C438 1.373 . S
C439 C455 1.373 1_655 S
C440 C438 1.388 1_455 S
C440 C441 1.524 1_455 S
C440 C454 1.377 . S
C441 C440 1.524 1_655 S
C441 C442 1.397 . S
C441 C446 1.363 1_655 S
C442 H419 0.950 . S
C442 C441 1.397 . S
C442 C443 1.334 . S
C443 H420 0.950 . S
C443 C442 1.334 . S
C443 C444 1.287 . S
C444 C443 1.287 . S
C444 C445 1.524 1_655 S
C444 H463 0.913 . S
C445 H421 0.950 . S
C445 C444 1.524 1_455 S
C445 C446 1.415 . S
C446 H422 0.950 . S
C446 C441 1.363 1_455 S
C446 C445 1.415 . S
C447 H423 0.951 . S
C447 C448 1.337 1_655 S
C447 C449 1.388 . S
C448 C447 1.337 1_455 S
C448 C452 1.415 . S
C449 H424 0.951 . S
C449 C447 1.388 . S
C449 C450 1.366 1_655 S
C450 C449 1.366 1_455 S
C450 C451 1.414 . S
C450 C453 1.499 . S
C451 H425 0.950 . S
C451 C450 1.414 . S
C451 C452 1.374 . S
C452 H426 0.950 . S
C452 C448 1.415 . S
C452 C451 1.374 . S
C453 C450 1.499 . S
C453 C454 1.373 . S
C453 C455 1.393 . S
C454 H427 0.950 . S
C454 C440 1.377 . S
C454 C453 1.373 . S
C455 C439 1.373 1_455 S
C455 C453 1.393 . S
C455 C456 1.529 . S
C456 C455 1.529 . S
C456 C457 1.397 . S
C456 C461 1.363 1_455 S
C457 H428 0.950 . S
C457 C456 1.397 . S
C457 C458 1.334 . S
C458 H429 0.950 . S
C458 C457 1.334 . S
C458 C459 1.287 . S
C459 C458 1.287 . S
C459 C460 1.524 1_455 S
C459 H462 0.999 . S
C460 H430 0.950 . S
C460 C459 1.524 1_655 S
C460 C461 1.415 . S
C461 H431 0.950 . S
C461 C456 1.363 1_655 S
C461 C460 1.415 . S
H462 C459 0.999 . S
H463 C444 0.913 . S
H464 C482 0.951 . S
H465 C484 0.951 . S
H466 C486 0.950 . S
H467 C487 0.950 . S
H468 C489 0.950 . S
H469 C492 0.950 . S
H470 C493 0.950 . S
H471 C495 0.950 . S
H472 C496 0.950 . S
H473 C497 0.951 . S
H474 C499 0.951 . S
H475 C501 0.950 . S
H476 C502 0.950 . S
H477 C504 0.950 . S
H478 C507 0.950 . S
H479 C508 0.950 . S
H480 C510 0.950 . S
H481 C511 0.950 . S
C482 H464 0.951 . S
C482 C483 1.367 1_565 S
C482 C484 1.388 . S
C483 C482 1.367 1_545 S
C483 C487 1.383 . S
C484 H465 0.951 . S
C484 C482 1.388 . S
C484 C485 1.369 . S
C485 C484 1.369 . S
C485 C486 1.411 1_565 S
C485 C488 1.498 1_565 S
C486 H466 0.950 . S
C486 C485 1.411 1_545 S
C486 C487 1.374 . S
C487 H467 0.950 . S
C487 C483 1.383 . S
C487 C486 1.374 . S
C488 C485 1.498 1_545 S
C488 C489 1.385 . S
C488 C490 1.377 1_545 S
C489 H468 0.950 . S
C489 C488 1.385 . S
C489 C505 1.377 1_554 S
C490 C488 1.377 1_565 S
C490 C491 1.524 . S
C490 C504 1.377 . S
C491 C490 1.524 . S
C491 C492 1.397 . S
C491 C496 1.363 . S
C492 H469 0.950 . S
C492 C491 1.397 . S
C492 C493 1.334 . S
C493 H470 0.950 . S
C493 C492 1.334 . S
C493 C494 1.287 . S
C494 C493 1.287 . S
C494 C495 1.524 . S
C494 H513 0.913 . S
C495 H471 0.950 . S
C495 C494 1.524 . S
C495 C496 1.415 . S
C496 H472 0.950 . S
C496 C491 1.363 . S
C496 C495 1.415 . S
C497 H473 0.951 . S
C497 C498 1.354 1_545 S
C497 C499 1.388 . S
C498 C497 1.354 1_565 S
C498 C502 1.396 . S
C499 H474 0.951 . S
C499 C497 1.388 . S
C499 C500 1.368 1_545 S
C500 C499 1.368 1_565 S
C500 C501 1.412 . S
C500 C503 1.498 . S
C501 H475 0.950 . S
C501 C500 1.412 . S
C501 C502 1.374 . S
C502 H476 0.950 . S
C502 C498 1.396 . S
C502 C501 1.374 . S
C503 C500 1.498 . S
C503 C504 1.395 1_556 S
C503 C505 1.367 1_565 S
C504 H477 0.950 . S
C504 C490 1.377 . S
C504 C503 1.395 1_554 S
C505 C489 1.377 1_556 S
C505 C503 1.367 1_545 S
C505 C506 1.524 . S
C506 C505 1.524 . S
C506 C507 1.397 . S
C506 C511 1.363 . S
C507 H478 0.950 . S
C507 C506 1.397 . S
C507 C508 1.334 . S
C508 H479 0.950 . S
C508 C507 1.334 . S
C508 C509 1.287 . S
C509 C508 1.287 . S
C509 C510 1.524 . S
C509 H512 0.999 . S
C510 H480 0.950 . S
C510 C509 1.524 . S
C510 C511 1.415 . S
C511 H481 0.950 . S
C511 C506 1.363 . S
C511 C510 1.415 . S
H512 C509 0.999 . S
H513 C494 0.913 . S
H514 C532 0.951 . S
H515 C534 0.951 . S
H516 C536 0.950 . S
H517 C537 0.950 . S
H518 C539 0.950 . S
H519 C542 0.950 . S
H520 C543 0.950 . S
H521 C545 0.950 . S
H522 C546 0.950 . S
H523 C547 0.951 . S
H524 C549 0.951 . S
H525 C551 0.950 . S
H526 C552 0.950 . S
H527 C554 0.950 . S
H528 C557 0.950 . S
H529 C558 0.950 . S
H530 C560 0.950 . S
H531 C561 0.950 . S
C532 H514 0.951 . S
C532 C533 1.366 . S
C532 C534 1.388 . S
C533 C532 1.366 . S
C533 C537 1.385 . S
C534 H515 0.951 . S
C534 C532 1.388 . S
C534 C535 1.366 . S
C535 C534 1.366 . S
C535 C536 1.414 . S
C535 C538 1.499 . S
C536 H516 0.950 . S
C536 C535 1.414 . S
C536 C537 1.374 . S
C537 H517 0.950 . S
C537 C533 1.385 . S
C537 C536 1.374 . S
C538 C535 1.499 . S
C538 C539 1.373 . S
C538 C540 1.389 . S
C539 H518 0.950 . S
C539 C538 1.373 . S
C539 C555 1.377 . S
C540 C538 1.389 . S
C540 C541 1.524 . S
C540 C554 1.377 1_554 S
C541 C540 1.524 . S
C541 C542 1.397 . S
C541 C546 1.363 . S
C542 H519 0.950 . S
C542 C541 1.397 . S
C542 C543 1.334 1_554 S
C543 H520 0.950 . S
C543 C542 1.334 1_556 S
C543 C544 1.287 . S
C544 C543 1.287 . S
C544 C545 1.524 . S
C544 H563 0.913 . S
C545 H521 0.950 . S
C545 C544 1.524 . S
C545 C546 1.415 1_556 S
C546 H522 0.950 . S
C546 C541 1.363 . S
C546 C545 1.415 1_554 S
C547 H523 0.951 . S
C547 C548 1.366 . S
C547 C549 1.388 . S
C548 C547 1.366 . S
C548 C552 1.385 . S
C549 H524 0.951 . S
C549 C547 1.388 . S
C549 C550 1.366 . S
C550 C549 1.366 . S
C550 C551 1.414 . S
C550 C553 1.499 1_556 S
C551 H525 0.950 . S
C551 C550 1.414 . S
C551 C552 1.374 . S
C552 H526 0.950 . S
C552 C548 1.385 . S
C552 C551 1.374 . S
C553 C550 1.499 1_554 S
C553 C554 1.373 1_554 S
C553 C555 1.389 . S
C554 H527 0.950 . S
C554 C540 1.377 1_556 S
C554 C553 1.373 1_556 S
C555 C539 1.377 . S
C555 C553 1.389 . S
C555 C556 1.524 . S
C556 C555 1.524 . S
C556 C557 1.397 . S
C556 C561 1.363 . S
C557 H528 0.950 . S
C557 C556 1.397 . S
C557 C558 1.334 . S
C558 H529 0.950 . S
C558 C557 1.334 . S
C558 C559 1.287 . S
C559 C558 1.287 . S
C559 C560 1.524 . S
C559 H562 0.999 . S
C560 H530 0.950 . S
C560 C559 1.524 . S
C560 C561 1.415 . S
C561 H531 0.950 . S
C561 C556 1.363 . S
C561 C560 1.415 . S
H562 C559 0.999 . S
H563 C544 0.913 . S
H564 C582 0.951 . S
H565 C584 0.951 . S
H566 C586 0.950 . S
H567 C587 0.950 . S
H568 C589 0.950 . S
H569 C592 0.950 . S
H570 C593 0.950 1_554 S
H571 C595 0.950 . S
H572 C596 0.950 . S
H573 C597 0.951 . S
H574 C599 0.951 . S
H575 C601 0.950 . S
H576 C602 0.950 . S
H577 C604 0.950 . S
H578 C607 0.950 . S
H579 C608 0.950 . S
H580 C610 0.950 . S
H581 C611 0.950 . S
C582 H564 0.951 . S
C582 C583 1.366 . S
C582 C584 1.388 . S
C583 C582 1.366 . S
C583 C587 1.385 . S
C584 H565 0.951 . S
C584 C582 1.388 . S
C584 C585 1.366 . S
C585 C584 1.366 . S
C585 C586 1.414 . S
C585 C588 1.499 . S
C586 H566 0.950 . S
C586 C585 1.414 . S
C586 C587 1.374 . S
C587 H567 0.950 . S
C587 C583 1.385 . S
C587 C586 1.374 . S
C588 C585 1.499 . S
C588 C589 1.373 . S
C588 C590 1.389 . S
C589 H568 0.950 . S
C589 C588 1.373 . S
C589 C605 1.377 . S
C590 C588 1.389 . S
C590 C591 1.524 1_554 S
C590 C604 1.377 1_554 S
C591 C590 1.524 1_556 S
C591 C592 1.397 1_556 S
C591 C596 1.363 . S
C592 H569 0.950 . S
C592 C591 1.397 1_554 S
C592 C593 1.334 1_554 S
C593 H570 0.950 1_556 S
C593 C592 1.334 1_556 S
C593 C594 1.287 . S
C594 C593 1.287 . S
C594 C595 1.524 . S
C594 H613 0.913 . S
C595 H571 0.950 . S
C595 C594 1.524 . S
C595 C596 1.415 . S
C596 H572 0.950 . S
C596 C591 1.363 . S
C596 C595 1.415 . S
C597 H573 0.951 . S
C597 C598 1.366 . S
C597 C599 1.388 . S
C598 C597 1.366 . S
C598 C602 1.385 . S
C599 H574 0.951 . S
C599 C597 1.388 . S
C599 C600 1.366 . S
C600 C599 1.366 . S
C600 C601 1.414 . S
C600 C603 1.499 1_556 S
C601 H575 0.950 . S
C601 C600 1.414 . S
C601 C602 1.374 . S
C602 H576 0.950 . S
C602 C598 1.385 . S
C602 C601 1.374 . S
C603 C600 1.499 1_554 S
C603 C604 1.373 1_554 S
C603 C605 1.389 . S
C604 H577 0.950 . S
C604 C590 1.377 1_556 S
C604 C603 1.373 1_556 S
C605 C589 1.377 . S
C605 C603 1.389 . S
C605 C606 1.524 . S
C606 C605 1.524 . S
C606 C607 1.397 . S
C606 C611 1.363 . S
C607 H578 0.950 . S
C607 C606 1.397 . S
C607 C608 1.334 . S
C608 H579 0.950 . S
C608 C607 1.334 . S
C608 C609 1.287 . S
C609 C608 1.287 . S
C609 C610 1.524 . S
C609 H612 0.999 . S
C610 H580 0.950 . S
C610 C609 1.524 . S
C610 C611 1.415 . S
C611 H581 0.950 . S
C611 C606 1.363 . S
C611 C610 1.415 . S
H612 C609 0.999 . S
H613 C594 0.913 . S
H614 C632 0.951 . S
H615 C634 0.951 . S
H616 C636 0.950 . S
H617 C637 0.950 . S
H618 C639 0.950 . S
H619 C642 0.950 . S
H620 C643 0.950 . S
H621 C645 0.950 . S
H622 C646 0.950 . S
H623 C647 0.951 . S
H624 C649 0.951 . S
H625 C651 0.950 . S
H626 C652 0.950 . S
H627 C654 0.950 1_556 S
H628 C657 0.950 . S
H629 C658 0.950 . S
H630 C660 0.950 . S
H631 C661 0.950 . S
C632 H614 0.951 . S
C632 C633 1.362 1_455 S
C632 C634 1.388 . S
C633 C632 1.362 1_655 S
C633 C637 1.389 . S
C634 H615 0.951 . S
C634 C632 1.388 . S
C634 C635 1.374 . S
C635 C634 1.374 . S
C635 C636 1.405 1_455 S
C635 C638 1.498 1_455 S
C636 H616 0.950 . S
C636 C635 1.405 1_655 S
C636 C637 1.374 . S
C637 H617 0.950 . S
C637 C633 1.389 . S
C637 C636 1.374 . S
C638 C635 1.498 1_655 S
C638 C639 1.380 . S
C638 C640 1.382 1_655 S
C639 H618 0.950 . S
C639 C638 1.380 . S
C639 C655 1.377 . S
C640 C638 1.382 1_455 S
C640 C641 1.524 . S
C640 C654 1.377 . S
C641 C640 1.524 . S
C641 C642 1.397 . S
C641 C646 1.363 . S
C642 H619 0.950 . S
C642 C641 1.397 . S
C642 C643 1.334 . S
C643 H620 0.950 . S
C643 C642 1.334 . S
C643 C644 1.287 . S
C644 C643 1.287 . S
C644 C645 1.524 . S
C644 H663 0.913 . S
C645 H621 0.950 . S
C645 C644 1.524 . S
C645 C646 1.415 . S
C646 H622 0.950 . S
C646 C641 1.363 . S
C646 C645 1.415 . S
C647 H623 0.951 . S
C647 C648 1.396 . S
C647 C649 1.388 . S
C648 C647 1.396 . S
C648 C652 1.355 1_655 S
C649 H624 0.951 . S
C649 C647 1.388 . S
C649 C650 1.366 . S
C650 C649 1.366 . S
C650 C651 1.414 1_655 S
C650 C653 1.500 1_556 S
C651 H625 0.950 . S
C651 C650 1.414 1_455 S
C651 C652 1.374 . S
C652 H626 0.950 . S
C652 C648 1.355 1_455 S
C652 C651 1.374 . S
C653 C650 1.500 1_554 S
C653 C654 1.339 1_655 S
C653 C655 1.423 . S
C654 H627 0.950 1_554 S
C654 C640 1.377 . S
C654 C653 1.339 1_455 S
C655 C639 1.377 . S
C655 C653 1.423 . S
C655 C656 1.524 . S
C656 C655 1.524 . S
C656 C657 1.397 . S
C656 C661 1.363 . S
C657 H628 0.950 . S
C657 C656 1.397 . S
C657 C658 1.334 . S
C658 H629 0.950 . S
C658 C657 1.334 . S
C658 C659 1.287 . S
C659 C658 1.287 . S
C659 C660 1.524 . S
C659 H662 0.999 . S
C660 H630 0.950 . S
C660 C659 1.524 . S
C660 C661 1.415 . S
C661 H631 0.950 . S
C661 C656 1.363 . S
C661 C660 1.415 . S
H662 C659 0.999 . S
H663 C644 0.913 . S
H664 C682 0.951 . S
H665 C684 0.951 . S
H666 C686 0.951 . S
H667 C687 0.950 . S
H668 C689 0.950 . S
H669 C692 0.950 . S
H670 C693 0.950 . S
H671 C695 0.950 . S
H672 C696 0.950 . S
H673 C697 0.951 . S
H674 C699 0.951 . S
H675 C701 0.950 . S
H676 C702 0.950 . S
H677 C704 0.950 . S
H678 C707 0.950 . S
H679 C708 0.950 . S
H680 C710 0.950 . S
H681 C711 0.950 . S
C682 H664 0.951 . S
C682 C683 1.366 1_655 S
C682 C684 1.388 . S
C683 C682 1.366 1_455 S
C683 C687 1.385 . S
C684 H665 0.951 . S
C684 C682 1.388 . S
C684 C685 1.366 . S
C685 C684 1.366 . S
C685 C686 1.414 . S
C685 C688 1.499 . S
C686 H666 0.951 . S
C686 C685 1.414 . S
C686 C687 1.374 1_655 S
C687 H667 0.950 . S
C687 C683 1.385 . S
C687 C686 1.374 1_455 S
C688 C685 1.499 . S
C688 C689 1.373 1_655 S
C688 C690 1.389 . S
C689 H668 0.950 . S
C689 C688 1.373 1_455 S
C689 C705 1.377 . S
C690 C688 1.389 . S
C690 C691 1.524 . S
C690 C704 1.377 . S
C691 C690 1.524 . S
C691 C692 1.397 . S
C691 C696 1.363 . S
C692 H669 0.950 . S
C692 C691 1.397 . S
C692 C693 1.334 . S
C693 H670 0.950 . S
C693 C692 1.334 . S
C693 C694 1.287 . S
C694 C693 1.287 . S
C694 C695 1.524 . S
C694 H713 0.913 . S
C695 H671 0.950 . S
C695 C694 1.524 . S
C695 C696 1.415 . S
C696 H672 0.950 . S
C696 C691 1.363 . S
C696 C695 1.415 . S
C697 H673 0.951 . S
C697 C698 1.366 . S
C697 C699 1.388 . S
C698 C697 1.366 . S
C698 C702 1.385 . S
C699 H674 0.951 . S
C699 C697 1.388 . S
C699 C700 1.366 . S
C700 C699 1.366 . S
C700 C701 1.414 . S
C700 C703 1.499 . S
C701 H675 0.950 . S
C701 C700 1.414 . S
C701 C702 1.374 . S
C702 H676 0.950 . S
C702 C698 1.385 . S
C702 C701 1.374 . S
C703 C700 1.499 . S
C703 C704 1.373 . S
C703 C705 1.389 1_655 S
C704 H677 0.950 . S
C704 C690 1.377 . S
C704 C703 1.373 . S
C705 C689 1.377 . S
C705 C703 1.389 1_455 S
C705 C706 1.524 . S
C706 C705 1.524 . S
C706 C707 1.397 . S
C706 C711 1.363 . S
C707 H678 0.950 . S
C707 C706 1.397 . S
C707 C708 1.334 . S
C708 H679 0.950 . S
C708 C707 1.334 . S
C708 C709 1.287 . S
C709 C708 1.287 . S
C709 C710 1.524 . S
C709 H712 0.999 . S
C710 H680 0.950 . S
C710 C709 1.524 . S
C710 C711 1.415 . S
C711 H681 0.950 . S
C711 C706 1.363 . S
C711 C710 1.415 . S
H712 C709 0.999 . S
H713 C694 0.913 . S
H714 C732 0.951 . S
H715 C734 0.951 . S
H716 C736 0.950 . S
H717 C737 0.950 . S
H718 C739 0.950 . S
H719 C742 0.950 . S
H720 C743 0.950 . S
H721 C745 0.950 . S
H722 C746 0.950 . S
H723 C747 0.951 . S
H724 C749 0.951 . S
H725 C751 0.950 1_545 S
H726 C752 0.951 . S
H727 C754 0.950 . S
H728 C757 0.950 . S
H729 C758 0.950 . S
H730 C760 0.950 . S
H731 C761 0.950 . S
C732 H714 0.951 . S
C732 C733 1.366 . S
C732 C734 1.388 . S
C733 C732 1.366 . S
C733 C737 1.385 1_545 S
C734 H715 0.951 . S
C734 C732 1.388 . S
C734 C735 1.366 1_545 S
C735 C734 1.366 1_565 S
C735 C736 1.414 . S
C735 C738 1.499 . S
C736 H716 0.950 . S
C736 C735 1.414 . S
C736 C737 1.374 . S
C737 H717 0.950 . S
C737 C733 1.385 1_565 S
C737 C736 1.374 . S
C738 C735 1.499 . S
C738 C739 1.373 . S
C738 C740 1.389 1_565 S
C739 H718 0.950 . S
C739 C738 1.373 . S
C739 C755 1.377 . S
C740 C738 1.389 1_545 S
C740 C741 1.524 . S
C740 C754 1.377 . S
C741 C740 1.524 . S
C741 C742 1.397 . S
C741 C746 1.363 . S
C742 H719 0.950 . S
C742 C741 1.397 . S
C742 C743 1.334 . S
C743 H720 0.950 . S
C743 C742 1.334 . S
C743 C744 1.287 . S
C744 C743 1.287 . S
C744 C745 1.524 . S
C744 H763 0.913 . S
C745 H721 0.950 . S
C745 C744 1.524 . S
C745 C746 1.415 . S
C746 H722 0.950 . S
C746 C741 1.363 . S
C746 C745 1.415 . S
C747 H723 0.951 . S
C747 C748 1.366 . S
C747 C749 1.388 . S
C748 C747 1.366 . S
C748 C752 1.385 . S
C749 H724 0.951 . S
C749 C747 1.388 . S
C749 C750 1.366 . S
C750 C749 1.366 . S
C750 C751 1.414 . S
C750 C753 1.499 . S
C751 H725 0.950 1_565 S
C751 C750 1.414 . S
C751 C752 1.374 . S
C752 H726 0.951 . S
C752 C748 1.385 . S
C752 C751 1.374 . S
C753 C750 1.499 . S
C753 C754 1.373 1_565 S
C753 C755 1.389 . S
C754 H727 0.950 . S
C754 C740 1.377 . S
C754 C753 1.373 1_545 S
C755 C739 1.377 . S
C755 C753 1.389 . S
C755 C756 1.524 . S
C756 C755 1.524 . S
C756 C757 1.397 . S
C756 C761 1.363 . S
C757 H728 0.950 . S
C757 C756 1.397 . S
C757 C758 1.334 . S
C758 H729 0.950 . S
C758 C757 1.334 . S
C758 C759 1.287 . S
C759 C758 1.287 . S
C759 C760 1.524 . S
C759 H762 0.999 . S
C760 H730 0.950 . S
C760 C759 1.524 . S
C760 C761 1.415 . S
C761 H731 0.950 . S
C761 C756 1.363 . S
C761 C760 1.415 . S
H762 C759 0.999 . S
H763 C744 0.913 . S
H764 C782 0.951 . S
H765 C784 0.951 . S
H766 C786 0.950 . S
H767 C787 0.950 . S
H768 C789 0.950 . S
H769 C792 0.950 . S
H770 C793 0.950 . S
H771 C795 0.950 . S
H772 C796 0.950 . S
H773 C797 0.951 . S
H774 C799 0.951 . S
H775 C801 0.950 . S
H776 C802 0.950 . S
H777 C804 0.950 . S
H778 C807 0.950 . S
H779 C808 0.950 . S
H780 C810 0.950 . S
H781 C811 0.950 . S
C782 H764 0.951 . S
C782 C783 1.366 . S
C782 C784 1.388 . S
C783 C782 1.366 . S
C783 C787 1.385 . S
C784 H765 0.951 . S
C784 C782 1.388 . S
C784 C785 1.366 . S
C785 C784 1.366 . S
C785 C786 1.414 . S
C785 C788 1.499 . S
C786 H766 0.950 . S
C786 C785 1.414 . S
C786 C787 1.374 . S
C787 H767 0.950 . S
C787 C783 1.385 . S
C787 C786 1.374 . S
C788 C785 1.499 . S
C788 C789 1.373 . S
C788 C790 1.389 . S
C789 H768 0.950 . S
C789 C788 1.373 . S
C789 C805 1.377 . S
C790 C788 1.389 . S
C790 C791 1.524 . S
C790 C804 1.377 . S
C791 C790 1.524 . S
C791 C792 1.397 . S
C791 C796 1.363 . S
C792 H769 0.950 . S
C792 C791 1.397 . S
C792 C793 1.334 . S
C793 H770 0.950 . S
C793 C792 1.334 . S
C793 C794 1.287 . S
C794 C793 1.287 . S
C794 C795 1.524 . S
C794 H813 0.913 . S
C795 H771 0.950 . S
C795 C794 1.524 . S
C795 C796 1.415 . S
C796 H772 0.950 . S
C796 C791 1.363 . S
C796 C795 1.415 . S
C797 H773 0.951 . S
C797 C798 1.366 . S
C797 C799 1.388 . S
C798 C797 1.366 . S
C798 C802 1.385 . S
C799 H774 0.951 . S
C799 C797 1.388 . S
C799 C800 1.366 . S
C800 C799 1.366 . S
C800 C801 1.414 . S
C800 C803 1.499 . S
C801 H775 0.950 . S
C801 C800 1.414 . S
C801 C802 1.374 . S
C802 H776 0.950 . S
C802 C798 1.385 . S
C802 C801 1.374 . S
C803 C800 1.499 . S
C803 C804 1.373 . S
C803 C805 1.389 . S
C804 H777 0.950 . S
C804 C790 1.377 . S
C804 C803 1.373 . S
C805 C789 1.377 . S
C805 C803 1.389 . S
C805 C806 1.524 . S
C806 C805 1.524 . S
C806 C807 1.397 . S
C806 C811 1.363 . S
C807 H778 0.950 . S
C807 C806 1.397 . S
C807 C808 1.334 . S
C808 H779 0.950 . S
C808 C807 1.334 . S
C808 C809 1.287 . S
C809 C808 1.287 . S
C809 C810 1.524 . S
C809 H812 0.999 . S
C810 H780 0.950 . S
C810 C809 1.524 . S
C810 C811 1.415 . S
C811 H781 0.950 . S
C811 C806 1.363 . S
C811 C810 1.415 . S
H812 C809 0.999 . S
H813 C794 0.913 . S
H814 C832 0.951 . S
H815 C834 0.951 . S
H816 C836 0.950 . S
H817 C837 0.950 . S
H818 C839 0.950 . S
H819 C842 0.950 . S
H820 C843 0.950 . S
H821 C845 0.950 1_556 S
H822 C846 0.950 . S
H823 C847 0.951 . S
H824 C849 0.951 . S
H825 C851 0.950 . S
H826 C852 0.950 . S
H827 C854 0.950 . S
H828 C857 0.950 . S
H829 C858 0.950 . S
H830 C860 0.950 . S
H831 C861 0.950 . S
C832 H814 0.951 . S
C832 C833 1.366 . S
C832 C834 1.388 . S
C833 C832 1.366 . S
C833 C837 1.385 . S
C834 H815 0.951 . S
C834 C832 1.388 . S
C834 C835 1.366 . S
C835 C834 1.366 . S
C835 C836 1.414 . S
C835 C838 1.499 . S
C836 H816 0.950 . S
C836 C835 1.414 . S
C836 C837 1.374 . S
C837 H817 0.950 . S
C837 C833 1.385 . S
C837 C836 1.374 . S
C838 C835 1.499 . S
C838 C839 1.373 . S
C838 C840 1.389 . S
C839 H818 0.950 . S
C839 C838 1.373 . S
C839 C855 1.377 . S
C840 C838 1.389 . S
C840 C841 1.524 . S
C840 C854 1.377 . S
C841 C840 1.524 . S
C841 C842 1.397 . S
C841 C846 1.363 . S
C842 H819 0.950 . S
C842 C841 1.397 . S
C842 C843 1.334 . S
C843 H820 0.950 . S
C843 C842 1.334 . S
C843 C844 1.287 . S
C844 C843 1.287 . S
C844 C845 1.524 . S
C844 H863 0.913 1_554 S
C845 H821 0.950 1_554 S
C845 C844 1.524 . S
C845 C846 1.415 . S
C846 H822 0.950 . S
C846 C841 1.363 . S
C846 C845 1.415 . S
C847 H823 0.951 . S
C847 C848 1.366 . S
C847 C849 1.388 . S
C848 C847 1.366 . S
C848 C852 1.385 . S
C849 H824 0.951 . S
C849 C847 1.388 . S
C849 C850 1.366 . S
C850 C849 1.366 . S
C850 C851 1.414 . S
C850 C853 1.499 . S
C851 H825 0.950 . S
C851 C850 1.414 . S
C851 C852 1.374 . S
C852 H826 0.950 . S
C852 C848 1.385 . S
C852 C851 1.374 . S
C853 C850 1.499 . S
C853 C854 1.373 . S
C853 C855 1.389 . S
C854 H827 0.950 . S
C854 C840 1.377 . S
C854 C853 1.373 . S
C855 C839 1.377 . S
C855 C853 1.389 . S
C855 C856 1.524 . S
C856 C855 1.524 . S
C856 C857 1.397 . S
C856 C861 1.363 . S
C857 H828 0.950 . S
C857 C856 1.397 . S
C857 C858 1.334 . S
C858 H829 0.950 . S
C858 C857 1.334 . S
C858 C859 1.287 . S
C859 C858 1.287 . S
C859 C860 1.524 . S
C859 H862 0.999 . S
C860 H830 0.950 . S
C860 C859 1.524 . S
C860 C861 1.415 . S
C861 H831 0.950 . S
C861 C856 1.363 . S
C861 C860 1.415 . S
H862 C859 0.999 . S
H863 C844 0.913 1_556 S
H864 C882 0.951 . S
H865 C884 0.951 . S
H866 C886 0.950 . S
H867 C887 0.950 . S
H868 C889 0.969 . S
H869 C892 0.950 . S
H870 C893 0.950 . S
H871 C895 0.950 . S
H872 C896 0.950 . S
H873 C897 0.951 . S
H874 C899 0.951 . S
H875 C901 0.950 . S
H876 C902 0.950 . S
H877 C904 0.950 . S
H878 C907 0.950 . S
H879 C908 0.950 . S
H880 C910 0.941 1_455 S
H881 C911 0.950 . S
C882 H864 0.951 . S
C882 C883 1.366 . S
C882 C884 1.388 . S
C883 C882 1.366 . S
C883 C887 1.385 1_655 S
C884 H865 0.951 . S
C884 C882 1.388 . S
C884 C885 1.366 1_655 S
C885 C884 1.366 1_455 S
C885 C886 1.414 . S
C885 C888 1.499 . S
C886 H866 0.950 . S
C886 C885 1.414 . S
C886 C887 1.374 . S
C887 H867 0.950 . S
C887 C883 1.385 1_455 S
C887 C886 1.374 . S
C888 C885 1.499 . S
C888 C889 1.373 . S
C888 C890 1.389 . S
C889 H868 0.969 . S
C889 C888 1.373 . S
C889 C905 1.377 . S
C890 C888 1.389 . S
C890 C891 1.524 . S
C890 C904 1.377 . S
C891 C890 1.524 . S
C891 C892 1.397 . S
C891 C896 1.363 1_554 S
C892 H869 0.950 . S
C892 C891 1.397 . S
C892 C893 1.334 . S
C893 H870 0.950 . S
C893 C892 1.334 . S
C893 C894 1.287 1_554 S
C894 C893 1.287 1_556 S
C894 C895 1.524 . S
C894 H913 0.913 . S
C895 H871 0.950 . S
C895 C894 1.524 . S
C895 C896 1.415 . S
C896 H872 0.950 . S
C896 C891 1.363 1_556 S
C896 C895 1.415 . S
C897 H873 0.951 . S
C897 C898 1.366 1_554 S
C897 C899 1.388 . S
C898 C897 1.366 1_556 S
C898 C902 1.385 . S
C899 H874 0.951 . S
C899 C897 1.388 . S
C899 C900 1.366 . S
C900 C899 1.366 . S
C900 C901 1.414 1_554 S
C900 C903 1.499 . S
C901 H875 0.950 . S
C901 C900 1.414 1_556 S
C901 C902 1.374 . S
C902 H876 0.950 . S
C902 C898 1.385 . S
C902 C901 1.374 . S
C903 C900 1.499 . S
C903 C904 1.373 . S
C903 C905 1.389 . S
C904 H877 0.950 . S
C904 C890 1.377 . S
C904 C903 1.373 . S
C905 C889 1.377 . S
C905 C903 1.389 . S
C905 C906 1.523 1_455 S
C906 C905 1.523 1_655 S
C906 C907 1.401 . S
C906 C911 1.361 1_655 S
C907 H878 0.950 . S
C907 C906 1.401 . S
C907 C908 1.334 . S
C908 H879 0.950 . S
C908 C907 1.334 . S
C908 C909 1.287 . S
C909 C908 1.287 . S
C909 C910 1.544 . S
C909 H912 0.999 . S
C910 H880 0.941 1_655 S
C910 C909 1.544 . S
C910 C911 1.406 1_655 S
C911 H881 0.950 . S
C911 C906 1.361 1_455 S
C911 C910 1.406 1_455 S
H912 C909 0.999 . S
H913 C894 0.913 . S
H914 C932 0.949 1_565 S
H915 C934 0.951 . S
H916 C936 0.950 . S
H917 C937 0.949 1_565 S
H918 C939 0.950 . S
H919 C942 0.950 . S
H920 C943 0.950 . S
H921 C945 0.950 . S
H922 C946 0.950 . S
H923 C947 0.951 . S
H924 C949 0.951 . S
H925 C951 0.950 . S
H926 C952 0.950 . S
H927 C954 0.947 . S
H928 C957 0.950 . S
H929 C958 0.950 . S
H930 C960 0.950 . S
H931 C961 0.950 . S
C932 H914 0.949 1_545 S
C932 C933 1.364 1_545 S
C932 C934 1.388 . S
C933 C932 1.364 1_565 S
C933 C937 1.381 1_565 S
C934 H915 0.951 . S
C934 C932 1.388 . S
C934 C935 1.366 . S
C935 C934 1.366 . S
C935 C936 1.414 . S
C935 C938 1.499 . S
C936 H916 0.950 . S
C936 C935 1.414 . S
C936 C937 1.380 . S
C937 H917 0.949 1_545 S
C937 C933 1.381 1_545 S
C937 C936 1.380 . S
C938 C935 1.499 . S
C938 C939 1.373 . S
C938 C940 1.389 1_545 S
C939 H918 0.950 . S
C939 C938 1.373 . S
C939 C955 1.377 . S
C940 C938 1.389 1_565 S
C940 C941 1.524 . S
C940 C954 1.375 . S
C941 C940 1.524 . S
C941 C942 1.397 . S
C941 C946 1.363 . S
C942 H919 0.950 . S
C942 C941 1.397 . S
C942 C943 1.334 . S
C943 H920 0.950 . S
C943 C942 1.334 . S
C943 C944 1.287 . S
C944 C943 1.287 . S
C944 C945 1.524 . S
C944 H963 0.913 . S
C945 H921 0.950 . S
C945 C944 1.524 . S
C945 C946 1.415 . S
C946 H922 0.950 . S
C946 C941 1.363 . S
C946 C945 1.415 . S
C947 H923 0.951 . S
C947 C948 1.366 . S
C947 C949 1.388 . S
C948 C947 1.366 . S
C948 C952 1.385 1_556 S
C949 H924 0.951 . S
C949 C947 1.388 . S
C949 C950 1.366 1_556 S
C950 C949 1.366 1_554 S
C950 C951 1.414 . S
C950 C953 1.499 . S
C951 H925 0.950 . S
C951 C950 1.414 . S
C951 C952 1.374 . S
C952 H926 0.950 . S
C952 C948 1.385 1_554 S
C952 C951 1.374 . S
C953 C950 1.499 . S
C953 C954 1.377 1_545 S
C953 C955 1.389 . S
C954 H927 0.947 . S
C954 C940 1.375 . S
C954 C953 1.377 1_565 S
C955 C939 1.377 . S
C955 C953 1.389 . S
C955 C956 1.524 . S
C956 C955 1.524 . S
C956 C957 1.397 . S
C956 C961 1.363 1_554 S
C957 H928 0.950 . S
C957 C956 1.397 . S
C957 C958 1.334 . S
C958 H929 0.950 . S
C958 C957 1.334 . S
C958 C959 1.287 1_554 S
C959 C958 1.287 1_556 S
C959 C960 1.524 . S
C959 H962 0.999 . S
C960 H930 0.950 . S
C960 C959 1.524 . S
C960 C961 1.415 . S
C961 H931 0.950 . S
C961 C956 1.363 1_556 S
C961 C960 1.415 . S
H962 C959 0.999 . S
H963 C944 0.913 . S
H964 C982 0.951 . S
H965 C984 0.951 . S
H966 C986 0.950 . S
H967 C987 0.950 . S
H968 C989 0.950 . S
H969 C992 0.950 . S
H970 C993 0.950 . S
H971 C995 0.950 . S
H972 C996 0.950 . S
H973 C997 0.951 . S
H974 C999 0.951 . S
H975 C1001 0.950 . S
H976 C1002 0.950 . S
H977 C1004 0.950 . S
H978 C1007 0.950 . S
H979 C1008 0.950 . S
H980 C1010 0.950 . S
H981 C1011 0.950 . S
C982 H964 0.951 . S
C982 C983 1.366 . S
C982 C984 1.388 . S
C983 C982 1.366 . S
C983 C987 1.385 . S
C984 H965 0.951 . S
C984 C982 1.388 . S
C984 C985 1.366 . S
C985 C984 1.366 . S
C985 C986 1.414 . S
C985 C988 1.499 . S
C986 H966 0.950 . S
C986 C985 1.414 . S
C986 C987 1.374 . S
C987 H967 0.950 . S
C987 C983 1.385 . S
C987 C986 1.374 . S
C988 C985 1.499 . S
C988 C989 1.373 . S
C988 C990 1.389 . S
C989 H968 0.950 . S
C989 C988 1.373 . S
C989 C1005 1.377 . S
C990 C988 1.389 . S
C990 C991 1.524 . S
C990 C1004 1.377 . S
C991 C990 1.524 . S
C991 C992 1.397 . S
C991 C996 1.363 1_554 S
C992 H969 0.950 . S
C992 C991 1.397 . S
C992 C993 1.334 . S
C993 H970 0.950 . S
C993 C992 1.334 . S
C993 C994 1.287 . S
C994 C993 1.287 . S
C994 C995 1.524 1_554 S
C994 H1013 0.913 1_554 S
C995 H971 0.950 . S
C995 C994 1.524 1_556 S
C995 C996 1.415 . S
C996 H972 0.950 . S
C996 C991 1.363 1_556 S
C996 C995 1.415 . S
C997 H973 0.951 . S
C997 C998 1.366 1_554 S
C997 C999 1.388 . S
C998 C997 1.366 1_556 S
C998 C1002 1.385 . S
C999 H974 0.951 . S
C999 C997 1.388 . S
C999 C1000 1.366 . S
C1000 C999 1.366 . S
C1000 C1001 1.414 1_554 S
C1000 C1003 1.499 . S
C1001 H975 0.950 . S
C1001 C1000 1.414 1_556 S
C1001 C1002 1.374 . S
C1002 H976 0.950 . S
C1002 C998 1.385 . S
C1002 C1001 1.374 . S
C1003 C1000 1.499 . S
C1003 C1004 1.373 . S
C1003 C1005 1.389 . S
C1004 H977 0.950 . S
C1004 C990 1.377 . S
C1004 C1003 1.373 . S
C1005 C989 1.377 . S
C1005 C1003 1.389 . S
C1005 C1006 1.524 . S
C1006 C1005 1.524 . S
C1006 C1007 1.397 . S
C1006 C1011 1.363 . S
C1007 H978 0.950 . S
C1007 C1006 1.397 . S
C1007 C1008 1.334 . S
C1008 H979 0.950 . S
C1008 C1007 1.334 . S
C1008 C1009 1.287 . S
C1009 C1008 1.287 . S
C1009 C1010 1.524 . S
C1009 H1012 0.999 . S
C1010 H980 0.950 . S
C1010 C1009 1.524 . S
C1010 C1011 1.415 . S
C1011 H981 0.950 . S
C1011 C1006 1.363 . S
C1011 C1010 1.415 . S
H1012 C1009 0.999 . S
H1013 C994 0.913 1_556 S
H1014 C1032 0.951 . S
H1015 C1034 0.951 . S
H1016 C1036 0.950 . S
H1017 C1037 0.950 . S
H1018 C1039 0.950 . S
H1019 C1042 0.950 . S
H1020 C1043 0.950 . S
H1021 C1045 0.950 . S
H1022 C1046 0.950 . S
H1023 C1047 0.951 . S
H1024 C1049 0.951 . S
H1025 C1051 0.950 . S
H1026 C1052 0.950 . S
H1027 C1054 0.950 . S
H1028 C1057 0.950 . S
H1029 C1058 0.950 . S
H1030 C1060 0.950 . S
H1031 C1061 0.950 . S
C1032 H1014 0.951 . S
C1032 C1033 1.366 . S
C1032 C1034 1.388 . S
C1033 C1032 1.366 . S
C1033 C1037 1.385 . S
C1034 H1015 0.951 . S
C1034 C1032 1.388 . S
C1034 C1035 1.366 . S
C1035 C1034 1.366 . S
C1035 C1036 1.414 . S
C1035 C1038 1.499 . S
C1036 H1016 0.950 . S
C1036 C1035 1.414 . S
C1036 C1037 1.374 . S
C1037 H1017 0.950 . S
C1037 C1033 1.385 . S
C1037 C1036 1.374 . S
C1038 C1035 1.499 . S
C1038 C1039 1.373 . S
C1038 C1040 1.389 . S
C1039 H1018 0.950 . S
C1039 C1038 1.373 . S
C1039 C1055 1.377 . S
C1040 C1038 1.389 . S
C1040 C1041 1.524 . S
C1040 C1054 1.377 . S
C1041 C1040 1.524 . S
C1041 C1042 1.397 . S
C1041 C1046 1.363 . S
C1042 H1019 0.950 . S
C1042 C1041 1.397 . S
C1042 C1043 1.334 . S
C1043 H1020 0.950 . S
C1043 C1042 1.334 . S
C1043 C1044 1.287 . S
C1044 C1043 1.287 . S
C1044 C1045 1.524 . S
C1044 H1063 0.913 . S
C1045 H1021 0.950 . S
C1045 C1044 1.524 . S
C1045 C1046 1.415 . S
C1046 H1022 0.950 . S
C1046 C1041 1.363 . S
C1046 C1045 1.415 . S
C1047 H1023 0.951 . S
C1047 C1048 1.366 1_554 S
C1047 C1049 1.388 . S
C1048 C1047 1.366 1_556 S
C1048 C1052 1.385 . S
C1049 H1024 0.951 . S
C1049 C1047 1.388 . S
C1049 C1050 1.366 . S
C1050 C1049 1.366 . S
C1050 C1051 1.414 1_554 S
C1050 C1053 1.499 . S
C1051 H1025 0.950 . S
C1051 C1050 1.414 1_556 S
C1051 C1052 1.374 . S
C1052 H1026 0.950 . S
C1052 C1048 1.385 . S
C1052 C1051 1.374 . S
C1053 C1050 1.499 . S
C1053 C1054 1.373 . S
C1053 C1055 1.389 . S
C1054 H1027 0.950 . S
C1054 C1040 1.377 . S
C1054 C1053 1.373 . S
C1055 C1039 1.377 . S
C1055 C1053 1.389 . S
C1055 C1056 1.524 . S
C1056 C1055 1.524 . S
C1056 C1057 1.397 . S
C1056 C1061 1.363 . S
C1057 H1028 0.950 . S
C1057 C1056 1.397 . S
C1057 C1058 1.334 . S
C1058 H1029 0.950 . S
C1058 C1057 1.334 . S
C1058 C1059 1.287 . S
C1059 C1058 1.287 . S
C1059 C1060 1.524 . S
C1059 H1062 0.999 . S
C1060 H1030 0.950 . S
C1060 C1059 1.524 . S
C1060 C1061 1.415 . S
C1061 H1031 0.950 . S
C1061 C1056 1.363 . S
C1061 C1060 1.415 . S
H1062 C1059 0.999 . S
H1063 C1044 0.913 . S
H1064 C1082 0.951 . S
H1065 C1084 0.951 . S
H1066 C1086 0.950 . S
H1067 C1087 0.950 . S
H1068 C1089 0.950 . S
H1069 C1092 0.950 . S
H1070 C1093 0.950 . S
H1071 C1095 0.950 . S
H1072 C1096 0.950 . S
H1073 C1097 0.951 . S
H1074 C1099 0.951 . S
H1075 C1101 0.950 . S
H1076 C1102 0.950 . S
H1077 C1104 0.950 . S
H1078 C1107 0.950 . S
H1079 C1108 0.950 . S
H1080 C1110 0.950 . S
H1081 C1111 0.950 . S
C1082 H1064 0.951 . S
C1082 C1083 1.325 1_655 S
C1082 C1084 1.388 . S
C1083 C1082 1.325 1_455 S
C1083 C1087 1.429 . S
C1084 H1065 0.951 . S
C1084 C1082 1.388 . S
C1084 C1085 1.366 1_655 S
C1085 C1084 1.366 1_455 S
C1085 C1086 1.414 . S
C1085 C1088 1.499 . S
C1086 H1066 0.950 . S
C1086 C1085 1.414 . S
C1086 C1087 1.374 . S
C1087 H1067 0.950 . S
C1087 C1083 1.429 . S
C1087 C1086 1.374 . S
C1088 C1085 1.499 . S
C1088 C1089 1.373 . S
C1088 C1090 1.389 1_455 S
C1089 H1068 0.950 . S
C1089 C1088 1.373 . S
C1089 C1105 1.377 . S
C1090 C1088 1.389 1_655 S
C1090 C1091 1.524 . S
C1090 C1104 1.377 . S
C1091 C1090 1.524 . S
C1091 C1092 1.397 1_556 S
C1091 C1096 1.363 . S
C1092 H1069 0.950 . S
C1092 C1091 1.397 1_554 S
C1092 C1093 1.334 . S
C1093 H1070 0.950 . S
C1093 C1092 1.334 . S
C1093 C1094 1.287 . S
C1094 C1093 1.287 . S
C1094 C1095 1.524 1_554 S
C1094 H1113 0.913 . S
C1095 H1071 0.950 . S
C1095 C1094 1.524 1_556 S
C1095 C1096 1.415 . S
C1096 H1072 0.950 . S
C1096 C1091 1.363 . S
C1096 C1095 1.415 . S
C1097 H1073 0.951 . S
C1097 C1098 1.366 . S
C1097 C1099 1.388 . S
C1098 C1097 1.366 . S
C1098 C1102 1.385 1_455 S
C1099 H1074 0.951 . S
C1099 C1097 1.388 . S
C1099 C1100 1.366 . S
C1100 C1099 1.366 . S
C1100 C1101 1.414 1_455 S
C1100 C1103 1.499 . S
C1101 H1075 0.950 . S
C1101 C1100 1.414 1_655 S
C1101 C1102 1.374 . S
C1102 H1076 0.950 . S
C1102 C1098 1.385 1_655 S
C1102 C1101 1.374 . S
C1103 C1100 1.499 . S
C1103 C1104 1.373 1_455 S
C1103 C1105 1.389 . S
C1104 H1077 0.950 . S
C1104 C1090 1.377 . S
C1104 C1103 1.373 1_655 S
C1105 C1089 1.377 . S
C1105 C1103 1.389 . S
C1105 C1106 1.524 . S
C1106 C1105 1.524 . S
C1106 C1107 1.397 . S
C1106 C1111 1.363 . S
C1107 H1078 0.950 . S
C1107 C1106 1.397 . S
C1107 C1108 1.334 . S
C1108 H1079 0.950 . S
C1108 C1107 1.334 . S
C1108 C1109 1.287 . S
C1109 C1108 1.287 . S
C1109 C1110 1.524 . S
C1109 H1112 0.999 . S
C1110 H1080 0.950 . S
C1110 C1109 1.524 . S
C1110 C1111 1.415 . S
C1111 H1081 0.950 . S
C1111 C1106 1.363 . S
C1111 C1110 1.415 . S
H1112 C1109 0.999 . S
H1113 C1094 0.913 . S
H1114 C1132 0.951 . S
H1115 C1134 0.951 . S
H1116 C1136 0.950 . S
H1117 C1137 0.950 1_554 S
H1118 C1139 0.950 . S
H1119 C1142 0.950 . S
H1120 C1143 0.950 . S
H1121 C1145 0.950 . S
H1122 C1146 0.950 . S
H1123 C1147 0.951 . S
H1124 C1149 0.951 . S
H1125 C1151 0.950 . S
H1126 C1152 0.950 . S
H1127 C1154 0.950 . S
H1128 C1157 0.950 . S
H1129 C1158 0.950 . S
H1130 C1160 0.950 . S
H1131 C1161 0.950 . S
C1132 H1114 0.951 . S
C1132 C1133 1.374 . S
C1132 C1134 1.388 . S
C1133 C1132 1.374 . S
C1133 C1137 1.379 1_545 S
C1134 H1115 0.951 . S
C1134 C1132 1.388 . S
C1134 C1135 1.366 . S
C1135 C1134 1.366 . S
C1135 C1136 1.414 1_545 S
C1135 C1138 1.499 . S
C1136 H1116 0.950 . S
C1136 C1135 1.414 1_565 S
C1136 C1137 1.374 . S
C1137 H1117 0.950 1_556 S
C1137 C1133 1.379 1_565 S
C1137 C1136 1.374 . S
C1138 C1135 1.499 . S
C1138 C1139 1.373 . S
C1138 C1140 1.389 1_545 S
C1139 H1118 0.950 . S
C1139 C1138 1.373 . S
C1139 C1155 1.377 . S
C1140 C1138 1.389 1_565 S
C1140 C1141 1.524 . S
C1140 C1154 1.377 . S
C1141 C1140 1.524 . S
C1141 C1142 1.397 . S
C1141 C1146 1.363 . S
C1142 H1119 0.950 . S
C1142 C1141 1.397 . S
C1142 C1143 1.334 . S
C1143 H1120 0.950 . S
C1143 C1142 1.334 . S
C1143 C1144 1.287 . S
C1144 C1143 1.287 . S
C1144 C1145 1.524 . S
C1144 H1163 0.913 . S
C1145 H1121 0.950 . S
C1145 C1144 1.524 . S
C1145 C1146 1.415 . S
C1146 H1122 0.950 . S
C1146 C1141 1.363 . S
C1146 C1145 1.415 . S
C1147 H1123 0.951 . S
C1147 C1148 1.366 . S
C1147 C1149 1.388 . S
C1148 C1147 1.366 . S
C1148 C1152 1.385 . S
C1149 H1124 0.951 . S
C1149 C1147 1.388 . S
C1149 C1150 1.366 . S
C1150 C1149 1.366 . S
C1150 C1151 1.414 . S
C1150 C1153 1.499 . S
C1151 H1125 0.950 . S
C1151 C1150 1.414 . S
C1151 C1152 1.374 . S
C1152 H1126 0.950 . S
C1152 C1148 1.385 . S
C1152 C1151 1.374 . S
C1153 C1150 1.499 . S
C1153 C1154 1.373 1_545 S
C1153 C1155 1.389 . S
C1154 H1127 0.950 . S
C1154 C1140 1.377 . S
C1154 C1153 1.373 1_565 S
C1155 C1139 1.377 . S
C1155 C1153 1.389 . S
C1155 C1156 1.524 . S
C1156 C1155 1.524 . S
C1156 C1157 1.397 . S
C1156 C1161 1.363 1_556 S
C1157 H1128 0.950 . S
C1157 C1156 1.397 . S
C1157 C1158 1.334 . S
C1158 H1129 0.950 . S
C1158 C1157 1.334 . S
C1158 C1159 1.287 1_556 S
C1159 C1158 1.287 1_554 S
C1159 C1160 1.524 . S
C1159 H1162 0.999 . S
C1160 H1130 0.950 . S
C1160 C1159 1.524 . S
C1160 C1161 1.415 . S
C1161 H1131 0.950 . S
C1161 C1156 1.363 1_554 S
C1161 C1160 1.415 . S
H1162 C1159 0.999 . S
H1163 C1144 0.913 . S
H1164 C1182 0.951 1_554 S
H1165 C1184 0.951 . S
H1166 C1186 0.950 . S
H1167 C1187 0.950 . S
H1168 C1189 0.950 . S
H1169 C1192 0.950 . S
H1170 C1193 0.950 . S
H1171 C1195 0.950 . S
H1172 C1196 0.950 . S
H1173 C1197 0.951 . S
H1174 C1199 0.951 . S
H1175 C1201 0.950 . S
H1176 C1202 0.950 . S
H1177 C1204 0.950 . S
H1178 C1207 0.950 . S
H1179 C1208 0.950 . S
H1180 C1210 0.950 . S
H1181 C1211 0.950 . S
C1182 H1164 0.951 1_556 S
C1182 C1183 1.366 . S
C1182 C1184 1.388 . S
C1183 C1182 1.366 . S
C1183 C1187 1.385 . S
C1184 H1165 0.951 . S
C1184 C1182 1.388 . S
C1184 C1185 1.366 . S
C1185 C1184 1.366 . S
C1185 C1186 1.414 . S
C1185 C1188 1.499 . S
C1186 H1166 0.950 . S
C1186 C1185 1.414 . S
C1186 C1187 1.374 . S
C1187 H1167 0.950 . S
C1187 C1183 1.385 . S
C1187 C1186 1.374 . S
C1188 C1185 1.499 . S
C1188 C1189 1.373 . S
C1188 C1190 1.389 . S
C1189 H1168 0.950 . S
C1189 C1188 1.373 . S
C1189 C1205 1.377 . S
C1190 C1188 1.389 . S
C1190 C1191 1.524 . S
C1190 C1204 1.377 . S
C1191 C1190 1.524 . S
C1191 C1192 1.397 . S
C1191 C1196 1.363 1_556 S
C1192 H1169 0.950 . S
C1192 C1191 1.397 . S
C1192 C1193 1.334 . S
C1193 H1170 0.950 . S
C1193 C1192 1.334 . S
C1193 C1194 1.287 1_556 S
C1194 C1193 1.287 1_554 S
C1194 C1195 1.524 . S
C1194 H1213 0.913 . S
C1195 H1171 0.950 . S
C1195 C1194 1.524 . S
C1195 C1196 1.415 . S
C1196 H1172 0.950 . S
C1196 C1191 1.363 1_554 S
C1196 C1195 1.415 . S
C1197 H1173 0.951 . S
C1197 C1198 1.366 . S
C1197 C1199 1.388 . S
C1198 C1197 1.366 . S
C1198 C1202 1.385 . S
C1199 H1174 0.951 . S
C1199 C1197 1.388 . S
C1199 C1200 1.366 . S
C1200 C1199 1.366 . S
C1200 C1201 1.414 . S
C1200 C1203 1.499 . S
C1201 H1175 0.950 . S
C1201 C1200 1.414 . S
C1201 C1202 1.374 . S
C1202 H1176 0.950 . S
C1202 C1198 1.385 . S
C1202 C1201 1.374 . S
C1203 C1200 1.499 . S
C1203 C1204 1.373 . S
C1203 C1205 1.389 . S
C1204 H1177 0.950 . S
C1204 C1190 1.377 . S
C1204 C1203 1.373 . S
C1205 C1189 1.377 . S
C1205 C1203 1.389 . S
C1205 C1206 1.524 . S
C1206 C1205 1.524 . S
C1206 C1207 1.397 . S
C1206 C1211 1.363 . S
C1207 H1178 0.950 . S
C1207 C1206 1.397 . S
C1207 C1208 1.334 . S
C1208 H1179 0.950 . S
C1208 C1207 1.334 . S
C1208 C1209 1.287 . S
C1209 C1208 1.287 . S
C1209 C1210 1.524 . S
C1209 H1212 0.999 . S
C1210 H1180 0.950 . S
C1210 C1209 1.524 . S
C1210 C1211 1.415 . S
C1211 H1181 0.950 . S
C1211 C1206 1.363 . S
C1211 C1210 1.415 . S
H1212 C1209 0.999 . S
H1213 C1194 0.913 . S
H1214 C1232 0.951 . S
H1215 C1234 0.951 . S
H1216 C1236 0.950 . S
H1217 C1237 0.950 1_554 S
H1218 C1239 0.950 . S
H1219 C1242 0.950 . S
H1220 C1243 0.950 . S
H1221 C1245 0.950 . S
H1222 C1246 0.950 . S
H1223 C1247 0.951 . S
H1224 C1249 0.951 . S
H1225 C1251 0.950 . S
H1226 C1252 0.950 . S
H1227 C1254 0.950 . S
H1228 C1257 0.950 . S
H1229 C1258 0.949 1_556 S
H1230 C1260 0.950 . S
H1231 C1261 0.950 . S
C1232 H1214 0.951 . S
C1232 C1233 1.366 . S
C1232 C1234 1.388 . S
C1233 C1232 1.366 . S
C1233 C1237 1.385 . S
C1234 H1215 0.951 . S
C1234 C1232 1.388 . S
C1234 C1235 1.366 . S
C1235 C1234 1.366 . S
C1235 C1236 1.414 . S
C1235 C1238 1.499 . S
C1236 H1216 0.950 . S
C1236 C1235 1.414 . S
C1236 C1237 1.374 . S
C1237 H1217 0.950 1_556 S
C1237 C1233 1.385 . S
C1237 C1236 1.374 . S
C1238 C1235 1.499 . S
C1238 C1239 1.373 . S
C1238 C1240 1.389 . S
C1239 H1218 0.950 . S
C1239 C1238 1.373 . S
C1239 C1255 1.377 . S
C1240 C1238 1.389 . S
C1240 C1241 1.524 . S
C1240 C1254 1.377 . S
C1241 C1240 1.524 . S
C1241 C1242 1.397 . S
C1241 C1246 1.363 . S
C1242 H1219 0.950 . S
C1242 C1241 1.397 . S
C1242 C1243 1.334 . S
C1243 H1220 0.950 . S
C1243 C1242 1.334 . S
C1243 C1244 1.287 . S
C1244 C1243 1.287 . S
C1244 C1245 1.524 . S
C1244 H1263 0.913 . S
C1245 H1221 0.950 . S
C1245 C1244 1.524 . S
C1245 C1246 1.415 . S
C1246 H1222 0.950 . S
C1246 C1241 1.363 . S
C1246 C1245 1.415 . S
C1247 H1223 0.951 . S
C1247 C1248 1.366 . S
C1247 C1249 1.388 . S
C1248 C1247 1.366 . S
C1248 C1252 1.385 . S
C1249 H1224 0.951 . S
C1249 C1247 1.388 . S
C1249 C1250 1.366 . S
C1250 C1249 1.366 . S
C1250 C1251 1.414 . S
C1250 C1253 1.499 . S
C1251 H1225 0.950 . S
C1251 C1250 1.414 . S
C1251 C1252 1.374 . S
C1252 H1226 0.950 . S
C1252 C1248 1.385 . S
C1252 C1251 1.374 . S
C1253 C1250 1.499 . S
C1253 C1254 1.373 . S
C1253 C1255 1.389 . S
C1254 H1227 0.950 . S
C1254 C1240 1.377 . S
C1254 C1253 1.373 . S
C1255 C1239 1.377 . S
C1255 C1253 1.389 . S
C1255 C1256 1.524 . S
C1256 C1255 1.524 . S
C1256 C1257 1.397 . S
C1256 C1261 1.363 1_556 S
C1257 H1228 0.950 . S
C1257 C1256 1.397 . S
C1257 C1258 1.330 1_556 S
C1258 H1229 0.949 1_554 S
C1258 C1257 1.330 1_554 S
C1258 C1259 1.292 . S
C1259 C1258 1.292 . S
C1259 C1260 1.524 . S
C1259 H1262 0.999 . S
C1260 H1230 0.950 . S
C1260 C1259 1.524 . S
C1260 C1261 1.415 . S
C1261 H1231 0.950 . S
C1261 C1256 1.363 1_554 S
C1261 C1260 1.415 . S
H1262 C1259 0.999 . S
H1263 C1244 0.913 . S
H1264 C1282 0.951 . S
H1265 C1284 0.951 . S
H1266 C1286 0.950 . S
H1267 C1287 0.950 . S
H1268 C1289 0.950 . S
H1269 C1292 0.950 1_655 S
H1270 C1293 0.974 . S
H1271 C1295 0.950 . S
H1272 C1296 0.950 . S
H1273 C1297 0.951 . S
H1274 C1299 0.951 . S
H1275 C1301 0.950 . S
H1276 C1302 0.950 . S
H1277 C1304 0.950 . S
H1278 C1307 0.950 1_455 S
H1279 C1308 0.950 . S
H1280 C1310 0.950 . S
H1281 C1311 0.950 . S
C1282 H1264 0.951 . S
C1282 C1283 1.324 1_455 S
C1282 C1284 1.388 . S
C1283 C1282 1.324 1_655 S
C1283 C1287 1.430 . S
C1284 H1265 0.951 . S
C1284 C1282 1.388 . S
C1284 C1285 1.366 1_455 S
C1285 C1284 1.366 1_655 S
C1285 C1286 1.414 . S
C1285 C1288 1.499 . S
C1286 H1266 0.950 . S
C1286 C1285 1.414 . S
C1286 C1287 1.374 . S
C1287 H1267 0.950 . S
C1287 C1283 1.430 . S
C1287 C1286 1.374 . S
C1288 C1285 1.499 . S
C1288 C1289 1.373 . S
C1288 C1290 1.389 1_655 S
C1289 H1268 0.950 . S
C1289 C1288 1.373 . S
C1289 C1305 1.377 . S
C1290 C1288 1.389 1_455 S
C1290 C1291 1.524 . S
C1290 C1304 1.377 . S
C1291 C1290 1.524 . S
C1291 C1292 1.397 . S
C1291 C1296 1.363 . S
C1292 H1269 0.950 1_455 S
C1292 C1291 1.397 . S
C1292 C1293 1.334 . S
C1293 H1270 0.974 . S
C1293 C1292 1.334 . S
C1293 C1294 1.287 . S
C1294 C1293 1.287 . S
C1294 C1295 1.524 . S
C1294 H1313 0.913 . S
C1295 H1271 0.950 . S
C1295 C1294 1.524 . S
C1295 C1296 1.415 . S
C1296 H1272 0.950 . S
C1296 C1291 1.363 . S
C1296 C1295 1.415 . S
C1297 H1273 0.951 . S
C1297 C1298 1.366 . S
C1297 C1299 1.388 . S
C1298 C1297 1.366 . S
C1298 C1302 1.385 1_655 S
C1299 H1274 0.951 . S
C1299 C1297 1.388 . S
C1299 C1300 1.366 . S
C1300 C1299 1.366 . S
C1300 C1301 1.414 1_655 S
C1300 C1303 1.499 . S
C1301 H1275 0.950 . S
C1301 C1300 1.414 1_455 S
C1301 C1302 1.374 . S
C1302 H1276 0.950 . S
C1302 C1298 1.385 1_455 S
C1302 C1301 1.374 . S
C1303 C1300 1.499 . S
C1303 C1304 1.373 1_655 S
C1303 C1305 1.389 . S
C1304 H1277 0.950 . S
C1304 C1290 1.377 . S
C1304 C1303 1.373 1_455 S
C1305 C1289 1.377 . S
C1305 C1303 1.389 . S
C1305 C1306 1.524 . S
C1306 C1305 1.524 . S
C1306 C1307 1.397 . S
C1306 C1311 1.363 . S
C1307 H1278 0.950 1_655 S
C1307 C1306 1.397 . S
C1307 C1308 1.334 . S
C1308 H1279 0.950 . S
C1308 C1307 1.334 . S
C1308 C1309 1.287 . S
C1309 C1308 1.287 . S
C1309 C1310 1.524 . S
C1309 H1312 0.999 . S
C1310 H1280 0.950 . S
C1310 C1309 1.524 . S
C1310 C1311 1.415 . S
C1311 H1281 0.950 . S
C1311 C1306 1.363 . S
C1311 C1310 1.415 . S
H1312 C1309 0.999 . S
H1313 C1294 0.913 . S
H1314 C1332 0.951 . S
H1315 C1334 0.951 . S
H1316 C1336 0.950 . S
H1317 C1337 0.950 . S
H1318 C1339 0.950 . S
H1319 C1342 0.950 . S
H1320 C1343 0.950 . S
H1321 C1345 0.950 . S
H1322 C1346 0.950 . S
H1323 C1347 0.951 . S
H1324 C1349 0.951 . S
H1325 C1351 0.950 1_545 S
H1326 C1352 0.950 1_545 S
H1327 C1354 0.950 . S
H1328 C1357 0.950 . S
H1329 C1358 0.950 . S
H1330 C1360 0.950 . S
H1331 C1361 0.950 . S
C1332 H1314 0.951 . S
C1332 C1333 1.357 1_545 S
C1332 C1334 1.388 . S
C1333 C1332 1.357 1_565 S
C1333 C1337 1.396 . S
C1334 H1315 0.951 . S
C1334 C1332 1.388 . S
C1334 C1335 1.366 1_545 S
C1335 C1334 1.366 1_565 S
C1335 C1336 1.414 . S
C1335 C1338 1.499 . S
C1336 H1316 0.950 . S
C1336 C1335 1.414 . S
C1336 C1337 1.374 . S
C1337 H1317 0.950 . S
C1337 C1333 1.396 . S
C1337 C1336 1.374 . S
C1338 C1335 1.499 . S
C1338 C1339 1.373 . S
C1338 C1340 1.389 1_565 S
C1339 H1318 0.950 . S
C1339 C1338 1.373 . S
C1339 C1355 1.377 . S
C1340 C1338 1.389 1_545 S
C1340 C1341 1.524 . S
C1340 C1354 1.377 . S
C1341 C1340 1.524 . S
C1341 C1342 1.397 . S
C1341 C1346 1.363 . S
C1342 H1319 0.950 . S
C1342 C1341 1.397 . S
C1342 C1343 1.334 . S
C1343 H1320 0.950 . S
C1343 C1342 1.334 . S
C1343 C1344 1.287 . S
C1344 C1343 1.287 . S
C1344 C1345 1.524 . S
C1344 H1363 0.913 . S
C1345 H1321 0.950 . S
C1345 C1344 1.524 . S
C1345 C1346 1.415 . S
C1346 H1322 0.950 . S
C1346 C1341 1.363 . S
C1346 C1345 1.415 . S
C1347 H1323 0.951 . S
C1347 C1348 1.366 . S
C1347 C1349 1.388 . S
C1348 C1347 1.366 . S
C1348 C1352 1.385 . S
C1349 H1324 0.951 . S
C1349 C1347 1.388 . S
C1349 C1350 1.366 . S
C1350 C1349 1.366 . S
C1350 C1351 1.414 . S
C1350 C1353 1.499 . S
C1351 H1325 0.950 1_565 S
C1351 C1350 1.414 . S
C1351 C1352 1.374 . S
C1352 H1326 0.950 1_565 S
C1352 C1348 1.385 . S
C1352 C1351 1.374 . S
C1353 C1350 1.499 . S
C1353 C1354 1.373 1_565 S
C1353 C1355 1.389 . S
C1354 H1327 0.950 . S
C1354 C1340 1.377 . S
C1354 C1353 1.373 1_545 S
C1355 C1339 1.377 . S
C1355 C1353 1.389 . S
C1355 C1356 1.524 . S
C1356 C1355 1.524 . S
C1356 C1357 1.397 . S
C1356 C1361 1.363 . S
C1357 H1328 0.950 . S
C1357 C1356 1.397 . S
C1357 C1358 1.334 . S
C1358 H1329 0.950 . S
C1358 C1357 1.334 . S
C1358 C1359 1.287 . S
C1359 C1358 1.287 . S
C1359 C1360 1.524 . S
C1359 H1362 0.999 . S
C1360 H1330 0.950 . S
C1360 C1359 1.524 . S
C1360 C1361 1.415 . S
C1361 H1331 0.950 . S
C1361 C1356 1.363 . S
C1361 C1360 1.415 . S
H1362 C1359 0.999 . S
H1363 C1344 0.913 . S
H1364 C1382 0.951 . S
H1365 C1384 0.951 . S
H1366 C1386 0.950 . S
H1367 C1387 0.950 . S
H1368 C1389 0.950 . S
H1369 C1392 0.950 . S
H1370 C1393 0.950 . S
H1371 C1395 0.950 . S
H1372 C1396 0.950 . S
H1373 C1397 0.951 . S
H1374 C1399 0.951 . S
H1375 C1401 0.950 . S
H1376 C1402 0.950 . S
H1377 C1404 0.950 . S
H1378 C1407 0.950 . S
H1379 C1408 0.950 . S
H1380 C1410 0.950 . S
H1381 C1411 0.950 . S
C1382 H1364 0.951 . S
C1382 C1383 1.366 . S
C1382 C1384 1.388 . S
C1383 C1382 1.366 . S
C1383 C1387 1.385 . S
C1384 H1365 0.951 . S
C1384 C1382 1.388 . S
C1384 C1385 1.366 . S
C1385 C1384 1.366 . S
C1385 C1386 1.414 . S
C1385 C1388 1.499 . S
C1386 H1366 0.950 . S
C1386 C1385 1.414 . S
C1386 C1387 1.374 . S
C1387 H1367 0.950 . S
C1387 C1383 1.385 . S
C1387 C1386 1.374 . S
C1388 C1385 1.499 . S
C1388 C1389 1.373 . S
C1388 C1390 1.389 . S
C1389 H1368 0.950 . S
C1389 C1388 1.373 . S
C1389 C1405 1.377 . S
C1390 C1388 1.389 . S
C1390 C1391 1.524 . S
C1390 C1404 1.377 . S
C1391 C1390 1.524 . S
C1391 C1392 1.397 . S
C1391 C1396 1.363 . S
C1392 H1369 0.950 . S
C1392 C1391 1.397 . S
C1392 C1393 1.334 . S
C1393 H1370 0.950 . S
C1393 C1392 1.334 . S
C1393 C1394 1.287 . S
C1394 C1393 1.287 . S
C1394 C1395 1.524 . S
C1394 H1413 0.913 . S
C1395 H1371 0.950 . S
C1395 C1394 1.524 . S
C1395 C1396 1.415 . S
C1396 H1372 0.950 . S
C1396 C1391 1.363 . S
C1396 C1395 1.415 . S
C1397 H1373 0.951 . S
C1397 C1398 1.366 . S
C1397 C1399 1.388 . S
C1398 C1397 1.366 . S
C1398 C1402 1.385 . S
C1399 H1374 0.951 . S
C1399 C1397 1.388 . S
C1399 C1400 1.366 . S
C1400 C1399 1.366 . S
C1400 C1401 1.414 . S
C1400 C1403 1.499 . S
C1401 H1375 0.950 . S
C1401 C1400 1.414 . S
C1401 C1402 1.374 . S
C1402 H1376 0.950 . S
C1402 C1398 1.385 . S
C1402 C1401 1.374 . S
C1403 C1400 1.499 . S
C1403 C1404 1.373 . S
C1403 C1405 1.389 . S
C1404 H1377 0.950 . S
C1404 C1390 1.377 . S
C1404 C1403 1.373 . S
C1405 C1389 1.377 . S
C1405 C1403 1.389 . S
C1405 C1406 1.524 . S
C1406 C1405 1.524 . S
C1406 C1407 1.397 . S
C1406 C1411 1.363 . S
C1407 H1378 0.950 . S
C1407 C1406 1.397 . S
C1407 C1408 1.334 . S
C1408 H1379 0.950 . S
C1408 C1407 1.334 . S
C1408 C1409 1.287 . S
C1409 C1408 1.287 . S
C1409 C1410 1.524 . S
C1409 H1412 0.999 . S
C1410 H1380 0.950 . S
C1410 C1409 1.524 . S
C1410 C1411 1.415 . S
C1411 H1381 0.950 . S
C1411 C1406 1.363 . S
C1411 C1410 1.415 . S
H1412 C1409 0.999 . S
H1413 C1394 0.913 . S
H1414 C1432 0.951 . S
H1415 C1434 0.951 . S
H1416 C1436 0.950 . S
H1417 C1437 0.950 . S
H1418 C1439 0.950 . S
H1419 C1442 0.950 . S
H1420 C1443 0.950 . S
H1421 C1445 0.950 . S
H1422 C1446 0.950 . S
H1423 C1447 0.951 . S
H1424 C1449 0.951 . S
H1425 C1451 0.950 . S
H1426 C1452 0.950 . S
H1427 C1454 0.950 . S
H1428 C1457 0.950 . S
H1429 C1458 0.950 . S
H1430 C1460 0.950 . S
H1431 C1461 0.950 . S
C1432 H1414 0.951 . S
C1432 C1433 1.366 . S
C1432 C1434 1.388 . S
C1433 C1432 1.366 . S
C1433 C1437 1.385 . S
C1434 H1415 0.951 . S
C1434 C1432 1.388 . S
C1434 C1435 1.366 . S
C1435 C1434 1.366 . S
C1435 C1436 1.414 . S
C1435 C1438 1.499 . S
C1436 H1416 0.950 . S
C1436 C1435 1.414 . S
C1436 C1437 1.374 . S
C1437 H1417 0.950 . S
C1437 C1433 1.385 . S
C1437 C1436 1.374 . S
C1438 C1435 1.499 . S
C1438 C1439 1.373 . S
C1438 C1440 1.389 . S
C1439 H1418 0.950 . S
C1439 C1438 1.373 . S
C1439 C1455 1.377 . S
C1440 C1438 1.389 . S
C1440 C1441 1.524 . S
C1440 C1454 1.377 . S
C1441 C1440 1.524 . S
C1441 C1442 1.397 . S
C1441 C1446 1.363 . S
C1442 H1419 0.950 . S
C1442 C1441 1.397 . S
C1442 C1443 1.334 . S
C1443 H1420 0.950 . S
C1443 C1442 1.334 . S
C1443 C1444 1.287 . S
C1444 C1443 1.287 . S
C1444 C1445 1.524 . S
C1444 H1463 0.913 . S
C1445 H1421 0.950 . S
C1445 C1444 1.524 . S
C1445 C1446 1.415 . S
C1446 H1422 0.950 . S
C1446 C1441 1.363 . S
C1446 C1445 1.415 . S
C1447 H1423 0.951 . S
C1447 C1448 1.366 . S
C1447 C1449 1.388 . S
C1448 C1447 1.366 . S
C1448 C1452 1.385 . S
C1449 H1424 0.951 . S
C1449 C1447 1.388 . S
C1449 C1450 1.366 . S
C1450 C1449 1.366 . S
C1450 C1451 1.414 . S
C1450 C1453 1.499 . S
C1451 H1425 0.950 . S
C1451 C1450 1.414 . S
C1451 C1452 1.374 . S
C1452 H1426 0.950 . S
C1452 C1448 1.385 . S
C1452 C1451 1.374 . S
C1453 C1450 1.499 . S
C1453 C1454 1.373 . S
C1453 C1455 1.389 . S
C1454 H1427 0.950 . S
C1454 C1440 1.377 . S
C1454 C1453 1.373 . S
C1455 C1439 1.377 . S
C1455 C1453 1.389 . S
C1455 C1456 1.524 . S
C1456 C1455 1.524 . S
C1456 C1457 1.397 . S
C1456 C1461 1.363 . S
C1457 H1428 0.950 . S
C1457 C1456 1.397 . S
C1457 C1458 1.334 . S
C1458 H1429 0.950 . S
C1458 C1457 1.334 . S
C1458 C1459 1.287 . S
C1459 C1458 1.287 . S
C1459 C1460 1.524 . S
C1459 H1462 0.999 . S
C1460 H1430 0.950 . S
C1460 C1459 1.524 . S
C1460 C1461 1.415 . S
C1461 H1431 0.950 . S
C1461 C1456 1.363 . S
C1461 C1460 1.415 . S
H1462 C1459 0.999 . S
H1463 C1444 0.913 . S
C283 C82 1.604 . S
C298 C113 1.805 1_545 S
C348 C153 1.819 . S
C333 C95 1.603 . S
C398 C193 1.822 . S
C383 C56 1.613 . S
C448 C233 1.813 1_455 S
C433 C69 1.610 . S
C498 C122 1.811 1_565 S
C483 C30 1.609 . S
C533 C43 1.615 . S
C548 C162 1.823 . S
C583 C4 1.618 . S
C598 C202 1.822 . S
C633 C17 1.610 1_655 S
C648 C242 1.813 1_655 S
C698 C119 0.325 . S
C683 C74 0.383 . S
C748 C159 0.331 . S
C733 C87 0.390 . S
C798 C199 0.339 . S
C783 C100 0.391 . S
C833 C61 0.387 . S
C848 C239 0.327 . S
C883 C22 0.384 1_655 S
C898 C110 0.324 . S
C948 C150 0.331 . S
C933 C35 0.384 1_565 S
C998 C190 0.341 . S
C983 C48 0.395 . S
C1033 C9 0.389 . S
C1048 C230 0.338 . S
C1083 C73 1.896 . S
C1098 C123 2.068 . S
C1133 C86 1.877 . S
C1148 C163 2.056 . S
C1198 C203 2.044 . S
C1183 C99 1.866 . S
C1248 C243 2.063 . S
C1233 C60 1.878 . S
C1283 C21 1.895 1_655 S
C1298 C114 2.083 . S
C1348 C154 2.055 . S
C1333 C34 1.877 1_565 S
C1398 C194 2.044 . S
C1383 C47 1.868 . S
C1433 C8 1.886 . S
C1448 C234 2.070 . S
