# Generated by pormake.
# Topology rtl, (3,6)-cn, num edge types: 1
# Building blocks:
#     Node 0, Type 0, BuildingBlock: VETTIZ_charged_linker_0, # of connection points: 3
#     Node 1, Type 0, BuildingBlock: VETTIZ_charged_linker_0, # of connection points: 3
#     Node 2, Type 0, BuildingBlock: VETTIZ_charged_linker_0, # of connection points: 3
#     Node 3, Type 0, BuildingBlock: VETTIZ_charged_linker_0, # of connection points: 3
#     Node 4, Type 1, BuildingBlock: KUMJIN_clean_sbu_1, # of connection points: 6
#     Node 5, Type 1, BuildingBlock: KUMJIN_clean_sbu_1, # of connection points: 6
#     Edge 6, Type (0, 1), BuildingBlock: XUDNAN_clean_linker_2, # of connection points: 2
#     Edge 7, Type (0, 1), BuildingBlock: XUDNAN_clean_linker_2, # of connection points: 2
#     Edge 8, Type (0, 1), BuildingBlock: XUDNAN_clean_linker_2, # of connection points: 2
#     Edge 9, Type (0, 1), BuildingBlock: XUDNAN_clean_linker_2, # of connection points: 2
#     Edge 10, Type (0, 1), BuildingBlock: XUDNAN_clean_linker_2, # of connection points: 2
#     Edge 11, Type (0, 1), BuildingBlock: XUDNAN_clean_linker_2, # of connection points: 2
#     Edge 12, Type (0, 1), BuildingBlock: XUDNAN_clean_linker_2, # of connection points: 2
#     Edge 13, Type (0, 1), BuildingBlock: XUDNAN_clean_linker_2, # of connection points: 2
#     Edge 14, Type (0, 1), BuildingBlock: XUDNAN_clean_linker_2, # of connection points: 2
#     Edge 15, Type (0, 1), BuildingBlock: XUDNAN_clean_linker_2, # of connection points: 2
#     Edge 16, Type (0, 1), BuildingBlock: XUDNAN_clean_linker_2, # of connection points: 2
#     Edge 17, Type (0, 1), BuildingBlock: XUDNAN_clean_linker_2, # of connection points: 2
# Relax obj value: 0.018
# Max RMSD: 0.097
# Mean RMSD: 0.057
data_MOF--net-rtl--node1-KUMJIN_clean_sbu_1--node2-VETTIZ_charged_linker_0--edge1-XUDNAN_clean_linker_2
_symmetry_space_group_name_H-M    P1
_symmetry_Int_Tables_number       1
_symmetry_cell_setting            triclinic
loop_
_symmetry_equiv_pos_as_xyz
'x, y, z'
_cell_length_a     39.475109
_cell_length_b     40.102909
_cell_length_c     35.193029
_cell_angle_alpha  80.143885
_cell_angle_beta   99.436447
_cell_angle_gamma 90.310047
loop_
_atom_site_label
_atom_site_type_symbol
_atom_site_fract_x
_atom_site_fract_y
_atom_site_fract_z
_atom_type_partial_charge
C0 C 0.18434 0.89204 0.87286 0.0
C1 C 0.15549 0.91399 0.8623 0.0
C2 C 0.14301 0.92821 0.89137 0.0
C3 C 0.18517 0.89499 0.94123 0.0
C4 C 0.19867 0.88286 0.9123 0.0
C5 C 0.22789 0.85792 0.92853 0.0
H6 H 0.31393 0.75149 0.08221 0.0
C7 C 0.20342 0.87735 0.97938 0.0
C8 C 0.22858 0.85576 0.97213 0.0
H9 H 0.33191 0.7697 0.9622 0.0
H10 H 0.28867 0.81381 0.94594 0.0
H11 H 0.31367 0.8307 0.08717 0.0
H12 H 0.23076 0.76238 0.06583 0.0
H13 H 0.22187 0.78636 0.10076 0.0
H14 H 0.25934 0.7589 0.11172 0.0
H15 H 0.30089 0.80081 0.12602 0.0
H16 H 0.28044 0.84217 0.11031 0.0
C17 C 0.26112 0.87335 0.9154 0.0
C18 C 0.21799 0.8239 0.91484 0.0
C19 C 0.1621 0.89437 0.10399 0.0
C20 C 0.17147 0.87942 0.14346 0.0
C21 C 0.19838 0.85486 0.15379 0.0
C22 C 0.21532 0.8451 0.12521 0.0
C23 C 0.20529 0.86 0.08581 0.0
C24 C 0.17922 0.88435 0.07586 0.0
C25 C 0.1715 0.89712 0.03259 0.0
C26 C 0.19771 0.87696 0.01823 0.0
C27 C 0.21729 0.85503 0.04945 0.0
C28 C 0.17841 0.93556 0.02521 0.0
C29 C 0.13409 0.88769 0.01769 0.0
C30 C 0.3089 0.76502 0.05243 0.0
C31 C 0.32609 0.75605 0.02332 0.0
C32 C 0.31843 0.77483 0.98506 0.0
C33 C 0.29346 0.80086 0.97563 0.0
C34 C 0.2759 0.80867 0.00467 0.0
C35 C 0.28442 0.79164 0.04259 0.0
C36 C 0.26494 0.80557 0.07011 0.0
C37 C 0.24269 0.83305 0.04207 0.0
C38 C 0.24879 0.83411 0.0037 0.0
C39 C 0.29114 0.82044 0.10027 0.0
C40 C 0.24313 0.77691 0.08841 0.0
H41 H 0.14651 0.92968 0.95184 0.0
H42 H 0.19475 0.88126 0.8509 0.0
H43 H 0.19107 0.81765 0.91841 0.0
H44 H 0.23386 0.80215 0.93175 0.0
H45 H 0.21994 0.82527 0.88348 0.0
H46 H 0.259 0.90144 0.90757 0.0
H47 H 0.26684 0.8636 0.88939 0.0
H48 H 0.28367 0.86842 0.93907 0.0
H49 H 0.14183 0.91358 0.09506 0.0
H50 H 0.20587 0.84263 0.18391 0.0
H51 H 0.23529 0.82604 0.13483 0.0
H52 H 0.20093 0.94173 0.04612 0.0
H53 H 0.15597 0.95054 0.02894 0.0
H54 H 0.18506 0.94461 0.99595 0.0
H55 H 0.12742 0.863 0.03424 0.0
H56 H 0.12983 0.88412 0.98689 0.0
H57 H 0.11543 0.90708 0.02129 0.0
H58 H 0.12079 0.94523 0.88376 0.0
C59 C 0.15776 0.91884 0.93084 0.0
C60 C 0.65474 0.66234 0.74542 0.0
C61 C 0.62821 0.63904 0.74914 0.0
C62 C 0.60905 0.62993 0.71519 0.0
C63 C 0.64411 0.66544 0.67494 0.0
C64 C 0.66192 0.67552 0.70811 0.0
C65 C 0.68874 0.7011 0.69873 0.0
H66 H 0.75913 0.80421 0.56114 0.0
C67 C 0.65862 0.68286 0.64091 0.0
C68 C 0.68436 0.70432 0.65452 0.0
H69 H 0.78772 0.79157 0.68746 0.0
H70 H 0.74572 0.74909 0.69488 0.0
H71 H 0.7663 0.72871 0.56335 0.0
H72 H 0.67663 0.79181 0.55199 0.0
H73 H 0.67007 0.76511 0.51637 0.0
H74 H 0.70511 0.79392 0.51673 0.0
H75 H 0.74437 0.74829 0.51628 0.0
H76 H 0.73305 0.7069 0.53938 0.0
C77 C 0.72448 0.68595 0.71909 0.0
C78 C 0.67903 0.73443 0.71135 0.0
C79 C 0.62201 0.64967 0.50734 0.0
C80 C 0.63361 0.65901 0.47126 0.0
C81 C 0.6572 0.68554 0.46756 0.0
C82 C 0.66946 0.70179 0.49912 0.0
C83 C 0.65872 0.69114 0.53525 0.0
C84 C 0.6352 0.66565 0.53889 0.0
C85 C 0.62767 0.65689 0.57998 0.0
C86 C 0.65169 0.68037 0.6006 0.0
C87 C 0.66948 0.7006 0.57412 0.0
C88 C 0.63774 0.61915 0.59546 0.0
C89 C 0.58939 0.66577 0.5794 0.0
C90 C 0.75701 0.79263 0.59065 0.0
C91 C 0.77686 0.80315 0.62356 0.0
C92 C 0.77224 0.78609 0.66108 0.0
C93 C 0.74791 0.76072 0.6656 0.0
C94 C 0.72832 0.75112 0.63242 0.0
C95 C 0.73387 0.76624 0.59577 0.0
C96 C 0.71429 0.74956 0.56395 0.0
C97 C 0.69415 0.72368 0.58747 0.0
C98 C 0.70209 0.72503 0.62754 0.0
C99 C 0.74064 0.73261 0.54445 0.0
C100 C 0.69028 0.77642 0.53548 0.0
H101 H 0.60177 0.63459 0.65348 0.0
H102 H 0.66958 0.67011 0.77103 0.0
H103 H 0.65102 0.74014 0.70239 0.0
H104 H 0.69187 0.7567 0.69768 0.0
H105 H 0.68515 0.73247 0.74363 0.0
H106 H 0.72518 0.65792 0.72152 0.0
H107 H 0.73105 0.69182 0.74912 0.0
H108 H 0.74518 0.69478 0.70238 0.0
H109 H 0.60345 0.62994 0.51129 0.0
H110 H 0.66722 0.69315 0.44062 0.0
H111 H 0.68736 0.72164 0.49434 0.0
H112 H 0.66297 0.61305 0.58779 0.0
H113 H 0.61838 0.60235 0.5824 0.0
H114 H 0.64083 0.61232 0.62755 0.0
H115 H 0.57955 0.68632 0.55459 0.0
H116 H 0.5853 0.67572 0.60579 0.0
H117 H 0.57297 0.64348 0.57635 0.0
H118 H 0.58858 0.61195 0.71742 0.0
C119 C 0.6169 0.64293 0.67815 0.0
C120 C 0.84942 0.12202 0.17545 0.0
C121 C 0.87755 0.09951 0.18149 0.0
C122 C 0.88748 0.08782 0.14939 0.0
C123 C 0.84212 0.1224 0.10544 0.0
C124 C 0.83218 0.13313 0.13736 0.0
C125 C 0.80273 0.1583 0.12583 0.0
H126 H 0.68769 0.25296 0.98615 0.0
C127 C 0.81992 0.14038 0.06979 0.0
C128 C 0.79682 0.16136 0.08165 0.0
H129 H 0.69989 0.24446 0.11187 0.0
H130 H 0.74727 0.20547 0.11992 0.0
H131 H 0.77088 0.25462 0.98236 0.0
H132 H 0.69935 0.1728 0.98592 0.0
H133 H 0.72542 0.16896 0.95076 0.0
H134 H 0.6977 0.20578 0.94406 0.0
H135 H 0.73813 0.25073 0.94155 0.0
H136 H 0.77911 0.22885 0.94905 0.0
C137 C 0.81506 0.19197 0.13904 0.0
C138 C 0.77175 0.14245 0.14383 0.0
C139 C 0.84005 0.12227 0.9358 0.0
C140 C 0.82514 0.13653 0.89738 0.0
C141 C 0.79776 0.1603 0.89181 0.0
C142 C 0.78564 0.16981 0.92389 0.0
C143 C 0.80113 0.15558 0.96208 0.0
C144 C 0.82781 0.13214 0.96747 0.0
C145 C 0.84189 0.12025 0.00998 0.0
C146 C 0.81925 0.14027 0.02932 0.0
C147 C 0.79532 0.16098 1.00117 0.0
C148 C 0.87999 0.13056 0.01751 0.0
C149 C 0.83622 0.08169 0.0197 0.0
C150 C 0.70087 0.24277 0.01529 0.0
C151 C 0.68975 0.25146 0.04848 0.0
C152 C 0.7075 0.23768 0.08591 0.0
C153 C 0.73516 0.21504 0.09055 0.0
C154 C 0.74554 0.20586 0.05743 0.0
C155 C 0.72872 0.21971 0.02051 0.0
C156 C 0.74364 0.2064 0.989 0.0
C157 C 0.77174 0.18212 0.0133 0.0
C158 C 0.77262 0.18217 0.05332 0.0
C159 C 0.7586 0.23658 0.96381 0.0
C160 C 0.71516 0.18763 0.96586 0.0
H161 H 0.87872 0.08956 0.08791 0.0
H162 H 0.84166 0.13158 0.1998 0.0
H163 H 0.77215 0.11442 0.14625 0.0
H164 H 0.74672 0.15075 0.12557 0.0
H165 H 0.77207 0.1482 0.17366 0.0
H166 H 0.8426 0.19603 0.13666 0.0
H167 H 0.81236 0.1919 0.16998 0.0
H168 H 0.80149 0.21455 0.12054 0.0
H169 H 0.86153 0.10444 0.94122 0.0
H170 H 0.78561 0.17148 0.86257 0.0
H171 H 0.7648 0.18802 0.91771 0.0
H172 H 0.88397 0.15523 0.99901 0.0
H173 H 0.89717 0.1114 0.01058 0.0
H174 H 0.88873 0.13456 0.0478 0.0
H175 H 0.81104 0.07491 0.00391 0.0
H176 H 0.83521 0.07279 0.05096 0.0
H177 H 0.85657 0.06707 0.01091 0.0
H178 H 0.9094 0.07064 0.15373 0.0
C179 C 0.86978 0.09903 0.11133 0.0
C180 C 0.35417 0.3389 0.3243 0.0
C181 C 0.3806 0.36224 0.32 0.0
C182 C 0.39925 0.37257 0.3535 0.0
C183 C 0.36375 0.3384 0.39437 0.0
C184 C 0.34646 0.32706 0.36172 0.0
C185 C 0.3197 0.30162 0.37187 0.0
H186 H 0.23712 0.21292 0.51013 0.0
C187 C 0.34842 0.32266 0.42851 0.0
C188 C 0.3228 0.30076 0.41566 0.0
H189 H 0.2254 0.20564 0.38751 0.0
H190 H 0.26686 0.24943 0.37775 0.0
H191 H 0.31888 0.21818 0.52458 0.0
H192 H 0.23723 0.29321 0.49731 0.0
H193 H 0.27036 0.30963 0.52791 0.0
H194 H 0.2505 0.27075 0.5461 0.0
H195 H 0.29095 0.22482 0.55819 0.0
H196 H 0.32947 0.24863 0.55486 0.0
C197 C 0.33032 0.26726 0.36223 0.0
C198 C 0.2842 0.31577 0.3496 0.0
C199 C 0.38571 0.35952 0.56013 0.0
C200 C 0.37401 0.35166 0.59627 0.0
C201 C 0.34797 0.32763 0.60013 0.0
C202 C 0.33381 0.31191 0.56879 0.0
C203 C 0.34544 0.32038 0.53283 0.0
C204 C 0.37095 0.34383 0.5289 0.0
C205 C 0.37919 0.35052 0.48805 0.0
C206 C 0.35422 0.32738 0.46814 0.0
C207 C 0.33468 0.3097 0.49459 0.0
C208 C 0.41709 0.33953 0.48987 0.0
C209 C 0.37094 0.38839 0.47099 0.0
C210 C 0.24314 0.22103 0.48107 0.0
C211 C 0.22806 0.20557 0.44965 0.0
C212 C 0.23701 0.21672 0.41238 0.0
C213 C 0.26108 0.2422 0.40673 0.0
C214 C 0.27657 0.25677 0.43867 0.0
C215 C 0.26727 0.24631 0.47498 0.0
C216 C 0.28642 0.26448 0.50561 0.0
C217 C 0.30943 0.28683 0.48197 0.0
C218 C 0.30349 0.28237 0.44273 0.0
C219 C 0.30746 0.23783 0.53779 0.0
C220 C 0.25997 0.28549 0.52038 0.0
H221 H 0.40573 0.3701 0.41485 0.0
H222 H 0.33981 0.33013 0.29907 0.0
H223 H 0.28164 0.34328 0.35025 0.0
H224 H 0.26258 0.30393 0.36272 0.0
H225 H 0.28078 0.31257 0.31848 0.0
H226 H 0.35877 0.26417 0.36656 0.0
H227 H 0.32019 0.26526 0.33136 0.0
H228 H 0.32191 0.24531 0.38172 0.0
H229 H 0.40582 0.37761 0.55606 0.0
H230 H 0.33779 0.32151 0.62718 0.0
H231 H 0.31401 0.29405 0.5737 0.0
H232 H 0.42511 0.3182 0.51441 0.0
H233 H 0.43473 0.3607 0.49432 0.0
H234 H 0.42136 0.32976 0.46345 0.0
H235 H 0.34674 0.39663 0.47938 0.0
H236 H 0.36659 0.39388 0.43877 0.0
H237 H 0.3918 0.40464 0.48221 0.0
H238 H 0.41964 0.39059 0.35082 0.0
C239 C 0.39094 0.36084 0.3906 0.0
Eu240 Eu 0.0122 0.96697 0.50327 0.0
C241 C 0.93336 0.09741 0.47305 0.0
N242 N 0.96567 0.09517 0.49395 0.0
C243 C 0.98106 0.14579 0.45429 0.0
C244 C 0.92409 0.12346 0.44063 0.0
C245 C 0.98922 0.11929 0.48594 0.0
C246 C 0.94848 0.14768 0.43126 0.0
C247 C 0.8759 0.07533 0.46307 0.0
C248 C 0.90974 0.07329 0.48399 0.0
C249 C 0.86686 0.10057 0.42994 0.0
C250 C 0.89088 0.12457 0.41876 0.0
Eu251 Eu 0.97811 0.04872 0.54533 0.0
N252 N 0.91931 0.04891 0.51606 0.0
C253 C 0.85181 0.05263 0.4768 0.0
C254 C 0.89494 0.02928 0.53174 0.0
C255 C 0.86119 0.03006 0.5118 0.0
H256 H 0.01453 0.11747 0.50348 0.0
H257 H 0.84227 0.0137 0.52387 0.0
H258 H 0.9519 0.90887 0.49282 0.0
H259 H 0.14617 0.9503 0.57601 0.0
H260 H 0.90098 0.01356 0.56012 0.0
H261 H 0.82556 0.05339 0.46159 0.0
H262 H 0.09593 0.98089 0.534 0.0
H263 H 0.99995 0.16457 0.4475 0.0
H264 H 0.84109 0.10223 0.41329 0.0
H265 H 0.88336 0.14419 0.3935 0.0
H266 H 0.94375 0.84818 0.51755 0.0
H267 H 0.94232 0.16809 0.40656 0.0
H268 H 0.141 0.89099 0.60793 0.0
N269 N 1.00168 0.90966 0.52615 0.0
C270 C 0.02797 0.89137 0.55041 0.0
C271 C 0.96711 0.86032 0.52782 0.0
C272 C 0.02431 0.85685 0.56544 0.0
C273 C 0.97174 0.8946 0.51407 0.0
C274 C 0.99324 0.84151 0.55415 0.0
N275 N 0.06213 0.9399 0.54321 0.0
C276 C 0.09322 0.95518 0.54795 0.0
C277 C 0.08735 0.88826 0.58297 0.0
C278 C 0.05917 0.90681 0.55899 0.0
C279 C 0.11877 0.90436 0.58962 0.0
C280 C 0.12179 0.93785 0.57169 0.0
H281 H 0.98954 0.81495 0.56466 0.0
H282 H 0.04955 0.81205 0.60226 0.0
H283 H 0.10471 0.83961 0.61776 0.0
O284 O 0.03804 0.97953 0.45225 0.0
O285 O 0.03014 0.96687 0.56767 0.0
O286 O 0.0121 0.01297 0.59273 0.0
O287 O 0.00763 0.93475 0.45863 0.0
O288 O 0.04388 0.01449 0.49807 0.0
O289 O 0.03494 0.05087 0.54119 0.0
O290 O 0.94892 0.06791 0.58563 0.0
O291 O 0.98553 0.05045 0.48255 0.0
O292 O 0.96558 0.99903 0.4738 0.0
O293 O 0.99797 0.09004 0.57539 0.0
O294 O 0.96033 0.99591 0.56735 0.0
O295 O 0.9573 0.96841 0.51451 0.0
C296 C 0.029 0.9841 0.5961 0.0
C297 C 0.05677 0.93192 0.42934 0.0
C298 C 0.08876 0.91527 0.38144 0.0
C299 C 0.1089 0.89279 0.41175 0.0
C300 C 0.07714 0.9092 0.45885 0.0
C301 C 0.10313 0.88992 0.45015 0.0
C302 C 0.06266 0.93496 0.39059 0.0
C303 C 0.05285 0.03977 0.51704 0.0
C304 C 0.02904 0.95186 0.43888 0.0
C305 C 0.05199 0.83853 0.59027 0.0
C306 C 0.08342 0.8542 0.59904 0.0
C307 C 0.97069 0.03049 0.45942 0.0
C308 C 0.96867 0.11397 0.62064 0.0
C309 C 0.94466 0.12977 0.67523 0.0
C310 C 0.96477 0.15892 0.67286 0.0
C311 C 0.98839 0.14324 0.61902 0.0
C312 C 0.94668 0.10739 0.64871 0.0
C313 C 0.98632 0.16558 0.64489 0.0
C314 C 0.94968 0.97075 0.54903 0.0
C315 C 0.97186 0.09019 0.59357 0.0
H316 H 0.12862 0.87672 0.40573 0.0
H317 H 0.07274 0.90595 0.48855 0.0
H318 H 0.11854 0.87233 0.47318 0.0
H319 H 0.04696 0.95254 0.36775 0.0
H320 H 0.96446 0.17632 0.69319 0.0
H321 H 0.00548 0.1489 0.59772 0.0
H322 H 0.93135 0.08485 0.65002 0.0
H323 H 1.00175 0.18801 0.64353 0.0
Eu324 Eu 0.46958 0.49193 0.99371 0.0
C325 C 0.62184 0.52074 0.06104 0.0
N326 N 0.60252 0.49478 0.07515 0.0
C327 C 0.64984 0.45576 0.08275 0.0
C328 C 0.65617 0.51497 0.057 0.0
C329 C 0.61595 0.46268 0.08635 0.0
C330 C 0.67003 0.48199 0.06798 0.0
C331 C 0.62633 0.58041 0.03456 0.0
C332 C 0.60695 0.55315 0.04969 0.0
C333 C 0.66056 0.5747 0.03065 0.0
C334 C 0.67541 0.54211 0.04179 0.0
Eu335 Eu 0.54571 0.50901 0.07951 0.0
N336 N 0.57342 0.55785 0.0529 0.0
C337 C 0.61071 0.61263 0.02376 0.0
C338 C 0.55857 0.58944 0.04394 0.0
C339 C 0.57679 0.61719 0.02879 0.0
H340 H 0.60065 0.44245 0.0985 0.0
H341 H 0.56476 0.64215 0.02133 0.0
H342 H 0.40747 0.55167 0.97424 0.0
H343 H 0.45997 0.35485 0.03894 0.0
H344 H 0.53294 0.59362 0.04895 0.0
H345 H 0.62473 0.63421 0.012 0.0
H346 H 0.48582 0.40703 0.01037 0.0
H347 H 0.6604 0.43023 0.09153 0.0
H348 H 0.67577 0.59534 0.01895 0.0
H349 H 0.70181 0.53813 0.03842 0.0
H350 H 0.34716 0.55801 0.98324 0.0
H351 H 0.69628 0.47652 0.06521 0.0
H352 H 0.40202 0.35708 0.05664 0.0
N353 N 0.41144 0.49963 0.99914 0.0
C354 C 0.39497 0.47178 0.01399 0.0
C355 C 0.3604 0.53369 0.99231 0.0
C356 C 0.36044 0.47403 0.01921 0.0
C357 C 0.39463 0.53019 0.9877 0.0
C358 C 0.34327 0.50554 0.00839 0.0
N359 N 0.44585 0.43945 0.01758 0.0
C360 C 0.46191 0.40885 0.02073 0.0
C361 C 0.39609 0.41139 0.03844 0.0
C362 C 0.41275 0.44087 0.02377 0.0
C363 C 0.4139 0.38031 0.04539 0.0
C364 C 0.44669 0.37897 0.03571 0.0
H365 H 0.31673 0.50831 0.01193 0.0
H366 H 0.31777 0.44619 0.03953 0.0
H367 H 0.34892 0.39133 0.05619 0.0
O368 O 0.47608 0.46832 0.94369 0.0
O369 O 0.45707 0.4889 0.05525 0.0
O370 O 0.50715 0.46926 0.09583 0.0
O371 O 0.43715 0.50734 0.93672 0.0
O372 O 0.51902 0.45907 0.00706 0.0
O373 O 0.53677 0.4546 0.0736 0.0
O374 O 0.54104 0.53596 0.12741 0.0
O375 O 0.55669 0.51319 0.01719 0.0
O376 O 0.50617 0.53377 0.97898 0.0
O377 O 0.57839 0.49505 0.13661 0.0
O378 O 0.49796 0.54277 0.06732 0.0
O379 O 0.47231 0.54697 1.00231 0.0
C380 C 0.4736 0.47347 0.08913 0.0
C381 C 0.42545 0.46365 0.89938 0.0
C382 C 0.40799 0.43553 0.84322 0.0
C383 C 0.38029 0.42147 0.86055 0.0
C384 C 0.39744 0.4496 0.91586 0.0
C385 C 0.37508 0.42858 0.89659 0.0
C386 C 0.43054 0.45672 0.86287 0.0
C387 C 0.53609 0.44329 0.04066 0.0
C388 C 0.45001 0.48455 0.92059 0.0
C389 C 0.3442 0.44491 0.03502 0.0
C390 C 0.36199 0.41368 0.04463 0.0
C391 C 0.53952 0.52929 0.98404 0.0
C392 C 0.59173 0.54 0.17189 0.0
C393 C 0.61008 0.56878 0.22731 0.0
C394 C 0.63784 0.5821 0.20963 0.0
C395 C 0.6199 0.55315 0.1551 0.0
C396 C 0.58704 0.54766 0.2082 0.0
C397 C 0.64273 0.57417 0.17381 0.0
C398 C 0.47732 0.55813 0.036 0.0
C399 C 0.56644 0.51932 0.15132 0.0
H400 H 0.36226 0.40547 0.84588 0.0
H401 H 0.39276 0.45486 0.94352 0.0
H402 H 0.35355 0.41787 0.90958 0.0
H403 H 0.45222 0.46743 0.85008 0.0
H404 H 0.65614 0.59814 0.22388 0.0
H405 H 0.62433 0.54722 0.12763 0.0
H406 H 0.56527 0.53759 0.22128 0.0
H407 H 0.66436 0.58426 0.16057 0.0
H408 H 0.17619 0.19907 0.49429 0.0
H409 H 0.22679 0.14687 0.41991 0.0
H410 H 0.1888 0.09847 0.43114 0.0
H411 H 0.16462 0.12511 0.56542 0.0
H412 H 0.12294 0.13875 0.57226 0.0
H413 H 0.15401 0.16965 0.55852 0.0
H414 H 0.11023 0.19683 0.49809 0.0
H415 H 0.07902 0.16608 0.51175 0.0
H416 H 0.09081 0.17081 0.46381 0.0
H417 H 0.14572 0.05609 0.44973 0.0
H418 H 0.09851 0.02263 0.47253 0.0
H419 H 0.07575 0.10113 0.53655 0.0
C420 C 0.17939 0.17737 0.48054 0.0
C421 C 0.20443 0.17686 0.45603 0.0
C422 C 0.20749 0.14812 0.43826 0.0
C423 C 0.18622 0.12037 0.44473 0.0
C424 C 0.16196 0.12164 0.46908 0.0
C425 C 0.15826 0.14939 0.48663 0.0
C426 C 0.12964 0.14432 0.51098 0.0
C427 C 0.14365 0.14446 0.55437 0.0
C428 C 0.10072 0.1711 0.49521 0.0
C429 C 0.1179 0.10939 0.50432 0.0
C430 C 0.13701 0.09687 0.48011 0.0
C431 C 0.13064 0.06556 0.46882 0.0
C432 C 0.10367 0.04669 0.48209 0.0
C433 C 0.08323 0.05905 0.50655 0.0
C434 C 0.09089 0.09074 0.51815 0.0
H435 H 0.34101 0.71247 0.97489 0.0
H436 H 0.37034 0.73455 0.0925 0.0
H437 H 0.41186 0.68672 0.10784 0.0
H438 H 0.34914 0.62294 0.99763 0.0
H439 H 0.36769 0.61871 0.95512 0.0
H440 H 0.3392 0.654 0.9536 0.0
H441 H 0.38613 0.69554 0.93295 0.0
H442 H 0.41466 0.66025 0.93445 0.0
H443 H 0.42806 0.69281 0.96285 0.0
H444 H 0.44868 0.63556 0.11129 0.0
H445 H 0.48045 0.58598 0.10208 0.0
H446 H 0.43303 0.6015 0.97967 0.0
C447 C 0.35644 0.70782 0.00375 0.0
C448 C 0.3519 0.72748 0.03251 0.0
C449 C 0.37242 0.71962 0.0701 0.0
C450 C 0.39643 0.69263 0.07904 0.0
C451 C 0.40016 0.67402 0.04995 0.0
C452 C 0.38107 0.68148 0.01293 0.0
C453 C 0.39074 0.65796 0.98673 0.0
C454 C 0.35985 0.63718 0.97245 0.0
C455 C 0.4058 0.67783 0.9522 0.0
C456 C 0.41792 0.63576 0.01506 0.0
C457 C 0.42271 0.64538 0.05141 0.0
C458 C 0.44535 0.62795 0.08287 0.0
C459 C 0.46332 0.59972 0.07721 0.0
C460 C 0.45892 0.58919 0.04019 0.0
C461 C 0.4364 0.6081 0.00855 0.0
H462 H 0.8071 0.82898 0.55799 0.0
H463 H 0.80559 0.84276 0.67801 0.0
H464 H 0.85048 0.88447 0.67219 0.0
H465 H 0.89336 0.84065 0.55221 0.0
H466 H 0.88549 0.86618 0.50388 0.0
H467 H 0.85466 0.83565 0.51874 0.0
H468 H 0.80789 0.88356 0.5017 0.0
H469 H 0.83939 0.91388 0.48767 0.0
H470 H 0.81441 0.9207 0.52428 0.0
H471 H 0.89811 0.92267 0.65498 0.0
H472 H 0.93983 0.95985 0.62487 0.0
H473 H 0.90366 0.92855 0.51332 0.0
C474 C 0.81522 0.8408 0.5832 0.0
C475 C 0.80266 0.83086 0.61901 0.0
C476 C 0.81529 0.84785 0.65068 0.0
C477 C 0.8407 0.87227 0.6476 0.0
C478 C 0.85257 0.88074 0.6122 0.0
C479 C 0.83949 0.86632 0.5802 0.0
C480 C 0.85508 0.8816 0.54469 0.0
C481 C 0.87328 0.85437 0.52902 0.0
C482 C 0.82755 0.90109 0.5127 0.0
C483 C 0.88038 0.90557 0.56238 0.0
C484 C 0.8784 0.90465 0.60139 0.0
C485 C 0.89961 0.92393 0.62434 0.0
C486 C 0.92325 0.94497 0.60691 0.0
C487 C 0.92538 0.94694 0.56675 0.0
C488 C 0.90341 0.92702 0.54424 0.0
H489 H 0.67461 0.31409 1.0018 0.0
H490 H 0.63686 0.23994 0.08911 0.0
H491 H 0.59099 0.28001 0.09284 0.0
H492 H 0.6623 0.38471 0.04387 0.0
H493 H 0.64799 0.4137 0.99904 0.0
H494 H 0.67587 0.3783 0.99912 0.0
H495 H 0.63206 0.35769 0.94534 0.0
H496 H 0.6042 0.39339 0.94446 0.0
H497 H 0.58823 0.35101 0.95272 0.0
H498 H 0.55544 0.3298 0.09503 0.0
H499 H 0.5269 0.38553 0.08943 0.0
H500 H 0.58343 0.42731 0.99726 0.0
C501 C 0.65603 0.30606 0.0208 0.0
C502 C 0.65936 0.274 0.04536 0.0
C503 C 0.63497 0.26452 0.07038 0.0
C504 C 0.60876 0.28704 0.07261 0.0
C505 C 0.60692 0.31888 0.04924 0.0
C506 C 0.62942 0.32832 0.02326 0.0
C507 C 0.62248 0.36482 0.00299 0.0
C508 C 0.65404 0.38666 0.01179 0.0
C509 C 0.61105 0.36683 0.95875 0.0
C510 C 0.59319 0.37445 0.02237 0.0
C511 C 0.58485 0.34752 0.04912 0.0
C512 C 0.56104 0.35086 0.07347 0.0
C513 C 0.54513 0.38253 0.07028 0.0
C514 C 0.55255 0.41017 0.04239 0.0
C515 C 0.57669 0.40611 0.01795 0.0
H516 H 0.19836 0.88968 0.21758 0.0
H517 H 0.10211 0.89008 0.13756 0.0
H518 H 0.07073 0.90464 0.18788 0.0
H519 H 0.16708 0.85018 0.30221 0.0
H520 H 0.19258 0.8744 0.33461 0.0
H521 H 0.20757 0.86676 0.2912 0.0
H522 H 0.21284 0.93138 0.26904 0.0
H523 H 0.1977 0.93922 0.31238 0.0
H524 H 0.17597 0.95893 0.26478 0.0
H525 H 0.04946 0.91525 0.24856 0.0
H526 H 0.04003 0.91951 0.31526 0.0
H527 H 0.15027 0.91321 0.35501 0.0
C528 C 0.17069 0.89288 0.21059 0.0
C529 C 0.15273 0.88889 0.17353 0.0
C530 C 0.11651 0.89354 0.16551 0.0
C531 C 0.09843 0.90172 0.19394 0.0
C532 C 0.11693 0.90534 0.23021 0.0
C533 C 0.15226 0.9011 0.23858 0.0
C534 C 0.16589 0.90488 0.28035 0.0
C535 C 0.18435 0.8721 0.30344 0.0
C536 C 0.18949 0.93542 0.28169 0.0
C537 C 0.13265 0.91111 0.29443 0.0
C538 C 0.1047 0.91159 0.26503 0.0
C539 C 0.07119 0.91533 0.27171 0.0
C540 C 0.06609 0.91796 0.30965 0.0
C541 C 0.09438 0.91671 0.34044 0.0
C542 C 0.12806 0.91399 0.33226 0.0
H543 H 0.5664 0.63317 0.77576 0.0
H544 H 0.67508 0.60817 0.8104 0.0
H545 H 0.66415 0.57779 0.87438 0.0
H546 H 0.55206 0.64719 0.87202 0.0
H547 H 0.50984 0.62944 0.86702 0.0
H548 H 0.52632 0.64974 0.82425 0.0
H549 H 0.51585 0.5953 0.79393 0.0
H550 H 0.49958 0.57478 0.83671 0.0
H551 H 0.53478 0.55562 0.82081 0.0
H552 H 0.64083 0.54599 0.93165 0.0
H553 H 0.60776 0.51992 0.98186 0.0
H554 H 0.51461 0.56967 0.9133 0.0
C555 C 0.58784 0.62141 0.79698 0.0
C556 C 0.62159 0.6229 0.78828 0.0
C557 C 0.64911 0.60749 0.81672 0.0
C558 C 0.64312 0.59007 0.85299 0.0
C559 C 0.60952 0.58874 0.86053 0.0
C560 C 0.58239 0.60441 0.83363 0.0
C561 C 0.54883 0.59939 0.84939 0.0
C562 C 0.53336 0.63347 0.85341 0.0
C563 C 0.52326 0.58012 0.82368 0.0
C564 C 0.5613 0.578 0.88907 0.0
C565 C 0.59635 0.57196 0.89469 0.0
C566 C 0.61353 0.55128 0.92801 0.0
C567 C 0.59449 0.5368 0.95663 0.0
C568 C 0.55878 0.54374 0.95245 0.0
C569 C 0.54199 0.56438 0.91787 0.0
H570 H 0.86937 0.04713 0.24025 0.0
H571 H 0.93131 0.13429 0.21091 0.0
H572 H 0.96385 0.12431 0.2784 0.0
H573 H 0.86257 0.05995 0.33615 0.0
H574 H 0.86543 0.0157 0.35765 0.0
H575 H 0.84836 0.0284 0.30654 0.0
H576 H 0.89356 0.98959 0.28868 0.0
H577 H 0.9107 0.97682 0.33982 0.0
H578 H 0.93853 0.99462 0.30616 0.0
H579 H 0.98683 0.10736 0.3492 0.0
H580 H 1.00059 0.08342 0.41931 0.0
H581 H 0.92453 0.00624 0.40372 0.0
C582 C 0.89021 0.06362 0.24811 0.0
C583 C 0.89838 0.09121 0.22071 0.0
C584 C 0.92522 0.11283 0.2317 0.0
C585 C 0.94369 0.10737 0.26984 0.0
C586 C 0.93498 0.0801 0.29644 0.0
C587 C 0.90906 0.05841 0.28613 0.0
C588 C 0.90432 0.03165 0.32086 0.0
C589 C 0.86801 0.03409 0.33088 0.0
C590 C 0.91225 0.99606 0.31343 0.0
C591 C 0.93126 0.04203 0.35235 0.0
C592 C 0.94861 0.07003 0.33752 0.0
C593 C 0.97367 0.08524 0.36108 0.0
C594 C 0.98119 0.07153 0.40091 0.0
C595 C 0.96369 0.04293 0.41687 0.0
C596 C 0.93863 0.02781 0.39215 0.0
H597 H 0.38578 0.32521 0.67481 0.0
H598 H 0.39204 0.41839 0.59297 0.0
H599 H 0.40937 0.44862 0.64822 0.0
H600 H 0.34552 0.36163 0.73851 0.0
H601 H 0.36693 0.33516 0.78241 0.0
H602 H 0.36088 0.31975 0.73677 0.0
H603 H 0.42641 0.30798 0.74488 0.0
H604 H 0.43269 0.32338 0.79068 0.0
H605 H 0.45583 0.34168 0.75237 0.0
H606 H 0.41988 0.47004 0.71245 0.0
H607 H 0.42021 0.48096 0.77964 0.0
H608 H 0.40458 0.37431 0.81874 0.0
C609 C 0.39107 0.35191 0.66835 0.0
C610 C 0.38763 0.36929 0.62937 0.0
C611 C 0.39511 0.40424 0.62246 0.0
C612 C 0.40486 0.42171 0.65371 0.0
C613 C 0.40711 0.40392 0.69173 0.0
C614 C 0.40045 0.36976 0.69911 0.0
C615 C 0.40142 0.35712 0.74233 0.0
C616 C 0.36662 0.34258 0.75046 0.0
C617 C 0.43085 0.331 0.75851 0.0
C618 C 0.40845 0.38974 0.75802 0.0
C619 C 0.41236 0.41636 0.72855 0.0
C620 C 0.41732 0.4493 0.73583 0.0
C621 C 0.41758 0.45526 0.77406 0.0
C622 C 0.41241 0.42848 0.80429 0.0
C623 C 0.40853 0.39526 0.79615 0.0
H624 H 0.62411 0.6836 0.39188 0.0
H625 H 0.61985 0.59111 0.47568 0.0
H626 H 0.60649 0.55918 0.42149 0.0
H627 H 0.55864 0.66323 0.31313 0.0
H628 H 0.58258 0.68152 0.27556 0.0
H629 H 0.58657 0.69808 0.32053 0.0
H630 H 0.65258 0.6883 0.33159 0.0
H631 H 0.6488 0.67175 0.28674 0.0
H632 H 0.66975 0.64668 0.33186 0.0
H633 H 0.59816 0.53627 0.35833 0.0
H634 H 0.59892 0.52413 0.29182 0.0
H635 H 0.61279 0.63071 0.25024 0.0
C636 C 0.62026 0.65667 0.39908 0.0
C637 C 0.62283 0.64013 0.43837 0.0
C638 C 0.61721 0.60478 0.446 0.0
C639 C 0.60979 0.58627 0.41534 0.0
C640 C 0.60823 0.60333 0.37712 0.0
C641 C 0.61345 0.63772 0.36893 0.0
C642 C 0.61356 0.64953 0.32572 0.0
C643 C 0.58354 0.67457 0.30768 0.0
C644 C 0.64823 0.66496 0.31858 0.0
C645 C 0.60841 0.61625 0.31101 0.0
C646 C 0.60473 0.58998 0.34095 0.0
C647 C 0.60073 0.55669 0.3346 0.0
C648 C 0.60108 0.55004 0.29677 0.0
C649 C 0.60593 0.57648 0.26603 0.0
C650 C 0.60913 0.61001 0.27327 0.0
H651 H 0.83746 0.17917 0.83146 0.0
H652 H 0.84509 0.07362 0.88709 0.0
H653 H 0.87249 0.05941 0.83341 0.0
H654 H 0.82007 0.1639 0.72959 0.0
H655 H 0.84536 0.19918 0.71253 0.0
H656 H 0.82367 0.20037 0.75355 0.0
H657 H 0.88149 0.21159 0.79568 0.0
H658 H 0.90336 0.21029 0.75493 0.0
H659 H 0.91733 0.18256 0.80082 0.0
H660 H 0.90302 0.05754 0.77589 0.0
H661 H 0.93484 0.0684 0.72027 0.0
H662 H 0.90563 0.1749 0.70145 0.0
C663 C 0.84412 0.15293 0.83191 0.0
C664 C 0.83902 0.1275 0.86348 0.0
C665 C 0.84897 0.09359 0.86338 0.0
C666 C 0.86434 0.08523 0.83288 0.0
C667 C 0.86949 0.11102 0.80252 0.0
C668 C 0.85953 0.14417 0.80174 0.0
C669 C 0.86971 0.16747 0.76703 0.0
C670 C 0.8378 0.18368 0.73901 0.0
C671 C 0.89444 0.19457 0.78043 0.0
C672 C 0.88767 0.14243 0.74889 0.0
C673 C 0.88699 0.10993 0.76951 0.0
C674 C 0.90331 0.08284 0.75922 0.0
C675 C 0.92118 0.08922 0.72741 0.0
C676 C 0.92277 0.1225 0.70632 0.0
C677 C 0.90518 0.1492 0.71703 0.0
H678 H 0.44284 0.36761 0.2945 0.0
H679 H 0.3342 0.39169 0.25737 0.0
H680 H 0.34607 0.422 0.19373 0.0
H681 H 0.47428 0.44504 0.25109 0.0
H682 H 0.5103 0.42654 0.23599 0.0
H683 H 0.49328 0.40539 0.27795 0.0
H684 H 0.48429 0.35125 0.2468 0.0
H685 H 0.5016 0.37217 0.20488 0.0
H686 H 0.45961 0.35401 0.19843 0.0
H687 H 0.37055 0.45506 0.13773 0.0
H688 H 0.40492 0.48259 0.08942 0.0
H689 H 0.49709 0.43234 0.15959 0.0
C690 C 0.42157 0.379 0.27274 0.0
C691 C 0.38759 0.3774 0.2807 0.0
C692 C 0.36034 0.39243 0.25161 0.0
C693 C 0.36687 0.40982 0.21554 0.0
C694 C 0.40072 0.41145 0.20884 0.0
C695 C 0.42757 0.39594 0.2363 0.0
C696 C 0.46155 0.4015 0.22166 0.0
C697 C 0.4863 0.42076 0.24826 0.0
C698 C 0.47771 0.36772 0.2177 0.0
C699 C 0.44968 0.42312 0.182 0.0
C700 C 0.41455 0.42878 0.17536 0.0
C701 C 0.39793 0.44994 0.14206 0.0
C702 C 0.41766 0.46521 0.1145 0.0
C703 C 0.45348 0.45849 0.11965 0.0
C704 C 0.46965 0.43743 0.15422 0.0
H705 H 0.13265 0.97388 0.81381 0.0
H706 H 0.13502 0.86486 0.82015 0.0
H707 H 0.10217 0.87143 0.75333 0.0
H708 H 0.04705 0.98939 0.75863 0.0
H709 H 0.05752 0.0281 0.729 0.0
H710 H 0.08104 0.0152 0.77769 0.0
H711 H 0.13821 0.01816 0.75018 0.0
H712 H 0.11485 0.03117 0.70144 0.0
H713 H 0.14321 0.99448 0.7122 0.0
H714 H 0.06756 0.88888 0.68804 0.0
H715 H 0.03599 0.91683 0.62471 0.0
H716 H 0.0586 0.01516 0.65715 0.0
C717 C 0.12614 0.9515 0.801 0.0
C718 C 0.13643 0.91887 0.82189 0.0
C719 C 0.1277 0.89008 0.80433 0.0
C720 C 0.1089 0.89353 0.76656 0.0
C721 C 0.09919 0.92596 0.74668 0.0
C722 C 0.10766 0.95451 0.76296 0.0
C723 C 0.09456 0.98639 0.73452 0.0
C724 C 0.06849 0.00592 0.75095 0.0
C725 C 0.1245 0.00887 0.72396 0.0
C726 C 0.07732 0.97115 0.6999 0.0
C727 C 0.08019 0.93623 0.70784 0.0
C728 C 0.06573 0.91623 0.68113 0.0
C729 C 0.04829 0.93236 0.64496 0.0
C730 C 0.04611 0.96811 0.63538 0.0
C731 C 0.06029 0.98777 0.66353 0.0
loop_
_geom_bond_atom_site_label_1
_geom_bond_atom_site_label_2
_geom_bond_distance
_geom_bond_site_symmetry_2
_ccdc_geom_bond_type
C0 C1 1.391 . S
C0 C4 1.391 . S
C0 H42 0.948 . S
C1 C0 1.391 . S
C1 C2 1.391 . S
C2 C1 1.391 . S
C2 H58 0.947 . S
C2 C59 1.392 . S
C3 C4 1.391 . S
C3 C7 1.397 . S
C3 C59 1.419 . S
C4 C0 1.391 . S
C4 C3 1.391 . S
C4 C5 1.399 . S
C5 C4 1.399 . S
C5 C8 1.396 . S
C5 C17 1.453 . S
C5 C18 1.684 . S
H6 C30 0.948 . S
C7 C3 1.397 . S
C7 C8 1.394 . S
C7 C26 1.723 1_556 S
C8 C5 1.396 . S
C8 C7 1.394 . S
C8 C38 1.723 1_556 S
H9 C32 0.947 . S
H10 C33 0.948 . S
H11 C39 0.982 . S
H12 C40 0.979 . S
H13 C40 0.980 . S
H14 C40 0.983 . S
H15 C39 0.979 . S
H16 C39 0.977 . S
C17 C5 1.453 . S
C17 H46 0.982 . S
C17 H47 0.979 . S
C17 H48 0.977 . S
C18 C5 1.684 . S
C18 H43 0.979 . S
C18 H44 0.980 . S
C18 H45 0.983 . S
C19 C20 1.391 . S
C19 C24 1.391 . S
C19 H49 0.948 . S
C20 C19 1.391 . S
C20 C21 1.391 . S
C21 C20 1.391 . S
C21 C22 1.392 . S
C21 H50 0.947 . S
C22 C21 1.392 . S
C22 C23 1.419 . S
C22 H51 0.948 . S
C23 C22 1.419 . S
C23 C24 1.391 . S
C23 C27 1.397 . S
C24 C19 1.391 . S
C24 C23 1.391 . S
C24 C25 1.399 . S
C25 C24 1.399 . S
C25 C26 1.396 . S
C25 C28 1.453 . S
C25 C29 1.684 . S
C26 C7 1.723 1_554 S
C26 C25 1.396 . S
C26 C27 1.394 . S
C27 C23 1.397 . S
C27 C26 1.394 . S
C27 C37 1.723 . S
C28 C25 1.453 . S
C28 H52 0.982 . S
C28 H53 0.979 . S
C28 H54 0.977 1_554 S
C29 C25 1.684 . S
C29 H55 0.979 . S
C29 H56 0.980 1_554 S
C29 H57 0.983 . S
C30 H6 0.948 . S
C30 C31 1.391 . S
C30 C35 1.391 . S
C31 C30 1.391 . S
C31 C32 1.391 1_554 S
C32 H9 0.947 . S
C32 C31 1.391 1_556 S
C32 C33 1.392 . S
C33 H10 0.948 . S
C33 C32 1.392 . S
C33 C34 1.419 1_556 S
C34 C33 1.419 1_554 S
C34 C35 1.391 . S
C34 C38 1.397 . S
C35 C30 1.391 . S
C35 C34 1.391 . S
C35 C36 1.399 . S
C36 C35 1.399 . S
C36 C37 1.396 . S
C36 C39 1.453 . S
C36 C40 1.684 . S
C37 C27 1.723 . S
C37 C36 1.396 . S
C37 C38 1.394 . S
C38 C8 1.723 1_554 S
C38 C34 1.397 . S
C38 C37 1.394 . S
C39 H11 0.982 . S
C39 H15 0.979 . S
C39 H16 0.977 . S
C39 C36 1.453 . S
C40 H12 0.979 . S
C40 H13 0.980 . S
C40 H14 0.983 . S
C40 C36 1.684 . S
H41 C59 0.948 . S
H42 C0 0.948 . S
H43 C18 0.979 . S
H44 C18 0.980 . S
H45 C18 0.983 . S
H46 C17 0.982 . S
H47 C17 0.979 . S
H48 C17 0.977 . S
H49 C19 0.948 . S
H50 C21 0.947 . S
H51 C22 0.948 . S
H52 C28 0.982 . S
H53 C28 0.979 . S
H54 C28 0.977 1_556 S
H55 C29 0.979 . S
H56 C29 0.980 1_556 S
H57 C29 0.983 . S
H58 C2 0.947 . S
C59 C2 1.392 . S
C59 C3 1.419 . S
C59 H41 0.948 . S
C60 C61 1.391 . S
C60 C64 1.391 . S
C60 H102 0.948 . S
C61 C60 1.391 . S
C61 C62 1.391 . S
C62 C61 1.391 . S
C62 H118 0.947 . S
C62 C119 1.392 . S
C63 C64 1.391 . S
C63 C67 1.397 . S
C63 C119 1.419 . S
C64 C60 1.391 . S
C64 C63 1.391 . S
C64 C65 1.399 . S
C65 C64 1.399 . S
C65 C68 1.396 . S
C65 C77 1.453 . S
C65 C78 1.684 . S
H66 C90 0.948 . S
C67 C63 1.397 . S
C67 C68 1.394 . S
C67 C86 1.723 . S
C68 C65 1.396 . S
C68 C67 1.394 . S
C68 C98 1.723 . S
H69 C92 0.947 . S
H70 C93 0.948 . S
H71 C99 0.982 . S
H72 C100 0.979 . S
H73 C100 0.980 . S
H74 C100 0.983 . S
H75 C99 0.979 . S
H76 C99 0.977 . S
C77 C65 1.453 . S
C77 H106 0.982 . S
C77 H107 0.979 . S
C77 H108 0.977 . S
C78 C65 1.684 . S
C78 H103 0.979 . S
C78 H104 0.980 . S
C78 H105 0.983 . S
C79 C80 1.391 . S
C79 C84 1.391 . S
C79 H109 0.948 . S
C80 C79 1.391 . S
C80 C81 1.391 . S
C81 C80 1.391 . S
C81 C82 1.392 . S
C81 H110 0.947 . S
C82 C81 1.392 . S
C82 C83 1.419 . S
C82 H111 0.948 . S
C83 C82 1.419 . S
C83 C84 1.391 . S
C83 C87 1.397 . S
C84 C79 1.391 . S
C84 C83 1.391 . S
C84 C85 1.399 . S
C85 C84 1.399 . S
C85 C86 1.396 . S
C85 C88 1.453 . S
C85 C89 1.684 . S
C86 C67 1.723 . S
C86 C85 1.396 . S
C86 C87 1.394 . S
C87 C83 1.397 . S
C87 C86 1.394 . S
C87 C97 1.723 . S
C88 C85 1.453 . S
C88 H112 0.982 . S
C88 H113 0.979 . S
C88 H114 0.977 . S
C89 C85 1.684 . S
C89 H115 0.979 . S
C89 H116 0.980 . S
C89 H117 0.983 . S
C90 H66 0.948 . S
C90 C91 1.391 . S
C90 C95 1.391 . S
C91 C90 1.391 . S
C91 C92 1.391 . S
C92 H69 0.947 . S
C92 C91 1.391 . S
C92 C93 1.392 . S
C93 H70 0.948 . S
C93 C92 1.392 . S
C93 C94 1.419 . S
C94 C93 1.419 . S
C94 C95 1.391 . S
C94 C98 1.397 . S
C95 C90 1.391 . S
C95 C94 1.391 . S
C95 C96 1.399 . S
C96 C95 1.399 . S
C96 C97 1.396 . S
C96 C99 1.453 . S
C96 C100 1.684 . S
C97 C87 1.723 . S
C97 C96 1.396 . S
C97 C98 1.394 . S
C98 C68 1.723 . S
C98 C94 1.397 . S
C98 C97 1.394 . S
C99 H71 0.982 . S
C99 H75 0.979 . S
C99 H76 0.977 . S
C99 C96 1.453 . S
C100 H72 0.979 . S
C100 H73 0.980 . S
C100 H74 0.983 . S
C100 C96 1.684 . S
H101 C119 0.948 . S
H102 C60 0.948 . S
H103 C78 0.979 . S
H104 C78 0.980 . S
H105 C78 0.983 . S
H106 C77 0.982 . S
H107 C77 0.979 . S
H108 C77 0.977 . S
H109 C79 0.948 . S
H110 C81 0.947 . S
H111 C82 0.948 . S
H112 C88 0.982 . S
H113 C88 0.979 . S
H114 C88 0.977 . S
H115 C89 0.979 . S
H116 C89 0.980 . S
H117 C89 0.983 . S
H118 C62 0.947 . S
C119 C62 1.392 . S
C119 C63 1.419 . S
C119 H101 0.948 . S
C120 C121 1.391 . S
C120 C124 1.391 . S
C120 H162 0.948 . S
C121 C120 1.391 . S
C121 C122 1.391 . S
C122 C121 1.391 . S
C122 H178 0.947 . S
C122 C179 1.392 . S
C123 C124 1.391 . S
C123 C127 1.397 . S
C123 C179 1.419 . S
C124 C120 1.391 . S
C124 C123 1.391 . S
C124 C125 1.399 . S
C125 C124 1.399 . S
C125 C128 1.396 . S
C125 C137 1.453 . S
C125 C138 1.684 . S
H126 C150 0.948 . S
C127 C123 1.397 . S
C127 C128 1.394 . S
C127 C146 1.723 . S
C128 C125 1.396 . S
C128 C127 1.394 . S
C128 C158 1.723 . S
H129 C152 0.947 . S
H130 C153 0.948 . S
H131 C159 0.982 . S
H132 C160 0.979 . S
H133 C160 0.980 . S
H134 C160 0.983 . S
H135 C159 0.979 . S
H136 C159 0.977 . S
C137 C125 1.453 . S
C137 H166 0.982 . S
C137 H167 0.979 . S
C137 H168 0.977 . S
C138 C125 1.684 . S
C138 H163 0.979 . S
C138 H164 0.980 . S
C138 H165 0.983 . S
C139 C140 1.391 . S
C139 C144 1.391 . S
C139 H169 0.948 . S
C140 C139 1.391 . S
C140 C141 1.391 . S
C141 C140 1.391 . S
C141 C142 1.392 . S
C141 H170 0.947 . S
C142 C141 1.392 . S
C142 C143 1.419 . S
C142 H171 0.948 . S
C143 C142 1.419 . S
C143 C144 1.391 . S
C143 C147 1.397 1_556 S
C144 C139 1.391 . S
C144 C143 1.391 . S
C144 C145 1.399 1_556 S
C145 C144 1.399 1_554 S
C145 C146 1.396 . S
C145 C148 1.453 . S
C145 C149 1.684 . S
C146 C127 1.723 . S
C146 C145 1.396 . S
C146 C147 1.394 . S
C147 C143 1.397 1_554 S
C147 C146 1.394 . S
C147 C157 1.723 . S
C148 C145 1.453 . S
C148 H172 0.982 . S
C148 H173 0.979 . S
C148 H174 0.977 . S
C149 C145 1.684 . S
C149 H175 0.979 . S
C149 H176 0.980 . S
C149 H177 0.983 . S
C150 H126 0.948 . S
C150 C151 1.391 1_556 S
C150 C155 1.391 1_556 S
C151 C150 1.391 1_554 S
C151 C152 1.391 . S
C152 H129 0.947 . S
C152 C151 1.391 . S
C152 C153 1.392 . S
C153 H130 0.948 . S
C153 C152 1.392 . S
C153 C154 1.419 . S
C154 C153 1.419 . S
C154 C155 1.391 . S
C154 C158 1.397 . S
C155 C150 1.391 1_554 S
C155 C154 1.391 . S
C155 C156 1.399 1_554 S
C156 C155 1.399 1_556 S
C156 C157 1.396 1_556 S
C156 C159 1.453 . S
C156 C160 1.684 . S
C157 C147 1.723 . S
C157 C156 1.396 1_554 S
C157 C158 1.394 . S
C158 C128 1.723 . S
C158 C154 1.397 . S
C158 C157 1.394 . S
C159 H131 0.982 . S
C159 H135 0.979 . S
C159 H136 0.977 . S
C159 C156 1.453 . S
C160 H132 0.979 . S
C160 H133 0.980 . S
C160 H134 0.983 . S
C160 C156 1.684 . S
H161 C179 0.948 . S
H162 C120 0.948 . S
H163 C138 0.979 . S
H164 C138 0.980 . S
H165 C138 0.983 . S
H166 C137 0.982 . S
H167 C137 0.979 . S
H168 C137 0.977 . S
H169 C139 0.948 . S
H170 C141 0.947 . S
H171 C142 0.948 . S
H172 C148 0.982 . S
H173 C148 0.979 . S
H174 C148 0.977 . S
H175 C149 0.979 . S
H176 C149 0.980 . S
H177 C149 0.983 . S
H178 C122 0.947 . S
C179 C122 1.392 . S
C179 C123 1.419 . S
C179 H161 0.948 . S
C180 C181 1.391 . S
C180 C184 1.391 . S
C180 H222 0.948 . S
C181 C180 1.391 . S
C181 C182 1.391 . S
C182 C181 1.391 . S
C182 H238 0.947 . S
C182 C239 1.392 . S
C183 C184 1.391 . S
C183 C187 1.397 . S
C183 C239 1.419 . S
C184 C180 1.391 . S
C184 C183 1.391 . S
C184 C185 1.399 . S
C185 C184 1.399 . S
C185 C188 1.396 . S
C185 C197 1.453 . S
C185 C198 1.684 . S
H186 C210 0.948 . S
C187 C183 1.397 . S
C187 C188 1.394 . S
C187 C206 1.723 . S
C188 C185 1.396 . S
C188 C187 1.394 . S
C188 C218 1.723 . S
H189 C212 0.947 . S
H190 C213 0.948 . S
H191 C219 0.982 . S
H192 C220 0.979 . S
H193 C220 0.980 . S
H194 C220 0.983 . S
H195 C219 0.979 . S
H196 C219 0.977 . S
C197 C185 1.453 . S
C197 H226 0.982 . S
C197 H227 0.979 . S
C197 H228 0.977 . S
C198 C185 1.684 . S
C198 H223 0.979 . S
C198 H224 0.980 . S
C198 H225 0.983 . S
C199 C200 1.391 . S
C199 C204 1.391 . S
C199 H229 0.948 . S
C200 C199 1.391 . S
C200 C201 1.391 . S
C201 C200 1.391 . S
C201 C202 1.392 . S
C201 H230 0.947 . S
C202 C201 1.392 . S
C202 C203 1.419 . S
C202 H231 0.948 . S
C203 C202 1.419 . S
C203 C204 1.391 . S
C203 C207 1.397 . S
C204 C199 1.391 . S
C204 C203 1.391 . S
C204 C205 1.399 . S
C205 C204 1.399 . S
C205 C206 1.396 . S
C205 C208 1.453 . S
C205 C209 1.684 . S
C206 C187 1.723 . S
C206 C205 1.396 . S
C206 C207 1.394 . S
C207 C203 1.397 . S
C207 C206 1.394 . S
C207 C217 1.723 . S
C208 C205 1.453 . S
C208 H232 0.982 . S
C208 H233 0.979 . S
C208 H234 0.977 . S
C209 C205 1.684 . S
C209 H235 0.979 . S
C209 H236 0.980 . S
C209 H237 0.983 . S
C210 H186 0.948 . S
C210 C211 1.391 . S
C210 C215 1.391 . S
C211 C210 1.391 . S
C211 C212 1.391 . S
C212 H189 0.947 . S
C212 C211 1.391 . S
C212 C213 1.392 . S
C213 H190 0.948 . S
C213 C212 1.392 . S
C213 C214 1.419 . S
C214 C213 1.419 . S
C214 C215 1.391 . S
C214 C218 1.397 . S
C215 C210 1.391 . S
C215 C214 1.391 . S
C215 C216 1.399 . S
C216 C215 1.399 . S
C216 C217 1.396 . S
C216 C219 1.453 . S
C216 C220 1.684 . S
C217 C207 1.723 . S
C217 C216 1.396 . S
C217 C218 1.394 . S
C218 C188 1.723 . S
C218 C214 1.397 . S
C218 C217 1.394 . S
C219 H191 0.982 . S
C219 H195 0.979 . S
C219 H196 0.977 . S
C219 C216 1.453 . S
C220 H192 0.979 . S
C220 H193 0.980 . S
C220 H194 0.983 . S
C220 C216 1.684 . S
H221 C239 0.948 . S
H222 C180 0.948 . S
H223 C198 0.979 . S
H224 C198 0.980 . S
H225 C198 0.983 . S
H226 C197 0.982 . S
H227 C197 0.979 . S
H228 C197 0.977 . S
H229 C199 0.948 . S
H230 C201 0.947 . S
H231 C202 0.948 . S
H232 C208 0.982 . S
H233 C208 0.979 . S
H234 C208 0.977 . S
H235 C209 0.979 . S
H236 C209 0.980 . S
H237 C209 0.983 . S
H238 C182 0.947 . S
C239 C182 1.392 . S
C239 C183 1.419 . S
C239 H221 0.948 . S
Eu240 N269 2.600 . S
Eu240 N275 2.562 . S
Eu240 O284 2.462 . S
Eu240 O285 2.373 . S
Eu240 O287 2.432 . S
Eu240 O288 2.291 1_565 S
Eu240 O292 2.335 1_455 S
Eu240 O295 2.372 1_455 S
Eu240 C304 2.787 . S
C241 N242 1.365 . S
C241 C244 1.405 . S
C241 C248 1.448 . S
N242 C241 1.365 . S
N242 C245 1.315 1_655 S
N242 Eu251 2.600 . S
C243 C245 1.397 1_655 S
C243 C246 1.367 . S
C243 H263 0.931 1_655 S
C244 C241 1.405 . S
C244 C246 1.403 . S
C244 C250 1.439 . S
C245 N242 1.315 1_455 S
C245 C243 1.397 1_455 S
C245 H256 0.933 . S
C246 C243 1.367 . S
C246 C244 1.403 . S
C246 H267 0.929 . S
C247 C248 1.430 . S
C247 C249 1.387 . S
C247 C253 1.404 . S
C248 C241 1.448 . S
C248 C247 1.430 . S
C248 N252 1.351 . S
C249 C247 1.387 . S
C249 C250 1.374 . S
C249 H264 0.931 . S
C250 C244 1.439 . S
C250 C249 1.374 . S
C250 H265 0.931 . S
Eu251 N242 2.600 . S
Eu251 N252 2.562 . S
Eu251 O286 2.335 1_655 S
Eu251 O289 2.372 1_655 S
Eu251 O290 2.462 . S
Eu251 O291 2.373 . S
Eu251 O293 2.432 . S
Eu251 O294 2.291 1_545 S
Eu251 C315 2.787 . S
N252 C248 1.351 . S
N252 Eu251 2.562 . S
N252 C254 1.325 . S
C253 C247 1.404 . S
C253 C255 1.366 . S
C253 H261 0.930 . S
C254 N252 1.325 . S
C254 C255 1.416 . S
C254 H260 0.929 . S
C255 C253 1.366 . S
C255 C254 1.416 . S
C255 H257 0.930 . S
H256 C245 0.933 . S
H257 C255 0.930 . S
H258 C273 0.930 1_655 S
H259 C280 0.930 . S
H260 C254 0.929 . S
H261 C253 0.930 . S
H262 C276 0.929 . S
H263 C243 0.931 1_455 S
H264 C249 0.931 . S
H265 C250 0.931 . S
H266 C271 0.931 1_655 S
H267 C246 0.929 . S
H268 C279 0.930 . S
N269 Eu240 2.600 . S
N269 C270 1.365 . S
N269 C273 1.319 . S
C270 N269 1.365 . S
C270 C272 1.405 . S
C270 C278 1.448 . S
C271 H266 0.931 1_455 S
C271 C273 1.397 . S
C271 C274 1.367 . S
C272 C270 1.405 . S
C272 C274 1.403 . S
C272 C305 1.439 . S
C273 H258 0.930 1_455 S
C273 N269 1.319 . S
C273 C271 1.397 . S
C274 C271 1.367 . S
C274 C272 1.403 . S
C274 H281 0.929 . S
N275 Eu240 2.562 . S
N275 C276 1.325 . S
N275 C278 1.351 . S
C276 H262 0.929 . S
C276 N275 1.325 . S
C276 C280 1.416 . S
C277 C278 1.430 . S
C277 C279 1.404 . S
C277 C306 1.387 . S
C278 C270 1.448 . S
C278 N275 1.351 . S
C278 C277 1.430 . S
C279 H268 0.930 . S
C279 C277 1.404 . S
C279 C280 1.366 . S
C280 H259 0.930 . S
C280 C276 1.416 . S
C280 C279 1.366 . S
H281 C274 0.929 . S
H282 C305 0.931 . S
H283 C306 0.931 . S
O284 Eu240 2.462 . S
O284 C304 1.252 . S
O285 Eu240 2.373 . S
O285 C296 1.249 . S
O286 Eu251 2.335 1_455 S
O286 C296 1.264 1_545 S
O287 Eu240 2.432 . S
O287 C304 1.268 . S
O288 Eu240 2.291 1_545 S
O288 C303 1.255 . S
O289 Eu251 2.372 1_455 S
O289 C303 1.257 . S
O290 Eu251 2.462 . S
O290 C315 1.252 . S
O291 Eu251 2.373 . S
O291 C307 1.249 . S
O292 Eu240 2.335 1_655 S
O292 C307 1.264 1_565 S
O293 Eu251 2.432 . S
O293 C315 1.268 . S
O294 Eu251 2.291 1_565 S
O294 C314 1.255 . S
O295 Eu240 2.372 1_655 S
O295 C314 1.257 . S
C296 O285 1.249 . S
C296 O286 1.264 1_565 S
C297 C300 1.382 . S
C297 C302 1.390 . S
C297 C304 1.506 . S
C298 C299 1.398 . S
C298 C302 1.392 . S
C299 C298 1.398 . S
C299 C301 1.372 . S
C299 H316 0.931 . S
C300 C297 1.382 . S
C300 C301 1.390 . S
C300 H317 0.931 . S
C301 C299 1.372 . S
C301 C300 1.390 . S
C301 H318 0.929 . S
C302 C297 1.390 . S
C302 C298 1.392 . S
C302 H319 0.930 . S
C303 O288 1.255 . S
C303 O289 1.257 . S
C304 Eu240 2.787 . S
C304 O284 1.252 . S
C304 O287 1.268 . S
C304 C297 1.506 . S
C305 C272 1.439 . S
C305 H282 0.931 . S
C305 C306 1.374 . S
C306 C277 1.387 . S
C306 H283 0.931 . S
C306 C305 1.374 . S
C307 O291 1.249 . S
C307 O292 1.264 1_545 S
C308 C311 1.382 . S
C308 C312 1.390 . S
C308 C315 1.506 . S
C309 C310 1.398 . S
C309 C312 1.392 . S
C310 C309 1.398 . S
C310 C313 1.372 . S
C310 H320 0.931 . S
C311 C308 1.382 . S
C311 C313 1.390 . S
C311 H321 0.931 . S
C312 C308 1.390 . S
C312 C309 1.392 . S
C312 H322 0.930 . S
C313 C310 1.372 . S
C313 C311 1.390 . S
C313 H323 0.929 . S
C314 O294 1.255 . S
C314 O295 1.257 . S
C315 Eu251 2.787 . S
C315 O290 1.252 . S
C315 O293 1.268 . S
C315 C308 1.506 . S
H316 C299 0.931 . S
H317 C300 0.931 . S
H318 C301 0.929 . S
H319 C302 0.930 . S
H320 C310 0.931 . S
H321 C311 0.931 . S
H322 C312 0.930 . S
H323 C313 0.929 . S
Eu324 N353 2.600 . S
Eu324 N359 2.562 1_556 S
Eu324 O368 2.462 . S
Eu324 O369 2.373 1_556 S
Eu324 O371 2.432 . S
Eu324 O372 2.291 1_556 S
Eu324 O376 2.335 . S
Eu324 O379 2.381 . S
Eu324 C388 2.787 . S
C325 N326 1.365 . S
C325 C328 1.405 . S
C325 C332 1.448 . S
N326 C325 1.365 . S
N326 C329 1.319 . S
N326 Eu335 2.600 . S
C327 C329 1.397 . S
C327 C330 1.367 . S
C327 H347 0.931 . S
C328 C325 1.405 . S
C328 C330 1.403 . S
C328 C334 1.439 . S
C329 N326 1.319 . S
C329 C327 1.397 . S
C329 H340 0.930 . S
C330 C327 1.367 . S
C330 C328 1.403 . S
C330 H351 0.929 . S
C331 C332 1.430 . S
C331 C333 1.387 . S
C331 C337 1.404 . S
C332 C325 1.448 . S
C332 C331 1.430 . S
C332 N336 1.351 . S
C333 C331 1.387 . S
C333 C334 1.374 . S
C333 H348 0.931 . S
C334 C328 1.439 . S
C334 C333 1.374 . S
C334 H349 0.931 . S
Eu335 N326 2.600 . S
Eu335 N336 2.562 . S
Eu335 O370 2.335 . S
Eu335 O373 2.372 . S
Eu335 O374 2.462 . S
Eu335 O375 2.373 1_554 S
Eu335 O377 2.432 . S
Eu335 O378 2.291 . S
Eu335 C399 2.787 . S
N336 C332 1.351 . S
N336 Eu335 2.562 . S
N336 C338 1.325 . S
C337 C331 1.404 . S
C337 C339 1.366 . S
C337 H345 0.930 . S
C338 N336 1.325 . S
C338 C339 1.416 . S
C338 H344 0.929 . S
C339 C337 1.366 . S
C339 C338 1.416 . S
C339 H341 0.930 . S
H340 C329 0.930 . S
H341 C339 0.930 . S
H342 C357 0.930 . S
H343 C364 0.930 . S
H344 C338 0.929 . S
H345 C337 0.930 . S
H346 C360 0.929 . S
H347 C327 0.931 . S
H348 C333 0.931 . S
H349 C334 0.931 . S
H350 C355 0.931 . S
H351 C330 0.929 . S
H352 C363 0.930 . S
N353 Eu324 2.600 . S
N353 C354 1.365 1_556 S
N353 C357 1.319 . S
C354 N353 1.365 1_554 S
C354 C356 1.405 . S
C354 C362 1.448 . S
C355 H350 0.931 . S
C355 C357 1.397 . S
C355 C358 1.367 1_556 S
C356 C354 1.405 . S
C356 C358 1.403 . S
C356 C389 1.439 . S
C357 H342 0.930 . S
C357 N353 1.319 . S
C357 C355 1.397 . S
C358 C355 1.367 1_554 S
C358 C356 1.403 . S
C358 H365 0.929 . S
N359 Eu324 2.562 1_554 S
N359 C360 1.325 . S
N359 C362 1.351 . S
C360 H346 0.929 . S
C360 N359 1.325 . S
C360 C364 1.416 . S
C361 C362 1.430 . S
C361 C363 1.404 . S
C361 C390 1.387 . S
C362 C354 1.448 . S
C362 N359 1.351 . S
C362 C361 1.430 . S
C363 H352 0.930 . S
C363 C361 1.404 . S
C363 C364 1.366 . S
C364 H343 0.930 . S
C364 C360 1.416 . S
C364 C363 1.366 . S
H365 C358 0.929 . S
H366 C389 0.931 . S
H367 C390 0.931 . S
O368 Eu324 2.462 . S
O368 C388 1.252 . S
O369 Eu324 2.373 1_554 S
O369 C380 1.249 . S
O370 Eu335 2.335 . S
O370 C380 1.264 . S
O371 Eu324 2.432 . S
O371 C388 1.268 . S
O372 Eu324 2.291 1_554 S
O372 C387 1.255 . S
O373 Eu335 2.372 . S
O373 C387 1.257 . S
O374 Eu335 2.462 . S
O374 C399 1.252 . S
O375 Eu335 2.373 1_556 S
O375 C391 1.249 . S
O376 Eu324 2.335 . S
O376 C391 1.264 . S
O377 Eu335 2.432 . S
O377 C399 1.268 . S
O378 Eu335 2.291 . S
O378 C398 1.255 . S
O379 Eu324 2.381 . S
O379 C398 1.237 1_556 S
C380 O369 1.249 . S
C380 O370 1.264 . S
C381 C384 1.382 . S
C381 C386 1.390 . S
C381 C388 1.506 . S
C382 C383 1.398 . S
C382 C386 1.392 . S
C383 C382 1.398 . S
C383 C385 1.372 . S
C383 H400 0.931 . S
C384 C381 1.382 . S
C384 C385 1.390 . S
C384 H401 0.931 . S
C385 C383 1.372 . S
C385 C384 1.390 . S
C385 H402 0.929 . S
C386 C381 1.390 . S
C386 C382 1.392 . S
C386 H403 0.930 . S
C387 O372 1.255 . S
C387 O373 1.257 . S
C388 Eu324 2.787 . S
C388 O368 1.252 . S
C388 O371 1.268 . S
C388 C381 1.506 . S
C389 C356 1.439 . S
C389 H366 0.931 . S
C389 C390 1.374 . S
C390 C361 1.387 . S
C390 H367 0.931 . S
C390 C389 1.374 . S
C391 O375 1.249 . S
C391 O376 1.264 . S
C392 C395 1.382 . S
C392 C396 1.390 . S
C392 C399 1.506 . S
C393 C394 1.398 . S
C393 C396 1.392 . S
C394 C393 1.398 . S
C394 C397 1.372 . S
C394 H404 0.931 . S
C395 C392 1.382 . S
C395 C397 1.390 . S
C395 H405 0.931 . S
C396 C392 1.390 . S
C396 C393 1.392 . S
C396 H406 0.930 . S
C397 C394 1.372 . S
C397 C395 1.390 . S
C397 H407 0.929 . S
C398 O378 1.255 . S
C398 O379 1.237 1_554 S
C399 Eu335 2.787 . S
C399 O374 1.252 . S
C399 O377 1.268 . S
C399 C392 1.506 . S
H400 C383 0.931 . S
H401 C384 0.931 . S
H402 C385 0.929 . S
H403 C386 0.930 . S
H404 C394 0.931 . S
H405 C395 0.931 . S
H406 C396 0.930 . S
H407 C397 0.929 . S
H408 C420 0.930 . S
H409 C422 0.930 . S
H410 C423 0.930 . S
H411 C427 0.959 . S
H412 C427 0.959 . S
H413 C427 0.961 . S
H414 C428 0.960 . S
H415 C428 0.961 . S
H416 C428 0.959 . S
H417 C431 0.929 . S
H418 C432 0.931 . S
H419 C434 0.930 . S
C420 H408 0.930 . S
C420 C421 1.399 . S
C420 C425 1.399 . S
C421 C420 1.399 . S
C421 C422 1.376 . S
C422 H409 0.930 . S
C422 C421 1.376 . S
C422 C423 1.388 . S
C423 H410 0.930 . S
C423 C422 1.388 . S
C423 C424 1.390 . S
C424 C423 1.390 . S
C424 C425 1.394 . S
C424 C430 1.465 . S
C425 C420 1.399 . S
C425 C424 1.394 . S
C425 C426 1.516 . S
C426 C425 1.516 . S
C426 C427 1.502 . S
C426 C428 1.561 . S
C426 C429 1.526 . S
C427 H411 0.959 . S
C427 H412 0.959 . S
C427 H413 0.961 . S
C427 C426 1.502 . S
C428 H414 0.960 . S
C428 H415 0.961 . S
C428 H416 0.959 . S
C428 C426 1.561 . S
C429 C426 1.526 . S
C429 C430 1.396 . S
C429 C434 1.390 . S
C430 C424 1.465 . S
C430 C429 1.396 . S
C430 C431 1.399 . S
C431 H417 0.929 . S
C431 C430 1.399 . S
C431 C432 1.385 . S
C432 H418 0.931 . S
C432 C431 1.385 . S
C432 C433 1.389 . S
C433 C432 1.389 . S
C433 C434 1.387 . S
C434 H419 0.930 . S
C434 C429 1.390 . S
C434 C433 1.387 . S
H435 C447 0.930 1_556 S
H436 C449 0.930 . S
H437 C450 0.930 . S
H438 C454 0.959 . S
H439 C454 0.959 . S
H440 C454 0.961 . S
H441 C455 0.960 . S
H442 C455 0.961 . S
H443 C455 0.959 . S
H444 C458 0.929 . S
H445 C459 0.931 . S
H446 C461 0.930 1_556 S
C447 H435 0.930 1_554 S
C447 C448 1.399 . S
C447 C452 1.399 . S
C448 C447 1.399 . S
C448 C449 1.376 . S
C449 H436 0.930 . S
C449 C448 1.376 . S
C449 C450 1.388 . S
C450 H437 0.930 . S
C450 C449 1.388 . S
C450 C451 1.390 . S
C451 C450 1.390 . S
C451 C452 1.394 . S
C451 C457 1.465 . S
C452 C447 1.399 . S
C452 C451 1.394 . S
C452 C453 1.516 1_554 S
C453 C452 1.516 1_556 S
C453 C454 1.502 . S
C453 C455 1.561 . S
C453 C456 1.526 1_556 S
C454 H438 0.959 . S
C454 H439 0.959 . S
C454 H440 0.961 . S
C454 C453 1.502 . S
C455 H441 0.960 . S
C455 H442 0.961 . S
C455 H443 0.959 . S
C455 C453 1.561 . S
C456 C453 1.526 1_554 S
C456 C457 1.396 . S
C456 C461 1.390 . S
C457 C451 1.465 . S
C457 C456 1.396 . S
C457 C458 1.399 . S
C458 H444 0.929 . S
C458 C457 1.399 . S
C458 C459 1.385 . S
C459 H445 0.931 . S
C459 C458 1.385 . S
C459 C460 1.389 . S
C460 C459 1.389 . S
C460 C461 1.387 . S
C461 H446 0.930 1_554 S
C461 C456 1.390 . S
C461 C460 1.387 . S
H462 C474 0.930 . S
H463 C476 0.930 . S
H464 C477 0.930 . S
H465 C481 0.959 . S
H466 C481 0.959 . S
H467 C481 0.961 . S
H468 C482 0.960 . S
H469 C482 0.961 . S
H470 C482 0.959 . S
H471 C485 0.929 . S
H472 C486 0.931 . S
H473 C488 0.930 . S
C474 H462 0.930 . S
C474 C475 1.399 . S
C474 C479 1.399 . S
C475 C474 1.399 . S
C475 C476 1.376 . S
C476 H463 0.930 . S
C476 C475 1.376 . S
C476 C477 1.388 . S
C477 H464 0.930 . S
C477 C476 1.388 . S
C477 C478 1.390 . S
C478 C477 1.390 . S
C478 C479 1.394 . S
C478 C484 1.465 . S
C479 C474 1.399 . S
C479 C478 1.394 . S
C479 C480 1.516 . S
C480 C479 1.516 . S
C480 C481 1.502 . S
C480 C482 1.561 . S
C480 C483 1.526 . S
C481 H465 0.959 . S
C481 H466 0.959 . S
C481 H467 0.961 . S
C481 C480 1.502 . S
C482 H468 0.960 . S
C482 H469 0.961 . S
C482 H470 0.959 . S
C482 C480 1.561 . S
C483 C480 1.526 . S
C483 C484 1.396 . S
C483 C488 1.390 . S
C484 C478 1.465 . S
C484 C483 1.396 . S
C484 C485 1.399 . S
C485 H471 0.929 . S
C485 C484 1.399 . S
C485 C486 1.385 . S
C486 H472 0.931 . S
C486 C485 1.385 . S
C486 C487 1.389 . S
C487 C486 1.389 . S
C487 C488 1.387 . S
C488 H473 0.930 . S
C488 C483 1.390 . S
C488 C487 1.387 . S
H489 C501 0.930 . S
H490 C503 0.930 . S
H491 C504 0.930 . S
H492 C508 0.959 . S
H493 C508 0.959 . S
H494 C508 0.961 . S
H495 C509 0.960 . S
H496 C509 0.961 . S
H497 C509 0.959 . S
H498 C512 0.929 . S
H499 C513 0.931 . S
H500 C515 0.913 1_556 S
C501 H489 0.930 . S
C501 C502 1.399 1_556 S
C501 C506 1.399 1_556 S
C502 C501 1.399 1_554 S
C502 C503 1.376 . S
C503 H490 0.930 . S
C503 C502 1.376 . S
C503 C504 1.388 . S
C504 H491 0.930 . S
C504 C503 1.388 . S
C504 C505 1.390 . S
C505 C504 1.390 . S
C505 C506 1.394 . S
C505 C511 1.465 . S
C506 C501 1.399 1_554 S
C506 C505 1.394 . S
C506 C507 1.516 1_554 S
C507 C506 1.516 1_556 S
C507 C508 1.502 . S
C507 C509 1.561 . S
C507 C510 1.526 1_556 S
C508 H492 0.959 . S
C508 H493 0.959 . S
C508 H494 0.961 . S
C508 C507 1.502 . S
C509 H495 0.960 . S
C509 H496 0.961 . S
C509 H497 0.959 . S
C509 C507 1.561 . S
C510 C507 1.526 1_554 S
C510 C511 1.396 . S
C510 C515 1.387 . S
C511 C505 1.465 . S
C511 C510 1.396 . S
C511 C512 1.399 . S
C512 H498 0.929 . S
C512 C511 1.399 . S
C512 C513 1.385 . S
C513 H499 0.931 . S
C513 C512 1.385 . S
C513 C514 1.389 . S
C514 C513 1.389 . S
C514 C515 1.406 . S
C515 H500 0.913 1_554 S
C515 C510 1.387 . S
C515 C514 1.406 . S
H516 C528 0.930 . S
H517 C530 0.930 . S
H518 C531 0.930 . S
H519 C535 0.959 . S
H520 C535 0.959 . S
H521 C535 0.961 . S
H522 C536 0.960 . S
H523 C536 0.961 . S
H524 C536 0.959 . S
H525 C539 0.929 . S
H526 C540 0.931 . S
H527 C542 0.930 . S
C528 H516 0.930 . S
C528 C529 1.399 . S
C528 C533 1.399 . S
C529 C528 1.399 . S
C529 C530 1.376 . S
C530 H517 0.930 . S
C530 C529 1.376 . S
C530 C531 1.388 . S
C531 H518 0.930 . S
C531 C530 1.388 . S
C531 C532 1.390 . S
C532 C531 1.390 . S
C532 C533 1.394 . S
C532 C538 1.465 . S
C533 C528 1.399 . S
C533 C532 1.394 . S
C533 C534 1.516 . S
C534 C533 1.516 . S
C534 C535 1.502 . S
C534 C536 1.561 1_565 S
C534 C537 1.526 . S
C535 H519 0.959 . S
C535 H520 0.959 . S
C535 H521 0.961 . S
C535 C534 1.502 . S
C536 H522 0.960 . S
C536 H523 0.961 . S
C536 H524 0.959 . S
C536 C534 1.561 1_545 S
C537 C534 1.526 . S
C537 C538 1.396 . S
C537 C542 1.390 . S
C538 C532 1.465 . S
C538 C537 1.396 . S
C538 C539 1.399 . S
C539 H525 0.929 . S
C539 C538 1.399 . S
C539 C540 1.385 . S
C540 H526 0.931 . S
C540 C539 1.385 . S
C540 C541 1.389 . S
C541 C540 1.389 . S
C541 C542 1.387 . S
C542 H527 0.930 . S
C542 C537 1.390 . S
C542 C541 1.387 . S
H543 C555 0.930 . S
H544 C557 0.930 . S
H545 C558 0.930 . S
H546 C562 0.959 . S
H547 C562 0.959 . S
H548 C562 0.961 . S
H549 C563 0.960 . S
H550 C563 0.961 . S
H551 C563 0.959 . S
H552 C566 0.929 . S
H553 C567 0.931 . S
H554 C569 0.930 . S
C555 H543 0.930 . S
C555 C556 1.399 . S
C555 C560 1.399 . S
C556 C555 1.399 . S
C556 C557 1.376 . S
C557 H544 0.930 . S
C557 C556 1.376 . S
C557 C558 1.388 . S
C558 H545 0.930 . S
C558 C557 1.388 . S
C558 C559 1.390 . S
C559 C558 1.390 . S
C559 C560 1.394 . S
C559 C565 1.465 . S
C560 C555 1.399 . S
C560 C559 1.394 . S
C560 C561 1.516 . S
C561 C560 1.516 . S
C561 C562 1.502 . S
C561 C563 1.561 . S
C561 C564 1.526 . S
C562 H546 0.959 . S
C562 H547 0.959 . S
C562 H548 0.961 . S
C562 C561 1.502 . S
C563 H549 0.960 . S
C563 H550 0.961 . S
C563 H551 0.959 . S
C563 C561 1.561 . S
C564 C561 1.526 . S
C564 C565 1.396 . S
C564 C569 1.390 . S
C565 C559 1.465 . S
C565 C564 1.396 . S
C565 C566 1.399 . S
C566 H552 0.929 . S
C566 C565 1.399 . S
C566 C567 1.385 . S
C567 H553 0.931 . S
C567 C566 1.385 . S
C567 C568 1.389 . S
C568 C567 1.389 . S
C568 C569 1.387 . S
C569 H554 0.930 . S
C569 C564 1.390 . S
C569 C568 1.387 . S
H570 C582 0.930 . S
H571 C584 0.930 . S
H572 C585 0.930 . S
H573 C589 0.959 . S
H574 C589 0.959 . S
H575 C589 0.961 . S
H576 C590 0.960 . S
H577 C590 0.961 . S
H578 C590 0.959 . S
H579 C593 0.929 . S
H580 C594 0.931 . S
H581 C596 0.930 . S
C582 H570 0.930 . S
C582 C583 1.399 . S
C582 C587 1.399 . S
C583 C582 1.399 . S
C583 C584 1.376 . S
C584 H571 0.930 . S
C584 C583 1.376 . S
C584 C585 1.388 . S
C585 H572 0.930 . S
C585 C584 1.388 . S
C585 C586 1.390 . S
C586 C585 1.390 . S
C586 C587 1.394 . S
C586 C592 1.465 . S
C587 C582 1.399 . S
C587 C586 1.394 . S
C587 C588 1.516 . S
C588 C587 1.516 . S
C588 C589 1.502 . S
C588 C590 1.561 1_545 S
C588 C591 1.526 . S
C589 H573 0.959 . S
C589 H574 0.959 . S
C589 H575 0.961 . S
C589 C588 1.502 . S
C590 H576 0.960 . S
C590 H577 0.961 . S
C590 H578 0.959 . S
C590 C588 1.561 1_565 S
C591 C588 1.526 . S
C591 C592 1.396 . S
C591 C596 1.390 . S
C592 C586 1.465 . S
C592 C591 1.396 . S
C592 C593 1.399 . S
C593 H579 0.929 . S
C593 C592 1.399 . S
C593 C594 1.385 . S
C594 H580 0.931 . S
C594 C593 1.385 . S
C594 C595 1.389 . S
C595 C594 1.389 . S
C595 C596 1.387 . S
C596 H581 0.930 . S
C596 C591 1.390 . S
C596 C595 1.387 . S
H597 C609 0.930 . S
H598 C611 0.930 . S
H599 C612 0.930 . S
H600 C616 0.959 . S
H601 C616 0.959 . S
H602 C616 0.961 . S
H603 C617 0.960 . S
H604 C617 0.961 . S
H605 C617 0.959 . S
H606 C620 0.929 . S
H607 C621 0.931 . S
H608 C623 0.930 . S
C609 H597 0.930 . S
C609 C610 1.399 . S
C609 C614 1.399 . S
C610 C609 1.399 . S
C610 C611 1.376 . S
C611 H598 0.930 . S
C611 C610 1.376 . S
C611 C612 1.388 . S
C612 H599 0.930 . S
C612 C611 1.388 . S
C612 C613 1.390 . S
C613 C612 1.390 . S
C613 C614 1.394 . S
C613 C619 1.465 . S
C614 C609 1.399 . S
C614 C613 1.394 . S
C614 C615 1.516 . S
C615 C614 1.516 . S
C615 C616 1.502 . S
C615 C617 1.561 . S
C615 C618 1.526 . S
C616 H600 0.959 . S
C616 H601 0.959 . S
C616 H602 0.961 . S
C616 C615 1.502 . S
C617 H603 0.960 . S
C617 H604 0.961 . S
C617 H605 0.959 . S
C617 C615 1.561 . S
C618 C615 1.526 . S
C618 C619 1.396 . S
C618 C623 1.390 . S
C619 C613 1.465 . S
C619 C618 1.396 . S
C619 C620 1.399 . S
C620 H606 0.929 . S
C620 C619 1.399 . S
C620 C621 1.385 . S
C621 H607 0.931 . S
C621 C620 1.385 . S
C621 C622 1.389 . S
C622 C621 1.389 . S
C622 C623 1.387 . S
C623 H608 0.930 . S
C623 C618 1.390 . S
C623 C622 1.387 . S
H624 C636 0.930 . S
H625 C638 0.930 . S
H626 C639 0.930 . S
H627 C643 0.959 . S
H628 C643 0.959 . S
H629 C643 0.961 . S
H630 C644 0.960 . S
H631 C644 0.961 . S
H632 C644 0.959 . S
H633 C647 0.929 . S
H634 C648 0.931 . S
H635 C650 0.930 . S
C636 H624 0.930 . S
C636 C637 1.399 . S
C636 C641 1.399 . S
C637 C636 1.399 . S
C637 C638 1.376 . S
C638 H625 0.930 . S
C638 C637 1.376 . S
C638 C639 1.388 . S
C639 H626 0.930 . S
C639 C638 1.388 . S
C639 C640 1.390 . S
C640 C639 1.390 . S
C640 C641 1.394 . S
C640 C646 1.465 . S
C641 C636 1.399 . S
C641 C640 1.394 . S
C641 C642 1.516 . S
C642 C641 1.516 . S
C642 C643 1.502 . S
C642 C644 1.561 . S
C642 C645 1.526 . S
C643 H627 0.959 . S
C643 H628 0.959 . S
C643 H629 0.961 . S
C643 C642 1.502 . S
C644 H630 0.960 . S
C644 H631 0.961 . S
C644 H632 0.959 . S
C644 C642 1.561 . S
C645 C642 1.526 . S
C645 C646 1.396 . S
C645 C650 1.390 . S
C646 C640 1.465 . S
C646 C645 1.396 . S
C646 C647 1.399 . S
C647 H633 0.929 . S
C647 C646 1.399 . S
C647 C648 1.385 . S
C648 H634 0.931 . S
C648 C647 1.385 . S
C648 C649 1.389 . S
C649 C648 1.389 . S
C649 C650 1.387 . S
C650 H635 0.930 . S
C650 C645 1.390 . S
C650 C649 1.387 . S
H651 C663 0.930 . S
H652 C665 0.930 . S
H653 C666 0.930 . S
H654 C670 0.959 . S
H655 C670 0.959 . S
H656 C670 0.961 . S
H657 C671 0.960 . S
H658 C671 0.961 . S
H659 C671 0.959 . S
H660 C674 0.929 1_565 S
H661 C675 0.931 1_565 S
H662 C677 0.930 . S
C663 H651 0.930 . S
C663 C664 1.399 . S
C663 C668 1.399 . S
C664 C663 1.399 . S
C664 C665 1.376 . S
C665 H652 0.930 . S
C665 C664 1.376 . S
C665 C666 1.388 . S
C666 H653 0.930 . S
C666 C665 1.388 . S
C666 C667 1.390 . S
C667 C666 1.390 . S
C667 C668 1.394 . S
C667 C673 1.465 . S
C668 C663 1.399 . S
C668 C667 1.394 . S
C668 C669 1.516 . S
C669 C668 1.516 . S
C669 C670 1.502 . S
C669 C671 1.561 . S
C669 C672 1.526 . S
C670 H654 0.959 . S
C670 H655 0.959 . S
C670 H656 0.961 . S
C670 C669 1.502 . S
C671 H657 0.960 . S
C671 H658 0.961 . S
C671 H659 0.959 . S
C671 C669 1.561 . S
C672 C669 1.526 . S
C672 C673 1.396 . S
C672 C677 1.390 . S
C673 C667 1.465 . S
C673 C672 1.396 . S
C673 C674 1.399 . S
C674 H660 0.929 1_545 S
C674 C673 1.399 . S
C674 C675 1.385 . S
C675 H661 0.931 1_545 S
C675 C674 1.385 . S
C675 C676 1.389 . S
C676 C675 1.389 . S
C676 C677 1.387 . S
C677 H662 0.930 . S
C677 C672 1.390 . S
C677 C676 1.387 . S
H678 C690 0.930 . S
H679 C692 0.930 . S
H680 C693 0.930 . S
H681 C697 0.959 . S
H682 C697 0.959 . S
H683 C697 0.961 . S
H684 C698 0.960 . S
H685 C698 0.961 . S
H686 C698 0.959 . S
H687 C701 0.929 . S
H688 C702 0.931 . S
H689 C704 0.930 . S
C690 H678 0.930 . S
C690 C691 1.399 . S
C690 C695 1.399 . S
C691 C690 1.399 . S
C691 C692 1.376 . S
C692 H679 0.930 . S
C692 C691 1.376 . S
C692 C693 1.388 . S
C693 H680 0.930 . S
C693 C692 1.388 . S
C693 C694 1.390 . S
C694 C693 1.390 . S
C694 C695 1.394 . S
C694 C700 1.465 . S
C695 C690 1.399 . S
C695 C694 1.394 . S
C695 C696 1.516 . S
C696 C695 1.516 . S
C696 C697 1.502 . S
C696 C698 1.561 . S
C696 C699 1.526 . S
C697 H681 0.959 . S
C697 H682 0.959 . S
C697 H683 0.961 . S
C697 C696 1.502 . S
C698 H684 0.960 . S
C698 H685 0.961 . S
C698 H686 0.959 . S
C698 C696 1.561 . S
C699 C696 1.526 . S
C699 C700 1.396 . S
C699 C704 1.390 . S
C700 C694 1.465 . S
C700 C699 1.396 . S
C700 C701 1.399 . S
C701 H687 0.929 . S
C701 C700 1.399 . S
C701 C702 1.385 . S
C702 H688 0.931 . S
C702 C701 1.385 . S
C702 C703 1.389 . S
C703 C702 1.389 . S
C703 C704 1.387 . S
C704 H689 0.930 . S
C704 C699 1.390 . S
C704 C703 1.387 . S
H705 C717 0.930 . S
H706 C719 0.930 . S
H707 C720 0.930 . S
H708 C724 0.959 . S
H709 C724 0.959 1_545 S
H710 C724 0.959 . S
H711 C725 0.960 . S
H712 C725 0.961 . S
H713 C725 0.959 . S
H714 C728 0.929 . S
H715 C729 0.931 . S
H716 C731 0.930 1_545 S
C717 H705 0.930 . S
C717 C718 1.399 . S
C717 C722 1.399 . S
C718 C717 1.399 . S
C718 C719 1.376 . S
C719 H706 0.930 . S
C719 C718 1.376 . S
C719 C720 1.388 . S
C720 H707 0.930 . S
C720 C719 1.388 . S
C720 C721 1.390 . S
C721 C720 1.390 . S
C721 C722 1.394 . S
C721 C727 1.465 . S
C722 C717 1.399 . S
C722 C721 1.394 . S
C722 C723 1.516 . S
C723 C722 1.516 . S
C723 C724 1.502 . S
C723 C725 1.561 1_565 S
C723 C726 1.526 . S
C724 H708 0.959 . S
C724 H709 0.959 1_565 S
C724 H710 0.959 . S
C724 C723 1.502 . S
C725 H711 0.960 . S
C725 H712 0.961 . S
C725 H713 0.959 . S
C725 C723 1.561 1_545 S
C726 C723 1.526 . S
C726 C727 1.396 . S
C726 C731 1.390 . S
C727 C721 1.465 . S
C727 C726 1.396 . S
C727 C728 1.399 . S
C728 H714 0.929 . S
C728 C727 1.399 . S
C728 C729 1.385 . S
C729 H715 0.931 . S
C729 C728 1.385 . S
C729 C730 1.389 . S
C730 C729 1.389 . S
C730 C731 1.387 . S
C731 H716 0.930 1_565 S
C731 C726 1.390 . S
C731 C730 1.387 . S
C433 C303 1.635 . S
C421 C211 1.618 . S
C448 C31 1.587 . S
C460 C398 1.630 . S
C475 C91 1.639 . S
C487 C314 1.636 . S
C502 C151 1.575 . S
C514 C387 1.595 . S
C541 C298 1.358 . S
C529 C20 1.501 . S
C568 C391 1.605 . S
C556 C61 1.530 . S
C583 C121 1.582 . S
C595 C307 1.613 . S
C610 C200 1.519 . S
C622 C382 1.400 . S
C649 C393 1.382 . S
C637 C80 1.528 . S
C676 C309 1.446 . S
C664 C140 1.560 . S
C703 C380 1.601 . S
C691 C181 1.506 . S
C718 C1 1.576 . S
C730 C296 1.617 . S
