# Generated by pormake.
# Topology pth, (4,4)-cn, num edge types: 1
# Building blocks:
#     Node 0, Type 0, BuildingBlock: NAHDIM_clean_sbu_0, # of connection points: 4
#     Node 1, Type 0, BuildingBlock: NAHDIM_clean_sbu_0, # of connection points: 4
#     Node 2, Type 0, BuildingBlock: NAHDIM_clean_sbu_0, # of connection points: 4
#     Node 3, Type 1, BuildingBlock: MUDLON_clean_linker_0, # of connection points: 4
#     Node 4, Type 1, BuildingBlock: MUDLON_clean_linker_0, # of connection points: 4
#     Node 5, Type 1, BuildingBlock: MUDLON_clean_linker_0, # of connection points: 4
#     Edge 6, Type (0, 1), BuildingBlock: XUDNAN_clean_linker_2, # of connection points: 2
#     Edge 7, Type (0, 1), BuildingBlock: XUDNAN_clean_linker_2, # of connection points: 2
#     Edge 8, Type (0, 1), BuildingBlock: XUDNAN_clean_linker_2, # of connection points: 2
#     Edge 9, Type (0, 1), BuildingBlock: XUDNAN_clean_linker_2, # of connection points: 2
#     Edge 10, Type (0, 1), BuildingBlock: XUDNAN_clean_linker_2, # of connection points: 2
#     Edge 11, Type (0, 1), BuildingBlock: XUDNAN_clean_linker_2, # of connection points: 2
#     Edge 12, Type (0, 1), BuildingBlock: XUDNAN_clean_linker_2, # of connection points: 2
#     Edge 13, Type (0, 1), BuildingBlock: XUDNAN_clean_linker_2, # of connection points: 2
#     Edge 14, Type (0, 1), BuildingBlock: XUDNAN_clean_linker_2, # of connection points: 2
#     Edge 15, Type (0, 1), BuildingBlock: XUDNAN_clean_linker_2, # of connection points: 2
#     Edge 16, Type (0, 1), BuildingBlock: XUDNAN_clean_linker_2, # of connection points: 2
#     Edge 17, Type (0, 1), BuildingBlock: XUDNAN_clean_linker_2, # of connection points: 2
# Relax obj value: 0.057
# Max RMSD: 0.170
# Mean RMSD: 0.116
data_MOF--net-pth--node1-NAHDIM_clean_sbu_0--node2-MUDLON_clean_linker_0--edge1-XUDNAN_clean_linker_2
_symmetry_space_group_name_H-M    P1
_symmetry_Int_Tables_number       1
_symmetry_cell_setting            triclinic
loop_
_symmetry_equiv_pos_as_xyz
'x, y, z'
_cell_length_a     33.595916
_cell_length_b     33.762688
_cell_length_c     66.533985
_cell_angle_alpha  91.686352
_cell_angle_beta   90.011214
_cell_angle_gamma 120.55785
loop_
_atom_site_label
_atom_site_type_symbol
_atom_site_fract_x
_atom_site_fract_y
_atom_site_fract_z
_atom_type_partial_charge
C0 C 0.04356 0.95522 0.06579 0.0
O1 O 0.02818 0.93167 0.04867 0.0
O2 O 0.00905 0.06231 0.05556 0.0
Zn3 Zn 0.03424 0.02353 0.0444 0.0
O4 O 0.98764 0.97355 0.0255 0.0
C5 C 0.08391 0.08961 0.01615 0.0
O6 O 0.04193 0.08261 0.01383 0.0
O7 O 0.05004 0.99572 0.06724 0.0
C8 C 0.9495 0.97033 0.02061 0.0
O9 O 0.93933 0.00042 0.02818 0.0
C10 C 0.9908 0.05771 0.07268 0.0
O11 O 0.98656 0.02493 0.08424 0.0
O12 O 0.0907 0.06622 0.02888 0.0
C13 C 0.04203 0.09944 0.33977 0.0
O14 O 0.99893 0.06538 0.34005 0.0
O15 O 0.01912 0.98645 0.35662 0.0
Zn16 Zn 0.04912 0.04826 0.37126 0.0
O17 O 0.00425 0.05349 0.38959 0.0
C18 C 0.13042 0.04411 0.38048 0.0
O19 O 0.12498 0.02957 0.36159 0.0
O20 O 0.07143 0.09924 0.35171 0.0
C21 C 0.96099 0.02503 0.38968 0.0
O22 O 0.94308 0.98878 0.37735 0.0
C23 C 0.01032 0.9511 0.36635 0.0
O24 O 0.01981 0.95581 0.38573 0.0
O25 O 0.10249 0.05527 0.3879 0.0
C26 C 0.09986 0.97461 0.6998 0.0
O27 O 0.10707 0.98414 0.71921 0.0
O28 O 0.99871 0.01689 0.68612 0.0
Zn29 Zn 0.02961 0.99791 0.70641 0.0
O30 O 0.07428 0.05397 0.72294 0.0
C31 C 0.94705 0.91407 0.71414 0.0
O32 O 0.94633 0.91167 0.69438 0.0
O33 O 0.06681 0.976 0.69123 0.0
C34 C 0.06551 0.06768 0.73942 0.0
O35 O 0.02413 0.04381 0.74707 0.0
C36 C 0.96089 0.01586 0.68926 0.0
O37 O 0.94068 0.00259 0.70667 0.0
O38 O 0.98111 0.9481 0.72323 0.0
H39 H 0.88334 0.66125 0.22435 0.0
N40 N 0.94548 0.63816 0.21433 0.0
H41 H 0.88014 0.69979 0.25563 0.0
H42 H 0.99805 0.65359 0.24908 0.0
H43 H 0.99434 0.69102 0.27999 0.0
H44 H 0.0293 0.71806 0.21778 0.0
H45 H 0.06168 0.7801 0.19397 0.0
H46 H 0.90997 0.63964 0.17893 0.0
H47 H 0.94108 0.70228 0.15533 0.0
H48 H 0.88968 0.54927 0.20553 0.0
H49 H 0.03206 0.64988 0.21926 0.0
H50 H 0.91004 0.48975 0.20145 0.0
H51 H 0.05212 0.59055 0.21749 0.0
H52 H 0.97712 0.35172 0.23194 0.0
H53 H 0.99185 0.31289 0.25852 0.0
H54 H 0.12802 0.35888 0.23519 0.0
H55 H 0.11324 0.39885 0.2087 0.0
H56 H 0.0724 0.40734 0.1648 0.0
H57 H 0.04624 0.35072 0.13673 0.0
H58 H 0.9268 0.25754 0.17059 0.0
H59 H 0.95291 0.31463 0.19846 0.0
H60 H 0.94954 0.38264 0.21078 0.0
H61 H 0.92886 0.44142 0.21565 0.0
H62 H 0.06615 0.54456 0.19749 0.0
N63 N 0.03487 0.39669 0.20069 0.0
H64 H 0.08763 0.48581 0.19512 0.0
C65 C 0.94069 0.65422 0.23408 0.0
C66 C 0.9071 0.66687 0.2366 0.0
C67 C 0.90545 0.68904 0.25438 0.0
C68 C 0.93703 0.69834 0.27017 0.0
C69 C 0.96927 0.68381 0.26811 0.0
C70 C 0.97144 0.66236 0.25021 0.0
C71 C 0.96719 0.67404 0.20001 0.0
C72 C 0.01032 0.71394 0.20399 0.0
C73 C 0.02856 0.74965 0.19045 0.0
C74 C 0.00395 0.74634 0.17275 0.0
C75 C 0.96137 0.70581 0.16863 0.0
C76 C 0.94333 0.67006 0.18212 0.0
C77 C 0.9589 0.60379 0.21309 0.0
C78 C 0.92518 0.55823 0.20811 0.0
C79 C 0.93698 0.52415 0.20599 0.0
C80 C 0.98289 0.53473 0.20926 0.0
C81 C 0.01658 0.58068 0.21439 0.0
C82 C 0.00497 0.6149 0.2158 0.0
C83 C 0.04432 0.37861 0.21825 0.0
C84 C 0.0105 0.35449 0.23265 0.0
C85 C 0.01881 0.33174 0.24782 0.0
C86 C 0.06094 0.33237 0.24888 0.0
C87 C 0.09536 0.35803 0.23495 0.0
C88 C 0.08701 0.38084 0.21979 0.0
C89 C 0.01504 0.36504 0.18371 0.0
C90 C 0.0401 0.37508 0.16593 0.0
C91 C 0.02499 0.34281 0.14994 0.0
C92 C 0.98457 0.29968 0.15155 0.0
C93 C 0.95825 0.29042 0.16905 0.0
C94 C 0.97314 0.32303 0.18497 0.0
C95 C 0.02086 0.43024 0.20338 0.0
C96 C 0.97565 0.41811 0.20859 0.0
C97 C 0.96353 0.45195 0.21087 0.0
C98 C 0.99577 0.49841 0.20715 0.0
C99 C 0.04056 0.5098 0.20123 0.0
C100 C 0.05297 0.47618 0.19964 0.0
H101 H 0.73037 0.06589 0.54733 0.0
N102 N 0.65373 0.98089 0.53931 0.0
H103 H 0.78826 0.08528 0.57359 0.0
H104 H 0.64992 0.92845 0.56918 0.0
H105 H 0.70885 0.94734 0.59537 0.0
H106 H 0.67663 0.92515 0.52048 0.0
H107 H 0.72713 0.9423 0.49159 0.0
H108 H 0.68395 0.05573 0.51549 0.0
H109 H 0.73328 0.0726 0.48634 0.0
H110 H 0.65885 0.06103 0.55381 0.0
H111 H 0.56681 0.92644 0.52704 0.0
H112 H 0.59649 0.07721 0.55471 0.0
H113 H 0.50411 0.94336 0.52704 0.0
H114 H 0.42107 0.09867 0.57936 0.0
H115 H 0.37444 0.07427 0.60976 0.0
H116 H 0.26945 0.95312 0.57728 0.0
H117 H 0.31634 0.97724 0.54712 0.0
H118 H 0.36353 0.98445 0.51547 0.0
H119 H 0.32416 0.98107 0.48407 0.0
H120 H 0.34603 0.11664 0.49789 0.0
H121 H 0.38544 0.1197 0.52942 0.0
H122 H 0.48913 0.11184 0.53483 0.0
H123 H 0.55092 0.09373 0.53319 0.0
H124 H 0.45343 0.95363 0.54873 0.0
N125 N 0.40106 0.05601 0.5435 0.0
H126 H 0.39179 0.97161 0.54938 0.0
C127 C 0.68551 0.99543 0.55626 0.0
C128 C 0.7247 0.03996 0.55795 0.0
C129 C 0.75812 0.05098 0.57292 0.0
C130 C 0.75347 0.01772 0.58642 0.0
C131 C 0.71329 0.97389 0.58531 0.0
C132 C 0.67967 0.96295 0.57035 0.0
C133 C 0.67647 0.98891 0.5202 0.0
C134 C 0.68808 0.9569 0.51277 0.0
C135 C 0.71682 0.96676 0.49623 0.0
C136 C 0.73454 0.00902 0.48676 0.0
C137 C 0.72077 0.04005 0.49351 0.0
C138 C 0.69214 0.03021 0.5101 0.0
C139 C 0.61749 0.99192 0.54055 0.0
C140 C 0.62531 0.03472 0.54813 0.0
C141 C 0.58948 0.04428 0.54842 0.0
C142 C 0.54519 0.01168 0.5409 0.0
C143 C 0.53754 0.96903 0.53326 0.0
C144 C 0.57332 0.95934 0.53314 0.0
C145 C 0.3721 0.04039 0.56091 0.0
C146 C 0.388 0.06687 0.57885 0.0
C147 C 0.36154 0.05272 0.59618 0.0
C148 C 0.31837 0.0118 0.59584 0.0
C149 C 0.30245 0.98501 0.57789 0.0
C150 C 0.32922 0.99891 0.56062 0.0
C151 C 0.37781 0.05269 0.52475 0.0
C152 C 0.36022 0.0136 0.51173 0.0
C153 C 0.33778 0.01174 0.49373 0.0
C154 C 0.33214 0.04865 0.48849 0.0
C155 C 0.34951 0.0875 0.5016 0.0
C156 C 0.37217 0.08943 0.51952 0.0
C157 C 0.43613 0.04346 0.54243 0.0
C158 C 0.48126 0.07725 0.53779 0.0
C159 C 0.5165 0.06685 0.53703 0.0
C160 C 0.5073 0.02229 0.54103 0.0
C161 C 0.46174 0.98817 0.54538 0.0
C162 C 0.42643 0.99854 0.54596 0.0
H163 H 0.66885 0.80855 0.88117 0.0
N164 N 0.62716 0.72295 0.86606 0.0
H165 H 0.72391 0.84118 0.90945 0.0
H166 H 0.6514 0.67504 0.8911 0.0
H167 H 0.70497 0.70684 0.91975 0.0
H168 H 0.69726 0.70561 0.85789 0.0
H169 H 0.74332 0.72562 0.82749 0.0
H170 H 0.61338 0.75542 0.83248 0.0
H171 H 0.65874 0.77416 0.80162 0.0
H172 H 0.54791 0.71068 0.87998 0.0
H173 H 0.61154 0.63659 0.85601 0.0
H174 H 0.47528 0.63813 0.88371 0.0
H175 H 0.53871 0.56411 0.85882 0.0
H176 H 0.28139 0.42933 0.9105 0.0
H177 H 0.25549 0.37788 0.93893 0.0
H178 H 0.32718 0.31139 0.91501 0.0
H179 H 0.35308 0.36288 0.88692 0.0
H180 H 0.36944 0.39376 0.85331 0.0
H181 H 0.33282 0.33925 0.82495 0.0
H182 H 0.20678 0.34166 0.83455 0.0
H183 H 0.2435 0.39524 0.86336 0.0
H184 H 0.3402 0.5066 0.86804 0.0
H185 H 0.41335 0.57859 0.8643 0.0
H186 H 0.48746 0.51157 0.88263 0.0
N187 N 0.32744 0.42615 0.87871 0.0
H188 H 0.41447 0.4396 0.88547 0.0
C189 C 0.65579 0.73952 0.88405 0.0
C190 C 0.67626 0.78617 0.88973 0.0
C191 C 0.70752 0.80462 0.90594 0.0
C192 C 0.7189 0.77661 0.91688 0.0
C193 C 0.69742 0.72949 0.91149 0.0
C194 C 0.66632 0.71112 0.8952 0.0
C195 C 0.65223 0.72992 0.84762 0.0
C196 C 0.68848 0.72059 0.84577 0.0
C197 C 0.7148 0.73192 0.82837 0.0
C198 C 0.70467 0.75164 0.81234 0.0
C199 C 0.66709 0.75883 0.81378 0.0
C200 C 0.64131 0.74828 0.83134 0.0
C201 C 0.5849 0.67925 0.86753 0.0
C202 C 0.54595 0.67872 0.87533 0.0
C203 C 0.50446 0.63723 0.87732 0.0
C204 C 0.50095 0.59518 0.87143 0.0
C205 C 0.54023 0.59574 0.8637 0.0
C206 C 0.58188 0.63731 0.86187 0.0
C207 C 0.31907 0.40013 0.8966 0.0
C208 C 0.29229 0.4043 0.91169 0.0
C209 C 0.27731 0.37471 0.92779 0.0
C210 C 0.28901 0.34035 0.9291 0.0
C211 C 0.31795 0.33777 0.91453 0.0
C212 C 0.33273 0.36725 0.89838 0.0
C213 C 0.30898 0.39845 0.86047 0.0
C214 C 0.33413 0.38296 0.8492 0.0
C215 C 0.31315 0.3519 0.8329 0.0
C216 C 0.26673 0.33583 0.82755 0.0
C217 C 0.2423 0.35271 0.83847 0.0
C218 C 0.26327 0.38361 0.85479 0.0
C219 C 0.37159 0.46786 0.87723 0.0
C220 C 0.37232 0.50763 0.87126 0.0
C221 C 0.41417 0.54875 0.86926 0.0
C222 C 0.45642 0.55107 0.8733 0.0
C223 C 0.45566 0.51099 0.87919 0.0
C224 C 0.41371 0.46971 0.88103 0.0
H225 H 0.96757 0.06935 0.11101 0.0
H226 H 0.98829 0.12436 0.05128 0.0
H227 H 0.97736 0.18713 0.06445 0.0
H228 H 0.88156 0.10266 0.12767 0.0
H229 H 0.90565 0.11702 0.15285 0.0
H230 H 0.90736 0.07216 0.13818 0.0
H231 H 0.99625 0.11397 0.14351 0.0
H232 H 0.9948 0.15881 0.15813 0.0
H233 H 0.03125 0.17305 0.13647 0.0
H234 H 0.9755 0.24954 0.08469 0.0
H235 H 0.98275 0.30683 0.11069 0.0
H236 H 0.96291 0.21132 0.15714 0.0
C237 C 0.96852 0.09385 0.10059 0.0
C238 C 0.97863 0.09185 0.08012 0.0
C239 C 0.98051 0.12513 0.06704 0.0
C240 C 0.97412 0.16082 0.07435 0.0
C241 C 0.96549 0.16256 0.09473 0.0
C242 C 0.96233 0.12978 0.10766 0.0
C243 C 0.95735 0.14201 0.12922 0.0
C244 C 0.91016 0.10634 0.13746 0.0
C245 C 0.9973 0.14729 0.14261 0.0
C246 C 0.96024 0.18776 0.1265 0.0
C247 C 0.96418 0.19866 0.10646 0.0
C248 C 0.97149 0.241 0.1004 0.0
C249 C 0.97576 0.27337 0.11523 0.0
C250 C 0.97284 0.26321 0.13586 0.0
C251 C 0.96395 0.21946 0.14146 0.0
H252 H 0.87137 0.96381 0.39971 0.0
H253 H 0.98382 0.10386 0.41143 0.0
H254 H 0.93536 0.11668 0.43552 0.0
H255 H 0.77661 0.98751 0.40396 0.0
H256 H 0.73946 0.93467 0.41641 0.0
H257 H 0.78158 0.93747 0.39884 0.0
H258 H 0.81627 0.91006 0.42618 0.0
H259 H 0.77429 0.90714 0.44379 0.0
H260 H 0.83508 0.94144 0.44998 0.0
H261 H 0.87675 0.11325 0.4595 0.0
H262 H 0.81308 0.09276 0.48304 0.0
H263 H 0.73828 0.95489 0.45586 0.0
C264 C 0.88559 0.99736 0.40714 0.0
C265 C 0.93131 0.03291 0.40364 0.0
C266 C 0.94889 0.07611 0.4139 0.0
C267 C 0.92157 0.08381 0.42753 0.0
C268 C 0.87679 0.04796 0.43076 0.0
C269 C 0.8589 0.00554 0.42092 0.0
C270 C 0.81071 0.97202 0.42804 0.0
C271 C 0.77498 0.95705 0.41078 0.0
C272 C 0.80902 0.93021 0.43757 0.0
C273 C 0.80467 0.00202 0.44365 0.0
C274 C 0.84298 0.04584 0.44479 0.0
C275 C 0.8463 0.07923 0.4586 0.0
C276 C 0.80976 0.06731 0.47181 0.0
C277 C 0.77046 0.02231 0.47121 0.0
C278 C 0.76783 0.98954 0.45672 0.0
H279 H 0.93999 0.90351 0.75497 0.0
H280 H 0.86183 0.85 0.69891 0.0
H281 H 0.79184 0.79926 0.71787 0.0
H282 H 0.88128 0.79427 0.78128 0.0
H283 H 0.88314 0.82221 0.80506 0.0
H284 H 0.92777 0.8521 0.78697 0.0
H285 H 0.91112 0.91913 0.78802 0.0
H286 H 0.86637 0.88941 0.80602 0.0
H287 H 0.85327 0.90715 0.78286 0.0
H288 H 0.72873 0.76004 0.74304 0.0
H289 H 0.67841 0.73128 0.7727 0.0
H290 H 0.7983 0.80772 0.81212 0.0
C291 C 0.90832 0.88065 0.74667 0.0
C292 C 0.90639 0.88071 0.72546 0.0
C293 C 0.86423 0.8504 0.71515 0.0
C294 C 0.82424 0.82148 0.72579 0.0
C295 C 0.82713 0.82285 0.7467 0.0
C296 C 0.86822 0.85121 0.75703 0.0
C297 C 0.86177 0.84701 0.77954 0.0
C298 C 0.89017 0.82774 0.78875 0.0
C299 C 0.87383 0.89343 0.7897 0.0
C300 C 0.81045 0.81263 0.78027 0.0
C301 C 0.79105 0.79913 0.76117 0.0
C302 C 0.74363 0.76976 0.75806 0.0
C303 C 0.71534 0.75377 0.77493 0.0
C304 C 0.73469 0.7669 0.79459 0.0
C305 C 0.78285 0.79642 0.79723 0.0
H306 H 0.02184 0.86568 0.06907 0.0
H307 H 0.07665 0.99506 0.10317 0.0
H308 H 0.0792 0.95681 0.13379 0.0
H309 H 0.94748 0.79613 0.10579 0.0
H310 H 0.95593 0.74818 0.10076 0.0
H311 H 0.96355 0.78664 0.08104 0.0
H312 H 0.04662 0.80237 0.07536 0.0
H313 H 0.03916 0.76368 0.09502 0.0
H314 H 0.08714 0.82205 0.09624 0.0
H315 H 0.06874 0.90315 0.16122 0.0
H316 H 0.046 0.83814 0.18345 0.0
H317 H 0.9994 0.74393 0.13137 0.0
C318 C 0.03527 0.88624 0.08287 0.0
C319 C 0.04922 0.93343 0.08369 0.0
C320 C 0.06591 0.95889 0.10215 0.0
C321 C 0.0676 0.9375 0.11962 0.0
C322 C 0.0527 0.89071 0.11836 0.0
C323 C 0.03709 0.86543 0.10044 0.0
C324 C 0.02016 0.81503 0.10341 0.0
C325 C 0.96874 0.78474 0.0974 0.0
C326 C 0.05007 0.79991 0.09182 0.0
C327 C 0.02746 0.8157 0.12589 0.0
C328 C 0.04673 0.85975 0.1342 0.0
C329 C 0.05438 0.86861 0.15485 0.0
C330 C 0.04155 0.83142 0.16735 0.0
C331 C 0.02114 0.78583 0.15919 0.0
C332 C 0.01473 0.77825 0.13813 0.0
H333 H 0.15024 0.07162 0.42022 0.0
H334 H 0.19217 0.01716 0.36987 0.0
H335 H 0.24987 0.01423 0.3918 0.0
H336 H 0.26468 0.1427 0.44283 0.0
H337 H 0.24372 0.13102 0.46816 0.0
H338 H 0.20703 0.1305 0.44828 0.0
H339 H 0.14408 0.04762 0.45702 0.0
H340 H 0.18059 0.04784 0.47688 0.0
H341 H 0.15868 0.00311 0.45745 0.0
H342 H 0.30062 0.014 0.41964 0.0
H343 H 0.34216 0.01871 0.45113 0.0
H344 H 0.26683 0.07329 0.48306 0.0
C345 C 0.17179 0.05943 0.41373 0.0
C346 C 0.1667 0.04466 0.39331 0.0
C347 C 0.1955 0.02878 0.38546 0.0
C348 C 0.22837 0.02695 0.39779 0.0
C349 C 0.23212 0.04132 0.4179 0.0
C350 C 0.20479 0.05748 0.42579 0.0
C351 C 0.21501 0.06999 0.44798 0.0
C352 C 0.23373 0.12162 0.45204 0.0
C353 C 0.17203 0.04036 0.46057 0.0
C354 C 0.25208 0.05793 0.45139 0.0
C355 C 0.2615 0.04147 0.43387 0.0
C356 C 0.29368 0.02704 0.43343 0.0
C357 C 0.31687 0.02957 0.45139 0.0
C358 C 0.3078 0.04647 0.46951 0.0
C359 C 0.27501 0.06088 0.4694 0.0
H360 H 0.06112 0.10532 0.77599 0.0
H361 H 0.15213 0.12719 0.72587 0.0
H362 H 0.21278 0.19892 0.74256 0.0
H363 H 0.09598 0.22448 0.78543 0.0
H364 H 0.09276 0.21988 0.81238 0.0
H365 H 0.056 0.17043 0.79638 0.0
H366 H 0.08739 0.12374 0.8137 0.0
H367 H 0.12408 0.17299 0.82979 0.0
H368 H 0.14884 0.14603 0.81468 0.0
H369 H 0.26379 0.26821 0.76469 0.0
H370 H 0.302 0.32938 0.79115 0.0
H371 H 0.1785 0.26125 0.82712 0.0
C372 C 0.09374 0.12522 0.76849 0.0
C373 C 0.10177 0.11061 0.7496 0.0
C374 C 0.14508 0.13761 0.74035 0.0
C375 C 0.17979 0.17849 0.74968 0.0
C376 C 0.17074 0.19191 0.76829 0.0
C377 C 0.12886 0.16607 0.77763 0.0
C378 C 0.12832 0.18782 0.79778 0.0
C379 C 0.09105 0.20146 0.79799 0.0
C380 C 0.12179 0.15573 0.815 0.0
C381 C 0.17644 0.22984 0.79829 0.0
C382 C 0.2003 0.23166 0.78112 0.0
C383 C 0.2455 0.26714 0.77824 0.0
C384 C 0.26699 0.30158 0.79339 0.0
C385 C 0.2433 0.30021 0.81122 0.0
C386 C 0.19735 0.26379 0.81356 0.0
H387 H 0.87014 0.99277 0.68613 0.0
H388 H 0.00091 0.06191 0.65519 0.0
H389 H 0.96268 0.07511 0.62664 0.0
H390 H 0.80208 0.93328 0.6435 0.0
H391 H 0.75291 0.93803 0.65071 0.0
H392 H 0.7912 0.93837 0.66971 0.0
H393 H 0.80472 0.01634 0.68434 0.0
H394 H 0.76625 0.01616 0.6654 0.0
H395 H 0.82439 0.06441 0.6681 0.0
H396 H 0.90998 0.07613 0.60067 0.0
H397 H 0.84572 0.06343 0.57839 0.0
H398 H 0.74848 0.99304 0.6259 0.0
C399 C 0.89088 0.01148 0.67352 0.0
C400 C 0.93854 0.0266 0.67291 0.0
C401 C 0.96436 0.0501 0.65596 0.0
C402 C 0.943 0.05791 0.63972 0.0
C403 C 0.89583 0.04191 0.64064 0.0
C404 C 0.87001 0.01919 0.65707 0.0
C405 C 0.81927 0.00273 0.65363 0.0
C406 C 0.78964 0.94998 0.65443 0.0
C407 C 0.80269 0.02633 0.66877 0.0
C408 C 0.82052 0.01896 0.63254 0.0
C409 C 0.86512 0.04197 0.62545 0.0
C410 C 0.87497 0.05874 0.60613 0.0
C411 C 0.8382 0.05156 0.59363 0.0
C412 C 0.79206 0.02763 0.60045 0.0
C413 C 0.78333 0.01144 0.62024 0.0
H414 H 0.86774 0.95712 0.00521 0.0
H415 H 0.95952 0.90178 0.00278 0.0
H416 H 0.90799 0.84324 0.97733 0.0
H417 H 0.75968 0.84719 0.99875 0.0
H418 H 0.73328 0.87096 0.98337 0.0
H419 H 0.77595 0.90674 0.00229 0.0
H420 H 0.82454 0.96497 0.97522 0.0
H421 H 0.78212 0.92937 0.95623 0.0
H422 H 0.8417 0.94524 0.95323 0.0
H423 H 0.84891 0.79362 0.95083 0.0
H424 H 0.78681 0.75677 0.92503 0.0
H425 H 0.73272 0.84344 0.94532 0.0
C426 C 0.87682 0.93242 -0.0005 0.0
C427 C 0.91766 0.93402 0.00601 0.0
C428 C 0.9284 0.90124 0.99803 0.0
C429 C 0.89931 0.86779 0.9836 0.0
C430 C 0.85956 0.86747 0.97738 0.0
C431 C 0.84821 0.89884 0.9851 0.0
C432 C 0.80442 0.89218 0.97533 0.0
C433 C 0.76606 0.87844 0.99086 0.0
C434 C 0.81378 0.93551 0.96435 0.0
C435 C 0.79336 0.85269 0.96065 0.0
C436 C 0.82539 0.83873 0.96216 0.0
C437 C 0.82328 0.80386 0.94967 0.0
C438 C 0.78768 0.78294 0.93514 0.0
C439 C 0.75465 0.79697 0.93319 0.0
C440 C 0.75751 0.83206 0.94631 0.0
H441 H 0.98446 0.92901 0.32661 0.0
H442 H 0.99613 0.87108 0.38218 0.0
H443 H 0.97155 0.79714 0.36408 0.0
H444 H 0.88315 0.82315 0.30577 0.0
H445 H 0.90421 0.83471 0.28045 0.0
H446 H 0.91861 0.88172 0.29815 0.0
H447 H 0.00578 0.91417 0.29181 0.0
H448 H 0.99168 0.86736 0.27413 0.0
H449 H 0.02993 0.87775 0.29519 0.0
H450 H 0.95355 0.73227 0.33933 0.0
H451 H 0.94152 0.6808 0.30978 0.0
H452 H 0.93973 0.78043 0.2707 0.0
C453 C 0.98118 0.90059 0.33505 0.0
C454 C 0.99221 0.90584 0.35582 0.0
C455 C 0.98774 0.86786 0.36627 0.0
C456 C 0.97373 0.82567 0.35613 0.0
C457 C 0.96383 0.82188 0.3356 0.0
C458 C 0.967 0.85821 0.3252 0.0
C459 C 0.95674 0.84597 0.303 0.0
C460 C 0.91307 0.84641 0.29646 0.0
C461 C 0.99852 0.87822 0.2903 0.0
C462 C 0.94857 0.79755 0.30243 0.0
C463 C 0.95254 0.78415 0.3214 0.0
C464 C 0.9496 0.74206 0.32444 0.0
C465 C 0.94294 0.71316 0.30762 0.0
C466 C 0.93913 0.72648 0.28807 0.0
C467 C 0.94134 0.76892 0.28555 0.0
H468 H 0.09837 0.96136 0.65894 0.0
H469 H 0.17899 0.97802 0.71285 0.0
H470 H 0.24101 0.98099 0.6919 0.0
H471 H 0.13659 0.89209 0.6287 0.0
H472 H 0.13759 0.92019 0.60593 0.0
H473 H 0.09685 0.91244 0.62525 0.0
H474 H 0.12764 0.00015 0.62637 0.0
H475 H 0.16863 0.00824 0.60724 0.0
H476 H 0.18842 0.03978 0.63096 0.0
H477 H 0.29839 0.9931 0.66512 0.0
H478 H 0.34523 0.0098 0.63446 0.0
H479 H 0.22684 0.98453 0.59817 0.0
C480 C 0.12851 0.96441 0.66639 0.0
C481 C 0.13377 0.96939 0.68755 0.0
C482 C 0.17407 0.97395 0.69668 0.0
C483 C 0.20949 0.97563 0.6849 0.0
C484 C 0.20384 0.97218 0.66404 0.0
C485 C 0.1641 0.96609 0.65488 0.0
C486 C 0.16802 0.96697 0.63221 0.0
C487 C 0.13266 0.92013 0.62245 0.0
C488 C 0.16289 0.00612 0.62371 0.0
C489 C 0.21682 0.97621 0.63007 0.0
C490 C 0.23678 0.97868 0.64859 0.0
C491 C 0.28286 0.99041 0.65051 0.0
C492 C 0.30925 0.00013 0.63307 0.0
C493 C 0.28947 0.99806 0.61399 0.0
C494 C 0.2425 0.98532 0.61252 0.0
H495 H 0.07963 0.14781 0.98983 0.0
H496 H 0.17538 0.11333 0.01677 0.0
H497 H 0.23947 0.17531 0.99809 0.0
H498 H 0.13016 0.17302 0.94111 0.0
H499 H 0.11955 0.21963 0.93763 0.0
H500 H 0.08189 0.17262 0.95314 0.0
H501 H 0.09706 0.23039 0.98282 0.0
H502 H 0.13506 0.27757 0.96744 0.0
H503 H 0.15564 0.26992 0.9912 0.0
H504 H 0.29292 0.24119 0.97588 0.0
H505 H 0.33063 0.30446 0.95201 0.0
H506 H 0.19882 0.29471 0.94035 0.0
C507 C 0.11401 0.1531 0.99182 0.0
C508 C 0.12249 0.12567 0.00475 0.0
C509 C 0.16807 0.13391 0.00692 0.0
C510 C 0.20468 0.16906 0.9964 0.0
C511 C 0.19505 0.19564 0.98386 0.0
C512 C 0.15076 0.18795 0.98154 0.0
C513 C 0.14922 0.22099 0.96716 0.0
C514 C 0.11839 0.195 0.94867 0.0
C515 C 0.13331 0.25152 0.9778 0.0
C516 C 0.19958 0.24855 0.96167 0.0
C517 C 0.22558 0.23351 0.9714 0.0
C518 C 0.27289 0.2533 0.96824 0.0
C519 C 0.29397 0.28909 0.95465 0.0
C520 C 0.26774 0.30476 0.94448 0.0
C521 C 0.22002 0.28422 0.94821 0.0
H522 H 0.98762 0.109 0.31198 0.0
H523 H 0.12615 0.17926 0.33818 0.0
H524 H 0.14655 0.24667 0.31768 0.0
H525 H 0.0211 0.15198 0.26175 0.0
H526 H 0.97076 0.15696 0.2578 0.0
H527 H 0.96787 0.11396 0.27411 0.0
H528 H 0.93963 0.14631 0.30301 0.0
H529 H 0.9428 0.18963 0.28685 0.0
H530 H 0.97388 0.20631 0.31058 0.0
H531 H 0.15083 0.30753 0.29501 0.0
H532 H 0.13922 0.35592 0.27125 0.0
H533 H 0.99833 0.24473 0.25976 0.0
C534 C 0.02237 0.1384 0.31334 0.0
C535 C 0.05528 0.13884 0.3267 0.0
C536 C 0.10036 0.17807 0.32801 0.0
C537 C 0.11226 0.21656 0.31646 0.0
C538 C 0.07877 0.21517 0.30362 0.0
C539 C 0.03484 0.17696 0.30191 0.0
C540 C 0.00507 0.18421 0.28714 0.0
C541 C 0.99035 0.14974 0.26914 0.0
C542 C 0.96286 0.18146 0.29752 0.0
C543 C 0.03891 0.23269 0.28097 0.0
C544 C 0.08127 0.24998 0.29059 0.0
C545 C 0.11787 0.29424 0.28731 0.0
C546 C 0.111 0.32141 0.27376 0.0
C547 C 0.06784 0.30422 0.26369 0.0
C548 C 0.03149 0.25923 0.26744 0.0
loop_
_geom_bond_atom_site_label_1
_geom_bond_atom_site_label_2
_geom_bond_distance
_geom_bond_site_symmetry_2
_ccdc_geom_bond_type
C0 O1 1.160 . S
C0 O7 1.185 . S
O1 C0 1.160 . S
O2 Zn3 1.899 . S
O2 C10 1.284 1_455 S
Zn3 O2 1.899 . S
Zn3 O4 2.032 1_445 S
Zn3 O7 2.086 1_545 S
Zn3 O12 1.977 . S
O4 Zn3 2.032 1_665 S
O4 C8 1.278 . S
C5 O6 1.203 . S
C5 O12 1.267 . S
O6 C5 1.203 . S
O7 C0 1.185 . S
O7 Zn3 2.086 1_565 S
C8 O4 1.278 . S
C8 O9 1.211 1_565 S
O9 C8 1.211 1_545 S
C10 O2 1.284 1_655 S
C10 O11 1.273 . S
O11 C10 1.273 . S
O12 Zn3 1.977 . S
O12 C5 1.267 . S
C13 O14 1.160 . S
C13 O20 1.185 . S
O14 C13 1.160 . S
O15 Zn16 1.899 . S
O15 C23 1.284 1_545 S
Zn16 O15 1.899 . S
Zn16 O17 2.032 1_455 S
Zn16 O20 2.086 . S
Zn16 O25 1.977 . S
O17 Zn16 2.032 1_655 S
O17 C21 1.278 . S
C18 O19 1.203 1_545 S
C18 O25 1.267 . S
O19 C18 1.203 1_565 S
O20 C13 1.185 . S
O20 Zn16 2.086 . S
C21 O17 1.278 . S
C21 O22 1.211 . S
O22 C21 1.211 . S
C23 O15 1.284 1_565 S
C23 O24 1.273 1_455 S
O24 C23 1.273 1_655 S
O25 Zn16 1.977 . S
O25 C18 1.267 . S
C26 O27 1.160 1_565 S
C26 O33 1.185 . S
O27 C26 1.160 1_545 S
O28 Zn29 1.899 1_655 S
O28 C36 1.284 1_565 S
Zn29 O28 1.899 1_455 S
Zn29 O30 2.032 1_565 S
Zn29 O33 2.086 . S
Zn29 O38 1.977 1_455 S
O30 Zn29 2.032 1_545 S
O30 C34 1.278 . S
C31 O32 1.203 . S
C31 O38 1.267 . S
O32 C31 1.203 . S
O33 C26 1.185 . S
O33 Zn29 2.086 . S
C34 O30 1.278 . S
C34 O35 1.211 . S
O35 C34 1.211 . S
C36 O28 1.284 1_545 S
C36 O37 1.273 . S
O37 C36 1.273 . S
O38 Zn29 1.977 1_655 S
O38 C31 1.267 . S
H39 C66 0.929 . S
N40 C65 1.433 . S
N40 C71 1.435 . S
N40 C77 1.423 . S
H41 C67 0.930 . S
H42 C70 0.931 . S
H43 C69 0.929 . S
H44 C72 0.930 . S
H45 C73 0.932 . S
H46 C76 0.929 . S
H47 C75 0.931 . S
H48 C78 0.929 . S
H49 C82 0.932 . S
H50 C79 0.931 . S
H51 C81 0.929 1_455 S
H52 C84 0.929 . S
H53 C85 0.930 . S
H54 C87 0.929 . S
H55 C88 0.931 . S
H56 C90 0.930 . S
H57 C91 0.932 . S
H58 C93 0.931 . S
H59 C94 0.929 . S
H60 C96 0.929 . S
H61 C97 0.931 . S
H62 C99 0.929 1_455 S
N63 C83 1.433 . S
N63 C89 1.435 . S
N63 C95 1.423 . S
H64 C100 0.932 . S
C65 N40 1.433 . S
C65 C66 1.363 . S
C65 C70 1.370 1_655 S
C66 H39 0.929 . S
C66 C65 1.363 . S
C66 C67 1.385 . S
C67 H41 0.930 . S
C67 C66 1.385 . S
C67 C68 1.357 1_655 S
C68 C67 1.357 1_455 S
C68 C69 1.406 . S
C69 H43 0.929 . S
C69 C68 1.406 . S
C69 C70 1.391 . S
C70 H42 0.931 . S
C70 C65 1.370 1_455 S
C70 C69 1.391 . S
C71 N40 1.435 . S
C71 C72 1.358 1_655 S
C71 C76 1.371 . S
C72 H44 0.930 . S
C72 C71 1.358 1_455 S
C72 C73 1.405 . S
C73 H45 0.932 . S
C73 C72 1.405 . S
C73 C74 1.392 . S
C74 C73 1.392 . S
C74 C75 1.389 1_455 S
C75 H47 0.931 . S
C75 C74 1.389 1_655 S
C75 C76 1.382 . S
C76 H46 0.929 . S
C76 C71 1.371 . S
C76 C75 1.382 . S
C77 N40 1.423 . S
C77 C78 1.362 . S
C77 C82 1.388 1_655 S
C78 H48 0.929 . S
C78 C77 1.362 . S
C78 C79 1.376 . S
C79 H50 0.931 . S
C79 C78 1.376 . S
C79 C80 1.396 . S
C80 C79 1.396 . S
C80 C81 1.348 . S
C80 C98 1.472 . S
C81 H51 0.929 1_655 S
C81 C80 1.348 . S
C81 C82 1.443 1_655 S
C82 H49 0.932 . S
C82 C77 1.388 1_455 S
C82 C81 1.443 1_455 S
C83 N63 1.433 . S
C83 C84 1.363 . S
C83 C88 1.370 1_655 S
C84 H52 0.929 . S
C84 C83 1.363 . S
C84 C85 1.385 . S
C85 H53 0.930 . S
C85 C84 1.385 . S
C85 C86 1.357 1_655 S
C86 C85 1.357 1_455 S
C86 C87 1.406 . S
C87 H54 0.929 . S
C87 C86 1.406 . S
C87 C88 1.391 . S
C88 H55 0.931 . S
C88 C83 1.370 1_455 S
C88 C87 1.391 . S
C89 N63 1.435 . S
C89 C90 1.358 1_655 S
C89 C94 1.371 . S
C90 H56 0.930 . S
C90 C89 1.358 1_455 S
C90 C91 1.405 . S
C91 H57 0.932 . S
C91 C90 1.405 . S
C91 C92 1.392 . S
C92 C91 1.392 . S
C92 C93 1.376 1_455 S
C93 H58 0.931 . S
C93 C92 1.376 1_655 S
C93 C94 1.382 . S
C94 H59 0.929 . S
C94 C89 1.371 . S
C94 C93 1.382 . S
C95 N63 1.423 . S
C95 C96 1.362 . S
C95 C100 1.388 1_655 S
C96 H60 0.929 . S
C96 C95 1.362 . S
C96 C97 1.376 . S
C97 H61 0.931 . S
C97 C96 1.376 . S
C97 C98 1.396 . S
C98 C80 1.472 . S
C98 C97 1.396 . S
C98 C99 1.348 . S
C99 H62 0.929 1_655 S
C99 C98 1.348 . S
C99 C100 1.443 1_655 S
C100 H64 0.932 . S
C100 C95 1.388 1_455 S
C100 C99 1.443 1_455 S
H101 C128 0.929 . S
N102 C127 1.433 . S
N102 C133 1.435 . S
N102 C139 1.423 . S
H103 C129 0.930 . S
H104 C132 0.931 . S
H105 C131 0.929 . S
H106 C134 0.930 . S
H107 C135 0.932 . S
H108 C138 0.929 . S
H109 C137 0.931 . S
H110 C140 0.929 . S
H111 C144 0.932 1_565 S
H112 C141 0.931 . S
H113 C143 0.929 . S
H114 C146 0.929 . S
H115 C147 0.930 . S
H116 C149 0.929 . S
H117 C150 0.931 . S
H118 C152 0.930 . S
H119 C153 0.932 . S
H120 C155 0.931 . S
H121 C156 0.929 . S
H122 C158 0.929 . S
H123 C159 0.931 . S
H124 C161 0.929 . S
N125 C145 1.433 . S
N125 C151 1.435 . S
N125 C157 1.423 . S
H126 C162 0.932 1_565 S
C127 N102 1.433 . S
C127 C128 1.363 . S
C127 C132 1.370 1_545 S
C128 H101 0.929 . S
C128 C127 1.363 . S
C128 C129 1.385 . S
C129 H103 0.930 . S
C129 C128 1.385 . S
C129 C130 1.357 . S
C130 C129 1.357 . S
C130 C131 1.406 1_545 S
C131 H105 0.929 . S
C131 C130 1.406 1_565 S
C131 C132 1.391 . S
C132 H104 0.931 . S
C132 C127 1.370 1_565 S
C132 C131 1.391 . S
C133 N102 1.435 . S
C133 C134 1.358 1_545 S
C133 C138 1.371 . S
C134 H106 0.930 . S
C134 C133 1.358 1_565 S
C134 C135 1.405 . S
C135 H107 0.932 . S
C135 C134 1.405 . S
C135 C136 1.383 1_565 S
C136 C135 1.383 1_545 S
C136 C137 1.393 . S
C137 H109 0.931 . S
C137 C136 1.393 . S
C137 C138 1.382 . S
C138 H108 0.929 . S
C138 C133 1.371 . S
C138 C137 1.382 . S
C139 N102 1.423 . S
C139 C140 1.362 . S
C139 C144 1.388 . S
C140 H110 0.929 . S
C140 C139 1.362 . S
C140 C141 1.376 . S
C141 H112 0.931 . S
C141 C140 1.376 . S
C141 C142 1.396 . S
C142 C141 1.396 . S
C142 C143 1.348 . S
C142 C160 1.472 . S
C143 H113 0.929 . S
C143 C142 1.348 . S
C143 C144 1.443 . S
C144 H111 0.932 1_545 S
C144 C139 1.388 . S
C144 C143 1.443 . S
C145 N125 1.433 . S
C145 C146 1.363 . S
C145 C150 1.370 1_545 S
C146 H114 0.929 . S
C146 C145 1.363 . S
C146 C147 1.385 . S
C147 H115 0.930 . S
C147 C146 1.385 . S
C147 C148 1.357 . S
C148 C147 1.357 . S
C148 C149 1.406 1_545 S
C149 H116 0.929 . S
C149 C148 1.406 1_565 S
C149 C150 1.391 . S
C150 H117 0.931 . S
C150 C145 1.370 1_565 S
C150 C149 1.391 . S
C151 N125 1.435 . S
C151 C152 1.358 1_545 S
C151 C156 1.371 . S
C152 H118 0.930 . S
C152 C151 1.358 1_565 S
C152 C153 1.405 . S
C153 H119 0.932 . S
C153 C152 1.405 . S
C153 C154 1.383 1_565 S
C154 C153 1.383 1_545 S
C154 C155 1.393 . S
C155 H120 0.931 . S
C155 C154 1.393 . S
C155 C156 1.382 . S
C156 H121 0.929 . S
C156 C151 1.371 . S
C156 C155 1.382 . S
C157 N125 1.423 . S
C157 C158 1.362 . S
C157 C162 1.388 . S
C158 H122 0.929 . S
C158 C157 1.362 . S
C158 C159 1.376 . S
C159 H123 0.931 . S
C159 C158 1.376 . S
C159 C160 1.396 . S
C160 C142 1.472 . S
C160 C159 1.396 . S
C160 C161 1.348 . S
C161 H124 0.929 . S
C161 C160 1.348 . S
C161 C162 1.443 . S
C162 H126 0.932 1_545 S
C162 C157 1.388 . S
C162 C161 1.443 . S
H163 C190 0.929 . S
N164 C189 1.433 . S
N164 C195 1.435 . S
N164 C201 1.423 . S
H165 C191 0.930 . S
H166 C194 0.931 . S
H167 C193 0.929 . S
H168 C196 0.930 . S
H169 C197 0.932 . S
H170 C200 0.929 . S
H171 C199 0.931 . S
H172 C202 0.929 . S
H173 C206 0.932 . S
H174 C203 0.931 . S
H175 C205 0.929 . S
H176 C208 0.929 . S
H177 C209 0.930 . S
H178 C211 0.929 . S
H179 C212 0.931 . S
H180 C214 0.930 . S
H181 C215 0.932 . S
H182 C217 0.931 . S
H183 C218 0.929 . S
H184 C220 0.929 . S
H185 C221 0.931 . S
H186 C223 0.929 . S
N187 C207 1.433 . S
N187 C213 1.435 . S
N187 C219 1.423 . S
H188 C224 0.932 . S
C189 N164 1.433 . S
C189 C190 1.363 . S
C189 C194 1.370 . S
C190 H163 0.929 . S
C190 C189 1.363 . S
C190 C191 1.385 . S
C191 H165 0.930 . S
C191 C190 1.385 . S
C191 C192 1.357 . S
C192 C191 1.357 . S
C192 C193 1.406 . S
C193 H167 0.929 . S
C193 C192 1.406 . S
C193 C194 1.391 . S
C194 H166 0.931 . S
C194 C189 1.370 . S
C194 C193 1.391 . S
C195 N164 1.435 . S
C195 C196 1.358 . S
C195 C200 1.371 . S
C196 H168 0.930 . S
C196 C195 1.358 . S
C196 C197 1.405 . S
C197 H169 0.932 . S
C197 C196 1.405 . S
C197 C198 1.383 . S
C198 C197 1.383 . S
C198 C199 1.393 . S
C199 H171 0.931 . S
C199 C198 1.393 . S
C199 C200 1.382 . S
C200 H170 0.929 . S
C200 C195 1.371 . S
C200 C199 1.382 . S
C201 N164 1.423 . S
C201 C202 1.362 . S
C201 C206 1.388 . S
C202 H172 0.929 . S
C202 C201 1.362 . S
C202 C203 1.376 . S
C203 H174 0.931 . S
C203 C202 1.376 . S
C203 C204 1.396 . S
C204 C203 1.396 . S
C204 C205 1.348 . S
C204 C222 1.472 . S
C205 H175 0.929 . S
C205 C204 1.348 . S
C205 C206 1.443 . S
C206 H173 0.932 . S
C206 C201 1.388 . S
C206 C205 1.443 . S
C207 N187 1.433 . S
C207 C208 1.363 . S
C207 C212 1.370 . S
C208 H176 0.929 . S
C208 C207 1.363 . S
C208 C209 1.385 . S
C209 H177 0.930 . S
C209 C208 1.385 . S
C209 C210 1.357 . S
C210 C209 1.357 . S
C210 C211 1.406 . S
C211 H178 0.929 . S
C211 C210 1.406 . S
C211 C212 1.391 . S
C212 H179 0.931 . S
C212 C207 1.370 . S
C212 C211 1.391 . S
C213 N187 1.435 . S
C213 C214 1.358 . S
C213 C218 1.371 . S
C214 H180 0.930 . S
C214 C213 1.358 . S
C214 C215 1.405 . S
C215 H181 0.932 . S
C215 C214 1.405 . S
C215 C216 1.383 . S
C216 C215 1.383 . S
C216 C217 1.393 . S
C217 H182 0.931 . S
C217 C216 1.393 . S
C217 C218 1.382 . S
C218 H183 0.929 . S
C218 C213 1.371 . S
C218 C217 1.382 . S
C219 N187 1.423 . S
C219 C220 1.362 . S
C219 C224 1.388 . S
C220 H184 0.929 . S
C220 C219 1.362 . S
C220 C221 1.376 . S
C221 H185 0.931 . S
C221 C220 1.376 . S
C221 C222 1.396 . S
C222 C204 1.472 . S
C222 C221 1.396 . S
C222 C223 1.348 . S
C223 H186 0.929 . S
C223 C222 1.348 . S
C223 C224 1.443 . S
C224 H188 0.932 . S
C224 C219 1.388 . S
C224 C223 1.443 . S
H225 C237 0.930 . S
H226 C239 0.930 . S
H227 C240 0.930 . S
H228 C244 0.959 . S
H229 C244 0.959 . S
H230 C244 0.961 . S
H231 C245 0.960 . S
H232 C245 0.961 . S
H233 C245 0.959 1_455 S
H234 C248 0.929 . S
H235 C249 0.931 . S
H236 C251 0.930 . S
C237 H225 0.930 . S
C237 C238 1.399 1_655 S
C237 C242 1.399 . S
C238 C237 1.399 1_455 S
C238 C239 1.376 . S
C239 H226 0.930 . S
C239 C238 1.376 . S
C239 C240 1.388 . S
C240 H227 0.930 . S
C240 C239 1.388 . S
C240 C241 1.390 . S
C241 C240 1.390 . S
C241 C242 1.394 1_455 S
C241 C247 1.465 . S
C242 C237 1.399 . S
C242 C241 1.394 1_655 S
C242 C243 1.516 . S
C243 C242 1.516 . S
C243 C244 1.502 . S
C243 C245 1.561 . S
C243 C246 1.526 . S
C244 H228 0.959 . S
C244 H229 0.959 . S
C244 H230 0.961 . S
C244 C243 1.502 . S
C245 H231 0.960 . S
C245 H232 0.961 . S
C245 H233 0.959 1_655 S
C245 C243 1.561 . S
C246 C243 1.526 . S
C246 C247 1.396 1_655 S
C246 C251 1.390 . S
C247 C241 1.465 . S
C247 C246 1.396 1_455 S
C247 C248 1.399 . S
C248 H234 0.929 . S
C248 C247 1.399 . S
C248 C249 1.385 . S
C249 H235 0.931 . S
C249 C248 1.385 . S
C249 C250 1.389 . S
C250 C249 1.389 . S
C250 C251 1.387 1_455 S
C251 H236 0.930 . S
C251 C246 1.390 . S
C251 C250 1.387 1_655 S
H252 C264 0.930 . S
H253 C266 0.930 . S
H254 C267 0.930 . S
H255 C271 0.959 . S
H256 C271 0.959 . S
H257 C271 0.961 . S
H258 C272 0.960 . S
H259 C272 0.961 . S
H260 C272 0.959 . S
H261 C275 0.929 . S
H262 C276 0.931 . S
H263 C278 0.930 . S
C264 H252 0.930 . S
C264 C265 1.399 1_565 S
C264 C269 1.399 . S
C265 C264 1.399 1_545 S
C265 C266 1.376 . S
C266 H253 0.930 . S
C266 C265 1.376 . S
C266 C267 1.388 . S
C267 H254 0.930 . S
C267 C266 1.388 . S
C267 C268 1.390 . S
C268 C267 1.390 . S
C268 C269 1.394 1_545 S
C268 C274 1.465 . S
C269 C264 1.399 . S
C269 C268 1.394 1_565 S
C269 C270 1.516 . S
C270 C269 1.516 . S
C270 C271 1.502 . S
C270 C272 1.561 . S
C270 C273 1.526 . S
C271 H255 0.959 . S
C271 H256 0.959 . S
C271 H257 0.961 . S
C271 C270 1.502 . S
C272 H258 0.960 . S
C272 H259 0.961 . S
C272 H260 0.959 . S
C272 C270 1.561 . S
C273 C270 1.526 . S
C273 C274 1.396 1_565 S
C273 C278 1.390 . S
C274 C268 1.465 . S
C274 C273 1.396 1_545 S
C274 C275 1.399 . S
C275 H261 0.929 . S
C275 C274 1.399 . S
C275 C276 1.385 . S
C276 H262 0.931 . S
C276 C275 1.385 . S
C276 C277 1.389 . S
C277 C276 1.389 . S
C277 C278 1.387 1_545 S
C278 H263 0.930 . S
C278 C273 1.390 . S
C278 C277 1.387 1_565 S
H279 C291 0.930 . S
H280 C293 0.930 . S
H281 C294 0.930 . S
H282 C298 0.959 . S
H283 C298 0.959 . S
H284 C298 0.961 . S
H285 C299 0.960 . S
H286 C299 0.961 . S
H287 C299 0.959 . S
H288 C302 0.929 . S
H289 C303 0.931 . S
H290 C305 0.930 . S
C291 H279 0.930 . S
C291 C292 1.399 . S
C291 C296 1.399 . S
C292 C291 1.399 . S
C292 C293 1.376 . S
C293 H280 0.930 . S
C293 C292 1.376 . S
C293 C294 1.388 . S
C294 H281 0.930 . S
C294 C293 1.388 . S
C294 C295 1.390 . S
C295 C294 1.390 . S
C295 C296 1.394 . S
C295 C301 1.465 . S
C296 C291 1.399 . S
C296 C295 1.394 . S
C296 C297 1.516 . S
C297 C296 1.516 . S
C297 C298 1.502 . S
C297 C299 1.561 . S
C297 C300 1.526 . S
C298 H282 0.959 . S
C298 H283 0.959 . S
C298 H284 0.961 . S
C298 C297 1.502 . S
C299 H285 0.960 . S
C299 H286 0.961 . S
C299 H287 0.959 . S
C299 C297 1.561 . S
C300 C297 1.526 . S
C300 C301 1.396 . S
C300 C305 1.390 . S
C301 C295 1.465 . S
C301 C300 1.396 . S
C301 C302 1.399 . S
C302 H288 0.929 . S
C302 C301 1.399 . S
C302 C303 1.385 . S
C303 H289 0.931 . S
C303 C302 1.385 . S
C303 C304 1.389 . S
C304 C303 1.389 . S
C304 C305 1.387 . S
C305 H290 0.930 . S
C305 C300 1.390 . S
C305 C304 1.387 . S
H306 C318 0.930 . S
H307 C320 0.930 . S
H308 C321 0.930 . S
H309 C325 0.959 . S
H310 C325 0.959 . S
H311 C325 0.961 . S
H312 C326 0.960 . S
H313 C326 0.961 . S
H314 C326 0.959 . S
H315 C329 0.929 . S
H316 C330 0.931 . S
H317 C332 0.930 1_655 S
C318 H306 0.930 . S
C318 C319 1.399 . S
C318 C323 1.399 . S
C319 C318 1.399 . S
C319 C320 1.376 . S
C320 H307 0.930 . S
C320 C319 1.376 . S
C320 C321 1.388 . S
C321 H308 0.930 . S
C321 C320 1.388 . S
C321 C322 1.390 . S
C322 C321 1.390 . S
C322 C323 1.394 . S
C322 C328 1.465 . S
C323 C318 1.399 . S
C323 C322 1.394 . S
C323 C324 1.516 . S
C324 C323 1.516 . S
C324 C325 1.502 1_455 S
C324 C326 1.561 . S
C324 C327 1.526 . S
C325 H309 0.959 . S
C325 H310 0.959 . S
C325 H311 0.961 . S
C325 C324 1.502 1_655 S
C326 H312 0.960 . S
C326 H313 0.961 . S
C326 H314 0.959 . S
C326 C324 1.561 . S
C327 C324 1.526 . S
C327 C328 1.396 . S
C327 C332 1.390 . S
C328 C322 1.465 . S
C328 C327 1.396 . S
C328 C329 1.399 . S
C329 H315 0.929 . S
C329 C328 1.399 . S
C329 C330 1.385 . S
C330 H316 0.931 . S
C330 C329 1.385 . S
C330 C331 1.389 . S
C331 C330 1.389 . S
C331 C332 1.387 . S
C332 H317 0.930 1_455 S
C332 C327 1.390 . S
C332 C331 1.387 . S
H333 C345 0.930 . S
H334 C347 0.930 1_565 S
H335 C348 0.930 . S
H336 C352 0.959 . S
H337 C352 0.959 . S
H338 C352 0.961 . S
H339 C353 0.960 . S
H340 C353 0.961 . S
H341 C353 0.959 . S
H342 C356 0.929 . S
H343 C357 0.931 . S
H344 C359 0.930 . S
C345 H333 0.930 . S
C345 C346 1.399 . S
C345 C350 1.399 . S
C346 C345 1.399 . S
C346 C347 1.376 . S
C347 H334 0.930 1_545 S
C347 C346 1.376 . S
C347 C348 1.388 1_545 S
C348 H335 0.930 . S
C348 C347 1.388 1_565 S
C348 C349 1.390 1_565 S
C349 C348 1.390 1_545 S
C349 C350 1.394 . S
C349 C355 1.465 . S
C350 C345 1.399 . S
C350 C349 1.394 . S
C350 C351 1.516 . S
C351 C350 1.516 . S
C351 C352 1.502 . S
C351 C353 1.561 . S
C351 C354 1.526 . S
C352 H336 0.959 . S
C352 H337 0.959 . S
C352 H338 0.961 . S
C352 C351 1.502 . S
C353 H339 0.960 . S
C353 H340 0.961 . S
C353 H341 0.959 . S
C353 C351 1.561 . S
C354 C351 1.526 . S
C354 C355 1.396 . S
C354 C359 1.390 . S
C355 C349 1.465 . S
C355 C354 1.396 . S
C355 C356 1.399 1_545 S
C356 H342 0.929 . S
C356 C355 1.399 1_565 S
C356 C357 1.385 . S
C357 H343 0.931 . S
C357 C356 1.385 . S
C357 C358 1.389 1_565 S
C358 C357 1.389 1_545 S
C358 C359 1.387 . S
C359 H344 0.930 . S
C359 C354 1.390 . S
C359 C358 1.387 . S
H360 C372 0.930 . S
H361 C374 0.930 . S
H362 C375 0.930 . S
H363 C379 0.959 . S
H364 C379 0.959 . S
H365 C379 0.961 . S
H366 C380 0.960 . S
H367 C380 0.961 . S
H368 C380 0.959 . S
H369 C383 0.929 . S
H370 C384 0.931 . S
H371 C386 0.930 . S
C372 H360 0.930 . S
C372 C373 1.399 . S
C372 C377 1.399 . S
C373 C372 1.399 . S
C373 C374 1.376 . S
C374 H361 0.930 . S
C374 C373 1.376 . S
C374 C375 1.388 . S
C375 H362 0.930 . S
C375 C374 1.388 . S
C375 C376 1.390 . S
C376 C375 1.390 . S
C376 C377 1.394 . S
C376 C382 1.465 . S
C377 C372 1.399 . S
C377 C376 1.394 . S
C377 C378 1.516 . S
C378 C377 1.516 . S
C378 C379 1.502 . S
C378 C380 1.561 . S
C378 C381 1.526 . S
C379 H363 0.959 . S
C379 H364 0.959 . S
C379 H365 0.961 . S
C379 C378 1.502 . S
C380 H366 0.960 . S
C380 H367 0.961 . S
C380 H368 0.959 . S
C380 C378 1.561 . S
C381 C378 1.526 . S
C381 C382 1.396 . S
C381 C386 1.390 . S
C382 C376 1.465 . S
C382 C381 1.396 . S
C382 C383 1.399 . S
C383 H369 0.929 . S
C383 C382 1.399 . S
C383 C384 1.385 . S
C384 H370 0.931 . S
C384 C383 1.385 . S
C384 C385 1.389 . S
C385 C384 1.389 . S
C385 C386 1.387 . S
C386 H371 0.930 . S
C386 C381 1.390 . S
C386 C385 1.387 . S
H387 C399 0.930 . S
H388 C401 0.930 . S
H389 C402 0.930 . S
H390 C406 0.959 . S
H391 C406 0.959 . S
H392 C406 0.961 . S
H393 C407 0.960 . S
H394 C407 0.961 . S
H395 C407 0.959 . S
H396 C410 0.929 . S
H397 C411 0.931 . S
H398 C413 0.930 1_565 S
C399 H387 0.930 . S
C399 C400 1.399 . S
C399 C404 1.399 . S
C400 C399 1.399 . S
C400 C401 1.376 . S
C401 H388 0.930 . S
C401 C400 1.376 . S
C401 C402 1.388 . S
C402 H389 0.930 . S
C402 C401 1.388 . S
C402 C403 1.390 . S
C403 C402 1.390 . S
C403 C404 1.394 . S
C403 C409 1.465 . S
C404 C399 1.399 . S
C404 C403 1.394 . S
C404 C405 1.516 . S
C405 C404 1.516 . S
C405 C406 1.502 1_545 S
C405 C407 1.561 . S
C405 C408 1.526 . S
C406 H390 0.959 . S
C406 H391 0.959 . S
C406 H392 0.961 . S
C406 C405 1.502 1_565 S
C407 H393 0.960 . S
C407 H394 0.961 . S
C407 H395 0.959 . S
C407 C405 1.561 . S
C408 C405 1.526 . S
C408 C409 1.396 . S
C408 C413 1.390 . S
C409 C403 1.465 . S
C409 C408 1.396 . S
C409 C410 1.399 . S
C410 H396 0.929 . S
C410 C409 1.399 . S
C410 C411 1.385 . S
C411 H397 0.931 . S
C411 C410 1.385 . S
C411 C412 1.389 . S
C412 C411 1.389 . S
C412 C413 1.387 . S
C413 H398 0.930 1_545 S
C413 C408 1.390 . S
C413 C412 1.387 . S
H414 C426 0.933 . S
H415 C428 0.939 . S
H416 C429 0.930 . S
H417 C433 0.959 . S
H418 C433 0.959 . S
H419 C433 0.961 . S
H420 C434 0.960 . S
H421 C434 0.961 . S
H422 C434 0.959 . S
H423 C437 0.929 . S
H424 C438 0.931 . S
H425 C440 0.930 . S
C426 H414 0.933 . S
C426 C427 1.399 1_556 S
C426 C431 1.399 . S
C427 C426 1.399 1_554 S
C427 C428 1.381 . S
C428 H415 0.939 . S
C428 C427 1.381 . S
C428 C429 1.376 1_554 S
C429 H416 0.930 . S
C429 C428 1.376 1_556 S
C429 C430 1.390 . S
C430 C429 1.390 . S
C430 C431 1.394 . S
C430 C436 1.465 . S
C431 C426 1.399 . S
C431 C430 1.394 . S
C431 C432 1.516 . S
C432 C431 1.516 . S
C432 C433 1.502 . S
C432 C434 1.561 . S
C432 C435 1.526 . S
C433 H417 0.959 . S
C433 H418 0.959 . S
C433 H419 0.961 . S
C433 C432 1.502 . S
C434 H420 0.960 . S
C434 H421 0.961 . S
C434 H422 0.959 . S
C434 C432 1.561 . S
C435 C432 1.526 . S
C435 C436 1.396 . S
C435 C440 1.390 . S
C436 C430 1.465 . S
C436 C435 1.396 . S
C436 C437 1.399 . S
C437 H423 0.929 . S
C437 C436 1.399 . S
C437 C438 1.385 . S
C438 H424 0.931 . S
C438 C437 1.385 . S
C438 C439 1.389 . S
C439 C438 1.389 . S
C439 C440 1.387 . S
C440 H425 0.930 . S
C440 C435 1.390 . S
C440 C439 1.387 . S
H441 C453 0.930 1_655 S
H442 C455 0.930 . S
H443 C456 0.930 . S
H444 C460 0.959 . S
H445 C460 0.959 . S
H446 C460 0.961 . S
H447 C461 0.960 . S
H448 C461 0.961 . S
H449 C461 0.959 . S
H450 C464 0.929 . S
H451 C465 0.931 . S
H452 C467 0.930 1_655 S
C453 H441 0.930 1_455 S
C453 C454 1.399 . S
C453 C458 1.399 . S
C454 C453 1.399 . S
C454 C455 1.376 . S
C455 H442 0.930 . S
C455 C454 1.376 . S
C455 C456 1.388 . S
C456 H443 0.930 . S
C456 C455 1.388 . S
C456 C457 1.390 . S
C457 C456 1.390 . S
C457 C458 1.394 . S
C457 C463 1.465 . S
C458 C453 1.399 . S
C458 C457 1.394 . S
C458 C459 1.515 . S
C459 C458 1.515 . S
C459 C460 1.480 1_455 S
C459 C461 1.573 . S
C459 C462 1.541 . S
C460 H444 0.959 . S
C460 H445 0.959 . S
C460 H446 0.961 . S
C460 C459 1.480 1_655 S
C461 H447 0.960 . S
C461 H448 0.961 . S
C461 H449 0.959 . S
C461 C459 1.573 . S
C462 C459 1.541 . S
C462 C463 1.396 . S
C462 C467 1.390 . S
C463 C457 1.465 . S
C463 C462 1.396 . S
C463 C464 1.399 . S
C464 H450 0.929 . S
C464 C463 1.399 . S
C464 C465 1.385 . S
C465 H451 0.931 . S
C465 C464 1.385 . S
C465 C466 1.389 . S
C466 C465 1.389 . S
C466 C467 1.387 . S
C467 H452 0.930 1_455 S
C467 C462 1.390 . S
C467 C466 1.387 . S
H468 C480 0.930 . S
H469 C482 0.930 . S
H470 C483 0.930 . S
H471 C487 0.959 . S
H472 C487 0.959 . S
H473 C487 0.961 . S
H474 C488 0.960 . S
H475 C488 0.961 . S
H476 C488 0.959 1_545 S
H477 C491 0.929 . S
H478 C492 0.931 . S
H479 C494 0.930 . S
C480 H468 0.930 . S
C480 C481 1.399 . S
C480 C485 1.399 . S
C481 C480 1.399 . S
C481 C482 1.376 1_565 S
C482 H469 0.930 . S
C482 C481 1.376 1_545 S
C482 C483 1.388 . S
C483 H470 0.930 . S
C483 C482 1.388 . S
C483 C484 1.390 . S
C484 C483 1.390 . S
C484 C485 1.394 1_545 S
C484 C490 1.465 . S
C485 C480 1.399 . S
C485 C484 1.394 1_565 S
C485 C486 1.516 . S
C486 C485 1.516 . S
C486 C487 1.502 . S
C486 C488 1.561 . S
C486 C489 1.526 . S
C487 H471 0.959 . S
C487 H472 0.959 . S
C487 H473 0.961 . S
C487 C486 1.502 . S
C488 H474 0.960 . S
C488 H475 0.961 . S
C488 H476 0.959 1_565 S
C488 C486 1.561 . S
C489 C486 1.526 . S
C489 C490 1.396 1_565 S
C489 C494 1.390 . S
C490 C484 1.465 . S
C490 C489 1.396 1_545 S
C490 C491 1.399 . S
C491 H477 0.929 . S
C491 C490 1.399 . S
C491 C492 1.385 . S
C492 H478 0.931 . S
C492 C491 1.385 . S
C492 C493 1.389 . S
C493 C492 1.389 . S
C493 C494 1.387 1_545 S
C494 H479 0.930 . S
C494 C489 1.390 . S
C494 C493 1.387 1_565 S
H495 C507 0.930 . S
H496 C509 0.930 . S
H497 C510 0.930 . S
H498 C514 0.959 . S
H499 C514 0.959 . S
H500 C514 0.961 . S
H501 C515 0.960 . S
H502 C515 0.961 . S
H503 C515 0.959 . S
H504 C518 0.929 . S
H505 C519 0.931 . S
H506 C521 0.930 . S
C507 H495 0.930 . S
C507 C508 1.399 1_556 S
C507 C512 1.399 . S
C508 C507 1.399 1_554 S
C508 C509 1.376 . S
C509 H496 0.930 . S
C509 C508 1.376 . S
C509 C510 1.388 . S
C510 H497 0.930 . S
C510 C509 1.388 . S
C510 C511 1.390 1_554 S
C511 C510 1.390 1_556 S
C511 C512 1.394 . S
C511 C517 1.465 . S
C512 C507 1.399 . S
C512 C511 1.394 . S
C512 C513 1.516 . S
C513 C512 1.516 . S
C513 C514 1.502 . S
C513 C515 1.561 . S
C513 C516 1.526 . S
C514 H498 0.959 . S
C514 H499 0.959 . S
C514 H500 0.961 . S
C514 C513 1.502 . S
C515 H501 0.960 . S
C515 H502 0.961 . S
C515 H503 0.959 . S
C515 C513 1.561 . S
C516 C513 1.526 . S
C516 C517 1.396 . S
C516 C521 1.390 . S
C517 C511 1.465 . S
C517 C516 1.396 . S
C517 C518 1.399 . S
C518 H504 0.929 . S
C518 C517 1.399 . S
C518 C519 1.385 . S
C519 H505 0.931 . S
C519 C518 1.385 . S
C519 C520 1.389 . S
C520 C519 1.389 . S
C520 C521 1.387 . S
C521 H506 0.930 . S
C521 C516 1.390 . S
C521 C520 1.387 . S
H522 C534 0.930 . S
H523 C536 0.930 . S
H524 C537 0.930 . S
H525 C541 0.959 . S
H526 C541 0.972 . S
H527 C541 0.961 . S
H528 C542 0.960 . S
H529 C542 0.961 . S
H530 C542 0.959 . S
H531 C545 0.929 . S
H532 C546 0.931 . S
H533 C548 0.923 1_655 S
C534 H522 0.930 . S
C534 C535 1.399 . S
C534 C539 1.399 . S
C535 C534 1.399 . S
C535 C536 1.376 . S
C536 H523 0.930 . S
C536 C535 1.376 . S
C536 C537 1.388 . S
C537 H524 0.930 . S
C537 C536 1.388 . S
C537 C538 1.390 . S
C538 C537 1.390 . S
C538 C539 1.394 . S
C538 C544 1.465 . S
C539 C534 1.399 . S
C539 C538 1.394 . S
C539 C540 1.516 1_455 S
C540 C539 1.516 1_655 S
C540 C541 1.502 1_655 S
C540 C542 1.561 . S
C540 C543 1.526 1_655 S
C541 H525 0.959 . S
C541 H526 0.972 . S
C541 H527 0.961 . S
C541 C540 1.502 1_455 S
C542 H528 0.960 . S
C542 H529 0.961 . S
C542 H530 0.959 . S
C542 C540 1.561 . S
C543 C540 1.526 1_455 S
C543 C544 1.396 . S
C543 C548 1.405 . S
C544 C538 1.465 . S
C544 C543 1.396 . S
C544 C545 1.399 . S
C545 H531 0.929 . S
C545 C544 1.399 . S
C545 C546 1.385 . S
C546 H532 0.931 . S
C546 C545 1.385 . S
C546 C547 1.389 . S
C547 C546 1.389 . S
C547 C548 1.380 . S
C548 H533 0.923 1_455 S
C548 C543 1.405 . S
C548 C547 1.380 . S
C250 C92 1.287 . S
C238 C10 1.273 1_455 S
C265 C21 1.264 . S
C277 C136 1.315 . S
C292 C31 1.240 . S
C304 C198 1.358 . S
C319 C0 1.244 . S
C331 C74 1.276 . S
C358 C154 1.344 . S
C346 C18 1.223 . S
C373 C34 1.263 . S
C385 C216 1.306 . S
C412 C130 1.421 . S
C400 C36 1.583 . S
C427 C8 1.602 . S
C439 C192 1.538 . S
C466 C68 1.550 . S
C454 C23 1.595 . S
C493 C148 1.501 . S
C481 C26 1.542 . S
C520 C210 1.606 . S
C508 C5 1.580 . S
C535 C13 1.621 . S
C547 C86 1.581 . S
