# Generated by pormake.
# Topology bwt, (3,3)-cn, num edge types: 1
# Building blocks:
#     Node 0, Type 0, BuildingBlock: WUSLED_clean_sbu_0, # of connection points: 3
#     Node 1, Type 0, BuildingBlock: WUSLED_clean_sbu_0, # of connection points: 3
#     Node 2, Type 0, BuildingBlock: WUSLED_clean_sbu_0, # of connection points: 3
#     Node 3, Type 0, BuildingBlock: WUSLED_clean_sbu_0, # of connection points: 3
#     Node 4, Type 0, BuildingBlock: WUSLED_clean_sbu_0, # of connection points: 3
#     Node 5, Type 0, BuildingBlock: WUSLED_clean_sbu_0, # of connection points: 3
#     Node 6, Type 0, BuildingBlock: WUSLED_clean_sbu_0, # of connection points: 3
#     Node 7, Type 0, BuildingBlock: WUSLED_clean_sbu_0, # of connection points: 3
#     Node 8, Type 0, BuildingBlock: WUSLED_clean_sbu_0, # of connection points: 3
#     Node 9, Type 0, BuildingBlock: WUSLED_clean_sbu_0, # of connection points: 3
#     Node 10, Type 0, BuildingBlock: WUSLED_clean_sbu_0, # of connection points: 3
#     Node 11, Type 0, BuildingBlock: WUSLED_clean_sbu_0, # of connection points: 3
#     Node 12, Type 0, BuildingBlock: WUSLED_clean_sbu_0, # of connection points: 3
#     Node 13, Type 0, BuildingBlock: WUSLED_clean_sbu_0, # of connection points: 3
#     Node 14, Type 0, BuildingBlock: WUSLED_clean_sbu_0, # of connection points: 3
#     Node 15, Type 0, BuildingBlock: WUSLED_clean_sbu_0, # of connection points: 3
#     Node 16, Type 0, BuildingBlock: WUSLED_clean_sbu_0, # of connection points: 3
#     Node 17, Type 0, BuildingBlock: WUSLED_clean_sbu_0, # of connection points: 3
#     Node 18, Type 0, BuildingBlock: WUSLED_clean_sbu_0, # of connection points: 3
#     Node 19, Type 0, BuildingBlock: WUSLED_clean_sbu_0, # of connection points: 3
#     Node 20, Type 0, BuildingBlock: WUSLED_clean_sbu_0, # of connection points: 3
#     Node 21, Type 0, BuildingBlock: WUSLED_clean_sbu_0, # of connection points: 3
#     Node 22, Type 0, BuildingBlock: WUSLED_clean_sbu_0, # of connection points: 3
#     Node 23, Type 0, BuildingBlock: WUSLED_clean_sbu_0, # of connection points: 3
#     Node 24, Type 1, BuildingBlock: ESEHIV_clean_linker_0, # of connection points: 3
#     Node 25, Type 1, BuildingBlock: ESEHIV_clean_linker_0, # of connection points: 3
#     Node 26, Type 1, BuildingBlock: ESEHIV_clean_linker_0, # of connection points: 3
#     Node 27, Type 1, BuildingBlock: ESEHIV_clean_linker_0, # of connection points: 3
#     Node 28, Type 1, BuildingBlock: ESEHIV_clean_linker_0, # of connection points: 3
#     Node 29, Type 1, BuildingBlock: ESEHIV_clean_linker_0, # of connection points: 3
#     Node 30, Type 1, BuildingBlock: ESEHIV_clean_linker_0, # of connection points: 3
#     Node 31, Type 1, BuildingBlock: ESEHIV_clean_linker_0, # of connection points: 3
#     Node 32, Type 1, BuildingBlock: ESEHIV_clean_linker_0, # of connection points: 3
#     Node 33, Type 1, BuildingBlock: ESEHIV_clean_linker_0, # of connection points: 3
#     Node 34, Type 1, BuildingBlock: ESEHIV_clean_linker_0, # of connection points: 3
#     Node 35, Type 1, BuildingBlock: ESEHIV_clean_linker_0, # of connection points: 3
#     Node 36, Type 1, BuildingBlock: ESEHIV_clean_linker_0, # of connection points: 3
#     Node 37, Type 1, BuildingBlock: ESEHIV_clean_linker_0, # of connection points: 3
#     Node 38, Type 1, BuildingBlock: ESEHIV_clean_linker_0, # of connection points: 3
#     Node 39, Type 1, BuildingBlock: ESEHIV_clean_linker_0, # of connection points: 3
#     Node 40, Type 1, BuildingBlock: ESEHIV_clean_linker_0, # of connection points: 3
#     Node 41, Type 1, BuildingBlock: ESEHIV_clean_linker_0, # of connection points: 3
#     Node 42, Type 1, BuildingBlock: ESEHIV_clean_linker_0, # of connection points: 3
#     Node 43, Type 1, BuildingBlock: ESEHIV_clean_linker_0, # of connection points: 3
#     Node 44, Type 1, BuildingBlock: ESEHIV_clean_linker_0, # of connection points: 3
#     Node 45, Type 1, BuildingBlock: ESEHIV_clean_linker_0, # of connection points: 3
#     Node 46, Type 1, BuildingBlock: ESEHIV_clean_linker_0, # of connection points: 3
#     Node 47, Type 1, BuildingBlock: ESEHIV_clean_linker_0, # of connection points: 3
#     Edge 48, Type (0, 1), BuildingBlock: XIVTED_clean_linker_0, # of connection points: 2
#     Edge 49, Type (0, 1), BuildingBlock: XIVTED_clean_linker_0, # of connection points: 2
#     Edge 50, Type (0, 1), BuildingBlock: XIVTED_clean_linker_0, # of connection points: 2
#     Edge 51, Type (0, 1), BuildingBlock: XIVTED_clean_linker_0, # of connection points: 2
#     Edge 52, Type (0, 1), BuildingBlock: XIVTED_clean_linker_0, # of connection points: 2
#     Edge 53, Type (0, 1), BuildingBlock: XIVTED_clean_linker_0, # of connection points: 2
#     Edge 54, Type (0, 1), BuildingBlock: XIVTED_clean_linker_0, # of connection points: 2
#     Edge 55, Type (0, 1), BuildingBlock: XIVTED_clean_linker_0, # of connection points: 2
#     Edge 56, Type (0, 1), BuildingBlock: XIVTED_clean_linker_0, # of connection points: 2
#     Edge 57, Type (0, 1), BuildingBlock: XIVTED_clean_linker_0, # of connection points: 2
#     Edge 58, Type (0, 1), BuildingBlock: XIVTED_clean_linker_0, # of connection points: 2
#     Edge 59, Type (0, 1), BuildingBlock: XIVTED_clean_linker_0, # of connection points: 2
#     Edge 60, Type (0, 1), BuildingBlock: XIVTED_clean_linker_0, # of connection points: 2
#     Edge 61, Type (0, 1), BuildingBlock: XIVTED_clean_linker_0, # of connection points: 2
#     Edge 62, Type (0, 1), BuildingBlock: XIVTED_clean_linker_0, # of connection points: 2
#     Edge 63, Type (0, 1), BuildingBlock: XIVTED_clean_linker_0, # of connection points: 2
#     Edge 64, Type (0, 1), BuildingBlock: XIVTED_clean_linker_0, # of connection points: 2
#     Edge 65, Type (0, 1), BuildingBlock: XIVTED_clean_linker_0, # of connection points: 2
#     Edge 66, Type (0, 1), BuildingBlock: XIVTED_clean_linker_0, # of connection points: 2
#     Edge 67, Type (0, 1), BuildingBlock: XIVTED_clean_linker_0, # of connection points: 2
#     Edge 68, Type (0, 1), BuildingBlock: XIVTED_clean_linker_0, # of connection points: 2
#     Edge 69, Type (0, 1), BuildingBlock: XIVTED_clean_linker_0, # of connection points: 2
#     Edge 70, Type (0, 1), BuildingBlock: XIVTED_clean_linker_0, # of connection points: 2
#     Edge 71, Type (0, 1), BuildingBlock: XIVTED_clean_linker_0, # of connection points: 2
#     Edge 72, Type (0, 1), BuildingBlock: XIVTED_clean_linker_0, # of connection points: 2
#     Edge 73, Type (0, 1), BuildingBlock: XIVTED_clean_linker_0, # of connection points: 2
#     Edge 74, Type (0, 1), BuildingBlock: XIVTED_clean_linker_0, # of connection points: 2
#     Edge 75, Type (0, 1), BuildingBlock: XIVTED_clean_linker_0, # of connection points: 2
#     Edge 76, Type (0, 1), BuildingBlock: XIVTED_clean_linker_0, # of connection points: 2
#     Edge 77, Type (0, 1), BuildingBlock: XIVTED_clean_linker_0, # of connection points: 2
#     Edge 78, Type (0, 1), BuildingBlock: XIVTED_clean_linker_0, # of connection points: 2
#     Edge 79, Type (0, 1), BuildingBlock: XIVTED_clean_linker_0, # of connection points: 2
#     Edge 80, Type (0, 1), BuildingBlock: XIVTED_clean_linker_0, # of connection points: 2
#     Edge 81, Type (0, 1), BuildingBlock: XIVTED_clean_linker_0, # of connection points: 2
#     Edge 82, Type (0, 1), BuildingBlock: XIVTED_clean_linker_0, # of connection points: 2
#     Edge 83, Type (0, 1), BuildingBlock: XIVTED_clean_linker_0, # of connection points: 2
#     Edge 84, Type (0, 1), BuildingBlock: XIVTED_clean_linker_0, # of connection points: 2
#     Edge 85, Type (0, 1), BuildingBlock: XIVTED_clean_linker_0, # of connection points: 2
#     Edge 86, Type (0, 1), BuildingBlock: XIVTED_clean_linker_0, # of connection points: 2
#     Edge 87, Type (0, 1), BuildingBlock: XIVTED_clean_linker_0, # of connection points: 2
#     Edge 88, Type (0, 1), BuildingBlock: XIVTED_clean_linker_0, # of connection points: 2
#     Edge 89, Type (0, 1), BuildingBlock: XIVTED_clean_linker_0, # of connection points: 2
#     Edge 90, Type (0, 1), BuildingBlock: XIVTED_clean_linker_0, # of connection points: 2
#     Edge 91, Type (0, 1), BuildingBlock: XIVTED_clean_linker_0, # of connection points: 2
#     Edge 92, Type (0, 1), BuildingBlock: XIVTED_clean_linker_0, # of connection points: 2
#     Edge 93, Type (0, 1), BuildingBlock: XIVTED_clean_linker_0, # of connection points: 2
#     Edge 94, Type (0, 1), BuildingBlock: XIVTED_clean_linker_0, # of connection points: 2
#     Edge 95, Type (0, 1), BuildingBlock: XIVTED_clean_linker_0, # of connection points: 2
#     Edge 96, Type (0, 1), BuildingBlock: XIVTED_clean_linker_0, # of connection points: 2
#     Edge 97, Type (0, 1), BuildingBlock: XIVTED_clean_linker_0, # of connection points: 2
#     Edge 98, Type (0, 1), BuildingBlock: XIVTED_clean_linker_0, # of connection points: 2
#     Edge 99, Type (0, 1), BuildingBlock: XIVTED_clean_linker_0, # of connection points: 2
#     Edge 100, Type (0, 1), BuildingBlock: XIVTED_clean_linker_0, # of connection points: 2
#     Edge 101, Type (0, 1), BuildingBlock: XIVTED_clean_linker_0, # of connection points: 2
#     Edge 102, Type (0, 1), BuildingBlock: XIVTED_clean_linker_0, # of connection points: 2
#     Edge 103, Type (0, 1), BuildingBlock: XIVTED_clean_linker_0, # of connection points: 2
#     Edge 104, Type (0, 1), BuildingBlock: XIVTED_clean_linker_0, # of connection points: 2
#     Edge 105, Type (0, 1), BuildingBlock: XIVTED_clean_linker_0, # of connection points: 2
#     Edge 106, Type (0, 1), BuildingBlock: XIVTED_clean_linker_0, # of connection points: 2
#     Edge 107, Type (0, 1), BuildingBlock: XIVTED_clean_linker_0, # of connection points: 2
#     Edge 108, Type (0, 1), BuildingBlock: XIVTED_clean_linker_0, # of connection points: 2
#     Edge 109, Type (0, 1), BuildingBlock: XIVTED_clean_linker_0, # of connection points: 2
#     Edge 110, Type (0, 1), BuildingBlock: XIVTED_clean_linker_0, # of connection points: 2
#     Edge 111, Type (0, 1), BuildingBlock: XIVTED_clean_linker_0, # of connection points: 2
#     Edge 112, Type (0, 1), BuildingBlock: XIVTED_clean_linker_0, # of connection points: 2
#     Edge 113, Type (0, 1), BuildingBlock: XIVTED_clean_linker_0, # of connection points: 2
#     Edge 114, Type (0, 1), BuildingBlock: XIVTED_clean_linker_0, # of connection points: 2
#     Edge 115, Type (0, 1), BuildingBlock: XIVTED_clean_linker_0, # of connection points: 2
#     Edge 116, Type (0, 1), BuildingBlock: XIVTED_clean_linker_0, # of connection points: 2
#     Edge 117, Type (0, 1), BuildingBlock: XIVTED_clean_linker_0, # of connection points: 2
#     Edge 118, Type (0, 1), BuildingBlock: XIVTED_clean_linker_0, # of connection points: 2
#     Edge 119, Type (0, 1), BuildingBlock: XIVTED_clean_linker_0, # of connection points: 2
# Relax obj value: 0.224
# Max RMSD: 0.276
# Mean RMSD: 0.140
data_MOF--net-bwt--node1-WUSLED_clean_sbu_0--node2-ESEHIV_clean_linker_0--edge1-XIVTED_clean_linker_0
_symmetry_space_group_name_H-M    P1
_symmetry_Int_Tables_number       1
_symmetry_cell_setting            triclinic
loop_
_symmetry_equiv_pos_as_xyz
'x, y, z'
_cell_length_a     64.764674
_cell_length_b     64.777786
_cell_length_c     64.78036
_cell_angle_alpha  90.268923
_cell_angle_beta   90.290281
_cell_angle_gamma 90.25099
loop_
_atom_site_label
_atom_site_type_symbol
_atom_site_fract_x
_atom_site_fract_y
_atom_site_fract_z
_atom_type_partial_charge
C0 C 0.29917 0.67902 0.40166 0.0
C1 C 0.31687 0.68453 0.41323 0.0
C2 C 0.33934 0.67845 0.38329 0.0
C3 C 0.33669 0.68404 0.40423 0.0
C4 C 0.32147 0.67432 0.3715 0.0
C5 C 0.30178 0.67481 0.38047 0.0
U6 U 0.25379 0.65866 0.43904 0.0
O7 O 0.2257 0.64384 0.42693 0.0
O8 O 0.22356 0.67367 0.44321 0.0
C9 C 0.21366 0.65865 0.43359 0.0
C10 C 0.27801 0.67597 0.41075 0.0
C11 C 0.196 0.66398 0.42043 0.0
C12 C 0.18003 0.67748 0.38919 0.0
C13 C 0.19788 0.67308 0.40084 0.0
C14 C 0.15886 0.66378 0.41665 0.0
C15 C 0.1604 0.67305 0.3973 0.0
C16 C 0.17643 0.65909 0.42801 0.0
C17 C 0.26545 0.627 0.49126 0.0
C18 C 0.24592 0.60736 0.51695 0.0
C19 C 0.28286 0.61127 0.52074 0.0
C20 C 0.28339 0.62274 0.5026 0.0
C21 C 0.26422 0.60332 0.5282 0.0
C22 C 0.24651 0.61926 0.49862 0.0
C23 C 0.26802 0.63899 0.47181 0.0
O24 O 0.26992 0.65741 0.40918 0.0
O25 O 0.2728 0.68525 0.42806 0.0
O26 O 0.2644 0.6299 0.45396 0.0
O27 O 0.26404 0.65888 0.47174 0.0
H28 H 0.31554 0.68894 0.42923 0.0
H29 H 0.34999 0.68758 0.41383 0.0
H30 H 0.32267 0.67051 0.35525 0.0
H31 H 0.28851 0.6709 0.37095 0.0
H32 H 0.18149 0.68467 0.3742 0.0
H33 H 0.21296 0.67677 0.39468 0.0
H34 H 0.14391 0.66054 0.42308 0.0
H35 H 0.17468 0.65187 0.44297 0.0
H36 H 0.23127 0.60146 0.52239 0.0
H37 H 0.29721 0.60837 0.52887 0.0
H38 H 0.29808 0.6282 0.49737 0.0
H39 H 0.23234 0.62224 0.49023 0.0
C40 C 0.20665 0.2993 0.61998 0.0
C41 C 0.19787 0.31217 0.63489 0.0
C42 C 0.16397 0.30257 0.6221 0.0
C43 C 0.1765 0.31383 0.6359 0.0
C44 C 0.17279 0.28964 0.60729 0.0
C45 C 0.19416 0.28811 0.60617 0.0
U46 U 0.26424 0.31118 0.63187 0.0
O47 O 0.28688 0.3103 0.60697 0.0
O48 O 0.28815 0.28718 0.63177 0.0
C49 C 0.2957 0.29352 0.61408 0.0
C50 C 0.22879 0.29724 0.61823 0.0
C51 C 0.31784 0.29268 0.61159 0.0
C52 C 0.34699 0.2813 0.59119 0.0
C53 C 0.32593 0.28054 0.59555 0.0
C54 C 0.35154 0.30622 0.61896 0.0
C55 C 0.35974 0.29459 0.60262 0.0
C56 C 0.33071 0.30517 0.6236 0.0
C57 C 0.27379 0.35588 0.67487 0.0
C58 C 0.30158 0.3747 0.69236 0.0
C59 C 0.26604 0.38069 0.70207 0.0
C60 C 0.25948 0.36645 0.68714 0.0
C61 C 0.28711 0.3849 0.70494 0.0
C62 C 0.29496 0.36013 0.67745 0.0
C63 C 0.26552 0.34051 0.65997 0.0
O64 O 0.23846 0.31298 0.60994 0.0
O65 O 0.23839 0.28937 0.63426 0.0
O66 O 0.26576 0.32076 0.66463 0.0
O67 O 0.26596 0.34433 0.64005 0.0
H68 H 0.20748 0.32087 0.64559 0.0
H69 H 0.1697 0.32382 0.64746 0.0
H70 H 0.16319 0.28098 0.59655 0.0
H71 H 0.20095 0.27818 0.59456 0.0
H72 H 0.35315 0.27219 0.57859 0.0
H73 H 0.31588 0.27093 0.5861 0.0
H74 H 0.36127 0.31669 0.62766 0.0
H75 H 0.32455 0.31469 0.63589 0.0
H76 H 0.31795 0.37759 0.69443 0.0
H77 H 0.2546 0.38832 0.71154 0.0
H78 H 0.24309 0.36346 0.68537 0.0
H79 H 0.30628 0.35214 0.66815 0.0
C80 C 0.81234 1.00054 0.62918 0.0
C81 C 0.82634 0.99623 0.61325 0.0
C82 C 0.85493 0.00814 0.63517 0.0
C83 C 0.84756 0.99994 0.61627 0.0
C84 C 0.8408 0.01145 0.65121 0.0
C85 C 0.81982 0.00762 0.64824 0.0
U86 U 0.75771 0.99629 0.60169 0.0
O87 O 0.72783 0.99148 0.61766 0.0
O88 O 0.73544 0.02181 0.60358 0.0
C89 C 0.722 0.01048 0.61363 0.0
C90 C 0.78985 1.00138 0.62606 0.0
C91 C 0.70397 0.02006 0.62354 0.0
C92 C 0.68806 0.0437 0.64809 0.0
C93 C 0.70539 0.03252 0.64133 0.0
C94 C 0.66788 0.0292 0.61995 0.0
C95 C 0.66928 0.04272 0.63697 0.0
C96 C 0.68502 0.01812 0.61333 0.0
C97 C 0.75406 0.97575 0.5438 0.0
C98 C 0.72609 0.97109 0.51897 0.0
C99 C 0.76132 0.97362 0.50706 0.0
C100 C 0.7681 0.97511 0.52748 0.0
C101 C 0.74011 0.97236 0.50222 0.0
C102 C 0.73296 0.97314 0.53953 0.0
C103 C 0.76255 0.98036 0.56455 0.0
O104 O 0.78321 0.01546 0.61317 0.0
O105 O 0.77902 0.98415 0.62557 0.0
O106 O 0.75651 0.96937 0.58047 0.0
O107 O 0.76564 0.99993 0.56899 0.0
H108 H 0.82081 0.99093 0.59832 0.0
H109 H 0.85809 0.99707 0.60366 0.0
H110 H 0.84574 0.0181 0.66579 0.0
H111 H 0.80922 0.01135 0.66059 0.0
H112 H 0.68972 0.05391 0.66128 0.0
H113 H 0.71995 0.03421 0.64947 0.0
H114 H 0.65361 0.0275 0.61133 0.0
H115 H 0.68363 0.00855 0.59962 0.0
H116 H 0.70971 0.96909 0.51641 0.0
H117 H 0.77295 0.97476 0.49525 0.0
H118 H 0.7845 0.97684 0.53047 0.0
H119 H 0.72182 0.97319 0.55194 0.0
C120 C 0.67193 0.93024 0.38393 0.0
C121 C 0.65608 0.94495 0.38237 0.0
C122 C 0.63002 0.9175 0.384 0.0
C123 C 0.63527 0.93854 0.382 0.0
C124 C 0.64585 0.9032 0.38733 0.0
C125 C 0.66651 0.90948 0.3872 0.0
U126 U 0.72607 0.95026 0.36143 0.0
O127 O 0.75128 0.96031 0.38201 0.0
O128 O 0.75299 0.93038 0.36594 0.0
C129 C 0.76203 0.94351 0.37859 0.0
C130 C 0.69427 0.93526 0.38215 0.0
C131 C 0.78423 0.94603 0.37616 0.0
C132 C 0.81816 0.93728 0.38888 0.0
C133 C 0.79685 0.93674 0.39095 0.0
C134 C 0.81459 0.9572 0.35742 0.0
C135 C 0.82718 0.9472 0.37198 0.0
C136 C 0.79306 0.95652 0.35944 0.0
C137 C 0.71861 0.97798 0.30541 0.0
C138 C 0.72566 0.99982 0.27538 0.0
C139 C 0.69475 0.97891 0.27633 0.0
C140 C 0.70073 0.97095 0.29542 0.0
C141 C 0.70776 0.99239 0.26532 0.0
C142 C 0.73082 0.99291 0.29535 0.0
C143 C 0.72625 0.9685 0.32494 0.0
O144 O 0.70097 0.95432 0.3845 0.0
O145 O 0.70469 0.92481 0.36828 0.0
O146 O 0.72546 0.97875 0.34243 0.0
O147 O 0.72534 0.94834 0.32729 0.0
H148 H 0.6597 0.96115 0.38053 0.0
H149 H 0.6233 0.94991 0.37955 0.0
H150 H 0.64229 0.88692 0.38886 0.0
H151 H 0.67839 0.89789 0.38898 0.0
H152 H 0.82762 0.92947 0.40024 0.0
H153 H 0.79018 0.9286 0.40391 0.0
H154 H 0.82135 0.96471 0.34415 0.0
H155 H 0.78337 0.96371 0.34786 0.0
H156 H 0.73623 0.01006 0.26748 0.0
H157 H 0.68054 0.97316 0.2695 0.0
H158 H 0.69198 0.95831 0.30154 0.0
H159 H 0.74503 0.99834 0.30246 0.0
C160 C 0.40559 0.30357 0.66898 0.0
C161 C 0.4167 0.32099 0.67604 0.0
C162 C 0.38599 0.34284 0.67201 0.0
C163 C 0.40704 0.34051 0.67734 0.0
C164 C 0.37485 0.32513 0.66616 0.0
C165 C 0.38452 0.30594 0.66441 0.0
U166 U 0.43918 0.25247 0.65507 0.0
O167 O 0.42296 0.22518 0.64293 0.0
O168 O 0.43776 0.22416 0.67384 0.0
C169 C 0.42784 0.21412 0.65912 0.0
C170 C 0.41422 0.28224 0.66757 0.0
C171 C 0.41514 0.1962 0.66404 0.0
C172 C 0.38489 0.17906 0.67804 0.0
C173 C 0.39601 0.1973 0.6741 0.0
C174 C 0.41191 0.15922 0.66151 0.0
C175 C 0.39285 0.15987 0.6717 0.0
C176 C 0.42286 0.17716 0.65769 0.0
C177 C 0.49371 0.25987 0.62413 0.0
C178 C 0.52239 0.24487 0.60498 0.0
C179 C 0.51961 0.28197 0.60847 0.0
C180 C 0.50153 0.27957 0.61985 0.0
C181 C 0.53022 0.26471 0.6008 0.0
C182 C 0.50429 0.24246 0.61668 0.0
C183 C 0.47401 0.25802 0.63538 0.0
O184 O 0.41223 0.27237 0.64998 0.0
O185 O 0.43049 0.27646 0.67832 0.0
O186 O 0.47324 0.25617 0.65557 0.0
O187 O 0.45616 0.25708 0.62581 0.0
H188 H 0.43273 0.31954 0.68052 0.0
H189 H 0.41608 0.35379 0.68221 0.0
H190 H 0.35847 0.32614 0.66283 0.0
H191 H 0.37532 0.29273 0.65962 0.0
H192 H 0.37015 0.17992 0.68582 0.0
H193 H 0.3898 0.21206 0.67887 0.0
H194 H 0.41858 0.14471 0.65673 0.0
H195 H 0.43756 0.1761 0.64981 0.0
H196 H 0.53037 0.2313 0.59939 0.0
H197 H 0.52519 0.29745 0.60541 0.0
H198 H 0.49359 0.29323 0.62509 0.0
H199 H 0.49846 0.22707 0.61974 0.0
C200 C 0.37434 0.6728 0.92414 0.0
C201 C 0.37273 0.65655 0.93825 0.0
C202 C 0.38131 0.63124 0.91131 0.0
C203 C 0.37547 0.63605 0.93182 0.0
C204 C 0.38545 0.6481 0.89814 0.0
C205 C 0.38154 0.66839 0.90431 0.0
U206 U 0.35234 0.72686 0.94689 0.0
O207 O 0.3565 0.75469 0.92804 0.0
O208 O 0.37559 0.75009 0.95574 0.0
C209 C 0.37129 0.76198 0.94 0.0
C210 C 0.37004 0.69467 0.9294 0.0
C211 C 0.37141 0.78417 0.944 0.0
C212 C 0.38815 0.81708 0.938 0.0
C213 C 0.38798 0.79566 0.93624 0.0
C214 C 0.35556 0.81568 0.95628 0.0
C215 C 0.3718 0.82721 0.9477 0.0
C216 C 0.35537 0.79414 0.95448 0.0
C217 C 0.30008 0.71981 0.9806 0.0
C218 C 0.27199 0.72695 0.0046 0.0
C219 C 0.27141 0.69569 0.98408 0.0
C220 C 0.28995 0.70151 0.97479 0.0
C221 C 0.26179 0.70868 0.99856 0.0
C222 C 0.29106 0.73229 0.99589 0.0
C223 C 0.31861 0.7277 0.96972 0.0
O224 O 0.37521 0.7018 0.94765 0.0
O225 O 0.35433 0.70435 0.92098 0.0
O226 O 0.33706 0.72452 0.97748 0.0
O227 O 0.31837 0.72884 0.94945 0.0
H228 H 0.36876 0.65941 0.95409 0.0
H229 H 0.37237 0.62427 0.94311 0.0
H230 H 0.39132 0.64608 0.88274 0.0
H231 H 0.38413 0.68077 0.89342 0.0
H232 H 0.40053 0.8258 0.93092 0.0
H233 H 0.40047 0.78809 0.92815 0.0
H234 H 0.3426 0.82341 0.96341 0.0
H235 H 0.34249 0.78539 0.96056 0.0
H236 H 0.26502 0.73736 0.01567 0.0
H237 H 0.26378 0.6818 0.97857 0.0
H238 H 0.29536 0.69234 0.96212 0.0
H239 H 0.29834 0.74672 1.00043 0.0
C240 C 0.61887 0.20688 0.29995 0.0
C241 C 0.63385 0.19778 0.31254 0.0
C242 C 0.62154 0.16418 0.30156 0.0
C243 C 0.63516 0.17637 0.31336 0.0
C244 C 0.60643 0.17329 0.2892 0.0
C245 C 0.60508 0.19467 0.28844 0.0
U246 U 0.63178 0.26392 0.31275 0.0
O247 O 0.60738 0.2871 0.31278 0.0
O248 O 0.63201 0.28853 0.28945 0.0
C249 C 0.61451 0.29621 0.29618 0.0
C250 C 0.61728 0.22906 0.29821 0.0
C251 C 0.61216 0.31838 0.2957 0.0
C252 C 0.59285 0.34773 0.28313 0.0
C253 C 0.59733 0.32673 0.28229 0.0
C254 C 0.6183 0.35187 0.31056 0.0
C255 C 0.60298 0.36023 0.29767 0.0
C256 C 0.62292 0.33099 0.30958 0.0
C257 C 0.67491 0.27266 0.35704 0.0
C258 C 0.69366 0.30107 0.37347 0.0
C259 C 0.70093 0.26584 0.3834 0.0
C260 C 0.68605 0.25877 0.36933 0.0
C261 C 0.70491 0.28701 0.38559 0.0
C262 C 0.67868 0.29394 0.35924 0.0
C263 C 0.66013 0.2638 0.34192 0.0
O264 O 0.60931 0.23859 0.3142 0.0
O265 O 0.63333 0.23857 0.29028 0.0
O266 O 0.66459 0.26449 0.32213 0.0
O267 O 0.64023 0.26441 0.34585 0.0
H268 H 0.64451 0.20719 0.32152 0.0
H269 H 0.64688 0.1693 0.32297 0.0
H270 H 0.59586 0.16389 0.28012 0.0
H271 H 0.59341 0.2017 0.27873 0.0
H272 H 0.58122 0.35408 0.27292 0.0
H273 H 0.58889 0.31692 0.27156 0.0
H274 H 0.62649 0.36151 0.32161 0.0
H275 H 0.63436 0.3246 0.31999 0.0
H276 H 0.69682 0.31746 0.37468 0.0
H277 H 0.70961 0.25473 0.39235 0.0
H278 H 0.68346 0.24229 0.36781 0.0
H279 H 0.67034 0.30493 0.34985 0.0
C280 C 0.62964 0.81187 1.00154 0.0
C281 C 0.61622 0.82703 0.99385 0.0
C282 C 0.63751 0.85402 0.01017 0.0
C283 C 0.62029 0.84806 0.99795 0.0
C284 C 0.65072 0.83844 0.01747 0.0
C285 C 0.64698 0.81783 0.01294 0.0
U286 U 0.60206 0.7574 0.99358 0.0
O287 O 0.61895 0.72804 0.98928 0.0
O288 O 0.60242 0.73444 0.01858 0.0
C289 C 0.61341 0.72144 0.00762 0.0
C290 C 0.62549 0.78961 1.0009 0.0
C291 C 0.62362 0.70383 0.01759 0.0
C292 C 0.65096 0.688 0.03796 0.0
C293 C 0.64358 0.70472 0.02627 0.0
C294 C 0.61887 0.66956 0.03175 0.0
C295 C 0.63836 0.67057 0.04113 0.0
C296 C 0.61166 0.68599 0.02002 0.0
C297 C 0.54561 0.75255 0.97101 0.0
C298 C 0.52102 0.72439 0.97413 0.0
C299 C 0.50894 0.75877 0.96598 0.0
C300 C 0.52932 0.76584 0.96596 0.0
C301 C 0.50453 0.73822 0.9711 0.0
C302 C 0.54148 0.73154 0.97425 0.0
C303 C 0.56566 0.76211 0.97606 0.0
O304 O 0.6119 0.78253 0.01406 0.0
O305 O 0.62608 0.77946 0.98327 0.0
O306 O 0.58213 0.75647 0.96568 0.0
O307 O 0.56925 0.76504 0.99581 0.0
H308 H 0.60252 0.82263 0.98519 0.0
H309 H 0.6098 0.85949 0.99184 0.0
H310 H 0.66363 0.84185 0.02758 0.0
H311 H 0.65727 0.80632 0.01933 0.0
H312 H 0.66599 0.68907 0.04533 0.0
H313 H 0.65302 0.71845 0.02467 0.0
H314 H 0.60886 0.65635 0.03417 0.0
H315 H 0.59622 0.6851 0.01352 0.0
H316 H 0.51799 0.70836 0.97779 0.0
H317 H 0.49662 0.76979 0.96367 0.0
H318 H 0.53225 0.78212 0.96347 0.0
H319 H 0.55385 0.72103 0.97814 0.0
C320 C 0.66805 0.40642 0.3038 0.0
C321 C 0.67119 0.41797 0.32185 0.0
C322 C 0.67112 0.38643 0.34283 0.0
C323 C 0.67215 0.40822 0.34115 0.0
C324 C 0.66899 0.37495 0.3244 0.0
C325 C 0.66711 0.38482 0.30528 0.0
U326 U 0.65707 0.44013 0.25179 0.0
O327 O 0.6479 0.42161 0.22489 0.0
O328 O 0.67888 0.43698 0.22583 0.0
C329 C 0.66551 0.42537 0.21571 0.0
C330 C 0.66631 0.4159 0.28304 0.0
C331 C 0.67025 0.41559 0.19619 0.0
C332 C 0.67518 0.3851 0.17518 0.0
C333 C 0.67195 0.39413 0.19449 0.0
C334 C 0.67448 0.41902 0.15952 0.0
C335 C 0.67627 0.3975 0.15738 0.0
C336 C 0.67161 0.42796 0.17876 0.0
C337 C 0.62781 0.49587 0.25694 0.0
C338 C 0.61117 0.5274 0.24473 0.0
C339 C 0.61052 0.51896 0.281 0.0
C340 C 0.62167 0.50095 0.27703 0.0
C341 C 0.60454 0.5322 0.26487 0.0
C342 C 0.62272 0.50947 0.24086 0.0
C343 C 0.63861 0.47629 0.25196 0.0
O344 O 0.64908 0.41422 0.27245 0.0
O345 O 0.67789 0.43175 0.27773 0.0
O346 O 0.65862 0.47423 0.25486 0.0
O347 O 0.62838 0.45877 0.25042 0.0
H348 H 0.67289 0.4345 0.32111 0.0
H349 H 0.6735 0.41798 0.35467 0.0
H350 H 0.66879 0.35826 0.32451 0.0
H351 H 0.66515 0.37545 0.29149 0.0
H352 H 0.67696 0.36852 0.17432 0.0
H353 H 0.6708 0.38444 0.20803 0.0
H354 H 0.67479 0.4291 0.1463 0.0
H355 H 0.67 0.44454 0.18002 0.0
H356 H 0.60685 0.53705 0.23183 0.0
H357 H 0.60626 0.52226 0.29681 0.0
H358 H 0.62488 0.49097 0.28975 0.0
H359 H 0.62722 0.50594 0.22515 0.0
C360 C 0.92885 0.37825 0.67095 0.0
C361 C 0.9431 0.37377 0.65527 0.0
C362 C 0.91706 0.38054 0.62874 0.0
C363 C 0.93711 0.37439 0.63443 0.0
C364 C 0.9037 0.38739 0.64435 0.0
C365 C 0.90949 0.38609 0.66517 0.0
U366 U 0.94915 0.35684 0.72615 0.0
O367 O 0.92934 0.36137 0.75315 0.0
O368 O 0.95818 0.37908 0.75034 0.0
C369 C 0.9419 0.37498 0.7616 0.0
C370 C 0.93299 0.37517 0.69339 0.0
C371 C 0.94529 0.3732 0.78386 0.0
C372 C 0.94033 0.38837 0.81766 0.0
C373 C 0.93935 0.38982 0.79627 0.0
C374 C 0.95402 0.35372 0.81459 0.0
C375 C 0.94712 0.37012 0.82713 0.0
C376 C 0.95309 0.35524 0.79302 0.0
C377 C 0.98028 0.30279 0.71983 0.0
C378 C 0.00439 0.27447 0.72625 0.0
C379 C 0.98082 0.27254 0.69729 0.0
C380 C 0.97229 0.29149 0.70305 0.0
C381 C 0.99655 0.26345 0.70914 0.0
C382 C 0.99657 0.29408 0.73129 0.0
C383 C 0.97033 0.32198 0.72769 0.0
O384 O 0.92408 0.35965 0.70293 0.0
O385 O 0.95101 0.38023 0.70129 0.0
O386 O 0.97909 0.3401 0.72491 0.0
O387 O 0.95005 0.32283 0.72836 0.0
H388 H 0.95861 0.36919 0.65883 0.0
H389 H 0.94805 0.3696 0.62277 0.0
H390 H 0.88819 0.39238 0.64062 0.0
H391 H 0.89841 0.39045 0.67687 0.0
H392 H 0.9354 0.40148 0.82679 0.0
H393 H 0.93344 0.40384 0.78938 0.0
H394 H 0.95927 0.33942 0.8214 0.0
H395 H 0.95782 0.34228 0.78355 0.0
H396 H 0.01634 0.26783 0.73588 0.0
H397 H 0.9739 0.26422 0.68444 0.0
H398 H 0.95856 0.29635 0.69516 0.0
H399 H 0.00265 0.30205 0.74476 0.0
C400 C 0.30281 0.61629 0.20937 0.0
C401 C 0.32025 0.6265 0.20182 0.0
C402 C 0.30622 0.62365 0.16723 0.0
C403 C 0.32203 0.63 0.1808 0.0
C404 C 0.28925 0.61254 0.17471 0.0
C405 C 0.28755 0.60889 0.19581 0.0
U406 U 0.31465 0.62822 0.26617 0.0
O407 O 0.31872 0.60372 0.2886 0.0
O408 O 0.29263 0.6255 0.2922 0.0
C409 C 0.30171 0.60847 0.29848 0.0
C410 C 0.30036 0.61317 0.23135 0.0
C411 C 0.29949 0.60106 0.31957 0.0
C412 C 0.27716 0.59086 0.34766 0.0
C413 C 0.27965 0.59712 0.32725 0.0
C414 C 0.31435 0.58958 0.35174 0.0
C415 C 0.29454 0.58835 0.36039 0.0
C416 C 0.31685 0.59644 0.3316 0.0
C417 C 0.35568 0.67495 0.27349 0.0
C418 C 0.3734 0.69379 0.30113 0.0
C419 C 0.37994 0.70264 0.26551 0.0
C420 C 0.36613 0.68722 0.2591 0.0
C421 C 0.38377 0.70627 0.2866 0.0
C422 C 0.3594 0.67829 0.29463 0.0
C423 C 0.34121 0.65907 0.26532 0.0
O424 O 0.31677 0.606 0.2408 0.0
O425 O 0.29124 0.62821 0.24143 0.0
O426 O 0.32119 0.66175 0.26726 0.0
O427 O 0.34685 0.63959 0.26508 0.0
H428 H 0.33223 0.63208 0.21219 0.0
H429 H 0.33538 0.63837 0.17519 0.0
H430 H 0.2769 0.60762 0.16445 0.0
H431 H 0.27411 0.60079 0.2016 0.0
H432 H 0.26177 0.59041 0.35414 0.0
H433 H 0.26609 0.59996 0.31782 0.0
H434 H 0.32795 0.58825 0.36146 0.0
H435 H 0.3323 0.59895 0.32578 0.0
H436 H 0.37583 0.69622 0.31752 0.0
H437 H 0.38782 0.71158 0.25384 0.0
H438 H 0.36358 0.68487 0.2427 0.0
H439 H 0.35152 0.66902 0.30605 0.0
C440 C 1.00086 0.62965 0.81168 0.0
C441 C 0.99672 0.61337 0.82531 0.0
C442 C 0.00824 0.63485 0.85432 0.0
C443 C 1.00035 0.61599 0.84657 0.0
C444 C 0.01125 0.65129 0.84061 0.0
C445 C 0.00757 0.64869 0.81956 0.0
U446 U 0.99669 0.60246 0.75712 0.0
O447 O 0.9918 0.61843 0.72729 0.0
O448 O 0.02212 0.60415 0.7347 0.0
C449 C 0.01075 0.61432 0.72137 0.0
C450 C 1.00191 0.62689 0.78918 0.0
C451 C 0.02011 0.62391 0.70309 0.0
C452 C 0.04233 0.64929 0.68645 0.0
C453 C 0.03112 0.64268 0.70381 0.0
C454 C 0.03083 0.61892 0.66764 0.0
C455 C 0.04287 0.63701 0.66843 0.0
C456 C 0.01965 0.61248 0.68476 0.0
C457 C 0.97561 0.54488 0.75347 0.0
C458 C 0.9771 0.51887 0.72631 0.0
C459 C 0.9676 0.50896 0.76099 0.0
C460 C 0.96933 0.52954 0.76731 0.0
C461 C 0.97216 0.50321 0.7406 0.0
C462 C 0.97893 0.53956 0.73272 0.0
C463 C 0.9806 0.56542 0.76216 0.0
O464 O 0.01596 0.61398 0.78253 0.0
O465 O 0.98469 0.62647 0.77831 0.0
O466 O 0.96961 0.58144 0.75638 0.0
O467 O 1.00026 0.5697 0.76485 0.0
H468 H 0.99169 0.59847 0.81946 0.0
H469 H 0.99776 0.60309 0.85683 0.0
H470 H 0.01762 0.66586 0.84596 0.0
H471 H 0.01113 0.66131 0.80923 0.0
H472 H 0.05143 0.66333 0.68753 0.0
H473 H 0.03168 0.65174 0.7179 0.0
H474 H 0.03051 0.60932 0.65391 0.0
H475 H 0.01123 0.598 0.68393 0.0
H476 H 0.98079 0.515 0.71048 0.0
H477 H 0.96336 0.49745 0.7723 0.0
H478 H 0.9666 0.53335 0.78337 0.0
H479 H 0.98382 0.55117 0.72178 0.0
C480 C 0.70325 0.33972 0.60462 0.0
C481 C 0.68584 0.34831 0.59509 0.0
C482 C 0.66305 0.33657 0.6226 0.0
C483 C 0.66629 0.34713 0.60397 0.0
C484 C 0.68038 0.32745 0.63213 0.0
C485 C 0.70018 0.32916 0.62331 0.0
U486 U 0.7542 0.3558 0.57136 0.0
O487 O 0.78171 0.36764 0.58748 0.0
O488 O 0.78256 0.33718 0.57171 0.0
C489 C 0.79279 0.35174 0.58163 0.0
C490 C 0.72484 0.34256 0.59674 0.0
C491 C 0.81122 0.3465 0.59325 0.0
C492 C 0.82974 0.33808 0.62461 0.0
C493 C 0.81118 0.34286 0.61455 0.0
C494 C 0.84795 0.34092 0.59211 0.0
C495 C 0.84824 0.33686 0.61332 0.0
C496 C 0.82964 0.34576 0.58219 0.0
C497 C 0.74626 0.38482 0.51583 0.0
C498 C 0.75946 0.39977 0.48402 0.0
C499 C 0.7231 0.40209 0.49203 0.0
C500 C 0.72651 0.39158 0.51044 0.0
C501 C 0.73947 0.40629 0.47843 0.0
C502 C 0.76279 0.38906 0.50255 0.0
C503 C 0.74978 0.37431 0.53569 0.0
O504 O 0.73171 0.33153 0.58112 0.0
O505 O 0.73324 0.36099 0.59771 0.0
O506 O 0.75055 0.3541 0.53727 0.0
O507 O 0.75027 0.38447 0.55323 0.0
H508 H 0.68674 0.35612 0.58085 0.0
H509 H 0.65379 0.35495 0.59615 0.0
H510 H 0.67876 0.31891 0.64634 0.0
H511 H 0.7132 0.32231 0.63126 0.0
H512 H 0.82956 0.335 0.64102 0.0
H513 H 0.79696 0.34361 0.62325 0.0
H514 H 0.86191 0.34033 0.58315 0.0
H515 H 0.82988 0.34887 0.56576 0.0
H516 H 0.77247 0.40265 0.47399 0.0
H517 H 0.70758 0.40734 0.48877 0.0
H518 H 0.71365 0.38912 0.52053 0.0
H519 H 0.77828 0.38421 0.50655 0.0
C520 C 0.79704 0.69061 0.39685 0.0
C521 C 0.8057 0.67247 0.38896 0.0
C522 C 0.83919 0.68951 0.38751 0.0
C523 C 0.82671 0.67188 0.38448 0.0
C524 C 0.83068 0.70717 0.39667 0.0
C525 C 0.80969 0.70768 0.40129 0.0
U526 U 0.73967 0.68044 0.3829 0.0
O527 O 0.71621 0.70489 0.38239 0.0
O528 O 0.71456 0.68017 0.40557 0.0
C529 C 0.70686 0.69765 0.39882 0.0
C530 C 0.77476 0.69284 0.39923 0.0
C531 C 0.68456 0.7 0.39998 0.0
C532 C 0.65506 0.71233 0.41943 0.0
C533 C 0.67638 0.71121 0.41664 0.0
C534 C 0.6501 0.69171 0.38838 0.0
C535 C 0.64189 0.70203 0.40562 0.0
C536 C 0.67138 0.69068 0.38555 0.0
C537 C 0.73218 0.63951 0.33613 0.0
C538 C 0.70436 0.62385 0.31595 0.0
C539 C 0.7398 0.61586 0.30773 0.0
C540 C 0.74645 0.62889 0.32377 0.0
C541 C 0.71869 0.61319 0.30367 0.0
C542 C 0.71099 0.63682 0.33221 0.0
C543 C 0.74043 0.65329 0.35255 0.0
O544 O 0.76547 0.70245 0.38403 0.0
O545 O 0.76446 0.67669 0.40591 0.0
O546 O 0.73831 0.64805 0.37203 0.0
O547 O 0.74076 0.67336 0.34951 0.0
H548 H 0.79613 0.65911 0.38556 0.0
H549 H 0.83304 0.65792 0.37782 0.0
H550 H 0.83992 0.72095 0.39911 0.0
H551 H 0.80315 0.72176 0.40749 0.0
H552 H 0.64893 0.72044 0.4327 0.0
H553 H 0.68653 0.7186 0.42782 0.0
H554 H 0.64002 0.68391 0.37746 0.0
H555 H 0.67751 0.68214 0.37255 0.0
H556 H 0.6881 0.6224 0.31266 0.0
H557 H 0.75117 0.6081 0.29828 0.0
H558 H 0.76288 0.63081 0.32645 0.0
H559 H 0.69967 0.64491 0.34143 0.0
C560 C 0.19256 0.99113 0.38033 0.0
C561 C 0.17865 0.9985 0.39518 0.0
C562 C 0.14974 0.98861 0.3727 0.0
C563 C 0.15728 0.99735 0.39131 0.0
C564 C 0.16405 0.98152 0.35806 0.0
C565 C 0.1851 0.98296 0.36179 0.0
U566 U 0.24668 0.99647 0.40784 0.0
O567 O 0.27098 0.97288 0.40547 0.0
O568 O 0.27587 0.00394 0.39185 0.0
C569 C 0.28343 0.98554 0.3957 0.0
C570 C 0.21494 0.99018 0.38344 0.0
C571 C 0.30139 0.97752 0.38448 0.0
C572 C 0.31793 0.95866 0.35655 0.0
C573 C 0.30022 0.96787 0.36502 0.0
C574 C 0.33778 0.96923 0.38661 0.0
C575 C 0.33684 0.95884 0.36754 0.0
C576 C 0.32032 0.97848 0.39486 0.0
C577 C 0.24916 0.01895 0.46488 0.0
C578 C 0.27559 0.01897 0.49159 0.0
C579 C 0.24148 0.0321 0.49919 0.0
C580 C 0.23545 0.02804 0.47886 0.0
C581 C 0.26146 0.02717 0.50596 0.0
C582 C 0.26946 0.01479 0.47118 0.0
C583 C 0.24077 0.0125 0.44468 0.0
O584 O 0.22541 0.00761 0.38374 0.0
O585 O 0.22179 0.97629 0.39645 0.0
O586 O 0.23997 0.99258 0.44082 0.0
O587 O 0.24524 0.0237 0.42843 0.0
H588 H 0.18424 0.00481 0.40969 0.0
H589 H 0.14675 0.00308 0.40291 0.0
H590 H 0.15911 0.97404 0.3439 0.0
H591 H 0.19565 0.97701 0.35029 0.0
H592 H 0.31672 0.95102 0.34167 0.0
H593 H 0.28568 0.96702 0.35672 0.0
H594 H 0.35179 0.96942 0.39579 0.0
H595 H 0.32144 0.98577 0.40992 0.0
H596 H 0.29106 0.01478 0.49636 0.0
H597 H 0.23033 0.03866 0.50972 0.0
H598 H 0.21971 0.03136 0.47423 0.0
H599 H 0.28026 0.00769 0.46062 0.0
C600 C 0.33438 0.07929 0.62784 0.0
C601 C 0.34989 0.06444 0.63072 0.0
C602 C 0.37675 0.08915 0.62057 0.0
C603 C 0.37076 0.06936 0.62737 0.0
C604 C 0.36097 0.10344 0.6162 0.0
C605 C 0.34019 0.0986 0.61994 0.0
U606 U 0.27955 0.05948 0.65054 0.0
O607 O 0.25204 0.07903 0.64717 0.0
O608 O 0.25434 0.05009 0.62955 0.0
C609 C 0.24321 0.06645 0.6338 0.0
C610 C 0.31194 0.07523 0.63127 0.0
C611 C 0.22075 0.06359 0.6355 0.0
C612 C 0.18669 0.07436 0.62414 0.0
C613 C 0.20813 0.07575 0.62291 0.0
C614 C 0.19004 0.04795 0.65028 0.0
C615 C 0.17726 0.06063 0.638 0.0
C616 C 0.21165 0.04946 0.64908 0.0
C617 C 0.28248 0.02721 0.7048 0.0
C618 C 0.26763 0.01869 0.73811 0.0
C619 C 0.30312 0.00985 0.73091 0.0
C620 C 0.30088 0.01786 0.71113 0.0
C621 C 0.28672 0.01084 0.74485 0.0
C622 C 0.26555 0.02689 0.7182 0.0
C623 C 0.28165 0.03879 0.68517 0.0
O624 O 0.30421 0.0569 0.62716 0.0
O625 O 0.30241 0.08473 0.64643 0.0
O626 O 0.28023 0.05903 0.68474 0.0
O627 O 0.28215 0.02967 0.66706 0.0
H628 H 0.3462 0.04904 0.6355 0.0
H629 H 0.38223 0.05765 0.63043 0.0
H630 H 0.36465 0.1189 0.6111 0.0
H631 H 0.32857 0.1102 0.61689 0.0
H632 H 0.17755 0.08463 0.61469 0.0
H633 H 0.21492 0.08671 0.61229 0.0
H634 H 0.18337 0.03695 0.6609 0.0
H635 H 0.22118 0.0398 0.65882 0.0
H636 H 0.25468 0.01947 0.7486 0.0
H637 H 0.31809 0.00411 0.73568 0.0
H638 H 0.31394 0.01762 0.7013 0.0
H639 H 0.25103 0.03374 0.7136 0.0
C640 C 0.60832 0.70483 0.34214 0.0
C641 C 0.59912 0.6875 0.35105 0.0
C642 C 0.62522 0.66443 0.33736 0.0
C643 C 0.60714 0.66772 0.34867 0.0
C644 C 0.63454 0.68158 0.3278 0.0
C645 C 0.62617 0.70155 0.33022 0.0
U646 U 0.57442 0.75443 0.36041 0.0
O647 O 0.5893 0.78333 0.37078 0.0
O648 O 0.57148 0.78236 0.34163 0.0
C649 C 0.58182 0.79366 0.35504 0.0
C650 C 0.60053 0.72641 0.34555 0.0
C651 C 0.59327 0.81135 0.34721 0.0
C652 C 0.62394 0.82849 0.33454 0.0
C653 C 0.61421 0.81065 0.34193 0.0
C654 C 0.59179 0.84729 0.33756 0.0
C655 C 0.61266 0.84693 0.33222 0.0
C656 C 0.58222 0.82972 0.34511 0.0
C657 C 0.51969 0.74524 0.39059 0.0
C658 C 0.48832 0.75992 0.40527 0.0
C659 C 0.49337 0.72296 0.40524 0.0
C660 C 0.51237 0.72557 0.39567 0.0
C661 C 0.48088 0.74 0.41003 0.0
C662 C 0.50757 0.76252 0.39554 0.0
C663 C 0.53967 0.74699 0.37974 0.0
O664 O 0.58415 0.73288 0.33541 0.0
O665 O 0.60192 0.73452 0.36413 0.0
O666 O 0.54077 0.74808 0.35951 0.0
O667 O 0.55736 0.74911 0.38965 0.0
H668 H 0.58596 0.68881 0.36021 0.0
H669 H 0.5992 0.65498 0.35601 0.0
H670 H 0.64859 0.67969 0.31903 0.0
H671 H 0.6339 0.71451 0.32308 0.0
H672 H 0.64019 0.82796 0.33071 0.0
H673 H 0.62293 0.79652 0.34359 0.0
H674 H 0.58299 0.86135 0.33632 0.0
H675 H 0.56607 0.83049 0.34937 0.0
H676 H 0.47913 0.77343 0.40868 0.0
H677 H 0.48864 0.7074 0.40911 0.0
H678 H 0.52123 0.71197 0.39235 0.0
H679 H 0.51288 0.77791 0.39175 0.0
C680 C 0.63174 0.3319 0.08159 0.0
C681 C 0.6347 0.3482 0.06771 0.0
C682 C 0.62566 0.3735 0.09438 0.0
C683 C 0.63234 0.36877 0.07417 0.0
C684 C 0.61998 0.35682 0.10712 0.0
C685 C 0.62346 0.33642 0.101 0.0
U686 U 0.65341 0.27702 0.06013 0.0
O687 O 0.63035 0.25358 0.05131 0.0
O688 O 0.64855 0.24992 0.07979 0.0
C689 C 0.6344 0.24205 0.06743 0.0
C690 C 0.63618 0.30997 0.07663 0.0
C691 C 0.63519 0.21976 0.06386 0.0
C692 C 0.61901 0.18656 0.0694 0.0
C693 C 0.61872 0.20794 0.07118 0.0
C694 C 0.65221 0.18845 0.05237 0.0
C695 C 0.63598 0.17646 0.06051 0.0
C696 C 0.65182 0.21005 0.05405 0.0
C697 C 0.70685 0.28124 0.02771 0.0
C698 C 0.74081 0.27228 0.0143 0.0
C699 C 0.73012 0.30793 0.01521 0.0
C700 C 0.7112 0.30184 0.02335 0.0
C701 C 0.74554 0.29329 0.0113 0.0
C702 C 0.72164 0.26635 0.02245 0.0
C703 C 0.68759 0.27467 0.03822 0.0
O704 O 0.63078 0.30231 0.05864 0.0
O705 O 0.65186 0.30042 0.08529 0.0
O706 O 0.66945 0.2788 0.03 0.0
O707 O 0.68735 0.27381 0.0585 0.0
H708 H 0.63951 0.34527 0.05212 0.0
H709 H 0.63661 0.38079 0.06347 0.0
H710 H 0.61335 0.35932 0.12219 0.0
H711 H 0.61985 0.32408 0.11164 0.0
H712 H 0.60602 0.1779 0.07536 0.0
H713 H 0.60569 0.21527 0.07861 0.0
H714 H 0.66554 0.18114 0.04551 0.0
H715 H 0.66463 0.21908 0.04822 0.0
H716 H 0.75226 0.26048 0.01149 0.0
H717 H 0.73282 0.32421 0.01252 0.0
H718 H 0.70026 0.31332 0.02655 0.0
H719 H 0.71866 0.25015 0.02533 0.0
C720 C 0.39499 0.79738 0.69308 0.0
C721 C 0.3815 0.80526 0.67819 0.0
C722 C 0.38778 0.83991 0.69144 0.0
C723 C 0.37794 0.82643 0.67735 0.0
C724 C 0.40145 0.83193 0.7062 0.0
C725 C 0.40507 0.81074 0.70694 0.0
U726 U 0.38272 0.74016 0.68151 0.0
O727 O 0.38219 0.71613 0.70533 0.0
O728 O 0.40578 0.71538 0.68093 0.0
C729 C 0.39882 0.70714 0.69807 0.0
C730 C 0.39791 0.77523 0.69527 0.0
C731 C 0.40003 0.68481 0.69986 0.0
C732 C 0.41788 0.65516 0.71406 0.0
C733 C 0.41557 0.67649 0.7125 0.0
C734 C 0.38889 0.65046 0.69056 0.0
C735 C 0.40476 0.64212 0.70277 0.0
C736 C 0.38647 0.67176 0.68913 0.0
C737 C 0.33728 0.73209 0.63967 0.0
C738 C 0.31657 0.70366 0.62608 0.0
C739 C 0.3098 0.73853 0.61467 0.0
C740 C 0.32577 0.74575 0.62744 0.0
C741 C 0.30483 0.71744 0.614 0.0
C742 C 0.33278 0.7109 0.63873 0.0
C743 C 0.35301 0.74107 0.6537 0.0
O744 O 0.3826 0.76542 0.70414 0.0
O745 O 0.40533 0.76546 0.67912 0.0
O746 O 0.37265 0.73962 0.64884 0.0
O747 O 0.34955 0.74079 0.67369 0.0
H748 H 0.37347 0.79504 0.66753 0.0
H749 H 0.36708 0.8322 0.66602 0.0
H750 H 0.40926 0.84203 0.71711 0.0
H751 H 0.4155 0.80472 0.71857 0.0
H752 H 0.43011 0.64889 0.72359 0.0
H753 H 0.42607 0.68654 0.72096 0.0
H754 H 0.37859 0.64042 0.68192 0.0
H755 H 0.37434 0.67802 0.67946 0.0
H756 H 0.31299 0.68733 0.62593 0.0
H757 H 0.30089 0.74956 0.60585 0.0
H758 H 0.32892 0.76219 0.62805 0.0
H759 H 0.34144 0.70008 0.64804 0.0
C760 C 0.37851 0.19171 0.99424 0.0
C761 C 0.39539 0.17873 0.99812 0.0
C762 C 0.37385 0.14876 0.99001 0.0
C763 C 0.39303 0.15729 0.99605 0.0
C764 C 0.35696 0.16194 0.98702 0.0
C765 C 0.3593 0.18317 0.98917 0.0
U766 U 0.40495 0.24588 0.99857 0.0
O767 O 0.40217 0.26975 0.97476 0.0
O768 O 0.38927 0.27525 0.00611 0.0
C769 C 0.39262 0.28236 0.98744 0.0
C770 C 0.38044 0.21414 0.99282 0.0
C771 C 0.38178 0.30043 0.97941 0.0
C772 C 0.35797 0.31721 0.95578 0.0
C773 C 0.36526 0.29919 0.96529 0.0
C774 C 0.38289 0.33748 0.97533 0.0
C775 C 0.36741 0.3364 0.96011 0.0
C776 C 0.38999 0.31968 0.9848 0.0
C777 C 0.46233 0.24809 0.02029 0.0
C778 C 0.48932 0.27423 0.01975 0.0
C779 C 0.49746 0.23922 0.02993 0.0
C780 C 0.47677 0.23372 0.02748 0.0
C781 C 0.50396 0.25933 0.02554 0.0
C782 C 0.46853 0.2686 0.01693 0.0
C783 C 0.4419 0.24002 0.01432 0.0
O784 O 0.38089 0.2248 0.01013 0.0
O785 O 0.39313 0.22107 0.97868 0.0
O786 O 0.43781 0.23884 0.99446 0.0
O787 O 0.42584 0.2449 0.02564 0.0
H788 H 0.41039 0.18517 1.00196 0.0
H789 H 0.40628 0.14745 0.99858 0.0
H790 H 0.34212 0.15599 0.98194 0.0
H791 H 0.34622 0.19304 0.98591 0.0
H792 H 0.346 0.31596 0.94409 0.0
H793 H 0.35869 0.28436 0.96099 0.0
H794 H 0.3902 0.35206 0.97927 0.0
H795 H 0.40269 0.32086 0.99571 0.0
H796 H 0.49419 0.28984 0.01618 0.0
H797 H 0.50855 0.22755 0.03436 0.0
H798 H 0.47224 0.21783 0.03013 0.0
H799 H 0.4576 0.27989 0.0113 0.0
C800 C 0.34377 0.61184 0.70543 0.0
C801 C 0.35005 0.60081 0.68784 0.0
C802 C 0.33723 0.6277 0.6651 0.0
C803 C 0.34713 0.60872 0.66793 0.0
C804 C 0.33018 0.63851 0.68249 0.0
C805 C 0.33361 0.63075 0.70242 0.0
U806 U 0.36303 0.57416 0.7553 0.0
O807 O 0.37382 0.59295 0.78193 0.0
O808 O 0.34734 0.57108 0.78466 0.0
C809 C 0.35989 0.58422 0.79399 0.0
C810 C 0.34819 0.60514 0.72709 0.0
C811 C 0.35167 0.5949 0.81209 0.0
C812 C 0.347 0.62465 0.83442 0.0
C813 C 0.35345 0.61621 0.81553 0.0
C814 C 0.33631 0.59067 0.84572 0.0
C815 C 0.33849 0.61188 0.84992 0.0
C816 C 0.34317 0.58233 0.82733 0.0
C817 C 0.39091 0.51865 0.74511 0.0
C818 C 0.40373 0.48607 0.75871 0.0
C819 C 0.40631 0.49333 0.7222 0.0
C820 C 0.39702 0.51241 0.72535 0.0
C821 C 0.41019 0.48009 0.73884 0.0
C822 C 0.39407 0.50523 0.76181 0.0
C823 C 0.3809 0.53891 0.74778 0.0
O824 O 0.34234 0.58694 0.73277 0.0
O825 O 0.3425 0.58697 0.73284 0.0
O826 O 0.36113 0.54029 0.75232 0.0
O827 O 0.39114 0.55659 0.74662 0.0
H828 H 0.35754 0.58636 0.68927 0.0
H829 H 0.35288 0.60016 0.65476 0.0
H830 H 0.32257 0.65325 0.68067 0.0
H831 H 0.32846 0.63968 0.71558 0.0
H832 H 0.34936 0.641 0.83697 0.0
H833 H 0.36023 0.62616 0.80398 0.0
H834 H 0.32923 0.58016 0.85651 0.0
H835 H 0.34189 0.56578 0.82505 0.0
H836 H 0.40666 0.47623 0.77187 0.0
H837 H 0.4108 0.48907 0.70666 0.0
H838 H 0.39483 0.52226 0.7122 0.0
H839 H 0.38939 0.50969 0.77723 0.0
C840 C 0.08213 0.6292 0.33278 0.0
C841 C 0.06763 0.63238 0.34846 0.0
C842 C 0.09307 0.62374 0.37488 0.0
C843 C 0.07299 0.62973 0.36919 0.0
C844 C 0.10694 0.61839 0.35909 0.0
C845 C 0.10148 0.62109 0.33827 0.0
U846 U 0.0605 0.65154 0.27851 0.0
O847 O 0.07939 0.64732 0.25073 0.0
O848 O 0.05067 0.62959 0.25431 0.0
C849 C 0.06675 0.63353 0.24269 0.0
C850 C 0.07759 0.63301 0.31059 0.0
C851 C 0.06325 0.63458 0.22032 0.0
C852 C 0.07059 0.62007 0.18652 0.0
C853 C 0.07198 0.6191 0.20799 0.0
C854 C 0.05118 0.65187 0.1894 0.0
C855 C 0.06048 0.63661 0.17708 0.0
C856 C 0.05246 0.65082 0.21099 0.0
C857 C 0.02769 0.70533 0.28295 0.0
C858 C 0.01809 0.74003 0.27219 0.0
C859 C 0.01008 0.72851 0.30669 0.0
C860 C 0.01831 0.70915 0.30199 0.0
C861 C 0.01043 0.74435 0.29199 0.0
C862 C 0.02685 0.72075 0.2678 0.0
C863 C 0.03924 0.68603 0.27869 0.0
O864 O 0.05922 0.62844 0.30329 0.0
O865 O 0.08632 0.64864 0.30108 0.0
O866 O 0.03074 0.66782 0.28179 0.0
O867 O 0.05948 0.68582 0.27718 0.0
H868 H 0.05224 0.63716 0.34508 0.0
H869 H 0.06151 0.63304 0.38082 0.0
H870 H 0.12249 0.6135 0.36274 0.0
H871 H 0.11275 0.61763 0.32646 0.0
H872 H 0.0782 0.60841 0.17727 0.0
H873 H 0.08043 0.60651 0.21499 0.0
H874 H 0.04358 0.66491 0.18229 0.0
H875 H 0.04565 0.66291 0.22031 0.0
H876 H 0.01857 0.75198 0.26056 0.0
H877 H 0.00405 0.73132 0.32202 0.0
H878 H 0.01794 0.69747 0.31345 0.0
H879 H 0.03362 0.71813 0.25277 0.0
C880 C 0.69141 0.39572 0.79905 0.0
C881 C 0.6766 0.38266 0.8078 0.0
C882 C 0.6925 0.38811 0.84128 0.0
C883 C 0.67715 0.37888 0.82895 0.0
C884 C 0.7069 0.40162 0.83263 0.0
C885 C 0.70635 0.4054 0.81151 0.0
U886 U 0.67993 0.38227 0.74194 0.0
O887 O 0.70389 0.38352 0.71812 0.0
O888 O 0.67784 0.40534 0.7173 0.0
C889 C 0.69559 0.39973 0.70928 0.0
C890 C 0.69277 0.39839 0.77686 0.0
C891 C 0.69771 0.40146 0.68707 0.0
C892 C 0.71319 0.41934 0.65819 0.0
C893 C 0.71131 0.41647 0.6794 0.0
C894 C 0.68807 0.39192 0.65239 0.0
C895 C 0.70123 0.40736 0.64462 0.0
C896 C 0.6863 0.38897 0.67357 0.0
C897 C 0.64101 0.33435 0.73353 0.0
C898 C 0.6301 0.31108 0.70585 0.0
C899 C 0.61492 0.30797 0.73974 0.0
C900 C 0.62718 0.32436 0.74676 0.0
C901 C 0.61623 0.30094 0.71921 0.0
C902 C 0.64239 0.32769 0.71293 0.0
C903 C 0.65418 0.35081 0.74252 0.0
O904 O 0.70259 0.38364 0.7671 0.0
O905 O 0.67595 0.40454 0.76731 0.0
O906 O 0.64799 0.3701 0.7415 0.0
O907 O 0.67437 0.34866 0.74209 0.0
H908 H 0.66507 0.37503 0.79824 0.0
H909 H 0.66594 0.36843 0.83563 0.0
H910 H 0.7188 0.40878 0.8421 0.0
H911 H 0.71791 0.41544 0.80481 0.0
H912 H 0.72359 0.4311 0.65241 0.0
H913 H 0.7203 0.42611 0.68984 0.0
H914 H 0.67915 0.38214 0.64202 0.0
H915 H 0.67593 0.37721 0.6794 0.0
H916 H 0.63185 0.30581 0.69009 0.0
H917 H 0.60428 0.3009 0.75046 0.0
H918 H 0.62592 0.3292 0.76275 0.0
H919 H 0.65313 0.33507 0.70252 0.0
C920 C 0.98911 0.37777 0.19646 0.0
C921 C 0.99571 0.39331 0.18289 0.0
C922 C 0.9866 0.37144 0.15324 0.0
C923 C 0.9945 0.39014 0.1614 0.0
C924 C 0.98031 0.35601 0.16714 0.0
C925 C 0.98166 0.35913 0.18839 0.0
U926 U 0.99773 0.40784 0.24781 0.0
O927 O 0.97691 0.4098 0.27441 0.0
O928 O 0.00754 0.39573 0.27816 0.0
C929 C 0.98997 0.40065 0.28694 0.0
C930 C 0.9887 0.3805 0.21906 0.0
C931 C 0.98121 0.38634 0.30231 0.0
C932 C 0.95565 0.36081 0.31302 0.0
C933 C 0.96671 0.37083 0.29727 0.0
C934 C 0.97459 0.38062 0.3387 0.0
C935 C 0.95903 0.36628 0.33382 0.0
C936 C 0.98557 0.39049 0.32312 0.0
C937 C 0.01996 0.46367 0.24555 0.0
C938 C 0.0193 0.4894 0.27295 0.0
C939 C 0.03008 0.49909 0.23854 0.0
C940 C 0.02742 0.4787 0.23194 0.0
C941 C 0.02552 0.50466 0.25891 0.0
C942 C 0.01643 0.46895 0.26628 0.0
C943 C 0.01376 0.44351 0.23693 0.0
O944 O 0.0066 0.3811 0.22871 0.0
O945 O 0.97536 0.39397 0.22616 0.0
O946 O 0.99384 0.43965 0.23702 0.0
O947 O 0.02503 0.42744 0.24189 0.0
H948 H 1.00149 0.40788 0.18887 0.0
H949 H 0.99963 0.40234 0.15125 0.0
H950 H 0.97358 0.34166 0.1617 0.0
H951 H 0.97635 0.34704 0.1986 0.0
H952 H 0.9435 0.34998 0.30892 0.0
H953 H 0.96306 0.36742 0.28127 0.0
H954 H 0.97723 0.38527 0.35459 0.0
H955 H 0.9966 0.40243 0.32735 0.0
H956 H 0.01557 0.49353 0.28872 0.0
H957 H 0.03479 0.5107 0.22751 0.0
H958 H 0.03016 0.47488 0.21589 0.0
H959 H 0.01058 0.45756 0.27698 0.0
H960 H 0.32871 0.54459 0.65358 0.0
H961 H 0.29972 0.48533 0.64152 0.0
H962 H 0.35244 0.49107 0.68237 0.0
C963 C 0.32686 0.52822 0.65639 0.0
C964 C 0.34124 0.51883 0.66927 0.0
C965 C 0.31132 0.51669 0.64629 0.0
C966 C 0.31105 0.49484 0.64944 0.0
C967 C 0.32571 0.4853 0.66288 0.0
C968 C 0.34048 0.49779 0.67278 0.0
H969 H 0.33418 0.43337 0.83984 0.0
H970 H 0.33701 0.49777 0.82308 0.0
H971 H 0.3589 0.47706 0.88269 0.0
C972 C 0.33794 0.44931 0.8435 0.0
C973 C 0.34631 0.45378 0.86282 0.0
C974 C 0.3343 0.46489 0.82895 0.0
C975 C 0.34001 0.4855 0.83398 0.0
C976 C 0.34863 0.49017 0.85371 0.0
C977 C 0.35204 0.47397 0.86768 0.0
H978 H 0.68729 0.97697 0.36155 0.0
H979 H 0.6868 0.04182 0.35848 0.0
H980 H 0.654 0.00603 0.31248 0.0
C981 C 0.68368 0.99013 0.3526 0.0
C982 C 0.67085 0.98821 0.33513 0.0
C983 C 0.6903 0.00897 0.36059 0.0
C984 C 0.68327 0.02699 0.35143 0.0
C985 C 0.67023 0.02573 0.33406 0.0
C986 C 0.66434 0.00649 0.32565 0.0
H987 H 0.66931 0.0391 0.11536 0.0
H988 H 0.67503 0.9735 0.10724 0.0
H989 H 0.64964 0.01086 0.0585 0.0
C990 C 0.66774 0.02538 0.10583 0.0
C991 C 0.65901 0.02711 0.08605 0.0
C992 C 0.67363 0.00619 0.11374 0.0
C993 C 0.6708 0.98849 0.10127 0.0
C994 C 0.66206 0.98992 0.08132 0.0
C995 C 0.6564 0.00943 0.07376 0.0
H996 H 0.66896 0.32339 0.54785 0.0
H997 H 0.64054 0.31109 0.48821 0.0
H998 H 0.69352 0.35146 0.49473 0.0
C999 C 0.66804 0.32501 0.53126 0.0
C1000 C 0.68111 0.33939 0.52232 0.0
C1001 C 0.65253 0.31501 0.51954 0.0
C1002 C 0.6527 0.31774 0.49766 0.0
C1003 C 0.66778 0.33077 0.48834 0.0
C1004 C 0.6823 0.34079 0.50109 0.0
H1005 H 0.11527 0.66929 0.03682 0.0
H1006 H 0.10618 0.66941 0.97133 0.0
H1007 H 0.05599 0.65206 0.01131 0.0
C1008 C 0.10499 0.66721 0.0237 0.0
C1009 C 0.08454 0.66064 0.02669 0.0
C1010 C 0.11271 0.67063 0.00395 0.0
C1011 C 0.10006 0.66712 0.9867 0.0
C1012 C 0.07956 0.66045 0.98932 0.0
C1013 C 0.07179 0.65723 0.00933 0.0
H1014 H 0.84289 0.33605 0.43248 0.0
H1015 H 0.82329 0.33718 0.49618 0.0
H1016 H 0.8842 0.35831 0.47908 0.0
C1017 C 0.84585 0.33906 0.44871 0.0
C1018 C 0.86515 0.34685 0.4543 0.0
C1019 C 0.83058 0.3349 0.46352 0.0
C1020 C 0.83474 0.34015 0.48443 0.0
C1021 C 0.85406 0.34903 0.49005 0.0
C1022 C 0.86919 0.35206 0.47486 0.0
H1023 H 0.36269 0.68523 0.97574 0.0
H1024 H 0.36183 0.68865 0.04121 0.0
H1025 H 0.31341 0.65625 0.00785 0.0
C1026 C 0.35491 0.68229 0.98983 0.0
C1027 C 0.337 0.67024 0.98951 0.0
C1028 C 0.36377 0.68943 0.00818 0.0
C1029 C 0.35455 0.68395 0.02683 0.0
C1030 C 0.33631 0.67193 0.02683 0.0
C1031 C 0.32752 0.66532 0.00807 0.0
H1032 H 0.54413 0.65612 0.32488 0.0
H1033 H 0.48241 0.64341 0.30288 0.0
H1034 H 0.49312 0.6849 0.35433 0.0
C1035 C 0.52767 0.65925 0.32503 0.0
C1036 C 0.51969 0.672 0.34039 0.0
C1037 C 0.51441 0.64873 0.31143 0.0
C1038 C 0.49275 0.65198 0.31295 0.0
C1039 C 0.48468 0.66592 0.32791 0.0
C1040 C 0.49862 0.67559 0.34156 0.0
H1041 H 0.03828 0.11505 0.66973 0.0
H1042 H 0.97222 0.10812 0.67037 0.0
H1043 H 0.01055 0.05769 0.65019 0.0
C1044 C 0.02462 0.10556 0.66733 0.0
C1045 C 0.02667 0.08543 0.65967 0.0
C1046 C 0.00509 0.1138 0.67128 0.0
C1047 C 0.98739 0.10166 0.66771 0.0
C1048 C 0.9893 0.08129 0.66032 0.0
C1049 C 0.009 0.07324 0.65624 0.0
H1050 H 0.43573 0.83702 0.33685 0.0
H1051 H 0.50026 0.8224 0.33802 0.0
H1052 H 0.48019 0.88319 0.3555 0.0
C1053 C 0.4515 0.84203 0.33942 0.0
C1054 C 0.45567 0.86233 0.34592 0.0
C1055 C 0.46729 0.82778 0.33565 0.0
C1056 C 0.48789 0.83331 0.34056 0.0
C1057 C 0.49234 0.85325 0.34856 0.0
C1058 C 0.47628 0.86765 0.35062 0.0
H1059 H 0.97448 0.35951 0.68688 0.0
H1060 H 0.03963 0.36027 0.69058 0.0
H1061 H 0.00783 0.31232 0.65585 0.0
C1062 C 0.98864 0.35225 0.68343 0.0
C1063 C 0.98856 0.33448 0.67119 0.0
C1064 C 0.0066 0.36161 0.69054 0.0
C1065 C 0.02545 0.35267 0.68573 0.0
C1066 C 0.02595 0.33482 0.67316 0.0
C1067 C 0.00746 0.32562 0.66605 0.0
H1068 H 0.68134 0.46001 0.34996 0.0
H1069 H 0.7021 0.52175 0.36316 0.0
H1070 H 0.65422 0.51078 0.31782 0.0
C1071 C 0.68138 0.47637 0.34634 0.0
C1072 C 0.66671 0.48398 0.33266 0.0
C1073 C 0.6942 0.48979 0.35747 0.0
C1074 C 0.69316 0.51116 0.35366 0.0
C1075 C 0.67912 0.5189 0.33875 0.0
C1076 C 0.66615 0.50503 0.32809 0.0
H1077 H 0.66667 0.57448 0.16439 0.0
H1078 H 0.66488 0.50999 0.17978 0.0
H1079 H 0.65293 0.53089 0.11729 0.0
C1080 C 0.66455 0.55845 0.15994 0.0
C1081 C 0.65928 0.55409 0.13957 0.0
C1082 C 0.66845 0.54267 0.1742 0.0
C1083 C 0.66322 0.52206 0.16844 0.0
C1084 C 0.65615 0.51743 0.14793 0.0
C1085 C 0.65602 0.53369 0.13347 0.0
H1086 H 0.32048 0.03695 0.65321 0.0
H1087 H 0.31178 0.97211 0.64773 0.0
H1088 H 0.35677 0.99721 0.69104 0.0
C1089 C 0.32465 0.02163 0.65785 0.0
C1090 C 0.33957 0.01915 0.67316 0.0
C1091 C 0.31556 0.00481 0.64793 0.0
C1092 C 0.31946 0.98503 0.65522 0.0
C1093 C 0.33433 0.98193 0.67094 0.0
C1094 C 0.34473 0.99919 0.67957 0.0
H1095 H 0.33301 0.96591 0.88963 0.0
H1096 H 0.33809 0.03131 0.8984 0.0
H1097 H 0.34991 0.99065 0.94919 0.0
C1098 C 0.33597 0.97891 0.89969 0.0
C1099 C 0.34182 0.97548 0.92034 0.0
C1100 C 0.33432 0.99884 0.89152 0.0
C1101 C 0.33862 0.01575 0.90444 0.0
C1102 C 0.3441 0.01272 0.92517 0.0
C1103 C 0.34554 0.99269 0.93317 0.0
H1104 H 0.34461 0.68008 0.4592 0.0
H1105 H 0.36368 0.70152 0.51921 0.0
H1106 H 0.3204 0.65085 0.51269 0.0
C1107 C 0.34347 0.67949 0.47592 0.0
C1108 C 0.33137 0.66422 0.48478 0.0
C1109 C 0.35637 0.69194 0.48804 0.0
C1110 C 0.35403 0.69158 0.50974 0.0
C1111 C 0.34003 0.67736 0.51899 0.0
C1112 C 0.32955 0.66314 0.50613 0.0
H1113 H 0.89259 0.33387 0.96562 0.0
H1114 H 0.9019 0.33044 0.03122 0.0
H1115 H 0.94932 0.35618 0.99249 0.0
C1116 C 0.9024 0.33614 0.97908 0.0
C1117 C 0.92185 0.34534 0.97677 0.0
C1118 C 0.89506 0.33078 0.9986 0.0
C1119 C 0.90763 0.33425 0.016 0.0
C1120 C 0.92728 0.3433 0.0139 0.0
C1121 C 0.93436 0.34883 0.9942 0.0
H1122 H 0.16234 0.67444 0.57154 0.0
H1123 H 0.18322 0.66386 0.50916 0.0
H1124 H 0.12031 0.65024 0.52626 0.0
C1125 C 0.15937 0.66959 0.55575 0.0
C1126 C 0.13969 0.66237 0.55052 0.0
C1127 C 0.17546 0.66975 0.54122 0.0
C1128 C 0.17112 0.6636 0.52066 0.0
C1129 C 0.15106 0.65675 0.51518 0.0
C1130 C 0.13561 0.6559 0.53029 0.0
H1131 H 0.6496 0.31767 0.03348 0.0
H1132 H 0.64452 0.31627 0.96789 0.0
H1133 H 0.69122 0.35372 0.99788 0.0
C1134 C 0.65509 0.32245 0.01881 0.0
C1135 C 0.67117 0.3367 0.01805 0.0
C1136 C 0.64473 0.3156 1.00118 0.0
C1137 C 0.6525 0.32109 0.98186 0.0
C1138 C 0.66964 0.3345 0.9808 0.0
C1139 C 0.67863 0.34267 0.99884 0.0
H1140 H 0.45888 0.34849 0.68579 0.0
H1141 H 0.52206 0.36137 0.70256 0.0
H1142 H 0.50751 0.31688 0.65485 0.0
C1143 C 0.47519 0.34487 0.68482 0.0
C1144 C 0.48176 0.33145 0.66941 0.0
C1145 C 0.48948 0.35553 0.69719 0.0
C1146 C 0.51084 0.35215 0.6941 0.0
C1147 C 0.51759 0.33811 0.67878 0.0
C1148 C 0.50273 0.32726 0.6671 0.0
H1149 H 0.96587 0.89125 0.32937 0.0
H1150 H 0.03123 0.90143 0.33008 0.0
H1151 H 0.99088 0.94672 0.35691 0.0
C1152 C 0.97893 0.90102 0.33334 0.0
C1153 C 0.97582 0.91969 0.34401 0.0
C1154 C 0.99879 0.89405 0.32886 0.0
C1155 C 0.01576 0.90675 0.33351 0.0
C1156 C 0.01291 0.92602 0.3431 0.0
C1157 C 0.99295 0.93226 0.34871 0.0
H1158 H 0.57058 0.16274 0.67518 0.0
H1159 H 0.50745 0.18136 0.66549 0.0
H1160 H 0.52777 0.12117 0.64566 0.0
C1161 C 0.55505 0.15931 0.66976 0.0
C1162 C 0.55098 0.14024 0.66032 0.0
C1163 C 0.53965 0.17441 0.67138 0.0
C1164 C 0.51955 0.16996 0.66397 0.0
C1165 C 0.51517 0.15058 0.65479 0.0
C1166 C 0.53106 0.13604 0.65274 0.0
H1167 H 0.03654 0.65156 0.31982 0.0
H1168 H 0.972 0.64249 0.31897 0.0
H1169 H 0.99999 0.68998 0.35794 0.0
C1170 C 0.02166 0.65554 0.32575 0.0
C1171 C 0.02015 0.67077 0.34089 0.0
C1172 C 0.00444 0.64475 0.3187 0.0
C1173 C 0.98489 0.65159 0.32441 0.0
C1174 C 0.98244 0.66885 0.33779 0.0
C1175 C 1.00055 0.67756 0.34685 0.0
H1176 H 0.14486 0.65612 0.36175 0.0
H1177 H 0.05243 0.68728 0.3197 0.0
H1178 H 0.13162 0.70072 0.40941 0.0
H1179 H 0.03264 0.6727 0.38137 0.0
H1180 H 0.08743 0.69258 0.33245 0.0
H1181 H 0.11018 0.66193 0.34722 0.0
C1182 C 0.13478 0.66739 0.36886 0.0
C1183 C 0.14109 0.67835 0.38646 0.0
C1184 C 0.07529 0.68878 0.34324 0.0
C1185 C 0.10132 0.68375 0.37096 0.0
C1186 C 0.05524 0.68596 0.33606 0.0
C1187 C 0.03953 0.67961 0.34949 0.0
C1188 C 0.07973 0.68519 0.36402 0.0
C1189 C 0.04427 0.67778 0.37055 0.0
C1190 C 0.115 0.6704 0.36083 0.0
C1191 C 0.12724 0.69224 0.39562 0.0
N1192 N 0.06412 0.68031 0.3772 0.0
N1193 N 0.10778 0.69433 0.38797 0.0
H1194 H 0.38984 0.26527 0.60407 0.0
H1195 H 0.4608 0.35627 0.64331 0.0
H1196 H 0.37928 0.32969 0.59195 0.0
H1197 H 0.46932 0.29296 0.65985 0.0
H1198 H 0.43616 0.34578 0.6166 0.0
H1199 H 0.42576 0.27343 0.61235 0.0
C1200 C 0.39536 0.281 0.60243 0.0
C1201 C 0.38168 0.29703 0.5981 0.0
C1202 C 0.44371 0.33398 0.62565 0.0
C1203 C 0.42179 0.30655 0.60941 0.0
C1204 C 0.45757 0.34 0.64098 0.0
C1205 C 0.46711 0.32512 0.65328 0.0
C1206 C 0.43925 0.31291 0.62275 0.0
C1207 C 0.46246 0.30442 0.65001 0.0
C1208 C 0.41576 0.28574 0.6076 0.0
C1209 C 0.38946 0.31706 0.59588 0.0
N1210 N 0.4487 0.29882 0.63508 0.0
N1211 N 0.40885 0.32143 0.60238 0.0
H1212 H 0.655 0.05625 0.67504 0.0
H1213 H 0.56268 0.12146 0.62471 0.0
H1214 H 0.64353 0.0619 0.60957 0.0
H1215 H 0.57791 0.12523 0.68947 0.0
H1216 H 0.59142 0.09777 0.61966 0.0
H1217 H 0.62622 0.08001 0.68151 0.0
C1218 C 0.6465 0.06242 0.66204 0.0
C1219 C 0.65167 0.05679 0.64172 0.0
C1220 C 0.5885 0.10366 0.63503 0.0
C1221 C 0.61864 0.0838 0.64904 0.0
C1222 C 0.572 0.11708 0.63791 0.0
C1223 C 0.56789 0.12516 0.65752 0.0
C1224 C 0.60093 0.09804 0.65194 0.0
C1225 C 0.58065 0.11929 0.67408 0.0
C1226 C 0.63003 0.07592 0.66576 0.0
C1227 C 0.63993 0.06523 0.62553 0.0
N1228 N 0.59658 0.10599 0.67095 0.0
N1229 N 0.62405 0.07819 0.62955 0.0
H1230 H 0.85671 0.9775 0.36754 0.0
H1231 H 0.94609 0.89342 0.3581 0.0
H1232 H 0.84799 0.91151 0.36924 0.0
H1233 H 0.95743 0.95818 0.34679 0.0
H1234 H 0.91057 0.90111 0.36571 0.0
H1235 H 0.89414 0.97208 0.36319 0.0
C1236 C 0.86273 0.96193 0.36687 0.0
C1237 C 0.84948 0.94488 0.36869 0.0
C1238 C 0.92075 0.91373 0.36162 0.0
C1239 C 0.89169 0.93861 0.36385 0.0
C1240 C 0.94111 0.90931 0.35703 0.0
C1241 C 0.9547 0.92506 0.35099 0.0
C1242 C 0.91378 0.93415 0.36063 0.0
C1243 C 0.94746 0.9455 0.35113 0.0
C1244 C 0.88397 0.95885 0.36451 0.0
C1245 C 0.8578 0.92502 0.36798 0.0
N1246 N 0.92737 0.94948 0.35574 0.0
N1247 N 0.87834 0.92245 0.36557 0.0
H1248 H 0.37414 0.14613 0.70746 0.0
H1249 H 0.3803 0.02998 0.67255 0.0
H1250 H 0.38704 0.12885 0.64465 0.0
H1251 H 0.32059 0.05178 0.69162 0.0
H1252 H 0.39385 0.06528 0.67723 0.0
H1253 H 0.36258 0.11029 0.71412 0.0
C1254 C 0.37442 0.13486 0.69508 0.0
C1255 C 0.38206 0.14013 0.67555 0.0
C1256 C 0.37787 0.06204 0.68075 0.0
C1257 C 0.3703 0.09958 0.68341 0.0
C1258 C 0.37026 0.04195 0.67845 0.0
C1259 C 0.34931 0.03798 0.68177 0.0
C1260 C 0.36437 0.078 0.68635 0.0
C1261 C 0.3368 0.05414 0.68899 0.0
C1262 C 0.36819 0.11449 0.69899 0.0
C1263 C 0.382 0.12506 0.66005 0.0
N1264 N 0.34441 0.07357 0.69072 0.0
N1265 N 0.3766 0.10538 0.6644 0.0
H1266 H 0.38353 0.85865 0.97405 0.0
H1267 H 0.32166 0.94009 0.90762 0.0
H1268 H 0.35549 0.84594 0.91487 0.0
H1269 H 0.36931 0.9609 0.95003 0.0
H1270 H 0.33188 0.90501 0.91361 0.0
H1271 H 0.37723 0.89591 0.96872 0.0
C1272 C 0.37613 0.86381 0.95997 0.0
C1273 C 0.36961 0.84952 0.94497 0.0
C1274 C 0.34015 0.91722 0.92164 0.0
C1275 C 0.36233 0.89133 0.93891 0.0
C1276 C 0.33444 0.93746 0.91808 0.0
C1277 C 0.34523 0.95387 0.92751 0.0
C1278 C 0.35611 0.91296 0.9356 0.0
C1279 C 0.36059 0.94893 0.94217 0.0
C1280 C 0.37263 0.88491 0.95691 0.0
C1281 C 0.3604 0.85663 0.92685 0.0
N1282 N 0.36559 0.92885 0.94581 0.0
N1283 N 0.35688 0.87703 0.9244 0.0
H1284 H 0.58917 0.38051 0.33136 0.0
H1285 H 0.65909 0.47083 0.29402 0.0
H1286 H 0.60774 0.38966 0.26832 0.0
H1287 H 0.63789 0.46508 0.35647 0.0
H1288 H 0.63249 0.44602 0.28334 0.0
H1289 H 0.59717 0.41659 0.33891 0.0
C1290 C 0.59409 0.39048 0.31891 0.0
C1291 C 0.59856 0.38224 0.29945 0.0
C1292 C 0.63337 0.45056 0.29914 0.0
C1293 C 0.60814 0.423 0.30795 0.0
C1294 C 0.64848 0.46458 0.30523 0.0
C1295 C 0.6501 0.47019 0.32585 0.0
C1296 C 0.62057 0.4413 0.31376 0.0
C1297 C 0.6367 0.46121 0.34023 0.0
C1298 C 0.5988 0.41099 0.32324 0.0
C1299 C 0.60451 0.39552 0.28365 0.0
N1300 N 0.6226 0.44689 0.33395 0.0
N1301 N 0.60962 0.4153 0.28839 0.0
H1302 H 0.62318 0.66653 0.07948 0.0
H1303 H 0.67836 0.55849 0.10219 0.0
H1304 H 0.6654 0.63829 0.03679 0.0
H1305 H 0.63588 0.58854 0.14349 0.0
H1306 H 0.67543 0.58787 0.07848 0.0
H1307 H 0.62961 0.63872 0.10395 0.0
C1308 C 0.63399 0.65447 0.07543 0.0
C1309 C 0.64391 0.65464 0.0563 0.0
C1310 C 0.66676 0.58801 0.09272 0.0
C1311 C 0.65106 0.62248 0.0839 0.0
C1312 C 0.66832 0.57124 0.10613 0.0
C1313 C 0.65726 0.57117 0.12469 0.0
C1314 C 0.65391 0.60466 0.09791 0.0
C1315 C 0.6447 0.58808 0.12933 0.0
C1316 C 0.63763 0.63857 0.08932 0.0
C1317 C 0.65764 0.63866 0.05155 0.0
N1318 N 0.64332 0.6041 0.11601 0.0
N1319 N 0.66075 0.62308 0.06525 0.0
H1320 H 0.69546 0.41469 0.12366 0.0
H1321 H 0.67904 0.31598 0.05395 0.0
H1322 H 0.66354 0.35926 0.1432 0.0
H1323 H 0.68043 0.37706 0.02745 0.0
H1324 H 0.68463 0.33075 0.08774 0.0
H1325 H 0.69804 0.40028 0.0892 0.0
C1326 C 0.68887 0.39957 0.12087 0.0
C1327 C 0.6791 0.3883 0.13661 0.0
C1328 C 0.68408 0.34089 0.0745 0.0
C1329 C 0.68336 0.37139 0.09734 0.0
C1330 C 0.68111 0.33251 0.05509 0.0
C1331 C 0.67922 0.34533 0.03771 0.0
C1332 C 0.68465 0.36229 0.07673 0.0
C1333 C 0.68183 0.36664 0.04039 0.0
C1334 C 0.69065 0.39132 0.10118 0.0
C1335 C 0.67168 0.36842 0.13192 0.0
N1336 N 0.68404 0.37458 0.05972 0.0
N1337 N 0.67406 0.36056 0.11268 0.0
H1338 H 0.97409 0.3511 0.85409 0.0
H1339 H 0.9011 0.37112 0.95142 0.0
H1340 H 0.9162 0.3839 0.85207 0.0
H1341 H 0.95651 0.33468 0.95515 0.0
H1342 H 0.90884 0.3789 0.91551 0.0
H1343 H 0.96995 0.34706 0.89149 0.0
C1344 C 0.96056 0.35747 0.86147 0.0
C1345 C 0.94553 0.36793 0.84989 0.0
C1346 C 0.91945 0.36932 0.92413 0.0
C1347 C 0.94083 0.36356 0.89257 0.0
C1348 C 0.91504 0.36494 0.94462 0.0
C1349 C 0.92816 0.35219 0.95607 0.0
C1350 C 0.93704 0.36072 0.91491 0.0
C1351 C 0.94609 0.34464 0.94672 0.0
C1352 C 0.95828 0.35527 0.88282 0.0
C1353 C 0.92842 0.37606 0.86033 0.0
N1354 N 0.94993 0.34884 0.92653 0.0
N1355 N 0.92655 0.37367 0.88099 0.0
H1356 H 0.29441 0.62717 0.37013 0.0
H1357 H 0.33907 0.62253 0.48126 0.0
H1358 H 0.29497 0.56675 0.39779 0.0
H1359 H 0.30258 0.67207 0.45669 0.0
H1360 H 0.32649 0.59977 0.45291 0.0
H1361 H 0.30617 0.6412 0.40236 0.0
C1362 C 0.29522 0.61716 0.3835 0.0
C1363 C 0.29321 0.59586 0.38155 0.0
C1364 C 0.32104 0.6155 0.45406 0.0
C1365 C 0.30314 0.6132 0.4194 0.0
C1366 C 0.32813 0.62841 0.47007 0.0
C1367 C 0.32166 0.64909 0.47098 0.0
C1368 C 0.30825 0.6239 0.4388 0.0
C1369 C 0.30811 0.65635 0.45612 0.0
C1370 C 0.30146 0.62543 0.40193 0.0
C1371 C 0.29581 0.58339 0.39909 0.0
N1372 N 0.30216 0.6439 0.44048 0.0
N1373 N 0.30034 0.59236 0.41775 0.0
H1374 H 0.06717 0.60992 0.64759 0.0
H1375 H 0.11992 0.69244 0.57267 0.0
H1376 H 0.05167 0.67461 0.65002 0.0
H1377 H 0.12492 0.6265 0.56579 0.0
H1378 H 0.09599 0.68724 0.6017 0.0
H1379 H 0.08994 0.61667 0.61877 0.0
C1380 C 0.06839 0.62558 0.64192 0.0
C1381 C 0.05717 0.64166 0.65109 0.0
C1382 C 0.10224 0.67393 0.59376 0.0
C1383 C 0.08368 0.64961 0.61793 0.0
C1384 C 0.11579 0.6769 0.57723 0.0
C1385 C 0.12408 0.65983 0.56683 0.0
C1386 C 0.09739 0.65375 0.60006 0.0
C1387 C 0.11857 0.64001 0.5733 0.0
C1388 C 0.08153 0.62945 0.62546 0.0
C1389 C 0.05999 0.66174 0.64341 0.0
N1390 N 0.10568 0.63752 0.58957 0.0
N1391 N 0.07293 0.66516 0.6272 0.0
H1392 H 0.86296 0.35042 0.65056 0.0
H1393 H 0.97844 0.32096 0.63161 0.0
H1394 H 0.87868 0.31173 0.59851 0.0
H1395 H 0.95244 0.33257 0.69153 0.0
H1396 H 0.94309 0.31685 0.6178 0.0
H1397 H 0.89682 0.3437 0.66539 0.0
C1398 C 0.87344 0.34032 0.64238 0.0
C1399 C 0.86805 0.33167 0.62329 0.0
C1400 C 0.94534 0.31965 0.63414 0.0
C1401 C 0.90716 0.32471 0.63964 0.0
C1402 C 0.96546 0.32188 0.64203 0.0
C1403 C 0.96844 0.32703 0.66293 0.0
C1404 C 0.92842 0.32273 0.64734 0.0
C1405 C 0.95099 0.32857 0.67551 0.0
C1406 C 0.89285 0.33662 0.65073 0.0
C1407 C 0.88242 0.31898 0.61315 0.0
N1408 N 0.93185 0.32654 0.66759 0.0
N1409 N 0.90151 0.31609 0.62131 0.0
H1410 H 0.62012 0.66756 0.41369 0.0
H1411 H 0.54027 0.70824 0.34276 0.0
H1412 H 0.61337 0.73311 0.40572 0.0
H1413 H 0.52878 0.65191 0.37577 0.0
H1414 H 0.56488 0.71809 0.36952 0.0
H1415 H 0.58331 0.66298 0.40746 0.0
C1416 C 0.61061 0.68107 0.41135 0.0
C1417 C 0.61963 0.7006 0.4094 0.0
C1418 C 0.55531 0.70482 0.3721 0.0
C1419 C 0.5778 0.69552 0.4017 0.0
C1420 C 0.54224 0.69856 0.35622 0.0
C1421 C 0.5329 0.67927 0.35723 0.0
C1422 C 0.55913 0.69184 0.38896 0.0
C1423 C 0.53612 0.6669 0.37461 0.0
C1424 C 0.58958 0.6785 0.40786 0.0
C1425 C 0.60686 0.71773 0.40675 0.0
N1426 N 0.5493 0.67325 0.38975 0.0
N1427 N 0.58654 0.71474 0.40223 0.0
H1428 H 0.37815 0.96881 0.37137 0.0
H1429 H 0.4184 0.86271 0.32444 0.0
H1430 H 0.33737 0.92113 0.34794 0.0
H1431 H 0.4532 0.89829 0.36961 0.0
H1432 H 0.39021 0.88673 0.32787 0.0
H1433 H 0.4076 0.94633 0.36469 0.0
C1434 C 0.37534 0.95369 0.36471 0.0
C1435 C 0.3551 0.94681 0.36047 0.0
C1436 C 0.40409 0.88926 0.33694 0.0
C1437 C 0.38889 0.92115 0.35255 0.0
C1438 C 0.42029 0.87529 0.33532 0.0
C1439 C 0.4385 0.87782 0.34714 0.0
C1440 C 0.40616 0.90648 0.34992 0.0
C1441 C 0.43985 0.89545 0.35993 0.0
C1442 C 0.3922 0.9409 0.36089 0.0
C1443 C 0.35259 0.92724 0.35134 0.0
N1444 N 0.42396 0.90909 0.3609 0.0
N1445 N 0.36927 0.91507 0.34779 0.0
H1446 H 0.15488 0.05565 0.67354 0.0
H1447 H 0.04627 0.08536 0.62256 0.0
H1448 H 0.1471 0.06623 0.60817 0.0
H1449 H 0.05441 0.0693 0.68649 0.0
H1450 H 0.08273 0.07703 0.61626 0.0
H1451 H 0.11775 0.05881 0.6779 0.0
C1452 C 0.1454 0.05832 0.66001 0.0
C1453 C 0.15433 0.0607 0.64046 0.0
C1454 C 0.07649 0.07502 0.6316 0.0
C1455 C 0.11152 0.06489 0.6455 0.0
C1456 C 0.05572 0.07965 0.63513 0.0
C1457 C 0.04748 0.07769 0.65498 0.0
C1458 C 0.08902 0.06852 0.64813 0.0
C1459 C 0.06027 0.07073 0.67093 0.0
C1460 C 0.12413 0.06032 0.66256 0.0
C1461 C 0.14106 0.06463 0.62363 0.0
N1462 N 0.08042 0.06646 0.66718 0.0
N1463 N 0.12038 0.06674 0.62656 0.0
H1464 H 0.59936 0.87657 0.30484 0.0
H1465 H 0.68921 0.95101 0.34277 0.0
H1466 H 0.64838 0.86212 0.34768 0.0
H1467 H 0.63681 0.97584 0.31006 0.0
H1468 H 0.67585 0.91739 0.33874 0.0
H1469 H 0.61425 0.91141 0.30055 0.0
C1470 C 0.61345 0.88062 0.31301 0.0
C1471 C 0.62284 0.86646 0.32653 0.0
C1472 C 0.66692 0.93007 0.33262 0.0
C1473 C 0.63958 0.90587 0.32184 0.0
C1474 C 0.67433 0.94974 0.33557 0.0
C1475 C 0.66339 0.96709 0.32876 0.0
C1476 C 0.64841 0.92695 0.32208 0.0
C1477 C 0.64559 0.96329 0.31656 0.0
C1478 C 0.62183 0.90042 0.31057 0.0
C1479 C 0.64087 0.87233 0.33682 0.0
N1480 N 0.63845 0.94354 0.31378 0.0
N1481 N 0.64847 0.89158 0.33437 0.0
H1482 H 0.65079 0.14897 0.03128 0.0
H1483 H 0.63362 0.05296 0.10659 0.0
H1484 H 0.62433 0.15178 0.09229 0.0
H1485 H 0.6677 0.04745 0.04985 0.0
H1486 H 0.6254 0.08845 0.09803 0.0
H1487 H 0.65349 0.11125 0.03475 0.0
C1488 C 0.64549 0.1417 0.04532 0.0
C1489 C 0.63723 0.1536 0.06148 0.0
C1490 C 0.63458 0.07955 0.0873 0.0
C1491 C 0.64004 0.11068 0.0654 0.0
C1492 C 0.63925 0.05928 0.09221 0.0
C1493 C 0.65167 0.04749 0.07909 0.0
C1494 C 0.64249 0.08828 0.06916 0.0
C1495 C 0.6582 0.0562 0.06041 0.0
C1496 C 0.64691 0.12021 0.04722 0.0
C1497 C 0.63041 0.14334 0.07923 0.0
N1498 N 0.65377 0.07627 0.05608 0.0
N1499 N 0.63202 0.12259 0.08069 0.0
H1500 H 0.41908 0.6184 0.67173 0.0
H1501 H 0.34177 0.53669 0.70677 0.0
H1502 H 0.39582 0.6154 0.73378 0.0
H1503 H 0.37783 0.52901 0.65165 0.0
H1504 H 0.36667 0.562 0.7187 0.0
H1505 H 0.41223 0.58156 0.66742 0.0
C1506 C 0.41324 0.60968 0.6847 0.0
C1507 C 0.40753 0.61973 0.70292 0.0
C1508 C 0.37002 0.55376 0.70489 0.0
C1509 C 0.39898 0.57804 0.69796 0.0
C1510 C 0.35547 0.53976 0.69772 0.0
C1511 C 0.35794 0.53108 0.67827 0.0
C1512 C 0.38713 0.55909 0.69285 0.0
C1513 C 0.37563 0.5357 0.66682 0.0
C1514 C 0.4093 0.58868 0.68226 0.0
C1515 C 0.40014 0.60806 0.71939 0.0
N1516 N 0.38955 0.5497 0.67418 0.0
N1517 N 0.3955 0.58784 0.71631 0.0
H1518 H 0.39593 0.36237 0.94392 0.0
H1519 H 0.31634 0.42793 0.87695 0.0
H1520 H 0.33013 0.35169 0.94608 0.0
H1521 H 0.38114 0.44224 0.88322 0.0
H1522 H 0.32049 0.39973 0.90178 0.0
H1523 H 0.39028 0.39145 0.92128 0.0
C1524 C 0.3802 0.36637 0.93989 0.0
C1525 C 0.36344 0.3547 0.94709 0.0
C1526 C 0.33377 0.40907 0.89777 0.0
C1527 C 0.35686 0.38797 0.92069 0.0
C1528 C 0.33143 0.42505 0.88361 0.0
C1529 C 0.34848 0.43724 0.87814 0.0
C1530 C 0.35335 0.40522 0.90625 0.0
C1531 C 0.36765 0.43318 0.88719 0.0
C1532 C 0.377 0.38293 0.92679 0.0
C1533 C 0.34347 0.36027 0.94082 0.0
N1534 N 0.3696 0.4174 0.90071 0.0
N1535 N 0.3407 0.37656 0.92791 0.0
H1536 H 0.33619 0.59099 0.88712 0.0
H1537 H 0.33135 0.69092 0.9538 0.0
H1538 H 0.32698 0.65169 0.8609 0.0
H1539 H 0.32695 0.63019 0.97994 0.0
H1540 H 0.32345 0.6768 0.91994 0.0
H1541 H 0.32843 0.60459 0.92059 0.0
C1542 C 0.33222 0.60712 0.88803 0.0
C1543 C 0.33259 0.62011 0.87063 0.0
C1544 C 0.32388 0.66652 0.93305 0.0
C1545 C 0.32383 0.63591 0.90986 0.0
C1546 C 0.32824 0.67464 0.95241 0.0
C1547 C 0.32936 0.66186 0.9697 0.0
C1548 C 0.3225 0.64512 0.93064 0.0
C1549 C 0.3259 0.64066 0.967 0.0
C1550 C 0.32778 0.61488 0.90747 0.0
C1551 C 0.32764 0.64101 0.87365 0.0
N1552 N 0.32318 0.63284 0.94768 0.0
N1553 N 0.32372 0.64828 0.89291 0.0
H1554 H 0.08583 0.66336 0.15836 0.0
H1555 H 0.06066 0.62874 0.04225 0.0
H1556 H 0.04068 0.61601 0.14529 0.0
H1557 H 0.092 0.68503 0.06017 0.0
H1558 H 0.05359 0.62189 0.07897 0.0
H1559 H 0.09038 0.66863 0.12145 0.0
C1560 C 0.07671 0.65425 0.14757 0.0
C1561 C 0.06258 0.63962 0.15467 0.0
C1562 C 0.06193 0.63575 0.07474 0.0
C1563 C 0.06752 0.64551 0.11235 0.0
C1564 C 0.06581 0.63976 0.05382 0.0
C1565 C 0.07726 0.65732 0.04815 0.0
C1566 C 0.06969 0.64936 0.0899 0.0
C1567 C 0.08361 0.67102 0.06379 0.0
C1568 C 0.07928 0.6572 0.12651 0.0
C1569 C 0.05149 0.6277 0.1402 0.0
N1570 N 0.07996 0.66663 0.08383 0.0
N1571 N 0.0541 0.63098 0.11959 0.0
H1572 H 0.73549 0.40573 0.62033 0.0
H1573 H 0.66134 0.37552 0.52761 0.0
H1574 H 0.66974 0.4153 0.61829 0.0
H1575 H 0.71564 0.3424 0.54566 0.0
H1576 H 0.67083 0.40359 0.55147 0.0
H1577 H 0.73499 0.39906 0.58327 0.0
C1578 C 0.72108 0.40705 0.61188 0.0
C1579 C 0.70248 0.41023 0.62224 0.0
C1580 C 0.68118 0.39063 0.54959 0.0
C1581 C 0.70169 0.40164 0.58032 0.0
C1582 C 0.67568 0.37458 0.53623 0.0
C1583 C 0.68811 0.35698 0.53478 0.0
C1584 C 0.69926 0.38902 0.56146 0.0
C1585 C 0.70625 0.35613 0.54618 0.0
C1586 C 0.72074 0.40302 0.59072 0.0
C1587 C 0.68427 0.41213 0.61074 0.0
N1588 N 0.71131 0.37196 0.55916 0.0
N1589 N 0.68421 0.40721 0.59042 0.0
H1590 H 0.92962 0.39131 0.34811 0.0
H1591 H 0.89207 0.31797 0.44002 0.0
H1592 H 0.95458 0.33041 0.35667 0.0
H1593 H 0.87255 0.38076 0.43119 0.0
H1594 H 0.91462 0.321 0.40962 0.0
H1595 H 0.90733 0.38622 0.37778 0.0
C1596 C 0.93011 0.37669 0.35617 0.0
C1597 C 0.94379 0.36124 0.34996 0.0
C1598 C 0.90557 0.33416 0.41445 0.0
C1599 C 0.91856 0.35531 0.38436 0.0
C1600 C 0.89291 0.3325 0.43183 0.0
C1601 C 0.88089 0.34932 0.43816 0.0
C1602 C 0.90591 0.35272 0.4033 0.0
C1603 C 0.88193 0.36763 0.42693 0.0
C1604 C 0.9175 0.37381 0.37321 0.0
C1605 C 0.94406 0.34262 0.36097 0.0
N1606 N 0.89418 0.36882 0.41003 0.0
N1607 N 0.93163 0.34017 0.37778 0.0
H1608 H 0.2767 0.61588 0.56652 0.0
H1609 H 0.29209 0.50226 0.6103 0.0
H1610 H 0.25432 0.56226 0.53371 0.0
H1611 H 0.29762 0.55733 0.64783 0.0
H1612 H 0.27587 0.52303 0.58319 0.0
H1613 H 0.28333 0.59441 0.59682 0.0
C1614 C 0.27277 0.59961 0.56587 0.0
C1615 C 0.26469 0.59092 0.54762 0.0
C1616 C 0.28066 0.53051 0.59741 0.0
C1617 C 0.27286 0.56589 0.58223 0.0
C1618 C 0.28982 0.51857 0.61308 0.0
C1619 C 0.29732 0.52793 0.6313 0.0
C1620 C 0.27922 0.55208 0.59972 0.0
C1621 C 0.29342 0.5493 0.63374 0.0
C1622 C 0.27663 0.58729 0.58317 0.0
C1623 C 0.26025 0.56965 0.54756 0.0
N1624 N 0.28521 0.56059 0.61807 0.0
N1625 N 0.26464 0.55783 0.56446 0.0
H1626 H 0.30748 0.42215 0.70275 0.0
H1627 H 0.30073 0.43997 0.82499 0.0
H1628 H 0.28063 0.37968 0.74591 0.0
H1629 H 0.34381 0.47472 0.78817 0.0
H1630 H 0.2888 0.42205 0.79424 0.0
H1631 H 0.31724 0.44519 0.73186 0.0
C1632 C 0.30397 0.41762 0.71838 0.0
C1633 C 0.29367 0.39889 0.72204 0.0
C1634 C 0.3007 0.43373 0.79269 0.0
C1635 C 0.30415 0.42511 0.75518 0.0
C1636 C 0.30751 0.44409 0.81031 0.0
C1637 C 0.32373 0.45854 0.80933 0.0
C1638 C 0.30972 0.43804 0.77356 0.0
C1639 C 0.33141 0.46358 0.7897 0.0
C1640 C 0.30933 0.43077 0.73492 0.0
C1641 C 0.2887 0.39392 0.74245 0.0
N1642 N 0.32447 0.45318 0.77255 0.0
N1643 N 0.29402 0.40687 0.75817 0.0
H1644 H 0.76153 0.96617 0.46493 0.0
H1645 H 0.66956 0.01071 0.39591 0.0
H1646 H 0.70156 0.98447 0.48789 0.0
H1647 H 0.73119 0.00407 0.37225 0.0
H1648 H 0.68155 0.99924 0.42954 0.0
H1649 H 0.75097 0.97715 0.4306 0.0
C1650 C 0.74622 0.97248 0.46313 0.0
C1651 C 0.73281 0.9749 0.48018 0.0
C1652 C 0.69266 1.0006 0.41718 0.0
C1653 C 0.72043 0.98677 0.44016 0.0
C1654 C 0.68584 0.00755 0.39809 0.0
C1655 C 0.69945 0.00871 0.38149 0.0
C1656 C 0.71335 0.99475 0.41985 0.0
C1657 C 0.72026 0.00353 0.3848 0.0
C1658 C 0.7402 0.97861 0.44326 0.0
C1659 C 0.71278 0.9821 0.47587 0.0
N1660 N 0.72663 0.99669 0.40367 0.0
N1661 N 0.70736 0.98778 0.45648 0.0
H1662 H 0.69245 0.96453 0.23765 0.0
H1663 H 0.69887 0.03316 0.13587 0.0
H1664 H 0.71537 0.02721 0.24061 0.0
H1665 H 0.66492 0.976 0.14185 0.0
H1666 H 0.708 0.03137 0.17271 0.0
H1667 H 0.68538 0.96866 0.20153 0.0
C1668 C 0.69567 0.97943 0.23087 0.0
C1669 C 0.70393 0.99573 0.24269 0.0
C1670 C 0.69863 0.01923 0.16586 0.0
C1671 C 0.69645 1.00033 0.20012 0.0
C1672 C 0.69336 0.02021 0.14483 0.0
C1673 C 0.68106 0.00465 0.13557 0.0
C1674 C 0.6917 0.00249 0.17767 0.0
C1675 C 0.67471 0.98816 0.14797 0.0
C1676 C 0.69181 0.98168 0.20993 0.0
C1677 C 0.7088 0.01422 0.23227 0.0
N1678 N 0.68006 0.98759 0.16823 0.0
N1679 N 0.70492 0.01606 0.21154 0.0
H1680 H 0.54051 0.24993 0.56207 0.0
H1681 H 0.63798 0.32466 0.55844 0.0
H1682 H 0.56381 0.2871 0.61245 0.0
H1683 H 0.62535 0.28301 0.50742 0.0
H1684 H 0.61184 0.30835 0.57803 0.0
H1685 H 0.57129 0.25935 0.54168 0.0
C1686 C 0.55226 0.25977 0.56893 0.0
C1687 C 0.54957 0.26789 0.58892 0.0
C1688 C 0.61471 0.30248 0.56264 0.0
C1689 C 0.58458 0.2787 0.56581 0.0
C1690 C 0.63027 0.31163 0.55127 0.0
C1691 C 0.63504 0.30482 0.53111 0.0
C1692 C 0.60252 0.28688 0.55385 0.0
C1693 C 0.62258 0.28885 0.52282 0.0
C1694 C 0.56974 0.26518 0.55728 0.0
C1695 C 0.56512 0.28067 0.59705 0.0
N1696 N 0.60676 0.28052 0.53415 0.0
N1697 N 0.58178 0.28568 0.58548 0.0
H1698 H 0.22953 0.7359 1.00215 0.0
H1699 H 0.14553 0.64547 0.99926 0.0
H1700 H 0.24435 0.67137 0.00875 0.0
H1701 H 0.12897 0.70944 0.00589 0.0
H1702 H 0.18207 0.65513 1.00178 0.0
H1703 H 0.19285 0.72721 0.00467 0.0
C1704 C 0.22514 0.71996 0.00461 0.0
C1705 C 0.2401 0.70429 0.00482 0.0
C1706 C 0.17051 0.66712 0.00255 0.0
C1707 C 0.19806 0.6942 0.00709 0.0
C1708 C 0.14973 0.66161 1.00082 0.0
C1709 C 0.13449 0.67677 1.00193 0.0
C1710 C 0.17602 0.68797 0.00543 0.0
C1711 C 0.14047 0.69743 0.00455 0.0
C1712 C 0.20415 0.71499 0.00582 0.0
C1713 C 0.23337 0.6839 0.00795 0.0
N1714 N 0.16084 0.70248 0.00615 0.0
N1715 N 0.21288 0.67942 0.00865 0.0
H1716 H 0.70363 0.30134 0.4257 0.0
H1717 H 0.82672 0.30453 0.43443 0.0
H1718 H 0.74547 0.28762 0.3761 0.0
H1719 H 0.78962 0.34118 0.47579 0.0
H1720 H 0.79575 0.29295 0.41687 0.0
H1721 H 0.73346 0.31124 0.44771 0.0
C1722 C 0.71909 0.30061 0.41945 0.0
C1723 C 0.72221 0.29397 0.39903 0.0
C1724 C 0.79424 0.30344 0.42984 0.0
C1725 C 0.75614 0.30483 0.42398 0.0
C1726 C 0.81202 0.31021 0.43991 0.0
C1727 C 0.81102 0.32464 0.45618 0.0
C1728 C 0.7749 0.31048 0.43628 0.0
C1729 C 0.79126 0.33034 0.46314 0.0
C1730 C 0.73604 0.30618 0.43198 0.0
C1731 C 0.74245 0.29287 0.39169 0.0
N1732 N 0.77392 0.32335 0.45305 0.0
N1733 N 0.75858 0.29823 0.40412 0.0
H1734 H 0.46798 0.74628 0.95047 0.0
H1735 H 0.39951 0.68205 0.02971 0.0
H1736 H 0.4925 0.71773 0.00537 0.0
H1737 H 0.37343 0.72236 0.98402 0.0
H1738 H 0.43375 0.69601 0.02182 0.0
H1739 H 0.43292 0.73774 0.96215 0.0
C1740 C 0.46598 0.73814 0.9649 0.0
C1741 C 0.48318 0.73225 0.97676 0.0
C1742 C 0.42045 0.70201 0.01367 0.0
C1743 C 0.44334 0.72283 0.99037 0.0
C1744 C 0.40091 0.69419 0.01835 0.0
C1745 C 0.38362 0.70086 0.00722 0.0
C1746 C 0.42267 0.71642 0.99762 0.0
C1747 C 0.38635 0.71651 0.99257 0.0
C1748 C 0.44602 0.73339 0.97162 0.0
C1749 C 0.47973 0.72197 0.99544 0.0
N1750 N 0.40551 0.72354 0.9879 0.0
N1751 N 0.46026 0.71756 1.00162 0.0
H1752 H 0.60347 0.57107 0.24664 0.0
H1753 H 0.5074 0.60781 0.31562 0.0
H1754 H 0.57277 0.53407 0.29259 0.0
H1755 H 0.54395 0.651 0.28093 0.0
H1756 H 0.52865 0.57966 0.30249 0.0
H1757 H 0.57971 0.59958 0.25456 0.0
C1758 C 0.59179 0.56885 0.25833 0.0
C1759 C 0.59042 0.55004 0.26911 0.0
C1760 C 0.53184 0.59522 0.29733 0.0
C1761 C 0.56315 0.58267 0.2782 0.0
C1762 C 0.51944 0.61125 0.30459 0.0
C1763 C 0.52359 0.63169 0.29903 0.0
C1764 C 0.54859 0.5995 0.28425 0.0
C1765 C 0.54001 0.63537 0.28529 0.0
C1766 C 0.57829 0.5852 0.26289 0.0
C1767 C 0.57495 0.54828 0.28416 0.0
N1768 N 0.55195 0.61944 0.27838 0.0
N1769 N 0.56208 0.56427 0.2882 0.0
H1770 H 1.00163 0.23135 0.73641 0.0
H1771 H 1.00108 0.14661 0.64602 0.0
H1772 H 0.00509 0.24584 0.6716 0.0
H1773 H 0.00686 0.13043 0.71016 0.0
H1774 H 1.0024 0.18321 0.65558 0.0
H1775 H 0.00499 0.19459 0.7278 0.0
C1776 C 0.00354 0.22686 0.72041 0.0
C1777 C 0.00276 0.24172 0.70467 0.0
C1778 C 0.00331 0.17173 0.66765 0.0
C1779 C 0.00614 0.19963 0.69469 0.0
C1780 C 1.00234 0.1509 0.66217 0.0
C1781 C 0.00354 0.1357 0.67738 0.0
C1782 C 0.00548 0.17744 0.68853 0.0
C1783 C 0.00559 0.14185 0.69807 0.0
C1784 C 0.00526 0.20584 0.71549 0.0
C1785 C 0.00518 0.23492 0.68421 0.0
N1786 N 0.00642 0.1623 0.70309 0.0
N1787 N 0.00654 0.21443 0.67982 0.0
H1788 H 0.41264 0.70601 0.31779 0.0
H1789 H 0.4475 0.8234 0.29907 0.0
H1790 H 0.38847 0.74509 0.27002 0.0
H1791 H 0.47142 0.78747 0.34953 0.0
H1792 H 0.42898 0.79313 0.28624 0.0
H1793 H 0.43662 0.73387 0.32821 0.0
C1794 C 0.41234 0.72046 0.30961 0.0
C1795 C 0.39843 0.72312 0.29314 0.0
C1796 C 0.43853 0.79161 0.29991 0.0
C1797 C 0.42592 0.75513 0.3047 0.0
C1798 C 0.4493 0.80889 0.30714 0.0
C1799 C 0.4611 0.80799 0.32538 0.0
C1800 C 0.4394 0.77301 0.31093 0.0
C1801 C 0.46268 0.78882 0.33532 0.0
C1802 C 0.4261 0.73631 0.31541 0.0
C1803 C 0.39895 0.74211 0.28271 0.0
N1804 N 0.45176 0.77212 0.32808 0.0
N1805 N 0.41233 0.7573 0.28871 0.0
H1806 H 0.96036 0.484 0.70441 0.0
H1807 H 0.00756 0.37322 0.73145 0.0
H1808 H 0.98813 0.47147 0.76375 0.0
H1809 H 0.99914 0.39656 0.66986 0.0
H1810 H 0.99634 0.4069 0.74537 0.0
H1811 H 0.96856 0.44883 0.69349 0.0
C1812 C 0.96807 0.47386 0.71518 0.0
C1813 C 0.97395 0.48094 0.73485 0.0
C1814 C 0.99726 0.40468 0.72882 0.0
C1815 C 0.98346 0.44061 0.72243 0.0
C1816 C 0.00391 0.38565 0.72093 0.0
C1817 C 0.00477 0.38248 0.69953 0.0
C1818 C 0.99106 0.4203 0.71511 0.0
C1819 C 0.99916 0.39868 0.68645 0.0
C1820 C 0.97276 0.45377 0.70895 0.0
C1821 C 0.98335 0.46678 0.74839 0.0
N1822 N 0.99244 0.41682 0.69443 0.0
N1823 N 0.98802 0.44736 0.74186 0.0
H1824 H 0.7053 0.40349 0.45352 0.0
H1825 H 0.73568 0.4835 0.36633 0.0
H1826 H 0.76429 0.43464 0.45793 0.0
H1827 H 0.67426 0.47507 0.39024 0.0
H1828 H 0.74923 0.46218 0.39507 0.0
H1829 H 0.69648 0.42483 0.42414 0.0
C1830 C 0.71643 0.41487 0.44843 0.0
C1831 C 0.73534 0.41762 0.45879 0.0
C1832 C 0.73285 0.46534 0.39407 0.0
C1833 C 0.7254 0.44193 0.4245 0.0
C1834 C 0.7252 0.47762 0.3779 0.0
C1835 C 0.7039 0.48122 0.37623 0.0
C1836 C 0.71892 0.45636 0.40805 0.0
C1837 C 0.6908 0.47282 0.39118 0.0
C1838 C 0.71139 0.427 0.43152 0.0
C1839 C 0.74946 0.43203 0.4506 0.0
N1840 N 0.69847 0.46062 0.40623 0.0
N1841 N 0.74416 0.44379 0.43398 0.0
H1842 H 0.71118 0.57136 0.30155 0.0
H1843 H 0.69836 0.57196 0.1797 0.0
H1844 H 0.71118 0.6265 0.26474 0.0
H1845 H 0.66318 0.52753 0.21464 0.0
H1846 H 0.71012 0.58777 0.21148 0.0
H1847 H 0.69993 0.55123 0.27083 0.0
C1848 C 0.70869 0.57918 0.28702 0.0
C1849 C 0.71179 0.60062 0.28563 0.0
C1850 C 0.6999 0.57452 0.2123 0.0
C1851 C 0.69954 0.57781 0.25062 0.0
C1852 C 0.69296 0.56544 0.19407 0.0
C1853 C 0.67874 0.5489 0.19422 0.0
C1854 C 0.69352 0.56663 0.23128 0.0
C1855 C 0.6737 0.5405 0.21361 0.0
C1856 C 0.70228 0.56774 0.26959 0.0
C1857 C 0.70876 0.61004 0.26647 0.0
N1858 N 0.68101 0.54954 0.23143 0.0
N1859 N 0.70293 0.5986 0.24976 0.0
H1860 H 0.23747 0.01758 0.53959 0.0
H1861 H 0.33549 0.01629 0.61393 0.0
H1862 H 0.29796 0.04029 0.52325 0.0
H1863 H 0.27455 1.00136 0.63587 0.0
H1864 H 0.3209 0.02592 0.58076 0.0
H1865 H 0.24904 0.01427 0.57544 0.0
C1866 C 0.25307 0.02225 0.54357 0.0
C1867 C 0.26698 0.0287 0.52823 0.0
C1868 C 0.31058 0.0206 0.59272 0.0
C1869 C 0.28033 0.0245 0.5691 0.0
C1870 C 0.31896 0.01493 0.61158 0.0
C1871 C 0.30615 0.00814 0.6275 0.0
C1872 C 0.28916 0.01928 0.58957 0.0
C1873 C 0.28485 0.00656 0.62384 0.0
C1874 C 0.25967 0.02019 0.56404 0.0
C1875 C 0.28692 0.03459 0.53438 0.0
N1876 N 0.27694 0.01212 0.60513 0.0
N1877 N 0.29305 0.03208 0.55425 0.0
H1878 H 0.30501 0.97705 0.7626 0.0
H1879 H 0.31141 0.03027 0.87431 0.0
H1880 H 0.27888 0.0365 0.77694 0.0
H1881 H 0.34315 0.97392 0.85806 0.0
H1882 H 0.29894 0.03264 0.83886 0.0
H1883 H 0.31688 0.97423 0.7985 0.0
C1884 C 0.30151 0.98933 0.77343 0.0
C1885 C 0.29081 0.00696 0.76694 0.0
C1886 C 0.30851 0.01968 0.84316 0.0
C1887 C 0.30481 0.0042 0.80766 0.0
C1888 C 0.31588 0.01843 0.86339 0.0
C1889 C 0.32803 1.0016 0.86954 0.0
C1890 C 0.31305 0.00386 0.82901 0.0
C1891 C 0.33312 0.98673 0.8545 0.0
C1892 C 0.30841 0.98782 0.79382 0.0
C1893 C 0.28677 0.02252 0.78145 0.0
N1894 N 0.32541 0.98808 0.83506 0.0
N1895 N 0.29393 0.02086 0.80109 0.0
H1896 H 0.46101 0.76341 0.43997 0.0
H1897 H 0.38104 0.67282 0.46078 0.0
H1898 H 0.45344 0.70856 0.4025 0.0
H1899 H 0.37322 0.7319 0.49079 0.0
H1900 H 0.40817 0.68702 0.44007 0.0
H1901 H 0.4292 0.75424 0.45855 0.0
C1902 C 0.45264 0.7496 0.43548 0.0
C1903 C 0.46037 0.73647 0.41996 0.0
C1904 C 0.40065 0.6971 0.45106 0.0
C1905 C 0.42426 0.72579 0.44139 0.0
C1906 C 0.38502 0.68895 0.463 0.0
C1907 C 0.37449 0.70125 0.47739 0.0
C1908 C 0.40667 0.71773 0.45374 0.0
C1909 C 0.38093 0.72187 0.47989 0.0
C1910 C 0.43454 0.74435 0.44617 0.0
C1911 C 0.44872 0.71882 0.41482 0.0
N1912 N 0.39675 0.72952 0.46817 0.0
N1913 N 0.43154 0.71395 0.42563 0.0
H1914 H 0.76593 0.32711 0.02665 0.0
H1915 H 0.87525 0.30004 0.97695 0.0
H1916 H 0.77437 0.27511 0.9856 0.0
H1917 H 0.86567 0.34608 0.02419 0.0
H1918 H 0.83825 0.29165 0.97776 0.0
H1919 H 0.80191 0.33631 0.02237 0.0
C1920 C 0.77521 0.31776 0.01641 0.0
C1921 C 0.76698 0.30016 0.00658 0.0
C1922 C 0.84428 0.3035 0.98801 0.0
C1923 C 0.80877 0.31034 1.00219 0.0
C1924 C 0.86534 0.30822 0.98762 0.0
C1925 C 0.87346 0.32366 1.00065 0.0
C1926 C 0.83127 0.31451 1.00135 0.0
C1927 C 0.86007 0.33386 0.01413 0.0
C1928 C 0.79594 0.32292 0.0142 0.0
C1929 C 0.7801 0.28856 0.99381 0.0
N1930 N 0.83963 0.32919 0.01404 0.0
N1931 N 0.80041 0.29377 0.99209 0.0
H1932 H 0.27374 0.69257 0.62719 0.0
H1933 H 0.20434 0.69669 0.52429 0.0
H1934 H 0.29389 0.72624 0.57365 0.0
H1935 H 0.19474 0.65543 0.57544 0.0
H1936 H 0.23675 0.70871 0.54089 0.0
H1937 H 0.24344 0.68085 0.60804 0.0
C1938 C 0.27189 0.69728 0.61127 0.0
C1939 C 0.28654 0.7101 0.60194 0.0
C1940 C 0.22753 0.69695 0.54834 0.0
C1941 C 0.25164 0.69669 0.57964 0.0
C1942 C 0.20916 0.68998 0.53881 0.0
C1943 C 0.19663 0.67527 0.54866 0.0
C1944 C 0.23324 0.68912 0.56781 0.0
C1945 C 0.20361 0.66712 0.56747 0.0
C1946 C 0.25451 0.69065 0.60029 0.0
C1947 C 0.28299 0.71624 0.58138 0.0
N1948 N 0.22119 0.67427 0.57643 0.0
N1949 N 0.26593 0.70941 0.57085 0.0
H1950 H 0.53073 0.24478 0.9971 0.0
H1951 H 0.61428 0.32939 0.02573 0.0
H1952 H 0.52731 0.28418 0.05071 0.0
H1953 H 0.62844 0.27996 0.98331 0.0
H1954 H 0.58236 0.3123 0.03462 0.0
H1955 H 0.56657 0.25599 0.99175 0.0
C1956 C 0.53775 0.25554 0.00793 0.0
C1957 C 0.52618 0.26392 0.02414 0.0
C1958 C 0.59235 0.30503 0.02341 0.0
C1959 C 0.56681 0.27673 0.01819 0.0
C1960 C 0.61061 0.31483 0.01824 0.0
C1961 C 0.62422 0.30587 0.00404 0.0
C1962 C 0.58704 0.28639 0.01373 0.0
C1963 C 0.61836 0.28733 0.99438 0.0
C1964 C 0.55812 0.26189 0.00489 0.0
C1965 C 0.53574 0.2777 0.03784 0.0
N1966 N 0.60005 0.27817 0.99935 0.0
N1967 N 0.55551 0.2838 0.03446 0.0
H1968 H 0.40284 0.44068 0.75338 0.0
H1969 H 0.50297 0.39531 0.69693 0.0
H1970 H 0.44521 0.47604 0.7163 0.0
H1971 H 0.45664 0.35595 0.72397 0.0
H1972 H 0.48415 0.42541 0.70918 0.0
H1973 H 0.4237 0.40963 0.74674 0.0
C1974 C 0.41655 0.44192 0.74397 0.0
C1975 C 0.4223 0.46095 0.73536 0.0
C1976 C 0.47821 0.4102 0.71276 0.0
C1977 C 0.44622 0.42576 0.7279 0.0
C1978 C 0.48921 0.39299 0.70607 0.0
C1979 C 0.48148 0.3731 0.70953 0.0
C1980 C 0.45928 0.40759 0.72299 0.0
C1981 C 0.46316 0.37107 0.72102 0.0
C1982 C 0.4284 0.42423 0.74015 0.0
C1983 C 0.44007 0.46168 0.72309 0.0
N1984 N 0.45254 0.38811 0.72716 0.0
N1985 N 0.45135 0.44441 0.71979 0.0
H1986 H 0.98426 0.77224 0.27343 0.0
H1987 H 0.02433 0.86532 0.34534 0.0
H1988 H 0.02681 0.76549 0.32431 0.0
H1989 H 0.97874 0.87356 0.29737 0.0
H1990 H 0.02539 0.82856 0.33723 0.0
H1991 H 0.98074 0.80909 0.28217 0.0
C1992 C 0.99269 0.77851 0.28652 0.0
C1993 C 0.00585 0.76589 0.29818 0.0
C1994 C 0.01523 0.83837 0.32834 0.0
C1995 C 1.0024 0.80786 0.30791 0.0
C1996 C 0.01485 0.85941 0.3328 0.0
C1997 C 1.00158 0.87247 0.32188 0.0
C1998 C 1.00231 0.83027 0.31275 0.0
C1999 C 0.9892 0.86394 0.30612 0.0
C2000 C 0.99075 0.79949 0.29147 0.0
C2001 C 0.0164 0.77467 0.31503 0.0
N2002 N 0.98986 0.84334 0.302 0.0
N2003 N 0.01461 0.7951 0.31924 0.0
H2004 H 0.59712 0.29468 0.68137 0.0
H2005 H 0.55493 0.18206 0.70981 0.0
H2006 H 0.60581 0.26591 0.74073 0.0
H2007 H 0.5393 0.21249 0.6529 0.0
H2008 H 0.57201 0.21361 0.72194 0.0
H2009 H 0.57534 0.26546 0.67073 0.0
C2010 C 0.59449 0.28229 0.6922 0.0
C2011 C 0.60327 0.28301 0.7121 0.0
C2012 C 0.5646 0.21359 0.70692 0.0
C2013 C 0.57821 0.24938 0.69995 0.0
C2014 C 0.55469 0.19562 0.70008 0.0
C2015 C 0.54556 0.19474 0.68041 0.0
C2016 C 0.56573 0.23084 0.69388 0.0
C2017 C 0.54594 0.21264 0.66827 0.0
C2018 C 0.58191 0.26564 0.68613 0.0
C2019 C 0.59916 0.26638 0.72539 0.0
N2020 N 0.5561 0.22989 0.67509 0.0
N2021 N 0.58705 0.25032 0.71907 0.0
H2022 H 0.05396 0.52768 0.28035 0.0
H2023 H 0.98658 0.63114 0.28217 0.0
H2024 H 0.99459 0.53117 0.25033 0.0
H2025 H 0.02848 0.613 0.33065 0.0
H2026 H 0.99328 0.59795 0.26453 0.0
H2027 H 0.04988 0.56358 0.2922 0.0
C2028 C 0.04016 0.53612 0.2762 0.0
C2029 C 0.02444 0.52662 0.26469 0.0
C2030 C 1.00115 0.60148 0.27892 0.0
C2031 C 0.01956 0.56722 0.27813 0.0
C2032 C 0.99726 0.62026 0.28898 0.0
C2033 C 0.00741 0.62495 0.30761 0.0
C2034 C 0.0154 0.58759 0.28754 0.0
C2035 C 0.02087 0.61027 0.31599 0.0
C2036 C 0.03781 0.55649 0.28291 0.0
C2037 C 0.00692 0.53812 0.25937 0.0
N2038 N 0.02465 0.5924 0.30581 0.0
N2039 N 0.00482 0.55782 0.2663 0.0
H2040 H 0.35352 0.6493 0.35556 0.0
H2041 H 0.46508 0.70108 0.3419 0.0
H2042 H 0.37362 0.70365 0.38889 0.0
H2043 H 0.45187 0.63841 0.32274 0.0
H2044 H 0.43046 0.70371 0.35579 0.0
H2045 H 0.38775 0.6469 0.33981 0.0
C2046 C 0.36504 0.66083 0.35953 0.0
C2047 C 0.36045 0.67674 0.37369 0.0
C2048 C 0.43504 0.68942 0.34843 0.0
C2049 C 0.4 0.67395 0.35558 0.0
C2050 C 0.45496 0.68779 0.34048 0.0
C2051 C 0.46198 0.66913 0.33167 0.0
C2052 C 0.42126 0.67276 0.34658 0.0
C2053 C 0.44744 0.65307 0.3294 0.0
C2054 C 0.38468 0.65934 0.35058 0.0
C2055 C 0.37632 0.69099 0.37831 0.0
N2056 N 0.42783 0.65525 0.3368 0.0
N2057 N 0.39524 0.6893 0.36925 0.0
H2058 H 0.14192 0.3363 0.61285 0.0
H2059 H 0.04092 0.2954 0.66973 0.0
H2060 H 0.13621 0.27382 0.63471 0.0
H2061 H 0.05487 0.35908 0.65589 0.0
H2062 H 0.07303 0.28515 0.65239 0.0
H2063 H 0.10612 0.34255 0.62223 0.0
C2064 C 0.13283 0.32382 0.61929 0.0
C2065 C 0.14169 0.30469 0.62335 0.0
C2066 C 0.06897 0.30133 0.65323 0.0
C2067 C 0.10133 0.31173 0.63476 0.0
C2068 C 0.05083 0.30715 0.66314 0.0
C2069 C 0.0456 0.32809 0.66444 0.0
C2070 C 0.08155 0.31663 0.64446 0.0
C2071 C 0.05865 0.34281 0.65564 0.0
C2072 C 0.11253 0.32736 0.62478 0.0
C2073 C 0.12961 0.28881 0.63156 0.0
N2074 N 0.07603 0.33678 0.64603 0.0
N2075 N 0.10994 0.29279 0.63742 0.0
H2076 H 0.88001 0.00454 0.66937 0.0
H2077 H 0.96511 0.08275 0.62607 0.0
H2078 H 0.87932 0.02855 0.60733 0.0
H2079 H 0.97139 0.05175 0.6844 0.0
H2080 H 0.93372 0.0626 0.61888 0.0
H2081 H 0.91361 0.02099 0.67514 0.0
C2082 C 0.887 0.0131 0.65687 0.0
C2083 C 0.87671 0.01522 0.63784 0.0
C2084 C 0.94197 0.06008 0.63323 0.0
C2085 C 0.91526 0.03415 0.64439 0.0
C2086 C 0.95981 0.07161 0.63731 0.0
C2087 C 0.97065 0.06884 0.65582 0.0
C2088 C 0.93483 0.04581 0.64788 0.0
C2089 C 0.96332 0.05426 0.66995 0.0
C2090 C 0.90623 0.02246 0.66018 0.0
C2091 C 0.8867 0.02629 0.62217 0.0
N2092 N 0.94576 0.04335 0.66575 0.0
N2093 N 0.90529 0.03548 0.62587 0.0
H2094 H 0.60737 0.92154 0.3489 0.0
H2095 H 0.50748 0.86025 0.38733 0.0
H2096 H 0.60452 0.89532 0.40976 0.0
H2097 H 0.52462 0.86352 0.32331 0.0
H2098 H 0.54054 0.87667 0.39691 0.0
H2099 H 0.57448 0.90462 0.34024 0.0
C2100 C 0.59961 0.91247 0.36054 0.0
C2101 C 0.60865 0.90984 0.38004 0.0
C2102 C 0.5372 0.87355 0.38079 0.0
C2103 C 0.57078 0.89062 0.37039 0.0
C2104 C 0.51845 0.86404 0.37533 0.0
C2105 C 0.51359 0.86 0.35453 0.0
C2106 C 0.55099 0.87967 0.36528 0.0
C2107 C 0.52799 0.86587 0.33954 0.0
C2108 C 0.5809 0.90273 0.35557 0.0
C2109 C 0.59801 0.89779 0.39455 0.0
N2110 N 0.54589 0.87559 0.34519 0.0
N2111 N 0.57956 0.88875 0.3895 0.0
H2112 H 0.38653 0.37378 0.70172 0.0
H2113 H 0.32285 0.45457 0.63333 0.0
H2114 H 0.36096 0.35878 0.64191 0.0
H2115 H 0.33505 0.46367 0.69827 0.0
H2116 H 0.33565 0.41911 0.63638 0.0
H2117 H 0.3681 0.40693 0.70081 0.0
C2118 C 0.37716 0.37749 0.68835 0.0
C2119 C 0.37543 0.36344 0.67182 0.0
C2120 C 0.33534 0.42882 0.65002 0.0
C2121 C 0.35425 0.40145 0.67061 0.0
C2122 C 0.32772 0.44903 0.64832 0.0
C2123 C 0.32806 0.46238 0.66543 0.0
C2124 C 0.34368 0.42193 0.66889 0.0
C2125 C 0.33491 0.4542 0.68445 0.0
C2126 C 0.36649 0.39635 0.6879 0.0
C2127 C 0.36275 0.36904 0.65504 0.0
N2128 N 0.34283 0.43479 0.68555 0.0
N2129 N 0.35286 0.38756 0.6548 0.0
H2130 H 0.3779 0.59363 0.93287 0.0
H2131 H 0.36789 0.52181 0.8324 0.0
H2132 H 0.38524 0.61673 0.87051 0.0
H2133 H 0.34112 0.50744 0.89153 0.0
H2134 H 0.37964 0.55518 0.84666 0.0
H2135 H 0.37116 0.55979 0.91855 0.0
C2136 C 0.37818 0.59211 0.91629 0.0
C2137 C 0.38141 0.60921 0.90321 0.0
C2138 C 0.37124 0.54461 0.85646 0.0
C2139 C 0.37429 0.56937 0.88668 0.0
C2140 C 0.36433 0.52569 0.84826 0.0
C2141 C 0.35372 0.51161 0.86079 0.0
C2142 C 0.36758 0.54942 0.87734 0.0
C2143 C 0.34967 0.51751 0.88135 0.0
C2144 C 0.37442 0.57241 0.90813 0.0
C2145 C 0.38265 0.60488 0.88179 0.0
N2146 N 0.35671 0.5358 0.88897 0.0
N2147 N 0.37892 0.58558 0.87431 0.0
H2148 H 0.64284 0.14024 0.27502 0.0
H2149 H 0.64111 0.04703 0.35414 0.0
H2150 H 0.6054 0.1384 0.32976 0.0
H2151 H 0.67661 0.04619 0.29807 0.0
H2152 H 0.6248 0.07902 0.34316 0.0
H2153 H 0.65191 0.10392 0.28028 0.0
C2154 C 0.6362 0.13188 0.28785 0.0
C2155 C 0.62356 0.1419 0.3021 0.0
C2156 C 0.63602 0.07184 0.33311 0.0
C2157 C 0.63393 0.10109 0.30845 0.0
C2158 C 0.64532 0.05371 0.33943 0.0
C2159 C 0.66011 0.04438 0.32692 0.0
C2160 C 0.64182 0.08072 0.31428 0.0
C2161 C 0.66519 0.05322 0.30799 0.0
C2162 C 0.64139 0.11132 0.29092 0.0
C2163 C 0.61527 0.13091 0.31857 0.0
N2164 N 0.65616 0.07117 0.30227 0.0
N2165 N 0.62081 0.11103 0.32145 0.0
H2166 H 0.67484 0.87283 0.01926 0.0
H2167 H 0.62818 0.98014 0.05724 0.0
H2168 H 0.6095 0.88602 0.01572 0.0
H2169 H 0.68734 0.95641 0.07662 0.0
H2170 H 0.62222 0.94841 0.03726 0.0
H2171 H 0.68052 0.90591 0.03573 0.0
C2172 C 0.66155 0.8825 0.02198 0.0
C2173 C 0.64144 0.87593 0.01667 0.0
C2174 C 0.63648 0.95021 0.04589 0.0
C2175 C 0.64828 0.91485 0.03474 0.0
C2176 C 0.63999 0.96836 0.05718 0.0
C2177 C 0.65831 0.97098 0.06869 0.0
C2178 C 0.65146 0.93463 0.04597 0.0
C2179 C 0.67289 0.95502 0.06824 0.0
C2180 C 0.66494 0.90162 0.03127 0.0
C2181 C 0.62526 0.89011 0.01955 0.0
N2182 N 0.66915 0.93759 0.05709 0.0
N2183 N 0.62903 0.90887 0.02845 0.0
H2184 H 0.65591 0.34764 0.35445 0.0
H2185 H 0.67298 0.36973 0.47344 0.0
H2186 H 0.68904 0.40041 0.37936 0.0
H2187 H 0.66084 0.30746 0.45235 0.0
H2188 H 0.67674 0.38071 0.43831 0.0
H2189 H 0.65641 0.33207 0.38869 0.0
C2190 C 0.66346 0.35604 0.36683 0.0
C2191 C 0.67211 0.37586 0.36357 0.0
C2192 C 0.67338 0.36459 0.44117 0.0
C2193 C 0.67202 0.35798 0.40327 0.0
C2194 C 0.67128 0.35816 0.46142 0.0
C2195 C 0.66717 0.33735 0.46617 0.0
C2196 C 0.67051 0.3505 0.42498 0.0
C2197 C 0.66408 0.32361 0.44953 0.0
C2198 C 0.66357 0.34704 0.38652 0.0
C2199 C 0.68138 0.38564 0.38074 0.0
N2200 N 0.66573 0.33044 0.4296 0.0
N2201 N 0.68084 0.37675 0.39968 0.0
H2202 H 0.92362 0.34783 0.60283 0.0
H2203 H 0.85846 0.38759 0.50663 0.0
H2204 H 0.89252 0.40649 0.60532 0.0
H2205 H 0.8642 0.3232 0.52165 0.0
H2206 H 0.87458 0.39667 0.54 0.0
H2207 H 0.90691 0.34061 0.5697 0.0
C2208 C 0.91348 0.35934 0.59631 0.0
C2209 C 0.90925 0.37765 0.60714 0.0
C2210 C 0.87202 0.38058 0.53612 0.0
C2211 C 0.89023 0.36957 0.56883 0.0
C2212 C 0.86266 0.3754 0.51723 0.0
C2213 C 0.85957 0.35462 0.51165 0.0
C2214 C 0.87894 0.36483 0.54923 0.0
C2215 C 0.86588 0.33938 0.52559 0.0
C2216 C 0.90386 0.35514 0.5774 0.0
C2217 C 0.89599 0.39201 0.59772 0.0
N2218 N 0.87549 0.34478 0.54359 0.0
N2219 N 0.88698 0.38771 0.57909 0.0
H2220 H 0.31263 0.66269 0.15502 0.0
H2221 H 0.31899 0.6344 0.03602 0.0
H2222 H 0.29958 0.60156 0.13145 0.0
H2223 H 0.33256 0.69449 0.06219 0.0
H2224 H 0.30664 0.62305 0.06961 0.0
H2225 H 0.31532 0.6753 0.12005 0.0
C2226 C 0.3104 0.65192 0.14234 0.0
C2227 C 0.30643 0.63102 0.14594 0.0
C2228 C 0.31218 0.63875 0.06791 0.0
C2229 C 0.30927 0.64532 0.10584 0.0
C2230 C 0.3191 0.64531 0.04874 0.0
C2231 C 0.32709 0.66537 0.04642 0.0
C2232 C 0.31351 0.65229 0.08478 0.0
C2233 C 0.32707 0.67874 0.06342 0.0
C2234 C 0.31178 0.65913 0.12238 0.0
C2235 C 0.30294 0.61777 0.12912 0.0
N2236 N 0.32061 0.67186 0.08195 0.0
N2237 N 0.30471 0.62512 0.10962 0.0
H2238 H 0.03093 0.60737 0.87675 0.0
H2239 H 0.04828 0.68366 0.97329 0.0
H2240 H 0.00292 0.66754 0.88096 0.0
H2241 H 0.08225 0.62747 0.96365 0.0
H2242 H 0.02874 0.67678 0.94127 0.0
H2243 H 0.0467 0.61289 0.91064 0.0
C2244 C 0.02776 0.62158 0.88499 0.0
C2245 C 0.01552 0.63697 0.87603 0.0
C2246 C 0.04036 0.66587 0.94624 0.0
C2247 C 0.03389 0.64361 0.91475 0.0
C2248 C 0.0514 0.66977 0.96448 0.0
C2249 C 0.06671 0.65602 0.97096 0.0
C2250 C 0.04463 0.64801 0.93461 0.0
C2251 C 0.07047 0.63836 0.95906 0.0
C2252 C 0.03696 0.62484 0.90426 0.0
C2253 C 0.01235 0.65531 0.88726 0.0
N2254 N 0.05949 0.63484 0.94147 0.0
N2255 N 0.02153 0.65815 0.906 0.0
H2256 H 0.62548 0.33657 0.60219 0.0
H2257 H 0.55332 0.335 0.70258 0.0
H2258 H 0.65116 0.33334 0.66378 0.0
H2259 H 0.53207 0.33956 0.63953 0.0
H2260 H 0.5892 0.33361 0.68985 0.0
H2261 H 0.59126 0.337 0.61665 0.0
C2262 C 0.62412 0.33612 0.61881 0.0
C2263 C 0.64169 0.3353 0.63166 0.0
C2264 C 0.57661 0.33479 0.67888 0.0
C2265 C 0.60162 0.33504 0.64857 0.0
C2266 C 0.55617 0.33568 0.68613 0.0
C2267 C 0.5396 0.33721 0.67212 0.0
C2268 C 0.5804 0.33551 0.65749 0.0
C2269 C 0.5442 0.33797 0.65096 0.0
C2270 C 0.60432 0.33615 0.62711 0.0
C2271 C 0.6383 0.33387 0.65311 0.0
N2272 N 0.56401 0.3371 0.64439 0.0
N2273 N 0.61871 0.33385 0.66088 0.0
H2274 H 0.85098 0.67585 0.34991 0.0
H2275 H 0.97034 0.69989 0.36607 0.0
H2276 H 0.87485 0.7056 0.40489 0.0
H2277 H 0.94423 0.65803 0.32015 0.0
H2278 H 0.93577 0.70883 0.37623 0.0
H2279 H 0.88545 0.67561 0.33555 0.0
C2280 C 0.86358 0.68217 0.35906 0.0
C2281 C 0.86021 0.69014 0.37887 0.0
C2282 C 0.93791 0.69749 0.3641 0.0
C2283 C 0.89978 0.69024 0.36235 0.0
C2284 C 0.95788 0.69214 0.35811 0.0
C2285 C 0.9612 0.67673 0.34294 0.0
C2286 C 0.92104 0.68753 0.35486 0.0
C2287 C 0.94349 0.66864 0.33295 0.0
C2288 C 0.88323 0.68222 0.35077 0.0
C2289 C 0.87693 0.69901 0.38965 0.0
N2290 N 0.92439 0.67384 0.33936 0.0
N2291 N 0.89617 0.6986 0.38133 0.0
H2292 H 0.12907 0.98976 0.33552 0.0
H2293 H 0.02377 0.9438 0.38003 0.0
H2294 H 0.1188 0.97993 0.40063 0.0
H2295 H 0.04307 0.93793 0.31667 0.0
H2296 H 0.05544 0.96346 0.38766 0.0
H2297 H 0.09439 0.97725 0.32833 0.0
C2298 C 0.11956 0.98507 0.34838 0.0
C2299 C 0.12729 0.98529 0.36872 0.0
C2300 C 0.05262 0.95801 0.37206 0.0
C2301 C 0.08706 0.97162 0.3605 0.0
C2302 C 0.03458 0.94691 0.36771 0.0
C2303 C 0.03099 0.9392 0.34774 0.0
C2304 C 0.06694 0.96156 0.35626 0.0
C2305 C 0.04544 0.94346 0.33231 0.0
C2306 C 0.09965 0.97804 0.34421 0.0
C2307 C 0.1137 0.97996 0.38471 0.0
N2308 N 0.06282 0.95432 0.3369 0.0
N2309 N 0.09428 0.97316 0.38024 0.0
H2310 H 0.39725 0.11762 0.59567 0.0
H2311 H 0.48312 0.13976 0.67944 0.0
H2312 H 0.40761 0.07675 0.64706 0.0
H2313 H 0.49974 0.14605 0.6155 0.0
H2314 H 0.45039 0.12349 0.66873 0.0
H2315 H 0.431 0.13383 0.60273 0.0
C2316 C 0.40655 0.11186 0.60829 0.0
C2317 C 0.39904 0.09597 0.6211 0.0
C2318 C 0.46109 0.12869 0.65704 0.0
C2319 C 0.43752 0.11482 0.62938 0.0
C2320 C 0.4796 0.13817 0.66314 0.0
C2321 C 0.49395 0.14446 0.64832 0.0
C2322 C 0.45669 0.12582 0.63595 0.0
C2323 C 0.48888 0.14163 0.62735 0.0
C2324 C 0.42583 0.12115 0.61226 0.0
C2325 C 0.4123 0.08897 0.63686 0.0
N2326 N 0.47058 0.13262 0.62174 0.0
N2327 N 0.43052 0.09874 0.64086 0.0
H2328 H 0.62842 0.63702 0.36908 0.0
H2329 H 0.67607 0.54332 0.30406 0.0
H2330 H 0.64293 0.64339 0.30447 0.0
H2331 H 0.66996 0.54483 0.37025 0.0
H2332 H 0.66345 0.57918 0.30259 0.0
H2333 H 0.64196 0.6022 0.36839 0.0
C2334 C 0.63439 0.63108 0.35465 0.0
C2335 C 0.63445 0.6433 0.33679 0.0
C2336 C 0.6651 0.5717 0.31742 0.0
C2337 C 0.65046 0.60301 0.33598 0.0
C2338 C 0.67241 0.55134 0.31828 0.0
C2339 C 0.67449 0.54129 0.33738 0.0
C2340 C 0.65938 0.58181 0.33577 0.0
C2341 C 0.66913 0.55215 0.35528 0.0
C2342 C 0.64228 0.61112 0.3543 0.0
C2343 C 0.64274 0.63466 0.31867 0.0
N2344 N 0.66171 0.57166 0.354 0.0
N2345 N 0.65023 0.61496 0.31867 0.0
H2346 H 0.6287 0.38643 0.1352 0.0
H2347 H 0.63094 0.5067 0.11422 0.0
H2348 H 0.62413 0.41122 0.07338 0.0
H2349 H 0.66296 0.47865 0.16571 0.0
H2350 H 0.62239 0.47285 0.10116 0.0
H2351 H 0.63242 0.42108 0.14853 0.0
C2352 C 0.62824 0.39892 0.12422 0.0
C2353 C 0.62624 0.39526 0.10281 0.0
C2354 C 0.63132 0.47416 0.1153 0.0
C2355 C 0.63201 0.43556 0.11852 0.0
C2356 C 0.63675 0.49369 0.12279 0.0
C2357 C 0.64894 0.4962 0.1409 0.0
C2358 C 0.63702 0.45666 0.12637 0.0
C2359 C 0.6539 0.47806 0.15169 0.0
C2360 C 0.63087 0.41885 0.13203 0.0
C2361 C 0.62625 0.41275 0.08987 0.0
N2362 N 0.64784 0.4592 0.14433 0.0
N2363 N 0.6293 0.43205 0.0979 0.0
H2364 H 0.37872 0.86606 0.72374 0.0
H2365 H 0.33686 0.94894 0.64481 0.0
H2366 H 0.38645 0.86422 0.65762 0.0
H2367 H 0.34738 0.96631 0.70859 0.0
H2368 H 0.35005 0.9152 0.65196 0.0
H2369 H 0.36539 0.90151 0.72081 0.0
C2370 C 0.37792 0.87324 0.70869 0.0
C2371 C 0.38318 0.86214 0.69078 0.0
C2372 C 0.34958 0.92636 0.66446 0.0
C2373 C 0.36778 0.90199 0.68739 0.0
C2374 C 0.34158 0.94566 0.66049 0.0
C2375 C 0.34092 0.96068 0.67611 0.0
C2376 C 0.3575 0.92192 0.68407 0.0
C2377 C 0.34799 0.95533 0.69597 0.0
C2378 C 0.37024 0.89333 0.70706 0.0
C2379 C 0.382 0.87204 0.67171 0.0
N2380 N 0.35619 0.93632 0.69941 0.0
N2381 N 0.37421 0.89129 0.67052 0.0
H2382 H 0.4009 0.12461 0.96867 0.0
H2383 H 0.3216 0.03022 0.95606 0.0
H2384 H 0.34141 0.12276 0.9984 0.0
H2385 H 0.3786 0.03604 0.92257 0.0
H2386 H 0.32998 0.06225 0.97493 0.0
H2387 H 0.39477 0.08987 0.95538 0.0
C2388 C 0.38673 0.11673 0.97277 0.0
C2389 C 0.37163 0.12662 0.98463 0.0
C2390 C 0.34075 0.0564 0.96361 0.0
C2391 C 0.36426 0.08703 0.96899 0.0
C2392 C 0.336 0.03817 0.95298 0.0
C2393 C 0.34954 0.03071 0.93795 0.0
C2394 C 0.3592 0.06698 0.95916 0.0
C2395 C 0.36788 0.04146 0.93415 0.0
C2396 C 0.38312 0.09697 0.96497 0.0
C2397 C 0.35335 0.11579 0.98909 0.0
N2398 N 0.37218 0.0591 0.94468 0.0
N2399 N 0.35009 0.09662 0.98112 0.0
H2400 H 0.30613 0.62372 0.63632 0.0
H2401 H 0.36935 0.68388 0.54945 0.0
H2402 H 0.36533 0.65258 0.64667 0.0
H2403 H 0.30561 0.66539 0.54124 0.0
H2404 H 0.36714 0.67418 0.58558 0.0
H2405 H 0.30505 0.63894 0.60152 0.0
C2406 C 0.31882 0.63335 0.63124 0.0
C2407 C 0.33585 0.63698 0.64426 0.0
C2408 C 0.35359 0.67231 0.57589 0.0
C2409 C 0.33483 0.65435 0.6047 0.0
C2410 C 0.35477 0.67812 0.55518 0.0
C2411 C 0.33785 0.67507 0.54188 0.0
C2412 C 0.33548 0.66306 0.58345 0.0
C2413 C 0.31941 0.66734 0.55057 0.0
C2414 C 0.31821 0.64206 0.61146 0.0
C2415 C 0.35195 0.64946 0.63705 0.0
N2416 N 0.31883 0.66127 0.57064 0.0
N2417 N 0.35109 0.65762 0.61777 0.0
H2418 H 0.08188 0.65321 0.40285 0.0
H2419 H 0.15856 0.62052 0.49416 0.0
H2420 H 0.12084 0.5996 0.39714 0.0
H2421 H 0.12887 0.67956 0.48842 0.0
H2422 H 0.14302 0.60984 0.46081 0.0
H2423 H 0.09562 0.65942 0.43699 0.0
C2424 C 0.09307 0.64244 0.40884 0.0
C2425 C 0.10014 0.62584 0.39682 0.0
C2426 C 0.1401 0.62518 0.46679 0.0
C2427 C 0.11652 0.63327 0.43643 0.0
C2428 C 0.14915 0.63134 0.48562 0.0
C2429 C 0.14526 0.65109 0.49373 0.0
C2430 C 0.12689 0.6388 0.45632 0.0
C2431 C 0.13249 0.66435 0.4825 0.0
C2432 C 0.10109 0.64614 0.42845 0.0
C2433 C 0.11508 0.61277 0.40565 0.0
N2434 N 0.12377 0.65796 0.46447 0.0
N2435 N 0.12287 0.61681 0.4249 0.0
H2436 H 0.67735 0.40969 0.87359 0.0
H2437 H 0.69267 0.31568 0.95115 0.0
H2438 H 0.71045 0.35438 0.85764 0.0
H2439 H 0.66138 0.37225 0.96643 0.0
H2440 H 0.70295 0.33076 0.91795 0.0
H2441 H 0.6753 0.39787 0.90933 0.0
C2442 C 0.68447 0.39521 0.87786 0.0
C2443 C 0.69389 0.38279 0.86304 0.0
C2444 C 0.69392 0.3399 0.92862 0.0
C2445 C 0.69145 0.36901 0.90333 0.0
C2446 C 0.68801 0.33126 0.94735 0.0
C2447 C 0.67606 0.34283 0.96103 0.0
C2448 C 0.68757 0.36005 0.92376 0.0
C2449 C 0.6705 0.36297 0.95596 0.0
C2450 C 0.68329 0.3884 0.89813 0.0
C2451 C 0.70294 0.36416 0.86892 0.0
N2452 N 0.67618 0.37093 0.93759 0.0
N2453 N 0.70132 0.35765 0.88869 0.0
H2454 H 0.99011 0.33525 0.13108 0.0
H2455 H 0.94211 0.38072 0.02678 0.0
H2456 H 0.97603 0.39988 0.12324 0.0
H2457 H 0.94043 0.31638 0.0433 0.0
H2458 H 0.96055 0.3884 0.0592 0.0
H2459 H 0.9784 0.32865 0.09592 0.0
C2460 C 0.98463 0.34813 0.12201 0.0
C2461 C 0.98346 0.3681 0.13056 0.0
C2462 C 0.95634 0.37259 0.05562 0.0
C2463 C 0.97051 0.36059 0.08981 0.0
C2464 C 0.94592 0.36821 0.03715 0.0
C2465 C 0.93981 0.34791 0.0325 0.0
C2466 C 0.96089 0.35648 0.06934 0.0
C2467 C 0.94485 0.33223 0.04644 0.0
C2468 C 0.97804 0.34431 0.10183 0.0
C2469 C 0.97712 0.38421 0.11752 0.0
N2470 N 0.95511 0.33684 0.06423 0.0
N2471 N 0.97069 0.38007 0.09787 0.0
loop_
_geom_bond_atom_site_label_1
_geom_bond_atom_site_label_2
_geom_bond_distance
_geom_bond_site_symmetry_2
_ccdc_geom_bond_type
C0 C1 1.264 . S
C0 C5 1.479 . S
C0 C10 1.465 . S
C1 C0 1.264 . S
C1 C3 1.339 . S
C1 H28 0.931 . S
C2 C3 1.395 . S
C2 C4 1.320 . S
C3 C1 1.339 . S
C3 C2 1.395 . S
C3 H29 0.929 . S
C4 C2 1.320 . S
C4 C5 1.405 . S
C4 H30 0.930 . S
C5 C0 1.479 . S
C5 C4 1.405 . S
C5 H31 0.931 . S
U6 O7 2.454 . S
U6 O8 2.458 . S
U6 C9 2.984 . S
U6 C10 2.847 . S
U6 C23 2.882 . S
U6 O24 2.441 . S
U6 O25 2.420 . S
U6 O26 2.455 . S
U6 O27 2.449 . S
O7 U6 2.454 . S
O7 C9 1.353 . S
O8 U6 2.458 . S
O8 C9 1.286 . S
C9 U6 2.984 . S
C9 O7 1.353 . S
C9 O8 1.286 . S
C9 C11 1.363 . S
C10 C0 1.465 . S
C10 U6 2.847 . S
C10 O24 1.249 . S
C10 O25 1.202 . S
C11 C9 1.363 . S
C11 C13 1.408 . S
C11 C16 1.342 . S
C12 C13 1.310 . S
C12 C15 1.461 . S
C12 H32 0.932 . S
C13 C11 1.408 . S
C13 C12 1.310 . S
C13 H33 0.930 . S
C14 C15 1.474 . S
C14 C16 1.285 . S
C14 H34 0.929 . S
C15 C12 1.461 . S
C15 C14 1.474 . S
C16 C11 1.342 . S
C16 C14 1.285 . S
C16 H35 0.930 . S
C17 C20 1.424 . S
C17 C22 1.245 . S
C17 C23 1.428 . S
C18 C21 1.260 . S
C18 C22 1.477 . S
C18 H36 0.932 . S
C19 C20 1.384 . S
C19 C21 1.479 . S
C19 H37 0.929 . S
C20 C17 1.424 . S
C20 C19 1.384 . S
C20 H38 0.928 . S
C21 C18 1.260 . S
C21 C19 1.479 . S
C22 C17 1.245 . S
C22 C18 1.477 . S
C22 H39 0.932 . S
C23 U6 2.882 . S
C23 C17 1.428 . S
C23 O26 1.301 . S
C23 O27 1.282 . S
O24 U6 2.441 . S
O24 C10 1.249 . S
O25 U6 2.420 . S
O25 C10 1.202 . S
O26 U6 2.455 . S
O26 C23 1.301 . S
O27 U6 2.449 . S
O27 C23 1.282 . S
H28 C1 0.931 . S
H29 C3 0.929 . S
H30 C4 0.930 . S
H31 C5 0.931 . S
H32 C12 0.932 . S
H33 C13 0.930 . S
H34 C14 0.929 . S
H35 C16 0.930 . S
H36 C18 0.932 . S
H37 C19 0.929 . S
H38 C20 0.928 . S
H39 C22 0.932 . S
C40 C41 1.264 . S
C40 C45 1.479 . S
C40 C50 1.465 . S
C41 C40 1.264 . S
C41 C43 1.339 . S
C41 H68 0.931 . S
C42 C43 1.395 . S
C42 C44 1.320 . S
C43 C41 1.339 . S
C43 C42 1.395 . S
C43 H69 0.929 . S
C44 C42 1.320 . S
C44 C45 1.405 . S
C44 H70 0.930 . S
C45 C40 1.479 . S
C45 C44 1.405 . S
C45 H71 0.931 . S
U46 O47 2.454 . S
U46 O48 2.458 . S
U46 C49 2.984 . S
U46 C50 2.847 . S
U46 C63 2.882 . S
U46 O64 2.441 . S
U46 O65 2.420 . S
U46 O66 2.455 . S
U46 O67 2.449 . S
O47 U46 2.454 . S
O47 C49 1.353 . S
O48 U46 2.458 . S
O48 C49 1.286 . S
C49 U46 2.984 . S
C49 O47 1.353 . S
C49 O48 1.286 . S
C49 C51 1.363 . S
C50 C40 1.465 . S
C50 U46 2.847 . S
C50 O64 1.249 . S
C50 O65 1.202 . S
C51 C49 1.363 . S
C51 C53 1.408 . S
C51 C56 1.342 . S
C52 C53 1.310 . S
C52 C55 1.461 . S
C52 H72 0.932 . S
C53 C51 1.408 . S
C53 C52 1.310 . S
C53 H73 0.930 . S
C54 C55 1.474 . S
C54 C56 1.285 . S
C54 H74 0.929 . S
C55 C52 1.461 . S
C55 C54 1.474 . S
C56 C51 1.342 . S
C56 C54 1.285 . S
C56 H75 0.930 . S
C57 C60 1.424 . S
C57 C62 1.245 . S
C57 C63 1.428 . S
C58 C61 1.260 . S
C58 C62 1.477 . S
C58 H76 0.932 . S
C59 C60 1.384 . S
C59 C61 1.479 . S
C59 H77 0.929 . S
C60 C57 1.424 . S
C60 C59 1.384 . S
C60 H78 0.928 . S
C61 C58 1.260 . S
C61 C59 1.479 . S
C62 C57 1.245 . S
C62 C58 1.477 . S
C62 H79 0.932 . S
C63 U46 2.882 . S
C63 C57 1.428 . S
C63 O66 1.301 . S
C63 O67 1.282 . S
O64 U46 2.441 . S
O64 C50 1.249 . S
O65 U46 2.420 . S
O65 C50 1.202 . S
O66 U46 2.455 . S
O66 C63 1.301 . S
O67 U46 2.449 . S
O67 C63 1.282 . S
H68 C41 0.931 . S
H69 C43 0.929 . S
H70 C44 0.930 . S
H71 C45 0.931 . S
H72 C52 0.932 . S
H73 C53 0.930 . S
H74 C54 0.929 . S
H75 C56 0.930 . S
H76 C58 0.932 . S
H77 C59 0.929 . S
H78 C60 0.928 . S
H79 C62 0.932 . S
C80 C81 1.264 . S
C80 C85 1.479 1_565 S
C80 C90 1.465 . S
C81 C80 1.264 . S
C81 C83 1.339 . S
C81 H108 0.931 . S
C82 C83 1.395 1_545 S
C82 C84 1.320 . S
C83 C81 1.339 . S
C83 C82 1.395 1_565 S
C83 H109 0.929 . S
C84 C82 1.320 . S
C84 C85 1.405 . S
C84 H110 0.930 . S
C85 C80 1.479 1_545 S
C85 C84 1.405 . S
C85 H111 0.931 . S
U86 O87 2.454 1_565 S
U86 O88 2.458 1_565 S
U86 C89 2.984 1_565 S
U86 C90 2.847 . S
U86 C103 2.882 . S
U86 O104 2.446 . S
U86 O105 2.420 . S
U86 O106 2.455 . S
U86 O107 2.449 . S
O87 U86 2.454 1_545 S
O87 C89 1.353 . S
O88 U86 2.458 1_545 S
O88 C89 1.286 . S
C89 U86 2.984 1_545 S
C89 O87 1.353 . S
C89 O88 1.286 . S
C89 C91 1.363 . S
C90 C80 1.465 . S
C90 U86 2.847 . S
C90 O104 1.258 . S
C90 O105 1.202 . S
C91 C89 1.363 . S
C91 C93 1.408 . S
C91 C96 1.342 . S
C92 C93 1.310 . S
C92 C95 1.461 . S
C92 H112 0.932 . S
C93 C91 1.408 . S
C93 C92 1.310 . S
C93 H113 0.930 . S
C94 C95 1.474 . S
C94 C96 1.285 . S
C94 H114 0.929 . S
C95 C92 1.461 . S
C95 C94 1.474 . S
C96 C91 1.342 . S
C96 C94 1.285 . S
C96 H115 0.930 . S
C97 C100 1.424 . S
C97 C102 1.245 . S
C97 C103 1.428 . S
C98 C101 1.260 . S
C98 C102 1.477 . S
C98 H116 0.932 . S
C99 C100 1.384 . S
C99 C101 1.479 . S
C99 H117 0.929 . S
C100 C97 1.424 . S
C100 C99 1.384 . S
C100 H118 0.928 . S
C101 C98 1.260 . S
C101 C99 1.479 . S
C102 C97 1.245 . S
C102 C98 1.477 . S
C102 H119 0.932 . S
C103 U86 2.882 . S
C103 C97 1.428 . S
C103 O106 1.301 . S
C103 O107 1.282 . S
O104 U86 2.446 . S
O104 C90 1.258 . S
O105 U86 2.420 . S
O105 C90 1.202 . S
O106 U86 2.455 . S
O106 C103 1.301 . S
O107 U86 2.449 . S
O107 C103 1.282 . S
H108 C81 0.931 . S
H109 C83 0.929 . S
H110 C84 0.930 . S
H111 C85 0.931 . S
H112 C92 0.932 . S
H113 C93 0.930 . S
H114 C94 0.929 . S
H115 C96 0.930 . S
H116 C98 0.932 . S
H117 C99 0.929 . S
H118 C100 0.928 . S
H119 C102 0.932 . S
C120 C121 1.264 . S
C120 C125 1.479 . S
C120 C130 1.465 . S
C121 C120 1.264 . S
C121 C123 1.339 . S
C121 H148 0.931 . S
C122 C123 1.395 . S
C122 C124 1.320 . S
C123 C121 1.339 . S
C123 C122 1.395 . S
C123 H149 0.929 . S
C124 C122 1.320 . S
C124 C125 1.405 . S
C124 H150 0.930 . S
C125 C120 1.479 . S
C125 C124 1.405 . S
C125 H151 0.931 . S
U126 O127 2.454 . S
U126 O128 2.458 . S
U126 C129 2.984 . S
U126 C130 2.847 . S
U126 C143 2.882 . S
U126 O144 2.441 . S
U126 O145 2.420 . S
U126 O146 2.455 . S
U126 O147 2.449 . S
O127 U126 2.454 . S
O127 C129 1.353 . S
O128 U126 2.458 . S
O128 C129 1.286 . S
C129 U126 2.984 . S
C129 O127 1.353 . S
C129 O128 1.286 . S
C129 C131 1.363 . S
C130 C120 1.465 . S
C130 U126 2.847 . S
C130 O144 1.249 . S
C130 O145 1.202 . S
C131 C129 1.363 . S
C131 C133 1.408 . S
C131 C136 1.342 . S
C132 C133 1.310 . S
C132 C135 1.461 . S
C132 H152 0.932 . S
C133 C131 1.408 . S
C133 C132 1.310 . S
C133 H153 0.930 . S
C134 C135 1.474 . S
C134 C136 1.285 . S
C134 H154 0.929 . S
C135 C132 1.461 . S
C135 C134 1.474 . S
C136 C131 1.342 . S
C136 C134 1.285 . S
C136 H155 0.930 . S
C137 C140 1.424 . S
C137 C142 1.245 1_565 S
C137 C143 1.428 . S
C138 C141 1.260 . S
C138 C142 1.477 . S
C138 H156 0.932 . S
C139 C140 1.384 1_545 S
C139 C141 1.479 . S
C139 H157 0.929 . S
C140 C137 1.424 . S
C140 C139 1.384 1_565 S
C140 H158 0.928 . S
C141 C138 1.260 . S
C141 C139 1.479 . S
C142 C137 1.245 1_545 S
C142 C138 1.477 . S
C142 H159 0.932 . S
C143 U126 2.882 . S
C143 C137 1.428 . S
C143 O146 1.301 . S
C143 O147 1.282 . S
O144 U126 2.441 . S
O144 C130 1.249 . S
O145 U126 2.420 . S
O145 C130 1.202 . S
O146 U126 2.455 . S
O146 C143 1.301 . S
O147 U126 2.449 . S
O147 C143 1.282 . S
H148 C121 0.931 . S
H149 C123 0.929 . S
H150 C124 0.930 . S
H151 C125 0.931 . S
H152 C132 0.932 . S
H153 C133 0.930 . S
H154 C134 0.929 . S
H155 C136 0.930 . S
H156 C138 0.932 . S
H157 C139 0.929 . S
H158 C140 0.928 . S
H159 C142 0.932 . S
C160 C161 1.264 . S
C160 C165 1.479 . S
C160 C170 1.465 . S
C161 C160 1.264 . S
C161 C163 1.339 . S
C161 H188 0.931 . S
C162 C163 1.395 . S
C162 C164 1.320 . S
C163 C161 1.339 . S
C163 C162 1.395 . S
C163 H189 0.929 . S
C164 C162 1.320 . S
C164 C165 1.405 . S
C164 H190 0.930 . S
C165 C160 1.479 . S
C165 C164 1.405 . S
C165 H191 0.931 . S
U166 O167 2.454 . S
U166 O168 2.458 . S
U166 C169 2.984 . S
U166 C170 2.847 . S
U166 C183 2.882 . S
U166 O184 2.441 . S
U166 O185 2.420 . S
U166 O186 2.455 . S
U166 O187 2.449 . S
O167 U166 2.454 . S
O167 C169 1.353 . S
O168 U166 2.458 . S
O168 C169 1.286 . S
C169 U166 2.984 . S
C169 O167 1.353 . S
C169 O168 1.286 . S
C169 C171 1.363 . S
C170 C160 1.465 . S
C170 U166 2.847 . S
C170 O184 1.249 . S
C170 O185 1.202 . S
C171 C169 1.363 . S
C171 C173 1.408 . S
C171 C176 1.342 . S
C172 C173 1.310 . S
C172 C175 1.461 . S
C172 H192 0.932 . S
C173 C171 1.408 . S
C173 C172 1.310 . S
C173 H193 0.930 . S
C174 C175 1.474 . S
C174 C176 1.285 . S
C174 H194 0.929 . S
C175 C172 1.461 . S
C175 C174 1.474 . S
C176 C171 1.342 . S
C176 C174 1.285 . S
C176 H195 0.930 . S
C177 C180 1.424 . S
C177 C182 1.245 . S
C177 C183 1.428 . S
C178 C181 1.260 . S
C178 C182 1.477 . S
C178 H196 0.932 . S
C179 C180 1.384 . S
C179 C181 1.479 . S
C179 H197 0.929 . S
C180 C177 1.424 . S
C180 C179 1.384 . S
C180 H198 0.928 . S
C181 C178 1.260 . S
C181 C179 1.479 . S
C182 C177 1.245 . S
C182 C178 1.477 . S
C182 H199 0.932 . S
C183 U166 2.882 . S
C183 C177 1.428 . S
C183 O186 1.301 . S
C183 O187 1.282 . S
O184 U166 2.441 . S
O184 C170 1.249 . S
O185 U166 2.420 . S
O185 C170 1.202 . S
O186 U166 2.455 . S
O186 C183 1.301 . S
O187 U166 2.449 . S
O187 C183 1.282 . S
H188 C161 0.931 . S
H189 C163 0.929 . S
H190 C164 0.930 . S
H191 C165 0.931 . S
H192 C172 0.932 . S
H193 C173 0.930 . S
H194 C174 0.929 . S
H195 C176 0.930 . S
H196 C178 0.932 . S
H197 C179 0.929 . S
H198 C180 0.928 . S
H199 C182 0.932 . S
C200 C201 1.264 . S
C200 C205 1.479 . S
C200 C210 1.465 . S
C201 C200 1.264 . S
C201 C203 1.339 . S
C201 H228 0.931 . S
C202 C203 1.395 . S
C202 C204 1.320 . S
C203 C201 1.339 . S
C203 C202 1.395 . S
C203 H229 0.929 . S
C204 C202 1.320 . S
C204 C205 1.405 . S
C204 H230 0.930 . S
C205 C200 1.479 . S
C205 C204 1.405 . S
C205 H231 0.931 . S
U206 O207 2.454 . S
U206 O208 2.458 . S
U206 C209 2.984 . S
U206 C210 2.847 . S
U206 C223 2.882 . S
U206 O224 2.441 . S
U206 O225 2.420 . S
U206 O226 2.455 . S
U206 O227 2.449 . S
O207 U206 2.454 . S
O207 C209 1.353 . S
O208 U206 2.458 . S
O208 C209 1.286 . S
C209 U206 2.984 . S
C209 O207 1.353 . S
C209 O208 1.286 . S
C209 C211 1.363 . S
C210 C200 1.465 . S
C210 U206 2.847 . S
C210 O224 1.249 . S
C210 O225 1.202 . S
C211 C209 1.363 . S
C211 C213 1.408 . S
C211 C216 1.342 . S
C212 C213 1.310 . S
C212 C215 1.461 . S
C212 H232 0.932 . S
C213 C211 1.408 . S
C213 C212 1.310 . S
C213 H233 0.930 . S
C214 C215 1.474 . S
C214 C216 1.285 . S
C214 H234 0.929 . S
C215 C212 1.461 . S
C215 C214 1.474 . S
C216 C211 1.342 . S
C216 C214 1.285 . S
C216 H235 0.930 . S
C217 C220 1.424 . S
C217 C222 1.245 1_556 S
C217 C223 1.428 . S
C218 C221 1.260 . S
C218 C222 1.477 . S
C218 H236 0.932 . S
C219 C220 1.384 1_554 S
C219 C221 1.479 . S
C219 H237 0.929 . S
C220 C217 1.424 . S
C220 C219 1.384 1_556 S
C220 H238 0.928 . S
C221 C218 1.260 . S
C221 C219 1.479 . S
C222 C217 1.245 1_554 S
C222 C218 1.477 . S
C222 H239 0.932 . S
C223 U206 2.882 . S
C223 C217 1.428 . S
C223 O226 1.301 . S
C223 O227 1.282 . S
O224 U206 2.441 . S
O224 C210 1.249 . S
O225 U206 2.420 . S
O225 C210 1.202 . S
O226 U206 2.455 . S
O226 C223 1.301 . S
O227 U206 2.449 . S
O227 C223 1.282 . S
H228 C201 0.931 . S
H229 C203 0.929 . S
H230 C204 0.930 . S
H231 C205 0.931 . S
H232 C212 0.932 . S
H233 C213 0.930 . S
H234 C214 0.929 . S
H235 C216 0.930 . S
H236 C218 0.932 . S
H237 C219 0.929 . S
H238 C220 0.928 . S
H239 C222 0.932 . S
C240 C241 1.264 . S
C240 C245 1.479 . S
C240 C250 1.465 . S
C241 C240 1.264 . S
C241 C243 1.339 . S
C241 H268 0.931 . S
C242 C243 1.395 . S
C242 C244 1.320 . S
C243 C241 1.339 . S
C243 C242 1.395 . S
C243 H269 0.929 . S
C244 C242 1.320 . S
C244 C245 1.405 . S
C244 H270 0.930 . S
C245 C240 1.479 . S
C245 C244 1.405 . S
C245 H271 0.931 . S
U246 O247 2.454 . S
U246 O248 2.458 . S
U246 C249 2.984 . S
U246 C250 2.847 . S
U246 C263 2.882 . S
U246 O264 2.441 . S
U246 O265 2.420 . S
U246 O266 2.455 . S
U246 O267 2.449 . S
O247 U246 2.454 . S
O247 C249 1.353 . S
O248 U246 2.458 . S
O248 C249 1.286 . S
C249 U246 2.984 . S
C249 O247 1.353 . S
C249 O248 1.286 . S
C249 C251 1.363 . S
C250 C240 1.465 . S
C250 U246 2.847 . S
C250 O264 1.249 . S
C250 O265 1.202 . S
C251 C249 1.363 . S
C251 C253 1.408 . S
C251 C256 1.342 . S
C252 C253 1.310 . S
C252 C255 1.461 . S
C252 H272 0.932 . S
C253 C251 1.408 . S
C253 C252 1.310 . S
C253 H273 0.930 . S
C254 C255 1.474 . S
C254 C256 1.285 . S
C254 H274 0.929 . S
C255 C252 1.461 . S
C255 C254 1.474 . S
C256 C251 1.342 . S
C256 C254 1.285 . S
C256 H275 0.930 . S
C257 C260 1.424 . S
C257 C262 1.245 . S
C257 C263 1.428 . S
C258 C261 1.260 . S
C258 C262 1.477 . S
C258 H276 0.932 . S
C259 C260 1.384 . S
C259 C261 1.479 . S
C259 H277 0.929 . S
C260 C257 1.424 . S
C260 C259 1.384 . S
C260 H278 0.928 . S
C261 C258 1.260 . S
C261 C259 1.479 . S
C262 C257 1.245 . S
C262 C258 1.477 . S
C262 H279 0.932 . S
C263 U246 2.882 . S
C263 C257 1.428 . S
C263 O266 1.301 . S
C263 O267 1.282 . S
O264 U246 2.441 . S
O264 C250 1.249 . S
O265 U246 2.420 . S
O265 C250 1.202 . S
O266 U246 2.455 . S
O266 C263 1.301 . S
O267 U246 2.449 . S
O267 C263 1.282 . S
H268 C241 0.931 . S
H269 C243 0.929 . S
H270 C244 0.930 . S
H271 C245 0.931 . S
H272 C252 0.932 . S
H273 C253 0.930 . S
H274 C254 0.929 . S
H275 C256 0.930 . S
H276 C258 0.932 . S
H277 C259 0.929 . S
H278 C260 0.928 . S
H279 C262 0.932 . S
C280 C281 1.264 . S
C280 C285 1.479 1_556 S
C280 C290 1.465 . S
C281 C280 1.264 . S
C281 C283 1.339 . S
C281 H308 0.931 . S
C282 C283 1.395 1_554 S
C282 C284 1.320 . S
C283 C281 1.339 . S
C283 C282 1.395 1_556 S
C283 H309 0.929 . S
C284 C282 1.320 . S
C284 C285 1.405 . S
C284 H310 0.930 . S
C285 C280 1.479 1_554 S
C285 C284 1.405 . S
C285 H311 0.931 . S
U286 O287 2.454 1_556 S
U286 O288 2.458 1_556 S
U286 C289 2.984 1_556 S
U286 C290 2.847 . S
U286 C303 2.882 . S
U286 O304 2.446 . S
U286 O305 2.420 . S
U286 O306 2.455 . S
U286 O307 2.449 . S
O287 U286 2.454 1_554 S
O287 C289 1.353 . S
O288 U286 2.458 1_554 S
O288 C289 1.286 . S
C289 U286 2.984 1_554 S
C289 O287 1.353 . S
C289 O288 1.286 . S
C289 C291 1.363 . S
C290 C280 1.465 . S
C290 U286 2.847 . S
C290 O304 1.258 . S
C290 O305 1.202 . S
C291 C289 1.363 . S
C291 C293 1.408 . S
C291 C296 1.342 . S
C292 C293 1.310 . S
C292 C295 1.461 . S
C292 H312 0.932 . S
C293 C291 1.408 . S
C293 C292 1.310 . S
C293 H313 0.930 . S
C294 C295 1.474 . S
C294 C296 1.285 . S
C294 H314 0.929 . S
C295 C292 1.461 . S
C295 C294 1.474 . S
C296 C291 1.342 . S
C296 C294 1.285 . S
C296 H315 0.930 . S
C297 C300 1.424 . S
C297 C302 1.245 . S
C297 C303 1.428 . S
C298 C301 1.260 . S
C298 C302 1.477 . S
C298 H316 0.932 . S
C299 C300 1.384 . S
C299 C301 1.479 . S
C299 H317 0.929 . S
C300 C297 1.424 . S
C300 C299 1.384 . S
C300 H318 0.928 . S
C301 C298 1.260 . S
C301 C299 1.479 . S
C302 C297 1.245 . S
C302 C298 1.477 . S
C302 H319 0.932 . S
C303 U286 2.882 . S
C303 C297 1.428 . S
C303 O306 1.301 . S
C303 O307 1.282 . S
O304 U286 2.446 . S
O304 C290 1.258 . S
O305 U286 2.420 . S
O305 C290 1.202 . S
O306 U286 2.455 . S
O306 C303 1.301 . S
O307 U286 2.449 . S
O307 C303 1.282 . S
H308 C281 0.931 . S
H309 C283 0.929 . S
H310 C284 0.930 . S
H311 C285 0.931 . S
H312 C292 0.932 . S
H313 C293 0.930 . S
H314 C294 0.929 . S
H315 C296 0.930 . S
H316 C298 0.932 . S
H317 C299 0.929 . S
H318 C300 0.928 . S
H319 C302 0.932 . S
C320 C321 1.264 . S
C320 C325 1.479 . S
C320 C330 1.465 . S
C321 C320 1.264 . S
C321 C323 1.339 . S
C321 H348 0.931 . S
C322 C323 1.395 . S
C322 C324 1.320 . S
C323 C321 1.339 . S
C323 C322 1.395 . S
C323 H349 0.929 . S
C324 C322 1.320 . S
C324 C325 1.405 . S
C324 H350 0.930 . S
C325 C320 1.479 . S
C325 C324 1.405 . S
C325 H351 0.931 . S
U326 O327 2.454 . S
U326 O328 2.458 . S
U326 C329 2.984 . S
U326 C330 2.847 . S
U326 C343 2.882 . S
U326 O344 2.441 . S
U326 O345 2.420 . S
U326 O346 2.455 . S
U326 O347 2.449 . S
O327 U326 2.454 . S
O327 C329 1.353 . S
O328 U326 2.458 . S
O328 C329 1.286 . S
C329 U326 2.984 . S
C329 O327 1.353 . S
C329 O328 1.286 . S
C329 C331 1.363 . S
C330 C320 1.465 . S
C330 U326 2.847 . S
C330 O344 1.249 . S
C330 O345 1.202 . S
C331 C329 1.363 . S
C331 C333 1.408 . S
C331 C336 1.342 . S
C332 C333 1.310 . S
C332 C335 1.461 . S
C332 H352 0.932 . S
C333 C331 1.408 . S
C333 C332 1.310 . S
C333 H353 0.930 . S
C334 C335 1.474 . S
C334 C336 1.285 . S
C334 H354 0.929 . S
C335 C332 1.461 . S
C335 C334 1.474 . S
C336 C331 1.342 . S
C336 C334 1.285 . S
C336 H355 0.930 . S
C337 C340 1.424 . S
C337 C342 1.245 . S
C337 C343 1.428 . S
C338 C341 1.260 . S
C338 C342 1.477 . S
C338 H356 0.932 . S
C339 C340 1.384 . S
C339 C341 1.479 . S
C339 H357 0.929 . S
C340 C337 1.424 . S
C340 C339 1.384 . S
C340 H358 0.928 . S
C341 C338 1.260 . S
C341 C339 1.479 . S
C342 C337 1.245 . S
C342 C338 1.477 . S
C342 H359 0.932 . S
C343 U326 2.882 . S
C343 C337 1.428 . S
C343 O346 1.301 . S
C343 O347 1.282 . S
O344 U326 2.441 . S
O344 C330 1.249 . S
O345 U326 2.420 . S
O345 C330 1.202 . S
O346 U326 2.455 . S
O346 C343 1.301 . S
O347 U326 2.449 . S
O347 C343 1.282 . S
H348 C321 0.931 . S
H349 C323 0.929 . S
H350 C324 0.930 . S
H351 C325 0.931 . S
H352 C332 0.932 . S
H353 C333 0.930 . S
H354 C334 0.929 . S
H355 C336 0.930 . S
H356 C338 0.932 . S
H357 C339 0.929 . S
H358 C340 0.928 . S
H359 C342 0.932 . S
C360 C361 1.264 . S
C360 C365 1.479 . S
C360 C370 1.465 . S
C361 C360 1.264 . S
C361 C363 1.339 . S
C361 H388 0.931 . S
C362 C363 1.395 . S
C362 C364 1.320 . S
C363 C361 1.339 . S
C363 C362 1.395 . S
C363 H389 0.929 . S
C364 C362 1.320 . S
C364 C365 1.405 . S
C364 H390 0.930 . S
C365 C360 1.479 . S
C365 C364 1.405 . S
C365 H391 0.931 . S
U366 O367 2.454 . S
U366 O368 2.458 . S
U366 C369 2.984 . S
U366 C370 2.847 . S
U366 C383 2.882 . S
U366 O384 2.441 . S
U366 O385 2.420 . S
U366 O386 2.455 . S
U366 O387 2.449 . S
O367 U366 2.454 . S
O367 C369 1.353 . S
O368 U366 2.458 . S
O368 C369 1.286 . S
C369 U366 2.984 . S
C369 O367 1.353 . S
C369 O368 1.286 . S
C369 C371 1.363 . S
C370 C360 1.465 . S
C370 U366 2.847 . S
C370 O384 1.249 . S
C370 O385 1.202 . S
C371 C369 1.363 . S
C371 C373 1.408 . S
C371 C376 1.342 . S
C372 C373 1.310 . S
C372 C375 1.461 . S
C372 H392 0.932 . S
C373 C371 1.408 . S
C373 C372 1.310 . S
C373 H393 0.930 . S
C374 C375 1.474 . S
C374 C376 1.285 . S
C374 H394 0.929 . S
C375 C372 1.461 . S
C375 C374 1.474 . S
C376 C371 1.342 . S
C376 C374 1.285 . S
C376 H395 0.930 . S
C377 C380 1.424 . S
C377 C382 1.245 1_655 S
C377 C383 1.428 . S
C378 C381 1.260 . S
C378 C382 1.477 . S
C378 H396 0.932 . S
C379 C380 1.384 1_455 S
C379 C381 1.479 . S
C379 H397 0.929 . S
C380 C377 1.424 . S
C380 C379 1.384 1_655 S
C380 H398 0.928 . S
C381 C378 1.260 . S
C381 C379 1.479 . S
C382 C377 1.245 1_455 S
C382 C378 1.477 . S
C382 H399 0.932 . S
C383 U366 2.882 . S
C383 C377 1.428 . S
C383 O386 1.301 . S
C383 O387 1.282 . S
O384 U366 2.441 . S
O384 C370 1.249 . S
O385 U366 2.420 . S
O385 C370 1.202 . S
O386 U366 2.455 . S
O386 C383 1.301 . S
O387 U366 2.449 . S
O387 C383 1.282 . S
H388 C361 0.931 . S
H389 C363 0.929 . S
H390 C364 0.930 . S
H391 C365 0.931 . S
H392 C372 0.932 . S
H393 C373 0.930 . S
H394 C374 0.929 . S
H395 C376 0.930 . S
H396 C378 0.932 . S
H397 C379 0.929 . S
H398 C380 0.928 . S
H399 C382 0.932 . S
C400 C401 1.264 . S
C400 C405 1.479 . S
C400 C410 1.465 . S
C401 C400 1.264 . S
C401 C403 1.339 . S
C401 H428 0.931 . S
C402 C403 1.395 . S
C402 C404 1.320 . S
C403 C401 1.339 . S
C403 C402 1.395 . S
C403 H429 0.929 . S
C404 C402 1.320 . S
C404 C405 1.405 . S
C404 H430 0.930 . S
C405 C400 1.479 . S
C405 C404 1.405 . S
C405 H431 0.931 . S
U406 O407 2.454 . S
U406 O408 2.458 . S
U406 C409 2.984 . S
U406 C410 2.847 . S
U406 C423 2.882 . S
U406 O424 2.441 . S
U406 O425 2.420 . S
U406 O426 2.455 . S
U406 O427 2.449 . S
O407 U406 2.454 . S
O407 C409 1.353 . S
O408 U406 2.458 . S
O408 C409 1.286 . S
C409 U406 2.984 . S
C409 O407 1.353 . S
C409 O408 1.286 . S
C409 C411 1.363 . S
C410 C400 1.465 . S
C410 U406 2.847 . S
C410 O424 1.249 . S
C410 O425 1.202 . S
C411 C409 1.363 . S
C411 C413 1.408 . S
C411 C416 1.342 . S
C412 C413 1.310 . S
C412 C415 1.461 . S
C412 H432 0.932 . S
C413 C411 1.408 . S
C413 C412 1.310 . S
C413 H433 0.930 . S
C414 C415 1.474 . S
C414 C416 1.285 . S
C414 H434 0.929 . S
C415 C412 1.461 . S
C415 C414 1.474 . S
C416 C411 1.342 . S
C416 C414 1.285 . S
C416 H435 0.930 . S
C417 C420 1.424 . S
C417 C422 1.245 . S
C417 C423 1.428 . S
C418 C421 1.260 . S
C418 C422 1.477 . S
C418 H436 0.932 . S
C419 C420 1.384 . S
C419 C421 1.479 . S
C419 H437 0.929 . S
C420 C417 1.424 . S
C420 C419 1.384 . S
C420 H438 0.928 . S
C421 C418 1.260 . S
C421 C419 1.479 . S
C422 C417 1.245 . S
C422 C418 1.477 . S
C422 H439 0.932 . S
C423 U406 2.882 . S
C423 C417 1.428 . S
C423 O426 1.301 . S
C423 O427 1.282 . S
O424 U406 2.441 . S
O424 C410 1.249 . S
O425 U406 2.420 . S
O425 C410 1.202 . S
O426 U406 2.455 . S
O426 C423 1.301 . S
O427 U406 2.449 . S
O427 C423 1.282 . S
H428 C401 0.931 . S
H429 C403 0.929 . S
H430 C404 0.930 . S
H431 C405 0.931 . S
H432 C412 0.932 . S
H433 C413 0.930 . S
H434 C414 0.929 . S
H435 C416 0.930 . S
H436 C418 0.932 . S
H437 C419 0.929 . S
H438 C420 0.928 . S
H439 C422 0.932 . S
C440 C441 1.264 . S
C440 C445 1.479 1_655 S
C440 C450 1.465 . S
C441 C440 1.264 . S
C441 C443 1.339 . S
C441 H468 0.931 . S
C442 C443 1.395 1_455 S
C442 C444 1.320 . S
C443 C441 1.339 . S
C443 C442 1.395 1_655 S
C443 H469 0.929 . S
C444 C442 1.320 . S
C444 C445 1.405 . S
C444 H470 0.930 . S
C445 C440 1.479 1_455 S
C445 C444 1.405 . S
C445 H471 0.931 . S
U446 O447 2.454 1_655 S
U446 O448 2.458 1_655 S
U446 C449 2.984 1_655 S
U446 C450 2.847 . S
U446 C463 2.882 . S
U446 O464 2.446 . S
U446 O465 2.420 . S
U446 O466 2.455 . S
U446 O467 2.449 . S
O447 U446 2.454 1_455 S
O447 C449 1.353 . S
O448 U446 2.458 1_455 S
O448 C449 1.286 . S
C449 U446 2.984 1_455 S
C449 O447 1.353 . S
C449 O448 1.286 . S
C449 C451 1.363 . S
C450 C440 1.465 . S
C450 U446 2.847 . S
C450 O464 1.258 . S
C450 O465 1.202 . S
C451 C449 1.363 . S
C451 C453 1.408 . S
C451 C456 1.342 . S
C452 C453 1.310 . S
C452 C455 1.461 . S
C452 H472 0.932 . S
C453 C451 1.408 . S
C453 C452 1.310 . S
C453 H473 0.930 . S
C454 C455 1.474 . S
C454 C456 1.285 . S
C454 H474 0.929 . S
C455 C452 1.461 . S
C455 C454 1.474 . S
C456 C451 1.342 . S
C456 C454 1.285 . S
C456 H475 0.930 . S
C457 C460 1.424 . S
C457 C462 1.245 . S
C457 C463 1.428 . S
C458 C461 1.260 . S
C458 C462 1.477 . S
C458 H476 0.932 . S
C459 C460 1.384 . S
C459 C461 1.479 . S
C459 H477 0.929 . S
C460 C457 1.424 . S
C460 C459 1.384 . S
C460 H478 0.928 . S
C461 C458 1.260 . S
C461 C459 1.479 . S
C462 C457 1.245 . S
C462 C458 1.477 . S
C462 H479 0.932 . S
C463 U446 2.882 . S
C463 C457 1.428 . S
C463 O466 1.301 . S
C463 O467 1.282 . S
O464 U446 2.446 . S
O464 C450 1.258 . S
O465 U446 2.420 . S
O465 C450 1.202 . S
O466 U446 2.455 . S
O466 C463 1.301 . S
O467 U446 2.449 . S
O467 C463 1.282 . S
H468 C441 0.931 . S
H469 C443 0.929 . S
H470 C444 0.930 . S
H471 C445 0.931 . S
H472 C452 0.932 . S
H473 C453 0.930 . S
H474 C454 0.929 . S
H475 C456 0.930 . S
H476 C458 0.932 . S
H477 C459 0.929 . S
H478 C460 0.928 . S
H479 C462 0.932 . S
C480 C481 1.264 . S
C480 C485 1.479 . S
C480 C490 1.465 . S
C481 C480 1.264 . S
C481 C483 1.339 . S
C481 H508 0.931 . S
C482 C483 1.395 . S
C482 C484 1.320 . S
C483 C481 1.339 . S
C483 C482 1.395 . S
C483 H509 0.929 . S
C484 C482 1.320 . S
C484 C485 1.405 . S
C484 H510 0.930 . S
C485 C480 1.479 . S
C485 C484 1.405 . S
C485 H511 0.931 . S
U486 O487 2.454 . S
U486 O488 2.458 . S
U486 C489 2.984 . S
U486 C490 2.847 . S
U486 C503 2.882 . S
U486 O504 2.441 . S
U486 O505 2.420 . S
U486 O506 2.455 . S
U486 O507 2.449 . S
O487 U486 2.454 . S
O487 C489 1.353 . S
O488 U486 2.458 . S
O488 C489 1.286 . S
C489 U486 2.984 . S
C489 O487 1.353 . S
C489 O488 1.286 . S
C489 C491 1.363 . S
C490 C480 1.465 . S
C490 U486 2.847 . S
C490 O504 1.249 . S
C490 O505 1.202 . S
C491 C489 1.363 . S
C491 C493 1.408 . S
C491 C496 1.342 . S
C492 C493 1.310 . S
C492 C495 1.461 . S
C492 H512 0.932 . S
C493 C491 1.408 . S
C493 C492 1.310 . S
C493 H513 0.930 . S
C494 C495 1.474 . S
C494 C496 1.285 . S
C494 H514 0.929 . S
C495 C492 1.461 . S
C495 C494 1.474 . S
C496 C491 1.342 . S
C496 C494 1.285 . S
C496 H515 0.930 . S
C497 C500 1.424 . S
C497 C502 1.245 . S
C497 C503 1.428 . S
C498 C501 1.260 . S
C498 C502 1.477 . S
C498 H516 0.932 . S
C499 C500 1.384 . S
C499 C501 1.479 . S
C499 H517 0.929 . S
C500 C497 1.424 . S
C500 C499 1.384 . S
C500 H518 0.928 . S
C501 C498 1.260 . S
C501 C499 1.479 . S
C502 C497 1.245 . S
C502 C498 1.477 . S
C502 H519 0.932 . S
C503 U486 2.882 . S
C503 C497 1.428 . S
C503 O506 1.301 . S
C503 O507 1.282 . S
O504 U486 2.441 . S
O504 C490 1.249 . S
O505 U486 2.420 . S
O505 C490 1.202 . S
O506 U486 2.455 . S
O506 C503 1.301 . S
O507 U486 2.449 . S
O507 C503 1.282 . S
H508 C481 0.931 . S
H509 C483 0.929 . S
H510 C484 0.930 . S
H511 C485 0.931 . S
H512 C492 0.932 . S
H513 C493 0.930 . S
H514 C494 0.929 . S
H515 C496 0.930 . S
H516 C498 0.932 . S
H517 C499 0.929 . S
H518 C500 0.928 . S
H519 C502 0.932 . S
C520 C521 1.264 . S
C520 C525 1.479 . S
C520 C530 1.465 . S
C521 C520 1.264 . S
C521 C523 1.339 . S
C521 H548 0.931 . S
C522 C523 1.395 . S
C522 C524 1.320 . S
C523 C521 1.339 . S
C523 C522 1.395 . S
C523 H549 0.929 . S
C524 C522 1.320 . S
C524 C525 1.405 . S
C524 H550 0.930 . S
C525 C520 1.479 . S
C525 C524 1.405 . S
C525 H551 0.931 . S
U526 O527 2.454 . S
U526 O528 2.458 . S
U526 C529 2.984 . S
U526 C530 2.847 . S
U526 C543 2.882 . S
U526 O544 2.441 . S
U526 O545 2.420 . S
U526 O546 2.455 . S
U526 O547 2.449 . S
O527 U526 2.454 . S
O527 C529 1.353 . S
O528 U526 2.458 . S
O528 C529 1.286 . S
C529 U526 2.984 . S
C529 O527 1.353 . S
C529 O528 1.286 . S
C529 C531 1.363 . S
C530 C520 1.465 . S
C530 U526 2.847 . S
C530 O544 1.249 . S
C530 O545 1.202 . S
C531 C529 1.363 . S
C531 C533 1.408 . S
C531 C536 1.342 . S
C532 C533 1.310 . S
C532 C535 1.461 . S
C532 H552 0.932 . S
C533 C531 1.408 . S
C533 C532 1.310 . S
C533 H553 0.930 . S
C534 C535 1.474 . S
C534 C536 1.285 . S
C534 H554 0.929 . S
C535 C532 1.461 . S
C535 C534 1.474 . S
C536 C531 1.342 . S
C536 C534 1.285 . S
C536 H555 0.930 . S
C537 C540 1.424 . S
C537 C542 1.245 . S
C537 C543 1.428 . S
C538 C541 1.260 . S
C538 C542 1.477 . S
C538 H556 0.932 . S
C539 C540 1.384 . S
C539 C541 1.479 . S
C539 H557 0.929 . S
C540 C537 1.424 . S
C540 C539 1.384 . S
C540 H558 0.928 . S
C541 C538 1.260 . S
C541 C539 1.479 . S
C542 C537 1.245 . S
C542 C538 1.477 . S
C542 H559 0.932 . S
C543 U526 2.882 . S
C543 C537 1.428 . S
C543 O546 1.301 . S
C543 O547 1.282 . S
O544 U526 2.441 . S
O544 C530 1.249 . S
O545 U526 2.420 . S
O545 C530 1.202 . S
O546 U526 2.455 . S
O546 C543 1.301 . S
O547 U526 2.449 . S
O547 C543 1.282 . S
H548 C521 0.931 . S
H549 C523 0.929 . S
H550 C524 0.930 . S
H551 C525 0.931 . S
H552 C532 0.932 . S
H553 C533 0.930 . S
H554 C534 0.929 . S
H555 C536 0.930 . S
H556 C538 0.932 . S
H557 C539 0.929 . S
H558 C540 0.928 . S
H559 C542 0.932 . S
C560 C561 1.264 . S
C560 C565 1.479 . S
C560 C570 1.465 . S
C561 C560 1.264 . S
C561 C563 1.339 . S
C561 H588 0.931 . S
C562 C563 1.395 . S
C562 C564 1.320 . S
C563 C561 1.339 . S
C563 C562 1.395 . S
C563 H589 0.929 1_565 S
C564 C562 1.320 . S
C564 C565 1.405 . S
C564 H590 0.930 . S
C565 C560 1.479 . S
C565 C564 1.405 . S
C565 H591 0.931 . S
U566 O567 2.454 . S
U566 O568 2.458 . S
U566 C569 2.984 . S
U566 C570 2.847 . S
U566 C583 2.882 1_565 S
U566 O584 2.441 . S
U566 O585 2.420 . S
U566 O586 2.455 . S
U566 O587 2.449 . S
O567 U566 2.454 . S
O567 C569 1.353 . S
O568 U566 2.458 . S
O568 C569 1.286 . S
C569 U566 2.984 . S
C569 O567 1.353 . S
C569 O568 1.286 . S
C569 C571 1.363 . S
C570 C560 1.465 . S
C570 U566 2.847 . S
C570 O584 1.249 . S
C570 O585 1.202 . S
C571 C569 1.363 . S
C571 C573 1.408 . S
C571 C576 1.342 . S
C572 C573 1.310 . S
C572 C575 1.461 . S
C572 H592 0.932 . S
C573 C571 1.408 . S
C573 C572 1.310 . S
C573 H593 0.930 . S
C574 C575 1.474 . S
C574 C576 1.285 . S
C574 H594 0.929 . S
C575 C572 1.461 . S
C575 C574 1.474 . S
C576 C571 1.342 . S
C576 C574 1.285 . S
C576 H595 0.930 . S
C577 C580 1.424 . S
C577 C582 1.245 . S
C577 C583 1.428 . S
C578 C581 1.260 . S
C578 C582 1.477 . S
C578 H596 0.932 . S
C579 C580 1.384 . S
C579 C581 1.479 . S
C579 H597 0.929 . S
C580 C577 1.424 . S
C580 C579 1.384 . S
C580 H598 0.928 . S
C581 C578 1.260 . S
C581 C579 1.479 . S
C582 C577 1.245 . S
C582 C578 1.477 . S
C582 H599 0.932 . S
C583 U566 2.882 1_545 S
C583 C577 1.428 . S
C583 O586 1.301 1_545 S
C583 O587 1.282 1_545 S
O584 U566 2.441 . S
O584 C570 1.249 . S
O585 U566 2.420 . S
O585 C570 1.202 . S
O586 U566 2.455 . S
O586 C583 1.301 1_565 S
O587 U566 2.449 . S
O587 C583 1.282 1_565 S
H588 C561 0.931 . S
H589 C563 0.929 1_545 S
H590 C564 0.930 . S
H591 C565 0.931 . S
H592 C572 0.932 . S
H593 C573 0.930 . S
H594 C574 0.929 . S
H595 C576 0.930 . S
H596 C578 0.932 . S
H597 C579 0.929 . S
H598 C580 0.928 . S
H599 C582 0.932 . S
C600 C601 1.264 . S
C600 C605 1.479 . S
C600 C610 1.465 . S
C601 C600 1.264 . S
C601 C603 1.339 . S
C601 H628 0.931 . S
C602 C603 1.395 . S
C602 C604 1.320 . S
C603 C601 1.339 . S
C603 C602 1.395 . S
C603 H629 0.929 . S
C604 C602 1.320 . S
C604 C605 1.405 . S
C604 H630 0.930 . S
C605 C600 1.479 . S
C605 C604 1.405 . S
C605 H631 0.931 . S
U606 O607 2.454 . S
U606 O608 2.458 . S
U606 C609 2.984 . S
U606 C610 2.847 . S
U606 C623 2.882 . S
U606 O624 2.441 . S
U606 O625 2.420 . S
U606 O626 2.455 . S
U606 O627 2.449 . S
O607 U606 2.454 . S
O607 C609 1.353 . S
O608 U606 2.458 . S
O608 C609 1.286 . S
C609 U606 2.984 . S
C609 O607 1.353 . S
C609 O608 1.286 . S
C609 C611 1.363 . S
C610 C600 1.465 . S
C610 U606 2.847 . S
C610 O624 1.249 . S
C610 O625 1.202 . S
C611 C609 1.363 . S
C611 C613 1.408 . S
C611 C616 1.342 . S
C612 C613 1.310 . S
C612 C615 1.461 . S
C612 H632 0.932 . S
C613 C611 1.408 . S
C613 C612 1.310 . S
C613 H633 0.930 . S
C614 C615 1.474 . S
C614 C616 1.285 . S
C614 H634 0.929 . S
C615 C612 1.461 . S
C615 C614 1.474 . S
C616 C611 1.342 . S
C616 C614 1.285 . S
C616 H635 0.930 . S
C617 C620 1.424 . S
C617 C622 1.245 . S
C617 C623 1.428 . S
C618 C621 1.260 1_545 S
C618 C622 1.477 . S
C618 H636 0.932 1_545 S
C619 C620 1.384 . S
C619 C621 1.479 1_545 S
C619 H637 0.929 . S
C620 C617 1.424 . S
C620 C619 1.384 . S
C620 H638 0.928 . S
C621 C618 1.260 1_565 S
C621 C619 1.479 1_565 S
C622 C617 1.245 . S
C622 C618 1.477 . S
C622 H639 0.932 . S
C623 U606 2.882 . S
C623 C617 1.428 . S
C623 O626 1.301 . S
C623 O627 1.282 . S
O624 U606 2.441 . S
O624 C610 1.249 . S
O625 U606 2.420 . S
O625 C610 1.202 . S
O626 U606 2.455 . S
O626 C623 1.301 . S
O627 U606 2.449 . S
O627 C623 1.282 . S
H628 C601 0.931 . S
H629 C603 0.929 . S
H630 C604 0.930 . S
H631 C605 0.931 . S
H632 C612 0.932 . S
H633 C613 0.930 . S
H634 C614 0.929 . S
H635 C616 0.930 . S
H636 C618 0.932 1_565 S
H637 C619 0.929 . S
H638 C620 0.928 . S
H639 C622 0.932 . S
C640 C641 1.264 . S
C640 C645 1.479 . S
C640 C650 1.465 . S
C641 C640 1.264 . S
C641 C643 1.339 . S
C641 H668 0.931 . S
C642 C643 1.395 . S
C642 C644 1.320 . S
C643 C641 1.339 . S
C643 C642 1.395 . S
C643 H669 0.929 . S
C644 C642 1.320 . S
C644 C645 1.405 . S
C644 H670 0.930 . S
C645 C640 1.479 . S
C645 C644 1.405 . S
C645 H671 0.931 . S
U646 O647 2.454 . S
U646 O648 2.458 . S
U646 C649 2.984 . S
U646 C650 2.847 . S
U646 C663 2.882 . S
U646 O664 2.441 . S
U646 O665 2.420 . S
U646 O666 2.455 . S
U646 O667 2.449 . S
O647 U646 2.454 . S
O647 C649 1.353 . S
O648 U646 2.458 . S
O648 C649 1.286 . S
C649 U646 2.984 . S
C649 O647 1.353 . S
C649 O648 1.286 . S
C649 C651 1.363 . S
C650 C640 1.465 . S
C650 U646 2.847 . S
C650 O664 1.249 . S
C650 O665 1.202 . S
C651 C649 1.363 . S
C651 C653 1.408 . S
C651 C656 1.342 . S
C652 C653 1.310 . S
C652 C655 1.461 . S
C652 H672 0.932 . S
C653 C651 1.408 . S
C653 C652 1.310 . S
C653 H673 0.930 . S
C654 C655 1.474 . S
C654 C656 1.285 . S
C654 H674 0.929 . S
C655 C652 1.461 . S
C655 C654 1.474 . S
C656 C651 1.342 . S
C656 C654 1.285 . S
C656 H675 0.930 . S
C657 C660 1.424 . S
C657 C662 1.245 . S
C657 C663 1.428 . S
C658 C661 1.260 . S
C658 C662 1.477 . S
C658 H676 0.932 . S
C659 C660 1.384 . S
C659 C661 1.479 . S
C659 H677 0.929 . S
C660 C657 1.424 . S
C660 C659 1.384 . S
C660 H678 0.928 . S
C661 C658 1.260 . S
C661 C659 1.479 . S
C662 C657 1.245 . S
C662 C658 1.477 . S
C662 H679 0.932 . S
C663 U646 2.882 . S
C663 C657 1.428 . S
C663 O666 1.301 . S
C663 O667 1.282 . S
O664 U646 2.441 . S
O664 C650 1.249 . S
O665 U646 2.420 . S
O665 C650 1.202 . S
O666 U646 2.455 . S
O666 C663 1.301 . S
O667 U646 2.449 . S
O667 C663 1.282 . S
H668 C641 0.931 . S
H669 C643 0.929 . S
H670 C644 0.930 . S
H671 C645 0.931 . S
H672 C652 0.932 . S
H673 C653 0.930 . S
H674 C654 0.929 . S
H675 C656 0.930 . S
H676 C658 0.932 . S
H677 C659 0.929 . S
H678 C660 0.928 . S
H679 C662 0.932 . S
C680 C681 1.264 . S
C680 C685 1.479 . S
C680 C690 1.465 . S
C681 C680 1.264 . S
C681 C683 1.339 . S
C681 H708 0.931 . S
C682 C683 1.395 . S
C682 C684 1.320 . S
C683 C681 1.339 . S
C683 C682 1.395 . S
C683 H709 0.929 . S
C684 C682 1.320 . S
C684 C685 1.405 . S
C684 H710 0.930 . S
C685 C680 1.479 . S
C685 C684 1.405 . S
C685 H711 0.931 . S
U686 O687 2.454 . S
U686 O688 2.458 . S
U686 C689 2.984 . S
U686 C690 2.847 . S
U686 C703 2.882 . S
U686 O704 2.441 . S
U686 O705 2.420 . S
U686 O706 2.455 . S
U686 O707 2.449 . S
O687 U686 2.454 . S
O687 C689 1.353 . S
O688 U686 2.458 . S
O688 C689 1.286 . S
C689 U686 2.984 . S
C689 O687 1.353 . S
C689 O688 1.286 . S
C689 C691 1.363 . S
C690 C680 1.465 . S
C690 U686 2.847 . S
C690 O704 1.249 . S
C690 O705 1.202 . S
C691 C689 1.363 . S
C691 C693 1.408 . S
C691 C696 1.342 . S
C692 C693 1.310 . S
C692 C695 1.461 . S
C692 H712 0.932 . S
C693 C691 1.408 . S
C693 C692 1.310 . S
C693 H713 0.930 . S
C694 C695 1.474 . S
C694 C696 1.285 . S
C694 H714 0.929 . S
C695 C692 1.461 . S
C695 C694 1.474 . S
C696 C691 1.342 . S
C696 C694 1.285 . S
C696 H715 0.930 . S
C697 C700 1.424 . S
C697 C702 1.245 . S
C697 C703 1.428 . S
C698 C701 1.260 1_554 S
C698 C702 1.477 . S
C698 H716 0.932 1_554 S
C699 C700 1.384 . S
C699 C701 1.479 1_554 S
C699 H717 0.929 . S
C700 C697 1.424 . S
C700 C699 1.384 . S
C700 H718 0.928 . S
C701 C698 1.260 1_556 S
C701 C699 1.479 1_556 S
C702 C697 1.245 . S
C702 C698 1.477 . S
C702 H719 0.932 . S
C703 U686 2.882 . S
C703 C697 1.428 . S
C703 O706 1.301 . S
C703 O707 1.282 . S
O704 U686 2.441 . S
O704 C690 1.249 . S
O705 U686 2.420 . S
O705 C690 1.202 . S
O706 U686 2.455 . S
O706 C703 1.301 . S
O707 U686 2.449 . S
O707 C703 1.282 . S
H708 C681 0.931 . S
H709 C683 0.929 . S
H710 C684 0.930 . S
H711 C685 0.931 . S
H712 C692 0.932 . S
H713 C693 0.930 . S
H714 C694 0.929 . S
H715 C696 0.930 . S
H716 C698 0.932 1_556 S
H717 C699 0.929 . S
H718 C700 0.928 . S
H719 C702 0.932 . S
C720 C721 1.264 . S
C720 C725 1.479 . S
C720 C730 1.465 . S
C721 C720 1.264 . S
C721 C723 1.339 . S
C721 H748 0.931 . S
C722 C723 1.395 . S
C722 C724 1.320 . S
C723 C721 1.339 . S
C723 C722 1.395 . S
C723 H749 0.929 . S
C724 C722 1.320 . S
C724 C725 1.405 . S
C724 H750 0.930 . S
C725 C720 1.479 . S
C725 C724 1.405 . S
C725 H751 0.931 . S
U726 O727 2.454 . S
U726 O728 2.458 . S
U726 C729 2.984 . S
U726 C730 2.847 . S
U726 C743 2.882 . S
U726 O744 2.441 . S
U726 O745 2.420 . S
U726 O746 2.455 . S
U726 O747 2.449 . S
O727 U726 2.454 . S
O727 C729 1.353 . S
O728 U726 2.458 . S
O728 C729 1.286 . S
C729 U726 2.984 . S
C729 O727 1.353 . S
C729 O728 1.286 . S
C729 C731 1.363 . S
C730 C720 1.465 . S
C730 U726 2.847 . S
C730 O744 1.249 . S
C730 O745 1.202 . S
C731 C729 1.363 . S
C731 C733 1.408 . S
C731 C736 1.342 . S
C732 C733 1.310 . S
C732 C735 1.461 . S
C732 H752 0.932 . S
C733 C731 1.408 . S
C733 C732 1.310 . S
C733 H753 0.930 . S
C734 C735 1.474 . S
C734 C736 1.285 . S
C734 H754 0.929 . S
C735 C732 1.461 . S
C735 C734 1.474 . S
C736 C731 1.342 . S
C736 C734 1.285 . S
C736 H755 0.930 . S
C737 C740 1.424 . S
C737 C742 1.245 . S
C737 C743 1.428 . S
C738 C741 1.260 . S
C738 C742 1.477 . S
C738 H756 0.932 . S
C739 C740 1.384 . S
C739 C741 1.479 . S
C739 H757 0.929 . S
C740 C737 1.424 . S
C740 C739 1.384 . S
C740 H758 0.928 . S
C741 C738 1.260 . S
C741 C739 1.479 . S
C742 C737 1.245 . S
C742 C738 1.477 . S
C742 H759 0.932 . S
C743 U726 2.882 . S
C743 C737 1.428 . S
C743 O746 1.301 . S
C743 O747 1.282 . S
O744 U726 2.441 . S
O744 C730 1.249 . S
O745 U726 2.420 . S
O745 C730 1.202 . S
O746 U726 2.455 . S
O746 C743 1.301 . S
O747 U726 2.449 . S
O747 C743 1.282 . S
H748 C721 0.931 . S
H749 C723 0.929 . S
H750 C724 0.930 . S
H751 C725 0.931 . S
H752 C732 0.932 . S
H753 C733 0.930 . S
H754 C734 0.929 . S
H755 C736 0.930 . S
H756 C738 0.932 . S
H757 C739 0.929 . S
H758 C740 0.928 . S
H759 C742 0.932 . S
C760 C761 1.264 . S
C760 C765 1.479 . S
C760 C770 1.465 . S
C761 C760 1.264 . S
C761 C763 1.339 . S
C761 H788 0.931 . S
C762 C763 1.395 . S
C762 C764 1.320 . S
C763 C761 1.339 . S
C763 C762 1.395 . S
C763 H789 0.929 1_556 S
C764 C762 1.320 . S
C764 C765 1.405 . S
C764 H790 0.930 . S
C765 C760 1.479 . S
C765 C764 1.405 . S
C765 H791 0.931 . S
U766 O767 2.454 . S
U766 O768 2.458 . S
U766 C769 2.984 . S
U766 C770 2.847 . S
U766 C783 2.882 1_556 S
U766 O784 2.441 . S
U766 O785 2.420 . S
U766 O786 2.455 . S
U766 O787 2.449 . S
O767 U766 2.454 . S
O767 C769 1.353 . S
O768 U766 2.458 . S
O768 C769 1.286 . S
C769 U766 2.984 . S
C769 O767 1.353 . S
C769 O768 1.286 . S
C769 C771 1.363 . S
C770 C760 1.465 . S
C770 U766 2.847 . S
C770 O784 1.249 . S
C770 O785 1.202 . S
C771 C769 1.363 . S
C771 C773 1.408 . S
C771 C776 1.342 . S
C772 C773 1.310 . S
C772 C775 1.461 . S
C772 H792 0.932 . S
C773 C771 1.408 . S
C773 C772 1.310 . S
C773 H793 0.930 . S
C774 C775 1.474 . S
C774 C776 1.285 . S
C774 H794 0.929 . S
C775 C772 1.461 . S
C775 C774 1.474 . S
C776 C771 1.342 . S
C776 C774 1.285 . S
C776 H795 0.930 . S
C777 C780 1.424 . S
C777 C782 1.245 . S
C777 C783 1.428 . S
C778 C781 1.260 . S
C778 C782 1.477 . S
C778 H796 0.932 . S
C779 C780 1.384 . S
C779 C781 1.479 . S
C779 H797 0.929 . S
C780 C777 1.424 . S
C780 C779 1.384 . S
C780 H798 0.928 . S
C781 C778 1.260 . S
C781 C779 1.479 . S
C782 C777 1.245 . S
C782 C778 1.477 . S
C782 H799 0.932 . S
C783 U766 2.882 1_554 S
C783 C777 1.428 . S
C783 O786 1.301 1_554 S
C783 O787 1.282 1_554 S
O784 U766 2.441 . S
O784 C770 1.249 . S
O785 U766 2.420 . S
O785 C770 1.202 . S
O786 U766 2.455 . S
O786 C783 1.301 1_556 S
O787 U766 2.449 . S
O787 C783 1.282 1_556 S
H788 C761 0.931 . S
H789 C763 0.929 1_554 S
H790 C764 0.930 . S
H791 C765 0.931 . S
H792 C772 0.932 . S
H793 C773 0.930 . S
H794 C774 0.929 . S
H795 C776 0.930 . S
H796 C778 0.932 . S
H797 C779 0.929 . S
H798 C780 0.928 . S
H799 C782 0.932 . S
C800 C801 1.264 . S
C800 C805 1.479 . S
C800 C810 1.465 . S
C801 C800 1.264 . S
C801 C803 1.339 . S
C801 H828 0.931 . S
C802 C803 1.395 . S
C802 C804 1.320 . S
C803 C801 1.339 . S
C803 C802 1.395 . S
C803 H829 0.929 . S
C804 C802 1.320 . S
C804 C805 1.405 . S
C804 H830 0.930 . S
C805 C800 1.479 . S
C805 C804 1.405 . S
C805 H831 0.931 . S
U806 O807 2.454 . S
U806 O808 2.458 . S
U806 C809 2.984 . S
U806 C810 2.847 . S
U806 C823 2.882 . S
U806 O824 2.441 . S
U806 O825 2.420 . S
U806 O826 2.455 . S
U806 O827 2.449 . S
O807 U806 2.454 . S
O807 C809 1.353 . S
O808 U806 2.458 . S
O808 C809 1.286 . S
C809 U806 2.984 . S
C809 O807 1.353 . S
C809 O808 1.286 . S
C809 C811 1.363 . S
C810 C800 1.465 . S
C810 U806 2.847 . S
C810 O824 1.249 . S
C810 O825 1.202 . S
C811 C809 1.363 . S
C811 C813 1.408 . S
C811 C816 1.342 . S
C812 C813 1.310 . S
C812 C815 1.461 . S
C812 H832 0.932 . S
C813 C811 1.408 . S
C813 C812 1.310 . S
C813 H833 0.930 . S
C814 C815 1.474 . S
C814 C816 1.285 . S
C814 H834 0.929 . S
C815 C812 1.461 . S
C815 C814 1.474 . S
C816 C811 1.342 . S
C816 C814 1.285 . S
C816 H835 0.930 . S
C817 C820 1.424 . S
C817 C822 1.245 . S
C817 C823 1.428 . S
C818 C821 1.260 . S
C818 C822 1.477 . S
C818 H836 0.932 . S
C819 C820 1.384 . S
C819 C821 1.479 . S
C819 H837 0.929 . S
C820 C817 1.424 . S
C820 C819 1.384 . S
C820 H838 0.928 . S
C821 C818 1.260 . S
C821 C819 1.479 . S
C822 C817 1.245 . S
C822 C818 1.477 . S
C822 H839 0.932 . S
C823 U806 2.882 . S
C823 C817 1.428 . S
C823 O826 1.301 . S
C823 O827 1.282 . S
O824 U806 2.441 . S
O824 C810 1.249 . S
O825 U806 2.420 . S
O825 C810 1.202 . S
O826 U806 2.455 . S
O826 C823 1.301 . S
O827 U806 2.449 . S
O827 C823 1.282 . S
H828 C801 0.931 . S
H829 C803 0.929 . S
H830 C804 0.930 . S
H831 C805 0.931 . S
H832 C812 0.932 . S
H833 C813 0.930 . S
H834 C814 0.929 . S
H835 C816 0.930 . S
H836 C818 0.932 . S
H837 C819 0.929 . S
H838 C820 0.928 . S
H839 C822 0.932 . S
C840 C841 1.264 . S
C840 C845 1.479 . S
C840 C850 1.465 . S
C841 C840 1.264 . S
C841 C843 1.339 . S
C841 H868 0.931 . S
C842 C843 1.395 . S
C842 C844 1.320 . S
C843 C841 1.339 . S
C843 C842 1.395 . S
C843 H869 0.929 . S
C844 C842 1.320 . S
C844 C845 1.405 . S
C844 H870 0.930 . S
C845 C840 1.479 . S
C845 C844 1.405 . S
C845 H871 0.931 . S
U846 O847 2.454 . S
U846 O848 2.458 . S
U846 C849 2.984 . S
U846 C850 2.847 . S
U846 C863 2.882 . S
U846 O864 2.441 . S
U846 O865 2.420 . S
U846 O866 2.455 . S
U846 O867 2.449 . S
O847 U846 2.454 . S
O847 C849 1.353 . S
O848 U846 2.458 . S
O848 C849 1.286 . S
C849 U846 2.984 . S
C849 O847 1.353 . S
C849 O848 1.286 . S
C849 C851 1.363 . S
C850 C840 1.465 . S
C850 U846 2.847 . S
C850 O864 1.249 . S
C850 O865 1.202 . S
C851 C849 1.363 . S
C851 C853 1.408 . S
C851 C856 1.342 . S
C852 C853 1.310 . S
C852 C855 1.461 . S
C852 H872 0.932 . S
C853 C851 1.408 . S
C853 C852 1.310 . S
C853 H873 0.930 . S
C854 C855 1.474 . S
C854 C856 1.285 . S
C854 H874 0.929 . S
C855 C852 1.461 . S
C855 C854 1.474 . S
C856 C851 1.342 . S
C856 C854 1.285 . S
C856 H875 0.930 . S
C857 C860 1.424 . S
C857 C862 1.245 . S
C857 C863 1.428 . S
C858 C861 1.260 1_455 S
C858 C862 1.477 . S
C858 H876 0.932 1_455 S
C859 C860 1.384 . S
C859 C861 1.479 1_455 S
C859 H877 0.929 . S
C860 C857 1.424 . S
C860 C859 1.384 . S
C860 H878 0.928 . S
C861 C858 1.260 1_655 S
C861 C859 1.479 1_655 S
C862 C857 1.245 . S
C862 C858 1.477 . S
C862 H879 0.932 . S
C863 U846 2.882 . S
C863 C857 1.428 . S
C863 O866 1.301 . S
C863 O867 1.282 . S
O864 U846 2.441 . S
O864 C850 1.249 . S
O865 U846 2.420 . S
O865 C850 1.202 . S
O866 U846 2.455 . S
O866 C863 1.301 . S
O867 U846 2.449 . S
O867 C863 1.282 . S
H868 C841 0.931 . S
H869 C843 0.929 . S
H870 C844 0.930 . S
H871 C845 0.931 . S
H872 C852 0.932 . S
H873 C853 0.930 . S
H874 C854 0.929 . S
H875 C856 0.930 . S
H876 C858 0.932 1_655 S
H877 C859 0.929 . S
H878 C860 0.928 . S
H879 C862 0.932 . S
C880 C881 1.264 . S
C880 C885 1.479 . S
C880 C890 1.465 . S
C881 C880 1.264 . S
C881 C883 1.339 . S
C881 H908 0.931 . S
C882 C883 1.395 . S
C882 C884 1.320 . S
C883 C881 1.339 . S
C883 C882 1.395 . S
C883 H909 0.929 . S
C884 C882 1.320 . S
C884 C885 1.405 . S
C884 H910 0.930 . S
C885 C880 1.479 . S
C885 C884 1.405 . S
C885 H911 0.931 . S
U886 O887 2.454 . S
U886 O888 2.458 . S
U886 C889 2.984 . S
U886 C890 2.847 . S
U886 C903 2.882 . S
U886 O904 2.441 . S
U886 O905 2.420 . S
U886 O906 2.455 . S
U886 O907 2.449 . S
O887 U886 2.454 . S
O887 C889 1.353 . S
O888 U886 2.458 . S
O888 C889 1.286 . S
C889 U886 2.984 . S
C889 O887 1.353 . S
C889 O888 1.286 . S
C889 C891 1.363 . S
C890 C880 1.465 . S
C890 U886 2.847 . S
C890 O904 1.249 . S
C890 O905 1.202 . S
C891 C889 1.363 . S
C891 C893 1.408 . S
C891 C896 1.342 . S
C892 C893 1.310 . S
C892 C895 1.461 . S
C892 H912 0.932 . S
C893 C891 1.408 . S
C893 C892 1.310 . S
C893 H913 0.930 . S
C894 C895 1.474 . S
C894 C896 1.285 . S
C894 H914 0.929 . S
C895 C892 1.461 . S
C895 C894 1.474 . S
C896 C891 1.342 . S
C896 C894 1.285 . S
C896 H915 0.930 . S
C897 C900 1.424 . S
C897 C902 1.245 . S
C897 C903 1.428 . S
C898 C901 1.260 . S
C898 C902 1.477 . S
C898 H916 0.932 . S
C899 C900 1.384 . S
C899 C901 1.479 . S
C899 H917 0.929 . S
C900 C897 1.424 . S
C900 C899 1.384 . S
C900 H918 0.928 . S
C901 C898 1.260 . S
C901 C899 1.479 . S
C902 C897 1.245 . S
C902 C898 1.477 . S
C902 H919 0.932 . S
C903 U886 2.882 . S
C903 C897 1.428 . S
C903 O906 1.301 . S
C903 O907 1.282 . S
O904 U886 2.441 . S
O904 C890 1.249 . S
O905 U886 2.420 . S
O905 C890 1.202 . S
O906 U886 2.455 . S
O906 C903 1.301 . S
O907 U886 2.449 . S
O907 C903 1.282 . S
H908 C881 0.931 . S
H909 C883 0.929 . S
H910 C884 0.930 . S
H911 C885 0.931 . S
H912 C892 0.932 . S
H913 C893 0.930 . S
H914 C894 0.929 . S
H915 C896 0.930 . S
H916 C898 0.932 . S
H917 C899 0.929 . S
H918 C900 0.928 . S
H919 C902 0.932 . S
C920 C921 1.264 . S
C920 C925 1.479 . S
C920 C930 1.465 . S
C921 C920 1.264 . S
C921 C923 1.339 . S
C921 H948 0.931 . S
C922 C923 1.395 . S
C922 C924 1.320 . S
C923 C921 1.339 . S
C923 C922 1.395 . S
C923 H949 0.929 1_655 S
C924 C922 1.320 . S
C924 C925 1.405 . S
C924 H950 0.930 . S
C925 C920 1.479 . S
C925 C924 1.405 . S
C925 H951 0.931 . S
U926 O927 2.454 . S
U926 O928 2.458 . S
U926 C929 2.984 . S
U926 C930 2.847 . S
U926 C943 2.882 1_655 S
U926 O944 2.441 . S
U926 O945 2.420 . S
U926 O946 2.455 . S
U926 O947 2.449 . S
O927 U926 2.454 . S
O927 C929 1.353 . S
O928 U926 2.458 . S
O928 C929 1.286 . S
C929 U926 2.984 . S
C929 O927 1.353 . S
C929 O928 1.286 . S
C929 C931 1.363 . S
C930 C920 1.465 . S
C930 U926 2.847 . S
C930 O944 1.249 . S
C930 O945 1.202 . S
C931 C929 1.363 . S
C931 C933 1.408 . S
C931 C936 1.342 . S
C932 C933 1.310 . S
C932 C935 1.461 . S
C932 H952 0.932 . S
C933 C931 1.408 . S
C933 C932 1.310 . S
C933 H953 0.930 . S
C934 C935 1.474 . S
C934 C936 1.285 . S
C934 H954 0.929 . S
C935 C932 1.461 . S
C935 C934 1.474 . S
C936 C931 1.342 . S
C936 C934 1.285 . S
C936 H955 0.930 . S
C937 C940 1.424 . S
C937 C942 1.245 . S
C937 C943 1.428 . S
C938 C941 1.260 . S
C938 C942 1.477 . S
C938 H956 0.932 . S
C939 C940 1.384 . S
C939 C941 1.479 . S
C939 H957 0.929 . S
C940 C937 1.424 . S
C940 C939 1.384 . S
C940 H958 0.928 . S
C941 C938 1.260 . S
C941 C939 1.479 . S
C942 C937 1.245 . S
C942 C938 1.477 . S
C942 H959 0.932 . S
C943 U926 2.882 1_455 S
C943 C937 1.428 . S
C943 O946 1.301 1_455 S
C943 O947 1.282 1_455 S
O944 U926 2.441 . S
O944 C930 1.249 . S
O945 U926 2.420 . S
O945 C930 1.202 . S
O946 U926 2.455 . S
O946 C943 1.301 1_655 S
O947 U926 2.449 . S
O947 C943 1.282 1_655 S
H948 C921 0.931 . S
H949 C923 0.929 1_455 S
H950 C924 0.930 . S
H951 C925 0.931 . S
H952 C932 0.932 . S
H953 C933 0.930 . S
H954 C934 0.929 . S
H955 C936 0.930 . S
H956 C938 0.932 . S
H957 C939 0.929 . S
H958 C940 0.928 . S
H959 C942 0.932 . S
H960 C963 0.931 . S
H961 C966 0.928 . S
H962 C968 0.930 . S
C963 H960 0.931 . S
C963 C964 1.413 . S
C963 C965 1.360 . S
C964 C963 1.413 . S
C964 C968 1.429 . S
C965 C963 1.360 . S
C965 C966 1.372 . S
C966 H961 0.928 . S
C966 C965 1.372 . S
C966 C967 1.404 . S
C967 C966 1.404 . S
C967 C968 1.391 . S
C968 H962 0.930 . S
C968 C964 1.429 . S
C968 C967 1.391 . S
H969 C972 0.931 . S
H970 C975 0.928 . S
H971 C977 0.930 . S
C972 H969 0.931 . S
C972 C973 1.413 . S
C972 C974 1.360 . S
C973 C972 1.413 . S
C973 C977 1.429 . S
C974 C972 1.360 . S
C974 C975 1.372 . S
C975 H970 0.928 . S
C975 C974 1.372 . S
C975 C976 1.404 . S
C976 C975 1.404 . S
C976 C977 1.391 . S
C977 H971 0.930 . S
C977 C973 1.429 . S
C977 C976 1.391 . S
H978 C981 0.931 . S
H979 C984 0.928 . S
H980 C986 0.930 . S
C981 H978 0.931 . S
C981 C982 1.413 . S
C981 C983 1.357 . S
C982 C981 1.413 . S
C982 C986 1.391 1_565 S
C983 C981 1.357 . S
C983 C984 1.375 1_565 S
C984 H979 0.928 . S
C984 C983 1.375 1_545 S
C984 C985 1.404 . S
C985 C984 1.404 . S
C985 C986 1.429 . S
C986 H980 0.930 . S
C986 C982 1.391 1_545 S
C986 C985 1.429 . S
H987 C990 0.931 . S
H988 C993 0.928 . S
H989 C995 0.930 . S
C990 H987 0.931 . S
C990 C991 1.413 . S
C990 C992 1.360 1_545 S
C991 C990 1.413 . S
C991 C995 1.429 . S
C992 C990 1.360 1_565 S
C992 C993 1.372 . S
C993 H988 0.928 . S
C993 C992 1.372 . S
C993 C994 1.404 . S
C994 C993 1.404 . S
C994 C995 1.391 1_565 S
C995 H989 0.930 . S
C995 C991 1.429 . S
C995 C994 1.391 1_545 S
H996 C999 0.931 . S
H997 C1002 0.928 . S
H998 C1004 0.930 . S
C999 H996 0.931 . S
C999 C1000 1.413 . S
C999 C1001 1.360 . S
C1000 C999 1.413 . S
C1000 C1004 1.429 . S
C1001 C999 1.360 . S
C1001 C1002 1.372 . S
C1002 H997 0.928 . S
C1002 C1001 1.372 . S
C1002 C1003 1.404 . S
C1003 C1002 1.404 . S
C1003 C1004 1.391 . S
C1004 H998 0.930 . S
C1004 C1000 1.429 . S
C1004 C1003 1.391 . S
H1005 C1008 0.931 . S
H1006 C1011 0.928 . S
H1007 C1013 0.930 . S
C1008 H1005 0.931 . S
C1008 C1009 1.413 . S
C1008 C1010 1.360 1_554 S
C1009 C1008 1.413 . S
C1009 C1013 1.429 . S
C1010 C1008 1.360 1_556 S
C1010 C1011 1.372 . S
C1011 H1006 0.928 . S
C1011 C1010 1.372 . S
C1011 C1012 1.404 . S
C1012 C1011 1.404 . S
C1012 C1013 1.391 1_556 S
C1013 H1007 0.930 . S
C1013 C1009 1.429 . S
C1013 C1012 1.391 1_554 S
H1014 C1017 0.931 . S
H1015 C1020 0.928 . S
H1016 C1022 0.930 . S
C1017 H1014 0.931 . S
C1017 C1018 1.413 . S
C1017 C1019 1.360 . S
C1018 C1017 1.413 . S
C1018 C1022 1.429 . S
C1019 C1017 1.360 . S
C1019 C1020 1.372 . S
C1020 H1015 0.928 . S
C1020 C1019 1.372 . S
C1020 C1021 1.404 . S
C1021 C1020 1.404 . S
C1021 C1022 1.391 . S
C1022 H1016 0.930 . S
C1022 C1018 1.429 . S
C1022 C1021 1.391 . S
H1023 C1026 0.931 . S
H1024 C1029 0.928 . S
H1025 C1031 0.930 . S
C1026 H1023 0.931 . S
C1026 C1027 1.413 . S
C1026 C1028 1.356 . S
C1027 C1026 1.413 . S
C1027 C1031 1.391 1_556 S
C1028 C1026 1.356 . S
C1028 C1029 1.375 1_556 S
C1029 H1024 0.928 . S
C1029 C1028 1.375 1_554 S
C1029 C1030 1.404 . S
C1030 C1029 1.404 . S
C1030 C1031 1.429 . S
C1031 H1025 0.930 . S
C1031 C1027 1.391 1_554 S
C1031 C1030 1.429 . S
H1032 C1035 0.931 . S
H1033 C1038 0.928 . S
H1034 C1040 0.930 . S
C1035 H1032 0.931 . S
C1035 C1036 1.413 . S
C1035 C1037 1.360 . S
C1036 C1035 1.413 . S
C1036 C1040 1.429 . S
C1037 C1035 1.360 . S
C1037 C1038 1.372 . S
C1038 H1033 0.928 . S
C1038 C1037 1.372 . S
C1038 C1039 1.404 . S
C1039 C1038 1.404 . S
C1039 C1040 1.391 . S
C1040 H1034 0.930 . S
C1040 C1036 1.429 . S
C1040 C1039 1.391 . S
H1041 C1044 0.931 . S
H1042 C1047 0.928 . S
H1043 C1049 0.930 . S
C1044 H1041 0.931 . S
C1044 C1045 1.413 . S
C1044 C1046 1.360 1_455 S
C1045 C1044 1.413 . S
C1045 C1049 1.429 . S
C1046 C1044 1.360 1_655 S
C1046 C1047 1.372 . S
C1047 H1042 0.928 . S
C1047 C1046 1.372 . S
C1047 C1048 1.404 . S
C1048 C1047 1.404 . S
C1048 C1049 1.391 1_655 S
C1049 H1043 0.930 . S
C1049 C1045 1.429 . S
C1049 C1048 1.391 1_455 S
H1050 C1053 0.931 . S
H1051 C1056 0.928 . S
H1052 C1058 0.930 . S
C1053 H1050 0.931 . S
C1053 C1054 1.413 . S
C1053 C1055 1.360 . S
C1054 C1053 1.413 . S
C1054 C1058 1.429 . S
C1055 C1053 1.360 . S
C1055 C1056 1.372 . S
C1056 H1051 0.928 . S
C1056 C1055 1.372 . S
C1056 C1057 1.404 . S
C1057 C1056 1.404 . S
C1057 C1058 1.391 . S
C1058 H1052 0.930 . S
C1058 C1054 1.429 . S
C1058 C1057 1.391 . S
H1059 C1062 0.931 . S
H1060 C1065 0.928 . S
H1061 C1067 0.930 . S
C1062 H1059 0.931 . S
C1062 C1063 1.413 . S
C1062 C1064 1.357 . S
C1063 C1062 1.413 . S
C1063 C1067 1.391 1_655 S
C1064 C1062 1.357 . S
C1064 C1065 1.375 1_655 S
C1065 H1060 0.928 . S
C1065 C1064 1.375 1_455 S
C1065 C1066 1.404 . S
C1066 C1065 1.404 . S
C1066 C1067 1.429 . S
C1067 H1061 0.930 . S
C1067 C1063 1.391 1_455 S
C1067 C1066 1.429 . S
H1068 C1071 0.931 . S
H1069 C1074 0.928 . S
H1070 C1076 0.930 . S
C1071 H1068 0.931 . S
C1071 C1072 1.413 . S
C1071 C1073 1.360 . S
C1072 C1071 1.413 . S
C1072 C1076 1.429 . S
C1073 C1071 1.360 . S
C1073 C1074 1.372 . S
C1074 H1069 0.928 . S
C1074 C1073 1.372 . S
C1074 C1075 1.404 . S
C1075 C1074 1.404 . S
C1075 C1076 1.391 . S
C1076 H1070 0.930 . S
C1076 C1072 1.429 . S
C1076 C1075 1.391 . S
H1077 C1080 0.931 . S
H1078 C1083 0.928 . S
H1079 C1085 0.930 . S
C1080 H1077 0.931 . S
C1080 C1081 1.413 . S
C1080 C1082 1.360 . S
C1081 C1080 1.413 . S
C1081 C1085 1.429 . S
C1082 C1080 1.360 . S
C1082 C1083 1.372 . S
C1083 H1078 0.928 . S
C1083 C1082 1.372 . S
C1083 C1084 1.404 . S
C1084 C1083 1.404 . S
C1084 C1085 1.391 . S
C1085 H1079 0.930 . S
C1085 C1081 1.429 . S
C1085 C1084 1.391 . S
H1086 C1089 0.931 . S
H1087 C1092 0.928 . S
H1088 C1094 0.933 . S
C1089 H1086 0.931 . S
C1089 C1090 1.413 . S
C1089 C1091 1.362 . S
C1090 C1089 1.413 . S
C1090 C1094 1.388 1_545 S
C1091 C1089 1.362 . S
C1091 C1092 1.370 1_545 S
C1092 H1087 0.928 . S
C1092 C1091 1.370 1_565 S
C1092 C1093 1.404 . S
C1093 C1092 1.404 . S
C1093 C1094 1.431 . S
C1094 H1088 0.933 . S
C1094 C1090 1.388 1_565 S
C1094 C1093 1.431 . S
H1095 C1098 0.931 . S
H1096 C1101 0.928 . S
H1097 C1103 0.930 . S
C1098 H1095 0.931 . S
C1098 C1099 1.413 . S
C1098 C1100 1.360 1_565 S
C1099 C1098 1.413 . S
C1099 C1103 1.429 . S
C1100 C1098 1.360 1_545 S
C1100 C1101 1.372 . S
C1101 H1096 0.928 . S
C1101 C1100 1.372 . S
C1101 C1102 1.404 . S
C1102 C1101 1.404 . S
C1102 C1103 1.391 1_545 S
C1103 H1097 0.930 . S
C1103 C1099 1.429 . S
C1103 C1102 1.391 1_565 S
H1104 C1107 0.931 . S
H1105 C1110 0.928 . S
H1106 C1112 0.930 . S
C1107 H1104 0.931 . S
C1107 C1108 1.413 . S
C1107 C1109 1.360 . S
C1108 C1107 1.413 . S
C1108 C1112 1.429 . S
C1109 C1107 1.360 . S
C1109 C1110 1.372 . S
C1110 H1105 0.928 . S
C1110 C1109 1.372 . S
C1110 C1111 1.404 . S
C1111 C1110 1.404 . S
C1111 C1112 1.391 . S
C1112 H1106 0.930 . S
C1112 C1108 1.429 . S
C1112 C1111 1.391 . S
H1113 C1116 0.931 . S
H1114 C1119 0.928 . S
H1115 C1121 0.930 . S
C1116 H1113 0.931 . S
C1116 C1117 1.413 . S
C1116 C1118 1.360 1_556 S
C1117 C1116 1.413 . S
C1117 C1121 1.429 . S
C1118 C1116 1.360 1_554 S
C1118 C1119 1.372 . S
C1119 H1114 0.928 . S
C1119 C1118 1.372 . S
C1119 C1120 1.404 . S
C1120 C1119 1.404 . S
C1120 C1121 1.391 1_554 S
C1121 H1115 0.930 . S
C1121 C1117 1.429 . S
C1121 C1120 1.391 1_556 S
H1122 C1125 0.931 . S
H1123 C1128 0.928 . S
H1124 C1130 0.930 . S
C1125 H1122 0.931 . S
C1125 C1126 1.413 . S
C1125 C1127 1.360 . S
C1126 C1125 1.413 . S
C1126 C1130 1.429 . S
C1127 C1125 1.360 . S
C1127 C1128 1.372 . S
C1128 H1123 0.928 . S
C1128 C1127 1.372 . S
C1128 C1129 1.404 . S
C1129 C1128 1.404 . S
C1129 C1130 1.391 . S
C1130 H1124 0.930 . S
C1130 C1126 1.429 . S
C1130 C1129 1.391 . S
H1131 C1134 0.931 . S
H1132 C1137 0.928 . S
H1133 C1139 0.933 . S
C1134 H1131 0.931 . S
C1134 C1135 1.413 . S
C1134 C1136 1.362 . S
C1135 C1134 1.413 . S
C1135 C1139 1.388 1_554 S
C1136 C1134 1.362 . S
C1136 C1137 1.370 1_554 S
C1137 H1132 0.928 . S
C1137 C1136 1.370 1_556 S
C1137 C1138 1.404 . S
C1138 C1137 1.404 . S
C1138 C1139 1.431 . S
C1139 H1133 0.933 . S
C1139 C1135 1.388 1_556 S
C1139 C1138 1.431 . S
H1140 C1143 0.931 . S
H1141 C1146 0.928 . S
H1142 C1148 0.930 . S
C1143 H1140 0.931 . S
C1143 C1144 1.413 . S
C1143 C1145 1.360 . S
C1144 C1143 1.413 . S
C1144 C1148 1.429 . S
C1145 C1143 1.360 . S
C1145 C1146 1.372 . S
C1146 H1141 0.928 . S
C1146 C1145 1.372 . S
C1146 C1147 1.404 . S
C1147 C1146 1.404 . S
C1147 C1148 1.391 . S
C1148 H1142 0.930 . S
C1148 C1144 1.429 . S
C1148 C1147 1.391 . S
H1149 C1152 0.931 . S
H1150 C1155 0.928 . S
H1151 C1157 0.930 . S
C1152 H1149 0.931 . S
C1152 C1153 1.413 . S
C1152 C1154 1.360 1_655 S
C1153 C1152 1.413 . S
C1153 C1157 1.429 . S
C1154 C1152 1.360 1_455 S
C1154 C1155 1.372 . S
C1155 H1150 0.928 . S
C1155 C1154 1.372 . S
C1155 C1156 1.404 . S
C1156 C1155 1.404 . S
C1156 C1157 1.391 1_455 S
C1157 H1151 0.930 . S
C1157 C1153 1.429 . S
C1157 C1156 1.391 1_655 S
H1158 C1161 0.931 . S
H1159 C1164 0.928 . S
H1160 C1166 0.930 . S
C1161 H1158 0.931 . S
C1161 C1162 1.413 . S
C1161 C1163 1.360 . S
C1162 C1161 1.413 . S
C1162 C1166 1.429 . S
C1163 C1161 1.360 . S
C1163 C1164 1.372 . S
C1164 H1159 0.928 . S
C1164 C1163 1.372 . S
C1164 C1165 1.404 . S
C1165 C1164 1.404 . S
C1165 C1166 1.391 . S
C1166 H1160 0.930 . S
C1166 C1162 1.429 . S
C1166 C1165 1.391 . S
H1167 C1170 0.931 . S
H1168 C1173 0.928 . S
H1169 C1175 0.933 . S
C1170 H1167 0.931 . S
C1170 C1171 1.413 . S
C1170 C1172 1.362 . S
C1171 C1170 1.413 . S
C1171 C1175 1.388 1_455 S
C1172 C1170 1.362 . S
C1172 C1173 1.370 1_455 S
C1173 H1168 0.928 . S
C1173 C1172 1.370 1_655 S
C1173 C1174 1.404 . S
C1174 C1173 1.404 . S
C1174 C1175 1.431 . S
C1175 H1169 0.933 . S
C1175 C1171 1.388 1_655 S
C1175 C1174 1.431 . S
H1176 C1182 0.930 . S
H1177 C1186 0.930 . S
H1178 C1191 0.929 . S
H1179 C1189 0.929 . S
H1180 C1184 0.929 . S
H1181 C1190 0.929 . S
C1182 H1176 0.930 . S
C1182 C1183 1.367 . S
C1182 C1190 1.378 . S
C1183 C1182 1.367 . S
C1183 C1191 1.433 . S
C1184 H1180 0.929 . S
C1184 C1186 1.378 . S
C1184 C1188 1.350 . S
C1185 C1188 1.463 . S
C1185 C1190 1.350 . S
C1185 N1193 1.427 . S
C1186 H1177 0.930 . S
C1186 C1184 1.378 . S
C1186 C1187 1.367 . S
C1187 C1186 1.367 . S
C1187 C1189 1.433 . S
C1188 C1184 1.350 . S
C1188 C1185 1.463 . S
C1188 N1192 1.427 . S
C1189 H1179 0.929 . S
C1189 C1187 1.433 . S
C1189 N1192 1.384 . S
C1190 H1181 0.929 . S
C1190 C1182 1.378 . S
C1190 C1185 1.350 . S
C1191 H1178 0.929 . S
C1191 C1183 1.433 . S
C1191 N1193 1.384 . S
N1192 C1188 1.427 . S
N1192 C1189 1.384 . S
N1193 C1185 1.427 . S
N1193 C1191 1.384 . S
H1194 C1200 0.930 . S
H1195 C1204 0.930 . S
H1196 C1209 0.929 . S
H1197 C1207 0.929 . S
H1198 C1202 0.929 . S
H1199 C1208 0.929 . S
C1200 H1194 0.930 . S
C1200 C1201 1.367 . S
C1200 C1208 1.378 . S
C1201 C1200 1.367 . S
C1201 C1209 1.433 . S
C1202 H1198 0.929 . S
C1202 C1204 1.378 . S
C1202 C1206 1.350 . S
C1203 C1206 1.463 . S
C1203 C1208 1.350 . S
C1203 N1211 1.427 . S
C1204 H1195 0.930 . S
C1204 C1202 1.378 . S
C1204 C1205 1.367 . S
C1205 C1204 1.367 . S
C1205 C1207 1.433 . S
C1206 C1202 1.350 . S
C1206 C1203 1.463 . S
C1206 N1210 1.427 . S
C1207 H1197 0.929 . S
C1207 C1205 1.433 . S
C1207 N1210 1.384 . S
C1208 H1199 0.929 . S
C1208 C1200 1.378 . S
C1208 C1203 1.350 . S
C1209 H1196 0.929 . S
C1209 C1201 1.433 . S
C1209 N1211 1.384 . S
N1210 C1206 1.427 . S
N1210 C1207 1.384 . S
N1211 C1203 1.427 . S
N1211 C1209 1.384 . S
H1212 C1218 0.930 . S
H1213 C1222 0.930 . S
H1214 C1227 0.929 . S
H1215 C1225 0.929 . S
H1216 C1220 0.929 . S
H1217 C1226 0.929 . S
C1218 H1212 0.930 . S
C1218 C1219 1.367 . S
C1218 C1226 1.378 . S
C1219 C1218 1.367 . S
C1219 C1227 1.433 . S
C1220 H1216 0.929 . S
C1220 C1222 1.378 . S
C1220 C1224 1.350 . S
C1221 C1224 1.463 . S
C1221 C1226 1.350 . S
C1221 N1229 1.427 . S
C1222 H1213 0.930 . S
C1222 C1220 1.378 . S
C1222 C1223 1.367 . S
C1223 C1222 1.367 . S
C1223 C1225 1.433 . S
C1224 C1220 1.350 . S
C1224 C1221 1.463 . S
C1224 N1228 1.427 . S
C1225 H1215 0.929 . S
C1225 C1223 1.433 . S
C1225 N1228 1.384 . S
C1226 H1217 0.929 . S
C1226 C1218 1.378 . S
C1226 C1221 1.350 . S
C1227 H1214 0.929 . S
C1227 C1219 1.433 . S
C1227 N1229 1.384 . S
N1228 C1224 1.427 . S
N1228 C1225 1.384 . S
N1229 C1221 1.427 . S
N1229 C1227 1.384 . S
H1230 C1236 0.930 . S
H1231 C1240 0.930 . S
H1232 C1245 0.929 . S
H1233 C1243 0.929 . S
H1234 C1238 0.929 . S
H1235 C1244 0.929 . S
C1236 H1230 0.930 . S
C1236 C1237 1.367 . S
C1236 C1244 1.378 . S
C1237 C1236 1.367 . S
C1237 C1245 1.433 . S
C1238 H1234 0.929 . S
C1238 C1240 1.378 . S
C1238 C1242 1.350 . S
C1239 C1242 1.463 . S
C1239 C1244 1.350 . S
C1239 N1247 1.427 . S
C1240 H1231 0.930 . S
C1240 C1238 1.378 . S
C1240 C1241 1.367 . S
C1241 C1240 1.367 . S
C1241 C1243 1.433 . S
C1242 C1238 1.350 . S
C1242 C1239 1.463 . S
C1242 N1246 1.427 . S
C1243 H1233 0.929 . S
C1243 C1241 1.433 . S
C1243 N1246 1.384 . S
C1244 H1235 0.929 . S
C1244 C1236 1.378 . S
C1244 C1239 1.350 . S
C1245 H1232 0.929 . S
C1245 C1237 1.433 . S
C1245 N1247 1.384 . S
N1246 C1242 1.427 . S
N1246 C1243 1.384 . S
N1247 C1239 1.427 . S
N1247 C1245 1.384 . S
H1248 C1254 0.930 . S
H1249 C1258 0.930 . S
H1250 C1263 0.929 . S
H1251 C1261 0.929 . S
H1252 C1256 0.929 . S
H1253 C1262 0.929 . S
C1254 H1248 0.930 . S
C1254 C1255 1.367 . S
C1254 C1262 1.378 . S
C1255 C1254 1.367 . S
C1255 C1263 1.433 . S
C1256 H1252 0.929 . S
C1256 C1258 1.378 . S
C1256 C1260 1.350 . S
C1257 C1260 1.463 . S
C1257 C1262 1.350 . S
C1257 N1265 1.427 . S
C1258 H1249 0.930 . S
C1258 C1256 1.378 . S
C1258 C1259 1.367 . S
C1259 C1258 1.367 . S
C1259 C1261 1.433 . S
C1260 C1256 1.350 . S
C1260 C1257 1.463 . S
C1260 N1264 1.427 . S
C1261 H1251 0.929 . S
C1261 C1259 1.433 . S
C1261 N1264 1.384 . S
C1262 H1253 0.929 . S
C1262 C1254 1.378 . S
C1262 C1257 1.350 . S
C1263 H1250 0.929 . S
C1263 C1255 1.433 . S
C1263 N1265 1.384 . S
N1264 C1260 1.427 . S
N1264 C1261 1.384 . S
N1265 C1257 1.427 . S
N1265 C1263 1.384 . S
H1266 C1272 0.930 . S
H1267 C1276 0.930 . S
H1268 C1281 0.929 . S
H1269 C1279 0.929 . S
H1270 C1274 0.929 . S
H1271 C1280 0.929 . S
C1272 H1266 0.930 . S
C1272 C1273 1.367 . S
C1272 C1280 1.378 . S
C1273 C1272 1.367 . S
C1273 C1281 1.433 . S
C1274 H1270 0.929 . S
C1274 C1276 1.378 . S
C1274 C1278 1.350 . S
C1275 C1278 1.463 . S
C1275 C1280 1.350 . S
C1275 N1283 1.427 . S
C1276 H1267 0.930 . S
C1276 C1274 1.378 . S
C1276 C1277 1.367 . S
C1277 C1276 1.367 . S
C1277 C1279 1.433 . S
C1278 C1274 1.350 . S
C1278 C1275 1.463 . S
C1278 N1282 1.427 . S
C1279 H1269 0.929 . S
C1279 C1277 1.433 . S
C1279 N1282 1.384 . S
C1280 H1271 0.929 . S
C1280 C1272 1.378 . S
C1280 C1275 1.350 . S
C1281 H1268 0.929 . S
C1281 C1273 1.433 . S
C1281 N1283 1.384 . S
N1282 C1278 1.427 . S
N1282 C1279 1.384 . S
N1283 C1275 1.427 . S
N1283 C1281 1.384 . S
H1284 C1290 0.930 . S
H1285 C1294 0.930 . S
H1286 C1299 0.929 . S
H1287 C1297 0.929 . S
H1288 C1292 0.929 . S
H1289 C1298 0.929 . S
C1290 H1284 0.930 . S
C1290 C1291 1.367 . S
C1290 C1298 1.378 . S
C1291 C1290 1.367 . S
C1291 C1299 1.433 . S
C1292 H1288 0.929 . S
C1292 C1294 1.378 . S
C1292 C1296 1.350 . S
C1293 C1296 1.463 . S
C1293 C1298 1.350 . S
C1293 N1301 1.427 . S
C1294 H1285 0.930 . S
C1294 C1292 1.378 . S
C1294 C1295 1.367 . S
C1295 C1294 1.367 . S
C1295 C1297 1.433 . S
C1296 C1292 1.350 . S
C1296 C1293 1.463 . S
C1296 N1300 1.427 . S
C1297 H1287 0.929 . S
C1297 C1295 1.433 . S
C1297 N1300 1.384 . S
C1298 H1289 0.929 . S
C1298 C1290 1.378 . S
C1298 C1293 1.350 . S
C1299 H1286 0.929 . S
C1299 C1291 1.433 . S
C1299 N1301 1.384 . S
N1300 C1296 1.427 . S
N1300 C1297 1.384 . S
N1301 C1293 1.427 . S
N1301 C1299 1.384 . S
H1302 C1308 0.930 . S
H1303 C1312 0.930 . S
H1304 C1317 0.929 . S
H1305 C1315 0.929 . S
H1306 C1310 0.929 . S
H1307 C1316 0.929 . S
C1308 H1302 0.930 . S
C1308 C1309 1.367 . S
C1308 C1316 1.378 . S
C1309 C1308 1.367 . S
C1309 C1317 1.433 . S
C1310 H1306 0.929 . S
C1310 C1312 1.378 . S
C1310 C1314 1.350 . S
C1311 C1314 1.463 . S
C1311 C1316 1.350 . S
C1311 N1319 1.427 . S
C1312 H1303 0.930 . S
C1312 C1310 1.378 . S
C1312 C1313 1.367 . S
C1313 C1312 1.367 . S
C1313 C1315 1.433 . S
C1314 C1310 1.350 . S
C1314 C1311 1.463 . S
C1314 N1318 1.427 . S
C1315 H1305 0.929 . S
C1315 C1313 1.433 . S
C1315 N1318 1.384 . S
C1316 H1307 0.929 . S
C1316 C1308 1.378 . S
C1316 C1311 1.350 . S
C1317 H1304 0.929 . S
C1317 C1309 1.433 . S
C1317 N1319 1.384 . S
N1318 C1314 1.427 . S
N1318 C1315 1.384 . S
N1319 C1311 1.427 . S
N1319 C1317 1.384 . S
H1320 C1326 0.930 . S
H1321 C1330 0.930 . S
H1322 C1335 0.929 . S
H1323 C1333 0.929 . S
H1324 C1328 0.929 . S
H1325 C1334 0.929 . S
C1326 H1320 0.930 . S
C1326 C1327 1.367 . S
C1326 C1334 1.378 . S
C1327 C1326 1.367 . S
C1327 C1335 1.433 . S
C1328 H1324 0.929 . S
C1328 C1330 1.378 . S
C1328 C1332 1.350 . S
C1329 C1332 1.463 . S
C1329 C1334 1.350 . S
C1329 N1337 1.427 . S
C1330 H1321 0.930 . S
C1330 C1328 1.378 . S
C1330 C1331 1.367 . S
C1331 C1330 1.367 . S
C1331 C1333 1.433 . S
C1332 C1328 1.350 . S
C1332 C1329 1.463 . S
C1332 N1336 1.427 . S
C1333 H1323 0.929 . S
C1333 C1331 1.433 . S
C1333 N1336 1.384 . S
C1334 H1325 0.929 . S
C1334 C1326 1.378 . S
C1334 C1329 1.350 . S
C1335 H1322 0.929 . S
C1335 C1327 1.433 . S
C1335 N1337 1.384 . S
N1336 C1332 1.427 . S
N1336 C1333 1.384 . S
N1337 C1329 1.427 . S
N1337 C1335 1.384 . S
H1338 C1344 0.930 . S
H1339 C1348 0.930 . S
H1340 C1353 0.929 . S
H1341 C1351 0.929 . S
H1342 C1346 0.929 . S
H1343 C1352 0.929 . S
C1344 H1338 0.930 . S
C1344 C1345 1.367 . S
C1344 C1352 1.378 . S
C1345 C1344 1.367 . S
C1345 C1353 1.433 . S
C1346 H1342 0.929 . S
C1346 C1348 1.378 . S
C1346 C1350 1.350 . S
C1347 C1350 1.463 . S
C1347 C1352 1.350 . S
C1347 N1355 1.427 . S
C1348 H1339 0.930 . S
C1348 C1346 1.378 . S
C1348 C1349 1.367 . S
C1349 C1348 1.367 . S
C1349 C1351 1.433 . S
C1350 C1346 1.350 . S
C1350 C1347 1.463 . S
C1350 N1354 1.427 . S
C1351 H1341 0.929 . S
C1351 C1349 1.433 . S
C1351 N1354 1.384 . S
C1352 H1343 0.929 . S
C1352 C1344 1.378 . S
C1352 C1347 1.350 . S
C1353 H1340 0.929 . S
C1353 C1345 1.433 . S
C1353 N1355 1.384 . S
N1354 C1350 1.427 . S
N1354 C1351 1.384 . S
N1355 C1347 1.427 . S
N1355 C1353 1.384 . S
H1356 C1362 0.930 . S
H1357 C1366 0.930 . S
H1358 C1371 0.929 . S
H1359 C1369 0.929 . S
H1360 C1364 0.929 . S
H1361 C1370 0.929 . S
C1362 H1356 0.930 . S
C1362 C1363 1.367 . S
C1362 C1370 1.378 . S
C1363 C1362 1.367 . S
C1363 C1371 1.433 . S
C1364 H1360 0.929 . S
C1364 C1366 1.378 . S
C1364 C1368 1.350 . S
C1365 C1368 1.463 . S
C1365 C1370 1.350 . S
C1365 N1373 1.427 . S
C1366 H1357 0.930 . S
C1366 C1364 1.378 . S
C1366 C1367 1.367 . S
C1367 C1366 1.367 . S
C1367 C1369 1.433 . S
C1368 C1364 1.350 . S
C1368 C1365 1.463 . S
C1368 N1372 1.427 . S
C1369 H1359 0.929 . S
C1369 C1367 1.433 . S
C1369 N1372 1.384 . S
C1370 H1361 0.929 . S
C1370 C1362 1.378 . S
C1370 C1365 1.350 . S
C1371 H1358 0.929 . S
C1371 C1363 1.433 . S
C1371 N1373 1.384 . S
N1372 C1368 1.427 . S
N1372 C1369 1.384 . S
N1373 C1365 1.427 . S
N1373 C1371 1.384 . S
H1374 C1380 0.930 . S
H1375 C1384 0.930 . S
H1376 C1389 0.929 . S
H1377 C1387 0.929 . S
H1378 C1382 0.929 . S
H1379 C1388 0.929 . S
C1380 H1374 0.930 . S
C1380 C1381 1.367 . S
C1380 C1388 1.378 . S
C1381 C1380 1.367 . S
C1381 C1389 1.433 . S
C1382 H1378 0.929 . S
C1382 C1384 1.378 . S
C1382 C1386 1.350 . S
C1383 C1386 1.463 . S
C1383 C1388 1.350 . S
C1383 N1391 1.427 . S
C1384 H1375 0.930 . S
C1384 C1382 1.378 . S
C1384 C1385 1.367 . S
C1385 C1384 1.367 . S
C1385 C1387 1.433 . S
C1386 C1382 1.350 . S
C1386 C1383 1.463 . S
C1386 N1390 1.427 . S
C1387 H1377 0.929 . S
C1387 C1385 1.433 . S
C1387 N1390 1.384 . S
C1388 H1379 0.929 . S
C1388 C1380 1.378 . S
C1388 C1383 1.350 . S
C1389 H1376 0.929 . S
C1389 C1381 1.433 . S
C1389 N1391 1.384 . S
N1390 C1386 1.427 . S
N1390 C1387 1.384 . S
N1391 C1383 1.427 . S
N1391 C1389 1.384 . S
H1392 C1398 0.930 . S
H1393 C1402 0.930 . S
H1394 C1407 0.929 . S
H1395 C1405 0.929 . S
H1396 C1400 0.929 . S
H1397 C1406 0.929 . S
C1398 H1392 0.930 . S
C1398 C1399 1.367 . S
C1398 C1406 1.378 . S
C1399 C1398 1.367 . S
C1399 C1407 1.433 . S
C1400 H1396 0.929 . S
C1400 C1402 1.378 . S
C1400 C1404 1.350 . S
C1401 C1404 1.463 . S
C1401 C1406 1.350 . S
C1401 N1409 1.427 . S
C1402 H1393 0.930 . S
C1402 C1400 1.378 . S
C1402 C1403 1.367 . S
C1403 C1402 1.367 . S
C1403 C1405 1.433 . S
C1404 C1400 1.350 . S
C1404 C1401 1.463 . S
C1404 N1408 1.427 . S
C1405 H1395 0.929 . S
C1405 C1403 1.433 . S
C1405 N1408 1.384 . S
C1406 H1397 0.929 . S
C1406 C1398 1.378 . S
C1406 C1401 1.350 . S
C1407 H1394 0.929 . S
C1407 C1399 1.433 . S
C1407 N1409 1.384 . S
N1408 C1404 1.427 . S
N1408 C1405 1.384 . S
N1409 C1401 1.427 . S
N1409 C1407 1.384 . S
H1410 C1416 0.930 . S
H1411 C1420 0.930 . S
H1412 C1425 0.929 . S
H1413 C1423 0.929 . S
H1414 C1418 0.929 . S
H1415 C1424 0.929 . S
C1416 H1410 0.930 . S
C1416 C1417 1.367 . S
C1416 C1424 1.378 . S
C1417 C1416 1.367 . S
C1417 C1425 1.433 . S
C1418 H1414 0.929 . S
C1418 C1420 1.378 . S
C1418 C1422 1.350 . S
C1419 C1422 1.463 . S
C1419 C1424 1.350 . S
C1419 N1427 1.427 . S
C1420 H1411 0.930 . S
C1420 C1418 1.378 . S
C1420 C1421 1.367 . S
C1421 C1420 1.367 . S
C1421 C1423 1.433 . S
C1422 C1418 1.350 . S
C1422 C1419 1.463 . S
C1422 N1426 1.427 . S
C1423 H1413 0.929 . S
C1423 C1421 1.433 . S
C1423 N1426 1.384 . S
C1424 H1415 0.929 . S
C1424 C1416 1.378 . S
C1424 C1419 1.350 . S
C1425 H1412 0.929 . S
C1425 C1417 1.433 . S
C1425 N1427 1.384 . S
N1426 C1422 1.427 . S
N1426 C1423 1.384 . S
N1427 C1419 1.427 . S
N1427 C1425 1.384 . S
H1428 C1434 0.930 . S
H1429 C1438 0.930 . S
H1430 C1443 0.929 . S
H1431 C1441 0.929 . S
H1432 C1436 0.929 . S
H1433 C1442 0.929 . S
C1434 H1428 0.930 . S
C1434 C1435 1.367 . S
C1434 C1442 1.378 . S
C1435 C1434 1.367 . S
C1435 C1443 1.433 . S
C1436 H1432 0.929 . S
C1436 C1438 1.378 . S
C1436 C1440 1.350 . S
C1437 C1440 1.463 . S
C1437 C1442 1.350 . S
C1437 N1445 1.427 . S
C1438 H1429 0.930 . S
C1438 C1436 1.378 . S
C1438 C1439 1.367 . S
C1439 C1438 1.367 . S
C1439 C1441 1.433 . S
C1440 C1436 1.350 . S
C1440 C1437 1.463 . S
C1440 N1444 1.427 . S
C1441 H1431 0.929 . S
C1441 C1439 1.433 . S
C1441 N1444 1.384 . S
C1442 H1433 0.929 . S
C1442 C1434 1.378 . S
C1442 C1437 1.350 . S
C1443 H1430 0.929 . S
C1443 C1435 1.433 . S
C1443 N1445 1.384 . S
N1444 C1440 1.427 . S
N1444 C1441 1.384 . S
N1445 C1437 1.427 . S
N1445 C1443 1.384 . S
H1446 C1452 0.930 . S
H1447 C1456 0.930 . S
H1448 C1461 0.929 . S
H1449 C1459 0.929 . S
H1450 C1454 0.929 . S
H1451 C1460 0.929 . S
C1452 H1446 0.930 . S
C1452 C1453 1.367 . S
C1452 C1460 1.378 . S
C1453 C1452 1.367 . S
C1453 C1461 1.433 . S
C1454 H1450 0.929 . S
C1454 C1456 1.378 . S
C1454 C1458 1.350 . S
C1455 C1458 1.463 . S
C1455 C1460 1.350 . S
C1455 N1463 1.427 . S
C1456 H1447 0.930 . S
C1456 C1454 1.378 . S
C1456 C1457 1.367 . S
C1457 C1456 1.367 . S
C1457 C1459 1.433 . S
C1458 C1454 1.350 . S
C1458 C1455 1.463 . S
C1458 N1462 1.427 . S
C1459 H1449 0.929 . S
C1459 C1457 1.433 . S
C1459 N1462 1.384 . S
C1460 H1451 0.929 . S
C1460 C1452 1.378 . S
C1460 C1455 1.350 . S
C1461 H1448 0.929 . S
C1461 C1453 1.433 . S
C1461 N1463 1.384 . S
N1462 C1458 1.427 . S
N1462 C1459 1.384 . S
N1463 C1455 1.427 . S
N1463 C1461 1.384 . S
H1464 C1470 0.930 . S
H1465 C1474 0.930 . S
H1466 C1479 0.929 . S
H1467 C1477 0.929 . S
H1468 C1472 0.929 . S
H1469 C1478 0.929 . S
C1470 H1464 0.930 . S
C1470 C1471 1.367 . S
C1470 C1478 1.378 . S
C1471 C1470 1.367 . S
C1471 C1479 1.433 . S
C1472 H1468 0.929 . S
C1472 C1474 1.378 . S
C1472 C1476 1.350 . S
C1473 C1476 1.463 . S
C1473 C1478 1.350 . S
C1473 N1481 1.427 . S
C1474 H1465 0.930 . S
C1474 C1472 1.378 . S
C1474 C1475 1.367 . S
C1475 C1474 1.367 . S
C1475 C1477 1.433 . S
C1476 C1472 1.350 . S
C1476 C1473 1.463 . S
C1476 N1480 1.427 . S
C1477 H1467 0.929 . S
C1477 C1475 1.433 . S
C1477 N1480 1.384 . S
C1478 H1469 0.929 . S
C1478 C1470 1.378 . S
C1478 C1473 1.350 . S
C1479 H1466 0.929 . S
C1479 C1471 1.433 . S
C1479 N1481 1.384 . S
N1480 C1476 1.427 . S
N1480 C1477 1.384 . S
N1481 C1473 1.427 . S
N1481 C1479 1.384 . S
H1482 C1488 0.930 . S
H1483 C1492 0.930 . S
H1484 C1497 0.929 . S
H1485 C1495 0.929 . S
H1486 C1490 0.929 . S
H1487 C1496 0.929 . S
C1488 H1482 0.930 . S
C1488 C1489 1.367 . S
C1488 C1496 1.378 . S
C1489 C1488 1.367 . S
C1489 C1497 1.433 . S
C1490 H1486 0.929 . S
C1490 C1492 1.378 . S
C1490 C1494 1.350 . S
C1491 C1494 1.463 . S
C1491 C1496 1.350 . S
C1491 N1499 1.427 . S
C1492 H1483 0.930 . S
C1492 C1490 1.378 . S
C1492 C1493 1.367 . S
C1493 C1492 1.367 . S
C1493 C1495 1.433 . S
C1494 C1490 1.350 . S
C1494 C1491 1.463 . S
C1494 N1498 1.427 . S
C1495 H1485 0.929 . S
C1495 C1493 1.433 . S
C1495 N1498 1.384 . S
C1496 H1487 0.929 . S
C1496 C1488 1.378 . S
C1496 C1491 1.350 . S
C1497 H1484 0.929 . S
C1497 C1489 1.433 . S
C1497 N1499 1.384 . S
N1498 C1494 1.427 . S
N1498 C1495 1.384 . S
N1499 C1491 1.427 . S
N1499 C1497 1.384 . S
H1500 C1506 0.930 . S
H1501 C1510 0.930 . S
H1502 C1515 0.929 . S
H1503 C1513 0.929 . S
H1504 C1508 0.929 . S
H1505 C1514 0.929 . S
C1506 H1500 0.930 . S
C1506 C1507 1.367 . S
C1506 C1514 1.378 . S
C1507 C1506 1.367 . S
C1507 C1515 1.433 . S
C1508 H1504 0.929 . S
C1508 C1510 1.378 . S
C1508 C1512 1.350 . S
C1509 C1512 1.463 . S
C1509 C1514 1.350 . S
C1509 N1517 1.427 . S
C1510 H1501 0.930 . S
C1510 C1508 1.378 . S
C1510 C1511 1.367 . S
C1511 C1510 1.367 . S
C1511 C1513 1.433 . S
C1512 C1508 1.350 . S
C1512 C1509 1.463 . S
C1512 N1516 1.427 . S
C1513 H1503 0.929 . S
C1513 C1511 1.433 . S
C1513 N1516 1.384 . S
C1514 H1505 0.929 . S
C1514 C1506 1.378 . S
C1514 C1509 1.350 . S
C1515 H1502 0.929 . S
C1515 C1507 1.433 . S
C1515 N1517 1.384 . S
N1516 C1512 1.427 . S
N1516 C1513 1.384 . S
N1517 C1509 1.427 . S
N1517 C1515 1.384 . S
H1518 C1524 0.930 . S
H1519 C1528 0.930 . S
H1520 C1533 0.929 . S
H1521 C1531 0.929 . S
H1522 C1526 0.929 . S
H1523 C1532 0.929 . S
C1524 H1518 0.930 . S
C1524 C1525 1.367 . S
C1524 C1532 1.378 . S
C1525 C1524 1.367 . S
C1525 C1533 1.433 . S
C1526 H1522 0.929 . S
C1526 C1528 1.378 . S
C1526 C1530 1.350 . S
C1527 C1530 1.463 . S
C1527 C1532 1.350 . S
C1527 N1535 1.427 . S
C1528 H1519 0.930 . S
C1528 C1526 1.378 . S
C1528 C1529 1.367 . S
C1529 C1528 1.367 . S
C1529 C1531 1.433 . S
C1530 C1526 1.350 . S
C1530 C1527 1.463 . S
C1530 N1534 1.427 . S
C1531 H1521 0.929 . S
C1531 C1529 1.433 . S
C1531 N1534 1.384 . S
C1532 H1523 0.929 . S
C1532 C1524 1.378 . S
C1532 C1527 1.350 . S
C1533 H1520 0.929 . S
C1533 C1525 1.433 . S
C1533 N1535 1.384 . S
N1534 C1530 1.427 . S
N1534 C1531 1.384 . S
N1535 C1527 1.427 . S
N1535 C1533 1.384 . S
H1536 C1542 0.930 . S
H1537 C1546 0.930 . S
H1538 C1551 0.929 . S
H1539 C1549 0.929 . S
H1540 C1544 0.929 . S
H1541 C1550 0.929 . S
C1542 H1536 0.930 . S
C1542 C1543 1.367 . S
C1542 C1550 1.378 . S
C1543 C1542 1.367 . S
C1543 C1551 1.433 . S
C1544 H1540 0.929 . S
C1544 C1546 1.378 . S
C1544 C1548 1.350 . S
C1545 C1548 1.463 . S
C1545 C1550 1.350 . S
C1545 N1553 1.427 . S
C1546 H1537 0.930 . S
C1546 C1544 1.378 . S
C1546 C1547 1.367 . S
C1547 C1546 1.367 . S
C1547 C1549 1.433 . S
C1548 C1544 1.350 . S
C1548 C1545 1.463 . S
C1548 N1552 1.427 . S
C1549 H1539 0.929 . S
C1549 C1547 1.433 . S
C1549 N1552 1.384 . S
C1550 H1541 0.929 . S
C1550 C1542 1.378 . S
C1550 C1545 1.350 . S
C1551 H1538 0.929 . S
C1551 C1543 1.433 . S
C1551 N1553 1.384 . S
N1552 C1548 1.427 . S
N1552 C1549 1.384 . S
N1553 C1545 1.427 . S
N1553 C1551 1.384 . S
H1554 C1560 0.930 . S
H1555 C1564 0.930 . S
H1556 C1569 0.929 . S
H1557 C1567 0.929 . S
H1558 C1562 0.929 . S
H1559 C1568 0.929 . S
C1560 H1554 0.930 . S
C1560 C1561 1.367 . S
C1560 C1568 1.378 . S
C1561 C1560 1.367 . S
C1561 C1569 1.433 . S
C1562 H1558 0.929 . S
C1562 C1564 1.378 . S
C1562 C1566 1.350 . S
C1563 C1566 1.463 . S
C1563 C1568 1.350 . S
C1563 N1571 1.427 . S
C1564 H1555 0.930 . S
C1564 C1562 1.378 . S
C1564 C1565 1.367 . S
C1565 C1564 1.367 . S
C1565 C1567 1.433 . S
C1566 C1562 1.350 . S
C1566 C1563 1.463 . S
C1566 N1570 1.427 . S
C1567 H1557 0.929 . S
C1567 C1565 1.433 . S
C1567 N1570 1.384 . S
C1568 H1559 0.929 . S
C1568 C1560 1.378 . S
C1568 C1563 1.350 . S
C1569 H1556 0.929 . S
C1569 C1561 1.433 . S
C1569 N1571 1.384 . S
N1570 C1566 1.427 . S
N1570 C1567 1.384 . S
N1571 C1563 1.427 . S
N1571 C1569 1.384 . S
H1572 C1578 0.930 . S
H1573 C1582 0.930 . S
H1574 C1587 0.929 . S
H1575 C1585 0.929 . S
H1576 C1580 0.929 . S
H1577 C1586 0.929 . S
C1578 H1572 0.930 . S
C1578 C1579 1.367 . S
C1578 C1586 1.378 . S
C1579 C1578 1.367 . S
C1579 C1587 1.433 . S
C1580 H1576 0.929 . S
C1580 C1582 1.378 . S
C1580 C1584 1.350 . S
C1581 C1584 1.463 . S
C1581 C1586 1.350 . S
C1581 N1589 1.427 . S
C1582 H1573 0.930 . S
C1582 C1580 1.378 . S
C1582 C1583 1.367 . S
C1583 C1582 1.367 . S
C1583 C1585 1.433 . S
C1584 C1580 1.350 . S
C1584 C1581 1.463 . S
C1584 N1588 1.427 . S
C1585 H1575 0.929 . S
C1585 C1583 1.433 . S
C1585 N1588 1.384 . S
C1586 H1577 0.929 . S
C1586 C1578 1.378 . S
C1586 C1581 1.350 . S
C1587 H1574 0.929 . S
C1587 C1579 1.433 . S
C1587 N1589 1.384 . S
N1588 C1584 1.427 . S
N1588 C1585 1.384 . S
N1589 C1581 1.427 . S
N1589 C1587 1.384 . S
H1590 C1596 0.930 . S
H1591 C1600 0.930 . S
H1592 C1605 0.929 . S
H1593 C1603 0.929 . S
H1594 C1598 0.929 . S
H1595 C1604 0.929 . S
C1596 H1590 0.930 . S
C1596 C1597 1.367 . S
C1596 C1604 1.378 . S
C1597 C1596 1.367 . S
C1597 C1605 1.433 . S
C1598 H1594 0.929 . S
C1598 C1600 1.378 . S
C1598 C1602 1.350 . S
C1599 C1602 1.463 . S
C1599 C1604 1.350 . S
C1599 N1607 1.427 . S
C1600 H1591 0.930 . S
C1600 C1598 1.378 . S
C1600 C1601 1.367 . S
C1601 C1600 1.367 . S
C1601 C1603 1.433 . S
C1602 C1598 1.350 . S
C1602 C1599 1.463 . S
C1602 N1606 1.427 . S
C1603 H1593 0.929 . S
C1603 C1601 1.433 . S
C1603 N1606 1.384 . S
C1604 H1595 0.929 . S
C1604 C1596 1.378 . S
C1604 C1599 1.350 . S
C1605 H1592 0.929 . S
C1605 C1597 1.433 . S
C1605 N1607 1.384 . S
N1606 C1602 1.427 . S
N1606 C1603 1.384 . S
N1607 C1599 1.427 . S
N1607 C1605 1.384 . S
H1608 C1614 0.930 . S
H1609 C1618 0.930 . S
H1610 C1623 0.929 . S
H1611 C1621 0.929 . S
H1612 C1616 0.929 . S
H1613 C1622 0.929 . S
C1614 H1608 0.930 . S
C1614 C1615 1.367 . S
C1614 C1622 1.378 . S
C1615 C1614 1.367 . S
C1615 C1623 1.433 . S
C1616 H1612 0.929 . S
C1616 C1618 1.378 . S
C1616 C1620 1.350 . S
C1617 C1620 1.463 . S
C1617 C1622 1.350 . S
C1617 N1625 1.427 . S
C1618 H1609 0.930 . S
C1618 C1616 1.378 . S
C1618 C1619 1.367 . S
C1619 C1618 1.367 . S
C1619 C1621 1.433 . S
C1620 C1616 1.350 . S
C1620 C1617 1.463 . S
C1620 N1624 1.427 . S
C1621 H1611 0.929 . S
C1621 C1619 1.433 . S
C1621 N1624 1.384 . S
C1622 H1613 0.929 . S
C1622 C1614 1.378 . S
C1622 C1617 1.350 . S
C1623 H1610 0.929 . S
C1623 C1615 1.433 . S
C1623 N1625 1.384 . S
N1624 C1620 1.427 . S
N1624 C1621 1.384 . S
N1625 C1617 1.427 . S
N1625 C1623 1.384 . S
H1626 C1632 0.930 . S
H1627 C1636 0.930 . S
H1628 C1641 0.929 . S
H1629 C1639 0.929 . S
H1630 C1634 0.929 . S
H1631 C1640 0.929 . S
C1632 H1626 0.930 . S
C1632 C1633 1.367 . S
C1632 C1640 1.378 . S
C1633 C1632 1.367 . S
C1633 C1641 1.433 . S
C1634 H1630 0.929 . S
C1634 C1636 1.378 . S
C1634 C1638 1.350 . S
C1635 C1638 1.463 . S
C1635 C1640 1.350 . S
C1635 N1643 1.427 . S
C1636 H1627 0.930 . S
C1636 C1634 1.378 . S
C1636 C1637 1.367 . S
C1637 C1636 1.367 . S
C1637 C1639 1.433 . S
C1638 C1634 1.350 . S
C1638 C1635 1.463 . S
C1638 N1642 1.427 . S
C1639 H1629 0.929 . S
C1639 C1637 1.433 . S
C1639 N1642 1.384 . S
C1640 H1631 0.929 . S
C1640 C1632 1.378 . S
C1640 C1635 1.350 . S
C1641 H1628 0.929 . S
C1641 C1633 1.433 . S
C1641 N1643 1.384 . S
N1642 C1638 1.427 . S
N1642 C1639 1.384 . S
N1643 C1635 1.427 . S
N1643 C1641 1.384 . S
H1644 C1650 0.930 . S
H1645 C1654 0.914 1_545 S
H1646 C1659 0.929 . S
H1647 C1657 0.929 . S
H1648 C1652 0.929 . S
H1649 C1658 0.929 . S
C1650 H1644 0.930 . S
C1650 C1651 1.367 . S
C1650 C1658 1.378 . S
C1651 C1650 1.367 . S
C1651 C1659 1.433 . S
C1652 H1648 0.929 . S
C1652 C1654 1.378 . S
C1652 C1656 1.350 . S
C1653 C1656 1.463 . S
C1653 C1658 1.350 . S
C1653 N1661 1.427 . S
C1654 H1645 0.914 1_565 S
C1654 C1652 1.378 . S
C1654 C1655 1.367 . S
C1655 C1654 1.367 . S
C1655 C1657 1.433 . S
C1656 C1652 1.350 . S
C1656 C1653 1.463 . S
C1656 N1660 1.427 . S
C1657 H1647 0.929 . S
C1657 C1655 1.433 . S
C1657 N1660 1.384 . S
C1658 H1649 0.929 . S
C1658 C1650 1.378 . S
C1658 C1653 1.350 . S
C1659 H1646 0.929 . S
C1659 C1651 1.433 . S
C1659 N1661 1.384 . S
N1660 C1656 1.427 . S
N1660 C1657 1.384 . S
N1661 C1653 1.427 . S
N1661 C1659 1.384 . S
H1662 C1668 0.930 . S
H1663 C1672 0.930 . S
H1664 C1677 0.929 . S
H1665 C1675 0.929 . S
H1666 C1670 0.929 . S
H1667 C1676 0.929 . S
C1668 H1662 0.930 . S
C1668 C1669 1.367 1_565 S
C1668 C1676 1.378 . S
C1669 C1668 1.367 1_545 S
C1669 C1677 1.433 . S
C1670 H1666 0.929 . S
C1670 C1672 1.378 . S
C1670 C1674 1.350 . S
C1671 C1674 1.463 . S
C1671 C1676 1.350 1_545 S
C1671 N1679 1.427 . S
C1672 H1663 0.930 . S
C1672 C1670 1.378 . S
C1672 C1673 1.367 1_545 S
C1673 C1672 1.367 1_565 S
C1673 C1675 1.433 . S
C1674 C1670 1.350 . S
C1674 C1671 1.463 . S
C1674 N1678 1.427 1_545 S
C1675 H1665 0.929 . S
C1675 C1673 1.433 . S
C1675 N1678 1.384 . S
C1676 H1667 0.929 . S
C1676 C1668 1.378 . S
C1676 C1671 1.350 1_565 S
C1677 H1664 0.929 . S
C1677 C1669 1.433 . S
C1677 N1679 1.384 . S
N1678 C1674 1.427 1_565 S
N1678 C1675 1.384 . S
N1679 C1671 1.427 . S
N1679 C1677 1.384 . S
H1680 C1686 0.930 . S
H1681 C1690 0.930 . S
H1682 C1695 0.929 . S
H1683 C1693 0.929 . S
H1684 C1688 0.929 . S
H1685 C1694 0.929 . S
C1686 H1680 0.930 . S
C1686 C1687 1.367 . S
C1686 C1694 1.378 . S
C1687 C1686 1.367 . S
C1687 C1695 1.433 . S
C1688 H1684 0.929 . S
C1688 C1690 1.378 . S
C1688 C1692 1.350 . S
C1689 C1692 1.463 . S
C1689 C1694 1.350 . S
C1689 N1697 1.427 . S
C1690 H1681 0.930 . S
C1690 C1688 1.378 . S
C1690 C1691 1.367 . S
C1691 C1690 1.367 . S
C1691 C1693 1.433 . S
C1692 C1688 1.350 . S
C1692 C1689 1.463 . S
C1692 N1696 1.427 . S
C1693 H1683 0.929 . S
C1693 C1691 1.433 . S
C1693 N1696 1.384 . S
C1694 H1685 0.929 . S
C1694 C1686 1.378 . S
C1694 C1689 1.350 . S
C1695 H1682 0.929 . S
C1695 C1687 1.433 . S
C1695 N1697 1.384 . S
N1696 C1692 1.427 . S
N1696 C1693 1.384 . S
N1697 C1689 1.427 . S
N1697 C1695 1.384 . S
H1698 C1704 0.930 . S
H1699 C1708 0.930 . S
H1700 C1713 0.929 . S
H1701 C1711 0.929 . S
H1702 C1706 0.928 . S
H1703 C1712 0.929 . S
C1704 H1698 0.930 . S
C1704 C1705 1.367 . S
C1704 C1712 1.378 . S
C1705 C1704 1.367 . S
C1705 C1713 1.433 . S
C1706 H1702 0.928 . S
C1706 C1708 1.381 . S
C1706 C1710 1.348 1_556 S
C1707 C1710 1.463 . S
C1707 C1712 1.350 . S
C1707 N1715 1.427 . S
C1708 H1699 0.930 . S
C1708 C1706 1.381 . S
C1708 C1709 1.367 . S
C1709 C1708 1.367 . S
C1709 C1711 1.433 . S
C1710 C1706 1.348 1_554 S
C1710 C1707 1.463 . S
C1710 N1714 1.427 . S
C1711 H1701 0.929 . S
C1711 C1709 1.433 . S
C1711 N1714 1.384 1_556 S
C1712 H1703 0.929 . S
C1712 C1704 1.378 . S
C1712 C1707 1.350 . S
C1713 H1700 0.929 . S
C1713 C1705 1.433 . S
C1713 N1715 1.384 . S
N1714 C1710 1.427 . S
N1714 C1711 1.384 1_554 S
N1715 C1707 1.427 . S
N1715 C1713 1.384 . S
H1716 C1722 0.930 . S
H1717 C1726 0.930 . S
H1718 C1731 0.929 . S
H1719 C1729 0.929 . S
H1720 C1724 0.929 . S
H1721 C1730 0.929 . S
C1722 H1716 0.930 . S
C1722 C1723 1.367 . S
C1722 C1730 1.378 . S
C1723 C1722 1.367 . S
C1723 C1731 1.433 . S
C1724 H1720 0.929 . S
C1724 C1726 1.378 . S
C1724 C1728 1.350 . S
C1725 C1728 1.463 . S
C1725 C1730 1.350 . S
C1725 N1733 1.427 . S
C1726 H1717 0.930 . S
C1726 C1724 1.378 . S
C1726 C1727 1.367 . S
C1727 C1726 1.367 . S
C1727 C1729 1.433 . S
C1728 C1724 1.350 . S
C1728 C1725 1.463 . S
C1728 N1732 1.427 . S
C1729 H1719 0.929 . S
C1729 C1727 1.433 . S
C1729 N1732 1.384 . S
C1730 H1721 0.929 . S
C1730 C1722 1.378 . S
C1730 C1725 1.350 . S
C1731 H1718 0.929 . S
C1731 C1723 1.433 . S
C1731 N1733 1.384 . S
N1732 C1728 1.427 . S
N1732 C1729 1.384 . S
N1733 C1725 1.427 . S
N1733 C1731 1.384 . S
H1734 C1740 0.930 . S
H1735 C1744 0.930 . S
H1736 C1749 0.929 . S
H1737 C1747 0.929 . S
H1738 C1742 0.929 . S
H1739 C1748 0.929 . S
C1740 H1734 0.930 . S
C1740 C1741 1.367 . S
C1740 C1748 1.378 . S
C1741 C1740 1.367 . S
C1741 C1749 1.433 . S
C1742 H1738 0.929 . S
C1742 C1744 1.378 . S
C1742 C1746 1.350 1_554 S
C1743 C1746 1.463 . S
C1743 C1748 1.350 . S
C1743 N1751 1.427 . S
C1744 H1735 0.930 . S
C1744 C1742 1.378 . S
C1744 C1745 1.367 1_554 S
C1745 C1744 1.367 1_556 S
C1745 C1747 1.433 . S
C1746 C1742 1.350 1_556 S
C1746 C1743 1.463 . S
C1746 N1750 1.427 . S
C1747 H1737 0.929 . S
C1747 C1745 1.433 . S
C1747 N1750 1.384 . S
C1748 H1739 0.929 . S
C1748 C1740 1.378 . S
C1748 C1743 1.350 . S
C1749 H1736 0.929 . S
C1749 C1741 1.433 . S
C1749 N1751 1.384 . S
N1750 C1746 1.427 . S
N1750 C1747 1.384 . S
N1751 C1743 1.427 . S
N1751 C1749 1.384 . S
H1752 C1758 0.930 . S
H1753 C1762 0.930 . S
H1754 C1767 0.929 . S
H1755 C1765 0.929 . S
H1756 C1760 0.929 . S
H1757 C1766 0.929 . S
C1758 H1752 0.930 . S
C1758 C1759 1.367 . S
C1758 C1766 1.378 . S
C1759 C1758 1.367 . S
C1759 C1767 1.433 . S
C1760 H1756 0.929 . S
C1760 C1762 1.378 . S
C1760 C1764 1.350 . S
C1761 C1764 1.463 . S
C1761 C1766 1.350 . S
C1761 N1769 1.427 . S
C1762 H1753 0.930 . S
C1762 C1760 1.378 . S
C1762 C1763 1.367 . S
C1763 C1762 1.367 . S
C1763 C1765 1.433 . S
C1764 C1760 1.350 . S
C1764 C1761 1.463 . S
C1764 N1768 1.427 . S
C1765 H1755 0.929 . S
C1765 C1763 1.433 . S
C1765 N1768 1.384 . S
C1766 H1757 0.929 . S
C1766 C1758 1.378 . S
C1766 C1761 1.350 . S
C1767 H1754 0.929 . S
C1767 C1759 1.433 . S
C1767 N1769 1.384 . S
N1768 C1764 1.427 . S
N1768 C1765 1.384 . S
N1769 C1761 1.427 . S
N1769 C1767 1.384 . S
H1770 C1776 0.930 . S
H1771 C1780 0.930 . S
H1772 C1785 0.929 . S
H1773 C1783 0.929 . S
H1774 C1778 0.928 1_455 S
H1775 C1784 0.929 . S
C1776 H1770 0.930 . S
C1776 C1777 1.367 . S
C1776 C1784 1.378 . S
C1777 C1776 1.367 . S
C1777 C1785 1.433 . S
C1778 H1774 0.928 1_655 S
C1778 C1780 1.378 . S
C1778 C1782 1.350 1_655 S
C1779 C1782 1.463 . S
C1779 C1784 1.350 . S
C1779 N1787 1.427 . S
C1780 H1771 0.930 . S
C1780 C1778 1.378 . S
C1780 C1781 1.367 . S
C1781 C1780 1.367 . S
C1781 C1783 1.433 . S
C1782 C1778 1.350 1_455 S
C1782 C1779 1.463 . S
C1782 N1786 1.427 . S
C1783 H1773 0.929 . S
C1783 C1781 1.433 . S
C1783 N1786 1.384 1_655 S
C1784 H1775 0.929 . S
C1784 C1776 1.378 . S
C1784 C1779 1.350 . S
C1785 H1772 0.929 . S
C1785 C1777 1.433 . S
C1785 N1787 1.384 . S
N1786 C1782 1.427 . S
N1786 C1783 1.384 1_455 S
N1787 C1779 1.427 . S
N1787 C1785 1.384 . S
H1788 C1794 0.930 . S
H1789 C1798 0.930 . S
H1790 C1803 0.929 . S
H1791 C1801 0.929 . S
H1792 C1796 0.929 . S
H1793 C1802 0.929 . S
C1794 H1788 0.930 . S
C1794 C1795 1.367 . S
C1794 C1802 1.378 . S
C1795 C1794 1.367 . S
C1795 C1803 1.433 . S
C1796 H1792 0.929 . S
C1796 C1798 1.378 . S
C1796 C1800 1.350 . S
C1797 C1800 1.463 . S
C1797 C1802 1.350 . S
C1797 N1805 1.427 . S
C1798 H1789 0.930 . S
C1798 C1796 1.378 . S
C1798 C1799 1.367 . S
C1799 C1798 1.367 . S
C1799 C1801 1.433 . S
C1800 C1796 1.350 . S
C1800 C1797 1.463 . S
C1800 N1804 1.427 . S
C1801 H1791 0.929 . S
C1801 C1799 1.433 . S
C1801 N1804 1.384 . S
C1802 H1793 0.929 . S
C1802 C1794 1.378 . S
C1802 C1797 1.350 . S
C1803 H1790 0.929 . S
C1803 C1795 1.433 . S
C1803 N1805 1.384 . S
N1804 C1800 1.427 . S
N1804 C1801 1.384 . S
N1805 C1797 1.427 . S
N1805 C1803 1.384 . S
H1806 C1812 0.930 . S
H1807 C1816 0.928 1_455 S
H1808 C1821 0.929 . S
H1809 C1819 0.929 . S
H1810 C1814 0.929 . S
H1811 C1820 0.929 . S
C1812 H1806 0.930 . S
C1812 C1813 1.367 . S
C1812 C1820 1.378 . S
C1813 C1812 1.367 . S
C1813 C1821 1.433 . S
C1814 H1810 0.929 . S
C1814 C1816 1.378 . S
C1814 C1818 1.350 . S
C1815 C1818 1.463 . S
C1815 C1820 1.350 . S
C1815 N1823 1.427 . S
C1816 H1807 0.928 1_655 S
C1816 C1814 1.378 . S
C1816 C1817 1.367 . S
C1817 C1816 1.367 . S
C1817 C1819 1.433 . S
C1818 C1814 1.350 . S
C1818 C1815 1.463 . S
C1818 N1822 1.427 . S
C1819 H1809 0.929 . S
C1819 C1817 1.433 . S
C1819 N1822 1.384 . S
C1820 H1811 0.929 . S
C1820 C1812 1.378 . S
C1820 C1815 1.350 . S
C1821 H1808 0.929 . S
C1821 C1813 1.433 . S
C1821 N1823 1.384 . S
N1822 C1818 1.427 . S
N1822 C1819 1.384 . S
N1823 C1815 1.427 . S
N1823 C1821 1.384 . S
H1824 C1830 0.930 . S
H1825 C1834 0.930 . S
H1826 C1839 0.929 . S
H1827 C1837 0.929 . S
H1828 C1832 0.929 . S
H1829 C1838 0.929 . S
C1830 H1824 0.930 . S
C1830 C1831 1.367 . S
C1830 C1838 1.378 . S
C1831 C1830 1.367 . S
C1831 C1839 1.433 . S
C1832 H1828 0.929 . S
C1832 C1834 1.378 . S
C1832 C1836 1.350 . S
C1833 C1836 1.463 . S
C1833 C1838 1.350 . S
C1833 N1841 1.427 . S
C1834 H1825 0.930 . S
C1834 C1832 1.378 . S
C1834 C1835 1.367 . S
C1835 C1834 1.367 . S
C1835 C1837 1.433 . S
C1836 C1832 1.350 . S
C1836 C1833 1.463 . S
C1836 N1840 1.427 . S
C1837 H1827 0.929 . S
C1837 C1835 1.433 . S
C1837 N1840 1.384 . S
C1838 H1829 0.929 . S
C1838 C1830 1.378 . S
C1838 C1833 1.350 . S
C1839 H1826 0.929 . S
C1839 C1831 1.433 . S
C1839 N1841 1.384 . S
N1840 C1836 1.427 . S
N1840 C1837 1.384 . S
N1841 C1833 1.427 . S
N1841 C1839 1.384 . S
H1842 C1848 0.930 . S
H1843 C1852 0.930 . S
H1844 C1857 0.929 . S
H1845 C1855 0.929 . S
H1846 C1850 0.929 . S
H1847 C1856 0.929 . S
C1848 H1842 0.930 . S
C1848 C1849 1.367 . S
C1848 C1856 1.378 . S
C1849 C1848 1.367 . S
C1849 C1857 1.433 . S
C1850 H1846 0.929 . S
C1850 C1852 1.378 . S
C1850 C1854 1.350 . S
C1851 C1854 1.463 . S
C1851 C1856 1.350 . S
C1851 N1859 1.427 . S
C1852 H1843 0.930 . S
C1852 C1850 1.378 . S
C1852 C1853 1.367 . S
C1853 C1852 1.367 . S
C1853 C1855 1.433 . S
C1854 C1850 1.350 . S
C1854 C1851 1.463 . S
C1854 N1858 1.427 . S
C1855 H1845 0.929 . S
C1855 C1853 1.433 . S
C1855 N1858 1.384 . S
C1856 H1847 0.929 . S
C1856 C1848 1.378 . S
C1856 C1851 1.350 . S
C1857 H1844 0.929 . S
C1857 C1849 1.433 . S
C1857 N1859 1.384 . S
N1858 C1854 1.427 . S
N1858 C1855 1.384 . S
N1859 C1851 1.427 . S
N1859 C1857 1.384 . S
H1860 C1866 0.930 . S
H1861 C1870 0.930 . S
H1862 C1875 0.929 . S
H1863 C1873 0.929 1_565 S
H1864 C1868 0.929 . S
H1865 C1874 0.929 . S
C1866 H1860 0.930 . S
C1866 C1867 1.367 . S
C1866 C1874 1.378 . S
C1867 C1866 1.367 . S
C1867 C1875 1.433 . S
C1868 H1864 0.929 . S
C1868 C1870 1.378 . S
C1868 C1872 1.350 . S
C1869 C1872 1.463 . S
C1869 C1874 1.350 . S
C1869 N1877 1.427 . S
C1870 H1861 0.930 . S
C1870 C1868 1.378 . S
C1870 C1871 1.367 . S
C1871 C1870 1.367 . S
C1871 C1873 1.433 . S
C1872 C1868 1.350 . S
C1872 C1869 1.463 . S
C1872 N1876 1.427 . S
C1873 H1863 0.929 1_545 S
C1873 C1871 1.433 . S
C1873 N1876 1.384 . S
C1874 H1865 0.929 . S
C1874 C1866 1.378 . S
C1874 C1869 1.350 . S
C1875 H1862 0.929 . S
C1875 C1867 1.433 . S
C1875 N1877 1.384 . S
N1876 C1872 1.427 . S
N1876 C1873 1.384 . S
N1877 C1869 1.427 . S
N1877 C1875 1.384 . S
H1878 C1884 0.930 . S
H1879 C1888 0.930 . S
H1880 C1893 0.929 . S
H1881 C1891 0.929 . S
H1882 C1886 0.929 . S
H1883 C1892 0.929 . S
C1884 H1878 0.930 . S
C1884 C1885 1.367 . S
C1884 C1892 1.378 . S
C1885 C1884 1.367 . S
C1885 C1893 1.433 1_565 S
C1886 H1882 0.929 . S
C1886 C1888 1.378 . S
C1886 C1890 1.350 1_545 S
C1887 C1890 1.463 . S
C1887 C1892 1.350 . S
C1887 N1895 1.427 1_565 S
C1888 H1879 0.930 . S
C1888 C1886 1.378 . S
C1888 C1889 1.367 . S
C1889 C1888 1.367 . S
C1889 C1891 1.433 1_545 S
C1890 C1886 1.350 1_565 S
C1890 C1887 1.463 . S
C1890 N1894 1.427 . S
C1891 H1881 0.929 . S
C1891 C1889 1.433 1_565 S
C1891 N1894 1.384 . S
C1892 H1883 0.929 . S
C1892 C1884 1.378 . S
C1892 C1887 1.350 . S
C1893 H1880 0.929 . S
C1893 C1885 1.433 1_545 S
C1893 N1895 1.384 . S
N1894 C1890 1.427 . S
N1894 C1891 1.384 . S
N1895 C1887 1.427 1_545 S
N1895 C1893 1.384 . S
H1896 C1902 0.930 . S
H1897 C1906 0.930 . S
H1898 C1911 0.929 . S
H1899 C1909 0.929 . S
H1900 C1904 0.929 . S
H1901 C1910 0.929 . S
C1902 H1896 0.930 . S
C1902 C1903 1.367 . S
C1902 C1910 1.378 . S
C1903 C1902 1.367 . S
C1903 C1911 1.433 . S
C1904 H1900 0.929 . S
C1904 C1906 1.378 . S
C1904 C1908 1.350 . S
C1905 C1908 1.463 . S
C1905 C1910 1.350 . S
C1905 N1913 1.427 . S
C1906 H1897 0.930 . S
C1906 C1904 1.378 . S
C1906 C1907 1.367 . S
C1907 C1906 1.367 . S
C1907 C1909 1.433 . S
C1908 C1904 1.350 . S
C1908 C1905 1.463 . S
C1908 N1912 1.427 . S
C1909 H1899 0.929 . S
C1909 C1907 1.433 . S
C1909 N1912 1.384 . S
C1910 H1901 0.929 . S
C1910 C1902 1.378 . S
C1910 C1905 1.350 . S
C1911 H1898 0.929 . S
C1911 C1903 1.433 . S
C1911 N1913 1.384 . S
N1912 C1908 1.427 . S
N1912 C1909 1.384 . S
N1913 C1905 1.427 . S
N1913 C1911 1.384 . S
H1914 C1920 0.930 . S
H1915 C1924 0.930 . S
H1916 C1929 0.929 . S
H1917 C1927 0.929 . S
H1918 C1922 0.929 . S
H1919 C1928 0.929 . S
C1920 H1914 0.930 . S
C1920 C1921 1.367 1_554 S
C1920 C1928 1.378 . S
C1921 C1920 1.367 1_556 S
C1921 C1929 1.433 . S
C1922 H1918 0.929 . S
C1922 C1924 1.378 . S
C1922 C1926 1.350 . S
C1923 C1926 1.463 . S
C1923 C1928 1.350 1_556 S
C1923 N1931 1.427 . S
C1924 H1915 0.930 . S
C1924 C1922 1.378 . S
C1924 C1925 1.367 1_556 S
C1925 C1924 1.367 1_554 S
C1925 C1927 1.433 . S
C1926 C1922 1.350 . S
C1926 C1923 1.463 . S
C1926 N1930 1.427 1_556 S
C1927 H1917 0.929 . S
C1927 C1925 1.433 . S
C1927 N1930 1.384 . S
C1928 H1919 0.929 . S
C1928 C1920 1.378 . S
C1928 C1923 1.350 1_554 S
C1929 H1916 0.929 . S
C1929 C1921 1.433 . S
C1929 N1931 1.384 . S
N1930 C1926 1.427 1_554 S
N1930 C1927 1.384 . S
N1931 C1923 1.427 . S
N1931 C1929 1.384 . S
H1932 C1938 0.930 . S
H1933 C1942 0.930 . S
H1934 C1947 0.929 . S
H1935 C1945 0.929 . S
H1936 C1940 0.929 . S
H1937 C1946 0.929 . S
C1938 H1932 0.930 . S
C1938 C1939 1.367 . S
C1938 C1946 1.378 . S
C1939 C1938 1.367 . S
C1939 C1947 1.433 . S
C1940 H1936 0.929 . S
C1940 C1942 1.378 . S
C1940 C1944 1.350 . S
C1941 C1944 1.463 . S
C1941 C1946 1.350 . S
C1941 N1949 1.427 . S
C1942 H1933 0.930 . S
C1942 C1940 1.378 . S
C1942 C1943 1.367 . S
C1943 C1942 1.367 . S
C1943 C1945 1.433 . S
C1944 C1940 1.350 . S
C1944 C1941 1.463 . S
C1944 N1948 1.427 . S
C1945 H1935 0.929 . S
C1945 C1943 1.433 . S
C1945 N1948 1.384 . S
C1946 H1937 0.929 . S
C1946 C1938 1.378 . S
C1946 C1941 1.350 . S
C1947 H1934 0.929 . S
C1947 C1939 1.433 . S
C1947 N1949 1.384 . S
N1948 C1944 1.427 . S
N1948 C1945 1.384 . S
N1949 C1941 1.427 . S
N1949 C1947 1.384 . S
H1950 C1956 0.930 . S
H1951 C1960 0.930 . S
H1952 C1965 0.929 . S
H1953 C1963 0.929 . S
H1954 C1958 0.929 . S
H1955 C1964 0.893 1_556 S
C1956 H1950 0.930 . S
C1956 C1957 1.367 . S
C1956 C1964 1.378 . S
C1957 C1956 1.367 . S
C1957 C1965 1.433 . S
C1958 H1954 0.929 . S
C1958 C1960 1.378 . S
C1958 C1962 1.350 . S
C1959 C1962 1.463 . S
C1959 C1964 1.350 . S
C1959 N1967 1.427 . S
C1960 H1951 0.930 . S
C1960 C1958 1.378 . S
C1960 C1961 1.367 . S
C1961 C1960 1.367 . S
C1961 C1963 1.433 1_554 S
C1962 C1958 1.350 . S
C1962 C1959 1.463 . S
C1962 N1966 1.427 1_554 S
C1963 H1953 0.929 . S
C1963 C1961 1.433 1_556 S
C1963 N1966 1.384 . S
C1964 H1955 0.893 1_554 S
C1964 C1956 1.378 . S
C1964 C1959 1.350 . S
C1965 H1952 0.929 . S
C1965 C1957 1.433 . S
C1965 N1967 1.384 . S
N1966 C1962 1.427 1_556 S
N1966 C1963 1.384 . S
N1967 C1959 1.427 . S
N1967 C1965 1.384 . S
H1968 C1974 0.930 . S
H1969 C1978 0.930 . S
H1970 C1983 0.929 . S
H1971 C1981 0.929 . S
H1972 C1976 0.929 . S
H1973 C1982 0.929 . S
C1974 H1968 0.930 . S
C1974 C1975 1.367 . S
C1974 C1982 1.378 . S
C1975 C1974 1.367 . S
C1975 C1983 1.433 . S
C1976 H1972 0.929 . S
C1976 C1978 1.378 . S
C1976 C1980 1.350 . S
C1977 C1980 1.463 . S
C1977 C1982 1.350 . S
C1977 N1985 1.427 . S
C1978 H1969 0.930 . S
C1978 C1976 1.378 . S
C1978 C1979 1.367 . S
C1979 C1978 1.367 . S
C1979 C1981 1.433 . S
C1980 C1976 1.350 . S
C1980 C1977 1.463 . S
C1980 N1984 1.427 . S
C1981 H1971 0.929 . S
C1981 C1979 1.433 . S
C1981 N1984 1.384 . S
C1982 H1973 0.929 . S
C1982 C1974 1.378 . S
C1982 C1977 1.350 . S
C1983 H1970 0.929 . S
C1983 C1975 1.433 . S
C1983 N1985 1.384 . S
N1984 C1980 1.427 . S
N1984 C1981 1.384 . S
N1985 C1977 1.427 . S
N1985 C1983 1.384 . S
H1986 C1992 0.930 . S
H1987 C1996 0.930 . S
H1988 C2001 0.929 . S
H1989 C1999 0.929 . S
H1990 C1994 0.929 . S
H1991 C2000 0.929 . S
C1992 H1986 0.930 . S
C1992 C1993 1.367 . S
C1992 C2000 1.378 . S
C1993 C1992 1.367 . S
C1993 C2001 1.433 1_655 S
C1994 H1990 0.929 . S
C1994 C1996 1.378 . S
C1994 C1998 1.350 1_455 S
C1995 C1998 1.463 . S
C1995 C2000 1.350 . S
C1995 N2003 1.427 1_655 S
C1996 H1987 0.930 . S
C1996 C1994 1.378 . S
C1996 C1997 1.367 . S
C1997 C1996 1.367 . S
C1997 C1999 1.433 1_455 S
C1998 C1994 1.350 1_655 S
C1998 C1995 1.463 . S
C1998 N2002 1.427 . S
C1999 H1989 0.929 . S
C1999 C1997 1.433 1_655 S
C1999 N2002 1.384 . S
C2000 H1991 0.929 . S
C2000 C1992 1.378 . S
C2000 C1995 1.350 . S
C2001 H1988 0.929 . S
C2001 C1993 1.433 1_455 S
C2001 N2003 1.384 . S
N2002 C1998 1.427 . S
N2002 C1999 1.384 . S
N2003 C1995 1.427 1_455 S
N2003 C2001 1.384 . S
H2004 C2010 0.930 . S
H2005 C2014 0.930 . S
H2006 C2019 0.929 . S
H2007 C2017 0.929 . S
H2008 C2012 0.929 . S
H2009 C2018 0.929 . S
C2010 H2004 0.930 . S
C2010 C2011 1.367 . S
C2010 C2018 1.378 . S
C2011 C2010 1.367 . S
C2011 C2019 1.433 . S
C2012 H2008 0.929 . S
C2012 C2014 1.378 . S
C2012 C2016 1.350 . S
C2013 C2016 1.463 . S
C2013 C2018 1.350 . S
C2013 N2021 1.427 . S
C2014 H2005 0.930 . S
C2014 C2012 1.378 . S
C2014 C2015 1.367 . S
C2015 C2014 1.367 . S
C2015 C2017 1.433 . S
C2016 C2012 1.350 . S
C2016 C2013 1.463 . S
C2016 N2020 1.427 . S
C2017 H2007 0.929 . S
C2017 C2015 1.433 . S
C2017 N2020 1.384 . S
C2018 H2009 0.929 . S
C2018 C2010 1.378 . S
C2018 C2013 1.350 . S
C2019 H2006 0.929 . S
C2019 C2011 1.433 . S
C2019 N2021 1.384 . S
N2020 C2016 1.427 . S
N2020 C2017 1.384 . S
N2021 C2013 1.427 . S
N2021 C2019 1.384 . S
H2022 C2028 0.930 . S
H2023 C2032 0.930 . S
H2024 C2037 0.929 . S
H2025 C2035 0.929 . S
H2026 C2030 0.929 . S
H2027 C2036 0.929 . S
C2028 H2022 0.930 . S
C2028 C2029 1.367 . S
C2028 C2036 1.378 . S
C2029 C2028 1.367 . S
C2029 C2037 1.433 . S
C2030 H2026 0.929 . S
C2030 C2032 1.378 . S
C2030 C2034 1.350 1_655 S
C2031 C2034 1.463 . S
C2031 C2036 1.350 . S
C2031 N2039 1.427 . S
C2032 H2023 0.930 . S
C2032 C2030 1.378 . S
C2032 C2033 1.367 1_655 S
C2033 C2032 1.367 1_455 S
C2033 C2035 1.433 . S
C2034 C2030 1.350 1_455 S
C2034 C2031 1.463 . S
C2034 N2038 1.427 . S
C2035 H2025 0.929 . S
C2035 C2033 1.433 . S
C2035 N2038 1.384 . S
C2036 H2027 0.929 . S
C2036 C2028 1.378 . S
C2036 C2031 1.350 . S
C2037 H2024 0.929 . S
C2037 C2029 1.433 . S
C2037 N2039 1.384 . S
N2038 C2034 1.427 . S
N2038 C2035 1.384 . S
N2039 C2031 1.427 . S
N2039 C2037 1.384 . S
H2040 C2046 0.930 . S
H2041 C2050 0.930 . S
H2042 C2055 0.929 . S
H2043 C2053 0.929 . S
H2044 C2048 0.929 . S
H2045 C2054 0.929 . S
C2046 H2040 0.930 . S
C2046 C2047 1.367 . S
C2046 C2054 1.378 . S
C2047 C2046 1.367 . S
C2047 C2055 1.433 . S
C2048 H2044 0.929 . S
C2048 C2050 1.378 . S
C2048 C2052 1.350 . S
C2049 C2052 1.463 . S
C2049 C2054 1.350 . S
C2049 N2057 1.427 . S
C2050 H2041 0.930 . S
C2050 C2048 1.378 . S
C2050 C2051 1.367 . S
C2051 C2050 1.367 . S
C2051 C2053 1.433 . S
C2052 C2048 1.350 . S
C2052 C2049 1.463 . S
C2052 N2056 1.427 . S
C2053 H2043 0.929 . S
C2053 C2051 1.433 . S
C2053 N2056 1.384 . S
C2054 H2045 0.929 . S
C2054 C2046 1.378 . S
C2054 C2049 1.350 . S
C2055 H2042 0.929 . S
C2055 C2047 1.433 . S
C2055 N2057 1.384 . S
N2056 C2052 1.427 . S
N2056 C2053 1.384 . S
N2057 C2049 1.427 . S
N2057 C2055 1.384 . S
H2058 C2064 0.930 . S
H2059 C2068 0.930 . S
H2060 C2073 0.929 . S
H2061 C2071 0.929 . S
H2062 C2066 0.929 . S
H2063 C2072 0.929 . S
C2064 H2058 0.930 . S
C2064 C2065 1.367 . S
C2064 C2072 1.378 . S
C2065 C2064 1.367 . S
C2065 C2073 1.433 . S
C2066 H2062 0.929 . S
C2066 C2068 1.378 . S
C2066 C2070 1.350 . S
C2067 C2070 1.463 . S
C2067 C2072 1.350 . S
C2067 N2075 1.427 . S
C2068 H2059 0.930 . S
C2068 C2066 1.378 . S
C2068 C2069 1.367 . S
C2069 C2068 1.367 . S
C2069 C2071 1.433 . S
C2070 C2066 1.350 . S
C2070 C2067 1.463 . S
C2070 N2074 1.427 . S
C2071 H2061 0.929 . S
C2071 C2069 1.433 . S
C2071 N2074 1.384 . S
C2072 H2063 0.929 . S
C2072 C2064 1.378 . S
C2072 C2067 1.350 . S
C2073 H2060 0.929 . S
C2073 C2065 1.433 . S
C2073 N2075 1.384 . S
N2074 C2070 1.427 . S
N2074 C2071 1.384 . S
N2075 C2067 1.427 . S
N2075 C2073 1.384 . S
H2076 C2082 0.921 1_565 S
H2077 C2086 0.930 . S
H2078 C2091 0.929 . S
H2079 C2089 0.929 . S
H2080 C2084 0.929 . S
H2081 C2090 0.929 . S
C2082 H2076 0.921 1_545 S
C2082 C2083 1.367 . S
C2082 C2090 1.378 . S
C2083 C2082 1.367 . S
C2083 C2091 1.433 . S
C2084 H2080 0.929 . S
C2084 C2086 1.378 . S
C2084 C2088 1.350 . S
C2085 C2088 1.463 . S
C2085 C2090 1.350 . S
C2085 N2093 1.427 . S
C2086 H2077 0.930 . S
C2086 C2084 1.378 . S
C2086 C2087 1.367 . S
C2087 C2086 1.367 . S
C2087 C2089 1.433 . S
C2088 C2084 1.350 . S
C2088 C2085 1.463 . S
C2088 N2092 1.427 . S
C2089 H2079 0.929 . S
C2089 C2087 1.433 . S
C2089 N2092 1.384 . S
C2090 H2081 0.929 . S
C2090 C2082 1.378 . S
C2090 C2085 1.350 . S
C2091 H2078 0.929 . S
C2091 C2083 1.433 . S
C2091 N2093 1.384 . S
N2092 C2088 1.427 . S
N2092 C2089 1.384 . S
N2093 C2085 1.427 . S
N2093 C2091 1.384 . S
H2094 C2100 0.930 . S
H2095 C2104 0.930 . S
H2096 C2109 0.929 . S
H2097 C2107 0.929 . S
H2098 C2102 0.929 . S
H2099 C2108 0.929 . S
C2100 H2094 0.930 . S
C2100 C2101 1.367 . S
C2100 C2108 1.378 . S
C2101 C2100 1.367 . S
C2101 C2109 1.433 . S
C2102 H2098 0.929 . S
C2102 C2104 1.378 . S
C2102 C2106 1.350 . S
C2103 C2106 1.463 . S
C2103 C2108 1.350 . S
C2103 N2111 1.427 . S
C2104 H2095 0.930 . S
C2104 C2102 1.378 . S
C2104 C2105 1.367 . S
C2105 C2104 1.367 . S
C2105 C2107 1.433 . S
C2106 C2102 1.350 . S
C2106 C2103 1.463 . S
C2106 N2110 1.427 . S
C2107 H2097 0.929 . S
C2107 C2105 1.433 . S
C2107 N2110 1.384 . S
C2108 H2099 0.929 . S
C2108 C2100 1.378 . S
C2108 C2103 1.350 . S
C2109 H2096 0.929 . S
C2109 C2101 1.433 . S
C2109 N2111 1.384 . S
N2110 C2106 1.427 . S
N2110 C2107 1.384 . S
N2111 C2103 1.427 . S
N2111 C2109 1.384 . S
H2112 C2118 0.930 . S
H2113 C2122 0.930 . S
H2114 C2127 0.929 . S
H2115 C2125 0.929 . S
H2116 C2120 0.929 . S
H2117 C2126 0.929 . S
C2118 H2112 0.930 . S
C2118 C2119 1.367 . S
C2118 C2126 1.378 . S
C2119 C2118 1.367 . S
C2119 C2127 1.433 . S
C2120 H2116 0.929 . S
C2120 C2122 1.378 . S
C2120 C2124 1.350 . S
C2121 C2124 1.463 . S
C2121 C2126 1.350 . S
C2121 N2129 1.427 . S
C2122 H2113 0.930 . S
C2122 C2120 1.378 . S
C2122 C2123 1.367 . S
C2123 C2122 1.367 . S
C2123 C2125 1.433 . S
C2124 C2120 1.350 . S
C2124 C2121 1.463 . S
C2124 N2128 1.427 . S
C2125 H2115 0.929 . S
C2125 C2123 1.433 . S
C2125 N2128 1.384 . S
C2126 H2117 0.929 . S
C2126 C2118 1.378 . S
C2126 C2121 1.350 . S
C2127 H2114 0.929 . S
C2127 C2119 1.433 . S
C2127 N2129 1.384 . S
N2128 C2124 1.427 . S
N2128 C2125 1.384 . S
N2129 C2121 1.427 . S
N2129 C2127 1.384 . S
H2130 C2136 0.930 . S
H2131 C2140 0.930 . S
H2132 C2145 0.929 . S
H2133 C2143 0.929 . S
H2134 C2138 0.929 . S
H2135 C2144 0.929 . S
C2136 H2130 0.930 . S
C2136 C2137 1.367 . S
C2136 C2144 1.378 . S
C2137 C2136 1.367 . S
C2137 C2145 1.433 . S
C2138 H2134 0.929 . S
C2138 C2140 1.378 . S
C2138 C2142 1.350 . S
C2139 C2142 1.463 . S
C2139 C2144 1.350 . S
C2139 N2147 1.427 . S
C2140 H2131 0.930 . S
C2140 C2138 1.378 . S
C2140 C2141 1.367 . S
C2141 C2140 1.367 . S
C2141 C2143 1.433 . S
C2142 C2138 1.350 . S
C2142 C2139 1.463 . S
C2142 N2146 1.427 . S
C2143 H2133 0.929 . S
C2143 C2141 1.433 . S
C2143 N2146 1.384 . S
C2144 H2135 0.929 . S
C2144 C2136 1.378 . S
C2144 C2139 1.350 . S
C2145 H2132 0.929 . S
C2145 C2137 1.433 . S
C2145 N2147 1.384 . S
N2146 C2142 1.427 . S
N2146 C2143 1.384 . S
N2147 C2139 1.427 . S
N2147 C2145 1.384 . S
H2148 C2154 0.930 . S
H2149 C2158 0.930 . S
H2150 C2163 0.929 . S
H2151 C2161 0.929 . S
H2152 C2156 0.929 . S
H2153 C2162 0.929 . S
C2154 H2148 0.930 . S
C2154 C2155 1.367 . S
C2154 C2162 1.378 . S
C2155 C2154 1.367 . S
C2155 C2163 1.433 . S
C2156 H2152 0.929 . S
C2156 C2158 1.378 . S
C2156 C2160 1.350 . S
C2157 C2160 1.463 . S
C2157 C2162 1.350 . S
C2157 N2165 1.427 . S
C2158 H2149 0.930 . S
C2158 C2156 1.378 . S
C2158 C2159 1.367 . S
C2159 C2158 1.367 . S
C2159 C2161 1.433 . S
C2160 C2156 1.350 . S
C2160 C2157 1.463 . S
C2160 N2164 1.427 . S
C2161 H2151 0.929 . S
C2161 C2159 1.433 . S
C2161 N2164 1.384 . S
C2162 H2153 0.929 . S
C2162 C2154 1.378 . S
C2162 C2157 1.350 . S
C2163 H2150 0.929 . S
C2163 C2155 1.433 . S
C2163 N2165 1.384 . S
N2164 C2160 1.427 . S
N2164 C2161 1.384 . S
N2165 C2157 1.427 . S
N2165 C2163 1.384 . S
H2166 C2172 0.930 . S
H2167 C2176 0.930 . S
H2168 C2181 0.929 . S
H2169 C2179 0.929 . S
H2170 C2174 0.929 . S
H2171 C2180 0.929 . S
C2172 H2166 0.930 . S
C2172 C2173 1.367 . S
C2172 C2180 1.378 . S
C2173 C2172 1.367 . S
C2173 C2181 1.433 . S
C2174 H2170 0.929 . S
C2174 C2176 1.378 . S
C2174 C2178 1.350 . S
C2175 C2178 1.463 . S
C2175 C2180 1.350 . S
C2175 N2183 1.427 . S
C2176 H2167 0.930 . S
C2176 C2174 1.378 . S
C2176 C2177 1.367 . S
C2177 C2176 1.367 . S
C2177 C2179 1.433 . S
C2178 C2174 1.350 . S
C2178 C2175 1.463 . S
C2178 N2182 1.427 . S
C2179 H2169 0.929 . S
C2179 C2177 1.433 . S
C2179 N2182 1.384 . S
C2180 H2171 0.929 . S
C2180 C2172 1.378 . S
C2180 C2175 1.350 . S
C2181 H2168 0.929 . S
C2181 C2173 1.433 . S
C2181 N2183 1.384 . S
N2182 C2178 1.427 . S
N2182 C2179 1.384 . S
N2183 C2175 1.427 . S
N2183 C2181 1.384 . S
H2184 C2190 0.930 . S
H2185 C2194 0.930 . S
H2186 C2199 0.929 . S
H2187 C2197 0.929 . S
H2188 C2192 0.929 . S
H2189 C2198 0.929 . S
C2190 H2184 0.930 . S
C2190 C2191 1.367 . S
C2190 C2198 1.378 . S
C2191 C2190 1.367 . S
C2191 C2199 1.433 . S
C2192 H2188 0.929 . S
C2192 C2194 1.378 . S
C2192 C2196 1.350 . S
C2193 C2196 1.463 . S
C2193 C2198 1.350 . S
C2193 N2201 1.427 . S
C2194 H2185 0.930 . S
C2194 C2192 1.378 . S
C2194 C2195 1.367 . S
C2195 C2194 1.367 . S
C2195 C2197 1.433 . S
C2196 C2192 1.350 . S
C2196 C2193 1.463 . S
C2196 N2200 1.427 . S
C2197 H2187 0.929 . S
C2197 C2195 1.433 . S
C2197 N2200 1.384 . S
C2198 H2189 0.929 . S
C2198 C2190 1.378 . S
C2198 C2193 1.350 . S
C2199 H2186 0.929 . S
C2199 C2191 1.433 . S
C2199 N2201 1.384 . S
N2200 C2196 1.427 . S
N2200 C2197 1.384 . S
N2201 C2193 1.427 . S
N2201 C2199 1.384 . S
H2202 C2208 0.930 . S
H2203 C2212 0.930 . S
H2204 C2217 0.929 . S
H2205 C2215 0.929 . S
H2206 C2210 0.929 . S
H2207 C2216 0.929 . S
C2208 H2202 0.930 . S
C2208 C2209 1.367 . S
C2208 C2216 1.378 . S
C2209 C2208 1.367 . S
C2209 C2217 1.433 . S
C2210 H2206 0.929 . S
C2210 C2212 1.378 . S
C2210 C2214 1.350 . S
C2211 C2214 1.463 . S
C2211 C2216 1.350 . S
C2211 N2219 1.427 . S
C2212 H2203 0.930 . S
C2212 C2210 1.378 . S
C2212 C2213 1.367 . S
C2213 C2212 1.367 . S
C2213 C2215 1.433 . S
C2214 C2210 1.350 . S
C2214 C2211 1.463 . S
C2214 N2218 1.427 . S
C2215 H2205 0.929 . S
C2215 C2213 1.433 . S
C2215 N2218 1.384 . S
C2216 H2207 0.929 . S
C2216 C2208 1.378 . S
C2216 C2211 1.350 . S
C2217 H2204 0.929 . S
C2217 C2209 1.433 . S
C2217 N2219 1.384 . S
N2218 C2214 1.427 . S
N2218 C2215 1.384 . S
N2219 C2211 1.427 . S
N2219 C2217 1.384 . S
H2220 C2226 0.930 . S
H2221 C2230 0.930 . S
H2222 C2235 0.929 . S
H2223 C2233 0.929 . S
H2224 C2228 0.929 . S
H2225 C2234 0.929 . S
C2226 H2220 0.930 . S
C2226 C2227 1.367 . S
C2226 C2234 1.378 . S
C2227 C2226 1.367 . S
C2227 C2235 1.433 . S
C2228 H2224 0.929 . S
C2228 C2230 1.378 . S
C2228 C2232 1.350 . S
C2229 C2232 1.463 . S
C2229 C2234 1.350 . S
C2229 N2237 1.427 . S
C2230 H2221 0.930 . S
C2230 C2228 1.378 . S
C2230 C2231 1.367 . S
C2231 C2230 1.367 . S
C2231 C2233 1.433 . S
C2232 C2228 1.350 . S
C2232 C2229 1.463 . S
C2232 N2236 1.427 . S
C2233 H2223 0.929 . S
C2233 C2231 1.433 . S
C2233 N2236 1.384 . S
C2234 H2225 0.929 . S
C2234 C2226 1.378 . S
C2234 C2229 1.350 . S
C2235 H2222 0.929 . S
C2235 C2227 1.433 . S
C2235 N2237 1.384 . S
N2236 C2232 1.427 . S
N2236 C2233 1.384 . S
N2237 C2229 1.427 . S
N2237 C2235 1.384 . S
H2238 C2244 0.930 . S
H2239 C2248 0.930 . S
H2240 C2253 0.929 1_655 S
H2241 C2251 0.929 . S
H2242 C2246 0.929 . S
H2243 C2252 0.929 . S
C2244 H2238 0.930 . S
C2244 C2245 1.367 . S
C2244 C2252 1.378 . S
C2245 C2244 1.367 . S
C2245 C2253 1.433 . S
C2246 H2242 0.929 . S
C2246 C2248 1.378 . S
C2246 C2250 1.350 . S
C2247 C2250 1.463 . S
C2247 C2252 1.350 . S
C2247 N2255 1.427 . S
C2248 H2239 0.930 . S
C2248 C2246 1.378 . S
C2248 C2249 1.367 . S
C2249 C2248 1.367 . S
C2249 C2251 1.433 . S
C2250 C2246 1.350 . S
C2250 C2247 1.463 . S
C2250 N2254 1.427 . S
C2251 H2241 0.929 . S
C2251 C2249 1.433 . S
C2251 N2254 1.384 . S
C2252 H2243 0.929 . S
C2252 C2244 1.378 . S
C2252 C2247 1.350 . S
C2253 H2240 0.929 1_455 S
C2253 C2245 1.433 . S
C2253 N2255 1.384 . S
N2254 C2250 1.427 . S
N2254 C2251 1.384 . S
N2255 C2247 1.427 . S
N2255 C2253 1.384 . S
H2256 C2262 0.930 . S
H2257 C2266 0.930 . S
H2258 C2271 0.929 . S
H2259 C2269 0.929 . S
H2260 C2264 0.929 . S
H2261 C2270 0.929 . S
C2262 H2256 0.930 . S
C2262 C2263 1.367 . S
C2262 C2270 1.378 . S
C2263 C2262 1.367 . S
C2263 C2271 1.433 . S
C2264 H2260 0.929 . S
C2264 C2266 1.378 . S
C2264 C2268 1.350 . S
C2265 C2268 1.463 . S
C2265 C2270 1.350 . S
C2265 N2273 1.427 . S
C2266 H2257 0.930 . S
C2266 C2264 1.378 . S
C2266 C2267 1.367 . S
C2267 C2266 1.367 . S
C2267 C2269 1.433 . S
C2268 C2264 1.350 . S
C2268 C2265 1.463 . S
C2268 N2272 1.427 . S
C2269 H2259 0.929 . S
C2269 C2267 1.433 . S
C2269 N2272 1.384 . S
C2270 H2261 0.929 . S
C2270 C2262 1.378 . S
C2270 C2265 1.350 . S
C2271 H2258 0.929 . S
C2271 C2263 1.433 . S
C2271 N2273 1.384 . S
N2272 C2268 1.427 . S
N2272 C2269 1.384 . S
N2273 C2265 1.427 . S
N2273 C2271 1.384 . S
H2274 C2280 0.930 . S
H2275 C2284 0.930 . S
H2276 C2289 0.929 . S
H2277 C2287 0.929 . S
H2278 C2282 0.929 . S
H2279 C2288 0.929 . S
C2280 H2274 0.930 . S
C2280 C2281 1.367 . S
C2280 C2288 1.378 . S
C2281 C2280 1.367 . S
C2281 C2289 1.433 . S
C2282 H2278 0.929 . S
C2282 C2284 1.378 . S
C2282 C2286 1.350 . S
C2283 C2286 1.463 . S
C2283 C2288 1.350 . S
C2283 N2291 1.427 . S
C2284 H2275 0.930 . S
C2284 C2282 1.378 . S
C2284 C2285 1.367 . S
C2285 C2284 1.367 . S
C2285 C2287 1.433 . S
C2286 C2282 1.350 . S
C2286 C2283 1.463 . S
C2286 N2290 1.427 . S
C2287 H2277 0.929 . S
C2287 C2285 1.433 . S
C2287 N2290 1.384 . S
C2288 H2279 0.929 . S
C2288 C2280 1.378 . S
C2288 C2283 1.350 . S
C2289 H2276 0.929 . S
C2289 C2281 1.433 . S
C2289 N2291 1.384 . S
N2290 C2286 1.427 . S
N2290 C2287 1.384 . S
N2291 C2283 1.427 . S
N2291 C2289 1.384 . S
H2292 C2298 0.930 . S
H2293 C2302 0.930 . S
H2294 C2307 0.929 . S
H2295 C2305 0.929 . S
H2296 C2300 0.929 . S
H2297 C2306 0.929 . S
C2298 H2292 0.930 . S
C2298 C2299 1.367 . S
C2298 C2306 1.378 . S
C2299 C2298 1.367 . S
C2299 C2307 1.433 . S
C2300 H2296 0.929 . S
C2300 C2302 1.378 . S
C2300 C2304 1.350 . S
C2301 C2304 1.463 . S
C2301 C2306 1.350 . S
C2301 N2309 1.427 . S
C2302 H2293 0.930 . S
C2302 C2300 1.378 . S
C2302 C2303 1.367 . S
C2303 C2302 1.367 . S
C2303 C2305 1.433 . S
C2304 C2300 1.350 . S
C2304 C2301 1.463 . S
C2304 N2308 1.427 . S
C2305 H2295 0.929 . S
C2305 C2303 1.433 . S
C2305 N2308 1.384 . S
C2306 H2297 0.929 . S
C2306 C2298 1.378 . S
C2306 C2301 1.350 . S
C2307 H2294 0.929 . S
C2307 C2299 1.433 . S
C2307 N2309 1.384 . S
N2308 C2304 1.427 . S
N2308 C2305 1.384 . S
N2309 C2301 1.427 . S
N2309 C2307 1.384 . S
H2310 C2316 0.930 . S
H2311 C2320 0.930 . S
H2312 C2325 0.929 . S
H2313 C2323 0.929 . S
H2314 C2318 0.929 . S
H2315 C2324 0.929 . S
C2316 H2310 0.930 . S
C2316 C2317 1.367 . S
C2316 C2324 1.378 . S
C2317 C2316 1.367 . S
C2317 C2325 1.433 . S
C2318 H2314 0.929 . S
C2318 C2320 1.378 . S
C2318 C2322 1.350 . S
C2319 C2322 1.463 . S
C2319 C2324 1.350 . S
C2319 N2327 1.427 . S
C2320 H2311 0.930 . S
C2320 C2318 1.378 . S
C2320 C2321 1.367 . S
C2321 C2320 1.367 . S
C2321 C2323 1.433 . S
C2322 C2318 1.350 . S
C2322 C2319 1.463 . S
C2322 N2326 1.427 . S
C2323 H2313 0.929 . S
C2323 C2321 1.433 . S
C2323 N2326 1.384 . S
C2324 H2315 0.929 . S
C2324 C2316 1.378 . S
C2324 C2319 1.350 . S
C2325 H2312 0.929 . S
C2325 C2317 1.433 . S
C2325 N2327 1.384 . S
N2326 C2322 1.427 . S
N2326 C2323 1.384 . S
N2327 C2319 1.427 . S
N2327 C2325 1.384 . S
H2328 C2334 0.930 . S
H2329 C2338 0.930 . S
H2330 C2343 0.929 . S
H2331 C2341 0.929 . S
H2332 C2336 0.929 . S
H2333 C2342 0.929 . S
C2334 H2328 0.930 . S
C2334 C2335 1.367 . S
C2334 C2342 1.378 . S
C2335 C2334 1.367 . S
C2335 C2343 1.433 . S
C2336 H2332 0.929 . S
C2336 C2338 1.378 . S
C2336 C2340 1.350 . S
C2337 C2340 1.463 . S
C2337 C2342 1.350 . S
C2337 N2345 1.427 . S
C2338 H2329 0.930 . S
C2338 C2336 1.378 . S
C2338 C2339 1.367 . S
C2339 C2338 1.367 . S
C2339 C2341 1.433 . S
C2340 C2336 1.350 . S
C2340 C2337 1.463 . S
C2340 N2344 1.427 . S
C2341 H2331 0.929 . S
C2341 C2339 1.433 . S
C2341 N2344 1.384 . S
C2342 H2333 0.929 . S
C2342 C2334 1.378 . S
C2342 C2337 1.350 . S
C2343 H2330 0.929 . S
C2343 C2335 1.433 . S
C2343 N2345 1.384 . S
N2344 C2340 1.427 . S
N2344 C2341 1.384 . S
N2345 C2337 1.427 . S
N2345 C2343 1.384 . S
H2346 C2352 0.930 . S
H2347 C2356 0.930 . S
H2348 C2361 0.929 . S
H2349 C2359 0.929 . S
H2350 C2354 0.929 . S
H2351 C2360 0.929 . S
C2352 H2346 0.930 . S
C2352 C2353 1.367 . S
C2352 C2360 1.378 . S
C2353 C2352 1.367 . S
C2353 C2361 1.433 . S
C2354 H2350 0.929 . S
C2354 C2356 1.378 . S
C2354 C2358 1.350 . S
C2355 C2358 1.463 . S
C2355 C2360 1.350 . S
C2355 N2363 1.427 . S
C2356 H2347 0.930 . S
C2356 C2354 1.378 . S
C2356 C2357 1.367 . S
C2357 C2356 1.367 . S
C2357 C2359 1.433 . S
C2358 C2354 1.350 . S
C2358 C2355 1.463 . S
C2358 N2362 1.427 . S
C2359 H2349 0.929 . S
C2359 C2357 1.433 . S
C2359 N2362 1.384 . S
C2360 H2351 0.929 . S
C2360 C2352 1.378 . S
C2360 C2355 1.350 . S
C2361 H2348 0.929 . S
C2361 C2353 1.433 . S
C2361 N2363 1.384 . S
N2362 C2358 1.427 . S
N2362 C2359 1.384 . S
N2363 C2355 1.427 . S
N2363 C2361 1.384 . S
H2364 C2370 0.930 . S
H2365 C2374 0.930 . S
H2366 C2379 0.929 . S
H2367 C2377 0.929 . S
H2368 C2372 0.929 . S
H2369 C2378 0.929 . S
C2370 H2364 0.930 . S
C2370 C2371 1.367 . S
C2370 C2378 1.378 . S
C2371 C2370 1.367 . S
C2371 C2379 1.433 . S
C2372 H2368 0.929 . S
C2372 C2374 1.378 . S
C2372 C2376 1.350 . S
C2373 C2376 1.463 . S
C2373 C2378 1.350 . S
C2373 N2381 1.427 . S
C2374 H2365 0.930 . S
C2374 C2372 1.378 . S
C2374 C2375 1.367 . S
C2375 C2374 1.367 . S
C2375 C2377 1.433 . S
C2376 C2372 1.350 . S
C2376 C2373 1.463 . S
C2376 N2380 1.427 . S
C2377 H2367 0.929 . S
C2377 C2375 1.433 . S
C2377 N2380 1.384 . S
C2378 H2369 0.929 . S
C2378 C2370 1.378 . S
C2378 C2373 1.350 . S
C2379 H2366 0.929 . S
C2379 C2371 1.433 . S
C2379 N2381 1.384 . S
N2380 C2376 1.427 . S
N2380 C2377 1.384 . S
N2381 C2373 1.427 . S
N2381 C2379 1.384 . S
H2382 C2388 0.930 . S
H2383 C2392 0.930 . S
H2384 C2397 0.929 1_554 S
H2385 C2395 0.929 . S
H2386 C2390 0.929 . S
H2387 C2396 0.929 . S
C2388 H2382 0.930 . S
C2388 C2389 1.367 . S
C2388 C2396 1.378 . S
C2389 C2388 1.367 . S
C2389 C2397 1.433 . S
C2390 H2386 0.929 . S
C2390 C2392 1.378 . S
C2390 C2394 1.350 . S
C2391 C2394 1.463 . S
C2391 C2396 1.350 . S
C2391 N2399 1.427 . S
C2392 H2383 0.930 . S
C2392 C2390 1.378 . S
C2392 C2393 1.367 . S
C2393 C2392 1.367 . S
C2393 C2395 1.433 . S
C2394 C2390 1.350 . S
C2394 C2391 1.463 . S
C2394 N2398 1.427 . S
C2395 H2385 0.929 . S
C2395 C2393 1.433 . S
C2395 N2398 1.384 . S
C2396 H2387 0.929 . S
C2396 C2388 1.378 . S
C2396 C2391 1.350 . S
C2397 H2384 0.929 1_556 S
C2397 C2389 1.433 . S
C2397 N2399 1.384 . S
N2398 C2394 1.427 . S
N2398 C2395 1.384 . S
N2399 C2391 1.427 . S
N2399 C2397 1.384 . S
H2400 C2406 0.930 . S
H2401 C2410 0.930 . S
H2402 C2415 0.929 . S
H2403 C2413 0.929 . S
H2404 C2408 0.929 . S
H2405 C2414 0.929 . S
C2406 H2400 0.930 . S
C2406 C2407 1.367 . S
C2406 C2414 1.378 . S
C2407 C2406 1.367 . S
C2407 C2415 1.433 . S
C2408 H2404 0.929 . S
C2408 C2410 1.378 . S
C2408 C2412 1.350 . S
C2409 C2412 1.463 . S
C2409 C2414 1.350 . S
C2409 N2417 1.427 . S
C2410 H2401 0.930 . S
C2410 C2408 1.378 . S
C2410 C2411 1.367 . S
C2411 C2410 1.367 . S
C2411 C2413 1.433 . S
C2412 C2408 1.350 . S
C2412 C2409 1.463 . S
C2412 N2416 1.427 . S
C2413 H2403 0.929 . S
C2413 C2411 1.433 . S
C2413 N2416 1.384 . S
C2414 H2405 0.929 . S
C2414 C2406 1.378 . S
C2414 C2409 1.350 . S
C2415 H2402 0.929 . S
C2415 C2407 1.433 . S
C2415 N2417 1.384 . S
N2416 C2412 1.427 . S
N2416 C2413 1.384 . S
N2417 C2409 1.427 . S
N2417 C2415 1.384 . S
H2418 C2424 0.930 . S
H2419 C2428 0.930 . S
H2420 C2433 0.929 . S
H2421 C2431 0.929 . S
H2422 C2426 0.929 . S
H2423 C2432 0.929 . S
C2424 H2418 0.930 . S
C2424 C2425 1.367 . S
C2424 C2432 1.378 . S
C2425 C2424 1.367 . S
C2425 C2433 1.433 . S
C2426 H2422 0.929 . S
C2426 C2428 1.378 . S
C2426 C2430 1.350 . S
C2427 C2430 1.463 . S
C2427 C2432 1.350 . S
C2427 N2435 1.427 . S
C2428 H2419 0.930 . S
C2428 C2426 1.378 . S
C2428 C2429 1.367 . S
C2429 C2428 1.367 . S
C2429 C2431 1.433 . S
C2430 C2426 1.350 . S
C2430 C2427 1.463 . S
C2430 N2434 1.427 . S
C2431 H2421 0.929 . S
C2431 C2429 1.433 . S
C2431 N2434 1.384 . S
C2432 H2423 0.929 . S
C2432 C2424 1.378 . S
C2432 C2427 1.350 . S
C2433 H2420 0.929 . S
C2433 C2425 1.433 . S
C2433 N2435 1.384 . S
N2434 C2430 1.427 . S
N2434 C2431 1.384 . S
N2435 C2427 1.427 . S
N2435 C2433 1.384 . S
H2436 C2442 0.930 . S
H2437 C2446 0.930 . S
H2438 C2451 0.929 . S
H2439 C2449 0.929 . S
H2440 C2444 0.929 . S
H2441 C2450 0.929 . S
C2442 H2436 0.930 . S
C2442 C2443 1.367 . S
C2442 C2450 1.378 . S
C2443 C2442 1.367 . S
C2443 C2451 1.433 . S
C2444 H2440 0.929 . S
C2444 C2446 1.378 . S
C2444 C2448 1.350 . S
C2445 C2448 1.463 . S
C2445 C2450 1.350 . S
C2445 N2453 1.427 . S
C2446 H2437 0.930 . S
C2446 C2444 1.378 . S
C2446 C2447 1.367 . S
C2447 C2446 1.367 . S
C2447 C2449 1.433 . S
C2448 C2444 1.350 . S
C2448 C2445 1.463 . S
C2448 N2452 1.427 . S
C2449 H2439 0.929 . S
C2449 C2447 1.433 . S
C2449 N2452 1.384 . S
C2450 H2441 0.929 . S
C2450 C2442 1.378 . S
C2450 C2445 1.350 . S
C2451 H2438 0.929 . S
C2451 C2443 1.433 . S
C2451 N2453 1.384 . S
N2452 C2448 1.427 . S
N2452 C2449 1.384 . S
N2453 C2445 1.427 . S
N2453 C2451 1.384 . S
H2454 C2460 0.930 . S
H2455 C2464 0.930 . S
H2456 C2469 0.929 . S
H2457 C2467 0.929 . S
H2458 C2462 0.929 . S
H2459 C2468 0.929 . S
C2460 H2454 0.930 . S
C2460 C2461 1.367 . S
C2460 C2468 1.378 . S
C2461 C2460 1.367 . S
C2461 C2469 1.433 . S
C2462 H2458 0.929 . S
C2462 C2464 1.378 . S
C2462 C2466 1.350 . S
C2463 C2466 1.463 . S
C2463 C2468 1.350 . S
C2463 N2471 1.427 . S
C2464 H2455 0.930 . S
C2464 C2462 1.378 . S
C2464 C2465 1.367 . S
C2465 C2464 1.367 . S
C2465 C2467 1.433 . S
C2466 C2462 1.350 . S
C2466 C2463 1.463 . S
C2466 N2470 1.427 . S
C2467 H2457 0.929 . S
C2467 C2465 1.433 . S
C2467 N2470 1.384 . S
C2468 H2459 0.929 . S
C2468 C2460 1.378 . S
C2468 C2463 1.350 . S
C2469 H2456 0.929 . S
C2469 C2461 1.433 . S
C2469 N2471 1.384 . S
N2470 C2466 1.427 . S
N2470 C2467 1.384 . S
N2471 C2463 1.427 . S
N2471 C2469 1.384 . S
C1187 C1171 1.629 . S
C1183 C15 1.669 . S
C1205 C1144 2.472 . S
C1201 C55 2.053 . S
C1223 C1162 1.892 . S
C1219 C95 1.827 . S
C1241 C1153 2.117 . S
C1237 C135 2.045 . S
C1259 C1090 1.618 . S
C1255 C175 1.669 . S
C1273 C215 2.041 . S
C1277 C1099 2.125 . S
C1295 C1072 2.479 . S
C1291 C255 2.041 . S
C1309 C295 1.819 . S
C1313 C1081 1.881 . S
C1331 C1135 1.622 . S
C1327 C335 1.671 . S
C1345 C375 2.033 . S
C1349 C1117 2.122 . S
C1363 C415 2.035 . S
C1367 C1108 2.471 . S
C1385 C1126 1.885 . S
C1381 C455 1.816 . S
C1403 C1063 1.621 . S
C1399 C495 1.666 . S
C1417 C535 2.051 . S
C1421 C1036 2.487 . S
C1439 C1054 1.892 . S
C1435 C575 1.812 . S
C1453 C615 2.021 . S
C1457 C1045 2.126 . S
C1475 C982 1.615 . S
C1471 C655 1.669 . S
C1493 C991 2.120 . S
C1489 C695 2.031 . S
C1507 C735 2.052 . S
C1511 C964 2.488 . S
C1525 C775 1.809 . S
C1529 C973 1.885 . S
C1543 C815 1.664 . S
C1547 C1027 1.629 . S
C1561 C855 2.022 . S
C1565 C1009 2.128 . S
C1583 C1000 2.478 . S
C1579 C895 2.050 . S
C1597 C935 1.808 . S
C1601 C1018 1.885 . S
C1619 C965 1.407 . S
C1615 C21 1.435 . S
C1637 C974 1.075 . S
C1633 C61 1.071 . S
C1651 C101 1.433 . S
C1655 C983 1.438 . S
C1669 C141 1.025 . S
C1673 C992 1.041 . S
C1691 C1001 1.394 . S
C1687 C181 1.437 . S
C1705 C221 1.037 . S
C1709 C1010 1.045 . S
C1727 C1019 1.076 . S
C1723 C261 1.072 . S
C1745 C1028 1.444 . S
C1741 C301 1.437 . S
C1763 C1037 1.401 . S
C1759 C341 1.438 . S
C1777 C381 1.037 . S
C1781 C1046 1.045 . S
C1795 C421 1.068 . S
C1799 C1055 1.076 . S
C1813 C461 1.429 . S
C1817 C1064 1.447 . S
C1831 C501 1.390 . S
C1835 C1073 1.401 . S
C1849 C541 1.080 . S
C1853 C1082 1.074 . S
C1867 C581 1.305 . S
C1871 C1091 1.443 . S
C1885 C621 0.987 . S
C1889 C1100 1.050 . S
C1903 C661 1.391 . S
C1907 C1109 1.388 . S
C1925 C1118 1.042 . S
C1921 C701 0.955 . S
C1943 C1127 1.082 . S
C1939 C741 1.081 . S
C1961 C1136 1.442 . S
C1957 C781 1.295 . S
C1979 C1145 1.397 . S
C1975 C821 1.399 . S
C1993 C861 0.984 . S
C1997 C1154 1.047 . S
C2011 C901 1.077 . S
C2015 C1163 1.075 . S
C2029 C941 1.320 . S
C2033 C1172 1.452 . S
C2047 C2 1.828 . S
C2051 C1039 1.809 . S
C2069 C1066 2.176 . S
C2065 C42 2.031 . S
C2083 C82 1.580 . S
C2087 C1048 1.598 . S
C2105 C1057 2.299 . S
C2101 C122 2.244 . S
C2119 C162 1.826 . S
C2123 C967 1.805 . S
C2137 C202 2.249 . S
C2141 C976 2.305 . S
C2155 C242 2.033 . S
C2159 C985 2.162 . S
C2173 C282 1.575 . S
C2177 C994 1.599 . S
C2195 C1003 1.807 . S
C2191 C322 1.827 . S
C2213 C1021 2.299 . S
C2209 C362 2.244 . S
C2227 C402 2.029 . S
C2231 C1030 2.165 . S
C2245 C442 1.575 . S
C2249 C1012 1.595 . S
C2267 C1147 1.806 . S
C2263 C482 1.802 . S
C2285 C1174 2.182 . S
C2281 C522 2.086 . S
C2299 C562 1.474 . S
C2303 C1156 1.600 . S
C2321 C1165 2.313 . S
C2317 C602 2.142 . S
C2335 C642 1.799 . S
C2339 C1075 1.806 . S
C2353 C682 2.129 . S
C2357 C1084 2.307 . S
C2371 C722 2.105 . S
C2375 C1093 2.175 . S
C2393 C1102 1.606 . S
C2389 C762 1.458 . S
C2411 C1111 1.800 . S
C2407 C802 1.806 . S
C2429 C1129 2.307 . S
C2425 C842 2.128 . S
C2443 C882 2.101 . S
C2447 C1138 2.182 . S
C2465 C1120 1.609 . S
C2461 C922 1.468 . S
