# Generated by pormake.
# Topology ptr, (4,4)-cn, num edge types: 1
# Building blocks:
#     Node 0, Type 0, BuildingBlock: TATPOV_clean_sbu_0, # of connection points: 4
#     Node 1, Type 0, BuildingBlock: TATPOV_clean_sbu_0, # of connection points: 4
#     Node 2, Type 0, BuildingBlock: TATPOV_clean_sbu_0, # of connection points: 4
#     Node 3, Type 0, BuildingBlock: TATPOV_clean_sbu_0, # of connection points: 4
#     Node 4, Type 0, BuildingBlock: TATPOV_clean_sbu_0, # of connection points: 4
#     Node 5, Type 0, BuildingBlock: TATPOV_clean_sbu_0, # of connection points: 4
#     Node 6, Type 0, BuildingBlock: TATPOV_clean_sbu_0, # of connection points: 4
#     Node 7, Type 0, BuildingBlock: TATPOV_clean_sbu_0, # of connection points: 4
#     Node 8, Type 0, BuildingBlock: TATPOV_clean_sbu_0, # of connection points: 4
#     Node 9, Type 0, BuildingBlock: TATPOV_clean_sbu_0, # of connection points: 4
#     Node 10, Type 0, BuildingBlock: TATPOV_clean_sbu_0, # of connection points: 4
#     Node 11, Type 0, BuildingBlock: TATPOV_clean_sbu_0, # of connection points: 4
#     Node 12, Type 0, BuildingBlock: TATPOV_clean_sbu_0, # of connection points: 4
#     Node 13, Type 0, BuildingBlock: TATPOV_clean_sbu_0, # of connection points: 4
#     Node 14, Type 0, BuildingBlock: TATPOV_clean_sbu_0, # of connection points: 4
#     Node 15, Type 0, BuildingBlock: TATPOV_clean_sbu_0, # of connection points: 4
#     Node 16, Type 0, BuildingBlock: TATPOV_clean_sbu_0, # of connection points: 4
#     Node 17, Type 0, BuildingBlock: TATPOV_clean_sbu_0, # of connection points: 4
#     Node 18, Type 1, BuildingBlock: MUDLON_clean_linker_0, # of connection points: 4
#     Node 19, Type 1, BuildingBlock: MUDLON_clean_linker_0, # of connection points: 4
#     Node 20, Type 1, BuildingBlock: MUDLON_clean_linker_0, # of connection points: 4
#     Node 21, Type 1, BuildingBlock: MUDLON_clean_linker_0, # of connection points: 4
#     Node 22, Type 1, BuildingBlock: MUDLON_clean_linker_0, # of connection points: 4
#     Node 23, Type 1, BuildingBlock: MUDLON_clean_linker_0, # of connection points: 4
#     Node 24, Type 1, BuildingBlock: MUDLON_clean_linker_0, # of connection points: 4
#     Node 25, Type 1, BuildingBlock: MUDLON_clean_linker_0, # of connection points: 4
#     Node 26, Type 1, BuildingBlock: MUDLON_clean_linker_0, # of connection points: 4
#     Node 27, Type 1, BuildingBlock: MUDLON_clean_linker_0, # of connection points: 4
#     Node 28, Type 1, BuildingBlock: MUDLON_clean_linker_0, # of connection points: 4
#     Node 29, Type 1, BuildingBlock: MUDLON_clean_linker_0, # of connection points: 4
#     Node 30, Type 1, BuildingBlock: MUDLON_clean_linker_0, # of connection points: 4
#     Node 31, Type 1, BuildingBlock: MUDLON_clean_linker_0, # of connection points: 4
#     Node 32, Type 1, BuildingBlock: MUDLON_clean_linker_0, # of connection points: 4
#     Node 33, Type 1, BuildingBlock: MUDLON_clean_linker_0, # of connection points: 4
#     Node 34, Type 1, BuildingBlock: MUDLON_clean_linker_0, # of connection points: 4
#     Node 35, Type 1, BuildingBlock: MUDLON_clean_linker_0, # of connection points: 4
#     Edge 36, Type (0, 1), BuildingBlock: CIFDUS_clean_linker_0, # of connection points: 2
#     Edge 37, Type (0, 1), BuildingBlock: CIFDUS_clean_linker_0, # of connection points: 2
#     Edge 38, Type (0, 1), BuildingBlock: CIFDUS_clean_linker_0, # of connection points: 2
#     Edge 39, Type (0, 1), BuildingBlock: CIFDUS_clean_linker_0, # of connection points: 2
#     Edge 40, Type (0, 1), BuildingBlock: CIFDUS_clean_linker_0, # of connection points: 2
#     Edge 41, Type (0, 1), BuildingBlock: CIFDUS_clean_linker_0, # of connection points: 2
#     Edge 42, Type (0, 1), BuildingBlock: CIFDUS_clean_linker_0, # of connection points: 2
#     Edge 43, Type (0, 1), BuildingBlock: CIFDUS_clean_linker_0, # of connection points: 2
#     Edge 44, Type (0, 1), BuildingBlock: CIFDUS_clean_linker_0, # of connection points: 2
#     Edge 45, Type (0, 1), BuildingBlock: CIFDUS_clean_linker_0, # of connection points: 2
#     Edge 46, Type (0, 1), BuildingBlock: CIFDUS_clean_linker_0, # of connection points: 2
#     Edge 47, Type (0, 1), BuildingBlock: CIFDUS_clean_linker_0, # of connection points: 2
#     Edge 48, Type (0, 1), BuildingBlock: CIFDUS_clean_linker_0, # of connection points: 2
#     Edge 49, Type (0, 1), BuildingBlock: CIFDUS_clean_linker_0, # of connection points: 2
#     Edge 50, Type (0, 1), BuildingBlock: CIFDUS_clean_linker_0, # of connection points: 2
#     Edge 51, Type (0, 1), BuildingBlock: CIFDUS_clean_linker_0, # of connection points: 2
#     Edge 52, Type (0, 1), BuildingBlock: CIFDUS_clean_linker_0, # of connection points: 2
#     Edge 53, Type (0, 1), BuildingBlock: CIFDUS_clean_linker_0, # of connection points: 2
#     Edge 54, Type (0, 1), BuildingBlock: CIFDUS_clean_linker_0, # of connection points: 2
#     Edge 55, Type (0, 1), BuildingBlock: CIFDUS_clean_linker_0, # of connection points: 2
#     Edge 56, Type (0, 1), BuildingBlock: CIFDUS_clean_linker_0, # of connection points: 2
#     Edge 57, Type (0, 1), BuildingBlock: CIFDUS_clean_linker_0, # of connection points: 2
#     Edge 58, Type (0, 1), BuildingBlock: CIFDUS_clean_linker_0, # of connection points: 2
#     Edge 59, Type (0, 1), BuildingBlock: CIFDUS_clean_linker_0, # of connection points: 2
#     Edge 60, Type (0, 1), BuildingBlock: CIFDUS_clean_linker_0, # of connection points: 2
#     Edge 61, Type (0, 1), BuildingBlock: CIFDUS_clean_linker_0, # of connection points: 2
#     Edge 62, Type (0, 1), BuildingBlock: CIFDUS_clean_linker_0, # of connection points: 2
#     Edge 63, Type (0, 1), BuildingBlock: CIFDUS_clean_linker_0, # of connection points: 2
#     Edge 64, Type (0, 1), BuildingBlock: CIFDUS_clean_linker_0, # of connection points: 2
#     Edge 65, Type (0, 1), BuildingBlock: CIFDUS_clean_linker_0, # of connection points: 2
#     Edge 66, Type (0, 1), BuildingBlock: CIFDUS_clean_linker_0, # of connection points: 2
#     Edge 67, Type (0, 1), BuildingBlock: CIFDUS_clean_linker_0, # of connection points: 2
#     Edge 68, Type (0, 1), BuildingBlock: CIFDUS_clean_linker_0, # of connection points: 2
#     Edge 69, Type (0, 1), BuildingBlock: CIFDUS_clean_linker_0, # of connection points: 2
#     Edge 70, Type (0, 1), BuildingBlock: CIFDUS_clean_linker_0, # of connection points: 2
#     Edge 71, Type (0, 1), BuildingBlock: CIFDUS_clean_linker_0, # of connection points: 2
#     Edge 72, Type (0, 1), BuildingBlock: CIFDUS_clean_linker_0, # of connection points: 2
#     Edge 73, Type (0, 1), BuildingBlock: CIFDUS_clean_linker_0, # of connection points: 2
#     Edge 74, Type (0, 1), BuildingBlock: CIFDUS_clean_linker_0, # of connection points: 2
#     Edge 75, Type (0, 1), BuildingBlock: CIFDUS_clean_linker_0, # of connection points: 2
#     Edge 76, Type (0, 1), BuildingBlock: CIFDUS_clean_linker_0, # of connection points: 2
#     Edge 77, Type (0, 1), BuildingBlock: CIFDUS_clean_linker_0, # of connection points: 2
#     Edge 78, Type (0, 1), BuildingBlock: CIFDUS_clean_linker_0, # of connection points: 2
#     Edge 79, Type (0, 1), BuildingBlock: CIFDUS_clean_linker_0, # of connection points: 2
#     Edge 80, Type (0, 1), BuildingBlock: CIFDUS_clean_linker_0, # of connection points: 2
#     Edge 81, Type (0, 1), BuildingBlock: CIFDUS_clean_linker_0, # of connection points: 2
#     Edge 82, Type (0, 1), BuildingBlock: CIFDUS_clean_linker_0, # of connection points: 2
#     Edge 83, Type (0, 1), BuildingBlock: CIFDUS_clean_linker_0, # of connection points: 2
#     Edge 84, Type (0, 1), BuildingBlock: CIFDUS_clean_linker_0, # of connection points: 2
#     Edge 85, Type (0, 1), BuildingBlock: CIFDUS_clean_linker_0, # of connection points: 2
#     Edge 86, Type (0, 1), BuildingBlock: CIFDUS_clean_linker_0, # of connection points: 2
#     Edge 87, Type (0, 1), BuildingBlock: CIFDUS_clean_linker_0, # of connection points: 2
#     Edge 88, Type (0, 1), BuildingBlock: CIFDUS_clean_linker_0, # of connection points: 2
#     Edge 89, Type (0, 1), BuildingBlock: CIFDUS_clean_linker_0, # of connection points: 2
#     Edge 90, Type (0, 1), BuildingBlock: CIFDUS_clean_linker_0, # of connection points: 2
#     Edge 91, Type (0, 1), BuildingBlock: CIFDUS_clean_linker_0, # of connection points: 2
#     Edge 92, Type (0, 1), BuildingBlock: CIFDUS_clean_linker_0, # of connection points: 2
#     Edge 93, Type (0, 1), BuildingBlock: CIFDUS_clean_linker_0, # of connection points: 2
#     Edge 94, Type (0, 1), BuildingBlock: CIFDUS_clean_linker_0, # of connection points: 2
#     Edge 95, Type (0, 1), BuildingBlock: CIFDUS_clean_linker_0, # of connection points: 2
#     Edge 96, Type (0, 1), BuildingBlock: CIFDUS_clean_linker_0, # of connection points: 2
#     Edge 97, Type (0, 1), BuildingBlock: CIFDUS_clean_linker_0, # of connection points: 2
#     Edge 98, Type (0, 1), BuildingBlock: CIFDUS_clean_linker_0, # of connection points: 2
#     Edge 99, Type (0, 1), BuildingBlock: CIFDUS_clean_linker_0, # of connection points: 2
#     Edge 100, Type (0, 1), BuildingBlock: CIFDUS_clean_linker_0, # of connection points: 2
#     Edge 101, Type (0, 1), BuildingBlock: CIFDUS_clean_linker_0, # of connection points: 2
#     Edge 102, Type (0, 1), BuildingBlock: CIFDUS_clean_linker_0, # of connection points: 2
#     Edge 103, Type (0, 1), BuildingBlock: CIFDUS_clean_linker_0, # of connection points: 2
#     Edge 104, Type (0, 1), BuildingBlock: CIFDUS_clean_linker_0, # of connection points: 2
#     Edge 105, Type (0, 1), BuildingBlock: CIFDUS_clean_linker_0, # of connection points: 2
#     Edge 106, Type (0, 1), BuildingBlock: CIFDUS_clean_linker_0, # of connection points: 2
#     Edge 107, Type (0, 1), BuildingBlock: CIFDUS_clean_linker_0, # of connection points: 2
# Relax obj value: 0.058
# Max RMSD: 0.188
# Mean RMSD: 0.101
data_MOF--net-ptr--node1-TATPOV_clean_sbu_0--node2-MUDLON_clean_linker_0--edge1-CIFDUS_clean_linker_0
_symmetry_space_group_name_H-M    P1
_symmetry_Int_Tables_number       1
_symmetry_cell_setting            triclinic
loop_
_symmetry_equiv_pos_as_xyz
'x, y, z'
_cell_length_a     95.263295
_cell_length_b     96.491453
_cell_length_c     55.6995
_cell_angle_alpha  89.550082
_cell_angle_beta   91.000954
_cell_angle_gamma 121.32913
loop_
_atom_site_label
_atom_site_type_symbol
_atom_site_fract_x
_atom_site_fract_y
_atom_site_fract_z
_atom_type_partial_charge
Zn0 Zn 0.96279 0.3731 0.02153 0.0
Zn1 Zn 0.99155 0.37336 0.02332 0.0
O2 O 0.97351 0.34942 0.01913 0.0
O3 O 0.94995 0.34855 0.01813 0.0
O4 O 0.01176 0.37165 0.0267 0.0
O5 O 0.9685 0.38409 0.05433 0.0
O6 O 0.99143 0.38374 0.05531 0.0
C7 C 0.95788 0.34134 0.01733 0.0
C8 C 0.98532 0.39125 0.98285 0.0
O9 O 0.99485 0.38745 0.9934 0.0
O10 O 0.97125 0.38656 0.99123 0.0
C11 C 0.02508 0.37919 0.0151 0.0
O12 O 0.02686 0.38981 0.99868 0.0
C13 C 0.9817 0.3873 0.06508 0.0
Zn14 Zn 0.64158 0.60587 0.01847 0.0
Zn15 Zn 0.6388 0.63204 0.02162 0.0
O16 O 0.66342 0.6407 0.01536 0.0
O17 O 0.66605 0.6194 0.01408 0.0
O18 O 0.6386 0.65286 0.02597 0.0
O19 O 0.63196 0.59847 0.05107 0.0
O20 O 0.62965 0.61994 0.05391 0.0
C21 C 0.67241 0.63461 0.01287 0.0
C22 C 0.62022 0.60715 0.98184 0.0
O23 O 0.62368 0.62034 0.99219 0.0
O24 O 0.62641 0.59908 0.98965 0.0
C25 C 0.64871 0.6656 0.01456 0.0
O26 O 0.65827 0.66475 0.99869 0.0
C27 C 0.62764 0.6068 0.06277 0.0
Zn28 Zn 0.37016 0.9754 0.0202 0.0
Zn29 Zn 0.37423 0.00454 0.01039 0.0
O30 O 0.34965 0.98991 0.01819 0.0
O31 O 0.3456 0.96542 0.02244 0.0
O32 O 0.3759 0.02568 0.0013 0.0
O33 O 0.38077 0.97582 0.9889 0.0
O34 O 0.38186 0.99861 0.97973 0.0
C35 C 0.34 0.97479 0.02199 0.0
C36 C 0.39165 1.00055 0.05405 0.0
O37 O 0.38971 0.0099 0.0399 0.0
O38 O 0.38423 0.98544 0.04994 0.0
C39 C 0.36882 0.03132 0.01352 0.0
O40 O 0.36111 0.0237 0.03313 0.0
C41 C 0.38424 0.9872 0.9742 0.0
Zn42 Zn 0.04286 0.63719 0.01391 0.0
Zn43 Zn 0.01574 0.63889 0.01871 0.0
O44 O 0.035 0.66263 0.02188 0.0
O45 O 0.05715 0.66167 0.01491 0.0
O46 O 0.99541 0.64072 0.01847 0.0
O47 O 0.03487 0.62546 0.98245 0.0
O48 O 0.01288 0.62717 0.98624 0.0
C49 C 0.05053 0.6698 0.0195 0.0
C50 C 0.02373 0.62083 0.05647 0.0
O51 O 0.01415 0.6255 0.04882 0.0
O52 O 0.03647 0.62428 0.04483 0.0
C53 C 0.99583 0.65231 0.00674 0.0
O54 O 0.00952 0.6629 0.99613 0.0
C55 C 0.02111 0.62259 0.9744 0.0
Zn56 Zn 0.3741 0.40741 0.01475 0.0
Zn57 Zn 0.3691 0.37739 0.01294 0.0
O58 O 0.346 0.37332 0.0203 0.0
O59 O 0.35045 0.39801 0.02368 0.0
O60 O 0.3655 0.35486 0.00884 0.0
O61 O 0.38086 0.4116 0.98028 0.0
O62 O 0.37828 0.38758 0.97975 0.0
C63 C 0.34071 0.38279 0.02446 0.0
C64 C 0.39407 0.40231 0.049 0.0
O65 O 0.38604 0.38778 0.04102 0.0
O66 O 0.39146 0.41295 0.0403 0.0
C67 C 0.35401 0.34212 0.01865 0.0
O68 O 0.34402 0.34336 0.03322 0.0
C69 C 0.38211 0.40088 0.96927 0.0
Zn70 Zn 0.62732 0.02882 0.01114 0.0
Zn71 Zn 0.62566 0.99997 0.01424 0.0
O72 O 0.65013 0.01625 0.00792 0.0
O73 O 0.65164 0.03974 0.00471 0.0
O74 O 0.62493 0.97896 0.02045 0.0
O75 O 0.61971 0.02693 0.04521 0.0
O76 O 0.61646 0.00261 0.04596 0.0
C77 C 0.65854 0.03151 0.00436 0.0
C78 C 0.606 0.00487 0.97505 0.0
O79 O 0.611 0.99611 0.98457 0.0
O80 O 0.61068 0.01881 0.98354 0.0
C81 C 0.63249 0.97373 0.00849 0.0
O82 O 0.64087 0.98188 0.98961 0.0
C83 C 0.61521 0.01372 0.05603 0.0
Zn84 Zn 0.6361 0.70628 0.35372 0.0
Zn85 Zn 0.66524 0.70749 0.35629 0.0
O86 O 0.64715 0.6832 0.35361 0.0
O87 O 0.62346 0.68189 0.34997 0.0
O88 O 0.68602 0.70668 0.36032 0.0
O89 O 0.6409 0.71681 0.3867 0.0
O90 O 0.6653 0.71943 0.38683 0.0
C91 C 0.63158 0.67487 0.35077 0.0
C92 C 0.65878 0.72442 0.31492 0.0
O93 O 0.66823 0.72047 0.32534 0.0
O94 O 0.64489 0.72009 0.32369 0.0
C95 C 0.68719 0.69545 0.35057 0.0
O96 O 0.67521 0.68496 0.33644 0.0
C97 C 0.65479 0.72185 0.3967 0.0
Zn98 Zn 0.31958 0.93812 0.356 0.0
Zn99 Zn 0.31645 0.96356 0.36212 0.0
O100 O 0.34137 0.97362 0.35525 0.0
O101 O 0.34389 0.95225 0.35262 0.0
O102 O 0.31492 0.98319 0.37049 0.0
O103 O 0.31047 0.92877 0.38799 0.0
O104 O 0.3074 0.94961 0.39321 0.0
C105 C 0.3503 0.96747 0.35244 0.0
C106 C 0.298 0.94021 0.32066 0.0
O107 O 0.30137 0.95301 0.33216 0.0
O108 O 0.30436 0.93205 0.32729 0.0
C109 C 0.32179 0.99654 0.35901 0.0
O110 O 0.33 0.9979 0.33954 0.0
C111 C 0.30588 0.93639 0.40084 0.0
Zn112 Zn 0.04047 0.30685 0.34954 0.0
Zn113 Zn 0.04086 0.33453 0.35457 0.0
O114 O 0.01646 0.31649 0.36019 0.0
O115 O 0.01651 0.29378 0.35721 0.0
O116 O 0.04024 0.35526 0.35305 0.0
O117 O 0.04807 0.31163 0.3154 0.0
O118 O 0.05074 0.33538 0.32144 0.0
C119 C 0.00888 0.30103 0.36114 0.0
C120 C 0.06178 0.32754 0.38862 0.0
O121 O 0.05642 0.33683 0.38282 0.0
O122 O 0.0571 0.31463 0.37682 0.0
C123 C 0.03032 0.35772 0.3646 0.0
O124 O 0.02049 0.34681 0.38016 0.0
C125 C 0.05253 0.32575 0.3081 0.0
Zn126 Zn 0.70536 0.95966 0.34792 0.0
Zn127 Zn 0.68167 0.9654 0.33797 0.0
O128 O 0.70157 0.9884 0.34486 0.0
O129 O 0.72083 0.98335 0.35535 0.0
O130 O 0.66397 0.97002 0.32781 0.0
O131 O 0.70459 0.95122 0.3151 0.0
O132 O 0.68335 0.95385 0.30752 0.0
C133 C 0.7162 0.99339 0.35214 0.0
C134 C 0.67866 0.94359 0.38048 0.0
O135 O 0.67337 0.95153 0.36903 0.0
O136 O 0.69169 0.94429 0.37406 0.0
C137 C 0.65266 0.96916 0.34074 0.0
O138 O 0.6516 0.96465 0.36328 0.0
C139 C 0.69325 0.94945 0.30096 0.0
Zn140 Zn 0.02535 0.7349 0.34839 0.0
Zn141 Zn 0.02546 0.70716 0.34559 0.0
O142 O 1.00109 0.70035 0.35056 0.0
O143 O 1.00088 0.72303 0.35112 0.0
O144 O 0.02324 0.68547 0.3387 0.0
O145 O 0.03572 0.74229 0.31603 0.0
O146 O 0.03722 0.72027 0.31521 0.0
C147 C 0.99324 0.70771 0.35219 0.0
C148 C 0.04414 0.73017 0.38666 0.0
O149 O 0.03995 0.71688 0.376 0.0
O150 O 0.03943 0.73943 0.37848 0.0
C151 C 0.03209 0.68002 0.34648 0.0
O152 O 0.04429 0.68882 0.36153 0.0
C153 C 0.04015 0.73357 0.30574 0.0
Zn154 Zn 0.30435 0.36958 0.33461 0.0
Zn155 Zn 0.30239 0.34145 0.3427 0.0
O156 O 0.32728 0.35791 0.337 0.0
O157 O 0.3289 0.38148 0.33492 0.0
O158 O 0.30113 0.32004 0.34902 0.0
O159 O 0.29241 0.36724 0.36509 0.0
O160 O 0.29293 0.34519 0.37357 0.0
C161 C 0.33587 0.37334 0.33513 0.0
C162 C 0.28521 0.3459 0.29872 0.0
O163 O 0.28741 0.3366 0.3126 0.0
O164 O 0.29192 0.36085 0.30343 0.0
C165 C 0.3129 0.31939 0.35903 0.0
O166 O 0.32624 0.33297 0.3656 0.0
C167 C 0.28931 0.35573 0.37932 0.0
Zn168 Zn 0.29374 0.03751 0.68325 0.0
Zn169 Zn 0.32419 0.04158 0.68339 0.0
O170 O 0.30737 0.01688 0.68144 0.0
O171 O 0.28257 0.01314 0.68231 0.0
O172 O 0.34577 0.04209 0.68573 0.0
O173 O 0.29923 0.04933 0.71507 0.0
O174 O 0.3242 0.05333 0.71424 0.0
C175 C 0.2918 0.00736 0.68109 0.0
C176 C 0.31399 0.05538 0.64199 0.0
O177 O 0.32502 0.05357 0.65223 0.0
O178 O 0.30007 0.04974 0.65158 0.0
C179 C 0.34743 0.03211 0.67312 0.0
O180 O 0.33581 0.02292 0.65751 0.0
C181 C 0.31341 0.05519 0.72448 0.0
Zn182 Zn 0.97573 0.27536 0.68133 0.0
Zn183 Zn 0.97559 0.3023 0.69066 0.0
O184 O 1.0001 0.31089 0.68306 0.0
O185 O 0.99974 0.28853 0.67413 0.0
O186 O 0.97552 0.32226 0.70126 0.0
O187 O 0.96853 0.26655 0.71452 0.0
O188 O 0.96594 0.28764 0.72065 0.0
C189 C 0.00758 0.30381 0.67645 0.0
C190 C 0.95466 0.28063 0.6491 0.0
O191 O 0.96027 0.29383 0.66082 0.0
O192 O 0.95902 0.27067 0.65491 0.0
C193 C 0.98185 0.33572 0.69018 0.0
O194 O 0.98898 0.3373 0.66952 0.0
C195 C 0.96435 0.27432 0.72783 0.0
Zn196 Zn 0.71197 0.64297 0.69664 0.0
Zn197 Zn 0.70963 0.66909 0.68871 0.0
O198 O 0.68656 0.65125 0.69957 0.0
O199 O 0.68864 0.63011 0.7082 0.0
O200 O 0.70512 0.68675 0.67929 0.0
O201 O 0.71677 0.64189 0.66202 0.0
O202 O 0.71726 0.66474 0.65648 0.0
C203 C 0.6801 0.63669 0.70696 0.0
C204 C 0.73476 0.67121 0.72535 0.0
O205 O 0.72738 0.67787 0.71596 0.0
O206 O 0.73075 0.65695 0.7194 0.0
C207 C 0.71146 0.70141 0.68603 0.0
O208 O 0.7235 0.70752 0.70202 0.0
C209 C 0.71907 0.65343 0.64842 0.0
Zn210 Zn 0.37698 0.3005 0.67661 0.0
Zn211 Zn 0.34815 0.2994 0.67261 0.0
O212 O 0.36576 0.32364 0.67716 0.0
O213 O 0.38952 0.32497 0.67863 0.0
O214 O 0.32735 0.30006 0.66791 0.0
O215 O 0.37284 0.28927 0.64475 0.0
O216 O 0.34911 0.28798 0.64182 0.0
C217 C 0.38138 0.33196 0.67913 0.0
C218 C 0.35396 0.28259 0.71485 0.0
O219 O 0.34462 0.28631 0.70353 0.0
O220 O 0.36812 0.28713 0.70698 0.0
C221 C 0.32427 0.30829 0.68231 0.0
O222 O 0.33431 0.31551 0.70065 0.0
C223 C 0.35957 0.2849 0.63334 0.0
Zn224 Zn 0.69706 0.06953 0.67263 0.0
Zn225 Zn 0.69408 0.04038 0.67516 0.0
O226 O 0.67037 0.03546 0.6804 0.0
O227 O 0.67294 0.05947 0.67893 0.0
O228 O 0.69102 0.01797 0.67291 0.0
O229 O 0.70517 0.07313 0.63883 0.0
O230 O 0.70525 0.05046 0.6427 0.0
C231 C 0.66402 0.04426 0.68163 0.0
C232 C 0.71656 0.06654 0.71099 0.0
O233 O 0.70952 0.05179 0.70417 0.0
O234 O 0.71359 0.07638 0.70017 0.0
C235 C 0.70107 0.01417 0.68137 0.0
O236 O 0.71411 0.02507 0.69347 0.0
C237 C 0.70849 0.06301 0.63054 0.0
Zn238 Zn 0.96839 0.70433 0.67484 0.0
Zn239 Zn 0.96799 0.67621 0.67562 0.0
O240 O 0.9923 0.69391 0.67018 0.0
O241 O 0.99304 0.71705 0.67182 0.0
O242 O 0.96928 0.65606 0.67976 0.0
O243 O 0.95795 0.69966 0.70742 0.0
O244 O 0.9579 0.67684 0.7077 0.0
C245 C 1.0004 0.70938 0.66941 0.0
C246 C 0.94902 0.68184 0.63613 0.0
O247 O 0.95293 0.67237 0.6462 0.0
O248 O 0.95422 0.69585 0.64471 0.0
C249 C 0.95763 0.64156 0.67589 0.0
O250 O 0.94351 0.63893 0.66732 0.0
C251 C 0.95461 0.6866 0.71782 0.0
H252 H 0.23469 0.35336 0.12557 0.0
N253 N 0.20827 0.32433 0.11067 0.0
H254 H 0.2507 0.35848 0.162 0.0
H255 H 0.20299 0.30335 0.14584 0.0
H256 H 0.22032 0.30781 0.18134 0.0
H257 H 0.21981 0.30559 0.09873 0.0
H258 H 0.24349 0.31305 0.07384 0.0
H259 H 0.22116 0.34929 0.07687 0.0
H260 H 0.24415 0.35635 0.05136 0.0
H261 H 0.21392 0.35549 0.11305 0.0
H262 H 0.17593 0.30517 0.10465 0.0
H263 H 0.19364 0.36324 0.11155 0.0
H264 H 0.15512 0.31282 0.10461 0.0
H265 H 0.11562 0.37394 0.14392 0.0
H266 H 0.09889 0.36497 0.17976 0.0
H267 H 0.09697 0.31918 0.17648 0.0
H268 H 0.11238 0.3278 0.13942 0.0
H269 H 0.09667 0.33035 0.09853 0.0
H270 H 0.07585 0.33071 0.07287 0.0
H271 H 0.10658 0.38289 0.06727 0.0
H272 H 0.12764 0.38221 0.09193 0.0
H273 H 0.15353 0.37094 0.13752 0.0
H274 H 0.17388 0.36299 0.13522 0.0
H275 H 0.14266 0.32531 0.08436 0.0
N276 N 0.12415 0.35709 0.11679 0.0
H277 H 0.122 0.33278 0.0879 0.0
C278 C 0.21715 0.32804 0.13332 0.0
C279 C 0.23087 0.34352 0.13818 0.0
C280 C 0.24045 0.34629 0.15883 0.0
C281 C 0.23713 0.33352 0.17468 0.0
C282 C 0.22324 0.31806 0.16992 0.0
C283 C 0.2133 0.31544 0.14957 0.0
C284 C 0.21879 0.32695 0.09049 0.0
C285 C 0.2248 0.31648 0.08793 0.0
C286 C 0.23837 0.32078 0.07361 0.0
C287 C 0.24608 0.33557 0.06109 0.0
C288 C 0.23891 0.34516 0.06149 0.0
C289 C 0.22554 0.34101 0.07617 0.0
C290 C 0.19657 0.32961 0.10874 0.0
C291 C 0.20123 0.34599 0.11094 0.0
C292 C 0.18946 0.35047 0.1103 0.0
C293 C 0.17261 0.33869 0.10822 0.0
C294 C 0.16795 0.32231 0.10589 0.0
C295 C 0.17983 0.31787 0.10605 0.0
C296 C 0.11549 0.35172 0.13917 0.0
C297 C 0.11161 0.362 0.15108 0.0
C298 C 0.10212 0.35684 0.17173 0.0
C299 C 0.09657 0.34133 0.18137 0.0
C300 C 0.1007 0.33109 0.16952 0.0
C301 C 0.10981 0.33611 0.14843 0.0
C302 C 0.11382 0.3563 0.09697 0.0
C303 C 0.09925 0.34176 0.09084 0.0
C304 C 0.08721 0.34204 0.07648 0.0
C305 C 0.08934 0.35687 0.06836 0.0
C306 C 0.10449 0.37122 0.07297 0.0
C307 C 0.1166 0.37089 0.08708 0.0
C308 C 0.1363 0.35268 0.11281 0.0
C309 C 0.15117 0.36105 0.12572 0.0
C310 C 0.16284 0.35651 0.12423 0.0
C311 C 0.16007 0.34354 0.10941 0.0
C312 C 0.14519 0.33523 0.09618 0.0
C313 C 0.13336 0.33964 0.09799 0.0
H314 H 0.69048 0.77367 0.13822 0.0
N315 N 0.67416 0.78586 0.11641 0.0
H316 H 0.68621 0.7621 0.17855 0.0
H317 H 0.65481 0.78739 0.15148 0.0
H318 H 0.65134 0.77696 0.19185 0.0
H319 H 0.64467 0.75729 0.12189 0.0
H320 H 0.63495 0.73289 0.09826 0.0
H321 H 0.68477 0.78399 0.07334 0.0
H322 H 0.67415 0.76005 0.0479 0.0
H323 H 0.6998 0.8154 0.10947 0.0
H324 H 0.64693 0.7882 0.10971 0.0
H325 H 0.69985 0.84039 0.10255 0.0
H326 H 0.64669 0.8133 0.10496 0.0
H327 H 0.69844 0.91778 0.12138 0.0
H328 H 0.69834 0.92907 0.16054 0.0
H329 H 0.65043 0.88712 0.17433 0.0
H330 H 0.65069 0.87592 0.13492 0.0
H331 H 0.64303 0.88055 0.0948 0.0
H332 H 0.63284 0.89325 0.06713 0.0
H333 H 0.68192 0.92367 0.03982 0.0
H334 H 0.69179 0.9105 0.06706 0.0
H335 H 0.69723 0.88409 0.12123 0.0
H336 H 0.69639 0.85856 0.12321 0.0
H337 H 0.6505 0.83536 0.08283 0.0
N338 N 0.67524 0.89 0.10216 0.0
H339 H 0.65087 0.86079 0.08268 0.0
C340 C 0.67309 0.78147 0.14154 0.0
C341 C 0.68208 0.7746 0.15002 0.0
C342 C 0.67966 0.76804 0.17314 0.0
C343 C 0.66827 0.7684 0.18849 0.0
C344 C 0.6599 0.77606 0.18039 0.0
C345 C 0.66208 0.78231 0.15715 0.0
C346 C 0.66585 0.7724 0.09983 0.0
C347 C 0.65116 0.75803 0.10573 0.0
C348 C 0.64548 0.744 0.09189 0.0
C349 C 0.65398 0.74416 0.07132 0.0
C350 C 0.66763 0.7591 0.06413 0.0
C351 C 0.67361 0.77295 0.07843 0.0
C352 C 0.67344 0.80008 0.11061 0.0
C353 C 0.68819 0.81491 0.10817 0.0
C354 C 0.68814 0.82921 0.10452 0.0
C355 C 0.67328 0.82911 0.10387 0.0
C356 C 0.65841 0.81401 0.10528 0.0
C357 C 0.65849 0.79961 0.10824 0.0
C358 C 0.67465 0.89608 0.12539 0.0
C359 C 0.68795 0.91106 0.13291 0.0
C360 C 0.68787 0.91743 0.15525 0.0
C361 C 0.6744 0.90894 0.17054 0.0
C362 C 0.66091 0.89398 0.16283 0.0
C363 C 0.66105 0.88755 0.14043 0.0
C364 C 0.6682 0.89457 0.08287 0.0
C365 C 0.65147 0.88959 0.08233 0.0
C366 C 0.6457 0.897 0.06665 0.0
C367 C 0.65659 0.90966 0.05141 0.0
C368 C 0.67312 0.91386 0.05103 0.0
C369 C 0.67882 0.90637 0.06661 0.0
C370 C 0.67423 0.87452 0.10183 0.0
C371 C 0.68696 0.87347 0.11285 0.0
C372 C 0.68653 0.85881 0.11367 0.0
C373 C 0.67349 0.84474 0.10285 0.0
C374 C 0.66069 0.8458 0.09162 0.0
C375 C 0.66095 0.86049 0.09132 0.0
H376 H 0.12872 0.76169 0.16098 0.0
N377 N 0.13392 0.78773 0.13698 0.0
H378 H 0.11127 0.74919 0.19565 0.0
H379 H 0.11816 0.8 0.1617 0.0
H380 H 0.10161 0.78833 0.19747 0.0
H381 H 0.1058 0.78533 0.11906 0.0
H382 H 0.08729 0.76583 0.089 0.0
H383 H 0.14019 0.76974 0.10874 0.0
H384 H 0.12141 0.74945 0.0799 0.0
H385 H 0.16385 0.80349 0.15612 0.0
H386 H 0.12966 0.81108 0.11505 0.0
H387 H 0.18367 0.83263 0.15613 0.0
H388 H 0.14964 0.8401 0.11388 0.0
H389 H 0.2427 0.90611 0.14974 0.0
H390 H 0.25723 0.91457 0.18809 0.0
H391 H 0.22309 0.92803 0.21242 0.0
H392 H 0.2085 0.91952 0.17348 0.0
H393 H 0.24116 0.93863 0.13185 0.0
H394 H 0.2626 0.94982 0.10209 0.0
H395 H 0.23619 0.90535 0.06128 0.0
H396 H 0.21484 0.89401 0.09105 0.0
H397 H 0.222 0.8829 0.13219 0.0
H398 H 0.20189 0.85402 0.13146 0.0
H399 H 0.16283 0.86408 0.13739 0.0
N400 N 0.21584 0.90765 0.13566 0.0
H401 H 0.18324 0.89322 0.13719 0.0
C402 C 0.12491 0.78183 0.15896 0.0
C403 C 0.12291 0.76759 0.16906 0.0
C404 C 0.11298 0.76053 0.18899 0.0
C405 C 0.10498 0.76772 0.19957 0.0
C406 C 0.1073 0.78224 0.18964 0.0
C407 C 0.11699 0.78911 0.16935 0.0
C408 C 0.12453 0.77912 0.11589 0.0
C409 C 0.10961 0.77805 0.10975 0.0
C410 C 0.09888 0.76664 0.09283 0.0
C411 C 0.10265 0.75581 0.08214 0.0
C412 C 0.11807 0.75766 0.08733 0.0
C413 C 0.12888 0.76925 0.10391 0.0
C414 C 0.14537 0.80499 0.13539 0.0
C415 C 0.16073 0.81145 0.14679 0.0
C416 C 0.17207 0.82812 0.14664 0.0
C417 C 0.16837 0.83881 0.13481 0.0
C418 C 0.15289 0.83231 0.12338 0.0
C419 C 0.14145 0.81559 0.1238 0.0
C420 C 0.22432 0.91202 0.15875 0.0
C421 C 0.23808 0.91057 0.16339 0.0
C422 C 0.24645 0.91548 0.18539 0.0
C423 C 0.24127 0.92189 0.2034 0.0
C424 C 0.22746 0.92326 0.19885 0.0
C425 C 0.21906 0.91831 0.17673 0.0
C426 C 0.22699 0.91479 0.11543 0.0
C427 C 0.23993 0.93114 0.11664 0.0
C428 C 0.25214 0.93768 0.09932 0.0
C429 C 0.25143 0.92826 0.07971 0.0
C430 C 0.23747 0.91266 0.07676 0.0
C431 C 0.22527 0.90608 0.09416 0.0
C432 C 0.20413 0.89034 0.13463 0.0
C433 C 0.20915 0.87897 0.13343 0.0
C434 C 0.19756 0.86235 0.13308 0.0
C435 C 0.18065 0.8566 0.13448 0.0
C436 C 0.17568 0.86801 0.13587 0.0
C437 C 0.18732 0.88467 0.1359 0.0
H438 H 0.36288 0.24282 0.8951 0.0
N439 N 0.33266 0.22258 0.91431 0.0
H440 H 0.36848 0.25298 0.8541 0.0
H441 H 0.311 0.21499 0.87858 0.0
H442 H 0.3165 0.2248 0.83705 0.0
H443 H 0.31285 0.23207 0.92971 0.0
H444 H 0.32024 0.25605 0.95383 0.0
H445 H 0.3621 0.2415 0.93822 0.0
H446 H 0.36962 0.26546 0.96245 0.0
H447 H 0.36002 0.21992 0.91636 0.0
H448 H 0.30754 0.19359 0.92513 0.0
H449 H 0.36025 0.19494 0.92239 0.0
H450 H 0.30745 0.16843 0.93017 0.0
H451 H 0.34755 0.11264 0.89588 0.0
H452 H 0.3427 0.09977 0.85693 0.0
H453 H 0.29536 0.09586 0.85217 0.0
H454 H 0.2998 0.10741 0.89238 0.0
H455 H 0.3071 0.08993 0.94779 0.0
H456 H 0.31651 0.07576 0.97393 0.0
H457 H 0.36691 0.11318 0.96095 0.0
H458 H 0.35727 0.12743 0.935 0.0
H459 H 0.34926 0.14369 0.89971 0.0
H460 H 0.35252 0.17056 0.90145 0.0
H461 H 0.31435 0.15287 0.95451 0.0
N462 N 0.32538 0.11628 0.92182 0.0
H463 H 0.31062 0.12591 0.95149 0.0
C464 C 0.33646 0.22814 0.8899 0.0
C465 C 0.35269 0.23874 0.88259 0.0
C466 C 0.35588 0.24449 0.85902 0.0
C467 C 0.34294 0.23971 0.84224 0.0
C468 C 0.32673 0.22889 0.84957 0.0
C469 C 0.32357 0.22319 0.87319 0.0
C470 C 0.33685 0.23498 0.93207 0.0
C471 C 0.32515 0.2391 0.93733 0.0
C472 C 0.32941 0.2528 0.95115 0.0
C473 C 0.34557 0.26276 0.95995 0.0
C474 C 0.35712 0.25816 0.95566 0.0
C475 C 0.3528 0.24437 0.94189 0.0
C476 C 0.33371 0.20863 0.92059 0.0
C477 C 0.34856 0.20883 0.92 0.0
C478 C 0.34864 0.19444 0.92315 0.0
C479 C 0.33387 0.17957 0.92676 0.0
C480 C 0.31914 0.17961 0.92795 0.0
C481 C 0.31911 0.19398 0.92497 0.0
C482 C 0.32378 0.11056 0.89745 0.0
C483 C 0.33606 0.1089 0.88663 0.0
C484 C 0.33333 0.10169 0.86399 0.0
C485 C 0.31848 0.09645 0.85126 0.0
C486 C 0.30671 0.09916 0.8616 0.0
C487 C 0.30927 0.10595 0.8845 0.0
C488 C 0.33145 0.1096 0.93946 0.0
C489 C 0.32016 0.09522 0.95104 0.0
C490 C 0.32556 0.08719 0.96597 0.0
C491 C 0.34245 0.09335 0.96942 0.0
C492 C 0.35382 0.10812 0.95847 0.0
C493 C 0.34836 0.11629 0.94377 0.0
C494 C 0.32944 0.13276 0.92517 0.0
C495 C 0.34171 0.14569 0.91183 0.0
C496 C 0.34363 0.16109 0.91302 0.0
C497 C 0.3335 0.1639 0.92784 0.0
C498 C 0.32206 0.15112 0.94238 0.0
C499 C 0.32 0.13573 0.9409 0.0
H500 H 0.78112 0.12131 0.87066 0.0
N501 N 0.78831 0.10503 0.90452 0.0
H502 H 0.7674 0.11066 0.83224 0.0
H503 H 0.78216 0.07776 0.88349 0.0
H504 H 0.76934 0.06731 0.84407 0.0
H505 H 0.78254 0.08584 0.94233 0.0
H506 H 0.75899 0.07472 0.96936 0.0
H507 H 0.76431 0.11276 0.90484 0.0
H508 H 0.74108 0.10183 0.93137 0.0
H509 H 0.79057 0.1345 0.91107 0.0
H510 H 0.819 0.11166 0.90429 0.0
H511 H 0.81567 0.16081 0.91543 0.0
H512 H 0.84435 0.13816 0.90787 0.0
H513 H 0.89049 0.23687 0.89247 0.0
H514 H 0.90245 0.25004 0.8546 0.0
H515 H 0.91854 0.21613 0.84323 0.0
H516 H 0.90766 0.20392 0.88229 0.0
H517 H 0.92284 0.23205 0.93365 0.0
H518 H 0.93173 0.25591 0.95842 0.0
H519 H 0.88136 0.24422 0.96208 0.0
H520 H 0.87286 0.22109 0.9358 0.0
H521 H 0.86431 0.20668 0.89374 0.0
H522 H 0.83849 0.18055 0.89242 0.0
H523 H 0.86072 0.1595 0.93592 0.0
N524 N 0.89338 0.21281 0.91422 0.0
H525 H 0.8867 0.18563 0.93635 0.0
C526 C 0.78253 0.10022 0.88014 0.0
C527 C 0.77869 0.10956 0.86501 0.0
C528 C 0.77094 0.10346 0.84279 0.0
C529 C 0.76711 0.08802 0.83492 0.0
C530 C 0.77174 0.07908 0.84966 0.0
C531 C 0.77925 0.08509 0.87207 0.0
C532 C 0.77537 0.10023 0.92165 0.0
C533 C 0.77366 0.08957 0.94019 0.0
C534 C 0.76017 0.08317 0.95548 0.0
C535 C 0.7482 0.08744 0.95253 0.0
C536 C 0.75022 0.09851 0.93441 0.0
C537 C 0.76359 0.10479 0.91909 0.0
C538 C 0.80285 0.12093 0.90754 0.0
C539 C 0.80216 0.13505 0.91055 0.0
C540 C 0.81662 0.15022 0.91287 0.0
C541 C 0.83208 0.15166 0.91208 0.0
C542 C 0.83269 0.13752 0.90902 0.0
C543 C 0.81823 0.12236 0.90681 0.0
C544 C 0.89857 0.21962 0.89053 0.0
C545 C 0.89667 0.23232 0.88192 0.0
C546 C 0.90339 0.23975 0.85999 0.0
C547 C 0.91175 0.23438 0.84582 0.0
C548 C 0.91271 0.22102 0.85391 0.0
C549 C 0.90633 0.21385 0.8761 0.0
C550 C 0.89725 0.22472 0.93279 0.0
C551 C 0.91369 0.23449 0.94022 0.0
C552 C 0.91872 0.24813 0.95457 0.0
C553 C 0.90731 0.2522 0.96229 0.0
C554 C 0.8906 0.24175 0.95609 0.0
C555 C 0.88564 0.22829 0.94125 0.0
C556 C 0.8775 0.19803 0.915 0.0
C557 C 0.86361 0.19646 0.90305 0.0
C558 C 0.84879 0.1815 0.90246 0.0
C559 C 0.84753 0.16784 0.9139 0.0
C560 C 0.86132 0.16965 0.92651 0.0
C561 C 0.87613 0.18459 0.92699 0.0
H562 H 0.8 0.72164 0.89929 0.0
N563 N 0.80518 0.69886 0.91699 0.0
H564 H 0.78783 0.72177 0.86016 0.0
H565 H 0.79775 0.67732 0.88014 0.0
H566 H 0.78524 0.67708 0.84156 0.0
H567 H 0.78141 0.66658 0.91499 0.0
H568 H 0.75664 0.65267 0.93878 0.0
H569 H 0.79677 0.71115 0.95288 0.0
H570 H 0.772 0.6971 0.97746 0.0
H571 H 0.83311 0.71184 0.89186 0.0
H572 H 0.80705 0.67701 0.94822 0.0
H573 H 0.85419 0.70471 0.89327 0.0
H574 H 0.82804 0.67014 0.94953 0.0
H575 H 0.91699 0.69468 0.89934 0.0
H576 H 0.92986 0.70123 0.86014 0.0
H577 H 0.89197 0.65433 0.8334 0.0
H578 H 0.879 0.64786 0.87292 0.0
H579 H 0.89191 0.64105 0.92369 0.0
H580 H 0.91332 0.6411 0.94849 0.0
H581 H 0.93186 0.69107 0.96777 0.0
H582 H 0.91054 0.69093 0.94262 0.0
H583 H 0.89617 0.69772 0.91442 0.0
H584 H 0.87621 0.70612 0.91804 0.0
H585 H 0.83732 0.65593 0.92443 0.0
N586 N 0.88927 0.66625 0.91218 0.0
H587 H 0.8575 0.64763 0.92111 0.0
C588 C 0.79986 0.69956 0.8927 0.0
C589 C 0.79709 0.71208 0.88651 0.0
C590 C 0.79 0.71204 0.86425 0.0
C591 C 0.78552 0.69942 0.84768 0.0
C592 C 0.78876 0.68713 0.85367 0.0
C593 C 0.79583 0.68719 0.87587 0.0
C594 C 0.791 0.68999 0.93216 0.0
C595 C 0.77949 0.67338 0.92853 0.0
C596 C 0.76539 0.66537 0.94238 0.0
C597 C 0.76237 0.67376 0.96012 0.0
C598 C 0.77393 0.69033 0.96385 0.0
C599 C 0.78811 0.69834 0.94998 0.0
C600 C 0.81768 0.69442 0.91874 0.0
C601 C 0.83172 0.70254 0.90432 0.0
C602 C 0.84393 0.6986 0.90535 0.0
C603 C 0.84266 0.68663 0.92125 0.0
C604 C 0.82915 0.67907 0.93658 0.0
C605 C 0.81694 0.68301 0.9356 0.0
C606 C 0.89687 0.67077 0.889 0.0
C607 C 0.91127 0.68586 0.88505 0.0
C608 C 0.91865 0.68961 0.8626 0.0
C609 C 0.91191 0.6783 0.84372 0.0
C610 C 0.89751 0.66323 0.84769 0.0
C611 C 0.89005 0.65955 0.87012 0.0
C612 C 0.8996 0.66593 0.93113 0.0
C613 C 0.9003 0.65185 0.93386 0.0
C614 C 0.91256 0.65192 0.94809 0.0
C615 C 0.92445 0.66615 0.95995 0.0
C616 C 0.92305 0.67997 0.95856 0.0
C617 C 0.91075 0.67988 0.94427 0.0
C618 C 0.87833 0.67193 0.91754 0.0
C619 C 0.88344 0.68849 0.91702 0.0
C620 C 0.87195 0.69331 0.91886 0.0
C621 C 0.85512 0.68171 0.92132 0.0
C622 C 0.85018 0.66522 0.92279 0.0
C623 C 0.86167 0.66043 0.92089 0.0
H624 H 0.7357 0.61953 0.46741 0.0
N625 N 0.76351 0.64296 0.4485 0.0
H626 H 0.72543 0.61858 0.50788 0.0
H627 H 0.77935 0.66549 0.48411 0.0
H628 H 0.76921 0.66466 0.52436 0.0
H629 H 0.76563 0.67237 0.45253 0.0
H630 H 0.75203 0.68209 0.42649 0.0
H631 H 0.75212 0.63253 0.40425 0.0
H632 H 0.73992 0.64317 0.37647 0.0
H633 H 0.76517 0.61692 0.43985 0.0
H634 H 0.7952 0.66853 0.4506 0.0
H635 H 0.78971 0.61502 0.43865 0.0
H636 H 0.81992 0.66675 0.45129 0.0
H637 H 0.87418 0.61665 0.47686 0.0
H638 H 0.88879 0.62219 0.51542 0.0
H639 H 0.8824 0.66291 0.52623 0.0
H640 H 0.86861 0.65775 0.48721 0.0
H641 H 0.88873 0.6661 0.45169 0.0
H642 H 0.91236 0.67697 0.42559 0.0
H643 H 0.89225 0.62983 0.39269 0.0
H644 H 0.86846 0.61894 0.41921 0.0
H645 H 0.83334 0.61312 0.4677 0.0
H646 H 0.80923 0.61566 0.4648 0.0
H647 H 0.83843 0.66238 0.43058 0.0
N648 N 0.86384 0.63435 0.45483 0.0
H649 H 0.86254 0.66018 0.43484 0.0
C650 C 0.75824 0.6425 0.47274 0.0
C651 C 0.74308 0.62934 0.47987 0.0
C652 C 0.73727 0.62883 0.50292 0.0
C653 C 0.7465 0.6416 0.51919 0.0
C654 C 0.76176 0.65475 0.51209 0.0
C655 C 0.76763 0.65516 0.48913 0.0
C656 C 0.75938 0.6513 0.43078 0.0
C657 C 0.76011 0.6659 0.43598 0.0
C658 C 0.75242 0.67163 0.42071 0.0
C659 C 0.74434 0.66322 0.39945 0.0
C660 C 0.74533 0.64964 0.3931 0.0
C661 C 0.75255 0.64364 0.40877 0.0
C662 C 0.77838 0.64276 0.44567 0.0
C663 C 0.77715 0.62785 0.44198 0.0
C664 C 0.79121 0.62679 0.44163 0.0
C665 C 0.8069 0.64067 0.44541 0.0
C666 C 0.80812 0.65578 0.44822 0.0
C667 C 0.79398 0.65684 0.44813 0.0
C668 C 0.87023 0.63668 0.47914 0.0
C669 C 0.87575 0.62661 0.48779 0.0
C670 C 0.88404 0.62978 0.50988 0.0
C671 C 0.88692 0.64309 0.52394 0.0
C672 C 0.88072 0.65276 0.5157 0.0
C673 C 0.87262 0.6497 0.49346 0.0
C674 C 0.87669 0.64166 0.43725 0.0
C675 C 0.88917 0.65815 0.43854 0.0
C676 C 0.90269 0.66437 0.42351 0.0
C677 C 0.90417 0.65426 0.40703 0.0
C678 C 0.89149 0.63789 0.40529 0.0
C679 C 0.87785 0.63169 0.42024 0.0
C680 C 0.84982 0.63626 0.4514 0.0
C681 C 0.8345 0.62388 0.4595 0.0
C682 C 0.82068 0.62533 0.45763 0.0
C683 C 0.82174 0.63919 0.44721 0.0
C684 C 0.83711 0.65161 0.43896 0.0
C685 C 0.85101 0.65025 0.44121 0.0
H686 H 0.36883 0.11663 0.47072 0.0
N687 N 0.34823 0.12244 0.44615 0.0
H688 H 0.36539 0.10518 0.51098 0.0
H689 H 0.32289 0.11488 0.47647 0.0
H690 H 0.31985 0.10456 0.51727 0.0
H691 H 0.31811 0.09464 0.4406 0.0
H692 H 0.31189 0.07122 0.41592 0.0
H693 H 0.36732 0.12096 0.41334 0.0
H694 H 0.36143 0.09748 0.38902 0.0
H695 H 0.36556 0.15298 0.46091 0.0
H696 H 0.32117 0.11963 0.42193 0.0
H697 H 0.35823 0.17362 0.45857 0.0
H698 H 0.31429 0.1405 0.41795 0.0
H699 H 0.34535 0.23283 0.46041 0.0
H700 H 0.3513 0.2474 0.49829 0.0
H701 H 0.30321 0.21133 0.52377 0.0
H702 H 0.29723 0.19696 0.48533 0.0
H703 H 0.2916 0.21072 0.43666 0.0
H704 H 0.29314 0.23326 0.41422 0.0
H705 H 0.34234 0.24805 0.39255 0.0
H706 H 0.34085 0.22584 0.41554 0.0
H707 H 0.34759 0.21227 0.44199 0.0
H708 H 0.35554 0.19234 0.43706 0.0
H709 H 0.30436 0.15398 0.43883 0.0
N710 N 0.31609 0.20608 0.4468 0.0
H711 H 0.29654 0.17429 0.44164 0.0
C712 C 0.34627 0.11676 0.47065 0.0
C713 C 0.35816 0.11405 0.48092 0.0
C714 C 0.3562 0.10761 0.50403 0.0
C715 C 0.34233 0.10391 0.51758 0.0
C716 C 0.33054 0.10693 0.50734 0.0
C717 C 0.33236 0.11307 0.48403 0.0
C718 C 0.34322 0.10964 0.42868 0.0
C719 C 0.32748 0.0955 0.42891 0.0
C720 C 0.32401 0.08203 0.41497 0.0
C721 C 0.3362 0.08235 0.40063 0.0
C722 C 0.35166 0.09681 0.39959 0.0
C723 C 0.35508 0.11027 0.41348 0.0
C724 C 0.34407 0.13471 0.44166 0.0
C725 C 0.35441 0.15025 0.45132 0.0
C726 C 0.35021 0.16211 0.44977 0.0
C727 C 0.3356 0.15891 0.438 0.0
C728 C 0.32547 0.14344 0.42758 0.0
C729 C 0.32953 0.13143 0.42962 0.0
C730 C 0.32081 0.21371 0.47008 0.0
C731 C 0.33619 0.22785 0.47425 0.0
C732 C 0.33958 0.2362 0.496 0.0
C733 C 0.3277 0.23059 0.51406 0.0
C734 C 0.31254 0.21613 0.51011 0.0
C735 C 0.30915 0.2078 0.48832 0.0
C736 C 0.31605 0.21649 0.42805 0.0
C737 C 0.30251 0.21851 0.4264 0.0
C738 C 0.30344 0.23146 0.41354 0.0
C739 C 0.31799 0.2427 0.40186 0.0
C740 C 0.33107 0.23986 0.4018 0.0
C741 C 0.33016 0.22695 0.41483 0.0
C742 C 0.32134 0.19483 0.44161 0.0
C743 C 0.33801 0.19966 0.44043 0.0
C744 C 0.34259 0.18809 0.43811 0.0
C745 C 0.33066 0.17136 0.43773 0.0
C746 C 0.31398 0.16665 0.43855 0.0
C747 C 0.30943 0.17826 0.4403 0.0
H748 H 0.78055 0.09179 0.47198 0.0
N749 N 0.79057 0.11982 0.44965 0.0
H750 H 0.76189 0.08038 0.50567 0.0
H751 H 0.7786 0.13536 0.47614 0.0
H752 H 0.76126 0.12479 0.51087 0.0
H753 H 0.75927 0.10952 0.4342 0.0
H754 H 0.74359 0.08761 0.40545 0.0
H755 H 0.80331 0.10985 0.41676 0.0
H756 H 0.78809 0.08891 0.38646 0.0
H757 H 0.82242 0.13236 0.45743 0.0
H758 H 0.78694 0.14493 0.43546 0.0
H759 H 0.84424 0.16082 0.45613 0.0
H760 H 0.80838 0.17378 0.43622 0.0
H761 H 0.90499 0.23608 0.47227 0.0
H762 H 0.91849 0.24266 0.5115 0.0
H763 H 0.8845 0.25604 0.53657 0.0
H764 H 0.87088 0.24944 0.49672 0.0
H765 H 0.89348 0.26882 0.4454 0.0
H766 H 0.91722 0.2831 0.41956 0.0
H767 H 0.91202 0.23726 0.40037 0.0
H768 H 0.88932 0.22336 0.42781 0.0
H769 H 0.87511 0.21124 0.48358 0.0
H770 H 0.85391 0.18348 0.47897 0.0
H771 H 0.83191 0.19631 0.42115 0.0
N772 N 0.87821 0.23783 0.4585 0.0
H773 H 0.85295 0.22495 0.42715 0.0
C774 C 0.78115 0.11445 0.47145 0.0
C775 C 0.77643 0.09906 0.48056 0.0
C776 C 0.76579 0.09259 0.49996 0.0
C777 C 0.75988 0.10157 0.51115 0.0
C778 C 0.76512 0.11726 0.50246 0.0
C779 C 0.77538 0.12351 0.48264 0.0
C780 C 0.78237 0.11092 0.4281 0.0
C781 C 0.76569 0.10529 0.42348 0.0
C782 C 0.75674 0.09279 0.40685 0.0
C783 C 0.76444 0.08605 0.39414 0.0
C784 C 0.7816 0.09332 0.3966 0.0
C785 C 0.79041 0.10547 0.41365 0.0
C786 C 0.80311 0.13666 0.44721 0.0
C787 C 0.81938 0.14139 0.45255 0.0
C788 C 0.83179 0.15773 0.45204 0.0
C789 C 0.82812 0.16984 0.44682 0.0
C790 C 0.81179 0.16493 0.44034 0.0
C791 C 0.79944 0.14845 0.44017 0.0
C792 C 0.88683 0.24226 0.48149 0.0
C793 C 0.9005 0.24061 0.48599 0.0
C794 C 0.90814 0.24424 0.50853 0.0
C795 C 0.90244 0.24972 0.5271 0.0
C796 C 0.88913 0.25186 0.5225 0.0
C797 C 0.88133 0.24805 0.49988 0.0
C798 C 0.88955 0.24505 0.43879 0.0
C799 C 0.89729 0.26185 0.43522 0.0
C800 C 0.91088 0.27 0.42029 0.0
C801 C 0.91688 0.26144 0.40808 0.0
C802 C 0.90818 0.24439 0.41004 0.0
C803 C 0.89489 0.23632 0.4255 0.0
C804 C 0.86583 0.22066 0.45573 0.0
C805 C 0.86589 0.20847 0.46986 0.0
C806 C 0.85365 0.19222 0.46698 0.0
C807 C 0.84115 0.18739 0.44944 0.0
C808 C 0.84116 0.19948 0.43507 0.0
C809 C 0.85327 0.21589 0.43834 0.0
H810 H 0.05674 0.58236 0.21999 0.0
N811 N 0.03293 0.56816 0.25176 0.0
H812 H 0.05474 0.59009 0.17874 0.0
H813 H 0.00483 0.56226 0.22856 0.0
H814 H 1.00253 0.56956 0.18708 0.0
H815 H 0.00612 0.56671 0.27133 0.0
H816 H 0.00646 0.58727 0.29738 0.0
H817 H 0.05901 0.59324 0.27219 0.0
H818 H 0.05958 0.61391 0.29801 0.0
H819 H 0.05374 0.5584 0.26208 0.0
H820 H 1.00218 0.54119 0.25429 0.0
H821 H 0.04734 0.53055 0.26799 0.0
H822 H 0.99559 0.51324 0.25927 0.0
H823 H 0.02521 0.45388 0.22896 0.0
H824 H 0.01918 0.4425 0.18862 0.0
H825 H 0.9676 0.42466 0.19868 0.0
H826 H 0.97398 0.4369 0.23872 0.0
H827 H 0.98524 0.42625 0.28713 0.0
H828 H 0.99465 0.41063 0.30944 0.0
H829 H 0.04494 0.44702 0.29342 0.0
H830 H 0.03532 0.46235 0.27071 0.0
H831 H 0.03104 0.47891 0.2431 0.0
H832 H 0.03814 0.50699 0.24392 0.0
H833 H 0.99499 0.49318 0.28571 0.0
N834 N 0.00305 0.45262 0.26102 0.0
H835 H 0.9877 0.46481 0.28414 0.0
C836 C 0.03099 0.57169 0.22722 0.0
C837 C 0.04488 0.57945 0.21278 0.0
C838 C 0.04365 0.58377 0.18921 0.0
C839 C 0.02843 0.58036 0.1795 0.0
C840 C 0.01445 0.57248 0.19403 0.0
C841 C 0.01572 0.56817 0.21771 0.0
C842 C 0.03259 0.57851 0.26987 0.0
C843 C 0.01779 0.57683 0.27743 0.0
C844 C 0.01803 0.58866 0.2922 0.0
C845 C 0.03306 0.60231 0.29971 0.0
C846 C 0.04779 0.60349 0.29288 0.0
C847 C 0.04752 0.59172 0.2781 0.0
C848 C 0.02849 0.55185 0.25768 0.0
C849 C 0.04101 0.54857 0.26187 0.0
C850 C 0.03732 0.53263 0.26499 0.0
C851 C 0.02094 0.51955 0.26385 0.0
C852 C 0.00833 0.52296 0.2605 0.0
C853 C 0.01207 0.53897 0.25749 0.0
C854 C 1.00001 0.44641 0.2368 0.0
C855 C 0.01265 0.44778 0.22239 0.0
C856 C 0.00913 0.44104 0.19935 0.0
C857 C 0.99287 0.43258 0.19029 0.0
C858 C 0.98029 0.4313 0.2048 0.0
C859 C 0.98387 0.43819 0.22775 0.0
C860 C 0.00948 0.44545 0.27727 0.0
C861 C 0.99831 0.43102 0.28892 0.0
C862 C 0.00375 0.42213 0.30173 0.0
C863 C 0.02059 0.42749 0.30319 0.0
C864 C 0.03187 0.4424 0.29239 0.0
C865 C 0.02638 0.45128 0.27952 0.0
C866 C 0.00875 0.46964 0.26359 0.0
C867 C 0.02317 0.48184 0.25271 0.0
C868 C 0.02728 0.49803 0.25329 0.0
C869 C 0.01712 0.50244 0.26483 0.0
C870 C 0.00298 0.49025 0.27635 0.0
C871 C 0.99887 0.47405 0.27569 0.0
H872 H 0.58824 0.53734 0.23017 0.0
N873 N 0.56847 0.54319 0.25533 0.0
H874 H 0.59933 0.54766 0.19035 0.0
H875 H 0.56147 0.5621 0.22674 0.0
H876 H 0.57201 0.57205 0.18656 0.0
H877 H 0.54788 0.55272 0.27309 0.0
H878 H 0.5562 0.57681 0.29708 0.0
H879 H 0.59768 0.56307 0.27485 0.0
H880 H 0.60645 0.58785 0.29717 0.0
H881 H 0.56333 0.51639 0.27704 0.0
H882 H 0.53855 0.53579 0.2363 0.0
H883 H 0.53826 0.48946 0.27602 0.0
H884 H 0.51367 0.50898 0.23462 0.0
H885 H 0.46193 0.40678 0.21611 0.0
H886 H 0.44895 0.39777 0.17638 0.0
H887 H 0.4465 0.44116 0.17001 0.0
H888 H 0.46008 0.45031 0.20889 0.0
H889 H 0.44227 0.43881 0.24279 0.0
H890 H 0.41832 0.42492 0.26786 0.0
H891 H 0.43723 0.39687 0.29995 0.0
H892 H 0.46167 0.41119 0.27464 0.0
H893 H 0.49878 0.44151 0.24017 0.0
H894 H 0.52302 0.46861 0.24616 0.0
H895 H 0.49146 0.48771 0.25737 0.0
N896 N 0.46742 0.43282 0.24031 0.0
H897 H 0.46749 0.46087 0.25087 0.0
C898 C 0.57399 0.54883 0.23131 0.0
C899 C 0.5846 0.54484 0.22062 0.0
C900 C 0.59085 0.5507 0.19784 0.0
C901 C 0.58652 0.56066 0.18519 0.0
C902 C 0.57574 0.56457 0.1959 0.0
C903 C 0.56955 0.55874 0.21876 0.0
C904 C 0.57219 0.55596 0.27225 0.0
C905 C 0.56058 0.56003 0.27884 0.0
C906 C 0.56546 0.57405 0.29237 0.0
C907 C 0.5821 0.58456 0.29902 0.0
C908 C 0.59349 0.58007 0.29299 0.0
C909 C 0.58853 0.56589 0.28003 0.0
C910 C 0.55289 0.52811 0.25681 0.0
C911 C 0.55241 0.51486 0.26815 0.0
C912 C 0.53813 0.49947 0.26731 0.0
C913 C 0.52397 0.497 0.25502 0.0
C914 C 0.52428 0.51044 0.24442 0.0
C915 C 0.53858 0.52583 0.24528 0.0
C916 C 0.462 0.42917 0.21556 0.0
C917 C 0.45892 0.41448 0.2058 0.0
C918 C 0.45132 0.40928 0.18322 0.0
C919 C 0.44651 0.41864 0.16998 0.0
C920 C 0.45021 0.4337 0.17944 0.0
C921 C 0.45794 0.43894 0.20188 0.0
C922 C 0.45406 0.42628 0.25708 0.0
C923 C 0.44168 0.4301 0.25564 0.0
C924 C 0.42787 0.42206 0.27003 0.0
C925 C 0.42593 0.40986 0.28599 0.0
C926 C 0.4384 0.40622 0.28778 0.0
C927 C 0.45238 0.41444 0.27351 0.0
C928 C 0.48125 0.44896 0.2451 0.0
C929 C 0.49713 0.45155 0.24407 0.0
C930 C 0.51095 0.46704 0.24765 0.0
C931 C 0.50921 0.48037 0.25233 0.0
C932 C 0.49327 0.47776 0.25358 0.0
C933 C 0.47945 0.46226 0.24998 0.0
H934 H 0.54823 0.95907 0.22421 0.0
N935 N 0.54469 0.98072 0.24833 0.0
H936 H 0.56139 0.96256 0.18558 0.0
H937 H 0.55773 0.00783 0.21978 0.0
H938 H 0.56956 0.011 0.18044 0.0
H939 H 0.57583 0.00623 0.25753 0.0
H940 H 0.59618 0.00555 0.28409 0.0
H941 H 0.53887 0.95864 0.28177 0.0
H942 H 0.55915 0.95787 0.3085 0.0
H943 H 0.51431 0.96836 0.23167 0.0
H944 H 0.55258 0.00935 0.27107 0.0
H945 H 0.49785 0.98117 0.23056 0.0
H946 H 0.53588 0.02192 0.27059 0.0
H947 H 0.45669 0.99968 0.21713 0.0
H948 H 0.43941 0.99275 0.18145 0.0
H949 H 0.45188 0.0426 0.17532 0.0
H950 H 0.47014 0.04963 0.21049 0.0
H951 H 0.46776 0.04994 0.26123 0.0
H952 H 0.44527 0.043 0.28891 0.0
H953 H 0.43142 0.99268 0.28607 0.0
H954 H 0.45399 0.99975 0.25921 0.0
H955 H 0.4894 0.02228 0.20369 0.0
H956 H 0.50623 0.01034 0.20891 0.0
H957 H 0.5046 0.01387 0.28573 0.0
N958 N 0.47419 0.0295 0.23891 0.0
H959 H 0.4871 0.02532 0.28088 0.0
C960 C 0.55173 0.98301 0.22479 0.0
C961 C 0.55288 0.97041 0.21464 0.0
C962 C 0.56032 0.97242 0.19244 0.0
C963 C 0.56656 0.98706 0.17963 0.0
C964 C 0.56524 0.99966 0.18983 0.0
C965 C 0.55818 0.99777 0.21229 0.0
C966 C 0.5558 0.98239 0.2676 0.0
C967 C 0.57198 0.99583 0.26907 0.0
C968 C 0.58363 0.99537 0.28413 0.0
C969 C 0.57932 0.98156 0.29814 0.0
C970 C 0.56284 0.96871 0.29802 0.0
C971 C 0.55123 0.96913 0.28282 0.0
C972 C 0.53461 0.98772 0.25152 0.0
C973 C 0.51898 0.97992 0.24056 0.0
C974 C 0.50967 0.98728 0.2398 0.0
C975 C 0.51568 0.00253 0.2504 0.0
C976 C 0.531 0.01012 0.26238 0.0
C977 C 0.54051 0.00288 0.26271 0.0
C978 C 0.46498 0.02531 0.21641 0.0
C979 C 0.45595 0.0092 0.20796 0.0
C980 C 0.44586 0.00522 0.18759 0.0
C981 C 0.44398 0.01705 0.17554 0.0
C982 C 0.45313 0.03318 0.18386 0.0
C983 C 0.46355 0.03724 0.20401 0.0
C984 C 0.46265 0.02545 0.25817 0.0
C985 C 0.46009 0.0375 0.26713 0.0
C986 C 0.44715 0.03348 0.28273 0.0
C987 C 0.4365 0.01728 0.28968 0.0
C988 C 0.4395 0.00532 0.28143 0.0
C989 C 0.45239 0.00933 0.26587 0.0
C990 C 0.48526 0.02329 0.24188 0.0
C991 C 0.49201 0.02005 0.22181 0.0
C992 C 0.5019 0.01339 0.22471 0.0
C993 C 0.5062 0.01069 0.24771 0.0
C994 C 0.50107 0.01546 0.2678 0.0
C995 C 0.49086 0.02184 0.26493 0.0
H996 H 0.40358 0.97909 0.78293 0.0
N997 N 0.43515 0.99592 0.7713 0.0
H998 H 0.39157 0.97811 0.82207 0.0
H999 H 0.45214 0.00964 0.81365 0.0
H1000 H 0.4402 0.00805 0.85264 0.0
H1001 H 0.43865 0.02528 0.78171 0.0
H1002 H 0.42667 0.03807 0.75849 0.0
H1003 H 0.42639 0.99048 0.72508 0.0
H1004 H 0.41589 0.00422 0.70041 0.0
H1005 H 0.4367 0.96998 0.76114 0.0
H1006 H 0.46695 0.02109 0.77593 0.0
H1007 H 0.46103 0.96772 0.76058 0.0
H1008 H 0.49144 0.01889 0.77726 0.0
H1009 H 0.53523 0.96334 0.812 0.0
H1010 H 0.54587 0.96693 0.8532 0.0
H1011 H 0.55648 0.01634 0.85242 0.0
H1012 H 0.54467 0.01209 0.81208 0.0
H1013 H 0.56002 0.01613 0.77768 0.0
H1014 H 0.58378 0.0241 0.75302 0.0
H1015 H 0.5616 0.97482 0.72735 0.0
H1016 H 0.53774 0.96682 0.75269 0.0
H1017 H 0.5027 0.96375 0.79275 0.0
H1018 H 0.47911 0.96694 0.78768 0.0
H1019 H 0.51075 0.01488 0.75832 0.0
N1020 N 0.5339 0.98513 0.78417 0.0
H1021 H 0.53437 0.01191 0.7649 0.0
C1022 C 0.42874 0.99418 0.79521 0.0
C1023 C 0.41164 0.98527 0.79815 0.0
C1024 C 0.40481 0.9848 0.82037 0.0
C1025 C 0.41502 0.99298 0.8402 0.0
C1026 C 0.43213 1.00155 0.83756 0.0
C1027 C 0.43895 0.00237 0.8152 0.0
C1028 C 0.43288 0.00652 0.75543 0.0
C1029 C 0.43388 0.02072 0.76387 0.0
C1030 C 0.42709 0.02815 0.75033 0.0
C1031 C 0.41968 0.02191 0.72769 0.0
C1032 C 0.42071 0.00897 0.71816 0.0
C1033 C 0.427 1.00124 0.73204 0.0
C1034 C 0.45001 0.99558 0.76893 0.0
C1035 C 0.44868 0.98072 0.76428 0.0
C1036 C 0.46262 0.97946 0.76428 0.0
C1037 C 0.47829 0.99303 0.76947 0.0
C1038 C 0.47967 0.00815 0.77309 0.0
C1039 C 0.46567 0.00945 0.77254 0.0
C1040 C 0.53935 0.98745 0.80891 0.0
C1041 C 0.53968 0.97484 0.82096 0.0
C1042 C 0.54594 0.97701 0.84442 0.0
C1043 C 0.55228 0.99201 0.85622 0.0
C1044 C 0.55156 0.00454 0.84418 0.0
C1045 C 0.54501 0.00223 0.82089 0.0
C1046 C 0.54694 0.99079 0.76699 0.0
C1047 C 0.56 0.00704 0.76646 0.0
C1048 C 0.57366 0.01163 0.7522 0.0
C1049 C 0.57464 1.0001 0.73819 0.0
C1050 C 0.56131 0.98397 0.7381 0.0
C1051 C 0.54761 0.9794 0.75235 0.0
C1052 C 0.52031 0.9874 0.77902 0.0
C1053 C 0.5045 0.9749 0.78506 0.0
C1054 C 0.49099 0.97674 0.78194 0.0
C1055 C 0.49286 0.99113 0.77227 0.0
C1056 C 0.50877 0.00368 0.76602 0.0
C1057 C 0.52237 1.00191 0.76956 0.0
H1058 H 0.96223 0.54405 0.82384 0.0
N1059 N 0.97991 0.54561 0.78641 0.0
H1060 H 0.97223 0.55867 0.86209 0.0
H1061 H 0.01208 0.56622 0.79961 0.0
H1062 H 0.02214 0.58112 0.83723 0.0
H1063 H 0.00524 0.56947 0.76001 0.0
H1064 H 0.00363 0.58857 0.73332 0.0
H1065 H 0.95297 0.5446 0.77077 0.0
H1066 H 0.95133 0.56434 0.74501 0.0
H1067 H 0.95959 0.51418 0.79356 0.0
H1068 H 0.00807 0.54855 0.76806 0.0
H1069 H 0.9655 0.49244 0.79044 0.0
H1070 H 0.01391 0.52699 0.76427 0.0
H1071 H 0.97996 0.45141 0.81663 0.0
H1072 H 0.97452 0.43894 0.85596 0.0
H1073 H 0.0176 0.43502 0.85071 0.0
H1074 H 0.02366 0.44881 0.81197 0.0
H1075 H 0.02536 0.45791 0.75399 0.0
H1076 H 0.02017 0.43553 0.72756 0.0
H1077 H 0.97039 0.40748 0.75318 0.0
H1078 H 0.97586 0.42974 0.77994 0.0
H1079 H 0.97686 0.4544 0.76877 0.0
H1080 H 0.97067 0.47583 0.76437 0.0
H1081 H 0.01927 0.51076 0.79145 0.0
N1082 N 0.00557 0.45776 0.78716 0.0
H1083 H 0.02551 0.48925 0.79518 0.0
C1084 C 0.98634 0.55395 0.80894 0.0
C1085 C 0.97532 0.55205 0.82683 0.0
C1086 C 0.98106 0.56052 0.84853 0.0
C1087 C 0.998 0.5711 0.85273 0.0
C1088 C 0.00903 0.57291 0.83475 0.0
C1089 C 0.00327 0.56443 0.81309 0.0
C1090 C 0.97912 0.55533 0.76725 0.0
C1091 C 0.99331 0.56777 0.75621 0.0
C1092 C 0.99241 0.57896 0.74115 0.0
C1093 C 0.97739 0.57821 0.73718 0.0
C1094 C 0.96309 0.56526 0.74733 0.0
C1095 C 0.96399 0.55395 0.76212 0.0
C1096 C 0.98325 0.53301 0.781 0.0
C1097 C 0.97136 0.51697 0.78674 0.0
C1098 C 0.97477 0.50456 0.78487 0.0
C1099 C 0.99023 0.50795 0.77719 0.0
C1100 C 1.00195 0.52396 0.77058 0.0
C1101 C 0.99853 0.53637 0.77254 0.0
C1102 C 1.00244 0.45131 0.81132 0.0
C1103 C 0.98849 0.44826 0.82406 0.0
C1104 C 0.98523 0.44082 0.84658 0.0
C1105 C 0.9955 0.43574 0.85664 0.0
C1106 C 0.00952 0.43896 0.84391 0.0
C1107 C 0.01299 0.44676 0.82164 0.0
C1108 C 1.00107 0.44556 0.76888 0.0
C1109 C 0.01323 0.44706 0.75344 0.0
C1110 C 0.01021 0.43425 0.73833 0.0
C1111 C 0.99489 0.41962 0.7384 0.0
C1112 C 0.9824 0.41847 0.75296 0.0
C1113 C 0.98546 0.43128 0.76809 0.0
C1114 C 1.00179 0.47022 0.78222 0.0
C1115 C 0.98633 0.46667 0.77335 0.0
C1116 C 0.98272 0.47897 0.77104 0.0
C1117 C 0.99445 0.49506 0.77759 0.0
C1118 C 0.01001 0.49859 0.78586 0.0
C1119 C 0.0136 0.48631 0.78813 0.0
H1120 H 0.46191 0.43406 0.82421 0.0
N1121 N 0.46376 0.45352 0.789 0.0
H1122 H 0.44358 0.4249 0.85856 0.0
H1123 H 0.44055 0.46119 0.79781 0.0
H1124 H 0.42167 0.45168 0.8317 0.0
H1125 H 0.43891 0.44921 0.75863 0.0
H1126 H 0.42617 0.42884 0.72685 0.0
H1127 H 0.47445 0.43517 0.77215 0.0
H1128 H 0.46144 0.41426 0.7413 0.0
H1129 H 0.49059 0.47002 0.81579 0.0
H1130 H 0.4627 0.47585 0.75917 0.0
H1131 H 0.51012 0.49913 0.81612 0.0
H1132 H 0.4828 0.50494 0.7581 0.0
H1133 H 0.57326 0.57433 0.80733 0.0
H1134 H 0.58586 0.58295 0.84695 0.0
H1135 H 0.54799 0.59237 0.86703 0.0
H1136 H 0.53523 0.58354 0.82688 0.0
H1137 H 0.56229 0.60496 0.78059 0.0
H1138 H 0.58722 0.61975 0.75704 0.0
H1139 H 0.58073 0.57431 0.73301 0.0
H1140 H 0.55628 0.55964 0.75659 0.0
H1141 H 0.55134 0.5485 0.79783 0.0
H1142 H 0.5315 0.51975 0.79535 0.0
H1143 H 0.49324 0.52985 0.77805 0.0
N1144 N 0.54558 0.57338 0.79048 0.0
H1145 H 0.5137 0.55898 0.77915 0.0
C1146 C 0.45255 0.44824 0.80863 0.0
C1147 C 0.45311 0.43788 0.82581 0.0
C1148 C 0.44252 0.43257 0.84525 0.0
C1149 C 0.43106 0.43747 0.84782 0.0
C1150 C 0.43044 0.44779 0.83036 0.0
C1151 C 0.44112 0.45316 0.81092 0.0
C1152 C 0.45774 0.44376 0.7676 0.0
C1153 C 0.4442 0.44198 0.75438 0.0
C1154 C 0.4368 0.43016 0.73639 0.0
C1155 C 0.44264 0.41974 0.73155 0.0
C1156 C 0.4567 0.42217 0.74412 0.0
C1157 C 0.46416 0.43408 0.76187 0.0
C1158 C 0.47537 0.47069 0.78728 0.0
C1159 C 0.4889 0.47761 0.80309 0.0
C1160 C 0.50012 0.49428 0.80308 0.0
C1161 C 0.49828 0.50451 0.78687 0.0
C1162 C 0.48461 0.49753 0.77099 0.0
C1163 C 0.47316 0.4808 0.77135 0.0
C1164 C 0.5531 0.57808 0.81416 0.0
C1165 C 0.56746 0.578 0.82025 0.0
C1166 C 0.5747 0.58298 0.84296 0.0
C1167 C 0.56784 0.58823 0.86015 0.0
C1168 C 0.55357 0.58844 0.85408 0.0
C1169 C 0.54623 0.58333 0.83129 0.0
C1170 C 0.55753 0.58115 0.7715 0.0
C1171 C 0.56603 0.59816 0.76982 0.0
C1172 C 0.5803 0.60662 0.75629 0.0
C1173 C 0.58624 0.59819 0.74372 0.0
C1174 C 0.5768 0.58116 0.74323 0.0
C1175 C 0.56264 0.5727 0.75695 0.0
C1176 C 0.53408 0.55606 0.78849 0.0
C1177 C 0.53874 0.54466 0.7934 0.0
C1178 C 0.52725 0.52806 0.79213 0.0
C1179 C 0.51061 0.52231 0.78675 0.0
C1180 C 0.50594 0.53373 0.7819 0.0
C1181 C 0.51759 0.55041 0.78266 0.0
H1182 H 0.70515 0.92619 0.54682 0.0
N1183 N 0.6904 0.90048 0.57539 0.0
H1184 H 0.69578 0.92978 0.50728 0.0
H1185 H 0.66136 0.87881 0.55261 0.0
H1186 H 0.65235 0.88207 0.51234 0.0
H1187 H 0.66198 0.89635 0.59326 0.0
H1188 H 0.65974 0.91556 0.619 0.0
H1189 H 0.71472 0.92542 0.59901 0.0
H1190 H 0.71277 0.94503 0.6239 0.0
H1191 H 0.70308 0.88636 0.55046 0.0
H1192 H 0.6728 0.87878 0.61171 0.0
H1193 H 0.69882 0.85943 0.55559 0.0
H1194 H 0.66961 0.85241 0.61829 0.0
H1195 H 0.69111 0.78272 0.56583 0.0
H1196 H 0.68563 0.76858 0.52782 0.0
H1197 H 0.63864 0.7654 0.52252 0.0
H1198 H 0.64368 0.77818 0.56186 0.0
H1199 H 0.65174 0.76083 0.61632 0.0
H1200 H 0.66169 0.74677 0.64163 0.0
H1201 H 0.71167 0.7858 0.63048 0.0
H1202 H 0.70163 0.79985 0.60564 0.0
H1203 H 0.69792 0.81429 0.57564 0.0
H1204 H 0.70431 0.84222 0.57551 0.0
H1205 H 0.65655 0.82621 0.60534 0.0
N1206 N 0.6695 0.78764 0.59098 0.0
H1207 H 0.65116 0.79863 0.6075 0.0
C1208 C 0.68415 0.90218 0.55244 0.0
C1209 C 0.69352 0.91659 0.53954 0.0
C1210 C 0.68811 0.91866 0.51712 0.0
C1211 C 0.67334 0.90621 0.50698 0.0
C1212 C 0.66375 0.89183 0.51996 0.0
C1213 C 0.66895 0.88994 0.54279 0.0
C1214 C 0.68856 0.90946 0.59439 0.0
C1215 C 0.67306 0.90668 0.6006 0.0
C1216 C 0.67184 0.9178 0.61506 0.0
C1217 C 0.68608 0.93202 0.62335 0.0
C1218 C 0.70151 0.93418 0.61821 0.0
C1219 C 0.7027 0.92299 0.60394 0.0
C1220 C 0.68824 0.88473 0.58044 0.0
C1221 C 0.69572 0.87897 0.56529 0.0
C1222 C 0.6934 0.86355 0.56849 0.0
C1223 C 0.68387 0.85351 0.58747 0.0
C1224 C 0.67674 0.8595 0.60313 0.0
C1225 C 0.67871 0.87481 0.5995 0.0
C1226 C 0.66755 0.78111 0.56709 0.0
C1227 C 0.67956 0.77887 0.55664 0.0
C1228 C 0.67646 0.77091 0.53455 0.0
C1229 C 0.66153 0.7655 0.52195 0.0
C1230 C 0.65003 0.76877 0.53188 0.0
C1231 C 0.65295 0.7763 0.55427 0.0
C1232 C 0.67582 0.78137 0.60904 0.0
C1233 C 0.66481 0.76652 0.61985 0.0
C1234 C 0.67054 0.75844 0.63409 0.0
C1235 C 0.6875 0.76506 0.63781 0.0
C1236 C 0.69853 0.78041 0.62811 0.0
C1237 C 0.69276 0.78849 0.61382 0.0
C1238 C 0.67422 0.80444 0.59223 0.0
C1239 C 0.68913 0.81693 0.58299 0.0
C1240 C 0.69257 0.83292 0.58243 0.0
C1241 C 0.68093 0.83671 0.59025 0.0
C1242 C 0.66606 0.82407 0.59963 0.0
C1243 C 0.66286 0.8082 0.60077 0.0
H1244 H 0.26021 0.8869 0.57406 0.0
N1245 N 0.22984 0.87822 0.58566 0.0
H1246 H 0.27508 0.90109 0.53781 0.0
H1247 H 0.21712 0.88598 0.54672 0.0
H1248 H 0.23173 0.89987 0.51046 0.0
H1249 H 0.2169 0.8978 0.58416 0.0
H1250 H 0.22453 0.9207 0.61046 0.0
H1251 H 0.24702 0.88527 0.62644 0.0
H1252 H 0.25463 0.90822 0.65331 0.0
H1253 H 0.22767 0.85008 0.59347 0.0
H1254 H 0.19826 0.87088 0.57595 0.0
H1255 H 0.20327 0.82287 0.59042 0.0
H1256 H 0.17408 0.84391 0.57135 0.0
H1257 H 0.11942 0.73867 0.54443 0.0
H1258 H 0.10482 0.72979 0.50582 0.0
H1259 H 0.11216 0.77753 0.49506 0.0
H1260 H 0.12603 0.78601 0.53403 0.0
H1261 H 0.1047 0.77267 0.56806 0.0
H1262 H 0.08099 0.75966 0.594 0.0
H1263 H 0.10083 0.73343 0.62957 0.0
H1264 H 0.12476 0.74661 0.60318 0.0
H1265 H 0.1609 0.77667 0.55739 0.0
H1266 H 0.18509 0.80384 0.56229 0.0
H1267 H 0.15448 0.82047 0.59097 0.0
N1268 N 0.12983 0.7667 0.56674 0.0
H1269 H 0.13048 0.79379 0.58475 0.0
C1270 C 0.23757 0.88524 0.56312 0.0
C1271 C 0.25391 0.88955 0.56008 0.0
C1272 C 0.26235 0.89765 0.53939 0.0
C1273 C 0.25459 0.90164 0.52127 0.0
C1274 C 0.23812 0.89716 0.52422 0.0
C1275 C 0.22968 0.88904 0.54493 0.0
C1276 C 0.23137 0.88973 0.60338 0.0
C1277 C 0.22472 0.89961 0.59956 0.0
C1278 C 0.22913 0.91278 0.6147 0.0
C1279 C 0.2403 0.91639 0.63391 0.0
C1280 C 0.24617 0.90591 0.63849 0.0
C1281 C 0.24172 0.89272 0.62334 0.0
C1282 C 0.21491 0.86253 0.5848 0.0
C1283 C 0.21594 0.84875 0.58888 0.0
C1284 C 0.20198 0.8332 0.58685 0.0
C1285 C 0.18663 0.83107 0.58036 0.0
C1286 C 0.18559 0.84498 0.57664 0.0
C1287 C 0.19954 0.86054 0.57902 0.0
C1288 C 0.12387 0.76295 0.54218 0.0
C1289 C 0.11812 0.74727 0.53348 0.0
C1290 C 0.10981 0.74224 0.51137 0.0
C1291 C 0.10713 0.75288 0.49739 0.0
C1292 C 0.11368 0.7689 0.50557 0.0
C1293 C 0.12185 0.77386 0.52778 0.0
C1294 C 0.11665 0.7607 0.58379 0.0
C1295 C 0.10418 0.76437 0.58169 0.0
C1296 C 0.09061 0.75695 0.59664 0.0
C1297 C 0.08905 0.74554 0.6139 0.0
C1298 C 0.10166 0.74212 0.61636 0.0
C1299 C 0.11536 0.74969 0.60147 0.0
C1300 C 0.1438 0.78292 0.57083 0.0
C1301 C 0.15946 0.78621 0.56475 0.0
C1302 C 0.17329 0.80175 0.56776 0.0
C1303 C 0.17185 0.81445 0.5772 0.0
C1304 C 0.15613 0.81113 0.58334 0.0
C1305 C 0.14226 0.79564 0.58 0.0
H1306 H 0.22716 0.31776 0.5541 0.0
N1307 N 0.23585 0.34477 0.58101 0.0
H1308 H 0.23724 0.31716 0.51443 0.0
H1309 H 0.25579 0.37002 0.55384 0.0
H1310 H 0.26624 0.36957 0.51415 0.0
H1311 H 0.26351 0.36065 0.60637 0.0
H1312 H 0.27663 0.34897 0.63009 0.0
H1313 H 0.22072 0.31312 0.59556 0.0
H1314 H 0.23389 0.30114 0.61905 0.0
H1315 H 0.20632 0.32508 0.55754 0.0
H1316 H 0.23028 0.36238 0.61145 0.0
H1317 H 0.1825 0.32787 0.55812 0.0
H1318 H 0.2058 0.36432 0.61382 0.0
H1319 H 0.11435 0.33062 0.55763 0.0
H1320 H 0.10107 0.32799 0.5187 0.0
H1321 H 0.13382 0.37924 0.5061 0.0
H1322 H 0.1472 0.38175 0.54528 0.0
H1323 H 0.12043 0.37126 0.58781 0.0
H1324 H 0.09572 0.35939 0.61184 0.0
H1325 H 0.10485 0.32203 0.63582 0.0
H1326 H 0.12878 0.33325 0.61093 0.0
H1327 H 0.13707 0.32962 0.57103 0.0
H1328 H 0.1594 0.32451 0.57529 0.0
H1329 H 0.19269 0.37508 0.59324 0.0
N1330 N 0.1388 0.35868 0.57825 0.0
H1331 H 0.16984 0.37967 0.59065 0.0
C1332 C 0.24072 0.34401 0.55691 0.0
C1333 C 0.2356 0.32913 0.5455 0.0
C1334 C 0.24146 0.32879 0.52283 0.0
C1335 C 0.25259 0.34331 0.51114 0.0
C1336 C 0.25752 0.35817 0.52251 0.0
C1337 C 0.25162 0.35848 0.54517 0.0
C1338 C 0.24128 0.33777 0.59908 0.0
C1339 C 0.25678 0.34771 0.60977 0.0
C1340 C 0.26424 0.34099 0.6233 0.0
C1341 C 0.25636 0.3241 0.62627 0.0
C1342 C 0.24033 0.31418 0.61682 0.0
C1343 C 0.23278 0.32099 0.60348 0.0
C1344 C 0.22036 0.34383 0.58413 0.0
C1345 C 0.20638 0.33367 0.56993 0.0
C1346 C 0.19255 0.33519 0.57048 0.0
C1347 C 0.19215 0.34657 0.58573 0.0
C1348 C 0.20574 0.35582 0.6012 0.0
C1349 C 0.2197 0.35456 0.60019 0.0
C1350 C 0.13198 0.35639 0.55422 0.0
C1351 C 0.11902 0.34121 0.54625 0.0
C1352 C 0.11136 0.33974 0.524 0.0
C1353 C 0.11639 0.35342 0.50932 0.0
C1354 C 0.12958 0.36852 0.5171 0.0
C1355 C 0.13732 0.36995 0.53931 0.0
C1356 C 0.1264 0.35306 0.59668 0.0
C1357 C 0.11721 0.36062 0.59851 0.0
C1358 C 0.10309 0.35384 0.61244 0.0
C1359 C 0.09798 0.33948 0.62543 0.0
C1360 C 0.10803 0.33275 0.62537 0.0
C1361 C 0.12194 0.33932 0.61102 0.0
C1362 C 0.15171 0.35507 0.58086 0.0
C1363 C 0.14912 0.33958 0.57612 0.0
C1364 C 0.16204 0.3367 0.5784 0.0
C1365 C 0.17804 0.34934 0.58468 0.0
C1366 C 0.18056 0.36486 0.58904 0.0
C1367 C 0.16753 0.36761 0.58734 0.0
H1368 H 0.9677 0.4023 0.08667 0.0
H1369 H 0.0051 0.39022 0.09724 0.0
H1370 H 0.01179 0.40306 0.13678 0.0
H1371 H 0.00672 0.4173 0.1686 0.0
H1372 H 0.97029 0.43063 0.15711 0.0
H1373 H 0.96337 0.41747 0.11788 0.0
C1374 C 0.9773 0.40244 0.09762 0.0
C1375 C 0.98583 0.39523 0.089 0.0
C1376 C 0.98121 0.41 0.12025 0.0
C1377 C 0.99834 0.39568 0.10338 0.0
C1378 C 1.00216 0.40301 0.12603 0.0
C1379 C 0.99742 0.41756 0.15743 0.0
C1380 C 0.98902 0.42494 0.166 0.0
C1381 C 0.99367 0.4102 0.13465 0.0
C1382 C 0.97679 0.42482 0.15129 0.0
C1383 C 0.97288 0.41739 0.12873 0.0
H1384 H 0.61595 0.57681 0.08118 0.0
H1385 H 0.62176 0.6232 0.09748 0.0
H1386 H 0.60929 0.61295 0.13674 0.0
H1387 H 0.59736 0.59091 0.16675 0.0
H1388 H 0.59086 0.54439 0.14904 0.0
H1389 H 0.60316 0.55472 0.11004 0.0
C1390 C 0.61455 0.58475 0.09329 0.0
C1391 C 0.61991 0.6008 0.08645 0.0
C1392 C 0.60729 0.57876 0.11562 0.0
C1393 C 0.61777 0.6108 0.10231 0.0
C1394 C 0.61065 0.60495 0.12475 0.0
C1395 C 0.59845 0.58297 0.15424 0.0
C1396 C 0.59331 0.56692 0.16098 0.0
C1397 C 0.60541 0.58895 0.13163 0.0
C1398 C 0.59499 0.55687 0.14459 0.0
C1399 C 0.60194 0.56274 0.1222 0.0
H1400 H 0.3884 0.98475 0.09552 0.0
H1401 H 0.41913 0.03077 0.06075 0.0
H1402 H 0.4381 0.04017 0.09546 0.0
H1403 H 0.44657 0.03453 0.13478 0.0
H1404 H 0.4142 0.98896 0.17013 0.0
H1405 H 0.39543 0.98011 0.13586 0.0
C1406 C 0.39924 0.99687 0.09556 0.0
C1407 C 0.40249 0.00699 0.07554 0.0
C1408 C 0.40989 0.0022 0.11555 0.0
C1409 C 0.41639 0.02276 0.07599 0.0
C1410 C 0.42725 0.02809 0.09577 0.0
C1411 C 0.43531 0.02276 0.13519 0.0
C1412 C 0.43211 0.01232 0.15495 0.0
C1413 C 0.42422 0.01782 0.11556 0.0
C1414 C 0.41739 0.99708 0.15495 0.0
C1415 C 0.4065 0.99203 0.13542 0.0
H1416 H 0.38078 0.99945 0.93189 0.0
H1417 H 0.40337 0.97483 0.9641 0.0
H1418 H 0.41523 0.97476 0.92559 0.0
H1419 H 0.41916 0.98166 0.88261 0.0
H1420 H 0.3949 0.00433 0.84959 0.0
H1421 H 0.38365 0.00519 0.88843 0.0
C1422 C 0.38835 0.99413 0.93043 0.0
C1423 C 0.39129 0.98725 0.95078 0.0
C1424 C 0.39477 0.99375 0.90808 0.0
C1425 C 0.40091 0.98017 0.94863 0.0
C1426 C 0.40771 0.98015 0.92665 0.0
C1427 C 0.41139 0.98676 0.88404 0.0
C1428 C 0.40786 0.99298 0.8635 0.0
C1429 C 0.40471 0.98688 0.90625 0.0
C1430 C 0.39769 0.99944 0.8653 0.0
C1431 C 0.39132 0.99997 0.88745 0.0
H1432 H 0.96522 0.39185 0.94864 0.0
H1433 H 0.01648 0.4118 0.96632 0.0
H1434 H 0.02424 0.42775 0.92918 0.0
H1435 H 0.01631 0.43622 0.89203 0.0
H1436 H 0.96476 0.41398 0.8733 0.0
H1437 H 0.95735 0.39909 0.91084 0.0
C1438 C 0.97812 0.39974 0.94444 0.0
C1439 C 0.99026 0.40075 0.96031 0.0
C1440 C 0.98244 0.40858 0.92296 0.0
C1441 C 0.00689 0.41081 0.95439 0.0
C1442 C 0.01132 0.41995 0.9332 0.0
C1443 C 0.00344 0.42799 0.89593 0.0
C1444 C 0.99116 0.42652 0.87975 0.0
C1445 C 0.99918 0.41893 0.91734 0.0
C1446 C 0.97456 0.41586 0.88552 0.0
C1447 C 0.97026 0.40713 0.90694 0.0
H1448 H 0.60598 0.62158 0.95696 0.0
H1449 H 0.60972 0.57881 0.95824 0.0
H1450 H 0.59314 0.56893 0.92179 0.0
H1451 H 0.57861 0.57273 0.88848 0.0
H1452 H 0.57475 0.61529 0.88582 0.0
H1453 H 0.59002 0.62476 0.92401 0.0
C1454 C 0.60308 0.61007 0.94933 0.0
C1455 C 0.60926 0.60107 0.96032 0.0
C1456 C 0.59349 0.60436 0.9281 0.0
C1457 C 0.60529 0.58611 0.95018 0.0
C1458 C 0.59577 0.58039 0.92928 0.0
C1459 C 0.58112 0.5841 0.89626 0.0
C1460 C 0.57573 0.59338 0.88425 0.0
C1461 C 0.59 0.5895 0.91793 0.0
C1462 C 0.57875 0.6079 0.89478 0.0
C1463 C 0.58756 0.61336 0.91653 0.0
H1464 H 0.03368 0.6079 0.94868 0.0
H1465 H 0.99373 0.61682 0.94869 0.0
H1466 H 0.98301 0.60164 0.9111 0.0
H1467 H 0.98517 0.586 0.87808 0.0
H1468 H 0.02481 0.57659 0.87922 0.0
H1469 H 0.03554 0.59197 0.91643 0.0
C1470 C 0.02264 0.60659 0.94048 0.0
C1471 C 0.01456 0.61355 0.9515 0.0
C1472 C 0.01651 0.59778 0.91903 0.0
C1473 C 1.00021 0.6116 0.94062 0.0
C1474 C 0.99407 0.60292 0.91912 0.0
C1475 C 0.99606 0.58717 0.8866 0.0
C1476 C 0.0042 0.58019 0.87575 0.0
C1477 C 1.00211 0.59594 0.90818 0.0
C1478 C 0.01843 0.58204 0.88691 0.0
C1479 C 0.02454 0.59076 0.90828 0.0
H1480 H 0.39311 0.42863 0.9437 0.0
H1481 H 0.38678 0.38101 0.93988 0.0
H1482 H 0.40037 0.38778 0.90106 0.0
H1483 H 0.4154 0.40776 0.86937 0.0
H1484 H 0.4228 0.45575 0.87453 0.0
H1485 H 0.40711 0.44813 0.91144 0.0
C1486 C 0.39456 0.41964 0.93434 0.0
C1487 C 0.38902 0.40436 0.94482 0.0
C1488 C 0.40258 0.42369 0.91224 0.0
C1489 C 0.39099 0.39289 0.93232 0.0
C1490 C 0.39878 0.39676 0.91012 0.0
C1491 C 0.41362 0.41657 0.8786 0.0
C1492 C 0.42037 0.43234 0.86921 0.0
C1493 C 0.40487 0.41222 0.90013 0.0
C1494 C 0.41762 0.44349 0.88115 0.0
C1495 C 0.40875 0.43918 0.90239 0.0
H1496 H 0.58553 0.01473 0.95909 0.0
H1497 H 0.60271 0.98254 0.94203 0.0
H1498 H 0.58726 0.97538 0.90402 0.0
H1499 H 0.57048 0.97975 0.87459 0.0
H1500 H 0.55177 0.01055 0.89302 0.0
H1501 H 0.5665 0.01698 0.93137 0.0
C1502 C 0.58581 0.00606 0.94711 0.0
C1503 C 0.59537 0.99929 0.95325 0.0
C1504 C 0.5768 1.00191 0.92542 0.0
C1505 C 0.59543 0.98792 0.93773 0.0
C1506 C 0.58666 0.98388 0.91594 0.0
C1507 C 0.56928 0.9876 0.88711 0.0
C1508 C 0.56013 0.9948 0.88056 0.0
C1509 C 0.57749 0.99098 0.90946 0.0
C1510 C 0.55903 0.00514 0.89712 0.0
C1511 C 0.56736 0.00874 0.91922 0.0
H1512 H 0.59187 0.98537 0.07582 0.0
H1513 H 0.62304 0.03656 0.0904 0.0
H1514 H 0.61134 0.03268 0.13035 0.0
H1515 H 0.59219 0.01486 0.16083 0.0
H1516 H 0.55872 0.96414 0.14452 0.0
H1517 H 0.57169 0.96767 0.10585 0.0
C1518 C 0.59614 0.99563 0.08784 0.0
C1519 C 0.60833 0.0112 0.0803 0.0
C1520 C 0.58901 0.9934 0.11049 0.0
C1521 C 0.61362 0.02446 0.09584 0.0
C1522 C 0.60696 0.02225 0.11867 0.0
C1523 C 0.58748 0.00458 0.14876 0.0
C1524 C 0.57444 0.98924 0.15585 0.0
C1525 C 0.59456 0.0068 0.12611 0.0
C1526 C 0.56892 0.97605 0.13996 0.0
C1527 C 0.57623 0.97807 0.11766 0.0
H1528 H 0.03711 0.60346 0.07175 0.0
H1529 H 0.0037 0.61849 0.09317 0.0
H1530 H 1.0014 0.60643 0.13288 0.0
H1531 H 0.01071 0.59351 0.16245 0.0
H1532 H 0.04378 0.57824 0.14004 0.0
H1533 H 0.04447 0.58865 0.09984 0.0
C1534 C 0.02922 0.60403 0.08502 0.0
C1535 C 0.02073 0.61202 0.07957 0.0
C1536 C 0.02803 0.59717 0.10774 0.0
C1537 C 0.01039 0.61242 0.0969 0.0
C1538 C 0.00914 0.60559 0.11965 0.0
C1539 C 0.01784 0.59221 0.14867 0.0
C1540 C 0.02739 0.58531 0.15444 0.0
C1541 C 0.01815 0.59819 0.12541 0.0
C1542 C 0.03663 0.58383 0.13632 0.0
C1543 C 0.03697 0.5897 0.11325 0.0
H1544 H 0.39545 0.38328 0.08449 0.0
H1545 H 0.42044 0.43232 0.05748 0.0
H1546 H 0.43975 0.44138 0.09131 0.0
H1547 H 0.44859 0.43583 0.1297 0.0
H1548 H 0.42239 0.38734 0.15884 0.0
H1549 H 0.40491 0.37759 0.12289 0.0
C1550 C 0.40525 0.39589 0.08592 0.0
C1551 C 0.40645 0.40712 0.06857 0.0
C1552 C 0.41614 0.40115 0.10583 0.0
C1553 C 0.41915 0.42346 0.07071 0.0
C1554 C 0.43022 0.42866 0.09005 0.0
C1555 C 0.43902 0.42313 0.12831 0.0
C1556 C 0.43682 0.41241 0.14713 0.0
C1557 C 0.42864 0.41769 0.10795 0.0
C1558 C 0.42457 0.3959 0.1446 0.0
C1559 C 0.41442 0.39031 0.1241 0.0
H1560 H 0.63359 0.71986 0.43036 0.0
H1561 H 0.6852 0.74433 0.41428 0.0
H1562 H 0.69185 0.7604 0.45106 0.0
H1563 H 0.68289 0.76794 0.48714 0.0
H1564 H 0.63137 0.74124 0.5051 0.0
H1565 H 0.62485 0.72602 0.4679 0.0
C1566 C 0.6463 0.7287 0.43494 0.0
C1567 C 0.65887 0.73097 0.41956 0.0
C1568 C 0.65005 0.73767 0.4563 0.0
C1569 C 0.6753 0.74232 0.42586 0.0
C1570 C 0.6791 0.75156 0.44684 0.0
C1571 C 0.67024 0.75865 0.48326 0.0
C1572 C 0.65768 0.75605 0.49908 0.0
C1573 C 0.66656 0.74937 0.46217 0.0
C1574 C 0.64134 0.74402 0.49316 0.0
C1575 C 0.63756 0.7351 0.47193 0.0
H1576 H 0.28729 0.94396 0.42843 0.0
H1577 H 0.30734 0.91286 0.42578 0.0
H1578 H 0.29354 0.89969 0.46282 0.0
H1579 H 0.27493 0.89611 0.4951 0.0
H1580 H 0.25447 0.92678 0.4982 0.0
H1581 H 0.26907 0.94082 0.46176 0.0
C1582 C 0.28875 0.93441 0.4361 0.0
C1583 C 0.29831 0.92941 0.42428 0.0
C1584 C 0.28057 0.92667 0.45737 0.0
C1585 C 0.29999 0.91692 0.43439 0.0
C1586 C 0.29209 0.90935 0.4556 0.0
C1587 C 0.27382 0.906 0.48798 0.0
C1588 C 0.26362 0.91037 0.49935 0.0
C1589 C 0.28223 0.914 0.4671 0.0
C1590 C 0.26209 0.92303 0.48962 0.0
C1591 C 0.27051 0.93113 0.46887 0.0
H1592 H 0.07426 0.35334 0.41994 0.0
H1593 H 0.07488 0.30986 0.40432 0.0
H1594 H 0.09225 0.31443 0.43938 0.0
H1595 H 0.10653 0.33004 0.47536 0.0
H1596 H 0.10613 0.3734 0.49191 0.0
H1597 H 0.08973 0.36975 0.45556 0.0
C1598 C 0.07827 0.34492 0.42415 0.0
C1599 C 0.07311 0.33121 0.40949 0.0
C1600 C 0.08835 0.34759 0.44454 0.0
C1601 C 0.07852 0.32048 0.41524 0.0
C1602 C 0.08849 0.32306 0.43535 0.0
C1603 C 0.10283 0.33868 0.47103 0.0
C1604 C 0.10745 0.3519 0.48639 0.0
C1605 C 0.09333 0.33645 0.45026 0.0
C1606 C 0.10283 0.36317 0.48029 0.0
C1607 C 0.09335 0.36103 0.45958 0.0
H1608 H 0.04986 0.30729 0.26977 0.0
H1609 H 0.07412 0.35688 0.29442 0.0
H1610 H 0.09005 0.36603 0.25762 0.0
H1611 H 0.09809 0.35977 0.21968 0.0
H1612 H 0.0719 0.31042 0.19319 0.0
H1613 H 0.05611 0.30135 0.22988 0.0
C1614 C 0.05856 0.32011 0.26699 0.0
C1615 C 0.06089 0.33138 0.28484 0.0
C1616 C 0.06753 0.32531 0.24568 0.0
C1617 C 0.07206 0.34797 0.28091 0.0
C1618 C 0.08124 0.3532 0.25994 0.0
C1619 C 0.08873 0.34706 0.22154 0.0
C1620 C 0.08645 0.33584 0.20354 0.0
C1621 C 0.0792 0.34195 0.24233 0.0
C1622 C 0.07438 0.31937 0.20685 0.0
C1623 C 0.06516 0.31414 0.22777 0.0
H1624 H 0.63908 0.72852 0.28391 0.0
H1625 H 0.68932 0.74105 0.29456 0.0
H1626 H 0.69689 0.75619 0.25673 0.0
H1627 H 0.68908 0.76583 0.22061 0.0
H1628 H 0.63822 0.75141 0.20953 0.0
H1629 H 0.6312 0.73737 0.2478 0.0
C1630 C 0.65172 0.73461 0.27807 0.0
C1631 C 0.66362 0.7337 0.29213 0.0
C1632 C 0.65591 0.74307 0.25626 0.0
C1633 C 0.6799 0.74153 0.28409 0.0
C1634 C 0.68424 0.75021 0.26247 0.0
C1635 C 0.67643 0.75952 0.22645 0.0
C1636 C 0.66428 0.75994 0.21216 0.0
C1637 C 0.67232 0.75103 0.24836 0.0
C1638 C 0.64798 0.75176 0.22028 0.0
C1639 C 0.64388 0.74354 0.24212 0.0
H1640 H 0.28361 0.95519 0.29768 0.0
H1641 H 0.28676 0.91211 0.29602 0.0
H1642 H 0.26895 0.90245 0.26073 0.0
H1643 H 0.25307 0.90629 0.22959 0.0
H1644 H 0.25007 0.94936 0.22954 0.0
H1645 H 0.26685 0.95872 0.26642 0.0
C1646 C 0.28034 0.94367 0.28963 0.0
C1647 C 0.28666 0.93449 0.29951 0.0
C1648 C 0.27004 0.93811 0.26904 0.0
C1649 C 0.28224 0.91955 0.28882 0.0
C1650 C 0.27199 0.91395 0.26859 0.0
C1651 C 0.25615 0.91778 0.23755 0.0
C1652 C 0.25044 0.92716 0.22669 0.0
C1653 C 0.26596 0.92317 0.25843 0.0
C1654 C 0.25422 0.94183 0.23761 0.0
C1655 C 0.26392 0.94725 0.25861 0.0
H1656 H 0.6671 0.93676 0.2692 0.0
H1657 H 0.71647 0.9463 0.27856 0.0
H1658 H 0.71483 0.93453 0.23946 0.0
H1659 H 0.69958 0.92144 0.20267 0.0
H1660 H 0.65011 0.9112 0.19256 0.0
H1661 H 0.65148 0.92308 0.23195 0.0
C1662 C 0.67749 0.9363 0.26261 0.0
C1663 C 0.69189 0.94244 0.27684 0.0
C1664 C 0.67643 0.9293 0.24003 0.0
C1665 C 0.70521 0.94163 0.2681 0.0
C1666 C 0.70432 0.9349 0.24568 0.0
C1667 C 0.68913 0.92191 0.20901 0.0
C1668 C 0.67483 0.91558 0.19467 0.0
C1669 C 0.69001 0.9287 0.23154 0.0
C1670 C 0.66125 0.91594 0.20335 0.0
C1671 C 0.66206 0.92281 0.22579 0.0
H1672 H 0.066 0.73103 0.29307 0.0
H1673 H 0.03585 0.74987 0.26919 0.0
H1674 H 0.05285 0.76156 0.23366 0.0
H1675 H 0.07661 0.76692 0.21004 0.0
H1676 H 0.10867 0.7508 0.23657 0.0
H1677 H 0.09046 0.73735 0.27013 0.0
C1678 C 0.06308 0.73754 0.27989 0.0
C1679 C 0.04965 0.73948 0.2835 0.0
C1680 C 0.07327 0.74475 0.26004 0.0
C1681 C 0.04613 0.7482 0.26665 0.0
C1682 C 0.05586 0.7549 0.24641 0.0
C1683 C 0.07982 0.7607 0.2233 0.0
C1684 C 0.09405 0.7599 0.22053 0.0
C1685 C 0.06959 0.75343 0.24308 0.0
C1686 C 0.09768 0.75141 0.2378 0.0
C1687 C 0.08732 0.74378 0.25717 0.0
H1688 H 0.29319 0.35793 0.25421 0.0
H1689 H 0.25382 0.32001 0.29509 0.0
H1690 H 0.2352 0.3125 0.26007 0.0
H1691 H 0.22982 0.31847 0.21893 0.0
H1692 H 0.27051 0.35461 0.17719 0.0
H1693 H 0.2888 0.36124 0.21163 0.0
C1694 C 0.28058 0.34786 0.25526 0.0
C1695 C 0.27476 0.33956 0.27703 0.0
C1696 C 0.27013 0.34352 0.23509 0.0
C1697 C 0.2585 0.32647 0.27834 0.0
C1698 C 0.24787 0.32228 0.25842 0.0
C1699 C 0.24272 0.32758 0.21709 0.0
C1700 C 0.24849 0.33636 0.19545 0.0
C1701 C 0.25348 0.33096 0.2368 0.0
C1702 C 0.26537 0.34812 0.19375 0.0
C1703 C 0.27599 0.35181 0.2134 0.0
H1704 H 0.28323 0.33473 0.41655 0.0
H1705 H 0.27801 0.37487 0.39449 0.0
H1706 H 0.26594 0.37428 0.43286 0.0
H1707 H 0.25713 0.36273 0.47286 0.0
H1708 H 0.26281 0.3231 0.49584 0.0
H1709 H 0.27416 0.32298 0.45687 0.0
C1710 C 0.27941 0.34331 0.42011 0.0
C1711 C 0.2816 0.35485 0.40262 0.0
C1712 C 0.2725 0.34299 0.44239 0.0
C1713 C 0.27656 0.36588 0.40759 0.0
C1714 C 0.26963 0.36557 0.42957 0.0
C1715 C 0.26097 0.35415 0.46943 0.0
C1716 C 0.25916 0.34299 0.48728 0.0
C1717 C 0.26764 0.35426 0.44713 0.0
C1718 C 0.26391 0.33173 0.48234 0.0
C1719 C 0.27049 0.33171 0.4601 0.0
H1720 H 0.67427 0.91508 0.39598 0.0
H1721 H 0.66727 0.95405 0.41625 0.0
H1722 H 0.66286 0.94457 0.45793 0.0
H1723 H 0.66583 0.92794 0.48941 0.0
H1724 H 0.67209 0.88859 0.46869 0.0
H1725 H 0.67175 0.89527 0.42628 0.0
C1726 C 0.67128 0.92117 0.40944 0.0
C1727 C 0.67126 0.93531 0.40325 0.0
C1728 C 0.66886 0.9157 0.43328 0.0
C1729 C 0.66727 0.9431 0.42066 0.0
C1730 C 0.66494 0.93778 0.44452 0.0
C1731 C 0.66664 0.9206 0.47549 0.0
C1732 C 0.66911 0.9079 0.48195 0.0
C1733 C 0.66642 0.92452 0.45118 0.0
C1734 C 0.67013 0.89838 0.46397 0.0
C1735 C 0.67005 0.90227 0.43979 0.0
H1736 H 0.06563 0.72096 0.40179 0.0
H1737 H 0.046 0.75078 0.42104 0.0
H1738 H 0.06362 0.76029 0.45672 0.0
H1739 H 0.08455 0.76032 0.48243 0.0
H1740 H 0.10564 0.73187 0.46283 0.0
H1741 H 0.08739 0.72152 0.42756 0.0
C1742 C 0.06517 0.72946 0.4139 0.0
C1743 C 0.0545 0.73514 0.40874 0.0
C1744 C 0.07561 0.73516 0.43431 0.0
C1745 C 0.05414 0.74627 0.42449 0.0
C1746 C 0.06422 0.75173 0.44494 0.0
C1747 C 0.08541 0.75208 0.47028 0.0
C1748 C 0.09657 0.74699 0.47529 0.0
C1749 C 0.07507 0.74636 0.44992 0.0
C1750 C 0.0971 0.73592 0.45958 0.0
C1751 C 0.0867 0.73003 0.43933 0.0
H1752 H 0.29194 0.05231 0.75819 0.0
H1753 H 0.34363 0.07831 0.7422 0.0
H1754 H 0.34975 0.09387 0.77947 0.0
H1755 H 0.34027 0.10033 0.81615 0.0
H1756 H 0.2887 0.07213 0.83361 0.0
H1757 H 0.28271 0.0576 0.79586 0.0
C1758 C 0.30455 0.06139 0.76284 0.0
C1759 C 0.3173 0.06423 0.74739 0.0
C1760 C 0.308 0.07005 0.78443 0.0
C1761 C 0.3336 0.07588 0.75383 0.0
C1762 C 0.33709 0.08481 0.77509 0.0
C1763 C 0.32773 0.09087 0.81199 0.0
C1764 C 0.31498 0.0876 0.82789 0.0
C1765 C 0.32437 0.08201 0.79053 0.0
C1766 C 0.29879 0.07539 0.82165 0.0
C1767 C 0.29532 0.06686 0.8001 0.0
H1768 H 0.93799 0.27299 0.748 0.0
H1769 H 0.97454 0.26 0.75983 0.0
H1770 H 0.96191 0.24712 0.7979 0.0
H1771 H 0.94029 0.23917 0.82723 0.0
H1772 H 0.90165 0.24917 0.81314 0.0
H1773 H 0.91544 0.26385 0.77682 0.0
C1774 C 0.94323 0.26747 0.75911 0.0
C1775 C 0.95722 0.26754 0.75138 0.0
C1776 C 0.93552 0.25953 0.7805 0.0
C1777 C 0.96378 0.2601 0.76556 0.0
C1778 C 0.95655 0.25272 0.78726 0.0
C1779 C 0.93464 0.24426 0.8161 0.0
C1780 C 0.91988 0.24297 0.82315 0.0
C1781 C 0.94231 0.2522 0.79476 0.0
C1782 C 0.91312 0.25013 0.80857 0.0
C1783 C 0.92095 0.25846 0.78763 0.0
H1784 H 0.73547 0.68913 0.76359 0.0
H1785 H 0.76301 0.67123 0.72869 0.0
H1786 H 0.78244 0.68023 0.76247 0.0
H1787 H 0.78981 0.69033 0.80361 0.0
H1788 H 0.7611 0.70616 0.84041 0.0
H1789 H 0.74424 0.70122 0.80425 0.0
C1790 C 0.74597 0.68759 0.76323 0.0
C1791 C 0.74785 0.67954 0.74376 0.0
C1792 C 0.75679 0.69227 0.7832 0.0
C1793 C 0.76133 0.67737 0.74357 0.0
C1794 C 0.7724 0.68245 0.7629 0.0
C1795 C 0.77989 0.69274 0.80373 0.0
C1796 C 0.77664 0.69842 0.82484 0.0
C1797 C 0.76994 0.68941 0.78314 0.0
C1798 C 0.76397 0.70186 0.82443 0.0
C1799 C 0.75422 0.69891 0.80377 0.0
H1800 H 0.71898 0.62909 0.62429 0.0
H1801 H 0.73057 0.67847 0.61613 0.0
H1802 H 0.74006 0.67916 0.57536 0.0
H1803 H 0.74553 0.66582 0.54229 0.0
H1804 H 0.73348 0.61634 0.55064 0.0
H1805 H 0.72362 0.61558 0.59111 0.0
C1806 C 0.72357 0.64003 0.61363 0.0
C1807 C 0.72415 0.65375 0.62333 0.0
C1808 C 0.72892 0.64031 0.59024 0.0
C1809 C 0.72998 0.66774 0.60912 0.0
C1810 C 0.73545 0.66815 0.58583 0.0
C1811 C 0.7408 0.65491 0.55305 0.0
C1812 C 0.74028 0.64117 0.54357 0.0
C1813 C 0.73508 0.65454 0.57627 0.0
C1814 C 0.73389 0.62703 0.55751 0.0
C1815 C 0.72832 0.62661 0.58066 0.0
H1816 H 0.34337 0.07744 0.62197 0.0
H1817 H 0.29097 0.05113 0.60868 0.0
H1818 H 0.29513 0.06355 0.56918 0.0
H1819 H 0.31348 0.08136 0.53814 0.0
H1820 H 0.36581 0.10962 0.55216 0.0
H1821 H 0.36183 0.0967 0.59131 0.0
C1822 C 0.33289 0.07445 0.61039 0.0
C1823 C 0.3169 0.06335 0.61826 0.0
C1824 C 0.33534 0.08189 0.58774 0.0
C1825 C 0.30342 0.05969 0.60315 0.0
C1826 C 0.30577 0.06676 0.5805 0.0
C1827 C 0.32405 0.085 0.54983 0.0
C1828 C 0.33993 0.09649 0.54195 0.0
C1829 C 0.32166 0.07787 0.57262 0.0
C1830 C 0.35344 0.10062 0.55738 0.0
C1831 C 0.35118 0.09332 0.57993 0.0
H1832 H 0.93932 0.25281 0.62333 0.0
H1833 H 0.945 0.30013 0.62735 0.0
H1834 H 0.92828 0.29435 0.59066 0.0
H1835 H 0.91349 0.27634 0.55592 0.0
H1836 H 0.90875 0.22943 0.55236 0.0
H1837 H 0.92365 0.23458 0.59045 0.0
C1838 C 0.93687 0.26189 0.61633 0.0
C1839 C 0.94354 0.27694 0.62801 0.0
C1840 C 0.92746 0.25856 0.59521 0.0
C1841 C 0.94007 0.28845 0.6187 0.0
C1842 C 0.93053 0.28516 0.59769 0.0
C1843 C 0.91557 0.26721 0.56371 0.0
C1844 C 0.91019 0.2526 0.55128 0.0
C1845 C 0.92436 0.27034 0.58558 0.0
C1846 C 0.913 0.24086 0.56145 0.0
C1847 C 0.92148 0.24377 0.58324 0.0
H1848 H 0.33096 0.2697 0.6069 0.0
H1849 H 0.38058 0.27927 0.60872 0.0
H1850 H 0.37504 0.26324 0.57242 0.0
H1851 H 0.35609 0.24608 0.54051 0.0
H1852 H 0.30656 0.23664 0.53801 0.0
H1853 H 0.31202 0.25275 0.57439 0.0
C1854 C 0.34058 0.26836 0.59929 0.0
C1855 C 0.35616 0.27571 0.6106 0.0
C1856 C 0.3373 0.25899 0.57839 0.0
C1857 C 0.36846 0.27375 0.60049 0.0
C1858 C 0.36532 0.26455 0.5797 0.0
C1859 C 0.34652 0.24765 0.54779 0.0
C1860 C 0.33094 0.24011 0.53653 0.0
C1861 C 0.34978 0.25706 0.56856 0.0
C1862 C 0.3186 0.24208 0.54649 0.0
C1863 C 0.32175 0.25141 0.5672 0.0
H1864 H 0.70808 0.08138 0.59387 0.0
H1865 H 0.72924 0.05316 0.61629 0.0
H1866 H 0.74699 0.06249 0.58122 0.0
H1867 H 0.75789 0.08031 0.54605 0.0
H1868 H 0.73488 0.10666 0.52199 0.0
H1869 H 0.7168 0.09672 0.55625 0.0
C1870 C 0.71646 0.07714 0.59094 0.0
C1871 C 0.71745 0.06671 0.60772 0.0
C1872 C 0.72653 0.08246 0.57071 0.0
C1873 C 0.72821 0.06115 0.60357 0.0
C1874 C 0.73845 0.06658 0.58362 0.0
C1875 C 0.74875 0.08368 0.5479 0.0
C1876 C 0.74813 0.09457 0.53148 0.0
C1877 C 0.73791 0.07747 0.5673 0.0
C1878 C 0.73618 0.09881 0.53463 0.0
C1879 C 0.72563 0.09296 0.55413 0.0
H1880 H 0.92719 0.65105 0.62013 0.0
H1881 H 0.94738 0.70158 0.60277 0.0
H1882 H 0.93007 0.69403 0.5668 0.0
H1883 H 0.90946 0.67331 0.5401 0.0
H1884 H 0.88771 0.62267 0.55805 0.0
H1885 H 0.90552 0.63005 0.59369 0.0
C1886 C 0.92782 0.66038 0.6084 0.0
C1887 C 0.93858 0.67685 0.61413 0.0
C1888 C 0.91757 0.65596 0.58783 0.0
C1889 C 0.93916 0.68881 0.59887 0.0
C1890 C 0.92927 0.68452 0.57825 0.0
C1891 C 0.90834 0.66384 0.55198 0.0
C1892 C 0.89717 0.64745 0.54632 0.0
C1893 C 0.91839 0.66816 0.57262 0.0
C1894 C 0.8963 0.6354 0.56173 0.0
C1895 C 0.90644 0.6396 0.58221 0.0
H1896 H 0.94795 0.70557 0.74531 0.0
H1897 H 0.94311 0.65854 0.74358 0.0
H1898 H 0.92925 0.65174 0.78215 0.0
H1899 H 0.9185 0.65917 0.81644 0.0
H1900 H 0.92362 0.70628 0.81814 0.0
H1901 H 0.93744 0.71304 0.77952 0.0
C1902 C 0.94388 0.69383 0.75334 0.0
C1903 C 0.94656 0.68259 0.7415 0.0
C1904 C 0.93596 0.69 0.77552 0.0
C1905 C 0.94124 0.66745 0.75227 0.0
C1906 C 0.93328 0.66352 0.77433 0.0
C1907 C 0.92253 0.67085 0.80822 0.0
C1908 C 0.92002 0.6822 0.82007 0.0
C1909 C 0.93054 0.67469 0.78608 0.0
C1910 C 0.92553 0.6974 0.80944 0.0
C1911 C 0.93337 0.70125 0.78734 0.0
H1912 H 0.36927 0.2699 0.74008 0.0
H1913 H 0.32682 0.27491 0.74125 0.0
H1914 H 0.31933 0.26155 0.7804 0.0
H1915 H 0.3257 0.24976 0.8152 0.0
H1916 H 0.36797 0.24446 0.81337 0.0
H1917 H 0.37475 0.25682 0.77363 0.0
C1918 C 0.35833 0.26803 0.7488 0.0
C1919 C 0.34869 0.27351 0.73777 0.0
C1920 C 0.35413 0.26041 0.77129 0.0
C1921 C 0.33448 0.27084 0.74931 0.0
C1922 C 0.33021 0.26323 0.77174 0.0
C1923 C 0.33625 0.25108 0.80597 0.0
C1924 C 0.34638 0.24629 0.81739 0.0
C1925 C 0.34005 0.25813 0.78301 0.0
C1926 C 0.36013 0.24829 0.80523 0.0
C1927 C 0.36397 0.25528 0.78243 0.0
H1928 H 0.7178 0.04919 0.74903 0.0
H1929 H 0.74163 0.0974 0.719 0.0
H1930 H 0.76025 0.108 0.75366 0.0
H1931 H 0.76903 0.10389 0.79312 0.0
H1932 H 0.74354 0.05623 0.82524 0.0
H1933 H 0.72674 0.04509 0.78895 0.0
C1934 C 0.72717 0.06198 0.75003 0.0
C1935 C 0.7283 0.07249 0.73153 0.0
C1936 C 0.73761 0.06811 0.77036 0.0
C1937 C 0.74042 0.08907 0.73311 0.0
C1938 C 0.7511 0.09515 0.7529 0.0
C1939 C 0.75972 0.09109 0.79237 0.0
C1940 C 0.75762 0.081 0.8121 0.0
C1941 C 0.74964 0.08483 0.7718 0.0
C1942 C 0.74571 0.06433 0.81032 0.0
C1943 C 0.73593 0.05793 0.78961 0.0
H1944 H 0.02416 0.35661 0.04545 0.0
H1945 H 0.05627 0.39486 0.99708 0.0
H1946 H 0.0787 0.39052 0.00782 0.0
H1947 H 0.08953 0.37664 0.03242 0.0
H1948 H 0.05726 0.33916 0.0818 0.0
H1949 H 0.03455 0.34216 0.06864 0.0
C1950 C 0.03604 0.36399 0.03716 0.0
C1951 C 0.03854 0.37614 0.02063 0.0
C1952 C 0.04887 0.36148 0.04346 0.0
C1953 C 0.054 0.38547 0.00994 0.0
C1954 C 0.06685 0.38299 0.01607 0.0
C1955 C 0.07752 0.3691 0.04028 0.0
C1956 C 0.07521 0.35765 0.05806 0.0
C1957 C 0.06448 0.37116 0.03305 0.0
C1958 C 0.05945 0.34785 0.06776 0.0
C1959 C 0.04643 0.34969 0.06046 0.0
H1960 H 0.6267 0.67255 0.03329 0.0
H1961 H 0.67717 0.69463 0.01166 0.0
H1962 H 0.68308 0.72086 0.02647 0.0
H1963 H 0.67455 0.73695 0.04816 0.0
H1964 H 0.62346 0.716 0.06626 0.0
H1965 H 0.6173 0.68988 0.05061 0.0
C1966 C 0.63894 0.68315 0.03166 0.0
C1967 C 0.65151 0.68162 0.02157 0.0
C1968 C 0.64222 0.69836 0.03982 0.0
C1969 C 0.66727 0.69548 0.0193 0.0
C1970 C 0.67068 0.71049 0.02786 0.0
C1971 C 0.66192 0.72693 0.04815 0.0
C1972 C 0.6496 0.72866 0.05883 0.0
C1973 C 0.65831 0.71202 0.03844 0.0
C1974 C 0.63341 0.71513 0.05889 0.0
C1975 C 0.6298 0.70013 0.04973 0.0
H1976 H 0.31608 0.94326 0.02831 0.0
H1977 H 0.32476 0.99185 0.02964 0.0
H1978 H 0.29723 0.98146 0.04524 0.0
H1979 H 0.27177 0.95891 0.06221 0.0
H1980 H 0.26395 0.91063 0.06232 0.0
H1981 H 0.28984 0.92054 0.04192 0.0
C1982 C 0.31191 0.95159 0.03174 0.0
C1983 C 0.32258 0.96834 0.02811 0.0
C1984 C 0.29618 0.94558 0.041 0.0
C1985 C 0.31687 0.9789 0.03239 0.0
C1986 C 0.30113 0.97298 0.0414 0.0
C1987 C 0.27569 0.95054 0.05764 0.0
C1988 C 0.26592 0.93406 0.064 0.0
C1989 C 0.29085 0.9564 0.04639 0.0
C1990 C 0.27106 0.92333 0.05748 0.0
C1991 C 0.28599 0.92902 0.046 0.0
H1992 H 0.35113 0.0435 0.03188 0.0
H1993 H 0.38392 0.0503 0.97436 0.0
H1994 H 0.37988 0.0713 0.95693 0.0
H1995 H 0.36517 0.08604 0.95609 0.0
H1996 H 0.33168 0.07851 0.01282 0.0
H1997 H 0.33791 0.05955 0.03253 0.0
C1998 C 0.35755 0.04969 0.01568 0.0
C1999 C 0.36772 0.04522 0.00438 0.0
C2000 C 0.35497 0.06158 0.00552 0.0
C2001 C 0.37595 0.05341 0.98339 0.0
C2002 C 0.37363 0.06543 0.97338 0.0
C2003 C 0.35951 0.08051 0.97303 0.0
C2004 C 0.34795 0.08363 0.98296 0.0
C2005 C 0.36292 0.06938 0.98402 0.0
C2006 C 0.34052 0.07618 0.00473 0.0
C2007 C 0.34407 0.06535 0.01599 0.0
H2008 H 0.92803 0.32282 0.99573 0.0
H2009 H 0.96833 0.32039 0.02745 0.0
H2010 H 0.95516 0.29188 0.01573 0.0
H2011 H 0.93322 0.26832 0.99405 0.0
H2012 H 0.89467 0.27204 0.95827 0.0
H2013 H 0.90579 0.29906 0.9748 0.0
C2014 C 0.93381 0.31599 0.00039 0.0
C2015 C 0.94914 0.32371 0.01242 0.0
C2016 C 0.92644 0.29977 0.99291 0.0
C2017 C 0.95657 0.31474 0.01809 0.0
C2018 C 0.94904 0.29844 0.01139 0.0
C2019 C 0.92725 0.27501 0.98969 0.0
C2020 C 0.9131 0.26799 0.97473 0.0
C2021 C 0.93416 0.29094 0.99832 0.0
C2022 C 0.90538 0.27684 0.96999 0.0
C2023 C 0.91186 0.29246 0.97921 0.0
H2024 H 0.69503 0.62569 0.00934 0.0
H2025 H 0.68928 0.66705 0.00192 0.0
H2026 H 0.71716 0.68323 0.98656 0.0
H2027 H 0.74221 0.68485 0.97181 0.0
H2028 H 0.74774 0.64338 0.97946 0.0
H2029 H 0.72086 0.62803 0.99806 0.0
C2030 C 0.6999 0.63829 0.00461 0.0
C2031 C 0.68996 0.64506 0.00653 0.0
C2032 C 0.71586 0.64748 0.99558 0.0
C2033 C 0.69659 0.66147 0.00052 0.0
C2034 C 0.71253 0.67074 0.99165 0.0
C2035 C 0.73767 0.67256 0.97797 0.0
C2036 C 0.7469 0.66521 0.97395 0.0
C2037 C 0.72215 0.66376 0.98861 0.0
C2038 C 0.74076 0.64922 0.98188 0.0
C2039 C 0.72542 0.64045 0.99261 0.0
H2040 H 0.994 0.67731 0.98782 0.0
H2041 H 0.96397 0.62932 0.01745 0.0
H2042 H 0.93916 0.62987 0.00743 0.0
H2043 H 0.92595 0.64324 0.98748 0.0
H2044 H 0.95634 0.69099 0.95712 0.0
H2045 H 0.98097 0.69138 0.97069 0.0
C2046 C 0.98204 0.667 0.99228 0.0
C2047 C 0.98086 0.65322 0.00313 0.0
C2048 C 0.96785 0.66737 0.98636 0.0
C2049 C 0.96525 0.64006 0.00902 0.0
C2050 C 0.95104 0.64036 0.00323 0.0
C2051 C 0.93796 0.65377 0.98396 0.0
C2052 C 0.93922 0.66704 0.97121 0.0
C2053 C 0.95218 0.65382 0.99146 0.0
C2054 C 0.95492 0.68068 0.96714 0.0
C2055 C 0.96906 0.68086 0.97469 0.0
H2056 H 0.37314 0.33535 0.9912 0.0
H2057 H 0.32822 0.31238 0.03143 0.0
H2058 H 0.32218 0.28575 0.01814 0.0
H2059 H 0.32882 0.26902 0.99323 0.0
H2060 H 0.37353 0.29209 0.95258 0.0
H2061 H 0.38059 0.31852 0.96827 0.0
C2062 C 0.36208 0.32452 0.99722 0.0
C2063 C 0.3511 0.32592 0.01214 0.0
C2064 C 0.35863 0.30921 0.98945 0.0
C2065 C 0.33689 0.31171 0.01988 0.0
C2066 C 0.33339 0.29645 0.01225 0.0
C2067 C 0.34014 0.27983 0.98787 0.0
C2068 C 0.35059 0.27853 0.97167 0.0
C2069 C 0.34404 0.29506 0.99673 0.0
C2070 C 0.36534 0.29266 0.96522 0.0
C2071 C 0.36932 0.30783 0.97402 0.0
H2072 H 0.68058 0.06387 0.0019 0.0
H2073 H 0.67607 0.01732 0.99285 0.0
H2074 H 0.70418 0.03071 0.97813 0.0
H2075 H 0.72898 0.05548 0.9641 0.0
H2076 H 0.73323 0.1019 0.9731 0.0
H2077 H 0.70625 0.08869 0.99159 0.0
C2078 C 0.68577 0.05663 0.99692 0.0
C2079 C 0.67614 0.03961 0.99819 0.0
C2080 C 0.70186 0.06438 0.98829 0.0
C2081 C 0.68317 0.03045 0.99196 0.0
C2082 C 0.69923 0.03809 0.98346 0.0
C2083 C 0.72416 0.06273 0.9706 0.0
C2084 C 0.73303 0.07963 0.96699 0.0
C2085 C 0.70856 0.05503 0.98105 0.0
C2086 C 0.72653 0.08885 0.97531 0.0
C2087 C 0.71112 0.08131 0.98592 0.0
H2088 H 0.64819 0.95976 0.98853 0.0
H2089 H 0.61872 0.95609 0.04906 0.0
H2090 H 0.62248 0.93502 0.06657 0.0
H2091 H 0.63614 0.91948 0.06664 0.0
H2092 H 0.66539 0.92265 0.00615 0.0
H2093 H 0.65976 0.94212 0.98682 0.0
C2094 C 0.64244 0.95423 0.00542 0.0
C2095 C 0.63333 0.95967 0.01754 0.0
C2096 C 0.64473 0.94212 0.01555 0.0
C2097 C 0.62588 0.95226 0.03935 0.0
C2098 C 0.62805 0.9402 0.04945 0.0
C2099 C 0.64097 0.92407 0.04895 0.0
C2100 C 0.65128 0.91963 0.03799 0.0
C2101 C 0.63771 0.93527 0.03795 0.0
C2102 C 0.65763 0.92602 0.01522 0.0
C2103 C 0.65438 0.93713 0.0041 0.0
H2104 H 0.04326 0.6886 0.0463 0.0
H2105 H 0.08171 0.69037 0.00411 0.0
H2106 H 0.10069 0.71828 0.0171 0.0
H2107 H 0.10715 0.74101 0.04372 0.0
H2108 H 0.06938 0.73784 0.08937 0.0
H2109 H 0.04933 0.71207 0.07109 0.0
C2110 C 0.05571 0.69521 0.0396 0.0
C2111 C 0.0611 0.68739 0.02441 0.0
C2112 C 0.06673 0.71106 0.0478 0.0
C2113 C 0.0773 0.69607 0.01599 0.0
C2114 C 0.08816 0.71203 0.02343 0.0
C2115 C 0.09454 0.73472 0.04971 0.0
C2116 C 0.08996 0.74144 0.06815 0.0
C2117 C 0.08316 0.71946 0.03993 0.0
C2118 C 0.07338 0.73323 0.07507 0.0
C2119 C 0.06186 0.71831 0.06481 0.0
H2120 H 0.31461 0.35155 0.02004 0.0
H2121 H 0.32778 0.39946 0.04356 0.0
H2122 H 0.29966 0.38918 0.05568 0.0
H2123 H 0.27182 0.36664 0.06156 0.0
H2124 H 0.25766 0.31871 0.03694 0.0
H2125 H 0.28571 0.32897 0.02352 0.0
C2126 C 0.31129 0.35973 0.02775 0.0
C2127 C 0.32335 0.37625 0.03097 0.0
C2128 C 0.29495 0.35376 0.03457 0.0
C2129 C 0.3188 0.3867 0.04083 0.0
C2130 C 0.3027 0.38084 0.04782 0.0
C2131 C 0.27466 0.35844 0.0527 0.0
C2132 C 0.26253 0.3419 0.05026 0.0
C2133 C 0.29072 0.36441 0.04492 0.0
C2134 C 0.26674 0.33146 0.03931 0.0
C2135 C 0.28278 0.33733 0.03157 0.0
H2136 H 0.68742 0.66762 0.34706 0.0
H2137 H 0.71726 0.71745 0.37015 0.0
H2138 H 0.73854 0.71234 0.38484 0.0
H2139 H 0.74779 0.69327 0.39332 0.0
H2140 H 0.7159 0.64268 0.37435 0.0
H2141 H 0.69675 0.64876 0.35509 0.0
C2142 C 0.69868 0.67744 0.35501 0.0
C2143 C 0.70075 0.69289 0.3575 0.0
C2144 C 0.71058 0.6743 0.36409 0.0
C2145 C 0.71533 0.70542 0.3681 0.0
C2146 C 0.7275 0.7025 0.37651 0.0
C2147 C 0.73664 0.68349 0.38515 0.0
C2148 C 0.73352 0.6675 0.38547 0.0
C2149 C 0.7251 0.68689 0.37504 0.0
C2150 C 0.71906 0.65519 0.37411 0.0
C2151 C 0.70787 0.65859 0.36328 0.0
H2152 H 0.33512 0.02677 0.3393 0.0
H2153 H 0.30809 0.99838 0.40067 0.0
H2154 H 0.30944 0.02212 0.41821 0.0
H2155 H 0.3197 0.05127 0.41742 0.0
H2156 H 0.34641 0.07974 0.35596 0.0
H2157 H 0.34386 0.05568 0.33734 0.0
C2158 C 0.32942 0.02573 0.35643 0.0
C2159 C 0.3216 0.01077 0.36866 0.0
C2160 C 0.33028 0.03949 0.36653 0.0
C2161 C 0.31423 0.0097 0.39083 0.0
C2162 C 0.31501 0.0233 0.40093 0.0
C2163 C 0.32469 0.0522 0.39974 0.0
C2164 C 0.3333 0.06739 0.38821 0.0
C2165 C 0.32318 0.0383 0.3891 0.0
C2166 C 0.33993 0.06831 0.36545 0.0
C2167 C 0.33842 0.05452 0.35473 0.0
H2168 H 0.98556 0.30963 0.3601 0.0
H2169 H 0.99325 0.27061 0.37946 0.0
H2170 H 0.9655 0.25489 0.39473 0.0
H2171 H 0.93984 0.25279 0.40495 0.0
H2172 H 0.93058 0.29043 0.38315 0.0
H2173 H 0.95822 0.30615 0.36688 0.0
C2174 C 0.98109 0.29765 0.36753 0.0
C2175 C 0.99153 0.29138 0.36873 0.0
C2176 C 0.9649 0.28845 0.37605 0.0
C2177 C 0.98551 0.27576 0.37822 0.0
C2178 C 0.96963 0.26674 0.38706 0.0
C2179 C 0.94354 0.26419 0.39607 0.0
C2180 C 0.93297 0.27033 0.3955 0.0
C2181 C 0.95928 0.27301 0.38628 0.0
C2182 C 0.93845 0.28543 0.38437 0.0
C2183 C 0.95427 0.29444 0.3749 0.0
H2184 H 0.04617 0.38049 0.32979 0.0
H2185 H 0.0101 0.36634 0.38525 0.0
H2186 H 0.00483 0.38748 0.37237 0.0
H2187 H 0.00911 0.40881 0.34369 0.0
H2188 H 0.04434 0.42208 0.2872 0.0
H2189 H 0.0515 0.40277 0.3025 0.0
C2190 C 0.03728 0.38212 0.33926 0.0
C2191 C 0.02847 0.37171 0.35839 0.0
C2192 C 0.03413 0.39419 0.33156 0.0
C2193 C 0.01702 0.37408 0.37042 0.0
C2194 C 0.01397 0.38618 0.36303 0.0
C2195 C 0.01837 0.4075 0.33472 0.0
C2196 C 0.02609 0.41691 0.31422 0.0
C2197 C 0.02221 0.39609 0.34332 0.0
C2198 C 0.0383 0.41521 0.30316 0.0
C2199 C 0.04231 0.40403 0.31178 0.0
H2200 H 0.60222 0.65583 0.32818 0.0
H2201 H 0.64227 0.6543 0.36278 0.0
H2202 H 0.62945 0.62562 0.35216 0.0
H2203 H 0.60776 0.60154 0.33102 0.0
H2204 H 0.56963 0.60442 0.29224 0.0
H2205 H 0.58047 0.63172 0.30734 0.0
C2206 C 0.60804 0.64917 0.33369 0.0
C2207 C 0.62316 0.65719 0.3463 0.0
C2208 C 0.6009 0.63286 0.32685 0.0
C2209 C 0.63064 0.64843 0.35303 0.0
C2210 C 0.62332 0.63203 0.34695 0.0
C2211 C 0.60184 0.60811 0.32564 0.0
C2212 C 0.58785 0.60071 0.31032 0.0
C2213 C 0.60861 0.62421 0.33344 0.0
C2214 C 0.58019 0.60946 0.30429 0.0
C2215 C 0.58651 0.62525 0.31269 0.0
H2216 H 0.36617 0.99611 0.32795 0.0
H2217 H 0.37406 0.96142 0.36554 0.0
H2218 H 0.40239 0.97526 0.35197 0.0
H2219 H 0.42378 0.99513 0.32575 0.0
H2220 H 0.4154 0.02851 0.28518 0.0
H2221 H 0.38871 0.01763 0.304 0.0
C2222 C 0.37424 0.99184 0.33356 0.0
C2223 C 0.36804 0.97772 0.34757 0.0
C2224 C 0.39041 0.99956 0.325 0.0
C2225 C 0.37854 0.9722 0.35458 0.0
C2226 C 0.39473 0.98008 0.3468 0.0
C2227 C 0.41616 1.00009 0.3211 0.0
C2228 C 0.42153 0.01248 0.30385 0.0
C2229 C 0.40061 0.99342 0.33135 0.0
C2230 C 0.41165 0.01903 0.29849 0.0
C2231 C 0.39629 0.01271 0.30909 0.0
H2232 H 0.62485 0.9652 0.36097 0.0
H2233 H 0.65384 0.98229 0.29676 0.0
H2234 H 0.63427 0.98853 0.27875 0.0
H2235 H 0.60843 0.98816 0.28039 0.0
H2236 H 0.5788 0.97043 0.34378 0.0
H2237 H 0.5991 0.96543 0.36294 0.0
C2238 C 0.62692 0.97035 0.34308 0.0
C2239 C 0.6408 0.97322 0.33025 0.0
C2240 C 0.6155 0.97379 0.33266 0.0
C2241 C 0.64325 0.97987 0.30705 0.0
C2242 C 0.63207 0.98348 0.29671 0.0
C2243 C 0.60655 0.98347 0.29857 0.0
C2244 C 0.59219 0.97979 0.31072 0.0
C2245 C 0.61811 0.9804 0.30927 0.0
C2246 C 0.58975 0.97334 0.33405 0.0
C2247 C 0.60135 0.97048 0.34499 0.0
H2248 H 0.04851 0.66463 0.35871 0.0
H2249 H 0.00901 0.65995 0.31343 0.0
H2250 H 0.00515 0.63504 0.29621 0.0
H2251 H 0.01405 0.61546 0.29208 0.0
H2252 H 0.05341 0.61989 0.33733 0.0
H2253 H 0.05625 0.64397 0.35636 0.0
C2254 C 0.03899 0.65811 0.34519 0.0
C2255 C 0.02917 0.66429 0.33731 0.0
C2256 C 0.03684 0.64375 0.33522 0.0
C2257 C 0.01683 0.65559 0.31982 0.0
C2258 C 0.0146 0.64131 0.30992 0.0
C2259 C 0.02303 0.62149 0.30643 0.0
C2260 C 0.03354 0.61587 0.31314 0.0
C2261 C 0.02466 0.63538 0.31725 0.0
C2262 C 0.04529 0.62404 0.33155 0.0
C2263 C 0.04691 0.63781 0.3425 0.0
H2264 H 0.35453 0.36057 0.3225 0.0
H2265 H 0.35767 0.40566 0.33985 0.0
H2266 H 0.38646 0.42079 0.32882 0.0
H2267 H 0.4099 0.42155 0.3103 0.0
H2268 H 0.40693 0.37689 0.29116 0.0
H2269 H 0.37916 0.36129 0.30733 0.0
C2270 C 0.3616 0.37368 0.32422 0.0
C2271 C 0.35386 0.38196 0.33165 0.0
C2272 C 0.3782 0.38242 0.31743 0.0
C2273 C 0.36323 0.39896 0.33386 0.0
C2274 C 0.37972 0.40766 0.32756 0.0
C2275 C 0.40321 0.40839 0.30988 0.0
C2276 C 0.41036 0.4004 0.29931 0.0
C2277 C 0.38718 0.39956 0.31866 0.0
C2278 C 0.40171 0.38334 0.29929 0.0
C2279 C 0.38578 0.37442 0.30834 0.0
H2280 H 0.33641 0.31423 0.37748 0.0
H2281 H 0.28623 0.28888 0.35117 0.0
H2282 H 0.28368 0.26287 0.36056 0.0
H2283 H 0.29539 0.24735 0.37771 0.0
H2284 H 0.34534 0.27307 0.40506 0.0
H2285 H 0.34835 0.29878 0.39322 0.0
C2286 C 0.32491 0.30303 0.37371 0.0
C2287 C 0.3115 0.30356 0.36379 0.0
C2288 C 0.3235 0.28812 0.37919 0.0
C2289 C 0.29675 0.28887 0.35889 0.0
C2290 C 0.29527 0.27398 0.36425 0.0
C2291 C 0.30694 0.25857 0.38107 0.0
C2292 C 0.32011 0.25815 0.39226 0.0
C2293 C 0.30852 0.27346 0.37465 0.0
C2294 C 0.33506 0.27287 0.39612 0.0
C2295 C 0.33676 0.28767 0.38959 0.0
H2296 H 0.71142 0.01897 0.34679 0.0
H2297 H 0.74696 0.0068 0.37145 0.0
H2298 H 0.76525 0.03452 0.38491 0.0
H2299 H 0.77031 0.06141 0.39272 0.0
H2300 H 0.73574 0.07465 0.36746 0.0
H2301 H 0.71787 0.04723 0.35147 0.0
C2302 C 0.72322 0.02243 0.35492 0.0
C2303 C 0.72768 0.01071 0.35826 0.0
C2304 C 0.73382 0.03853 0.36271 0.0
C2305 C 0.7431 0.01547 0.36871 0.0
C2306 C 0.75362 0.03135 0.37647 0.0
C2307 C 0.75913 0.05858 0.38311 0.0
C2308 C 0.75447 0.07021 0.38134 0.0
C2309 C 0.749 0.04289 0.37391 0.0
C2310 C 0.73961 0.06595 0.36939 0.0
C2311 C 0.72939 0.05026 0.36016 0.0
H2312 H 0.97372 0.6759 0.36522 0.0
H2313 H 0.97265 0.71938 0.35076 0.0
H2314 H 0.94438 0.70607 0.36424 0.0
H2315 H 0.92087 0.68306 0.38361 0.0
H2316 H 0.922 0.63984 0.39959 0.0
H2317 H 0.94911 0.65191 0.38159 0.0
C2318 C 0.96722 0.68238 0.36467 0.0
C2319 C 0.9754 0.69869 0.35725 0.0
C2320 C 0.95096 0.67471 0.37282 0.0
C2321 C 0.96675 0.70688 0.35662 0.0
C2322 C 0.95056 0.69928 0.36435 0.0
C2323 C 0.92701 0.67625 0.38301 0.0
C2324 C 0.9195 0.66065 0.39312 0.0
C2325 C 0.94271 0.68337 0.37308 0.0
C2326 C 0.92747 0.65184 0.3918 0.0
C2327 C 0.94304 0.65879 0.38169 0.0
H2328 H 0.37725 0.05229 0.69494 0.0
H2329 H 0.34745 0.00458 0.66375 0.0
H2330 H 0.36759 0.99762 0.67659 0.0
H2331 H 0.3921 0.00405 0.69976 0.0
H2332 H 0.42352 0.05242 0.7283 0.0
H2333 H 0.40414 0.05999 0.71369 0.0
C2334 C 0.37529 0.04045 0.69075 0.0
C2335 C 0.36078 0.02893 0.6786 0.0
C2336 C 0.38707 0.03654 0.69796 0.0
C2337 C 0.35849 0.01369 0.67305 0.0
C2338 C 0.36998 0.00966 0.68049 0.0
C2339 C 0.39514 0.01644 0.70225 0.0
C2340 C 0.40933 0.02751 0.71553 0.0
C2341 C 0.38415 0.02087 0.69332 0.0
C2342 C 0.41257 0.0434 0.71878 0.0
C2343 C 0.40151 0.04782 0.71027 0.0
H2344 H 0.99484 0.36644 0.67239 0.0
H2345 H 0.9688 0.33636 0.73307 0.0
H2346 H 0.96986 0.35939 0.75258 0.0
H2347 H 0.97935 0.38829 0.75353 0.0
H2348 H 0.00525 0.41861 0.69307 0.0
H2349 H 0.00316 0.3953 0.6725 0.0
C2350 C 0.98932 0.36489 0.68982 0.0
C2351 C 0.98183 0.34966 0.70124 0.0
C2352 C 0.99001 0.37826 0.70108 0.0
C2353 C 0.9747 0.34791 0.72383 0.0
C2354 C 0.9753 0.3611 0.73506 0.0
C2355 C 0.98427 0.38978 0.73565 0.0
C2356 C 0.99244 0.40523 0.7249 0.0
C2357 C 0.98306 0.37635 0.72397 0.0
C2358 C 0.99904 0.40692 0.7019 0.0
C2359 C 0.99781 0.39357 0.69009 0.0
H2360 H 0.65701 0.64527 0.70177 0.0
H2361 H 0.66394 0.60704 0.72848 0.0
H2362 H 0.63545 0.59165 0.74112 0.0
H2363 H 0.60897 0.58938 0.746 0.0
H2364 H 0.60139 0.62707 0.71894 0.0
H2365 H 0.62981 0.64238 0.7052 0.0
C2366 C 0.65229 0.63357 0.71034 0.0
C2367 C 0.66267 0.62738 0.71424 0.0
C2368 C 0.6358 0.62468 0.71754 0.0
C2369 C 0.65628 0.61214 0.72524 0.0
C2370 C 0.63997 0.6033 0.7325 0.0
C2371 C 0.61337 0.60078 0.73664 0.0
C2372 C 0.603 0.607 0.7334 0.0
C2373 C 0.62966 0.60947 0.72883 0.0
C2374 C 0.60913 0.62203 0.72181 0.0
C2375 C 0.62537 0.63078 0.71391 0.0
H2376 H 0.72252 0.73354 0.69414 0.0
H2377 H 0.68581 0.69152 0.65452 0.0
H2378 H 0.67506 0.70734 0.63691 0.0
H2379 H 0.6763 0.73309 0.63181 0.0
H2380 H 0.71278 0.7754 0.67087 0.0
H2381 H 0.72344 0.75953 0.68943 0.0
C2382 C 0.71216 0.72784 0.6817 0.0
C2383 C 0.70505 0.71133 0.6757 0.0
C2384 C 0.70598 0.73707 0.67145 0.0
C2385 C 0.6916 0.70418 0.65949 0.0
C2386 C 0.6854 0.71322 0.64937 0.0
C2387 C 0.68642 0.73881 0.64468 0.0
C2388 C 0.69364 0.7554 0.65006 0.0
C2389 C 0.6925 0.72966 0.65516 0.0
C2390 C 0.70703 0.76268 0.66632 0.0
C2391 C 0.7131 0.75359 0.67698 0.0
H2392 H 0.25932 0.98403 0.67787 0.0
H2393 H 0.30786 0.99105 0.67423 0.0
H2394 H 0.29597 0.96294 0.66147 0.0
H2395 H 0.2721 0.93735 0.64729 0.0
H2396 H 0.22361 0.9304 0.65041 0.0
H2397 H 0.23522 0.95755 0.66737 0.0
C2398 C 0.26732 0.97938 0.67461 0.0
C2399 C 0.28449 0.98974 0.67676 0.0
C2400 C 0.26042 0.96326 0.66693 0.0
C2401 C 0.29461 0.98342 0.67259 0.0
C2402 C 0.28783 0.96734 0.66521 0.0
C2403 C 0.26401 0.94159 0.65221 0.0
C2404 C 0.24701 0.93187 0.64741 0.0
C2405 C 0.27079 0.95727 0.66175 0.0
C2406 C 0.23676 0.93771 0.65359 0.0
C2407 C 0.24339 0.95323 0.66334 0.0
H2408 H 0.02578 0.2918 0.66036 0.0
H2409 H 0.02921 0.33687 0.67862 0.0
H2410 H 0.05796 0.35194 0.66607 0.0
H2411 H 0.08171 0.35221 0.64827 0.0
H2412 H 0.07678 0.30672 0.62781 0.0
H2413 H 0.04918 0.29199 0.6435 0.0
C2414 C 0.03277 0.30493 0.66177 0.0
C2415 C 0.02528 0.31318 0.67035 0.0
C2416 C 0.04911 0.31347 0.65425 0.0
C2417 C 0.03464 0.3302 0.67204 0.0
C2418 C 0.05107 0.33882 0.66484 0.0
C2419 C 0.07461 0.33908 0.64717 0.0
C2420 C 0.08153 0.33068 0.63692 0.0
C2421 C 0.05838 0.33057 0.65561 0.0
C2422 C 0.0721 0.31361 0.63605 0.0
C2423 C 0.05616 0.30512 0.64478 0.0
H2424 H 0.29997 0.29375 0.64812 0.0
H2425 H 0.31793 0.32935 0.70501 0.0
H2426 H 0.29743 0.3363 0.69417 0.0
H2427 H 0.2759 0.3339 0.66649 0.0
H2428 H 0.25808 0.29856 0.60934 0.0
H2429 H 0.2767 0.28965 0.62266 0.0
C2430 C 0.2993 0.30292 0.65829 0.0
C2431 C 0.31063 0.31114 0.67717 0.0
C2432 C 0.28747 0.30691 0.65194 0.0
C2433 C 0.30945 0.32287 0.69031 0.0
C2434 C 0.29773 0.32689 0.68411 0.0
C2435 C 0.27599 0.32414 0.65711 0.0
C2436 C 0.26568 0.31699 0.63686 0.0
C2437 C 0.28691 0.31924 0.66464 0.0
C2438 C 0.26577 0.30419 0.6251 0.0
C2439 C 0.27654 0.29919 0.63257 0.0
H2440 H 0.6778 0.99053 0.65221 0.0
H2441 H 0.71966 1.00184 0.69756 0.0
H2442 H 0.71777 0.97666 0.68535 0.0
H2443 H 0.70538 0.95233 0.65978 0.0
H2444 H 0.66453 0.942 0.61275 0.0
H2445 H 0.66463 0.96558 0.62816 0.0
C2446 C 0.68643 0.98743 0.65963 0.0
C2447 C 0.69893 0.99817 0.67565 0.0
C2448 C 0.68543 0.97304 0.65227 0.0
C2449 C 0.70996 0.99389 0.68508 0.0
C2450 C 0.7089 0.97947 0.6781 0.0
C2451 C 0.69648 0.9552 0.65289 0.0
C2452 C 0.68501 0.94532 0.63501 0.0
C2453 C 0.69688 0.96911 0.66134 0.0
C2454 C 0.67337 0.94915 0.62672 0.0
C2455 C 0.67352 0.96278 0.63535 0.0
H2456 H 0.01953 0.69713 0.65726 0.0
H2457 H 0.02124 0.7422 0.66878 0.0
H2458 H 0.04942 0.7574 0.6548 0.0
H2459 H 0.07272 0.7579 0.63597 0.0
H2460 H 0.07093 0.71299 0.62311 0.0
H2461 H 0.04386 0.6978 0.64141 0.0
C2462 C 0.02613 0.71028 0.65702 0.0
C2463 C 0.01816 0.71847 0.66381 0.0
C2464 C 0.04234 0.71901 0.64865 0.0
C2465 C 0.02697 0.73554 0.66346 0.0
C2466 C 0.04311 0.74428 0.65543 0.0
C2467 C 0.06643 0.74479 0.63731 0.0
C2468 C 0.07375 0.73659 0.62798 0.0
C2469 C 0.05077 0.73613 0.64742 0.0
C2470 C 0.06561 0.71962 0.63026 0.0
C2471 C 0.05006 0.71091 0.64055 0.0
H2472 H 0.98356 0.64305 0.69958 0.0
H2473 H 0.93595 0.60906 0.66873 0.0
H2474 H 0.93832 0.58641 0.68348 0.0
H2475 H 0.95335 0.57629 0.70691 0.0
H2476 H 1.00023 0.61068 0.73959 0.0
H2477 H 0.99881 0.63302 0.72187 0.0
C2478 C 0.97374 0.6307 0.69587 0.0
C2479 C 0.95956 0.6278 0.68314 0.0
C2480 C 0.97506 0.61775 0.7047 0.0
C2481 C 0.94697 0.61168 0.67856 0.0
C2482 C 0.94831 0.5987 0.68701 0.0
C2483 C 0.96326 0.58866 0.7102 0.0
C2484 C 0.9769 0.59167 0.72458 0.0
C2485 C 0.9622 0.60159 0.70044 0.0
C2486 C 0.98971 0.60785 0.72827 0.0
C2487 C 0.98885 0.62071 0.71833 0.0
H2488 H 0.41379 0.35445 0.67378 0.0
H2489 H 0.36825 0.34876 0.69778 0.0
H2490 H 0.38313 0.37628 0.71408 0.0
H2491 H 0.40932 0.40039 0.7261 0.0
H2492 H 0.45484 0.40655 0.7008 0.0
H2493 H 0.43966 0.38034 0.68053 0.0
C2494 C 0.40709 0.35933 0.68225 0.0
C2495 C 0.38997 0.34948 0.68488 0.0
C2496 C 0.41573 0.37514 0.69165 0.0
C2497 C 0.38143 0.35605 0.69557 0.0
C2498 C 0.38995 0.37177 0.70503 0.0
C2499 C 0.41596 0.39629 0.7156 0.0
C2500 C 0.43328 0.40538 0.71546 0.0
C2501 C 0.40715 0.38123 0.70382 0.0
C2502 C 0.44156 0.39966 0.70184 0.0
C2503 C 0.43289 0.38469 0.69012 0.0
H2504 H 0.64255 0.01382 0.69874 0.0
H2505 H 0.646 0.05873 0.67821 0.0
H2506 H 0.61818 0.04848 0.692 0.0
H2507 H 0.59361 0.02765 0.71252 0.0
H2508 H 0.59035 0.98316 0.73479 0.0
H2509 H 0.61708 0.99218 0.71724 0.0
C2510 C 0.63713 0.02127 0.697 0.0
C2511 C 0.64645 0.03708 0.68763 0.0
C2512 C 0.62112 0.01539 0.70533 0.0
C2513 C 0.63921 0.04657 0.68554 0.0
C2514 C 0.62327 0.04073 0.69344 0.0
C2515 C 0.59873 0.01991 0.7135 0.0
C2516 C 0.59 0.00481 0.72513 0.0
C2517 C 0.61425 0.02531 0.70383 0.0
C2518 C 0.5967 0.99479 0.72579 0.0
C2519 C 0.61207 1.0 0.71592 0.0
loop_
_geom_bond_atom_site_label_1
_geom_bond_atom_site_label_2
_geom_bond_distance
_geom_bond_site_symmetry_2
_ccdc_geom_bond_type
Zn0 O3 2.031 1_554 S
Zn0 O5 2.049 . S
Zn0 O10 2.067 1_554 S
Zn1 O2 1.962 1_455 S
Zn1 O4 1.986 . S
Zn1 O6 1.996 1_455 S
Zn1 O9 1.943 1_554 S
O2 Zn1 1.962 1_655 S
O2 C7 1.254 . S
O3 Zn0 2.031 1_556 S
O3 C7 1.269 1_556 S
O4 Zn1 1.986 . S
O4 C11 1.262 . S
O5 Zn0 2.049 . S
O5 C13 1.260 . S
O6 Zn1 1.996 1_655 S
O6 C13 1.257 . S
C7 O2 1.254 . S
C7 O3 1.269 1_554 S
C8 O9 1.249 . S
C8 O10 1.270 1_455 S
O9 Zn1 1.943 1_556 S
O9 C8 1.249 . S
O10 Zn0 2.067 1_556 S
O10 C8 1.270 1_655 S
C11 O4 1.262 . S
C11 O12 1.232 . S
O12 C11 1.232 . S
C13 O5 1.260 . S
C13 O6 1.257 . S
Zn14 O17 2.031 1_554 S
Zn14 O19 2.049 . S
Zn14 O24 2.067 1_554 S
Zn15 O16 1.962 . S
Zn15 O18 1.986 . S
Zn15 O20 1.996 . S
Zn15 O23 1.943 1_554 S
O16 Zn15 1.962 . S
O16 C21 1.254 . S
O17 Zn14 2.031 1_556 S
O17 C21 1.269 1_556 S
O18 Zn15 1.986 . S
O18 C25 1.262 . S
O19 Zn14 2.049 . S
O19 C27 1.260 . S
O20 Zn15 1.996 . S
O20 C27 1.257 . S
C21 O16 1.254 . S
C21 O17 1.269 1_554 S
C22 O23 1.249 . S
C22 O24 1.270 . S
O23 Zn15 1.943 1_556 S
O23 C22 1.249 . S
O24 Zn14 2.067 1_556 S
O24 C22 1.270 . S
C25 O18 1.262 . S
C25 O26 1.232 . S
O26 C25 1.232 . S
C27 O19 1.260 . S
C27 O20 1.257 . S
Zn28 O31 2.031 . S
Zn28 O33 2.049 1_554 S
Zn28 O38 2.067 . S
Zn29 O30 1.962 1_545 S
Zn29 O32 1.986 1_554 S
Zn29 O34 1.996 1_544 S
Zn29 O37 1.943 . S
O30 Zn29 1.962 1_565 S
O30 C35 1.254 . S
O31 Zn28 2.031 . S
O31 C35 1.269 . S
O32 Zn29 1.986 1_556 S
O32 C39 1.262 1_556 S
O33 Zn28 2.049 1_556 S
O33 C41 1.260 . S
O34 Zn29 1.996 1_566 S
O34 C41 1.257 . S
C35 O30 1.254 . S
C35 O31 1.269 . S
C36 O37 1.249 . S
C36 O38 1.270 1_545 S
O37 Zn29 1.943 . S
O37 C36 1.249 . S
O38 Zn28 2.067 . S
O38 C36 1.270 1_565 S
C39 O32 1.262 1_554 S
C39 O40 1.232 . S
O40 C39 1.232 . S
C41 O33 1.260 . S
C41 O34 1.257 . S
Zn42 O45 2.031 . S
Zn42 O47 2.049 1_554 S
Zn42 O52 2.067 . S
Zn43 O44 1.962 1_655 S
Zn43 O46 1.986 1_554 S
Zn43 O48 1.996 1_654 S
Zn43 O51 1.943 . S
O44 Zn43 1.962 1_455 S
O44 C49 1.254 . S
O45 Zn42 2.031 . S
O45 C49 1.269 . S
O46 Zn43 1.986 1_556 S
O46 C53 1.262 1_556 S
O47 Zn42 2.049 1_556 S
O47 C55 1.260 . S
O48 Zn43 1.996 1_456 S
O48 C55 1.257 . S
C49 O44 1.254 . S
C49 O45 1.269 . S
C50 O51 1.249 . S
C50 O52 1.270 1_655 S
O51 Zn43 1.943 . S
O51 C50 1.249 . S
O52 Zn42 2.067 . S
O52 C50 1.270 1_455 S
C53 O46 1.262 1_554 S
C53 O54 1.232 . S
O54 C53 1.232 . S
C55 O47 1.260 . S
C55 O48 1.257 . S
Zn56 O59 2.031 . S
Zn56 O61 2.049 1_554 S
Zn56 O66 2.067 . S
Zn57 O58 1.962 . S
Zn57 O60 1.986 1_554 S
Zn57 O62 1.996 1_554 S
Zn57 O65 1.943 . S
O58 Zn57 1.962 . S
O58 C63 1.254 . S
O59 Zn56 2.031 . S
O59 C63 1.269 . S
O60 Zn57 1.986 1_556 S
O60 C67 1.262 1_556 S
O61 Zn56 2.049 1_556 S
O61 C69 1.260 . S
O62 Zn57 1.996 1_556 S
O62 C69 1.257 . S
C63 O58 1.254 . S
C63 O59 1.269 . S
C64 O65 1.249 . S
C64 O66 1.270 . S
O65 Zn57 1.943 . S
O65 C64 1.249 . S
O66 Zn56 2.067 . S
O66 C64 1.270 . S
C67 O60 1.262 1_554 S
C67 O68 1.232 . S
O68 C67 1.232 . S
C69 O61 1.260 . S
C69 O62 1.257 . S
Zn70 O73 2.031 1_554 S
Zn70 O75 2.049 . S
Zn70 O80 2.067 1_554 S
Zn71 O72 1.962 1_565 S
Zn71 O74 1.986 . S
Zn71 O76 1.996 1_565 S
Zn71 O79 1.943 1_554 S
O72 Zn71 1.962 1_545 S
O72 C77 1.254 . S
O73 Zn70 2.031 1_556 S
O73 C77 1.269 1_556 S
O74 Zn71 1.986 . S
O74 C81 1.262 . S
O75 Zn70 2.049 . S
O75 C83 1.260 . S
O76 Zn71 1.996 1_545 S
O76 C83 1.257 . S
C77 O72 1.254 . S
C77 O73 1.269 1_554 S
C78 O79 1.249 . S
C78 O80 1.270 1_565 S
O79 Zn71 1.943 1_556 S
O79 C78 1.249 . S
O80 Zn70 2.067 1_556 S
O80 C78 1.270 1_545 S
C81 O74 1.262 . S
C81 O82 1.232 . S
O82 C81 1.232 . S
C83 O75 1.260 . S
C83 O76 1.257 . S
Zn84 O87 2.031 . S
Zn84 O89 2.049 . S
Zn84 O94 2.067 . S
Zn85 O86 1.962 . S
Zn85 O88 1.986 . S
Zn85 O90 1.996 . S
Zn85 O93 1.943 . S
O86 Zn85 1.962 . S
O86 C91 1.254 . S
O87 Zn84 2.031 . S
O87 C91 1.269 . S
O88 Zn85 1.986 . S
O88 C95 1.262 . S
O89 Zn84 2.049 . S
O89 C97 1.260 . S
O90 Zn85 1.996 . S
O90 C97 1.257 . S
C91 O86 1.254 . S
C91 O87 1.269 . S
C92 O93 1.249 . S
C92 O94 1.270 . S
O93 Zn85 1.943 . S
O93 C92 1.249 . S
O94 Zn84 2.067 . S
O94 C92 1.270 . S
C95 O88 1.262 . S
C95 O96 1.232 . S
O96 C95 1.232 . S
C97 O89 1.260 . S
C97 O90 1.257 . S
Zn98 O101 2.031 . S
Zn98 O103 2.049 . S
Zn98 O108 2.067 . S
Zn99 O100 1.962 . S
Zn99 O102 1.986 . S
Zn99 O104 1.996 . S
Zn99 O107 1.943 . S
O100 Zn99 1.962 . S
O100 C105 1.254 . S
O101 Zn98 2.031 . S
O101 C105 1.269 . S
O102 Zn99 1.986 . S
O102 C109 1.262 1_565 S
O103 Zn98 2.049 . S
O103 C111 1.260 . S
O104 Zn99 1.996 . S
O104 C111 1.257 . S
C105 O100 1.254 . S
C105 O101 1.269 . S
C106 O107 1.249 . S
C106 O108 1.270 . S
O107 Zn99 1.943 . S
O107 C106 1.249 . S
O108 Zn98 2.067 . S
O108 C106 1.270 . S
C109 O102 1.262 1_545 S
C109 O110 1.232 . S
O110 C109 1.232 . S
C111 O103 1.260 . S
C111 O104 1.257 . S
Zn112 O115 2.031 . S
Zn112 O117 2.049 . S
Zn112 O122 2.067 . S
Zn113 O114 1.962 . S
Zn113 O116 1.986 . S
Zn113 O118 1.996 . S
Zn113 O121 1.943 . S
O114 Zn113 1.962 . S
O114 C119 1.254 . S
O115 Zn112 2.031 . S
O115 C119 1.269 . S
O116 Zn113 1.986 . S
O116 C123 1.262 . S
O117 Zn112 2.049 . S
O117 C125 1.260 . S
O118 Zn113 1.996 . S
O118 C125 1.257 . S
C119 O114 1.254 . S
C119 O115 1.269 . S
C120 O121 1.249 . S
C120 O122 1.270 . S
O121 Zn113 1.943 . S
O121 C120 1.249 . S
O122 Zn112 2.067 . S
O122 C120 1.270 . S
C123 O116 1.262 . S
C123 O124 1.232 . S
O124 C123 1.232 . S
C125 O117 1.260 . S
C125 O118 1.257 . S
Zn126 O129 2.031 . S
Zn126 O131 2.049 . S
Zn126 O136 2.067 . S
Zn127 O128 1.962 . S
Zn127 O130 1.986 . S
Zn127 O132 1.996 . S
Zn127 O135 1.943 . S
O128 Zn127 1.962 . S
O128 C133 1.240 . S
O129 Zn126 2.031 . S
O129 C133 1.315 . S
O130 Zn127 1.986 . S
O130 C137 1.262 . S
O131 Zn126 2.049 . S
O131 C139 1.260 . S
O132 Zn127 1.996 . S
O132 C139 1.257 . S
C133 O128 1.240 . S
C133 O129 1.315 . S
C134 O135 1.249 . S
C134 O136 1.270 . S
O135 Zn127 1.943 . S
O135 C134 1.249 . S
O136 Zn126 2.067 . S
O136 C134 1.270 . S
C137 O130 1.262 . S
C137 O138 1.232 . S
O138 C137 1.232 . S
C139 O131 1.260 . S
C139 O132 1.257 . S
Zn140 O143 2.031 . S
Zn140 O145 2.049 . S
Zn140 O150 2.067 . S
Zn141 O142 1.962 . S
Zn141 O144 1.986 . S
Zn141 O146 1.996 . S
Zn141 O149 1.943 . S
O142 Zn141 1.962 . S
O142 C147 1.258 . S
O143 Zn140 2.031 . S
O143 C147 1.273 . S
O144 Zn141 1.986 . S
O144 C151 1.262 . S
O145 Zn140 2.049 . S
O145 C153 1.260 . S
O146 Zn141 1.996 . S
O146 C153 1.257 . S
C147 O142 1.258 . S
C147 O143 1.273 . S
C148 O149 1.249 . S
C148 O150 1.270 . S
O149 Zn141 1.943 . S
O149 C148 1.249 . S
O150 Zn140 2.067 . S
O150 C148 1.270 . S
C151 O144 1.262 . S
C151 O152 1.232 . S
O152 C151 1.232 . S
C153 O145 1.260 . S
C153 O146 1.257 . S
Zn154 O157 2.031 . S
Zn154 O159 2.049 . S
Zn154 O164 2.067 . S
Zn155 O156 1.962 . S
Zn155 O158 1.986 . S
Zn155 O160 1.996 . S
Zn155 O163 1.943 . S
O156 Zn155 1.962 . S
O156 C161 1.254 . S
O157 Zn154 2.031 . S
O157 C161 1.269 . S
O158 Zn155 1.986 . S
O158 C165 1.262 . S
O159 Zn154 2.049 . S
O159 C167 1.260 . S
O160 Zn155 1.996 . S
O160 C167 1.257 . S
C161 O156 1.254 . S
C161 O157 1.269 . S
C162 O163 1.249 . S
C162 O164 1.270 . S
O163 Zn155 1.943 . S
O163 C162 1.249 . S
O164 Zn154 2.067 . S
O164 C162 1.270 . S
C165 O158 1.262 . S
C165 O166 1.232 . S
O166 C165 1.232 . S
C167 O159 1.260 . S
C167 O160 1.257 . S
Zn168 O171 2.031 . S
Zn168 O173 2.049 . S
Zn168 O178 2.067 . S
Zn169 O170 1.962 . S
Zn169 O172 1.986 . S
Zn169 O174 1.996 . S
Zn169 O177 1.943 . S
O170 Zn169 1.962 . S
O170 C175 1.254 . S
O171 Zn168 2.031 . S
O171 C175 1.269 . S
O172 Zn169 1.986 . S
O172 C179 1.262 . S
O173 Zn168 2.049 . S
O173 C181 1.260 . S
O174 Zn169 1.996 . S
O174 C181 1.257 . S
C175 O170 1.254 . S
C175 O171 1.269 . S
C176 O177 1.249 . S
C176 O178 1.270 . S
O177 Zn169 1.943 . S
O177 C176 1.249 . S
O178 Zn168 2.067 . S
O178 C176 1.270 . S
C179 O172 1.262 . S
C179 O180 1.232 . S
O180 C179 1.232 . S
C181 O173 1.260 . S
C181 O174 1.257 . S
Zn182 O185 2.031 . S
Zn182 O187 2.049 . S
Zn182 O192 2.067 . S
Zn183 O184 2.009 . S
Zn183 O186 1.986 . S
Zn183 O188 1.996 . S
Zn183 O191 1.943 . S
O184 Zn183 2.009 . S
O184 C189 1.210 1_655 S
O185 Zn182 2.031 . S
O185 C189 1.253 1_655 S
O186 Zn183 1.986 . S
O186 C193 1.262 . S
O187 Zn182 2.049 . S
O187 C195 1.260 . S
O188 Zn183 1.996 . S
O188 C195 1.257 . S
C189 O184 1.210 1_455 S
C189 O185 1.253 1_455 S
C190 O191 1.249 . S
C190 O192 1.270 . S
O191 Zn183 1.943 . S
O191 C190 1.249 . S
O192 Zn182 2.067 . S
O192 C190 1.270 . S
C193 O186 1.262 . S
C193 O194 1.232 . S
O194 C193 1.232 . S
C195 O187 1.260 . S
C195 O188 1.257 . S
Zn196 O199 2.031 . S
Zn196 O201 2.049 . S
Zn196 O206 2.067 . S
Zn197 O198 1.962 . S
Zn197 O200 1.986 . S
Zn197 O202 1.996 . S
Zn197 O205 1.943 . S
O198 Zn197 1.962 . S
O198 C203 1.254 . S
O199 Zn196 2.031 . S
O199 C203 1.269 . S
O200 Zn197 1.986 . S
O200 C207 1.262 . S
O201 Zn196 2.049 . S
O201 C209 1.260 . S
O202 Zn197 1.996 . S
O202 C209 1.257 . S
C203 O198 1.254 . S
C203 O199 1.269 . S
C204 O205 1.249 . S
C204 O206 1.270 . S
O205 Zn197 1.943 . S
O205 C204 1.249 . S
O206 Zn196 2.067 . S
O206 C204 1.270 . S
C207 O200 1.262 . S
C207 O208 1.232 . S
O208 C207 1.232 . S
C209 O201 1.260 . S
C209 O202 1.257 . S
Zn210 O213 2.031 . S
Zn210 O215 2.049 . S
Zn210 O220 2.067 . S
Zn211 O212 1.962 . S
Zn211 O214 1.986 . S
Zn211 O216 1.996 . S
Zn211 O219 1.943 . S
O212 Zn211 1.962 . S
O212 C217 1.254 . S
O213 Zn210 2.031 . S
O213 C217 1.269 . S
O214 Zn211 1.986 . S
O214 C221 1.262 . S
O215 Zn210 2.049 . S
O215 C223 1.260 . S
O216 Zn211 1.996 . S
O216 C223 1.257 . S
C217 O212 1.254 . S
C217 O213 1.269 . S
C218 O219 1.249 . S
C218 O220 1.270 . S
O219 Zn211 1.943 . S
O219 C218 1.249 . S
O220 Zn210 2.067 . S
O220 C218 1.270 . S
C221 O214 1.262 . S
C221 O222 1.232 . S
O222 C221 1.232 . S
C223 O215 1.260 . S
C223 O216 1.257 . S
Zn224 O227 2.031 . S
Zn224 O229 2.049 . S
Zn224 O234 2.067 . S
Zn225 O226 1.962 . S
Zn225 O228 1.986 . S
Zn225 O230 1.996 . S
Zn225 O233 1.943 . S
O226 Zn225 1.962 . S
O226 C231 1.254 . S
O227 Zn224 2.031 . S
O227 C231 1.269 . S
O228 Zn225 1.986 . S
O228 C235 1.262 1_545 S
O229 Zn224 2.049 . S
O229 C237 1.260 . S
O230 Zn225 1.996 . S
O230 C237 1.257 . S
C231 O226 1.254 . S
C231 O227 1.269 . S
C232 O233 1.249 . S
C232 O234 1.270 . S
O233 Zn225 1.943 . S
O233 C232 1.249 . S
O234 Zn224 2.067 . S
O234 C232 1.270 . S
C235 O228 1.262 1_565 S
C235 O236 1.232 . S
O236 C235 1.232 . S
C237 O229 1.260 . S
C237 O230 1.257 . S
Zn238 O241 2.031 . S
Zn238 O243 2.049 . S
Zn238 O248 2.067 . S
Zn239 O240 1.962 . S
Zn239 O242 1.986 . S
Zn239 O244 1.996 . S
Zn239 O247 1.943 . S
O240 Zn239 1.962 . S
O240 C245 1.254 . S
O241 Zn238 2.031 . S
O241 C245 1.269 . S
O242 Zn239 1.986 . S
O242 C249 1.262 . S
O243 Zn238 2.049 . S
O243 C251 1.260 . S
O244 Zn239 1.996 . S
O244 C251 1.257 . S
C245 O240 1.254 . S
C245 O241 1.269 . S
C246 O247 1.249 . S
C246 O248 1.270 . S
O247 Zn239 1.943 . S
O247 C246 1.249 . S
O248 Zn238 2.067 . S
O248 C246 1.270 . S
C249 O242 1.262 . S
C249 O250 1.232 . S
O250 C249 1.232 . S
C251 O243 1.260 . S
C251 O244 1.257 . S
H252 C279 0.929 . S
N253 C278 1.433 . S
N253 C284 1.435 . S
N253 C290 1.423 . S
H254 C280 0.930 . S
H255 C283 0.931 . S
H256 C282 0.929 . S
H257 C285 0.930 . S
H258 C286 0.932 . S
H259 C289 0.929 . S
H260 C288 0.931 . S
H261 C291 0.929 . S
H262 C295 0.932 . S
H263 C292 0.931 . S
H264 C294 0.929 . S
H265 C297 0.929 . S
H266 C298 0.930 . S
H267 C300 0.929 . S
H268 C301 0.931 . S
H269 C303 0.930 . S
H270 C304 0.932 . S
H271 C306 0.931 . S
H272 C307 0.929 . S
H273 C309 0.929 . S
H274 C310 0.931 . S
H275 C312 0.929 . S
N276 C296 1.433 . S
N276 C302 1.435 . S
N276 C308 1.423 . S
H277 C313 0.932 . S
C278 N253 1.433 . S
C278 C279 1.363 . S
C278 C283 1.370 . S
C279 H252 0.929 . S
C279 C278 1.363 . S
C279 C280 1.385 . S
C280 H254 0.930 . S
C280 C279 1.385 . S
C280 C281 1.357 . S
C281 C280 1.357 . S
C281 C282 1.406 . S
C282 H256 0.929 . S
C282 C281 1.406 . S
C282 C283 1.391 . S
C283 H255 0.931 . S
C283 C278 1.370 . S
C283 C282 1.391 . S
C284 N253 1.435 . S
C284 C285 1.358 . S
C284 C289 1.371 . S
C285 H257 0.930 . S
C285 C284 1.358 . S
C285 C286 1.405 . S
C286 H258 0.932 . S
C286 C285 1.405 . S
C286 C287 1.383 . S
C287 C286 1.383 . S
C287 C288 1.393 . S
C288 H260 0.931 . S
C288 C287 1.393 . S
C288 C289 1.382 . S
C289 H259 0.929 . S
C289 C284 1.371 . S
C289 C288 1.382 . S
C290 N253 1.423 . S
C290 C291 1.362 . S
C290 C295 1.388 . S
C291 H261 0.929 . S
C291 C290 1.362 . S
C291 C292 1.376 . S
C292 H263 0.931 . S
C292 C291 1.376 . S
C292 C293 1.396 . S
C293 C292 1.396 . S
C293 C294 1.348 . S
C293 C311 1.472 . S
C294 H264 0.929 . S
C294 C293 1.348 . S
C294 C295 1.443 . S
C295 H262 0.932 . S
C295 C290 1.388 . S
C295 C294 1.443 . S
C296 N276 1.433 . S
C296 C297 1.363 . S
C296 C301 1.370 . S
C297 H265 0.929 . S
C297 C296 1.363 . S
C297 C298 1.385 . S
C298 H266 0.930 . S
C298 C297 1.385 . S
C298 C299 1.357 . S
C299 C298 1.357 . S
C299 C300 1.406 . S
C300 H267 0.929 . S
C300 C299 1.406 . S
C300 C301 1.391 . S
C301 H268 0.931 . S
C301 C296 1.370 . S
C301 C300 1.391 . S
C302 N276 1.435 . S
C302 C303 1.358 . S
C302 C307 1.371 . S
C303 H269 0.930 . S
C303 C302 1.358 . S
C303 C304 1.405 . S
C304 H270 0.932 . S
C304 C303 1.405 . S
C304 C305 1.383 . S
C305 C304 1.383 . S
C305 C306 1.393 . S
C306 H271 0.931 . S
C306 C305 1.393 . S
C306 C307 1.382 . S
C307 H272 0.929 . S
C307 C302 1.371 . S
C307 C306 1.382 . S
C308 N276 1.423 . S
C308 C309 1.362 . S
C308 C313 1.388 . S
C309 H273 0.929 . S
C309 C308 1.362 . S
C309 C310 1.376 . S
C310 H274 0.931 . S
C310 C309 1.376 . S
C310 C311 1.396 . S
C311 C293 1.472 . S
C311 C310 1.396 . S
C311 C312 1.348 . S
C312 H275 0.929 . S
C312 C311 1.348 . S
C312 C313 1.443 . S
C313 H277 0.932 . S
C313 C308 1.388 . S
C313 C312 1.443 . S
H314 C341 0.929 . S
N315 C340 1.433 . S
N315 C346 1.435 . S
N315 C352 1.423 . S
H316 C342 0.930 . S
H317 C345 0.931 . S
H318 C344 0.929 . S
H319 C347 0.930 . S
H320 C348 0.932 . S
H321 C351 0.929 . S
H322 C350 0.931 . S
H323 C353 0.929 . S
H324 C357 0.932 . S
H325 C354 0.931 . S
H326 C356 0.929 . S
H327 C359 0.929 . S
H328 C360 0.930 . S
H329 C362 0.929 . S
H330 C363 0.931 . S
H331 C365 0.930 . S
H332 C366 0.932 . S
H333 C368 0.931 . S
H334 C369 0.929 . S
H335 C371 0.929 . S
H336 C372 0.931 . S
H337 C374 0.929 . S
N338 C358 1.433 . S
N338 C364 1.435 . S
N338 C370 1.423 . S
H339 C375 0.932 . S
C340 N315 1.433 . S
C340 C341 1.363 . S
C340 C345 1.370 . S
C341 H314 0.929 . S
C341 C340 1.363 . S
C341 C342 1.385 . S
C342 H316 0.930 . S
C342 C341 1.385 . S
C342 C343 1.357 . S
C343 C342 1.357 . S
C343 C344 1.406 . S
C344 H318 0.929 . S
C344 C343 1.406 . S
C344 C345 1.391 . S
C345 H317 0.931 . S
C345 C340 1.370 . S
C345 C344 1.391 . S
C346 N315 1.435 . S
C346 C347 1.358 . S
C346 C351 1.371 . S
C347 H319 0.930 . S
C347 C346 1.358 . S
C347 C348 1.405 . S
C348 H320 0.932 . S
C348 C347 1.405 . S
C348 C349 1.383 . S
C349 C348 1.383 . S
C349 C350 1.393 . S
C350 H322 0.931 . S
C350 C349 1.393 . S
C350 C351 1.382 . S
C351 H321 0.929 . S
C351 C346 1.371 . S
C351 C350 1.382 . S
C352 N315 1.423 . S
C352 C353 1.362 . S
C352 C357 1.388 . S
C353 H323 0.929 . S
C353 C352 1.362 . S
C353 C354 1.376 . S
C354 H325 0.931 . S
C354 C353 1.376 . S
C354 C355 1.396 . S
C355 C354 1.396 . S
C355 C356 1.348 . S
C355 C373 1.472 . S
C356 H326 0.929 . S
C356 C355 1.348 . S
C356 C357 1.443 . S
C357 H324 0.932 . S
C357 C352 1.388 . S
C357 C356 1.443 . S
C358 N338 1.433 . S
C358 C359 1.363 . S
C358 C363 1.370 . S
C359 H327 0.929 . S
C359 C358 1.363 . S
C359 C360 1.385 . S
C360 H328 0.930 . S
C360 C359 1.385 . S
C360 C361 1.357 . S
C361 C360 1.357 . S
C361 C362 1.406 . S
C362 H329 0.929 . S
C362 C361 1.406 . S
C362 C363 1.391 . S
C363 H330 0.931 . S
C363 C358 1.370 . S
C363 C362 1.391 . S
C364 N338 1.435 . S
C364 C365 1.358 . S
C364 C369 1.371 . S
C365 H331 0.930 . S
C365 C364 1.358 . S
C365 C366 1.405 . S
C366 H332 0.932 . S
C366 C365 1.405 . S
C366 C367 1.383 . S
C367 C366 1.383 . S
C367 C368 1.393 . S
C368 H333 0.931 . S
C368 C367 1.393 . S
C368 C369 1.382 . S
C369 H334 0.929 . S
C369 C364 1.371 . S
C369 C368 1.382 . S
C370 N338 1.423 . S
C370 C371 1.362 . S
C370 C375 1.388 . S
C371 H335 0.929 . S
C371 C370 1.362 . S
C371 C372 1.376 . S
C372 H336 0.931 . S
C372 C371 1.376 . S
C372 C373 1.396 . S
C373 C355 1.472 . S
C373 C372 1.396 . S
C373 C374 1.348 . S
C374 H337 0.929 . S
C374 C373 1.348 . S
C374 C375 1.443 . S
C375 H339 0.932 . S
C375 C370 1.388 . S
C375 C374 1.443 . S
H376 C403 0.929 . S
N377 C402 1.433 . S
N377 C408 1.435 . S
N377 C414 1.423 . S
H378 C404 0.930 . S
H379 C407 0.931 . S
H380 C406 0.929 . S
H381 C409 0.930 . S
H382 C410 0.932 . S
H383 C413 0.929 . S
H384 C412 0.931 . S
H385 C415 0.929 . S
H386 C419 0.932 . S
H387 C416 0.931 . S
H388 C418 0.929 . S
H389 C421 0.929 . S
H390 C422 0.930 . S
H391 C424 0.929 . S
H392 C425 0.931 . S
H393 C427 0.930 . S
H394 C428 0.932 . S
H395 C430 0.931 . S
H396 C431 0.929 . S
H397 C433 0.929 . S
H398 C434 0.931 . S
H399 C436 0.929 . S
N400 C420 1.433 . S
N400 C426 1.435 . S
N400 C432 1.423 . S
H401 C437 0.932 . S
C402 N377 1.433 . S
C402 C403 1.363 . S
C402 C407 1.370 . S
C403 H376 0.929 . S
C403 C402 1.363 . S
C403 C404 1.385 . S
C404 H378 0.930 . S
C404 C403 1.385 . S
C404 C405 1.357 . S
C405 C404 1.357 . S
C405 C406 1.406 . S
C406 H380 0.929 . S
C406 C405 1.406 . S
C406 C407 1.391 . S
C407 H379 0.931 . S
C407 C402 1.370 . S
C407 C406 1.391 . S
C408 N377 1.435 . S
C408 C409 1.358 . S
C408 C413 1.371 . S
C409 H381 0.930 . S
C409 C408 1.358 . S
C409 C410 1.405 . S
C410 H382 0.932 . S
C410 C409 1.405 . S
C410 C411 1.383 . S
C411 C410 1.383 . S
C411 C412 1.393 . S
C412 H384 0.931 . S
C412 C411 1.393 . S
C412 C413 1.382 . S
C413 H383 0.929 . S
C413 C408 1.371 . S
C413 C412 1.382 . S
C414 N377 1.423 . S
C414 C415 1.362 . S
C414 C419 1.388 . S
C415 H385 0.929 . S
C415 C414 1.362 . S
C415 C416 1.376 . S
C416 H387 0.931 . S
C416 C415 1.376 . S
C416 C417 1.396 . S
C417 C416 1.396 . S
C417 C418 1.348 . S
C417 C435 1.472 . S
C418 H388 0.929 . S
C418 C417 1.348 . S
C418 C419 1.443 . S
C419 H386 0.932 . S
C419 C414 1.388 . S
C419 C418 1.443 . S
C420 N400 1.433 . S
C420 C421 1.363 . S
C420 C425 1.370 . S
C421 H389 0.929 . S
C421 C420 1.363 . S
C421 C422 1.385 . S
C422 H390 0.930 . S
C422 C421 1.385 . S
C422 C423 1.357 . S
C423 C422 1.357 . S
C423 C424 1.406 . S
C424 H391 0.929 . S
C424 C423 1.406 . S
C424 C425 1.391 . S
C425 H392 0.931 . S
C425 C420 1.370 . S
C425 C424 1.391 . S
C426 N400 1.435 . S
C426 C427 1.358 . S
C426 C431 1.371 . S
C427 H393 0.930 . S
C427 C426 1.358 . S
C427 C428 1.405 . S
C428 H394 0.932 . S
C428 C427 1.405 . S
C428 C429 1.383 . S
C429 C428 1.383 . S
C429 C430 1.393 . S
C430 H395 0.931 . S
C430 C429 1.393 . S
C430 C431 1.382 . S
C431 H396 0.929 . S
C431 C426 1.371 . S
C431 C430 1.382 . S
C432 N400 1.423 . S
C432 C433 1.362 . S
C432 C437 1.388 . S
C433 H397 0.929 . S
C433 C432 1.362 . S
C433 C434 1.376 . S
C434 H398 0.931 . S
C434 C433 1.376 . S
C434 C435 1.396 . S
C435 C417 1.472 . S
C435 C434 1.396 . S
C435 C436 1.348 . S
C436 H399 0.929 . S
C436 C435 1.348 . S
C436 C437 1.443 . S
C437 H401 0.932 . S
C437 C432 1.388 . S
C437 C436 1.443 . S
H438 C465 0.929 . S
N439 C464 1.433 . S
N439 C470 1.435 . S
N439 C476 1.423 . S
H440 C466 0.930 . S
H441 C469 0.931 . S
H442 C468 0.929 . S
H443 C471 0.930 . S
H444 C472 0.932 . S
H445 C475 0.929 . S
H446 C474 0.931 . S
H447 C477 0.929 . S
H448 C481 0.932 . S
H449 C478 0.931 . S
H450 C480 0.929 . S
H451 C483 0.929 . S
H452 C484 0.930 . S
H453 C486 0.929 . S
H454 C487 0.931 . S
H455 C489 0.930 . S
H456 C490 0.932 . S
H457 C492 0.931 . S
H458 C493 0.929 . S
H459 C495 0.929 . S
H460 C496 0.931 . S
H461 C498 0.929 . S
N462 C482 1.433 . S
N462 C488 1.435 . S
N462 C494 1.423 . S
H463 C499 0.932 . S
C464 N439 1.433 . S
C464 C465 1.363 . S
C464 C469 1.370 . S
C465 H438 0.929 . S
C465 C464 1.363 . S
C465 C466 1.385 . S
C466 H440 0.930 . S
C466 C465 1.385 . S
C466 C467 1.357 . S
C467 C466 1.357 . S
C467 C468 1.406 . S
C468 H442 0.929 . S
C468 C467 1.406 . S
C468 C469 1.391 . S
C469 H441 0.931 . S
C469 C464 1.370 . S
C469 C468 1.391 . S
C470 N439 1.435 . S
C470 C471 1.358 . S
C470 C475 1.371 . S
C471 H443 0.930 . S
C471 C470 1.358 . S
C471 C472 1.405 . S
C472 H444 0.932 . S
C472 C471 1.405 . S
C472 C473 1.383 . S
C473 C472 1.383 . S
C473 C474 1.393 . S
C474 H446 0.931 . S
C474 C473 1.393 . S
C474 C475 1.382 . S
C475 H445 0.929 . S
C475 C470 1.371 . S
C475 C474 1.382 . S
C476 N439 1.423 . S
C476 C477 1.362 . S
C476 C481 1.388 . S
C477 H447 0.929 . S
C477 C476 1.362 . S
C477 C478 1.376 . S
C478 H449 0.931 . S
C478 C477 1.376 . S
C478 C479 1.396 . S
C479 C478 1.396 . S
C479 C480 1.348 . S
C479 C497 1.472 . S
C480 H450 0.929 . S
C480 C479 1.348 . S
C480 C481 1.443 . S
C481 H448 0.932 . S
C481 C476 1.388 . S
C481 C480 1.443 . S
C482 N462 1.433 . S
C482 C483 1.363 . S
C482 C487 1.370 . S
C483 H451 0.929 . S
C483 C482 1.363 . S
C483 C484 1.385 . S
C484 H452 0.930 . S
C484 C483 1.385 . S
C484 C485 1.357 . S
C485 C484 1.357 . S
C485 C486 1.406 . S
C486 H453 0.929 . S
C486 C485 1.406 . S
C486 C487 1.391 . S
C487 H454 0.931 . S
C487 C482 1.370 . S
C487 C486 1.391 . S
C488 N462 1.435 . S
C488 C489 1.358 . S
C488 C493 1.371 . S
C489 H455 0.930 . S
C489 C488 1.358 . S
C489 C490 1.405 . S
C490 H456 0.932 . S
C490 C489 1.405 . S
C490 C491 1.383 . S
C491 C490 1.383 . S
C491 C492 1.393 . S
C492 H457 0.931 . S
C492 C491 1.393 . S
C492 C493 1.382 . S
C493 H458 0.929 . S
C493 C488 1.371 . S
C493 C492 1.382 . S
C494 N462 1.423 . S
C494 C495 1.362 . S
C494 C499 1.388 . S
C495 H459 0.929 . S
C495 C494 1.362 . S
C495 C496 1.376 . S
C496 H460 0.931 . S
C496 C495 1.376 . S
C496 C497 1.396 . S
C497 C479 1.472 . S
C497 C496 1.396 . S
C497 C498 1.348 . S
C498 H461 0.929 . S
C498 C497 1.348 . S
C498 C499 1.443 . S
C499 H463 0.932 . S
C499 C494 1.388 . S
C499 C498 1.443 . S
H500 C527 0.929 . S
N501 C526 1.433 . S
N501 C532 1.435 . S
N501 C538 1.423 . S
H502 C528 0.930 . S
H503 C531 0.931 . S
H504 C530 0.929 . S
H505 C533 0.930 . S
H506 C534 0.932 . S
H507 C537 0.929 . S
H508 C536 0.931 . S
H509 C539 0.929 . S
H510 C543 0.932 . S
H511 C540 0.931 . S
H512 C542 0.929 . S
H513 C545 0.929 . S
H514 C546 0.930 . S
H515 C548 0.929 . S
H516 C549 0.931 . S
H517 C551 0.930 . S
H518 C552 0.932 . S
H519 C554 0.931 . S
H520 C555 0.929 . S
H521 C557 0.929 . S
H522 C558 0.931 . S
H523 C560 0.929 . S
N524 C544 1.433 . S
N524 C550 1.435 . S
N524 C556 1.423 . S
H525 C561 0.932 . S
C526 N501 1.433 . S
C526 C527 1.363 . S
C526 C531 1.370 . S
C527 H500 0.929 . S
C527 C526 1.363 . S
C527 C528 1.385 . S
C528 H502 0.930 . S
C528 C527 1.385 . S
C528 C529 1.357 . S
C529 C528 1.357 . S
C529 C530 1.406 . S
C530 H504 0.929 . S
C530 C529 1.406 . S
C530 C531 1.391 . S
C531 H503 0.931 . S
C531 C526 1.370 . S
C531 C530 1.391 . S
C532 N501 1.435 . S
C532 C533 1.358 . S
C532 C537 1.371 . S
C533 H505 0.930 . S
C533 C532 1.358 . S
C533 C534 1.405 . S
C534 H506 0.932 . S
C534 C533 1.405 . S
C534 C535 1.383 . S
C535 C534 1.383 . S
C535 C536 1.393 . S
C536 H508 0.931 . S
C536 C535 1.393 . S
C536 C537 1.382 . S
C537 H507 0.929 . S
C537 C532 1.371 . S
C537 C536 1.382 . S
C538 N501 1.423 . S
C538 C539 1.362 . S
C538 C543 1.388 . S
C539 H509 0.929 . S
C539 C538 1.362 . S
C539 C540 1.376 . S
C540 H511 0.931 . S
C540 C539 1.376 . S
C540 C541 1.396 . S
C541 C540 1.396 . S
C541 C542 1.348 . S
C541 C559 1.472 . S
C542 H512 0.929 . S
C542 C541 1.348 . S
C542 C543 1.443 . S
C543 H510 0.932 . S
C543 C538 1.388 . S
C543 C542 1.443 . S
C544 N524 1.433 . S
C544 C545 1.363 . S
C544 C549 1.370 . S
C545 H513 0.929 . S
C545 C544 1.363 . S
C545 C546 1.385 . S
C546 H514 0.930 . S
C546 C545 1.385 . S
C546 C547 1.357 . S
C547 C546 1.357 . S
C547 C548 1.406 . S
C548 H515 0.929 . S
C548 C547 1.406 . S
C548 C549 1.391 . S
C549 H516 0.931 . S
C549 C544 1.370 . S
C549 C548 1.391 . S
C550 N524 1.435 . S
C550 C551 1.358 . S
C550 C555 1.371 . S
C551 H517 0.930 . S
C551 C550 1.358 . S
C551 C552 1.405 . S
C552 H518 0.932 . S
C552 C551 1.405 . S
C552 C553 1.383 . S
C553 C552 1.383 . S
C553 C554 1.393 . S
C554 H519 0.931 . S
C554 C553 1.393 . S
C554 C555 1.382 . S
C555 H520 0.929 . S
C555 C550 1.371 . S
C555 C554 1.382 . S
C556 N524 1.423 . S
C556 C557 1.362 . S
C556 C561 1.388 . S
C557 H521 0.929 . S
C557 C556 1.362 . S
C557 C558 1.376 . S
C558 H522 0.931 . S
C558 C557 1.376 . S
C558 C559 1.396 . S
C559 C541 1.472 . S
C559 C558 1.396 . S
C559 C560 1.348 . S
C560 H523 0.929 . S
C560 C559 1.348 . S
C560 C561 1.443 . S
C561 H525 0.932 . S
C561 C556 1.388 . S
C561 C560 1.443 . S
H562 C589 0.929 . S
N563 C588 1.433 . S
N563 C594 1.435 . S
N563 C600 1.423 . S
H564 C590 0.930 . S
H565 C593 0.931 . S
H566 C592 0.929 . S
H567 C595 0.930 . S
H568 C596 0.932 . S
H569 C599 0.929 . S
H570 C598 0.931 . S
H571 C601 0.929 . S
H572 C605 0.932 . S
H573 C602 0.931 . S
H574 C604 0.929 . S
H575 C607 0.929 . S
H576 C608 0.930 . S
H577 C610 0.929 . S
H578 C611 0.931 . S
H579 C613 0.930 . S
H580 C614 0.932 . S
H581 C616 0.931 . S
H582 C617 0.929 . S
H583 C619 0.929 . S
H584 C620 0.931 . S
H585 C622 0.929 . S
N586 C606 1.433 . S
N586 C612 1.435 . S
N586 C618 1.423 . S
H587 C623 0.932 . S
C588 N563 1.433 . S
C588 C589 1.363 . S
C588 C593 1.370 . S
C589 H562 0.929 . S
C589 C588 1.363 . S
C589 C590 1.385 . S
C590 H564 0.930 . S
C590 C589 1.385 . S
C590 C591 1.357 . S
C591 C590 1.357 . S
C591 C592 1.406 . S
C592 H566 0.929 . S
C592 C591 1.406 . S
C592 C593 1.391 . S
C593 H565 0.931 . S
C593 C588 1.370 . S
C593 C592 1.391 . S
C594 N563 1.435 . S
C594 C595 1.358 . S
C594 C599 1.371 . S
C595 H567 0.930 . S
C595 C594 1.358 . S
C595 C596 1.405 . S
C596 H568 0.932 . S
C596 C595 1.405 . S
C596 C597 1.383 . S
C597 C596 1.383 . S
C597 C598 1.393 . S
C598 H570 0.931 . S
C598 C597 1.393 . S
C598 C599 1.382 . S
C599 H569 0.929 . S
C599 C594 1.371 . S
C599 C598 1.382 . S
C600 N563 1.423 . S
C600 C601 1.362 . S
C600 C605 1.388 . S
C601 H571 0.929 . S
C601 C600 1.362 . S
C601 C602 1.376 . S
C602 H573 0.931 . S
C602 C601 1.376 . S
C602 C603 1.396 . S
C603 C602 1.396 . S
C603 C604 1.348 . S
C603 C621 1.472 . S
C604 H574 0.929 . S
C604 C603 1.348 . S
C604 C605 1.443 . S
C605 H572 0.932 . S
C605 C600 1.388 . S
C605 C604 1.443 . S
C606 N586 1.433 . S
C606 C607 1.363 . S
C606 C611 1.370 . S
C607 H575 0.929 . S
C607 C606 1.363 . S
C607 C608 1.385 . S
C608 H576 0.930 . S
C608 C607 1.385 . S
C608 C609 1.357 . S
C609 C608 1.357 . S
C609 C610 1.406 . S
C610 H577 0.929 . S
C610 C609 1.406 . S
C610 C611 1.391 . S
C611 H578 0.931 . S
C611 C606 1.370 . S
C611 C610 1.391 . S
C612 N586 1.435 . S
C612 C613 1.358 . S
C612 C617 1.371 . S
C613 H579 0.930 . S
C613 C612 1.358 . S
C613 C614 1.405 . S
C614 H580 0.932 . S
C614 C613 1.405 . S
C614 C615 1.383 . S
C615 C614 1.383 . S
C615 C616 1.393 . S
C616 H581 0.931 . S
C616 C615 1.393 . S
C616 C617 1.382 . S
C617 H582 0.929 . S
C617 C612 1.371 . S
C617 C616 1.382 . S
C618 N586 1.423 . S
C618 C619 1.362 . S
C618 C623 1.388 . S
C619 H583 0.929 . S
C619 C618 1.362 . S
C619 C620 1.376 . S
C620 H584 0.931 . S
C620 C619 1.376 . S
C620 C621 1.396 . S
C621 C603 1.472 . S
C621 C620 1.396 . S
C621 C622 1.348 . S
C622 H585 0.929 . S
C622 C621 1.348 . S
C622 C623 1.443 . S
C623 H587 0.932 . S
C623 C618 1.388 . S
C623 C622 1.443 . S
H624 C651 0.929 . S
N625 C650 1.433 . S
N625 C656 1.435 . S
N625 C662 1.423 . S
H626 C652 0.930 . S
H627 C655 0.931 . S
H628 C654 0.929 . S
H629 C657 0.930 . S
H630 C658 0.932 . S
H631 C661 0.929 . S
H632 C660 0.931 . S
H633 C663 0.929 . S
H634 C667 0.932 . S
H635 C664 0.931 . S
H636 C666 0.929 . S
H637 C669 0.929 . S
H638 C670 0.930 . S
H639 C672 0.929 . S
H640 C673 0.931 . S
H641 C675 0.930 . S
H642 C676 0.932 . S
H643 C678 0.931 . S
H644 C679 0.929 . S
H645 C681 0.929 . S
H646 C682 0.931 . S
H647 C684 0.929 . S
N648 C668 1.433 . S
N648 C674 1.435 . S
N648 C680 1.423 . S
H649 C685 0.932 . S
C650 N625 1.433 . S
C650 C651 1.363 . S
C650 C655 1.370 . S
C651 H624 0.929 . S
C651 C650 1.363 . S
C651 C652 1.385 . S
C652 H626 0.930 . S
C652 C651 1.385 . S
C652 C653 1.357 . S
C653 C652 1.357 . S
C653 C654 1.406 . S
C654 H628 0.929 . S
C654 C653 1.406 . S
C654 C655 1.391 . S
C655 H627 0.931 . S
C655 C650 1.370 . S
C655 C654 1.391 . S
C656 N625 1.435 . S
C656 C657 1.358 . S
C656 C661 1.371 . S
C657 H629 0.930 . S
C657 C656 1.358 . S
C657 C658 1.405 . S
C658 H630 0.932 . S
C658 C657 1.405 . S
C658 C659 1.383 . S
C659 C658 1.383 . S
C659 C660 1.393 . S
C660 H632 0.931 . S
C660 C659 1.393 . S
C660 C661 1.382 . S
C661 H631 0.929 . S
C661 C656 1.371 . S
C661 C660 1.382 . S
C662 N625 1.423 . S
C662 C663 1.362 . S
C662 C667 1.388 . S
C663 H633 0.929 . S
C663 C662 1.362 . S
C663 C664 1.376 . S
C664 H635 0.931 . S
C664 C663 1.376 . S
C664 C665 1.396 . S
C665 C664 1.396 . S
C665 C666 1.348 . S
C665 C683 1.472 . S
C666 H636 0.929 . S
C666 C665 1.348 . S
C666 C667 1.443 . S
C667 H634 0.932 . S
C667 C662 1.388 . S
C667 C666 1.443 . S
C668 N648 1.433 . S
C668 C669 1.363 . S
C668 C673 1.370 . S
C669 H637 0.929 . S
C669 C668 1.363 . S
C669 C670 1.385 . S
C670 H638 0.930 . S
C670 C669 1.385 . S
C670 C671 1.357 . S
C671 C670 1.357 . S
C671 C672 1.406 . S
C672 H639 0.929 . S
C672 C671 1.406 . S
C672 C673 1.391 . S
C673 H640 0.931 . S
C673 C668 1.370 . S
C673 C672 1.391 . S
C674 N648 1.435 . S
C674 C675 1.358 . S
C674 C679 1.371 . S
C675 H641 0.930 . S
C675 C674 1.358 . S
C675 C676 1.405 . S
C676 H642 0.932 . S
C676 C675 1.405 . S
C676 C677 1.383 . S
C677 C676 1.383 . S
C677 C678 1.393 . S
C678 H643 0.931 . S
C678 C677 1.393 . S
C678 C679 1.382 . S
C679 H644 0.929 . S
C679 C674 1.371 . S
C679 C678 1.382 . S
C680 N648 1.423 . S
C680 C681 1.362 . S
C680 C685 1.388 . S
C681 H645 0.929 . S
C681 C680 1.362 . S
C681 C682 1.376 . S
C682 H646 0.931 . S
C682 C681 1.376 . S
C682 C683 1.396 . S
C683 C665 1.472 . S
C683 C682 1.396 . S
C683 C684 1.348 . S
C684 H647 0.929 . S
C684 C683 1.348 . S
C684 C685 1.443 . S
C685 H649 0.932 . S
C685 C680 1.388 . S
C685 C684 1.443 . S
H686 C713 0.929 . S
N687 C712 1.433 . S
N687 C718 1.435 . S
N687 C724 1.423 . S
H688 C714 0.930 . S
H689 C717 0.931 . S
H690 C716 0.929 . S
H691 C719 0.930 . S
H692 C720 0.932 . S
H693 C723 0.929 . S
H694 C722 0.931 . S
H695 C725 0.929 . S
H696 C729 0.932 . S
H697 C726 0.931 . S
H698 C728 0.929 . S
H699 C731 0.929 . S
H700 C732 0.930 . S
H701 C734 0.929 . S
H702 C735 0.931 . S
H703 C737 0.930 . S
H704 C738 0.932 . S
H705 C740 0.931 . S
H706 C741 0.929 . S
H707 C743 0.929 . S
H708 C744 0.931 . S
H709 C746 0.929 . S
N710 C730 1.433 . S
N710 C736 1.435 . S
N710 C742 1.423 . S
H711 C747 0.932 . S
C712 N687 1.433 . S
C712 C713 1.363 . S
C712 C717 1.370 . S
C713 H686 0.929 . S
C713 C712 1.363 . S
C713 C714 1.385 . S
C714 H688 0.930 . S
C714 C713 1.385 . S
C714 C715 1.357 . S
C715 C714 1.357 . S
C715 C716 1.406 . S
C716 H690 0.929 . S
C716 C715 1.406 . S
C716 C717 1.391 . S
C717 H689 0.931 . S
C717 C712 1.370 . S
C717 C716 1.391 . S
C718 N687 1.435 . S
C718 C719 1.358 . S
C718 C723 1.371 . S
C719 H691 0.930 . S
C719 C718 1.358 . S
C719 C720 1.405 . S
C720 H692 0.932 . S
C720 C719 1.405 . S
C720 C721 1.383 . S
C721 C720 1.383 . S
C721 C722 1.393 . S
C722 H694 0.931 . S
C722 C721 1.393 . S
C722 C723 1.382 . S
C723 H693 0.929 . S
C723 C718 1.371 . S
C723 C722 1.382 . S
C724 N687 1.423 . S
C724 C725 1.362 . S
C724 C729 1.388 . S
C725 H695 0.929 . S
C725 C724 1.362 . S
C725 C726 1.376 . S
C726 H697 0.931 . S
C726 C725 1.376 . S
C726 C727 1.396 . S
C727 C726 1.396 . S
C727 C728 1.348 . S
C727 C745 1.472 . S
C728 H698 0.929 . S
C728 C727 1.348 . S
C728 C729 1.443 . S
C729 H696 0.932 . S
C729 C724 1.388 . S
C729 C728 1.443 . S
C730 N710 1.433 . S
C730 C731 1.363 . S
C730 C735 1.370 . S
C731 H699 0.929 . S
C731 C730 1.363 . S
C731 C732 1.385 . S
C732 H700 0.930 . S
C732 C731 1.385 . S
C732 C733 1.357 . S
C733 C732 1.357 . S
C733 C734 1.406 . S
C734 H701 0.929 . S
C734 C733 1.406 . S
C734 C735 1.391 . S
C735 H702 0.931 . S
C735 C730 1.370 . S
C735 C734 1.391 . S
C736 N710 1.435 . S
C736 C737 1.358 . S
C736 C741 1.371 . S
C737 H703 0.930 . S
C737 C736 1.358 . S
C737 C738 1.405 . S
C738 H704 0.932 . S
C738 C737 1.405 . S
C738 C739 1.383 . S
C739 C738 1.383 . S
C739 C740 1.393 . S
C740 H705 0.931 . S
C740 C739 1.393 . S
C740 C741 1.382 . S
C741 H706 0.929 . S
C741 C736 1.371 . S
C741 C740 1.382 . S
C742 N710 1.423 . S
C742 C743 1.362 . S
C742 C747 1.388 . S
C743 H707 0.929 . S
C743 C742 1.362 . S
C743 C744 1.376 . S
C744 H708 0.931 . S
C744 C743 1.376 . S
C744 C745 1.396 . S
C745 C727 1.472 . S
C745 C744 1.396 . S
C745 C746 1.348 . S
C746 H709 0.929 . S
C746 C745 1.348 . S
C746 C747 1.443 . S
C747 H711 0.932 . S
C747 C742 1.388 . S
C747 C746 1.443 . S
H748 C775 0.929 . S
N749 C774 1.433 . S
N749 C780 1.435 . S
N749 C786 1.423 . S
H750 C776 0.930 . S
H751 C779 0.931 . S
H752 C778 0.929 . S
H753 C781 0.930 . S
H754 C782 0.932 . S
H755 C785 0.929 . S
H756 C784 0.931 . S
H757 C787 0.929 . S
H758 C791 0.932 . S
H759 C788 0.931 . S
H760 C790 0.929 . S
H761 C793 0.929 . S
H762 C794 0.930 . S
H763 C796 0.929 . S
H764 C797 0.931 . S
H765 C799 0.930 . S
H766 C800 0.932 . S
H767 C802 0.931 . S
H768 C803 0.929 . S
H769 C805 0.929 . S
H770 C806 0.931 . S
H771 C808 0.929 . S
N772 C792 1.433 . S
N772 C798 1.435 . S
N772 C804 1.423 . S
H773 C809 0.932 . S
C774 N749 1.433 . S
C774 C775 1.363 . S
C774 C779 1.370 . S
C775 H748 0.929 . S
C775 C774 1.363 . S
C775 C776 1.385 . S
C776 H750 0.930 . S
C776 C775 1.385 . S
C776 C777 1.357 . S
C777 C776 1.357 . S
C777 C778 1.406 . S
C778 H752 0.929 . S
C778 C777 1.406 . S
C778 C779 1.391 . S
C779 H751 0.931 . S
C779 C774 1.370 . S
C779 C778 1.391 . S
C780 N749 1.435 . S
C780 C781 1.358 . S
C780 C785 1.371 . S
C781 H753 0.930 . S
C781 C780 1.358 . S
C781 C782 1.405 . S
C782 H754 0.932 . S
C782 C781 1.405 . S
C782 C783 1.383 . S
C783 C782 1.383 . S
C783 C784 1.393 . S
C784 H756 0.931 . S
C784 C783 1.393 . S
C784 C785 1.382 . S
C785 H755 0.929 . S
C785 C780 1.371 . S
C785 C784 1.382 . S
C786 N749 1.423 . S
C786 C787 1.362 . S
C786 C791 1.388 . S
C787 H757 0.929 . S
C787 C786 1.362 . S
C787 C788 1.376 . S
C788 H759 0.931 . S
C788 C787 1.376 . S
C788 C789 1.396 . S
C789 C788 1.396 . S
C789 C790 1.348 . S
C789 C807 1.472 . S
C790 H760 0.929 . S
C790 C789 1.348 . S
C790 C791 1.443 . S
C791 H758 0.932 . S
C791 C786 1.388 . S
C791 C790 1.443 . S
C792 N772 1.433 . S
C792 C793 1.363 . S
C792 C797 1.370 . S
C793 H761 0.929 . S
C793 C792 1.363 . S
C793 C794 1.385 . S
C794 H762 0.930 . S
C794 C793 1.385 . S
C794 C795 1.357 . S
C795 C794 1.357 . S
C795 C796 1.406 . S
C796 H763 0.929 . S
C796 C795 1.406 . S
C796 C797 1.391 . S
C797 H764 0.931 . S
C797 C792 1.370 . S
C797 C796 1.391 . S
C798 N772 1.435 . S
C798 C799 1.358 . S
C798 C803 1.371 . S
C799 H765 0.930 . S
C799 C798 1.358 . S
C799 C800 1.405 . S
C800 H766 0.932 . S
C800 C799 1.405 . S
C800 C801 1.383 . S
C801 C800 1.383 . S
C801 C802 1.393 . S
C802 H767 0.931 . S
C802 C801 1.393 . S
C802 C803 1.382 . S
C803 H768 0.929 . S
C803 C798 1.371 . S
C803 C802 1.382 . S
C804 N772 1.423 . S
C804 C805 1.362 . S
C804 C809 1.388 . S
C805 H769 0.929 . S
C805 C804 1.362 . S
C805 C806 1.376 . S
C806 H770 0.931 . S
C806 C805 1.376 . S
C806 C807 1.396 . S
C807 C789 1.472 . S
C807 C806 1.396 . S
C807 C808 1.348 . S
C808 H771 0.929 . S
C808 C807 1.348 . S
C808 C809 1.443 . S
C809 H773 0.932 . S
C809 C804 1.388 . S
C809 C808 1.443 . S
H810 C837 0.929 . S
N811 C836 1.433 . S
N811 C842 1.435 . S
N811 C848 1.423 . S
H812 C838 0.930 . S
H813 C841 0.931 . S
H814 C840 0.929 . S
H815 C843 0.930 . S
H816 C844 0.932 . S
H817 C847 0.929 . S
H818 C846 0.931 . S
H819 C849 0.929 . S
H820 C853 0.932 1_655 S
H821 C850 0.931 . S
H822 C852 0.929 . S
H823 C855 0.929 . S
H824 C856 0.930 . S
H825 C858 0.929 . S
H826 C859 0.931 . S
H827 C861 0.930 . S
H828 C862 0.932 . S
H829 C864 0.931 . S
H830 C865 0.929 . S
H831 C867 0.929 . S
H832 C868 0.931 . S
H833 C870 0.929 . S
N834 C854 1.433 . S
N834 C860 1.435 . S
N834 C866 1.423 . S
H835 C871 0.932 1_655 S
C836 N811 1.433 . S
C836 C837 1.363 . S
C836 C841 1.370 1_455 S
C837 H810 0.929 . S
C837 C836 1.363 . S
C837 C838 1.385 . S
C838 H812 0.930 . S
C838 C837 1.385 . S
C838 C839 1.357 1_455 S
C839 C838 1.357 1_655 S
C839 C840 1.406 . S
C840 H814 0.929 . S
C840 C839 1.406 . S
C840 C841 1.391 . S
C841 H813 0.931 . S
C841 C836 1.370 1_655 S
C841 C840 1.391 . S
C842 N811 1.435 . S
C842 C843 1.358 1_455 S
C842 C847 1.371 . S
C843 H815 0.930 . S
C843 C842 1.358 1_655 S
C843 C844 1.405 . S
C844 H816 0.932 . S
C844 C843 1.405 . S
C844 C845 1.383 1_655 S
C845 C844 1.383 1_455 S
C845 C846 1.393 . S
C846 H818 0.931 . S
C846 C845 1.393 . S
C846 C847 1.382 . S
C847 H817 0.929 . S
C847 C842 1.371 . S
C847 C846 1.382 . S
C848 N811 1.423 . S
C848 C849 1.362 . S
C848 C853 1.388 . S
C849 H819 0.929 . S
C849 C848 1.362 . S
C849 C850 1.376 . S
C850 H821 0.931 . S
C850 C849 1.376 . S
C850 C851 1.396 . S
C851 C850 1.396 . S
C851 C852 1.348 . S
C851 C869 1.472 . S
C852 H822 0.929 . S
C852 C851 1.348 . S
C852 C853 1.443 . S
C853 H820 0.932 1_455 S
C853 C848 1.388 . S
C853 C852 1.443 . S
C854 N834 1.433 . S
C854 C855 1.363 . S
C854 C859 1.370 1_455 S
C855 H823 0.929 . S
C855 C854 1.363 . S
C855 C856 1.385 . S
C856 H824 0.930 . S
C856 C855 1.385 . S
C856 C857 1.357 1_455 S
C857 C856 1.357 1_655 S
C857 C858 1.406 . S
C858 H825 0.929 . S
C858 C857 1.406 . S
C858 C859 1.391 . S
C859 H826 0.931 . S
C859 C854 1.370 1_655 S
C859 C858 1.391 . S
C860 N834 1.435 . S
C860 C861 1.358 1_455 S
C860 C865 1.371 . S
C861 H827 0.930 . S
C861 C860 1.358 1_655 S
C861 C862 1.405 . S
C862 H828 0.932 . S
C862 C861 1.405 . S
C862 C863 1.383 1_655 S
C863 C862 1.383 1_455 S
C863 C864 1.393 . S
C864 H829 0.931 . S
C864 C863 1.393 . S
C864 C865 1.382 . S
C865 H830 0.929 . S
C865 C860 1.371 . S
C865 C864 1.382 . S
C866 N834 1.423 . S
C866 C867 1.362 . S
C866 C871 1.388 . S
C867 H831 0.929 . S
C867 C866 1.362 . S
C867 C868 1.376 . S
C868 H832 0.931 . S
C868 C867 1.376 . S
C868 C869 1.396 . S
C869 C851 1.472 . S
C869 C868 1.396 . S
C869 C870 1.348 . S
C870 H833 0.929 . S
C870 C869 1.348 . S
C870 C871 1.443 . S
C871 H835 0.932 1_455 S
C871 C866 1.388 . S
C871 C870 1.443 . S
H872 C899 0.929 . S
N873 C898 1.433 . S
N873 C904 1.435 . S
N873 C910 1.423 . S
H874 C900 0.930 . S
H875 C903 0.931 . S
H876 C902 0.929 . S
H877 C905 0.930 . S
H878 C906 0.932 . S
H879 C909 0.929 . S
H880 C908 0.931 . S
H881 C911 0.929 . S
H882 C915 0.932 . S
H883 C912 0.931 . S
H884 C914 0.929 . S
H885 C917 0.929 . S
H886 C918 0.930 . S
H887 C920 0.929 . S
H888 C921 0.931 . S
H889 C923 0.930 . S
H890 C924 0.932 . S
H891 C926 0.931 . S
H892 C927 0.929 . S
H893 C929 0.929 . S
H894 C930 0.931 . S
H895 C932 0.929 . S
N896 C916 1.433 . S
N896 C922 1.435 . S
N896 C928 1.423 . S
H897 C933 0.932 . S
C898 N873 1.433 . S
C898 C899 1.363 . S
C898 C903 1.370 . S
C899 H872 0.929 . S
C899 C898 1.363 . S
C899 C900 1.385 . S
C900 H874 0.930 . S
C900 C899 1.385 . S
C900 C901 1.357 . S
C901 C900 1.357 . S
C901 C902 1.406 . S
C902 H876 0.929 . S
C902 C901 1.406 . S
C902 C903 1.391 . S
C903 H875 0.931 . S
C903 C898 1.370 . S
C903 C902 1.391 . S
C904 N873 1.435 . S
C904 C905 1.358 . S
C904 C909 1.371 . S
C905 H877 0.930 . S
C905 C904 1.358 . S
C905 C906 1.405 . S
C906 H878 0.932 . S
C906 C905 1.405 . S
C906 C907 1.383 . S
C907 C906 1.383 . S
C907 C908 1.393 . S
C908 H880 0.931 . S
C908 C907 1.393 . S
C908 C909 1.382 . S
C909 H879 0.929 . S
C909 C904 1.371 . S
C909 C908 1.382 . S
C910 N873 1.423 . S
C910 C911 1.362 . S
C910 C915 1.388 . S
C911 H881 0.929 . S
C911 C910 1.362 . S
C911 C912 1.376 . S
C912 H883 0.931 . S
C912 C911 1.376 . S
C912 C913 1.396 . S
C913 C912 1.396 . S
C913 C914 1.348 . S
C913 C931 1.472 . S
C914 H884 0.929 . S
C914 C913 1.348 . S
C914 C915 1.443 . S
C915 H882 0.932 . S
C915 C910 1.388 . S
C915 C914 1.443 . S
C916 N896 1.433 . S
C916 C917 1.363 . S
C916 C921 1.370 . S
C917 H885 0.929 . S
C917 C916 1.363 . S
C917 C918 1.385 . S
C918 H886 0.930 . S
C918 C917 1.385 . S
C918 C919 1.357 . S
C919 C918 1.357 . S
C919 C920 1.406 . S
C920 H887 0.929 . S
C920 C919 1.406 . S
C920 C921 1.391 . S
C921 H888 0.931 . S
C921 C916 1.370 . S
C921 C920 1.391 . S
C922 N896 1.435 . S
C922 C923 1.358 . S
C922 C927 1.371 . S
C923 H889 0.930 . S
C923 C922 1.358 . S
C923 C924 1.405 . S
C924 H890 0.932 . S
C924 C923 1.405 . S
C924 C925 1.383 . S
C925 C924 1.383 . S
C925 C926 1.393 . S
C926 H891 0.931 . S
C926 C925 1.393 . S
C926 C927 1.382 . S
C927 H892 0.929 . S
C927 C922 1.371 . S
C927 C926 1.382 . S
C928 N896 1.423 . S
C928 C929 1.362 . S
C928 C933 1.388 . S
C929 H893 0.929 . S
C929 C928 1.362 . S
C929 C930 1.376 . S
C930 H894 0.931 . S
C930 C929 1.376 . S
C930 C931 1.396 . S
C931 C913 1.472 . S
C931 C930 1.396 . S
C931 C932 1.348 . S
C932 H895 0.929 . S
C932 C931 1.348 . S
C932 C933 1.443 . S
C933 H897 0.932 . S
C933 C928 1.388 . S
C933 C932 1.443 . S
H934 C961 0.929 . S
N935 C960 1.433 . S
N935 C966 1.435 . S
N935 C972 1.423 . S
H936 C962 0.930 . S
H937 C965 0.931 . S
H938 C964 0.929 . S
H939 C967 0.930 . S
H940 C968 0.932 . S
H941 C971 0.929 . S
H942 C970 0.931 . S
H943 C973 0.929 . S
H944 C977 0.932 1_545 S
H945 C974 0.931 . S
H946 C976 0.929 . S
H947 C979 0.929 . S
H948 C980 0.930 . S
H949 C982 0.929 . S
H950 C983 0.931 . S
H951 C985 0.930 . S
H952 C986 0.932 . S
H953 C988 0.931 . S
H954 C989 0.929 . S
H955 C991 0.929 . S
H956 C992 0.931 . S
H957 C994 0.929 . S
N958 C978 1.433 . S
N958 C984 1.435 . S
N958 C990 1.423 . S
H959 C995 0.932 1_545 S
C960 N935 1.433 . S
C960 C961 1.363 . S
C960 C965 1.370 1_565 S
C961 H934 0.929 . S
C961 C960 1.363 . S
C961 C962 1.385 . S
C962 H936 0.930 . S
C962 C961 1.385 . S
C962 C963 1.357 1_565 S
C963 C962 1.357 1_545 S
C963 C964 1.406 . S
C964 H938 0.929 . S
C964 C963 1.406 . S
C964 C965 1.391 . S
C965 H937 0.931 . S
C965 C960 1.370 1_545 S
C965 C964 1.391 . S
C966 N935 1.435 . S
C966 C967 1.358 1_565 S
C966 C971 1.371 . S
C967 H939 0.930 . S
C967 C966 1.358 1_545 S
C967 C968 1.405 . S
C968 H940 0.932 . S
C968 C967 1.405 . S
C968 C969 1.383 1_545 S
C969 C968 1.383 1_565 S
C969 C970 1.393 . S
C970 H942 0.931 . S
C970 C969 1.393 . S
C970 C971 1.382 . S
C971 H941 0.929 . S
C971 C966 1.371 . S
C971 C970 1.382 . S
C972 N935 1.423 . S
C972 C973 1.362 . S
C972 C977 1.388 . S
C973 H943 0.929 . S
C973 C972 1.362 . S
C973 C974 1.376 . S
C974 H945 0.931 . S
C974 C973 1.376 . S
C974 C975 1.396 . S
C975 C974 1.396 . S
C975 C976 1.348 . S
C975 C993 1.472 . S
C976 H946 0.929 . S
C976 C975 1.348 . S
C976 C977 1.443 . S
C977 H944 0.932 1_565 S
C977 C972 1.388 . S
C977 C976 1.443 . S
C978 N958 1.433 . S
C978 C979 1.363 . S
C978 C983 1.370 1_565 S
C979 H947 0.929 . S
C979 C978 1.363 . S
C979 C980 1.385 . S
C980 H948 0.930 . S
C980 C979 1.385 . S
C980 C981 1.357 1_565 S
C981 C980 1.357 1_545 S
C981 C982 1.406 . S
C982 H949 0.929 . S
C982 C981 1.406 . S
C982 C983 1.391 . S
C983 H950 0.931 . S
C983 C978 1.370 1_545 S
C983 C982 1.391 . S
C984 N958 1.435 . S
C984 C985 1.358 1_565 S
C984 C989 1.371 . S
C985 H951 0.930 . S
C985 C984 1.358 1_545 S
C985 C986 1.405 . S
C986 H952 0.932 . S
C986 C985 1.405 . S
C986 C987 1.383 1_545 S
C987 C986 1.383 1_565 S
C987 C988 1.393 . S
C988 H953 0.931 . S
C988 C987 1.393 . S
C988 C989 1.382 . S
C989 H954 0.929 . S
C989 C984 1.371 . S
C989 C988 1.382 . S
C990 N958 1.423 . S
C990 C991 1.362 . S
C990 C995 1.388 . S
C991 H955 0.929 . S
C991 C990 1.362 . S
C991 C992 1.376 . S
C992 H956 0.931 . S
C992 C991 1.376 . S
C992 C993 1.396 . S
C993 C975 1.472 . S
C993 C992 1.396 . S
C993 C994 1.348 . S
C994 H957 0.929 . S
C994 C993 1.348 . S
C994 C995 1.443 . S
C995 H959 0.932 1_565 S
C995 C990 1.388 . S
C995 C994 1.443 . S
H996 C1023 0.929 . S
N997 C1022 1.433 . S
N997 C1028 1.435 . S
N997 C1034 1.423 . S
H998 C1024 0.930 . S
H999 C1027 0.931 . S
H1000 C1026 0.929 . S
H1001 C1029 0.930 . S
H1002 C1030 0.932 . S
H1003 C1033 0.929 . S
H1004 C1032 0.931 . S
H1005 C1035 0.929 . S
H1006 C1039 0.932 . S
H1007 C1036 0.931 . S
H1008 C1038 0.923 1_545 S
H1009 C1041 0.929 . S
H1010 C1042 0.930 . S
H1011 C1044 0.952 . S
H1012 C1045 0.939 . S
H1013 C1047 0.930 . S
H1014 C1048 0.932 . S
H1015 C1050 0.931 . S
H1016 C1051 0.929 . S
H1017 C1053 0.929 . S
H1018 C1054 0.931 . S
H1019 C1056 0.879 1_545 S
N1020 C1040 1.433 . S
N1020 C1046 1.435 . S
N1020 C1052 1.423 . S
H1021 C1057 0.953 . S
C1022 N997 1.433 . S
C1022 C1023 1.363 . S
C1022 C1027 1.370 1_565 S
C1023 H996 0.929 . S
C1023 C1022 1.363 . S
C1023 C1024 1.385 . S
C1024 H998 0.930 . S
C1024 C1023 1.385 . S
C1024 C1025 1.357 . S
C1025 C1024 1.357 . S
C1025 C1026 1.406 1_565 S
C1026 H1000 0.929 . S
C1026 C1025 1.406 1_545 S
C1026 C1027 1.391 . S
C1027 H999 0.931 . S
C1027 C1022 1.370 1_545 S
C1027 C1026 1.391 . S
C1028 N997 1.435 . S
C1028 C1029 1.358 1_565 S
C1028 C1033 1.371 . S
C1029 H1001 0.930 . S
C1029 C1028 1.358 1_545 S
C1029 C1030 1.405 . S
C1030 H1002 0.932 . S
C1030 C1029 1.405 . S
C1030 C1031 1.383 . S
C1031 C1030 1.383 . S
C1031 C1032 1.393 1_545 S
C1032 H1004 0.931 . S
C1032 C1031 1.393 1_565 S
C1032 C1033 1.382 . S
C1033 H1003 0.929 . S
C1033 C1028 1.371 . S
C1033 C1032 1.382 . S
C1034 N997 1.423 . S
C1034 C1035 1.362 . S
C1034 C1039 1.388 1_565 S
C1035 H1005 0.929 . S
C1035 C1034 1.362 . S
C1035 C1036 1.376 . S
C1036 H1007 0.931 . S
C1036 C1035 1.376 . S
C1036 C1037 1.396 . S
C1037 C1036 1.396 . S
C1037 C1038 1.374 . S
C1037 C1055 1.472 . S
C1038 H1008 0.923 1_565 S
C1038 C1037 1.374 . S
C1038 C1039 1.423 1_565 S
C1039 H1006 0.932 . S
C1039 C1034 1.388 1_545 S
C1039 C1038 1.423 1_545 S
C1040 N1020 1.433 . S
C1040 C1041 1.363 . S
C1040 C1045 1.364 1_565 S
C1041 H1009 0.929 . S
C1041 C1040 1.363 . S
C1041 C1042 1.385 . S
C1042 H1010 0.930 . S
C1042 C1041 1.385 . S
C1042 C1043 1.357 . S
C1043 C1042 1.357 . S
C1043 C1044 1.379 1_565 S
C1044 H1011 0.952 . S
C1044 C1043 1.379 1_545 S
C1044 C1045 1.396 . S
C1045 H1012 0.939 . S
C1045 C1040 1.364 1_545 S
C1045 C1044 1.396 . S
C1046 N1020 1.435 . S
C1046 C1047 1.358 1_565 S
C1046 C1051 1.371 . S
C1047 H1013 0.930 . S
C1047 C1046 1.358 1_545 S
C1047 C1048 1.405 . S
C1048 H1014 0.932 . S
C1048 C1047 1.405 . S
C1048 C1049 1.383 . S
C1049 C1048 1.383 . S
C1049 C1050 1.393 1_545 S
C1050 H1015 0.931 . S
C1050 C1049 1.393 1_565 S
C1050 C1051 1.382 . S
C1051 H1016 0.929 . S
C1051 C1046 1.371 . S
C1051 C1050 1.382 . S
C1052 N1020 1.423 . S
C1052 C1053 1.362 . S
C1052 C1057 1.341 1_565 S
C1053 H1017 0.929 . S
C1053 C1052 1.362 . S
C1053 C1054 1.376 . S
C1054 H1018 0.931 . S
C1054 C1053 1.376 . S
C1054 C1055 1.396 . S
C1055 C1037 1.472 . S
C1055 C1054 1.396 . S
C1055 C1056 1.367 . S
C1056 H1019 0.879 1_565 S
C1056 C1055 1.367 . S
C1056 C1057 1.506 1_565 S
C1057 H1021 0.953 . S
C1057 C1052 1.341 1_545 S
C1057 C1056 1.506 1_545 S
H1058 C1085 0.929 . S
N1059 C1084 1.433 . S
N1059 C1090 1.435 . S
N1059 C1096 1.423 . S
H1060 C1086 0.930 . S
H1061 C1089 0.931 . S
H1062 C1088 0.929 . S
H1063 C1091 0.930 . S
H1064 C1092 0.932 . S
H1065 C1095 0.929 . S
H1066 C1094 0.931 . S
H1067 C1097 0.929 . S
H1068 C1101 0.932 1_455 S
H1069 C1098 0.931 . S
H1070 C1100 0.929 . S
H1071 C1103 0.929 . S
H1072 C1104 0.930 . S
H1073 C1106 0.929 . S
H1074 C1107 0.931 . S
H1075 C1109 0.930 . S
H1076 C1110 0.932 . S
H1077 C1112 0.931 . S
H1078 C1113 0.929 . S
H1079 C1115 0.929 . S
H1080 C1116 0.931 . S
H1081 C1118 0.929 . S
N1082 C1102 1.433 . S
N1082 C1108 1.435 . S
N1082 C1114 1.423 . S
H1083 C1119 0.932 1_455 S
C1084 N1059 1.433 . S
C1084 C1085 1.363 . S
C1084 C1089 1.370 1_655 S
C1085 H1058 0.929 . S
C1085 C1084 1.363 . S
C1085 C1086 1.385 . S
C1086 H1060 0.930 . S
C1086 C1085 1.385 . S
C1086 C1087 1.357 1_655 S
C1087 C1086 1.357 1_455 S
C1087 C1088 1.406 . S
C1088 H1062 0.929 . S
C1088 C1087 1.406 . S
C1088 C1089 1.391 . S
C1089 H1061 0.931 . S
C1089 C1084 1.370 1_455 S
C1089 C1088 1.391 . S
C1090 N1059 1.435 . S
C1090 C1091 1.358 1_655 S
C1090 C1095 1.371 . S
C1091 H1063 0.930 . S
C1091 C1090 1.358 1_455 S
C1091 C1092 1.405 . S
C1092 H1064 0.932 . S
C1092 C1091 1.405 . S
C1092 C1093 1.383 1_455 S
C1093 C1092 1.383 1_655 S
C1093 C1094 1.393 . S
C1094 H1066 0.931 . S
C1094 C1093 1.393 . S
C1094 C1095 1.382 . S
C1095 H1065 0.929 . S
C1095 C1090 1.371 . S
C1095 C1094 1.382 . S
C1096 N1059 1.423 . S
C1096 C1097 1.362 . S
C1096 C1101 1.388 . S
C1097 H1067 0.929 . S
C1097 C1096 1.362 . S
C1097 C1098 1.376 . S
C1098 H1069 0.931 . S
C1098 C1097 1.376 . S
C1098 C1099 1.396 . S
C1099 C1098 1.396 . S
C1099 C1100 1.348 . S
C1099 C1117 1.472 . S
C1100 H1070 0.929 . S
C1100 C1099 1.348 . S
C1100 C1101 1.443 . S
C1101 H1068 0.932 1_655 S
C1101 C1096 1.388 . S
C1101 C1100 1.443 . S
C1102 N1082 1.433 . S
C1102 C1103 1.363 . S
C1102 C1107 1.370 1_655 S
C1103 H1071 0.929 . S
C1103 C1102 1.363 . S
C1103 C1104 1.385 . S
C1104 H1072 0.930 . S
C1104 C1103 1.385 . S
C1104 C1105 1.357 1_655 S
C1105 C1104 1.357 1_455 S
C1105 C1106 1.406 . S
C1106 H1073 0.929 . S
C1106 C1105 1.406 . S
C1106 C1107 1.391 . S
C1107 H1074 0.931 . S
C1107 C1102 1.370 1_455 S
C1107 C1106 1.391 . S
C1108 N1082 1.435 . S
C1108 C1109 1.358 1_655 S
C1108 C1113 1.371 . S
C1109 H1075 0.930 . S
C1109 C1108 1.358 1_455 S
C1109 C1110 1.405 . S
C1110 H1076 0.932 . S
C1110 C1109 1.405 . S
C1110 C1111 1.383 1_455 S
C1111 C1110 1.383 1_655 S
C1111 C1112 1.393 . S
C1112 H1077 0.931 . S
C1112 C1111 1.393 . S
C1112 C1113 1.382 . S
C1113 H1078 0.929 . S
C1113 C1108 1.371 . S
C1113 C1112 1.382 . S
C1114 N1082 1.423 . S
C1114 C1115 1.362 . S
C1114 C1119 1.388 . S
C1115 H1079 0.929 . S
C1115 C1114 1.362 . S
C1115 C1116 1.376 . S
C1116 H1080 0.931 . S
C1116 C1115 1.376 . S
C1116 C1117 1.396 . S
C1117 C1099 1.472 . S
C1117 C1116 1.396 . S
C1117 C1118 1.348 . S
C1118 H1081 0.929 . S
C1118 C1117 1.348 . S
C1118 C1119 1.443 . S
C1119 H1083 0.932 1_655 S
C1119 C1114 1.388 . S
C1119 C1118 1.443 . S
H1120 C1147 0.929 . S
N1121 C1146 1.433 . S
N1121 C1152 1.435 . S
N1121 C1158 1.423 . S
H1122 C1148 0.930 . S
H1123 C1151 0.931 . S
H1124 C1150 0.929 . S
H1125 C1153 0.930 . S
H1126 C1154 0.932 . S
H1127 C1157 0.929 . S
H1128 C1156 0.931 . S
H1129 C1159 0.929 . S
H1130 C1163 0.932 . S
H1131 C1160 0.931 . S
H1132 C1162 0.929 . S
H1133 C1165 0.929 . S
H1134 C1166 0.930 . S
H1135 C1168 0.929 . S
H1136 C1169 0.931 . S
H1137 C1171 0.930 . S
H1138 C1172 0.932 . S
H1139 C1174 0.931 . S
H1140 C1175 0.929 . S
H1141 C1177 0.929 . S
H1142 C1178 0.931 . S
H1143 C1180 0.929 . S
N1144 C1164 1.433 . S
N1144 C1170 1.435 . S
N1144 C1176 1.423 . S
H1145 C1181 0.932 . S
C1146 N1121 1.433 . S
C1146 C1147 1.363 . S
C1146 C1151 1.370 . S
C1147 H1120 0.929 . S
C1147 C1146 1.363 . S
C1147 C1148 1.385 . S
C1148 H1122 0.930 . S
C1148 C1147 1.385 . S
C1148 C1149 1.357 . S
C1149 C1148 1.357 . S
C1149 C1150 1.406 . S
C1150 H1124 0.929 . S
C1150 C1149 1.406 . S
C1150 C1151 1.391 . S
C1151 H1123 0.931 . S
C1151 C1146 1.370 . S
C1151 C1150 1.391 . S
C1152 N1121 1.435 . S
C1152 C1153 1.358 . S
C1152 C1157 1.371 . S
C1153 H1125 0.930 . S
C1153 C1152 1.358 . S
C1153 C1154 1.405 . S
C1154 H1126 0.932 . S
C1154 C1153 1.405 . S
C1154 C1155 1.383 . S
C1155 C1154 1.383 . S
C1155 C1156 1.393 . S
C1156 H1128 0.931 . S
C1156 C1155 1.393 . S
C1156 C1157 1.382 . S
C1157 H1127 0.929 . S
C1157 C1152 1.371 . S
C1157 C1156 1.382 . S
C1158 N1121 1.423 . S
C1158 C1159 1.362 . S
C1158 C1163 1.388 . S
C1159 H1129 0.929 . S
C1159 C1158 1.362 . S
C1159 C1160 1.376 . S
C1160 H1131 0.931 . S
C1160 C1159 1.376 . S
C1160 C1161 1.396 . S
C1161 C1160 1.396 . S
C1161 C1162 1.348 . S
C1161 C1179 1.472 . S
C1162 H1132 0.929 . S
C1162 C1161 1.348 . S
C1162 C1163 1.443 . S
C1163 H1130 0.932 . S
C1163 C1158 1.388 . S
C1163 C1162 1.443 . S
C1164 N1144 1.433 . S
C1164 C1165 1.363 . S
C1164 C1169 1.370 . S
C1165 H1133 0.929 . S
C1165 C1164 1.363 . S
C1165 C1166 1.385 . S
C1166 H1134 0.930 . S
C1166 C1165 1.385 . S
C1166 C1167 1.357 . S
C1167 C1166 1.357 . S
C1167 C1168 1.406 . S
C1168 H1135 0.929 . S
C1168 C1167 1.406 . S
C1168 C1169 1.391 . S
C1169 H1136 0.931 . S
C1169 C1164 1.370 . S
C1169 C1168 1.391 . S
C1170 N1144 1.435 . S
C1170 C1171 1.358 . S
C1170 C1175 1.371 . S
C1171 H1137 0.930 . S
C1171 C1170 1.358 . S
C1171 C1172 1.405 . S
C1172 H1138 0.932 . S
C1172 C1171 1.405 . S
C1172 C1173 1.383 . S
C1173 C1172 1.383 . S
C1173 C1174 1.393 . S
C1174 H1139 0.931 . S
C1174 C1173 1.393 . S
C1174 C1175 1.382 . S
C1175 H1140 0.929 . S
C1175 C1170 1.371 . S
C1175 C1174 1.382 . S
C1176 N1144 1.423 . S
C1176 C1177 1.362 . S
C1176 C1181 1.388 . S
C1177 H1141 0.929 . S
C1177 C1176 1.362 . S
C1177 C1178 1.376 . S
C1178 H1142 0.931 . S
C1178 C1177 1.376 . S
C1178 C1179 1.396 . S
C1179 C1161 1.472 . S
C1179 C1178 1.396 . S
C1179 C1180 1.348 . S
C1180 H1143 0.929 . S
C1180 C1179 1.348 . S
C1180 C1181 1.443 . S
C1181 H1145 0.932 . S
C1181 C1176 1.388 . S
C1181 C1180 1.443 . S
H1182 C1209 0.929 . S
N1183 C1208 1.433 . S
N1183 C1214 1.435 . S
N1183 C1220 1.423 . S
H1184 C1210 0.930 . S
H1185 C1213 0.931 . S
H1186 C1212 0.929 . S
H1187 C1215 0.930 . S
H1188 C1216 0.932 . S
H1189 C1219 0.929 . S
H1190 C1218 0.931 . S
H1191 C1221 0.929 . S
H1192 C1225 0.932 . S
H1193 C1222 0.931 . S
H1194 C1224 0.929 . S
H1195 C1227 0.929 . S
H1196 C1228 0.930 . S
H1197 C1230 0.929 . S
H1198 C1231 0.931 . S
H1199 C1233 0.930 . S
H1200 C1234 0.932 . S
H1201 C1236 0.931 . S
H1202 C1237 0.929 . S
H1203 C1239 0.929 . S
H1204 C1240 0.931 . S
H1205 C1242 0.929 . S
N1206 C1226 1.433 . S
N1206 C1232 1.435 . S
N1206 C1238 1.423 . S
H1207 C1243 0.932 . S
C1208 N1183 1.433 . S
C1208 C1209 1.363 . S
C1208 C1213 1.370 . S
C1209 H1182 0.929 . S
C1209 C1208 1.363 . S
C1209 C1210 1.385 . S
C1210 H1184 0.930 . S
C1210 C1209 1.385 . S
C1210 C1211 1.357 . S
C1211 C1210 1.357 . S
C1211 C1212 1.406 . S
C1212 H1186 0.929 . S
C1212 C1211 1.406 . S
C1212 C1213 1.391 . S
C1213 H1185 0.931 . S
C1213 C1208 1.370 . S
C1213 C1212 1.391 . S
C1214 N1183 1.435 . S
C1214 C1215 1.358 . S
C1214 C1219 1.371 . S
C1215 H1187 0.930 . S
C1215 C1214 1.358 . S
C1215 C1216 1.405 . S
C1216 H1188 0.932 . S
C1216 C1215 1.405 . S
C1216 C1217 1.383 . S
C1217 C1216 1.383 . S
C1217 C1218 1.393 . S
C1218 H1190 0.931 . S
C1218 C1217 1.393 . S
C1218 C1219 1.382 . S
C1219 H1189 0.929 . S
C1219 C1214 1.371 . S
C1219 C1218 1.382 . S
C1220 N1183 1.423 . S
C1220 C1221 1.362 . S
C1220 C1225 1.388 . S
C1221 H1191 0.929 . S
C1221 C1220 1.362 . S
C1221 C1222 1.376 . S
C1222 H1193 0.931 . S
C1222 C1221 1.376 . S
C1222 C1223 1.396 . S
C1223 C1222 1.396 . S
C1223 C1224 1.348 . S
C1223 C1241 1.472 . S
C1224 H1194 0.929 . S
C1224 C1223 1.348 . S
C1224 C1225 1.443 . S
C1225 H1192 0.932 . S
C1225 C1220 1.388 . S
C1225 C1224 1.443 . S
C1226 N1206 1.433 . S
C1226 C1227 1.363 . S
C1226 C1231 1.370 . S
C1227 H1195 0.929 . S
C1227 C1226 1.363 . S
C1227 C1228 1.385 . S
C1228 H1196 0.930 . S
C1228 C1227 1.385 . S
C1228 C1229 1.357 . S
C1229 C1228 1.357 . S
C1229 C1230 1.406 . S
C1230 H1197 0.929 . S
C1230 C1229 1.406 . S
C1230 C1231 1.391 . S
C1231 H1198 0.931 . S
C1231 C1226 1.370 . S
C1231 C1230 1.391 . S
C1232 N1206 1.435 . S
C1232 C1233 1.358 . S
C1232 C1237 1.371 . S
C1233 H1199 0.930 . S
C1233 C1232 1.358 . S
C1233 C1234 1.405 . S
C1234 H1200 0.932 . S
C1234 C1233 1.405 . S
C1234 C1235 1.383 . S
C1235 C1234 1.383 . S
C1235 C1236 1.393 . S
C1236 H1201 0.931 . S
C1236 C1235 1.393 . S
C1236 C1237 1.382 . S
C1237 H1202 0.929 . S
C1237 C1232 1.371 . S
C1237 C1236 1.382 . S
C1238 N1206 1.423 . S
C1238 C1239 1.362 . S
C1238 C1243 1.388 . S
C1239 H1203 0.929 . S
C1239 C1238 1.362 . S
C1239 C1240 1.376 . S
C1240 H1204 0.931 . S
C1240 C1239 1.376 . S
C1240 C1241 1.396 . S
C1241 C1223 1.472 . S
C1241 C1240 1.396 . S
C1241 C1242 1.348 . S
C1242 H1205 0.929 . S
C1242 C1241 1.348 . S
C1242 C1243 1.443 . S
C1243 H1207 0.932 . S
C1243 C1238 1.388 . S
C1243 C1242 1.443 . S
H1244 C1271 0.929 . S
N1245 C1270 1.433 . S
N1245 C1276 1.435 . S
N1245 C1282 1.423 . S
H1246 C1272 0.930 . S
H1247 C1275 0.931 . S
H1248 C1274 0.929 . S
H1249 C1277 0.930 . S
H1250 C1278 0.932 . S
H1251 C1281 0.929 . S
H1252 C1280 0.931 . S
H1253 C1283 0.929 . S
H1254 C1287 0.932 . S
H1255 C1284 0.931 . S
H1256 C1286 0.929 . S
H1257 C1289 0.929 . S
H1258 C1290 0.930 . S
H1259 C1292 0.929 . S
H1260 C1293 0.931 . S
H1261 C1295 0.930 . S
H1262 C1296 0.932 . S
H1263 C1298 0.931 . S
H1264 C1299 0.929 . S
H1265 C1301 0.929 . S
H1266 C1302 0.931 . S
H1267 C1304 0.929 . S
N1268 C1288 1.433 . S
N1268 C1294 1.435 . S
N1268 C1300 1.423 . S
H1269 C1305 0.932 . S
C1270 N1245 1.433 . S
C1270 C1271 1.363 . S
C1270 C1275 1.370 . S
C1271 H1244 0.929 . S
C1271 C1270 1.363 . S
C1271 C1272 1.385 . S
C1272 H1246 0.930 . S
C1272 C1271 1.385 . S
C1272 C1273 1.357 . S
C1273 C1272 1.357 . S
C1273 C1274 1.406 . S
C1274 H1248 0.929 . S
C1274 C1273 1.406 . S
C1274 C1275 1.391 . S
C1275 H1247 0.931 . S
C1275 C1270 1.370 . S
C1275 C1274 1.391 . S
C1276 N1245 1.435 . S
C1276 C1277 1.358 . S
C1276 C1281 1.371 . S
C1277 H1249 0.930 . S
C1277 C1276 1.358 . S
C1277 C1278 1.405 . S
C1278 H1250 0.932 . S
C1278 C1277 1.405 . S
C1278 C1279 1.383 . S
C1279 C1278 1.383 . S
C1279 C1280 1.393 . S
C1280 H1252 0.931 . S
C1280 C1279 1.393 . S
C1280 C1281 1.382 . S
C1281 H1251 0.929 . S
C1281 C1276 1.371 . S
C1281 C1280 1.382 . S
C1282 N1245 1.423 . S
C1282 C1283 1.362 . S
C1282 C1287 1.388 . S
C1283 H1253 0.929 . S
C1283 C1282 1.362 . S
C1283 C1284 1.376 . S
C1284 H1255 0.931 . S
C1284 C1283 1.376 . S
C1284 C1285 1.396 . S
C1285 C1284 1.396 . S
C1285 C1286 1.348 . S
C1285 C1303 1.472 . S
C1286 H1256 0.929 . S
C1286 C1285 1.348 . S
C1286 C1287 1.443 . S
C1287 H1254 0.932 . S
C1287 C1282 1.388 . S
C1287 C1286 1.443 . S
C1288 N1268 1.433 . S
C1288 C1289 1.363 . S
C1288 C1293 1.370 . S
C1289 H1257 0.929 . S
C1289 C1288 1.363 . S
C1289 C1290 1.385 . S
C1290 H1258 0.930 . S
C1290 C1289 1.385 . S
C1290 C1291 1.357 . S
C1291 C1290 1.357 . S
C1291 C1292 1.406 . S
C1292 H1259 0.929 . S
C1292 C1291 1.406 . S
C1292 C1293 1.391 . S
C1293 H1260 0.931 . S
C1293 C1288 1.370 . S
C1293 C1292 1.391 . S
C1294 N1268 1.435 . S
C1294 C1295 1.358 . S
C1294 C1299 1.371 . S
C1295 H1261 0.930 . S
C1295 C1294 1.358 . S
C1295 C1296 1.405 . S
C1296 H1262 0.932 . S
C1296 C1295 1.405 . S
C1296 C1297 1.383 . S
C1297 C1296 1.383 . S
C1297 C1298 1.393 . S
C1298 H1263 0.931 . S
C1298 C1297 1.393 . S
C1298 C1299 1.382 . S
C1299 H1264 0.929 . S
C1299 C1294 1.371 . S
C1299 C1298 1.382 . S
C1300 N1268 1.423 . S
C1300 C1301 1.362 . S
C1300 C1305 1.388 . S
C1301 H1265 0.929 . S
C1301 C1300 1.362 . S
C1301 C1302 1.376 . S
C1302 H1266 0.931 . S
C1302 C1301 1.376 . S
C1302 C1303 1.396 . S
C1303 C1285 1.472 . S
C1303 C1302 1.396 . S
C1303 C1304 1.348 . S
C1304 H1267 0.929 . S
C1304 C1303 1.348 . S
C1304 C1305 1.443 . S
C1305 H1269 0.932 . S
C1305 C1300 1.388 . S
C1305 C1304 1.443 . S
H1306 C1333 0.929 . S
N1307 C1332 1.433 . S
N1307 C1338 1.435 . S
N1307 C1344 1.423 . S
H1308 C1334 0.930 . S
H1309 C1337 0.931 . S
H1310 C1336 0.929 . S
H1311 C1339 0.930 . S
H1312 C1340 0.932 . S
H1313 C1343 0.929 . S
H1314 C1342 0.931 . S
H1315 C1345 0.929 . S
H1316 C1349 0.932 . S
H1317 C1346 0.931 . S
H1318 C1348 0.929 . S
H1319 C1351 0.929 . S
H1320 C1352 0.930 . S
H1321 C1354 0.929 . S
H1322 C1355 0.931 . S
H1323 C1357 0.930 . S
H1324 C1358 0.932 . S
H1325 C1360 0.931 . S
H1326 C1361 0.929 . S
H1327 C1363 0.929 . S
H1328 C1364 0.931 . S
H1329 C1366 0.929 . S
N1330 C1350 1.433 . S
N1330 C1356 1.435 . S
N1330 C1362 1.423 . S
H1331 C1367 0.932 . S
C1332 N1307 1.433 . S
C1332 C1333 1.363 . S
C1332 C1337 1.370 . S
C1333 H1306 0.929 . S
C1333 C1332 1.363 . S
C1333 C1334 1.385 . S
C1334 H1308 0.930 . S
C1334 C1333 1.385 . S
C1334 C1335 1.357 . S
C1335 C1334 1.357 . S
C1335 C1336 1.406 . S
C1336 H1310 0.929 . S
C1336 C1335 1.406 . S
C1336 C1337 1.391 . S
C1337 H1309 0.931 . S
C1337 C1332 1.370 . S
C1337 C1336 1.391 . S
C1338 N1307 1.435 . S
C1338 C1339 1.358 . S
C1338 C1343 1.371 . S
C1339 H1311 0.930 . S
C1339 C1338 1.358 . S
C1339 C1340 1.405 . S
C1340 H1312 0.932 . S
C1340 C1339 1.405 . S
C1340 C1341 1.383 . S
C1341 C1340 1.383 . S
C1341 C1342 1.393 . S
C1342 H1314 0.931 . S
C1342 C1341 1.393 . S
C1342 C1343 1.382 . S
C1343 H1313 0.929 . S
C1343 C1338 1.371 . S
C1343 C1342 1.382 . S
C1344 N1307 1.423 . S
C1344 C1345 1.362 . S
C1344 C1349 1.388 . S
C1345 H1315 0.929 . S
C1345 C1344 1.362 . S
C1345 C1346 1.376 . S
C1346 H1317 0.931 . S
C1346 C1345 1.376 . S
C1346 C1347 1.396 . S
C1347 C1346 1.396 . S
C1347 C1348 1.348 . S
C1347 C1365 1.472 . S
C1348 H1318 0.929 . S
C1348 C1347 1.348 . S
C1348 C1349 1.443 . S
C1349 H1316 0.932 . S
C1349 C1344 1.388 . S
C1349 C1348 1.443 . S
C1350 N1330 1.433 . S
C1350 C1351 1.363 . S
C1350 C1355 1.370 . S
C1351 H1319 0.929 . S
C1351 C1350 1.363 . S
C1351 C1352 1.385 . S
C1352 H1320 0.930 . S
C1352 C1351 1.385 . S
C1352 C1353 1.357 . S
C1353 C1352 1.357 . S
C1353 C1354 1.406 . S
C1354 H1321 0.929 . S
C1354 C1353 1.406 . S
C1354 C1355 1.391 . S
C1355 H1322 0.931 . S
C1355 C1350 1.370 . S
C1355 C1354 1.391 . S
C1356 N1330 1.435 . S
C1356 C1357 1.358 . S
C1356 C1361 1.371 . S
C1357 H1323 0.930 . S
C1357 C1356 1.358 . S
C1357 C1358 1.405 . S
C1358 H1324 0.932 . S
C1358 C1357 1.405 . S
C1358 C1359 1.383 . S
C1359 C1358 1.383 . S
C1359 C1360 1.393 . S
C1360 H1325 0.931 . S
C1360 C1359 1.393 . S
C1360 C1361 1.382 . S
C1361 H1326 0.929 . S
C1361 C1356 1.371 . S
C1361 C1360 1.382 . S
C1362 N1330 1.423 . S
C1362 C1363 1.362 . S
C1362 C1367 1.388 . S
C1363 H1327 0.929 . S
C1363 C1362 1.362 . S
C1363 C1364 1.376 . S
C1364 H1328 0.931 . S
C1364 C1363 1.376 . S
C1364 C1365 1.396 . S
C1365 C1347 1.472 . S
C1365 C1364 1.396 . S
C1365 C1366 1.348 . S
C1366 H1329 0.929 . S
C1366 C1365 1.348 . S
C1366 C1367 1.443 . S
C1367 H1331 0.932 . S
C1367 C1362 1.388 . S
C1367 C1366 1.443 . S
H1368 C1374 0.930 . S
H1369 C1377 0.930 . S
H1370 C1378 0.930 . S
H1371 C1379 0.901 1_455 S
H1372 C1382 0.930 . S
H1373 C1383 0.930 . S
C1374 H1368 0.930 . S
C1374 C1375 1.355 . S
C1374 C1376 1.415 . S
C1375 C1374 1.355 . S
C1375 C1377 1.419 1_655 S
C1376 C1374 1.415 . S
C1376 C1381 1.425 . S
C1376 C1383 1.409 . S
C1377 H1369 0.930 . S
C1377 C1375 1.419 1_455 S
C1377 C1378 1.362 . S
C1378 H1370 0.930 . S
C1378 C1377 1.362 . S
C1378 C1381 1.409 1_455 S
C1379 H1371 0.901 1_655 S
C1379 C1380 1.402 . S
C1379 C1381 1.398 . S
C1380 C1379 1.402 . S
C1380 C1382 1.419 . S
C1381 C1376 1.425 . S
C1381 C1378 1.409 1_655 S
C1381 C1379 1.398 . S
C1382 H1372 0.930 . S
C1382 C1380 1.419 . S
C1382 C1383 1.362 . S
C1383 H1373 0.930 . S
C1383 C1376 1.409 . S
C1383 C1382 1.362 . S
H1384 C1390 0.930 . S
H1385 C1393 0.930 . S
H1386 C1394 0.930 . S
H1387 C1395 0.930 . S
H1388 C1398 0.930 . S
H1389 C1399 0.930 . S
C1390 H1384 0.930 . S
C1390 C1391 1.355 . S
C1390 C1392 1.415 . S
C1391 C1390 1.355 . S
C1391 C1393 1.419 . S
C1392 C1390 1.415 . S
C1392 C1397 1.425 . S
C1392 C1399 1.409 . S
C1393 H1385 0.930 . S
C1393 C1391 1.419 . S
C1393 C1394 1.362 . S
C1394 H1386 0.930 . S
C1394 C1393 1.362 . S
C1394 C1397 1.409 . S
C1395 H1387 0.930 . S
C1395 C1396 1.355 . S
C1395 C1397 1.415 . S
C1396 C1395 1.355 . S
C1396 C1398 1.419 . S
C1397 C1392 1.425 . S
C1397 C1394 1.409 . S
C1397 C1395 1.415 . S
C1398 H1388 0.930 . S
C1398 C1396 1.419 . S
C1398 C1399 1.362 . S
C1399 H1389 0.930 . S
C1399 C1392 1.409 . S
C1399 C1398 1.362 . S
H1400 C1406 0.930 . S
H1401 C1409 0.930 . S
H1402 C1410 0.930 . S
H1403 C1411 0.930 . S
H1404 C1414 0.930 . S
H1405 C1415 0.930 . S
C1406 H1400 0.930 . S
C1406 C1407 1.355 . S
C1406 C1408 1.415 . S
C1407 C1406 1.355 . S
C1407 C1409 1.419 . S
C1408 C1406 1.415 . S
C1408 C1413 1.425 . S
C1408 C1415 1.409 . S
C1409 H1401 0.930 . S
C1409 C1407 1.419 . S
C1409 C1410 1.362 . S
C1410 H1402 0.930 . S
C1410 C1409 1.362 . S
C1410 C1413 1.409 . S
C1411 H1403 0.930 . S
C1411 C1412 1.355 . S
C1411 C1413 1.415 . S
C1412 C1411 1.355 . S
C1412 C1414 1.419 . S
C1413 C1408 1.425 . S
C1413 C1410 1.409 . S
C1413 C1411 1.415 . S
C1414 H1404 0.930 . S
C1414 C1412 1.419 . S
C1414 C1415 1.362 . S
C1415 H1405 0.930 . S
C1415 C1408 1.409 . S
C1415 C1414 1.362 . S
H1416 C1422 0.930 . S
H1417 C1425 0.938 . S
H1418 C1426 0.917 . S
H1419 C1427 0.946 1_545 S
H1420 C1430 0.930 . S
H1421 C1431 0.930 . S
C1422 H1416 0.930 . S
C1422 C1423 1.355 . S
C1422 C1424 1.415 . S
C1423 C1422 1.355 . S
C1423 C1425 1.436 1_565 S
C1424 C1422 1.415 . S
C1424 C1429 1.425 . S
C1424 C1431 1.409 . S
C1425 H1417 0.938 . S
C1425 C1423 1.436 1_545 S
C1425 C1426 1.359 . S
C1426 H1418 0.917 . S
C1426 C1425 1.359 . S
C1426 C1429 1.405 1_545 S
C1427 H1419 0.946 1_565 S
C1427 C1428 1.355 . S
C1427 C1429 1.415 . S
C1428 C1427 1.355 . S
C1428 C1430 1.419 . S
C1429 C1424 1.425 . S
C1429 C1426 1.405 1_565 S
C1429 C1427 1.415 . S
C1430 H1420 0.930 . S
C1430 C1428 1.419 . S
C1430 C1431 1.362 . S
C1431 H1421 0.930 . S
C1431 C1424 1.409 . S
C1431 C1430 1.362 . S
H1432 C1438 0.930 . S
H1433 C1441 0.930 . S
H1434 C1442 0.930 . S
H1435 C1443 0.930 . S
H1436 C1446 0.930 . S
H1437 C1447 0.930 . S
C1438 H1432 0.930 . S
C1438 C1439 1.355 . S
C1438 C1440 1.415 . S
C1439 C1438 1.355 . S
C1439 C1441 1.419 . S
C1440 C1438 1.415 . S
C1440 C1445 1.425 . S
C1440 C1447 1.409 . S
C1441 H1433 0.930 . S
C1441 C1439 1.419 . S
C1441 C1442 1.362 . S
C1442 H1434 0.930 . S
C1442 C1441 1.362 . S
C1442 C1445 1.409 . S
C1443 H1435 0.930 . S
C1443 C1444 1.355 . S
C1443 C1445 1.415 . S
C1444 C1443 1.355 . S
C1444 C1446 1.419 . S
C1445 C1440 1.425 . S
C1445 C1442 1.409 . S
C1445 C1443 1.415 . S
C1446 H1436 0.930 . S
C1446 C1444 1.419 . S
C1446 C1447 1.362 . S
C1447 H1437 0.930 . S
C1447 C1440 1.409 . S
C1447 C1446 1.362 . S
H1448 C1454 0.930 . S
H1449 C1457 0.930 . S
H1450 C1458 0.930 . S
H1451 C1459 0.930 . S
H1452 C1462 0.930 . S
H1453 C1463 0.930 . S
C1454 H1448 0.930 . S
C1454 C1455 1.355 . S
C1454 C1456 1.415 . S
C1455 C1454 1.355 . S
C1455 C1457 1.419 . S
C1456 C1454 1.415 . S
C1456 C1461 1.425 . S
C1456 C1463 1.409 . S
C1457 H1449 0.930 . S
C1457 C1455 1.419 . S
C1457 C1458 1.362 . S
C1458 H1450 0.930 . S
C1458 C1457 1.362 . S
C1458 C1461 1.409 . S
C1459 H1451 0.930 . S
C1459 C1460 1.355 . S
C1459 C1461 1.415 . S
C1460 C1459 1.355 . S
C1460 C1462 1.419 . S
C1461 C1456 1.425 . S
C1461 C1458 1.409 . S
C1461 C1459 1.415 . S
C1462 H1452 0.930 . S
C1462 C1460 1.419 . S
C1462 C1463 1.362 . S
C1463 H1453 0.930 . S
C1463 C1456 1.409 . S
C1463 C1462 1.362 . S
H1464 C1470 0.920 1_655 S
H1465 C1473 0.930 . S
H1466 C1474 0.930 . S
H1467 C1475 0.930 . S
H1468 C1478 0.930 . S
H1469 C1479 0.930 . S
C1470 H1464 0.920 1_455 S
C1470 C1471 1.352 . S
C1470 C1472 1.429 . S
C1471 C1470 1.352 . S
C1471 C1473 1.419 . S
C1472 C1470 1.429 . S
C1472 C1477 1.425 . S
C1472 C1479 1.409 1_455 S
C1473 H1465 0.930 . S
C1473 C1471 1.419 . S
C1473 C1474 1.362 . S
C1474 H1466 0.930 . S
C1474 C1473 1.362 . S
C1474 C1477 1.409 . S
C1475 H1467 0.930 . S
C1475 C1476 1.355 . S
C1475 C1477 1.415 . S
C1476 C1475 1.355 . S
C1476 C1478 1.419 1_455 S
C1477 C1472 1.425 . S
C1477 C1474 1.409 . S
C1477 C1475 1.415 . S
C1478 H1468 0.930 . S
C1478 C1476 1.419 1_655 S
C1478 C1479 1.362 . S
C1479 H1469 0.930 . S
C1479 C1472 1.409 1_655 S
C1479 C1478 1.362 . S
H1480 C1486 0.930 . S
H1481 C1489 0.930 . S
H1482 C1490 0.930 . S
H1483 C1491 0.930 . S
H1484 C1494 0.930 . S
H1485 C1495 0.930 . S
C1486 H1480 0.930 . S
C1486 C1487 1.355 . S
C1486 C1488 1.415 . S
C1487 C1486 1.355 . S
C1487 C1489 1.419 . S
C1488 C1486 1.415 . S
C1488 C1493 1.425 . S
C1488 C1495 1.409 . S
C1489 H1481 0.930 . S
C1489 C1487 1.419 . S
C1489 C1490 1.362 . S
C1490 H1482 0.930 . S
C1490 C1489 1.362 . S
C1490 C1493 1.409 . S
C1491 H1483 0.930 . S
C1491 C1492 1.355 . S
C1491 C1493 1.415 . S
C1492 C1491 1.355 . S
C1492 C1494 1.419 . S
C1493 C1488 1.425 . S
C1493 C1490 1.409 . S
C1493 C1491 1.415 . S
C1494 H1484 0.930 . S
C1494 C1492 1.419 . S
C1494 C1495 1.362 . S
C1495 H1485 0.930 . S
C1495 C1488 1.409 . S
C1495 C1494 1.362 . S
H1496 C1502 0.930 . S
H1497 C1505 0.916 . S
H1498 C1506 0.930 . S
H1499 C1507 0.930 1_545 S
H1500 C1510 0.930 . S
H1501 C1511 0.930 . S
C1502 H1496 0.930 . S
C1502 C1503 1.355 . S
C1502 C1504 1.415 . S
C1503 C1502 1.355 . S
C1503 C1505 1.417 1_565 S
C1504 C1502 1.415 . S
C1504 C1509 1.425 . S
C1504 C1511 1.409 . S
C1505 H1497 0.916 . S
C1505 C1503 1.417 1_545 S
C1505 C1506 1.382 . S
C1506 H1498 0.930 . S
C1506 C1505 1.382 . S
C1506 C1509 1.409 1_545 S
C1507 H1499 0.930 1_565 S
C1507 C1508 1.355 . S
C1507 C1509 1.415 . S
C1508 C1507 1.355 . S
C1508 C1510 1.419 . S
C1509 C1504 1.425 . S
C1509 C1506 1.409 1_565 S
C1509 C1507 1.415 . S
C1510 H1500 0.930 . S
C1510 C1508 1.419 . S
C1510 C1511 1.362 . S
C1511 H1501 0.930 . S
C1511 C1504 1.409 . S
C1511 C1510 1.362 . S
H1512 C1518 0.930 . S
H1513 C1521 0.930 . S
H1514 C1522 0.930 . S
H1515 C1523 0.930 . S
H1516 C1526 0.930 . S
H1517 C1527 0.930 . S
C1518 H1512 0.930 . S
C1518 C1519 1.355 1_565 S
C1518 C1520 1.415 . S
C1519 C1518 1.355 1_545 S
C1519 C1521 1.419 . S
C1520 C1518 1.415 . S
C1520 C1525 1.425 1_565 S
C1520 C1527 1.409 . S
C1521 H1513 0.930 . S
C1521 C1519 1.419 . S
C1521 C1522 1.362 . S
C1522 H1514 0.930 . S
C1522 C1521 1.362 . S
C1522 C1525 1.409 . S
C1523 H1515 0.930 . S
C1523 C1524 1.355 . S
C1523 C1525 1.415 . S
C1524 C1523 1.355 . S
C1524 C1526 1.419 1_545 S
C1525 C1520 1.425 1_545 S
C1525 C1522 1.409 . S
C1525 C1523 1.415 . S
C1526 H1516 0.930 . S
C1526 C1524 1.419 1_565 S
C1526 C1527 1.362 . S
C1527 H1517 0.930 . S
C1527 C1520 1.409 . S
C1527 C1526 1.362 . S
H1528 C1534 0.950 . S
H1529 C1537 0.930 . S
H1530 C1538 0.930 . S
H1531 C1539 0.930 . S
H1532 C1542 0.930 . S
H1533 C1543 0.930 . S
C1534 H1528 0.950 . S
C1534 C1535 1.328 1_455 S
C1534 C1536 1.422 1_455 S
C1535 C1534 1.328 1_655 S
C1535 C1537 1.419 . S
C1536 C1534 1.422 1_655 S
C1536 C1541 1.425 . S
C1536 C1543 1.409 1_655 S
C1537 H1529 0.930 . S
C1537 C1535 1.419 . S
C1537 C1538 1.362 . S
C1538 H1530 0.930 . S
C1538 C1537 1.362 . S
C1538 C1541 1.409 . S
C1539 H1531 0.930 . S
C1539 C1540 1.355 . S
C1539 C1541 1.415 . S
C1540 C1539 1.355 . S
C1540 C1542 1.419 1_655 S
C1541 C1536 1.425 . S
C1541 C1538 1.409 . S
C1541 C1539 1.415 . S
C1542 H1532 0.930 . S
C1542 C1540 1.419 1_455 S
C1542 C1543 1.362 . S
C1543 H1533 0.930 . S
C1543 C1536 1.409 1_455 S
C1543 C1542 1.362 . S
H1544 C1550 0.930 . S
H1545 C1553 0.930 . S
H1546 C1554 0.930 . S
H1547 C1555 0.930 . S
H1548 C1558 0.930 . S
H1549 C1559 0.930 . S
C1550 H1544 0.930 . S
C1550 C1551 1.355 . S
C1550 C1552 1.415 . S
C1551 C1550 1.355 . S
C1551 C1553 1.419 . S
C1552 C1550 1.415 . S
C1552 C1557 1.425 . S
C1552 C1559 1.409 . S
C1553 H1545 0.930 . S
C1553 C1551 1.419 . S
C1553 C1554 1.362 . S
C1554 H1546 0.930 . S
C1554 C1553 1.362 . S
C1554 C1557 1.409 . S
C1555 H1547 0.930 . S
C1555 C1556 1.355 . S
C1555 C1557 1.415 . S
C1556 C1555 1.355 . S
C1556 C1558 1.419 . S
C1557 C1552 1.425 . S
C1557 C1554 1.409 . S
C1557 C1555 1.415 . S
C1558 H1548 0.930 . S
C1558 C1556 1.419 . S
C1558 C1559 1.362 . S
C1559 H1549 0.930 . S
C1559 C1552 1.409 . S
C1559 C1558 1.362 . S
H1560 C1566 0.930 . S
H1561 C1569 0.930 . S
H1562 C1570 0.930 . S
H1563 C1571 0.930 . S
H1564 C1574 0.930 . S
H1565 C1575 0.930 . S
C1566 H1560 0.930 . S
C1566 C1567 1.355 . S
C1566 C1568 1.415 . S
C1567 C1566 1.355 . S
C1567 C1569 1.419 . S
C1568 C1566 1.415 . S
C1568 C1573 1.425 . S
C1568 C1575 1.409 . S
C1569 H1561 0.930 . S
C1569 C1567 1.419 . S
C1569 C1570 1.362 . S
C1570 H1562 0.930 . S
C1570 C1569 1.362 . S
C1570 C1573 1.409 . S
C1571 H1563 0.930 . S
C1571 C1572 1.355 . S
C1571 C1573 1.415 . S
C1572 C1571 1.355 . S
C1572 C1574 1.419 . S
C1573 C1568 1.425 . S
C1573 C1570 1.409 . S
C1573 C1571 1.415 . S
C1574 H1564 0.930 . S
C1574 C1572 1.419 . S
C1574 C1575 1.362 . S
C1575 H1565 0.930 . S
C1575 C1568 1.409 . S
C1575 C1574 1.362 . S
H1576 C1582 0.930 . S
H1577 C1585 0.930 . S
H1578 C1586 0.930 . S
H1579 C1587 0.930 . S
H1580 C1590 0.930 . S
H1581 C1591 0.930 . S
C1582 H1576 0.930 . S
C1582 C1583 1.355 . S
C1582 C1584 1.415 . S
C1583 C1582 1.355 . S
C1583 C1585 1.419 . S
C1584 C1582 1.415 . S
C1584 C1589 1.425 . S
C1584 C1591 1.409 . S
C1585 H1577 0.930 . S
C1585 C1583 1.419 . S
C1585 C1586 1.362 . S
C1586 H1578 0.930 . S
C1586 C1585 1.362 . S
C1586 C1589 1.409 . S
C1587 H1579 0.930 . S
C1587 C1588 1.355 . S
C1587 C1589 1.415 . S
C1588 C1587 1.355 . S
C1588 C1590 1.419 . S
C1589 C1584 1.425 . S
C1589 C1586 1.409 . S
C1589 C1587 1.415 . S
C1590 H1580 0.930 . S
C1590 C1588 1.419 . S
C1590 C1591 1.362 . S
C1591 H1581 0.930 . S
C1591 C1584 1.409 . S
C1591 C1590 1.362 . S
H1592 C1598 0.930 . S
H1593 C1601 0.930 . S
H1594 C1602 0.930 . S
H1595 C1603 0.930 . S
H1596 C1606 0.930 . S
H1597 C1607 0.930 . S
C1598 H1592 0.930 . S
C1598 C1599 1.355 . S
C1598 C1600 1.415 . S
C1599 C1598 1.355 . S
C1599 C1601 1.419 . S
C1600 C1598 1.415 . S
C1600 C1605 1.425 . S
C1600 C1607 1.409 . S
C1601 H1593 0.930 . S
C1601 C1599 1.419 . S
C1601 C1602 1.362 . S
C1602 H1594 0.930 . S
C1602 C1601 1.362 . S
C1602 C1605 1.409 . S
C1603 H1595 0.930 . S
C1603 C1604 1.355 . S
C1603 C1605 1.415 . S
C1604 C1603 1.355 . S
C1604 C1606 1.419 . S
C1605 C1600 1.425 . S
C1605 C1602 1.409 . S
C1605 C1603 1.415 . S
C1606 H1596 0.930 . S
C1606 C1604 1.419 . S
C1606 C1607 1.362 . S
C1607 H1597 0.930 . S
C1607 C1600 1.409 . S
C1607 C1606 1.362 . S
H1608 C1614 0.930 . S
H1609 C1617 0.930 . S
H1610 C1618 0.930 . S
H1611 C1619 0.930 . S
H1612 C1622 0.930 . S
H1613 C1623 0.930 . S
C1614 H1608 0.930 . S
C1614 C1615 1.355 . S
C1614 C1616 1.415 . S
C1615 C1614 1.355 . S
C1615 C1617 1.419 . S
C1616 C1614 1.415 . S
C1616 C1621 1.425 . S
C1616 C1623 1.409 . S
C1617 H1609 0.930 . S
C1617 C1615 1.419 . S
C1617 C1618 1.362 . S
C1618 H1610 0.930 . S
C1618 C1617 1.362 . S
C1618 C1621 1.409 . S
C1619 H1611 0.930 . S
C1619 C1620 1.355 . S
C1619 C1621 1.415 . S
C1620 C1619 1.355 . S
C1620 C1622 1.419 . S
C1621 C1616 1.425 . S
C1621 C1618 1.409 . S
C1621 C1619 1.415 . S
C1622 H1612 0.930 . S
C1622 C1620 1.419 . S
C1622 C1623 1.362 . S
C1623 H1613 0.930 . S
C1623 C1616 1.409 . S
C1623 C1622 1.362 . S
H1624 C1630 0.930 . S
H1625 C1633 0.930 . S
H1626 C1634 0.930 . S
H1627 C1635 0.930 . S
H1628 C1638 0.930 . S
H1629 C1639 0.930 . S
C1630 H1624 0.930 . S
C1630 C1631 1.355 . S
C1630 C1632 1.415 . S
C1631 C1630 1.355 . S
C1631 C1633 1.419 . S
C1632 C1630 1.415 . S
C1632 C1637 1.425 . S
C1632 C1639 1.409 . S
C1633 H1625 0.930 . S
C1633 C1631 1.419 . S
C1633 C1634 1.362 . S
C1634 H1626 0.930 . S
C1634 C1633 1.362 . S
C1634 C1637 1.409 . S
C1635 H1627 0.930 . S
C1635 C1636 1.355 . S
C1635 C1637 1.415 . S
C1636 C1635 1.355 . S
C1636 C1638 1.419 . S
C1637 C1632 1.425 . S
C1637 C1634 1.409 . S
C1637 C1635 1.415 . S
C1638 H1628 0.930 . S
C1638 C1636 1.419 . S
C1638 C1639 1.362 . S
C1639 H1629 0.930 . S
C1639 C1632 1.409 . S
C1639 C1638 1.362 . S
H1640 C1646 0.930 . S
H1641 C1649 0.930 . S
H1642 C1650 0.930 . S
H1643 C1651 0.930 . S
H1644 C1654 0.930 . S
H1645 C1655 0.930 . S
C1646 H1640 0.930 . S
C1646 C1647 1.355 . S
C1646 C1648 1.415 . S
C1647 C1646 1.355 . S
C1647 C1649 1.419 . S
C1648 C1646 1.415 . S
C1648 C1653 1.425 . S
C1648 C1655 1.409 . S
C1649 H1641 0.930 . S
C1649 C1647 1.419 . S
C1649 C1650 1.362 . S
C1650 H1642 0.930 . S
C1650 C1649 1.362 . S
C1650 C1653 1.409 . S
C1651 H1643 0.930 . S
C1651 C1652 1.355 . S
C1651 C1653 1.415 . S
C1652 C1651 1.355 . S
C1652 C1654 1.419 . S
C1653 C1648 1.425 . S
C1653 C1650 1.409 . S
C1653 C1651 1.415 . S
C1654 H1644 0.930 . S
C1654 C1652 1.419 . S
C1654 C1655 1.362 . S
C1655 H1645 0.930 . S
C1655 C1648 1.409 . S
C1655 C1654 1.362 . S
H1656 C1662 0.930 . S
H1657 C1665 0.930 . S
H1658 C1666 0.930 . S
H1659 C1667 0.930 . S
H1660 C1670 0.930 . S
H1661 C1671 0.930 . S
C1662 H1656 0.930 . S
C1662 C1663 1.355 . S
C1662 C1664 1.415 . S
C1663 C1662 1.355 . S
C1663 C1665 1.419 . S
C1664 C1662 1.415 . S
C1664 C1669 1.425 . S
C1664 C1671 1.409 . S
C1665 H1657 0.930 . S
C1665 C1663 1.419 . S
C1665 C1666 1.362 . S
C1666 H1658 0.930 . S
C1666 C1665 1.362 . S
C1666 C1669 1.409 . S
C1667 H1659 0.930 . S
C1667 C1668 1.355 . S
C1667 C1669 1.415 . S
C1668 C1667 1.355 . S
C1668 C1670 1.419 . S
C1669 C1664 1.425 . S
C1669 C1666 1.409 . S
C1669 C1667 1.415 . S
C1670 H1660 0.930 . S
C1670 C1668 1.419 . S
C1670 C1671 1.362 . S
C1671 H1661 0.930 . S
C1671 C1664 1.409 . S
C1671 C1670 1.362 . S
H1672 C1678 0.930 . S
H1673 C1681 0.930 . S
H1674 C1682 0.930 . S
H1675 C1683 0.930 . S
H1676 C1686 0.930 . S
H1677 C1687 0.930 . S
C1678 H1672 0.930 . S
C1678 C1679 1.355 . S
C1678 C1680 1.415 . S
C1679 C1678 1.355 . S
C1679 C1681 1.419 . S
C1680 C1678 1.415 . S
C1680 C1685 1.425 . S
C1680 C1687 1.409 . S
C1681 H1673 0.930 . S
C1681 C1679 1.419 . S
C1681 C1682 1.362 . S
C1682 H1674 0.930 . S
C1682 C1681 1.362 . S
C1682 C1685 1.409 . S
C1683 H1675 0.930 . S
C1683 C1684 1.355 . S
C1683 C1685 1.415 . S
C1684 C1683 1.355 . S
C1684 C1686 1.419 . S
C1685 C1680 1.425 . S
C1685 C1682 1.409 . S
C1685 C1683 1.415 . S
C1686 H1676 0.930 . S
C1686 C1684 1.419 . S
C1686 C1687 1.362 . S
C1687 H1677 0.930 . S
C1687 C1680 1.409 . S
C1687 C1686 1.362 . S
H1688 C1694 0.930 . S
H1689 C1697 0.930 . S
H1690 C1698 0.930 . S
H1691 C1699 0.930 . S
H1692 C1702 0.930 . S
H1693 C1703 0.930 . S
C1694 H1688 0.930 . S
C1694 C1695 1.355 . S
C1694 C1696 1.415 . S
C1695 C1694 1.355 . S
C1695 C1697 1.419 . S
C1696 C1694 1.415 . S
C1696 C1701 1.425 . S
C1696 C1703 1.409 . S
C1697 H1689 0.930 . S
C1697 C1695 1.419 . S
C1697 C1698 1.362 . S
C1698 H1690 0.930 . S
C1698 C1697 1.362 . S
C1698 C1701 1.409 . S
C1699 H1691 0.930 . S
C1699 C1700 1.355 . S
C1699 C1701 1.415 . S
C1700 C1699 1.355 . S
C1700 C1702 1.419 . S
C1701 C1696 1.425 . S
C1701 C1698 1.409 . S
C1701 C1699 1.415 . S
C1702 H1692 0.930 . S
C1702 C1700 1.419 . S
C1702 C1703 1.362 . S
C1703 H1693 0.930 . S
C1703 C1696 1.409 . S
C1703 C1702 1.362 . S
H1704 C1710 0.930 . S
H1705 C1713 0.930 . S
H1706 C1714 0.930 . S
H1707 C1715 0.930 . S
H1708 C1718 0.930 . S
H1709 C1719 0.930 . S
C1710 H1704 0.930 . S
C1710 C1711 1.355 . S
C1710 C1712 1.415 . S
C1711 C1710 1.355 . S
C1711 C1713 1.419 . S
C1712 C1710 1.415 . S
C1712 C1717 1.425 . S
C1712 C1719 1.409 . S
C1713 H1705 0.930 . S
C1713 C1711 1.419 . S
C1713 C1714 1.362 . S
C1714 H1706 0.930 . S
C1714 C1713 1.362 . S
C1714 C1717 1.409 . S
C1715 H1707 0.930 . S
C1715 C1716 1.355 . S
C1715 C1717 1.415 . S
C1716 C1715 1.355 . S
C1716 C1718 1.419 . S
C1717 C1712 1.425 . S
C1717 C1714 1.409 . S
C1717 C1715 1.415 . S
C1718 H1708 0.930 . S
C1718 C1716 1.419 . S
C1718 C1719 1.362 . S
C1719 H1709 0.930 . S
C1719 C1712 1.409 . S
C1719 C1718 1.362 . S
H1720 C1726 0.930 . S
H1721 C1729 0.930 . S
H1722 C1730 0.930 . S
H1723 C1731 0.930 . S
H1724 C1734 0.930 . S
H1725 C1735 0.930 . S
C1726 H1720 0.930 . S
C1726 C1727 1.355 . S
C1726 C1728 1.415 . S
C1727 C1726 1.355 . S
C1727 C1729 1.419 . S
C1728 C1726 1.415 . S
C1728 C1733 1.425 . S
C1728 C1735 1.409 . S
C1729 H1721 0.930 . S
C1729 C1727 1.419 . S
C1729 C1730 1.362 . S
C1730 H1722 0.930 . S
C1730 C1729 1.362 . S
C1730 C1733 1.409 . S
C1731 H1723 0.930 . S
C1731 C1732 1.355 . S
C1731 C1733 1.415 . S
C1732 C1731 1.355 . S
C1732 C1734 1.419 . S
C1733 C1728 1.425 . S
C1733 C1730 1.409 . S
C1733 C1731 1.415 . S
C1734 H1724 0.930 . S
C1734 C1732 1.419 . S
C1734 C1735 1.362 . S
C1735 H1725 0.930 . S
C1735 C1728 1.409 . S
C1735 C1734 1.362 . S
H1736 C1742 0.930 . S
H1737 C1745 0.930 . S
H1738 C1746 0.930 . S
H1739 C1747 0.930 . S
H1740 C1750 0.930 . S
H1741 C1751 0.930 . S
C1742 H1736 0.930 . S
C1742 C1743 1.355 . S
C1742 C1744 1.415 . S
C1743 C1742 1.355 . S
C1743 C1745 1.419 . S
C1744 C1742 1.415 . S
C1744 C1749 1.425 . S
C1744 C1751 1.409 . S
C1745 H1737 0.930 . S
C1745 C1743 1.419 . S
C1745 C1746 1.362 . S
C1746 H1738 0.930 . S
C1746 C1745 1.362 . S
C1746 C1749 1.409 . S
C1747 H1739 0.930 . S
C1747 C1748 1.355 . S
C1747 C1749 1.415 . S
C1748 C1747 1.355 . S
C1748 C1750 1.419 . S
C1749 C1744 1.425 . S
C1749 C1746 1.409 . S
C1749 C1747 1.415 . S
C1750 H1740 0.930 . S
C1750 C1748 1.419 . S
C1750 C1751 1.362 . S
C1751 H1741 0.930 . S
C1751 C1744 1.409 . S
C1751 C1750 1.362 . S
H1752 C1758 0.930 . S
H1753 C1761 0.930 . S
H1754 C1762 0.930 . S
H1755 C1763 0.930 . S
H1756 C1766 0.930 . S
H1757 C1767 0.930 . S
C1758 H1752 0.930 . S
C1758 C1759 1.355 . S
C1758 C1760 1.415 . S
C1759 C1758 1.355 . S
C1759 C1761 1.419 . S
C1760 C1758 1.415 . S
C1760 C1765 1.425 . S
C1760 C1767 1.409 . S
C1761 H1753 0.930 . S
C1761 C1759 1.419 . S
C1761 C1762 1.362 . S
C1762 H1754 0.930 . S
C1762 C1761 1.362 . S
C1762 C1765 1.409 . S
C1763 H1755 0.930 . S
C1763 C1764 1.355 . S
C1763 C1765 1.415 . S
C1764 C1763 1.355 . S
C1764 C1766 1.419 . S
C1765 C1760 1.425 . S
C1765 C1762 1.409 . S
C1765 C1763 1.415 . S
C1766 H1756 0.930 . S
C1766 C1764 1.419 . S
C1766 C1767 1.362 . S
C1767 H1757 0.930 . S
C1767 C1760 1.409 . S
C1767 C1766 1.362 . S
H1768 C1774 0.930 . S
H1769 C1777 0.930 . S
H1770 C1778 0.930 . S
H1771 C1779 0.930 . S
H1772 C1782 0.930 . S
H1773 C1783 0.930 . S
C1774 H1768 0.930 . S
C1774 C1775 1.355 . S
C1774 C1776 1.415 . S
C1775 C1774 1.355 . S
C1775 C1777 1.419 . S
C1776 C1774 1.415 . S
C1776 C1781 1.425 . S
C1776 C1783 1.409 . S
C1777 H1769 0.930 . S
C1777 C1775 1.419 . S
C1777 C1778 1.362 . S
C1778 H1770 0.930 . S
C1778 C1777 1.362 . S
C1778 C1781 1.409 . S
C1779 H1771 0.930 . S
C1779 C1780 1.355 . S
C1779 C1781 1.415 . S
C1780 C1779 1.355 . S
C1780 C1782 1.419 . S
C1781 C1776 1.425 . S
C1781 C1778 1.409 . S
C1781 C1779 1.415 . S
C1782 H1772 0.930 . S
C1782 C1780 1.419 . S
C1782 C1783 1.362 . S
C1783 H1773 0.930 . S
C1783 C1776 1.409 . S
C1783 C1782 1.362 . S
H1784 C1790 0.930 . S
H1785 C1793 0.930 . S
H1786 C1794 0.930 . S
H1787 C1795 0.930 . S
H1788 C1798 0.930 . S
H1789 C1799 0.930 . S
C1790 H1784 0.930 . S
C1790 C1791 1.355 . S
C1790 C1792 1.415 . S
C1791 C1790 1.355 . S
C1791 C1793 1.419 . S
C1792 C1790 1.415 . S
C1792 C1797 1.425 . S
C1792 C1799 1.409 . S
C1793 H1785 0.930 . S
C1793 C1791 1.419 . S
C1793 C1794 1.362 . S
C1794 H1786 0.930 . S
C1794 C1793 1.362 . S
C1794 C1797 1.409 . S
C1795 H1787 0.930 . S
C1795 C1796 1.355 . S
C1795 C1797 1.415 . S
C1796 C1795 1.355 . S
C1796 C1798 1.419 . S
C1797 C1792 1.425 . S
C1797 C1794 1.409 . S
C1797 C1795 1.415 . S
C1798 H1788 0.930 . S
C1798 C1796 1.419 . S
C1798 C1799 1.362 . S
C1799 H1789 0.930 . S
C1799 C1792 1.409 . S
C1799 C1798 1.362 . S
H1800 C1806 0.930 . S
H1801 C1809 0.930 . S
H1802 C1810 0.930 . S
H1803 C1811 0.930 . S
H1804 C1814 0.930 . S
H1805 C1815 0.930 . S
C1806 H1800 0.930 . S
C1806 C1807 1.355 . S
C1806 C1808 1.415 . S
C1807 C1806 1.355 . S
C1807 C1809 1.419 . S
C1808 C1806 1.415 . S
C1808 C1813 1.425 . S
C1808 C1815 1.409 . S
C1809 H1801 0.930 . S
C1809 C1807 1.419 . S
C1809 C1810 1.362 . S
C1810 H1802 0.930 . S
C1810 C1809 1.362 . S
C1810 C1813 1.409 . S
C1811 H1803 0.930 . S
C1811 C1812 1.355 . S
C1811 C1813 1.415 . S
C1812 C1811 1.355 . S
C1812 C1814 1.419 . S
C1813 C1808 1.425 . S
C1813 C1810 1.409 . S
C1813 C1811 1.415 . S
C1814 H1804 0.930 . S
C1814 C1812 1.419 . S
C1814 C1815 1.362 . S
C1815 H1805 0.930 . S
C1815 C1808 1.409 . S
C1815 C1814 1.362 . S
H1816 C1822 0.930 . S
H1817 C1825 0.930 . S
H1818 C1826 0.930 . S
H1819 C1827 0.930 . S
H1820 C1830 0.930 . S
H1821 C1831 0.930 . S
C1822 H1816 0.930 . S
C1822 C1823 1.355 . S
C1822 C1824 1.415 . S
C1823 C1822 1.355 . S
C1823 C1825 1.419 . S
C1824 C1822 1.415 . S
C1824 C1829 1.425 . S
C1824 C1831 1.409 . S
C1825 H1817 0.930 . S
C1825 C1823 1.419 . S
C1825 C1826 1.362 . S
C1826 H1818 0.930 . S
C1826 C1825 1.362 . S
C1826 C1829 1.409 . S
C1827 H1819 0.930 . S
C1827 C1828 1.355 . S
C1827 C1829 1.415 . S
C1828 C1827 1.355 . S
C1828 C1830 1.419 . S
C1829 C1824 1.425 . S
C1829 C1826 1.409 . S
C1829 C1827 1.415 . S
C1830 H1820 0.930 . S
C1830 C1828 1.419 . S
C1830 C1831 1.362 . S
C1831 H1821 0.930 . S
C1831 C1824 1.409 . S
C1831 C1830 1.362 . S
H1832 C1838 0.930 . S
H1833 C1841 0.930 . S
H1834 C1842 0.930 . S
H1835 C1843 0.930 . S
H1836 C1846 0.930 . S
H1837 C1847 0.930 . S
C1838 H1832 0.930 . S
C1838 C1839 1.355 . S
C1838 C1840 1.415 . S
C1839 C1838 1.355 . S
C1839 C1841 1.419 . S
C1840 C1838 1.415 . S
C1840 C1845 1.425 . S
C1840 C1847 1.409 . S
C1841 H1833 0.930 . S
C1841 C1839 1.419 . S
C1841 C1842 1.362 . S
C1842 H1834 0.930 . S
C1842 C1841 1.362 . S
C1842 C1845 1.409 . S
C1843 H1835 0.930 . S
C1843 C1844 1.355 . S
C1843 C1845 1.415 . S
C1844 C1843 1.355 . S
C1844 C1846 1.419 . S
C1845 C1840 1.425 . S
C1845 C1842 1.409 . S
C1845 C1843 1.415 . S
C1846 H1836 0.930 . S
C1846 C1844 1.419 . S
C1846 C1847 1.362 . S
C1847 H1837 0.930 . S
C1847 C1840 1.409 . S
C1847 C1846 1.362 . S
H1848 C1854 0.930 . S
H1849 C1857 0.930 . S
H1850 C1858 0.930 . S
H1851 C1859 0.930 . S
H1852 C1862 0.930 . S
H1853 C1863 0.930 . S
C1854 H1848 0.930 . S
C1854 C1855 1.355 . S
C1854 C1856 1.415 . S
C1855 C1854 1.355 . S
C1855 C1857 1.419 . S
C1856 C1854 1.415 . S
C1856 C1861 1.425 . S
C1856 C1863 1.409 . S
C1857 H1849 0.930 . S
C1857 C1855 1.419 . S
C1857 C1858 1.362 . S
C1858 H1850 0.930 . S
C1858 C1857 1.362 . S
C1858 C1861 1.409 . S
C1859 H1851 0.930 . S
C1859 C1860 1.355 . S
C1859 C1861 1.415 . S
C1860 C1859 1.355 . S
C1860 C1862 1.419 . S
C1861 C1856 1.425 . S
C1861 C1858 1.409 . S
C1861 C1859 1.415 . S
C1862 H1852 0.930 . S
C1862 C1860 1.419 . S
C1862 C1863 1.362 . S
C1863 H1853 0.930 . S
C1863 C1856 1.409 . S
C1863 C1862 1.362 . S
H1864 C1870 0.930 . S
H1865 C1873 0.930 . S
H1866 C1874 0.930 . S
H1867 C1875 0.930 . S
H1868 C1878 0.930 . S
H1869 C1879 0.930 . S
C1870 H1864 0.930 . S
C1870 C1871 1.355 . S
C1870 C1872 1.415 . S
C1871 C1870 1.355 . S
C1871 C1873 1.419 . S
C1872 C1870 1.415 . S
C1872 C1877 1.425 . S
C1872 C1879 1.409 . S
C1873 H1865 0.930 . S
C1873 C1871 1.419 . S
C1873 C1874 1.362 . S
C1874 H1866 0.930 . S
C1874 C1873 1.362 . S
C1874 C1877 1.409 . S
C1875 H1867 0.930 . S
C1875 C1876 1.355 . S
C1875 C1877 1.415 . S
C1876 C1875 1.355 . S
C1876 C1878 1.419 . S
C1877 C1872 1.425 . S
C1877 C1874 1.409 . S
C1877 C1875 1.415 . S
C1878 H1868 0.930 . S
C1878 C1876 1.419 . S
C1878 C1879 1.362 . S
C1879 H1869 0.930 . S
C1879 C1872 1.409 . S
C1879 C1878 1.362 . S
H1880 C1886 0.930 . S
H1881 C1889 0.930 . S
H1882 C1890 0.930 . S
H1883 C1891 0.930 . S
H1884 C1894 0.930 . S
H1885 C1895 0.930 . S
C1886 H1880 0.930 . S
C1886 C1887 1.355 . S
C1886 C1888 1.415 . S
C1887 C1886 1.355 . S
C1887 C1889 1.419 . S
C1888 C1886 1.415 . S
C1888 C1893 1.425 . S
C1888 C1895 1.409 . S
C1889 H1881 0.930 . S
C1889 C1887 1.419 . S
C1889 C1890 1.362 . S
C1890 H1882 0.930 . S
C1890 C1889 1.362 . S
C1890 C1893 1.409 . S
C1891 H1883 0.930 . S
C1891 C1892 1.355 . S
C1891 C1893 1.415 . S
C1892 C1891 1.355 . S
C1892 C1894 1.419 . S
C1893 C1888 1.425 . S
C1893 C1890 1.409 . S
C1893 C1891 1.415 . S
C1894 H1884 0.930 . S
C1894 C1892 1.419 . S
C1894 C1895 1.362 . S
C1895 H1885 0.930 . S
C1895 C1888 1.409 . S
C1895 C1894 1.362 . S
H1896 C1902 0.930 . S
H1897 C1905 0.930 . S
H1898 C1906 0.930 . S
H1899 C1907 0.930 . S
H1900 C1910 0.930 . S
H1901 C1911 0.930 . S
C1902 H1896 0.930 . S
C1902 C1903 1.355 . S
C1902 C1904 1.415 . S
C1903 C1902 1.355 . S
C1903 C1905 1.419 . S
C1904 C1902 1.415 . S
C1904 C1909 1.425 . S
C1904 C1911 1.409 . S
C1905 H1897 0.930 . S
C1905 C1903 1.419 . S
C1905 C1906 1.362 . S
C1906 H1898 0.930 . S
C1906 C1905 1.362 . S
C1906 C1909 1.409 . S
C1907 H1899 0.930 . S
C1907 C1908 1.355 . S
C1907 C1909 1.415 . S
C1908 C1907 1.355 . S
C1908 C1910 1.419 . S
C1909 C1904 1.425 . S
C1909 C1906 1.409 . S
C1909 C1907 1.415 . S
C1910 H1900 0.930 . S
C1910 C1908 1.419 . S
C1910 C1911 1.362 . S
C1911 H1901 0.930 . S
C1911 C1904 1.409 . S
C1911 C1910 1.362 . S
H1912 C1918 0.930 . S
H1913 C1921 0.930 . S
H1914 C1922 0.930 . S
H1915 C1923 0.930 . S
H1916 C1926 0.930 . S
H1917 C1927 0.930 . S
C1918 H1912 0.930 . S
C1918 C1919 1.355 . S
C1918 C1920 1.415 . S
C1919 C1918 1.355 . S
C1919 C1921 1.419 . S
C1920 C1918 1.415 . S
C1920 C1925 1.425 . S
C1920 C1927 1.409 . S
C1921 H1913 0.930 . S
C1921 C1919 1.419 . S
C1921 C1922 1.362 . S
C1922 H1914 0.930 . S
C1922 C1921 1.362 . S
C1922 C1925 1.409 . S
C1923 H1915 0.930 . S
C1923 C1924 1.355 . S
C1923 C1925 1.415 . S
C1924 C1923 1.355 . S
C1924 C1926 1.419 . S
C1925 C1920 1.425 . S
C1925 C1922 1.409 . S
C1925 C1923 1.415 . S
C1926 H1916 0.930 . S
C1926 C1924 1.419 . S
C1926 C1927 1.362 . S
C1927 H1917 0.930 . S
C1927 C1920 1.409 . S
C1927 C1926 1.362 . S
H1928 C1934 0.930 . S
H1929 C1937 0.930 . S
H1930 C1938 0.930 . S
H1931 C1939 0.930 . S
H1932 C1942 0.930 . S
H1933 C1943 0.930 . S
C1934 H1928 0.930 . S
C1934 C1935 1.355 . S
C1934 C1936 1.415 . S
C1935 C1934 1.355 . S
C1935 C1937 1.419 . S
C1936 C1934 1.415 . S
C1936 C1941 1.425 . S
C1936 C1943 1.409 . S
C1937 H1929 0.930 . S
C1937 C1935 1.419 . S
C1937 C1938 1.362 . S
C1938 H1930 0.930 . S
C1938 C1937 1.362 . S
C1938 C1941 1.409 . S
C1939 H1931 0.930 . S
C1939 C1940 1.355 . S
C1939 C1941 1.415 . S
C1940 C1939 1.355 . S
C1940 C1942 1.419 . S
C1941 C1936 1.425 . S
C1941 C1938 1.409 . S
C1941 C1939 1.415 . S
C1942 H1932 0.930 . S
C1942 C1940 1.419 . S
C1942 C1943 1.362 . S
C1943 H1933 0.930 . S
C1943 C1936 1.409 . S
C1943 C1942 1.362 . S
H1944 C1950 0.930 . S
H1945 C1953 0.930 . S
H1946 C1954 0.930 . S
H1947 C1955 0.930 . S
H1948 C1958 0.930 . S
H1949 C1959 0.930 . S
C1950 H1944 0.930 . S
C1950 C1951 1.355 . S
C1950 C1952 1.415 . S
C1951 C1950 1.355 . S
C1951 C1953 1.419 . S
C1952 C1950 1.415 . S
C1952 C1957 1.425 . S
C1952 C1959 1.409 . S
C1953 H1945 0.930 . S
C1953 C1951 1.419 . S
C1953 C1954 1.362 . S
C1954 H1946 0.930 . S
C1954 C1953 1.362 . S
C1954 C1957 1.409 . S
C1955 H1947 0.930 . S
C1955 C1956 1.355 . S
C1955 C1957 1.415 . S
C1956 C1955 1.355 . S
C1956 C1958 1.419 . S
C1957 C1952 1.425 . S
C1957 C1954 1.409 . S
C1957 C1955 1.415 . S
C1958 H1948 0.930 . S
C1958 C1956 1.419 . S
C1958 C1959 1.362 . S
C1959 H1949 0.930 . S
C1959 C1952 1.409 . S
C1959 C1958 1.362 . S
H1960 C1966 0.930 . S
H1961 C1969 0.930 . S
H1962 C1970 0.930 . S
H1963 C1971 0.930 . S
H1964 C1974 0.930 . S
H1965 C1975 0.930 . S
C1966 H1960 0.930 . S
C1966 C1967 1.355 . S
C1966 C1968 1.415 . S
C1967 C1966 1.355 . S
C1967 C1969 1.419 . S
C1968 C1966 1.415 . S
C1968 C1973 1.425 . S
C1968 C1975 1.409 . S
C1969 H1961 0.930 . S
C1969 C1967 1.419 . S
C1969 C1970 1.362 . S
C1970 H1962 0.930 . S
C1970 C1969 1.362 . S
C1970 C1973 1.409 . S
C1971 H1963 0.930 . S
C1971 C1972 1.355 . S
C1971 C1973 1.415 . S
C1972 C1971 1.355 . S
C1972 C1974 1.419 . S
C1973 C1968 1.425 . S
C1973 C1970 1.409 . S
C1973 C1971 1.415 . S
C1974 H1964 0.930 . S
C1974 C1972 1.419 . S
C1974 C1975 1.362 . S
C1975 H1965 0.930 . S
C1975 C1968 1.409 . S
C1975 C1974 1.362 . S
H1976 C1982 0.930 . S
H1977 C1985 0.930 . S
H1978 C1986 0.930 . S
H1979 C1987 0.930 . S
H1980 C1990 0.930 . S
H1981 C1991 0.930 . S
C1982 H1976 0.930 . S
C1982 C1983 1.355 . S
C1982 C1984 1.415 . S
C1983 C1982 1.355 . S
C1983 C1985 1.419 . S
C1984 C1982 1.415 . S
C1984 C1989 1.425 . S
C1984 C1991 1.409 . S
C1985 H1977 0.930 . S
C1985 C1983 1.419 . S
C1985 C1986 1.362 . S
C1986 H1978 0.930 . S
C1986 C1985 1.362 . S
C1986 C1989 1.409 . S
C1987 H1979 0.930 . S
C1987 C1988 1.355 . S
C1987 C1989 1.415 . S
C1988 C1987 1.355 . S
C1988 C1990 1.419 . S
C1989 C1984 1.425 . S
C1989 C1986 1.409 . S
C1989 C1987 1.415 . S
C1990 H1980 0.930 . S
C1990 C1988 1.419 . S
C1990 C1991 1.362 . S
C1991 H1981 0.930 . S
C1991 C1984 1.409 . S
C1991 C1990 1.362 . S
H1992 C1998 0.930 . S
H1993 C2001 0.930 . S
H1994 C2002 0.930 . S
H1995 C2003 0.930 . S
H1996 C2006 0.912 1_554 S
H1997 C2007 0.930 . S
C1998 H1992 0.930 . S
C1998 C1999 1.355 1_554 S
C1998 C2000 1.415 1_554 S
C1999 C1998 1.355 1_556 S
C1999 C2001 1.419 . S
C2000 C1998 1.415 1_556 S
C2000 C2005 1.425 . S
C2000 C2007 1.409 1_556 S
C2001 H1993 0.930 . S
C2001 C1999 1.419 . S
C2001 C2002 1.362 . S
C2002 H1994 0.930 . S
C2002 C2001 1.362 . S
C2002 C2005 1.409 . S
C2003 H1995 0.930 . S
C2003 C2004 1.355 . S
C2003 C2005 1.415 . S
C2004 C2003 1.355 . S
C2004 C2006 1.419 . S
C2005 C2000 1.425 . S
C2005 C2002 1.409 . S
C2005 C2003 1.415 . S
C2006 H1996 0.912 1_556 S
C2006 C2004 1.419 . S
C2006 C2007 1.362 1_556 S
C2007 H1997 0.930 . S
C2007 C2000 1.409 1_554 S
C2007 C2006 1.362 1_554 S
H2008 C2014 0.930 . S
H2009 C2017 0.932 . S
H2010 C2018 0.930 . S
H2011 C2019 0.930 . S
H2012 C2022 0.930 . S
H2013 C2023 0.930 . S
C2014 H2008 0.930 . S
C2014 C2015 1.355 . S
C2014 C2016 1.415 . S
C2015 C2014 1.355 . S
C2015 C2017 1.418 1_556 S
C2016 C2014 1.415 . S
C2016 C2021 1.425 . S
C2016 C2023 1.409 . S
C2017 H2009 0.932 . S
C2017 C2015 1.418 1_554 S
C2017 C2018 1.361 1_554 S
C2018 H2010 0.930 . S
C2018 C2017 1.361 1_556 S
C2018 C2021 1.409 . S
C2019 H2011 0.930 . S
C2019 C2020 1.355 . S
C2019 C2021 1.415 . S
C2020 C2019 1.355 . S
C2020 C2022 1.419 . S
C2021 C2016 1.425 . S
C2021 C2018 1.409 . S
C2021 C2019 1.415 . S
C2022 H2012 0.930 . S
C2022 C2020 1.419 . S
C2022 C2023 1.362 . S
C2023 H2013 0.930 . S
C2023 C2016 1.409 . S
C2023 C2022 1.362 . S
H2024 C2030 0.930 . S
H2025 C2033 0.930 . S
H2026 C2034 0.930 . S
H2027 C2035 0.930 . S
H2028 C2038 0.930 . S
H2029 C2039 0.930 . S
C2030 H2024 0.930 . S
C2030 C2031 1.355 . S
C2030 C2032 1.415 . S
C2031 C2030 1.355 . S
C2031 C2033 1.419 . S
C2032 C2030 1.415 . S
C2032 C2037 1.425 . S
C2032 C2039 1.409 . S
C2033 H2025 0.930 . S
C2033 C2031 1.419 . S
C2033 C2034 1.362 . S
C2034 H2026 0.930 . S
C2034 C2033 1.362 . S
C2034 C2037 1.409 . S
C2035 H2027 0.930 . S
C2035 C2036 1.355 . S
C2035 C2037 1.415 . S
C2036 C2035 1.355 . S
C2036 C2038 1.419 . S
C2037 C2032 1.425 . S
C2037 C2034 1.409 . S
C2037 C2035 1.415 . S
C2038 H2028 0.930 . S
C2038 C2036 1.419 . S
C2038 C2039 1.362 . S
C2039 H2029 0.930 . S
C2039 C2032 1.409 . S
C2039 C2038 1.362 . S
H2040 C2046 0.930 . S
H2041 C2049 0.930 1_554 S
H2042 C2050 0.930 . S
H2043 C2051 0.930 . S
H2044 C2054 0.930 . S
H2045 C2055 0.930 . S
C2046 H2040 0.930 . S
C2046 C2047 1.355 . S
C2046 C2048 1.415 . S
C2047 C2046 1.355 . S
C2047 C2049 1.419 . S
C2048 C2046 1.415 . S
C2048 C2053 1.425 . S
C2048 C2055 1.409 . S
C2049 H2041 0.930 1_556 S
C2049 C2047 1.419 . S
C2049 C2050 1.362 . S
C2050 H2042 0.930 . S
C2050 C2049 1.362 . S
C2050 C2053 1.409 . S
C2051 H2043 0.930 . S
C2051 C2052 1.355 . S
C2051 C2053 1.415 . S
C2052 C2051 1.355 . S
C2052 C2054 1.419 . S
C2053 C2048 1.425 . S
C2053 C2050 1.409 . S
C2053 C2051 1.415 . S
C2054 H2044 0.930 . S
C2054 C2052 1.419 . S
C2054 C2055 1.362 . S
C2055 H2045 0.930 . S
C2055 C2048 1.409 . S
C2055 C2054 1.362 . S
H2056 C2062 0.930 . S
H2057 C2065 0.930 . S
H2058 C2066 0.930 . S
H2059 C2067 0.930 . S
H2060 C2070 0.930 . S
H2061 C2071 0.930 . S
C2062 H2056 0.930 . S
C2062 C2063 1.355 . S
C2062 C2064 1.415 . S
C2063 C2062 1.355 . S
C2063 C2065 1.419 1_556 S
C2064 C2062 1.415 . S
C2064 C2069 1.425 . S
C2064 C2071 1.409 . S
C2065 H2057 0.930 . S
C2065 C2063 1.419 1_554 S
C2065 C2066 1.362 1_554 S
C2066 H2058 0.930 . S
C2066 C2065 1.362 1_556 S
C2066 C2069 1.409 . S
C2067 H2059 0.930 . S
C2067 C2068 1.355 . S
C2067 C2069 1.415 . S
C2068 C2067 1.355 . S
C2068 C2070 1.419 . S
C2069 C2064 1.425 . S
C2069 C2066 1.409 . S
C2069 C2067 1.415 . S
C2070 H2060 0.930 . S
C2070 C2068 1.419 . S
C2070 C2071 1.362 . S
C2071 H2061 0.930 . S
C2071 C2064 1.409 . S
C2071 C2070 1.362 . S
H2072 C2078 0.950 . S
H2073 C2081 0.930 . S
H2074 C2082 0.930 . S
H2075 C2083 0.930 . S
H2076 C2086 0.930 . S
H2077 C2087 0.930 1_554 S
C2078 H2072 0.950 . S
C2078 C2079 1.349 1_554 S
C2078 C2080 1.401 1_554 S
C2079 C2078 1.349 1_556 S
C2079 C2081 1.419 . S
C2080 C2078 1.401 1_556 S
C2080 C2085 1.425 . S
C2080 C2087 1.409 . S
C2081 H2073 0.930 . S
C2081 C2079 1.419 . S
C2081 C2082 1.362 . S
C2082 H2074 0.930 . S
C2082 C2081 1.362 . S
C2082 C2085 1.409 . S
C2083 H2075 0.930 . S
C2083 C2084 1.355 . S
C2083 C2085 1.415 . S
C2084 C2083 1.355 . S
C2084 C2086 1.419 . S
C2085 C2080 1.425 . S
C2085 C2082 1.409 . S
C2085 C2083 1.415 . S
C2086 H2076 0.930 . S
C2086 C2084 1.419 . S
C2086 C2087 1.362 . S
C2087 H2077 0.930 1_556 S
C2087 C2080 1.409 . S
C2087 C2086 1.362 . S
H2088 C2094 0.930 . S
H2089 C2097 0.930 . S
H2090 C2098 0.930 . S
H2091 C2099 0.930 . S
H2092 C2102 0.930 . S
H2093 C2103 0.930 . S
C2094 H2088 0.930 . S
C2094 C2095 1.355 . S
C2094 C2096 1.415 . S
C2095 C2094 1.355 . S
C2095 C2097 1.419 . S
C2096 C2094 1.415 . S
C2096 C2101 1.425 . S
C2096 C2103 1.409 . S
C2097 H2089 0.930 . S
C2097 C2095 1.419 . S
C2097 C2098 1.362 . S
C2098 H2090 0.930 . S
C2098 C2097 1.362 . S
C2098 C2101 1.409 . S
C2099 H2091 0.930 . S
C2099 C2100 1.355 . S
C2099 C2101 1.415 . S
C2100 C2099 1.355 . S
C2100 C2102 1.419 . S
C2101 C2096 1.425 . S
C2101 C2098 1.409 . S
C2101 C2099 1.415 . S
C2102 H2092 0.930 . S
C2102 C2100 1.419 . S
C2102 C2103 1.362 . S
C2103 H2093 0.930 . S
C2103 C2096 1.409 . S
C2103 C2102 1.362 . S
H2104 C2110 0.930 . S
H2105 C2113 0.968 . S
H2106 C2114 0.930 . S
H2107 C2115 0.930 . S
H2108 C2118 0.930 . S
H2109 C2119 0.930 . S
C2110 H2104 0.930 . S
C2110 C2111 1.355 . S
C2110 C2112 1.415 . S
C2111 C2110 1.355 . S
C2111 C2113 1.419 . S
C2112 C2110 1.415 . S
C2112 C2117 1.425 . S
C2112 C2119 1.409 . S
C2113 H2105 0.968 . S
C2113 C2111 1.419 . S
C2113 C2114 1.362 . S
C2114 H2106 0.930 . S
C2114 C2113 1.362 . S
C2114 C2117 1.409 . S
C2115 H2107 0.930 . S
C2115 C2116 1.355 . S
C2115 C2117 1.415 . S
C2116 C2115 1.355 . S
C2116 C2118 1.419 . S
C2117 C2112 1.425 . S
C2117 C2114 1.409 . S
C2117 C2115 1.415 . S
C2118 H2108 0.930 . S
C2118 C2116 1.419 . S
C2118 C2119 1.362 . S
C2119 H2109 0.930 . S
C2119 C2112 1.409 . S
C2119 C2118 1.362 . S
H2120 C2126 0.930 . S
H2121 C2129 0.930 . S
H2122 C2130 0.930 . S
H2123 C2131 0.930 . S
H2124 C2134 0.930 . S
H2125 C2135 0.930 . S
C2126 H2120 0.930 . S
C2126 C2127 1.355 . S
C2126 C2128 1.415 . S
C2127 C2126 1.355 . S
C2127 C2129 1.419 . S
C2128 C2126 1.415 . S
C2128 C2133 1.425 . S
C2128 C2135 1.409 . S
C2129 H2121 0.930 . S
C2129 C2127 1.419 . S
C2129 C2130 1.362 . S
C2130 H2122 0.930 . S
C2130 C2129 1.362 . S
C2130 C2133 1.409 . S
C2131 H2123 0.930 . S
C2131 C2132 1.355 . S
C2131 C2133 1.415 . S
C2132 C2131 1.355 . S
C2132 C2134 1.419 . S
C2133 C2128 1.425 . S
C2133 C2130 1.409 . S
C2133 C2131 1.415 . S
C2134 H2124 0.930 . S
C2134 C2132 1.419 . S
C2134 C2135 1.362 . S
C2135 H2125 0.930 . S
C2135 C2128 1.409 . S
C2135 C2134 1.362 . S
H2136 C2142 0.930 . S
H2137 C2145 0.930 . S
H2138 C2146 0.930 . S
H2139 C2147 0.930 . S
H2140 C2150 0.930 . S
H2141 C2151 0.930 . S
C2142 H2136 0.930 . S
C2142 C2143 1.355 . S
C2142 C2144 1.415 . S
C2143 C2142 1.355 . S
C2143 C2145 1.419 . S
C2144 C2142 1.415 . S
C2144 C2149 1.425 . S
C2144 C2151 1.409 . S
C2145 H2137 0.930 . S
C2145 C2143 1.419 . S
C2145 C2146 1.362 . S
C2146 H2138 0.930 . S
C2146 C2145 1.362 . S
C2146 C2149 1.409 . S
C2147 H2139 0.930 . S
C2147 C2148 1.355 . S
C2147 C2149 1.415 . S
C2148 C2147 1.355 . S
C2148 C2150 1.419 . S
C2149 C2144 1.425 . S
C2149 C2146 1.409 . S
C2149 C2147 1.415 . S
C2150 H2140 0.930 . S
C2150 C2148 1.419 . S
C2150 C2151 1.362 . S
C2151 H2141 0.930 . S
C2151 C2144 1.409 . S
C2151 C2150 1.362 . S
H2152 C2158 0.930 . S
H2153 C2161 0.930 . S
H2154 C2162 0.930 . S
H2155 C2163 0.930 . S
H2156 C2166 0.930 . S
H2157 C2167 0.930 . S
C2158 H2152 0.930 . S
C2158 C2159 1.355 . S
C2158 C2160 1.415 . S
C2159 C2158 1.355 . S
C2159 C2161 1.419 . S
C2160 C2158 1.415 . S
C2160 C2165 1.425 . S
C2160 C2167 1.409 . S
C2161 H2153 0.930 . S
C2161 C2159 1.419 . S
C2161 C2162 1.362 . S
C2162 H2154 0.930 . S
C2162 C2161 1.362 . S
C2162 C2165 1.409 . S
C2163 H2155 0.930 . S
C2163 C2164 1.355 . S
C2163 C2165 1.415 . S
C2164 C2163 1.355 . S
C2164 C2166 1.419 . S
C2165 C2160 1.425 . S
C2165 C2162 1.409 . S
C2165 C2163 1.415 . S
C2166 H2156 0.930 . S
C2166 C2164 1.419 . S
C2166 C2167 1.362 . S
C2167 H2157 0.930 . S
C2167 C2160 1.409 . S
C2167 C2166 1.362 . S
H2168 C2174 0.930 . S
H2169 C2177 0.930 . S
H2170 C2178 0.930 . S
H2171 C2179 0.930 . S
H2172 C2182 0.930 . S
H2173 C2183 0.930 . S
C2174 H2168 0.930 . S
C2174 C2175 1.355 . S
C2174 C2176 1.415 . S
C2175 C2174 1.355 . S
C2175 C2177 1.419 . S
C2176 C2174 1.415 . S
C2176 C2181 1.425 . S
C2176 C2183 1.409 . S
C2177 H2169 0.930 . S
C2177 C2175 1.419 . S
C2177 C2178 1.362 . S
C2178 H2170 0.930 . S
C2178 C2177 1.362 . S
C2178 C2181 1.409 . S
C2179 H2171 0.930 . S
C2179 C2180 1.355 . S
C2179 C2181 1.415 . S
C2180 C2179 1.355 . S
C2180 C2182 1.419 . S
C2181 C2176 1.425 . S
C2181 C2178 1.409 . S
C2181 C2179 1.415 . S
C2182 H2172 0.930 . S
C2182 C2180 1.419 . S
C2182 C2183 1.362 . S
C2183 H2173 0.930 . S
C2183 C2176 1.409 . S
C2183 C2182 1.362 . S
H2184 C2190 0.930 . S
H2185 C2193 0.926 1_655 S
H2186 C2194 0.930 . S
H2187 C2195 0.858 1_655 S
H2188 C2198 0.930 . S
H2189 C2199 0.930 . S
C2190 H2184 0.930 . S
C2190 C2191 1.355 . S
C2190 C2192 1.415 . S
C2191 C2190 1.355 . S
C2191 C2193 1.419 . S
C2192 C2190 1.415 . S
C2192 C2197 1.425 . S
C2192 C2199 1.409 . S
C2193 H2185 0.926 1_455 S
C2193 C2191 1.419 . S
C2193 C2194 1.362 1_455 S
C2194 H2186 0.930 . S
C2194 C2193 1.362 1_655 S
C2194 C2197 1.409 1_655 S
C2195 H2187 0.858 1_455 S
C2195 C2196 1.365 . S
C2195 C2197 1.478 . S
C2196 C2195 1.365 . S
C2196 C2198 1.419 . S
C2197 C2192 1.425 . S
C2197 C2194 1.409 1_455 S
C2197 C2195 1.478 . S
C2198 H2188 0.930 . S
C2198 C2196 1.419 . S
C2198 C2199 1.362 . S
C2199 H2189 0.930 . S
C2199 C2192 1.409 . S
C2199 C2198 1.362 . S
H2200 C2206 0.930 . S
H2201 C2209 0.930 . S
H2202 C2210 0.930 . S
H2203 C2211 0.930 . S
H2204 C2214 0.930 . S
H2205 C2215 0.930 . S
C2206 H2200 0.930 . S
C2206 C2207 1.355 . S
C2206 C2208 1.415 . S
C2207 C2206 1.355 . S
C2207 C2209 1.419 . S
C2208 C2206 1.415 . S
C2208 C2213 1.425 . S
C2208 C2215 1.409 . S
C2209 H2201 0.930 . S
C2209 C2207 1.419 . S
C2209 C2210 1.362 . S
C2210 H2202 0.930 . S
C2210 C2209 1.362 . S
C2210 C2213 1.409 . S
C2211 H2203 0.930 . S
C2211 C2212 1.355 . S
C2211 C2213 1.415 . S
C2212 C2211 1.355 . S
C2212 C2214 1.419 . S
C2213 C2208 1.425 . S
C2213 C2210 1.409 . S
C2213 C2211 1.415 . S
C2214 H2204 0.930 . S
C2214 C2212 1.419 . S
C2214 C2215 1.362 . S
C2215 H2205 0.930 . S
C2215 C2208 1.409 . S
C2215 C2214 1.362 . S
H2216 C2222 0.930 . S
H2217 C2225 0.930 . S
H2218 C2226 0.930 . S
H2219 C2227 0.930 . S
H2220 C2230 0.934 . S
H2221 C2231 0.930 . S
C2222 H2216 0.930 . S
C2222 C2223 1.355 . S
C2222 C2224 1.415 . S
C2223 C2222 1.355 . S
C2223 C2225 1.419 . S
C2224 C2222 1.415 . S
C2224 C2229 1.425 . S
C2224 C2231 1.409 . S
C2225 H2217 0.930 . S
C2225 C2223 1.419 . S
C2225 C2226 1.362 . S
C2226 H2218 0.930 . S
C2226 C2225 1.362 . S
C2226 C2229 1.409 . S
C2227 H2219 0.930 . S
C2227 C2228 1.355 . S
C2227 C2229 1.415 . S
C2228 C2227 1.355 . S
C2228 C2230 1.419 . S
C2229 C2224 1.425 . S
C2229 C2226 1.409 . S
C2229 C2227 1.415 . S
C2230 H2220 0.934 . S
C2230 C2228 1.419 . S
C2230 C2231 1.362 . S
C2231 H2221 0.930 . S
C2231 C2224 1.409 . S
C2231 C2230 1.362 . S
H2232 C2238 0.930 . S
H2233 C2241 0.930 . S
H2234 C2242 0.930 . S
H2235 C2243 0.930 . S
H2236 C2246 0.930 . S
H2237 C2247 0.930 . S
C2238 H2232 0.930 . S
C2238 C2239 1.355 . S
C2238 C2240 1.415 . S
C2239 C2238 1.355 . S
C2239 C2241 1.419 . S
C2240 C2238 1.415 . S
C2240 C2245 1.425 . S
C2240 C2247 1.409 . S
C2241 H2233 0.930 . S
C2241 C2239 1.419 . S
C2241 C2242 1.362 . S
C2242 H2234 0.930 . S
C2242 C2241 1.362 . S
C2242 C2245 1.409 . S
C2243 H2235 0.930 . S
C2243 C2244 1.355 . S
C2243 C2245 1.415 . S
C2244 C2243 1.355 . S
C2244 C2246 1.419 . S
C2245 C2240 1.425 . S
C2245 C2242 1.409 . S
C2245 C2243 1.415 . S
C2246 H2236 0.930 . S
C2246 C2244 1.419 . S
C2246 C2247 1.362 . S
C2247 H2237 0.930 . S
C2247 C2240 1.409 . S
C2247 C2246 1.362 . S
H2248 C2254 0.930 . S
H2249 C2257 0.930 1_655 S
H2250 C2258 0.930 . S
H2251 C2259 0.938 . S
H2252 C2262 0.930 . S
H2253 C2263 0.930 . S
C2254 H2248 0.930 . S
C2254 C2255 1.355 . S
C2254 C2256 1.415 . S
C2255 C2254 1.355 . S
C2255 C2257 1.419 . S
C2256 C2254 1.415 . S
C2256 C2261 1.425 . S
C2256 C2263 1.409 . S
C2257 H2249 0.930 1_455 S
C2257 C2255 1.419 . S
C2257 C2258 1.362 1_455 S
C2258 H2250 0.930 . S
C2258 C2257 1.362 1_655 S
C2258 C2261 1.409 1_655 S
C2259 H2251 0.938 . S
C2259 C2260 1.345 1_655 S
C2259 C2261 1.416 1_655 S
C2260 C2259 1.345 1_455 S
C2260 C2262 1.419 . S
C2261 C2256 1.425 . S
C2261 C2258 1.409 1_455 S
C2261 C2259 1.416 1_455 S
C2262 H2252 0.930 . S
C2262 C2260 1.419 . S
C2262 C2263 1.362 . S
C2263 H2253 0.930 . S
C2263 C2256 1.409 . S
C2263 C2262 1.362 . S
H2264 C2270 0.930 . S
H2265 C2273 0.930 . S
H2266 C2274 0.930 . S
H2267 C2275 0.930 . S
H2268 C2278 0.930 . S
H2269 C2279 0.930 . S
C2270 H2264 0.930 . S
C2270 C2271 1.355 . S
C2270 C2272 1.415 . S
C2271 C2270 1.355 . S
C2271 C2273 1.419 . S
C2272 C2270 1.415 . S
C2272 C2277 1.425 . S
C2272 C2279 1.409 . S
C2273 H2265 0.930 . S
C2273 C2271 1.419 . S
C2273 C2274 1.362 . S
C2274 H2266 0.930 . S
C2274 C2273 1.362 . S
C2274 C2277 1.409 . S
C2275 H2267 0.930 . S
C2275 C2276 1.355 . S
C2275 C2277 1.415 . S
C2276 C2275 1.355 . S
C2276 C2278 1.419 . S
C2277 C2272 1.425 . S
C2277 C2274 1.409 . S
C2277 C2275 1.415 . S
C2278 H2268 0.930 . S
C2278 C2276 1.419 . S
C2278 C2279 1.362 . S
C2279 H2269 0.930 . S
C2279 C2272 1.409 . S
C2279 C2278 1.362 . S
H2280 C2286 0.930 . S
H2281 C2289 0.930 . S
H2282 C2290 0.930 . S
H2283 C2291 0.930 . S
H2284 C2294 0.930 . S
H2285 C2295 0.930 . S
C2286 H2280 0.930 . S
C2286 C2287 1.355 . S
C2286 C2288 1.415 . S
C2287 C2286 1.355 . S
C2287 C2289 1.419 . S
C2288 C2286 1.415 . S
C2288 C2293 1.425 . S
C2288 C2295 1.409 . S
C2289 H2281 0.930 . S
C2289 C2287 1.419 . S
C2289 C2290 1.362 . S
C2290 H2282 0.930 . S
C2290 C2289 1.362 . S
C2290 C2293 1.409 . S
C2291 H2283 0.930 . S
C2291 C2292 1.355 . S
C2291 C2293 1.415 . S
C2292 C2291 1.355 . S
C2292 C2294 1.419 . S
C2293 C2288 1.425 . S
C2293 C2290 1.409 . S
C2293 C2291 1.415 . S
C2294 H2284 0.930 . S
C2294 C2292 1.419 . S
C2294 C2295 1.362 . S
C2295 H2285 0.930 . S
C2295 C2288 1.409 . S
C2295 C2294 1.362 . S
H2296 C2302 0.930 . S
H2297 C2305 0.930 . S
H2298 C2306 0.930 . S
H2299 C2307 0.930 . S
H2300 C2310 0.930 . S
H2301 C2311 0.930 . S
C2302 H2296 0.930 . S
C2302 C2303 1.355 . S
C2302 C2304 1.415 . S
C2303 C2302 1.355 . S
C2303 C2305 1.419 . S
C2304 C2302 1.415 . S
C2304 C2309 1.425 . S
C2304 C2311 1.409 . S
C2305 H2297 0.930 . S
C2305 C2303 1.419 . S
C2305 C2306 1.362 . S
C2306 H2298 0.930 . S
C2306 C2305 1.362 . S
C2306 C2309 1.409 . S
C2307 H2299 0.930 . S
C2307 C2308 1.355 . S
C2307 C2309 1.415 . S
C2308 C2307 1.355 . S
C2308 C2310 1.419 . S
C2309 C2304 1.425 . S
C2309 C2306 1.409 . S
C2309 C2307 1.415 . S
C2310 H2300 0.930 . S
C2310 C2308 1.419 . S
C2310 C2311 1.362 . S
C2311 H2301 0.930 . S
C2311 C2304 1.409 . S
C2311 C2310 1.362 . S
H2312 C2318 0.930 . S
H2313 C2321 0.930 . S
H2314 C2322 0.930 . S
H2315 C2323 0.930 . S
H2316 C2326 0.930 . S
H2317 C2327 0.930 . S
C2318 H2312 0.930 . S
C2318 C2319 1.355 . S
C2318 C2320 1.415 . S
C2319 C2318 1.355 . S
C2319 C2321 1.419 . S
C2320 C2318 1.415 . S
C2320 C2325 1.425 . S
C2320 C2327 1.409 . S
C2321 H2313 0.930 . S
C2321 C2319 1.419 . S
C2321 C2322 1.362 . S
C2322 H2314 0.930 . S
C2322 C2321 1.362 . S
C2322 C2325 1.409 . S
C2323 H2315 0.930 . S
C2323 C2324 1.355 . S
C2323 C2325 1.415 . S
C2324 C2323 1.355 . S
C2324 C2326 1.419 . S
C2325 C2320 1.425 . S
C2325 C2322 1.409 . S
C2325 C2323 1.415 . S
C2326 H2316 0.930 . S
C2326 C2324 1.419 . S
C2326 C2327 1.362 . S
C2327 H2317 0.930 . S
C2327 C2320 1.409 . S
C2327 C2326 1.362 . S
H2328 C2334 0.930 . S
H2329 C2337 0.927 1_565 S
H2330 C2338 0.930 . S
H2331 C2339 0.930 1_565 S
H2332 C2342 0.930 . S
H2333 C2343 0.930 . S
C2334 H2328 0.930 . S
C2334 C2335 1.355 . S
C2334 C2336 1.415 . S
C2335 C2334 1.355 . S
C2335 C2337 1.419 . S
C2336 C2334 1.415 . S
C2336 C2341 1.425 . S
C2336 C2343 1.409 . S
C2337 H2329 0.927 1_545 S
C2337 C2335 1.419 . S
C2337 C2338 1.362 1_545 S
C2338 H2330 0.930 . S
C2338 C2337 1.362 1_565 S
C2338 C2341 1.409 1_565 S
C2339 H2331 0.930 1_545 S
C2339 C2340 1.355 . S
C2339 C2341 1.415 . S
C2340 C2339 1.355 . S
C2340 C2342 1.419 . S
C2341 C2336 1.425 . S
C2341 C2338 1.409 1_545 S
C2341 C2339 1.415 . S
C2342 H2332 0.930 . S
C2342 C2340 1.419 . S
C2342 C2343 1.362 . S
C2343 H2333 0.930 . S
C2343 C2336 1.409 . S
C2343 C2342 1.362 . S
H2344 C2350 0.930 . S
H2345 C2353 0.930 . S
H2346 C2354 0.930 . S
H2347 C2355 0.930 . S
H2348 C2358 0.929 1_455 S
H2349 C2359 0.930 1_455 S
C2350 H2344 0.930 . S
C2350 C2351 1.355 . S
C2350 C2352 1.415 . S
C2351 C2350 1.355 . S
C2351 C2353 1.419 . S
C2352 C2350 1.415 . S
C2352 C2357 1.425 . S
C2352 C2359 1.409 . S
C2353 H2345 0.930 . S
C2353 C2351 1.419 . S
C2353 C2354 1.362 . S
C2354 H2346 0.930 . S
C2354 C2353 1.362 . S
C2354 C2357 1.409 . S
C2355 H2347 0.930 . S
C2355 C2356 1.355 . S
C2355 C2357 1.415 . S
C2356 C2355 1.355 . S
C2356 C2358 1.424 . S
C2357 C2352 1.425 . S
C2357 C2354 1.409 . S
C2357 C2355 1.415 . S
C2358 H2348 0.929 1_655 S
C2358 C2356 1.424 . S
C2358 C2359 1.358 . S
C2359 H2349 0.930 1_655 S
C2359 C2352 1.409 . S
C2359 C2358 1.358 . S
H2360 C2366 0.930 . S
H2361 C2369 0.930 . S
H2362 C2370 0.930 . S
H2363 C2371 0.930 . S
H2364 C2374 0.930 . S
H2365 C2375 0.930 . S
C2366 H2360 0.930 . S
C2366 C2367 1.355 . S
C2366 C2368 1.415 . S
C2367 C2366 1.355 . S
C2367 C2369 1.419 . S
C2368 C2366 1.415 . S
C2368 C2373 1.425 . S
C2368 C2375 1.409 . S
C2369 H2361 0.930 . S
C2369 C2367 1.419 . S
C2369 C2370 1.362 . S
C2370 H2362 0.930 . S
C2370 C2369 1.362 . S
C2370 C2373 1.409 . S
C2371 H2363 0.930 . S
C2371 C2372 1.355 . S
C2371 C2373 1.415 . S
C2372 C2371 1.355 . S
C2372 C2374 1.419 . S
C2373 C2368 1.425 . S
C2373 C2370 1.409 . S
C2373 C2371 1.415 . S
C2374 H2364 0.930 . S
C2374 C2372 1.419 . S
C2374 C2375 1.362 . S
C2375 H2365 0.930 . S
C2375 C2368 1.409 . S
C2375 C2374 1.362 . S
H2376 C2382 0.930 . S
H2377 C2385 0.930 . S
H2378 C2386 0.930 . S
H2379 C2387 0.930 . S
H2380 C2390 0.930 . S
H2381 C2391 0.930 . S
C2382 H2376 0.930 . S
C2382 C2383 1.355 . S
C2382 C2384 1.415 . S
C2383 C2382 1.355 . S
C2383 C2385 1.419 . S
C2384 C2382 1.415 . S
C2384 C2389 1.425 . S
C2384 C2391 1.409 . S
C2385 H2377 0.930 . S
C2385 C2383 1.419 . S
C2385 C2386 1.362 . S
C2386 H2378 0.930 . S
C2386 C2385 1.362 . S
C2386 C2389 1.409 . S
C2387 H2379 0.930 . S
C2387 C2388 1.355 . S
C2387 C2389 1.415 . S
C2388 C2387 1.355 . S
C2388 C2390 1.419 . S
C2389 C2384 1.425 . S
C2389 C2386 1.409 . S
C2389 C2387 1.415 . S
C2390 H2380 0.930 . S
C2390 C2388 1.419 . S
C2390 C2391 1.362 . S
C2391 H2381 0.930 . S
C2391 C2384 1.409 . S
C2391 C2390 1.362 . S
H2392 C2398 0.930 . S
H2393 C2401 0.930 . S
H2394 C2402 0.930 . S
H2395 C2403 0.930 . S
H2396 C2406 0.930 . S
H2397 C2407 0.930 . S
C2398 H2392 0.930 . S
C2398 C2399 1.355 . S
C2398 C2400 1.415 . S
C2399 C2398 1.355 . S
C2399 C2401 1.419 . S
C2400 C2398 1.415 . S
C2400 C2405 1.425 . S
C2400 C2407 1.409 . S
C2401 H2393 0.930 . S
C2401 C2399 1.419 . S
C2401 C2402 1.362 . S
C2402 H2394 0.930 . S
C2402 C2401 1.362 . S
C2402 C2405 1.409 . S
C2403 H2395 0.930 . S
C2403 C2404 1.355 . S
C2403 C2405 1.415 . S
C2404 C2403 1.355 . S
C2404 C2406 1.419 . S
C2405 C2400 1.425 . S
C2405 C2402 1.409 . S
C2405 C2403 1.415 . S
C2406 H2396 0.930 . S
C2406 C2404 1.419 . S
C2406 C2407 1.362 . S
C2407 H2397 0.930 . S
C2407 C2400 1.409 . S
C2407 C2406 1.362 . S
H2408 C2414 0.930 . S
H2409 C2417 0.930 . S
H2410 C2418 0.930 . S
H2411 C2419 0.930 . S
H2412 C2422 0.930 . S
H2413 C2423 0.930 . S
C2414 H2408 0.930 . S
C2414 C2415 1.355 . S
C2414 C2416 1.415 . S
C2415 C2414 1.355 . S
C2415 C2417 1.419 . S
C2416 C2414 1.415 . S
C2416 C2421 1.425 . S
C2416 C2423 1.409 . S
C2417 H2409 0.930 . S
C2417 C2415 1.419 . S
C2417 C2418 1.362 . S
C2418 H2410 0.930 . S
C2418 C2417 1.362 . S
C2418 C2421 1.409 . S
C2419 H2411 0.930 . S
C2419 C2420 1.355 . S
C2419 C2421 1.415 . S
C2420 C2419 1.355 . S
C2420 C2422 1.419 . S
C2421 C2416 1.425 . S
C2421 C2418 1.409 . S
C2421 C2419 1.415 . S
C2422 H2412 0.930 . S
C2422 C2420 1.419 . S
C2422 C2423 1.362 . S
C2423 H2413 0.930 . S
C2423 C2416 1.409 . S
C2423 C2422 1.362 . S
H2424 C2430 0.930 . S
H2425 C2433 0.930 . S
H2426 C2434 0.930 . S
H2427 C2435 0.930 . S
H2428 C2438 0.930 . S
H2429 C2439 0.930 . S
C2430 H2424 0.930 . S
C2430 C2431 1.355 . S
C2430 C2432 1.415 . S
C2431 C2430 1.355 . S
C2431 C2433 1.419 . S
C2432 C2430 1.415 . S
C2432 C2437 1.425 . S
C2432 C2439 1.409 . S
C2433 H2425 0.930 . S
C2433 C2431 1.419 . S
C2433 C2434 1.362 . S
C2434 H2426 0.930 . S
C2434 C2433 1.362 . S
C2434 C2437 1.409 . S
C2435 H2427 0.930 . S
C2435 C2436 1.355 . S
C2435 C2437 1.415 . S
C2436 C2435 1.355 . S
C2436 C2438 1.419 . S
C2437 C2432 1.425 . S
C2437 C2434 1.409 . S
C2437 C2435 1.415 . S
C2438 H2428 0.930 . S
C2438 C2436 1.419 . S
C2438 C2439 1.362 . S
C2439 H2429 0.930 . S
C2439 C2432 1.409 . S
C2439 C2438 1.362 . S
H2440 C2446 0.930 . S
H2441 C2449 0.930 . S
H2442 C2450 0.930 . S
H2443 C2451 0.930 . S
H2444 C2454 0.930 . S
H2445 C2455 0.930 . S
C2446 H2440 0.930 . S
C2446 C2447 1.355 . S
C2446 C2448 1.415 . S
C2447 C2446 1.355 . S
C2447 C2449 1.419 . S
C2448 C2446 1.415 . S
C2448 C2453 1.425 . S
C2448 C2455 1.409 . S
C2449 H2441 0.930 . S
C2449 C2447 1.419 . S
C2449 C2450 1.362 . S
C2450 H2442 0.930 . S
C2450 C2449 1.362 . S
C2450 C2453 1.409 . S
C2451 H2443 0.930 . S
C2451 C2452 1.355 . S
C2451 C2453 1.415 . S
C2452 C2451 1.355 . S
C2452 C2454 1.419 . S
C2453 C2448 1.425 . S
C2453 C2450 1.409 . S
C2453 C2451 1.415 . S
C2454 H2444 0.930 . S
C2454 C2452 1.419 . S
C2454 C2455 1.362 . S
C2455 H2445 0.930 . S
C2455 C2448 1.409 . S
C2455 C2454 1.362 . S
H2456 C2462 0.930 . S
H2457 C2465 0.930 . S
H2458 C2466 0.930 . S
H2459 C2467 0.930 . S
H2460 C2470 0.930 . S
H2461 C2471 0.930 . S
C2462 H2456 0.930 . S
C2462 C2463 1.355 . S
C2462 C2464 1.415 . S
C2463 C2462 1.355 . S
C2463 C2465 1.419 . S
C2464 C2462 1.415 . S
C2464 C2469 1.425 . S
C2464 C2471 1.409 . S
C2465 H2457 0.930 . S
C2465 C2463 1.419 . S
C2465 C2466 1.362 . S
C2466 H2458 0.930 . S
C2466 C2465 1.362 . S
C2466 C2469 1.409 . S
C2467 H2459 0.930 . S
C2467 C2468 1.355 . S
C2467 C2469 1.415 . S
C2468 C2467 1.355 . S
C2468 C2470 1.419 . S
C2469 C2464 1.425 . S
C2469 C2466 1.409 . S
C2469 C2467 1.415 . S
C2470 H2460 0.930 . S
C2470 C2468 1.419 . S
C2470 C2471 1.362 . S
C2471 H2461 0.930 . S
C2471 C2464 1.409 . S
C2471 C2470 1.362 . S
H2472 C2478 0.930 . S
H2473 C2481 0.930 . S
H2474 C2482 0.930 . S
H2475 C2483 0.930 . S
H2476 C2486 0.930 . S
H2477 C2487 0.930 . S
C2478 H2472 0.930 . S
C2478 C2479 1.355 . S
C2478 C2480 1.415 . S
C2479 C2478 1.355 . S
C2479 C2481 1.419 . S
C2480 C2478 1.415 . S
C2480 C2485 1.425 . S
C2480 C2487 1.409 . S
C2481 H2473 0.930 . S
C2481 C2479 1.419 . S
C2481 C2482 1.362 . S
C2482 H2474 0.930 . S
C2482 C2481 1.362 . S
C2482 C2485 1.409 . S
C2483 H2475 0.930 . S
C2483 C2484 1.355 . S
C2483 C2485 1.415 . S
C2484 C2483 1.355 . S
C2484 C2486 1.419 . S
C2485 C2480 1.425 . S
C2485 C2482 1.409 . S
C2485 C2483 1.415 . S
C2486 H2476 0.930 . S
C2486 C2484 1.419 . S
C2486 C2487 1.362 . S
C2487 H2477 0.930 . S
C2487 C2480 1.409 . S
C2487 C2486 1.362 . S
H2488 C2494 0.930 . S
H2489 C2497 0.930 . S
H2490 C2498 0.930 . S
H2491 C2499 0.930 . S
H2492 C2502 0.930 . S
H2493 C2503 0.930 . S
C2494 H2488 0.930 . S
C2494 C2495 1.355 . S
C2494 C2496 1.415 . S
C2495 C2494 1.355 . S
C2495 C2497 1.419 . S
C2496 C2494 1.415 . S
C2496 C2501 1.425 . S
C2496 C2503 1.409 . S
C2497 H2489 0.930 . S
C2497 C2495 1.419 . S
C2497 C2498 1.362 . S
C2498 H2490 0.930 . S
C2498 C2497 1.362 . S
C2498 C2501 1.409 . S
C2499 H2491 0.930 . S
C2499 C2500 1.355 . S
C2499 C2501 1.415 . S
C2500 C2499 1.355 . S
C2500 C2502 1.419 . S
C2501 C2496 1.425 . S
C2501 C2498 1.409 . S
C2501 C2499 1.415 . S
C2502 H2492 0.930 . S
C2502 C2500 1.419 . S
C2502 C2503 1.362 . S
C2503 H2493 0.930 . S
C2503 C2496 1.409 . S
C2503 C2502 1.362 . S
H2504 C2510 0.930 . S
H2505 C2513 0.930 . S
H2506 C2514 0.930 . S
H2507 C2515 0.930 . S
H2508 C2518 0.922 1_565 S
H2509 C2519 0.930 . S
C2510 H2504 0.930 . S
C2510 C2511 1.355 . S
C2510 C2512 1.415 . S
C2511 C2510 1.355 . S
C2511 C2513 1.419 . S
C2512 C2510 1.415 . S
C2512 C2517 1.425 . S
C2512 C2519 1.409 . S
C2513 H2505 0.930 . S
C2513 C2511 1.419 . S
C2513 C2514 1.362 . S
C2514 H2506 0.930 . S
C2514 C2513 1.362 . S
C2514 C2517 1.409 . S
C2515 H2507 0.930 . S
C2515 C2516 1.355 . S
C2515 C2517 1.415 . S
C2516 C2515 1.355 . S
C2516 C2518 1.419 . S
C2517 C2512 1.425 . S
C2517 C2514 1.409 . S
C2517 C2515 1.415 . S
C2518 H2508 0.922 1_545 S
C2518 C2516 1.419 . S
C2518 C2519 1.362 . S
C2519 H2509 0.930 . S
C2519 C2512 1.409 . S
C2519 C2518 1.362 . S
C1375 C13 1.562 . S
C1380 C857 1.581 . S
C1391 C27 1.392 . S
C1396 C901 1.400 . S
C1412 C981 1.516 . S
C1407 C36 1.503 . S
C1423 C41 1.451 . S
C1428 C1025 1.494 . S
C1439 C8 1.597 . S
C1444 C1105 1.614 . S
C1455 C22 1.456 . S
C1460 C1167 1.507 . S
C1471 C55 1.507 . S
C1476 C1087 1.540 . S
C1492 C1149 1.454 . S
C1487 C69 1.429 . S
C1508 C1043 1.611 . S
C1503 C78 1.582 . S
C1519 C83 1.450 . S
C1524 C963 1.485 . S
C1540 C839 1.652 . S
C1535 C50 1.670 . S
C1551 C64 1.454 . S
C1556 C919 1.499 . S
C1567 C97 1.580 . S
C1572 C1229 1.602 . S
C1583 C111 1.400 . S
C1588 C1273 1.475 . S
C1604 C1353 1.560 . S
C1599 C120 1.542 . S
C1615 C125 1.486 . S
C1620 C299 1.511 . S
C1631 C92 1.729 . S
C1636 C343 1.733 . S
C1647 C106 1.494 . S
C1652 C423 1.550 . S
C1663 C139 1.516 . S
C1668 C361 1.609 . S
C1679 C153 1.404 . S
C1684 C405 1.438 . S
C1700 C281 1.578 . S
C1695 C162 1.545 . S
C1716 C1335 1.526 . S
C1711 C167 1.494 . S
C1732 C1211 1.683 . S
C1727 C134 1.732 . S
C1748 C1291 1.564 . S
C1743 C148 1.519 . S
C1759 C181 1.512 . S
C1764 C485 1.542 . S
C1775 C195 1.373 . S
C1780 C547 1.406 . S
C1791 C204 1.547 . S
C1796 C591 1.580 . S
C1807 C209 1.550 . S
C1812 C653 1.574 . S
C1828 C715 1.713 . S
C1823 C176 1.684 . S
C1844 C795 1.569 . S
C1839 C190 1.525 . S
C1860 C733 1.627 . S
C1855 C223 1.530 . S
C1876 C777 1.439 . S
C1871 C237 1.423 . S
C1887 C246 1.564 . S
C1892 C671 1.607 . S
C1908 C609 1.553 . S
C1903 C251 1.534 . S
C1919 C218 1.701 . S
C1924 C467 1.654 . S
C1940 C529 1.569 . S
C1935 C232 1.512 . S
C1956 C305 1.360 . S
C1951 C11 1.456 . S
C1967 C25 1.320 . S
C1972 C349 1.266 . S
C1988 C429 1.280 . S
C1983 C35 1.397 . S
C2004 C491 1.421 . S
C1999 C39 1.459 1_556 S
C2020 C553 1.387 . S
C2015 C7 1.507 1_556 S
C2036 C597 1.336 . S
C2031 C21 1.418 1_556 S
C2047 C53 1.462 1_556 S
C2052 C615 1.375 . S
C2063 C67 1.305 1_556 S
C2068 C473 1.259 . S
C2079 C77 1.380 1_556 S
C2084 C535 1.332 . S
C2095 C81 1.455 . S
C2100 C367 1.453 . S
C2116 C411 1.370 . S
C2111 C49 1.496 . S
C2127 C63 1.426 . S
C2132 C287 1.374 . S
C2148 C659 1.412 . S
C2143 C95 1.438 . S
C2159 C109 1.355 . S
C2164 C721 1.361 . S
C2175 C119 1.446 1_655 S
C2180 C801 1.405 . S
C2196 C863 1.251 . S
C2191 C123 1.335 . S
C2207 C91 1.487 . S
C2212 C907 1.380 . S
C2223 C105 1.344 . S
C2228 C987 1.252 . S
C2239 C137 1.389 . S
C2244 C969 1.352 . S
C2255 C151 1.234 . S
C2260 C845 1.225 . S
C2276 C925 1.317 . S
C2271 C161 1.390 . S
C2287 C165 1.485 . S
C2292 C739 1.418 . S
C2303 C133 1.496 1_545 S
C2308 C783 1.462 . S
C2324 C677 1.367 . S
C2319 C147 1.445 1_655 S
C2340 C1031 1.322 . S
C2335 C179 1.371 . S
C2351 C193 1.244 . S
C2356 C1111 1.243 . S
C2367 C203 1.396 . S
C2372 C1173 1.368 . S
C2388 C1235 1.352 . S
C2383 C207 1.414 . S
C2404 C1279 1.422 . S
C2399 C175 1.523 1_565 S
C2415 C189 1.499 . S
C2420 C1359 1.328 . S
C2431 C221 1.414 . S
C2436 C1341 1.313 . S
C2447 C235 1.368 . S
C2452 C1217 1.256 . S
C2468 C1297 1.341 . S
C2463 C245 1.427 1_455 S
C2484 C1093 1.224 . S
C2479 C249 1.336 . S
C2500 C1155 1.450 . S
C2495 C217 1.503 . S
C2511 C231 1.373 . S
C2516 C1049 1.275 . S
