# Generated by pormake.
# Topology ssa, (4,4)-cn, num edge types: 1
# Building blocks:
#     Node 0, Type 0, BuildingBlock: ESEHIV_clean_sbu_0, # of connection points: 4
#     Node 1, Type 0, BuildingBlock: ESEHIV_clean_sbu_0, # of connection points: 4
#     Node 2, Type 0, BuildingBlock: ESEHIV_clean_sbu_0, # of connection points: 4
#     Node 3, Type 0, BuildingBlock: ESEHIV_clean_sbu_0, # of connection points: 4
#     Node 4, Type 0, BuildingBlock: ESEHIV_clean_sbu_0, # of connection points: 4
#     Node 5, Type 0, BuildingBlock: ESEHIV_clean_sbu_0, # of connection points: 4
#     Node 6, Type 1, BuildingBlock: MIFKUJ_clean_linker_1, # of connection points: 4
#     Node 7, Type 1, BuildingBlock: MIFKUJ_clean_linker_1, # of connection points: 4
#     Node 8, Type 1, BuildingBlock: MIFKUJ_clean_linker_1, # of connection points: 4
#     Node 9, Type 1, BuildingBlock: MIFKUJ_clean_linker_1, # of connection points: 4
#     Node 10, Type 1, BuildingBlock: MIFKUJ_clean_linker_1, # of connection points: 4
#     Node 11, Type 1, BuildingBlock: MIFKUJ_clean_linker_1, # of connection points: 4
#     Edge 12, Type (0, 1), BuildingBlock: XIVTED_clean_linker_0, # of connection points: 2
#     Edge 13, Type (0, 1), BuildingBlock: XIVTED_clean_linker_0, # of connection points: 2
#     Edge 14, Type (0, 1), BuildingBlock: XIVTED_clean_linker_0, # of connection points: 2
#     Edge 15, Type (0, 1), BuildingBlock: XIVTED_clean_linker_0, # of connection points: 2
#     Edge 16, Type (0, 1), BuildingBlock: XIVTED_clean_linker_0, # of connection points: 2
#     Edge 17, Type (0, 1), BuildingBlock: XIVTED_clean_linker_0, # of connection points: 2
#     Edge 18, Type (0, 1), BuildingBlock: XIVTED_clean_linker_0, # of connection points: 2
#     Edge 19, Type (0, 1), BuildingBlock: XIVTED_clean_linker_0, # of connection points: 2
#     Edge 20, Type (0, 1), BuildingBlock: XIVTED_clean_linker_0, # of connection points: 2
#     Edge 21, Type (0, 1), BuildingBlock: XIVTED_clean_linker_0, # of connection points: 2
#     Edge 22, Type (0, 1), BuildingBlock: XIVTED_clean_linker_0, # of connection points: 2
#     Edge 23, Type (0, 1), BuildingBlock: XIVTED_clean_linker_0, # of connection points: 2
#     Edge 24, Type (0, 1), BuildingBlock: XIVTED_clean_linker_0, # of connection points: 2
#     Edge 25, Type (0, 1), BuildingBlock: XIVTED_clean_linker_0, # of connection points: 2
#     Edge 26, Type (0, 1), BuildingBlock: XIVTED_clean_linker_0, # of connection points: 2
#     Edge 27, Type (0, 1), BuildingBlock: XIVTED_clean_linker_0, # of connection points: 2
#     Edge 28, Type (0, 1), BuildingBlock: XIVTED_clean_linker_0, # of connection points: 2
#     Edge 29, Type (0, 1), BuildingBlock: XIVTED_clean_linker_0, # of connection points: 2
#     Edge 30, Type (0, 1), BuildingBlock: XIVTED_clean_linker_0, # of connection points: 2
#     Edge 31, Type (0, 1), BuildingBlock: XIVTED_clean_linker_0, # of connection points: 2
#     Edge 32, Type (0, 1), BuildingBlock: XIVTED_clean_linker_0, # of connection points: 2
#     Edge 33, Type (0, 1), BuildingBlock: XIVTED_clean_linker_0, # of connection points: 2
#     Edge 34, Type (0, 1), BuildingBlock: XIVTED_clean_linker_0, # of connection points: 2
#     Edge 35, Type (0, 1), BuildingBlock: XIVTED_clean_linker_0, # of connection points: 2
# Relax obj value: 0.007
# Max RMSD: 0.106
# Mean RMSD: 0.056
data_MOF--net-ssa--node1-ESEHIV_clean_sbu_0--node2-MIFKUJ_clean_linker_1--edge1-XIVTED_clean_linker_0
_symmetry_space_group_name_H-M    P1
_symmetry_Int_Tables_number       1
_symmetry_cell_setting            triclinic
loop_
_symmetry_equiv_pos_as_xyz
'x, y, z'
_cell_length_a     60.518245
_cell_length_b     64.154993
_cell_length_c     39.911582
_cell_angle_alpha  88.310928
_cell_angle_beta   90.872867
_cell_angle_gamma 121.9595
loop_
_atom_site_label
_atom_site_type_symbol
_atom_site_fract_x
_atom_site_fract_y
_atom_site_fract_z
_atom_type_partial_charge
Cu0 Cu 0.99267 0.49853 0.01392 0.0
N1 N 0.97101 0.46451 0.01614 0.0
N2 N 0.94462 0.42636 0.99838 0.0
C3 C 0.95876 0.45044 0.98969 0.0
C4 C 0.94806 0.42527 0.03175 0.0
C5 C 0.96451 0.44891 0.04264 0.0
O6 O 0.98291 0.50933 0.97318 0.0
C7 C 0.0367 0.49307 0.014 0.0
O8 O 0.02095 0.47178 1.00027 0.0
H9 H 0.96001 0.45785 0.96459 0.0
H10 H 0.97134 0.45435 0.06798 0.0
N11 N 0.98691 0.51225 0.05054 0.0
N12 N 0.99676 0.53987 0.08974 0.0
C13 C 1.00441 0.5348 0.06127 0.0
C14 C 0.96743 0.50249 0.07315 0.0
C15 C 0.97358 0.51956 0.09766 0.0
C16 C 0.98568 0.53032 0.96854 0.0
O17 O 0.99975 0.54783 0.98971 0.0
H18 H 0.02299 0.54689 0.04912 0.0
H19 H 0.9504 0.48409 0.07239 0.0
O20 O 0.02893 0.50781 0.01806 0.0
H21 H 0.93962 0.40861 0.0471 0.0
H22 H 0.96217 0.51714 0.1197 0.0
Cu23 Cu 0.49737 0.99481 0.50716 0.0
N24 N 0.51806 0.99529 0.4726 0.0
N25 N 0.53523 0.98065 0.43821 0.0
C26 C 0.51938 0.97575 0.46457 0.0
C27 C 0.54402 0.0042 0.42896 0.0
C28 C 0.5334 0.01323 0.45033 0.0
O29 O 0.46486 0.96346 0.5037 0.0
C30 C 0.5355 0.99943 0.55487 0.0
O31 O 0.54504 0.99292 0.53085 0.0
H32 H 0.50862 0.95816 0.47775 0.0
H33 H 0.53653 0.03147 0.44961 0.0
N34 N 0.49229 0.02112 0.50349 0.0
N35 N 0.48845 0.05189 0.52086 0.0
C36 C 0.4965 0.03635 0.52864 0.0
C37 C 0.48146 0.0274 0.47864 0.0
C38 C 0.47889 0.04632 0.48942 0.0
C39 C 0.44225 0.96024 0.50295 0.0
O40 O 0.43935 0.97857 0.50968 0.0
H41 H 0.50412 0.03523 0.55288 0.0
H42 H 0.47493 0.01821 0.45498 0.0
O43 O 0.51425 0.99866 0.55015 0.0
H44 H 0.55736 0.01426 0.40852 0.0
H45 H 0.47027 0.05499 0.47547 0.0
Cu46 Cu 0.51841 0.50598 0.02185 0.0
N47 N 0.51479 0.47517 0.02322 0.0
N48 N 0.51097 0.44107 0.00377 0.0
C49 C 0.51622 0.46388 0.99616 0.0
C50 C 0.50613 0.43789 0.03705 0.0
C51 C 0.50866 0.45905 0.04904 0.0
O52 O 0.54 0.5232 0.98291 0.0
C53 C 0.46313 0.48292 0.02349 0.0
O54 O 0.46248 0.46213 0.02464 0.0
H55 H 0.52011 0.47197 0.9711 0.0
H56 H 0.50557 0.46223 0.07454 0.0
N57 N 0.53381 0.52363 0.06065 0.0
N58 N 0.5461 0.55335 0.09776 0.0
C59 C 0.53172 0.54245 0.07024 0.0
C60 C 0.54981 0.52221 0.08306 0.0
C61 C 0.5574 0.54052 0.10607 0.0
C62 C 0.562 0.54326 0.98431 0.0
O63 O 0.56955 0.55508 0.01256 0.0
H64 H 0.52013 0.54822 0.05675 0.0
H65 H 0.55604 0.50924 0.0822 0.0
O66 O 0.48481 0.50304 0.01912 0.0
H67 H 0.50102 0.42143 0.05162 0.0
H68 H 0.57089 0.54457 0.12656 0.0
Cu69 Cu 0.00983 0.49563 0.53261 0.0
N70 N 0.03896 0.49303 0.5324 0.0
N71 N 0.07142 0.49137 0.50951 0.0
C72 C 0.04835 0.48946 0.50434 0.0
C73 C 0.07672 0.49631 0.54237 0.0
C74 C 0.0566 0.49734 0.55646 0.0
O75 O 0.01141 0.51116 0.48916 0.0
C76 C 0.97872 0.45437 0.57113 0.0
O77 O 0.99943 0.4667 0.5901 0.0
H78 H 0.03908 0.48697 0.48014 0.0
H79 H 0.05542 0.50187 0.58199 0.0
N80 N 0.01226 0.5162 0.56631 0.0
N81 N 0.99804 0.53208 0.60294 0.0
C82 C 0.99166 0.51296 0.5833 0.0
C83 C 0.03258 0.53812 0.57554 0.0
C84 C 0.02379 0.54806 0.59815 0.0
C85 C 0.00997 0.53021 0.48558 0.0
O86 O 1.00031 0.53626 0.51003 0.0
H87 H 0.972 0.49757 0.5796 0.0
H88 H 0.05204 0.54673 0.56535 0.0
O89 O 0.97877 0.46326 0.54209 0.0
H90 H 0.09412 0.49954 0.55514 0.0
H91 H 0.03524 0.56589 0.60939 0.0
Cu92 Cu 0.50521 1.00019 0.04369 0.0
N93 N 0.49505 0.02303 0.04267 0.0
N94 N 0.48624 0.05039 0.02133 0.0
C95 C 0.49539 0.03579 0.01517 0.0
C96 C 0.48005 0.04691 0.05421 0.0
C97 C 0.48538 0.02984 0.06731 0.0
O98 O 0.52909 0.00801 0.0066 0.0
C99 C 0.4516 0.9608 0.04496 0.0
O100 O 0.44645 0.97707 0.03303 0.0
H101 H 0.50245 0.03457 0.99107 0.0
H102 H 0.48209 0.02265 0.09281 0.0
N103 N 0.52488 0.00345 0.08151 0.0
N104 N 0.54724 0.99362 0.11652 0.0
C105 C 0.53464 0.98915 0.087 0.0
C106 C 0.53151 0.0177 0.10847 0.0
C107 C 0.54527 0.01154 0.13034 0.0
C108 C 0.525 0.00738 0.97517 0.0
O109 O 0.50104 0.99727 0.96393 0.0
H110 H 0.5316 0.97501 0.07002 0.0
H111 H 0.52641 0.03127 0.11225 0.0
O112 O 0.47521 0.96663 0.04736 0.0
H113 H 0.47178 0.05563 0.06758 0.0
H114 H 0.553 0.01946 0.15451 0.0
Cu115 Cu 0.51411 0.49751 0.48425 0.0
N116 N 0.53906 0.5176 0.45252 0.0
N117 N 0.55999 0.54934 0.4166 0.0
C118 C 0.53709 0.53326 0.43148 0.0
C119 C 0.57707 0.5435 0.42856 0.0
C120 C 0.56399 0.52369 0.45062 0.0
O121 O 0.48335 0.49928 0.47436 0.0
C122 C 0.54803 0.52985 0.53463 0.0
O123 O 0.55415 0.5475 0.51223 0.0
H124 H 0.51986 0.53434 0.42955 0.0
H125 H 0.57245 0.51558 0.46613 0.0
N126 N 0.50689 0.46567 0.4813 0.0
N127 N 0.49911 0.42921 0.49957 0.0
C128 C 0.49914 0.44953 0.50727 0.0
C129 C 0.51191 0.45527 0.45613 0.0
C130 C 0.50716 0.43269 0.46741 0.0
C131 C 0.46121 0.4806 0.46706 0.0
O132 O 0.45745 0.45855 0.47081 0.0
H133 H 0.49521 0.45335 0.53198 0.0
H134 H 0.51963 0.46398 0.43191 0.0
O135 O 0.52941 0.50811 0.52854 0.0
H136 H 0.59774 0.55368 0.42322 0.0
H137 H 0.51017 0.42019 0.45343 0.0
H138 H 0.1992 0.46109 0.18167 0.0
H139 H 0.16626 0.46151 0.14617 0.0
H140 H 0.19349 0.53544 0.17677 0.0
H141 H 0.22571 0.53439 0.21323 0.0
H142 H 0.25165 0.49149 0.17559 0.0
H143 H 0.1883 0.46809 0.26223 0.0
H144 H 0.15886 0.46734 0.30408 0.0
H145 H 0.21938 0.53955 0.33558 0.0
H146 H 0.24888 0.53985 0.29419 0.0
H147 H 0.31391 0.53493 0.29576 0.0
H148 H 0.34529 0.53295 0.33271 0.0
H149 H 0.32262 0.46236 0.29302 0.0
H150 H 0.29053 0.46405 0.25704 0.0
H151 H 0.2634 0.50641 0.29749 0.0
H152 H 0.32811 0.52661 0.21374 0.0
H153 H 0.35801 0.52305 0.17736 0.0
H154 H 0.29357 0.45513 0.13957 0.0
H155 H 0.264 0.4583 0.17697 0.0
C156 C 0.21488 0.49765 0.20026 0.0
C157 C 0.19787 0.47729 0.18097 0.0
C158 C 0.17917 0.47768 0.16038 0.0
C159 C 0.17725 0.49863 0.15811 0.0
C160 C 0.19404 0.51884 0.17804 0.0
C161 C 0.21257 0.51831 0.19894 0.0
C162 C 0.23626 0.49794 0.21961 0.0
C163 C 0.25404 0.49442 0.20238 0.0
C164 C 0.23988 0.50252 0.25429 0.0
C165 C 0.22075 0.50405 0.27506 0.0
C166 C 0.195 0.48401 0.2776 0.0
C167 C 0.17819 0.48361 0.30161 0.0
C168 C 0.18684 0.50327 0.32352 0.0
C169 C 0.21226 0.52387 0.31964 0.0
C170 C 0.22907 0.52419 0.29578 0.0
C171 C 0.2999 0.49973 0.27335 0.0
C172 C 0.3158 0.51908 0.29484 0.0
C173 C 0.3339 0.51799 0.31586 0.0
C174 C 0.33652 0.49745 0.31601 0.0
C175 C 0.32093 0.47831 0.29395 0.0
C176 C 0.30278 0.47941 0.27296 0.0
C177 C 0.27894 0.50001 0.25354 0.0
C178 C 0.26121 0.50367 0.27065 0.0
C179 C 0.27533 0.49541 0.21876 0.0
C180 C 0.29383 0.49261 0.19833 0.0
C181 C 0.32051 0.51073 0.19808 0.0
C182 C 0.33752 0.50884 0.1769 0.0
C183 C 0.32817 0.48887 0.15539 0.0
C184 C 0.30149 0.4706 0.15605 0.0
C185 C 0.28452 0.47247 0.17727 0.0
H186 H 0.70164 0.19814 0.82661 0.0
H187 H 0.66777 0.16294 0.859 0.0
H188 H 0.68074 0.11415 0.80226 0.0
H189 H 0.71557 0.14952 0.77085 0.0
H190 H 0.75097 0.21815 0.81987 0.0
H191 H 0.67885 0.17908 0.74484 0.0
H192 H 0.64434 0.14196 0.71888 0.0
H193 H 0.70211 0.13647 0.664 0.0
H194 H 0.73661 0.17274 0.69205 0.0
H195 H 0.80116 0.24255 0.68863 0.0
H196 H 0.83411 0.27892 0.65689 0.0
H197 H 0.81642 0.32439 0.71408 0.0
H198 H 0.78317 0.28802 0.74519 0.0
H199 H 0.75069 0.22021 0.69556 0.0
H200 H 0.82327 0.2618 0.77355 0.0
H201 H 0.85529 0.29374 0.81046 0.0
H202 H 0.79329 0.29546 0.85996 0.0
H203 H 0.76152 0.26368 0.82316 0.0
C204 C 0.71106 0.1766 0.79589 0.0
C205 C 0.69749 0.17993 0.82133 0.0
C206 C 0.67806 0.1598 0.83977 0.0
C207 C 0.67152 0.13582 0.83295 0.0
C208 C 0.68517 0.13242 0.80772 0.0
C209 C 0.70503 0.15264 0.78973 0.0
C210 C 0.73121 0.19823 0.77573 0.0
C211 C 0.75071 0.21871 0.79267 0.0
C212 C 0.73122 0.1989 0.7402 0.0
C213 C 0.71031 0.17838 0.72088 0.0
C214 C 0.68406 0.16983 0.72725 0.0
C215 C 0.66431 0.14867 0.71211 0.0
C216 C 0.67036 0.13596 0.68952 0.0
C217 C 0.6967 0.14536 0.6819 0.0
C218 C 0.71648 0.16633 0.6975 0.0
C219 C 0.78998 0.26249 0.71989 0.0
C220 C 0.80421 0.26031 0.69418 0.0
C221 C 0.823 0.28111 0.67595 0.0
C222 C 0.82804 0.30458 0.68313 0.0
C223 C 0.81333 0.30664 0.70831 0.0
C224 C 0.79437 0.28583 0.72624 0.0
C225 C 0.77043 0.24037 0.7398 0.0
C226 C 0.75101 0.21972 0.72275 0.0
C227 C 0.77019 0.23974 0.77534 0.0
C228 C 0.79002 0.26039 0.79558 0.0
C229 C 0.81666 0.26933 0.79205 0.0
C230 C 0.83491 0.28755 0.81316 0.0
C231 C 0.82675 0.29692 0.83833 0.0
C232 C 0.80013 0.28828 0.84125 0.0
C233 C 0.78197 0.27021 0.82013 0.0
H234 H 0.59889 0.82828 0.3424 0.0
H235 H 0.59417 0.85944 0.36987 0.0
H236 H 0.53066 0.84401 0.30318 0.0
H237 H 0.53514 0.81273 0.27632 0.0
H238 H 0.56844 0.77923 0.33178 0.0
H239 H 0.61152 0.85216 0.2653 0.0
H240 H 0.6134 0.88839 0.24044 0.0
H241 H 0.55075 0.84184 0.17329 0.0
H242 H 0.54843 0.80556 0.19883 0.0
H243 H 0.53798 0.73577 0.20634 0.0
H244 H 0.53398 0.7003 0.17892 0.0
H245 H 0.60549 0.71512 0.22606 0.0
H246 H 0.60942 0.75066 0.25317 0.0
H247 H 0.57867 0.78756 0.20787 0.0
H248 H 0.53103 0.71636 0.28897 0.0
H249 H 0.53052 0.68013 0.31073 0.0
H250 H 0.60988 0.72683 0.3451 0.0
H251 H 0.60961 0.76295 0.32455 0.0
C252 C 0.56765 0.81842 0.30695 0.0
C253 C 0.58372 0.83138 0.33405 0.0
C254 C 0.58104 0.84921 0.34965 0.0
C255 C 0.56229 0.85443 0.33835 0.0
C256 C 0.54565 0.8408 0.312 0.0
C257 C 0.54813 0.82284 0.29672 0.0
C258 C 0.57205 0.80131 0.28792 0.0
C259 C 0.57106 0.78133 0.30481 0.0
C260 C 0.57586 0.80407 0.25269 0.0
C261 C 0.57953 0.82612 0.23429 0.0
C262 C 0.59827 0.84976 0.24511 0.0
C263 C 0.59932 0.87042 0.23098 0.0
C264 C 0.58208 0.86785 0.2052 0.0
C265 C 0.56435 0.84432 0.19305 0.0
C266 C 0.56305 0.82361 0.20754 0.0
C267 C 0.57387 0.74575 0.232 0.0
C268 C 0.55301 0.73161 0.2103 0.0
C269 C 0.55074 0.7113 0.1947 0.0
C270 C 0.5693 0.70472 0.20051 0.0
C271 C 0.59061 0.7194 0.22151 0.0
C272 C 0.59296 0.7398 0.23689 0.0
C273 C 0.57437 0.76532 0.25166 0.0
C274 C 0.57634 0.78575 0.23489 0.0
C275 C 0.5722 0.76339 0.28701 0.0
C276 C 0.57032 0.74221 0.30533 0.0
C277 C 0.54802 0.71872 0.302 0.0
C278 C 0.54796 0.69804 0.31398 0.0
C279 C 0.57034 0.70047 0.32918 0.0
C280 C 0.59223 0.72422 0.33383 0.0
C281 C 0.59213 0.74493 0.32218 0.0
H282 H 0.72027 0.51524 0.70018 0.0
H283 H 0.68359 0.51227 0.66911 0.0
H284 H 0.70264 0.58223 0.70733 0.0
H285 H 0.73974 0.58538 0.73754 0.0
H286 H 0.77365 0.54995 0.69746 0.0
H287 H 0.70401 0.51809 0.78259 0.0
H288 H 0.67061 0.52021 0.81317 0.0
H289 H 0.72841 0.5942 0.84215 0.0
H290 H 0.76177 0.59141 0.81259 0.0
H291 H 0.82752 0.58221 0.8269 0.0
H292 H 0.86089 0.57912 0.85797 0.0
H293 H 0.84067 0.51395 0.80373 0.0
H294 H 0.80646 0.51632 0.77453 0.0
H295 H 0.77598 0.55427 0.82161 0.0
H296 H 0.84634 0.58654 0.74531 0.0
H297 H 0.88237 0.58525 0.72106 0.0
H298 H 0.8273 0.51762 0.67243 0.0
H299 H 0.7913 0.51865 0.69773 0.0
C300 C 0.73266 0.55043 0.72141 0.0
C301 C 0.71665 0.53002 0.70166 0.0
C302 C 0.6955 0.52823 0.68419 0.0
C303 C 0.68998 0.54692 0.6859 0.0
C304 C 0.70637 0.56757 0.70525 0.0
C305 C 0.7275 0.56932 0.72276 0.0
C306 C 0.75427 0.55154 0.74128 0.0
C307 C 0.77403 0.55069 0.72459 0.0
C308 C 0.75545 0.55348 0.77658 0.0
C309 C 0.73529 0.55458 0.79545 0.0
C310 C 0.7094 0.5347 0.79566 0.0
C311 C 0.69031 0.53607 0.81289 0.0
C312 C 0.69674 0.55743 0.83009 0.0
C313 C 0.72278 0.57732 0.82968 0.0
C314 C 0.74189 0.57582 0.81273 0.0
C315 C 0.81465 0.54971 0.79798 0.0
C316 C 0.8301 0.5671 0.82203 0.0
C317 C 0.84943 0.56546 0.83949 0.0
C318 C 0.85377 0.54639 0.83327 0.0
C319 C 0.83786 0.52875 0.80959 0.0
C320 C 0.8184 0.53026 0.79249 0.0
C321 C 0.79505 0.55207 0.7779 0.0
C322 C 0.77574 0.55369 0.79447 0.0
C323 C 0.79469 0.55155 0.7424 0.0
C324 C 0.81618 0.55251 0.72367 0.0
C325 C 0.84204 0.57156 0.72916 0.0
C326 C 0.86262 0.57087 0.71512 0.0
C327 C 0.8577 0.55119 0.6951 0.0
C328 C 0.83172 0.53279 0.68825 0.0
C329 C 0.81112 0.53348 0.70235 0.0
H330 H 0.24864 0.80752 0.21572 0.0
H331 H 0.28279 0.83825 0.1787 0.0
H332 H 0.33427 0.81458 0.21379 0.0
H333 H 0.30029 0.78476 0.25193 0.0
H334 H 0.22633 0.75733 0.21415 0.0
H335 H 0.27039 0.82124 0.29177 0.0
H336 H 0.30301 0.85245 0.32855 0.0
H337 H 0.31479 0.79777 0.37644 0.0
H338 H 0.28284 0.76684 0.33873 0.0
H339 H 0.21091 0.69999 0.3347 0.0
H340 H 0.17463 0.66477 0.36438 0.0
H341 H 0.12263 0.68723 0.3275 0.0
H342 H 0.1591 0.72271 0.29877 0.0
H343 H 0.23308 0.75083 0.33762 0.0
H344 H 0.18901 0.68728 0.25704 0.0
H345 H 0.14891 0.65539 0.23078 0.0
H346 H 0.13417 0.71071 0.19288 0.0
H347 H 0.17435 0.7426 0.21947 0.0
C348 C 0.27192 0.79391 0.23674 0.0
C349 C 0.2674 0.80916 0.21563 0.0
C350 C 0.28696 0.82659 0.19417 0.0
C351 C 0.31143 0.82891 0.19274 0.0
C352 C 0.31594 0.81374 0.21434 0.0
C353 C 0.29646 0.79654 0.23619 0.0
C354 C 0.25041 0.77413 0.25752 0.0
C355 C 0.2278 0.75615 0.24119 0.0
C356 C 0.25236 0.77221 0.29277 0.0
C357 C 0.27432 0.79171 0.31224 0.0
C358 C 0.28048 0.81609 0.30958 0.0
C359 C 0.29886 0.83385 0.33101 0.0
C360 C 0.31134 0.82756 0.35568 0.0
C361 C 0.30572 0.8033 0.35757 0.0
C362 C 0.28737 0.78556 0.33612 0.0
C363 C 0.18772 0.71391 0.31432 0.0
C364 C 0.19175 0.69747 0.33337 0.0
C365 C 0.1709 0.67718 0.34999 0.0
C366 C 0.14561 0.673 0.34812 0.0
C367 C 0.14183 0.68992 0.32972 0.0
C368 C 0.16265 0.71017 0.31311 0.0
C369 C 0.20936 0.73419 0.29421 0.0
C370 C 0.2319 0.75209 0.31056 0.0
C371 C 0.20741 0.7362 0.25905 0.0
C372 C 0.18445 0.71725 0.24048 0.0
C373 C 0.17713 0.69253 0.24306 0.0
C374 C 0.15415 0.67433 0.22824 0.0
C375 C 0.13823 0.68054 0.21017 0.0
C376 C 0.14608 0.70541 0.20662 0.0
C377 C 0.16903 0.72362 0.22167 0.0
H378 H 0.53236 0.29427 0.81674 0.0
H379 H 0.53565 0.3262 0.85243 0.0
H380 H 0.45733 0.30514 0.82488 0.0
H381 H 0.45422 0.27327 0.78898 0.0
H382 H 0.49531 0.24391 0.82556 0.0
H383 H 0.52422 0.306 0.73624 0.0
H384 H 0.52463 0.33582 0.69599 0.0
H385 H 0.44503 0.28267 0.66907 0.0
H386 H 0.44475 0.25293 0.70927 0.0
H387 H 0.44912 0.192 0.69956 0.0
H388 H 0.4499 0.16318 0.66227 0.0
H389 H 0.51745 0.17207 0.71447 0.0
H390 H 0.51788 0.20259 0.74972 0.0
H391 H 0.47971 0.23684 0.70309 0.0
H392 H 0.45209 0.17271 0.78662 0.0
H393 H 0.45037 0.14223 0.82667 0.0
H394 H 0.52476 0.19757 0.86703 0.0
H395 H 0.52648 0.22787 0.82692 0.0
C396 C 0.49311 0.28148 0.80007 0.0
C397 C 0.51603 0.29674 0.81806 0.0
C398 C 0.5179 0.31502 0.83835 0.0
C399 C 0.49672 0.31814 0.84154 0.0
C400 C 0.4739 0.30305 0.82311 0.0
C401 C 0.47217 0.28499 0.8024 0.0
C402 C 0.49045 0.2607 0.78107 0.0
C403 C 0.49224 0.24242 0.79866 0.0
C404 C 0.48533 0.25828 0.74635 0.0
C405 C 0.48442 0.27735 0.72576 0.0
C406 C 0.50671 0.30098 0.72215 0.0
C407 C 0.507 0.31788 0.69899 0.0
C408 C 0.48491 0.31146 0.67932 0.0
C409 C 0.46225 0.28814 0.68407 0.0
C410 C 0.46209 0.27116 0.70692 0.0
C411 C 0.48335 0.19957 0.72777 0.0
C412 C 0.46414 0.18778 0.70304 0.0
C413 C 0.46444 0.17095 0.68184 0.0
C414 C 0.48378 0.1651 0.68503 0.0
C415 C 0.5025 0.17632 0.71061 0.0
C416 C 0.50247 0.19353 0.73141 0.0
C417 C 0.48462 0.21964 0.74746 0.0
C418 C 0.48256 0.23793 0.73003 0.0
C419 C 0.48917 0.22183 0.78252 0.0
C420 C 0.48945 0.20258 0.8037 0.0
C421 C 0.46828 0.17814 0.80361 0.0
C422 C 0.46728 0.16076 0.82657 0.0
C423 C 0.4873 0.1676 0.85022 0.0
C424 C 0.50883 0.19187 0.84952 0.0
C425 C 0.50989 0.20916 0.82649 0.0
H426 H 0.06669 0.52808 0.06006 0.0
H427 H 0.16151 0.47821 0.09581 0.0
H428 H 0.0615 0.46794 0.0071 0.0
H429 H 0.14953 0.52127 0.1661 0.0
H430 H 0.12964 0.47892 0.05839 0.0
H431 H 0.10249 0.53112 0.09349 0.0
C432 C 0.07334 0.51577 0.05502 0.0
C433 C 0.06093 0.49764 0.03074 0.0
C434 C 0.13404 0.48824 0.08199 0.0
C435 C 0.10187 0.50097 0.06921 0.0
C436 C 0.15213 0.4877 0.10361 0.0
C437 C 0.15821 0.49948 0.13457 0.0
C438 C 0.12202 0.5009 0.09102 0.0
C439 C 0.14582 0.51209 0.1425 0.0
C440 C 0.09365 0.51741 0.07435 0.0
C441 C 0.07037 0.48213 0.02559 0.0
N442 N 0.12835 0.51244 0.12093 0.0
N443 N 0.09018 0.4841 0.04471 0.0
H444 H 0.52594 0.02372 0.60218 0.0
H445 H 0.67088 0.0946 0.67439 0.0
H446 H 0.58376 0.00807 0.57165 0.0
H447 H 0.62152 0.12454 0.66986 0.0
H448 H 0.63632 0.05754 0.64768 0.0
H449 H 0.55769 0.05448 0.64003 0.0
C450 C 0.54513 0.02636 0.60389 0.0
C451 C 0.55234 0.01359 0.58319 0.0
C452 C 0.6331 0.07221 0.65281 0.0
C453 C 0.58876 0.0489 0.62641 0.0
C454 C 0.65288 0.09349 0.66776 0.0
C455 C 0.6493 0.11295 0.67421 0.0
C456 C 0.60945 0.07021 0.64464 0.0
C457 C 0.62519 0.11003 0.66584 0.0
C458 C 0.56329 0.04406 0.62537 0.0
C459 C 0.57746 0.0177 0.58681 0.0
N460 N 0.60624 0.08911 0.65147 0.0
N461 N 0.59491 0.03523 0.60773 0.0
H462 H 0.56118 0.5679 0.16198 0.0
H463 H 0.55369 0.68855 0.13658 0.0
H464 H 0.53973 0.58887 0.06915 0.0
H465 H 0.57779 0.67005 0.22925 0.0
H466 H 0.54802 0.65164 0.11195 0.0
H467 H 0.56735 0.60491 0.18741 0.0
C468 C 0.55783 0.58025 0.14689 0.0
C469 C 0.54978 0.57505 0.11334 0.0
C470 C 0.55459 0.65563 0.13766 0.0
C471 C 0.55665 0.61746 0.14241 0.0
C472 C 0.55771 0.67668 0.15181 0.0
C473 C 0.56625 0.68248 0.18505 0.0
C474 C 0.55995 0.64009 0.15684 0.0
C475 C 0.5715 0.66651 0.20338 0.0
C476 C 0.56126 0.60136 0.16148 0.0
C477 C 0.54549 0.59172 0.09519 0.0
N478 N 0.56822 0.64605 0.18908 0.0
N479 N 0.54898 0.61208 0.10992 0.0
H480 H 0.95394 0.49689 0.63366 0.0
H481 H 0.90491 0.58795 0.66973 0.0
H482 H 1.00056 0.57498 0.61327 0.0
H483 H 0.86053 0.51009 0.69312 0.0
H484 H 0.94094 0.58418 0.65103 0.0
H485 H 0.92047 0.50197 0.6582 0.0
C486 C 0.95716 0.51515 0.63456 0.0
C487 C 0.97992 0.53551 0.62117 0.0
C488 C 0.92333 0.56794 0.66029 0.0
C489 C 0.94164 0.54154 0.64909 0.0
C490 C 0.90276 0.57008 0.67102 0.0
C491 C 0.87957 0.54927 0.6828 0.0
C492 C 0.92069 0.54483 0.66137 0.0
C493 C 0.87782 0.52655 0.68363 0.0
C494 C 0.93807 0.51807 0.6486 0.0
C495 C 0.98334 0.55883 0.62346 0.0
N496 N 0.89806 0.52495 0.67303 0.0
N497 N 0.96426 0.56119 0.63685 0.0
H498 H 0.45701 0.93053 0.08977 0.0
H499 H 0.30492 0.84334 0.12934 0.0
H500 H 0.39864 0.93953 0.04002 0.0
H501 H 0.36499 0.85536 0.20027 0.0
H502 H 0.33849 0.8733 0.09095 0.0
H503 H 0.42282 0.89694 0.12403 0.0
C504 C 0.43697 0.92518 0.08558 0.0
C505 C 0.43073 0.93799 0.06199 0.0
C506 C 0.34427 0.86929 0.11491 0.0
C507 C 0.3915 0.89955 0.10137 0.0
C508 C 0.32508 0.8523 0.13709 0.0
C509 C 0.33189 0.84677 0.16854 0.0
C510 C 0.37062 0.88071 0.12381 0.0
C511 C 0.35858 0.85862 0.17633 0.0
C512 C 0.41749 0.90613 0.1054 0.0
C513 C 0.40439 0.93027 0.05796 0.0
N514 N 0.3769 0.87495 0.15417 0.0
N515 N 0.38576 0.91161 0.07748 0.0
H516 H 0.52384 0.4042 0.50093 0.0
H517 H 0.44914 0.32429 0.66502 0.0
H518 H 0.46519 0.41046 0.55139 0.0
H519 H 0.52284 0.33667 0.63221 0.0
H520 H 0.45087 0.35139 0.61913 0.0
H521 H 0.5194 0.37426 0.54408 0.0
C522 C 0.50976 0.39899 0.52083 0.0
C523 C 0.49492 0.40985 0.52274 0.0
C524 C 0.46667 0.34819 0.62205 0.0
C525 C 0.48989 0.37587 0.57222 0.0
C526 C 0.46566 0.33273 0.64814 0.0
C527 C 0.48597 0.32841 0.65249 0.0
C528 C 0.48795 0.3591 0.5999 0.0
C529 C 0.50697 0.33981 0.62999 0.0
C530 C 0.50741 0.3821 0.5456 0.0
C531 C 0.47719 0.40268 0.54929 0.0
N532 N 0.50738 0.35456 0.60458 0.0
N533 N 0.47516 0.38614 0.57302 0.0
H534 H 0.54701 0.97944 0.3731 0.0
H535 H 0.56321 0.86416 0.40502 0.0
H536 H 0.53727 0.9437 0.46972 0.0
H537 H 0.55658 0.88972 0.30639 0.0
H538 H 0.55847 0.89613 0.42949 0.0
H539 H 0.55534 0.94964 0.34849 0.0
C540 C 0.54681 0.96545 0.38916 0.0
C541 C 0.54124 0.96395 0.42347 0.0
C542 C 0.55807 0.89477 0.40249 0.0
C543 C 0.55071 0.9298 0.39556 0.0
C544 C 0.56092 0.8766 0.38851 0.0
C545 C 0.56013 0.87416 0.35362 0.0
C546 C 0.55465 0.9108 0.38144 0.0
C547 C 0.55692 0.8907 0.33344 0.0
C548 C 0.5514 0.94836 0.37509 0.0
C549 C 0.54104 0.94531 0.44308 0.0
N550 N 0.55432 0.90831 0.34763 0.0
N551 N 0.5457 0.929 0.42888 0.0
H552 H 0.61314 0.58071 0.98291 0.0
H553 H 0.64521 0.53826 0.81364 0.0
H554 H 0.55434 0.52179 0.92324 0.0
H555 H 0.70202 0.57946 0.89015 0.0
H556 H 0.61187 0.53833 0.84742 0.0
H557 H 0.64596 0.58747 0.94195 0.0
C558 C 0.60702 0.56945 0.96093 0.0
C559 C 0.58097 0.55041 0.95677 0.0
C560 C 0.6317 0.5475 0.85659 0.0
C561 C 0.61855 0.558 0.90991 0.0
C562 C 0.65074 0.54733 0.83748 0.0
C563 C 0.67652 0.55868 0.84913 0.0
C564 C 0.63851 0.55928 0.88746 0.0
C565 C 0.68256 0.57069 0.87986 0.0
C566 C 0.62583 0.57325 0.93765 0.0
C567 C 0.57423 0.53652 0.92764 0.0
N568 N 0.66369 0.57058 0.89797 0.0
N569 N 0.59296 0.54044 0.90545 0.0
H570 H 0.04145 0.52864 0.43803 0.0
H571 H 0.10501 0.67014 0.38249 0.0
H572 H 0.01413 0.57434 0.47231 0.0
H573 H 0.13504 0.62569 0.35245 0.0
H574 H 0.06891 0.6341 0.41082 0.0
H575 H 0.07253 0.56249 0.40129 0.0
C576 C 0.04159 0.54561 0.4374 0.0
C577 C 0.02519 0.54863 0.45856 0.0
C578 C 0.08333 0.63219 0.39793 0.0
C579 C 0.06114 0.5877 0.4168 0.0
C580 C 0.10394 0.65277 0.3816 0.0
C581 C 0.12326 0.65106 0.36514 0.0
C582 C 0.08189 0.60959 0.39785 0.0
C583 C 0.1209 0.62805 0.36527 0.0
C584 C 0.05953 0.56502 0.41656 0.0
C585 C 0.02644 0.57115 0.45663 0.0
N586 N 0.10068 0.60828 0.3814 0.0
N587 N 0.04425 0.58984 0.43642 0.0
H588 H 0.47605 0.04266 0.9551 0.0
H589 H 0.49814 0.17527 0.9171 0.0
H590 H 0.49045 0.09392 0.03248 0.0
H591 H 0.47205 0.11941 0.84283 0.0
H592 H 0.49589 0.14604 0.95968 0.0
H593 H 0.47469 0.07065 0.91366 0.0
C594 C 0.47896 0.05986 0.96336 0.0
C595 C 0.48363 0.0661 0.99724 0.0
C596 C 0.49056 0.14013 0.93411 0.0
C597 C 0.482 0.09826 0.9499 0.0
C598 C 0.49203 0.15686 0.90974 0.0
C599 C 0.48545 0.1498 0.87631 0.0
C600 C 0.48263 0.11619 0.92498 0.0
C601 C 0.47718 0.12558 0.86831 0.0
C602 C 0.47802 0.07578 0.93971 0.0
C603 C 0.48671 0.08839 0.00664 0.0
N604 N 0.47616 0.1097 0.89243 0.0
N605 N 0.48606 0.10379 0.98303 0.0
H606 H 0.41114 0.44494 0.45149 0.0
H607 H 0.38557 0.53419 0.33552 0.0
H608 H 0.46591 0.52313 0.44158 0.0
H609 H 0.32926 0.45678 0.35122 0.0
H610 H 0.41478 0.53088 0.3753 0.0
H611 H 0.38037 0.44935 0.41648 0.0
C612 C 0.41662 0.46311 0.44226 0.0
C613 C 0.44124 0.48368 0.44948 0.0
C614 C 0.39601 0.51462 0.37008 0.0
C615 C 0.40606 0.48884 0.40882 0.0
C616 C 0.37924 0.5165 0.34741 0.0
C617 C 0.35484 0.49571 0.33979 0.0
C618 C 0.38843 0.49177 0.38534 0.0
C619 C 0.34799 0.47324 0.35575 0.0
C620 C 0.39903 0.4656 0.42214 0.0
C621 C 0.44716 0.50675 0.43677 0.0
N622 N 0.36466 0.47189 0.37765 0.0
N623 N 0.42979 0.50867 0.41687 0.0
H624 H 0.90141 0.38221 0.01454 0.0
H625 H 0.87507 0.33754 0.82467 0.0
H626 H 0.95189 0.42467 0.93184 0.0
H627 H 0.82164 0.29788 0.90614 0.0
H628 H 0.90526 0.36811 0.86432 0.0
H629 H 0.87374 0.34943 0.97598 0.0
C630 C 0.9068 0.38455 0.98835 0.0
C631 C 0.92888 0.40632 0.97638 0.0
C632 C 0.88695 0.35269 0.87353 0.0
C633 C 0.89721 0.36899 0.93201 0.0
C634 C 0.86978 0.33518 0.85093 0.0
C635 C 0.84572 0.31524 0.86207 0.0
C636 C 0.88006 0.35018 0.90755 0.0
C637 C 0.83978 0.3132 0.89635 0.0
C638 C 0.89092 0.36591 0.96629 0.0
C639 C 0.93479 0.40843 0.94208 0.0
N640 N 0.85679 0.33046 0.91784 0.0
N641 N 0.91903 0.39006 0.92111 0.0
H642 H 0.94677 0.49518 0.92949 0.0
H643 H 0.90236 0.5842 0.85269 0.0
H644 H 0.98648 0.57242 0.95085 0.0
H645 H 0.85335 0.50498 0.85495 0.0
H646 H 0.93616 0.58101 0.88235 0.0
H647 H 0.91588 0.49948 0.89445 0.0
C648 C 0.94926 0.51314 0.92646 0.0
C649 C 0.96923 0.53345 0.94338 0.0
C650 C 0.91801 0.56435 0.87624 0.0
C651 C 0.93367 0.53843 0.90337 0.0
C652 C 0.89856 0.56613 0.85951 0.0
C653 C 0.87475 0.54483 0.85125 0.0
C654 C 0.91382 0.54111 0.88463 0.0
C655 C 0.87141 0.52195 0.8602 0.0
C656 C 0.93147 0.51553 0.9066 0.0
C657 C 0.97135 0.55623 0.93845 0.0
N658 N 0.89066 0.52072 0.87634 0.0
N659 N 0.95374 0.55808 0.91904 0.0
H660 H 0.44215 0.91953 0.48398 0.0
H661 H 0.30612 0.8621 0.38731 0.0
H662 H 0.39316 0.94969 0.48686 0.0
H663 H 0.35749 0.83479 0.38027 0.0
H664 H 0.33598 0.89226 0.4274 0.0
H665 H 0.40903 0.8857 0.45098 0.0
C666 C 0.42427 0.91888 0.4781 0.0
C667 C 0.42056 0.93765 0.48798 0.0
C668 C 0.3407 0.87963 0.41717 0.0
C669 C 0.38263 0.89903 0.44973 0.0
C670 C 0.32376 0.86253 0.39402 0.0
C671 C 0.32938 0.84598 0.38014 0.0
C672 C 0.36348 0.88025 0.42657 0.0
C673 C 0.35225 0.84705 0.39045 0.0
C674 C 0.40539 0.89958 0.45908 0.0
C675 C 0.39693 0.93572 0.47968 0.0
N676 N 0.36849 0.86394 0.41291 0.0
N677 N 0.37897 0.91689 0.46076 0.0
H678 H 0.53983 0.45077 0.94763 0.0
H679 H 0.46052 0.31172 0.88784 0.0
H680 H 0.47877 0.39138 0.00683 0.0
H681 H 0.53636 0.36611 0.84887 0.0
H682 H 0.46402 0.34166 0.92776 0.0
H683 H 0.53621 0.42093 0.90752 0.0
C684 C 0.52563 0.43144 0.95214 0.0
C685 C 0.50958 0.42354 0.98063 0.0
C686 C 0.47989 0.34703 0.91046 0.0
C687 C 0.50522 0.38929 0.93473 0.0
C688 C 0.47781 0.33003 0.8875 0.0
C689 C 0.49818 0.33644 0.86498 0.0
C690 C 0.50233 0.37075 0.91063 0.0
C691 C 0.52028 0.36034 0.86595 0.0
C692 C 0.52366 0.41442 0.92934 0.0
C693 C 0.49169 0.39823 0.98541 0.0
N694 N 0.52173 0.37665 0.88827 0.0
N695 N 0.48986 0.38202 0.96258 0.0
H696 H 0.05617 0.4681 0.45024 0.0
H697 H 0.20133 0.51869 0.38797 0.0
H698 H 0.12426 0.51382 0.5102 0.0
H699 H 0.13395 0.48379 0.32334 0.0
H700 H 0.17337 0.51487 0.43417 0.0
H701 H 0.08426 0.4708 0.40507 0.0
C702 C 0.07704 0.47874 0.45395 0.0
C703 C 0.08783 0.49099 0.48402 0.0
C704 C 0.16472 0.50809 0.40986 0.0
C705 C 0.1202 0.49396 0.43231 0.0
C706 C 0.1807 0.51045 0.38334 0.0
C707 C 0.17004 0.50168 0.35154 0.0
C708 C 0.1378 0.49675 0.40473 0.0
C709 C 0.14304 0.4906 0.34742 0.0
C710 C 0.09308 0.48021 0.42812 0.0
C711 C 0.11504 0.50398 0.4876 0.0
N712 N 0.12788 0.48845 0.37369 0.0
N713 N 0.13029 0.50522 0.46198 0.0
H714 H 0.57644 0.03546 0.99229 0.0
H715 H 0.62949 0.09328 0.80929 0.0
H716 H 0.52534 0.0142 0.90645 0.0
H717 H 0.66608 0.13011 0.90092 0.0
H718 H 0.59418 0.05926 0.8425 0.0
H719 H 0.61267 0.06478 0.95674 0.0
C720 C 0.57282 0.03667 0.96585 0.0
C721 C 0.54761 0.0224 0.95247 0.0
C722 C 0.61002 0.07476 0.85525 0.0
C723 C 0.58933 0.0562 0.91152 0.0
C724 C 0.63018 0.09407 0.83638 0.0
C725 C 0.65063 0.11455 0.85244 0.0
C726 C 0.61065 0.07577 0.89038 0.0
C727 C 0.65055 0.11477 0.88757 0.0
C728 C 0.59357 0.05357 0.9456 0.0
C729 C 0.54436 0.02486 0.91791 0.0
N730 N 0.63095 0.09567 0.90533 0.0
N731 N 0.56497 0.04154 0.89862 0.0
H732 H 0.60161 0.59536 0.42451 0.0
H733 H 0.5484 0.65674 0.29658 0.0
H734 H 0.5305 0.55317 0.36858 0.0
H735 H 0.59447 0.69364 0.38373 0.0
H736 H 0.54863 0.62007 0.31404 0.0
H737 H 0.60684 0.63327 0.39992 0.0
C738 C 0.58747 0.59412 0.40642 0.0
C739 C 0.56559 0.57125 0.39845 0.0
C740 C 0.55874 0.63627 0.3292 0.0
C741 C 0.57129 0.61422 0.37059 0.0
C742 C 0.55843 0.65716 0.31949 0.0
C743 C 0.57108 0.6783 0.33899 0.0
C744 C 0.57214 0.63658 0.35833 0.0
C745 C 0.58456 0.6779 0.36776 0.0
C746 C 0.5903 0.61568 0.39271 0.0
C747 C 0.54755 0.57054 0.37534 0.0
N748 N 0.5847 0.65735 0.37659 0.0
N749 N 0.55075 0.59174 0.36222 0.0
H750 H 0.45137 0.06332 0.52525 0.0
H751 H 0.52709 0.16621 0.66131 0.0
H752 H 0.52465 0.07944 0.56731 0.0
H753 H 0.44314 0.12511 0.65317 0.0
H754 H 0.52847 0.13891 0.62127 0.0
H755 H 0.45017 0.09098 0.56545 0.0
C756 C 0.46732 0.07289 0.5427 0.0
C757 C 0.48814 0.06911 0.54299 0.0
C758 C 0.50978 0.13591 0.62836 0.0
C759 C 0.48694 0.10073 0.5889 0.0
C760 C 0.50889 0.15138 0.65152 0.0
C761 C 0.48492 0.14813 0.66103 0.0
C762 C 0.48662 0.11724 0.61397 0.0
C763 C 0.46215 0.12883 0.64638 0.0
C764 C 0.46652 0.08848 0.56579 0.0
C765 C 0.50817 0.08174 0.56645 0.0
N766 N 0.46359 0.11427 0.62349 0.0
N767 N 0.50716 0.09708 0.58833 0.0
H768 H 0.45863 0.52299 0.02962 0.0
H769 H 0.32866 0.44791 0.13866 0.0
H770 H 0.41561 0.44408 0.0438 0.0
H771 H 0.36839 0.52609 0.11856 0.0
H772 H 0.35857 0.44578 0.10063 0.0
H773 H 0.42376 0.52409 0.05782 0.0
C774 C 0.44167 0.50584 0.03814 0.0
C775 C 0.44021 0.48343 0.03465 0.0
C776 C 0.36067 0.46339 0.10439 0.0
C777 C 0.40038 0.48462 0.06746 0.0
C778 C 0.34353 0.46461 0.12605 0.0
C779 C 0.34607 0.48725 0.13202 0.0
C780 C 0.38061 0.48497 0.08859 0.0
C781 C 0.36598 0.50832 0.11525 0.0
C782 C 0.4218 0.5065 0.05441 0.0
C783 C 0.4177 0.46181 0.04614 0.0
N784 N 0.38253 0.50668 0.09445 0.0
N785 N 0.39883 0.46297 0.06239 0.0
H786 H 0.93446 0.41837 0.53868 0.0
H787 H 0.86477 0.34798 0.71064 0.0
H788 H 0.96988 0.43932 0.63644 0.0
H789 H 0.83988 0.31215 0.61563 0.0
H790 H 0.90025 0.38431 0.68221 0.0
H791 H 0.89669 0.38163 0.56482 0.0
C792 C 0.93431 0.41529 0.56552 0.0
C793 C 0.95545 0.43192 0.58534 0.0
C794 C 0.88703 0.36854 0.66749 0.0
C795 C 0.91238 0.39032 0.6153 0.0
C796 C 0.86663 0.34783 0.68371 0.0
C797 C 0.84928 0.32696 0.66552 0.0
C798 C 0.89014 0.36863 0.63265 0.0
C799 C 0.85295 0.32777 0.63066 0.0
C800 C 0.91282 0.39433 0.58038 0.0
C801 C 0.9542 0.427 0.62003 0.0
N802 N 0.87292 0.3483 0.6153 0.0
N803 N 0.93308 0.40682 0.63381 0.0
H804 H 0.5516 0.98447 0.18256 0.0
H805 H 0.581 0.88103 0.13978 0.0
H806 H 0.56766 0.9717 0.08284 0.0
H807 H 0.5819 0.90351 0.24084 0.0
H808 H 0.57714 0.91511 0.11869 0.0
H809 H 0.56451 0.95649 0.20511 0.0
C810 C 0.55822 0.97611 0.16547 0.0
C811 C 0.55811 0.98008 0.13073 0.0
C812 C 0.57844 0.91278 0.14548 0.0
C813 C 0.57249 0.94785 0.15619 0.0
C814 C 0.58051 0.89326 0.15748 0.0
C815 C 0.58168 0.88946 0.19204 0.0
C816 C 0.57716 0.92843 0.16823 0.0
C817 C 0.58122 0.90595 0.21396 0.0
C818 C 0.56545 0.96004 0.17832 0.0
C819 C 0.56678 0.96867 0.10971 0.0
N820 N 0.57872 0.9246 0.2017 0.0
N821 N 0.57332 0.95289 0.12272 0.0
H822 H 0.59221 0.57297 0.55244 0.0
H823 H 0.64093 0.50603 0.67854 0.0
H824 H 0.54574 0.49595 0.58048 0.0
H825 H 0.68721 0.58315 0.6511 0.0
H826 H 0.60465 0.50268 0.64609 0.0
H827 H 0.62547 0.5779 0.59255 0.0
C828 C 0.58877 0.55715 0.56738 0.0
C829 C 0.56615 0.53396 0.56281 0.0
C830 C 0.62269 0.52037 0.64729 0.0
C831 C 0.60447 0.53944 0.60858 0.0
C832 C 0.64351 0.52227 0.66565 0.0
C833 C 0.66732 0.54488 0.6674 0.0
C834 C 0.6256 0.5412 0.63034 0.0
C835 C 0.66923 0.56538 0.6507 0.0
C836 C 0.60788 0.55997 0.5902 0.0
C837 C 0.56287 0.51417 0.58298 0.0
N838 N 0.64875 0.56301 0.63274 0.0
N839 N 0.5819 0.51732 0.60469 0.0
H840 H 0.02681 0.58604 0.06498 0.0
H841 H 0.10131 0.63605 0.23786 0.0
H842 H 1.00195 0.54334 0.15731 0.0
H843 H 0.11942 0.68073 0.14746 0.0
H844 H 0.06275 0.60287 0.21036 0.0
H845 H 0.05827 0.62208 0.09616 0.0
C846 C 0.02785 0.58441 0.09197 0.0
C847 C 0.01206 0.56174 0.10864 0.0
C848 C 0.075 0.62002 0.19665 0.0
C849 C 0.04817 0.60273 0.14454 0.0
C850 C 0.0971 0.63888 0.21224 0.0
C851 C 0.11373 0.66106 0.19476 0.0
C852 C 0.06961 0.62328 0.16324 0.0
C853 C 0.1071 0.66396 0.16188 0.0
C854 C 0.04575 0.60496 0.10978 0.0
C855 C 0.0138 0.56055 0.14363 0.0
N856 N 0.08571 0.64519 0.14708 0.0
N857 N 0.03188 0.58072 0.16043 0.0
loop_
_geom_bond_atom_site_label_1
_geom_bond_atom_site_label_2
_geom_bond_distance
_geom_bond_site_symmetry_2
_ccdc_geom_bond_type
Cu0 N1 1.999 1_454 S
Cu0 O6 1.974 1_454 S
Cu0 N11 1.985 . S
Cu0 O20 1.959 . S
N1 Cu0 1.999 1_656 S
N1 C3 1.263 . S
N1 C5 1.389 1_556 S
N2 C3 1.358 . S
N2 C4 1.400 . S
C3 N1 1.263 . S
C3 N2 1.358 . S
C3 H9 0.930 . S
C4 N2 1.400 . S
C4 C5 1.351 1_556 S
C4 H21 0.930 . S
C5 N1 1.389 1_554 S
C5 C4 1.351 1_554 S
C5 H10 0.930 . S
O6 Cu0 1.974 1_656 S
O6 C16 1.282 . S
C7 O8 1.261 1_554 S
C7 O20 1.251 . S
O8 C7 1.261 1_556 S
H9 C3 0.930 . S
H10 C5 0.930 . S
N11 Cu0 1.985 . S
N11 C13 1.335 . S
N11 C14 1.390 . S
N12 C13 1.345 . S
N12 C15 1.336 . S
C13 N11 1.335 . S
C13 N12 1.345 . S
C13 H18 0.930 . S
C14 N11 1.390 . S
C14 C15 1.346 . S
C14 H19 0.930 1_554 S
C15 N12 1.336 . S
C15 C14 1.346 . S
C15 H22 0.929 . S
C16 O6 1.282 . S
C16 O17 1.216 1_655 S
O17 C16 1.216 1_455 S
H18 C13 0.930 . S
H19 C14 0.930 1_556 S
O20 Cu0 1.959 . S
O20 C7 1.251 . S
H21 C4 0.930 . S
H22 C15 0.929 . S
Cu23 N24 1.999 . S
Cu23 O29 1.974 . S
Cu23 N34 1.985 1_565 S
Cu23 O43 1.959 1_565 S
N24 Cu23 1.999 . S
N24 C26 1.263 . S
N24 C28 1.389 . S
N25 C26 1.358 . S
N25 C27 1.400 . S
C26 N24 1.263 . S
C26 N25 1.358 . S
C26 H32 0.930 . S
C27 N25 1.400 . S
C27 C28 1.351 . S
C27 H44 0.930 . S
C28 N24 1.389 . S
C28 C27 1.351 . S
C28 H33 0.930 . S
O29 Cu23 1.974 . S
O29 C39 1.282 . S
C30 O31 1.261 . S
C30 O43 1.251 . S
O31 C30 1.261 . S
H32 C26 0.930 . S
H33 C28 0.930 . S
N34 Cu23 1.985 1_545 S
N34 C36 1.335 . S
N34 C37 1.390 . S
N35 C36 1.345 . S
N35 C38 1.336 . S
C36 N34 1.335 . S
C36 N35 1.345 . S
C36 H41 0.930 . S
C37 N34 1.390 . S
C37 C38 1.346 . S
C37 H42 0.930 . S
C38 N35 1.336 . S
C38 C37 1.346 . S
C38 H45 0.929 . S
C39 O29 1.282 . S
C39 O40 1.216 . S
O40 C39 1.216 . S
H41 C36 0.930 . S
H42 C37 0.930 . S
O43 Cu23 1.959 1_545 S
O43 C30 1.251 . S
H44 C27 0.930 . S
H45 C38 0.929 . S
Cu46 N47 1.999 1_554 S
Cu46 O52 1.974 1_554 S
Cu46 N57 1.985 . S
Cu46 O66 1.959 . S
N47 Cu46 1.999 1_556 S
N47 C49 1.263 . S
N47 C51 1.389 . S
N48 C49 1.358 . S
N48 C50 1.400 . S
C49 N47 1.263 . S
C49 N48 1.358 . S
C49 H55 0.930 . S
C50 N48 1.400 . S
C50 C51 1.351 . S
C50 H67 0.930 . S
C51 N47 1.389 . S
C51 C50 1.351 . S
C51 H56 0.930 . S
O52 Cu46 1.974 1_556 S
O52 C62 1.282 . S
C53 O54 1.261 . S
C53 O66 1.251 . S
O54 C53 1.261 . S
H55 C49 0.930 . S
H56 C51 0.930 . S
N57 Cu46 1.985 . S
N57 C59 1.335 . S
N57 C60 1.390 . S
N58 C59 1.345 . S
N58 C61 1.336 . S
C59 N57 1.335 . S
C59 N58 1.345 . S
C59 H64 0.930 . S
C60 N57 1.390 . S
C60 C61 1.346 . S
C60 H65 0.930 . S
C61 N58 1.336 . S
C61 C60 1.346 . S
C61 H68 0.929 . S
C62 O52 1.282 . S
C62 O63 1.216 1_556 S
O63 C62 1.216 1_554 S
H64 C59 0.930 . S
H65 C60 0.930 . S
O66 Cu46 1.959 . S
O66 C53 1.251 . S
H67 C50 0.930 . S
H68 C61 0.929 . S
Cu69 N70 1.999 1_655 S
Cu69 O75 1.974 1_655 S
Cu69 N80 1.985 . S
Cu69 O89 1.959 . S
N70 Cu69 1.999 1_455 S
N70 C72 1.263 . S
N70 C74 1.389 1_455 S
N71 C72 1.358 . S
N71 C73 1.400 . S
C72 N70 1.263 . S
C72 N71 1.358 . S
C72 H78 0.930 . S
C73 N71 1.400 . S
C73 C74 1.351 1_455 S
C73 H90 0.930 . S
C74 N70 1.389 1_655 S
C74 C73 1.351 1_655 S
C74 H79 0.930 . S
O75 Cu69 1.974 1_455 S
O75 C85 1.282 . S
C76 O77 1.261 . S
C76 O89 1.251 . S
O77 C76 1.261 . S
H78 C72 0.930 . S
H79 C74 0.930 . S
N80 Cu69 1.985 . S
N80 C82 1.335 . S
N80 C83 1.390 . S
N81 C82 1.345 . S
N81 C84 1.336 . S
C82 N80 1.335 . S
C82 N81 1.345 . S
C82 H87 0.930 . S
C83 N80 1.390 . S
C83 C84 1.346 . S
C83 H88 0.930 1_655 S
C84 N81 1.336 . S
C84 C83 1.346 . S
C84 H91 0.929 . S
C85 O75 1.282 . S
C85 O86 1.216 . S
O86 C85 1.216 . S
H87 C82 0.930 . S
H88 C83 0.930 1_455 S
O89 Cu69 1.959 . S
O89 C76 1.251 . S
H90 C73 0.930 . S
H91 C84 0.929 . S
Cu92 N93 1.999 . S
Cu92 O98 1.975 1_554 S
Cu92 N103 1.985 1_545 S
Cu92 O112 1.959 1_545 S
N93 Cu92 1.999 . S
N93 C95 1.263 1_554 S
N93 C97 1.389 . S
N94 C95 1.358 . S
N94 C96 1.400 1_556 S
C95 N93 1.263 1_556 S
C95 N94 1.358 . S
C95 H101 0.930 . S
C96 N94 1.400 1_554 S
C96 C97 1.351 . S
C96 H113 0.930 . S
C97 N93 1.389 . S
C97 C96 1.351 . S
C97 H102 0.930 . S
O98 Cu92 1.975 1_556 S
O98 C108 1.280 . S
C99 O100 1.261 . S
C99 O112 1.251 . S
O100 C99 1.261 . S
H101 C95 0.930 . S
H102 C97 0.930 . S
N103 Cu92 1.985 1_565 S
N103 C105 1.335 . S
N103 C106 1.390 . S
N104 C105 1.345 . S
N104 C107 1.336 . S
C105 N103 1.335 . S
C105 N104 1.345 . S
C105 H110 0.930 . S
C106 N103 1.390 . S
C106 C107 1.346 . S
C106 H111 0.934 . S
C107 N104 1.336 . S
C107 C106 1.346 . S
C107 H114 0.929 . S
C108 O98 1.280 . S
C108 O109 1.216 . S
O109 C108 1.216 . S
H110 C105 0.930 . S
H111 C106 0.934 . S
O112 Cu92 1.959 1_565 S
O112 C99 1.251 . S
H113 C96 0.930 . S
H114 C107 0.929 . S
Cu115 N116 1.999 . S
Cu115 O121 1.974 . S
Cu115 N126 1.985 . S
Cu115 O135 1.959 . S
N116 Cu115 1.999 . S
N116 C118 1.263 . S
N116 C120 1.389 . S
N117 C118 1.358 . S
N117 C119 1.400 . S
C118 N116 1.263 . S
C118 N117 1.358 . S
C118 H124 0.930 . S
C119 N117 1.400 . S
C119 C120 1.351 . S
C119 H136 0.930 . S
C120 N116 1.389 . S
C120 C119 1.351 . S
C120 H125 0.930 . S
O121 Cu115 1.974 . S
O121 C131 1.282 . S
C122 O123 1.261 . S
C122 O135 1.251 . S
O123 C122 1.261 . S
H124 C118 0.930 . S
H125 C120 0.930 . S
N126 Cu115 1.985 . S
N126 C128 1.335 . S
N126 C129 1.390 . S
N127 C128 1.345 . S
N127 C130 1.336 . S
C128 N126 1.335 . S
C128 N127 1.345 . S
C128 H133 0.930 . S
C129 N126 1.390 . S
C129 C130 1.346 . S
C129 H134 0.930 . S
C130 N127 1.336 . S
C130 C129 1.346 . S
C130 H137 0.929 . S
C131 O121 1.282 . S
C131 O132 1.216 . S
O132 C131 1.216 . S
H133 C128 0.930 . S
H134 C129 0.930 . S
O135 Cu115 1.959 . S
O135 C122 1.251 . S
H136 C119 0.930 . S
H137 C130 0.929 . S
H138 C157 0.949 . S
H139 C158 0.950 . S
H140 C160 0.950 . S
H141 C161 0.950 . S
H142 C163 0.950 . S
H143 C166 0.950 . S
H144 C167 0.950 . S
H145 C169 0.951 . S
H146 C170 0.949 . S
H147 C172 0.949 . S
H148 C173 0.950 . S
H149 C175 0.950 . S
H150 C176 0.950 . S
H151 C178 0.950 . S
H152 C181 0.950 . S
H153 C182 0.950 . S
H154 C184 0.951 . S
H155 C185 0.949 . S
C156 C157 1.376 . S
C156 C161 1.386 . S
C156 C162 1.483 . S
C157 H138 0.949 . S
C157 C156 1.376 . S
C157 C158 1.397 . S
C158 H139 0.950 . S
C158 C157 1.397 . S
C158 C159 1.391 . S
C159 C158 1.391 . S
C159 C160 1.405 . S
C160 H140 0.950 . S
C160 C159 1.405 . S
C160 C161 1.367 . S
C161 H141 0.950 . S
C161 C156 1.386 . S
C161 C160 1.367 . S
C162 C156 1.483 . S
C162 C163 1.382 . S
C162 C164 1.403 . S
C163 H142 0.950 . S
C163 C162 1.382 . S
C163 C179 1.411 . S
C164 C162 1.403 . S
C164 C165 1.489 . S
C164 C178 1.411 . S
C165 C164 1.489 . S
C165 C166 1.383 . S
C165 C170 1.382 . S
C166 H143 0.950 . S
C166 C165 1.383 . S
C166 C167 1.395 . S
C167 H144 0.950 . S
C167 C166 1.395 . S
C167 C168 1.288 . S
C168 C167 1.288 . S
C168 C169 1.392 . S
C169 H145 0.951 . S
C169 C168 1.392 . S
C169 C170 1.392 . S
C170 H146 0.949 . S
C170 C165 1.382 . S
C170 C169 1.392 . S
C171 C172 1.376 . S
C171 C176 1.386 . S
C171 C177 1.483 . S
C172 H147 0.949 . S
C172 C171 1.376 . S
C172 C173 1.397 . S
C173 H148 0.950 . S
C173 C172 1.397 . S
C173 C174 1.391 . S
C174 C173 1.391 . S
C174 C175 1.405 . S
C175 H149 0.950 . S
C175 C174 1.405 . S
C175 C176 1.367 . S
C176 H150 0.950 . S
C176 C171 1.386 . S
C176 C175 1.367 . S
C177 C171 1.483 . S
C177 C178 1.382 . S
C177 C179 1.403 . S
C178 H151 0.950 . S
C178 C164 1.411 . S
C178 C177 1.382 . S
C179 C163 1.411 . S
C179 C177 1.403 . S
C179 C180 1.489 . S
C180 C179 1.489 . S
C180 C181 1.383 . S
C180 C185 1.382 . S
C181 H152 0.950 . S
C181 C180 1.383 . S
C181 C182 1.395 . S
C182 H153 0.950 . S
C182 C181 1.395 . S
C182 C183 1.288 . S
C183 C182 1.288 . S
C183 C184 1.392 . S
C184 H154 0.951 . S
C184 C183 1.392 . S
C184 C185 1.392 . S
C185 H155 0.949 . S
C185 C180 1.382 . S
C185 C184 1.392 . S
H186 C205 0.949 . S
H187 C206 0.950 . S
H188 C208 0.950 . S
H189 C209 0.950 . S
H190 C211 0.950 . S
H191 C214 0.950 . S
H192 C215 0.950 . S
H193 C217 0.951 . S
H194 C218 0.949 . S
H195 C220 0.949 . S
H196 C221 0.950 . S
H197 C223 0.950 . S
H198 C224 0.950 . S
H199 C226 0.950 . S
H200 C229 0.950 . S
H201 C230 0.950 . S
H202 C232 0.951 . S
H203 C233 0.949 . S
C204 C205 1.376 . S
C204 C209 1.386 . S
C204 C210 1.483 . S
C205 H186 0.949 . S
C205 C204 1.376 . S
C205 C206 1.397 . S
C206 H187 0.950 . S
C206 C205 1.397 . S
C206 C207 1.391 . S
C207 C206 1.391 . S
C207 C208 1.405 . S
C208 H188 0.950 . S
C208 C207 1.405 . S
C208 C209 1.367 . S
C209 H189 0.950 . S
C209 C204 1.386 . S
C209 C208 1.367 . S
C210 C204 1.483 . S
C210 C211 1.382 . S
C210 C212 1.403 . S
C211 H190 0.950 . S
C211 C210 1.382 . S
C211 C227 1.411 . S
C212 C210 1.403 . S
C212 C213 1.489 . S
C212 C226 1.411 . S
C213 C212 1.489 . S
C213 C214 1.383 . S
C213 C218 1.382 . S
C214 H191 0.950 . S
C214 C213 1.383 . S
C214 C215 1.395 . S
C215 H192 0.950 . S
C215 C214 1.395 . S
C215 C216 1.288 . S
C216 C215 1.288 . S
C216 C217 1.392 . S
C217 H193 0.951 . S
C217 C216 1.392 . S
C217 C218 1.392 . S
C218 H194 0.949 . S
C218 C213 1.382 . S
C218 C217 1.392 . S
C219 C220 1.376 . S
C219 C224 1.386 . S
C219 C225 1.483 . S
C220 H195 0.949 . S
C220 C219 1.376 . S
C220 C221 1.397 . S
C221 H196 0.950 . S
C221 C220 1.397 . S
C221 C222 1.391 . S
C222 C221 1.391 . S
C222 C223 1.405 . S
C223 H197 0.950 . S
C223 C222 1.405 . S
C223 C224 1.367 . S
C224 H198 0.950 . S
C224 C219 1.386 . S
C224 C223 1.367 . S
C225 C219 1.483 . S
C225 C226 1.382 . S
C225 C227 1.403 . S
C226 H199 0.950 . S
C226 C212 1.411 . S
C226 C225 1.382 . S
C227 C211 1.411 . S
C227 C225 1.403 . S
C227 C228 1.489 . S
C228 C227 1.489 . S
C228 C229 1.383 . S
C228 C233 1.382 . S
C229 H200 0.950 . S
C229 C228 1.383 . S
C229 C230 1.395 . S
C230 H201 0.950 . S
C230 C229 1.395 . S
C230 C231 1.288 . S
C231 C230 1.288 . S
C231 C232 1.392 . S
C232 H202 0.951 . S
C232 C231 1.392 . S
C232 C233 1.392 . S
C233 H203 0.949 . S
C233 C228 1.382 . S
C233 C232 1.392 . S
H234 C253 0.949 . S
H235 C254 0.950 . S
H236 C256 0.950 . S
H237 C257 0.950 . S
H238 C259 0.950 . S
H239 C262 0.950 . S
H240 C263 0.950 . S
H241 C265 0.951 . S
H242 C266 0.949 . S
H243 C268 0.949 . S
H244 C269 0.950 . S
H245 C271 0.950 . S
H246 C272 0.950 . S
H247 C274 0.950 . S
H248 C277 0.950 . S
H249 C278 0.950 . S
H250 C280 0.951 . S
H251 C281 0.949 . S
C252 C253 1.376 . S
C252 C257 1.386 . S
C252 C258 1.483 . S
C253 H234 0.949 . S
C253 C252 1.376 . S
C253 C254 1.397 . S
C254 H235 0.950 . S
C254 C253 1.397 . S
C254 C255 1.391 . S
C255 C254 1.391 . S
C255 C256 1.405 . S
C256 H236 0.950 . S
C256 C255 1.405 . S
C256 C257 1.367 . S
C257 H237 0.950 . S
C257 C252 1.386 . S
C257 C256 1.367 . S
C258 C252 1.483 . S
C258 C259 1.382 . S
C258 C260 1.403 . S
C259 H238 0.950 . S
C259 C258 1.382 . S
C259 C275 1.411 . S
C260 C258 1.403 . S
C260 C261 1.489 . S
C260 C274 1.411 . S
C261 C260 1.489 . S
C261 C262 1.383 . S
C261 C266 1.382 . S
C262 H239 0.950 . S
C262 C261 1.383 . S
C262 C263 1.395 . S
C263 H240 0.950 . S
C263 C262 1.395 . S
C263 C264 1.288 . S
C264 C263 1.288 . S
C264 C265 1.392 . S
C265 H241 0.951 . S
C265 C264 1.392 . S
C265 C266 1.392 . S
C266 H242 0.949 . S
C266 C261 1.382 . S
C266 C265 1.392 . S
C267 C268 1.376 . S
C267 C272 1.386 . S
C267 C273 1.483 . S
C268 H243 0.949 . S
C268 C267 1.376 . S
C268 C269 1.397 . S
C269 H244 0.950 . S
C269 C268 1.397 . S
C269 C270 1.391 . S
C270 C269 1.391 . S
C270 C271 1.405 . S
C271 H245 0.950 . S
C271 C270 1.405 . S
C271 C272 1.367 . S
C272 H246 0.950 . S
C272 C267 1.386 . S
C272 C271 1.367 . S
C273 C267 1.483 . S
C273 C274 1.382 . S
C273 C275 1.403 . S
C274 H247 0.950 . S
C274 C260 1.411 . S
C274 C273 1.382 . S
C275 C259 1.411 . S
C275 C273 1.403 . S
C275 C276 1.489 . S
C276 C275 1.489 . S
C276 C277 1.383 . S
C276 C281 1.382 . S
C277 H248 0.950 . S
C277 C276 1.383 . S
C277 C278 1.395 . S
C278 H249 0.950 . S
C278 C277 1.395 . S
C278 C279 1.288 . S
C279 C278 1.288 . S
C279 C280 1.392 . S
C280 H250 0.951 . S
C280 C279 1.392 . S
C280 C281 1.392 . S
C281 H251 0.949 . S
C281 C276 1.382 . S
C281 C280 1.392 . S
H282 C301 0.949 . S
H283 C302 0.950 . S
H284 C304 0.950 . S
H285 C305 0.950 . S
H286 C307 0.950 . S
H287 C310 0.950 . S
H288 C311 0.950 . S
H289 C313 0.951 . S
H290 C314 0.949 . S
H291 C316 0.949 . S
H292 C317 0.950 . S
H293 C319 0.950 . S
H294 C320 0.950 . S
H295 C322 0.950 . S
H296 C325 0.950 . S
H297 C326 0.950 . S
H298 C328 0.951 . S
H299 C329 0.949 . S
C300 C301 1.376 . S
C300 C305 1.386 . S
C300 C306 1.483 . S
C301 H282 0.949 . S
C301 C300 1.376 . S
C301 C302 1.397 . S
C302 H283 0.950 . S
C302 C301 1.397 . S
C302 C303 1.391 . S
C303 C302 1.391 . S
C303 C304 1.405 . S
C304 H284 0.950 . S
C304 C303 1.405 . S
C304 C305 1.367 . S
C305 H285 0.950 . S
C305 C300 1.386 . S
C305 C304 1.367 . S
C306 C300 1.483 . S
C306 C307 1.382 . S
C306 C308 1.403 . S
C307 H286 0.950 . S
C307 C306 1.382 . S
C307 C323 1.411 . S
C308 C306 1.403 . S
C308 C309 1.489 . S
C308 C322 1.411 . S
C309 C308 1.489 . S
C309 C310 1.383 . S
C309 C314 1.382 . S
C310 H287 0.950 . S
C310 C309 1.383 . S
C310 C311 1.395 . S
C311 H288 0.950 . S
C311 C310 1.395 . S
C311 C312 1.288 . S
C312 C311 1.288 . S
C312 C313 1.392 . S
C313 H289 0.951 . S
C313 C312 1.392 . S
C313 C314 1.392 . S
C314 H290 0.949 . S
C314 C309 1.382 . S
C314 C313 1.392 . S
C315 C316 1.376 . S
C315 C320 1.386 . S
C315 C321 1.483 . S
C316 H291 0.949 . S
C316 C315 1.376 . S
C316 C317 1.397 . S
C317 H292 0.950 . S
C317 C316 1.397 . S
C317 C318 1.391 . S
C318 C317 1.391 . S
C318 C319 1.405 . S
C319 H293 0.950 . S
C319 C318 1.405 . S
C319 C320 1.367 . S
C320 H294 0.950 . S
C320 C315 1.386 . S
C320 C319 1.367 . S
C321 C315 1.483 . S
C321 C322 1.382 . S
C321 C323 1.403 . S
C322 H295 0.950 . S
C322 C308 1.411 . S
C322 C321 1.382 . S
C323 C307 1.411 . S
C323 C321 1.403 . S
C323 C324 1.489 . S
C324 C323 1.489 . S
C324 C325 1.383 . S
C324 C329 1.382 . S
C325 H296 0.950 . S
C325 C324 1.383 . S
C325 C326 1.395 . S
C326 H297 0.950 . S
C326 C325 1.395 . S
C326 C327 1.288 . S
C327 C326 1.288 . S
C327 C328 1.392 . S
C328 H298 0.951 . S
C328 C327 1.392 . S
C328 C329 1.392 . S
C329 H299 0.949 . S
C329 C324 1.382 . S
C329 C328 1.392 . S
H330 C349 0.949 . S
H331 C350 0.950 . S
H332 C352 0.950 . S
H333 C353 0.950 . S
H334 C355 0.950 . S
H335 C358 0.950 . S
H336 C359 0.950 . S
H337 C361 0.951 . S
H338 C362 0.949 . S
H339 C364 0.949 . S
H340 C365 0.950 . S
H341 C367 0.950 . S
H342 C368 0.950 . S
H343 C370 0.950 . S
H344 C373 0.950 . S
H345 C374 0.950 . S
H346 C376 0.951 . S
H347 C377 0.949 . S
C348 C349 1.376 . S
C348 C353 1.386 . S
C348 C354 1.483 . S
C349 H330 0.949 . S
C349 C348 1.376 . S
C349 C350 1.397 . S
C350 H331 0.950 . S
C350 C349 1.397 . S
C350 C351 1.391 . S
C351 C350 1.391 . S
C351 C352 1.405 . S
C352 H332 0.950 . S
C352 C351 1.405 . S
C352 C353 1.367 . S
C353 H333 0.950 . S
C353 C348 1.386 . S
C353 C352 1.367 . S
C354 C348 1.483 . S
C354 C355 1.382 . S
C354 C356 1.403 . S
C355 H334 0.950 . S
C355 C354 1.382 . S
C355 C371 1.411 . S
C356 C354 1.403 . S
C356 C357 1.489 . S
C356 C370 1.411 . S
C357 C356 1.489 . S
C357 C358 1.383 . S
C357 C362 1.382 . S
C358 H335 0.950 . S
C358 C357 1.383 . S
C358 C359 1.395 . S
C359 H336 0.950 . S
C359 C358 1.395 . S
C359 C360 1.288 . S
C360 C359 1.288 . S
C360 C361 1.392 . S
C361 H337 0.951 . S
C361 C360 1.392 . S
C361 C362 1.392 . S
C362 H338 0.949 . S
C362 C357 1.382 . S
C362 C361 1.392 . S
C363 C364 1.376 . S
C363 C368 1.386 . S
C363 C369 1.483 . S
C364 H339 0.949 . S
C364 C363 1.376 . S
C364 C365 1.397 . S
C365 H340 0.950 . S
C365 C364 1.397 . S
C365 C366 1.391 . S
C366 C365 1.391 . S
C366 C367 1.405 . S
C367 H341 0.950 . S
C367 C366 1.405 . S
C367 C368 1.367 . S
C368 H342 0.950 . S
C368 C363 1.386 . S
C368 C367 1.367 . S
C369 C363 1.483 . S
C369 C370 1.382 . S
C369 C371 1.403 . S
C370 H343 0.950 . S
C370 C356 1.411 . S
C370 C369 1.382 . S
C371 C355 1.411 . S
C371 C369 1.403 . S
C371 C372 1.489 . S
C372 C371 1.489 . S
C372 C373 1.383 . S
C372 C377 1.382 . S
C373 H344 0.950 . S
C373 C372 1.383 . S
C373 C374 1.395 . S
C374 H345 0.950 . S
C374 C373 1.395 . S
C374 C375 1.288 . S
C375 C374 1.288 . S
C375 C376 1.392 . S
C376 H346 0.951 . S
C376 C375 1.392 . S
C376 C377 1.392 . S
C377 H347 0.949 . S
C377 C372 1.382 . S
C377 C376 1.392 . S
H378 C397 0.949 . S
H379 C398 0.950 . S
H380 C400 0.950 . S
H381 C401 0.950 . S
H382 C403 0.950 . S
H383 C406 0.950 . S
H384 C407 0.950 . S
H385 C409 0.951 . S
H386 C410 0.949 . S
H387 C412 0.949 . S
H388 C413 0.950 . S
H389 C415 0.950 . S
H390 C416 0.950 . S
H391 C418 0.950 . S
H392 C421 0.950 . S
H393 C422 0.950 . S
H394 C424 0.951 . S
H395 C425 0.949 . S
C396 C397 1.376 . S
C396 C401 1.386 . S
C396 C402 1.483 . S
C397 H378 0.949 . S
C397 C396 1.376 . S
C397 C398 1.397 . S
C398 H379 0.950 . S
C398 C397 1.397 . S
C398 C399 1.391 . S
C399 C398 1.391 . S
C399 C400 1.405 . S
C400 H380 0.950 . S
C400 C399 1.405 . S
C400 C401 1.367 . S
C401 H381 0.950 . S
C401 C396 1.386 . S
C401 C400 1.367 . S
C402 C396 1.483 . S
C402 C403 1.382 . S
C402 C404 1.403 . S
C403 H382 0.950 . S
C403 C402 1.382 . S
C403 C419 1.411 . S
C404 C402 1.403 . S
C404 C405 1.489 . S
C404 C418 1.411 . S
C405 C404 1.489 . S
C405 C406 1.383 . S
C405 C410 1.382 . S
C406 H383 0.950 . S
C406 C405 1.383 . S
C406 C407 1.395 . S
C407 H384 0.950 . S
C407 C406 1.395 . S
C407 C408 1.288 . S
C408 C407 1.288 . S
C408 C409 1.392 . S
C409 H385 0.951 . S
C409 C408 1.392 . S
C409 C410 1.392 . S
C410 H386 0.949 . S
C410 C405 1.382 . S
C410 C409 1.392 . S
C411 C412 1.376 . S
C411 C416 1.386 . S
C411 C417 1.483 . S
C412 H387 0.949 . S
C412 C411 1.376 . S
C412 C413 1.397 . S
C413 H388 0.950 . S
C413 C412 1.397 . S
C413 C414 1.391 . S
C414 C413 1.391 . S
C414 C415 1.405 . S
C415 H389 0.950 . S
C415 C414 1.405 . S
C415 C416 1.367 . S
C416 H390 0.950 . S
C416 C411 1.386 . S
C416 C415 1.367 . S
C417 C411 1.483 . S
C417 C418 1.382 . S
C417 C419 1.403 . S
C418 H391 0.950 . S
C418 C404 1.411 . S
C418 C417 1.382 . S
C419 C403 1.411 . S
C419 C417 1.403 . S
C419 C420 1.489 . S
C420 C419 1.489 . S
C420 C421 1.383 . S
C420 C425 1.382 . S
C421 H392 0.950 . S
C421 C420 1.383 . S
C421 C422 1.395 . S
C422 H393 0.950 . S
C422 C421 1.395 . S
C422 C423 1.288 . S
C423 C422 1.288 . S
C423 C424 1.392 . S
C424 H394 0.951 . S
C424 C423 1.392 . S
C424 C425 1.392 . S
C425 H395 0.949 . S
C425 C420 1.382 . S
C425 C424 1.392 . S
H426 C432 0.930 . S
H427 C436 0.930 . S
H428 C441 0.929 . S
H429 C439 0.929 . S
H430 C434 0.929 . S
H431 C440 0.929 . S
C432 H426 0.930 . S
C432 C433 1.367 . S
C432 C440 1.378 . S
C433 C432 1.367 . S
C433 C441 1.433 . S
C434 H430 0.929 . S
C434 C436 1.378 . S
C434 C438 1.350 . S
C435 C438 1.463 . S
C435 C440 1.350 . S
C435 N443 1.427 . S
C436 H427 0.930 . S
C436 C434 1.378 . S
C436 C437 1.367 . S
C437 C436 1.367 . S
C437 C439 1.433 . S
C438 C434 1.350 . S
C438 C435 1.463 . S
C438 N442 1.427 . S
C439 H429 0.929 . S
C439 C437 1.433 . S
C439 N442 1.384 . S
C440 H431 0.929 . S
C440 C432 1.378 . S
C440 C435 1.350 . S
C441 H428 0.929 . S
C441 C433 1.433 . S
C441 N443 1.384 . S
N442 C438 1.427 . S
N442 C439 1.384 . S
N443 C435 1.427 . S
N443 C441 1.384 . S
H444 C450 0.930 . S
H445 C454 0.930 . S
H446 C459 0.929 . S
H447 C457 0.929 . S
H448 C452 0.929 . S
H449 C458 0.929 . S
C450 H444 0.930 . S
C450 C451 1.367 . S
C450 C458 1.378 . S
C451 C450 1.367 . S
C451 C459 1.433 . S
C452 H448 0.929 . S
C452 C454 1.378 . S
C452 C456 1.350 . S
C453 C456 1.463 . S
C453 C458 1.350 . S
C453 N461 1.427 . S
C454 H445 0.930 . S
C454 C452 1.378 . S
C454 C455 1.367 . S
C455 C454 1.367 . S
C455 C457 1.433 . S
C456 C452 1.350 . S
C456 C453 1.463 . S
C456 N460 1.427 . S
C457 H447 0.929 . S
C457 C455 1.433 . S
C457 N460 1.384 . S
C458 H449 0.929 . S
C458 C450 1.378 . S
C458 C453 1.350 . S
C459 H446 0.929 . S
C459 C451 1.433 . S
C459 N461 1.384 . S
N460 C456 1.427 . S
N460 C457 1.384 . S
N461 C453 1.427 . S
N461 C459 1.384 . S
H462 C468 0.930 . S
H463 C472 0.930 . S
H464 C477 0.929 . S
H465 C475 0.929 . S
H466 C470 0.929 . S
H467 C476 0.929 . S
C468 H462 0.930 . S
C468 C469 1.367 . S
C468 C476 1.378 . S
C469 C468 1.367 . S
C469 C477 1.433 . S
C470 H466 0.929 . S
C470 C472 1.378 . S
C470 C474 1.350 . S
C471 C474 1.463 . S
C471 C476 1.350 . S
C471 N479 1.427 . S
C472 H463 0.930 . S
C472 C470 1.378 . S
C472 C473 1.367 . S
C473 C472 1.367 . S
C473 C475 1.433 . S
C474 C470 1.350 . S
C474 C471 1.463 . S
C474 N478 1.427 . S
C475 H465 0.929 . S
C475 C473 1.433 . S
C475 N478 1.384 . S
C476 H467 0.929 . S
C476 C468 1.378 . S
C476 C471 1.350 . S
C477 H464 0.929 . S
C477 C469 1.433 . S
C477 N479 1.384 . S
N478 C474 1.427 . S
N478 C475 1.384 . S
N479 C471 1.427 . S
N479 C477 1.384 . S
H480 C486 0.930 . S
H481 C490 0.930 . S
H482 C495 0.929 . S
H483 C493 0.929 . S
H484 C488 0.929 . S
H485 C494 0.929 . S
C486 H480 0.930 . S
C486 C487 1.367 . S
C486 C494 1.378 . S
C487 C486 1.367 . S
C487 C495 1.433 . S
C488 H484 0.929 . S
C488 C490 1.378 . S
C488 C492 1.350 . S
C489 C492 1.463 . S
C489 C494 1.350 . S
C489 N497 1.427 . S
C490 H481 0.930 . S
C490 C488 1.378 . S
C490 C491 1.367 . S
C491 C490 1.367 . S
C491 C493 1.433 . S
C492 C488 1.350 . S
C492 C489 1.463 . S
C492 N496 1.427 . S
C493 H483 0.929 . S
C493 C491 1.433 . S
C493 N496 1.384 . S
C494 H485 0.929 . S
C494 C486 1.378 . S
C494 C489 1.350 . S
C495 H482 0.929 . S
C495 C487 1.433 . S
C495 N497 1.384 . S
N496 C492 1.427 . S
N496 C493 1.384 . S
N497 C489 1.427 . S
N497 C495 1.384 . S
H498 C504 0.930 . S
H499 C508 0.930 . S
H500 C513 0.929 . S
H501 C511 0.929 . S
H502 C506 0.929 . S
H503 C512 0.929 . S
C504 H498 0.930 . S
C504 C505 1.367 . S
C504 C512 1.378 . S
C505 C504 1.367 . S
C505 C513 1.433 . S
C506 H502 0.929 . S
C506 C508 1.378 . S
C506 C510 1.350 . S
C507 C510 1.463 . S
C507 C512 1.350 . S
C507 N515 1.427 . S
C508 H499 0.930 . S
C508 C506 1.378 . S
C508 C509 1.367 . S
C509 C508 1.367 . S
C509 C511 1.433 . S
C510 C506 1.350 . S
C510 C507 1.463 . S
C510 N514 1.427 . S
C511 H501 0.929 . S
C511 C509 1.433 . S
C511 N514 1.384 . S
C512 H503 0.929 . S
C512 C504 1.378 . S
C512 C507 1.350 . S
C513 H500 0.929 . S
C513 C505 1.433 . S
C513 N515 1.384 . S
N514 C510 1.427 . S
N514 C511 1.384 . S
N515 C507 1.427 . S
N515 C513 1.384 . S
H516 C522 0.930 . S
H517 C526 0.930 . S
H518 C531 0.929 . S
H519 C529 0.929 . S
H520 C524 0.929 . S
H521 C530 0.929 . S
C522 H516 0.930 . S
C522 C523 1.367 . S
C522 C530 1.378 . S
C523 C522 1.367 . S
C523 C531 1.433 . S
C524 H520 0.929 . S
C524 C526 1.378 . S
C524 C528 1.350 . S
C525 C528 1.463 . S
C525 C530 1.350 . S
C525 N533 1.427 . S
C526 H517 0.930 . S
C526 C524 1.378 . S
C526 C527 1.367 . S
C527 C526 1.367 . S
C527 C529 1.433 . S
C528 C524 1.350 . S
C528 C525 1.463 . S
C528 N532 1.427 . S
C529 H519 0.929 . S
C529 C527 1.433 . S
C529 N532 1.384 . S
C530 H521 0.929 . S
C530 C522 1.378 . S
C530 C525 1.350 . S
C531 H518 0.929 . S
C531 C523 1.433 . S
C531 N533 1.384 . S
N532 C528 1.427 . S
N532 C529 1.384 . S
N533 C525 1.427 . S
N533 C531 1.384 . S
H534 C540 0.930 . S
H535 C544 0.930 . S
H536 C549 0.929 . S
H537 C547 0.929 . S
H538 C542 0.929 . S
H539 C548 0.929 . S
C540 H534 0.930 . S
C540 C541 1.367 . S
C540 C548 1.378 . S
C541 C540 1.367 . S
C541 C549 1.433 . S
C542 H538 0.929 . S
C542 C544 1.378 . S
C542 C546 1.350 . S
C543 C546 1.463 . S
C543 C548 1.350 . S
C543 N551 1.427 . S
C544 H535 0.930 . S
C544 C542 1.378 . S
C544 C545 1.367 . S
C545 C544 1.367 . S
C545 C547 1.433 . S
C546 C542 1.350 . S
C546 C543 1.463 . S
C546 N550 1.427 . S
C547 H537 0.929 . S
C547 C545 1.433 . S
C547 N550 1.384 . S
C548 H539 0.929 . S
C548 C540 1.378 . S
C548 C543 1.350 . S
C549 H536 0.929 . S
C549 C541 1.433 . S
C549 N551 1.384 . S
N550 C546 1.427 . S
N550 C547 1.384 . S
N551 C543 1.427 . S
N551 C549 1.384 . S
H552 C558 0.930 1_554 S
H553 C562 0.930 . S
H554 C567 0.929 . S
H555 C565 0.929 . S
H556 C560 0.929 . S
H557 C566 0.929 . S
C558 H552 0.930 1_556 S
C558 C559 1.367 . S
C558 C566 1.378 . S
C559 C558 1.367 . S
C559 C567 1.433 . S
C560 H556 0.929 . S
C560 C562 1.378 . S
C560 C564 1.350 . S
C561 C564 1.463 . S
C561 C566 1.350 . S
C561 N569 1.427 . S
C562 H553 0.930 . S
C562 C560 1.378 . S
C562 C563 1.367 . S
C563 C562 1.367 . S
C563 C565 1.433 . S
C564 C560 1.350 . S
C564 C561 1.463 . S
C564 N568 1.427 . S
C565 H555 0.929 . S
C565 C563 1.433 . S
C565 N568 1.384 . S
C566 H557 0.929 . S
C566 C558 1.378 . S
C566 C561 1.350 . S
C567 H554 0.929 . S
C567 C559 1.433 . S
C567 N569 1.384 . S
N568 C564 1.427 . S
N568 C565 1.384 . S
N569 C561 1.427 . S
N569 C567 1.384 . S
H570 C576 0.930 . S
H571 C580 0.930 . S
H572 C585 0.929 . S
H573 C583 0.929 . S
H574 C578 0.929 . S
H575 C584 0.929 . S
C576 H570 0.930 . S
C576 C577 1.367 . S
C576 C584 1.378 . S
C577 C576 1.367 . S
C577 C585 1.433 . S
C578 H574 0.929 . S
C578 C580 1.378 . S
C578 C582 1.350 . S
C579 C582 1.463 . S
C579 C584 1.350 . S
C579 N587 1.427 . S
C580 H571 0.930 . S
C580 C578 1.378 . S
C580 C581 1.367 . S
C581 C580 1.367 . S
C581 C583 1.433 . S
C582 C578 1.350 . S
C582 C579 1.463 . S
C582 N586 1.427 . S
C583 H573 0.929 . S
C583 C581 1.433 . S
C583 N586 1.384 . S
C584 H575 0.929 . S
C584 C576 1.378 . S
C584 C579 1.350 . S
C585 H572 0.929 . S
C585 C577 1.433 . S
C585 N587 1.384 . S
N586 C582 1.427 . S
N586 C583 1.384 . S
N587 C579 1.427 . S
N587 C585 1.384 . S
H588 C594 0.930 . S
H589 C598 0.930 . S
H590 C603 0.929 . S
H591 C601 0.929 . S
H592 C596 0.929 . S
H593 C602 0.929 . S
C594 H588 0.930 . S
C594 C595 1.367 . S
C594 C602 1.378 . S
C595 C594 1.367 . S
C595 C603 1.433 . S
C596 H592 0.929 . S
C596 C598 1.378 . S
C596 C600 1.350 . S
C597 C600 1.463 . S
C597 C602 1.350 . S
C597 N605 1.427 . S
C598 H589 0.930 . S
C598 C596 1.378 . S
C598 C599 1.367 . S
C599 C598 1.367 . S
C599 C601 1.433 . S
C600 C596 1.350 . S
C600 C597 1.463 . S
C600 N604 1.427 . S
C601 H591 0.929 . S
C601 C599 1.433 . S
C601 N604 1.384 . S
C602 H593 0.929 . S
C602 C594 1.378 . S
C602 C597 1.350 . S
C603 H590 0.929 . S
C603 C595 1.433 . S
C603 N605 1.384 . S
N604 C600 1.427 . S
N604 C601 1.384 . S
N605 C597 1.427 . S
N605 C603 1.384 . S
H606 C612 0.930 . S
H607 C616 0.930 . S
H608 C621 0.929 . S
H609 C619 0.929 . S
H610 C614 0.929 . S
H611 C620 0.929 . S
C612 H606 0.930 . S
C612 C613 1.367 . S
C612 C620 1.378 . S
C613 C612 1.367 . S
C613 C621 1.433 . S
C614 H610 0.929 . S
C614 C616 1.378 . S
C614 C618 1.350 . S
C615 C618 1.463 . S
C615 C620 1.350 . S
C615 N623 1.427 . S
C616 H607 0.930 . S
C616 C614 1.378 . S
C616 C617 1.367 . S
C617 C616 1.367 . S
C617 C619 1.433 . S
C618 C614 1.350 . S
C618 C615 1.463 . S
C618 N622 1.427 . S
C619 H609 0.929 . S
C619 C617 1.433 . S
C619 N622 1.384 . S
C620 H611 0.929 . S
C620 C612 1.378 . S
C620 C615 1.350 . S
C621 H608 0.929 . S
C621 C613 1.433 . S
C621 N623 1.384 . S
N622 C618 1.427 . S
N622 C619 1.384 . S
N623 C615 1.427 . S
N623 C621 1.384 . S
H624 C630 0.930 . S
H625 C634 0.930 . S
H626 C639 0.929 . S
H627 C637 0.929 . S
H628 C632 0.929 . S
H629 C638 0.929 . S
C630 H624 0.930 . S
C630 C631 1.367 . S
C630 C638 1.378 . S
C631 C630 1.367 . S
C631 C639 1.433 . S
C632 H628 0.929 . S
C632 C634 1.378 . S
C632 C636 1.350 . S
C633 C636 1.463 . S
C633 C638 1.350 . S
C633 N641 1.427 . S
C634 H625 0.930 . S
C634 C632 1.378 . S
C634 C635 1.367 . S
C635 C634 1.367 . S
C635 C637 1.433 . S
C636 C632 1.350 . S
C636 C633 1.463 . S
C636 N640 1.427 . S
C637 H627 0.929 . S
C637 C635 1.433 . S
C637 N640 1.384 . S
C638 H629 0.929 . S
C638 C630 1.378 . S
C638 C633 1.350 . S
C639 H626 0.929 . S
C639 C631 1.433 . S
C639 N641 1.384 . S
N640 C636 1.427 . S
N640 C637 1.384 . S
N641 C633 1.427 . S
N641 C639 1.384 . S
H642 C648 0.930 . S
H643 C652 0.930 . S
H644 C657 0.929 . S
H645 C655 0.929 . S
H646 C650 0.929 . S
H647 C656 0.929 . S
C648 H642 0.930 . S
C648 C649 1.367 . S
C648 C656 1.378 . S
C649 C648 1.367 . S
C649 C657 1.433 . S
C650 H646 0.929 . S
C650 C652 1.378 . S
C650 C654 1.350 . S
C651 C654 1.463 . S
C651 C656 1.350 . S
C651 N659 1.427 . S
C652 H643 0.930 . S
C652 C650 1.378 . S
C652 C653 1.367 . S
C653 C652 1.367 . S
C653 C655 1.433 . S
C654 C650 1.350 . S
C654 C651 1.463 . S
C654 N658 1.427 . S
C655 H645 0.929 . S
C655 C653 1.433 . S
C655 N658 1.384 . S
C656 H647 0.929 . S
C656 C648 1.378 . S
C656 C651 1.350 . S
C657 H644 0.929 . S
C657 C649 1.433 . S
C657 N659 1.384 . S
N658 C654 1.427 . S
N658 C655 1.384 . S
N659 C651 1.427 . S
N659 C657 1.384 . S
H660 C666 0.930 . S
H661 C670 0.930 . S
H662 C675 0.929 . S
H663 C673 0.929 . S
H664 C668 0.929 . S
H665 C674 0.929 . S
C666 H660 0.930 . S
C666 C667 1.367 . S
C666 C674 1.378 . S
C667 C666 1.367 . S
C667 C675 1.433 . S
C668 H664 0.929 . S
C668 C670 1.378 . S
C668 C672 1.350 . S
C669 C672 1.463 . S
C669 C674 1.350 . S
C669 N677 1.427 . S
C670 H661 0.930 . S
C670 C668 1.378 . S
C670 C671 1.367 . S
C671 C670 1.367 . S
C671 C673 1.433 . S
C672 C668 1.350 . S
C672 C669 1.463 . S
C672 N676 1.427 . S
C673 H663 0.929 . S
C673 C671 1.433 . S
C673 N676 1.384 . S
C674 H665 0.929 . S
C674 C666 1.378 . S
C674 C669 1.350 . S
C675 H662 0.929 . S
C675 C667 1.433 . S
C675 N677 1.384 . S
N676 C672 1.427 . S
N676 C673 1.384 . S
N677 C669 1.427 . S
N677 C675 1.384 . S
H678 C684 0.930 . S
H679 C688 0.930 . S
H680 C693 0.929 . S
H681 C691 0.929 . S
H682 C686 0.929 . S
H683 C692 0.929 . S
C684 H678 0.930 . S
C684 C685 1.367 . S
C684 C692 1.378 . S
C685 C684 1.367 . S
C685 C693 1.433 . S
C686 H682 0.929 . S
C686 C688 1.378 . S
C686 C690 1.350 . S
C687 C690 1.463 . S
C687 C692 1.350 . S
C687 N695 1.427 . S
C688 H679 0.930 . S
C688 C686 1.378 . S
C688 C689 1.367 . S
C689 C688 1.367 . S
C689 C691 1.433 . S
C690 C686 1.350 . S
C690 C687 1.463 . S
C690 N694 1.427 . S
C691 H681 0.929 . S
C691 C689 1.433 . S
C691 N694 1.384 . S
C692 H683 0.929 . S
C692 C684 1.378 . S
C692 C687 1.350 . S
C693 H680 0.929 . S
C693 C685 1.433 . S
C693 N695 1.384 . S
N694 C690 1.427 . S
N694 C691 1.384 . S
N695 C687 1.427 . S
N695 C693 1.384 . S
H696 C702 0.930 . S
H697 C706 0.930 . S
H698 C711 0.929 . S
H699 C709 0.929 . S
H700 C704 0.929 . S
H701 C710 0.929 . S
C702 H696 0.930 . S
C702 C703 1.367 . S
C702 C710 1.378 . S
C703 C702 1.367 . S
C703 C711 1.433 . S
C704 H700 0.929 . S
C704 C706 1.378 . S
C704 C708 1.350 . S
C705 C708 1.463 . S
C705 C710 1.350 . S
C705 N713 1.427 . S
C706 H697 0.930 . S
C706 C704 1.378 . S
C706 C707 1.367 . S
C707 C706 1.367 . S
C707 C709 1.433 . S
C708 C704 1.350 . S
C708 C705 1.463 . S
C708 N712 1.427 . S
C709 H699 0.929 . S
C709 C707 1.433 . S
C709 N712 1.384 . S
C710 H701 0.929 . S
C710 C702 1.378 . S
C710 C705 1.350 . S
C711 H698 0.929 . S
C711 C703 1.433 . S
C711 N713 1.384 . S
N712 C708 1.427 . S
N712 C709 1.384 . S
N713 C705 1.427 . S
N713 C711 1.384 . S
H714 C720 0.930 . S
H715 C724 0.930 . S
H716 C729 0.929 . S
H717 C727 0.929 . S
H718 C722 0.929 . S
H719 C728 0.929 . S
C720 H714 0.930 . S
C720 C721 1.367 . S
C720 C728 1.378 . S
C721 C720 1.367 . S
C721 C729 1.433 . S
C722 H718 0.929 . S
C722 C724 1.378 . S
C722 C726 1.350 . S
C723 C726 1.463 . S
C723 C728 1.350 . S
C723 N731 1.427 . S
C724 H715 0.930 . S
C724 C722 1.378 . S
C724 C725 1.367 . S
C725 C724 1.367 . S
C725 C727 1.433 . S
C726 C722 1.350 . S
C726 C723 1.463 . S
C726 N730 1.427 . S
C727 H717 0.929 . S
C727 C725 1.433 . S
C727 N730 1.384 . S
C728 H719 0.929 . S
C728 C720 1.378 . S
C728 C723 1.350 . S
C729 H716 0.929 . S
C729 C721 1.433 . S
C729 N731 1.384 . S
N730 C726 1.427 . S
N730 C727 1.384 . S
N731 C723 1.427 . S
N731 C729 1.384 . S
H732 C738 0.930 . S
H733 C742 0.930 . S
H734 C747 0.929 . S
H735 C745 0.929 . S
H736 C740 0.929 . S
H737 C746 0.929 . S
C738 H732 0.930 . S
C738 C739 1.367 . S
C738 C746 1.378 . S
C739 C738 1.367 . S
C739 C747 1.433 . S
C740 H736 0.929 . S
C740 C742 1.378 . S
C740 C744 1.350 . S
C741 C744 1.463 . S
C741 C746 1.350 . S
C741 N749 1.427 . S
C742 H733 0.930 . S
C742 C740 1.378 . S
C742 C743 1.367 . S
C743 C742 1.367 . S
C743 C745 1.433 . S
C744 C740 1.350 . S
C744 C741 1.463 . S
C744 N748 1.427 . S
C745 H735 0.929 . S
C745 C743 1.433 . S
C745 N748 1.384 . S
C746 H737 0.929 . S
C746 C738 1.378 . S
C746 C741 1.350 . S
C747 H734 0.929 . S
C747 C739 1.433 . S
C747 N749 1.384 . S
N748 C744 1.427 . S
N748 C745 1.384 . S
N749 C741 1.427 . S
N749 C747 1.384 . S
H750 C756 0.930 . S
H751 C760 0.930 . S
H752 C765 0.929 . S
H753 C763 0.929 . S
H754 C758 0.929 . S
H755 C764 0.929 . S
C756 H750 0.930 . S
C756 C757 1.367 . S
C756 C764 1.378 . S
C757 C756 1.367 . S
C757 C765 1.433 . S
C758 H754 0.929 . S
C758 C760 1.378 . S
C758 C762 1.350 . S
C759 C762 1.463 . S
C759 C764 1.350 . S
C759 N767 1.427 . S
C760 H751 0.930 . S
C760 C758 1.378 . S
C760 C761 1.367 . S
C761 C760 1.367 . S
C761 C763 1.433 . S
C762 C758 1.350 . S
C762 C759 1.463 . S
C762 N766 1.427 . S
C763 H753 0.929 . S
C763 C761 1.433 . S
C763 N766 1.384 . S
C764 H755 0.929 . S
C764 C756 1.378 . S
C764 C759 1.350 . S
C765 H752 0.929 . S
C765 C757 1.433 . S
C765 N767 1.384 . S
N766 C762 1.427 . S
N766 C763 1.384 . S
N767 C759 1.427 . S
N767 C765 1.384 . S
H768 C774 0.930 . S
H769 C778 0.930 . S
H770 C783 0.929 . S
H771 C781 0.929 . S
H772 C776 0.929 . S
H773 C782 0.929 . S
C774 H768 0.930 . S
C774 C775 1.367 . S
C774 C782 1.378 . S
C775 C774 1.367 . S
C775 C783 1.433 . S
C776 H772 0.929 . S
C776 C778 1.378 . S
C776 C780 1.350 . S
C777 C780 1.463 . S
C777 C782 1.350 . S
C777 N785 1.427 . S
C778 H769 0.930 . S
C778 C776 1.378 . S
C778 C779 1.367 . S
C779 C778 1.367 . S
C779 C781 1.433 . S
C780 C776 1.350 . S
C780 C777 1.463 . S
C780 N784 1.427 . S
C781 H771 0.929 . S
C781 C779 1.433 . S
C781 N784 1.384 . S
C782 H773 0.929 . S
C782 C774 1.378 . S
C782 C777 1.350 . S
C783 H770 0.929 . S
C783 C775 1.433 . S
C783 N785 1.384 . S
N784 C780 1.427 . S
N784 C781 1.384 . S
N785 C777 1.427 . S
N785 C783 1.384 . S
H786 C792 0.930 . S
H787 C796 0.930 . S
H788 C801 0.929 . S
H789 C799 0.929 . S
H790 C794 0.929 . S
H791 C800 0.929 . S
C792 H786 0.930 . S
C792 C793 1.367 . S
C792 C800 1.378 . S
C793 C792 1.367 . S
C793 C801 1.433 . S
C794 H790 0.929 . S
C794 C796 1.378 . S
C794 C798 1.350 . S
C795 C798 1.463 . S
C795 C800 1.350 . S
C795 N803 1.427 . S
C796 H787 0.930 . S
C796 C794 1.378 . S
C796 C797 1.367 . S
C797 C796 1.367 . S
C797 C799 1.433 . S
C798 C794 1.350 . S
C798 C795 1.463 . S
C798 N802 1.427 . S
C799 H789 0.929 . S
C799 C797 1.433 . S
C799 N802 1.384 . S
C800 H791 0.929 . S
C800 C792 1.378 . S
C800 C795 1.350 . S
C801 H788 0.929 . S
C801 C793 1.433 . S
C801 N803 1.384 . S
N802 C798 1.427 . S
N802 C799 1.384 . S
N803 C795 1.427 . S
N803 C801 1.384 . S
H804 C810 0.930 . S
H805 C814 0.930 . S
H806 C819 0.929 . S
H807 C817 0.929 . S
H808 C812 0.929 . S
H809 C818 0.929 . S
C810 H804 0.930 . S
C810 C811 1.367 . S
C810 C818 1.378 . S
C811 C810 1.367 . S
C811 C819 1.433 . S
C812 H808 0.929 . S
C812 C814 1.378 . S
C812 C816 1.350 . S
C813 C816 1.463 . S
C813 C818 1.350 . S
C813 N821 1.427 . S
C814 H805 0.930 . S
C814 C812 1.378 . S
C814 C815 1.367 . S
C815 C814 1.367 . S
C815 C817 1.433 . S
C816 C812 1.350 . S
C816 C813 1.463 . S
C816 N820 1.427 . S
C817 H807 0.929 . S
C817 C815 1.433 . S
C817 N820 1.384 . S
C818 H809 0.929 . S
C818 C810 1.378 . S
C818 C813 1.350 . S
C819 H806 0.929 . S
C819 C811 1.433 . S
C819 N821 1.384 . S
N820 C816 1.427 . S
N820 C817 1.384 . S
N821 C813 1.427 . S
N821 C819 1.384 . S
H822 C828 0.930 . S
H823 C832 0.930 . S
H824 C837 0.929 . S
H825 C835 0.929 . S
H826 C830 0.929 . S
H827 C836 0.929 . S
C828 H822 0.930 . S
C828 C829 1.367 . S
C828 C836 1.378 . S
C829 C828 1.367 . S
C829 C837 1.433 . S
C830 H826 0.929 . S
C830 C832 1.378 . S
C830 C834 1.350 . S
C831 C834 1.463 . S
C831 C836 1.350 . S
C831 N839 1.427 . S
C832 H823 0.930 . S
C832 C830 1.378 . S
C832 C833 1.367 . S
C833 C832 1.367 . S
C833 C835 1.433 . S
C834 C830 1.350 . S
C834 C831 1.463 . S
C834 N838 1.427 . S
C835 H825 0.929 . S
C835 C833 1.433 . S
C835 N838 1.384 . S
C836 H827 0.929 . S
C836 C828 1.378 . S
C836 C831 1.350 . S
C837 H824 0.929 . S
C837 C829 1.433 . S
C837 N839 1.384 . S
N838 C834 1.427 . S
N838 C835 1.384 . S
N839 C831 1.427 . S
N839 C837 1.384 . S
H840 C846 0.930 . S
H841 C850 0.930 . S
H842 C855 0.929 . S
H843 C853 0.929 . S
H844 C848 0.929 . S
H845 C854 0.929 . S
C846 H840 0.930 . S
C846 C847 1.367 . S
C846 C854 1.378 . S
C847 C846 1.367 . S
C847 C855 1.433 . S
C848 H844 0.929 . S
C848 C850 1.378 . S
C848 C852 1.350 . S
C849 C852 1.463 . S
C849 C854 1.350 . S
C849 N857 1.427 . S
C850 H841 0.930 . S
C850 C848 1.378 . S
C850 C851 1.367 . S
C851 C850 1.367 . S
C851 C853 1.433 . S
C852 C848 1.350 . S
C852 C849 1.463 . S
C852 N856 1.427 . S
C853 H843 0.929 . S
C853 C851 1.433 . S
C853 N856 1.384 . S
C854 H845 0.929 . S
C854 C846 1.378 . S
C854 C849 1.350 . S
C855 H842 0.929 . S
C855 C847 1.433 . S
C855 N857 1.384 . S
N856 C852 1.427 . S
N856 C853 1.384 . S
N857 C849 1.427 . S
N857 C855 1.384 . S
C433 C7 1.867 . S
C437 C159 1.855 . S
C451 C30 1.627 . S
C455 C216 1.627 . S
C473 C270 1.726 . S
C469 N58 1.701 . S
C491 C327 1.459 . S
C487 N81 1.451 . S
C509 C351 1.754 . S
C505 C99 1.763 . S
C527 C408 1.548 . S
C523 N127 1.498 . S
C541 N25 1.718 . S
C545 C255 1.743 . S
C559 C62 1.612 . S
C563 C312 1.615 . S
C581 C366 1.788 . S
C577 C85 1.808 . S
C599 C423 1.494 . S
C595 N94 1.518 . S
C613 C131 1.803 . S
C617 C174 1.772 . S
C635 C231 1.460 . S
C631 N2 1.459 . S
C653 C318 1.803 . S
C649 C16 1.813 . S
C667 C39 1.585 . S
C671 C360 1.555 . S
C689 C399 1.717 . S
C685 N48 1.700 . S
C703 N71 1.441 . S
C707 C168 1.447 . S
C721 C108 1.763 . S
C725 C207 1.744 . S
C739 N117 1.482 . S
C743 C279 1.536 . S
C757 N35 1.690 . S
C761 C414 1.729 . S
C779 C183 1.626 . S
C775 C53 1.624 . S
C793 C76 1.841 . S
C797 C222 1.827 . S
C811 N104 1.487 . S
C815 C264 1.482 . S
C829 C122 1.750 . S
C833 C303 1.722 . S
C847 N12 1.420 . S
C851 C375 1.474 . S
