# Generated by pormake.
# Topology cml, (3,6)-cn, num edge types: 1
# Building blocks:
#     Node 0, Type 0, BuildingBlock: BETDIP_clean_linker_0, # of connection points: 3
#     Node 1, Type 0, BuildingBlock: BETDIP_clean_linker_0, # of connection points: 3
#     Node 2, Type 0, BuildingBlock: BETDIP_clean_linker_0, # of connection points: 3
#     Node 3, Type 0, BuildingBlock: BETDIP_clean_linker_0, # of connection points: 3
#     Node 4, Type 0, BuildingBlock: BETDIP_clean_linker_0, # of connection points: 3
#     Node 5, Type 0, BuildingBlock: BETDIP_clean_linker_0, # of connection points: 3
#     Node 6, Type 0, BuildingBlock: BETDIP_clean_linker_0, # of connection points: 3
#     Node 7, Type 0, BuildingBlock: BETDIP_clean_linker_0, # of connection points: 3
#     Node 8, Type 1, BuildingBlock: IZENUY_clean_sbu_0, # of connection points: 6
#     Node 9, Type 1, BuildingBlock: IZENUY_clean_sbu_0, # of connection points: 6
#     Node 10, Type 1, BuildingBlock: IZENUY_clean_sbu_0, # of connection points: 6
#     Node 11, Type 1, BuildingBlock: IZENUY_clean_sbu_0, # of connection points: 6
#     Edge 12, Type (0, 1), BuildingBlock: UVAHIK_clean_linker_0, # of connection points: 2
#     Edge 13, Type (0, 1), BuildingBlock: UVAHIK_clean_linker_0, # of connection points: 2
#     Edge 14, Type (0, 1), BuildingBlock: UVAHIK_clean_linker_0, # of connection points: 2
#     Edge 15, Type (0, 1), BuildingBlock: UVAHIK_clean_linker_0, # of connection points: 2
#     Edge 16, Type (0, 1), BuildingBlock: UVAHIK_clean_linker_0, # of connection points: 2
#     Edge 17, Type (0, 1), BuildingBlock: UVAHIK_clean_linker_0, # of connection points: 2
#     Edge 18, Type (0, 1), BuildingBlock: UVAHIK_clean_linker_0, # of connection points: 2
#     Edge 19, Type (0, 1), BuildingBlock: UVAHIK_clean_linker_0, # of connection points: 2
#     Edge 20, Type (0, 1), BuildingBlock: UVAHIK_clean_linker_0, # of connection points: 2
#     Edge 21, Type (0, 1), BuildingBlock: UVAHIK_clean_linker_0, # of connection points: 2
#     Edge 22, Type (0, 1), BuildingBlock: UVAHIK_clean_linker_0, # of connection points: 2
#     Edge 23, Type (0, 1), BuildingBlock: UVAHIK_clean_linker_0, # of connection points: 2
#     Edge 24, Type (0, 1), BuildingBlock: UVAHIK_clean_linker_0, # of connection points: 2
#     Edge 25, Type (0, 1), BuildingBlock: UVAHIK_clean_linker_0, # of connection points: 2
#     Edge 26, Type (0, 1), BuildingBlock: UVAHIK_clean_linker_0, # of connection points: 2
#     Edge 27, Type (0, 1), BuildingBlock: UVAHIK_clean_linker_0, # of connection points: 2
#     Edge 28, Type (0, 1), BuildingBlock: UVAHIK_clean_linker_0, # of connection points: 2
#     Edge 29, Type (0, 1), BuildingBlock: UVAHIK_clean_linker_0, # of connection points: 2
#     Edge 30, Type (0, 1), BuildingBlock: UVAHIK_clean_linker_0, # of connection points: 2
#     Edge 31, Type (0, 1), BuildingBlock: UVAHIK_clean_linker_0, # of connection points: 2
#     Edge 32, Type (0, 1), BuildingBlock: UVAHIK_clean_linker_0, # of connection points: 2
#     Edge 33, Type (0, 1), BuildingBlock: UVAHIK_clean_linker_0, # of connection points: 2
#     Edge 34, Type (0, 1), BuildingBlock: UVAHIK_clean_linker_0, # of connection points: 2
#     Edge 35, Type (0, 1), BuildingBlock: UVAHIK_clean_linker_0, # of connection points: 2
# Relax obj value: 0.003
# Max RMSD: 0.069
# Mean RMSD: 0.053
data_MOF--net-cml--node1-IZENUY_clean_sbu_0--node2-BETDIP_clean_linker_0--edge1-UVAHIK_clean_linker_0
_symmetry_space_group_name_H-M    P1
_symmetry_Int_Tables_number       1
_symmetry_cell_setting            triclinic
loop_
_symmetry_equiv_pos_as_xyz
'x, y, z'
_cell_length_a     48.229453
_cell_length_b     53.372811
_cell_length_c     47.262388
_cell_angle_alpha  90.002949
_cell_angle_beta   89.998843
_cell_angle_gamma 90.049345
loop_
_atom_site_label
_atom_site_type_symbol
_atom_site_fract_x
_atom_site_fract_y
_atom_site_fract_z
_atom_type_partial_charge
H0 H 0.2703 0.35308 0.04164 0.0
H1 H 0.2704 0.39728 0.96552 0.0
H2 H 0.32053 0.41948 0.03627 0.0
H3 H 0.25733 0.36148 0.94515 0.0
C4 C 0.24517 0.35137 0.96075 0.0
C5 C 0.27767 0.3692 0.02989 0.0
C6 C 0.29611 0.38618 0.04259 0.0
C7 C 0.26876 0.37266 0.00195 0.0
C8 C 0.27789 0.3938 0.98672 0.0
C9 C 0.29636 0.41099 0.99911 0.0
C10 C 0.30538 0.40692 0.02699 0.0
N11 N 0.25035 0.35466 0.99013 0.0
H12 H 0.73513 0.64607 0.54336 0.0
H13 H 0.73426 0.60256 0.46672 0.0
H14 H 0.68374 0.58045 0.5372 0.0
H15 H 0.74792 0.63833 0.44679 0.0
C16 C 0.76014 0.64827 0.46248 0.0
C17 C 0.72751 0.63014 0.53144 0.0
C18 C 0.70876 0.61332 0.54392 0.0
C19 C 0.73637 0.6268 0.50346 0.0
C20 C 0.72686 0.60594 0.48797 0.0
C21 C 0.7081 0.58891 0.50016 0.0
C22 C 0.69914 0.59286 0.52808 0.0
N23 N 0.75501 0.6447 0.49183 0.0
H24 H 0.73459 0.35437 0.04588 0.0
H25 H 0.73336 0.39556 0.96754 0.0
H26 H 0.6822 0.41905 0.03672 0.0
H27 H 0.77302 0.37657 0.95931 0.0
C28 C 0.77298 0.35881 0.97048 0.0
C29 C 0.72686 0.36984 0.03331 0.0
C30 C 0.70749 0.38658 0.04492 0.0
C31 C 0.7368 0.37309 0.00567 0.0
C32 C 0.72662 0.39308 0.98916 0.0
C33 C 0.70728 0.41002 0.00049 0.0
C34 C 0.69791 0.40659 0.02832 0.0
N35 N 0.75647 0.35554 0.99514 0.0
H36 H 0.27114 0.64999 0.5429 0.0
H37 H 0.27187 0.60649 0.4661 0.0
H38 H 0.3205 0.58308 0.53716 0.0
H39 H 0.23387 0.62708 0.4558 0.0
C40 C 0.23375 0.64479 0.46704 0.0
C41 C 0.27838 0.63389 0.53104 0.0
C42 C 0.29674 0.6168 0.54362 0.0
C43 C 0.26876 0.6302 0.50334 0.0
C44 C 0.27832 0.60939 0.48774 0.0
C45 C 0.2966 0.59207 0.50011 0.0
C46 C 0.30562 0.59594 0.52798 0.0
N47 N 0.24988 0.64804 0.49196 0.0
H48 H 0.76595 0.85505 0.04462 0.0
H49 H 0.77477 0.89522 0.96622 0.0
H50 H 0.81834 0.92005 0.04034 0.0
H51 H 0.75746 0.86122 0.94687 0.0
C52 C 0.74495 0.85152 0.96249 0.0
C53 C 0.77482 0.87044 0.03269 0.0
C54 C 0.79311 0.88722 0.04592 0.0
C55 C 0.76807 0.87307 0.00402 0.0
C56 C 0.77967 0.89297 0.98837 0.0
C57 C 0.79808 0.90997 0.00125 0.0
C58 C 0.80424 0.90708 0.03014 0.0
N59 N 0.74956 0.8553 0.9919 0.0
H60 H 0.23391 0.14564 0.54433 0.0
H61 H 0.2348 0.10242 0.4674 0.0
H62 H 0.18527 0.07841 0.53779 0.0
H63 H 0.24725 0.13856 0.44774 0.0
C64 C 0.25949 0.14846 0.46344 0.0
C65 C 0.22697 0.12955 0.53226 0.0
C66 C 0.20897 0.11202 0.54463 0.0
C67 C 0.23604 0.12658 0.50428 0.0
C68 C 0.22727 0.10551 0.48865 0.0
C69 C 0.20909 0.0879 0.50069 0.0
C70 C 0.2001 0.09137 0.52867 0.0
N71 N 0.25425 0.14492 0.49278 0.0
H72 H 0.23351 0.85332 0.04482 0.0
H73 H 0.23243 0.89483 0.9667 0.0
H74 H 0.18136 0.91821 0.03602 0.0
H75 H 0.27202 0.87576 0.95838 0.0
C76 C 0.27193 0.85798 0.9695 0.0
C77 C 0.22584 0.86888 0.03234 0.0
C78 C 0.20652 0.88561 0.04402 0.0
C79 C 0.23579 0.87221 0.00473 0.0
C80 C 0.22568 0.89229 0.98831 0.0
C81 C 0.20639 0.90922 0.99972 0.0
C82 C 0.19702 0.90573 0.02754 0.0
N83 N 0.25541 0.85466 0.99413 0.0
H84 H 0.76902 0.14885 0.54495 0.0
H85 H 0.77095 0.10694 0.46712 0.0
H86 H 0.82009 0.08314 0.53771 0.0
H87 H 0.73321 0.12778 0.45654 0.0
C88 C 0.73304 0.14526 0.46824 0.0
C89 C 0.77662 0.13309 0.53274 0.0
C90 C 0.79535 0.11612 0.54494 0.0
C91 C 0.76726 0.12983 0.50491 0.0
C92 C 0.77729 0.10949 0.48885 0.0
C93 C 0.79602 0.09231 0.50078 0.0
C94 C 0.80483 0.09578 0.5288 0.0
N95 N 0.7484 0.14778 0.49376 0.0
Fe96 Fe 0.9998 0.83785 0.32193 0.0
Fe97 Fe 1.00004 0.86533 0.37907 0.0
O98 O 1.00024 0.86617 0.34156 0.0
Fe99 Fe 0.00075 0.89533 0.32359 0.0
O100 O 0.96817 0.88852 0.306 0.0
O101 O 0.97963 0.85059 0.29234 0.0
O102 O 0.96714 0.82846 0.33759 0.0
C103 C 0.96276 0.82642 0.36378 0.0
C104 C 0.03698 0.86515 0.29106 0.0
O105 O 0.9787 0.83686 0.38156 0.0
C106 C 0.03752 0.90475 0.3663 0.0
O107 O 0.01982 0.81986 0.34795 0.0
O108 O 0.03204 0.84749 0.38006 0.0
O109 O 0.02112 0.88391 0.29352 0.0
O110 O 0.03247 0.84531 0.30482 0.0
C111 C 0.96438 0.90433 0.36951 0.0
O112 O 0.0214 0.89357 0.3833 0.0
O113 O 0.03328 0.90416 0.33998 0.0
C114 C 0.03578 0.82682 0.36772 0.0
O115 O 0.968 0.88318 0.38084 0.0
O116 O 0.98059 0.91211 0.35039 0.0
C117 C 0.96371 0.8694 0.29099 0.0
Fe118 Fe 0.00318 0.13629 0.87905 0.0
Fe119 Fe 1.00044 0.10608 0.82396 0.0
O120 O 0.00203 0.13531 0.84157 0.0
Fe121 Fe 0.00254 0.16351 0.82173 0.0
O122 O 0.03567 0.17258 0.83668 0.0
O123 O 0.02465 0.16468 0.88088 0.0
O124 O 0.03514 0.11831 0.87996 0.0
C125 C 0.03807 0.097 0.86879 0.0
C126 C 0.96757 0.17499 0.86827 0.0
O127 O 0.021 0.0892 0.85043 0.0
C128 C 0.96418 0.13657 0.7919 0.0
O129 O 0.98191 0.10805 0.88407 0.0
O130 O 0.96806 0.09807 0.84126 0.0
O131 O 0.98323 0.18176 0.84813 0.0
O132 O 0.97133 0.15432 0.88065 0.0
C133 C 0.03727 0.13105 0.79017 0.0
O134 O 0.97964 0.11755 0.79427 0.0
O135 O 0.96943 0.15646 0.80528 0.0
C136 C 0.96494 0.09715 0.86772 0.0
O137 O 0.03268 0.11218 0.80552 0.0
O138 O 0.02198 0.1503 0.7918 0.0
C139 C 0.04047 0.1748 0.86278 0.0
Fe140 Fe 0.50044 0.33738 0.32207 0.0
Fe141 Fe 0.49968 0.36479 0.37922 0.0
O142 O 0.49995 0.36569 0.34171 0.0
Fe143 Fe 0.49964 0.39488 0.32381 0.0
O144 O 0.46739 0.38729 0.30598 0.0
O145 O 0.48002 0.34963 0.29241 0.0
O146 O 0.46801 0.32719 0.33762 0.0
C147 C 0.46365 0.32501 0.36381 0.0
C148 C 0.53689 0.36559 0.29134 0.0
O149 O 0.4793 0.33575 0.38162 0.0
C150 C 0.53593 0.40517 0.36669 0.0
O151 O 0.52094 0.3199 0.34815 0.0
O152 O 0.53225 0.34786 0.38023 0.0
O153 O 0.52056 0.38402 0.29382 0.0
O154 O 0.5329 0.34566 0.30508 0.0
C155 C 0.46285 0.40287 0.36973 0.0
O156 O 0.52007 0.39359 0.3836 0.0
O157 O 0.5318 0.40452 0.34036 0.0
C158 C 0.53672 0.32733 0.36785 0.0
O159 O 0.46709 0.38174 0.38088 0.0
O160 O 0.47878 0.4111 0.35058 0.0
C161 C 0.46366 0.36812 0.29084 0.0
Fe162 Fe 0.50316 0.63627 0.87872 0.0
Fe163 Fe 0.50187 0.60655 0.82306 0.0
O164 O 0.50262 0.63562 0.84121 0.0
Fe165 Fe 0.50296 0.66405 0.82176 0.0
O166 O 0.53582 0.67325 0.83716 0.0
O167 O 0.52458 0.6647 0.88118 0.0
O168 O 0.53516 0.61836 0.88007 0.0
C169 C 0.53866 0.59726 0.86859 0.0
C170 C 0.46746 0.67492 0.86797 0.0
O171 O 0.52231 0.58961 0.84952 0.0
C172 C 0.46538 0.63701 0.7911 0.0
O173 O 0.48179 0.60804 0.883 0.0
O174 O 0.46951 0.59766 0.83974 0.0
O175 O 0.48328 0.68193 0.84812 0.0
O176 O 0.47121 0.65416 0.88012 0.0
C177 C 0.53856 0.63256 0.79015 0.0
O178 O 0.48117 0.61816 0.79331 0.0
O179 O 0.47011 0.65677 0.80492 0.0
C180 C 0.46553 0.59691 0.86609 0.0
O181 O 0.53426 0.6134 0.80513 0.0
O182 O 0.52276 0.65142 0.79187 0.0
C183 C 0.54041 0.67517 0.86334 0.0
C184 C 0.22081 0.32895 0.92171 0.0
C185 C 0.22467 0.33271 0.95083 0.0
C186 C 0.20152 0.31139 0.91196 0.0
C187 C 0.13889 0.27678 0.93411 0.0
H188 H 0.15665 0.2336 0.87066 0.0
C189 C 0.06798 0.19493 0.90158 0.0
C190 C 0.06304 0.19157 0.87251 0.0
C191 C 0.08839 0.21154 0.91093 0.0
C192 C 0.15128 0.24569 0.88822 0.0
H193 H 0.21145 0.321 0.99269 0.0
H194 H 0.17799 0.29024 0.97571 0.0
H195 H 0.19084 0.26394 0.88738 0.0
H196 H 0.07621 0.20272 0.83043 0.0
H197 H 0.11169 0.23191 0.8468 0.0
H198 H 0.09934 0.25864 0.93495 0.0
C199 C 0.18961 0.30105 0.96035 0.0
C200 C 0.17086 0.26308 0.89779 0.0
C201 C 0.20891 0.31858 0.97009 0.0
C202 C 0.07943 0.20486 0.85298 0.0
C203 C 0.09987 0.22151 0.86236 0.0
C204 C 0.11934 0.25942 0.92455 0.0
C205 C 0.18565 0.29727 0.93118 0.0
C206 C 0.16489 0.2788 0.92088 0.0
C207 C 0.10439 0.22522 0.89145 0.0
C208 C 0.12531 0.24364 0.90153 0.0
H209 H 0.23268 0.33966 0.90646 0.0
H210 H 0.19874 0.30915 0.88936 0.0
H211 H 0.13344 0.2889 0.95163 0.0
H212 H 0.05592 0.18486 0.91723 0.0
H213 H 0.09168 0.21364 0.93348 0.0
C214 C 0.78416 0.67125 0.42367 0.0
C215 C 0.78053 0.66709 0.45275 0.0
C216 C 0.80325 0.68905 0.41408 0.0
C217 C 0.86575 0.72386 0.43622 0.0
H218 H 0.84694 0.76757 0.37356 0.0
C219 C 0.93611 0.80607 0.40311 0.0
C220 C 0.94047 0.80956 0.37395 0.0
C221 C 0.91588 0.78939 0.41277 0.0
C222 C 0.8526 0.75534 0.3909 0.0
H223 H 0.79398 0.6783 0.4947 0.0
H224 H 0.82712 0.70948 0.478 0.0
H225 H 0.81315 0.73691 0.39031 0.0
H226 H 0.92649 0.79855 0.33209 0.0
H227 H 0.8914 0.76928 0.349 0.0
H228 H 0.9052 0.74217 0.43677 0.0
C229 C 0.81545 0.69881 0.46255 0.0
C230 C 0.83325 0.73776 0.40049 0.0
C231 C 0.79634 0.68103 0.47213 0.0
C232 C 0.92373 0.79631 0.35469 0.0
C233 C 0.90349 0.77963 0.36438 0.0
C234 C 0.88508 0.74141 0.42664 0.0
C235 C 0.81914 0.70303 0.43342 0.0
C236 C 0.83961 0.72181 0.42326 0.0
C237 C 0.89951 0.77581 0.39353 0.0
C238 C 0.87875 0.75736 0.40386 0.0
H239 H 0.77224 0.66069 0.40832 0.0
H240 H 0.80584 0.69161 0.3915 0.0
H241 H 0.87147 0.71158 0.4535 0.0
H242 H 0.94847 0.81609 0.41856 0.0
H243 H 0.91303 0.78719 0.43537 0.0
C244 C 0.79389 0.31577 0.97481 0.0
C245 C 0.79208 0.33892 0.96074 0.0
C246 C 0.81241 0.29739 0.9654 0.0
C247 C 0.8763 0.28967 0.9231 0.0
H248 H 0.85463 0.21973 0.92011 0.0
C249 C 0.94272 0.21612 0.86587 0.0
C250 C 0.94639 0.19273 0.87905 0.0
C251 C 0.92351 0.23331 0.87637 0.0
C252 C 0.86109 0.23914 0.92113 0.0
H253 H 0.80779 0.36089 0.92574 0.0
H254 H 0.83992 0.32879 0.90913 0.0
H255 H 0.8218 0.25098 0.93752 0.0
H256 H 0.93222 0.16894 0.91338 0.0
H257 H 0.89874 0.19913 0.93184 0.0
H258 H 0.9155 0.27794 0.90667 0.0
C259 C 0.8274 0.32492 0.92765 0.0
C260 C 0.84229 0.25705 0.9311 0.0
C261 C 0.8089 0.34325 0.93703 0.0
C262 C 0.92998 0.1868 0.90273 0.0
C263 C 0.91068 0.20404 0.91324 0.0
C264 C 0.89504 0.27181 0.91314 0.0
C265 C 0.8295 0.30181 0.94179 0.0
C266 C 0.84961 0.28256 0.93198 0.0
C267 C 0.90742 0.2276 0.90031 0.0
C268 C 0.88761 0.24636 0.9118 0.0
H269 H 0.78117 0.31187 0.99317 0.0
H270 H 0.81369 0.27989 0.97692 0.0
H271 H 0.88282 0.30908 0.92404 0.0
H272 H 0.95481 0.22128 0.84746 0.0
H273 H 0.92116 0.25109 0.86559 0.0
C274 C 0.21251 0.68768 0.47147 0.0
C275 C 0.21457 0.66462 0.45728 0.0
C276 C 0.19377 0.70593 0.46219 0.0
C277 C 0.12958 0.71307 0.42038 0.0
H278 H 0.15012 0.78331 0.41774 0.0
C279 C 0.06125 0.78606 0.36468 0.0
C280 C 0.0574 0.80933 0.37807 0.0
C281 C 0.08089 0.76908 0.37476 0.0
C282 C 0.14397 0.7638 0.41867 0.0
H283 H 0.1991 0.64266 0.42215 0.0
H284 H 0.16656 0.67452 0.40577 0.0
H285 H 0.1836 0.75237 0.43457 0.0
H286 H 0.07167 0.83315 0.41233 0.0
H287 H 0.10589 0.8033 0.4301 0.0
H288 H 0.09002 0.72439 0.40451 0.0
C289 C 0.17907 0.67843 0.42428 0.0
C290 C 0.16315 0.74608 0.4283 0.0
C291 C 0.1978 0.66024 0.43353 0.0
C292 C 0.07406 0.81537 0.40154 0.0
C293 C 0.09377 0.79832 0.41164 0.0
C294 C 0.11044 0.73075 0.41079 0.0
C295 C 0.1767 0.70144 0.4386 0.0
C296 C 0.15623 0.72048 0.42905 0.0
C297 C 0.09722 0.77488 0.39851 0.0
C298 C 0.11746 0.7563 0.40959 0.0
H299 H 0.22518 0.69162 0.48986 0.0
H300 H 0.19228 0.72336 0.47383 0.0
H301 H 0.12337 0.69358 0.42125 0.0
H302 H 0.04899 0.78083 0.34641 0.0
H303 H 0.08338 0.75139 0.36382 0.0
C304 C 0.70826 0.81911 0.97186 0.0
C305 C 0.72433 0.83295 0.95259 0.0
C306 C 0.68892 0.8016 0.96215 0.0
C307 C 0.67058 0.7632 0.89976 0.0
H308 H 0.59876 0.75903 0.93636 0.0
C309 C 0.57945 0.70526 0.85413 0.0
C310 C 0.56282 0.69197 0.87343 0.0
C311 C 0.59981 0.72187 0.86376 0.0
C312 C 0.61884 0.75974 0.92612 0.0
H313 H 0.73277 0.83944 0.90822 0.0
H314 H 0.69874 0.80902 0.89116 0.0
H315 H 0.63281 0.78931 0.95316 0.0
H316 H 0.55511 0.68527 0.91806 0.0
H317 H 0.59074 0.71402 0.93477 0.0
H318 H 0.65651 0.73365 0.87265 0.0
C319 C 0.70133 0.81144 0.91376 0.0
C320 C 0.63836 0.7771 0.93575 0.0
C321 C 0.72068 0.82895 0.92349 0.0
C322 C 0.56739 0.69533 0.90257 0.0
C323 C 0.58772 0.71192 0.91219 0.0
C324 C 0.65103 0.74582 0.89012 0.0
C325 C 0.6852 0.79756 0.93299 0.0
C326 C 0.66447 0.77905 0.9227 0.0
C327 C 0.60401 0.72555 0.89291 0.0
C328 C 0.62494 0.74388 0.9032 0.0
H329 H 0.71063 0.82171 0.99446 0.0
H330 H 0.67709 0.791 0.97753 0.0
H331 H 0.69064 0.76396 0.8895 0.0
H332 H 0.57653 0.70312 0.83154 0.0
H333 H 0.61184 0.73224 0.84835 0.0
C334 C 0.28417 0.17062 0.4245 0.0
C335 C 0.28023 0.16695 0.45362 0.0
C336 C 0.30363 0.188 0.41473 0.0
C337 C 0.34323 0.244 0.43672 0.0
H338 H 0.38986 0.22705 0.37269 0.0
C339 C 0.43712 0.30437 0.40307 0.0
C340 C 0.44163 0.3078 0.37392 0.0
C341 C 0.41691 0.28763 0.41267 0.0
C342 C 0.37677 0.2322 0.39038 0.0
H343 H 0.29362 0.17849 0.49546 0.0
H344 H 0.32776 0.2087 0.47843 0.0
H345 H 0.35585 0.19683 0.38979 0.0
H346 H 0.42799 0.29659 0.33202 0.0
H347 H 0.39262 0.26753 0.34882 0.0
H348 H 0.36423 0.27935 0.43734 0.0
C349 C 0.31557 0.19838 0.4631 0.0
C350 C 0.35728 0.21487 0.40019 0.0
C351 C 0.29612 0.18097 0.47286 0.0
C352 C 0.4252 0.29432 0.35461 0.0
C353 C 0.40501 0.27755 0.36423 0.0
C354 C 0.36273 0.26133 0.42691 0.0
C355 C 0.31956 0.20209 0.43391 0.0
C356 C 0.34029 0.22055 0.42349 0.0
C357 C 0.40073 0.27391 0.39338 0.0
C358 C 0.37974 0.25563 0.40363 0.0
H359 H 0.27212 0.16007 0.40925 0.0
H360 H 0.30593 0.19062 0.39213 0.0
H361 H 0.33017 0.24912 0.45445 0.0
H362 H 0.44937 0.31444 0.41855 0.0
H363 H 0.41435 0.28507 0.43525 0.0
C364 C 0.30803 0.84248 0.93623 0.0
C365 C 0.29106 0.8381 0.95981 0.0
C366 C 0.32659 0.82417 0.92694 0.0
C367 C 0.34146 0.75633 0.93029 0.0
H368 H 0.41492 0.77734 0.90679 0.0
C369 C 0.42953 0.68633 0.90222 0.0
C370 C 0.44608 0.69246 0.8787 0.0
C371 C 0.4101 0.70346 0.91271 0.0
C372 C 0.3944 0.77118 0.913 0.0
H373 H 0.27991 0.81099 0.99209 0.0
H374 H 0.31253 0.77904 0.976 0.0
H375 H 0.38206 0.80839 0.92399 0.0
H376 H 0.45458 0.7212 0.84735 0.0
H377 H 0.4207 0.75079 0.86544 0.0
H378 H 0.35391 0.71906 0.9192 0.0
C379 C 0.31133 0.79656 0.96451 0.0
C380 C 0.37556 0.78899 0.92286 0.0
C381 C 0.29276 0.81493 0.97383 0.0
C382 C 0.4424 0.7159 0.86564 0.0
C383 C 0.42305 0.73296 0.87612 0.0
C384 C 0.36036 0.73847 0.92041 0.0
C385 C 0.32858 0.80104 0.94105 0.0
C386 C 0.34878 0.78184 0.93139 0.0
C387 C 0.40686 0.72707 0.89992 0.0
C388 C 0.38696 0.74574 0.91141 0.0
H389 H 0.307 0.86014 0.92497 0.0
H390 H 0.33924 0.82807 0.90852 0.0
H391 H 0.32091 0.75024 0.93646 0.0
H392 H 0.43179 0.66842 0.91275 0.0
H393 H 0.39805 0.69842 0.93118 0.0
C394 C 0.69947 0.16245 0.43328 0.0
C395 C 0.71501 0.16578 0.45807 0.0
C396 C 0.68205 0.18146 0.42345 0.0
C397 C 0.64408 0.2376 0.44711 0.0
H398 H 0.63852 0.25085 0.36663 0.0
C399 C 0.57536 0.31701 0.40165 0.0
C400 C 0.55918 0.31063 0.37795 0.0
C401 C 0.59605 0.30079 0.41139 0.0
C402 C 0.6397 0.24726 0.38916 0.0
H403 H 0.72479 0.19174 0.49199 0.0
H404 H 0.69449 0.22501 0.47474 0.0
H405 H 0.67155 0.2198 0.38373 0.0
H406 H 0.55245 0.28232 0.34567 0.0
H407 H 0.58825 0.2541 0.36275 0.0
H408 H 0.61197 0.26489 0.45247 0.0
C409 C 0.69551 0.20759 0.46303 0.0
C410 C 0.65861 0.22946 0.39895 0.0
C411 C 0.71298 0.18856 0.47284 0.0
C412 C 0.56446 0.28785 0.36401 0.0
C413 C 0.58515 0.27172 0.37368 0.0
C414 C 0.62515 0.25544 0.4373 0.0
C415 C 0.67981 0.20424 0.43824 0.0
C416 C 0.66079 0.22419 0.42801 0.0
C417 C 0.60111 0.27792 0.39754 0.0
C418 C 0.6225 0.26023 0.40817 0.0
H419 H 0.70064 0.14504 0.42155 0.0
H420 H 0.66996 0.17812 0.40451 0.0
H421 H 0.64501 0.23379 0.46959 0.0
H422 H 0.57193 0.33446 0.41282 0.0
H423 H 0.60819 0.30622 0.42967 0.0
C424 C 0.31579 0.42992 0.95456 0.0
C425 C 0.30732 0.4327 0.98286 0.0
C426 C 0.32906 0.44961 0.94043 0.0
C427 C 0.37308 0.5033 0.95609 0.0
H428 H 0.35937 0.52303 0.8784 0.0
C429 C 0.43465 0.58369 0.90582 0.0
C430 C 0.44349 0.58061 0.87772 0.0
C431 C 0.41518 0.56738 0.9176 0.0
C432 C 0.36365 0.51757 0.90002 0.0
H433 H 0.30438 0.45892 0.01782 0.0
H434 H 0.32789 0.49306 0.99331 0.0
H435 H 0.33006 0.49115 0.90054 0.0
H436 H 0.43825 0.55841 0.83966 0.0
H437 H 0.40495 0.52939 0.86049 0.0
H438 H 0.40714 0.52879 0.95557 0.0
C439 C 0.32461 0.47555 0.98221 0.0
C440 C 0.34679 0.49938 0.91269 0.0
C441 C 0.31121 0.45598 0.99624 0.0
C442 C 0.43183 0.56129 0.86138 0.0
C443 C 0.4126 0.54473 0.8733 0.0
C444 C 0.39007 0.52121 0.94339 0.0
C445 C 0.33424 0.47238 0.9544 0.0
C446 C 0.35134 0.49212 0.94088 0.0
C447 C 0.40435 0.54734 0.90171 0.0
C448 C 0.3856 0.52864 0.9152 0.0
H449 H 0.31332 0.41218 0.94371 0.0
H450 H 0.33643 0.4466 0.91905 0.0
H451 H 0.37743 0.49771 0.97767 0.0
H452 H 0.44292 0.59865 0.91882 0.0
H453 H 0.40881 0.5704 0.9393 0.0
C454 C 0.69243 0.54419 0.49675 0.0
C455 C 0.69669 0.56754 0.48367 0.0
C456 C 0.67852 0.52501 0.48257 0.0
C457 C 0.65526 0.50225 0.41298 0.0
H458 H 0.59481 0.47331 0.45614 0.0
C459 C 0.56927 0.4411 0.36201 0.0
C460 C 0.5578 0.42166 0.37833 0.0
C461 C 0.58856 0.45764 0.37387 0.0
C462 C 0.61189 0.48078 0.44387 0.0
H463 H 0.69085 0.58858 0.44485 0.0
H464 H 0.66683 0.55481 0.4199 0.0
H465 H 0.62519 0.50387 0.47825 0.0
H466 H 0.55869 0.40348 0.41935 0.0
H467 H 0.59286 0.43172 0.43971 0.0
H468 H 0.64201 0.47899 0.3786 0.0
C469 C 0.67429 0.55146 0.44118 0.0
C470 C 0.62926 0.49838 0.45657 0.0
C471 C 0.68809 0.57077 0.45546 0.0
C472 C 0.56681 0.41852 0.40636 0.0
C473 C 0.58631 0.43482 0.41808 0.0
C474 C 0.63799 0.48438 0.4003 0.0
C475 C 0.66873 0.52864 0.4549 0.0
C476 C 0.65108 0.50935 0.44128 0.0
C477 C 0.59704 0.45491 0.4022 0.0
C478 C 0.61603 0.47346 0.41559 0.0
H479 H 0.69935 0.54091 0.51824 0.0
H480 H 0.67496 0.50744 0.49347 0.0
H481 H 0.67202 0.51033 0.40076 0.0
H482 H 0.56272 0.44402 0.34034 0.0
H483 H 0.59613 0.47302 0.36107 0.0
C484 C 0.68644 0.42662 0.95552 0.0
C485 C 0.69583 0.43086 0.98325 0.0
C486 C 0.6729 0.44561 0.94052 0.0
C487 C 0.65925 0.5141 0.93927 0.0
H488 H 0.59097 0.49423 0.90224 0.0
C489 C 0.57483 0.58504 0.90443 0.0
C490 C 0.56028 0.57996 0.87929 0.0
C491 C 0.59386 0.56768 0.9152 0.0
C492 C 0.61019 0.5001 0.91205 0.0
H493 H 0.69977 0.4587 0.01641 0.0
H494 H 0.6759 0.49172 0.99042 0.0
H495 H 0.6204 0.4625 0.92362 0.0
H496 H 0.55537 0.55317 0.84508 0.0
H497 H 0.58871 0.52327 0.86357 0.0
H498 H 0.64877 0.5518 0.92794 0.0
C499 C 0.67904 0.47379 0.98018 0.0
C500 C 0.6271 0.48187 0.92431 0.0
C501 C 0.69247 0.4548 0.99518 0.0
C502 C 0.5659 0.55756 0.8647 0.0
C503 C 0.58496 0.54032 0.87537 0.0
C504 C 0.64233 0.53237 0.92692 0.0
C505 C 0.66858 0.46927 0.9529 0.0
C506 C 0.65172 0.48864 0.93825 0.0
C507 C 0.59883 0.54493 0.901 0.0
C508 C 0.6175 0.5256 0.91332 0.0
H509 H 0.68859 0.40834 0.94581 0.0
H510 H 0.66538 0.44164 0.9194 0.0
H511 H 0.67824 0.51989 0.9496 0.0
H512 H 0.57102 0.60212 0.91618 0.0
H513 H 0.60402 0.57174 0.93511 0.0
C514 C 0.30827 0.54646 0.49675 0.0
C515 C 0.30721 0.57022 0.48399 0.0
C516 C 0.32097 0.52638 0.48298 0.0
C517 C 0.34822 0.50474 0.41353 0.0
H518 H 0.3968 0.46442 0.46043 0.0
C519 C 0.43556 0.44274 0.36815 0.0
C520 C 0.4409 0.4195 0.3811 0.0
C521 C 0.4161 0.45923 0.37962 0.0
C522 C 0.383 0.4752 0.44708 0.0
H523 H 0.31782 0.59138 0.44641 0.0
H524 H 0.34035 0.55636 0.42238 0.0
H525 H 0.36832 0.49671 0.48212 0.0
H526 H 0.42921 0.39507 0.4158 0.0
H527 H 0.39516 0.42392 0.43582 0.0
H528 H 0.36355 0.48351 0.37838 0.0
C529 C 0.33101 0.55313 0.4429 0.0
C530 C 0.36662 0.49374 0.45952 0.0
C531 C 0.31814 0.57323 0.45665 0.0
C532 C 0.42573 0.41287 0.40538 0.0
C533 C 0.40631 0.42944 0.41693 0.0
C534 C 0.36469 0.48621 0.40106 0.0
C535 C 0.33309 0.52959 0.45616 0.0
C536 C 0.3492 0.50891 0.44289 0.0
C537 C 0.40151 0.45294 0.40435 0.0
C538 C 0.38247 0.47139 0.41767 0.0
H539 H 0.29962 0.54352 0.51764 0.0
H540 H 0.32164 0.50838 0.49355 0.0
H541 H 0.33475 0.51583 0.40015 0.0
H542 H 0.44675 0.44845 0.34936 0.0
H543 H 0.41313 0.47727 0.36958 0.0
C544 C 0.79745 0.94334 0.96323 0.0
C545 C 0.81176 0.93027 0.98463 0.0
C546 C 0.81042 0.96286 0.94844 0.0
C547 C 0.86039 0.01167 0.95683 0.0
H548 H 0.87954 0.00664 0.87736 0.0
C549 C 0.94507 0.07331 0.90844 0.0
C550 C 0.94341 0.08059 0.87995 0.0
C551 C 0.92569 0.05678 0.9199 0.0
C552 C 0.87385 0.0087 0.8994 0.0
H553 H 0.85148 0.92687 0.00606 0.0
H554 H 0.8733 0.96161 0.9813 0.0
H555 H 0.85086 0.97418 0.89931 0.0
H556 H 0.91958 0.07676 0.84128 0.0
H557 H 0.8851 0.04842 0.86155 0.0
H558 H 0.88289 0.04611 0.95727 0.0
C559 C 0.85209 0.95669 0.97612 0.0
C560 C 0.85753 0.99003 0.91191 0.0
C561 C 0.83943 0.93694 0.99044 0.0
C562 C 0.92152 0.07136 0.86328 0.0
C563 C 0.90185 0.05501 0.87488 0.0
C564 C 0.87622 0.03052 0.94428 0.0
C565 C 0.83767 0.96987 0.95516 0.0
C566 C 0.85135 0.99111 0.94087 0.0
C567 C 0.90381 0.04734 0.90331 0.0
C568 C 0.88393 0.02892 0.9156 0.0
H569 H 0.77609 0.9389 0.95831 0.0
H570 H 0.79898 0.97288 0.93229 0.0
H571 H 0.85562 0.0129 0.97919 0.0
H572 H 0.96179 0.07989 0.92184 0.0
H573 H 0.92838 0.05091 0.94165 0.0
C574 C 0.19462 0.04286 0.49677 0.0
C575 C 0.19826 0.06641 0.48396 0.0
C576 C 0.18105 0.02357 0.48244 0.0
C577 C 0.15754 0.0011 0.41277 0.0
H578 H 0.09769 0.97133 0.45604 0.0
C579 C 0.07128 0.94036 0.36167 0.0
C580 C 0.05979 0.92084 0.37785 0.0
C581 C 0.09078 0.95667 0.37356 0.0
C582 C 0.11461 0.97901 0.44374 0.0
H583 H 0.19175 0.08769 0.44541 0.0
H584 H 0.16835 0.05374 0.4202 0.0
H585 H 0.12801 0.00183 0.4783 0.0
H586 H 0.06093 0.90221 0.41859 0.0
H587 H 0.09552 0.93002 0.439 0.0
H588 H 0.1442 0.97813 0.37818 0.0
C589 C 0.17602 0.05032 0.44139 0.0
C590 C 0.13196 0.99659 0.45653 0.0
C591 C 0.18946 0.06973 0.45582 0.0
C592 C 0.06906 0.91733 0.40573 0.0
C593 C 0.0888 0.93339 0.41747 0.0
C594 C 0.14032 0.98324 0.39999 0.0
C595 C 0.171 0.02729 0.45487 0.0
C596 C 0.15353 0.00789 0.44119 0.0
C597 C 0.09948 0.95362 0.40179 0.0
C598 C 0.11856 0.97203 0.41531 0.0
H599 H 0.2017 0.03952 0.51819 0.0
H600 H 0.1779 0.00585 0.49315 0.0
H601 H 0.17412 0.00945 0.40051 0.0
H602 H 0.06452 0.94356 0.34011 0.0
H603 H 0.09831 0.97216 0.36091 0.0
C604 C 0.18556 0.92592 0.9548 0.0
C605 C 0.19498 0.93011 0.98253 0.0
C606 C 0.1721 0.94496 0.93983 0.0
C607 C 0.15884 0.01345 0.93848 0.0
H608 H 0.09019 0.99386 0.90196 0.0
C609 C 0.07467 0.08476 0.90412 0.0
C610 C 0.05975 0.07965 0.87923 0.0
C611 C 0.09373 0.06734 0.91471 0.0
C612 C 0.10953 0.99966 0.91162 0.0
H613 H 0.19904 0.95791 0.01573 0.0
H614 H 0.17533 0.99104 0.98975 0.0
H615 H 0.11955 0.96204 0.92325 0.0
H616 H 0.05421 0.0528 0.84519 0.0
H617 H 0.08763 0.02279 0.86334 0.0
H618 H 0.14856 0.05118 0.92707 0.0
C619 C 0.17838 0.9731 0.97951 0.0
C620 C 0.12638 0.98137 0.92383 0.0
C621 C 0.19173 0.95405 0.99449 0.0
C622 C 0.06503 0.05719 0.86465 0.0
C623 C 0.08414 0.0399 0.87512 0.0
C624 C 0.14198 0.03179 0.92616 0.0
C625 C 0.1679 0.96862 0.95223 0.0
C626 C 0.15112 0.98805 0.9376 0.0
C627 C 0.09837 0.04453 0.90054 0.0
C628 C 0.11701 0.02512 0.91275 0.0
H629 H 0.18763 0.90764 0.94508 0.0
H630 H 0.16455 0.94103 0.91871 0.0
H631 H 0.17792 0.01917 0.94869 0.0
H632 H 0.07111 0.1019 0.91585 0.0
H633 H 0.10415 0.07143 0.93448 0.0
C634 C 0.81731 0.07529 0.45624 0.0
C635 C 0.80757 0.07127 0.48388 0.0
C636 C 0.83089 0.05614 0.44155 0.0
C637 C 0.84424 0.9876 0.44094 0.0
H638 H 0.91262 0.00716 0.4039 0.0
C639 C 0.92846 0.91645 0.40568 0.0
C640 C 0.94279 0.92156 0.38042 0.0
C641 C 0.90951 0.9338 0.41664 0.0
C642 C 0.89338 0.00137 0.41374 0.0
H643 H 0.80306 0.04364 0.5172 0.0
H644 H 0.82707 0.01036 0.49177 0.0
H645 H 0.88334 0.03902 0.42521 0.0
H646 H 0.94735 0.94834 0.34616 0.0
H647 H 0.91418 0.97822 0.36498 0.0
H648 H 0.85458 0.94983 0.4297 0.0
C649 C 0.82415 0.02824 0.48135 0.0
C650 C 0.87655 0.01968 0.42595 0.0
C651 C 0.81064 0.04739 0.49604 0.0
C652 C 0.937 0.94394 0.36588 0.0
C653 C 0.91804 0.96116 0.37674 0.0
C654 C 0.8611 0.96924 0.42865 0.0
C655 C 0.83495 0.03255 0.45417 0.0
C656 C 0.85185 0.01303 0.43982 0.0
C657 C 0.90442 0.95654 0.4025 0.0
C658 C 0.88593 0.97591 0.415 0.0
H659 H 0.81541 0.09351 0.44635 0.0
H660 H 0.83864 0.05995 0.42048 0.0
H661 H 0.8252 0.98189 0.45125 0.0
H662 H 0.9324 0.89937 0.41739 0.0
H663 H 0.89952 0.92973 0.43664 0.0
C664 C 0.30991 0.40198 0.09056 0.0
C665 C 0.30694 0.38186 0.0716 0.0
C666 C 0.32292 0.39856 0.11667 0.0
C667 C 0.37462 0.35805 0.15019 0.0
H668 H 0.35252 0.39224 0.21899 0.0
C669 C 0.43631 0.34624 0.25325 0.0
C670 C 0.44184 0.36815 0.26879 0.0
C671 C 0.417 0.34641 0.23127 0.0
C672 C 0.35905 0.38271 0.19989 0.0
H673 H 0.31435 0.34215 0.06563 0.0
H674 H 0.33674 0.33608 0.11145 0.0
H675 H 0.32314 0.39482 0.17695 0.0
H676 H 0.43065 0.40724 0.27397 0.0
H677 H 0.39726 0.40765 0.2352 0.0
H678 H 0.41077 0.3464 0.17271 0.0
C679 C 0.32928 0.35458 0.10594 0.0
C680 C 0.3422 0.38415 0.17584 0.0
C681 C 0.3162 0.358 0.07983 0.0
C682 C 0.42694 0.39006 0.26239 0.0
C683 C 0.40766 0.39024 0.24027 0.0
C684 C 0.39145 0.35665 0.17415 0.0
C685 C 0.3333 0.37494 0.1244 0.0
C686 C 0.34993 0.372 0.15065 0.0
C687 C 0.40279 0.3685 0.22417 0.0
C688 C 0.384 0.36911 0.19923 0.0
H689 H 0.30268 0.42054 0.08494 0.0
H690 H 0.32584 0.41466 0.1303 0.0
H691 H 0.38147 0.34887 0.13098 0.0
H692 H 0.44714 0.32894 0.25785 0.0
H693 H 0.41335 0.32921 0.21968 0.0
C694 C 0.68894 0.64157 0.58124 0.0
C695 C 0.69784 0.61762 0.5729 0.0
C696 C 0.67562 0.645 0.60722 0.0
C697 C 0.66109 0.61512 0.67663 0.0
H698 H 0.59326 0.65389 0.67267 0.0
C699 C 0.57496 0.61006 0.76182 0.0
C700 C 0.56049 0.63221 0.76821 0.0
C701 C 0.59449 0.60965 0.73993 0.0
C702 C 0.61236 0.64334 0.67434 0.0
H703 H 0.70127 0.5788 0.58594 0.0
H704 H 0.67768 0.5847 0.63107 0.0
H705 H 0.62319 0.65126 0.63142 0.0
H706 H 0.55618 0.67157 0.7575 0.0
H707 H 0.5904 0.67088 0.71973 0.0
H708 H 0.64992 0.60689 0.71952 0.0
C709 C 0.68106 0.60086 0.61764 0.0
C710 C 0.62956 0.64186 0.65066 0.0
C711 C 0.69432 0.59742 0.59166 0.0
C712 C 0.56666 0.65409 0.75289 0.0
C713 C 0.58623 0.65369 0.73114 0.0
C714 C 0.64388 0.61664 0.70039 0.0
C715 C 0.67099 0.62457 0.62543 0.0
C716 C 0.65399 0.62756 0.65142 0.0
C717 C 0.60005 0.63139 0.72408 0.0
C718 C 0.61919 0.63061 0.69944 0.0
H719 H 0.69121 0.65748 0.56721 0.0
H720 H 0.66842 0.66357 0.61281 0.0
H721 H 0.67993 0.60416 0.67796 0.0
H722 H 0.57075 0.59289 0.77325 0.0
H723 H 0.60459 0.59209 0.73488 0.0
C724 C 0.68819 0.35914 0.08353 0.0
C725 C 0.6963 0.383 0.07394 0.0
C726 C 0.67454 0.35642 0.1095 0.0
C727 C 0.62909 0.39216 0.15593 0.0
H728 H 0.64289 0.34011 0.21139 0.0
C729 C 0.56814 0.39012 0.25969 0.0
C730 C 0.55903 0.36676 0.26972 0.0
C731 C 0.58753 0.39158 0.23786 0.0
C732 C 0.63859 0.35459 0.19596 0.0
H733 H 0.69834 0.4224 0.08506 0.0
H734 H 0.67428 0.41766 0.13008 0.0
H735 H 0.6725 0.34325 0.16944 0.0
H736 H 0.56378 0.32655 0.26536 0.0
H737 H 0.59706 0.32906 0.2265 0.0
H738 H 0.59481 0.40315 0.18154 0.0
C739 C 0.67806 0.40114 0.11733 0.0
C740 C 0.6556 0.35642 0.17202 0.0
C741 C 0.69178 0.40384 0.09154 0.0
C742 C 0.57041 0.34484 0.25806 0.0
C743 C 0.5896 0.34629 0.23588 0.0
C744 C 0.61198 0.39021 0.17959 0.0
C745 C 0.66868 0.37751 0.12625 0.0
C746 C 0.65109 0.37534 0.15188 0.0
C747 C 0.59801 0.36971 0.22516 0.0
C748 C 0.61657 0.37152 0.20005 0.0
H749 H 0.69121 0.34274 0.07039 0.0
H750 H 0.66742 0.338 0.11582 0.0
H751 H 0.62472 0.4066 0.14045 0.0
H752 H 0.5601 0.40736 0.26858 0.0
H753 H 0.59408 0.40994 0.23074 0.0
C754 C 0.31067 0.60035 0.59118 0.0
C755 C 0.30756 0.6208 0.57272 0.0
C756 C 0.32407 0.60327 0.61712 0.0
C757 C 0.34816 0.64857 0.67048 0.0
H758 H 0.40626 0.59955 0.68251 0.0
C759 C 0.43302 0.65856 0.75728 0.0
C760 C 0.44309 0.63643 0.76965 0.0
C761 C 0.41389 0.65745 0.735 0.0
C762 C 0.38982 0.61316 0.67987 0.0
H763 H 0.31478 0.66067 0.56773 0.0
H764 H 0.33804 0.66581 0.61339 0.0
H765 H 0.37674 0.59626 0.64112 0.0
H766 H 0.43964 0.59593 0.76984 0.0
H767 H 0.40574 0.59399 0.7319 0.0
H768 H 0.36124 0.66539 0.70946 0.0
C769 C 0.33006 0.64753 0.60765 0.0
C770 C 0.37295 0.61129 0.65603 0.0
C771 C 0.31672 0.64458 0.58154 0.0
C772 C 0.43264 0.61329 0.76036 0.0
C773 C 0.4133 0.6122 0.73847 0.0
C774 C 0.36495 0.65032 0.6946 0.0
C775 C 0.33455 0.62673 0.6253 0.0
C776 C 0.35191 0.62891 0.65108 0.0
C777 C 0.40423 0.63419 0.72495 0.0
C778 C 0.38596 0.63256 0.69962 0.0
H779 H 0.30327 0.5819 0.58529 0.0
H780 H 0.32678 0.58701 0.63056 0.0
H781 H 0.33203 0.66237 0.66718 0.0
H782 H 0.44073 0.67667 0.76402 0.0
H783 H 0.4075 0.67476 0.72501 0.0
C784 C 0.81074 0.85916 0.08445 0.0
C785 C 0.80251 0.88313 0.0755 0.0
C786 C 0.82363 0.85589 0.11067 0.0
C787 C 0.83929 0.88664 0.17942 0.0
H788 H 0.9065 0.84702 0.17515 0.0
C789 C 0.92695 0.89189 0.26311 0.0
C790 C 0.94134 0.8697 0.26951 0.0
C791 C 0.90697 0.89221 0.24164 0.0
C792 C 0.88757 0.8578 0.17694 0.0
H793 H 0.79949 0.92215 0.08789 0.0
H794 H 0.82238 0.91652 0.13345 0.0
H795 H 0.87601 0.84936 0.13437 0.0
H796 H 0.94502 0.83019 0.25931 0.0
H797 H 0.91002 0.8307 0.22231 0.0
H798 H 0.85126 0.8954 0.22197 0.0
C799 C 0.81883 0.90023 0.12027 0.0
C800 C 0.87004 0.85912 0.15352 0.0
C801 C 0.80595 0.9035 0.09405 0.0
C802 C 0.93463 0.8477 0.25466 0.0
C803 C 0.91461 0.848 0.23335 0.0
C804 C 0.85685 0.88528 0.20295 0.0
C805 C 0.82855 0.8765 0.12852 0.0
C806 C 0.84581 0.8737 0.15437 0.0
C807 C 0.90087 0.87034 0.22622 0.0
C808 C 0.88133 0.87099 0.20189 0.0
H809 H 0.80851 0.8431 0.07061 0.0
H810 H 0.83049 0.8373 0.11662 0.0
H811 H 0.82064 0.89786 0.18082 0.0
H812 H 0.93157 0.90915 0.27419 0.0
H813 H 0.89696 0.90979 0.23653 0.0
C814 C 0.19699 0.09516 0.59251 0.0
C815 C 0.19813 0.11553 0.57373 0.0
C816 C 0.18361 0.09743 0.61857 0.0
C817 C 0.15371 0.14317 0.66948 0.0
H818 H 0.10532 0.08753 0.68829 0.0
C819 C 0.06413 0.1505 0.75038 0.0
C820 C 0.05908 0.12984 0.76812 0.0
C821 C 0.0839 0.14907 0.72882 0.0
C822 C 0.11903 0.10308 0.68362 0.0
H823 H 0.18713 0.15454 0.56793 0.0
H824 H 0.16342 0.15849 0.61338 0.0
H825 H 0.13534 0.0847 0.64711 0.0
H826 H 0.07157 0.09169 0.77761 0.0
H827 H 0.10608 0.08924 0.74002 0.0
H828 H 0.13676 0.16173 0.70578 0.0
C829 C 0.17319 0.14083 0.60815 0.0
C830 C 0.1363 0.10145 0.66001 0.0
C831 C 0.18675 0.13859 0.5821 0.0
C832 C 0.07474 0.1079 0.7642 0.0
C833 C 0.09446 0.10645 0.7426 0.0
C834 C 0.13633 0.14482 0.69312 0.0
C835 C 0.17088 0.12008 0.62639 0.0
C836 C 0.15374 0.12152 0.65252 0.0
C837 C 0.09906 0.12693 0.72447 0.0
C838 C 0.11865 0.12485 0.70033 0.0
H839 H 0.20597 0.07727 0.58675 0.0
H840 H 0.18279 0.08125 0.63238 0.0
H841 H 0.16713 0.15885 0.66451 0.0
H842 H 0.05253 0.16774 0.75285 0.0
H843 H 0.08673 0.16509 0.71505 0.0
C844 C 0.19105 0.90265 0.0908 0.0
C845 C 0.19533 0.88191 0.07301 0.0
C846 C 0.17743 0.89983 0.11663 0.0
C847 C 0.15475 0.85474 0.17091 0.0
H848 H 0.09481 0.90219 0.1815 0.0
C849 C 0.06979 0.84386 0.25745 0.0
C850 C 0.05913 0.86593 0.26947 0.0
C851 C 0.08888 0.84509 0.23517 0.0
C852 C 0.11174 0.88904 0.17923 0.0
H853 H 0.18991 0.84171 0.06907 0.0
H854 H 0.16624 0.83677 0.11453 0.0
H855 H 0.12443 0.90563 0.14019 0.0
H856 H 0.06149 0.9065 0.26894 0.0
H857 H 0.09527 0.90866 0.23092 0.0
H858 H 0.14202 0.83822 0.21018 0.0
C859 C 0.17349 0.85519 0.10837 0.0
C860 C 0.12869 0.89099 0.15546 0.0
C861 C 0.18706 0.85803 0.08238 0.0
C862 C 0.06894 0.88916 0.25976 0.0
C863 C 0.08821 0.89039 0.23783 0.0
C864 C 0.13787 0.85291 0.19496 0.0
C865 C 0.16789 0.87619 0.12537 0.0
C866 C 0.15041 0.87394 0.15105 0.0
C867 C 0.0979 0.86842 0.22472 0.0
C868 C 0.1162 0.87011 0.19943 0.0
H869 H 0.19772 0.9212 0.08447 0.0
H870 H 0.17386 0.91627 0.12957 0.0
H871 H 0.17141 0.84139 0.16805 0.0
H872 H 0.0626 0.82567 0.26453 0.0
H873 H 0.09578 0.8278 0.22548 0.0
C874 C 0.80952 0.09926 0.59223 0.0
C875 C 0.80608 0.11988 0.57409 0.0
C876 C 0.82275 0.10208 0.61827 0.0
C877 C 0.84618 0.14749 0.67207 0.0
H878 H 0.90432 0.09857 0.68441 0.0
C879 C 0.93165 0.15802 0.75815 0.0
C880 C 0.9416 0.13595 0.77078 0.0
C881 C 0.9123 0.15679 0.73609 0.0
C882 C 0.88787 0.11216 0.68166 0.0
H883 H 0.81261 0.15991 0.56971 0.0
H884 H 0.83566 0.16485 0.61547 0.0
H885 H 0.87491 0.09512 0.64297 0.0
H886 H 0.93766 0.09549 0.77172 0.0
H887 H 0.90344 0.09337 0.73409 0.0
H888 H 0.85928 0.16452 0.71094 0.0
C889 C 0.82801 0.14652 0.60947 0.0
C890 C 0.87103 0.11018 0.65782 0.0
C891 C 0.8148 0.14368 0.58329 0.0
C892 C 0.93077 0.1128 0.76202 0.0
C893 C 0.91124 0.11159 0.74033 0.0
C894 C 0.86296 0.14937 0.69618 0.0
C895 C 0.83278 0.1256 0.62685 0.0
C896 C 0.84999 0.12777 0.65275 0.0
C897 C 0.90233 0.13348 0.72651 0.0
C898 C 0.88399 0.13166 0.70127 0.0
H899 H 0.80249 0.08078 0.586 0.0
H900 H 0.82567 0.0857 0.63149 0.0
H901 H 0.83004 0.16127 0.6687 0.0
H902 H 0.93964 0.17614 0.7645 0.0
H903 H 0.90601 0.17401 0.72585 0.0
loop_
_geom_bond_atom_site_label_1
_geom_bond_atom_site_label_2
_geom_bond_distance
_geom_bond_site_symmetry_2
_ccdc_geom_bond_type
H0 C5 0.930 . S
H1 C8 0.930 . S
H2 C10 0.930 . S
H3 C4 1.016 . S
C4 H3 1.016 . S
C4 N11 1.281 1_556 S
C5 H0 0.930 . S
C5 C6 1.397 . S
C5 C7 1.361 . S
C6 C5 1.397 . S
C6 C10 1.390 . S
C7 C5 1.361 . S
C7 C8 1.393 1_554 S
C7 N11 1.415 . S
C8 H1 0.930 . S
C8 C7 1.393 1_556 S
C8 C9 1.412 . S
C9 C8 1.412 . S
C9 C10 1.343 1_556 S
C10 H2 0.930 . S
C10 C6 1.390 . S
C10 C9 1.343 1_554 S
N11 C4 1.281 1_554 S
N11 C7 1.415 . S
H12 C17 0.930 . S
H13 C20 0.930 . S
H14 C22 0.930 . S
H15 C16 1.016 . S
C16 H15 1.016 . S
C16 N23 1.286 . S
C17 H12 0.930 . S
C17 C18 1.397 . S
C17 C19 1.361 . S
C18 C17 1.397 . S
C18 C22 1.390 . S
C19 C17 1.361 . S
C19 C20 1.393 . S
C19 N23 1.413 . S
C20 H13 0.930 . S
C20 C19 1.393 . S
C20 C21 1.399 . S
C21 C20 1.399 . S
C21 C22 1.381 . S
C22 H14 0.930 . S
C22 C18 1.390 . S
C22 C21 1.381 . S
N23 C16 1.286 . S
N23 C19 1.413 . S
H24 C29 0.930 . S
H25 C32 0.930 . S
H26 C34 0.930 . S
H27 C28 1.016 . S
C28 H27 1.016 . S
C28 N35 1.286 1_556 S
C29 H24 0.930 . S
C29 C30 1.397 . S
C29 C31 1.361 . S
C30 C29 1.397 . S
C30 C34 1.390 . S
C31 C29 1.361 . S
C31 C32 1.393 1_554 S
C31 N35 1.413 . S
C32 H25 0.930 . S
C32 C31 1.393 1_556 S
C32 C33 1.399 . S
C33 C32 1.399 . S
C33 C34 1.381 1_556 S
C34 H26 0.930 . S
C34 C30 1.390 . S
C34 C33 1.381 1_554 S
N35 C28 1.286 1_554 S
N35 C31 1.413 . S
H36 C41 0.930 . S
H37 C44 0.930 . S
H38 C46 0.930 . S
H39 C40 1.016 . S
C40 H39 1.016 . S
C40 N47 1.286 . S
C41 H36 0.930 . S
C41 C42 1.397 . S
C41 C43 1.361 . S
C42 C41 1.397 . S
C42 C46 1.390 . S
C43 C41 1.361 . S
C43 C44 1.393 . S
C43 N47 1.413 . S
C44 H37 0.930 . S
C44 C43 1.393 . S
C44 C45 1.399 . S
C45 C44 1.399 . S
C45 C46 1.381 . S
C46 H38 0.930 . S
C46 C42 1.390 . S
C46 C45 1.381 . S
N47 C40 1.286 . S
N47 C43 1.413 . S
H48 C53 0.930 . S
H49 C56 0.930 . S
H50 C58 0.930 . S
H51 C52 1.016 . S
C52 H51 1.016 . S
C52 N59 1.281 1_556 S
C53 H48 0.930 . S
C53 C54 1.397 . S
C53 C55 1.361 . S
C54 C53 1.397 . S
C54 C58 1.390 . S
C55 C53 1.361 . S
C55 C56 1.393 1_554 S
C55 N59 1.415 . S
C56 H49 0.930 . S
C56 C55 1.393 1_556 S
C56 C57 1.412 . S
C57 C56 1.412 . S
C57 C58 1.343 1_556 S
C58 H50 0.930 . S
C58 C54 1.390 . S
C58 C57 1.343 1_554 S
N59 C52 1.281 1_554 S
N59 C55 1.415 . S
H60 C65 0.930 . S
H61 C68 0.930 . S
H62 C70 0.930 . S
H63 C64 1.016 . S
C64 H63 1.016 . S
C64 N71 1.286 . S
C65 H60 0.930 . S
C65 C66 1.397 . S
C65 C67 1.361 . S
C66 C65 1.397 . S
C66 C70 1.390 . S
C67 C65 1.361 . S
C67 C68 1.393 . S
C67 N71 1.413 . S
C68 H61 0.930 . S
C68 C67 1.393 . S
C68 C69 1.399 . S
C69 C68 1.399 . S
C69 C70 1.381 . S
C70 H62 0.930 . S
C70 C66 1.390 . S
C70 C69 1.381 . S
N71 C64 1.286 . S
N71 C67 1.413 . S
H72 C77 0.930 . S
H73 C80 0.930 . S
H74 C82 0.930 . S
H75 C76 1.016 . S
C76 H75 1.016 . S
C76 N83 1.286 1_556 S
C77 H72 0.930 . S
C77 C78 1.397 . S
C77 C79 1.361 . S
C78 C77 1.397 . S
C78 C82 1.390 . S
C79 C77 1.361 . S
C79 C80 1.393 1_554 S
C79 N83 1.413 . S
C80 H73 0.930 . S
C80 C79 1.393 1_556 S
C80 C81 1.399 . S
C81 C80 1.399 . S
C81 C82 1.381 1_556 S
C82 H74 0.930 . S
C82 C78 1.390 . S
C82 C81 1.381 1_554 S
N83 C76 1.286 1_554 S
N83 C79 1.413 . S
H84 C89 0.930 . S
H85 C92 0.930 . S
H86 C94 0.930 . S
H87 C88 1.016 . S
C88 H87 1.016 . S
C88 N95 1.286 . S
C89 H84 0.930 . S
C89 C90 1.397 . S
C89 C91 1.361 . S
C90 C89 1.397 . S
C90 C94 1.390 . S
C91 C89 1.361 . S
C91 C92 1.393 . S
C91 N95 1.413 . S
C92 H85 0.930 . S
C92 C91 1.393 . S
C92 C93 1.399 . S
C93 C92 1.399 . S
C93 C94 1.381 . S
C94 H86 0.930 . S
C94 C90 1.390 . S
C94 C93 1.381 . S
N95 C88 1.286 . S
N95 C91 1.413 . S
Fe96 O98 1.918 . S
Fe96 O101 1.997 1_455 S
Fe96 O102 2.002 1_455 S
Fe96 O107 1.976 . S
Fe96 O110 1.996 . S
Fe97 O98 1.918 . S
Fe97 O105 1.997 1_455 S
Fe97 O108 1.996 . S
Fe97 O112 1.976 . S
Fe97 O115 2.002 1_455 S
O98 Fe96 1.918 . S
O98 Fe97 1.918 . S
O98 Fe99 1.918 . S
Fe99 O98 1.918 . S
Fe99 O100 2.002 1_455 S
Fe99 O109 1.976 . S
Fe99 O113 1.996 . S
Fe99 O116 1.997 1_455 S
O100 Fe99 2.002 1_655 S
O100 C117 1.295 . S
O101 Fe96 1.997 1_655 S
O101 C117 1.235 . S
O102 Fe96 2.002 1_655 S
O102 C103 1.295 . S
C103 O102 1.295 . S
C103 O105 1.235 . S
C104 O109 1.287 . S
C104 O110 1.255 . S
O105 Fe97 1.997 1_655 S
O105 C103 1.235 . S
C106 O112 1.287 . S
C106 O113 1.255 . S
O107 Fe96 1.976 . S
O107 C114 1.287 . S
O108 Fe97 1.996 . S
O108 C114 1.255 . S
O109 Fe99 1.976 . S
O109 C104 1.287 . S
O110 Fe96 1.996 . S
O110 C104 1.255 . S
C111 O115 1.295 . S
C111 O116 1.235 . S
O112 Fe97 1.976 . S
O112 C106 1.287 . S
O113 Fe99 1.996 . S
O113 C106 1.255 . S
C114 O107 1.287 . S
C114 O108 1.255 . S
O115 Fe97 2.002 1_655 S
O115 C111 1.295 . S
O116 Fe99 1.997 1_655 S
O116 C111 1.235 . S
C117 O100 1.295 . S
C117 O101 1.235 . S
Fe118 O120 1.918 . S
Fe118 O123 1.997 1_655 S
Fe118 O124 2.002 1_655 S
Fe118 O129 1.976 . S
Fe118 O132 1.996 . S
Fe119 O120 1.918 . S
Fe119 O127 1.997 1_655 S
Fe119 O130 1.996 . S
Fe119 O134 1.976 . S
Fe119 O137 2.002 1_655 S
O120 Fe118 1.918 . S
O120 Fe119 1.918 . S
O120 Fe121 1.918 . S
Fe121 O120 1.918 . S
Fe121 O122 2.002 1_655 S
Fe121 O131 1.976 . S
Fe121 O135 1.996 . S
Fe121 O138 1.997 1_655 S
O122 Fe121 2.002 1_455 S
O122 C139 1.295 . S
O123 Fe118 1.997 1_455 S
O123 C139 1.235 . S
O124 Fe118 2.002 1_455 S
O124 C125 1.295 . S
C125 O124 1.295 . S
C125 O127 1.235 . S
C126 O131 1.287 . S
C126 O132 1.255 . S
O127 Fe119 1.997 1_455 S
O127 C125 1.235 . S
C128 O134 1.287 . S
C128 O135 1.255 . S
O129 Fe118 1.976 . S
O129 C136 1.287 . S
O130 Fe119 1.996 . S
O130 C136 1.255 . S
O131 Fe121 1.976 . S
O131 C126 1.287 . S
O132 Fe118 1.996 . S
O132 C126 1.255 . S
C133 O137 1.295 . S
C133 O138 1.235 . S
O134 Fe119 1.976 . S
O134 C128 1.287 . S
O135 Fe121 1.996 . S
O135 C128 1.255 . S
C136 O129 1.287 . S
C136 O130 1.255 . S
O137 Fe119 2.002 1_455 S
O137 C133 1.295 . S
O138 Fe121 1.997 1_455 S
O138 C133 1.235 . S
C139 O122 1.295 . S
C139 O123 1.235 . S
Fe140 O142 1.918 . S
Fe140 O145 1.997 . S
Fe140 O146 2.002 . S
Fe140 O151 1.976 . S
Fe140 O154 1.996 . S
Fe141 O142 1.918 . S
Fe141 O149 1.997 . S
Fe141 O152 1.996 . S
Fe141 O156 1.976 . S
Fe141 O159 2.002 . S
O142 Fe140 1.918 . S
O142 Fe141 1.918 . S
O142 Fe143 1.918 . S
Fe143 O142 1.918 . S
Fe143 O144 2.002 . S
Fe143 O153 1.976 . S
Fe143 O157 1.996 . S
Fe143 O160 1.997 . S
O144 Fe143 2.002 . S
O144 C161 1.295 . S
O145 Fe140 1.997 . S
O145 C161 1.235 . S
O146 Fe140 2.002 . S
O146 C147 1.295 . S
C147 O146 1.295 . S
C147 O149 1.235 . S
C148 O153 1.287 . S
C148 O154 1.255 . S
O149 Fe141 1.997 . S
O149 C147 1.235 . S
C150 O156 1.287 . S
C150 O157 1.255 . S
O151 Fe140 1.976 . S
O151 C158 1.287 . S
O152 Fe141 1.996 . S
O152 C158 1.255 . S
O153 Fe143 1.976 . S
O153 C148 1.287 . S
O154 Fe140 1.996 . S
O154 C148 1.255 . S
C155 O159 1.295 . S
C155 O160 1.235 . S
O156 Fe141 1.976 . S
O156 C150 1.287 . S
O157 Fe143 1.996 . S
O157 C150 1.255 . S
C158 O151 1.287 . S
C158 O152 1.255 . S
O159 Fe141 2.002 . S
O159 C155 1.295 . S
O160 Fe143 1.997 . S
O160 C155 1.235 . S
C161 O144 1.295 . S
C161 O145 1.235 . S
Fe162 O164 1.918 . S
Fe162 O167 1.997 . S
Fe162 O168 2.002 . S
Fe162 O173 1.976 . S
Fe162 O176 1.996 . S
Fe163 O164 1.918 . S
Fe163 O171 1.997 . S
Fe163 O174 1.996 . S
Fe163 O178 1.976 . S
Fe163 O181 2.002 . S
O164 Fe162 1.918 . S
O164 Fe163 1.918 . S
O164 Fe165 1.918 . S
Fe165 O164 1.918 . S
Fe165 O166 2.002 . S
Fe165 O175 1.976 . S
Fe165 O179 1.996 . S
Fe165 O182 1.997 . S
O166 Fe165 2.002 . S
O166 C183 1.295 . S
O167 Fe162 1.997 . S
O167 C183 1.235 . S
O168 Fe162 2.002 . S
O168 C169 1.295 . S
C169 O168 1.295 . S
C169 O171 1.235 . S
C170 O175 1.287 . S
C170 O176 1.255 . S
O171 Fe163 1.997 . S
O171 C169 1.235 . S
C172 O178 1.287 . S
C172 O179 1.255 . S
O173 Fe162 1.976 . S
O173 C180 1.287 . S
O174 Fe163 1.996 . S
O174 C180 1.255 . S
O175 Fe165 1.976 . S
O175 C170 1.287 . S
O176 Fe162 1.996 . S
O176 C170 1.255 . S
C177 O181 1.295 . S
C177 O182 1.235 . S
O178 Fe163 1.976 . S
O178 C172 1.287 . S
O179 Fe165 1.996 . S
O179 C172 1.255 . S
C180 O173 1.287 . S
C180 O174 1.255 . S
O181 Fe163 2.002 . S
O181 C177 1.295 . S
O182 Fe165 1.997 . S
O182 C177 1.235 . S
C183 O166 1.295 . S
C183 O167 1.235 . S
C184 C185 1.349 . S
C184 C186 1.327 . S
C184 H209 0.950 . S
C185 C184 1.349 . S
C185 C201 1.349 . S
C186 C184 1.327 . S
C186 C205 1.429 . S
C186 H210 0.950 . S
C187 C204 1.574 . S
C187 C206 1.368 . S
C187 H211 0.949 . S
H188 C192 0.949 . S
C189 C190 1.349 . S
C189 C191 1.327 . S
C189 H212 0.950 . S
C190 C189 1.349 . S
C190 C202 1.349 . S
C191 C189 1.327 . S
C191 C207 1.429 . S
C191 H213 0.950 . S
C192 H188 0.949 . S
C192 C200 1.574 . S
C192 C208 1.368 . S
H193 C201 0.950 1_554 S
H194 C199 0.950 . S
H195 C200 0.949 . S
H196 C202 0.950 . S
H197 C203 0.950 . S
H198 C204 0.949 . S
C199 H194 0.950 . S
C199 C201 1.327 . S
C199 C205 1.429 . S
C200 C192 1.574 . S
C200 H195 0.949 . S
C200 C206 1.368 . S
C201 C185 1.349 . S
C201 H193 0.950 1_556 S
C201 C199 1.327 . S
C202 C190 1.349 . S
C202 H196 0.950 . S
C202 C203 1.327 . S
C203 H197 0.950 . S
C203 C202 1.327 . S
C203 C207 1.429 . S
C204 C187 1.574 . S
C204 H198 0.949 . S
C204 C208 1.368 . S
C205 C186 1.429 . S
C205 C199 1.429 . S
C205 C206 1.523 . S
C206 C187 1.368 . S
C206 C200 1.368 . S
C206 C205 1.523 . S
C207 C191 1.429 . S
C207 C203 1.429 . S
C207 C208 1.523 . S
C208 C192 1.368 . S
C208 C204 1.368 . S
C208 C207 1.523 . S
H209 C184 0.950 . S
H210 C186 0.950 . S
H211 C187 0.949 . S
H212 C189 0.950 . S
H213 C191 0.950 . S
C214 C215 1.349 . S
C214 C216 1.327 . S
C214 H239 0.950 . S
C215 C214 1.349 . S
C215 C231 1.349 . S
C216 C214 1.327 . S
C216 C235 1.429 . S
C216 H240 0.950 . S
C217 C234 1.574 . S
C217 C236 1.368 . S
C217 H241 0.949 . S
H218 C222 0.949 . S
C219 C220 1.349 . S
C219 C221 1.327 . S
C219 H242 0.950 . S
C220 C219 1.349 . S
C220 C232 1.349 . S
C221 C219 1.327 . S
C221 C237 1.429 . S
C221 H243 0.950 . S
C222 H218 0.949 . S
C222 C230 1.574 . S
C222 C238 1.368 . S
H223 C231 0.950 . S
H224 C229 0.950 . S
H225 C230 0.949 . S
H226 C232 0.950 . S
H227 C233 0.950 . S
H228 C234 0.949 . S
C229 H224 0.950 . S
C229 C231 1.327 . S
C229 C235 1.429 . S
C230 C222 1.574 . S
C230 H225 0.949 . S
C230 C236 1.368 . S
C231 C215 1.349 . S
C231 H223 0.950 . S
C231 C229 1.327 . S
C232 C220 1.349 . S
C232 H226 0.950 . S
C232 C233 1.327 . S
C233 H227 0.950 . S
C233 C232 1.327 . S
C233 C237 1.429 . S
C234 C217 1.574 . S
C234 H228 0.949 . S
C234 C238 1.368 . S
C235 C216 1.429 . S
C235 C229 1.429 . S
C235 C236 1.523 . S
C236 C217 1.368 . S
C236 C230 1.368 . S
C236 C235 1.523 . S
C237 C221 1.429 . S
C237 C233 1.429 . S
C237 C238 1.523 . S
C238 C222 1.368 . S
C238 C234 1.368 . S
C238 C237 1.523 . S
H239 C214 0.950 . S
H240 C216 0.950 . S
H241 C217 0.949 . S
H242 C219 0.950 . S
H243 C221 0.950 . S
C244 C245 1.349 . S
C244 C246 1.327 . S
C244 H269 0.950 . S
C245 C244 1.349 . S
C245 C261 1.349 . S
C246 C244 1.327 . S
C246 C265 1.429 . S
C246 H270 0.950 . S
C247 C264 1.574 . S
C247 C266 1.368 . S
C247 H271 0.949 . S
H248 C252 0.949 . S
C249 C250 1.349 . S
C249 C251 1.327 . S
C249 H272 0.950 . S
C250 C249 1.349 . S
C250 C262 1.349 . S
C251 C249 1.327 . S
C251 C267 1.429 . S
C251 H273 0.950 . S
C252 H248 0.949 . S
C252 C260 1.574 . S
C252 C268 1.368 . S
H253 C261 0.950 . S
H254 C259 0.950 . S
H255 C260 0.949 . S
H256 C262 0.950 . S
H257 C263 0.950 . S
H258 C264 0.949 . S
C259 H254 0.950 . S
C259 C261 1.327 . S
C259 C265 1.429 . S
C260 C252 1.574 . S
C260 H255 0.949 . S
C260 C266 1.368 . S
C261 C245 1.349 . S
C261 H253 0.950 . S
C261 C259 1.327 . S
C262 C250 1.349 . S
C262 H256 0.950 . S
C262 C263 1.327 . S
C263 H257 0.950 . S
C263 C262 1.327 . S
C263 C267 1.429 . S
C264 C247 1.574 . S
C264 H258 0.949 . S
C264 C268 1.368 . S
C265 C246 1.429 . S
C265 C259 1.429 . S
C265 C266 1.523 . S
C266 C247 1.368 . S
C266 C260 1.368 . S
C266 C265 1.523 . S
C267 C251 1.429 . S
C267 C263 1.429 . S
C267 C268 1.523 . S
C268 C252 1.368 . S
C268 C264 1.368 . S
C268 C267 1.523 . S
H269 C244 0.950 . S
H270 C246 0.950 . S
H271 C247 0.949 . S
H272 C249 0.950 . S
H273 C251 0.950 . S
C274 C275 1.349 . S
C274 C276 1.327 . S
C274 H299 0.950 . S
C275 C274 1.349 . S
C275 C291 1.349 . S
C276 C274 1.327 . S
C276 C295 1.429 . S
C276 H300 0.950 . S
C277 C294 1.574 . S
C277 C296 1.368 . S
C277 H301 0.949 . S
H278 C282 0.949 . S
C279 C280 1.349 . S
C279 C281 1.327 . S
C279 H302 0.950 . S
C280 C279 1.349 . S
C280 C292 1.349 . S
C281 C279 1.327 . S
C281 C297 1.429 . S
C281 H303 0.950 . S
C282 H278 0.949 . S
C282 C290 1.574 . S
C282 C298 1.368 . S
H283 C291 0.950 . S
H284 C289 0.950 . S
H285 C290 0.949 . S
H286 C292 0.950 . S
H287 C293 0.950 . S
H288 C294 0.949 . S
C289 H284 0.950 . S
C289 C291 1.327 . S
C289 C295 1.429 . S
C290 C282 1.574 . S
C290 H285 0.949 . S
C290 C296 1.368 . S
C291 C275 1.349 . S
C291 H283 0.950 . S
C291 C289 1.327 . S
C292 C280 1.349 . S
C292 H286 0.950 . S
C292 C293 1.327 . S
C293 H287 0.950 . S
C293 C292 1.327 . S
C293 C297 1.429 . S
C294 C277 1.574 . S
C294 H288 0.949 . S
C294 C298 1.368 . S
C295 C276 1.429 . S
C295 C289 1.429 . S
C295 C296 1.523 . S
C296 C277 1.368 . S
C296 C290 1.368 . S
C296 C295 1.523 . S
C297 C281 1.429 . S
C297 C293 1.429 . S
C297 C298 1.523 . S
C298 C282 1.368 . S
C298 C294 1.368 . S
C298 C297 1.523 . S
H299 C274 0.950 . S
H300 C276 0.950 . S
H301 C277 0.949 . S
H302 C279 0.950 . S
H303 C281 0.950 . S
C304 C305 1.349 . S
C304 C306 1.327 . S
C304 H329 0.950 1_556 S
C305 C304 1.349 . S
C305 C321 1.349 . S
C306 C304 1.327 . S
C306 C325 1.429 . S
C306 H330 0.950 . S
C307 C324 1.574 . S
C307 C326 1.368 . S
C307 H331 0.949 . S
H308 C312 0.949 . S
C309 C310 1.349 . S
C309 C311 1.327 . S
C309 H332 0.950 . S
C310 C309 1.349 . S
C310 C322 1.349 . S
C311 C309 1.327 . S
C311 C327 1.429 . S
C311 H333 0.950 . S
C312 H308 0.949 . S
C312 C320 1.574 . S
C312 C328 1.368 . S
H313 C321 0.950 . S
H314 C319 0.950 . S
H315 C320 0.949 . S
H316 C322 0.950 . S
H317 C323 0.950 . S
H318 C324 0.949 . S
C319 H314 0.950 . S
C319 C321 1.327 . S
C319 C325 1.429 . S
C320 C312 1.574 . S
C320 H315 0.949 . S
C320 C326 1.368 . S
C321 C305 1.349 . S
C321 H313 0.950 . S
C321 C319 1.327 . S
C322 C310 1.349 . S
C322 H316 0.950 . S
C322 C323 1.327 . S
C323 H317 0.950 . S
C323 C322 1.327 . S
C323 C327 1.429 . S
C324 C307 1.574 . S
C324 H318 0.949 . S
C324 C328 1.368 . S
C325 C306 1.429 . S
C325 C319 1.429 . S
C325 C326 1.523 . S
C326 C307 1.368 . S
C326 C320 1.368 . S
C326 C325 1.523 . S
C327 C311 1.429 . S
C327 C323 1.429 . S
C327 C328 1.523 . S
C328 C312 1.368 . S
C328 C324 1.368 . S
C328 C327 1.523 . S
H329 C304 0.950 1_554 S
H330 C306 0.950 . S
H331 C307 0.949 . S
H332 C309 0.950 . S
H333 C311 0.950 . S
C334 C335 1.349 . S
C334 C336 1.327 . S
C334 H359 0.950 . S
C335 C334 1.349 . S
C335 C351 1.349 . S
C336 C334 1.327 . S
C336 C355 1.429 . S
C336 H360 0.950 . S
C337 C354 1.574 . S
C337 C356 1.368 . S
C337 H361 0.949 . S
H338 C342 0.949 . S
C339 C340 1.349 . S
C339 C341 1.327 . S
C339 H362 0.950 . S
C340 C339 1.349 . S
C340 C352 1.349 . S
C341 C339 1.327 . S
C341 C357 1.429 . S
C341 H363 0.950 . S
C342 H338 0.949 . S
C342 C350 1.574 . S
C342 C358 1.368 . S
H343 C351 0.950 . S
H344 C349 0.950 . S
H345 C350 0.949 . S
H346 C352 0.950 . S
H347 C353 0.950 . S
H348 C354 0.949 . S
C349 H344 0.950 . S
C349 C351 1.327 . S
C349 C355 1.429 . S
C350 C342 1.574 . S
C350 H345 0.949 . S
C350 C356 1.368 . S
C351 C335 1.349 . S
C351 H343 0.950 . S
C351 C349 1.327 . S
C352 C340 1.349 . S
C352 H346 0.950 . S
C352 C353 1.327 . S
C353 H347 0.950 . S
C353 C352 1.327 . S
C353 C357 1.429 . S
C354 C337 1.574 . S
C354 H348 0.949 . S
C354 C358 1.368 . S
C355 C336 1.429 . S
C355 C349 1.429 . S
C355 C356 1.523 . S
C356 C337 1.368 . S
C356 C350 1.368 . S
C356 C355 1.523 . S
C357 C341 1.429 . S
C357 C353 1.429 . S
C357 C358 1.523 . S
C358 C342 1.368 . S
C358 C354 1.368 . S
C358 C357 1.523 . S
H359 C334 0.950 . S
H360 C336 0.950 . S
H361 C337 0.949 . S
H362 C339 0.950 . S
H363 C341 0.950 . S
C364 C365 1.349 . S
C364 C366 1.327 . S
C364 H389 0.950 . S
C365 C364 1.349 . S
C365 C381 1.349 . S
C366 C364 1.327 . S
C366 C385 1.429 . S
C366 H390 0.950 . S
C367 C384 1.574 . S
C367 C386 1.368 . S
C367 H391 0.949 . S
H368 C372 0.949 . S
C369 C370 1.349 . S
C369 C371 1.327 . S
C369 H392 0.950 . S
C370 C369 1.349 . S
C370 C382 1.349 . S
C371 C369 1.327 . S
C371 C387 1.429 . S
C371 H393 0.950 . S
C372 H368 0.949 . S
C372 C380 1.574 . S
C372 C388 1.368 . S
H373 C381 0.950 1_554 S
H374 C379 0.950 . S
H375 C380 0.949 . S
H376 C382 0.950 . S
H377 C383 0.950 . S
H378 C384 0.949 . S
C379 H374 0.950 . S
C379 C381 1.327 . S
C379 C385 1.429 . S
C380 C372 1.574 . S
C380 H375 0.949 . S
C380 C386 1.368 . S
C381 C365 1.349 . S
C381 H373 0.950 1_556 S
C381 C379 1.327 . S
C382 C370 1.349 . S
C382 H376 0.950 . S
C382 C383 1.327 . S
C383 H377 0.950 . S
C383 C382 1.327 . S
C383 C387 1.429 . S
C384 C367 1.574 . S
C384 H378 0.949 . S
C384 C388 1.368 . S
C385 C366 1.429 . S
C385 C379 1.429 . S
C385 C386 1.523 . S
C386 C367 1.368 . S
C386 C380 1.368 . S
C386 C385 1.523 . S
C387 C371 1.429 . S
C387 C383 1.429 . S
C387 C388 1.523 . S
C388 C372 1.368 . S
C388 C384 1.368 . S
C388 C387 1.523 . S
H389 C364 0.950 . S
H390 C366 0.950 . S
H391 C367 0.949 . S
H392 C369 0.950 . S
H393 C371 0.950 . S
C394 C395 1.349 . S
C394 C396 1.327 . S
C394 H419 0.950 . S
C395 C394 1.349 . S
C395 C411 1.349 . S
C396 C394 1.327 . S
C396 C415 1.429 . S
C396 H420 0.950 . S
C397 C414 1.574 . S
C397 C416 1.368 . S
C397 H421 0.949 . S
H398 C402 0.949 . S
C399 C400 1.349 . S
C399 C401 1.327 . S
C399 H422 0.950 . S
C400 C399 1.349 . S
C400 C412 1.349 . S
C401 C399 1.327 . S
C401 C417 1.429 . S
C401 H423 0.950 . S
C402 H398 0.949 . S
C402 C410 1.574 . S
C402 C418 1.368 . S
H403 C411 0.950 . S
H404 C409 0.950 . S
H405 C410 0.949 . S
H406 C412 0.950 . S
H407 C413 0.950 . S
H408 C414 0.949 . S
C409 H404 0.950 . S
C409 C411 1.327 . S
C409 C415 1.429 . S
C410 C402 1.574 . S
C410 H405 0.949 . S
C410 C416 1.368 . S
C411 C395 1.349 . S
C411 H403 0.950 . S
C411 C409 1.327 . S
C412 C400 1.349 . S
C412 H406 0.950 . S
C412 C413 1.327 . S
C413 H407 0.950 . S
C413 C412 1.327 . S
C413 C417 1.429 . S
C414 C397 1.574 . S
C414 H408 0.949 . S
C414 C418 1.368 . S
C415 C396 1.429 . S
C415 C409 1.429 . S
C415 C416 1.523 . S
C416 C397 1.368 . S
C416 C410 1.368 . S
C416 C415 1.523 . S
C417 C401 1.429 . S
C417 C413 1.429 . S
C417 C418 1.523 . S
C418 C402 1.368 . S
C418 C414 1.368 . S
C418 C417 1.523 . S
H419 C394 0.950 . S
H420 C396 0.950 . S
H421 C397 0.949 . S
H422 C399 0.950 . S
H423 C401 0.950 . S
C424 C425 1.349 . S
C424 C426 1.327 . S
C424 H449 0.950 . S
C425 C424 1.349 . S
C425 C441 1.349 . S
C426 C424 1.327 . S
C426 C445 1.429 . S
C426 H450 0.950 . S
C427 C444 1.574 . S
C427 C446 1.368 . S
C427 H451 0.949 . S
H428 C432 0.949 . S
C429 C430 1.349 . S
C429 C431 1.327 . S
C429 H452 0.950 . S
C430 C429 1.349 . S
C430 C442 1.349 . S
C431 C429 1.327 . S
C431 C447 1.429 . S
C431 H453 0.950 . S
C432 H428 0.949 . S
C432 C440 1.574 . S
C432 C448 1.368 . S
H433 C441 0.950 1_554 S
H434 C439 0.950 . S
H435 C440 0.949 . S
H436 C442 0.950 . S
H437 C443 0.950 . S
H438 C444 0.949 . S
C439 H434 0.950 . S
C439 C441 1.327 . S
C439 C445 1.429 . S
C440 C432 1.574 . S
C440 H435 0.949 . S
C440 C446 1.368 . S
C441 C425 1.349 . S
C441 H433 0.950 1_556 S
C441 C439 1.327 . S
C442 C430 1.349 . S
C442 H436 0.950 . S
C442 C443 1.327 . S
C443 H437 0.950 . S
C443 C442 1.327 . S
C443 C447 1.429 . S
C444 C427 1.574 . S
C444 H438 0.949 . S
C444 C448 1.368 . S
C445 C426 1.429 . S
C445 C439 1.429 . S
C445 C446 1.523 . S
C446 C427 1.368 . S
C446 C440 1.368 . S
C446 C445 1.523 . S
C447 C431 1.429 . S
C447 C443 1.429 . S
C447 C448 1.523 . S
C448 C432 1.368 . S
C448 C444 1.368 . S
C448 C447 1.523 . S
H449 C424 0.950 . S
H450 C426 0.950 . S
H451 C427 0.949 . S
H452 C429 0.950 . S
H453 C431 0.950 . S
C454 C455 1.349 . S
C454 C456 1.327 . S
C454 H479 0.950 . S
C455 C454 1.349 . S
C455 C471 1.349 . S
C456 C454 1.327 . S
C456 C475 1.429 . S
C456 H480 0.950 . S
C457 C474 1.574 . S
C457 C476 1.368 . S
C457 H481 0.949 . S
H458 C462 0.949 . S
C459 C460 1.349 . S
C459 C461 1.327 . S
C459 H482 0.950 . S
C460 C459 1.349 . S
C460 C472 1.349 . S
C461 C459 1.327 . S
C461 C477 1.429 . S
C461 H483 0.950 . S
C462 H458 0.949 . S
C462 C470 1.574 . S
C462 C478 1.368 . S
H463 C471 0.950 . S
H464 C469 0.950 . S
H465 C470 0.949 . S
H466 C472 0.950 . S
H467 C473 0.950 . S
H468 C474 0.949 . S
C469 H464 0.950 . S
C469 C471 1.327 . S
C469 C475 1.429 . S
C470 C462 1.574 . S
C470 H465 0.949 . S
C470 C476 1.368 . S
C471 C455 1.349 . S
C471 H463 0.950 . S
C471 C469 1.327 . S
C472 C460 1.349 . S
C472 H466 0.950 . S
C472 C473 1.327 . S
C473 H467 0.950 . S
C473 C472 1.327 . S
C473 C477 1.429 . S
C474 C457 1.574 . S
C474 H468 0.949 . S
C474 C478 1.368 . S
C475 C456 1.429 . S
C475 C469 1.429 . S
C475 C476 1.523 . S
C476 C457 1.368 . S
C476 C470 1.368 . S
C476 C475 1.523 . S
C477 C461 1.429 . S
C477 C473 1.429 . S
C477 C478 1.523 . S
C478 C462 1.368 . S
C478 C474 1.368 . S
C478 C477 1.523 . S
H479 C454 0.950 . S
H480 C456 0.950 . S
H481 C457 0.949 . S
H482 C459 0.950 . S
H483 C461 0.950 . S
C484 C485 1.349 . S
C484 C486 1.327 . S
C484 H509 0.950 . S
C485 C484 1.349 . S
C485 C501 1.349 . S
C486 C484 1.327 . S
C486 C505 1.429 . S
C486 H510 0.950 . S
C487 C504 1.574 . S
C487 C506 1.368 . S
C487 H511 0.949 . S
H488 C492 0.949 . S
C489 C490 1.349 . S
C489 C491 1.327 . S
C489 H512 0.950 . S
C490 C489 1.349 . S
C490 C502 1.349 . S
C491 C489 1.327 . S
C491 C507 1.429 . S
C491 H513 0.950 . S
C492 H488 0.949 . S
C492 C500 1.574 . S
C492 C508 1.368 . S
H493 C501 0.950 1_554 S
H494 C499 0.950 . S
H495 C500 0.949 . S
H496 C502 0.950 . S
H497 C503 0.950 . S
H498 C504 0.949 . S
C499 H494 0.950 . S
C499 C501 1.327 . S
C499 C505 1.429 . S
C500 C492 1.574 . S
C500 H495 0.949 . S
C500 C506 1.368 . S
C501 C485 1.349 . S
C501 H493 0.950 1_556 S
C501 C499 1.327 . S
C502 C490 1.349 . S
C502 H496 0.950 . S
C502 C503 1.327 . S
C503 H497 0.950 . S
C503 C502 1.327 . S
C503 C507 1.429 . S
C504 C487 1.574 . S
C504 H498 0.949 . S
C504 C508 1.368 . S
C505 C486 1.429 . S
C505 C499 1.429 . S
C505 C506 1.523 . S
C506 C487 1.368 . S
C506 C500 1.368 . S
C506 C505 1.523 . S
C507 C491 1.429 . S
C507 C503 1.429 . S
C507 C508 1.523 . S
C508 C492 1.368 . S
C508 C504 1.368 . S
C508 C507 1.523 . S
H509 C484 0.950 . S
H510 C486 0.950 . S
H511 C487 0.949 . S
H512 C489 0.950 . S
H513 C491 0.950 . S
C514 C515 1.349 . S
C514 C516 1.327 . S
C514 H539 0.950 . S
C515 C514 1.349 . S
C515 C531 1.349 . S
C516 C514 1.327 . S
C516 C535 1.429 . S
C516 H540 0.950 . S
C517 C534 1.574 . S
C517 C536 1.368 . S
C517 H541 0.949 . S
H518 C522 0.949 . S
C519 C520 1.349 . S
C519 C521 1.327 . S
C519 H542 0.950 . S
C520 C519 1.349 . S
C520 C532 1.349 . S
C521 C519 1.327 . S
C521 C537 1.429 . S
C521 H543 0.950 . S
C522 H518 0.949 . S
C522 C530 1.574 . S
C522 C538 1.368 . S
H523 C531 0.950 . S
H524 C529 0.950 . S
H525 C530 0.949 . S
H526 C532 0.950 . S
H527 C533 0.950 . S
H528 C534 0.949 . S
C529 H524 0.950 . S
C529 C531 1.327 . S
C529 C535 1.429 . S
C530 C522 1.574 . S
C530 H525 0.949 . S
C530 C536 1.368 . S
C531 C515 1.349 . S
C531 H523 0.950 . S
C531 C529 1.327 . S
C532 C520 1.349 . S
C532 H526 0.950 . S
C532 C533 1.327 . S
C533 H527 0.950 . S
C533 C532 1.327 . S
C533 C537 1.429 . S
C534 C517 1.574 . S
C534 H528 0.949 . S
C534 C538 1.368 . S
C535 C516 1.429 . S
C535 C529 1.429 . S
C535 C536 1.523 . S
C536 C517 1.368 . S
C536 C530 1.368 . S
C536 C535 1.523 . S
C537 C521 1.429 . S
C537 C533 1.429 . S
C537 C538 1.523 . S
C538 C522 1.368 . S
C538 C534 1.368 . S
C538 C537 1.523 . S
H539 C514 0.950 . S
H540 C516 0.950 . S
H541 C517 0.949 . S
H542 C519 0.950 . S
H543 C521 0.950 . S
C544 C545 1.349 . S
C544 C546 1.327 . S
C544 H569 0.950 . S
C545 C544 1.349 . S
C545 C561 1.349 . S
C546 C544 1.327 . S
C546 C565 1.429 . S
C546 H570 0.950 . S
C547 C564 1.574 1_565 S
C547 C566 1.368 . S
C547 H571 0.949 . S
H548 C552 0.949 . S
C549 C550 1.349 . S
C549 C551 1.327 . S
C549 H572 0.950 . S
C550 C549 1.349 . S
C550 C562 1.349 . S
C551 C549 1.327 . S
C551 C567 1.429 . S
C551 H573 0.950 . S
C552 H548 0.949 . S
C552 C560 1.574 1_545 S
C552 C568 1.368 . S
H553 C561 0.950 1_554 S
H554 C559 0.950 . S
H555 C560 0.949 . S
H556 C562 0.950 . S
H557 C563 0.950 . S
H558 C564 0.949 . S
C559 H554 0.950 . S
C559 C561 1.327 . S
C559 C565 1.429 . S
C560 C552 1.574 1_565 S
C560 H555 0.949 . S
C560 C566 1.368 . S
C561 C545 1.349 . S
C561 H553 0.950 1_556 S
C561 C559 1.327 . S
C562 C550 1.349 . S
C562 H556 0.950 . S
C562 C563 1.327 . S
C563 H557 0.950 . S
C563 C562 1.327 . S
C563 C567 1.429 . S
C564 C547 1.574 1_545 S
C564 H558 0.949 . S
C564 C568 1.368 . S
C565 C546 1.429 . S
C565 C559 1.429 . S
C565 C566 1.523 . S
C566 C547 1.368 . S
C566 C560 1.368 . S
C566 C565 1.523 . S
C567 C551 1.429 . S
C567 C563 1.429 . S
C567 C568 1.523 . S
C568 C552 1.368 . S
C568 C564 1.368 . S
C568 C567 1.523 . S
H569 C544 0.950 . S
H570 C546 0.950 . S
H571 C547 0.949 . S
H572 C549 0.950 . S
H573 C551 0.950 . S
C574 C575 1.349 . S
C574 C576 1.327 . S
C574 H599 0.950 . S
C575 C574 1.349 . S
C575 C591 1.349 . S
C576 C574 1.327 . S
C576 C595 1.429 . S
C576 H600 0.950 . S
C577 C594 1.574 . S
C577 C596 1.368 . S
C577 H601 0.949 . S
H578 C582 0.949 . S
C579 C580 1.349 . S
C579 C581 1.327 . S
C579 H602 0.950 . S
C580 C579 1.349 . S
C580 C592 1.349 . S
C581 C579 1.327 . S
C581 C597 1.429 . S
C581 H603 0.950 . S
C582 H578 0.949 . S
C582 C590 1.574 1_565 S
C582 C598 1.368 . S
H583 C591 0.950 . S
H584 C589 0.950 . S
H585 C590 0.949 . S
H586 C592 0.950 . S
H587 C593 0.950 . S
H588 C594 0.949 . S
C589 H584 0.950 . S
C589 C591 1.327 . S
C589 C595 1.429 . S
C590 C582 1.574 1_545 S
C590 H585 0.949 . S
C590 C596 1.368 . S
C591 C575 1.349 . S
C591 H583 0.950 . S
C591 C589 1.327 . S
C592 C580 1.349 . S
C592 H586 0.950 . S
C592 C593 1.327 . S
C593 H587 0.950 . S
C593 C592 1.327 . S
C593 C597 1.429 . S
C594 C577 1.574 . S
C594 H588 0.949 . S
C594 C598 1.368 1_545 S
C595 C576 1.429 . S
C595 C589 1.429 . S
C595 C596 1.523 . S
C596 C577 1.368 . S
C596 C590 1.368 . S
C596 C595 1.523 . S
C597 C581 1.429 . S
C597 C593 1.429 . S
C597 C598 1.523 . S
C598 C582 1.368 . S
C598 C594 1.368 1_565 S
C598 C597 1.523 . S
H599 C574 0.950 . S
H600 C576 0.950 . S
H601 C577 0.949 . S
H602 C579 0.950 . S
H603 C581 0.950 . S
C604 C605 1.349 . S
C604 C606 1.327 . S
C604 H629 0.950 . S
C605 C604 1.349 . S
C605 C621 1.349 . S
C606 C604 1.327 . S
C606 C625 1.429 . S
C606 H630 0.950 . S
C607 C624 1.574 . S
C607 C626 1.368 1_545 S
C607 H631 0.949 . S
H608 C612 0.949 . S
C609 C610 1.349 . S
C609 C611 1.327 . S
C609 H632 0.950 . S
C610 C609 1.349 . S
C610 C622 1.349 . S
C611 C609 1.327 . S
C611 C627 1.429 . S
C611 H633 0.950 . S
C612 H608 0.949 . S
C612 C620 1.574 . S
C612 C628 1.368 1_565 S
H613 C621 0.950 1_554 S
H614 C619 0.950 . S
H615 C620 0.949 . S
H616 C622 0.950 . S
H617 C623 0.950 . S
H618 C624 0.949 . S
C619 H614 0.950 . S
C619 C621 1.327 . S
C619 C625 1.429 . S
C620 C612 1.574 . S
C620 H615 0.949 . S
C620 C626 1.368 . S
C621 C605 1.349 . S
C621 H613 0.950 1_556 S
C621 C619 1.327 . S
C622 C610 1.349 . S
C622 H616 0.950 . S
C622 C623 1.327 . S
C623 H617 0.950 . S
C623 C622 1.327 . S
C623 C627 1.429 . S
C624 C607 1.574 . S
C624 H618 0.949 . S
C624 C628 1.368 . S
C625 C606 1.429 . S
C625 C619 1.429 . S
C625 C626 1.523 . S
C626 C607 1.368 1_565 S
C626 C620 1.368 . S
C626 C625 1.523 . S
C627 C611 1.429 . S
C627 C623 1.429 . S
C627 C628 1.523 . S
C628 C612 1.368 1_545 S
C628 C624 1.368 . S
C628 C627 1.523 . S
H629 C604 0.950 . S
H630 C606 0.950 . S
H631 C607 0.949 . S
H632 C609 0.950 . S
H633 C611 0.950 . S
C634 C635 1.349 . S
C634 C636 1.327 . S
C634 H659 0.950 . S
C635 C634 1.349 . S
C635 C651 1.349 . S
C636 C634 1.327 . S
C636 C655 1.429 . S
C636 H660 0.950 . S
C637 C654 1.574 . S
C637 C656 1.368 1_565 S
C637 H661 0.949 . S
H638 C642 0.949 . S
C639 C640 1.349 . S
C639 C641 1.327 . S
C639 H662 0.950 . S
C640 C639 1.349 . S
C640 C652 1.349 . S
C641 C639 1.327 . S
C641 C657 1.429 . S
C641 H663 0.950 . S
C642 H638 0.949 . S
C642 C650 1.574 . S
C642 C658 1.368 1_545 S
H643 C651 0.950 . S
H644 C649 0.950 . S
H645 C650 0.949 . S
H646 C652 0.950 . S
H647 C653 0.950 . S
H648 C654 0.949 . S
C649 H644 0.950 . S
C649 C651 1.327 . S
C649 C655 1.429 . S
C650 C642 1.574 . S
C650 H645 0.949 . S
C650 C656 1.368 . S
C651 C635 1.349 . S
C651 H643 0.950 . S
C651 C649 1.327 . S
C652 C640 1.349 . S
C652 H646 0.950 . S
C652 C653 1.327 . S
C653 H647 0.950 . S
C653 C652 1.327 . S
C653 C657 1.429 . S
C654 C637 1.574 . S
C654 H648 0.949 . S
C654 C658 1.368 . S
C655 C636 1.429 . S
C655 C649 1.429 . S
C655 C656 1.523 . S
C656 C637 1.368 1_545 S
C656 C650 1.368 . S
C656 C655 1.523 . S
C657 C641 1.429 . S
C657 C653 1.429 . S
C657 C658 1.523 . S
C658 C642 1.368 1_565 S
C658 C654 1.368 . S
C658 C657 1.523 . S
H659 C634 0.950 . S
H660 C636 0.950 . S
H661 C637 0.949 . S
H662 C639 0.950 . S
H663 C641 0.950 . S
C664 C665 1.349 . S
C664 C666 1.327 . S
C664 H689 0.950 . S
C665 C664 1.349 . S
C665 C681 1.349 . S
C666 C664 1.327 . S
C666 C685 1.429 . S
C666 H690 0.950 . S
C667 C684 1.574 . S
C667 C686 1.368 . S
C667 H691 0.949 . S
H668 C672 0.949 . S
C669 C670 1.349 . S
C669 C671 1.327 . S
C669 H692 0.950 . S
C670 C669 1.349 . S
C670 C682 1.349 . S
C671 C669 1.327 . S
C671 C687 1.429 . S
C671 H693 0.950 . S
C672 H668 0.949 . S
C672 C680 1.574 . S
C672 C688 1.368 . S
H673 C681 0.950 . S
H674 C679 0.950 . S
H675 C680 0.949 . S
H676 C682 0.950 . S
H677 C683 0.950 . S
H678 C684 0.949 . S
C679 H674 0.950 . S
C679 C681 1.327 . S
C679 C685 1.429 . S
C680 C672 1.574 . S
C680 H675 0.949 . S
C680 C686 1.368 . S
C681 C665 1.349 . S
C681 H673 0.950 . S
C681 C679 1.327 . S
C682 C670 1.349 . S
C682 H676 0.950 . S
C682 C683 1.327 . S
C683 H677 0.950 . S
C683 C682 1.327 . S
C683 C687 1.429 . S
C684 C667 1.574 . S
C684 H678 0.949 . S
C684 C688 1.368 . S
C685 C666 1.429 . S
C685 C679 1.429 . S
C685 C686 1.523 . S
C686 C667 1.368 . S
C686 C680 1.368 . S
C686 C685 1.523 . S
C687 C671 1.429 . S
C687 C683 1.429 . S
C687 C688 1.523 . S
C688 C672 1.368 . S
C688 C684 1.368 . S
C688 C687 1.523 . S
H689 C664 0.950 . S
H690 C666 0.950 . S
H691 C667 0.949 . S
H692 C669 0.950 . S
H693 C671 0.950 . S
C694 C695 1.349 . S
C694 C696 1.327 . S
C694 H719 0.950 . S
C695 C694 1.349 . S
C695 C711 1.349 . S
C696 C694 1.327 . S
C696 C715 1.429 . S
C696 H720 0.950 . S
C697 C714 1.574 . S
C697 C716 1.368 . S
C697 H721 0.949 . S
H698 C702 0.949 . S
C699 C700 1.349 . S
C699 C701 1.327 . S
C699 H722 0.950 . S
C700 C699 1.349 . S
C700 C712 1.349 . S
C701 C699 1.327 . S
C701 C717 1.429 . S
C701 H723 0.950 . S
C702 H698 0.949 . S
C702 C710 1.574 . S
C702 C718 1.368 . S
H703 C711 0.950 . S
H704 C709 0.950 . S
H705 C710 0.949 . S
H706 C712 0.950 . S
H707 C713 0.950 . S
H708 C714 0.949 . S
C709 H704 0.950 . S
C709 C711 1.327 . S
C709 C715 1.429 . S
C710 C702 1.574 . S
C710 H705 0.949 . S
C710 C716 1.368 . S
C711 C695 1.349 . S
C711 H703 0.950 . S
C711 C709 1.327 . S
C712 C700 1.349 . S
C712 H706 0.950 . S
C712 C713 1.327 . S
C713 H707 0.950 . S
C713 C712 1.327 . S
C713 C717 1.429 . S
C714 C697 1.574 . S
C714 H708 0.949 . S
C714 C718 1.368 . S
C715 C696 1.429 . S
C715 C709 1.429 . S
C715 C716 1.523 . S
C716 C697 1.368 . S
C716 C710 1.368 . S
C716 C715 1.523 . S
C717 C701 1.429 . S
C717 C713 1.429 . S
C717 C718 1.523 . S
C718 C702 1.368 . S
C718 C714 1.368 . S
C718 C717 1.523 . S
H719 C694 0.950 . S
H720 C696 0.950 . S
H721 C697 0.949 . S
H722 C699 0.950 . S
H723 C701 0.950 . S
C724 C725 1.349 . S
C724 C726 1.327 . S
C724 H749 0.950 . S
C725 C724 1.349 . S
C725 C741 1.349 . S
C726 C724 1.327 . S
C726 C745 1.429 . S
C726 H750 0.950 . S
C727 C744 1.574 . S
C727 C746 1.368 . S
C727 H751 0.949 . S
H728 C732 0.949 . S
C729 C730 1.349 . S
C729 C731 1.327 . S
C729 H752 0.950 . S
C730 C729 1.349 . S
C730 C742 1.349 . S
C731 C729 1.327 . S
C731 C747 1.429 . S
C731 H753 0.950 . S
C732 H728 0.949 . S
C732 C740 1.574 . S
C732 C748 1.368 . S
H733 C741 0.950 . S
H734 C739 0.950 . S
H735 C740 0.949 . S
H736 C742 0.950 . S
H737 C743 0.950 . S
H738 C744 0.949 . S
C739 H734 0.950 . S
C739 C741 1.327 . S
C739 C745 1.429 . S
C740 C732 1.574 . S
C740 H735 0.949 . S
C740 C746 1.368 . S
C741 C725 1.349 . S
C741 H733 0.950 . S
C741 C739 1.327 . S
C742 C730 1.349 . S
C742 H736 0.950 . S
C742 C743 1.327 . S
C743 H737 0.950 . S
C743 C742 1.327 . S
C743 C747 1.429 . S
C744 C727 1.574 . S
C744 H738 0.949 . S
C744 C748 1.368 . S
C745 C726 1.429 . S
C745 C739 1.429 . S
C745 C746 1.523 . S
C746 C727 1.368 . S
C746 C740 1.368 . S
C746 C745 1.523 . S
C747 C731 1.429 . S
C747 C743 1.429 . S
C747 C748 1.523 . S
C748 C732 1.368 . S
C748 C744 1.368 . S
C748 C747 1.523 . S
H749 C724 0.950 . S
H750 C726 0.950 . S
H751 C727 0.949 . S
H752 C729 0.950 . S
H753 C731 0.950 . S
C754 C755 1.349 . S
C754 C756 1.327 . S
C754 H779 0.950 . S
C755 C754 1.349 . S
C755 C771 1.349 . S
C756 C754 1.327 . S
C756 C775 1.429 . S
C756 H780 0.950 . S
C757 C774 1.574 . S
C757 C776 1.368 . S
C757 H781 0.949 . S
H758 C762 0.949 . S
C759 C760 1.349 . S
C759 C761 1.327 . S
C759 H782 0.950 . S
C760 C759 1.349 . S
C760 C772 1.349 . S
C761 C759 1.327 . S
C761 C777 1.429 . S
C761 H783 0.950 . S
C762 H758 0.949 . S
C762 C770 1.574 . S
C762 C778 1.368 . S
H763 C771 0.950 . S
H764 C769 0.950 . S
H765 C770 0.949 . S
H766 C772 0.950 . S
H767 C773 0.950 . S
H768 C774 0.949 . S
C769 H764 0.950 . S
C769 C771 1.327 . S
C769 C775 1.429 . S
C770 C762 1.574 . S
C770 H765 0.949 . S
C770 C776 1.368 . S
C771 C755 1.349 . S
C771 H763 0.950 . S
C771 C769 1.327 . S
C772 C760 1.349 . S
C772 H766 0.950 . S
C772 C773 1.327 . S
C773 H767 0.950 . S
C773 C772 1.327 . S
C773 C777 1.429 . S
C774 C757 1.574 . S
C774 H768 0.949 . S
C774 C778 1.368 . S
C775 C756 1.429 . S
C775 C769 1.429 . S
C775 C776 1.523 . S
C776 C757 1.368 . S
C776 C770 1.368 . S
C776 C775 1.523 . S
C777 C761 1.429 . S
C777 C773 1.429 . S
C777 C778 1.523 . S
C778 C762 1.368 . S
C778 C774 1.368 . S
C778 C777 1.523 . S
H779 C754 0.950 . S
H780 C756 0.950 . S
H781 C757 0.949 . S
H782 C759 0.950 . S
H783 C761 0.950 . S
C784 C785 1.349 . S
C784 C786 1.327 . S
C784 H809 0.950 . S
C785 C784 1.349 . S
C785 C801 1.349 . S
C786 C784 1.327 . S
C786 C805 1.429 . S
C786 H810 0.950 . S
C787 C804 1.574 . S
C787 C806 1.368 . S
C787 H811 0.949 . S
H788 C792 0.949 . S
C789 C790 1.349 . S
C789 C791 1.327 . S
C789 H812 0.950 . S
C790 C789 1.349 . S
C790 C802 1.349 . S
C791 C789 1.327 . S
C791 C807 1.429 . S
C791 H813 0.950 . S
C792 H788 0.949 . S
C792 C800 1.574 . S
C792 C808 1.368 . S
H793 C801 0.950 . S
H794 C799 0.950 . S
H795 C800 0.949 . S
H796 C802 0.950 . S
H797 C803 0.950 . S
H798 C804 0.949 . S
C799 H794 0.950 . S
C799 C801 1.327 . S
C799 C805 1.429 . S
C800 C792 1.574 . S
C800 H795 0.949 . S
C800 C806 1.368 . S
C801 C785 1.349 . S
C801 H793 0.950 . S
C801 C799 1.327 . S
C802 C790 1.349 . S
C802 H796 0.950 . S
C802 C803 1.327 . S
C803 H797 0.950 . S
C803 C802 1.327 . S
C803 C807 1.429 . S
C804 C787 1.574 . S
C804 H798 0.949 . S
C804 C808 1.368 . S
C805 C786 1.429 . S
C805 C799 1.429 . S
C805 C806 1.523 . S
C806 C787 1.368 . S
C806 C800 1.368 . S
C806 C805 1.523 . S
C807 C791 1.429 . S
C807 C803 1.429 . S
C807 C808 1.523 . S
C808 C792 1.368 . S
C808 C804 1.368 . S
C808 C807 1.523 . S
H809 C784 0.950 . S
H810 C786 0.950 . S
H811 C787 0.949 . S
H812 C789 0.950 . S
H813 C791 0.950 . S
C814 C815 1.349 . S
C814 C816 1.327 . S
C814 H839 0.950 . S
C815 C814 1.349 . S
C815 C831 1.349 . S
C816 C814 1.327 . S
C816 C835 1.429 . S
C816 H840 0.950 . S
C817 C834 1.574 . S
C817 C836 1.368 . S
C817 H841 0.949 . S
H818 C822 0.949 . S
C819 C820 1.349 . S
C819 C821 1.327 . S
C819 H842 0.950 . S
C820 C819 1.349 . S
C820 C832 1.349 . S
C821 C819 1.327 . S
C821 C837 1.429 . S
C821 H843 0.950 . S
C822 H818 0.949 . S
C822 C830 1.574 . S
C822 C838 1.368 . S
H823 C831 0.950 . S
H824 C829 0.950 . S
H825 C830 0.949 . S
H826 C832 0.950 . S
H827 C833 0.950 . S
H828 C834 0.949 . S
C829 H824 0.950 . S
C829 C831 1.327 . S
C829 C835 1.429 . S
C830 C822 1.574 . S
C830 H825 0.949 . S
C830 C836 1.368 . S
C831 C815 1.349 . S
C831 H823 0.950 . S
C831 C829 1.327 . S
C832 C820 1.349 . S
C832 H826 0.950 . S
C832 C833 1.327 . S
C833 H827 0.950 . S
C833 C832 1.327 . S
C833 C837 1.429 . S
C834 C817 1.574 . S
C834 H828 0.949 . S
C834 C838 1.368 . S
C835 C816 1.429 . S
C835 C829 1.429 . S
C835 C836 1.523 . S
C836 C817 1.368 . S
C836 C830 1.368 . S
C836 C835 1.523 . S
C837 C821 1.429 . S
C837 C833 1.429 . S
C837 C838 1.523 . S
C838 C822 1.368 . S
C838 C834 1.368 . S
C838 C837 1.523 . S
H839 C814 0.950 . S
H840 C816 0.950 . S
H841 C817 0.949 . S
H842 C819 0.950 . S
H843 C821 0.950 . S
C844 C845 1.349 . S
C844 C846 1.327 . S
C844 H869 0.950 . S
C845 C844 1.349 . S
C845 C861 1.349 . S
C846 C844 1.327 . S
C846 C865 1.429 . S
C846 H870 0.950 . S
C847 C864 1.574 . S
C847 C866 1.368 . S
C847 H871 0.949 . S
H848 C852 0.949 . S
C849 C850 1.349 . S
C849 C851 1.327 . S
C849 H872 0.950 . S
C850 C849 1.349 . S
C850 C862 1.349 . S
C851 C849 1.327 . S
C851 C867 1.429 . S
C851 H873 0.950 . S
C852 H848 0.949 . S
C852 C860 1.574 . S
C852 C868 1.368 . S
H853 C861 0.950 . S
H854 C859 0.950 . S
H855 C860 0.949 . S
H856 C862 0.950 . S
H857 C863 0.950 . S
H858 C864 0.949 . S
C859 H854 0.950 . S
C859 C861 1.327 . S
C859 C865 1.429 . S
C860 C852 1.574 . S
C860 H855 0.949 . S
C860 C866 1.368 . S
C861 C845 1.349 . S
C861 H853 0.950 . S
C861 C859 1.327 . S
C862 C850 1.349 . S
C862 H856 0.950 . S
C862 C863 1.327 . S
C863 H857 0.950 . S
C863 C862 1.327 . S
C863 C867 1.429 . S
C864 C847 1.574 . S
C864 H858 0.949 . S
C864 C868 1.368 . S
C865 C846 1.429 . S
C865 C859 1.429 . S
C865 C866 1.523 . S
C866 C847 1.368 . S
C866 C860 1.368 . S
C866 C865 1.523 . S
C867 C851 1.429 . S
C867 C863 1.429 . S
C867 C868 1.523 . S
C868 C852 1.368 . S
C868 C864 1.368 . S
C868 C867 1.523 . S
H869 C844 0.950 . S
H870 C846 0.950 . S
H871 C847 0.949 . S
H872 C849 0.950 . S
H873 C851 0.950 . S
C874 C875 1.349 . S
C874 C876 1.327 . S
C874 H899 0.950 . S
C875 C874 1.349 . S
C875 C891 1.349 . S
C876 C874 1.327 . S
C876 C895 1.429 . S
C876 H900 0.950 . S
C877 C894 1.574 . S
C877 C896 1.368 . S
C877 H901 0.949 . S
H878 C882 0.949 . S
C879 C880 1.349 . S
C879 C881 1.327 . S
C879 H902 0.950 . S
C880 C879 1.349 . S
C880 C892 1.349 . S
C881 C879 1.327 . S
C881 C897 1.429 . S
C881 H903 0.950 . S
C882 H878 0.949 . S
C882 C890 1.574 . S
C882 C898 1.368 . S
H883 C891 0.950 . S
H884 C889 0.950 . S
H885 C890 0.949 . S
H886 C892 0.950 . S
H887 C893 0.950 . S
H888 C894 0.949 . S
C889 H884 0.950 . S
C889 C891 1.327 . S
C889 C895 1.429 . S
C890 C882 1.574 . S
C890 H885 0.949 . S
C890 C896 1.368 . S
C891 C875 1.349 . S
C891 H883 0.950 . S
C891 C889 1.327 . S
C892 C880 1.349 . S
C892 H886 0.950 . S
C892 C893 1.327 . S
C893 H887 0.950 . S
C893 C892 1.327 . S
C893 C897 1.429 . S
C894 C877 1.574 . S
C894 H888 0.949 . S
C894 C898 1.368 . S
C895 C876 1.429 . S
C895 C889 1.429 . S
C895 C896 1.523 . S
C896 C877 1.368 . S
C896 C890 1.368 . S
C896 C895 1.523 . S
C897 C881 1.429 . S
C897 C893 1.429 . S
C897 C898 1.523 . S
C898 C882 1.368 . S
C898 C894 1.368 . S
C898 C897 1.523 . S
H899 C874 0.950 . S
H900 C876 0.950 . S
H901 C877 0.949 . S
H902 C879 0.950 . S
H903 C881 0.950 . S
C185 C4 1.557 . S
C190 C139 1.550 . S
C220 C103 1.550 . S
C215 C16 1.557 . S
C250 C126 1.547 . S
C245 C28 1.535 . S
C280 C114 1.547 . S
C275 C40 1.536 . S
C310 C183 1.550 . S
C305 C52 1.557 . S
C340 C147 1.551 . S
C335 C64 1.557 . S
C365 C76 1.535 . S
C370 C170 1.547 . S
C400 C158 1.547 . S
C395 C88 1.535 . S
C425 C9 1.514 . S
C430 C180 1.522 . S
C460 C150 1.522 . S
C455 C21 1.492 . S
C485 C33 1.530 . S
C490 C169 1.545 . S
C515 C45 1.530 . S
C520 C155 1.545 . S
C550 C136 1.522 . S
C545 C57 1.514 . S
C575 C69 1.492 . S
C580 C106 1.522 . S
C610 C125 1.545 . S
C605 C81 1.530 . S
C640 C111 1.545 . S
C635 C93 1.530 . S
C670 C161 1.524 . S
C665 C6 1.519 . S
C700 C177 1.524 . S
C695 C18 1.519 . S
C725 C30 1.485 . S
C730 C148 1.490 . S
C760 C172 1.490 . S
C755 C42 1.485 . S
C790 C117 1.524 . S
C785 C54 1.519 . S
C815 C66 1.519 . S
C820 C133 1.524 . S
C845 C78 1.485 . S
C850 C104 1.490 . S
C875 C90 1.485 . S
C880 C128 1.490 . S
