# Generated by pormake.
# Topology zzz, (3,6)-cn, num edge types: 1
# Building blocks:
#     Node 0, Type 0, BuildingBlock: CUQRIR_clean_linker_1, # of connection points: 3
#     Node 1, Type 0, BuildingBlock: CUQRIR_clean_linker_1, # of connection points: 3
#     Node 2, Type 0, BuildingBlock: CUQRIR_clean_linker_1, # of connection points: 3
#     Node 3, Type 0, BuildingBlock: CUQRIR_clean_linker_1, # of connection points: 3
#     Node 4, Type 0, BuildingBlock: CUQRIR_clean_linker_1, # of connection points: 3
#     Node 5, Type 0, BuildingBlock: CUQRIR_clean_linker_1, # of connection points: 3
#     Node 6, Type 0, BuildingBlock: CUQRIR_clean_linker_1, # of connection points: 3
#     Node 7, Type 0, BuildingBlock: CUQRIR_clean_linker_1, # of connection points: 3
#     Node 8, Type 1, BuildingBlock: KUMJIN_clean_sbu_1, # of connection points: 6
#     Node 9, Type 1, BuildingBlock: KUMJIN_clean_sbu_1, # of connection points: 6
#     Node 10, Type 1, BuildingBlock: KUMJIN_clean_sbu_1, # of connection points: 6
#     Node 11, Type 1, BuildingBlock: KUMJIN_clean_sbu_1, # of connection points: 6
#     Edge 12, Type (0, 1), BuildingBlock: ZUJKAS_clean_linker_0, # of connection points: 2
#     Edge 13, Type (0, 1), BuildingBlock: ZUJKAS_clean_linker_0, # of connection points: 2
#     Edge 14, Type (0, 1), BuildingBlock: ZUJKAS_clean_linker_0, # of connection points: 2
#     Edge 15, Type (0, 1), BuildingBlock: ZUJKAS_clean_linker_0, # of connection points: 2
#     Edge 16, Type (0, 1), BuildingBlock: ZUJKAS_clean_linker_0, # of connection points: 2
#     Edge 17, Type (0, 1), BuildingBlock: ZUJKAS_clean_linker_0, # of connection points: 2
#     Edge 18, Type (0, 1), BuildingBlock: ZUJKAS_clean_linker_0, # of connection points: 2
#     Edge 19, Type (0, 1), BuildingBlock: ZUJKAS_clean_linker_0, # of connection points: 2
#     Edge 20, Type (0, 1), BuildingBlock: ZUJKAS_clean_linker_0, # of connection points: 2
#     Edge 21, Type (0, 1), BuildingBlock: ZUJKAS_clean_linker_0, # of connection points: 2
#     Edge 22, Type (0, 1), BuildingBlock: ZUJKAS_clean_linker_0, # of connection points: 2
#     Edge 23, Type (0, 1), BuildingBlock: ZUJKAS_clean_linker_0, # of connection points: 2
#     Edge 24, Type (0, 1), BuildingBlock: ZUJKAS_clean_linker_0, # of connection points: 2
#     Edge 25, Type (0, 1), BuildingBlock: ZUJKAS_clean_linker_0, # of connection points: 2
#     Edge 26, Type (0, 1), BuildingBlock: ZUJKAS_clean_linker_0, # of connection points: 2
#     Edge 27, Type (0, 1), BuildingBlock: ZUJKAS_clean_linker_0, # of connection points: 2
#     Edge 28, Type (0, 1), BuildingBlock: ZUJKAS_clean_linker_0, # of connection points: 2
#     Edge 29, Type (0, 1), BuildingBlock: ZUJKAS_clean_linker_0, # of connection points: 2
#     Edge 30, Type (0, 1), BuildingBlock: ZUJKAS_clean_linker_0, # of connection points: 2
#     Edge 31, Type (0, 1), BuildingBlock: ZUJKAS_clean_linker_0, # of connection points: 2
#     Edge 32, Type (0, 1), BuildingBlock: ZUJKAS_clean_linker_0, # of connection points: 2
#     Edge 33, Type (0, 1), BuildingBlock: ZUJKAS_clean_linker_0, # of connection points: 2
#     Edge 34, Type (0, 1), BuildingBlock: ZUJKAS_clean_linker_0, # of connection points: 2
#     Edge 35, Type (0, 1), BuildingBlock: ZUJKAS_clean_linker_0, # of connection points: 2
# Relax obj value: 0.170
# Max RMSD: 0.095
# Mean RMSD: 0.084
data_MOF--net-zzz--node1-KUMJIN_clean_sbu_1--node2-CUQRIR_clean_linker_1--edge1-ZUJKAS_clean_linker_0
_symmetry_space_group_name_H-M    P1
_symmetry_Int_Tables_number       1
_symmetry_cell_setting            triclinic
loop_
_symmetry_equiv_pos_as_xyz
'x, y, z'
_cell_length_a     61.885846
_cell_length_b     61.861032
_cell_length_c     18.763499
_cell_angle_alpha  89.946714
_cell_angle_beta   90.027352
_cell_angle_gamma 90.25656
loop_
_atom_site_label
_atom_site_type_symbol
_atom_site_fract_x
_atom_site_fract_y
_atom_site_fract_z
_atom_type_partial_charge
C0 C 0.75526 0.54066 0.27112 0.0
N1 N 0.77589 0.54857 0.27232 0.0
N2 N 0.74416 0.5484 0.21363 0.0
C3 C 0.74599 0.52546 0.32535 0.0
C4 C 0.75887 0.56098 0.17972 0.0
N5 N 0.77792 0.5612 0.21525 0.0
C6 C 0.75527 0.57139 0.10803 0.0
H7 H 0.74983 0.50864 0.30946 0.0
H8 H 0.72816 0.5271 0.32812 0.0
H9 H 0.75324 0.52851 0.37853 0.0
H10 H 0.75328 0.58906 0.11551 0.0
H11 H 0.74068 0.56496 0.08091 0.0
H12 H 0.76948 0.56884 0.07304 0.0
C13 C 1.00601 0.75997 0.24895 0.0
N14 N 0.9976 0.78033 0.25185 0.0
N15 N 0.99797 0.74879 0.19193 0.0
C16 C 0.02167 0.75088 0.30191 0.0
C17 C 0.98471 0.76322 0.15998 0.0
N18 N 0.98434 0.78211 0.19635 0.0
C19 C 0.97397 0.75965 0.08875 0.0
H20 H 0.03833 0.755 0.28468 0.0
H21 H 0.02017 0.73301 0.30469 0.0
H22 H 0.01896 0.75801 0.3554 0.0
H23 H 0.98217 0.74685 0.05761 0.0
H24 H 0.97397 0.77471 0.05665 0.0
H25 H 0.95694 0.75466 0.09772 0.0
C26 C 0.78612 1.00533 0.24431 0.0
N27 N 0.765 0.99913 0.24798 0.0
N28 N 0.79559 0.99763 0.18375 0.0
C29 C 0.79753 0.01849 0.29989 0.0
C30 C 0.77932 0.98682 0.15071 0.0
N31 N 0.76096 0.98767 0.18961 0.0
C32 C 0.78098 0.97681 0.07785 0.0
H33 H 0.79523 0.03588 0.28771 0.0
H34 H 0.81511 0.01503 0.29981 0.0
H35 H 0.79065 0.0152 0.35344 0.0
H36 H 0.78633 0.95981 0.08373 0.0
H37 H 0.79301 0.98553 0.0446 0.0
H38 H 0.76514 0.9768 0.05017 0.0
C39 C 0.53771 0.78491 0.25574 0.0
N40 N 0.54539 0.76422 0.25298 0.0
N41 N 0.54458 0.79674 0.19838 0.0
C42 C 0.52392 0.79368 0.31451 0.0
C43 C 0.55637 0.78243 0.1605 0.0
N44 N 0.55712 0.76297 0.19367 0.0
C45 C 0.56507 0.7868 0.08667 0.0
H46 H 0.50674 0.79 0.30248 0.0
H47 H 0.52583 0.81148 0.3187 0.0
H48 H 0.52811 0.78593 0.36603 0.0
H49 H 0.58263 0.79029 0.0904 0.0
H50 H 0.55703 0.8008 0.06118 0.0
H51 H 0.56279 0.77252 0.0517 0.0
C52 C 0.28414 0.50941 0.10181 0.0
N53 N 0.26324 0.50266 0.09514 0.0
N54 N 0.2938 0.50003 0.15956 0.0
C55 C 0.29483 0.52555 0.05366 0.0
C56 C 0.27783 0.4876 0.18782 0.0
N57 N 0.25952 0.4891 0.14867 0.0
C58 C 0.27995 0.4747 0.2555 0.0
H59 H 0.31254 0.52283 0.05177 0.0
H60 H 0.2919 0.54202 0.0748 0.0
H61 H 0.28793 0.52462 0.99915 0.0
H62 H 0.28879 0.48425 0.2963 0.0
H63 H 0.28946 0.45993 0.24441 0.0
H64 H 0.26403 0.46966 0.27702 0.0
C65 C 0.04363 0.29177 0.06979 0.0
N66 N 0.05147 0.27118 0.07234 0.0
N67 N 0.05098 0.30369 0.12607 0.0
C68 C 0.02878 0.30023 0.01332 0.0
C69 C 0.06331 0.28957 0.16299 0.0
N70 N 0.06374 0.27003 0.1305 0.0
C71 C 0.07314 0.29419 0.23502 0.0
H72 H 0.03054 0.31802 1.00794 0.0
H73 H 1.01186 0.29656 0.02882 0.0
H74 H 0.03208 0.2923 0.96146 0.0
H75 H 0.06801 0.30998 0.25697 0.0
H76 H 0.091 0.29429 0.23011 0.0
H77 H 0.06864 0.28125 0.27331 0.0
C78 C 0.25903 0.03757 0.10083 0.0
N79 N 0.28002 0.04432 0.0982 0.0
N80 N 0.24885 0.04566 0.15948 0.0
C81 C 0.24833 0.02363 0.04573 0.0
C82 C 0.2645 0.0573 0.19258 0.0
N83 N 0.28322 0.05656 0.15552 0.0
C84 C 0.26192 0.06803 0.26406 0.0
H85 H 0.25536 0.02676 0.99228 0.0
H86 H 0.23064 0.02651 0.04454 0.0
H87 H 0.2511 1.00642 0.05944 0.0
H88 H 0.27729 0.06778 0.2945 0.0
H89 H 0.24913 0.06001 0.29609 0.0
H90 H 0.25728 0.08514 0.25559 0.0
C91 C 0.50271 0.25373 0.08474 0.0
N92 N 0.49495 0.27436 0.08491 0.0
N93 N 0.49276 0.24136 0.1356 0.0
C94 C 0.52074 0.24606 0.03808 0.0
C95 C 0.47879 0.25532 0.16643 0.0
N96 N 0.48024 0.27523 0.13644 0.0
C97 C 0.46468 0.24974 0.22935 0.0
H98 H 0.52062 0.22817 0.03387 0.0
H99 H 0.53634 0.2513 0.0617 0.0
H100 H 0.51944 0.2534 0.98427 0.0
H101 H 0.47504 0.24612 0.2761 0.0
H102 H 0.45496 0.23509 0.21768 0.0
H103 H 0.45337 0.26297 0.24283 0.0
Eu104 Eu 1.00075 0.03405 0.60008 0.0
C105 C 0.07545 0.0518 0.80894 0.0
N106 N 0.07497 0.03713 0.75495 0.0
C107 C 0.11109 0.04683 0.72137 0.0
C108 C 0.09379 0.065 0.81995 0.0
C109 C 0.09251 0.03419 0.71216 0.0
C110 C 0.1117 0.06236 0.77528 0.0
C111 C 0.05704 0.06985 0.90633 0.0
C112 C 0.05719 0.05421 0.85161 0.0
C113 C 0.07527 0.08303 0.91724 0.0
C114 C 0.09359 0.08059 0.87428 0.0
Eu115 Eu 0.04302 0.01649 0.74391 0.0
N116 N 0.03946 0.04166 0.83854 0.0
C117 C 0.03852 0.07185 0.94846 0.0
C118 C 0.02191 0.0427 0.88237 0.0
C119 C 0.021 0.05802 0.93697 0.0
H120 H 0.09238 0.02186 0.67161 0.0
H121 H 1.00688 0.05895 0.97083 0.0
H122 H 0.95137 0.03152 0.67416 0.0
H123 H 0.03178 0.99339 0.36175 0.0
H124 H 1.00881 0.03141 0.87725 0.0
H125 H 0.03775 0.08371 0.99084 0.0
H126 H 0.0325 0.01944 0.46003 0.0
H127 H 0.12494 0.04451 0.68706 0.0
H128 H 0.07535 0.0952 0.95874 0.0
H129 H 0.1075 0.09094 0.88327 0.0
H130 H 0.91751 1.01079 0.65992 0.0
H131 H 0.12609 0.0722 0.78206 0.0
H132 H 0.9994 0.97065 0.34179 0.0
N133 N 0.96724 0.01603 0.58799 0.0
C134 C 0.9655 1.00188 0.53284 0.0
C135 C 0.93092 1.00801 0.62412 0.0
C136 C 0.94635 0.98985 0.52221 0.0
C137 C 0.95023 0.01952 0.63272 0.0
C138 C 0.929 0.99302 0.56887 0.0
N139 N 1.00158 1.01055 0.50025 0.0
C140 C 0.01861 1.00915 0.45434 0.0
C141 C 0.98184 0.98423 0.43078 0.0
C142 C 0.98311 0.99908 0.48769 0.0
C143 C 0.99973 0.98192 0.38598 0.0
C144 C 0.01809 0.99462 0.39734 0.0
H145 H 0.91403 0.98408 0.56244 0.0
H146 H 0.93059 0.96552 0.4571 0.0
H147 H 0.96163 0.96061 0.37712 0.0
O148 O 1.00566 0.05967 0.52184 0.0
O149 O 1.00172 0.99762 0.6235 0.0
O150 O 0.03656 0.99077 0.65883 0.0
O151 O 0.97375 0.05393 0.56437 0.0
O152 O 0.03677 0.03911 0.57171 0.0
O153 O 0.05493 1.01212 0.63106 0.0
O154 O 0.0432 0.99768 0.8417 0.0
O155 O 0.0425 0.05222 0.70884 0.0
O156 O 1.00657 0.05718 0.69257 0.0
O157 O 0.07023 0.9953 0.76947 0.0
O158 O 1.00734 1.00805 0.76724 0.0
O159 O 0.9897 0.03636 0.71482 0.0
C160 C 0.01834 0.98452 0.62872 0.0
C161 C 0.9852 0.09027 0.55484 0.0
C162 C 1.00304 0.12525 0.57054 0.0
C163 C 0.98525 0.13246 0.61029 0.0
C164 C 0.96753 0.09781 0.59474 0.0
C165 C 0.96763 0.11877 0.62231 0.0
C166 C 1.00276 0.1042 0.5426 0.0
C167 C 0.05377 0.02642 0.57943 0.0
C168 C 0.9863 0.0675 0.53116 0.0
C169 C 0.94514 0.97496 0.46589 0.0
C170 C 0.96283 0.97215 0.42035 0.0
C171 C 0.0256 0.06503 0.70958 0.0
C172 C 0.05879 0.96345 0.82692 0.0
C173 C 0.03612 0.93106 0.83133 0.0
C174 C 0.05492 0.91861 0.84181 0.0
C175 C 0.07723 0.95082 0.83722 0.0
C176 C 0.03847 0.95342 0.82075 0.0
C177 C 0.07529 0.92843 0.84347 0.0
C178 C 0.99005 0.02032 0.76071 0.0
C179 C 0.06062 0.98711 0.82486 0.0
H180 H 0.98489 0.1487 0.63162 0.0
H181 H 0.95376 0.08744 0.60554 0.0
H182 H 0.95401 0.12442 0.65318 0.0
H183 H 0.01622 0.09871 0.51048 0.0
H184 H 0.05398 0.9014 0.85176 0.0
H185 H 0.09305 0.9583 0.84126 0.0
H186 H 0.02436 0.96321 0.81009 0.0
H187 H 0.08956 0.91871 0.85216 0.0
Eu188 Eu 0.5314 0.04151 0.74604 0.0
C189 C 0.52835 0.95034 0.6063 0.0
N190 N 0.53603 0.96926 0.57902 0.0
C191 C 0.56751 0.95124 0.53488 0.0
C192 C 0.5404 0.93112 0.60019 0.0
C193 C 0.55512 0.96992 0.54267 0.0
C194 C 0.56019 0.93178 0.56412 0.0
C195 C 0.50063 0.93095 0.67242 0.0
C196 C 0.50863 0.95031 0.64222 0.0
C197 C 0.51271 0.91186 0.66688 0.0
C198 C 0.5325 0.91194 0.63081 0.0
Eu199 Eu 0.51438 1.00007 0.59738 0.0
N200 N 0.49746 0.96918 0.64852 0.0
C201 C 0.48067 0.93129 0.70728 0.0
C202 C 0.47742 0.96921 0.67887 0.0
C203 C 0.4689 0.95044 0.70963 0.0
H204 H 0.5606 0.98474 0.51825 0.0
H205 H 0.45313 0.95071 0.73454 0.0
H206 H 0.4848 0.06629 0.78453 0.0
H207 H 0.60781 0.07677 0.65118 0.0
H208 H 0.46758 0.98341 0.67852 0.0
H209 H 0.47402 0.91678 0.73127 0.0
H210 H 0.58497 0.04936 0.70866 0.0
H211 H 0.58266 0.95186 0.50615 0.0
H212 H 0.50684 0.89692 0.69017 0.0
H213 H 0.5416 0.89707 0.627 0.0
H214 H 0.46833 0.10242 0.77077 0.0
H215 H 0.5699 0.91735 0.55829 0.0
H216 H 0.59237 0.11211 0.61738 0.0
N217 N 0.51443 0.07547 0.7358 0.0
C218 C 0.52643 0.09168 0.70654 0.0
C219 C 0.48463 0.09959 0.75226 0.0
C220 C 0.51763 0.1125 0.69737 0.0
C221 C 0.49394 0.07917 0.7598 0.0
C222 C 0.49647 0.1163 0.72053 0.0
N223 N 0.55583 0.06728 0.69688 0.0
C224 C 0.57752 0.06395 0.68944 0.0
C225 C 0.56032 0.10399 0.65547 0.0
C226 C 0.5475 0.08734 0.6852 0.0
C227 C 0.58201 0.09975 0.64025 0.0
C228 C 0.59076 0.0798 0.65885 0.0
H229 H 0.48916 0.13207 0.71436 0.0
H230 H 0.52355 0.14482 0.65713 0.0
H231 H 0.56095 0.13743 0.62086 0.0
O232 O 0.55572 0.0409 0.83068 0.0
O233 O 0.51155 0.05361 0.64985 0.0
O234 O 0.5254 0.03336 0.56043 0.0
O235 O 0.5256 0.05723 0.84832 0.0
O236 O 0.55875 0.02176 0.69287 0.0
O237 O 0.54612 0.01757 0.57889 0.0
O238 O 0.48719 1.00464 0.52424 0.0
O239 O 0.53214 0.98639 0.69514 0.0
O240 O 0.52126 1.00819 0.78627 0.0
O241 O 0.51435 0.98536 0.49182 0.0
O242 O 0.4859 0.0165 0.65601 0.0
O243 O 0.49885 0.02611 0.76724 0.0
C244 C 0.51679 0.05147 0.58233 0.0
C245 C 0.53957 0.03745 0.94542 0.0
C246 C 0.55058 1.00934 0.0293 0.0
C247 C 0.53329 0.01481 0.07405 0.0
C248 C 0.5223 0.04268 0.99095 0.0
C249 C 0.51914 0.03132 0.05457 0.0
C250 C 0.55354 0.02061 0.96497 0.0
C251 C 0.56231 0.01896 0.62399 0.0
C252 C 0.54285 0.04944 0.87777 0.0
C253 C 0.53011 0.1288 0.66527 0.0
C254 C 0.55138 0.12455 0.6443 0.0
C255 C 0.52771 0.98929 0.763 0.0
C256 C 0.50043 1.00954 0.40615 0.0
C257 C 0.48936 0.0401 0.33214 0.0
C258 C 0.50715 0.03659 0.28733 0.0
C259 C 0.51814 1.00626 0.36033 0.0
C260 C 0.48614 0.02655 0.3915 0.0
C261 C 0.52148 0.01977 0.30162 0.0
C262 C 0.48273 0.02217 0.72335 0.0
C263 C 0.49748 0.99598 0.47073 0.0
H264 H 0.53093 1.0065 0.12432 0.0
H265 H 0.51125 0.05559 0.97749 0.0
H266 H 0.50586 0.03552 0.08935 0.0
H267 H 0.56722 0.0167 0.93136 0.0
H268 H 0.50985 0.04673 0.24105 0.0
H269 H 0.52954 0.99334 0.37001 0.0
H270 H 0.4722 0.029 0.42548 0.0
H271 H 0.53516 0.01712 0.26683 0.0
Eu272 Eu 0.53925 0.50884 0.61033 0.0
C273 C 0.46671 0.49647 0.81395 0.0
N274 N 0.46812 0.51097 0.75965 0.0
C275 C 0.43324 0.49971 0.7172 0.0
C276 C 0.44898 0.48215 0.8196 0.0
C277 C 0.45102 0.51372 0.71455 0.0
C278 C 0.43243 0.48353 0.76902 0.0
C279 C 0.4809 0.48299 0.92602 0.0
C280 C 0.48234 0.4969 0.86667 0.0
C281 C 0.46387 0.46795 0.93003 0.0
C282 C 0.44795 0.46752 0.87687 0.0
Eu283 Eu 0.50019 0.53236 0.75567 0.0
N284 N 0.49882 0.5113 0.86051 0.0
C285 C 0.49647 0.48483 0.97989 0.0
C286 C 0.51357 0.51383 0.914 0.0
C287 C 0.51272 0.50052 0.97427 0.0
H288 H 0.45073 0.52696 0.67723 0.0
H289 H 0.52465 0.50227 0.01607 0.0
H290 H 0.58635 0.53373 0.63973 0.0
H291 H 0.49827 0.49724 0.35372 0.0
H292 H 0.52621 0.52585 0.90932 0.0
H293 H 0.49593 0.47444 0.0264 0.0
H294 H 0.50888 0.48754 0.47608 0.0
H295 H 0.42001 0.50165 0.68001 0.0
H296 H 0.46263 0.45691 0.97472 0.0
H297 H 0.43459 0.45623 0.8816 0.0
H298 H 0.61015 0.56062 0.5803 0.0
H299 H 0.41853 0.47283 0.77144 0.0
H300 H 0.51533 0.52865 0.29403 0.0
N301 N 0.56305 0.53386 0.55657 0.0
C302 C 0.55792 0.54061 0.48989 0.0
C303 C 0.59542 0.55526 0.55459 0.0
C304 C 0.57086 0.55599 0.45421 0.0
C305 C 0.58199 0.5401 0.58802 0.0
C306 C 0.58961 0.56357 0.48796 0.0
N307 N 0.52979 0.5147 0.48918 0.0
C308 C 0.51571 0.50188 0.45204 0.0
C309 C 0.53562 0.53659 0.38448 0.0
C310 C 0.54055 0.53096 0.45554 0.0
C311 C 0.5196 0.52482 0.34861 0.0
C312 C 0.50994 0.50709 0.38208 0.0
H313 H 0.60002 0.57533 0.46221 0.0
H314 H 0.5747 0.57468 0.35726 0.0
H315 H 0.5438 0.55772 0.29618 0.0
O316 O 0.55742 0.48805 0.53859 0.0
O317 O 0.54045 0.54561 0.63232 0.0
O318 O 0.50519 0.5526 0.65552 0.0
O319 O 0.56142 0.4845 0.65218 0.0
O320 O 0.50306 0.50195 0.59358 0.0
O321 O 0.48755 0.5322 0.64087 0.0
O322 O 0.50628 0.5604 0.82261 0.0
O323 O 0.51714 0.49973 0.772 0.0
O324 O 0.51488 0.48578 0.66112 0.0
O325 O 0.47344 0.55192 0.79611 0.0
O326 O 0.53575 0.54005 0.77972 0.0
O327 O 0.55537 0.51428 0.71815 0.0
C328 C 0.52394 0.55894 0.63039 0.0
C329 C 0.55983 0.45288 0.58436 0.0
C330 C 0.53528 0.4243 0.54524 0.0
C331 C 0.55 0.40886 0.57133 0.0
C332 C 0.57426 0.43739 0.61016 0.0
C333 C 0.56921 0.41543 0.60431 0.0
C334 C 0.54011 0.44628 0.55445 0.0
C335 C 0.48738 0.51627 0.59437 0.0
C336 C 0.56482 0.47599 0.5899 0.0
C337 C 0.56515 0.56264 0.38517 0.0
C338 C 0.54753 0.553 0.35042 0.0
C339 C 0.51487 0.48281 0.73034 0.0
C340 C 0.48376 0.58881 0.7861 0.0
C341 C 0.50053 0.62311 0.75179 0.0
C342 C 0.48237 0.62803 0.71006 0.0
C343 C 0.46569 0.59395 0.74391 0.0
C344 C 0.50084 0.6037 0.79055 0.0
C345 C 0.46503 0.6135 0.70642 0.0
C346 C 0.55345 0.52851 0.77005 0.0
C347 C 0.48641 0.56712 0.8183 0.0
H348 H 0.54709 0.39173 0.56443 0.0
H349 H 0.58938 0.44227 0.63463 0.0
H350 H 0.58044 0.40345 0.62395 0.0
H351 H 0.52863 0.45839 0.53741 0.0
H352 H 0.48166 0.643 0.6802 0.0
H353 H 0.45231 0.58273 0.73863 0.0
H354 H 0.5146 0.60009 0.82424 0.0
H355 H 0.45113 0.61729 0.67375 0.0
Eu356 Eu 0.03384 0.54766 0.57866 0.0
C357 C 0.04978 0.49169 0.83984 0.0
N358 N 0.04115 0.4857 0.77634 0.0
C359 C 0.06527 0.45556 0.77017 0.0
C360 C 0.0673 0.48036 0.86962 0.0
C361 C 0.04787 0.46732 0.74284 0.0
C362 C 0.07527 0.46231 0.83323 0.0
C363 C 0.04807 0.51455 0.94435 0.0
C364 C 0.04037 0.50863 0.87634 0.0
C365 C 0.06626 0.50409 0.97275 0.0
C366 C 0.07588 0.48703 0.93539 0.0
Eu367 Eu 0.0137 0.50806 0.72935 0.0
N368 N 0.02265 0.51817 0.84775 0.0
C369 C 0.03673 0.53018 0.98293 0.0
C370 C 1.01045 0.5319 0.88779 0.0
C371 C 0.01756 0.53854 0.95512 0.0
H372 H 0.04028 0.46229 0.69363 0.0
H373 H 1.00814 0.54993 0.98577 0.0
H374 H 0.02591 0.59686 0.65808 0.0
H375 H 1.0028 0.5205 0.3226 0.0
H376 H 0.99518 0.53776 0.86787 0.0
H377 H 0.04211 0.53519 0.03536 0.0
H378 H 0.02671 0.52015 0.42838 0.0
H379 H 0.07101 0.44136 0.74249 0.0
H380 H 0.07254 0.5086 0.0246 0.0
H381 H 0.0895 0.47867 0.95876 0.0
H382 H 0.99909 0.62589 0.65608 0.0
H383 H 0.08876 0.45319 0.85426 0.0
H384 H 0.97403 0.54802 0.31262 0.0
N385 N 1.01024 0.57799 0.57806 0.0
C386 C 0.99543 0.57843 0.52432 0.0
C387 C 0.99757 0.61241 0.61963 0.0
C388 C 0.98044 0.59548 0.51843 0.0
C389 C 1.01242 0.59546 0.62213 0.0
C390 C 0.98123 0.61221 0.56845 0.0
N391 N 1.01102 0.54659 0.47821 0.0
C392 C 0.01401 0.53201 0.42458 0.0
C393 C 0.9822 0.56343 0.41276 0.0
C394 C 0.99619 0.56259 0.47204 0.0
C395 C 0.98443 0.54787 0.35908 0.0
C396 C 1.00061 0.53228 0.36458 0.0
H397 H 0.96999 0.62557 0.56584 0.0
H398 H 0.95411 0.60873 0.45614 0.0
H399 H 0.95587 0.58081 0.36319 0.0
O400 O 0.06243 0.54381 0.51205 0.0
O401 O 1.00194 0.5289 0.56828 0.0
O402 O 0.98924 0.5312 0.68058 0.0
O403 O 0.04855 0.57545 0.52514 0.0
O404 O 0.04219 0.51226 0.55493 0.0
O405 O 0.01757 0.49197 0.62048 0.0
O406 O 0.99293 0.49168 0.80684 0.0
O407 O 0.04946 0.50879 0.69719 0.0
O408 O 0.05667 0.54413 0.6739 0.0
O409 O 0.99111 0.48285 0.69592 0.0
O410 O 1.00613 0.54407 0.7442 0.0
O411 O 0.03508 0.56118 0.69243 0.0
C412 C 0.98549 0.53074 0.61186 0.0
C413 C 0.05993 0.56567 0.40904 0.0
C414 C 0.06677 0.55072 0.29094 0.0
C415 C 0.0554 0.56788 0.25994 0.0
C416 C 0.04836 0.58269 0.37722 0.0
C417 C 0.04613 0.58372 0.30312 0.0
C418 C 0.06906 0.54979 0.36525 0.0
C419 C 0.03108 0.49425 0.5664 0.0
C420 C 0.06145 0.56349 0.48746 0.0
C421 C 0.96581 0.59584 0.46118 0.0
C422 C 0.96681 0.57994 0.40819 0.0
C423 C 0.06218 0.5257 0.7035 0.0
C424 C 0.95821 0.48729 0.75533 0.0
C425 C 0.92873 0.51137 0.78762 0.0
C426 C 0.91589 0.5022 0.7338 0.0
C427 C 0.94502 0.47797 0.70256 0.0
C428 C 0.94976 0.50378 0.79848 0.0
C429 C 0.92398 0.48543 0.69194 0.0
C430 C 0.02009 0.56021 0.7423 0.0
C431 C 0.98149 0.48222 0.7575 0.0
H432 H 0.05374 0.56901 0.20258 0.0
H433 H 0.04089 0.59511 0.40943 0.0
H434 H 0.03723 0.59687 0.27908 0.0
H435 H 0.07825 0.53673 0.38896 0.0
H436 H 0.89959 0.50789 0.72466 0.0
H437 H 0.95126 0.46545 0.66797 0.0
H438 H 0.95974 0.51142 0.83885 0.0
H439 H 0.91403 0.47841 0.65044 0.0
H440 H 0.23051 1.00818 0.2042 0.0
H441 H 0.19577 1.00411 0.26749 0.0
H442 H 0.18363 0.07215 0.23978 0.0
H443 H 0.21835 0.07611 0.17734 0.0
H444 H 0.18472 0.02774 0.39696 0.0
H445 H 0.1254 0.04312 0.18092 0.0
H446 H 0.1529 0.03502 0.16321 0.0
H447 H 0.14712 0.06241 0.18812 0.0
C448 C 0.22008 0.02207 0.21001 0.0
C449 C 0.22693 0.04239 0.1849 0.0
C450 C 0.20033 0.01982 0.24669 0.0
C451 C 0.18684 0.03778 0.25812 0.0
C452 C 0.19343 0.05795 0.23089 0.0
H453 H 0.06514 0.0602 0.4901 0.0
H454 H 0.0971 0.06303 0.41275 0.0
C455 C 0.21326 0.06022 0.19505 0.0
C456 C 0.16673 0.03585 0.3027 0.0
H457 H 0.11164 0.04145 0.29864 0.0
C458 C 0.16873 0.03058 0.37527 0.0
C459 C 0.14581 0.0399 0.27509 0.0
C460 C 0.14252 0.04528 0.19747 0.0
C461 C 0.15061 0.02957 0.42091 0.0
C462 C 0.12957 0.03321 0.39314 0.0
C463 C 0.1276 0.03857 0.32045 0.0
C464 C 0.10953 0.03129 0.43848 0.0
C465 C 0.15439 0.02533 0.49917 0.0
C466 C 0.10528 1.01236 0.47771 0.0
C467 C 0.08714 1.0108 0.52237 0.0
C468 C 0.07241 0.028 0.52852 0.0
C469 C 0.07613 0.04665 0.48707 0.0
C470 C 0.09446 0.04828 0.44273 0.0
H471 H 0.17104 0.02997 0.51542 0.0
H472 H 0.14275 0.03434 0.53284 0.0
H473 H 0.15238 1.0078 0.50992 0.0
H474 H 0.11604 0.99866 0.47397 0.0
H475 H 0.08469 0.99602 0.55233 0.0
H476 H 0.52985 0.22768 0.19797 0.0
H477 H 0.53519 0.19371 0.26409 0.0
H478 H 0.47083 0.17326 0.20615 0.0
H479 H 0.46613 0.2066 0.13752 0.0
H480 H 0.51618 0.17988 0.37771 0.0
H481 H 0.49974 0.11755 0.17424 0.0
H482 H 0.50324 0.14565 0.15108 0.0
H483 H 0.47746 0.13575 0.18224 0.0
C484 C 0.51722 0.21552 0.19726 0.0
C485 C 0.49766 0.21976 0.16178 0.0
C486 C 0.52011 0.19616 0.23593 0.0
C487 C 0.50353 0.18044 0.2403 0.0
C488 C 0.48422 0.18451 0.20283 0.0
H489 H 0.49112 0.08758 0.59534 0.0
H490 H 0.488 0.11833 0.51366 0.0
C491 C 0.48145 0.20374 0.16371 0.0
C492 C 0.50577 0.16078 0.28804 0.0
H493 H 0.49854 0.10569 0.29584 0.0
C494 C 0.51246 0.16368 0.35922 0.0
C495 C 0.50114 0.13933 0.26502 0.0
C496 C 0.49522 0.13435 0.18878 0.0
C497 C 0.5143 0.14619 0.40744 0.0
C498 C 0.50882 0.12493 0.38521 0.0
C499 C 0.50249 0.12189 0.3138 0.0
C500 C 0.51009 0.10568 0.43471 0.0
C501 C 0.52264 0.15065 0.48157 0.0
C502 C 0.52285 0.08764 0.41735 0.0
C503 C 0.52477 0.07004 0.46463 0.0
C504 C 0.51392 0.06987 0.53072 0.0
C505 C 0.50042 0.08748 0.54658 0.0
C506 C 0.49858 0.10513 0.49949 0.0
H507 H 0.53159 0.16623 0.48431 0.0
H508 H 0.50881 0.1516 0.51901 0.0
H509 H 0.53351 0.13753 0.49979 0.0
H510 H 0.53171 0.08732 0.36761 0.0
H511 H 0.53508 0.05669 0.4497 0.0
H512 H 0.32387 0.46932 0.18377 0.0
H513 H 0.35767 0.4731 0.25131 0.0
H514 H 0.34646 0.54155 0.27123 0.0
H515 H 0.31229 0.53756 0.20492 0.0
H516 H 0.39534 0.49593 0.23408 0.0
H517 H 0.35393 0.52447 0.47822 0.0
H518 H 0.33937 0.51335 0.40336 0.0
H519 H 0.34892 0.54085 0.40101 0.0
C520 C 0.32874 0.4852 0.20214 0.0
C521 C 0.31534 0.50312 0.18918 0.0
C522 C 0.34811 0.48737 0.2408 0.0
C523 C 0.35463 0.50754 0.26825 0.0
C524 C 0.34172 0.52569 0.25244 0.0
H525 H 0.46034 0.54859 0.55045 0.0
H526 H 0.4293 0.54634 0.46997 0.0
C527 C 0.3223 0.52349 0.21356 0.0
C528 C 0.37455 0.5093 0.3145 0.0
H529 H 0.3921 0.52426 0.48088 0.0
C530 C 0.39458 0.50212 0.28806 0.0
C531 C 0.37382 0.51728 0.38539 0.0
C532 C 0.35285 0.52424 0.41912 0.0
C533 C 0.4137 0.50305 0.32947 0.0
C534 C 0.41293 0.51098 0.40043 0.0
C535 C 0.39292 0.5182 0.42674 0.0
C536 C 0.43259 0.51218 0.4481 0.0
C537 C 0.43467 0.49603 0.29593 0.0
C538 C 0.44507 0.49375 0.46386 0.0
C539 C 0.46298 0.49501 0.51022 0.0
C540 C 0.46889 0.51472 0.54255 0.0
C541 C 0.45637 0.53311 0.52676 0.0
C542 C 0.43852 0.53184 0.48053 0.0
H543 H 0.43381 0.49648 0.2368 0.0
H544 H 0.44833 0.50643 0.31355 0.0
H545 H 0.43816 0.47914 0.31212 0.0
H546 H 0.4407 0.47821 0.44151 0.0
H547 H 0.47191 0.48042 0.52196 0.0
H548 H 0.01654 0.31545 0.20474 0.0
H549 H 1.0124 0.34953 0.27106 0.0
H550 H 0.07052 0.37418 0.17339 0.0
H551 H 0.07456 0.34002 0.10769 0.0
H552 H 0.04355 0.36503 0.3697 0.0
H553 H 0.02941 0.42644 0.15917 0.0
H554 H 0.02523 0.39787 0.14422 0.0
H555 H 0.05211 0.40895 0.14468 0.0
C556 C 0.02787 0.32853 0.19536 0.0
C557 C 0.04548 0.32535 0.1493 0.0
C558 C 0.02569 0.34793 0.23394 0.0
C559 C 0.041 0.36473 0.22709 0.0
C560 C 0.05818 0.36183 0.17887 0.0
H561 H 0.05892 0.48955 0.45133 0.0
H562 H 0.06201 0.45863 0.36989 0.0
C563 C 0.06044 0.34234 0.14082 0.0
C564 C 0.04008 0.38428 0.27496 0.0
H565 H 0.03558 0.43955 0.27607 0.0
C566 C 0.04168 0.3813 0.34908 0.0
C567 C 0.03805 0.40567 0.24863 0.0
C568 C 0.03593 0.41005 0.16989 0.0
C569 C 0.04146 0.39888 0.39711 0.0
C570 C 0.03882 0.42029 0.3711 0.0
C571 C 0.0375 0.4233 0.29675 0.0
C572 C 0.03687 0.43954 0.42026 0.0
C573 C 0.04475 0.39423 0.47533 0.0
C574 C 0.02147 0.43965 0.47539 0.0
C575 C 0.01983 0.4572 0.5225 0.0
C576 C 0.03331 0.47554 0.5156 0.0
C577 C 0.04838 0.47573 0.45916 0.0
C578 C 0.05011 0.458 0.41217 0.0
H579 H 0.05377 0.37893 0.48355 0.0
H580 H 0.05373 0.40751 0.50209 0.0
H581 H 0.02878 0.39237 0.50148 0.0
H582 H 1.01048 0.42613 0.48196 0.0
H583 H 1.00777 0.4564 0.5642 0.0
H584 H 0.8246 0.96639 0.15586 0.0
H585 H 0.85908 0.97024 0.09204 0.0
H586 H 0.84981 0.03918 0.0816 0.0
H587 H 0.81527 0.0352 0.14607 0.0
H588 H 0.85947 0.01857 0.94657 0.0
H589 H 0.9187 0.99482 0.15431 0.0
H590 H 0.89623 0.97664 0.1425 0.0
H591 H 0.8916 1.00345 0.17565 0.0
C592 C 0.83024 0.9824 0.14147 0.0
C593 C 0.81741 1.00052 0.15684 0.0
C594 C 0.84996 0.98461 0.10492 0.0
C595 C 0.85732 1.00504 0.08223 0.0
C596 C 0.84467 0.02325 0.09879 0.0
H597 H 0.96022 0.05069 0.79854 0.0
H598 H 0.92892 0.04675 0.87649 0.0
C599 C 0.82502 0.02103 0.13615 0.0
C600 C 0.87734 1.00713 0.03722 0.0
H601 H 0.93212 0.99888 0.03676 0.0
C602 C 0.87536 0.01441 0.96655 0.0
C603 C 0.89814 1.00136 0.06242 0.0
C604 C 0.90146 0.99377 0.13801 0.0
C605 C 0.89336 0.01581 0.92047 0.0
C606 C 0.9143 1.01049 0.946 0.0
C607 C 0.91624 1.00306 0.01668 0.0
C608 C 0.93428 1.01298 0.90062 0.0
C609 C 0.88954 0.02236 0.84398 0.0
C610 C 0.9487 0.99566 0.89014 0.0
C611 C 0.967 0.998 0.8459 0.0
C612 C 0.97132 0.01769 0.81082 0.0
C613 C 0.95725 0.03513 0.82327 0.0
C614 C 0.93916 0.03286 0.86776 0.0
H615 H 0.87268 0.01883 0.82713 0.0
H616 H 0.89221 0.04003 0.83847 0.0
H617 H 0.90072 1.01388 0.80722 0.0
H618 H 0.94559 0.98017 0.91517 0.0
H619 H 0.97751 0.98425 0.83797 0.0
H620 H 0.57403 0.82856 0.18409 0.0
H621 H 0.56967 0.86271 0.11963 0.0
H622 H 0.50175 0.84907 0.09352 0.0
H623 H 0.50644 0.8145 0.15716 0.0
H624 H 0.51851 0.86102 0.96929 0.0
H625 H 0.54663 0.92103 0.16665 0.0
H626 H 0.56645 0.90048 0.15205 0.0
H627 H 0.54074 0.89338 0.19078 0.0
C628 C 0.55802 0.83328 0.16693 0.0
C629 C 0.54049 0.81903 0.17737 0.0
C630 C 0.5555 0.85286 0.12969 0.0
C631 C 0.53528 0.85898 0.10187 0.0
C632 C 0.51754 0.84504 0.11444 0.0
H633 H 0.51185 0.98619 0.90009 0.0
H634 H 0.51317 0.9552 0.98149 0.0
C635 C 0.52011 0.82536 0.15182 0.0
C636 C 0.53314 0.87889 0.05524 0.0
H637 H 0.54536 0.93305 0.04518 0.0
C638 C 0.52424 0.87677 0.98645 0.0
C639 C 0.54036 0.89974 0.07674 0.0
C640 C 0.54887 0.90387 0.15085 0.0
C641 C 0.52286 0.89446 0.93873 0.0
C642 C 0.53099 0.91506 0.9591 0.0
C643 C 0.53936 0.91735 0.02852 0.0
C644 C 0.53075 0.93436 0.90954 0.0
C645 C 0.51236 0.89091 0.86705 0.0
C646 C 0.54068 0.93357 0.84204 0.0
C647 C 0.53999 0.95137 0.79529 0.0
C648 C 0.52933 0.9706 0.81428 0.0
C649 C 0.52001 0.97166 0.88281 0.0
C650 C 0.52075 0.95385 0.92969 0.0
H651 H 0.50144 0.87661 0.86764 0.0
H652 H 0.50291 0.90526 0.85026 0.0
H653 H 0.52507 0.88796 0.82656 0.0
H654 H 0.54914 0.91915 0.8254 0.0
H655 H 0.54798 0.95007 0.74424 0.0
H656 H 0.7309 0.5126 0.14326 0.0
H657 H 0.69716 0.50849 0.07453 0.0
H658 H 0.67554 0.57032 0.1515 0.0
H659 H 0.70937 0.57438 0.21948 0.0
H660 H 0.64171 0.53629 0.14485 0.0
H661 H 0.68701 0.54578 0.89128 0.0
H662 H 0.69687 0.52527 0.95081 0.0
H663 H 0.69837 0.55318 0.97654 0.0
C664 C 0.71859 0.52492 0.14723 0.0
C665 C 0.72253 0.54358 0.18804 0.0
C666 C 0.69942 0.52274 0.10717 0.0
C667 C 0.68373 0.5392 0.1069 0.0
C668 C 0.68724 0.55736 0.15058 0.0
H669 H 0.55895 0.55772 0.88097 0.0
H670 H 0.58971 0.56102 0.96291 0.0
C671 C 0.70649 0.55961 0.19002 0.0
C672 C 0.66437 0.53808 0.05825 0.0
H673 H 0.64976 0.53811 0.882 0.0
C674 C 0.64346 0.53672 0.08736 0.0
C675 C 0.66648 0.53871 0.98305 0.0
C676 C 0.68834 0.54099 0.94819 0.0
C677 C 0.62482 0.53536 0.0437 0.0
C678 C 0.62691 0.53601 0.96826 0.0
C679 C 0.64788 0.53757 0.93942 0.0
C680 C 0.60782 0.53441 0.91806 0.0
C681 C 0.60312 0.53248 0.07915 0.0
C682 C 0.60771 0.51892 0.86316 0.0
C683 C 0.59026 0.51725 0.81544 0.0
C684 C 0.57221 0.53102 0.82068 0.0
C685 C 0.57238 0.54671 0.87517 0.0
C686 C 0.58998 0.54847 0.92279 0.0
H687 H 0.60478 0.52591 0.134 0.0
H688 H 0.59507 0.54842 0.08313 0.0
H689 H 0.59254 0.52145 0.04799 0.0
H690 H 0.62112 0.50787 0.85745 0.0
H691 H 0.59094 0.50492 0.77456 0.0
H692 H 0.96932 0.71635 0.17513 0.0
H693 H 0.97443 0.68282 0.10753 0.0
H694 H 0.0415 0.69936 0.07616 0.0
H695 H 0.03626 0.7329 0.14474 0.0
H696 H 0.98526 0.68022 0.96835 0.0
H697 H 0.04654 0.63572 0.12522 0.0
H698 H 0.03187 0.6584 0.16111 0.0
H699 H 0.05449 0.66282 0.10269 0.0
C700 C 0.98531 0.71243 0.15573 0.0
C701 C 1.00246 0.72709 0.16629 0.0
C702 C 0.98821 0.69334 0.1164 0.0
C703 C 1.00841 0.68822 0.08654 0.0
C704 C 0.02584 0.7025 0.09949 0.0
H705 H 0.05166 0.58883 0.78415 0.0
H706 H 0.04873 0.61929 0.86711 0.0
C707 C 0.0229 0.72168 0.13902 0.0
C708 C 1.01057 0.66898 0.03761 0.0
H709 H 0.03855 0.62196 0.00979 0.0
C710 C 0.99685 0.66745 0.97789 0.0
C711 C 0.02574 0.65219 0.04904 0.0
C712 C 0.04038 0.65218 0.1133 0.0
C713 C 0.99806 0.65004 0.92934 0.0
C714 C 0.01313 0.63318 0.94092 0.0
C715 C 0.02694 0.63472 1.00046 0.0
C716 C 0.01495 0.61404 0.89147 0.0
C717 C 0.9835 0.65023 0.86479 0.0
C718 C 0.99708 0.60047 0.87754 0.0
C719 C 0.99871 0.58303 0.82966 0.0
C720 C 0.01831 0.57848 0.79474 0.0
C721 C 0.03626 0.59184 0.80962 0.0
C722 C 0.03463 0.60928 0.85748 0.0
H723 H 0.97749 0.66674 0.85292 0.0
H724 H 0.99202 0.64401 0.81698 0.0
H725 H 0.96927 0.63971 0.87505 0.0
H726 H 0.98179 0.60336 0.90375 0.0
H727 H 0.98448 0.57326 0.81937 0.0
H728 H 0.0379 0.2366 0.16159 0.0
H729 H 0.04595 0.20701 0.24305 0.0
H730 H 0.11159 0.23002 0.26355 0.0
H731 H 0.10353 0.25956 0.17943 0.0
H732 H 0.07921 0.17352 0.25647 0.0
H733 H 0.08277 0.23797 0.46413 0.0
H734 H 0.07224 0.2438 0.37658 0.0
H735 H 0.10059 0.23904 0.38831 0.0
C736 C 0.05427 0.23478 0.18101 0.0
C737 C 0.07008 0.25028 0.16491 0.0
C738 C 0.05886 0.21797 0.22776 0.0
C739 C 0.07929 0.21654 0.25986 0.0
C740 C 0.09569 0.23101 0.23964 0.0
H741 H 0.04648 0.11652 0.57096 0.0
H742 H 0.07483 0.13792 0.51219 0.0
C743 C 0.0911 0.24779 0.19198 0.0
C744 C 0.08161 0.20196 0.32164 0.0
H745 H 0.07164 0.20346 0.50021 0.0
C746 C 0.07851 0.17978 0.31041 0.0
C747 C 0.08079 0.21033 0.39171 0.0
C748 C 0.08425 0.23407 0.40655 0.0
C749 C 0.07181 0.1662 0.36611 0.0
C750 C 0.06838 0.17518 0.43455 0.0
C751 C 0.07423 0.19673 0.44755 0.0
C752 C 0.05366 0.16446 0.48562 0.0
C753 C 0.06598 0.14302 0.34939 0.0
C754 C 0.03282 0.17297 0.49399 0.0
C755 C 0.01667 0.16084 0.52699 0.0
C756 C 0.02111 0.13997 0.55217 0.0
C757 C 0.04253 0.13237 0.55026 0.0
C758 C 0.05873 0.14456 0.51704 0.0
H759 H 0.06875 0.13893 0.29248 0.0
H760 H 0.07588 0.13201 0.38261 0.0
H761 H 0.04872 0.13994 0.36213 0.0
H762 H 0.0286 0.18834 0.47008 0.0
H763 H 1.00037 0.16714 0.5276 0.0
H764 H 0.31713 0.0314 0.18365 0.0
H765 H 0.353 0.04297 0.22401 0.0
H766 H 0.33201 0.10939 0.22393 0.0
H767 H 0.29589 0.09762 0.18257 0.0
H768 H 0.37434 0.10054 0.15592 0.0
H769 H 0.3671 0.06663 0.42751 0.0
H770 H 0.35838 0.04781 0.36052 0.0
H771 H 0.34387 0.0727 0.37264 0.0
C772 C 0.32027 0.04843 0.19232 0.0
C773 C 0.30402 0.06368 0.18042 0.0
C774 C 0.34061 0.05503 0.21558 0.0
C775 C 0.34499 0.07699 0.22775 0.0
C776 C 0.32882 0.09237 0.21524 0.0
H777 H 0.47124 0.07041 0.41937 0.0
H778 H 0.43795 0.09051 0.39646 0.0
C779 C 0.30832 0.0857 0.19206 0.0
C780 C 0.36674 0.08333 0.25268 0.0
H781 H 0.40327 0.06883 0.37905 0.0
C782 C 0.38066 0.09421 0.20565 0.0
C783 C 0.37476 0.07568 0.31839 0.0
C784 C 0.36018 0.06526 0.37303 0.0
C785 C 0.40295 0.0955 0.21945 0.0
C786 C 0.41138 0.08518 0.28078 0.0
C787 C 0.39701 0.07652 0.33141 0.0
C788 C 0.43454 0.07938 0.28758 0.0
C789 C 0.41729 0.10705 0.16667 0.0
C790 C 0.44437 0.0674 0.23295 0.0
C791 C 0.46347 0.05618 0.24574 0.0
C792 C 0.47285 0.05638 0.3138 0.0
C793 C 0.46414 0.06985 0.36663 0.0
C794 C 0.44518 0.08138 0.35347 0.0
H795 H 0.40895 0.12145 0.14459 0.0
H796 H 0.43279 0.11229 0.19116 0.0
H797 H 0.4208 0.09609 0.12137 0.0
H798 H 0.4363 0.06504 0.18232 0.0
H799 H 0.46978 0.04579 0.20427 0.0
H800 H 0.45652 0.30647 0.07211 0.0
H801 H 0.44816 0.3424 0.12227 0.0
H802 H 0.47863 0.32381 0.3198 0.0
H803 H 0.48759 0.28873 0.26923 0.0
H804 H 0.436 0.34994 0.3271 0.0
H805 H 0.50267 0.38366 0.1602 0.0
H806 H 0.48134 0.36743 0.12198 0.0
H807 H 0.50172 0.35492 0.17586 0.0
C808 C 0.46098 0.31011 0.1266 0.0
C809 C 0.47245 0.29495 0.16744 0.0
C810 C 0.45613 0.33045 0.15517 0.0
C811 C 0.46256 0.33553 0.22493 0.0
C812 C 0.47317 0.31999 0.26634 0.0
H813 H 0.50943 0.38849 0.56362 0.0
H814 H 0.48315 0.37414 0.47971 0.0
C815 C 0.47826 0.3 0.23763 0.0
C816 C 0.46159 0.35767 0.25347 0.0
H817 H 0.49748 0.39889 0.27359 0.0
C818 C 0.4488 0.3613 0.31395 0.0
C819 C 0.47795 0.37264 0.23527 0.0
C820 C 0.49173 0.36967 0.16966 0.0
C821 C 0.45393 0.37791 0.36196 0.0
C822 C 0.47265 0.39058 0.34978 0.0
C823 C 0.48334 0.38895 0.28391 0.0
C824 C 0.48419 0.40179 0.40852 0.0
C825 C 0.44016 0.38068 0.4275 0.0
C826 C 0.49357 0.42217 0.3972 0.0
C827 C 0.5094 0.42998 0.44361 0.0
C828 C 0.51598 0.41767 0.50305 0.0
C829 C 0.50519 0.39814 0.51757 0.0
C830 C 0.48967 0.39016 0.47034 0.0
H831 H 0.42282 0.37832 0.41407 0.0
H832 H 0.44448 0.36814 0.46733 0.0
H833 H 0.44232 0.39691 0.45181 0.0
H834 H 0.48974 0.4314 0.34977 0.0
H835 H 0.51741 0.445 0.42988 0.0
H836 H 0.23529 0.50196 0.25808 0.0
H837 H 0.19633 0.49669 0.26958 0.0
H838 H 0.19691 0.45396 0.0878 0.0
H839 H 0.23607 0.45991 0.07561 0.0
H840 H 0.16964 0.48584 0.0677 0.0
H841 H 0.15306 0.45277 0.33357 0.0
H842 H 0.1717 0.4748 0.34271 0.0
H843 H 0.17951 0.45106 0.29329 0.0
C844 C 0.22716 0.49068 0.22291 0.0
C845 C 0.23845 0.48106 0.16677 0.0
C846 C 0.20493 0.48761 0.22935 0.0
C847 C 0.19368 0.47467 0.18009 0.0
C848 C 0.20527 0.46388 0.12663 0.0
H849 H 0.06325 0.50681 0.29746 0.0
H850 H 0.08888 0.48076 0.24803 0.0
C851 C 0.22755 0.46712 0.11995 0.0
C852 C 0.16979 0.47575 0.17769 0.0
H853 H 0.12691 0.47991 0.28979 0.0
C854 C 0.16005 0.48367 0.11539 0.0
C855 C 0.15704 0.47258 0.23922 0.0
C856 C 0.1659 0.46208 0.30559 0.0
C857 C 0.13858 0.49076 0.11537 0.0
C858 C 0.12691 0.49079 0.18018 0.0
C859 C 0.13584 0.48045 0.24011 0.0
C860 C 0.10779 0.50481 0.19137 0.0
C861 C 0.12913 0.49894 0.04641 0.0
C862 C 0.1091 0.52683 0.1728 0.0
C863 C 0.0942 0.54157 0.1996 0.0
C864 C 0.07809 0.53464 0.24687 0.0
C865 C 0.07565 0.51246 0.26107 0.0
C866 C 0.0903 0.49762 0.23298 0.0
H867 H 0.13289 0.48747 1.00271 0.0
H868 H 0.11136 0.50087 0.04922 0.0
H869 H 0.1367 0.51468 0.03237 0.0
H870 H 0.12268 0.53302 0.14258 0.0
H871 H 0.09652 0.55863 0.18868 0.0
H872 H 1.00703 0.81796 0.16883 0.0
H873 H 0.9943 0.85039 0.10909 0.0
H874 H 0.92992 0.82338 0.09837 0.0
H875 H 0.94288 0.79072 0.1605 0.0
H876 H 0.94457 0.8368 0.96813 0.0
H877 H 0.95834 0.90256 0.15794 0.0
H878 H 0.98127 0.88505 0.16197 0.0
H879 H 0.95493 0.87482 0.18657 0.0
C880 C 0.99002 0.81933 0.15623 0.0
C881 C 0.97585 0.80213 0.16968 0.0
C882 C 0.98268 0.83784 0.12222 0.0
C883 C 0.96102 0.83952 0.10066 0.0
C884 C 0.9466 0.82253 0.1156 0.0
H885 H 0.99944 0.95018 0.88582 0.0
H886 H 0.96736 0.93211 0.92928 0.0
C887 C 0.95397 0.80397 0.15061 0.0
C888 C 0.95501 0.85769 0.05363 0.0
H889 H 0.97146 0.90964 0.03378 0.0
C890 C 0.94957 0.85304 0.98263 0.0
C891 C 0.9603 0.87912 0.0727 0.0
C892 C 0.96376 0.88567 0.1493 0.0
C893 C 0.9532 0.86834 0.92863 0.0
C894 C 0.9632 0.88824 0.94644 0.0
C895 C 0.96463 0.89413 0.01876 0.0
C896 C 0.97714 0.90021 0.89509 0.0
C897 C 0.94777 0.86239 0.85283 0.0
C898 C 0.99255 0.88874 0.8552 0.0
C899 C 1.01065 0.89924 0.82725 0.0
C900 C 0.01422 0.92129 0.84104 0.0
C901 C 0.99756 0.93318 0.87387 0.0
C902 C 0.97907 0.92278 0.89956 0.0
H903 H 0.93155 0.85464 0.85067 0.0
H904 H 0.94787 0.87668 0.81698 0.0
H905 H 0.95955 0.85031 0.83307 0.0
H906 H 0.99187 0.8713 0.85135 0.0
H907 H 0.02262 0.88967 0.79968 0.0
H908 H 0.72857 0.01471 0.16271 0.0
H909 H 0.69138 1.00519 0.13073 0.0
H910 H 0.7082 0.93755 0.13214 0.0
H911 H 0.74569 0.94731 0.16523 0.0
H912 H 0.67803 0.97991 1.00721 0.0
H913 H 0.65397 0.94475 0.26914 0.0
H914 H 0.67795 0.96122 0.25923 0.0
H915 H 0.67751 0.93427 0.22463 0.0
C916 C 0.72424 0.99786 0.15593 0.0
C917 C 0.73967 0.98169 0.16625 0.0
C918 C 0.70313 0.99241 0.13771 0.0
C919 C 0.69709 0.97068 0.12949 0.0
C920 C 0.71258 0.9544 0.13879 0.0
H921 H 0.56596 0.97423 0.95715 0.0
H922 H 0.59982 0.95519 0.98221 0.0
C923 C 0.73387 0.95992 0.15704 0.0
C924 C 0.67442 0.9657 0.111 0.0
H925 H 0.62618 0.95237 0.18756 0.0
C926 C 0.66665 0.97334 0.04562 0.0
C927 C 0.65982 0.95721 0.16174 0.0
C928 C 0.66756 0.94893 0.23291 0.0
C929 C 0.64445 0.97447 0.03171 0.0
C930 C 0.62964 0.9671 0.08414 0.0
C931 C 0.63754 0.95786 0.14739 0.0
C932 C 0.60642 0.97272 0.07971 0.0
C933 C 0.63716 0.98541 0.9638 0.0
C934 C 0.59793 0.98726 0.12974 0.0
C935 C 0.5784 0.99768 0.11649 0.0
C936 C 0.56723 0.99385 0.05265 0.0
C937 C 0.57451 0.97761 1.00632 0.0
C938 C 0.59386 0.96683 0.0204 0.0
H939 H 0.65075 0.99328 0.93494 0.0
H940 H 0.62985 0.97323 0.92765 0.0
H941 H 0.62482 0.9979 0.97538 0.0
H942 H 0.60727 0.99196 0.17612 0.0
H943 H 0.57308 1.01013 0.15299 0.0
H944 H 0.5333 0.72755 0.16794 0.0
H945 H 0.54224 0.69886 0.08421 0.0
H946 H 0.60577 0.72649 0.05507 0.0
H947 H 0.597 0.75485 0.14213 0.0
H948 H 0.5791 0.72529 0.93084 0.0
H949 H 0.58132 0.64532 0.06097 0.0
H950 H 0.5599 0.66162 0.096 0.0
H951 H 0.58753 0.67013 0.10792 0.0
C952 C 0.54954 0.72678 0.14674 0.0
C953 C 0.56446 0.74332 0.16093 0.0
C954 C 0.55466 0.71045 0.09871 0.0
C955 C 0.57471 0.71054 0.06366 0.0
C956 C 0.59029 0.72608 0.08203 0.0
H957 H 0.54385 0.61463 0.74847 0.0
H958 H 0.57209 0.63697 0.80309 0.0
C959 C 0.58528 0.74221 0.13137 0.0
C960 C 0.57708 0.69723 0.99894 0.0
H961 H 0.5645 0.64653 0.94251 0.0
C962 C 0.57679 0.7079 0.93283 0.0
C963 C 0.5745 0.67458 1.00139 0.0
C964 C 0.57606 0.66222 0.07047 0.0
C965 C 0.57096 0.69687 0.87043 0.0
C966 C 0.56524 0.67479 0.8749 0.0
C967 C 0.56858 0.66357 0.93913 0.0
C968 C 0.55123 0.66439 0.82096 0.0
C969 C 0.56928 0.70928 0.80151 0.0
C970 C 0.53049 0.67287 0.80944 0.0
C971 C 0.51429 0.66007 0.77929 0.0
C972 C 0.51862 0.63858 0.76063 0.0
C973 C 0.54003 0.63104 0.76401 0.0
C974 C 0.5562 0.6438 0.79466 0.0
H975 H 0.58171 0.72227 0.79911 0.0
H976 H 0.57118 0.69852 0.75458 0.0
H977 H 0.5532 0.71711 0.7985 0.0
H978 H 0.52616 0.68857 0.83045 0.0
H979 H 0.49796 0.66628 0.77746 0.0
H980 H 0.7884 0.60177 0.17265 0.0
H981 H 0.82107 0.61229 0.10531 0.0
H982 H 0.84537 0.54737 0.1271 0.0
H983 H 0.81265 0.53678 0.19055 0.0
H984 H 0.87779 0.58679 0.13864 0.0
H985 H 0.82447 0.58143 0.89934 0.0
H986 H 0.81724 0.59773 0.97525 0.0
H987 H 0.81585 0.56882 0.98131 0.0
C988 C 0.80099 0.59 0.16378 0.0
C989 C 0.79819 0.56851 0.18638 0.0
C990 C 0.81961 0.59602 0.12618 0.0
C991 C 0.83558 0.5806 0.11195 0.0
C992 C 0.83334 0.55955 0.13866 0.0
H993 H 0.92531 0.51086 0.93124 0.0
H994 H 0.90735 0.53728 1.00666 0.0
C995 C 0.8147 0.5535 0.1749 0.0
C996 C 0.85275 0.58448 0.05921 0.0
H997 H 0.86084 0.57217 0.88495 0.0
C998 C 0.87428 0.5845 0.08249 0.0
C999 C 0.84811 0.582 0.98601 0.0
C1000 C 0.8252 0.58252 0.95839 0.0
C1001 C 0.89111 0.57946 0.0354 0.0
C1002 C 0.886 0.57341 0.9646 0.0
C1003 C 0.86483 0.57639 0.93948 0.0
C1004 C 0.90066 0.55989 0.92097 0.0
C1005 C 0.91396 0.5794 0.06324 0.0
C1006 C 0.90265 0.56344 0.84729 0.0
C1007 C 0.91216 0.54784 0.80382 0.0
C1008 C 0.92016 0.52865 0.83346 0.0
C1009 C 0.91931 0.52562 0.90739 0.0
C1010 C 0.90937 0.54094 0.95063 0.0
H1011 H 0.91658 0.59325 0.09995 0.0
H1012 H 0.91673 0.56441 0.09444 0.0
H1013 H 0.92601 0.58035 0.01949 0.0
H1014 H 0.89594 0.57782 0.82296 0.0
H1015 H 0.91289 0.55059 0.74705 0.0
H1016 H 0.0131 0.25443 0.02439 0.0
H1017 H 1.00789 0.2205 0.95749 0.0
H1018 H 0.07694 0.21253 0.94557 0.0
H1019 H 0.08203 0.24619 0.01242 0.0
H1020 H 0.02044 0.20506 0.82506 0.0
H1021 H 0.05941 0.15566 0.03443 0.0
H1022 H 0.05206 0.18351 0.04869 0.0
H1023 H 0.07659 0.17694 1.00217 0.0
C1024 C 0.02713 0.24567 1.00602 0.0
C1025 C 0.04801 0.25312 0.02348 0.0
C1026 C 0.02417 0.22611 0.96827 0.0
C1027 C 0.04199 0.21342 0.94749 0.0
C1028 C 0.06283 0.22147 0.96228 0.0
H1029 H 0.06251 0.0894 0.73049 0.0
H1030 H 0.06594 0.12505 0.78636 0.0
C1031 C 0.06576 0.2409 0.99993 0.0
C1032 C 0.03899 0.19174 0.91147 0.0
H1033 H 0.05238 0.13803 0.92406 0.0
C1034 C 0.02732 0.19042 0.84714 0.0
C1035 C 0.04787 0.17238 0.93963 0.0
C1036 C 0.05949 0.17208 0.01036 0.0
C1037 C 0.02483 0.17066 0.80979 0.0
C1038 C 0.03392 0.15138 0.8376 0.0
C1039 C 0.04546 0.15268 0.90209 0.0
C1040 C 0.03161 0.12974 0.80104 0.0
C1041 C 0.01294 0.1707 0.73971 0.0
C1042 C 1.01119 0.12016 0.79005 0.0
C1043 C 1.00922 0.09947 0.75914 0.0
C1044 C 0.02762 0.08769 0.73828 0.0
C1045 C 0.04799 0.09761 0.74736 0.0
C1046 C 0.04997 0.11816 0.77904 0.0
H1047 H 1.01186 0.18721 0.7166 0.0
H1048 H 0.02098 0.15996 0.70057 0.0
H1049 H 0.99626 0.16462 0.74839 0.0
H1050 H 0.99671 0.12846 0.80692 0.0
H1051 H 0.99324 0.09253 0.75296 0.0
H1052 H 0.3041 0.07426 0.03023 0.0
H1053 H 0.3362 0.06832 0.95716 0.0
H1054 H 0.3259 0.99944 0.97073 0.0
H1055 H 0.29416 1.00556 0.0473 0.0
H1056 H 0.3667 1.00769 0.99409 0.0
H1057 H 0.34522 0.05414 0.75373 0.0
H1058 H 0.34356 0.0709 0.83129 0.0
H1059 H 0.32569 0.04796 0.82217 0.0
C1060 C 0.30847 0.05786 0.01648 0.0
C1061 C 0.29642 0.04041 0.04407 0.0
C1062 C 0.32682 0.05443 0.97408 0.0
C1063 C 0.33355 0.0334 0.95655 0.0
C1064 C 0.32114 0.01588 0.98259 0.0
H1065 H 0.44315 0.0158 0.65572 0.0
H1066 H 0.40689 0.01671 0.70903 0.0
C1067 C 0.30279 0.01934 0.0257 0.0
C1068 C 0.35427 0.02984 0.91573 0.0
H1069 H 0.38316 0.04691 0.76987 0.0
C1070 C 0.37011 0.01612 0.94462 0.0
C1071 C 0.35895 0.04041 0.85019 0.0
C1072 C 0.34234 0.05397 0.81218 0.0
C1073 C 0.39047 1.01334 0.91186 0.0
C1074 C 0.3957 0.02509 0.84902 0.0
C1075 C 0.37956 0.03813 0.81851 0.0
C1076 C 0.41789 0.0245 0.81557 0.0
C1077 C 0.40605 0.99752 0.94486 0.0
C1078 C 0.43641 0.02902 0.8565 0.0
C1079 C 0.45714 0.02822 0.82638 0.0
C1080 C 0.4602 0.02326 0.75367 0.0
C1081 C 0.44162 0.01942 0.71193 0.0
C1082 C 0.42078 0.02001 0.74248 0.0
H1083 H 0.39735 0.98473 0.97517 0.0
H1084 H 0.41627 0.98966 0.90387 0.0
H1085 H 0.4167 1.00622 0.98291 0.0
H1086 H 0.43487 0.03331 0.91218 0.0
H1087 H 0.47084 0.03158 0.86065 0.0
H1088 H 0.51812 0.30947 0.12667 0.0
H1089 H 0.52279 0.34368 0.06113 0.0
H1090 H 0.48974 0.31602 0.88049 0.0
H1091 H 0.48503 0.28191 0.94661 0.0
H1092 H 0.54217 0.35611 0.93489 0.0
H1093 H 0.45399 0.36992 0.91504 0.0
H1094 H 0.46541 0.3495 0.97235 0.0
H1095 H 0.46248 0.34454 0.87838 0.0
C1096 C 0.51233 0.31058 0.07233 0.0
C1097 C 0.50149 0.29284 0.04146 0.0
C1098 C 0.51482 0.33024 0.03494 0.0
C1099 C 0.50624 0.33289 0.9659 0.0
C1100 C 0.49616 0.31481 0.93402 0.0
H1101 H 0.50076 0.44457 0.66874 0.0
H1102 H 0.49906 0.40832 0.72282 0.0
C1103 C 0.49377 0.29512 0.97135 0.0
C1104 C 0.50749 0.35455 0.92823 0.0
H1105 H 0.47655 0.39444 0.85212 0.0
C1106 C 0.52777 0.36442 0.91696 0.0
C1107 C 0.48881 0.36579 0.90466 0.0
C1108 C 0.46642 0.35706 0.91872 0.0
C1109 C 0.52987 0.3847 0.88228 0.0
C1110 C 0.51121 0.39587 0.85852 0.0
C1111 C 0.49094 0.386 0.86951 0.0
C1112 C 0.5124 0.41805 0.82456 0.0
C1113 C 0.55218 0.39389 0.87029 0.0
C1114 C 0.52039 0.43591 0.86302 0.0
C1115 C 0.52134 0.45665 0.83215 0.0
C1116 C 0.51423 0.46037 0.76182 0.0
C1117 C 0.50637 0.44247 0.72298 0.0
C1118 C 0.50531 0.42166 0.75409 0.0
H1119 H 0.56484 0.3813 0.8751 0.0
H1120 H 0.55343 0.40151 0.8168 0.0
H1121 H 0.55549 0.40651 0.91088 0.0
H1122 H 0.52576 0.43386 0.91753 0.0
H1123 H 0.52782 0.46982 0.86358 0.0
H1124 H 0.23037 0.53006 0.12111 0.0
H1125 H 0.19734 0.53438 0.04977 0.0
H1126 H 0.22432 0.49351 0.88689 0.0
H1127 H 0.25722 0.48897 0.95947 0.0
H1128 H 0.18841 0.54989 0.91434 0.0
H1129 H 0.19126 0.46777 0.87886 0.0
H1130 H 0.16762 0.46316 0.93217 0.0
H1131 H 0.19183 0.47391 0.9723 0.0
C1132 C 0.22947 0.52258 0.06904 0.0
C1133 C 0.24661 0.50958 0.04522 0.0
C1134 C 0.21047 0.52485 0.02845 0.0
C1135 C 0.20794 0.51403 0.96294 0.0
C1136 C 0.22553 0.50182 0.9375 0.0
H1137 H 0.09421 0.49583 0.68335 0.0
H1138 H 0.12941 0.49368 0.74301 0.0
C1139 C 0.24455 0.49953 0.97834 0.0
C1140 C 0.18681 0.51528 0.92266 0.0
H1141 H 0.14457 0.48481 0.85916 0.0
C1142 C 0.17882 0.53563 0.90237 0.0
C1143 C 0.17425 0.49674 0.90533 0.0
C1144 C 0.1816 0.4742 0.92385 0.0
C1145 C 0.1591 0.53798 0.86493 0.0
C1146 C 0.14597 0.51953 0.85029 0.0
C1147 C 0.15414 0.49914 0.87018 0.0
C1148 C 0.12408 0.52088 0.8137 0.0
C1149 C 0.15326 0.56029 0.83881 0.0
C1150 C 0.1086 0.5365 0.83327 0.0
C1151 C 0.08878 0.53828 0.79673 0.0
C1152 C 0.08331 0.52383 0.74179 0.0
C1153 C 0.09807 0.50741 0.72478 0.0
C1154 C 0.11824 0.50613 0.75947 0.0
H1155 H 0.16792 0.57041 0.83051 0.0
H1156 H 0.14417 0.55965 0.78784 0.0
H1157 H 0.14323 0.56847 0.8796 0.0
H1158 H 0.11171 0.54739 0.87717 0.0
H1159 H 0.07749 0.55072 0.81255 0.0
H1160 H 0.9674 0.80251 0.32473 0.0
H1161 H 0.9724 0.83581 0.3938 0.0
H1162 H 0.04128 0.8314 0.36359 0.0
H1163 H 0.03611 0.79821 0.2929 0.0
H1164 H 0.9936 0.84692 0.51575 0.0
H1165 H 0.04402 0.86755 0.31235 0.0
H1166 H 0.02984 0.89183 0.28931 0.0
H1167 H 0.01688 0.86586 0.27836 0.0
C1168 C 0.98365 0.80847 0.33386 0.0
C1169 C 1.00134 0.79757 0.30357 0.0
C1170 C 0.98652 0.82761 0.37324 0.0
C1171 C 1.0072 0.83665 0.38327 0.0
C1172 C 0.02506 0.82522 0.35572 0.0
H1173 H 0.0514 0.95726 0.59004 0.0
H1174 H 0.04895 0.92161 0.53318 0.0
C1175 C 0.02217 0.80597 0.31628 0.0
C1176 C 1.0098 0.85811 0.42107 0.0
H1177 H 0.02877 0.91002 0.40019 0.0
C1178 C 1.00131 0.86067 0.49025 0.0
C1179 C 0.01969 0.87637 0.38836 0.0
C1180 C 0.02795 0.87543 0.31279 0.0
C1181 C 1.00271 0.88055 0.52741 0.0
C1182 C 0.01263 0.89874 0.49469 0.0
C1183 C 0.02123 0.8962 0.42578 0.0
C1184 C 0.01403 0.92054 0.53072 0.0
C1185 C 0.99383 0.88184 0.60215 0.0
C1186 C 0.99527 0.93217 0.54849 0.0
C1187 C 0.99664 0.95267 0.58101 0.0
C1188 C 0.01681 0.96224 0.59673 0.0
C1189 C 0.03557 0.95049 0.57932 0.0
C1190 C 0.03419 0.93006 0.54634 0.0
H1191 H 0.99146 0.86555 0.62599 0.0
H1192 H 1.00477 0.89138 0.63714 0.0
H1193 H 0.97793 0.89005 0.60088 0.0
H1194 H 0.97948 0.92552 0.5364 0.0
H1195 H 0.98182 0.96101 0.59388 0.0
H1196 H 0.74848 0.0374 0.29399 0.0
H1197 H 0.71587 0.04212 0.36762 0.0
H1198 H 0.71195 0.97308 0.3974 0.0
H1199 H 0.74417 0.96856 0.3232 0.0
H1200 H 0.67415 0.98781 0.35661 0.0
H1201 H 0.7024 0.04004 0.57747 0.0
H1202 H 0.70771 0.05126 0.49096 0.0
H1203 H 0.72084 0.02666 0.51768 0.0
C1204 C 0.74106 0.02338 0.31858 0.0
C1205 C 0.74913 1.00264 0.30395 0.0
C1206 C 0.72231 0.02603 0.36054 0.0
C1207 C 0.71129 1.00798 0.38929 0.0
C1208 C 0.71995 0.98735 0.37651 0.0
H1209 H 0.60106 1.00904 0.69124 0.0
H1210 H 0.6372 1.00645 0.63678 0.0
C1211 C 0.73854 0.98474 0.3346 0.0
C1212 C 0.68995 1.01015 0.4276 0.0
H1213 H 0.66426 0.03507 0.56714 0.0
C1214 C 0.67213 0.99809 0.40285 0.0
C1215 C 0.68702 0.02336 0.48866 0.0
C1216 C 0.70554 0.03591 0.52081 0.0
C1217 C 0.65171 0.99899 0.43622 0.0
C1218 C 0.64855 1.01279 0.49571 0.0
C1219 C 0.66643 0.02461 0.52138 0.0
C1220 C 0.62675 0.01535 0.53063 0.0
C1221 C 0.63382 0.98473 0.40784 0.0
C1222 C 0.60874 0.02177 0.49026 0.0
C1223 C 0.58815 0.02316 0.52116 0.0
C1224 C 0.58481 0.01844 0.59388 0.0
C1225 C 0.60295 1.01276 0.63518 0.0
C1226 C 0.62366 1.01127 0.60394 0.0
H1227 H 0.64035 0.97059 0.37855 0.0
H1228 H 0.62324 0.97874 0.45144 0.0
H1229 H 0.6238 0.99415 0.36996 0.0
H1230 H 0.61056 0.02566 0.4343 0.0
H1231 H 0.57474 0.02792 0.48759 0.0
H1232 H 0.50759 0.74712 0.30395 0.0
H1233 H 0.50316 0.71386 0.37522 0.0
H1234 H 0.57232 0.70649 0.38253 0.0
H1235 H 0.57664 0.7397 0.31238 0.0
H1236 H 0.5156 0.67209 0.34164 0.0
H1237 H 0.55722 0.69628 0.59029 0.0
H1238 H 0.54905 0.71567 0.52367 0.0
H1239 H 0.57345 0.70035 0.51213 0.0
C1240 C 0.52182 0.73872 0.32254 0.0
C1241 C 0.5425 0.74635 0.3033 0.0
C1242 C 0.51931 0.71951 0.36277 0.0
C1243 C 0.53739 0.70751 0.38578 0.0
C1244 C 0.55803 0.71543 0.36744 0.0
H1245 H 0.56083 0.58261 0.59862 0.0
H1246 H 0.56359 0.61802 0.53998 0.0
C1247 C 0.56051 0.73447 0.32695 0.0
C1248 C 0.53479 0.68622 0.4252 0.0
H1249 H 0.54995 0.65864 0.57628 0.0
C1250 C 0.52297 0.66929 0.39325 0.0
C1251 C 0.54446 0.68215 0.49261 0.0
C1252 C 0.55659 0.69962 0.53212 0.0
C1253 C 0.52106 0.6486 0.42528 0.0
C1254 C 0.5308 0.6445 0.49257 0.0
C1255 C 0.54249 0.66147 0.52482 0.0
C1256 C 0.5291 0.62278 0.52985 0.0
C1257 C 0.50921 0.63106 0.38518 0.0
C1258 C 0.50887 0.61342 0.54573 0.0
C1259 C 0.5073 0.59294 0.57847 0.0
C1260 C 0.52592 0.58109 0.59695 0.0
C1261 C 0.54615 0.59078 0.58328 0.0
C1262 C 0.54772 0.61127 0.55031 0.0
H1263 H 0.50817 0.63472 0.3273 0.0
H1264 H 0.51724 0.61517 0.39199 0.0
H1265 H 0.49248 0.62971 0.40603 0.0
H1266 H 0.49414 0.62198 0.53302 0.0
H1267 H 0.49138 0.58633 0.58882 0.0
H1268 H 0.7933 0.51015 0.31495 0.0
H1269 H 0.82751 0.50524 0.38019 0.0
H1270 H 0.83296 0.57427 0.40627 0.0
H1271 H 0.79899 0.57902 0.34113 0.0
H1272 H 0.86989 0.558 0.35405 0.0
H1273 H 0.84563 0.50887 0.58811 0.0
H1274 H 0.83767 0.49751 0.50399 0.0
H1275 H 0.82623 0.5227 0.53271 0.0
C1276 C 0.80142 0.52416 0.33698 0.0
C1277 C 0.79322 0.54498 0.32368 0.0
C1278 C 0.82112 0.52139 0.37403 0.0
C1279 C 0.83305 0.53937 0.39905 0.0
C1280 C 0.82431 0.56006 0.38795 0.0
H1281 H 0.94804 0.54512 0.67605 0.0
H1282 H 0.91139 0.54671 0.62445 0.0
C1283 C 0.80474 0.56279 0.35114 0.0
C1284 C 0.85523 0.53703 0.43202 0.0
H1285 H 0.88336 0.51375 0.5699 0.0
C1286 C 0.87274 0.54827 0.40121 0.0
C1287 C 0.85924 0.52459 0.49425 0.0
C1288 C 0.8412 0.51287 0.53226 0.0
C1289 C 0.89383 0.54729 0.42999 0.0
C1290 C 0.89795 0.53448 0.49119 0.0
C1291 C 0.88044 0.52342 0.52266 0.0
C1292 C 0.92023 0.53272 0.52346 0.0
C1293 C 0.91149 0.56061 0.39586 0.0
C1294 C 0.93755 0.52406 0.48443 0.0
C1295 C 0.95847 0.52312 0.51366 0.0
C1296 C 0.96282 0.53086 0.58287 0.0
C1297 C 0.94538 0.53904 0.62267 0.0
C1298 C 0.92439 0.53994 0.59328 0.0
H1299 H 0.90493 0.57301 0.35894 0.0
H1300 H 0.92132 0.56885 0.43731 0.0
H1301 H 0.92231 0.54987 0.36494 0.0
H1302 H 0.93491 0.51795 0.43105 0.0
H1303 H 0.97128 0.51626 0.48181 0.0
loop_
_geom_bond_atom_site_label_1
_geom_bond_atom_site_label_2
_geom_bond_distance
_geom_bond_site_symmetry_2
_ccdc_geom_bond_type
C0 N1 1.317 . S
C0 N2 1.348 . S
C0 C3 1.485 . S
N1 C0 1.317 . S
N1 N5 1.370 . S
N2 C0 1.348 . S
N2 C4 1.346 . S
C3 C0 1.485 . S
C3 H7 0.960 . S
C3 H8 0.961 . S
C3 H9 0.960 . S
C4 N2 1.346 . S
C4 N5 1.307 . S
C4 C6 1.486 . S
N5 N1 1.370 . S
N5 C4 1.307 . S
C6 C4 1.486 . S
C6 H10 0.960 . S
C6 H11 0.960 . S
C6 H12 0.959 . S
H7 C3 0.960 . S
H8 C3 0.961 . S
H9 C3 0.960 . S
H10 C6 0.960 . S
H11 C6 0.960 . S
H12 C6 0.959 . S
C13 N14 1.317 . S
C13 N15 1.348 . S
C13 C16 1.485 . S
N14 C13 1.317 . S
N14 N18 1.370 . S
N15 C13 1.348 . S
N15 C17 1.346 . S
C16 C13 1.485 . S
C16 H20 0.960 . S
C16 H21 0.961 . S
C16 H22 0.960 . S
C17 N15 1.346 . S
C17 N18 1.307 . S
C17 C19 1.486 . S
N18 N14 1.370 . S
N18 C17 1.307 . S
C19 C17 1.486 . S
C19 H23 0.960 . S
C19 H24 0.960 . S
C19 H25 0.959 . S
H20 C16 0.960 . S
H21 C16 0.961 . S
H22 C16 0.960 . S
H23 C19 0.960 . S
H24 C19 0.960 . S
H25 C19 0.959 . S
C26 N27 1.317 . S
C26 N28 1.348 . S
C26 C29 1.485 . S
N27 C26 1.317 . S
N27 N31 1.370 . S
N28 C26 1.348 . S
N28 C30 1.346 . S
C29 C26 1.485 . S
C29 H33 0.960 . S
C29 H34 0.961 . S
C29 H35 0.960 . S
C30 N28 1.346 . S
C30 N31 1.307 . S
C30 C32 1.486 . S
N31 N27 1.370 . S
N31 C30 1.307 . S
C32 C30 1.486 . S
C32 H36 0.960 . S
C32 H37 0.960 . S
C32 H38 0.959 . S
H33 C29 0.960 . S
H34 C29 0.961 . S
H35 C29 0.960 . S
H36 C32 0.960 . S
H37 C32 0.960 . S
H38 C32 0.959 . S
C39 N40 1.317 . S
C39 N41 1.348 . S
C39 C42 1.485 . S
N40 C39 1.317 . S
N40 N44 1.370 . S
N41 C39 1.348 . S
N41 C43 1.346 . S
C42 C39 1.485 . S
C42 H46 0.960 . S
C42 H47 0.961 . S
C42 H48 0.960 . S
C43 N41 1.346 . S
C43 N44 1.307 . S
C43 C45 1.486 . S
N44 N40 1.370 . S
N44 C43 1.307 . S
C45 C43 1.486 . S
C45 H49 0.960 . S
C45 H50 0.960 . S
C45 H51 0.959 . S
H46 C42 0.960 . S
H47 C42 0.961 . S
H48 C42 0.960 . S
H49 C45 0.960 . S
H50 C45 0.960 . S
H51 C45 0.959 . S
C52 N53 1.316 1_556 S
C52 N54 1.348 1_556 S
C52 C55 1.485 . S
N53 C52 1.316 1_554 S
N53 N57 1.386 . S
N54 C52 1.348 1_554 S
N54 C56 1.346 . S
C55 C52 1.485 . S
C55 H59 0.960 . S
C55 H60 0.961 . S
C55 H61 0.960 . S
C56 N54 1.346 . S
C56 N57 1.307 . S
C56 C58 1.486 . S
N57 N53 1.386 . S
N57 C56 1.307 . S
C58 C56 1.486 . S
C58 H62 0.960 . S
C58 H63 0.960 . S
C58 H64 0.959 . S
H59 C55 0.960 . S
H60 C55 0.961 . S
H61 C55 0.960 . S
H62 C58 0.960 . S
H63 C58 0.960 . S
H64 C58 0.959 . S
C65 N66 1.317 1_556 S
C65 N67 1.348 1_556 S
C65 C68 1.485 . S
N66 C65 1.317 1_554 S
N66 N70 1.370 . S
N67 C65 1.348 1_554 S
N67 C69 1.346 . S
C68 C65 1.485 . S
C68 H72 0.960 . S
C68 H73 0.961 . S
C68 H74 0.960 . S
C69 N67 1.346 . S
C69 N70 1.307 . S
C69 C71 1.486 . S
N70 N66 1.370 . S
N70 C69 1.307 . S
C71 C69 1.486 . S
C71 H75 0.960 . S
C71 H76 0.960 . S
C71 H77 0.959 . S
H72 C68 0.960 . S
H73 C68 0.961 . S
H74 C68 0.960 . S
H75 C71 0.960 . S
H76 C71 0.960 . S
H77 C71 0.959 . S
C78 N79 1.317 1_556 S
C78 N80 1.348 1_556 S
C78 C81 1.485 . S
N79 C78 1.317 1_554 S
N79 N83 1.370 . S
N80 C78 1.348 1_554 S
N80 C82 1.346 . S
C81 C78 1.485 . S
C81 H85 0.960 . S
C81 H86 0.961 . S
C81 H87 0.960 . S
C82 N80 1.346 . S
C82 N83 1.307 . S
C82 C84 1.486 . S
N83 N79 1.370 . S
N83 C82 1.307 . S
C84 C82 1.486 . S
C84 H88 0.960 . S
C84 H89 0.960 . S
C84 H90 0.959 . S
H85 C81 0.960 . S
H86 C81 0.961 . S
H87 C81 0.960 . S
H88 C84 0.960 . S
H89 C84 0.960 . S
H90 C84 0.959 . S
C91 N92 1.319 . S
C91 N93 1.348 1_556 S
C91 C94 1.485 . S
N92 C91 1.319 . S
N92 N96 1.355 1_556 S
N93 C91 1.348 1_554 S
N93 C95 1.346 . S
C94 C91 1.485 . S
C94 H98 0.960 . S
C94 H99 0.961 . S
C94 H100 0.960 . S
C95 N93 1.346 . S
C95 N96 1.307 . S
C95 C97 1.486 . S
N96 N92 1.355 1_554 S
N96 C95 1.307 . S
C97 C95 1.486 . S
C97 H101 0.960 . S
C97 H102 0.960 . S
C97 H103 0.959 . S
H98 C94 0.960 . S
H99 C94 0.961 . S
H100 C94 0.960 . S
H101 C97 0.960 . S
H102 C97 0.960 . S
H103 C97 0.959 . S
Eu104 N133 2.600 . S
Eu104 N139 2.562 . S
Eu104 O148 2.462 1_655 S
Eu104 O149 2.373 1_545 S
Eu104 O151 2.432 . S
Eu104 O152 2.291 1_655 S
Eu104 O156 2.335 1_655 S
Eu104 O159 2.372 . S
Eu104 C168 2.787 . S
C105 N106 1.365 . S
C105 C108 1.405 . S
C105 C112 1.448 . S
N106 C105 1.365 . S
N106 C109 1.319 . S
N106 Eu115 2.600 1_545 S
C107 C109 1.397 . S
C107 C110 1.367 . S
C107 H127 0.931 . S
C108 C105 1.405 . S
C108 C110 1.403 . S
C108 C114 1.439 . S
C109 N106 1.319 . S
C109 C107 1.397 . S
C109 H120 0.930 1_545 S
C110 C107 1.367 . S
C110 C108 1.403 . S
C110 H131 0.929 . S
C111 C112 1.430 . S
C111 C113 1.387 . S
C111 C117 1.404 . S
C112 C105 1.448 . S
C112 C111 1.430 . S
C112 N116 1.351 . S
C113 C111 1.387 . S
C113 C114 1.374 . S
C113 H128 0.931 1_556 S
C114 C108 1.439 . S
C114 C113 1.374 . S
C114 H129 0.931 . S
Eu115 N106 2.600 1_565 S
Eu115 N116 2.562 1_565 S
Eu115 O150 2.335 . S
Eu115 O153 2.371 1_565 S
Eu115 O154 2.462 . S
Eu115 O155 2.373 1_565 S
Eu115 O157 2.432 . S
Eu115 O158 2.291 1_465 S
Eu115 C179 2.787 . S
N116 C112 1.351 . S
N116 Eu115 2.562 1_545 S
N116 C118 1.325 . S
C117 C111 1.404 . S
C117 C119 1.366 . S
C117 H125 0.930 1_556 S
C118 N116 1.325 . S
C118 C119 1.416 . S
C118 H124 0.929 1_455 S
C119 C117 1.366 . S
C119 C118 1.416 . S
C119 H121 0.930 1_455 S
H120 C109 0.930 1_565 S
H121 C119 0.930 1_655 S
H122 C137 0.930 . S
H123 C144 0.934 . S
H124 C118 0.929 1_655 S
H125 C117 0.930 1_554 S
H126 C140 0.929 . S
H127 C107 0.931 . S
H128 C113 0.931 1_554 S
H129 C114 0.931 . S
H130 C135 0.931 . S
H131 C110 0.929 . S
H132 C143 0.930 . S
N133 Eu104 2.600 . S
N133 C134 1.365 . S
N133 C137 1.319 . S
C134 N133 1.365 . S
C134 C136 1.405 1_545 S
C134 C142 1.448 . S
C135 H130 0.931 . S
C135 C137 1.397 . S
C135 C138 1.383 . S
C136 C134 1.405 1_565 S
C136 C138 1.400 1_565 S
C136 C169 1.439 . S
C137 H122 0.930 . S
C137 N133 1.319 . S
C137 C135 1.397 . S
C138 C135 1.383 . S
C138 C136 1.400 1_545 S
C138 H145 0.919 1_545 S
N139 Eu104 2.562 . S
N139 C140 1.325 1_655 S
N139 C142 1.351 . S
C140 H126 0.929 . S
C140 N139 1.325 1_455 S
C140 C144 1.398 1_545 S
C141 C142 1.430 1_565 S
C141 C143 1.404 . S
C141 C170 1.387 . S
C142 C134 1.448 . S
C142 N139 1.351 . S
C142 C141 1.430 1_545 S
C143 H132 0.930 . S
C143 C141 1.404 . S
C143 C144 1.381 1_655 S
C144 H123 0.934 . S
C144 C140 1.398 1_565 S
C144 C143 1.381 1_455 S
H145 C138 0.919 1_565 S
H146 C169 0.931 . S
H147 C170 0.931 . S
O148 Eu104 2.462 1_455 S
O148 C168 1.252 1_455 S
O149 Eu104 2.373 1_565 S
O149 C160 1.249 . S
O150 Eu115 2.335 . S
O150 C160 1.264 1_455 S
O151 Eu104 2.432 . S
O151 C168 1.268 . S
O152 Eu104 2.291 1_455 S
O152 C167 1.255 . S
O153 Eu115 2.371 1_545 S
O153 C167 1.260 . S
O154 Eu115 2.462 . S
O154 C179 1.252 . S
O155 Eu115 2.373 1_545 S
O155 C171 1.249 . S
O156 Eu104 2.335 1_455 S
O156 C171 1.264 . S
O157 Eu115 2.432 . S
O157 C179 1.268 . S
O158 Eu115 2.291 1_645 S
O158 C178 1.255 . S
O159 Eu104 2.372 . S
O159 C178 1.257 . S
C160 O149 1.249 . S
C160 O150 1.264 1_655 S
C161 C164 1.382 . S
C161 C166 1.390 1_655 S
C161 C168 1.506 . S
C162 C163 1.438 . S
C162 C166 1.387 1_655 S
C163 C162 1.438 . S
C163 C165 1.372 . S
C163 H180 0.931 . S
C164 C161 1.382 . S
C164 C165 1.390 . S
C164 H181 0.931 . S
C165 C163 1.372 . S
C165 C164 1.390 . S
C165 H182 0.929 . S
C166 C161 1.390 1_455 S
C166 C162 1.387 1_455 S
C166 H183 0.930 . S
C167 O152 1.255 . S
C167 O153 1.260 . S
C168 Eu104 2.787 . S
C168 O148 1.252 1_655 S
C168 O151 1.268 . S
C168 C161 1.506 . S
C169 C136 1.439 . S
C169 H146 0.931 . S
C169 C170 1.374 . S
C170 C141 1.387 . S
C170 H147 0.931 . S
C170 C169 1.374 . S
C171 O155 1.249 . S
C171 O156 1.264 . S
C172 C175 1.382 . S
C172 C176 1.390 . S
C172 C179 1.506 . S
C173 C174 1.398 . S
C173 C176 1.392 . S
C174 C173 1.398 . S
C174 C177 1.372 . S
C174 H184 0.931 . S
C175 C172 1.382 . S
C175 C177 1.390 . S
C175 H185 0.931 . S
C176 C172 1.390 . S
C176 C173 1.392 . S
C176 H186 0.958 . S
C177 C174 1.372 . S
C177 C175 1.390 . S
C177 H187 0.929 . S
C178 O158 1.255 . S
C178 O159 1.257 . S
C179 Eu115 2.787 . S
C179 O154 1.252 . S
C179 O157 1.268 . S
C179 C172 1.506 . S
H180 C163 0.931 . S
H181 C164 0.931 . S
H182 C165 0.929 . S
H183 C166 0.930 . S
H184 C174 0.931 . S
H185 C175 0.931 . S
H186 C176 0.958 . S
H187 C177 0.929 . S
Eu188 N217 2.600 . S
Eu188 N223 2.562 . S
Eu188 O232 2.462 . S
Eu188 O233 2.373 . S
Eu188 O235 2.432 . S
Eu188 O236 2.291 . S
Eu188 O240 2.335 1_545 S
Eu188 O243 2.372 . S
Eu188 C252 2.787 . S
C189 N190 1.365 . S
C189 C192 1.405 . S
C189 C196 1.448 . S
N190 C189 1.365 . S
N190 C193 1.319 . S
N190 Eu199 2.600 . S
C191 C193 1.397 . S
C191 C194 1.367 . S
C191 H211 0.931 . S
C192 C189 1.405 . S
C192 C194 1.403 . S
C192 C198 1.439 . S
C193 N190 1.319 . S
C193 C191 1.397 . S
C193 H204 0.930 . S
C194 C191 1.367 . S
C194 C192 1.403 . S
C194 H215 0.929 . S
C195 C196 1.430 . S
C195 C197 1.387 . S
C195 C201 1.404 . S
C196 C189 1.448 . S
C196 C195 1.430 . S
C196 N200 1.351 . S
C197 C195 1.387 . S
C197 C198 1.374 . S
C197 H212 0.931 . S
C198 C192 1.439 . S
C198 C197 1.374 . S
C198 H213 0.931 . S
Eu199 N190 2.600 . S
Eu199 N200 2.562 . S
Eu199 O234 2.335 1_565 S
Eu199 O237 2.372 . S
Eu199 O238 2.460 1_565 S
Eu199 O239 2.373 . S
Eu199 O241 2.432 . S
Eu199 O242 2.291 1_565 S
Eu199 C263 2.787 . S
N200 C196 1.351 . S
N200 Eu199 2.562 . S
N200 C202 1.325 . S
C201 C195 1.404 . S
C201 C203 1.366 . S
C201 H209 0.930 . S
C202 N200 1.325 . S
C202 C203 1.416 . S
C202 H208 0.929 . S
C203 C201 1.366 . S
C203 C202 1.416 . S
C203 H205 0.930 . S
H204 C193 0.930 . S
H205 C203 0.930 . S
H206 C221 0.930 . S
H207 C228 0.930 . S
H208 C202 0.929 . S
H209 C201 0.930 . S
H210 C224 0.929 . S
H211 C191 0.931 . S
H212 C197 0.931 . S
H213 C198 0.931 . S
H214 C219 0.931 . S
H215 C194 0.929 . S
H216 C227 0.930 . S
N217 Eu188 2.600 . S
N217 C218 1.365 . S
N217 C221 1.319 . S
C218 N217 1.365 . S
C218 C220 1.405 . S
C218 C226 1.448 . S
C219 H214 0.931 . S
C219 C221 1.397 . S
C219 C222 1.367 . S
C220 C218 1.405 . S
C220 C222 1.403 . S
C220 C253 1.439 . S
C221 H206 0.930 . S
C221 N217 1.319 . S
C221 C219 1.397 . S
C222 C219 1.367 . S
C222 C220 1.403 . S
C222 H229 0.929 . S
N223 Eu188 2.562 . S
N223 C224 1.325 . S
N223 C226 1.351 . S
C224 H210 0.929 . S
C224 N223 1.325 . S
C224 C228 1.416 . S
C225 C226 1.430 . S
C225 C227 1.404 . S
C225 C254 1.387 . S
C226 C218 1.448 . S
C226 N223 1.351 . S
C226 C225 1.430 . S
C227 H216 0.930 . S
C227 C225 1.404 . S
C227 C228 1.366 . S
C228 H207 0.930 . S
C228 C224 1.416 . S
C228 C227 1.366 . S
H229 C222 0.929 . S
H230 C253 0.931 . S
H231 C254 0.931 . S
O232 Eu188 2.462 . S
O232 C252 1.252 . S
O233 Eu188 2.373 . S
O233 C244 1.249 . S
O234 Eu199 2.335 1_545 S
O234 C244 1.264 . S
O235 Eu188 2.432 . S
O235 C252 1.268 . S
O236 Eu188 2.291 . S
O236 C251 1.255 . S
O237 Eu199 2.372 . S
O237 C251 1.257 1_565 S
O238 Eu199 2.460 1_545 S
O238 C263 1.251 1_545 S
O239 Eu199 2.373 . S
O239 C255 1.249 . S
O240 Eu188 2.335 1_565 S
O240 C255 1.264 . S
O241 Eu199 2.432 . S
O241 C263 1.268 . S
O242 Eu199 2.291 1_545 S
O242 C262 1.255 . S
O243 Eu188 2.372 . S
O243 C262 1.257 . S
C244 O233 1.249 . S
C244 O234 1.264 . S
C245 C248 1.382 . S
C245 C250 1.390 . S
C245 C252 1.506 . S
C246 C247 1.398 1_556 S
C246 C250 1.392 . S
C247 C246 1.398 1_554 S
C247 C249 1.372 . S
C247 H264 0.931 . S
C248 C245 1.382 . S
C248 C249 1.390 1_556 S
C248 H265 0.931 . S
C249 C247 1.372 . S
C249 C248 1.390 1_554 S
C249 H266 0.929 . S
C250 C245 1.390 . S
C250 C246 1.392 . S
C250 H267 0.930 . S
C251 O236 1.255 . S
C251 O237 1.257 1_545 S
C252 Eu188 2.787 . S
C252 O232 1.252 . S
C252 O235 1.268 . S
C252 C245 1.506 . S
C253 C220 1.439 . S
C253 H230 0.931 . S
C253 C254 1.374 . S
C254 C225 1.387 . S
C254 H231 0.931 . S
C254 C253 1.374 . S
C255 O239 1.249 . S
C255 O240 1.264 . S
C256 C259 1.382 . S
C256 C260 1.390 1_565 S
C256 C263 1.506 . S
C257 C258 1.398 . S
C257 C260 1.392 . S
C258 C257 1.398 . S
C258 C261 1.372 1_545 S
C258 H268 0.931 . S
C259 C256 1.382 . S
C259 C261 1.390 . S
C259 H269 0.931 . S
C260 C256 1.390 1_545 S
C260 C257 1.392 . S
C260 H270 0.930 . S
C261 C258 1.372 1_565 S
C261 C259 1.390 . S
C261 H271 0.929 . S
C262 O242 1.255 . S
C262 O243 1.257 . S
C263 Eu199 2.787 . S
C263 O238 1.251 1_565 S
C263 O241 1.268 . S
C263 C256 1.506 . S
H264 C247 0.931 . S
H265 C248 0.931 . S
H266 C249 0.929 . S
H267 C250 0.930 . S
H268 C258 0.931 . S
H269 C259 0.931 . S
H270 C260 0.930 . S
H271 C261 0.929 . S
Eu272 N301 2.600 . S
Eu272 N307 2.562 . S
Eu272 O316 2.462 . S
Eu272 O317 2.373 . S
Eu272 O319 2.432 . S
Eu272 O320 2.291 . S
Eu272 O324 2.335 . S
Eu272 O327 2.372 . S
Eu272 C336 2.787 . S
C273 N274 1.365 . S
C273 C276 1.405 . S
C273 C280 1.448 . S
N274 C273 1.365 . S
N274 C277 1.319 . S
N274 Eu283 2.600 . S
C275 C277 1.397 . S
C275 C278 1.367 . S
C275 H295 0.931 . S
C276 C273 1.405 . S
C276 C278 1.403 . S
C276 C282 1.439 . S
C277 N274 1.319 . S
C277 C275 1.397 . S
C277 H288 0.930 . S
C278 C275 1.367 . S
C278 C276 1.403 . S
C278 H299 0.929 . S
C279 C280 1.430 . S
C279 C281 1.387 . S
C279 C285 1.404 . S
C280 C273 1.448 . S
C280 C279 1.430 . S
C280 N284 1.351 . S
C281 C279 1.387 . S
C281 C282 1.374 . S
C281 H296 0.931 1_556 S
C282 C276 1.439 . S
C282 C281 1.374 . S
C282 H297 0.931 . S
Eu283 N274 2.600 . S
Eu283 N284 2.562 . S
Eu283 O318 2.335 . S
Eu283 O321 2.372 . S
Eu283 O322 2.462 . S
Eu283 O323 2.373 . S
Eu283 O325 2.432 . S
Eu283 O326 2.291 . S
Eu283 C347 2.787 . S
N284 C280 1.351 . S
N284 Eu283 2.562 . S
N284 C286 1.325 . S
C285 C279 1.404 . S
C285 C287 1.366 . S
C285 H293 0.930 1_556 S
C286 N284 1.325 . S
C286 C287 1.416 . S
C286 H292 0.929 . S
C287 C285 1.366 . S
C287 C286 1.416 . S
C287 H289 0.930 . S
H288 C277 0.930 . S
H289 C287 0.930 . S
H290 C305 0.930 . S
H291 C312 0.930 . S
H292 C286 0.929 . S
H293 C285 0.930 1_554 S
H294 C308 0.929 . S
H295 C275 0.931 . S
H296 C281 0.931 1_554 S
H297 C282 0.931 . S
H298 C303 0.931 . S
H299 C278 0.929 . S
H300 C311 0.930 . S
N301 Eu272 2.600 . S
N301 C302 1.365 . S
N301 C305 1.319 . S
C302 N301 1.365 . S
C302 C304 1.405 . S
C302 C310 1.448 . S
C303 H298 0.931 . S
C303 C305 1.397 . S
C303 C306 1.367 . S
C304 C302 1.405 . S
C304 C306 1.403 . S
C304 C337 1.439 . S
C305 H290 0.930 . S
C305 N301 1.319 . S
C305 C303 1.397 . S
C306 C303 1.367 . S
C306 C304 1.403 . S
C306 H313 0.929 . S
N307 Eu272 2.562 . S
N307 C308 1.325 . S
N307 C310 1.351 . S
C308 H294 0.929 . S
C308 N307 1.325 . S
C308 C312 1.416 . S
C309 C310 1.430 . S
C309 C311 1.404 . S
C309 C338 1.387 . S
C310 C302 1.448 . S
C310 N307 1.351 . S
C310 C309 1.430 . S
C311 H300 0.930 . S
C311 C309 1.404 . S
C311 C312 1.366 . S
C312 H291 0.930 . S
C312 C308 1.416 . S
C312 C311 1.366 . S
H313 C306 0.929 . S
H314 C337 0.931 . S
H315 C338 0.931 . S
O316 Eu272 2.462 . S
O316 C336 1.252 . S
O317 Eu272 2.373 . S
O317 C328 1.249 . S
O318 Eu283 2.335 . S
O318 C328 1.264 . S
O319 Eu272 2.432 . S
O319 C336 1.268 . S
O320 Eu272 2.291 . S
O320 C335 1.255 . S
O321 Eu283 2.372 . S
O321 C335 1.257 . S
O322 Eu283 2.462 . S
O322 C347 1.252 . S
O323 Eu283 2.373 . S
O323 C339 1.249 . S
O324 Eu272 2.335 . S
O324 C339 1.264 . S
O325 Eu283 2.432 . S
O325 C347 1.268 . S
O326 Eu283 2.291 . S
O326 C346 1.255 . S
O327 Eu272 2.372 . S
O327 C346 1.257 . S
C328 O317 1.249 . S
C328 O318 1.264 . S
C329 C332 1.382 . S
C329 C334 1.390 . S
C329 C336 1.506 . S
C330 C331 1.398 . S
C330 C334 1.392 . S
C331 C330 1.398 . S
C331 C333 1.372 . S
C331 H348 0.931 . S
C332 C329 1.382 . S
C332 C333 1.390 . S
C332 H349 0.931 . S
C333 C331 1.372 . S
C333 C332 1.390 . S
C333 H350 0.929 . S
C334 C329 1.390 . S
C334 C330 1.392 . S
C334 H351 0.930 . S
C335 O320 1.255 . S
C335 O321 1.257 . S
C336 Eu272 2.787 . S
C336 O316 1.252 . S
C336 O319 1.268 . S
C336 C329 1.506 . S
C337 C304 1.439 . S
C337 H314 0.931 . S
C337 C338 1.374 . S
C338 C309 1.387 . S
C338 H315 0.931 . S
C338 C337 1.374 . S
C339 O323 1.249 . S
C339 O324 1.264 . S
C340 C343 1.382 . S
C340 C344 1.390 . S
C340 C347 1.506 . S
C341 C342 1.398 . S
C341 C344 1.392 . S
C342 C341 1.398 . S
C342 C345 1.372 . S
C342 H352 0.931 . S
C343 C340 1.382 . S
C343 C345 1.390 . S
C343 H353 0.931 . S
C344 C340 1.390 . S
C344 C341 1.392 . S
C344 H354 0.930 . S
C345 C342 1.372 . S
C345 C343 1.390 . S
C345 H355 0.929 . S
C346 O326 1.255 . S
C346 O327 1.257 . S
C347 Eu283 2.787 . S
C347 O322 1.252 . S
C347 O325 1.268 . S
C347 C340 1.506 . S
H348 C331 0.931 . S
H349 C332 0.931 . S
H350 C333 0.929 . S
H351 C334 0.930 . S
H352 C342 0.931 . S
H353 C343 0.931 . S
H354 C344 0.930 . S
H355 C345 0.929 . S
Eu356 N385 2.600 . S
Eu356 N391 2.562 . S
Eu356 O400 2.462 . S
Eu356 O401 2.373 1_455 S
Eu356 O403 2.432 . S
Eu356 O404 2.291 . S
Eu356 O408 2.335 . S
Eu356 O411 2.372 . S
Eu356 C420 2.787 . S
C357 N358 1.365 . S
C357 C360 1.405 . S
C357 C364 1.448 . S
N358 C357 1.365 . S
N358 C361 1.314 1_455 S
N358 Eu367 2.600 1_455 S
C359 C361 1.382 1_455 S
C359 C362 1.367 . S
C359 H379 0.931 . S
C360 C357 1.405 . S
C360 C362 1.403 . S
C360 C366 1.439 . S
C361 N358 1.314 1_655 S
C361 C359 1.382 1_655 S
C361 H372 0.954 . S
C362 C359 1.367 . S
C362 C360 1.403 . S
C362 H383 0.929 . S
C363 C364 1.430 . S
C363 C365 1.387 . S
C363 C369 1.404 . S
C364 C357 1.448 . S
C364 C363 1.430 . S
C364 N368 1.351 . S
C365 C363 1.387 . S
C365 C366 1.374 . S
C365 H380 0.931 1_556 S
C366 C360 1.439 . S
C366 C365 1.374 . S
C366 H381 0.931 . S
Eu367 N358 2.600 1_655 S
Eu367 N368 2.562 1_655 S
Eu367 O402 2.335 . S
Eu367 O405 2.372 . S
Eu367 O406 2.462 . S
Eu367 O407 2.373 1_655 S
Eu367 O409 2.432 . S
Eu367 O410 2.291 1_655 S
Eu367 C431 2.787 . S
N368 C364 1.351 . S
N368 Eu367 2.562 1_455 S
N368 C370 1.325 . S
C369 C363 1.404 . S
C369 C371 1.366 . S
C369 H377 0.930 1_556 S
C370 N368 1.325 . S
C370 C371 1.416 . S
C370 H376 0.929 . S
C371 C369 1.366 . S
C371 C370 1.416 . S
C371 H373 0.930 . S
H372 C361 0.954 . S
H373 C371 0.930 . S
H374 C389 0.930 . S
H375 C396 0.930 . S
H376 C370 0.929 . S
H377 C369 0.930 1_554 S
H378 C392 0.929 . S
H379 C359 0.931 . S
H380 C365 0.931 1_554 S
H381 C366 0.931 . S
H382 C387 0.931 . S
H383 C362 0.929 . S
H384 C395 0.930 . S
N385 Eu356 2.600 . S
N385 C386 1.365 . S
N385 C389 1.319 . S
C386 N385 1.365 . S
C386 C388 1.405 1_455 S
C386 C394 1.448 . S
C387 H382 0.931 . S
C387 C389 1.397 . S
C387 C390 1.345 1_455 S
C388 C386 1.405 1_655 S
C388 C390 1.411 . S
C388 C421 1.439 . S
C389 H374 0.930 . S
C389 N385 1.319 . S
C389 C387 1.397 . S
C390 C387 1.345 1_655 S
C390 C388 1.411 . S
C390 H397 0.947 . S
N391 Eu356 2.562 . S
N391 C392 1.325 . S
N391 C394 1.351 . S
C392 H378 0.929 . S
C392 N391 1.325 . S
C392 C396 1.416 1_455 S
C393 C394 1.430 1_655 S
C393 C395 1.404 . S
C393 C422 1.387 . S
C394 C386 1.448 . S
C394 N391 1.351 . S
C394 C393 1.430 1_455 S
C395 H384 0.930 . S
C395 C393 1.404 . S
C395 C396 1.366 . S
C396 H375 0.930 . S
C396 C392 1.416 1_655 S
C396 C395 1.366 . S
H397 C390 0.947 . S
H398 C421 0.931 . S
H399 C422 0.931 . S
O400 Eu356 2.462 . S
O400 C420 1.252 . S
O401 Eu356 2.373 1_655 S
O401 C412 1.249 . S
O402 Eu367 2.335 . S
O402 C412 1.264 . S
O403 Eu356 2.432 . S
O403 C420 1.268 . S
O404 Eu356 2.291 . S
O404 C419 1.255 . S
O405 Eu367 2.372 . S
O405 C419 1.257 1_655 S
O406 Eu367 2.462 . S
O406 C431 1.252 . S
O407 Eu367 2.373 1_455 S
O407 C423 1.249 . S
O408 Eu356 2.335 . S
O408 C423 1.264 . S
O409 Eu367 2.432 . S
O409 C431 1.268 . S
O410 Eu367 2.291 1_455 S
O410 C430 1.255 . S
O411 Eu356 2.372 . S
O411 C430 1.257 . S
C412 O401 1.249 . S
C412 O402 1.264 . S
C413 C416 1.382 . S
C413 C418 1.390 . S
C413 C420 1.506 . S
C414 C415 1.398 . S
C414 C418 1.392 . S
C415 C414 1.398 . S
C415 C417 1.372 . S
C415 H432 0.931 . S
C416 C413 1.382 . S
C416 C417 1.390 . S
C416 H433 0.931 . S
C417 C415 1.372 . S
C417 C416 1.390 . S
C417 H434 0.929 . S
C418 C413 1.390 . S
C418 C414 1.392 . S
C418 H435 0.930 . S
C419 O404 1.255 . S
C419 O405 1.257 1_455 S
C420 Eu356 2.787 . S
C420 O400 1.252 . S
C420 O403 1.268 . S
C420 C413 1.506 . S
C421 C388 1.439 . S
C421 H398 0.931 . S
C421 C422 1.374 . S
C422 C393 1.387 . S
C422 H399 0.931 . S
C422 C421 1.374 . S
C423 O407 1.249 . S
C423 O408 1.264 . S
C424 C427 1.382 . S
C424 C428 1.390 . S
C424 C431 1.506 . S
C425 C426 1.398 . S
C425 C428 1.392 . S
C426 C425 1.398 . S
C426 C429 1.372 . S
C426 H436 0.931 . S
C427 C424 1.382 . S
C427 C429 1.390 . S
C427 H437 0.931 . S
C428 C424 1.390 . S
C428 C425 1.392 . S
C428 H438 0.930 . S
C429 C426 1.372 . S
C429 C427 1.390 . S
C429 H439 0.929 . S
C430 O410 1.255 . S
C430 O411 1.257 . S
C431 Eu367 2.787 . S
C431 O406 1.252 . S
C431 O409 1.268 . S
C431 C424 1.506 . S
H432 C415 0.931 . S
H433 C416 0.931 . S
H434 C417 0.929 . S
H435 C418 0.930 . S
H436 C426 0.931 . S
H437 C427 0.931 . S
H438 C428 0.930 . S
H439 C429 0.929 . S
H440 C448 0.929 . S
H441 C450 0.930 . S
H442 C452 0.930 . S
H443 C455 0.929 . S
H444 C458 0.930 . S
H445 C460 0.960 . S
H446 C460 0.960 . S
H447 C460 0.960 . S
C448 H440 0.929 . S
C448 C449 1.377 . S
C448 C450 1.384 . S
C449 C448 1.377 . S
C449 C455 1.390 . S
C450 H441 0.930 . S
C450 C448 1.384 . S
C450 C451 1.372 . S
C451 C450 1.372 . S
C451 C452 1.400 . S
C451 C456 1.490 . S
C452 H442 0.930 . S
C452 C451 1.400 . S
C452 C455 1.386 . S
H453 C469 0.930 . S
H454 C470 0.931 . S
C455 H443 0.929 . S
C455 C449 1.390 . S
C455 C452 1.386 . S
C456 C451 1.490 . S
C456 C458 1.395 . S
C456 C459 1.403 . S
H457 C463 0.930 . S
C458 H444 0.930 . S
C458 C456 1.395 . S
C458 C461 1.403 . S
C459 C456 1.403 . S
C459 C460 1.524 . S
C459 C463 1.400 . S
C460 H445 0.960 . S
C460 H446 0.960 . S
C460 H447 0.960 . S
C460 C459 1.524 . S
C461 C458 1.403 . S
C461 C462 1.392 . S
C461 C465 1.495 . S
C462 C461 1.392 . S
C462 C463 1.385 . S
C462 C464 1.478 . S
C463 H457 0.930 . S
C463 C459 1.400 . S
C463 C462 1.385 . S
C464 C462 1.478 . S
C464 C466 1.381 . S
C464 C470 1.383 . S
C465 C461 1.495 . S
C465 H471 0.959 . S
C465 H472 0.961 . S
C465 H473 0.960 . S
C466 C464 1.381 . S
C466 C467 1.394 . S
C466 H474 0.930 1_545 S
C467 C466 1.394 . S
C467 C468 1.383 . S
C467 H475 0.929 1_545 S
C468 C467 1.383 . S
C468 C469 1.377 . S
C469 H453 0.930 . S
C469 C468 1.377 . S
C469 C470 1.379 . S
C470 H454 0.931 . S
C470 C464 1.383 . S
C470 C469 1.379 . S
H471 C465 0.959 . S
H472 C465 0.961 . S
H473 C465 0.960 . S
H474 C466 0.930 1_565 S
H475 C467 0.929 1_565 S
H476 C484 0.929 . S
H477 C486 0.930 . S
H478 C488 0.930 . S
H479 C491 0.929 . S
H480 C494 0.930 . S
H481 C496 0.960 . S
H482 C496 0.960 . S
H483 C496 0.960 . S
C484 H476 0.929 . S
C484 C485 1.377 . S
C484 C486 1.384 . S
C485 C484 1.377 . S
C485 C491 1.390 . S
C486 H477 0.930 . S
C486 C484 1.384 . S
C486 C487 1.372 . S
C487 C486 1.372 . S
C487 C488 1.400 . S
C487 C492 1.490 . S
C488 H478 0.930 . S
C488 C487 1.400 . S
C488 C491 1.386 . S
H489 C505 0.930 . S
H490 C506 0.931 . S
C491 H479 0.929 . S
C491 C485 1.390 . S
C491 C488 1.386 . S
C492 C487 1.490 . S
C492 C494 1.395 . S
C492 C495 1.403 . S
H493 C499 0.930 . S
C494 H480 0.930 . S
C494 C492 1.395 . S
C494 C497 1.403 . S
C495 C492 1.403 . S
C495 C496 1.524 . S
C495 C499 1.400 . S
C496 H481 0.960 . S
C496 H482 0.960 . S
C496 H483 0.960 . S
C496 C495 1.524 . S
C497 C494 1.403 . S
C497 C498 1.392 . S
C497 C501 1.495 . S
C498 C497 1.392 . S
C498 C499 1.385 . S
C498 C500 1.478 . S
C499 H493 0.930 . S
C499 C495 1.400 . S
C499 C498 1.385 . S
C500 C498 1.478 . S
C500 C502 1.381 . S
C500 C506 1.383 . S
C501 C497 1.495 . S
C501 H507 0.959 . S
C501 H508 0.961 . S
C501 H509 0.960 . S
C502 C500 1.381 . S
C502 C503 1.394 . S
C502 H510 0.930 . S
C503 C502 1.394 . S
C503 C504 1.383 . S
C503 H511 0.929 . S
C504 C503 1.383 . S
C504 C505 1.377 . S
C505 H489 0.930 . S
C505 C504 1.377 . S
C505 C506 1.379 . S
C506 H490 0.931 . S
C506 C500 1.383 . S
C506 C505 1.379 . S
H507 C501 0.959 . S
H508 C501 0.961 . S
H509 C501 0.960 . S
H510 C502 0.930 . S
H511 C503 0.929 . S
H512 C520 0.929 . S
H513 C522 0.930 . S
H514 C524 0.930 . S
H515 C527 0.929 . S
H516 C530 0.930 . S
H517 C532 0.960 . S
H518 C532 0.960 . S
H519 C532 0.960 . S
C520 H512 0.929 . S
C520 C521 1.377 . S
C520 C522 1.384 . S
C521 C520 1.377 . S
C521 C527 1.390 . S
C522 H513 0.930 . S
C522 C520 1.384 . S
C522 C523 1.372 . S
C523 C522 1.372 . S
C523 C524 1.400 . S
C523 C528 1.490 . S
C524 H514 0.930 . S
C524 C523 1.400 . S
C524 C527 1.386 . S
H525 C541 0.930 . S
H526 C542 0.931 . S
C527 H515 0.929 . S
C527 C521 1.390 . S
C527 C524 1.386 . S
C528 C523 1.490 . S
C528 C530 1.395 . S
C528 C531 1.403 . S
H529 C535 0.930 . S
C530 H516 0.930 . S
C530 C528 1.395 . S
C530 C533 1.403 . S
C531 C528 1.403 . S
C531 C532 1.524 . S
C531 C535 1.400 . S
C532 H517 0.960 . S
C532 H518 0.960 . S
C532 H519 0.960 . S
C532 C531 1.524 . S
C533 C530 1.403 . S
C533 C534 1.392 . S
C533 C537 1.495 . S
C534 C533 1.392 . S
C534 C535 1.385 . S
C534 C536 1.478 . S
C535 H529 0.930 . S
C535 C531 1.400 . S
C535 C534 1.385 . S
C536 C534 1.478 . S
C536 C538 1.381 . S
C536 C542 1.383 . S
C537 C533 1.495 . S
C537 H543 0.959 . S
C537 H544 0.961 . S
C537 H545 0.960 . S
C538 C536 1.381 . S
C538 C539 1.394 . S
C538 H546 0.930 . S
C539 C538 1.394 . S
C539 C540 1.383 . S
C539 H547 0.929 . S
C540 C539 1.383 . S
C540 C541 1.377 . S
C541 H525 0.930 . S
C541 C540 1.377 . S
C541 C542 1.379 . S
C542 H526 0.931 . S
C542 C536 1.383 . S
C542 C541 1.379 . S
H543 C537 0.959 . S
H544 C537 0.961 . S
H545 C537 0.960 . S
H546 C538 0.930 . S
H547 C539 0.929 . S
H548 C556 0.929 . S
H549 C558 0.930 . S
H550 C560 0.930 . S
H551 C563 0.929 . S
H552 C566 0.930 1_655 S
H553 C568 0.960 . S
H554 C568 0.960 . S
H555 C568 0.960 . S
C556 H548 0.929 . S
C556 C557 1.377 . S
C556 C558 1.384 . S
C557 C556 1.377 . S
C557 C563 1.390 . S
C558 H549 0.930 . S
C558 C556 1.384 . S
C558 C559 1.372 . S
C559 C558 1.372 . S
C559 C560 1.400 . S
C559 C564 1.490 . S
C560 H550 0.930 . S
C560 C559 1.400 . S
C560 C563 1.386 . S
H561 C577 0.930 . S
H562 C578 0.931 . S
C563 H551 0.929 . S
C563 C557 1.390 . S
C563 C560 1.386 . S
C564 C559 1.490 . S
C564 C566 1.395 . S
C564 C567 1.403 . S
H565 C571 0.930 . S
C566 H552 0.930 1_455 S
C566 C564 1.395 . S
C566 C569 1.403 . S
C567 C564 1.403 . S
C567 C568 1.524 . S
C567 C571 1.400 . S
C568 H553 0.960 . S
C568 H554 0.960 . S
C568 H555 0.960 . S
C568 C567 1.524 . S
C569 C566 1.403 . S
C569 C570 1.392 . S
C569 C573 1.495 1_455 S
C570 C569 1.392 . S
C570 C571 1.385 . S
C570 C572 1.478 . S
C571 H565 0.930 . S
C571 C567 1.400 . S
C571 C570 1.385 . S
C572 C570 1.478 . S
C572 C574 1.381 . S
C572 C578 1.383 . S
C573 C569 1.495 1_655 S
C573 H579 0.959 . S
C573 H580 0.961 . S
C573 H581 0.960 . S
C574 C572 1.381 . S
C574 C575 1.394 . S
C574 H582 0.930 1_455 S
C575 C574 1.394 . S
C575 C576 1.383 . S
C575 H583 0.929 1_455 S
C576 C575 1.383 . S
C576 C577 1.377 . S
C577 H561 0.930 . S
C577 C576 1.377 . S
C577 C578 1.379 . S
C578 H562 0.931 . S
C578 C572 1.383 . S
C578 C577 1.379 . S
H579 C573 0.959 . S
H580 C573 0.961 . S
H581 C573 0.960 . S
H582 C574 0.930 1_655 S
H583 C575 0.929 1_655 S
H584 C592 0.929 . S
H585 C594 0.930 . S
H586 C596 0.916 1_545 S
H587 C599 0.929 1_545 S
H588 C602 0.930 . S
H589 C604 0.960 . S
H590 C604 0.960 . S
H591 C604 0.960 . S
C592 H584 0.929 . S
C592 C593 1.377 . S
C592 C594 1.384 . S
C593 C592 1.377 . S
C593 C599 1.390 . S
C594 H585 0.930 . S
C594 C592 1.384 . S
C594 C595 1.372 . S
C595 C594 1.372 . S
C595 C596 1.411 . S
C595 C600 1.490 . S
C596 H586 0.916 1_565 S
C596 C595 1.411 . S
C596 C599 1.387 . S
H597 C613 0.930 . S
H598 C614 0.931 . S
C599 H587 0.929 1_565 S
C599 C593 1.390 . S
C599 C596 1.387 . S
C600 C595 1.490 . S
C600 C602 1.395 1_554 S
C600 C603 1.403 . S
H601 C607 0.930 . S
C602 H588 0.930 . S
C602 C600 1.395 1_556 S
C602 C605 1.403 . S
C603 C600 1.403 . S
C603 C604 1.524 . S
C603 C607 1.400 . S
C604 H589 0.960 . S
C604 H590 0.960 . S
C604 H591 0.960 . S
C604 C603 1.524 . S
C605 C602 1.403 . S
C605 C606 1.392 . S
C605 C609 1.495 . S
C606 C605 1.392 . S
C606 C607 1.385 1_556 S
C606 C608 1.478 . S
C607 H601 0.930 . S
C607 C603 1.400 . S
C607 C606 1.385 1_554 S
C608 C606 1.478 . S
C608 C610 1.381 . S
C608 C614 1.383 1_565 S
C609 C605 1.495 . S
C609 H615 0.959 . S
C609 H616 0.961 1_565 S
C609 H617 0.960 . S
C610 C608 1.381 . S
C610 C611 1.394 . S
C610 H618 0.930 . S
C611 C610 1.394 . S
C611 C612 1.383 1_565 S
C611 H619 0.929 . S
C612 C611 1.383 1_545 S
C612 C613 1.377 . S
C613 H597 0.930 . S
C613 C612 1.377 . S
C613 C614 1.379 . S
C614 H598 0.931 . S
C614 C608 1.383 1_545 S
C614 C613 1.379 . S
H615 C609 0.959 . S
H616 C609 0.961 1_545 S
H617 C609 0.960 . S
H618 C610 0.930 . S
H619 C611 0.929 . S
H620 C628 0.929 . S
H621 C630 0.930 . S
H622 C632 0.930 . S
H623 C635 0.929 . S
H624 C638 0.930 . S
H625 C640 0.960 . S
H626 C640 0.960 . S
H627 C640 0.960 . S
C628 H620 0.929 . S
C628 C629 1.377 . S
C628 C630 1.384 . S
C629 C628 1.377 . S
C629 C635 1.390 . S
C630 H621 0.930 . S
C630 C628 1.384 . S
C630 C631 1.372 . S
C631 C630 1.372 . S
C631 C632 1.400 . S
C631 C636 1.490 . S
C632 H622 0.930 . S
C632 C631 1.400 . S
C632 C635 1.386 . S
H633 C649 0.930 . S
H634 C650 0.931 . S
C635 H623 0.929 . S
C635 C629 1.390 . S
C635 C632 1.386 . S
C636 C631 1.490 . S
C636 C638 1.395 1_554 S
C636 C639 1.403 . S
H637 C643 0.930 . S
C638 H624 0.930 . S
C638 C636 1.395 1_556 S
C638 C641 1.403 . S
C639 C636 1.403 . S
C639 C640 1.524 . S
C639 C643 1.400 . S
C640 H625 0.960 . S
C640 H626 0.960 . S
C640 H627 0.960 . S
C640 C639 1.524 . S
C641 C638 1.403 . S
C641 C642 1.392 . S
C641 C645 1.495 . S
C642 C641 1.392 . S
C642 C643 1.385 1_556 S
C642 C644 1.478 . S
C643 H637 0.930 . S
C643 C639 1.400 . S
C643 C642 1.385 1_554 S
C644 C642 1.478 . S
C644 C646 1.381 . S
C644 C650 1.383 . S
C645 C641 1.495 . S
C645 H651 0.959 . S
C645 H652 0.961 . S
C645 H653 0.960 . S
C646 C644 1.381 . S
C646 C647 1.394 . S
C646 H654 0.930 . S
C647 C646 1.394 . S
C647 C648 1.383 . S
C647 H655 0.929 . S
C648 C647 1.383 . S
C648 C649 1.377 . S
C649 H633 0.930 . S
C649 C648 1.377 . S
C649 C650 1.379 . S
C650 H634 0.931 . S
C650 C644 1.383 . S
C650 C649 1.379 . S
H651 C645 0.959 . S
H652 C645 0.961 . S
H653 C645 0.960 . S
H654 C646 0.930 . S
H655 C647 0.929 . S
H656 C664 0.929 . S
H657 C666 0.930 . S
H658 C668 0.930 . S
H659 C671 0.929 . S
H660 C674 0.930 . S
H661 C676 0.960 . S
H662 C676 0.960 . S
H663 C676 0.960 . S
C664 H656 0.929 . S
C664 C665 1.377 . S
C664 C666 1.384 . S
C665 C664 1.377 . S
C665 C671 1.390 . S
C666 H657 0.930 . S
C666 C664 1.384 . S
C666 C667 1.372 . S
C667 C666 1.372 . S
C667 C668 1.400 . S
C667 C672 1.490 . S
C668 H658 0.930 . S
C668 C667 1.400 . S
C668 C671 1.386 . S
H669 C685 0.930 . S
H670 C686 0.931 . S
C671 H659 0.929 . S
C671 C665 1.390 . S
C671 C668 1.386 . S
C672 C667 1.490 . S
C672 C674 1.395 . S
C672 C675 1.403 1_554 S
H673 C679 0.930 . S
C674 H660 0.930 . S
C674 C672 1.395 . S
C674 C677 1.403 . S
C675 C672 1.403 1_556 S
C675 C676 1.524 . S
C675 C679 1.400 . S
C676 H661 0.960 . S
C676 H662 0.960 . S
C676 H663 0.960 . S
C676 C675 1.524 . S
C677 C674 1.403 . S
C677 C678 1.392 1_554 S
C677 C681 1.495 . S
C678 C677 1.392 1_556 S
C678 C679 1.385 . S
C678 C680 1.478 . S
C679 H673 0.930 . S
C679 C675 1.400 . S
C679 C678 1.385 . S
C680 C678 1.478 . S
C680 C682 1.381 . S
C680 C686 1.383 . S
C681 C677 1.495 . S
C681 H687 0.959 . S
C681 H688 0.961 . S
C681 H689 0.960 . S
C682 C680 1.381 . S
C682 C683 1.394 . S
C682 H690 0.930 . S
C683 C682 1.394 . S
C683 C684 1.383 . S
C683 H691 0.929 . S
C684 C683 1.383 . S
C684 C685 1.377 . S
C685 H669 0.930 . S
C685 C684 1.377 . S
C685 C686 1.379 . S
C686 H670 0.931 . S
C686 C680 1.383 . S
C686 C685 1.379 . S
H687 C681 0.959 . S
H688 C681 0.961 . S
H689 C681 0.960 . S
H690 C682 0.930 . S
H691 C683 0.929 . S
H692 C700 0.929 . S
H693 C702 0.930 . S
H694 C704 0.930 . S
H695 C707 0.929 . S
H696 C710 0.930 . S
H697 C712 0.960 1_556 S
H698 C712 0.960 . S
H699 C712 0.960 . S
C700 H692 0.929 . S
C700 C701 1.377 . S
C700 C702 1.384 . S
C701 C700 1.377 . S
C701 C707 1.390 . S
C702 H693 0.930 . S
C702 C700 1.384 . S
C702 C703 1.372 . S
C703 C702 1.372 . S
C703 C704 1.400 . S
C703 C708 1.490 . S
C704 H694 0.930 . S
C704 C703 1.400 . S
C704 C707 1.386 . S
H705 C721 0.929 . S
H706 C722 0.931 . S
C707 H695 0.929 . S
C707 C701 1.390 . S
C707 C704 1.386 . S
C708 C703 1.490 . S
C708 C710 1.395 . S
C708 C711 1.403 1_655 S
H709 C715 0.930 . S
C710 H696 0.930 . S
C710 C708 1.395 . S
C710 C713 1.403 1_554 S
C711 C708 1.403 1_455 S
C711 C712 1.524 . S
C711 C715 1.400 1_554 S
C712 H697 0.960 1_554 S
C712 H698 0.960 . S
C712 H699 0.960 . S
C712 C711 1.524 . S
C713 C710 1.403 1_556 S
C713 C714 1.392 . S
C713 C717 1.495 . S
C714 C713 1.392 . S
C714 C715 1.385 1_655 S
C714 C716 1.478 . S
C715 H709 0.930 . S
C715 C711 1.400 1_556 S
C715 C714 1.385 1_455 S
C716 C714 1.478 . S
C716 C718 1.381 . S
C716 C722 1.383 . S
C717 C713 1.495 . S
C717 H723 0.959 1_556 S
C717 H724 0.961 . S
C717 H725 0.960 . S
C718 C716 1.381 . S
C718 C719 1.394 . S
C718 H726 0.930 . S
C719 C718 1.394 . S
C719 C720 1.383 . S
C719 H727 0.929 . S
C720 C719 1.383 . S
C720 C721 1.377 . S
C721 H705 0.929 . S
C721 C720 1.377 . S
C721 C722 1.379 . S
C722 H706 0.931 . S
C722 C716 1.383 . S
C722 C721 1.379 . S
H723 C717 0.959 1_554 S
H724 C717 0.961 . S
H725 C717 0.960 . S
H726 C718 0.930 . S
H727 C719 0.929 . S
H728 C736 0.929 . S
H729 C738 0.930 . S
H730 C740 0.930 . S
H731 C743 0.929 . S
H732 C746 0.930 . S
H733 C748 0.960 . S
H734 C748 0.960 . S
H735 C748 0.960 . S
C736 H728 0.929 . S
C736 C737 1.377 . S
C736 C738 1.384 . S
C737 C736 1.377 . S
C737 C743 1.390 . S
C738 H729 0.930 . S
C738 C736 1.384 . S
C738 C739 1.372 . S
C739 C738 1.372 . S
C739 C740 1.400 . S
C739 C744 1.490 . S
C740 H730 0.930 . S
C740 C739 1.400 . S
C740 C743 1.386 . S
H741 C757 0.930 . S
H742 C758 0.931 . S
C743 H731 0.929 . S
C743 C737 1.390 . S
C743 C740 1.386 . S
C744 C739 1.490 . S
C744 C746 1.395 . S
C744 C747 1.403 . S
H745 C751 0.930 . S
C746 H732 0.930 . S
C746 C744 1.395 . S
C746 C749 1.403 . S
C747 C744 1.403 . S
C747 C748 1.524 . S
C747 C751 1.400 . S
C748 H733 0.960 . S
C748 H734 0.960 . S
C748 H735 0.960 . S
C748 C747 1.524 . S
C749 C746 1.403 . S
C749 C750 1.392 . S
C749 C753 1.495 . S
C750 C749 1.392 . S
C750 C751 1.385 . S
C750 C752 1.478 . S
C751 H745 0.930 . S
C751 C747 1.400 . S
C751 C750 1.385 . S
C752 C750 1.478 . S
C752 C754 1.381 1_455 S
C752 C758 1.383 . S
C753 C749 1.495 . S
C753 H759 0.959 . S
C753 H760 0.961 . S
C753 H761 0.960 . S
C754 C752 1.381 1_655 S
C754 C755 1.394 . S
C754 H762 0.930 . S
C755 C754 1.394 . S
C755 C756 1.383 1_655 S
C755 H763 0.929 . S
C756 C755 1.383 1_455 S
C756 C757 1.377 . S
C757 H741 0.930 . S
C757 C756 1.377 . S
C757 C758 1.379 . S
C758 H742 0.931 . S
C758 C752 1.383 . S
C758 C757 1.379 . S
H759 C753 0.959 . S
H760 C753 0.961 . S
H761 C753 0.960 . S
H762 C754 0.930 . S
H763 C755 0.929 . S
H764 C772 0.929 1_556 S
H765 C774 0.930 . S
H766 C776 0.930 . S
H767 C779 0.929 . S
H768 C782 0.930 . S
H769 C784 0.960 1_565 S
H770 C784 0.960 1_565 S
H771 C784 0.960 . S
C772 H764 0.929 1_554 S
C772 C773 1.377 . S
C772 C774 1.384 . S
C773 C772 1.377 . S
C773 C779 1.390 . S
C774 H765 0.930 . S
C774 C772 1.384 . S
C774 C775 1.372 . S
C775 C774 1.372 . S
C775 C776 1.400 . S
C775 C780 1.490 . S
C776 H766 0.930 . S
C776 C775 1.400 . S
C776 C779 1.386 . S
H777 C793 0.930 . S
H778 C794 0.931 . S
C779 H767 0.929 . S
C779 C773 1.390 . S
C779 C776 1.386 . S
C780 C775 1.490 . S
C780 C782 1.395 . S
C780 C783 1.403 . S
H781 C787 0.930 . S
C782 H768 0.930 . S
C782 C780 1.395 . S
C782 C785 1.403 . S
C783 C780 1.403 . S
C783 C784 1.524 . S
C783 C787 1.400 . S
C784 H769 0.960 1_545 S
C784 H770 0.960 1_545 S
C784 H771 0.960 . S
C784 C783 1.524 . S
C785 C782 1.403 . S
C785 C786 1.392 . S
C785 C789 1.495 . S
C786 C785 1.392 . S
C786 C787 1.385 . S
C786 C788 1.478 . S
C787 H781 0.930 . S
C787 C783 1.400 . S
C787 C786 1.385 . S
C788 C786 1.478 . S
C788 C790 1.381 . S
C788 C794 1.383 . S
C789 C785 1.495 . S
C789 H795 0.959 . S
C789 H796 0.961 . S
C789 H797 0.960 . S
C790 C788 1.381 . S
C790 C791 1.394 . S
C790 H798 0.930 . S
C791 C790 1.394 . S
C791 C792 1.383 . S
C791 H799 0.929 1_545 S
C792 C791 1.383 . S
C792 C793 1.377 . S
C793 H777 0.930 . S
C793 C792 1.377 . S
C793 C794 1.379 . S
C794 H778 0.931 . S
C794 C788 1.383 . S
C794 C793 1.379 . S
H795 C789 0.959 . S
H796 C789 0.961 . S
H797 C789 0.960 . S
H798 C790 0.930 . S
H799 C791 0.929 1_565 S
H800 C808 0.929 1_556 S
H801 C810 0.930 . S
H802 C812 0.930 . S
H803 C815 0.929 . S
H804 C818 0.930 . S
H805 C820 0.960 . S
H806 C820 0.960 . S
H807 C820 0.960 . S
C808 H800 0.929 1_554 S
C808 C809 1.377 . S
C808 C810 1.384 . S
C809 C808 1.377 . S
C809 C815 1.390 . S
C810 H801 0.930 . S
C810 C808 1.384 . S
C810 C811 1.372 . S
C811 C810 1.372 . S
C811 C812 1.400 . S
C811 C816 1.490 . S
C812 H802 0.930 . S
C812 C811 1.400 . S
C812 C815 1.386 . S
H813 C829 0.930 . S
H814 C830 0.931 . S
C815 H803 0.929 . S
C815 C809 1.390 . S
C815 C812 1.386 . S
C816 C811 1.490 . S
C816 C818 1.395 . S
C816 C819 1.403 . S
H817 C823 0.930 . S
C818 H804 0.930 . S
C818 C816 1.395 . S
C818 C821 1.403 . S
C819 C816 1.403 . S
C819 C820 1.524 . S
C819 C823 1.400 . S
C820 H805 0.960 . S
C820 H806 0.960 . S
C820 H807 0.960 . S
C820 C819 1.524 . S
C821 C818 1.403 . S
C821 C822 1.392 . S
C821 C825 1.495 . S
C822 C821 1.392 . S
C822 C823 1.385 . S
C822 C824 1.478 . S
C823 H817 0.930 . S
C823 C819 1.400 . S
C823 C822 1.385 . S
C824 C822 1.478 . S
C824 C826 1.381 . S
C824 C830 1.383 . S
C825 C821 1.495 . S
C825 H831 0.959 . S
C825 H832 0.961 . S
C825 H833 0.960 . S
C826 C824 1.381 . S
C826 C827 1.394 . S
C826 H834 0.930 . S
C827 C826 1.394 . S
C827 C828 1.383 . S
C827 H835 0.929 . S
C828 C827 1.383 . S
C828 C829 1.377 . S
C829 H813 0.930 . S
C829 C828 1.377 . S
C829 C830 1.379 . S
C830 H814 0.931 . S
C830 C824 1.383 . S
C830 C829 1.379 . S
H831 C825 0.959 . S
H832 C825 0.961 . S
H833 C825 0.960 . S
H834 C826 0.930 . S
H835 C827 0.929 . S
H836 C844 0.929 . S
H837 C846 0.930 . S
H838 C848 0.930 . S
H839 C851 0.929 . S
H840 C854 0.930 . S
H841 C856 0.960 . S
H842 C856 0.960 . S
H843 C856 0.960 . S
C844 H836 0.929 . S
C844 C845 1.377 . S
C844 C846 1.384 . S
C845 C844 1.377 . S
C845 C851 1.390 . S
C846 H837 0.930 . S
C846 C844 1.384 . S
C846 C847 1.372 . S
C847 C846 1.372 . S
C847 C848 1.400 . S
C847 C852 1.490 . S
C848 H838 0.930 . S
C848 C847 1.400 . S
C848 C851 1.386 . S
H849 C865 0.930 . S
H850 C866 0.931 . S
C851 H839 0.929 . S
C851 C845 1.390 . S
C851 C848 1.386 . S
C852 C847 1.490 . S
C852 C854 1.395 . S
C852 C855 1.403 . S
H853 C859 0.930 . S
C854 H840 0.930 . S
C854 C852 1.395 . S
C854 C857 1.403 . S
C855 C852 1.403 . S
C855 C856 1.524 . S
C855 C859 1.400 . S
C856 H841 0.960 . S
C856 H842 0.960 . S
C856 H843 0.960 . S
C856 C855 1.524 . S
C857 C854 1.403 . S
C857 C858 1.392 . S
C857 C861 1.495 . S
C858 C857 1.392 . S
C858 C859 1.385 . S
C858 C860 1.478 . S
C859 H853 0.930 . S
C859 C855 1.400 . S
C859 C858 1.385 . S
C860 C858 1.478 . S
C860 C862 1.381 . S
C860 C866 1.383 . S
C861 C857 1.495 . S
C861 H867 0.959 . S
C861 H868 0.961 . S
C861 H869 0.960 . S
C862 C860 1.381 . S
C862 C863 1.394 . S
C862 H870 0.930 . S
C863 C862 1.394 . S
C863 C864 1.383 . S
C863 H871 0.929 . S
C864 C863 1.383 . S
C864 C865 1.377 . S
C865 H849 0.930 . S
C865 C864 1.377 . S
C865 C866 1.379 . S
C866 H850 0.931 . S
C866 C860 1.383 . S
C866 C865 1.379 . S
H867 C861 0.959 . S
H868 C861 0.961 . S
H869 C861 0.960 . S
H870 C862 0.930 . S
H871 C863 0.929 . S
H872 C880 0.929 . S
H873 C882 0.930 1_455 S
H874 C884 0.930 . S
H875 C887 0.929 . S
H876 C890 0.930 . S
H877 C892 0.960 . S
H878 C892 0.960 . S
H879 C892 0.960 1_655 S
C880 H872 0.929 . S
C880 C881 1.377 . S
C880 C882 1.384 . S
C881 C880 1.377 . S
C881 C887 1.390 . S
C882 H873 0.930 1_655 S
C882 C880 1.384 . S
C882 C883 1.372 . S
C883 C882 1.372 . S
C883 C884 1.400 . S
C883 C888 1.490 . S
C884 H874 0.930 . S
C884 C883 1.400 . S
C884 C887 1.386 . S
H885 C901 0.930 . S
H886 C902 0.931 1_554 S
C887 H875 0.929 . S
C887 C881 1.390 . S
C887 C884 1.386 . S
C888 C883 1.490 . S
C888 C890 1.395 . S
C888 C891 1.403 . S
H889 C895 0.916 1_455 S
C890 H876 0.930 . S
C890 C888 1.395 . S
C890 C893 1.403 1_554 S
C891 C888 1.403 . S
C891 C892 1.524 1_655 S
C891 C895 1.407 . S
C892 H877 0.960 . S
C892 H878 0.960 . S
C892 H879 0.960 1_455 S
C892 C891 1.524 1_455 S
C893 C890 1.403 1_556 S
C893 C894 1.392 1_556 S
C893 C897 1.495 . S
C894 C893 1.392 1_554 S
C894 C895 1.395 . S
C894 C896 1.487 1_554 S
C895 H889 0.916 1_655 S
C895 C891 1.407 . S
C895 C894 1.395 . S
C896 C894 1.487 1_556 S
C896 C898 1.341 1_655 S
C896 C902 1.414 . S
C897 C893 1.495 . S
C897 H903 0.959 . S
C897 H904 0.961 . S
C897 H905 0.960 . S
C898 C896 1.341 1_455 S
C898 C899 1.394 . S
C898 H906 0.930 . S
C899 C898 1.394 . S
C899 C900 1.383 . S
C899 H907 0.929 . S
C900 C899 1.383 . S
C900 C901 1.377 1_455 S
C901 H885 0.930 . S
C901 C900 1.377 1_655 S
C901 C902 1.379 . S
C902 H886 0.931 1_556 S
C902 C896 1.414 . S
C902 C901 1.379 . S
H903 C897 0.959 . S
H904 C897 0.961 . S
H905 C897 0.960 . S
H906 C898 0.930 . S
H907 C899 0.929 . S
H908 C916 0.929 1_545 S
H909 C918 0.930 . S
H910 C920 0.930 . S
H911 C923 0.929 . S
H912 C926 0.930 . S
H913 C928 0.960 . S
H914 C928 0.960 . S
H915 C928 0.960 . S
C916 H908 0.929 1_565 S
C916 C917 1.377 . S
C916 C918 1.384 1_565 S
C917 C916 1.377 . S
C917 C923 1.390 . S
C918 H909 0.930 . S
C918 C916 1.384 1_545 S
C918 C919 1.372 1_545 S
C919 C918 1.372 1_565 S
C919 C920 1.400 . S
C919 C924 1.490 . S
C920 H910 0.930 . S
C920 C919 1.400 . S
C920 C923 1.386 . S
H921 C937 0.930 . S
H922 C938 0.931 . S
C923 H911 0.929 . S
C923 C917 1.390 . S
C923 C920 1.386 . S
C924 C919 1.490 . S
C924 C926 1.395 1_565 S
C924 C927 1.403 . S
H925 C931 0.930 . S
C926 H912 0.930 . S
C926 C924 1.395 1_545 S
C926 C929 1.403 . S
C927 C924 1.403 . S
C927 C928 1.524 . S
C927 C931 1.400 . S
C928 H913 0.960 . S
C928 H914 0.960 . S
C928 H915 0.960 . S
C928 C927 1.524 . S
C929 C926 1.403 . S
C929 C930 1.392 . S
C929 C933 1.495 1_554 S
C930 C929 1.392 . S
C930 C931 1.385 1_545 S
C930 C932 1.478 1_554 S
C931 H925 0.930 . S
C931 C927 1.400 . S
C931 C930 1.385 1_565 S
C932 C930 1.478 1_556 S
C932 C934 1.381 . S
C932 C938 1.383 1_545 S
C933 C929 1.495 1_556 S
C933 H939 0.959 . S
C933 H940 0.961 . S
C933 H941 0.960 . S
C934 C932 1.381 . S
C934 C935 1.394 . S
C934 H942 0.930 1_556 S
C935 C934 1.394 . S
C935 C936 1.383 . S
C935 H943 0.929 . S
C936 C935 1.383 . S
C936 C937 1.377 1_545 S
C937 H921 0.930 . S
C937 C936 1.377 1_565 S
C937 C938 1.379 . S
C938 H922 0.931 . S
C938 C932 1.383 1_565 S
C938 C937 1.379 . S
H939 C933 0.959 . S
H940 C933 0.961 . S
H941 C933 0.960 . S
H942 C934 0.930 1_554 S
H943 C935 0.929 . S
H944 C952 0.929 . S
H945 C954 0.930 . S
H946 C956 0.930 . S
H947 C959 0.929 . S
H948 C962 0.930 . S
H949 C964 0.960 . S
H950 C964 0.960 . S
H951 C964 0.960 . S
C952 H944 0.929 . S
C952 C953 1.377 . S
C952 C954 1.384 . S
C953 C952 1.377 . S
C953 C959 1.390 . S
C954 H945 0.930 . S
C954 C952 1.384 . S
C954 C955 1.372 . S
C955 C954 1.372 . S
C955 C956 1.400 . S
C955 C960 1.490 . S
C956 H946 0.930 . S
C956 C955 1.400 . S
C956 C959 1.386 . S
H957 C973 0.930 . S
H958 C974 0.931 . S
C959 H947 0.929 . S
C959 C953 1.390 . S
C959 C956 1.386 . S
C960 C955 1.490 . S
C960 C962 1.395 . S
C960 C963 1.403 . S
H961 C967 0.930 . S
C962 H948 0.930 . S
C962 C960 1.395 . S
C962 C965 1.403 . S
C963 C960 1.403 . S
C963 C964 1.524 . S
C963 C967 1.400 . S
C964 H949 0.960 . S
C964 H950 0.960 . S
C964 H951 0.960 . S
C964 C963 1.524 . S
C965 C962 1.403 . S
C965 C966 1.392 . S
C965 C969 1.495 1_554 S
C966 C965 1.392 . S
C966 C967 1.385 . S
C966 C968 1.478 1_554 S
C967 H961 0.930 . S
C967 C963 1.400 . S
C967 C966 1.385 . S
C968 C966 1.478 1_556 S
C968 C970 1.381 . S
C968 C974 1.383 . S
C969 C965 1.495 1_556 S
C969 H975 0.959 . S
C969 H976 0.961 . S
C969 H977 0.960 . S
C970 C968 1.381 . S
C970 C971 1.394 . S
C970 H978 0.930 1_556 S
C971 C970 1.394 . S
C971 C972 1.383 . S
C971 H979 0.929 . S
C972 C971 1.383 . S
C972 C973 1.377 . S
C973 H957 0.930 . S
C973 C972 1.377 . S
C973 C974 1.379 . S
C974 H958 0.931 . S
C974 C968 1.383 . S
C974 C973 1.379 . S
H975 C969 0.959 . S
H976 C969 0.961 . S
H977 C969 0.960 . S
H978 C970 0.930 1_554 S
H979 C971 0.929 . S
H980 C988 0.929 . S
H981 C990 0.930 . S
H982 C992 0.930 . S
H983 C995 0.929 . S
H984 C998 0.930 . S
H985 C1000 0.960 . S
H986 C1000 0.960 . S
H987 C1000 0.960 . S
C988 H980 0.929 . S
C988 C989 1.377 . S
C988 C990 1.384 . S
C989 C988 1.377 . S
C989 C995 1.390 . S
C990 H981 0.930 . S
C990 C988 1.384 . S
C990 C991 1.372 . S
C991 C990 1.372 . S
C991 C992 1.400 . S
C991 C996 1.490 . S
C992 H982 0.930 . S
C992 C991 1.400 . S
C992 C995 1.386 . S
H993 C1009 0.930 1_554 S
H994 C1010 0.931 . S
C995 H983 0.929 . S
C995 C989 1.390 . S
C995 C992 1.386 . S
C996 C991 1.490 . S
C996 C998 1.395 . S
C996 C999 1.403 . S
H997 C1003 0.930 . S
C998 H984 0.930 . S
C998 C996 1.395 . S
C998 C1001 1.403 . S
C999 C996 1.403 . S
C999 C1000 1.524 . S
C999 C1003 1.400 . S
C1000 H985 0.960 . S
C1000 H986 0.960 . S
C1000 H987 0.960 . S
C1000 C999 1.524 . S
C1001 C998 1.403 . S
C1001 C1002 1.392 . S
C1001 C1005 1.495 . S
C1002 C1001 1.392 . S
C1002 C1003 1.385 . S
C1002 C1004 1.478 1_554 S
C1003 H997 0.930 . S
C1003 C999 1.400 . S
C1003 C1002 1.385 . S
C1004 C1002 1.478 1_556 S
C1004 C1006 1.381 . S
C1004 C1010 1.383 1_556 S
C1005 C1001 1.495 . S
C1005 H1011 0.959 . S
C1005 H1012 0.961 . S
C1005 H1013 0.960 . S
C1006 C1004 1.381 . S
C1006 C1007 1.394 . S
C1006 H1014 0.930 . S
C1007 C1006 1.394 . S
C1007 C1008 1.383 . S
C1007 H1015 0.929 . S
C1008 C1007 1.383 . S
C1008 C1009 1.377 . S
C1009 H993 0.930 1_556 S
C1009 C1008 1.377 . S
C1009 C1010 1.379 1_556 S
C1010 H994 0.931 . S
C1010 C1004 1.383 1_554 S
C1010 C1009 1.379 1_554 S
H1011 C1005 0.959 . S
H1012 C1005 0.961 . S
H1013 C1005 0.960 . S
H1014 C1006 0.930 . S
H1015 C1007 0.929 . S
H1016 C1024 0.929 . S
H1017 C1026 0.944 . S
H1018 C1028 0.930 . S
H1019 C1031 0.929 . S
H1020 C1034 0.930 . S
H1021 C1036 0.960 1_554 S
H1022 C1036 0.960 1_554 S
H1023 C1036 0.960 . S
C1024 H1016 0.929 . S
C1024 C1025 1.377 . S
C1024 C1026 1.384 . S
C1025 C1024 1.377 . S
C1025 C1031 1.390 . S
C1026 H1017 0.944 . S
C1026 C1024 1.384 . S
C1026 C1027 1.372 . S
C1027 C1026 1.372 . S
C1027 C1028 1.400 . S
C1027 C1032 1.490 . S
C1028 H1018 0.930 . S
C1028 C1027 1.400 . S
C1028 C1031 1.386 . S
H1029 C1045 0.930 . S
H1030 C1046 0.931 . S
C1031 H1019 0.929 . S
C1031 C1025 1.390 . S
C1031 C1028 1.386 . S
C1032 C1027 1.490 . S
C1032 C1034 1.395 . S
C1032 C1035 1.403 . S
H1033 C1039 0.930 . S
C1034 H1020 0.930 . S
C1034 C1032 1.395 . S
C1034 C1037 1.403 . S
C1035 C1032 1.403 . S
C1035 C1036 1.524 . S
C1035 C1039 1.400 . S
C1036 H1021 0.960 1_556 S
C1036 H1022 0.960 1_556 S
C1036 H1023 0.960 . S
C1036 C1035 1.524 . S
C1037 C1034 1.403 . S
C1037 C1038 1.392 . S
C1037 C1041 1.495 . S
C1038 C1037 1.392 . S
C1038 C1039 1.385 . S
C1038 C1040 1.478 . S
C1039 H1033 0.930 . S
C1039 C1035 1.400 . S
C1039 C1038 1.385 . S
C1040 C1038 1.478 . S
C1040 C1042 1.381 . S
C1040 C1046 1.383 . S
C1041 C1037 1.495 . S
C1041 H1047 0.959 . S
C1041 H1048 0.961 . S
C1041 H1049 0.960 1_455 S
C1042 C1040 1.381 . S
C1042 C1043 1.397 . S
C1042 H1050 0.930 1_455 S
C1043 C1042 1.397 . S
C1043 C1044 1.410 . S
C1043 H1051 0.901 1_455 S
C1044 C1043 1.410 . S
C1044 C1045 1.377 . S
C1045 H1029 0.930 . S
C1045 C1044 1.377 . S
C1045 C1046 1.379 . S
C1046 H1030 0.931 . S
C1046 C1040 1.383 . S
C1046 C1045 1.379 . S
H1047 C1041 0.959 . S
H1048 C1041 0.961 . S
H1049 C1041 0.960 1_655 S
H1050 C1042 0.930 1_655 S
H1051 C1043 0.901 1_655 S
H1052 C1060 0.929 1_554 S
H1053 C1062 0.930 1_554 S
H1054 C1064 0.930 . S
H1055 C1067 0.929 . S
H1056 C1070 0.930 . S
H1057 C1072 0.960 . S
H1058 C1072 0.960 . S
H1059 C1072 0.960 . S
C1060 H1052 0.929 1_556 S
C1060 C1061 1.377 . S
C1060 C1062 1.384 . S
C1061 C1060 1.377 . S
C1061 C1067 1.390 . S
C1062 H1053 0.930 1_556 S
C1062 C1060 1.384 . S
C1062 C1063 1.372 . S
C1063 C1062 1.372 . S
C1063 C1064 1.400 . S
C1063 C1068 1.490 . S
C1064 H1054 0.930 . S
C1064 C1063 1.400 . S
C1064 C1067 1.386 . S
H1065 C1081 0.930 . S
H1066 C1082 0.931 . S
C1067 H1055 0.929 . S
C1067 C1061 1.390 . S
C1067 C1064 1.386 . S
C1068 C1063 1.490 . S
C1068 C1070 1.395 . S
C1068 C1071 1.403 . S
H1069 C1075 0.930 . S
C1070 H1056 0.930 . S
C1070 C1068 1.395 . S
C1070 C1073 1.403 . S
C1071 C1068 1.403 . S
C1071 C1072 1.524 . S
C1071 C1075 1.400 . S
C1072 H1057 0.960 . S
C1072 H1058 0.960 . S
C1072 H1059 0.960 . S
C1072 C1071 1.524 . S
C1073 C1070 1.403 . S
C1073 C1074 1.392 . S
C1073 C1077 1.495 1_545 S
C1074 C1073 1.392 . S
C1074 C1075 1.385 . S
C1074 C1076 1.478 . S
C1075 H1069 0.930 . S
C1075 C1071 1.400 . S
C1075 C1074 1.385 . S
C1076 C1074 1.478 . S
C1076 C1078 1.381 . S
C1076 C1082 1.383 . S
C1077 C1073 1.495 1_565 S
C1077 H1083 0.959 . S
C1077 H1084 0.961 . S
C1077 H1085 0.960 . S
C1078 C1076 1.381 . S
C1078 C1079 1.394 . S
C1078 H1086 0.930 . S
C1079 C1078 1.394 . S
C1079 C1080 1.383 . S
C1079 H1087 0.929 . S
C1080 C1079 1.383 . S
C1080 C1081 1.377 . S
C1081 H1065 0.930 . S
C1081 C1080 1.377 . S
C1081 C1082 1.379 . S
C1082 H1066 0.931 . S
C1082 C1076 1.383 . S
C1082 C1081 1.379 . S
H1083 C1077 0.959 . S
H1084 C1077 0.961 . S
H1085 C1077 0.960 . S
H1086 C1078 0.930 . S
H1087 C1079 0.929 . S
H1088 C1096 0.929 1_554 S
H1089 C1098 0.930 1_554 S
H1090 C1100 0.930 . S
H1091 C1103 0.929 . S
H1092 C1106 0.930 . S
H1093 C1108 0.960 . S
H1094 C1108 0.960 . S
H1095 C1108 0.960 . S
C1096 H1088 0.929 1_556 S
C1096 C1097 1.377 . S
C1096 C1098 1.384 . S
C1097 C1096 1.377 . S
C1097 C1103 1.390 . S
C1098 H1089 0.930 1_556 S
C1098 C1096 1.384 . S
C1098 C1099 1.372 . S
C1099 C1098 1.372 . S
C1099 C1100 1.400 . S
C1099 C1104 1.490 . S
C1100 H1090 0.930 . S
C1100 C1099 1.400 . S
C1100 C1103 1.386 . S
H1101 C1117 0.930 . S
H1102 C1118 0.931 . S
C1103 H1091 0.929 . S
C1103 C1097 1.390 . S
C1103 C1100 1.386 . S
C1104 C1099 1.490 . S
C1104 C1106 1.395 . S
C1104 C1107 1.403 . S
H1105 C1111 0.930 . S
C1106 H1092 0.930 . S
C1106 C1104 1.395 . S
C1106 C1109 1.403 . S
C1107 C1104 1.403 . S
C1107 C1108 1.524 . S
C1107 C1111 1.400 . S
C1108 H1093 0.960 . S
C1108 H1094 0.960 . S
C1108 H1095 0.960 . S
C1108 C1107 1.524 . S
C1109 C1106 1.403 . S
C1109 C1110 1.392 . S
C1109 C1113 1.495 . S
C1110 C1109 1.392 . S
C1110 C1111 1.385 . S
C1110 C1112 1.478 . S
C1111 H1105 0.930 . S
C1111 C1107 1.400 . S
C1111 C1110 1.385 . S
C1112 C1110 1.478 . S
C1112 C1114 1.381 . S
C1112 C1118 1.383 . S
C1113 C1109 1.495 . S
C1113 H1119 0.959 . S
C1113 H1120 0.961 . S
C1113 H1121 0.960 . S
C1114 C1112 1.381 . S
C1114 C1115 1.394 . S
C1114 H1122 0.930 . S
C1115 C1114 1.394 . S
C1115 C1116 1.383 . S
C1115 H1123 0.929 . S
C1116 C1115 1.383 . S
C1116 C1117 1.377 . S
C1117 H1101 0.930 . S
C1117 C1116 1.377 . S
C1117 C1118 1.379 . S
C1118 H1102 0.931 . S
C1118 C1112 1.383 . S
C1118 C1117 1.379 . S
H1119 C1113 0.959 . S
H1120 C1113 0.961 . S
H1121 C1113 0.960 . S
H1122 C1114 0.930 . S
H1123 C1115 0.929 . S
H1124 C1132 0.929 . S
H1125 C1134 0.930 . S
H1126 C1136 0.930 . S
H1127 C1139 0.929 1_554 S
H1128 C1142 0.930 . S
H1129 C1144 0.960 1_554 S
H1130 C1144 0.960 . S
H1131 C1144 0.960 1_554 S
C1132 H1124 0.929 . S
C1132 C1133 1.377 . S
C1132 C1134 1.384 . S
C1133 C1132 1.377 . S
C1133 C1139 1.390 . S
C1134 H1125 0.930 . S
C1134 C1132 1.384 . S
C1134 C1135 1.372 . S
C1135 C1134 1.372 . S
C1135 C1136 1.400 . S
C1135 C1140 1.490 . S
C1136 H1126 0.930 . S
C1136 C1135 1.400 . S
C1136 C1139 1.386 . S
H1137 C1153 0.930 . S
H1138 C1154 0.931 . S
C1139 H1127 0.929 1_556 S
C1139 C1133 1.390 . S
C1139 C1136 1.386 . S
C1140 C1135 1.490 . S
C1140 C1142 1.395 . S
C1140 C1143 1.403 . S
H1141 C1147 0.930 . S
C1142 H1128 0.930 . S
C1142 C1140 1.395 . S
C1142 C1145 1.403 . S
C1143 C1140 1.403 . S
C1143 C1144 1.524 . S
C1143 C1147 1.400 . S
C1144 H1129 0.960 1_556 S
C1144 H1130 0.960 . S
C1144 H1131 0.960 1_556 S
C1144 C1143 1.524 . S
C1145 C1142 1.403 . S
C1145 C1146 1.392 . S
C1145 C1149 1.495 . S
C1146 C1145 1.392 . S
C1146 C1147 1.385 . S
C1146 C1148 1.478 . S
C1147 H1141 0.930 . S
C1147 C1143 1.400 . S
C1147 C1146 1.385 . S
C1148 C1146 1.478 . S
C1148 C1150 1.381 . S
C1148 C1154 1.383 . S
C1149 C1145 1.495 . S
C1149 H1155 0.959 . S
C1149 H1156 0.961 . S
C1149 H1157 0.960 . S
C1150 C1148 1.381 . S
C1150 C1151 1.394 . S
C1150 H1158 0.930 . S
C1151 C1150 1.394 . S
C1151 C1152 1.383 . S
C1151 H1159 0.929 . S
C1152 C1151 1.383 . S
C1152 C1153 1.377 . S
C1153 H1137 0.930 . S
C1153 C1152 1.377 . S
C1153 C1154 1.379 . S
C1154 H1138 0.931 . S
C1154 C1148 1.383 . S
C1154 C1153 1.379 . S
H1155 C1149 0.959 . S
H1156 C1149 0.961 . S
H1157 C1149 0.960 . S
H1158 C1150 0.930 . S
H1159 C1151 0.929 . S
H1160 C1168 0.929 . S
H1161 C1170 0.930 . S
H1162 C1172 0.901 1_455 S
H1163 C1175 0.929 1_455 S
H1164 C1178 0.930 . S
H1165 C1180 0.960 . S
H1166 C1180 0.960 . S
H1167 C1180 0.960 . S
C1168 H1160 0.929 . S
C1168 C1169 1.377 . S
C1168 C1170 1.384 . S
C1169 C1168 1.377 . S
C1169 C1175 1.390 . S
C1170 H1161 0.930 . S
C1170 C1168 1.384 . S
C1170 C1171 1.372 . S
C1171 C1170 1.372 . S
C1171 C1172 1.426 . S
C1171 C1176 1.490 . S
C1172 H1162 0.901 1_655 S
C1172 C1171 1.426 . S
C1172 C1175 1.388 . S
H1173 C1189 0.930 . S
H1174 C1190 0.931 . S
C1175 H1163 0.929 1_655 S
C1175 C1169 1.390 . S
C1175 C1172 1.388 . S
C1176 C1171 1.490 . S
C1176 C1178 1.395 . S
C1176 C1179 1.403 . S
H1177 C1183 0.930 1_455 S
C1178 H1164 0.930 . S
C1178 C1176 1.395 . S
C1178 C1181 1.403 . S
C1179 C1176 1.403 . S
C1179 C1180 1.524 1_655 S
C1179 C1183 1.400 . S
C1180 H1165 0.960 . S
C1180 H1166 0.960 . S
C1180 H1167 0.960 . S
C1180 C1179 1.524 1_455 S
C1181 C1178 1.403 . S
C1181 C1182 1.392 . S
C1181 C1185 1.495 . S
C1182 C1181 1.392 . S
C1182 C1183 1.385 . S
C1182 C1184 1.478 . S
C1183 H1177 0.930 1_655 S
C1183 C1179 1.400 . S
C1183 C1182 1.385 . S
C1184 C1182 1.478 . S
C1184 C1186 1.381 . S
C1184 C1190 1.383 1_655 S
C1185 C1181 1.495 . S
C1185 H1191 0.959 . S
C1185 H1192 0.961 . S
C1185 H1193 0.960 . S
C1186 C1184 1.381 . S
C1186 C1187 1.394 . S
C1186 H1194 0.930 . S
C1187 C1186 1.394 . S
C1187 C1188 1.383 . S
C1187 H1195 0.929 . S
C1188 C1187 1.383 . S
C1188 C1189 1.377 1_655 S
C1189 H1173 0.930 . S
C1189 C1188 1.377 1_455 S
C1189 C1190 1.379 . S
C1190 H1174 0.931 . S
C1190 C1184 1.383 1_455 S
C1190 C1189 1.379 . S
H1191 C1185 0.959 . S
H1192 C1185 0.961 . S
H1193 C1185 0.960 . S
H1194 C1186 0.930 . S
H1195 C1187 0.929 . S
H1196 C1204 0.929 1_545 S
H1197 C1206 0.930 1_545 S
H1198 C1208 0.930 . S
H1199 C1211 0.929 . S
H1200 C1214 0.930 . S
H1201 C1216 0.951 1_545 S
H1202 C1216 0.924 1_545 S
H1203 C1216 0.997 . S
C1204 H1196 0.929 1_565 S
C1204 C1205 1.377 . S
C1204 C1206 1.384 . S
C1205 C1204 1.377 . S
C1205 C1211 1.390 . S
C1206 H1197 0.930 1_565 S
C1206 C1204 1.384 . S
C1206 C1207 1.372 . S
C1207 C1206 1.372 . S
C1207 C1208 1.400 . S
C1207 C1212 1.490 . S
C1208 H1198 0.930 . S
C1208 C1207 1.400 . S
C1208 C1211 1.386 . S
H1209 C1225 0.930 . S
H1210 C1226 0.931 . S
C1211 H1199 0.929 . S
C1211 C1205 1.390 . S
C1211 C1208 1.386 . S
C1212 C1207 1.490 . S
C1212 C1214 1.395 . S
C1212 C1215 1.403 . S
H1213 C1219 0.930 . S
C1214 H1200 0.930 . S
C1214 C1212 1.395 . S
C1214 C1217 1.403 . S
C1215 C1212 1.403 . S
C1215 C1216 1.534 . S
C1215 C1219 1.400 . S
C1216 H1201 0.951 1_565 S
C1216 H1202 0.924 1_565 S
C1216 H1203 0.997 . S
C1216 C1215 1.534 . S
C1217 C1214 1.403 . S
C1217 C1218 1.392 . S
C1217 C1221 1.495 . S
C1218 C1217 1.392 . S
C1218 C1219 1.385 . S
C1218 C1220 1.478 . S
C1219 H1213 0.930 . S
C1219 C1215 1.400 . S
C1219 C1218 1.385 . S
C1220 C1218 1.478 . S
C1220 C1222 1.381 1_565 S
C1220 C1226 1.383 . S
C1221 C1217 1.495 . S
C1221 H1227 0.959 . S
C1221 H1228 0.961 . S
C1221 H1229 0.960 . S
C1222 C1220 1.381 1_545 S
C1222 C1223 1.394 . S
C1222 H1230 0.930 . S
C1223 C1222 1.394 . S
C1223 C1224 1.383 1_545 S
C1223 H1231 0.929 . S
C1224 C1223 1.383 1_565 S
C1224 C1225 1.377 . S
C1225 H1209 0.930 . S
C1225 C1224 1.377 . S
C1225 C1226 1.379 . S
C1226 H1210 0.931 . S
C1226 C1220 1.383 . S
C1226 C1225 1.379 . S
H1227 C1221 0.959 . S
H1228 C1221 0.961 . S
H1229 C1221 0.960 . S
H1230 C1222 0.930 . S
H1231 C1223 0.929 . S
H1232 C1240 0.929 . S
H1233 C1242 0.930 . S
H1234 C1244 0.930 . S
H1235 C1247 0.929 . S
H1236 C1250 0.930 . S
H1237 C1252 0.960 . S
H1238 C1252 0.960 . S
H1239 C1252 0.960 . S
C1240 H1232 0.929 . S
C1240 C1241 1.377 . S
C1240 C1242 1.384 . S
C1241 C1240 1.377 . S
C1241 C1247 1.390 . S
C1242 H1233 0.930 . S
C1242 C1240 1.384 . S
C1242 C1243 1.372 . S
C1243 C1242 1.372 . S
C1243 C1244 1.400 . S
C1243 C1248 1.490 . S
C1244 H1234 0.930 . S
C1244 C1243 1.400 . S
C1244 C1247 1.386 . S
H1245 C1261 0.930 . S
H1246 C1262 0.931 . S
C1247 H1235 0.929 . S
C1247 C1241 1.390 . S
C1247 C1244 1.386 . S
C1248 C1243 1.490 . S
C1248 C1250 1.395 . S
C1248 C1251 1.403 . S
H1249 C1255 0.930 . S
C1250 H1236 0.930 . S
C1250 C1248 1.395 . S
C1250 C1253 1.403 . S
C1251 C1248 1.403 . S
C1251 C1252 1.524 . S
C1251 C1255 1.400 . S
C1252 H1237 0.960 . S
C1252 H1238 0.960 . S
C1252 H1239 0.960 . S
C1252 C1251 1.524 . S
C1253 C1250 1.403 . S
C1253 C1254 1.392 . S
C1253 C1257 1.495 . S
C1254 C1253 1.392 . S
C1254 C1255 1.385 . S
C1254 C1256 1.478 . S
C1255 H1249 0.930 . S
C1255 C1251 1.400 . S
C1255 C1254 1.385 . S
C1256 C1254 1.478 . S
C1256 C1258 1.381 . S
C1256 C1262 1.383 . S
C1257 C1253 1.495 . S
C1257 H1263 0.959 . S
C1257 H1264 0.961 . S
C1257 H1265 0.960 . S
C1258 C1256 1.381 . S
C1258 C1259 1.394 . S
C1258 H1266 0.930 . S
C1259 C1258 1.394 . S
C1259 C1260 1.383 . S
C1259 H1267 0.929 . S
C1260 C1259 1.383 . S
C1260 C1261 1.377 . S
C1261 H1245 0.930 . S
C1261 C1260 1.377 . S
C1261 C1262 1.379 . S
C1262 H1246 0.931 . S
C1262 C1256 1.383 . S
C1262 C1261 1.379 . S
H1263 C1257 0.959 . S
H1264 C1257 0.961 . S
H1265 C1257 0.960 . S
H1266 C1258 0.930 . S
H1267 C1259 0.929 . S
H1268 C1276 0.929 . S
H1269 C1278 0.930 . S
H1270 C1280 0.930 . S
H1271 C1283 0.929 . S
H1272 C1286 0.930 . S
H1273 C1288 0.960 . S
H1274 C1288 0.960 . S
H1275 C1288 0.960 . S
C1276 H1268 0.929 . S
C1276 C1277 1.377 . S
C1276 C1278 1.384 . S
C1277 C1276 1.377 . S
C1277 C1283 1.390 . S
C1278 H1269 0.930 . S
C1278 C1276 1.384 . S
C1278 C1279 1.372 . S
C1279 C1278 1.372 . S
C1279 C1280 1.400 . S
C1279 C1284 1.490 . S
C1280 H1270 0.930 . S
C1280 C1279 1.400 . S
C1280 C1283 1.386 . S
H1281 C1297 0.930 . S
H1282 C1298 0.931 . S
C1283 H1271 0.929 . S
C1283 C1277 1.390 . S
C1283 C1280 1.386 . S
C1284 C1279 1.490 . S
C1284 C1286 1.395 . S
C1284 C1287 1.403 . S
H1285 C1291 0.930 . S
C1286 H1272 0.930 . S
C1286 C1284 1.395 . S
C1286 C1289 1.403 . S
C1287 C1284 1.403 . S
C1287 C1288 1.524 . S
C1287 C1291 1.400 . S
C1288 H1273 0.960 . S
C1288 H1274 0.960 . S
C1288 H1275 0.960 . S
C1288 C1287 1.524 . S
C1289 C1286 1.403 . S
C1289 C1290 1.392 . S
C1289 C1293 1.495 . S
C1290 C1289 1.392 . S
C1290 C1291 1.385 . S
C1290 C1292 1.478 . S
C1291 H1285 0.930 . S
C1291 C1287 1.400 . S
C1291 C1290 1.385 . S
C1292 C1290 1.478 . S
C1292 C1294 1.381 . S
C1292 C1298 1.383 . S
C1293 C1289 1.495 . S
C1293 H1299 0.959 . S
C1293 H1300 0.961 . S
C1293 H1301 0.960 . S
C1294 C1292 1.381 . S
C1294 C1295 1.394 . S
C1294 H1302 0.930 . S
C1295 C1294 1.394 . S
C1295 C1296 1.383 . S
C1295 H1303 0.929 . S
C1296 C1295 1.383 . S
C1296 C1297 1.377 . S
C1297 H1281 0.930 . S
C1297 C1296 1.377 . S
C1297 C1298 1.379 . S
C1298 H1282 0.931 . S
C1298 C1292 1.383 . S
C1298 C1297 1.379 . S
H1299 C1293 0.959 . S
H1300 C1293 0.961 . S
H1301 C1293 0.960 . S
H1302 C1294 0.930 . S
H1303 C1295 0.929 . S
C449 N80 1.891 . S
C468 C167 1.934 . S
C504 C244 1.954 . S
C485 N93 1.894 . S
C540 C335 1.917 . S
C521 N54 1.881 . S
C576 C419 1.908 . S
C557 N67 1.880 . S
C612 C178 1.934 . S
C593 N28 1.898 . S
C629 N41 1.898 . S
C648 C255 1.953 . S
C665 N2 1.884 . S
C684 C346 1.920 . S
C701 N15 1.884 . S
C720 C430 1.928 1_655 S
C756 C162 0.552 1_455 S
C737 N70 0.389 . S
C792 C257 0.476 . S
C773 N83 0.366 . S
C828 C330 0.621 . S
C809 N96 0.398 . S
C845 N57 0.374 . S
C864 C414 0.476 . S
C881 N18 0.387 . S
C900 C173 0.541 . S
C936 C246 0.588 . S
C917 N31 0.370 . S
C972 C341 0.457 . S
C953 N44 0.395 . S
C989 N5 0.369 . S
C1008 C425 0.620 . S
C1025 N66 1.925 1_556 S
C1044 C171 1.976 . S
C1061 N79 1.929 1_556 S
C1080 C262 1.971 . S
C1116 C339 1.999 . S
C1097 N92 1.946 . S
C1152 C423 1.997 . S
C1133 N53 1.940 1_556 S
C1169 N14 1.934 . S
C1188 C160 1.975 . S
C1224 C251 1.975 1_565 S
C1205 N27 1.941 . S
C1260 C328 1.999 . S
C1241 N40 1.954 . S
C1277 N1 1.959 . S
C1296 C412 2.010 . S
