# Generated by pormake.
# Topology the, (3,8)-cn, num edge types: 1
# Building blocks:
#     Node 0, Type 0, BuildingBlock: BELTOD_clean_linker_0, # of connection points: 3
#     Node 1, Type 0, BuildingBlock: BELTOD_clean_linker_0, # of connection points: 3
#     Node 2, Type 0, BuildingBlock: BELTOD_clean_linker_0, # of connection points: 3
#     Node 3, Type 0, BuildingBlock: BELTOD_clean_linker_0, # of connection points: 3
#     Node 4, Type 0, BuildingBlock: BELTOD_clean_linker_0, # of connection points: 3
#     Node 5, Type 0, BuildingBlock: BELTOD_clean_linker_0, # of connection points: 3
#     Node 6, Type 0, BuildingBlock: BELTOD_clean_linker_0, # of connection points: 3
#     Node 7, Type 0, BuildingBlock: BELTOD_clean_linker_0, # of connection points: 3
#     Node 8, Type 1, BuildingBlock: GIZVER_clean_sbu_0, # of connection points: 8
#     Node 9, Type 1, BuildingBlock: GIZVER_clean_sbu_0, # of connection points: 8
#     Node 10, Type 1, BuildingBlock: GIZVER_clean_sbu_0, # of connection points: 8
#     Edge 11, Type (0, 1), BuildingBlock: EZIPEK_clean_linker_0, # of connection points: 2
#     Edge 12, Type (0, 1), BuildingBlock: EZIPEK_clean_linker_0, # of connection points: 2
#     Edge 13, Type (0, 1), BuildingBlock: EZIPEK_clean_linker_0, # of connection points: 2
#     Edge 14, Type (0, 1), BuildingBlock: EZIPEK_clean_linker_0, # of connection points: 2
#     Edge 15, Type (0, 1), BuildingBlock: EZIPEK_clean_linker_0, # of connection points: 2
#     Edge 16, Type (0, 1), BuildingBlock: EZIPEK_clean_linker_0, # of connection points: 2
#     Edge 17, Type (0, 1), BuildingBlock: EZIPEK_clean_linker_0, # of connection points: 2
#     Edge 18, Type (0, 1), BuildingBlock: EZIPEK_clean_linker_0, # of connection points: 2
#     Edge 19, Type (0, 1), BuildingBlock: EZIPEK_clean_linker_0, # of connection points: 2
#     Edge 20, Type (0, 1), BuildingBlock: EZIPEK_clean_linker_0, # of connection points: 2
#     Edge 21, Type (0, 1), BuildingBlock: EZIPEK_clean_linker_0, # of connection points: 2
#     Edge 22, Type (0, 1), BuildingBlock: EZIPEK_clean_linker_0, # of connection points: 2
#     Edge 23, Type (0, 1), BuildingBlock: EZIPEK_clean_linker_0, # of connection points: 2
#     Edge 24, Type (0, 1), BuildingBlock: EZIPEK_clean_linker_0, # of connection points: 2
#     Edge 25, Type (0, 1), BuildingBlock: EZIPEK_clean_linker_0, # of connection points: 2
#     Edge 26, Type (0, 1), BuildingBlock: EZIPEK_clean_linker_0, # of connection points: 2
#     Edge 27, Type (0, 1), BuildingBlock: EZIPEK_clean_linker_0, # of connection points: 2
#     Edge 28, Type (0, 1), BuildingBlock: EZIPEK_clean_linker_0, # of connection points: 2
#     Edge 29, Type (0, 1), BuildingBlock: EZIPEK_clean_linker_0, # of connection points: 2
#     Edge 30, Type (0, 1), BuildingBlock: EZIPEK_clean_linker_0, # of connection points: 2
#     Edge 31, Type (0, 1), BuildingBlock: EZIPEK_clean_linker_0, # of connection points: 2
#     Edge 32, Type (0, 1), BuildingBlock: EZIPEK_clean_linker_0, # of connection points: 2
#     Edge 33, Type (0, 1), BuildingBlock: EZIPEK_clean_linker_0, # of connection points: 2
#     Edge 34, Type (0, 1), BuildingBlock: EZIPEK_clean_linker_0, # of connection points: 2
# Relax obj value: 0.050
# Max RMSD: 0.141
# Mean RMSD: 0.078
data_MOF--net-the--node1-GIZVER_clean_sbu_0--node2-BELTOD_clean_linker_0--edge1-EZIPEK_clean_linker_0
_symmetry_space_group_name_H-M    P1
_symmetry_Int_Tables_number       1
_symmetry_cell_setting            triclinic
loop_
_symmetry_equiv_pos_as_xyz
'x, y, z'
_cell_length_a     36.365594
_cell_length_b     34.355426
_cell_length_c     31.259605
_cell_angle_alpha  86.502341
_cell_angle_beta   95.555556
_cell_angle_gamma 104.83225
loop_
_atom_site_label
_atom_site_type_symbol
_atom_site_fract_x
_atom_site_fract_y
_atom_site_fract_z
_atom_type_partial_charge
P0 P 0.36283 0.39524 0.4554 0.0
H1 H 0.32658 0.4292 0.51863 0.0
H2 H 0.26 0.43095 0.52349 0.0
H3 H 0.2251 0.35699 0.41287 0.0
H4 H 0.29127 0.35447 0.40845 0.0
H5 H 0.42416 0.36119 0.43603 0.0
H6 H 0.43807 0.29588 0.45353 0.0
H7 H 0.34291 0.26223 0.53222 0.0
H8 H 0.3282 0.3276 0.51372 0.0
H9 H 0.38992 0.46999 0.40437 0.0
H10 H 0.34975 0.34274 0.38224 0.0
O11 O 0.39162 0.43217 0.48404 0.0
H12 H 0.40127 0.48302 0.32783 0.0
H13 H 0.36087 0.35587 0.30609 0.0
C14 C 0.31391 0.39273 0.46238 0.0
C15 C 0.30459 0.41303 0.49571 0.0
C16 C 0.26673 0.41385 0.49866 0.0
C17 C 0.23801 0.39432 0.4683 0.0
C18 C 0.24707 0.37227 0.43641 0.0
C19 C 0.28483 0.37117 0.43373 0.0
C20 C 0.37447 0.34864 0.47241 0.0
C21 C 0.40615 0.3398 0.45692 0.0
C22 C 0.41413 0.30264 0.46696 0.0
C23 C 0.39108 0.2741 0.4935 0.0
C24 C 0.36062 0.28376 0.51118 0.0
C25 C 0.35227 0.32093 0.50056 0.0
C26 C 0.36985 0.40533 0.39912 0.0
C27 C 0.38343 0.44496 0.38313 0.0
C28 C 0.3896 0.45244 0.33954 0.0
C29 C 0.38178 0.42035 0.31158 0.0
C30 C 0.36693 0.38093 0.3273 0.0
C31 C 0.36087 0.3735 0.37075 0.0
P32 P 0.72495 0.30753 0.26295 0.0
H33 H 0.80347 0.30592 0.2903 0.0
H34 H 0.85386 0.34799 0.33761 0.0
H35 H 0.77808 0.42146 0.35957 0.0
H36 H 0.7271 0.37865 0.31282 0.0
H37 H 0.72761 0.22426 0.28656 0.0
H38 H 0.68726 0.17049 0.32931 0.0
H39 H 0.62075 0.25195 0.35681 0.0
H40 H 0.66124 0.3059 0.31425 0.0
H41 H 0.73293 0.39181 0.22981 0.0
H42 H 0.64955 0.27744 0.21883 0.0
O43 O 0.74598 0.28558 0.2296 0.0
H44 H 0.68984 0.42404 0.18312 0.0
H45 H 0.60702 0.30953 0.17172 0.0
C46 C 0.76188 0.33994 0.29687 0.0
C47 C 0.79766 0.33125 0.30493 0.0
C48 C 0.8264 0.35509 0.33206 0.0
C49 C 0.81983 0.38806 0.35167 0.0
C50 C 0.78379 0.39638 0.34434 0.0
C51 C 0.75484 0.37214 0.31753 0.0
C52 C 0.69692 0.26882 0.29659 0.0
C53 C 0.70444 0.23065 0.30183 0.0
C54 C 0.68153 0.2 0.32624 0.0
C55 C 0.65095 0.20727 0.34588 0.0
C56 C 0.64414 0.2458 0.34169 0.0
C57 C 0.66716 0.27648 0.31744 0.0
C58 C 0.69382 0.33249 0.22935 0.0
C59 C 0.70534 0.37369 0.2178 0.0
C60 C 0.68103 0.39199 0.1907 0.0
C61 C 0.64532 0.36908 0.17395 0.0
C62 C 0.63448 0.32765 0.18422 0.0
C63 C 0.6586 0.30951 0.21151 0.0
P64 P 0.74531 0.77018 0.26818 0.0
H65 H 0.67743 0.80045 0.25119 0.0
H66 H 0.64609 0.8383 0.29372 0.0
H67 H 0.72978 0.83508 0.40051 0.0
H68 H 0.76146 0.7974 0.35783 0.0
H69 H 0.82515 0.77647 0.25466 0.0
H70 H 0.87287 0.7435 0.29012 0.0
H71 H 0.79213 0.68136 0.37918 0.0
H72 H 0.74391 0.7142 0.34332 0.0
H73 H 0.6701 0.71676 0.28472 0.0
H74 H 0.74855 0.73613 0.1859 0.0
O75 O 0.76646 0.80543 0.23309 0.0
H76 H 0.62487 0.66487 0.24172 0.0
H77 H 0.70355 0.68385 0.14331 0.0
C78 C 0.7211 0.79498 0.3017 0.0
C79 C 0.68884 0.80741 0.28392 0.0
C80 C 0.67114 0.82927 0.308 0.0
C81 C 0.68562 0.83942 0.35021 0.0
C82 C 0.71817 0.82743 0.368 0.0
C83 C 0.73598 0.8056 0.34376 0.0
C84 C 0.78117 0.74838 0.29691 0.0
C85 C 0.81769 0.75619 0.28212 0.0
C86 C 0.84494 0.73731 0.3022 0.0
C87 C 0.83604 0.71025 0.33733 0.0
C88 C 0.79954 0.70241 0.35226 0.0
C89 C 0.77216 0.72117 0.33195 0.0
C90 C 0.71221 0.73108 0.23791 0.0
C91 C 0.67755 0.71 0.2538 0.0
C92 C 0.65184 0.68032 0.22942 0.0
C93 C 0.66085 0.67086 0.18927 0.0
C94 C 0.69607 0.69096 0.1741 0.0
C95 C 0.7216 0.72081 0.19832 0.0
P96 P 0.28808 0.71551 0.2872 0.0
H97 H 0.2973 0.80275 0.28128 0.0
H98 H 0.33937 0.85867 0.32107 0.0
H99 H 0.38538 0.77438 0.40361 0.0
H100 H 0.34314 0.71796 0.36348 0.0
H101 H 0.263 0.63446 0.25418 0.0
H102 H 0.29606 0.59277 0.21903 0.0
H103 H 0.40271 0.68154 0.24322 0.0
H104 H 0.36965 0.72366 0.27766 0.0
H105 H 0.20721 0.71514 0.27674 0.0
H106 H 0.27966 0.65561 0.35949 0.0
O107 O 0.27145 0.73601 0.24203 0.0
H108 H 0.15116 0.67439 0.31029 0.0
H109 H 0.22314 0.61495 0.39368 0.0
C110 C 0.31752 0.75613 0.31894 0.0
C111 C 0.31627 0.79606 0.30797 0.0
C112 C 0.34015 0.82805 0.33075 0.0
C113 C 0.3655 0.82065 0.36515 0.0
C114 C 0.36595 0.78065 0.37714 0.0
C115 C 0.34198 0.74855 0.35424 0.0
C116 C 0.31397 0.68171 0.26974 0.0
C117 C 0.29365 0.64456 0.25296 0.0
C118 C 0.31241 0.62086 0.23266 0.0
C119 C 0.35182 0.63399 0.22878 0.0
C120 C 0.37233 0.67073 0.24631 0.0
C121 C 0.35348 0.69461 0.26625 0.0
C122 C 0.24761 0.68808 0.31528 0.0
C123 C 0.21117 0.69356 0.30234 0.0
C124 C 0.17914 0.67038 0.32153 0.0
C125 C 0.183 0.64159 0.35429 0.0
C126 C 0.21962 0.63703 0.36841 0.0
C127 C 0.25176 0.66016 0.34895 0.0
P128 P 0.34904 0.68137 0.69593 0.0
H129 H 0.30821 0.63616 0.62246 0.0
H130 H 0.241 0.6111 0.59866 0.0
H131 H 0.20971 0.66411 0.70668 0.0
H132 H 0.27803 0.68946 0.73122 0.0
H133 H 0.4243 0.72521 0.67334 0.0
H134 H 0.4526 0.79488 0.65274 0.0
H135 H 0.34591 0.82465 0.66446 0.0
H136 H 0.31766 0.7542 0.68816 0.0
H137 H 0.30938 0.63729 0.77099 0.0
H138 H 0.42429 0.69584 0.74111 0.0
O139 O 0.37074 0.65638 0.66652 0.0
H140 H 0.3346 0.61379 0.84093 0.0
H141 H 0.44924 0.67101 0.80885 0.0
C142 C 0.29844 0.66403 0.67934 0.0
C143 C 0.28724 0.64237 0.64155 0.0
C144 C 0.24872 0.62807 0.6277 0.0
C145 C 0.22032 0.63532 0.65106 0.0
C146 C 0.23123 0.65787 0.6884 0.0
C147 C 0.27012 0.67223 0.70241 0.0
C148 C 0.36882 0.73421 0.68262 0.0
C149 C 0.40703 0.74663 0.67301 0.0
C150 C 0.4233 0.78658 0.66114 0.0
C151 C 0.40158 0.81516 0.65749 0.0
C152 C 0.36338 0.80323 0.66776 0.0
C153 C 0.3472 0.76297 0.68084 0.0
C154 C 0.36476 0.66934 0.7508 0.0
C155 C 0.33981 0.64594 0.77958 0.0
C156 C 0.35431 0.63207 0.81939 0.0
C157 C 0.39401 0.6405 0.83044 0.0
C158 C 0.41856 0.66446 0.80174 0.0
C159 C 0.40413 0.67884 0.76274 0.0
P160 P 0.33219 0.31518 0.67311 0.0
H161 H 0.39055 0.29506 0.73593 0.0
H162 H 0.42033 0.32521 0.80413 0.0
H163 H 0.33694 0.39499 0.79993 0.0
H164 H 0.30821 0.36633 0.73133 0.0
H165 H 0.38008 0.29032 0.61545 0.0
H166 H 0.38945 0.22482 0.60002 0.0
H167 H 0.30529 0.16628 0.68681 0.0
H168 H 0.29595 0.23242 0.70288 0.0
H169 H 0.29909 0.34937 0.59528 0.0
H170 H 0.2601 0.29138 0.71485 0.0
O171 O 0.36195 0.34999 0.64465 0.0
H172 H 0.23845 0.36807 0.57903 0.0
H173 H 0.19943 0.31074 0.69865 0.0
C174 C 0.34642 0.32748 0.72881 0.0
C175 C 0.37776 0.31569 0.75042 0.0
C176 C 0.39474 0.33284 0.78941 0.0
C177 C 0.38066 0.36211 0.80732 0.0
C178 C 0.34789 0.37201 0.78707 0.0
C179 C 0.33136 0.3554 0.74784 0.0
C180 C 0.33742 0.26633 0.66061 0.0
C181 C 0.36341 0.26358 0.6312 0.0
C182 C 0.36871 0.22617 0.62213 0.0
C183 C 0.34807 0.1908 0.64218 0.0
C184 C 0.32136 0.1933 0.6709 0.0
C185 C 0.31616 0.23093 0.68015 0.0
C186 C 0.28449 0.32003 0.65692 0.0
C187 C 0.27728 0.33998 0.61768 0.0
C188 C 0.24263 0.35051 0.60822 0.0
C189 C 0.21472 0.34106 0.6378 0.0
C190 C 0.22068 0.31823 0.67546 0.0
C191 C 0.25528 0.30735 0.68472 0.0
P192 P 0.74741 0.2936 0.75124 0.0
H193 H 0.75884 0.22641 0.70612 0.0
H194 H 0.71565 0.17344 0.66265 0.0
H195 H 0.62155 0.22403 0.68052 0.0
H196 H 0.66464 0.27704 0.72383 0.0
H197 H 0.81545 0.35591 0.77676 0.0
H198 H 0.86461 0.40196 0.73631 0.0
H199 H 0.80594 0.35273 0.61753 0.0
H200 H 0.75655 0.30702 0.65781 0.0
H201 H 0.72966 0.28824 0.84133 0.0
H202 H 0.7119 0.36082 0.72748 0.0
O203 O 0.7717 0.26917 0.78661 0.0
H204 H 0.69855 0.32704 0.88285 0.0
H205 H 0.68002 0.39935 0.76911 0.0
C206 C 0.71501 0.25563 0.71843 0.0
C207 C 0.72889 0.22609 0.70077 0.0
C208 C 0.7043 0.19581 0.6761 0.0
C209 C 0.66532 0.1945 0.6688 0.0
C210 C 0.65147 0.22428 0.68614 0.0
C211 C 0.67612 0.25463 0.71075 0.0
C212 C 0.78238 0.32794 0.7204 0.0
C213 C 0.81315 0.35499 0.74201 0.0
C214 C 0.84129 0.38106 0.71902 0.0
C215 C 0.83913 0.38043 0.67399 0.0
C216 C 0.80831 0.35337 0.65231 0.0
C217 C 0.78005 0.3274 0.67533 0.0
C218 C 0.72333 0.32175 0.78127 0.0
C219 C 0.71911 0.31251 0.82519 0.0
C220 C 0.7014 0.33468 0.84899 0.0
C221 C 0.68708 0.36621 0.82918 0.0
C222 C 0.69102 0.37529 0.7851 0.0
C223 C 0.70906 0.35326 0.76135 0.0
P224 P 0.77619 0.75773 0.69491 0.0
H225 H 0.83027 0.79782 0.63427 0.0
H226 H 0.86673 0.77281 0.58476 0.0
H227 H 0.8139 0.6506 0.62534 0.0
H228 H 0.77495 0.67522 0.67119 0.0
H229 H 0.76309 0.83809 0.69603 0.0
H230 H 0.71908 0.87091 0.65243 0.0
H231 H 0.67524 0.76372 0.5796 0.0
H232 H 0.71949 0.73065 0.62335 0.0
H233 H 0.79665 0.69174 0.74773 0.0
H234 H 0.6985 0.74113 0.722 0.0
O235 O 0.80777 0.79127 0.72512 0.0
H236 H 0.76001 0.63841 0.79418 0.0
H237 H 0.66303 0.68971 0.77028 0.0
C238 C 0.80145 0.73847 0.6581 0.0
C239 C 0.82647 0.76564 0.63232 0.0
C240 C 0.84713 0.75146 0.60412 0.0
C241 C 0.8439 0.70997 0.60263 0.0
C242 C 0.81745 0.68279 0.6269 0.0
C243 C 0.79572 0.69693 0.65373 0.0
C244 C 0.74462 0.78217 0.66255 0.0
C245 C 0.74424 0.82168 0.67058 0.0
C246 C 0.71923 0.84036 0.64579 0.0
C247 C 0.69423 0.81963 0.61293 0.0
C248 C 0.69454 0.78005 0.6048 0.0
C249 C 0.71966 0.76135 0.62964 0.0
C250 C 0.74986 0.71945 0.73007 0.0
C251 C 0.76725 0.691 0.75184 0.0
C252 C 0.74652 0.66078 0.77844 0.0
C253 C 0.70883 0.66013 0.78548 0.0
C254 C 0.69199 0.68954 0.76494 0.0
C255 C 0.71229 0.71889 0.73734 0.0
Co256 Co 0.07883 0.47064 0.55031 0.0
Co257 Co 0.04703 0.45721 0.472 0.0
Co258 Co 0.01027 0.51862 0.51274 0.0
O259 O 0.0288 0.46844 0.52231 0.0
H260 H 1.00947 0.44559 0.5321 0.0
O261 O 0.9932 0.56931 0.50343 0.0
Co262 Co 0.94873 0.57284 0.46715 0.0
Co263 Co 0.96811 0.57859 0.54816 0.0
H264 H 0.01445 0.59251 0.50034 0.0
O265 O 0.05885 0.40883 0.46095 0.0
O266 O 0.09682 0.46195 0.49528 0.0
O267 O 0.04996 0.49764 0.42625 0.0
O268 O 0.04951 0.54525 0.47034 0.0
O269 O 0.97333 0.49238 0.46449 0.0
O270 O 0.90966 0.58013 0.43195 0.0
O271 O 0.96516 0.62523 0.44889 0.0
O272 O 0.92597 0.51776 0.47951 0.0
O273 O 0.97026 0.49101 0.554 0.0
O274 O 0.95113 0.53595 0.58887 0.0
O275 O 0.92615 0.58984 0.51683 0.0
O276 O 0.97026 0.62942 0.5615 0.0
C277 C 0.10474 0.43005 0.58428 0.0
C278 C 0.08235 0.54906 0.56202 0.0
C279 C 0.05671 0.53469 0.434 0.0
C280 C 0.09227 0.42769 0.47758 0.0
C281 C 0.93134 0.61645 0.42795 0.0
C282 C 0.93779 0.49144 0.46174 0.0
C283 C 0.95105 0.49993 0.58258 0.0
C284 C 0.9384 0.62347 0.53713 0.0
O285 O 0.12293 0.46752 0.57768 0.0
O286 O 0.07013 0.41758 0.56602 0.0
O287 O 0.04652 0.54525 0.56148 0.0
O288 O 0.09487 0.52669 0.53946 0.0
Co289 Co 0.5576 0.94601 0.46597 0.0
Co290 Co 0.57096 0.9661 0.54599 0.0
Co291 Co 0.51607 0.01695 0.50279 0.0
O292 O 0.55999 0.9936 0.49581 0.0
H293 H 0.58255 0.0144 0.48969 0.0
O294 O 0.47161 0.04108 0.50983 0.0
Co295 Co 0.46431 0.06896 0.56023 0.0
Co296 Co 0.47426 0.09044 0.48265 0.0
H297 H 0.44781 0.02256 0.50033 0.0
O298 O 0.61893 0.96095 0.56133 0.0
O299 O 0.57113 0.9185 0.52179 0.0
O300 O 0.5349 0.95323 0.58927 0.0
O301 O 0.49087 0.97375 0.54617 0.0
O302 O 0.55122 0.05025 0.54841 0.0
O303 O 0.45361 0.09181 0.60473 0.0
O304 O 0.41207 0.05654 0.55478 0.0
O305 O 0.51659 0.08699 0.57355 0.0
O306 O 0.5409 0.0585 0.45782 0.0
O307 O 0.51877 0.11369 0.45426 0.0
O308 O 0.46656 0.11988 0.52596 0.0
O309 O 0.43204 0.10756 0.46183 0.0
C310 C 0.59501 0.92242 0.43656 0.0
C311 C 0.47934 0.94478 0.45472 0.0
C312 C 0.50048 0.95372 0.5794 0.0
C313 C 0.60432 0.92619 0.54433 0.0
C314 C 0.4185 0.07738 0.58967 0.0
C315 C 0.54821 0.07905 0.57051 0.0
C316 C 0.54243 0.09496 0.44484 0.0
C317 C 0.44122 0.128 0.49667 0.0
O318 O 0.55924 0.90339 0.43713 0.0
O319 O 0.60722 0.9574 0.4544 0.0
O320 O 0.48312 0.98274 0.4565 0.0
O321 O 0.50479 0.92803 0.47191 0.0
Co322 Co 0.47254 0.5263 0.10268 0.0
Co323 Co 0.45754 0.4511 0.08328 0.0
Co324 Co 0.51296 0.50648 0.01479 0.0
O325 O 0.46781 0.4983 0.04974 0.0
H326 H 0.44499 0.49999 0.03192 0.0
O327 O 0.55938 0.51509 0.98218 0.0
Co328 Co 0.56263 0.48282 0.93574 0.0
Co329 Co 0.56289 0.55366 0.93995 0.0
H330 H 0.58253 0.52028 1.00124 0.0
O331 O 0.41026 0.42826 0.10523 0.0
O332 O 0.45982 0.47452 0.13589 0.0
O333 O 0.49674 0.42256 0.0887 0.0
O334 O 0.53883 0.469 0.05286 0.0
O335 O 0.48284 0.46122 0.9765 0.0
O336 O 0.56822 0.45166 0.89487 0.0
O337 O 0.61157 0.47835 0.94851 0.0
O338 O 0.51244 0.48161 0.91699 0.0
O339 O 0.48661 0.54442 0.97852 0.0
O340 O 0.51912 0.57406 0.92351 0.0
O341 O 0.58093 0.53176 0.89704 0.0
O342 O 0.60828 0.58786 0.93562 0.0
C343 C 0.43713 0.55011 0.13499 0.0
C344 C 0.54821 0.5516 0.09057 0.0
C345 C 0.53034 0.43752 0.07784 0.0
C346 C 0.42667 0.44916 0.13816 0.0
C347 C 0.60177 0.45553 0.91511 0.0
C348 C 0.48371 0.46104 0.93542 0.0
C349 C 0.48995 0.56734 0.94457 0.0
C350 C 0.6074 0.56548 0.90319 0.0
O351 O 0.47248 0.55345 0.14954 0.0
O352 O 0.42361 0.53007 0.10022 0.0
O353 O 0.54287 0.55291 0.04981 0.0
O354 O 0.52466 0.527 0.11266 0.0
C355 C 0.16957 0.37027 0.48517 0.0
C356 C 0.1991 0.40034 0.46714 0.0
C357 C 0.15511 0.44284 0.44696 0.0
C358 C 0.12681 0.41511 0.46932 0.0
N359 N 0.10311 0.34911 0.50169 0.0
N360 N 0.22134 0.46534 0.43149 0.0
C361 C 0.13273 0.37757 0.4858 0.0
C362 C 0.19217 0.43654 0.44792 0.0
N363 N 0.17747 0.33566 0.50312 0.0
N364 N 0.1457 0.47401 0.42275 0.0
H365 H 0.24837 0.46096 0.42894 0.0
H366 H 0.21961 0.49452 0.42247 0.0
H367 H 0.11818 0.47828 0.41955 0.0
H368 H 0.16372 0.49321 0.40228 0.0
H369 H 0.15819 0.31277 0.51846 0.0
H370 H 0.20429 0.32985 0.50357 0.0
H371 H 0.10409 0.31989 0.51126 0.0
H372 H 0.07629 0.35409 0.50384 0.0
C373 C 0.59 0.15297 0.34891 0.0
C374 C 0.62517 0.17422 0.36983 0.0
C375 C 0.60986 0.13406 0.43646 0.0
C376 C 0.57266 0.11694 0.41726 0.0
N377 N 0.52644 0.10964 0.3558 0.0
N378 N 0.66833 0.18731 0.43381 0.0
C379 C 0.5626 0.12605 0.37348 0.0
C380 C 0.63524 0.16508 0.41361 0.0
N381 N 0.58313 0.15816 0.30541 0.0
N382 N 0.62082 0.12066 0.47656 0.0
H383 H 0.68795 0.20964 0.41787 0.0
H384 H 0.67526 0.18562 0.46684 0.0
H385 H 0.6028 0.09832 0.49426 0.0
H386 H 0.64857 0.12913 0.49094 0.0
H387 H 0.55985 0.14073 0.28735 0.0
H388 H 0.60237 0.17803 0.28656 0.0
H389 H 0.5155 0.11877 0.32595 0.0
H390 H 0.50655 0.08779 0.37198 0.0
C391 C 0.86678 0.65228 0.34163 0.0
C392 C 0.86478 0.6893 0.35772 0.0
C393 C 0.91501 0.68458 0.41497 0.0
C394 C 0.91578 0.64649 0.3999 0.0
N395 N 0.90296 0.60211 0.34065 0.0
N396 N 0.89202 0.74531 0.40319 0.0
C397 C 0.89487 0.63291 0.36056 0.0
C398 C 0.89059 0.70693 0.39235 0.0
N399 N 0.8411 0.635 0.30901 0.0
N400 N 0.93646 0.69893 0.45157 0.0
H401 H 0.87373 0.76193 0.38825 0.0
H402 H 0.9129 0.76194 0.42474 0.0
H403 H 0.95774 0.68641 0.46637 0.0
H404 H 0.93279 0.72295 0.46796 0.0
H405 H 0.83815 0.60581 0.29936 0.0
H406 H 0.82079 0.6488 0.29344 0.0
H407 H 0.89122 0.59285 0.3101 0.0
H408 H 0.92483 0.58885 0.35277 0.0
C409 C 0.38448 0.86949 0.42539 0.0
C410 C 0.39311 0.8551 0.38685 0.0
C411 C 0.45345 0.90763 0.38789 0.0
C412 C 0.44686 0.91899 0.42876 0.0
N413 N 0.40717 0.91106 0.48753 0.0
N414 N 0.43674 0.85791 0.33269 0.0
C415 C 0.41246 0.90024 0.44767 0.0
C416 C 0.42776 0.8737 0.36825 0.0
N417 N 0.34931 0.85408 0.44022 0.0
N418 N 0.48423 0.92978 0.36772 0.0
H419 H 0.41845 0.83352 0.31695 0.0
H420 H 0.46333 0.86696 0.32039 0.0
H421 H 0.50349 0.9548 0.38135 0.0
H422 H 0.48894 0.92578 0.33616 0.0
H423 H 0.3396 0.86568 0.46569 0.0
H424 H 0.32857 0.83102 0.42516 0.0
H425 H 0.38523 0.89546 0.50581 0.0
H426 H 0.42599 0.93509 0.50328 0.0
C427 C 0.15804 0.58186 0.653 0.0
C428 C 0.17943 0.61885 0.63524 0.0
C429 C 0.13063 0.61501 0.57437 0.0
C430 C 0.11037 0.57711 0.59099 0.0
N431 N 0.09838 0.52963 0.65081 0.0
N432 N 0.18191 0.67569 0.58575 0.0
C433 C 0.12194 0.56241 0.63209 0.0
C434 C 0.16416 0.63714 0.5981 0.0
N435 N 0.17328 0.56419 0.68835 0.0
N436 N 0.11851 0.62895 0.53504 0.0
H437 H 0.20636 0.69245 0.60278 0.0
H438 H 0.17087 0.69225 0.56109 0.0
H439 H 0.09289 0.61445 0.51837 0.0
H440 H 0.1342 0.65383 0.51835 0.0
H441 H 0.16133 0.53515 0.70008 0.0
H442 H 0.19921 0.57789 0.70493 0.0
H443 H 0.1032 0.51938 0.68236 0.0
H444 H 0.07205 0.51473 0.63583 0.0
C445 C 0.38309 0.13746 0.66389 0.0
C446 C 0.35667 0.15175 0.63464 0.0
C447 C 0.35586 0.09821 0.58552 0.0
C448 C 0.38812 0.09045 0.61009 0.0
N449 N 0.41778 0.08598 0.68148 0.0
N450 N 0.31514 0.14421 0.56912 0.0
C451 C 0.3969 0.10472 0.65236 0.0
C452 C 0.34167 0.13115 0.59619 0.0
N453 N 0.397 0.15693 0.70117 0.0
N454 N 0.33735 0.07254 0.55429 0.0
H455 H 0.30321 0.1672 0.57683 0.0
H456 H 0.30622 0.13353 0.53841 0.0
H457 H 0.34514 0.04615 0.54917 0.0
H458 H 0.31171 0.07456 0.53748 0.0
H459 H 0.41975 0.15117 0.72118 0.0
H460 H 0.38716 0.1806 0.71111 0.0
H461 H 0.42297 0.09248 0.71393 0.0
H462 H 0.42625 0.06061 0.67368 0.0
C463 C 0.85735 0.44252 0.62609 0.0
C464 C 0.86796 0.40985 0.64941 0.0
C465 C 0.93406 0.43635 0.62997 0.0
C466 C 0.92265 0.46741 0.60422 0.0
N467 N 0.87102 0.49308 0.56876 0.0
N468 N 0.91451 0.37133 0.6676 0.0
C469 C 0.88358 0.46847 0.59968 0.0
C470 C 0.90581 0.40546 0.64958 0.0
N471 N 0.82264 0.44978 0.63031 0.0
N472 N 0.97193 0.43723 0.63714 0.0
H473 H 0.89458 0.34826 0.68224 0.0
H474 H 0.94038 0.36432 0.6649 0.0
H475 H 0.99332 0.45938 0.62347 0.0
H476 H 0.98245 0.41796 0.65922 0.0
H477 H 0.81522 0.47586 0.61796 0.0
H478 H 0.80254 0.43172 0.64953 0.0
H479 H 0.84224 0.49178 0.56095 0.0
H480 H 0.88881 0.51176 0.54767 0.0
C481 C 0.68083 0.86803 0.55475 0.0
C482 C 0.66729 0.83986 0.58807 0.0
C483 C 0.60778 0.86133 0.58372 0.0
C484 C 0.62409 0.8939 0.55548 0.0
N485 N 0.67724 0.93023 0.51611 0.0
N486 N 0.61856 0.80871 0.63517 0.0
C487 C 0.6608 0.89761 0.54118 0.0
C488 C 0.63058 0.83566 0.60223 0.0
N489 N 0.71289 0.86633 0.5362 0.0
N490 N 0.57098 0.85562 0.59388 0.0
H491 H 0.63396 0.78847 0.64841 0.0
H492 H 0.59439 0.80761 0.65099 0.0
H493 H 0.5543 0.87563 0.58439 0.0
H494 H 0.55602 0.82979 0.60982 0.0
H495 H 0.72213 0.8833 0.50873 0.0
H496 H 0.72819 0.84497 0.54586 0.0
H497 H 0.70551 0.93683 0.50863 0.0
H498 H 0.66355 0.95254 0.50515 0.0
C499 C 0.37584 0.1995 0.48211 0.0
C500 C 0.3996 0.23425 0.50188 0.0
C501 C 0.4507 0.20008 0.51709 0.0
C502 C 0.42611 0.16389 0.50061 0.0
N503 N 0.36198 0.12723 0.47649 0.0
N504 N 0.45458 0.2633 0.54944 0.0
C505 C 0.38757 0.16293 0.48605 0.0
C506 C 0.43518 0.23282 0.52353 0.0
N507 N 0.3431 0.2018 0.45777 0.0
N508 N 0.48938 0.20511 0.52254 0.0
H509 H 0.44364 0.28769 0.55491 0.0
H510 H 0.47922 0.26197 0.5689 0.0
H511 H 0.50316 0.18454 0.51271 0.0
H512 H 0.5083 0.23234 0.53115 0.0
H513 H 0.32718 0.17872 0.43843 0.0
H514 H 0.33335 0.2279 0.4541 0.0
H515 H 0.33292 0.12456 0.46907 0.0
H516 H 0.36879 0.0995 0.48054 0.0
C517 C 0.85217 0.40698 0.42523 0.0
C518 C 0.85092 0.41382 0.37987 0.0
C519 C 0.90783 0.47069 0.38811 0.0
C520 C 0.90995 0.46278 0.43329 0.0
N521 N 0.88828 0.42045 0.49471 0.0
N522 N 0.87972 0.44843 0.31729 0.0
C523 C 0.88322 0.43006 0.45181 0.0
C524 C 0.87952 0.44452 0.36108 0.0
N525 N 0.8233 0.37877 0.44285 0.0
N526 N 0.93184 0.50431 0.37125 0.0
H527 H 0.8584 0.43136 0.2964 0.0
H528 H 0.90214 0.46677 0.30147 0.0
H529 H 0.95345 0.5237 0.38979 0.0
H530 H 0.92899 0.51463 0.33942 0.0
H531 H 0.81994 0.37532 0.47566 0.0
H532 H 0.80106 0.3601 0.42439 0.0
H533 H 0.87213 0.39486 0.50991 0.0
H534 H 0.91092 0.43653 0.51478 0.0
C535 C 0.67052 0.90383 0.36814 0.0
C536 C 0.66577 0.86178 0.37583 0.0
C537 C 0.6207 0.86176 0.42933 0.0
C538 C 0.62148 0.9027 0.41751 0.0
N539 N 0.64329 0.96098 0.37063 0.0
N540 N 0.63325 0.7994 0.41007 0.0
C541 C 0.6457 0.92349 0.3859 0.0
C542 C 0.64019 0.84043 0.40562 0.0
N543 N 0.699 0.92504 0.34407 0.0
N544 N 0.60224 0.84337 0.46406 0.0
H545 H 0.64746 0.78264 0.39402 0.0
H546 H 0.61133 0.78159 0.42708 0.0
H547 H 0.58717 0.85728 0.48229 0.0
H548 H 0.60486 0.81559 0.47744 0.0
H549 H 0.70661 0.95637 0.34105 0.0
H550 H 0.71737 0.91147 0.33027 0.0
H551 H 0.65712 0.97569 0.34431 0.0
H552 H 0.62467 0.97602 0.38147 0.0
C553 C 0.13288 0.57578 0.35648 0.0
C554 C 0.14814 0.61515 0.37201 0.0
C555 C 0.09312 0.60633 0.41468 0.0
C556 C 0.08152 0.565 0.40489 0.0
N557 N 0.07715 0.51968 0.3476 0.0
N558 N 0.14364 0.66812 0.41689 0.0
C559 C 0.09759 0.5521 0.37029 0.0
C560 C 0.12829 0.63065 0.40113 0.0
N561 N 0.1523 0.56071 0.32891 0.0
N562 N 0.06848 0.62315 0.43275 0.0
H563 H 0.16933 0.68677 0.40772 0.0
H564 H 0.13245 0.67948 0.44143 0.0
H565 H 0.04031 0.60721 0.43603 0.0
H566 H 0.07375 0.65377 0.43816 0.0
H567 H 0.14521 0.53052 0.32103 0.0
H568 H 0.17716 0.57767 0.31615 0.0
H569 H 0.08604 0.5104 0.32012 0.0
H570 H 0.04862 0.50602 0.35211 0.0
C571 C 0.42599 0.85459 0.59333 0.0
C572 C 0.41843 0.85509 0.63644 0.0
C573 C 0.45763 0.92507 0.63952 0.0
C574 C 0.47061 0.92111 0.59896 0.0
N575 N 0.47537 0.87555 0.54515 0.0
N576 N 0.42758 0.89026 0.7024 0.0
C577 C 0.45655 0.88434 0.57741 0.0
C578 C 0.434 0.89043 0.6601 0.0
N579 N 0.4047 0.82389 0.56903 0.0
N580 N 0.46813 0.96154 0.65833 0.0
H581 H 0.40978 0.86566 0.71759 0.0
H582 H 0.44124 0.91348 0.72271 0.0
H583 H 0.48585 0.98685 0.64412 0.0
H584 H 0.45715 0.96731 0.68616 0.0
H585 H 0.40672 0.8222 0.53615 0.0
H586 H 0.40672 0.8222 0.53615 0.0
H587 H 0.46815 0.8478 0.53062 0.0
H588 H 0.50192 0.89339 0.53836 0.0
C589 C 0.14608 0.33955 0.61326 0.0
C590 C 0.18226 0.36039 0.63228 0.0
C591 C 0.15852 0.42039 0.63698 0.0
C592 C 0.12562 0.40258 0.60997 0.0
N593 N 0.07968 0.33961 0.59458 0.0
N594 N 0.22297 0.42014 0.66456 0.0
C595 C 0.11661 0.36031 0.60454 0.0
C596 C 0.1883 0.4005 0.64539 0.0
N597 N 0.1404 0.3004 0.60238 0.0
N598 N 0.15983 0.455 0.65707 0.0
H599 H 0.24496 0.40609 0.67345 0.0
H600 H 0.23072 0.45098 0.6695 0.0
H601 H 0.13647 0.46761 0.65498 0.0
H602 H 0.18151 0.46803 0.67998 0.0
H603 H 0.11628 0.28462 0.58424 0.0
H604 H 0.16107 0.28424 0.60944 0.0
H605 H 0.07086 0.30843 0.59267 0.0
H606 H 0.05689 0.35281 0.59413 0.0
C607 C 0.62603 0.12277 0.65792 0.0
C608 C 0.63904 0.16301 0.64151 0.0
C609 C 0.59506 0.14692 0.57681 0.0
C610 C 0.58269 0.10629 0.59243 0.0
N611 N 0.5909 0.05364 0.64409 0.0
N612 N 0.64324 0.21039 0.58105 0.0
C613 C 0.5999 0.09355 0.63168 0.0
C614 C 0.62581 0.17409 0.59956 0.0
N615 N 0.63719 0.11302 0.69935 0.0
N616 N 0.57654 0.16005 0.54089 0.0
H617 H 0.66591 0.23106 0.59674 0.0
H618 H 0.63779 0.21838 0.54882 0.0
H619 H 0.55479 0.14096 0.52246 0.0
H620 H 0.58095 0.19026 0.53096 0.0
H621 H 0.62559 0.08563 0.715 0.0
H622 H 0.65633 0.13347 0.71934 0.0
H623 H 0.60514 0.04164 0.67004 0.0
H624 H 0.57101 0.03182 0.62637 0.0
C625 C 0.85174 0.66657 0.54437 0.0
C626 C 0.86862 0.69441 0.57663 0.0
C627 C 0.93121 0.68902 0.56075 0.0
C628 C 0.91415 0.65263 0.53939 0.0
N629 N 0.85602 0.61059 0.50417 0.0
N630 N 0.92569 0.72938 0.61878 0.0
C631 C 0.8738 0.64269 0.52858 0.0
C632 C 0.90878 0.70547 0.58534 0.0
N633 N 0.81492 0.66379 0.5281 0.0
N634 N 0.96871 0.70814 0.55724 0.0
H635 H 0.91047 0.74038 0.63971 0.0
H636 H 0.95478 0.73476 0.62832 0.0
H637 H 0.98545 0.69843 0.53696 0.0
H638 H 0.98139 0.73628 0.56994 0.0
H639 H 0.80214 0.64701 0.50152 0.0
H640 H 0.79849 0.68172 0.53839 0.0
H641 H 0.82665 0.59803 0.50263 0.0
H642 H 0.87002 0.59695 0.48461 0.0
C643 C 0.3672 0.4399 0.23405 0.0
C644 C 0.3922 0.42729 0.26657 0.0
C645 C 0.43466 0.42115 0.2127 0.0
C646 C 0.41216 0.4381 0.18097 0.0
N647 N 0.35825 0.46594 0.16079 0.0
N648 N 0.45234 0.4114 0.28845 0.0
C649 C 0.37846 0.44774 0.1913 0.0
C650 C 0.42668 0.41943 0.25633 0.0
N651 N 0.33254 0.44374 0.244 0.0
N652 N 0.46277 0.40519 0.20079 0.0
H653 H 0.44746 0.40949 0.32094 0.0
H654 H 0.47983 0.41003 0.28325 0.0
H655 H 0.46836 0.40443 0.16879 0.0
H656 H 0.4778 0.38894 0.22183 0.0
H657 H 0.31135 0.44885 0.22114 0.0
H658 H 0.32391 0.4392 0.27518 0.0
H659 H 0.33633 0.47847 0.16747 0.0
H660 H 0.36495 0.4707 0.12889 0.0
C661 C 0.44058 0.64703 0.89672 0.0
C662 C 0.41113 0.62236 0.86993 0.0
C663 C 0.42344 0.56257 0.90987 0.0
C664 C 0.45868 0.58654 0.92791 0.0
N665 N 0.49941 0.65237 0.94249 0.0
N666 N 0.37527 0.55712 0.84919 0.0
C667 C 0.46661 0.62914 0.9229 0.0
C668 C 0.40214 0.58006 0.87693 0.0
N669 N 0.4432 0.68736 0.89728 0.0
N670 N 0.4105 0.52342 0.92377 0.0
H671 H 0.36911 0.52576 0.84883 0.0
H672 H 0.36911 0.52576 0.84883 0.0
H673 H 0.42546 0.50968 0.94758 0.0
H674 H 0.38329 0.50586 0.91468 0.0
H675 H 0.46216 0.70668 0.91843 0.0
H676 H 0.42356 0.70062 0.87934 0.0
H677 H 0.50925 0.6832 0.93603 0.0
H678 H 0.51752 0.64027 0.9643 0.0
C679 C 0.40791 0.37174 0.885 0.0
C680 C 0.40396 0.38756 0.84228 0.0
C681 C 0.44285 0.45335 0.86527 0.0
C682 C 0.45183 0.43638 0.90659 0.0
N683 N 0.44711 0.37616 0.95259 0.0
N684 N 0.42463 0.44152 0.78996 0.0
C685 C 0.43514 0.39475 0.91593 0.0
C686 C 0.4232 0.42788 0.83198 0.0
N687 N 0.38557 0.3348 0.89609 0.0
N688 N 0.45285 0.4941 0.85755 0.0
H689 H 0.41166 0.42378 0.7641 0.0
H690 H 0.44208 0.46915 0.78044 0.0
H691 H 0.46745 0.51429 0.88051 0.0
H692 H 0.44301 0.50812 0.82986 0.0
H693 H 0.38424 0.32339 0.92772 0.0
H694 H 0.36581 0.31714 0.87408 0.0
H695 H 0.43897 0.34509 0.95841 0.0
H696 H 0.46788 0.39083 0.9755 0.0
C697 C 0.63072 0.36946 0.8688 0.0
C698 C 0.66702 0.3889 0.85445 0.0
C699 C 0.66279 0.45252 0.88353 0.0
C700 C 0.62733 0.4325 0.89965 0.0
N701 N 0.58257 0.36991 0.91709 0.0
N702 N 0.72125 0.44658 0.85602 0.0
C703 C 0.61294 0.3903 0.89521 0.0
C704 C 0.68419 0.42976 0.86427 0.0
N705 N 0.6123 0.33172 0.85553 0.0
N706 N 0.67516 0.49348 0.88457 0.0
H707 H 0.73775 0.43086 0.84204 0.0
H708 H 0.73664 0.47481 0.86641 0.0
H709 H 0.66065 0.51089 0.89902 0.0
H710 H 0.6982 0.51036 0.86861 0.0
H711 H 0.58404 0.31787 0.86097 0.0
H712 H 0.62396 0.31558 0.83563 0.0
H713 H 0.57315 0.3386 0.9187 0.0
H714 H 0.56924 0.38406 0.93733 0.0
C715 C 0.69738 0.62799 0.85931 0.0
C716 C 0.68646 0.62915 0.81455 0.0
C717 C 0.62406 0.58407 0.82641 0.0
C718 C 0.63555 0.58155 0.87111 0.0
N719 N 0.68751 0.59034 0.92689 0.0
N720 N 0.64494 0.59802 0.75457 0.0
C721 C 0.67376 0.59988 0.88643 0.0
C722 C 0.65168 0.60348 0.79781 0.0
N723 N 0.72877 0.65531 0.87653 0.0
N724 N 0.58657 0.57134 0.8113 0.0
H725 H 0.66494 0.61155 0.73286 0.0
H726 H 0.62144 0.57684 0.74108 0.0
H727 H 0.56447 0.55933 0.83078 0.0
H728 H 0.5768 0.57667 0.77958 0.0
H729 H 0.73533 0.65827 0.90956 0.0
H730 H 0.74632 0.67753 0.85823 0.0
H731 H 0.71615 0.60022 0.93815 0.0
H732 H 0.67126 0.5689 0.94724 0.0
C733 C 0.60487 0.6528 0.13405 0.0
C734 C 0.63295 0.64049 0.16255 0.0
C735 C 0.60892 0.57112 0.13851 0.0
C736 C 0.57864 0.5827 0.11318 0.0
N737 N 0.54418 0.63305 0.09143 0.0
N738 N 0.65985 0.58768 0.19574 0.0
C739 C 0.57574 0.62321 0.11193 0.0
C740 C 0.63449 0.59953 0.16582 0.0
N741 N 0.60637 0.69289 0.12768 0.0
N742 N 0.61384 0.53328 0.13535 0.0
H743 H 0.67966 0.60783 0.21545 0.0
H744 H 0.65961 0.55768 0.2032 0.0
H745 H 0.59594 0.51208 0.11513 0.0
H746 H 0.63732 0.52392 0.14973 0.0
H747 H 0.58951 0.70416 0.10371 0.0
H748 H 0.62658 0.71538 0.14421 0.0
H749 H 0.53822 0.6609 0.09364 0.0
H750 H 0.52215 0.61238 0.07488 0.0
C751 C 0.37699 0.62127 0.16004 0.0
C752 C 0.37135 0.61056 0.20397 0.0
C753 C 0.40831 0.56003 0.20275 0.0
C754 C 0.41284 0.5695 0.1582 0.0
N755 N 0.39943 0.60729 0.09336 0.0
N756 N 0.37546 0.56554 0.26529 0.0
C757 C 0.39624 0.59934 0.13646 0.0
C758 C 0.38516 0.57864 0.22472 0.0
N759 N 0.36496 0.65342 0.14129 0.0
N760 N 0.42686 0.53392 0.22455 0.0
H761 H 0.35978 0.57935 0.28299 0.0
H762 H 0.38024 0.53914 0.2802 0.0
H763 H 0.44208 0.51744 0.20975 0.0
H764 H 0.42892 0.52992 0.25789 0.0
H765 H 0.37211 0.66634 0.11129 0.0
H766 H 0.34921 0.66894 0.15677 0.0
H767 H 0.38385 0.62439 0.07434 0.0
H768 H 0.41662 0.59552 0.07566 0.0
C769 C 0.61606 0.39147 0.10299 0.0
C770 C 0.61771 0.3888 0.14866 0.0
C771 C 0.56661 0.42361 0.14712 0.0
C772 C 0.56168 0.42205 0.10146 0.0
N773 N 0.57977 0.40211 0.03562 0.0
N774 N 0.59171 0.39781 0.2144 0.0
C775 C 0.58613 0.40563 0.0792 0.0
C776 C 0.5922 0.40364 0.17074 0.0
N777 N 0.64338 0.38083 0.08251 0.0
N778 N 0.54824 0.44596 0.16799 0.0
H779 H 0.61093 0.38474 0.23331 0.0
H780 H 0.57041 0.40312 0.23153 0.0
H781 H 0.52972 0.46171 0.15216 0.0
H782 H 0.55413 0.45218 0.20049 0.0
H783 H 0.64633 0.38582 0.0497 0.0
H784 H 0.66504 0.36956 0.09899 0.0
H785 H 0.59394 0.38675 0.01788 0.0
H786 H 0.55827 0.41226 0.01734 0.0
loop_
_geom_bond_atom_site_label_1
_geom_bond_atom_site_label_2
_geom_bond_distance
_geom_bond_site_symmetry_2
_ccdc_geom_bond_type
P0 O11 1.490 . S
P0 C14 1.812 . S
P0 C20 1.803 . S
P0 C26 1.819 . S
H1 C15 0.941 . S
H2 C16 0.939 . S
H3 C18 0.940 . S
H4 C19 0.940 . S
H5 C21 0.939 . S
H6 C22 0.942 . S
H7 C24 0.940 . S
H8 C25 0.939 . S
H9 C27 0.941 . S
H10 C31 0.939 . S
O11 P0 1.490 . S
H12 C28 0.939 . S
H13 C30 0.940 . S
C14 P0 1.812 . S
C14 C15 1.389 . S
C14 C19 1.391 . S
C15 H1 0.941 . S
C15 C14 1.389 . S
C15 C16 1.397 . S
C16 H2 0.939 . S
C16 C15 1.397 . S
C16 C17 1.378 . S
C17 C16 1.378 . S
C17 C18 1.378 . S
C18 H3 0.940 . S
C18 C17 1.378 . S
C18 C19 1.396 . S
C19 H4 0.940 . S
C19 C14 1.391 . S
C19 C18 1.396 . S
C20 P0 1.803 . S
C20 C21 1.378 . S
C20 C25 1.400 . S
C21 H5 0.939 . S
C21 C20 1.378 . S
C21 C22 1.361 . S
C22 H6 0.942 . S
C22 C21 1.361 . S
C22 C23 1.369 . S
C23 C22 1.369 . S
C23 C24 1.404 . S
C24 H7 0.940 . S
C24 C23 1.404 . S
C24 C25 1.389 . S
C25 H8 0.939 . S
C25 C20 1.400 . S
C25 C24 1.389 . S
C26 P0 1.819 . S
C26 C27 1.391 . S
C26 C31 1.391 . S
C27 H9 0.941 . S
C27 C26 1.391 . S
C27 C28 1.396 . S
C28 H12 0.939 . S
C28 C27 1.396 . S
C28 C29 1.397 . S
C29 C28 1.397 . S
C29 C30 1.385 . S
C30 H13 0.940 . S
C30 C29 1.385 . S
C30 C31 1.388 . S
C31 H10 0.939 . S
C31 C26 1.391 . S
C31 C30 1.388 . S
P32 O43 1.490 . S
P32 C46 1.812 . S
P32 C52 1.803 . S
P32 C58 1.819 . S
H33 C47 0.941 . S
H34 C48 0.939 . S
H35 C50 0.940 . S
H36 C51 0.940 . S
H37 C53 0.939 . S
H38 C54 0.942 . S
H39 C56 0.940 . S
H40 C57 0.939 . S
H41 C59 0.941 . S
H42 C63 0.939 . S
O43 P32 1.490 . S
H44 C60 0.939 . S
H45 C62 0.940 . S
C46 P32 1.812 . S
C46 C47 1.389 . S
C46 C51 1.391 . S
C47 H33 0.941 . S
C47 C46 1.389 . S
C47 C48 1.397 . S
C48 H34 0.939 . S
C48 C47 1.397 . S
C48 C49 1.378 . S
C49 C48 1.378 . S
C49 C50 1.378 . S
C50 H35 0.940 . S
C50 C49 1.378 . S
C50 C51 1.396 . S
C51 H36 0.940 . S
C51 C46 1.391 . S
C51 C50 1.396 . S
C52 P32 1.803 . S
C52 C53 1.378 . S
C52 C57 1.400 . S
C53 H37 0.939 . S
C53 C52 1.378 . S
C53 C54 1.361 . S
C54 H38 0.942 . S
C54 C53 1.361 . S
C54 C55 1.369 . S
C55 C54 1.369 . S
C55 C56 1.404 . S
C56 H39 0.940 . S
C56 C55 1.404 . S
C56 C57 1.389 . S
C57 H40 0.939 . S
C57 C52 1.400 . S
C57 C56 1.389 . S
C58 P32 1.819 . S
C58 C59 1.391 . S
C58 C63 1.391 . S
C59 H41 0.941 . S
C59 C58 1.391 . S
C59 C60 1.396 . S
C60 H44 0.939 . S
C60 C59 1.396 . S
C60 C61 1.397 . S
C61 C60 1.397 . S
C61 C62 1.385 . S
C62 H45 0.940 . S
C62 C61 1.385 . S
C62 C63 1.388 . S
C63 H42 0.939 . S
C63 C58 1.391 . S
C63 C62 1.388 . S
P64 O75 1.490 . S
P64 C78 1.812 . S
P64 C84 1.803 . S
P64 C90 1.819 . S
H65 C79 0.941 . S
H66 C80 0.939 . S
H67 C82 0.940 . S
H68 C83 0.940 . S
H69 C85 0.939 . S
H70 C86 0.942 . S
H71 C88 0.940 . S
H72 C89 0.939 . S
H73 C91 0.941 . S
H74 C95 0.939 . S
O75 P64 1.490 . S
H76 C92 0.939 . S
H77 C94 0.940 . S
C78 P64 1.812 . S
C78 C79 1.389 . S
C78 C83 1.391 . S
C79 H65 0.941 . S
C79 C78 1.389 . S
C79 C80 1.397 . S
C80 H66 0.939 . S
C80 C79 1.397 . S
C80 C81 1.378 . S
C81 C80 1.378 . S
C81 C82 1.378 . S
C82 H67 0.940 . S
C82 C81 1.378 . S
C82 C83 1.396 . S
C83 H68 0.940 . S
C83 C78 1.391 . S
C83 C82 1.396 . S
C84 P64 1.803 . S
C84 C85 1.378 . S
C84 C89 1.400 . S
C85 H69 0.939 . S
C85 C84 1.378 . S
C85 C86 1.361 . S
C86 H70 0.942 . S
C86 C85 1.361 . S
C86 C87 1.369 . S
C87 C86 1.369 . S
C87 C88 1.404 . S
C88 H71 0.940 . S
C88 C87 1.404 . S
C88 C89 1.389 . S
C89 H72 0.939 . S
C89 C84 1.400 . S
C89 C88 1.389 . S
C90 P64 1.819 . S
C90 C91 1.391 . S
C90 C95 1.391 . S
C91 H73 0.941 . S
C91 C90 1.391 . S
C91 C92 1.396 . S
C92 H76 0.939 . S
C92 C91 1.396 . S
C92 C93 1.397 . S
C93 C92 1.397 . S
C93 C94 1.385 . S
C94 H77 0.940 . S
C94 C93 1.385 . S
C94 C95 1.388 . S
C95 H74 0.939 . S
C95 C90 1.391 . S
C95 C94 1.388 . S
P96 O107 1.490 . S
P96 C110 1.812 . S
P96 C116 1.803 . S
P96 C122 1.819 . S
H97 C111 0.941 . S
H98 C112 0.939 . S
H99 C114 0.940 . S
H100 C115 0.940 . S
H101 C117 0.939 . S
H102 C118 0.942 . S
H103 C120 0.940 . S
H104 C121 0.939 . S
H105 C123 0.941 . S
H106 C127 0.939 . S
O107 P96 1.490 . S
H108 C124 0.939 . S
H109 C126 0.940 . S
C110 P96 1.812 . S
C110 C111 1.389 . S
C110 C115 1.391 . S
C111 H97 0.941 . S
C111 C110 1.389 . S
C111 C112 1.397 . S
C112 H98 0.939 . S
C112 C111 1.397 . S
C112 C113 1.378 . S
C113 C112 1.378 . S
C113 C114 1.378 . S
C114 H99 0.940 . S
C114 C113 1.378 . S
C114 C115 1.396 . S
C115 H100 0.940 . S
C115 C110 1.391 . S
C115 C114 1.396 . S
C116 P96 1.803 . S
C116 C117 1.378 . S
C116 C121 1.400 . S
C117 H101 0.939 . S
C117 C116 1.378 . S
C117 C118 1.361 . S
C118 H102 0.942 . S
C118 C117 1.361 . S
C118 C119 1.369 . S
C119 C118 1.369 . S
C119 C120 1.404 . S
C120 H103 0.940 . S
C120 C119 1.404 . S
C120 C121 1.389 . S
C121 H104 0.939 . S
C121 C116 1.400 . S
C121 C120 1.389 . S
C122 P96 1.819 . S
C122 C123 1.391 . S
C122 C127 1.391 . S
C123 H105 0.941 . S
C123 C122 1.391 . S
C123 C124 1.396 . S
C124 H108 0.939 . S
C124 C123 1.396 . S
C124 C125 1.397 . S
C125 C124 1.397 . S
C125 C126 1.385 . S
C126 H109 0.940 . S
C126 C125 1.385 . S
C126 C127 1.388 . S
C127 H106 0.939 . S
C127 C122 1.391 . S
C127 C126 1.388 . S
P128 O139 1.490 . S
P128 C142 1.812 . S
P128 C148 1.803 . S
P128 C154 1.819 . S
H129 C143 0.941 . S
H130 C144 0.939 . S
H131 C146 0.940 . S
H132 C147 0.940 . S
H133 C149 0.939 . S
H134 C150 0.942 . S
H135 C152 0.940 . S
H136 C153 0.939 . S
H137 C155 0.941 . S
H138 C159 0.939 . S
O139 P128 1.490 . S
H140 C156 0.939 . S
H141 C158 0.940 . S
C142 P128 1.812 . S
C142 C143 1.389 . S
C142 C147 1.391 . S
C143 H129 0.941 . S
C143 C142 1.389 . S
C143 C144 1.397 . S
C144 H130 0.939 . S
C144 C143 1.397 . S
C144 C145 1.378 . S
C145 C144 1.378 . S
C145 C146 1.378 . S
C146 H131 0.940 . S
C146 C145 1.378 . S
C146 C147 1.396 . S
C147 H132 0.940 . S
C147 C142 1.391 . S
C147 C146 1.396 . S
C148 P128 1.803 . S
C148 C149 1.378 . S
C148 C153 1.400 . S
C149 H133 0.939 . S
C149 C148 1.378 . S
C149 C150 1.361 . S
C150 H134 0.942 . S
C150 C149 1.361 . S
C150 C151 1.369 . S
C151 C150 1.369 . S
C151 C152 1.404 . S
C152 H135 0.940 . S
C152 C151 1.404 . S
C152 C153 1.389 . S
C153 H136 0.939 . S
C153 C148 1.400 . S
C153 C152 1.389 . S
C154 P128 1.819 . S
C154 C155 1.391 . S
C154 C159 1.391 . S
C155 H137 0.941 . S
C155 C154 1.391 . S
C155 C156 1.396 . S
C156 H140 0.939 . S
C156 C155 1.396 . S
C156 C157 1.397 . S
C157 C156 1.397 . S
C157 C158 1.385 . S
C158 H141 0.940 . S
C158 C157 1.385 . S
C158 C159 1.388 . S
C159 H138 0.939 . S
C159 C154 1.391 . S
C159 C158 1.388 . S
P160 O171 1.490 . S
P160 C174 1.812 . S
P160 C180 1.803 . S
P160 C186 1.819 . S
H161 C175 0.941 . S
H162 C176 0.939 . S
H163 C178 0.940 . S
H164 C179 0.940 . S
H165 C181 0.939 . S
H166 C182 0.942 . S
H167 C184 0.940 . S
H168 C185 0.939 . S
H169 C187 0.941 . S
H170 C191 0.939 . S
O171 P160 1.490 . S
H172 C188 0.939 . S
H173 C190 0.940 . S
C174 P160 1.812 . S
C174 C175 1.389 . S
C174 C179 1.391 . S
C175 H161 0.941 . S
C175 C174 1.389 . S
C175 C176 1.397 . S
C176 H162 0.939 . S
C176 C175 1.397 . S
C176 C177 1.378 . S
C177 C176 1.378 . S
C177 C178 1.378 . S
C178 H163 0.940 . S
C178 C177 1.378 . S
C178 C179 1.396 . S
C179 H164 0.940 . S
C179 C174 1.391 . S
C179 C178 1.396 . S
C180 P160 1.803 . S
C180 C181 1.378 . S
C180 C185 1.400 . S
C181 H165 0.939 . S
C181 C180 1.378 . S
C181 C182 1.361 . S
C182 H166 0.942 . S
C182 C181 1.361 . S
C182 C183 1.369 . S
C183 C182 1.369 . S
C183 C184 1.404 . S
C184 H167 0.940 . S
C184 C183 1.404 . S
C184 C185 1.389 . S
C185 H168 0.939 . S
C185 C180 1.400 . S
C185 C184 1.389 . S
C186 P160 1.819 . S
C186 C187 1.391 . S
C186 C191 1.391 . S
C187 H169 0.941 . S
C187 C186 1.391 . S
C187 C188 1.396 . S
C188 H172 0.939 . S
C188 C187 1.396 . S
C188 C189 1.397 . S
C189 C188 1.397 . S
C189 C190 1.385 . S
C190 H173 0.940 . S
C190 C189 1.385 . S
C190 C191 1.388 . S
C191 H170 0.939 . S
C191 C186 1.391 . S
C191 C190 1.388 . S
P192 O203 1.490 . S
P192 C206 1.812 . S
P192 C212 1.803 . S
P192 C218 1.819 . S
H193 C207 0.941 . S
H194 C208 0.939 . S
H195 C210 0.940 . S
H196 C211 0.940 . S
H197 C213 0.939 . S
H198 C214 0.942 . S
H199 C216 0.940 . S
H200 C217 0.939 . S
H201 C219 0.941 . S
H202 C223 0.939 . S
O203 P192 1.490 . S
H204 C220 0.939 . S
H205 C222 0.940 . S
C206 P192 1.812 . S
C206 C207 1.389 . S
C206 C211 1.391 . S
C207 H193 0.941 . S
C207 C206 1.389 . S
C207 C208 1.397 . S
C208 H194 0.939 . S
C208 C207 1.397 . S
C208 C209 1.378 . S
C209 C208 1.378 . S
C209 C210 1.378 . S
C210 H195 0.940 . S
C210 C209 1.378 . S
C210 C211 1.396 . S
C211 H196 0.940 . S
C211 C206 1.391 . S
C211 C210 1.396 . S
C212 P192 1.803 . S
C212 C213 1.378 . S
C212 C217 1.400 . S
C213 H197 0.939 . S
C213 C212 1.378 . S
C213 C214 1.361 . S
C214 H198 0.942 . S
C214 C213 1.361 . S
C214 C215 1.369 . S
C215 C214 1.369 . S
C215 C216 1.404 . S
C216 H199 0.940 . S
C216 C215 1.404 . S
C216 C217 1.389 . S
C217 H200 0.939 . S
C217 C212 1.400 . S
C217 C216 1.389 . S
C218 P192 1.819 . S
C218 C219 1.391 . S
C218 C223 1.391 . S
C219 H201 0.941 . S
C219 C218 1.391 . S
C219 C220 1.396 . S
C220 H204 0.939 . S
C220 C219 1.396 . S
C220 C221 1.397 . S
C221 C220 1.397 . S
C221 C222 1.385 . S
C222 H205 0.940 . S
C222 C221 1.385 . S
C222 C223 1.388 . S
C223 H202 0.939 . S
C223 C218 1.391 . S
C223 C222 1.388 . S
P224 O235 1.490 . S
P224 C238 1.812 . S
P224 C244 1.803 . S
P224 C250 1.819 . S
H225 C239 0.941 . S
H226 C240 0.939 . S
H227 C242 0.940 . S
H228 C243 0.940 . S
H229 C245 0.939 . S
H230 C246 0.942 . S
H231 C248 0.940 . S
H232 C249 0.939 . S
H233 C251 0.941 . S
H234 C255 0.939 . S
O235 P224 1.490 . S
H236 C252 0.939 . S
H237 C254 0.940 . S
C238 P224 1.812 . S
C238 C239 1.389 . S
C238 C243 1.391 . S
C239 H225 0.941 . S
C239 C238 1.389 . S
C239 C240 1.397 . S
C240 H226 0.939 . S
C240 C239 1.397 . S
C240 C241 1.378 . S
C241 C240 1.378 . S
C241 C242 1.378 . S
C242 H227 0.940 . S
C242 C241 1.378 . S
C242 C243 1.396 . S
C243 H228 0.940 . S
C243 C238 1.391 . S
C243 C242 1.396 . S
C244 P224 1.803 . S
C244 C245 1.378 . S
C244 C249 1.400 . S
C245 H229 0.939 . S
C245 C244 1.378 . S
C245 C246 1.361 . S
C246 H230 0.942 . S
C246 C245 1.361 . S
C246 C247 1.369 . S
C247 C246 1.369 . S
C247 C248 1.404 . S
C248 H231 0.940 . S
C248 C247 1.404 . S
C248 C249 1.389 . S
C249 H232 0.939 . S
C249 C244 1.400 . S
C249 C248 1.389 . S
C250 P224 1.819 . S
C250 C251 1.391 . S
C250 C255 1.391 . S
C251 H233 0.941 . S
C251 C250 1.391 . S
C251 C252 1.396 . S
C252 H236 0.939 . S
C252 C251 1.396 . S
C252 C253 1.397 . S
C253 C252 1.397 . S
C253 C254 1.385 . S
C254 H237 0.940 . S
C254 C253 1.385 . S
C254 C255 1.388 . S
C255 H234 0.939 . S
C255 C250 1.391 . S
C255 C254 1.388 . S
Co256 O259 2.042 . S
Co256 O266 2.264 . S
Co256 O285 2.286 . S
Co256 O286 2.069 . S
Co256 O288 2.015 . S
Co257 O259 2.122 . S
Co257 O265 2.073 . S
Co257 O266 2.327 . S
Co257 O267 1.976 . S
Co258 O259 2.087 . S
Co258 O261 2.087 1_455 S
Co258 O268 2.111 . S
Co258 O269 2.143 1_455 S
Co258 O273 2.111 1_455 S
Co258 O287 2.143 . S
O259 Co256 2.042 . S
O259 Co257 2.122 . S
O259 Co258 2.087 . S
O259 H260 0.980 . S
H260 O259 0.980 . S
O261 Co258 2.087 1_655 S
O261 Co262 2.042 . S
O261 Co263 2.122 . S
O261 H264 0.980 . S
Co262 O261 2.042 . S
Co262 O270 2.286 . S
Co262 O271 2.069 . S
Co262 O272 2.015 . S
Co262 O275 2.264 . S
Co263 O261 2.122 . S
Co263 O274 1.976 . S
Co263 O275 2.327 . S
Co263 O276 2.073 . S
H264 O261 0.980 . S
O265 Co257 2.073 . S
O265 C280 1.245 . S
O266 Co256 2.264 . S
O266 Co257 2.327 . S
O266 C280 1.257 . S
O267 Co257 1.976 . S
O267 C279 1.251 . S
O268 Co258 2.111 . S
O268 C279 1.274 . S
O269 Co258 2.143 1_655 S
O269 C282 1.246 . S
O270 Co262 2.286 . S
O270 C281 1.259 . S
O271 Co262 2.069 . S
O271 C281 1.289 . S
O272 Co262 2.015 . S
O272 C282 1.257 . S
O273 Co258 2.111 1_655 S
O273 C283 1.274 . S
O274 Co263 1.976 . S
O274 C283 1.251 . S
O275 Co262 2.264 . S
O275 Co263 2.327 . S
O275 C284 1.257 . S
O276 Co263 2.073 . S
O276 C284 1.245 . S
C277 O285 1.259 . S
C277 O286 1.289 . S
C278 O287 1.246 . S
C278 O288 1.257 . S
C279 O267 1.251 . S
C279 O268 1.274 . S
C280 O265 1.245 . S
C280 O266 1.257 . S
C281 O270 1.259 . S
C281 O271 1.289 . S
C282 O269 1.246 . S
C282 O272 1.257 . S
C283 O273 1.274 . S
C283 O274 1.251 . S
C284 O275 1.257 . S
C284 O276 1.245 . S
O285 Co256 2.286 . S
O285 C277 1.259 . S
O286 Co256 2.069 . S
O286 C277 1.289 . S
O287 Co258 2.143 . S
O287 C278 1.246 . S
O288 Co256 2.015 . S
O288 C278 1.257 . S
Co289 O292 2.042 . S
Co289 O299 2.264 . S
Co289 O318 2.286 . S
Co289 O319 2.069 . S
Co289 O321 2.015 . S
Co290 O292 2.122 . S
Co290 O298 2.073 . S
Co290 O299 2.327 . S
Co290 O300 1.976 . S
Co291 O292 2.087 1_545 S
Co291 O294 2.087 . S
Co291 O301 2.111 1_545 S
Co291 O302 2.143 . S
Co291 O306 2.111 . S
Co291 O320 2.143 1_545 S
O292 Co289 2.042 . S
O292 Co290 2.122 . S
O292 Co291 2.087 1_565 S
O292 H293 0.980 . S
H293 O292 0.980 . S
O294 Co291 2.087 . S
O294 Co295 2.042 . S
O294 Co296 2.122 . S
O294 H297 0.980 . S
Co295 O294 2.042 . S
Co295 O303 2.286 . S
Co295 O304 2.069 . S
Co295 O305 2.015 . S
Co295 O308 2.264 . S
Co296 O294 2.122 . S
Co296 O307 1.976 . S
Co296 O308 2.327 . S
Co296 O309 2.073 . S
H297 O294 0.980 . S
O298 Co290 2.073 . S
O298 C313 1.245 . S
O299 Co289 2.264 . S
O299 Co290 2.327 . S
O299 C313 1.257 . S
O300 Co290 1.976 . S
O300 C312 1.251 . S
O301 Co291 2.111 1_565 S
O301 C312 1.274 . S
O302 Co291 2.143 . S
O302 C315 1.246 . S
O303 Co295 2.286 . S
O303 C314 1.259 . S
O304 Co295 2.069 . S
O304 C314 1.289 . S
O305 Co295 2.015 . S
O305 C315 1.257 . S
O306 Co291 2.111 . S
O306 C316 1.274 . S
O307 Co296 1.976 . S
O307 C316 1.251 . S
O308 Co295 2.264 . S
O308 Co296 2.327 . S
O308 C317 1.257 . S
O309 Co296 2.073 . S
O309 C317 1.245 . S
C310 O318 1.259 . S
C310 O319 1.289 . S
C311 O320 1.246 . S
C311 O321 1.257 . S
C312 O300 1.251 . S
C312 O301 1.274 . S
C313 O298 1.245 . S
C313 O299 1.257 . S
C314 O303 1.259 . S
C314 O304 1.289 . S
C315 O302 1.246 . S
C315 O305 1.257 . S
C316 O306 1.274 . S
C316 O307 1.251 . S
C317 O308 1.257 . S
C317 O309 1.245 . S
O318 Co289 2.286 . S
O318 C310 1.259 . S
O319 Co289 2.069 . S
O319 C310 1.289 . S
O320 Co291 2.143 1_565 S
O320 C311 1.246 . S
O321 Co289 2.015 . S
O321 C311 1.257 . S
Co322 O325 2.042 . S
Co322 O332 2.264 . S
Co322 O351 2.286 . S
Co322 O352 2.069 . S
Co322 O354 2.015 . S
Co323 O325 2.122 . S
Co323 O331 2.073 . S
Co323 O332 2.327 . S
Co323 O333 1.976 . S
Co324 O325 2.087 . S
Co324 O327 2.087 1_554 S
Co324 O334 2.111 . S
Co324 O335 2.143 1_554 S
Co324 O339 2.111 1_554 S
Co324 O353 2.143 . S
O325 Co322 2.042 . S
O325 Co323 2.122 . S
O325 Co324 2.087 . S
O325 H326 0.980 . S
H326 O325 0.980 . S
O327 Co324 2.087 1_556 S
O327 Co328 2.042 . S
O327 Co329 2.122 . S
O327 H330 0.980 . S
Co328 O327 2.042 . S
Co328 O336 2.286 . S
Co328 O337 2.069 . S
Co328 O338 2.015 . S
Co328 O341 2.264 . S
Co329 O327 2.122 . S
Co329 O340 1.976 . S
Co329 O341 2.327 . S
Co329 O342 2.073 . S
H330 O327 0.980 . S
O331 Co323 2.073 . S
O331 C346 1.245 . S
O332 Co322 2.264 . S
O332 Co323 2.327 . S
O332 C346 1.257 . S
O333 Co323 1.976 . S
O333 C345 1.251 . S
O334 Co324 2.111 . S
O334 C345 1.274 . S
O335 Co324 2.143 1_556 S
O335 C348 1.246 . S
O336 Co328 2.286 . S
O336 C347 1.259 . S
O337 Co328 2.069 . S
O337 C347 1.289 . S
O338 Co328 2.015 . S
O338 C348 1.257 . S
O339 Co324 2.111 1_556 S
O339 C349 1.274 . S
O340 Co329 1.976 . S
O340 C349 1.251 . S
O341 Co328 2.264 . S
O341 Co329 2.327 . S
O341 C350 1.257 . S
O342 Co329 2.073 . S
O342 C350 1.245 . S
C343 O351 1.259 . S
C343 O352 1.289 . S
C344 O353 1.246 . S
C344 O354 1.257 . S
C345 O333 1.251 . S
C345 O334 1.274 . S
C346 O331 1.245 . S
C346 O332 1.257 . S
C347 O336 1.259 . S
C347 O337 1.289 . S
C348 O335 1.246 . S
C348 O338 1.257 . S
C349 O339 1.274 . S
C349 O340 1.251 . S
C350 O341 1.257 . S
C350 O342 1.245 . S
O351 Co322 2.286 . S
O351 C343 1.259 . S
O352 Co322 2.069 . S
O352 C343 1.289 . S
O353 Co324 2.143 . S
O353 C344 1.246 . S
O354 Co322 2.015 . S
O354 C344 1.257 . S
C355 C356 1.363 . S
C355 C361 1.379 . S
C355 N363 1.356 . S
C356 C355 1.363 . S
C356 C362 1.363 . S
C357 C358 1.363 . S
C357 C362 1.379 . S
C357 N364 1.356 . S
C358 C357 1.363 . S
C358 C361 1.363 . S
N359 C361 1.356 . S
N359 H371 0.984 . S
N359 H372 0.985 . S
N360 C362 1.356 . S
N360 H365 0.984 . S
N360 H366 0.985 . S
C361 C355 1.379 . S
C361 C358 1.363 . S
C361 N359 1.356 . S
C362 C356 1.363 . S
C362 C357 1.379 . S
C362 N360 1.356 . S
N363 C355 1.356 . S
N363 H369 0.984 . S
N363 H370 0.984 . S
N364 C357 1.356 . S
N364 H367 0.984 . S
N364 H368 0.985 . S
H365 N360 0.984 . S
H366 N360 0.985 . S
H367 N364 0.984 . S
H368 N364 0.985 . S
H369 N363 0.984 . S
H370 N363 0.984 . S
H371 N359 0.984 . S
H372 N359 0.985 . S
C373 C374 1.363 . S
C373 C379 1.379 . S
C373 N381 1.356 . S
C374 C373 1.363 . S
C374 C380 1.363 . S
C375 C376 1.363 . S
C375 C380 1.379 . S
C375 N382 1.356 . S
C376 C375 1.363 . S
C376 C379 1.363 . S
N377 C379 1.356 . S
N377 H389 0.984 . S
N377 H390 0.985 . S
N378 C380 1.356 . S
N378 H383 0.984 . S
N378 H384 0.985 . S
C379 C373 1.379 . S
C379 C376 1.363 . S
C379 N377 1.356 . S
C380 C374 1.363 . S
C380 C375 1.379 . S
C380 N378 1.356 . S
N381 C373 1.356 . S
N381 H387 0.984 . S
N381 H388 0.984 . S
N382 C375 1.356 . S
N382 H385 0.984 . S
N382 H386 0.985 . S
H383 N378 0.984 . S
H384 N378 0.985 . S
H385 N382 0.984 . S
H386 N382 0.985 . S
H387 N381 0.984 . S
H388 N381 0.984 . S
H389 N377 0.984 . S
H390 N377 0.985 . S
C391 C392 1.363 . S
C391 C397 1.379 . S
C391 N399 1.356 . S
C392 C391 1.363 . S
C392 C398 1.363 . S
C393 C394 1.363 . S
C393 C398 1.379 . S
C393 N400 1.356 . S
C394 C393 1.363 . S
C394 C397 1.363 . S
N395 C397 1.356 . S
N395 H407 0.984 . S
N395 H408 0.985 . S
N396 C398 1.356 . S
N396 H401 0.984 . S
N396 H402 0.985 . S
C397 C391 1.379 . S
C397 C394 1.363 . S
C397 N395 1.356 . S
C398 C392 1.363 . S
C398 C393 1.379 . S
C398 N396 1.356 . S
N399 C391 1.356 . S
N399 H405 0.984 . S
N399 H406 0.984 . S
N400 C393 1.356 . S
N400 H403 0.984 . S
N400 H404 0.985 . S
H401 N396 0.984 . S
H402 N396 0.985 . S
H403 N400 0.984 . S
H404 N400 0.985 . S
H405 N399 0.984 . S
H406 N399 0.984 . S
H407 N395 0.984 . S
H408 N395 0.985 . S
C409 C410 1.363 . S
C409 C415 1.379 . S
C409 N417 1.356 . S
C410 C409 1.363 . S
C410 C416 1.363 . S
C411 C412 1.363 . S
C411 C416 1.379 . S
C411 N418 1.356 . S
C412 C411 1.363 . S
C412 C415 1.363 . S
N413 C415 1.356 . S
N413 H425 0.984 . S
N413 H426 0.985 . S
N414 C416 1.356 . S
N414 H419 0.984 . S
N414 H420 0.985 . S
C415 C409 1.379 . S
C415 C412 1.363 . S
C415 N413 1.356 . S
C416 C410 1.363 . S
C416 C411 1.379 . S
C416 N414 1.356 . S
N417 C409 1.356 . S
N417 H423 0.984 . S
N417 H424 0.984 . S
N418 C411 1.356 . S
N418 H421 0.984 . S
N418 H422 0.985 . S
H419 N414 0.984 . S
H420 N414 0.985 . S
H421 N418 0.984 . S
H422 N418 0.985 . S
H423 N417 0.984 . S
H424 N417 0.984 . S
H425 N413 0.984 . S
H426 N413 0.985 . S
C427 C428 1.363 . S
C427 C433 1.379 . S
C427 N435 1.356 . S
C428 C427 1.363 . S
C428 C434 1.363 . S
C429 C430 1.363 . S
C429 C434 1.379 . S
C429 N436 1.356 . S
C430 C429 1.363 . S
C430 C433 1.363 . S
N431 C433 1.356 . S
N431 H443 0.984 . S
N431 H444 0.985 . S
N432 C434 1.356 . S
N432 H437 0.984 . S
N432 H438 0.985 . S
C433 C427 1.379 . S
C433 C430 1.363 . S
C433 N431 1.356 . S
C434 C428 1.363 . S
C434 C429 1.379 . S
C434 N432 1.356 . S
N435 C427 1.356 . S
N435 H441 0.984 . S
N435 H442 0.984 . S
N436 C429 1.356 . S
N436 H439 0.984 . S
N436 H440 0.985 . S
H437 N432 0.984 . S
H438 N432 0.985 . S
H439 N436 0.984 . S
H440 N436 0.985 . S
H441 N435 0.984 . S
H442 N435 0.984 . S
H443 N431 0.984 . S
H444 N431 0.985 . S
C445 C446 1.363 . S
C445 C451 1.379 . S
C445 N453 1.356 . S
C446 C445 1.363 . S
C446 C452 1.363 . S
C447 C448 1.363 . S
C447 C452 1.379 . S
C447 N454 1.356 . S
C448 C447 1.363 . S
C448 C451 1.363 . S
N449 C451 1.356 . S
N449 H461 0.984 . S
N449 H462 0.985 . S
N450 C452 1.356 . S
N450 H455 0.984 . S
N450 H456 0.985 . S
C451 C445 1.379 . S
C451 C448 1.363 . S
C451 N449 1.356 . S
C452 C446 1.363 . S
C452 C447 1.379 . S
C452 N450 1.356 . S
N453 C445 1.356 . S
N453 H459 0.984 . S
N453 H460 0.984 . S
N454 C447 1.356 . S
N454 H457 0.984 . S
N454 H458 0.985 . S
H455 N450 0.984 . S
H456 N450 0.985 . S
H457 N454 0.984 . S
H458 N454 0.985 . S
H459 N453 0.984 . S
H460 N453 0.984 . S
H461 N449 0.984 . S
H462 N449 0.985 . S
C463 C464 1.363 . S
C463 C469 1.379 . S
C463 N471 1.356 . S
C464 C463 1.363 . S
C464 C470 1.363 . S
C465 C466 1.363 . S
C465 C470 1.379 . S
C465 N472 1.356 . S
C466 C465 1.363 . S
C466 C469 1.363 . S
N467 C469 1.356 . S
N467 H479 0.984 . S
N467 H480 0.985 . S
N468 C470 1.356 . S
N468 H473 0.984 . S
N468 H474 0.985 . S
C469 C463 1.379 . S
C469 C466 1.363 . S
C469 N467 1.356 . S
C470 C464 1.363 . S
C470 C465 1.379 . S
C470 N468 1.356 . S
N471 C463 1.356 . S
N471 H477 0.984 . S
N471 H478 0.984 . S
N472 C465 1.356 . S
N472 H475 0.984 . S
N472 H476 0.985 . S
H473 N468 0.984 . S
H474 N468 0.985 . S
H475 N472 0.984 . S
H476 N472 0.985 . S
H477 N471 0.984 . S
H478 N471 0.984 . S
H479 N467 0.984 . S
H480 N467 0.985 . S
C481 C482 1.363 . S
C481 C487 1.379 . S
C481 N489 1.356 . S
C482 C481 1.363 . S
C482 C488 1.363 . S
C483 C484 1.363 . S
C483 C488 1.379 . S
C483 N490 1.356 . S
C484 C483 1.363 . S
C484 C487 1.363 . S
N485 C487 1.356 . S
N485 H497 0.984 . S
N485 H498 0.985 . S
N486 C488 1.356 . S
N486 H491 0.984 . S
N486 H492 0.985 . S
C487 C481 1.379 . S
C487 C484 1.363 . S
C487 N485 1.356 . S
C488 C482 1.363 . S
C488 C483 1.379 . S
C488 N486 1.356 . S
N489 C481 1.356 . S
N489 H495 0.984 . S
N489 H496 0.984 . S
N490 C483 1.356 . S
N490 H493 0.984 . S
N490 H494 0.985 . S
H491 N486 0.984 . S
H492 N486 0.985 . S
H493 N490 0.984 . S
H494 N490 0.985 . S
H495 N489 0.984 . S
H496 N489 0.984 . S
H497 N485 0.984 . S
H498 N485 0.985 . S
C499 C500 1.363 . S
C499 C505 1.379 . S
C499 N507 1.356 . S
C500 C499 1.363 . S
C500 C506 1.363 . S
C501 C502 1.363 . S
C501 C506 1.379 . S
C501 N508 1.356 . S
C502 C501 1.363 . S
C502 C505 1.363 . S
N503 C505 1.356 . S
N503 H515 0.984 . S
N503 H516 0.985 . S
N504 C506 1.356 . S
N504 H509 0.984 . S
N504 H510 0.985 . S
C505 C499 1.379 . S
C505 C502 1.363 . S
C505 N503 1.356 . S
C506 C500 1.363 . S
C506 C501 1.379 . S
C506 N504 1.356 . S
N507 C499 1.356 . S
N507 H513 0.984 . S
N507 H514 0.984 . S
N508 C501 1.356 . S
N508 H511 0.984 . S
N508 H512 0.985 . S
H509 N504 0.984 . S
H510 N504 0.985 . S
H511 N508 0.984 . S
H512 N508 0.985 . S
H513 N507 0.984 . S
H514 N507 0.984 . S
H515 N503 0.984 . S
H516 N503 0.985 . S
C517 C518 1.363 . S
C517 C523 1.379 . S
C517 N525 1.356 . S
C518 C517 1.363 . S
C518 C524 1.363 . S
C519 C520 1.363 . S
C519 C524 1.379 . S
C519 N526 1.356 . S
C520 C519 1.363 . S
C520 C523 1.363 . S
N521 C523 1.356 . S
N521 H533 0.984 . S
N521 H534 0.985 . S
N522 C524 1.356 . S
N522 H527 0.984 . S
N522 H528 0.985 . S
C523 C517 1.379 . S
C523 C520 1.363 . S
C523 N521 1.356 . S
C524 C518 1.363 . S
C524 C519 1.379 . S
C524 N522 1.356 . S
N525 C517 1.356 . S
N525 H531 0.984 . S
N525 H532 0.984 . S
N526 C519 1.356 . S
N526 H529 0.984 . S
N526 H530 0.985 . S
H527 N522 0.984 . S
H528 N522 0.985 . S
H529 N526 0.984 . S
H530 N526 0.985 . S
H531 N525 0.984 . S
H532 N525 0.984 . S
H533 N521 0.984 . S
H534 N521 0.985 . S
C535 C536 1.363 . S
C535 C541 1.379 . S
C535 N543 1.356 . S
C536 C535 1.363 . S
C536 C542 1.363 . S
C537 C538 1.363 . S
C537 C542 1.379 . S
C537 N544 1.356 . S
C538 C537 1.363 . S
C538 C541 1.363 . S
N539 C541 1.356 . S
N539 H551 0.984 . S
N539 H552 0.985 . S
N540 C542 1.356 . S
N540 H545 0.984 . S
N540 H546 0.985 . S
C541 C535 1.379 . S
C541 C538 1.363 . S
C541 N539 1.356 . S
C542 C536 1.363 . S
C542 C537 1.379 . S
C542 N540 1.356 . S
N543 C535 1.356 . S
N543 H549 0.984 . S
N543 H550 0.984 . S
N544 C537 1.356 . S
N544 H547 0.984 . S
N544 H548 0.985 . S
H545 N540 0.984 . S
H546 N540 0.985 . S
H547 N544 0.984 . S
H548 N544 0.985 . S
H549 N543 0.984 . S
H550 N543 0.984 . S
H551 N539 0.984 . S
H552 N539 0.985 . S
C553 C554 1.363 . S
C553 C559 1.379 . S
C553 N561 1.356 . S
C554 C553 1.363 . S
C554 C560 1.363 . S
C555 C556 1.363 . S
C555 C560 1.379 . S
C555 N562 1.356 . S
C556 C555 1.363 . S
C556 C559 1.363 . S
N557 C559 1.356 . S
N557 H569 0.984 . S
N557 H570 0.985 . S
N558 C560 1.356 . S
N558 H563 0.984 . S
N558 H564 0.985 . S
C559 C553 1.379 . S
C559 C556 1.363 . S
C559 N557 1.356 . S
C560 C554 1.363 . S
C560 C555 1.379 . S
C560 N558 1.356 . S
N561 C553 1.356 . S
N561 H567 0.984 . S
N561 H568 0.984 . S
N562 C555 1.356 . S
N562 H565 0.984 . S
N562 H566 0.985 . S
H563 N558 0.984 . S
H564 N558 0.985 . S
H565 N562 0.984 . S
H566 N562 0.985 . S
H567 N561 0.984 . S
H568 N561 0.984 . S
H569 N557 0.984 . S
H570 N557 0.985 . S
C571 C572 1.363 . S
C571 C577 1.379 . S
C571 N579 1.356 . S
C572 C571 1.363 . S
C572 C578 1.363 . S
C573 C574 1.363 . S
C573 C578 1.379 . S
C573 N580 1.356 . S
C574 C573 1.363 . S
C574 C577 1.363 . S
N575 C577 1.356 . S
N575 H587 0.984 . S
N575 H588 0.985 . S
N576 C578 1.356 . S
N576 H581 0.984 . S
N576 H582 0.985 . S
C577 C571 1.379 . S
C577 C574 1.363 . S
C577 N575 1.356 . S
C578 C572 1.363 . S
C578 C573 1.379 . S
C578 N576 1.356 . S
N579 C571 1.356 . S
N579 H585 0.984 . S
N579 H586 0.984 . S
N580 C573 1.356 . S
N580 H583 0.984 . S
N580 H584 0.985 . S
H581 N576 0.984 . S
H582 N576 0.985 . S
H583 N580 0.984 . S
H584 N580 0.985 . S
H585 N579 0.984 . S
H586 N579 0.984 . S
H587 N575 0.984 . S
H588 N575 0.985 . S
C589 C590 1.363 . S
C589 C595 1.379 . S
C589 N597 1.356 . S
C590 C589 1.363 . S
C590 C596 1.363 . S
C591 C592 1.363 . S
C591 C596 1.379 . S
C591 N598 1.356 . S
C592 C591 1.363 . S
C592 C595 1.363 . S
N593 C595 1.356 . S
N593 H605 0.984 . S
N593 H606 0.985 . S
N594 C596 1.356 . S
N594 H599 0.984 . S
N594 H600 0.985 . S
C595 C589 1.379 . S
C595 C592 1.363 . S
C595 N593 1.356 . S
C596 C590 1.363 . S
C596 C591 1.379 . S
C596 N594 1.356 . S
N597 C589 1.356 . S
N597 H603 0.984 . S
N597 H604 0.984 . S
N598 C591 1.356 . S
N598 H601 0.984 . S
N598 H602 0.985 . S
H599 N594 0.984 . S
H600 N594 0.985 . S
H601 N598 0.984 . S
H602 N598 0.985 . S
H603 N597 0.984 . S
H604 N597 0.984 . S
H605 N593 0.984 . S
H606 N593 0.985 . S
C607 C608 1.363 . S
C607 C613 1.379 . S
C607 N615 1.356 . S
C608 C607 1.363 . S
C608 C614 1.363 . S
C609 C610 1.363 . S
C609 C614 1.379 . S
C609 N616 1.356 . S
C610 C609 1.363 . S
C610 C613 1.363 . S
N611 C613 1.356 . S
N611 H623 0.984 . S
N611 H624 0.985 . S
N612 C614 1.356 . S
N612 H617 0.984 . S
N612 H618 0.985 . S
C613 C607 1.379 . S
C613 C610 1.363 . S
C613 N611 1.356 . S
C614 C608 1.363 . S
C614 C609 1.379 . S
C614 N612 1.356 . S
N615 C607 1.356 . S
N615 H621 0.984 . S
N615 H622 0.984 . S
N616 C609 1.356 . S
N616 H619 0.984 . S
N616 H620 0.985 . S
H617 N612 0.984 . S
H618 N612 0.985 . S
H619 N616 0.984 . S
H620 N616 0.985 . S
H621 N615 0.984 . S
H622 N615 0.984 . S
H623 N611 0.984 . S
H624 N611 0.985 . S
C625 C626 1.363 . S
C625 C631 1.379 . S
C625 N633 1.356 . S
C626 C625 1.363 . S
C626 C632 1.363 . S
C627 C628 1.363 . S
C627 C632 1.379 . S
C627 N634 1.356 . S
C628 C627 1.363 . S
C628 C631 1.363 . S
N629 C631 1.356 . S
N629 H641 0.984 . S
N629 H642 0.985 . S
N630 C632 1.356 . S
N630 H635 0.984 . S
N630 H636 0.985 . S
C631 C625 1.379 . S
C631 C628 1.363 . S
C631 N629 1.356 . S
C632 C626 1.363 . S
C632 C627 1.379 . S
C632 N630 1.356 . S
N633 C625 1.356 . S
N633 H639 0.984 . S
N633 H640 0.984 . S
N634 C627 1.356 . S
N634 H637 0.984 . S
N634 H638 0.985 . S
H635 N630 0.984 . S
H636 N630 0.985 . S
H637 N634 0.984 . S
H638 N634 0.985 . S
H639 N633 0.984 . S
H640 N633 0.984 . S
H641 N629 0.984 . S
H642 N629 0.985 . S
C643 C644 1.363 . S
C643 C649 1.379 . S
C643 N651 1.356 . S
C644 C643 1.363 . S
C644 C650 1.363 . S
C645 C646 1.363 . S
C645 C650 1.379 . S
C645 N652 1.356 . S
C646 C645 1.363 . S
C646 C649 1.363 . S
N647 C649 1.356 . S
N647 H659 0.984 . S
N647 H660 0.985 . S
N648 C650 1.356 . S
N648 H653 0.984 . S
N648 H654 0.985 . S
C649 C643 1.379 . S
C649 C646 1.363 . S
C649 N647 1.356 . S
C650 C644 1.363 . S
C650 C645 1.379 . S
C650 N648 1.356 . S
N651 C643 1.356 . S
N651 H657 0.984 . S
N651 H658 0.984 . S
N652 C645 1.356 . S
N652 H655 0.984 . S
N652 H656 0.985 . S
H653 N648 0.984 . S
H654 N648 0.985 . S
H655 N652 0.984 . S
H656 N652 0.985 . S
H657 N651 0.984 . S
H658 N651 0.984 . S
H659 N647 0.984 . S
H660 N647 0.985 . S
C661 C662 1.363 . S
C661 C667 1.379 . S
C661 N669 1.356 . S
C662 C661 1.363 . S
C662 C668 1.363 . S
C663 C664 1.363 . S
C663 C668 1.379 . S
C663 N670 1.356 . S
C664 C663 1.363 . S
C664 C667 1.363 . S
N665 C667 1.356 . S
N665 H677 0.984 . S
N665 H678 0.985 . S
N666 C668 1.356 . S
N666 H671 0.984 . S
N666 H672 0.985 . S
C667 C661 1.379 . S
C667 C664 1.363 . S
C667 N665 1.356 . S
C668 C662 1.363 . S
C668 C663 1.379 . S
C668 N666 1.356 . S
N669 C661 1.356 . S
N669 H675 0.984 . S
N669 H676 0.984 . S
N670 C663 1.356 . S
N670 H673 0.984 . S
N670 H674 0.985 . S
H671 N666 0.984 . S
H672 N666 0.985 . S
H673 N670 0.984 . S
H674 N670 0.985 . S
H675 N669 0.984 . S
H676 N669 0.984 . S
H677 N665 0.984 . S
H678 N665 0.985 . S
C679 C680 1.363 . S
C679 C685 1.379 . S
C679 N687 1.356 . S
C680 C679 1.363 . S
C680 C686 1.363 . S
C681 C682 1.363 . S
C681 C686 1.379 . S
C681 N688 1.356 . S
C682 C681 1.363 . S
C682 C685 1.363 . S
N683 C685 1.356 . S
N683 H695 0.984 . S
N683 H696 0.985 . S
N684 C686 1.356 . S
N684 H689 0.984 . S
N684 H690 0.985 . S
C685 C679 1.379 . S
C685 C682 1.363 . S
C685 N683 1.356 . S
C686 C680 1.363 . S
C686 C681 1.379 . S
C686 N684 1.356 . S
N687 C679 1.356 . S
N687 H693 0.984 . S
N687 H694 0.984 . S
N688 C681 1.356 . S
N688 H691 0.984 . S
N688 H692 0.985 . S
H689 N684 0.984 . S
H690 N684 0.985 . S
H691 N688 0.984 . S
H692 N688 0.985 . S
H693 N687 0.984 . S
H694 N687 0.984 . S
H695 N683 0.984 . S
H696 N683 0.985 . S
C697 C698 1.363 . S
C697 C703 1.379 . S
C697 N705 1.356 . S
C698 C697 1.363 . S
C698 C704 1.363 . S
C699 C700 1.363 . S
C699 C704 1.379 . S
C699 N706 1.356 . S
C700 C699 1.363 . S
C700 C703 1.363 . S
N701 C703 1.356 . S
N701 H713 0.984 . S
N701 H714 0.985 . S
N702 C704 1.356 . S
N702 H707 0.984 . S
N702 H708 0.985 . S
C703 C697 1.379 . S
C703 C700 1.363 . S
C703 N701 1.356 . S
C704 C698 1.363 . S
C704 C699 1.379 . S
C704 N702 1.356 . S
N705 C697 1.356 . S
N705 H711 0.984 . S
N705 H712 0.984 . S
N706 C699 1.356 . S
N706 H709 0.984 . S
N706 H710 0.985 . S
H707 N702 0.984 . S
H708 N702 0.985 . S
H709 N706 0.984 . S
H710 N706 0.985 . S
H711 N705 0.984 . S
H712 N705 0.984 . S
H713 N701 0.984 . S
H714 N701 0.985 . S
C715 C716 1.363 . S
C715 C721 1.379 . S
C715 N723 1.356 . S
C716 C715 1.363 . S
C716 C722 1.363 . S
C717 C718 1.363 . S
C717 C722 1.379 . S
C717 N724 1.356 . S
C718 C717 1.363 . S
C718 C721 1.363 . S
N719 C721 1.356 . S
N719 H731 0.984 . S
N719 H732 0.985 . S
N720 C722 1.356 . S
N720 H725 0.984 . S
N720 H726 0.985 . S
C721 C715 1.379 . S
C721 C718 1.363 . S
C721 N719 1.356 . S
C722 C716 1.363 . S
C722 C717 1.379 . S
C722 N720 1.356 . S
N723 C715 1.356 . S
N723 H729 0.984 . S
N723 H730 0.984 . S
N724 C717 1.356 . S
N724 H727 0.984 . S
N724 H728 0.985 . S
H725 N720 0.984 . S
H726 N720 0.985 . S
H727 N724 0.984 . S
H728 N724 0.985 . S
H729 N723 0.984 . S
H730 N723 0.984 . S
H731 N719 0.984 . S
H732 N719 0.985 . S
C733 C734 1.363 . S
C733 C739 1.379 . S
C733 N741 1.356 . S
C734 C733 1.363 . S
C734 C740 1.363 . S
C735 C736 1.363 . S
C735 C740 1.379 . S
C735 N742 1.356 . S
C736 C735 1.363 . S
C736 C739 1.363 . S
N737 C739 1.356 . S
N737 H749 0.984 . S
N737 H750 0.985 . S
N738 C740 1.356 . S
N738 H743 0.984 . S
N738 H744 0.985 . S
C739 C733 1.379 . S
C739 C736 1.363 . S
C739 N737 1.356 . S
C740 C734 1.363 . S
C740 C735 1.379 . S
C740 N738 1.356 . S
N741 C733 1.356 . S
N741 H747 0.984 . S
N741 H748 0.984 . S
N742 C735 1.356 . S
N742 H745 0.984 . S
N742 H746 0.985 . S
H743 N738 0.984 . S
H744 N738 0.985 . S
H745 N742 0.984 . S
H746 N742 0.985 . S
H747 N741 0.984 . S
H748 N741 0.984 . S
H749 N737 0.984 . S
H750 N737 0.985 . S
C751 C752 1.363 . S
C751 C757 1.379 . S
C751 N759 1.356 . S
C752 C751 1.363 . S
C752 C758 1.363 . S
C753 C754 1.363 . S
C753 C758 1.379 . S
C753 N760 1.356 . S
C754 C753 1.363 . S
C754 C757 1.363 . S
N755 C757 1.356 . S
N755 H767 0.984 . S
N755 H768 0.985 . S
N756 C758 1.356 . S
N756 H761 0.984 . S
N756 H762 0.985 . S
C757 C751 1.379 . S
C757 C754 1.363 . S
C757 N755 1.356 . S
C758 C752 1.363 . S
C758 C753 1.379 . S
C758 N756 1.356 . S
N759 C751 1.356 . S
N759 H765 0.984 . S
N759 H766 0.984 . S
N760 C753 1.356 . S
N760 H763 0.984 . S
N760 H764 0.985 . S
H761 N756 0.984 . S
H762 N756 0.985 . S
H763 N760 0.984 . S
H764 N760 0.985 . S
H765 N759 0.984 . S
H766 N759 0.984 . S
H767 N755 0.984 . S
H768 N755 0.985 . S
C769 C770 1.363 . S
C769 C775 1.379 . S
C769 N777 1.356 . S
C770 C769 1.363 . S
C770 C776 1.363 . S
C771 C772 1.363 . S
C771 C776 1.379 . S
C771 N778 1.356 . S
C772 C771 1.363 . S
C772 C775 1.363 . S
N773 C775 1.356 . S
N773 H785 0.984 . S
N773 H786 0.985 . S
N774 C776 1.356 . S
N774 H779 0.984 . S
N774 H780 0.985 . S
C775 C769 1.379 . S
C775 C772 1.363 . S
C775 N773 1.356 . S
C776 C770 1.363 . S
C776 C771 1.379 . S
C776 N774 1.356 . S
N777 C769 1.356 . S
N777 H783 0.984 . S
N777 H784 0.984 . S
N778 C771 1.356 . S
N778 H781 0.984 . S
N778 H782 0.985 . S
H779 N774 0.984 . S
H780 N774 0.985 . S
H781 N778 0.984 . S
H782 N778 0.985 . S
H783 N777 0.984 . S
H784 N777 0.984 . S
H785 N773 0.984 . S
H786 N773 0.985 . S
C358 C280 1.182 . S
C356 C17 1.212 . S
C376 C316 1.625 . S
C374 C55 1.748 . S
C394 C281 1.389 . S
C392 C87 1.406 . S
C412 C311 1.524 . S
C410 C113 1.548 . S
C430 C278 1.474 . S
C428 C145 1.446 . S
C446 C183 1.516 . S
C448 C314 1.649 . S
C464 C215 1.299 . S
C466 C283 1.169 . S
C484 C313 1.464 . S
C482 C247 1.463 . S
C502 C317 1.428 . S
C500 C23 1.387 . S
C520 C282 1.530 . S
C518 C49 1.606 . S
C538 C310 1.693 . S
C536 C81 1.705 . S
C556 C279 1.201 . S
C554 C125 1.329 . S
C574 C312 1.583 . S
C572 C151 1.609 . S
C590 C189 1.334 . S
C592 C277 1.432 . S
C608 C209 1.594 . S
C610 C315 1.540 . S
C628 C284 1.206 . S
C626 C241 1.267 . S
C646 C346 1.600 . S
C644 C29 1.645 . S
C662 C157 1.906 . S
C664 C349 1.893 . S
C682 C348 1.658 . S
C680 C177 1.573 . S
C698 C221 2.040 . S
C700 C347 2.001 . S
C718 C350 1.601 . S
C716 C253 1.709 . S
C734 C93 1.793 . S
C736 C344 1.720 . S
C754 C343 1.910 . S
C752 C119 1.945 . S
C770 C61 2.061 . S
C772 C345 1.919 . S
