# Generated by pormake.
# Topology ssa, (4,4)-cn, num edge types: 1
# Building blocks:
#     Node 0, Type 0, BuildingBlock: KUFVIS_clean_linker_0, # of connection points: 4
#     Node 1, Type 0, BuildingBlock: KUFVIS_clean_linker_0, # of connection points: 4
#     Node 2, Type 0, BuildingBlock: KUFVIS_clean_linker_0, # of connection points: 4
#     Node 3, Type 0, BuildingBlock: KUFVIS_clean_linker_0, # of connection points: 4
#     Node 4, Type 0, BuildingBlock: KUFVIS_clean_linker_0, # of connection points: 4
#     Node 5, Type 0, BuildingBlock: KUFVIS_clean_linker_0, # of connection points: 4
#     Node 6, Type 1, BuildingBlock: MUDLON_clean_sbu_0, # of connection points: 4
#     Node 7, Type 1, BuildingBlock: MUDLON_clean_sbu_0, # of connection points: 4
#     Node 8, Type 1, BuildingBlock: MUDLON_clean_sbu_0, # of connection points: 4
#     Node 9, Type 1, BuildingBlock: MUDLON_clean_sbu_0, # of connection points: 4
#     Node 10, Type 1, BuildingBlock: MUDLON_clean_sbu_0, # of connection points: 4
#     Node 11, Type 1, BuildingBlock: MUDLON_clean_sbu_0, # of connection points: 4
#     Edge 12, Type (0, 1), BuildingBlock: XIVTED_clean_linker_0, # of connection points: 2
#     Edge 13, Type (0, 1), BuildingBlock: XIVTED_clean_linker_0, # of connection points: 2
#     Edge 14, Type (0, 1), BuildingBlock: XIVTED_clean_linker_0, # of connection points: 2
#     Edge 15, Type (0, 1), BuildingBlock: XIVTED_clean_linker_0, # of connection points: 2
#     Edge 16, Type (0, 1), BuildingBlock: XIVTED_clean_linker_0, # of connection points: 2
#     Edge 17, Type (0, 1), BuildingBlock: XIVTED_clean_linker_0, # of connection points: 2
#     Edge 18, Type (0, 1), BuildingBlock: XIVTED_clean_linker_0, # of connection points: 2
#     Edge 19, Type (0, 1), BuildingBlock: XIVTED_clean_linker_0, # of connection points: 2
#     Edge 20, Type (0, 1), BuildingBlock: XIVTED_clean_linker_0, # of connection points: 2
#     Edge 21, Type (0, 1), BuildingBlock: XIVTED_clean_linker_0, # of connection points: 2
#     Edge 22, Type (0, 1), BuildingBlock: XIVTED_clean_linker_0, # of connection points: 2
#     Edge 23, Type (0, 1), BuildingBlock: XIVTED_clean_linker_0, # of connection points: 2
#     Edge 24, Type (0, 1), BuildingBlock: XIVTED_clean_linker_0, # of connection points: 2
#     Edge 25, Type (0, 1), BuildingBlock: XIVTED_clean_linker_0, # of connection points: 2
#     Edge 26, Type (0, 1), BuildingBlock: XIVTED_clean_linker_0, # of connection points: 2
#     Edge 27, Type (0, 1), BuildingBlock: XIVTED_clean_linker_0, # of connection points: 2
#     Edge 28, Type (0, 1), BuildingBlock: XIVTED_clean_linker_0, # of connection points: 2
#     Edge 29, Type (0, 1), BuildingBlock: XIVTED_clean_linker_0, # of connection points: 2
#     Edge 30, Type (0, 1), BuildingBlock: XIVTED_clean_linker_0, # of connection points: 2
#     Edge 31, Type (0, 1), BuildingBlock: XIVTED_clean_linker_0, # of connection points: 2
#     Edge 32, Type (0, 1), BuildingBlock: XIVTED_clean_linker_0, # of connection points: 2
#     Edge 33, Type (0, 1), BuildingBlock: XIVTED_clean_linker_0, # of connection points: 2
#     Edge 34, Type (0, 1), BuildingBlock: XIVTED_clean_linker_0, # of connection points: 2
#     Edge 35, Type (0, 1), BuildingBlock: XIVTED_clean_linker_0, # of connection points: 2
# Relax obj value: 0.001
# Max RMSD: 0.051
# Mean RMSD: 0.029
data_MOF--net-ssa--node1-MUDLON_clean_sbu_0--node2-KUFVIS_clean_linker_0--edge1-XIVTED_clean_linker_0
_symmetry_space_group_name_H-M    P1
_symmetry_Int_Tables_number       1
_symmetry_cell_setting            triclinic
loop_
_symmetry_equiv_pos_as_xyz
'x, y, z'
_cell_length_a     46.008979
_cell_length_b     45.715909
_cell_length_c     38.714149
_cell_angle_alpha  89.864391
_cell_angle_beta   90.100896
_cell_angle_gamma 119.70998
loop_
_atom_site_label
_atom_site_type_symbol
_atom_site_fract_x
_atom_site_fract_y
_atom_site_fract_z
_atom_type_partial_charge
H0 H 0.90844 0.48209 0.98973 0.0
H1 H -0.0192 0.54705 0.06334 0.0
H2 H 0.96774 0.4479 1.04306 0.0
H3 H -0.01214 0.45135 0.09579 0.0
H4 H 0.0806 0.52163 0.14315 0.0
H5 H 0.03147 0.55865 0.07708 0.0
C6 C 0.9279 0.48652 1.00829 0.0
C7 C 0.93573 0.4612 1.01524 0.0
C8 C 0.9446 0.51761 1.02484 0.0
C9 C 0.96897 0.52315 1.05003 0.0
C10 C 0.97785 0.49797 1.05747 0.0
C11 C 0.96084 0.46714 1.03943 0.0
C12 C 0.00578 0.50411 0.08226 0.0
C13 C 0.00763 0.47716 0.09886 0.0
C14 C 0.03528 0.48347 0.11983 0.0
C15 C 0.06027 0.5167 0.1256 0.0
C16 C 0.05816 0.54364 0.11121 0.0
C17 C 0.03156 0.53729 0.08901 0.0
H18 H 0.50805 0.06832 0.65601 0.0
H19 H 0.44268 -0.00104 0.58047 0.0
H20 H 0.54009 0.00874 0.59986 0.0
H21 H 0.53706 -0.00915 0.54648 0.0
H22 H 0.46643 0.90577 0.48841 0.0
H23 H 0.43062 0.94891 0.56356 0.0
C24 C 0.50331 0.04946 0.6365 0.0
C25 C 0.52771 0.0406 0.62925 0.0
C26 C 0.47247 0.03388 0.61971 0.0
C27 C 0.4664 0.00987 0.59386 0.0
C28 C 0.49098 0.00062 0.58545 0.0
C29 C 0.52145 0.01621 0.60396 0.0
C30 C 0.48463 0.97408 0.55861 0.0
C31 C 0.51119 0.97246 0.54144 0.0
C32 C 0.50442 0.94682 0.51727 0.0
C33 C 0.47127 0.92407 0.50856 0.0
C34 C 0.44465 0.92553 0.52429 0.0
C35 C 0.45152 0.94964 0.5501 0.0
H36 H 0.47016 0.55208 0.15277 0.0
H37 H 0.43663 0.46267 0.09266 0.0
H38 H 0.53931 0.5442 0.08541 0.0
H39 H 0.55 0.50517 0.07018 0.0
H40 H 0.51585 0.42055 1.00268 0.0
H41 H 0.44459 0.44477 1.04427 0.0
C42 C 0.47512 0.53787 0.13356 0.0
C43 C 0.5075 0.55117 0.12061 0.0
C44 C 0.44935 0.5065 0.12271 0.0
C45 C 0.45657 0.48746 0.0994 0.0
C46 C 0.48896 0.49995 0.08542 0.0
C47 C 0.51428 0.53275 0.09587 0.0
C48 C 0.49618 0.47808 1.06147 0.0
C49 C 0.52932 0.4845 1.05704 0.0
C50 C 0.53659 0.46436 1.03539 0.0
C51 C 0.51038 0.43601 1.01973 0.0
C52 C 0.47726 0.42858 1.02345 0.0
C53 C 0.47024 0.45015 1.04333 0.0
H54 H 0.91443 0.43925 0.66295 0.0
H55 H 0.9515 0.5169 0.58653 0.0
H56 H -0.0093 0.448 0.59412 0.0
H57 H 0.00921 0.46485 0.54289 0.0
H58 H 0.06058 0.55343 0.48077 0.0
H59 H -0.00329 0.55185 0.56118 0.0
C60 C 0.93101 0.45196 0.64138 0.0
C61 C 0.95166 0.43996 0.62923 0.0
C62 C 0.93146 0.47998 0.62638 0.0
C63 C 0.95301 0.49637 0.59856 0.0
C64 C 0.97542 0.48606 0.5862 0.0
C65 C 0.97417 0.45717 0.60203 0.0
C66 C -0.00063 0.50527 0.55693 0.0
C67 C 0.01474 0.49031 0.53774 0.0
C68 C 0.03692 0.50767 0.51063 0.0
C69 C 0.0434 0.53994 0.5017 0.0
C70 C 0.0283 0.55539 0.51929 0.0
C71 C 0.00688 0.53852 0.54727 0.0
H72 H 0.42977 0.92878 0.16532 0.0
H73 H 0.43391 -0.00627 0.08355 0.0
H74 H 0.52157 0.98573 0.11024 0.0
H75 H 0.53775 0.00266 1.05626 0.0
H76 H 0.55714 0.09193 1.00134 0.0
H77 H 0.47164 0.04439 0.06736 0.0
C78 C 0.44376 0.94649 0.14486 0.0
C79 C 0.47704 0.95536 0.1392 0.0
C80 C 0.42833 0.96051 0.12529 0.0
C81 C 0.44658 0.98359 0.09879 0.0
C82 C 0.48075 -0.00686 0.09237 0.0
C83 C 0.49544 0.97842 0.11308 0.0
C84 C 0.50174 0.01978 0.066 0.0
C85 C 0.53086 0.02165 1.05084 0.0
C86 C 0.55148 0.04839 1.02844 0.0
C87 C 0.5422 0.07233 1.01986 0.0
C88 C 0.51288 0.07009 1.03293 0.0
C89 C 0.4933 0.04446 1.05646 0.0
H90 H 0.54408 0.48809 0.66537 0.0
H91 H 0.54006 0.55316 0.58861 0.0
H92 H 0.45433 0.4539 0.60637 0.0
H93 H 0.4393 0.45773 0.55361 0.0
H94 H 0.41987 0.52835 0.50047 0.0
H95 H 0.50238 0.56516 0.57059 0.0
C96 C 0.52996 0.49272 0.64575 0.0
C97 C 0.49781 0.4673 0.63698 0.0
C98 C 0.54485 0.52381 0.62903 0.0
C99 C 0.52741 0.52937 0.60216 0.0
C100 C 0.49408 0.5043 0.5933 0.0
C101 C 0.47981 0.47334 0.61134 0.0
C102 C 0.47363 0.51054 0.56663 0.0
C103 C 0.44567 0.48364 0.54955 0.0
C104 C 0.42562 0.49011 0.52664 0.0
C105 C 0.43431 0.52338 0.51942 0.0
C106 C 0.46261 0.55023 0.53431 0.0
C107 C 0.48155 0.54379 0.55841 0.0
Mg108 Mg 0.1999 0.41727 0.31796 0.0
C109 C 0.12947 0.39458 0.29034 0.0
O110 O 0.12637 0.40513 0.3209 0.0
C111 C 0.25034 0.39886 0.34923 0.0
O112 O 0.2646 0.40958 0.31899 0.0
C113 C 0.18125 0.43925 0.38183 0.0
O114 O 0.18403 0.41365 0.39315 0.0
O115 O 0.18899 0.44879 0.35067 0.0
O116 O 0.15521 0.39167 0.28436 0.0
O117 O 0.23876 0.44534 0.28068 0.0
C118 C 0.23832 0.4273 0.25552 0.0
O119 O 0.2147 0.39554 0.25444 0.0
O120 O 0.22113 0.39487 0.35402 0.0
Mg121 Mg 0.78084 0.20157 0.82544 0.0
C122 C 0.73959 0.17012 0.76331 0.0
O123 O 0.76563 0.16632 0.75732 0.0
C124 C 0.80436 0.24593 0.88518 0.0
O125 O 0.80926 0.22095 0.89398 0.0
C126 C 0.73491 0.13336 0.85996 0.0
O127 O 0.72163 0.12638 0.82894 0.0
O128 O 0.76268 0.16055 0.86433 0.0
O129 O 0.73926 0.18576 0.79029 0.0
O130 O 0.82666 0.22406 0.79317 0.0
C131 C 0.82486 0.2422 0.76897 0.0
O132 O 0.79718 0.24362 0.76567 0.0
O133 O 0.79021 0.24448 0.85648 0.0
Mg134 Mg 0.56993 0.78347 0.31805 0.0
C135 C 0.526 0.81174 0.29494 0.0
O136 O 0.52176 0.81273 0.32838 0.0
C137 C 0.52516 0.74402 0.37847 0.0
O138 O 0.52778 0.77303 0.38692 0.0
C139 C 0.59855 0.85372 0.35069 0.0
O140 O 0.59675 0.86247 0.31875 0.0
O141 O 0.59447 0.82439 0.35628 0.0
O142 O 0.54278 0.79855 0.28382 0.0
O143 O 0.59342 0.76125 0.2855 0.0
C144 C 0.58915 0.76025 0.25283 0.0
O145 O 0.57745 0.77869 0.23922 0.0
O146 O 0.53763 0.74131 0.35021 0.0
Mg147 Mg 0.77529 0.57503 0.8269 0.0
C148 C 0.74639 0.586 0.76117 0.0
O149 O 0.75376 0.56285 0.75193 0.0
C150 C 0.81649 0.59974 0.89399 0.0
O151 O 0.78711 0.59114 0.90736 0.0
C152 C 0.73005 0.52439 0.8835 0.0
O153 O 0.75287 0.51529 0.88703 0.0
O154 O 0.73331 0.54542 0.86021 0.0
O155 O 0.75498 0.59887 0.79134 0.0
O156 O 0.79047 0.54675 0.79434 0.0
C157 C 0.81693 0.56663 0.7779 0.0
O158 O 0.83058 0.59917 0.78339 0.0
O159 O 0.81943 0.60079 0.86116 0.0
Mg160 Mg 0.19831 0.78117 0.32051 0.0
C161 C 0.19889 0.73807 0.26109 0.0
O162 O 0.22651 0.76552 0.25224 0.0
C163 C 0.23935 0.80925 0.38157 0.0
O164 O 0.21612 0.8179 0.38406 0.0
C165 C 0.12848 0.73777 0.35159 0.0
O166 O 0.12276 0.72347 0.32107 0.0
O167 O 0.15585 0.76516 0.35648 0.0
O168 O 0.18452 0.73732 0.28933 0.0
O169 O 0.2164 0.82225 0.28193 0.0
C170 C 0.24366 0.84992 0.28624 0.0
O171 O 0.25782 0.85669 0.31685 0.0
O172 O 0.23913 0.79234 0.35545 0.0
Mg173 Mg 0.41131 0.20445 0.81661 0.0
C174 C 0.38766 0.13562 0.78304 0.0
O175 O 0.3952 0.12893 0.81371 0.0
C176 C 0.38746 0.24997 0.84806 0.0
O177 O 0.39495 0.26314 0.81694 0.0
C178 C 0.45356 0.20507 0.87752 0.0
O179 O 0.45479 0.23368 0.88501 0.0
O180 O 0.43957 0.18985 0.84973 0.0
O181 O 0.38739 0.16315 0.77867 0.0
O182 O 0.44248 0.24861 0.78603 0.0
C183 C 0.4326 0.24908 0.75545 0.0
O184 O 0.40679 0.22183 0.74313 0.0
O185 O 0.38686 0.22213 0.85353 0.0
H186 H -0.00025 0.44543 0.17536 0.0
H187 H 0.14014 0.39557 0.22013 0.0
H188 H 0.08093 0.46335 0.10744 0.0
H189 H 0.07038 0.39536 0.29457 0.0
H190 H 0.11064 0.4077 0.17445 0.0
H191 H 0.01693 0.41432 0.21458 0.0
C192 C 0.0204 0.44168 0.1681 0.0
C193 C 0.03869 0.45658 0.13794 0.0
C194 C 0.10145 0.40445 0.2007 0.0
C195 C 0.05921 0.42195 0.18307 0.0
C196 C 0.11817 0.39727 0.22682 0.0
C197 C 0.10798 0.39469 0.26144 0.0
C198 C 0.07419 0.40898 0.2091 0.0
C199 C 0.07938 0.39739 0.26837 0.0
C200 C 0.03051 0.42432 0.19067 0.0
C201 C 0.06592 0.45186 0.13024 0.0
N202 N 0.06376 0.40469 0.2426 0.0
N203 N 0.07552 0.43527 0.15274 0.0
H204 H 0.53548 0.05226 0.6986 0.0
H205 H 0.73431 0.14238 0.69946 0.0
H206 H 0.59191 0.06559 0.60521 0.0
H207 H 0.67648 0.1578 0.7777 0.0
H208 H 0.68293 0.1092 0.66604 0.0
H209 H 0.58766 0.08462 0.7302 0.0
C210 C 0.55892 0.06203 0.68473 0.0
C211 C 0.55939 0.05675 0.64909 0.0
C212 C 0.68163 0.12006 0.69042 0.0
C213 C 0.61923 0.09353 0.68525 0.0
C214 C 0.71086 0.13897 0.70948 0.0
C215 C 0.70958 0.15279 0.7414 0.0
C216 C 0.65099 0.11458 0.70371 0.0
C217 C 0.67862 0.14769 0.75317 0.0
C218 C 0.58867 0.08049 0.70279 0.0
C219 C 0.59048 0.06912 0.63266 0.0
N220 N 0.6505 0.12875 0.73444 0.0
N221 N 0.61928 0.08713 0.65089 0.0
H222 H 0.53336 0.61347 0.09077 0.0
H223 H 0.59448 0.70536 0.27401 0.0
H224 H 0.53727 0.56363 0.18367 0.0
H225 H 0.5838 0.75324 0.18248 0.0
H226 H 0.58417 0.65654 0.23896 0.0
H227 H 0.56252 0.66775 0.12108 0.0
C228 C 0.54152 0.61417 0.11718 0.0
C229 C 0.5334 0.58417 0.13462 0.0
C230 C 0.58459 0.67795 0.22643 0.0
C231 C 0.56563 0.64592 0.16998 0.0
C232 C 0.59069 0.70598 0.24646 0.0
C233 C 0.58971 0.73345 0.23134 0.0
C234 C 0.57744 0.67727 0.19097 0.0
C235 C 0.58451 0.73259 0.19543 0.0
C236 C 0.55777 0.64507 0.13466 0.0
C237 C 0.54356 0.58631 0.16919 0.0
N238 N 0.57822 0.70491 0.17663 0.0
N239 N 0.55878 0.61651 0.18581 0.0
H240 H 0.86604 0.44416 0.6475 0.0
H241 H 0.87223 0.60376 0.73842 0.0
H242 H 0.9495 0.54541 0.64009 0.0
H243 H 0.79466 0.50132 0.75769 0.0
H244 H 0.89689 0.58336 0.696 0.0
H245 H 0.83541 0.46541 0.68094 0.0
C246 C 0.87778 0.47092 0.65265 0.0
C247 C 0.91055 0.49302 0.64144 0.0
C248 C 0.87443 0.56531 0.7094 0.0
C249 C 0.87567 0.51744 0.67956 0.0
C250 C 0.86033 0.57692 0.73373 0.0
C251 C 0.8315 0.55415 0.75189 0.0
C252 C 0.85965 0.53063 0.70315 0.0
C253 C 0.81706 0.51971 0.74447 0.0
C254 C 0.86029 0.48301 0.6717 0.0
C255 C 0.92429 0.5275 0.64816 0.0
N256 N 0.8314 0.50895 0.72074 0.0
N257 N 0.90691 0.5386 0.6671 0.0
H258 H 0.41013 -0.00338 0.16667 0.0
H259 H 0.23766 0.83186 0.21762 0.0
H260 H 0.36981 0.90271 0.11183 0.0
H261 H 0.29497 0.9152 0.28627 0.0
H262 H 0.27712 0.86311 0.17095 0.0
H263 H 0.35905 0.97306 0.20176 0.0
C264 C 0.3898 0.97158 0.16091 0.0
C265 C 0.39394 0.95179 0.1359 0.0
C266 C 0.28068 0.87478 0.19607 0.0
C267 C 0.33591 0.9241 0.17684 0.0
C268 C 0.25802 0.85704 0.22271 0.0
C269 C 0.26307 0.8708 0.25609 0.0
C270 C 0.30842 0.90671 0.20267 0.0
C271 C 0.29016 0.90346 0.26109 0.0
C272 C 0.36088 0.95791 0.18134 0.0
C273 C 0.36731 0.91899 0.13039 0.0
N274 N 0.31186 0.92014 0.23484 0.0
N275 N 0.33962 0.90604 0.15094 0.0
H276 H 0.46515 0.40473 0.60739 0.0
H277 H 0.47405 0.31274 0.77959 0.0
H278 H 0.49982 0.45455 0.70567 0.0
H279 H 0.41918 0.25854 0.68889 0.0
H280 H 0.4882 0.3656 0.75062 0.0
H281 H 0.45004 0.35093 0.63538 0.0
C282 C 0.46907 0.40424 0.63493 0.0
C283 C 0.48401 0.43412 0.6542 0.0
C284 C 0.47317 0.34214 0.737 0.0
C285 C 0.46764 0.37306 0.6861 0.0
C286 C 0.46536 0.31197 0.75341 0.0
C287 C 0.4453 0.2812 0.73666 0.0
C288 C 0.46099 0.34154 0.70355 0.0
C289 C 0.43459 0.28172 0.7028 0.0
C290 C 0.46076 0.37364 0.65081 0.0
C291 C 0.4889 0.43216 0.68975 0.0
N292 N 0.44249 0.31144 0.68736 0.0
N293 N 0.481 0.4022 0.70448 0.0
H294 H 0.54373 0.98238 0.46245 0.0
H295 H 0.58829 0.83748 0.41992 0.0
H296 H 0.52236 0.89956 0.53051 0.0
H297 H 0.60204 0.91543 0.3478 0.0
H298 H 0.57399 0.86589 0.46472 0.0
H299 H 0.5751 0.96466 0.42466 0.0
C300 C 0.54672 0.9612 0.47003 0.0
C301 C 0.53095 0.94271 0.49987 0.0
C302 C 0.58061 0.87707 0.43923 0.0
C303 C 0.56574 0.92149 0.4563 0.0
C304 C 0.58899 0.86092 0.4136 0.0
C305 C 0.5962 0.87385 0.37979 0.0
C306 C 0.57934 0.90646 0.43116 0.0
C307 C 0.59651 0.90433 0.37335 0.0
C308 C 0.56425 0.9508 0.44828 0.0
C309 C 0.53464 0.91478 0.50799 0.0
N310 N 0.58786 0.91932 0.39859 0.0
N311 N 0.55134 0.90485 0.48624 0.0
H312 H 0.56723 0.42599 1.02859 0.0
H313 H 0.69338 0.55515 0.8944 0.0
H314 H 0.58456 0.52724 1.01632 0.0
H315 H 0.70776 0.4746 0.93339 0.0
H316 H 0.65207 0.54316 0.93892 0.0
H317 H 0.61864 0.44184 0.99595 0.0
C318 C 0.58229 0.45174 1.01975 0.0
C319 C 0.5714 0.47524 1.02469 0.0
C320 C 0.66434 0.52816 0.938 0.0
C321 C 0.62959 0.49323 0.98715 0.0
C322 C 0.68773 0.53473 0.91226 0.0
C323 C 0.70391 0.51563 0.90995 0.0
C324 C 0.65642 0.5019 0.96148 0.0
C325 C 0.69572 0.48979 0.93418 0.0
C326 C 0.61155 0.46073 1.00117 0.0
C327 C 0.59196 0.50832 1.01312 0.0
N328 N 0.67217 0.48338 0.95883 0.0
N329 N 0.61971 0.51614 0.99431 0.0
H330 H 0.08174 0.61722 0.53352 0.0
H331 H 0.06458 0.68437 0.3503 0.0
H332 H -0.00763 0.56796 0.47174 0.0
H333 H 0.14492 0.74462 0.42075 0.0
H334 H 0.03485 0.64491 0.39722 0.0
H335 H 0.1022 0.66739 0.49671 0.0
C336 C 0.0658 0.61758 0.51309 0.0
C337 C 0.03502 0.5887 0.50607 0.0
C338 C 0.0587 0.66705 0.40268 0.0
C339 C 0.05894 0.64533 0.46265 0.0
C340 C 0.07571 0.68969 0.37582 0.0
C341 C 0.10744 0.71785 0.38142 0.0
C342 C 0.0737 0.67211 0.43543 0.0
C343 C 0.12052 0.72332 0.41515 0.0
C344 C 0.07764 0.64606 0.49176 0.0
C345 C 0.0159 0.58998 0.47845 0.0
N346 N 0.10391 0.70039 0.44066 0.0
N347 N 0.02837 0.61753 0.45745 0.0
H348 H 0.45139 0.05163 1.00676 0.0
H349 H 0.49557 0.23208 0.93341 0.0
H350 H 0.54802 0.13885 1.02531 0.0
H351 H 0.43236 0.13814 0.88107 0.0
H352 H 0.50817 0.20091 0.97742 0.0
H353 H 0.43568 0.08656 0.97235 0.0
C354 C 0.46896 0.07833 1.00433 0.0
C355 C 0.5011 0.0924 1.01861 0.0
C356 C 0.49155 0.18734 0.95622 0.0
C357 C 0.4835 0.13224 0.97905 0.0
C358 C 0.48444 0.20502 0.93115 0.0
C359 C 0.46315 0.18769 0.90343 0.0
C360 C 0.4765 0.15217 0.95383 0.0
C361 C 0.44921 0.1526 0.90176 0.0
C362 C 0.46013 0.09812 0.98442 0.0
C363 C 0.5231 0.12708 1.01435 0.0
N364 N 0.45595 0.13601 0.92672 0.0
N365 N 0.51398 0.1459 0.99469 0.0
H366 H 0.35983 0.4688 0.53843 0.0
H367 H 0.30962 0.39853 0.34707 0.0
H368 H 0.42511 0.45338 0.47075 0.0
H369 H 0.24001 0.40215 0.41901 0.0
H370 H 0.34946 0.41125 0.39424 0.0
H371 H 0.31332 0.43725 0.49831 0.0
C372 C 0.36402 0.45768 0.51563 0.0
C373 C 0.39618 0.46319 0.50814 0.0
C374 C 0.32529 0.40873 0.39992 0.0
C375 C 0.3434 0.42822 0.4612 0.0
C376 C 0.30241 0.40136 0.37293 0.0
C377 C 0.27138 0.39947 0.3789 0.0
C378 C 0.31745 0.41476 0.43327 0.0
C379 C 0.26355 0.40334 0.41307 0.0
C380 C 0.33755 0.43995 0.49253 0.0
C381 C 0.40054 0.44913 0.47777 0.0
N382 N 0.2866 0.41132 0.43879 0.0
N383 N 0.37461 0.43273 0.4552 0.0
H384 H 0.911 0.39737 1.0414 0.0
H385 H 0.81482 0.30833 0.86692 0.0
H386 H 0.91851 0.451 0.94687 0.0
H387 H 0.82924 0.25419 0.9506 0.0
H388 H 0.84668 0.36067 0.8993 0.0
H389 H 0.87662 0.34413 1.01098 0.0
C390 C 0.9057 0.39793 1.01421 0.0
C391 C 0.91739 0.42866 0.99672 0.0
C392 C 0.84271 0.33728 0.91062 0.0
C393 C 0.87761 0.36809 0.96209 0.0
C394 C 0.8243 0.3074 0.89228 0.0
C395 C 0.81959 0.27695 0.90602 0.0
C396 C 0.85626 0.33662 0.94299 0.0
C397 C 0.83253 0.27719 0.93895 0.0
C398 C 0.88588 0.3676 0.99696 0.0
C399 C 0.90946 0.42793 0.96157 0.0
N400 N 0.85038 0.30661 0.9563 0.0
N401 N 0.88992 0.39817 0.94548 0.0
H402 H 0.90068 0.5342 1.05428 0.0
H403 H 0.87774 0.60745 0.87511 0.0
H404 H 0.96672 0.55675 0.96743 0.0
H405 H 0.81524 0.59093 0.96425 0.0
H406 H 0.91549 0.597 0.91107 0.0
H407 H 0.87447 0.5631 1.02514 0.0
C408 C 0.91052 0.54645 1.02968 0.0
C409 C 0.9363 0.54369 1.01351 0.0
C410 C 0.89379 0.59615 0.92292 0.0
C411 C 0.90553 0.57549 0.97918 0.0
C412 C 0.87222 0.60227 0.90235 0.0
C413 C 0.84297 0.59983 0.91646 0.0
C414 C 0.88605 0.58726 0.95791 0.0
C415 C 0.8373 0.59292 0.95204 0.0
C416 C 0.89529 0.56257 1.01278 0.0
C417 C 0.94733 0.55892 0.98102 0.0
N418 N 0.8583 0.58647 0.97133 0.0
N419 N 0.93166 0.57375 0.96477 0.0
H420 H 0.39535 0.942 0.51614 0.0
H421 H 0.28873 0.79248 0.38845 0.0
H422 H 0.41483 0.85948 0.50244 0.0
H423 H 0.25127 0.8535 0.43389 0.0
H424 H 0.33532 0.81635 0.42966 0.0
H425 H 0.34195 0.90934 0.4869 0.0
C426 C 0.38818 0.91675 0.50768 0.0
C427 C 0.40996 0.90372 0.51147 0.0
C428 C 0.31663 0.82416 0.4308 0.0
C429 C 0.34911 0.86658 0.47684 0.0
C430 C 0.29018 0.81069 0.40721 0.0
C431 C 0.26633 0.8213 0.40752 0.0
C432 C 0.31938 0.84868 0.45443 0.0
C433 C 0.26923 0.84477 0.43254 0.0
C434 C 0.35771 0.89819 0.4907 0.0
C435 C 0.39931 0.87097 0.49931 0.0
N436 N 0.2955 0.85797 0.45471 0.0
N437 N 0.36986 0.85372 0.48203 0.0
H438 H 0.45723 0.36272 1.03566 0.0
H439 H 0.38482 0.30852 0.84525 0.0
H440 H 0.44068 0.42709 0.96679 0.0
H441 H 0.39342 0.24141 0.91778 0.0
H442 H 0.39754 0.34922 0.89172 0.0
H443 H 0.42631 0.31547 0.9961 0.0
C444 C 0.4461 0.36657 1.01264 0.0
C445 C 0.45116 0.39873 1.00464 0.0
C446 C 0.39612 0.32539 0.89766 0.0
C447 C 0.41675 0.34501 0.95839 0.0
C448 C 0.38875 0.302 0.87109 0.0
C449 C 0.38825 0.27145 0.87742 0.0
C450 C 0.40345 0.31849 0.93094 0.0
C451 C 0.39352 0.26456 0.91155 0.0
C452 C 0.4287 0.33967 0.98987 0.0
C453 C 0.43689 0.40258 0.97413 0.0
N454 N 0.40136 0.28805 0.93683 0.0
N455 N 0.42077 0.37619 0.95188 0.0
H456 H 0.04414 0.5061 0.44092 0.0
H457 H 0.16461 0.42722 0.45014 0.0
H458 H 0.06999 0.47659 0.53698 0.0
H459 H 0.1555 0.47895 0.36087 0.0
H460 H 0.12751 0.44146 0.48208 0.0
H461 H 0.08064 0.49045 0.41025 0.0
C462 C 0.05736 0.49604 0.45549 0.0
C463 C 0.05441 0.49297 0.49155 0.0
C464 C 0.13386 0.44988 0.45559 0.0
C465 C 0.0963 0.47515 0.45668 0.0
C466 C 0.15512 0.44191 0.43738 0.0
C467 C 0.16307 0.45185 0.40276 0.0
C468 C 0.12023 0.46762 0.43891 0.0
C469 C 0.15011 0.47083 0.38753 0.0
C470 C 0.07828 0.48726 0.43802 0.0
C471 C 0.07155 0.47925 0.50915 0.0
N472 N 0.12909 0.47785 0.40563 0.0
N473 N 0.09203 0.47103 0.49153 0.0
H474 H 0.5565 0.00874 0.97847 0.0
H475 H 0.74314 0.15153 0.92872 0.0
H476 H 0.61579 0.09797 1.03881 0.0
H477 H 0.67722 0.07215 0.85973 0.0
H478 H 0.7017 0.12517 0.97491 0.0
H479 H 0.60512 0.02436 0.94088 0.0
C480 C 0.58012 0.03096 0.98451 0.0
C481 C 0.58228 0.05191 1.01196 0.0
C482 C 0.69653 0.11322 0.94981 0.0
C483 C 0.63777 0.07053 0.96862 0.0
C484 C 0.72034 0.12816 0.92343 0.0
C485 C 0.71366 0.11426 0.89007 0.0
C486 C 0.66576 0.08405 0.94294 0.0
C487 C 0.68344 0.08398 0.8849 0.0
C488 C 0.60777 0.04014 0.96283 0.0
C489 C 0.61323 0.08097 1.0181 0.0
N490 N 0.66057 0.07014 0.91084 0.0
N491 N 0.6396 0.08955 0.99649 0.0
H492 H 0.52472 0.59398 0.51055 0.0
H493 H 0.48442 0.73182 0.43494 0.0
H494 H 0.42718 0.58359 0.52587 0.0
H495 H 0.54217 0.6951 0.38128 0.0
H496 H 0.47064 0.68822 0.47952 0.0
H497 H 0.54075 0.64455 0.47599 0.0
C498 C 0.50704 0.60295 0.50749 0.0
C499 C 0.47455 0.58458 0.52079 0.0
C500 C 0.4863 0.68993 0.45787 0.0
C501 C 0.49253 0.64192 0.48111 0.0
C502 C 0.49404 0.71457 0.43249 0.0
C503 C 0.5142 0.71683 0.40428 0.0
C504 C 0.49973 0.66836 0.45532 0.0
C505 C 0.52623 0.69406 0.40235 0.0
C506 C 0.51605 0.63151 0.48749 0.0
C507 C 0.4524 0.59703 0.5157 0.0
N508 N 0.51906 0.671 0.42768 0.0
N509 N 0.46171 0.62492 0.49595 0.0
H510 H 0.41949 -0.0041 0.66168 0.0
H511 H 0.39934 0.15454 0.71462 0.0
H512 H 0.46981 0.09166 0.60956 0.0
H513 H 0.37785 0.0714 0.78269 0.0
H514 H 0.41096 0.12549 0.66804 0.0
H515 H 0.3896 0.01684 0.69741 0.0
C516 C 0.42313 0.02085 0.65678 0.0
C517 C 0.44673 0.04192 0.6323 0.0
C518 C 0.4031 0.11335 0.69301 0.0
C519 C 0.41346 0.06647 0.67372 0.0
C520 C 0.39622 0.12981 0.71959 0.0
C521 C 0.38781 0.11553 0.75281 0.0
C522 C 0.40122 0.08218 0.69947 0.0
C523 C 0.38447 0.08351 0.75763 0.0
C524 C 0.40647 0.03298 0.6775 0.0
C525 C 0.45139 0.07446 0.62777 0.0
N526 N 0.3914 0.06807 0.73142 0.0
N527 N 0.43518 0.08584 0.64847 0.0
H528 H 0.40416 0.44183 0.14285 0.0
H529 H 0.28741 0.49262 0.24426 0.0
H530 H 0.41653 0.54168 0.13513 0.0
H531 H 0.25325 0.39054 0.21108 0.0
H532 H 0.33661 0.51176 0.20707 0.0
H533 H 0.3499 0.4225 0.17028 0.0
C534 C 0.39533 0.4596 0.14643 0.0
C535 C 0.41515 0.49353 0.1369 0.0
C536 C 0.31809 0.48523 0.20769 0.0
C537 C 0.35348 0.4717 0.16908 0.0
C538 C 0.29011 0.47432 0.22894 0.0
C539 C 0.26637 0.43996 0.23088 0.0
C540 C 0.32253 0.46151 0.18887 0.0
C541 C 0.27099 0.41728 0.21041 0.0
C542 C 0.36441 0.44856 0.16225 0.0
C543 C 0.4025 0.51548 0.14278 0.0
N544 N 0.29878 0.42841 0.19059 0.0
N545 N 0.37266 0.50429 0.15889 0.0
H546 H 0.92228 0.37722 0.60086 0.0
H547 H 0.88958 0.28843 0.78687 0.0
H548 H 0.96801 0.43078 0.69469 0.0
H549 H 0.82357 0.24753 0.69943 0.0
H550 H 0.93009 0.33466 0.74989 0.0
H551 H 0.89844 0.32391 0.63302 0.0
C552 C 0.92847 0.37762 0.62793 0.0
C553 C 0.9474 0.40838 0.64507 0.0
C554 C 0.90712 0.31503 0.73862 0.0
C555 C 0.91945 0.34763 0.68234 0.0
C556 C 0.88421 0.28846 0.75962 0.0
C557 C 0.8533 0.26405 0.74609 0.0
C558 C 0.89913 0.3169 0.70383 0.0
C559 C 0.84719 0.26579 0.71081 0.0
C560 C 0.9145 0.34724 0.64641 0.0
C561 C 0.95385 0.40753 0.68047 0.0
N562 N 0.8697 0.2918 0.69101 0.0
N563 N 0.93961 0.37774 0.69801 0.0
H564 H 0.48161 0.95901 0.20894 0.0
H565 H 0.53166 0.81523 0.22453 0.0
H566 H 0.50445 0.91658 0.12082 0.0
H567 H 0.50294 0.85485 0.31101 0.0
H568 H 0.52464 0.85377 0.18621 0.0
H569 H 0.49466 0.9245 0.24709 0.0
C570 C 0.49006 0.9428 0.19777 0.0
C571 C 0.49194 0.9404 0.16186 0.0
C572 C 0.51978 0.85395 0.21354 0.0
C573 C 0.50609 0.90028 0.2051 0.0
C574 C 0.52356 0.8318 0.23543 0.0
C575 C 0.51782 0.83179 0.27105 0.0
C576 C 0.51028 0.8763 0.22739 0.0
C577 C 0.50747 0.85386 0.28373 0.0
C578 C 0.49722 0.92292 0.21946 0.0
C579 C 0.50292 0.91914 0.14845 0.0
N580 N 0.50415 0.87531 0.26191 0.0
N581 N 0.50925 0.89951 0.17013 0.0
H582 H 0.60488 0.54166 0.59846 0.0
H583 H 0.70109 0.60662 0.77888 0.0
H584 H 0.5616 0.56025 0.68837 0.0
H585 H 0.73843 0.5767 0.69169 0.0
H586 H 0.65555 0.60277 0.74231 0.0
H587 H 0.65935 0.56781 0.62782 0.0
C588 C 0.60722 0.55256 0.62383 0.0
C589 C 0.57888 0.54925 0.64084 0.0
C590 C 0.67411 0.59768 0.73103 0.0
C591 C 0.64074 0.57796 0.67531 0.0
C592 C 0.70028 0.60015 0.75187 0.0
C593 C 0.72348 0.59168 0.73846 0.0
C594 C 0.67122 0.5868 0.69652 0.0
C595 C 0.72093 0.58313 0.70327 0.0
C596 C 0.63819 0.56706 0.64085 0.0
C597 C 0.58302 0.5628 0.67422 0.0
N598 N 0.69517 0.58056 0.68373 0.0
N599 N 0.61318 0.57611 0.69052 0.0
H600 H 0.0422 0.58922 0.13632 0.0
H601 H 0.22397 0.7225 0.20384 0.0
H602 H 0.12675 0.57551 0.11542 0.0
H603 H 0.13254 0.69227 0.26036 0.0
H604 H 0.19152 0.67889 0.16044 0.0
H605 H 0.07884 0.64002 0.16912 0.0
C606 C 0.06868 0.59749 0.13778 0.0
C607 C 0.0815 0.57811 0.12345 0.0
C608 C 0.17882 0.68203 0.18244 0.0
C609 C 0.12326 0.63568 0.16123 0.0
C610 C 0.19721 0.70668 0.20716 0.0
C611 C 0.18094 0.71078 0.23585 0.0
C612 C 0.14399 0.66226 0.18613 0.0
C613 C 0.14621 0.6898 0.23889 0.0
C614 C 0.08945 0.62619 0.1568 0.0
C615 C 0.11596 0.58971 0.12646 0.0
N616 N 0.12889 0.66667 0.21422 0.0
N617 N 0.13573 0.61771 0.14535 0.0
loop_
_geom_bond_atom_site_label_1
_geom_bond_atom_site_label_2
_geom_bond_distance
_geom_bond_site_symmetry_2
_ccdc_geom_bond_type
H0 C6 0.930 . S
H1 C9 0.931 . S
H2 C11 0.931 1_455 S
H3 C13 0.930 . S
H4 C15 0.930 . S
H5 C17 0.931 . S
C6 H0 0.930 . S
C6 C7 1.380 . S
C6 C8 1.394 . S
C7 C6 1.380 . S
C7 C11 1.382 . S
C8 C6 1.394 . S
C8 C9 1.400 . S
C9 H1 0.931 . S
C9 C8 1.400 . S
C9 C10 1.347 1_655 S
C10 C9 1.347 1_455 S
C10 C11 1.424 1_455 S
C10 C12 1.520 1_556 S
C11 H2 0.931 1_655 S
C11 C7 1.382 . S
C11 C10 1.424 1_655 S
C12 C10 1.520 1_554 S
C12 C13 1.384 . S
C12 C17 1.408 . S
C13 H3 0.930 . S
C13 C12 1.384 . S
C13 C14 1.389 . S
C14 C13 1.389 . S
C14 C15 1.405 . S
C15 H4 0.930 . S
C15 C14 1.405 . S
C15 C16 1.364 . S
C16 C15 1.364 . S
C16 C17 1.400 . S
C17 H5 0.931 . S
C17 C12 1.408 . S
C17 C16 1.400 . S
H18 C24 0.930 . S
H19 C27 0.931 . S
H20 C29 0.931 . S
H21 C31 0.930 1_545 S
H22 C33 0.930 . S
H23 C35 0.931 . S
C24 H18 0.930 . S
C24 C25 1.380 . S
C24 C26 1.394 . S
C25 C24 1.380 . S
C25 C29 1.382 . S
C26 C24 1.394 . S
C26 C27 1.400 . S
C27 H19 0.931 . S
C27 C26 1.400 . S
C27 C28 1.375 . S
C28 C27 1.375 . S
C28 C29 1.415 . S
C28 C30 1.501 . S
C29 H20 0.931 . S
C29 C25 1.382 . S
C29 C28 1.415 . S
C30 C28 1.501 . S
C30 C31 1.384 1_545 S
C30 C35 1.408 1_545 S
C31 H21 0.930 1_565 S
C31 C30 1.384 1_565 S
C31 C32 1.389 . S
C32 C31 1.389 . S
C32 C33 1.405 . S
C33 H22 0.930 . S
C33 C32 1.405 . S
C33 C34 1.364 . S
C34 C33 1.364 . S
C34 C35 1.400 . S
C35 H23 0.931 . S
C35 C30 1.408 1_565 S
C35 C34 1.400 . S
H36 C42 0.930 . S
H37 C45 0.931 . S
H38 C47 0.931 . S
H39 C49 0.930 . S
H40 C51 0.930 . S
H41 C53 0.931 . S
C42 H36 0.930 . S
C42 C43 1.380 . S
C42 C44 1.394 . S
C43 C42 1.380 . S
C43 C47 1.382 . S
C44 C42 1.394 . S
C44 C45 1.400 . S
C45 H37 0.931 . S
C45 C44 1.400 . S
C45 C46 1.375 . S
C46 C45 1.375 . S
C46 C47 1.415 . S
C46 C48 1.501 1_554 S
C47 H38 0.931 . S
C47 C43 1.382 . S
C47 C46 1.415 . S
C48 C46 1.501 1_556 S
C48 C49 1.384 . S
C48 C53 1.408 . S
C49 H39 0.930 . S
C49 C48 1.384 . S
C49 C50 1.389 . S
C50 C49 1.389 . S
C50 C51 1.405 . S
C51 H40 0.930 . S
C51 C50 1.405 . S
C51 C52 1.364 . S
C52 C51 1.364 . S
C52 C53 1.400 . S
C53 H41 0.931 . S
C53 C48 1.408 . S
C53 C52 1.400 . S
H54 C60 0.930 . S
H55 C63 0.931 . S
H56 C65 0.931 . S
H57 C67 0.930 . S
H58 C69 0.930 . S
H59 C71 0.931 . S
C60 H54 0.930 . S
C60 C61 1.380 . S
C60 C62 1.394 . S
C61 C60 1.380 . S
C61 C65 1.382 . S
C62 C60 1.394 . S
C62 C63 1.400 . S
C63 H55 0.931 . S
C63 C62 1.400 . S
C63 C64 1.375 . S
C64 C63 1.375 . S
C64 C65 1.415 . S
C64 C66 1.501 1_655 S
C65 H56 0.931 . S
C65 C61 1.382 . S
C65 C64 1.415 . S
C66 C64 1.501 1_455 S
C66 C67 1.384 . S
C66 C71 1.408 . S
C67 H57 0.930 . S
C67 C66 1.384 . S
C67 C68 1.389 . S
C68 C67 1.389 . S
C68 C69 1.405 . S
C69 H58 0.930 . S
C69 C68 1.405 . S
C69 C70 1.364 . S
C70 C69 1.364 . S
C70 C71 1.400 . S
C71 H59 0.931 . S
C71 C66 1.408 . S
C71 C70 1.400 . S
H72 C78 0.930 . S
H73 C81 0.931 . S
H74 C83 0.931 . S
H75 C85 0.930 . S
H76 C87 0.930 . S
H77 C89 0.931 . S
C78 H72 0.930 . S
C78 C79 1.380 . S
C78 C80 1.394 . S
C79 C78 1.380 . S
C79 C83 1.382 . S
C80 C78 1.394 . S
C80 C81 1.400 . S
C81 H73 0.931 . S
C81 C80 1.400 . S
C81 C82 1.375 . S
C82 C81 1.375 . S
C82 C83 1.415 . S
C82 C84 1.501 1_564 S
C83 H74 0.931 . S
C83 C79 1.382 . S
C83 C82 1.415 . S
C84 C82 1.501 1_546 S
C84 C85 1.384 . S
C84 C89 1.408 . S
C85 H75 0.930 . S
C85 C84 1.384 . S
C85 C86 1.389 . S
C86 C85 1.389 . S
C86 C87 1.405 . S
C87 H76 0.930 . S
C87 C86 1.405 . S
C87 C88 1.364 . S
C88 C87 1.364 . S
C88 C89 1.400 . S
C89 H77 0.931 . S
C89 C84 1.408 . S
C89 C88 1.400 . S
H90 C96 0.930 . S
H91 C99 0.931 . S
H92 C101 0.931 . S
H93 C103 0.930 . S
H94 C105 0.930 . S
H95 C107 0.931 . S
C96 H90 0.930 . S
C96 C97 1.380 . S
C96 C98 1.394 . S
C97 C96 1.380 . S
C97 C101 1.382 . S
C98 C96 1.394 . S
C98 C99 1.400 . S
C99 H91 0.931 . S
C99 C98 1.400 . S
C99 C100 1.375 . S
C100 C99 1.375 . S
C100 C101 1.415 . S
C100 C102 1.501 . S
C101 H92 0.931 . S
C101 C97 1.382 . S
C101 C100 1.415 . S
C102 C100 1.501 . S
C102 C103 1.384 . S
C102 C107 1.408 . S
C103 H93 0.930 . S
C103 C102 1.384 . S
C103 C104 1.389 . S
C104 C103 1.389 . S
C104 C105 1.405 . S
C105 H94 0.930 . S
C105 C104 1.405 . S
C105 C106 1.364 . S
C106 C105 1.364 . S
C106 C107 1.400 . S
C107 H95 0.931 . S
C107 C102 1.408 . S
C107 C106 1.400 . S
Mg108 O115 2.141 . S
Mg108 O116 2.048 . S
Mg108 O117 2.048 . S
Mg108 O120 2.141 . S
C109 O110 1.313 . S
C109 O116 1.195 . S
O110 C109 1.313 . S
C111 O112 1.245 . S
C111 O120 1.289 . S
O112 C111 1.245 . S
C113 O114 1.245 . S
C113 O115 1.289 . S
O114 C113 1.245 . S
O115 Mg108 2.141 . S
O115 C113 1.289 . S
O116 Mg108 2.048 . S
O116 C109 1.195 . S
O117 Mg108 2.048 . S
O117 C118 1.195 . S
C118 O117 1.195 . S
C118 O119 1.313 . S
O119 C118 1.313 . S
O120 Mg108 2.141 . S
O120 C111 1.289 . S
Mg121 O128 2.141 . S
Mg121 O129 2.048 . S
Mg121 O130 2.048 . S
Mg121 O133 2.141 . S
C122 O123 1.313 . S
C122 O129 1.195 . S
O123 C122 1.313 . S
C124 O125 1.245 . S
C124 O133 1.289 . S
O125 C124 1.245 . S
C126 O127 1.245 . S
C126 O128 1.289 . S
O127 C126 1.245 . S
O128 Mg121 2.141 . S
O128 C126 1.289 . S
O129 Mg121 2.048 . S
O129 C122 1.195 . S
O130 Mg121 2.048 . S
O130 C131 1.195 . S
C131 O130 1.195 . S
C131 O132 1.313 . S
O132 C131 1.313 . S
O133 Mg121 2.141 . S
O133 C124 1.289 . S
Mg134 O141 2.141 . S
Mg134 O142 2.048 . S
Mg134 O143 2.048 . S
Mg134 O146 2.141 . S
C135 O136 1.313 . S
C135 O142 1.195 . S
O136 C135 1.313 . S
C137 O138 1.245 . S
C137 O146 1.289 . S
O138 C137 1.245 . S
C139 O140 1.245 . S
C139 O141 1.289 . S
O140 C139 1.245 . S
O141 Mg134 2.141 . S
O141 C139 1.289 . S
O142 Mg134 2.048 . S
O142 C135 1.195 . S
O143 Mg134 2.048 . S
O143 C144 1.195 . S
C144 O143 1.195 . S
C144 O145 1.313 . S
O145 C144 1.313 . S
O146 Mg134 2.141 . S
O146 C137 1.289 . S
Mg147 O154 2.141 . S
Mg147 O155 2.048 . S
Mg147 O156 2.048 . S
Mg147 O159 2.141 . S
C148 O149 1.313 . S
C148 O155 1.195 . S
O149 C148 1.313 . S
C150 O151 1.245 . S
C150 O159 1.289 . S
O151 C150 1.245 . S
C152 O153 1.245 . S
C152 O154 1.289 . S
O153 C152 1.245 . S
O154 Mg147 2.141 . S
O154 C152 1.289 . S
O155 Mg147 2.048 . S
O155 C148 1.195 . S
O156 Mg147 2.048 . S
O156 C157 1.195 . S
C157 O156 1.195 . S
C157 O158 1.313 . S
O158 C157 1.313 . S
O159 Mg147 2.141 . S
O159 C150 1.289 . S
Mg160 O167 2.141 . S
Mg160 O168 2.048 . S
Mg160 O169 2.048 . S
Mg160 O172 2.141 . S
C161 O162 1.313 . S
C161 O168 1.195 . S
O162 C161 1.313 . S
C163 O164 1.245 . S
C163 O172 1.289 . S
O164 C163 1.245 . S
C165 O166 1.245 . S
C165 O167 1.289 . S
O166 C165 1.245 . S
O167 Mg160 2.141 . S
O167 C165 1.289 . S
O168 Mg160 2.048 . S
O168 C161 1.195 . S
O169 Mg160 2.048 . S
O169 C170 1.195 . S
C170 O169 1.195 . S
C170 O171 1.313 . S
O171 C170 1.313 . S
O172 Mg160 2.141 . S
O172 C163 1.289 . S
Mg173 O180 2.141 . S
Mg173 O181 2.048 . S
Mg173 O182 2.048 . S
Mg173 O185 2.141 . S
C174 O175 1.313 . S
C174 O181 1.195 . S
O175 C174 1.313 . S
C176 O177 1.245 . S
C176 O185 1.289 . S
O177 C176 1.245 . S
C178 O179 1.245 . S
C178 O180 1.289 . S
O179 C178 1.245 . S
O180 Mg173 2.141 . S
O180 C178 1.289 . S
O181 Mg173 2.048 . S
O181 C174 1.195 . S
O182 Mg173 2.048 . S
O182 C183 1.195 . S
C183 O182 1.195 . S
C183 O184 1.313 . S
O184 C183 1.313 . S
O185 Mg173 2.141 . S
O185 C176 1.289 . S
H186 C192 0.930 . S
H187 C196 0.930 . S
H188 C201 0.929 . S
H189 C199 0.929 . S
H190 C194 0.929 . S
H191 C200 0.929 . S
C192 H186 0.930 . S
C192 C193 1.367 . S
C192 C200 1.378 . S
C193 C192 1.367 . S
C193 C201 1.433 . S
C194 H190 0.929 . S
C194 C196 1.378 . S
C194 C198 1.350 . S
C195 C198 1.463 . S
C195 C200 1.350 . S
C195 N203 1.427 . S
C196 H187 0.930 . S
C196 C194 1.378 . S
C196 C197 1.367 . S
C197 C196 1.367 . S
C197 C199 1.433 . S
C198 C194 1.350 . S
C198 C195 1.463 . S
C198 N202 1.427 . S
C199 H189 0.929 . S
C199 C197 1.433 . S
C199 N202 1.384 . S
C200 H191 0.929 . S
C200 C192 1.378 . S
C200 C195 1.350 . S
C201 H188 0.929 . S
C201 C193 1.433 . S
C201 N203 1.384 . S
N202 C198 1.427 . S
N202 C199 1.384 . S
N203 C195 1.427 . S
N203 C201 1.384 . S
H204 C210 0.930 . S
H205 C214 0.930 . S
H206 C219 0.929 . S
H207 C217 0.929 . S
H208 C212 0.929 . S
H209 C218 0.929 . S
C210 H204 0.930 . S
C210 C211 1.367 . S
C210 C218 1.378 . S
C211 C210 1.367 . S
C211 C219 1.433 . S
C212 H208 0.929 . S
C212 C214 1.378 . S
C212 C216 1.350 . S
C213 C216 1.463 . S
C213 C218 1.350 . S
C213 N221 1.427 . S
C214 H205 0.930 . S
C214 C212 1.378 . S
C214 C215 1.367 . S
C215 C214 1.367 . S
C215 C217 1.433 . S
C216 C212 1.350 . S
C216 C213 1.463 . S
C216 N220 1.427 . S
C217 H207 0.929 . S
C217 C215 1.433 . S
C217 N220 1.384 . S
C218 H209 0.929 . S
C218 C210 1.378 . S
C218 C213 1.350 . S
C219 H206 0.929 . S
C219 C211 1.433 . S
C219 N221 1.384 . S
N220 C216 1.427 . S
N220 C217 1.384 . S
N221 C213 1.427 . S
N221 C219 1.384 . S
H222 C228 0.930 . S
H223 C232 0.930 . S
H224 C237 0.929 . S
H225 C235 0.929 . S
H226 C230 0.929 . S
H227 C236 0.929 . S
C228 H222 0.930 . S
C228 C229 1.367 . S
C228 C236 1.378 . S
C229 C228 1.367 . S
C229 C237 1.433 . S
C230 H226 0.929 . S
C230 C232 1.378 . S
C230 C234 1.350 . S
C231 C234 1.463 . S
C231 C236 1.350 . S
C231 N239 1.427 . S
C232 H223 0.930 . S
C232 C230 1.378 . S
C232 C233 1.367 . S
C233 C232 1.367 . S
C233 C235 1.433 . S
C234 C230 1.350 . S
C234 C231 1.463 . S
C234 N238 1.427 . S
C235 H225 0.929 . S
C235 C233 1.433 . S
C235 N238 1.384 . S
C236 H227 0.929 . S
C236 C228 1.378 . S
C236 C231 1.350 . S
C237 H224 0.929 . S
C237 C229 1.433 . S
C237 N239 1.384 . S
N238 C234 1.427 . S
N238 C235 1.384 . S
N239 C231 1.427 . S
N239 C237 1.384 . S
H240 C246 0.930 . S
H241 C250 0.930 . S
H242 C255 0.929 . S
H243 C253 0.929 . S
H244 C248 0.929 . S
H245 C254 0.929 . S
C246 H240 0.930 . S
C246 C247 1.367 . S
C246 C254 1.378 . S
C247 C246 1.367 . S
C247 C255 1.433 . S
C248 H244 0.929 . S
C248 C250 1.378 . S
C248 C252 1.350 . S
C249 C252 1.463 . S
C249 C254 1.350 . S
C249 N257 1.427 . S
C250 H241 0.930 . S
C250 C248 1.378 . S
C250 C251 1.367 . S
C251 C250 1.367 . S
C251 C253 1.433 . S
C252 C248 1.350 . S
C252 C249 1.463 . S
C252 N256 1.427 . S
C253 H243 0.929 . S
C253 C251 1.433 . S
C253 N256 1.384 . S
C254 H245 0.929 . S
C254 C246 1.378 . S
C254 C249 1.350 . S
C255 H242 0.929 . S
C255 C247 1.433 . S
C255 N257 1.384 . S
N256 C252 1.427 . S
N256 C253 1.384 . S
N257 C249 1.427 . S
N257 C255 1.384 . S
H258 C264 0.930 . S
H259 C268 0.930 . S
H260 C273 0.929 . S
H261 C271 0.929 . S
H262 C266 0.929 . S
H263 C272 0.929 . S
C264 H258 0.930 . S
C264 C265 1.367 . S
C264 C272 1.378 . S
C265 C264 1.367 . S
C265 C273 1.433 . S
C266 H262 0.929 . S
C266 C268 1.378 . S
C266 C270 1.350 . S
C267 C270 1.463 . S
C267 C272 1.350 . S
C267 N275 1.427 . S
C268 H259 0.930 . S
C268 C266 1.378 . S
C268 C269 1.367 . S
C269 C268 1.367 . S
C269 C271 1.433 . S
C270 C266 1.350 . S
C270 C267 1.463 . S
C270 N274 1.427 . S
C271 H261 0.929 . S
C271 C269 1.433 . S
C271 N274 1.384 . S
C272 H263 0.929 . S
C272 C264 1.378 . S
C272 C267 1.350 . S
C273 H260 0.929 . S
C273 C265 1.433 . S
C273 N275 1.384 . S
N274 C270 1.427 . S
N274 C271 1.384 . S
N275 C267 1.427 . S
N275 C273 1.384 . S
H276 C282 0.930 . S
H277 C286 0.930 . S
H278 C291 0.929 . S
H279 C289 0.929 . S
H280 C284 0.929 . S
H281 C290 0.929 . S
C282 H276 0.930 . S
C282 C283 1.367 . S
C282 C290 1.378 . S
C283 C282 1.367 . S
C283 C291 1.433 . S
C284 H280 0.929 . S
C284 C286 1.378 . S
C284 C288 1.350 . S
C285 C288 1.463 . S
C285 C290 1.350 . S
C285 N293 1.427 . S
C286 H277 0.930 . S
C286 C284 1.378 . S
C286 C287 1.367 . S
C287 C286 1.367 . S
C287 C289 1.433 . S
C288 C284 1.350 . S
C288 C285 1.463 . S
C288 N292 1.427 . S
C289 H279 0.929 . S
C289 C287 1.433 . S
C289 N292 1.384 . S
C290 H281 0.929 . S
C290 C282 1.378 . S
C290 C285 1.350 . S
C291 H278 0.929 . S
C291 C283 1.433 . S
C291 N293 1.384 . S
N292 C288 1.427 . S
N292 C289 1.384 . S
N293 C285 1.427 . S
N293 C291 1.384 . S
H294 C300 0.930 . S
H295 C304 0.930 . S
H296 C309 0.929 . S
H297 C307 0.929 . S
H298 C302 0.929 . S
H299 C308 0.929 . S
C300 H294 0.930 . S
C300 C301 1.367 . S
C300 C308 1.378 . S
C301 C300 1.367 . S
C301 C309 1.433 . S
C302 H298 0.929 . S
C302 C304 1.378 . S
C302 C306 1.350 . S
C303 C306 1.463 . S
C303 C308 1.350 . S
C303 N311 1.427 . S
C304 H295 0.930 . S
C304 C302 1.378 . S
C304 C305 1.367 . S
C305 C304 1.367 . S
C305 C307 1.433 . S
C306 C302 1.350 . S
C306 C303 1.463 . S
C306 N310 1.427 . S
C307 H297 0.929 . S
C307 C305 1.433 . S
C307 N310 1.384 . S
C308 H299 0.929 . S
C308 C300 1.378 . S
C308 C303 1.350 . S
C309 H296 0.929 . S
C309 C301 1.433 . S
C309 N311 1.384 . S
N310 C306 1.427 . S
N310 C307 1.384 . S
N311 C303 1.427 . S
N311 C309 1.384 . S
H312 C318 0.930 . S
H313 C322 0.930 . S
H314 C327 0.929 . S
H315 C325 0.929 . S
H316 C320 0.929 . S
H317 C326 0.929 . S
C318 H312 0.930 . S
C318 C319 1.367 . S
C318 C326 1.378 . S
C319 C318 1.367 . S
C319 C327 1.433 . S
C320 H316 0.929 . S
C320 C322 1.378 . S
C320 C324 1.350 . S
C321 C324 1.463 . S
C321 C326 1.350 . S
C321 N329 1.427 . S
C322 H313 0.930 . S
C322 C320 1.378 . S
C322 C323 1.367 . S
C323 C322 1.367 . S
C323 C325 1.433 . S
C324 C320 1.350 . S
C324 C321 1.463 . S
C324 N328 1.427 . S
C325 H315 0.929 . S
C325 C323 1.433 . S
C325 N328 1.384 . S
C326 H317 0.929 . S
C326 C318 1.378 . S
C326 C321 1.350 . S
C327 H314 0.929 . S
C327 C319 1.433 . S
C327 N329 1.384 . S
N328 C324 1.427 . S
N328 C325 1.384 . S
N329 C321 1.427 . S
N329 C327 1.384 . S
H330 C336 0.930 . S
H331 C340 0.930 . S
H332 C345 0.929 . S
H333 C343 0.929 . S
H334 C338 0.929 . S
H335 C344 0.929 . S
C336 H330 0.930 . S
C336 C337 1.367 . S
C336 C344 1.378 . S
C337 C336 1.367 . S
C337 C345 1.433 . S
C338 H334 0.929 . S
C338 C340 1.378 . S
C338 C342 1.350 . S
C339 C342 1.463 . S
C339 C344 1.350 . S
C339 N347 1.427 . S
C340 H331 0.930 . S
C340 C338 1.378 . S
C340 C341 1.367 . S
C341 C340 1.367 . S
C341 C343 1.433 . S
C342 C338 1.350 . S
C342 C339 1.463 . S
C342 N346 1.427 . S
C343 H333 0.929 . S
C343 C341 1.433 . S
C343 N346 1.384 . S
C344 H335 0.929 . S
C344 C336 1.378 . S
C344 C339 1.350 . S
C345 H332 0.929 . S
C345 C337 1.433 . S
C345 N347 1.384 . S
N346 C342 1.427 . S
N346 C343 1.384 . S
N347 C339 1.427 . S
N347 C345 1.384 . S
H348 C354 0.930 . S
H349 C358 0.930 . S
H350 C363 0.929 . S
H351 C361 0.929 . S
H352 C356 0.929 . S
H353 C362 0.929 . S
C354 H348 0.930 . S
C354 C355 1.367 . S
C354 C362 1.378 . S
C355 C354 1.367 . S
C355 C363 1.433 . S
C356 H352 0.929 . S
C356 C358 1.378 . S
C356 C360 1.350 . S
C357 C360 1.463 . S
C357 C362 1.350 . S
C357 N365 1.427 . S
C358 H349 0.930 . S
C358 C356 1.378 . S
C358 C359 1.367 . S
C359 C358 1.367 . S
C359 C361 1.433 . S
C360 C356 1.350 . S
C360 C357 1.463 . S
C360 N364 1.427 . S
C361 H351 0.929 . S
C361 C359 1.433 . S
C361 N364 1.384 . S
C362 H353 0.929 . S
C362 C354 1.378 . S
C362 C357 1.350 . S
C363 H350 0.929 . S
C363 C355 1.433 . S
C363 N365 1.384 . S
N364 C360 1.427 . S
N364 C361 1.384 . S
N365 C357 1.427 . S
N365 C363 1.384 . S
H366 C372 0.930 . S
H367 C376 0.930 . S
H368 C381 0.929 . S
H369 C379 0.929 . S
H370 C374 0.929 . S
H371 C380 0.929 . S
C372 H366 0.930 . S
C372 C373 1.367 . S
C372 C380 1.378 . S
C373 C372 1.367 . S
C373 C381 1.433 . S
C374 H370 0.929 . S
C374 C376 1.378 . S
C374 C378 1.350 . S
C375 C378 1.463 . S
C375 C380 1.350 . S
C375 N383 1.427 . S
C376 H367 0.930 . S
C376 C374 1.378 . S
C376 C377 1.367 . S
C377 C376 1.367 . S
C377 C379 1.433 . S
C378 C374 1.350 . S
C378 C375 1.463 . S
C378 N382 1.427 . S
C379 H369 0.929 . S
C379 C377 1.433 . S
C379 N382 1.384 . S
C380 H371 0.929 . S
C380 C372 1.378 . S
C380 C375 1.350 . S
C381 H368 0.929 . S
C381 C373 1.433 . S
C381 N383 1.384 . S
N382 C378 1.427 . S
N382 C379 1.384 . S
N383 C375 1.427 . S
N383 C381 1.384 . S
H384 C390 0.930 . S
H385 C394 0.930 . S
H386 C399 0.929 . S
H387 C397 0.929 . S
H388 C392 0.929 . S
H389 C398 0.929 . S
C390 H384 0.930 . S
C390 C391 1.367 . S
C390 C398 1.378 . S
C391 C390 1.367 . S
C391 C399 1.433 . S
C392 H388 0.929 . S
C392 C394 1.378 . S
C392 C396 1.350 . S
C393 C396 1.463 . S
C393 C398 1.350 . S
C393 N401 1.427 . S
C394 H385 0.930 . S
C394 C392 1.378 . S
C394 C395 1.367 . S
C395 C394 1.367 . S
C395 C397 1.433 . S
C396 C392 1.350 . S
C396 C393 1.463 . S
C396 N400 1.427 . S
C397 H387 0.929 . S
C397 C395 1.433 . S
C397 N400 1.384 . S
C398 H389 0.929 . S
C398 C390 1.378 . S
C398 C393 1.350 . S
C399 H386 0.929 . S
C399 C391 1.433 . S
C399 N401 1.384 . S
N400 C396 1.427 . S
N400 C397 1.384 . S
N401 C393 1.427 . S
N401 C399 1.384 . S
H402 C408 0.930 . S
H403 C412 0.930 . S
H404 C417 0.929 . S
H405 C415 0.929 . S
H406 C410 0.929 . S
H407 C416 0.929 . S
C408 H402 0.930 . S
C408 C409 1.367 . S
C408 C416 1.378 . S
C409 C408 1.367 . S
C409 C417 1.433 . S
C410 H406 0.929 . S
C410 C412 1.378 . S
C410 C414 1.350 . S
C411 C414 1.463 . S
C411 C416 1.350 . S
C411 N419 1.427 . S
C412 H403 0.930 . S
C412 C410 1.378 . S
C412 C413 1.367 . S
C413 C412 1.367 . S
C413 C415 1.433 . S
C414 C410 1.350 . S
C414 C411 1.463 . S
C414 N418 1.427 . S
C415 H405 0.929 . S
C415 C413 1.433 . S
C415 N418 1.384 . S
C416 H407 0.929 . S
C416 C408 1.378 . S
C416 C411 1.350 . S
C417 H404 0.929 . S
C417 C409 1.433 . S
C417 N419 1.384 . S
N418 C414 1.427 . S
N418 C415 1.384 . S
N419 C411 1.427 . S
N419 C417 1.384 . S
H420 C426 0.930 . S
H421 C430 0.930 . S
H422 C435 0.929 . S
H423 C433 0.929 . S
H424 C428 0.929 . S
H425 C434 0.929 . S
C426 H420 0.930 . S
C426 C427 1.367 . S
C426 C434 1.378 . S
C427 C426 1.367 . S
C427 C435 1.433 . S
C428 H424 0.929 . S
C428 C430 1.378 . S
C428 C432 1.350 . S
C429 C432 1.463 . S
C429 C434 1.350 . S
C429 N437 1.427 . S
C430 H421 0.930 . S
C430 C428 1.378 . S
C430 C431 1.367 . S
C431 C430 1.367 . S
C431 C433 1.433 . S
C432 C428 1.350 . S
C432 C429 1.463 . S
C432 N436 1.427 . S
C433 H423 0.929 . S
C433 C431 1.433 . S
C433 N436 1.384 . S
C434 H425 0.929 . S
C434 C426 1.378 . S
C434 C429 1.350 . S
C435 H422 0.929 . S
C435 C427 1.433 . S
C435 N437 1.384 . S
N436 C432 1.427 . S
N436 C433 1.384 . S
N437 C429 1.427 . S
N437 C435 1.384 . S
H438 C444 0.930 . S
H439 C448 0.930 . S
H440 C453 0.929 . S
H441 C451 0.929 . S
H442 C446 0.929 . S
H443 C452 0.929 . S
C444 H438 0.930 . S
C444 C445 1.367 . S
C444 C452 1.378 . S
C445 C444 1.367 . S
C445 C453 1.433 . S
C446 H442 0.929 . S
C446 C448 1.378 . S
C446 C450 1.350 . S
C447 C450 1.463 . S
C447 C452 1.350 . S
C447 N455 1.427 . S
C448 H439 0.930 . S
C448 C446 1.378 . S
C448 C449 1.367 . S
C449 C448 1.367 . S
C449 C451 1.433 . S
C450 C446 1.350 . S
C450 C447 1.463 . S
C450 N454 1.427 . S
C451 H441 0.929 . S
C451 C449 1.433 . S
C451 N454 1.384 . S
C452 H443 0.929 . S
C452 C444 1.378 . S
C452 C447 1.350 . S
C453 H440 0.929 . S
C453 C445 1.433 . S
C453 N455 1.384 . S
N454 C450 1.427 . S
N454 C451 1.384 . S
N455 C447 1.427 . S
N455 C453 1.384 . S
H456 C462 0.930 . S
H457 C466 0.930 . S
H458 C471 0.929 . S
H459 C469 0.929 . S
H460 C464 0.929 . S
H461 C470 0.929 . S
C462 H456 0.930 . S
C462 C463 1.367 . S
C462 C470 1.378 . S
C463 C462 1.367 . S
C463 C471 1.433 . S
C464 H460 0.929 . S
C464 C466 1.378 . S
C464 C468 1.350 . S
C465 C468 1.463 . S
C465 C470 1.350 . S
C465 N473 1.427 . S
C466 H457 0.930 . S
C466 C464 1.378 . S
C466 C467 1.367 . S
C467 C466 1.367 . S
C467 C469 1.433 . S
C468 C464 1.350 . S
C468 C465 1.463 . S
C468 N472 1.427 . S
C469 H459 0.929 . S
C469 C467 1.433 . S
C469 N472 1.384 . S
C470 H461 0.929 . S
C470 C462 1.378 . S
C470 C465 1.350 . S
C471 H458 0.929 . S
C471 C463 1.433 . S
C471 N473 1.384 . S
N472 C468 1.427 . S
N472 C469 1.384 . S
N473 C465 1.427 . S
N473 C471 1.384 . S
H474 C480 0.930 . S
H475 C484 0.930 . S
H476 C489 0.929 . S
H477 C487 0.929 . S
H478 C482 0.929 . S
H479 C488 0.929 . S
C480 H474 0.930 . S
C480 C481 1.367 . S
C480 C488 1.378 . S
C481 C480 1.367 . S
C481 C489 1.433 . S
C482 H478 0.929 . S
C482 C484 1.378 . S
C482 C486 1.350 . S
C483 C486 1.463 . S
C483 C488 1.350 . S
C483 N491 1.427 . S
C484 H475 0.930 . S
C484 C482 1.378 . S
C484 C485 1.367 . S
C485 C484 1.367 . S
C485 C487 1.433 . S
C486 C482 1.350 . S
C486 C483 1.463 . S
C486 N490 1.427 . S
C487 H477 0.929 . S
C487 C485 1.433 . S
C487 N490 1.384 . S
C488 H479 0.929 . S
C488 C480 1.378 . S
C488 C483 1.350 . S
C489 H476 0.929 . S
C489 C481 1.433 . S
C489 N491 1.384 . S
N490 C486 1.427 . S
N490 C487 1.384 . S
N491 C483 1.427 . S
N491 C489 1.384 . S
H492 C498 0.930 . S
H493 C502 0.930 . S
H494 C507 0.929 . S
H495 C505 0.929 . S
H496 C500 0.929 . S
H497 C506 0.929 . S
C498 H492 0.930 . S
C498 C499 1.367 . S
C498 C506 1.378 . S
C499 C498 1.367 . S
C499 C507 1.433 . S
C500 H496 0.929 . S
C500 C502 1.378 . S
C500 C504 1.350 . S
C501 C504 1.463 . S
C501 C506 1.350 . S
C501 N509 1.427 . S
C502 H493 0.930 . S
C502 C500 1.378 . S
C502 C503 1.367 . S
C503 C502 1.367 . S
C503 C505 1.433 . S
C504 C500 1.350 . S
C504 C501 1.463 . S
C504 N508 1.427 . S
C505 H495 0.929 . S
C505 C503 1.433 . S
C505 N508 1.384 . S
C506 H497 0.929 . S
C506 C498 1.378 . S
C506 C501 1.350 . S
C507 H494 0.929 . S
C507 C499 1.433 . S
C507 N509 1.384 . S
N508 C504 1.427 . S
N508 C505 1.384 . S
N509 C501 1.427 . S
N509 C507 1.384 . S
H510 C516 0.930 . S
H511 C520 0.930 . S
H512 C525 0.929 . S
H513 C523 0.929 . S
H514 C518 0.929 . S
H515 C524 0.929 . S
C516 H510 0.930 . S
C516 C517 1.367 . S
C516 C524 1.378 . S
C517 C516 1.367 . S
C517 C525 1.433 . S
C518 H514 0.929 . S
C518 C520 1.378 . S
C518 C522 1.350 . S
C519 C522 1.463 . S
C519 C524 1.350 . S
C519 N527 1.427 . S
C520 H511 0.930 . S
C520 C518 1.378 . S
C520 C521 1.367 . S
C521 C520 1.367 . S
C521 C523 1.433 . S
C522 C518 1.350 . S
C522 C519 1.463 . S
C522 N526 1.427 . S
C523 H513 0.929 . S
C523 C521 1.433 . S
C523 N526 1.384 . S
C524 H515 0.929 . S
C524 C516 1.378 . S
C524 C519 1.350 . S
C525 H512 0.929 . S
C525 C517 1.433 . S
C525 N527 1.384 . S
N526 C522 1.427 . S
N526 C523 1.384 . S
N527 C519 1.427 . S
N527 C525 1.384 . S
H528 C534 0.930 . S
H529 C538 0.930 . S
H530 C543 0.929 . S
H531 C541 0.929 . S
H532 C536 0.929 . S
H533 C542 0.929 . S
C534 H528 0.930 . S
C534 C535 1.367 . S
C534 C542 1.378 . S
C535 C534 1.367 . S
C535 C543 1.433 . S
C536 H532 0.929 . S
C536 C538 1.378 . S
C536 C540 1.350 . S
C537 C540 1.463 . S
C537 C542 1.350 . S
C537 N545 1.427 . S
C538 H529 0.930 . S
C538 C536 1.378 . S
C538 C539 1.367 . S
C539 C538 1.367 . S
C539 C541 1.433 . S
C540 C536 1.350 . S
C540 C537 1.463 . S
C540 N544 1.427 . S
C541 H531 0.929 . S
C541 C539 1.433 . S
C541 N544 1.384 . S
C542 H533 0.929 . S
C542 C534 1.378 . S
C542 C537 1.350 . S
C543 H530 0.929 . S
C543 C535 1.433 . S
C543 N545 1.384 . S
N544 C540 1.427 . S
N544 C541 1.384 . S
N545 C537 1.427 . S
N545 C543 1.384 . S
H546 C552 0.930 . S
H547 C556 0.930 . S
H548 C561 0.929 . S
H549 C559 0.929 . S
H550 C554 0.929 . S
H551 C560 0.929 . S
C552 H546 0.930 . S
C552 C553 1.367 . S
C552 C560 1.378 . S
C553 C552 1.367 . S
C553 C561 1.433 . S
C554 H550 0.929 . S
C554 C556 1.378 . S
C554 C558 1.350 . S
C555 C558 1.463 . S
C555 C560 1.350 . S
C555 N563 1.427 . S
C556 H547 0.930 . S
C556 C554 1.378 . S
C556 C557 1.367 . S
C557 C556 1.367 . S
C557 C559 1.433 . S
C558 C554 1.350 . S
C558 C555 1.463 . S
C558 N562 1.427 . S
C559 H549 0.929 . S
C559 C557 1.433 . S
C559 N562 1.384 . S
C560 H551 0.929 . S
C560 C552 1.378 . S
C560 C555 1.350 . S
C561 H548 0.929 . S
C561 C553 1.433 . S
C561 N563 1.384 . S
N562 C558 1.427 . S
N562 C559 1.384 . S
N563 C555 1.427 . S
N563 C561 1.384 . S
H564 C570 0.930 . S
H565 C574 0.930 . S
H566 C579 0.929 . S
H567 C577 0.929 . S
H568 C572 0.929 . S
H569 C578 0.929 . S
C570 H564 0.930 . S
C570 C571 1.367 . S
C570 C578 1.378 . S
C571 C570 1.367 . S
C571 C579 1.433 . S
C572 H568 0.929 . S
C572 C574 1.378 . S
C572 C576 1.350 . S
C573 C576 1.463 . S
C573 C578 1.350 . S
C573 N581 1.427 . S
C574 H565 0.930 . S
C574 C572 1.378 . S
C574 C575 1.367 . S
C575 C574 1.367 . S
C575 C577 1.433 . S
C576 C572 1.350 . S
C576 C573 1.463 . S
C576 N580 1.427 . S
C577 H567 0.929 . S
C577 C575 1.433 . S
C577 N580 1.384 . S
C578 H569 0.929 . S
C578 C570 1.378 . S
C578 C573 1.350 . S
C579 H566 0.929 . S
C579 C571 1.433 . S
C579 N581 1.384 . S
N580 C576 1.427 . S
N580 C577 1.384 . S
N581 C573 1.427 . S
N581 C579 1.384 . S
H582 C588 0.930 . S
H583 C592 0.930 . S
H584 C597 0.929 . S
H585 C595 0.929 . S
H586 C590 0.929 . S
H587 C596 0.929 . S
C588 H582 0.930 . S
C588 C589 1.367 . S
C588 C596 1.378 . S
C589 C588 1.367 . S
C589 C597 1.433 . S
C590 H586 0.929 . S
C590 C592 1.378 . S
C590 C594 1.350 . S
C591 C594 1.463 . S
C591 C596 1.350 . S
C591 N599 1.427 . S
C592 H583 0.930 . S
C592 C590 1.378 . S
C592 C593 1.367 . S
C593 C592 1.367 . S
C593 C595 1.433 . S
C594 C590 1.350 . S
C594 C591 1.463 . S
C594 N598 1.427 . S
C595 H585 0.929 . S
C595 C593 1.433 . S
C595 N598 1.384 . S
C596 H587 0.929 . S
C596 C588 1.378 . S
C596 C591 1.350 . S
C597 H584 0.929 . S
C597 C589 1.433 . S
C597 N599 1.384 . S
N598 C594 1.427 . S
N598 C595 1.384 . S
N599 C591 1.427 . S
N599 C597 1.384 . S
H600 C606 0.930 . S
H601 C610 0.930 . S
H602 C615 0.929 . S
H603 C613 0.929 . S
H604 C608 0.929 . S
H605 C614 0.929 . S
C606 H600 0.930 . S
C606 C607 1.367 . S
C606 C614 1.378 . S
C607 C606 1.367 . S
C607 C615 1.433 . S
C608 H604 0.929 . S
C608 C610 1.378 . S
C608 C612 1.350 . S
C609 C612 1.463 . S
C609 C614 1.350 . S
C609 N617 1.427 . S
C610 H601 0.930 . S
C610 C608 1.378 . S
C610 C611 1.367 . S
C611 C610 1.367 . S
C611 C613 1.433 . S
C612 C608 1.350 . S
C612 C609 1.463 . S
C612 N616 1.427 . S
C613 H603 0.929 . S
C613 C611 1.433 . S
C613 N616 1.384 . S
C614 H605 0.929 . S
C614 C606 1.378 . S
C614 C609 1.350 . S
C615 H602 0.929 . S
C615 C607 1.433 . S
C615 N617 1.384 . S
N616 C612 1.427 . S
N616 C613 1.384 . S
N617 C609 1.427 . S
N617 C615 1.384 . S
C193 C14 1.511 . S
C197 C109 1.551 . S
C211 C25 1.508 . S
C215 C122 1.555 . S
C233 C144 1.526 . S
C229 C43 1.499 . S
C251 C157 1.519 . S
C247 C62 1.513 . S
C269 C170 1.514 . S
C265 C80 1.500 . S
C287 C183 1.525 . S
C283 C97 1.503 . S
C301 C32 1.502 . S
C305 C139 1.515 . S
C319 C50 1.500 . S
C323 C152 1.518 . S
C341 C165 1.504 . S
C337 C70 1.503 . S
C359 C178 1.508 . S
C355 C88 1.509 . S
C373 C104 1.508 . S
C377 C111 1.552 . S
C395 C124 1.556 . S
C391 C7 1.512 . S
C413 C150 1.508 . S
C409 C8 1.504 . S
C427 C34 1.493 . S
C431 C163 1.505 . S
C449 C176 1.511 . S
C445 C52 1.491 . S
C463 C68 1.500 . S
C467 C113 1.552 . S
C481 C86 1.507 . S
C485 C126 1.552 . S
C499 C106 1.504 . S
C503 C137 1.505 . S
C517 C26 1.508 . S
C521 C174 1.520 . S
C539 C118 1.559 . S
C535 C44 1.521 . S
C553 C61 1.517 . S
C557 C131 1.560 . S
C571 C79 1.504 . S
C575 C135 1.528 . S
C589 C98 1.505 . S
C593 C148 1.527 . S
C607 C16 1.504 . S
C611 C161 1.517 . S
