# Generated by pormake.
# Topology tsx, (6,3)-cn, num edge types: 1
# Building blocks:
#     Node 0, Type 0, BuildingBlock: MIDCAF_clean_sbu_0, # of connection points: 6
#     Node 1, Type 0, BuildingBlock: MIDCAF_clean_sbu_0, # of connection points: 6
#     Node 2, Type 1, BuildingBlock: VETTIZ_charged_linker_0, # of connection points: 3
#     Node 3, Type 1, BuildingBlock: VETTIZ_charged_linker_0, # of connection points: 3
#     Node 4, Type 1, BuildingBlock: VETTIZ_charged_linker_0, # of connection points: 3
#     Node 5, Type 1, BuildingBlock: VETTIZ_charged_linker_0, # of connection points: 3
#     Edge 6, Type (0, 1), BuildingBlock: OJICUG_clean_linker_0, # of connection points: 2
#     Edge 7, Type (0, 1), BuildingBlock: OJICUG_clean_linker_0, # of connection points: 2
#     Edge 8, Type (0, 1), BuildingBlock: OJICUG_clean_linker_0, # of connection points: 2
#     Edge 9, Type (0, 1), BuildingBlock: OJICUG_clean_linker_0, # of connection points: 2
#     Edge 10, Type (0, 1), BuildingBlock: OJICUG_clean_linker_0, # of connection points: 2
#     Edge 11, Type (0, 1), BuildingBlock: OJICUG_clean_linker_0, # of connection points: 2
#     Edge 12, Type (0, 1), BuildingBlock: OJICUG_clean_linker_0, # of connection points: 2
#     Edge 13, Type (0, 1), BuildingBlock: OJICUG_clean_linker_0, # of connection points: 2
#     Edge 14, Type (0, 1), BuildingBlock: OJICUG_clean_linker_0, # of connection points: 2
#     Edge 15, Type (0, 1), BuildingBlock: OJICUG_clean_linker_0, # of connection points: 2
#     Edge 16, Type (0, 1), BuildingBlock: OJICUG_clean_linker_0, # of connection points: 2
#     Edge 17, Type (0, 1), BuildingBlock: OJICUG_clean_linker_0, # of connection points: 2
# Relax obj value: 0.121
# Max RMSD: 0.183
# Mean RMSD: 0.115
data_MOF--net-tsx--node1-MIDCAF_clean_sbu_0--node2-VETTIZ_charged_linker_0--edge1-OJICUG_clean_linker_0
_symmetry_space_group_name_H-M    P1
_symmetry_Int_Tables_number       1
_symmetry_cell_setting            triclinic
loop_
_symmetry_equiv_pos_as_xyz
'x, y, z'
_cell_length_a     17.220831
_cell_length_b     19.286166
_cell_length_c     38.323682
_cell_angle_alpha  93.806813
_cell_angle_beta   100.28138
_cell_angle_gamma 90.870962
loop_
_atom_site_label
_atom_site_type_symbol
_atom_site_fract_x
_atom_site_fract_y
_atom_site_fract_z
_atom_type_partial_charge
Zn0 Zn 1.01787 0.93591 0.96227 0.0
Zn1 Zn 0.24212 0.0021 0.03817 0.0
Zn2 Zn 0.11712 0.98899 -0.00054 0.0
C3 C 0.22078 0.12082 -0.00243 0.0
C4 C 0.23783 0.87434 -0.00285 0.0
O5 O 1.02551 0.94415 0.02649 0.0
O6 O 1.00485 0.85219 -0.0114 0.0
C7 C 0.98555 0.07918 0.97274 0.0
O8 O 0.15003 0.09509 -0.01157 0.0
O9 O 0.27373 0.08621 0.01542 0.0
O10 O 0.27816 0.90663 0.0244 0.0
O11 O 0.17468 0.90052 -0.01842 0.0
O12 O 0.94871 0.02121 0.97087 0.0
O13 O 0.06128 0.07863 0.97495 0.0
O14 O 0.10786 0.04111 0.94893 0.0
O15 O 0.07758 0.93778 0.92189 0.0
C16 C 0.10116 -0.00011 0.92063 0.0
O17 O 0.0798 -0.00644 0.04963 0.0
O18 O 0.19624 0.02012 0.08284 0.0
C19 C 0.99613 0.88218 0.01794 0.0
C20 C 0.12243 0.01115 0.07989 0.0
Zn21 Zn 0.72536 0.4837 0.53378 0.0
Zn22 Zn 0.50013 0.42607 0.45778 0.0
Zn23 Zn 0.59894 0.47455 0.49673 0.0
C24 C 0.58872 0.49176 0.41897 0.0
C25 C 0.46855 0.56774 0.47001 0.0
O26 O 0.56218 0.4789 0.54716 0.0
O27 O 0.68233 0.49068 0.57915 0.0
C28 C 0.71984 0.3593 0.4913 0.0
O29 O 0.59377 0.53091 0.4479 0.0
O30 O 0.56329 0.42968 0.41851 0.0
O31 O 0.43104 0.51 0.46661 0.0
O32 O 0.54449 0.5668 0.47313 0.0
O33 O 0.76379 0.39244 0.51717 0.0
O34 O 0.65407 0.38435 0.47785 0.0
O35 O 0.63279 0.5808 0.48651 0.0
O36 O 0.75556 0.57266 0.51494 0.0
C37 C 0.70285 0.60735 0.497 0.0
O38 O 0.50579 0.4303 0.52239 0.0
O39 O 0.47821 0.34256 0.48184 0.0
C40 C 0.60831 0.48806 0.57727 0.0
C41 C 0.47131 0.37094 0.51183 0.0
C42 C 0.21838 0.82887 0.43853 0.0
C43 C 0.28096 0.79789 0.42452 0.0
C44 C 0.29003 0.81004 0.38966 0.0
C45 C 0.17357 0.87962 0.38241 0.0
C46 C 0.1659 0.87039 0.41709 0.0
C47 C 0.09716 0.9097 0.42739 0.0
H48 H 0.812 0.14335 0.38123 0.0
C49 C 0.10883 0.92289 0.36658 0.0
C50 C 0.06394 0.94179 0.3927 0.0
H51 H 0.87928 0.05736 0.48306 0.0
H52 H 0.96855 0.97964 0.45843 0.0
H53 H 0.97277 0.16068 0.36356 0.0
H54 H 0.80546 0.98968 0.33501 0.0
H55 H 0.84952 0.00032 0.29775 0.0
H56 H 0.79413 0.07027 0.31406 0.0
H57 H 0.88605 0.16487 0.33001 0.0
H58 H 0.97736 0.13241 0.31953 0.0
C59 C 0.13065 0.96535 0.45748 0.0
C60 C 0.038 0.85709 0.43779 0.0
C61 C 0.07865 0.96651 0.23626 0.0
C62 C 1.02708 0.00686 0.21404 0.0
C63 C 0.96904 0.04503 0.2277 0.0
C64 C 0.96167 0.04185 0.26339 0.0
C65 C 1.01395 0.00106 0.28549 0.0
C66 C 0.07153 0.96484 0.27181 0.0
C67 C 0.12457 0.92729 0.2993 0.0
C68 C 0.08735 0.94459 0.33166 0.0
C69 C 1.02282 0.98756 0.32339 0.0
C70 C 0.2094 0.95939 0.30356 0.0
C71 C 0.11724 0.84858 0.28769 0.0
C72 C 0.84408 0.1065 0.3981 0.0
C73 C 0.84024 0.10752 0.43435 0.0
C74 C 0.88346 0.05879 0.45531 0.0
C75 C 0.93521 0.0141 0.44108 0.0
C76 C 0.94336 0.018 0.40551 0.0
C77 C 0.89578 0.06168 0.38434 0.0
C78 C 0.91162 0.05903 0.34712 0.0
C79 C 0.9789 0.00903 0.34982 0.0
C80 C 0.99806 0.98528 0.38413 0.0
C81 C 0.93783 0.13293 0.33927 0.0
C82 C 0.83646 0.02877 0.32192 0.0
H83 H 0.24623 0.85604 0.34207 0.0
H84 H 0.21032 0.82055 0.46535 0.0
H85 H 0.97749 0.87676 0.43502 0.0
H86 H 0.05731 0.84255 0.46552 0.0
H87 H 0.03302 0.80868 0.41997 0.0
H88 H 0.18544 -0.00956 0.45202 0.0
H89 H 0.14567 0.94152 0.48335 0.0
H90 H 0.09025 0.00827 0.46028 0.0
H91 H 0.12502 0.93818 0.22633 0.0
H92 H 0.92947 0.07695 0.21073 0.0
H93 H 0.91628 0.07188 0.27245 0.0
H94 H 0.20911 0.01281 0.2942 0.0
H95 H 0.24642 0.92753 0.2881 0.0
H96 H 0.23936 0.96592 0.33171 0.0
H97 H 0.05462 0.83285 0.27702 0.0
H98 H 0.13602 0.81517 0.30976 0.0
H99 H 0.15205 0.83575 0.26646 0.0
H100 H 0.33683 0.78587 0.3781 0.0
C101 C 0.23674 0.85039 0.36859 0.0
C102 C 0.20188 0.18239 0.56588 0.0
C103 C 0.24901 0.23857 0.58399 0.0
C104 C 0.24063 0.25951 0.61906 0.0
C105 C 0.14246 0.16762 0.61767 0.0
C106 C 0.14839 0.14868 0.58294 0.0
C107 C 0.09035 0.09132 0.56666 0.0
H108 H 0.79992 0.86298 0.58451 0.0
C109 C 0.08222 0.12168 0.62773 0.0
C110 C 0.04932 0.07849 0.59767 0.0
H111 H 0.89382 0.89982 0.48985 0.0
H112 H 0.98195 0.98979 0.52273 0.0
H113 H 0.95627 0.86173 0.63258 0.0
H114 H 0.79812 0.03155 0.61692 0.0
H115 H 0.82986 0.02371 0.66299 0.0
H116 H 0.77714 0.95218 0.63593 0.0
H117 H 0.87821 0.87287 0.65755 0.0
H118 H 0.97459 0.9135 0.67269 0.0
C119 C 0.13755 0.02765 0.55669 0.0
C120 C 0.03349 0.11878 0.53481 0.0
C121 C 0.06835 0.11078 0.75792 0.0
C122 C 0.03001 0.06367 0.77581 0.0
C123 C 0.97067 0.01809 0.75637 0.0
C124 C 0.95291 0.01663 0.71921 0.0
C125 C 0.99615 0.06021 0.70134 0.0
C126 C 0.05138 0.10751 0.72069 0.0
C127 C 0.09497 0.1467 0.69727 0.0
C128 C 0.0596 0.11261 0.66092 0.0
C129 C 1.00128 0.06241 0.66337 0.0
C130 C 0.18419 0.13239 0.70784 0.0
C131 C 0.07426 0.22454 0.70089 0.0
C132 C 0.83747 0.89207 0.57051 0.0
C133 C 0.83885 0.87501 0.53429 0.0
C134 C 0.8913 0.91218 0.51759 0.0
C135 C 0.94236 0.96435 0.53668 0.0
C136 C 0.94122 0.97987 0.57289 0.0
C137 C 0.88918 0.94423 0.58925 0.0
C138 C 0.90036 0.96459 0.62854 0.0
C139 C 0.96484 0.02085 0.63254 0.0
C140 C 0.98878 0.02904 0.59987 0.0
C141 C 0.92832 0.90011 0.64911 0.0
C142 C 0.82227 -0.00565 0.63682 0.0
H143 H 0.18393 0.24276 0.66258 0.0
H144 H 0.20635 0.16455 0.53895 0.0
H145 H 0.03363 0.17658 0.53598 0.0
H146 H 0.97141 0.10304 0.53476 0.0
H147 H 0.04975 0.10053 0.50903 0.0
H148 H 0.18565 0.01739 0.57913 0.0
H149 H 0.16511 0.03701 0.53329 0.0
H150 H 0.10117 0.97928 0.55083 0.0
H151 H 0.11472 0.1456 0.77242 0.0
H152 H 0.94047 0.98147 0.76995 0.0
H153 H 0.90857 0.9797 0.70576 0.0
H154 H 0.19326 0.07617 0.71157 0.0
H155 H 0.21021 0.16204 0.73318 0.0
H156 H 0.21913 0.1452 0.68762 0.0
H157 H 1.01685 0.23159 0.70999 0.0
H158 H 0.0666 0.24875 0.67512 0.0
H159 H 0.12 0.25461 0.72039 0.0
H160 H 0.27431 0.30365 0.63341 0.0
C161 C 0.18756 0.22446 0.63591 0.0
C162 C 0.73943 0.34435 0.94335 0.0
C163 C 0.80364 0.31538 0.92975 0.0
C164 C 0.81744 0.33351 0.89637 0.0
C165 C 0.70057 0.40248 0.88895 0.0
C166 C 0.68921 0.38871 0.92261 0.0
C167 C 0.61943 0.42684 0.93264 0.0
H168 H 0.3345 0.66086 0.88617 0.0
C169 C 0.63555 0.44523 0.87294 0.0
C170 C 0.58797 0.46105 0.89835 0.0
H171 H 0.40095 0.57412 -0.01217 0.0
H172 H 0.48998 0.49614 0.96297 0.0
H173 H 0.50042 0.67244 0.86357 0.0
H174 H 0.31885 0.51249 0.84266 0.0
H175 H 0.37059 0.50172 0.80718 0.0
H176 H 0.31968 0.58151 0.81371 0.0
H177 H 0.40381 0.6807 0.83739 0.0
H178 H 0.48288 0.64532 0.81777 0.0
C179 C 0.65148 0.48076 0.96377 0.0
C180 C 0.55942 0.37317 0.94146 0.0
C181 C 0.60335 0.48158 0.7421 0.0
C182 C 0.54213 0.50767 0.71762 0.0
C183 C 0.47894 0.54054 0.7302 0.0
C184 C 0.47572 0.54476 0.7666 0.0
C185 C 0.53598 0.51542 0.79044 0.0
C186 C 0.59823 0.48452 0.77792 0.0
C187 C 0.65391 0.45128 0.80619 0.0
C188 C 0.61399 0.46617 0.8379 0.0
C189 C 0.54607 0.50475 0.82869 0.0
C190 C 0.73562 0.48935 0.81093 0.0
C191 C 0.65417 0.37231 0.79522 0.0
C192 C 0.36699 0.62431 0.90305 0.0
C193 C 0.36335 0.62546 0.93938 0.0
C194 C 0.40591 0.57621 0.9602 0.0
C195 C 0.45735 0.53135 0.94591 0.0
C196 C 0.4656 0.53529 0.91041 0.0
C197 C 0.41813 0.57893 0.88918 0.0
C198 C 0.43192 0.57378 0.85157 0.0
C199 C 0.5005 0.52492 0.85468 0.0
C200 C 0.5204 0.50239 0.88921 0.0
C201 C 0.45574 0.64682 0.84178 0.0
C202 C 0.35654 0.54112 0.82735 0.0
H203 H 0.7796 0.3872 0.85055 0.0
H204 H 0.7283 0.33223 0.96924 0.0
H205 H 0.49923 0.39337 0.93918 0.0
H206 H 0.57817 0.35573 0.96866 0.0
H207 H 0.55413 0.32652 0.9224 0.0
H208 H 0.70791 0.50534 0.95988 0.0
H209 H 0.66321 0.45545 -0.01068 0.0
H210 H 0.61181 0.52436 0.96622 0.0
H211 H 0.65398 0.45772 0.73355 0.0
H212 H 0.43116 0.56135 0.71187 0.0
H213 H 0.42611 0.56991 0.77472 0.0
H214 H 0.72992 0.54363 0.80277 0.0
H215 H 0.77478 0.46229 0.79466 0.0
H216 H 0.76585 0.49497 0.83906 0.0
H217 H 0.59383 0.35266 0.78272 0.0
H218 H 0.67166 0.33989 0.81778 0.0
H219 H 0.69362 0.36158 0.77562 0.0
H220 H 0.86594 0.3116 0.88519 0.0
C221 C 0.76657 0.3769 0.87604 0.0
C222 C 0.72796 0.69358 0.07119 0.0
C223 C 0.77836 0.74594 0.09095 0.0
C224 C 0.7708 0.76406 0.12638 0.0
C225 C 0.66695 0.67606 0.12233 0.0
C226 C 0.6728 0.6596 0.08733 0.0
C227 C 0.61428 0.60325 0.07007 0.0
H228 H 0.31591 0.37832 0.08362 0.0
C229 C 0.60443 0.63082 0.13116 0.0
C230 C 0.5713 0.58955 0.10038 0.0
H231 H 0.41913 0.41078 -0.00901 0.0
H232 H 0.50674 0.50086 0.02474 0.0
H233 H 0.4669 0.37432 0.13351 0.0
H234 H 0.31492 0.54708 0.11424 0.0
H235 H 0.34346 0.54227 0.16063 0.0
H236 H 0.29059 0.46988 0.13425 0.0
H237 H 0.38699 0.38845 0.1571 0.0
H238 H 0.48425 0.42632 0.1735 0.0
C239 C 0.66139 0.53956 0.0601 0.0
C240 C 0.55929 0.63209 0.03812 0.0
C241 C 0.58019 0.61602 0.2601 0.0
C242 C 0.53673 0.5703 0.27658 0.0
C243 C 0.47523 0.52877 0.25587 0.0
C244 C 0.46052 0.5293 0.2188 0.0
C245 C 0.50886 0.57086 0.20232 0.0
C246 C 0.56582 0.61496 0.2229 0.0
C247 C 0.61367 0.65306 0.20072 0.0
C248 C 0.57894 0.62155 0.16374 0.0
C249 C 0.51748 0.57359 0.16481 0.0
C250 C 0.70152 0.63466 0.21215 0.0
C251 C 0.59714 0.73171 0.20506 0.0
C252 C 0.35542 0.40631 0.07013 0.0
C253 C 0.35946 0.38806 0.03429 0.0
C254 C 0.41454 0.42396 0.01843 0.0
C255 C 0.46536 0.47602 0.03798 0.0
C256 C 0.46149 0.49259 0.07384 0.0
C257 C 0.40697 0.45809 0.08931 0.0
C258 C 0.41526 0.47886 0.12839 0.0
C259 C 0.48165 0.53348 0.13343 0.0
C260 C 0.5086 0.54125 0.10139 0.0
C261 C 0.43908 0.41395 0.14941 0.0
C262 C 0.33694 0.51094 0.13503 0.0
H263 H 0.71264 0.74541 0.1692 0.0
H264 H 0.73083 0.67967 0.04361 0.0
H265 H 0.55724 0.68979 0.04082 0.0
H266 H 0.49745 0.614 0.03634 0.0
H267 H 0.57902 0.61739 0.01265 0.0
H268 H 0.69101 0.54982 0.03743 0.0
H269 H 0.62465 0.49158 0.05329 0.0
H270 H 0.70798 0.52803 0.08291 0.0
H271 H 0.62816 0.64781 0.27564 0.0
H272 H 0.44106 0.49334 0.26838 0.0
H273 H 0.41449 0.49506 0.20436 0.0
H274 H 0.70691 0.57815 0.21603 0.0
H275 H 0.72806 0.66365 0.2376 0.0
H276 H 0.73832 0.645 0.19224 0.0
H277 H 0.53853 0.7407 0.2127 0.0
H278 H 0.59436 0.75744 0.17989 0.0
H279 H 0.64235 0.75904 0.22594 0.0
H280 H 0.80898 0.80401 0.14219 0.0
C281 C 0.71511 0.72968 0.14208 0.0
C282 C 0.1993 0.24678 0.00897 0.0
C283 C 0.24095 0.19422 -0.00616 0.0
H284 H 0.20432 0.35025 0.03376 0.0
C285 C 0.31546 0.21063 -0.01397 0.0
H286 H 0.14249 0.2351 0.01595 0.0
C287 C 0.35115 0.27611 -0.00359 0.0
C288 C 0.31342 0.32635 0.01527 0.0
H289 H 0.34922 0.17067 0.97485 0.0
H290 H 0.41121 0.28488 -0.00746 0.0
C291 C 0.23542 0.31226 0.01978 0.0
C292 C 0.334 0.77858 0.00176 0.0
C293 C 0.26507 0.80718 -0.01638 0.0
H294 H 0.41868 0.69929 0.00189 0.0
C295 C 0.22411 0.77176 0.95234 0.0
H296 H 0.36683 0.80424 0.02605 0.0
C297 C 0.25356 0.71046 0.93872 0.0
C298 C 0.32437 0.68351 0.95618 0.0
H299 H 0.17037 0.79217 0.93794 0.0
H300 H 0.22189 0.68504 0.91413 0.0
C301 C 0.36328 0.71763 -0.01183 0.0
C302 C 0.90587 0.88652 0.06252 0.0
C303 C 0.94718 0.84763 0.03989 0.0
H304 H 0.81939 0.88487 0.09634 0.0
C305 C 0.93558 0.77512 0.03564 0.0
H306 H 0.9129 0.94261 0.06584 0.0
C307 C 0.88213 0.74219 0.05287 0.0
C308 C 0.83876 0.78106 0.07463 0.0
H309 H 0.96689 0.74379 0.01845 0.0
H310 H 0.87426 0.68621 0.04889 0.0
C311 C 0.85228 0.85346 0.07987 0.0
C312 C 0.97877 0.20414 0.95886 0.0
C313 C 0.94135 0.14374 0.9671 0.0
H314 H 0.96436 0.30707 0.94136 0.0
C315 C 0.86004 0.14435 0.96795 0.0
H316 H 0.04133 0.2054 0.95811 0.0
C317 C 0.81605 0.2027 0.95853 0.0
C318 C 0.85251 0.26127 0.94786 0.0
H319 H 0.82975 0.09879 0.97463 0.0
H320 H 0.75275 0.20023 0.9574 0.0
C321 C 0.93472 0.26232 0.94927 0.0
C322 C 0.7963 0.69807 0.48576 0.0
C323 C 0.72226 0.6809 0.49376 0.0
H324 H 0.89104 0.77323 0.49214 0.0
C325 C 0.68025 0.73263 0.50929 0.0
H326 H 0.83021 0.65866 0.47424 0.0
C327 C 0.71583 0.79818 0.52036 0.0
C328 C 0.79334 0.81309 0.5155 0.0
H329 H 0.62365 0.7202 0.51629 0.0
H330 H 0.68474 0.83561 0.53469 0.0
C331 C 0.83129 0.76368 0.49626 0.0
C332 C 0.81498 0.2632 0.49545 0.0
C333 C 0.74556 0.29168 0.47767 0.0
H334 H 0.89868 0.18327 0.49558 0.0
C335 C 0.70269 0.2553 0.44712 0.0
H336 H 0.84926 0.28949 0.51923 0.0
C337 C 0.73087 0.19304 0.43383 0.0
C338 C 0.80207 0.16616 0.451 0.0
H339 H 0.64859 0.27568 0.43305 0.0
H340 H 0.69807 0.16684 0.40969 0.0
C341 C 0.84283 0.20139 0.48225 0.0
C342 C 0.43263 0.33471 0.56795 0.0
C343 C 0.41486 0.34005 0.53118 0.0
H344 H 0.39543 0.29624 0.61356 0.0
C345 C 0.34191 0.31435 0.51209 0.0
H346 H 0.48903 0.35339 0.58291 0.0
C347 C 0.2875 0.28327 0.5294 0.0
C348 C 0.30568 0.27549 0.56615 0.0
H349 H 0.32655 0.31892 0.48366 0.0
H350 H 0.23109 0.26554 0.51385 0.0
C351 C 0.3788 0.30208 0.58533 0.0
C352 C 0.34383 0.63283 0.467 0.0
C353 C 0.42446 0.63234 0.46473 0.0
H354 H 0.23535 0.6869 0.45671 0.0
C355 C 0.46006 0.69197 0.45467 0.0
H356 H 0.31506 0.58788 0.47518 0.0
C357 C 0.41423 0.7487 0.4441 0.0
C358 C 0.3324 0.74697 0.44388 0.0
H359 H 0.52217 0.6933 0.45299 0.0
H360 H 0.44195 0.79251 0.43438 0.0
C361 C 0.29828 0.68979 0.45684 0.0
C362 C 0.05945 0.95048 0.1225 0.0
C363 C 0.08758 0.01262 0.11181 0.0
H364 H 1.01645 0.90045 0.16378 0.0
C365 C 0.08828 0.07443 0.13324 0.0
H366 H 0.06042 0.90217 0.10648 0.0
C367 C 0.06262 0.07366 0.16576 0.0
C368 C 0.03774 0.01079 0.17717 0.0
H369 H 0.11062 0.12263 0.12527 0.0
H370 H 0.06646 0.12113 0.18283 0.0
C371 C 0.03471 0.94949 0.15509 0.0
C372 C 0.07596 0.09085 0.87638 0.0
C373 C 0.10226 0.02449 0.88517 0.0
H374 H 0.03134 0.15562 0.83399 0.0
C375 C 0.11359 0.97536 0.85793 0.0
H376 H 0.06606 0.12936 0.89691 0.0
C377 C 0.09222 0.98966 0.8225 0.0
C378 C 0.06006 0.05368 0.81354 0.0
H379 H 0.13429 0.92396 0.86398 0.0
H380 H 0.09814 0.94963 0.80198 0.0
C381 C 0.05518 0.10551 0.84056 0.0
C382 C 0.59404 0.43366 0.63181 0.0
C383 C 0.57718 0.48883 0.61012 0.0
H384 H 0.59038 0.3943 0.68204 0.0
C385 C 0.54004 0.54758 0.6221 0.0
H386 H 0.62269 0.38796 0.62273 0.0
C387 C 0.52459 0.55289 0.65677 0.0
C388 C 0.54531 0.49891 0.67931 0.0
H389 H 0.52754 0.59085 0.60551 0.0
H390 H 0.50073 0.60056 0.66646 0.0
C391 C 0.57636 0.43784 0.66579 0.0
C392 C 0.57307 0.58748 0.37724 0.0
C393 C 0.59472 0.51924 0.38463 0.0
H394 H 0.53674 0.65766 0.3363 0.0
C395 C 0.60709 0.47211 0.35676 0.0
H396 H 0.56271 0.62457 0.39829 0.0
C397 C 0.59113 0.49047 0.32182 0.0
C398 C 0.56325 0.55651 0.31406 0.0
H399 H 0.62442 0.41937 0.36176 0.0
H400 H 0.59742 0.45201 0.30063 0.0
C401 C 0.55749 0.60614 0.34194 0.0
loop_
_geom_bond_atom_site_label_1
_geom_bond_atom_site_label_2
_geom_bond_distance
_geom_bond_site_symmetry_2
_ccdc_geom_bond_type
Zn0 O6 1.920 1_545 S
Zn0 O12 1.898 . S
Zn0 O15 1.905 1_545 S
Zn1 O9 1.905 . S
Zn1 O10 1.898 1_545 S
Zn1 O18 1.920 1_545 S
Zn2 O5 2.080 1_445 S
Zn2 O8 2.114 . S
Zn2 O11 2.120 1_545 S
Zn2 O13 2.120 1_455 S
Zn2 O14 2.114 1_554 S
Zn2 O17 2.080 . S
C3 O8 1.166 . S
C3 O9 1.182 . S
C4 O10 1.167 . S
C4 O11 1.299 . S
O5 Zn2 2.080 1_665 S
O5 C19 1.305 . S
O6 Zn0 1.920 1_565 S
O6 C19 1.234 1_556 S
C7 O12 1.167 . S
C7 O13 1.299 1_556 S
O8 Zn2 2.114 . S
O8 C3 1.166 . S
O9 Zn1 1.905 . S
O9 C3 1.182 . S
O10 Zn1 1.898 1_565 S
O10 C4 1.167 . S
O11 Zn2 2.120 1_565 S
O11 C4 1.299 . S
O12 Zn0 1.898 . S
O12 C7 1.167 . S
O13 Zn2 2.120 1_655 S
O13 C7 1.299 1_554 S
O14 Zn2 2.114 1_556 S
O14 C16 1.166 1_445 S
O15 Zn0 1.905 1_565 S
O15 C16 1.182 . S
C16 O14 1.166 1_665 S
C16 O15 1.182 . S
O17 Zn2 2.080 . S
O17 C20 1.305 1_545 S
O18 Zn1 1.920 1_565 S
O18 C20 1.234 . S
C19 O5 1.305 . S
C19 O6 1.234 1_554 S
C20 O17 1.305 1_565 S
C20 O18 1.234 . S
Zn21 O27 1.920 . S
Zn21 O33 1.898 . S
Zn21 O36 1.905 . S
Zn22 O30 1.905 . S
Zn22 O31 1.898 . S
Zn22 O39 1.920 . S
Zn23 O26 2.080 . S
Zn23 O29 2.114 . S
Zn23 O32 2.120 . S
Zn23 O34 2.120 . S
Zn23 O35 2.114 . S
Zn23 O38 2.080 . S
C24 O29 1.166 . S
C24 O30 1.182 . S
C25 O31 1.167 . S
C25 O32 1.299 . S
O26 Zn23 2.080 . S
O26 C40 1.305 . S
O27 Zn21 1.920 . S
O27 C40 1.234 . S
C28 O33 1.167 . S
C28 O34 1.299 . S
O29 Zn23 2.114 . S
O29 C24 1.166 . S
O30 Zn22 1.905 . S
O30 C24 1.182 . S
O31 Zn22 1.898 . S
O31 C25 1.167 . S
O32 Zn23 2.120 . S
O32 C25 1.299 . S
O33 Zn21 1.898 . S
O33 C28 1.167 . S
O34 Zn23 2.120 . S
O34 C28 1.299 . S
O35 Zn23 2.114 . S
O35 C37 1.166 . S
O36 Zn21 1.905 . S
O36 C37 1.182 . S
C37 O35 1.166 . S
C37 O36 1.182 . S
O38 Zn23 2.080 . S
O38 C41 1.305 . S
O39 Zn22 1.920 . S
O39 C41 1.234 . S
C40 O26 1.305 . S
C40 O27 1.234 . S
C41 O38 1.305 . S
C41 O39 1.234 . S
C42 C43 1.391 . S
C42 C46 1.391 . S
C42 H84 0.948 . S
C43 C42 1.391 . S
C43 C44 1.391 . S
C44 C43 1.391 . S
C44 H100 0.947 . S
C44 C101 1.392 . S
C45 C46 1.391 . S
C45 C49 1.397 . S
C45 C101 1.419 . S
C46 C42 1.391 . S
C46 C45 1.391 . S
C46 C47 1.399 . S
C47 C46 1.399 . S
C47 C50 1.396 1_565 S
C47 C59 1.453 1_565 S
C47 C60 1.684 . S
H48 C72 0.948 . S
C49 C45 1.397 . S
C49 C50 1.394 1_565 S
C49 C68 1.723 . S
C50 C47 1.396 1_545 S
C50 C49 1.394 1_545 S
C50 C80 1.723 . S
H51 C74 0.947 . S
H52 C75 0.948 1_455 S
H53 C81 0.982 1_455 S
H54 C82 0.979 . S
H55 C82 0.980 . S
H56 C82 0.983 . S
H57 C81 0.979 . S
H58 C81 0.977 . S
C59 C47 1.453 1_545 S
C59 H88 0.982 . S
C59 H89 0.979 . S
C59 H90 0.977 . S
C60 C47 1.684 . S
C60 H85 0.979 . S
C60 H86 0.968 1_565 S
C60 H87 0.983 . S
C61 C62 1.391 1_565 S
C61 C66 1.391 . S
C61 H91 0.948 . S
C62 C61 1.391 1_545 S
C62 C63 1.391 . S
C63 C62 1.391 . S
C63 C64 1.392 . S
C63 H92 0.947 1_455 S
C64 C63 1.392 . S
C64 C65 1.419 . S
C64 H93 0.948 1_455 S
C65 C64 1.419 . S
C65 C66 1.391 1_545 S
C65 C69 1.397 . S
C66 C61 1.391 . S
C66 C65 1.391 1_565 S
C66 C67 1.399 . S
C67 C66 1.399 . S
C67 C68 1.396 . S
C67 C70 1.453 . S
C67 C71 1.684 . S
C68 C49 1.723 . S
C68 C67 1.396 . S
C68 C69 1.394 1_565 S
C69 C65 1.397 . S
C69 C68 1.394 1_545 S
C69 C79 1.723 . S
C70 C67 1.453 . S
C70 H94 0.982 1_565 S
C70 H95 0.979 . S
C70 H96 0.977 . S
C71 C67 1.684 . S
C71 H97 0.979 . S
C71 H98 0.980 . S
C71 H99 0.983 . S
C72 H48 0.948 . S
C72 C73 1.391 . S
C72 C77 1.391 . S
C73 C72 1.391 . S
C73 C74 1.391 . S
C74 H51 0.947 . S
C74 C73 1.391 . S
C74 C75 1.392 . S
C75 H52 0.948 1_655 S
C75 C74 1.392 . S
C75 C76 1.419 . S
C76 C75 1.419 . S
C76 C77 1.391 . S
C76 C80 1.397 1_655 S
C77 C72 1.391 . S
C77 C76 1.391 . S
C77 C78 1.399 . S
C78 C77 1.399 . S
C78 C79 1.396 1_655 S
C78 C81 1.453 . S
C78 C82 1.684 . S
C79 C69 1.723 . S
C79 C78 1.396 1_455 S
C79 C80 1.394 . S
C80 C50 1.723 . S
C80 C76 1.397 1_455 S
C80 C79 1.394 . S
C81 H53 0.982 1_655 S
C81 H57 0.979 . S
C81 H58 0.977 . S
C81 C78 1.453 . S
C82 H54 0.979 . S
C82 H55 0.980 . S
C82 H56 0.983 . S
C82 C78 1.684 . S
H83 C101 0.948 . S
H84 C42 0.948 . S
H85 C60 0.979 . S
H86 C60 0.968 1_545 S
H87 C60 0.983 . S
H88 C59 0.982 . S
H89 C59 0.979 . S
H90 C59 0.977 . S
H91 C61 0.948 . S
H92 C63 0.947 1_655 S
H93 C64 0.948 1_655 S
H94 C70 0.982 1_545 S
H95 C70 0.979 . S
H96 C70 0.977 . S
H97 C71 0.979 . S
H98 C71 0.980 . S
H99 C71 0.983 . S
H100 C44 0.947 . S
C101 C44 1.392 . S
C101 C45 1.419 . S
C101 H83 0.948 . S
C102 C103 1.391 . S
C102 C106 1.391 . S
C102 H144 0.948 . S
C103 C102 1.391 . S
C103 C104 1.391 . S
C104 C103 1.391 . S
C104 H160 0.947 . S
C104 C161 1.392 . S
C105 C106 1.391 . S
C105 C109 1.397 . S
C105 C161 1.419 . S
C106 C102 1.391 . S
C106 C105 1.391 . S
C106 C107 1.399 . S
C107 C106 1.399 . S
C107 C110 1.396 . S
C107 C119 1.453 . S
C107 C120 1.684 1_455 S
H108 C132 0.948 . S
C109 C105 1.397 . S
C109 C110 1.394 . S
C109 C128 1.723 . S
C110 C107 1.396 . S
C110 C109 1.394 . S
C110 C140 1.723 1_445 S
H111 C134 0.947 . S
H112 C135 0.948 . S
H113 C141 0.982 . S
H114 C142 0.979 . S
H115 C142 0.980 . S
H116 C142 0.983 . S
H117 C141 0.979 . S
H118 C141 0.977 . S
C119 C107 1.453 . S
C119 H148 0.982 1_545 S
C119 H149 0.979 . S
C119 H150 0.977 1_545 S
C120 C107 1.684 1_655 S
C120 H145 0.979 . S
C120 H146 0.980 . S
C120 H147 0.983 1_655 S
C121 C122 1.391 1_455 S
C121 C126 1.391 . S
C121 H151 0.948 . S
C122 C121 1.391 1_655 S
C122 C123 1.391 1_545 S
C123 C122 1.391 1_565 S
C123 C124 1.392 . S
C123 H152 0.947 . S
C124 C123 1.392 . S
C124 C125 1.419 1_565 S
C124 H153 0.948 . S
C125 C124 1.419 1_545 S
C125 C126 1.391 1_655 S
C125 C129 1.397 . S
C126 C121 1.391 . S
C126 C125 1.391 1_455 S
C126 C127 1.399 . S
C127 C126 1.399 . S
C127 C128 1.396 . S
C127 C130 1.453 . S
C127 C131 1.684 . S
C128 C109 1.723 . S
C128 C127 1.396 . S
C128 C129 1.394 1_455 S
C129 C125 1.397 . S
C129 C128 1.394 1_655 S
C129 C139 1.723 1_545 S
C130 C127 1.453 . S
C130 H154 0.982 . S
C130 H155 0.979 . S
C130 H156 0.977 . S
C131 C127 1.684 . S
C131 H157 0.979 . S
C131 H158 0.980 . S
C131 H159 0.983 . S
C132 H108 0.948 . S
C132 C133 1.391 . S
C132 C137 1.391 . S
C133 C132 1.391 . S
C133 C134 1.391 . S
C134 H111 0.947 . S
C134 C133 1.391 . S
C134 C135 1.392 . S
C135 H112 0.948 . S
C135 C134 1.392 . S
C135 C136 1.419 . S
C136 C135 1.419 . S
C136 C137 1.391 . S
C136 C140 1.397 . S
C137 C132 1.391 . S
C137 C136 1.391 . S
C137 C138 1.399 . S
C138 C137 1.399 . S
C138 C139 1.396 . S
C138 C141 1.453 . S
C138 C142 1.684 . S
C139 C129 1.723 1_565 S
C139 C138 1.396 . S
C139 C140 1.394 . S
C140 C110 1.723 1_665 S
C140 C136 1.397 . S
C140 C139 1.394 . S
C141 H113 0.982 . S
C141 H117 0.979 . S
C141 H118 0.977 . S
C141 C138 1.453 . S
C142 H114 0.979 . S
C142 H115 0.980 . S
C142 H116 0.983 . S
C142 C138 1.684 . S
H143 C161 0.948 . S
H144 C102 0.948 . S
H145 C120 0.979 . S
H146 C120 0.980 . S
H147 C120 0.983 1_455 S
H148 C119 0.982 1_565 S
H149 C119 0.979 . S
H150 C119 0.977 1_565 S
H151 C121 0.948 . S
H152 C123 0.947 . S
H153 C124 0.948 . S
H154 C130 0.982 . S
H155 C130 0.979 . S
H156 C130 0.977 . S
H157 C131 0.979 . S
H158 C131 0.980 . S
H159 C131 0.983 . S
H160 C104 0.947 . S
C161 C104 1.392 . S
C161 C105 1.419 . S
C161 H143 0.948 . S
C162 C163 1.391 . S
C162 C166 1.391 . S
C162 H204 0.948 1_556 S
C163 C162 1.391 . S
C163 C164 1.391 . S
C164 C163 1.391 . S
C164 H220 0.947 . S
C164 C221 1.392 . S
C165 C166 1.391 . S
C165 C169 1.397 . S
C165 C221 1.419 . S
C166 C162 1.391 . S
C166 C165 1.391 . S
C166 C167 1.399 . S
C167 C166 1.399 . S
C167 C170 1.396 . S
C167 C179 1.453 1_556 S
C167 C180 1.684 1_556 S
H168 C192 0.948 . S
C169 C165 1.397 . S
C169 C170 1.394 . S
C169 C188 1.723 . S
C170 C167 1.396 . S
C170 C169 1.394 . S
C170 C200 1.723 . S
H171 C194 0.947 . S
H172 C195 0.948 1_554 S
H173 C201 0.982 . S
H174 C202 0.979 . S
H175 C202 0.980 . S
H176 C202 0.983 . S
H177 C201 0.979 . S
H178 C201 0.977 . S
C179 C167 1.453 1_554 S
C179 H208 0.982 1_554 S
C179 H209 0.979 . S
C179 H210 0.977 . S
C180 C167 1.684 1_554 S
C180 H205 0.979 . S
C180 H206 0.980 . S
C180 H207 0.983 . S
C181 C182 1.391 . S
C181 C186 1.391 . S
C181 H211 0.948 . S
C182 C181 1.391 . S
C182 C183 1.391 . S
C183 C182 1.391 . S
C183 C184 1.392 . S
C183 H212 0.947 . S
C184 C183 1.392 . S
C184 C185 1.419 . S
C184 H213 0.948 . S
C185 C184 1.419 . S
C185 C186 1.391 . S
C185 C189 1.397 . S
C186 C181 1.391 . S
C186 C185 1.391 . S
C186 C187 1.399 . S
C187 C186 1.399 . S
C187 C188 1.396 . S
C187 C190 1.453 . S
C187 C191 1.684 . S
C188 C169 1.723 . S
C188 C187 1.396 . S
C188 C189 1.394 . S
C189 C185 1.397 . S
C189 C188 1.394 . S
C189 C199 1.723 . S
C190 C187 1.453 . S
C190 H214 0.982 . S
C190 H215 0.979 . S
C190 H216 0.977 . S
C191 C187 1.684 . S
C191 H217 0.979 . S
C191 H218 0.980 . S
C191 H219 0.983 . S
C192 H168 0.948 . S
C192 C193 1.391 . S
C192 C197 1.391 . S
C193 C192 1.391 . S
C193 C194 1.391 1_556 S
C194 H171 0.947 . S
C194 C193 1.391 1_554 S
C194 C195 1.392 1_554 S
C195 H172 0.948 1_556 S
C195 C194 1.392 1_556 S
C195 C196 1.419 . S
C196 C195 1.419 . S
C196 C197 1.391 . S
C196 C200 1.397 . S
C197 C192 1.391 . S
C197 C196 1.391 . S
C197 C198 1.399 . S
C198 C197 1.399 . S
C198 C199 1.396 . S
C198 C201 1.453 . S
C198 C202 1.684 . S
C199 C189 1.723 . S
C199 C198 1.396 . S
C199 C200 1.394 . S
C200 C170 1.723 . S
C200 C196 1.397 . S
C200 C199 1.394 . S
C201 H173 0.982 . S
C201 H177 0.979 . S
C201 H178 0.977 . S
C201 C198 1.453 . S
C202 H174 0.979 . S
C202 H175 0.980 . S
C202 H176 0.983 . S
C202 C198 1.684 . S
H203 C221 0.948 . S
H204 C162 0.948 1_554 S
H205 C180 0.979 . S
H206 C180 0.980 . S
H207 C180 0.983 . S
H208 C179 0.982 1_556 S
H209 C179 0.979 . S
H210 C179 0.977 . S
H211 C181 0.948 . S
H212 C183 0.947 . S
H213 C184 0.948 . S
H214 C190 0.982 . S
H215 C190 0.979 . S
H216 C190 0.977 . S
H217 C191 0.979 . S
H218 C191 0.980 . S
H219 C191 0.983 . S
H220 C164 0.947 . S
C221 C164 1.392 . S
C221 C165 1.419 . S
C221 H203 0.948 . S
C222 C223 1.391 . S
C222 C226 1.391 . S
C222 H264 0.948 . S
C223 C222 1.391 . S
C223 C224 1.391 . S
C224 C223 1.391 . S
C224 H280 0.947 . S
C224 C281 1.392 . S
C225 C226 1.391 . S
C225 C229 1.397 . S
C225 C281 1.419 . S
C226 C222 1.391 . S
C226 C225 1.391 . S
C226 C227 1.399 . S
C227 C226 1.399 . S
C227 C230 1.396 . S
C227 C239 1.453 . S
C227 C240 1.684 . S
H228 C252 0.948 . S
C229 C225 1.397 . S
C229 C230 1.394 . S
C229 C248 1.723 . S
C230 C227 1.396 . S
C230 C229 1.394 . S
C230 C260 1.723 . S
H231 C254 0.947 1_556 S
H232 C255 0.948 . S
H233 C261 0.982 . S
H234 C262 0.979 . S
H235 C262 0.980 . S
H236 C262 0.983 . S
H237 C261 0.979 . S
H238 C261 0.977 . S
C239 C227 1.453 . S
C239 H268 0.982 . S
C239 H269 0.979 . S
C239 H270 0.977 . S
C240 C227 1.684 . S
C240 H265 0.979 . S
C240 H266 0.980 . S
C240 H267 0.983 1_554 S
C241 C242 1.391 . S
C241 C246 1.391 . S
C241 H271 0.948 . S
C242 C241 1.391 . S
C242 C243 1.391 . S
C243 C242 1.391 . S
C243 C244 1.392 . S
C243 H272 0.947 . S
C244 C243 1.392 . S
C244 C245 1.419 . S
C244 H273 0.948 . S
C245 C244 1.419 . S
C245 C246 1.391 . S
C245 C249 1.397 . S
C246 C241 1.391 . S
C246 C245 1.391 . S
C246 C247 1.399 . S
C247 C246 1.399 . S
C247 C248 1.396 . S
C247 C250 1.453 . S
C247 C251 1.684 . S
C248 C229 1.723 . S
C248 C247 1.396 . S
C248 C249 1.394 . S
C249 C245 1.397 . S
C249 C248 1.394 . S
C249 C259 1.723 . S
C250 C247 1.453 . S
C250 H274 0.982 . S
C250 H275 0.979 . S
C250 H276 0.977 . S
C251 C247 1.684 . S
C251 H277 0.979 . S
C251 H278 0.980 . S
C251 H279 0.983 . S
C252 H228 0.948 . S
C252 C253 1.391 . S
C252 C257 1.391 . S
C253 C252 1.391 . S
C253 C254 1.391 . S
C254 H231 0.947 1_554 S
C254 C253 1.391 . S
C254 C255 1.392 . S
C255 H232 0.948 . S
C255 C254 1.392 . S
C255 C256 1.419 . S
C256 C255 1.419 . S
C256 C257 1.391 . S
C256 C260 1.397 . S
C257 C252 1.391 . S
C257 C256 1.391 . S
C257 C258 1.399 . S
C258 C257 1.399 . S
C258 C259 1.396 . S
C258 C261 1.453 . S
C258 C262 1.684 . S
C259 C249 1.723 . S
C259 C258 1.396 . S
C259 C260 1.394 . S
C260 C230 1.723 . S
C260 C256 1.397 . S
C260 C259 1.394 . S
C261 H233 0.982 . S
C261 H237 0.979 . S
C261 H238 0.977 . S
C261 C258 1.453 . S
C262 H234 0.979 . S
C262 H235 0.980 . S
C262 H236 0.983 . S
C262 C258 1.684 . S
H263 C281 0.948 . S
H264 C222 0.948 . S
H265 C240 0.979 . S
H266 C240 0.980 . S
H267 C240 0.983 1_556 S
H268 C239 0.982 . S
H269 C239 0.979 . S
H270 C239 0.977 . S
H271 C241 0.948 . S
H272 C243 0.947 . S
H273 C244 0.948 . S
H274 C250 0.982 . S
H275 C250 0.979 . S
H276 C250 0.977 . S
H277 C251 0.979 . S
H278 C251 0.980 . S
H279 C251 0.983 . S
H280 C224 0.947 . S
C281 C224 1.392 . S
C281 C225 1.419 . S
C281 H263 0.948 . S
C282 C283 1.387 . S
C282 H286 0.950 . S
C282 C291 1.390 . S
C283 C282 1.387 . S
C283 C285 1.387 1_554 S
H284 C291 0.950 . S
C285 C283 1.387 1_556 S
C285 C287 1.390 1_556 S
C285 H289 0.950 . S
H286 C282 0.950 . S
C287 C285 1.390 1_554 S
C287 C288 1.387 . S
C287 H290 0.950 1_554 S
C288 C287 1.387 . S
C288 C291 1.387 . S
H289 C285 0.950 . S
H290 C287 0.950 1_556 S
C291 C282 1.390 . S
C291 H284 0.950 . S
C291 C288 1.387 . S
C292 C293 1.387 1_554 S
C292 H296 0.950 . S
C292 C301 1.390 . S
C293 C292 1.387 1_556 S
C293 C295 1.387 . S
H294 C301 0.950 . S
C295 C293 1.387 . S
C295 C297 1.390 . S
C295 H299 0.950 . S
H296 C292 0.950 . S
C297 C295 1.390 . S
C297 C298 1.387 . S
C297 H300 0.950 . S
C298 C297 1.387 . S
C298 C301 1.387 1_556 S
H299 C295 0.950 . S
H300 C297 0.950 . S
C301 C292 1.390 . S
C301 H294 0.950 . S
C301 C298 1.387 1_554 S
C302 C303 1.387 . S
C302 H306 0.950 . S
C302 C311 1.390 . S
C303 C302 1.387 . S
C303 C305 1.387 . S
H304 C311 0.950 . S
C305 C303 1.387 . S
C305 C307 1.390 . S
C305 H309 0.950 1_554 S
H306 C302 0.950 . S
C307 C305 1.390 . S
C307 C308 1.387 . S
C307 H310 0.950 1_554 S
C308 C307 1.387 . S
C308 C311 1.387 . S
H309 C305 0.950 1_556 S
H310 C307 0.950 1_556 S
C311 C302 1.390 . S
C311 H304 0.950 . S
C311 C308 1.387 . S
C312 C313 1.387 . S
C312 H316 0.950 . S
C312 C321 1.390 . S
C313 C312 1.387 . S
C313 C315 1.387 1_554 S
H314 C321 0.950 . S
C315 C313 1.387 1_556 S
C315 C317 1.390 . S
C315 H319 0.950 . S
H316 C312 0.950 . S
C317 C315 1.390 . S
C317 C318 1.387 . S
C317 H320 0.950 . S
C318 C317 1.387 . S
C318 C321 1.387 1_556 S
H319 C315 0.950 . S
H320 C317 0.950 . S
C321 C312 1.390 . S
C321 H314 0.950 . S
C321 C318 1.387 1_554 S
C322 C323 1.387 . S
C322 H326 0.950 . S
C322 C331 1.390 . S
C323 C322 1.387 . S
C323 C325 1.387 . S
H324 C331 0.950 . S
C325 C323 1.387 . S
C325 C327 1.390 . S
C325 H329 0.950 . S
H326 C322 0.950 . S
C327 C325 1.390 . S
C327 C328 1.387 . S
C327 H330 0.950 . S
C328 C327 1.387 . S
C328 C331 1.387 . S
H329 C325 0.950 . S
H330 C327 0.950 . S
C331 C322 1.390 . S
C331 H324 0.950 . S
C331 C328 1.387 . S
C332 C333 1.387 . S
C332 H336 0.950 . S
C332 C341 1.390 . S
C333 C332 1.387 . S
C333 C335 1.387 . S
H334 C341 0.950 . S
C335 C333 1.387 . S
C335 C337 1.390 . S
C335 H339 0.950 . S
H336 C332 0.950 . S
C337 C335 1.390 . S
C337 C338 1.387 . S
C337 H340 0.950 . S
C338 C337 1.387 . S
C338 C341 1.387 . S
H339 C335 0.950 . S
H340 C337 0.950 . S
C341 C332 1.390 . S
C341 H334 0.950 . S
C341 C338 1.387 . S
C342 C343 1.387 . S
C342 H346 0.950 . S
C342 C351 1.390 . S
C343 C342 1.387 . S
C343 C345 1.387 . S
H344 C351 0.950 . S
C345 C343 1.387 . S
C345 C347 1.390 . S
C345 H349 0.950 . S
H346 C342 0.950 . S
C347 C345 1.390 . S
C347 C348 1.387 . S
C347 H350 0.950 . S
C348 C347 1.387 . S
C348 C351 1.387 . S
H349 C345 0.950 . S
H350 C347 0.950 . S
C351 C342 1.390 . S
C351 H344 0.950 . S
C351 C348 1.387 . S
C352 C353 1.387 . S
C352 H356 0.950 . S
C352 C361 1.390 . S
C353 C352 1.387 . S
C353 C355 1.387 . S
H354 C361 0.950 . S
C355 C353 1.387 . S
C355 C357 1.390 . S
C355 H359 0.950 . S
H356 C352 0.950 . S
C357 C355 1.390 . S
C357 C358 1.387 . S
C357 H360 0.950 . S
C358 C357 1.387 . S
C358 C361 1.387 . S
H359 C355 0.950 . S
H360 C357 0.950 . S
C361 C352 1.390 . S
C361 H354 0.950 . S
C361 C358 1.387 . S
C362 C363 1.387 1_655 S
C362 H366 0.950 . S
C362 C371 1.390 1_655 S
C363 C362 1.387 1_455 S
C363 C365 1.387 1_565 S
H364 C371 0.950 1_655 S
C365 C363 1.387 1_545 S
C365 C367 1.390 . S
C365 H369 0.950 . S
H366 C362 0.950 . S
C367 C365 1.390 . S
C367 C368 1.387 . S
C367 H370 0.950 . S
C368 C367 1.387 . S
C368 C371 1.387 1_545 S
H369 C365 0.950 . S
H370 C367 0.950 . S
C371 C362 1.390 1_455 S
C371 H364 0.950 1_455 S
C371 C368 1.387 1_565 S
C372 C373 1.387 1_645 S
C372 H376 0.950 . S
C372 C381 1.390 . S
C373 C372 1.387 1_465 S
C373 C375 1.387 . S
H374 C381 0.950 . S
C375 C373 1.387 . S
C375 C377 1.390 1_565 S
C375 H379 0.950 . S
H376 C372 0.950 . S
C377 C375 1.390 1_545 S
C377 C378 1.387 . S
C377 H380 0.950 . S
C378 C377 1.387 . S
C378 C381 1.387 1_455 S
H379 C375 0.950 . S
H380 C377 0.950 . S
C381 C372 1.390 . S
C381 H374 0.950 . S
C381 C378 1.387 1_655 S
C382 C383 1.387 . S
C382 H386 0.950 . S
C382 C391 1.390 . S
C383 C382 1.387 . S
C383 C385 1.387 . S
H384 C391 0.950 . S
C385 C383 1.387 . S
C385 C387 1.390 . S
C385 H389 0.950 . S
H386 C382 0.950 . S
C387 C385 1.390 . S
C387 C388 1.387 . S
C387 H390 0.950 . S
C388 C387 1.387 . S
C388 C391 1.387 . S
H389 C385 0.950 . S
H390 C387 0.950 . S
C391 C382 1.390 . S
C391 H384 0.950 . S
C391 C388 1.387 . S
C392 C393 1.387 . S
C392 H396 0.950 . S
C392 C401 1.390 . S
C393 C392 1.387 . S
C393 C395 1.387 . S
H394 C401 0.950 . S
C395 C393 1.387 . S
C395 C397 1.390 . S
C395 H399 0.950 . S
H396 C392 0.950 . S
C397 C395 1.390 . S
C397 C398 1.387 . S
C397 H400 0.950 . S
C398 C397 1.387 . S
C398 C401 1.387 . S
H399 C395 0.950 . S
H400 C397 0.950 . S
C401 C392 1.390 . S
C401 H394 0.950 . S
C401 C398 1.387 . S
C288 C253 1.361 . S
C283 C3 1.245 . S
C293 C4 1.491 1_556 S
C298 C193 1.635 . S
C303 C19 1.517 . S
C308 C223 1.554 . S
C313 C7 1.239 1_554 S
C318 C163 1.260 . S
C323 C37 1.240 . S
C328 C133 1.360 . S
C333 C28 1.491 . S
C338 C73 1.635 . S
C348 C103 1.554 . S
C343 C41 1.517 . S
C358 C43 1.261 . S
C353 C25 1.238 . S
C363 C20 1.319 . S
C368 C62 1.483 . S
C373 C16 1.365 1_455 S
C378 C122 1.520 1_455 S
C388 C182 1.482 . S
C383 C40 1.318 . S
C393 C24 1.366 . S
C398 C242 1.520 . S
