# Generated by pormake.
# Topology zzz, (3,6)-cn, num edge types: 1
# Building blocks:
#     Node 0, Type 0, BuildingBlock: VETTIZ_charged_linker_0, # of connection points: 3
#     Node 1, Type 0, BuildingBlock: VETTIZ_charged_linker_0, # of connection points: 3
#     Node 2, Type 0, BuildingBlock: VETTIZ_charged_linker_0, # of connection points: 3
#     Node 3, Type 0, BuildingBlock: VETTIZ_charged_linker_0, # of connection points: 3
#     Node 4, Type 0, BuildingBlock: VETTIZ_charged_linker_0, # of connection points: 3
#     Node 5, Type 0, BuildingBlock: VETTIZ_charged_linker_0, # of connection points: 3
#     Node 6, Type 0, BuildingBlock: VETTIZ_charged_linker_0, # of connection points: 3
#     Node 7, Type 0, BuildingBlock: VETTIZ_charged_linker_0, # of connection points: 3
#     Node 8, Type 1, BuildingBlock: KUMJIN_clean_sbu_1, # of connection points: 6
#     Node 9, Type 1, BuildingBlock: KUMJIN_clean_sbu_1, # of connection points: 6
#     Node 10, Type 1, BuildingBlock: KUMJIN_clean_sbu_1, # of connection points: 6
#     Node 11, Type 1, BuildingBlock: KUMJIN_clean_sbu_1, # of connection points: 6
#     Edge 12, Type (0, 1), BuildingBlock: CIFDUS_clean_linker_0, # of connection points: 2
#     Edge 13, Type (0, 1), BuildingBlock: CIFDUS_clean_linker_0, # of connection points: 2
#     Edge 14, Type (0, 1), BuildingBlock: CIFDUS_clean_linker_0, # of connection points: 2
#     Edge 15, Type (0, 1), BuildingBlock: CIFDUS_clean_linker_0, # of connection points: 2
#     Edge 16, Type (0, 1), BuildingBlock: CIFDUS_clean_linker_0, # of connection points: 2
#     Edge 17, Type (0, 1), BuildingBlock: CIFDUS_clean_linker_0, # of connection points: 2
#     Edge 18, Type (0, 1), BuildingBlock: CIFDUS_clean_linker_0, # of connection points: 2
#     Edge 19, Type (0, 1), BuildingBlock: CIFDUS_clean_linker_0, # of connection points: 2
#     Edge 20, Type (0, 1), BuildingBlock: CIFDUS_clean_linker_0, # of connection points: 2
#     Edge 21, Type (0, 1), BuildingBlock: CIFDUS_clean_linker_0, # of connection points: 2
#     Edge 22, Type (0, 1), BuildingBlock: CIFDUS_clean_linker_0, # of connection points: 2
#     Edge 23, Type (0, 1), BuildingBlock: CIFDUS_clean_linker_0, # of connection points: 2
#     Edge 24, Type (0, 1), BuildingBlock: CIFDUS_clean_linker_0, # of connection points: 2
#     Edge 25, Type (0, 1), BuildingBlock: CIFDUS_clean_linker_0, # of connection points: 2
#     Edge 26, Type (0, 1), BuildingBlock: CIFDUS_clean_linker_0, # of connection points: 2
#     Edge 27, Type (0, 1), BuildingBlock: CIFDUS_clean_linker_0, # of connection points: 2
#     Edge 28, Type (0, 1), BuildingBlock: CIFDUS_clean_linker_0, # of connection points: 2
#     Edge 29, Type (0, 1), BuildingBlock: CIFDUS_clean_linker_0, # of connection points: 2
#     Edge 30, Type (0, 1), BuildingBlock: CIFDUS_clean_linker_0, # of connection points: 2
#     Edge 31, Type (0, 1), BuildingBlock: CIFDUS_clean_linker_0, # of connection points: 2
#     Edge 32, Type (0, 1), BuildingBlock: CIFDUS_clean_linker_0, # of connection points: 2
#     Edge 33, Type (0, 1), BuildingBlock: CIFDUS_clean_linker_0, # of connection points: 2
#     Edge 34, Type (0, 1), BuildingBlock: CIFDUS_clean_linker_0, # of connection points: 2
#     Edge 35, Type (0, 1), BuildingBlock: CIFDUS_clean_linker_0, # of connection points: 2
# Relax obj value: 0.335
# Max RMSD: 0.209
# Mean RMSD: 0.185
data_MOF--net-zzz--node1-KUMJIN_clean_sbu_1--node2-VETTIZ_charged_linker_0--edge1-CIFDUS_clean_linker_0
_symmetry_space_group_name_H-M    P1
_symmetry_Int_Tables_number       1
_symmetry_cell_setting            triclinic
loop_
_symmetry_equiv_pos_as_xyz
'x, y, z'
_cell_length_a     49.976969
_cell_length_b     50.003234
_cell_length_c     18.721191
_cell_angle_alpha  90.107092
_cell_angle_beta   90.003134
_cell_angle_gamma 90.403191
loop_
_atom_site_label
_atom_site_type_symbol
_atom_site_fract_x
_atom_site_fract_y
_atom_site_fract_z
_atom_type_partial_charge
C0 C 0.82744 0.55498 0.34167 0.0
C1 C 0.85416 0.56394 0.35668 0.0
C2 C 0.86702 0.58016 0.30593 0.0
C3 C 0.82911 0.57713 0.22574 0.0
C4 C 0.81506 0.56224 0.27533 0.0
C5 C 0.78666 0.55643 0.24707 0.0
H6 H 0.69846 0.57606 0.96193 0.0
C7 C 0.81249 0.5812 0.16154 0.0
C8 C 0.78675 0.57019 0.17317 0.0
H9 H 0.67998 0.52992 0.1498 0.0
H10 H 0.72474 0.54024 0.19889 0.0
H11 H 0.73281 0.62474 0.02943 0.0
H12 H 0.7454 0.54853 0.93616 0.0
H13 H 0.77726 0.56261 0.92697 0.0
H14 H 0.74893 0.57788 0.88324 0.0
H15 H 0.72894 0.61609 0.93682 0.0
H16 H 0.76039 0.62841 0.97146 0.0
C17 C 0.76602 0.56907 0.29756 0.0
C18 C 0.7828 0.52599 0.24004 0.0
C19 C 0.85907 0.59891 0.92905 0.0
C20 C 0.84877 0.59447 0.86018 0.0
C21 C 0.82192 0.60085 0.84653 0.0
C22 C 0.80446 0.60559 0.90358 0.0
C23 C 0.81392 0.60257 0.97392 0.0
C24 C 0.84111 0.6016 0.986 0.0
C25 C 0.84755 0.59776 0.06382 0.0
C26 C 0.81968 0.59208 0.09412 0.0
C27 C 0.80024 0.59493 0.04111 0.0
C28 C 0.85965 0.62447 0.09221 0.0
C29 C 0.86643 0.57334 0.07116 0.0
C30 C 0.70336 0.56879 1.01481 0.0
C31 C 0.68508 0.55285 0.05223 0.0
C32 C 0.69344 0.54258 0.11945 0.0
C33 C 0.7194 0.54853 0.14793 0.0
C34 C 0.73761 0.56426 0.10804 0.0
C35 C 0.72907 0.5736 0.04214 0.0
C36 C 0.75099 0.58618 0.99996 0.0
C37 C 0.77386 0.58532 0.05277 0.0
C38 C 0.76665 0.57249 0.11745 0.0
C39 C 0.74295 0.61537 0.98284 0.0
C40 C 0.75597 0.56816 0.93305 0.0
H41 H 0.8658 0.59963 0.20707 0.0
H42 H 0.81654 0.54317 0.3805 0.0
H43 H 0.79909 0.51724 0.2072 0.0
H44 H 0.76364 0.52084 0.21383 0.0
H45 H 0.78314 0.51634 0.29344 0.0
H46 H 0.77031 0.59076 0.30472 0.0
H47 H 0.76664 0.55937 0.35089 0.0
H48 H 0.74547 0.56709 0.27628 0.0
H49 H 0.88003 0.59524 0.93955 0.0
H50 H 0.81367 0.5986 0.79333 0.0
H51 H 0.78386 0.60874 0.89072 0.0
H52 H 0.85795 0.64111 0.0531 0.0
H53 H 0.88128 0.62245 0.10459 0.0
H54 H 0.84905 0.6316 0.14072 0.0
H55 H 0.85884 0.55624 0.03873 0.0
H56 H 0.86828 0.56573 0.12595 0.0
H57 H 0.88696 0.57837 0.05264 0.0
H58 H 0.88706 0.58775 0.31589 0.0
C59 C 0.85463 0.58708 0.24219 0.0
C60 C 0.90609 0.8029 0.93555 0.0
C61 C 0.90789 0.83066 0.92355 0.0
C62 C 0.90851 0.84744 0.9847 0.0
C63 C 0.91883 0.8095 0.05923 0.0
C64 C 0.91346 0.79272 1.00243 0.0
C65 C 0.92162 0.76438 1.01722 0.0
H66 H 0.01744 0.6888 0.11332 0.0
C67 C 0.93362 0.79422 0.11394 0.0
C68 C 0.9349 0.76767 0.09072 0.0
H69 H 0.94207 0.66741 1.01093 0.0
H70 H 0.92179 0.70593 0.0643 0.0
H71 H 0.02035 0.75759 0.1072 0.0
H72 H 0.97366 0.71463 0.26716 0.0
H73 H 0.99749 0.73846 0.29911 0.0
H74 H 1.0089 0.70822 0.25798 0.0
H75 H 0.03628 0.73305 0.16302 0.0
H76 H 0.027 0.76494 0.19956 0.0
C77 C 0.94187 0.75565 0.95893 0.0
C78 C 0.89604 0.74663 1.01842 0.0
C79 C 0.97713 0.84703 0.31373 0.0
C80 C 0.99632 0.84212 0.36694 0.0
C81 C 1.009 0.81667 0.3652 0.0
C82 C 1.00206 0.79684 0.3132 0.0
C83 C 0.98208 0.80216 0.26206 0.0
C84 C 0.97033 0.82721 0.26342 0.0
C85 C 0.95068 0.83092 0.20416 0.0
C86 C 0.95003 0.80318 0.17134 0.0
C87 C 0.96894 0.78596 0.2033 0.0
C88 C 0.96237 0.85241 0.1524 0.0
C89 C 0.9232 0.83821 0.23702 0.0
C90 C 0.99686 0.6929 0.09944 0.0
C91 C 0.98219 0.67508 0.05309 0.0
C92 C 0.95465 0.68031 0.04318 0.0
C93 C 0.94288 0.70328 0.07079 0.0
C94 C 0.9588 0.72247 0.10443 0.0
C95 C 0.98415 0.71639 0.12665 0.0
C96 C 0.99328 0.73747 0.18187 0.0
C97 C 0.97109 0.75886 0.17631 0.0
C98 C 0.95209 0.74965 0.12623 0.0
C99 C 0.02086 0.74894 0.16184 0.0
C100 C 0.99342 0.72406 0.25581 0.0
H101 H 0.91523 0.85072 0.09603 0.0
H102 H 0.90265 0.78918 0.89185 0.0
H103 H 0.87834 0.75695 0.99562 0.0
H104 H 0.89059 0.74079 0.07382 0.0
H105 H 0.89848 0.72834 0.98544 0.0
H106 H 0.95931 0.76958 0.95744 0.0
H107 H 0.93245 0.75534 0.90525 0.0
H108 H 0.94959 0.73533 0.96722 0.0
H109 H 0.96771 0.8664 0.30976 0.0
H110 H 0.02412 0.81191 0.40445 0.0
H111 H 1.01257 0.77818 0.3137 0.0
H112 H 0.98375 0.85718 0.16364 0.0
H113 H 0.95133 0.87155 0.15635 0.0
H114 H 0.96232 0.84558 0.09607 0.0
H115 H 0.91903 0.82578 0.28504 0.0
H116 H 0.90633 0.83436 0.20012 0.0
H117 H 0.92276 0.85954 0.25363 0.0
H118 H 0.90814 0.86896 0.9806 0.0
C119 C 0.9135 0.83686 0.05255 0.0
C120 C 0.84114 0.99947 0.0982 0.0
C121 C 0.86032 0.98451 0.05754 0.0
C122 C 0.85746 0.95638 0.05644 0.0
C123 C 0.81533 0.959 0.11815 0.0
C124 C 0.81894 0.98584 0.13036 0.0
C125 C 0.79729 0.99553 0.18283 0.0
H126 H 0.67683 0.95947 0.34815 0.0
C127 C 0.78977 0.95013 0.14752 0.0
C128 C 0.77903 0.97056 0.19049 0.0
H129 H 0.72044 0.03219 0.39305 0.0
H130 H 0.75472 0.01935 0.3041 0.0
H131 H 0.67717 0.96153 0.2011 0.0
H132 H 0.72497 0.91975 0.34589 0.0
H133 H 0.71919 0.89768 0.27383 0.0
H134 H 0.69113 0.91265 0.31903 0.0
H135 H 0.67318 0.92637 0.20642 0.0
H136 H 0.69423 0.94157 0.13893 0.0
C137 C 0.78212 0.01926 0.15069 0.0
C138 C 0.81089 1.00282 0.25404 0.0
C139 C 0.73576 0.88823 0.99356 0.0
C140 C 0.70766 0.88558 0.99542 0.0
C141 C 0.6956 0.88308 0.06345 0.0
C142 C 0.70942 0.89152 0.12455 0.0
C143 C 0.73495 0.90291 0.11653 0.0
C144 C 0.74879 0.89883 0.05385 0.0
C145 C 0.77595 0.91205 0.05538 0.0
C146 C 0.77401 0.92796 0.12561 0.0
C147 C 0.74945 0.92325 0.15902 0.0
C148 C 0.77903 0.93066 0.98971 0.0
C149 C 0.79729 0.88972 0.05642 0.0
C150 C 0.69381 0.97273 0.34009 0.0
C151 C 0.69591 0.99656 0.37914 0.0
C152 C 0.71818 1.01351 0.36428 0.0
C153 C 0.73822 1.00591 0.31356 0.0
C154 C 0.73603 0.98115 0.27724 0.0
C155 C 0.7136 0.96551 0.29085 0.0
C156 C 0.71266 0.9405 0.2474 0.0
C157 C 0.73927 0.94209 0.2089 0.0
C158 C 0.75337 0.96609 0.22469 0.0
C159 C 0.68817 0.94236 0.19589 0.0
C160 C 0.71175 0.91625 0.29889 0.0
H161 H 0.83525 0.92234 0.09087 0.0
H162 H 0.84344 0.02087 0.10474 0.0
H163 H 0.82311 0.98584 0.2736 0.0
H164 H 0.79618 1.0075 0.29607 0.0
H165 H 0.82432 0.02044 0.24725 0.0
H166 H 0.77342 1.01367 0.09803 0.0
H167 H 0.79578 0.03663 0.14282 0.0
H168 H 0.76555 0.0256 0.186 0.0
H169 H 0.74627 0.88713 0.94315 0.0
H170 H 0.6745 0.87868 0.06922 0.0
H171 H 0.69885 0.89128 0.17429 0.0
H172 H 0.76251 0.94543 0.9879 0.0
H173 H 0.77887 0.91902 0.93917 0.0
H174 H 0.79817 0.94182 0.99025 0.0
H175 H 0.78937 0.87043 0.03522 0.0
H176 H 0.80453 0.88588 0.11157 0.0
H177 H 0.81454 0.89462 0.02137 0.0
H178 H 0.87167 0.94383 0.02878 0.0
C179 C 0.83569 0.94371 0.08859 0.0
C180 C 0.54022 0.72057 0.34035 0.0
C181 C 0.54919 0.69425 0.35793 0.0
C182 C 0.56677 0.68161 0.31008 0.0
C183 C 0.56597 0.71942 0.22974 0.0
C184 C 0.54935 0.73304 0.27586 0.0
C185 C 0.54389 0.76117 0.24654 0.0
H186 H 0.56637 0.84767 0.9616 0.0
C187 C 0.57219 0.73633 0.16739 0.0
C188 C 0.56024 0.76162 0.17659 0.0
H189 H 0.51767 0.86632 0.14529 0.0
H190 H 0.52822 0.82239 0.19675 0.0
H191 H 0.61504 0.82233 0.05144 0.0
H192 H 0.54854 0.80029 0.9271 0.0
H193 H 0.56414 0.76912 0.92998 0.0
H194 H 0.58106 0.79735 0.88967 0.0
H195 H 0.61248 0.82289 0.95587 0.0
H196 H 0.6257 0.79427 1.00272 0.0
C197 C 0.55423 0.78217 0.30015 0.0
C198 C 0.51373 0.76386 0.23199 0.0
C199 C 0.60228 0.69285 0.93865 0.0
C200 C 0.60481 0.70404 0.87005 0.0
C201 C 0.61224 0.73112 0.86385 0.0
C202 C 0.61171 0.74781 0.92382 0.0
C203 C 0.6031 0.73726 0.98952 0.0
C204 C 0.60114 0.70997 0.99794 0.0
C205 C 0.59347 0.70253 0.07316 0.0
C206 C 0.58631 0.72997 0.10378 0.0
C207 C 0.59155 0.74997 0.05372 0.0
C208 C 0.61858 0.69037 0.10944 0.0
C209 C 0.56895 0.68333 0.07054 0.0
C210 C 0.55835 0.84328 1.01399 0.0
C211 C 0.54155 0.86137 0.04899 0.0
C212 C 0.53074 0.85309 0.11593 0.0
C213 C 0.5369 0.82758 0.14604 0.0
C214 C 0.55396 0.80991 0.10903 0.0
C215 C 0.56424 0.81845 0.04416 0.0
C216 C 0.58138 0.79819 1.00865 0.0
C217 C 0.58006 0.77559 0.06203 0.0
C218 C 0.56404 0.78187 0.12211 0.0
C219 C 0.61017 0.80994 1.00367 0.0
C220 C 0.56839 0.79081 0.93518 0.0
H221 H 0.58858 0.68293 0.21463 0.0
H222 H 0.52689 0.73113 0.37598 0.0
H223 H 0.50658 0.74729 0.19704 0.0
H224 H 0.50903 0.78282 0.20473 0.0
H225 H 0.50223 0.76309 0.28275 0.0
H226 H 0.57557 0.77841 0.31341 0.0
H227 H 0.54245 0.78139 0.35046 0.0
H228 H 0.55299 0.80263 0.27831 0.0
H229 H 0.59737 0.67186 0.94487 0.0
H230 H 0.61517 0.73998 0.81162 0.0
H231 H 0.61573 0.76861 0.91535 0.0
H232 H 0.6158 0.66868 0.12023 0.0
H233 H 0.62354 0.70075 0.1603 0.0
H234 H 0.63692 0.69226 0.07605 0.0
H235 H 0.55341 0.69124 0.03382 0.0
H236 H 0.55911 0.68062 0.12266 0.0
H237 H 0.57482 0.66318 0.05131 0.0
H238 H 0.57376 0.6615 0.32019 0.0
C239 C 0.57532 0.69402 0.24768 0.0
C240 C 0.34657 0.5112 0.27607 0.0
C241 C 0.36208 0.49672 0.32744 0.0
C242 C 0.35534 0.4697 0.33957 0.0
C243 C 0.31704 0.47275 0.26272 0.0
C244 C 0.32376 0.49849 0.24384 0.0
C245 C 0.30398 0.50836 0.18654 0.0
H246 H 0.19241 0.47167 0.9814 0.0
C247 C 0.29317 0.46412 0.22451 0.0
C248 C 0.28563 0.48363 0.17487 0.0
H249 H 0.22831 0.55028 0.98554 0.0
H250 H 0.26291 0.53413 0.06838 0.0
H251 H 0.24852 0.43534 0.989 0.0
H252 H 0.20082 0.44983 0.18005 0.0
H253 H 0.19086 0.42566 0.11259 0.0
H254 H 0.18338 0.4596 0.10238 0.0
H255 H 0.21384 0.42539 0.99153 0.0
H256 H 0.23824 0.40951 0.04779 0.0
C257 C 0.31934 0.51581 0.11822 0.0
C258 C 0.28833 0.53211 0.21738 0.0
C259 C 0.22348 0.40754 0.3422 0.0
C260 C 0.19974 0.39631 0.31329 0.0
C261 C 0.20052 0.3875 0.2414 0.0
C262 C 0.22078 0.39673 0.19564 0.0
C263 C 0.24008 0.41432 0.22312 0.0
C264 C 0.24359 0.41628 0.29558 0.0
C265 C 0.26853 0.43187 0.31374 0.0
C266 C 0.27668 0.44183 0.23909 0.0
C267 C 0.25754 0.43415 0.18853 0.0
C268 C 0.28842 0.4124 0.34893 0.0
C269 C 0.26193 0.45542 0.36417 0.0
C270 C 0.20782 0.48556 0.99875 0.0
C271 C 0.20746 0.51219 0.97555 0.0
C272 C 0.2278 0.52956 1.0022 0.0
C273 C 0.24781 0.52027 0.05048 0.0
C274 C 0.24709 0.49353 0.07454 0.0
C275 C 0.22686 0.47699 0.04877 0.0
C276 C 0.2266 0.45002 0.08309 0.0
C277 C 0.25024 0.45255 0.13394 0.0
C278 C 0.26299 0.47797 0.12873 0.0
C279 C 0.23196 0.4288 0.02482 0.0
C280 C 0.19921 0.44595 0.12175 0.0
H281 H 0.33177 0.43614 0.30803 0.0
H282 H 0.35169 0.53166 0.26285 0.0
H283 H 0.2789 0.52652 0.2691 0.0
H284 H 0.27217 0.53856 0.18129 0.0
H285 H 0.3019 0.54946 0.22694 0.0
H286 H 0.33159 0.49867 0.09973 0.0
H287 H 0.33295 0.53309 0.12819 0.0
H288 H 0.30555 0.52117 0.07442 0.0
H289 H 0.22507 0.41278 0.398 0.0
H290 H 0.18396 0.37637 0.21848 0.0
H291 H 0.21979 0.39172 0.13985 0.0
H292 H 0.29955 0.40081 0.30798 0.0
H293 H 0.27788 0.39782 0.38404 0.0
H294 H 0.30256 0.42303 0.38491 0.0
H295 H 0.24623 0.46833 0.34049 0.0
H296 H 0.27997 0.46795 0.37413 0.0
H297 H 0.25479 0.44812 0.41686 0.0
H298 H 0.36698 0.45775 0.37593 0.0
C299 C 0.334 0.45745 0.30454 0.0
C300 C 0.11551 0.24305 0.45019 0.0
C301 C 0.12285 0.21617 0.46011 0.0
C302 C 0.12352 0.19959 0.39861 0.0
C303 C 0.09955 0.23297 0.33092 0.0
C304 C 0.10117 0.24999 0.38893 0.0
C305 C 0.08229 0.27319 0.38299 0.0
H306 H 0.0475 0.3678 0.20252 0.0
C307 C 0.08048 0.24452 0.27932 0.0
C308 C 0.06897 0.26693 0.31142 0.0
H309 H 0.02355 0.35261 0.42164 0.0
H310 H 0.02493 0.30451 0.39771 0.0
H311 H 0.09061 0.31493 0.16622 0.0
H312 H 1.00493 0.30227 0.13942 0.0
H313 H 0.02732 0.30347 0.06335 0.0
H314 H 0.01874 0.33359 0.10864 0.0
H315 H 0.07239 0.33753 0.10945 0.0
H316 H 0.07702 0.30322 0.08259 0.0
C317 C 0.09885 0.29935 0.38041 0.0
C318 C 0.06226 0.27282 0.4465 0.0
C319 C 0.06279 0.19771 0.04424 0.0
C320 C 0.04205 0.20024 0.99405 0.0
C321 C 0.02628 0.22377 0.99708 0.0
C322 C 0.03122 0.24409 0.04884 0.0
C323 C 0.05223 0.24112 0.0981 0.0
C324 C 0.06677 0.21753 0.09686 0.0
C325 C 0.08201 0.2134 0.16518 0.0
C326 C 0.07394 0.2379 0.20766 0.0
C327 C 0.05802 0.25531 0.16683 0.0
C328 C 0.1122 0.21367 0.1474 0.0
C329 C 0.07197 0.18712 0.20089 0.0
C330 C 0.04277 0.3542 0.24566 0.0
C331 C 0.03721 0.36414 0.31602 0.0
C332 C 0.0294 0.34571 0.36902 0.0
C333 C 0.0314 0.31827 0.35706 0.0
C334 C 0.04186 0.30936 0.29241 0.0
C335 C 0.04332 0.32591 0.23439 0.0
C336 C 0.04715 0.30866 0.16681 0.0
C337 C 0.04908 0.28002 0.19827 0.0
C338 C 0.05077 0.28283 0.27255 0.0
C339 C 0.07335 0.31659 0.12902 0.0
C340 C 0.02308 0.31204 0.11675 0.0
H341 H 0.11245 0.19419 0.29008 0.0
H342 H 0.1168 0.25738 0.49336 0.0
H343 H 0.06969 0.26171 0.4936 0.0
H344 H 0.04303 0.26308 0.4312 0.0
H345 H 0.05841 0.29328 0.46682 0.0
H346 H 0.11276 0.29928 0.33405 0.0
H347 H 0.11086 0.30177 0.42999 0.0
H348 H 0.08591 0.31715 0.37582 0.0
H349 H 0.0741 0.17933 0.04704 0.0
H350 H 1.00954 0.22602 0.96092 0.0
H351 H 0.01752 0.26054 0.05299 0.0
H352 H 0.11723 0.23081 0.11192 0.0
H353 H 0.11797 0.19499 0.11928 0.0
H354 H 0.12494 0.21603 0.19517 0.0
H355 H 0.05111 0.18211 0.18458 0.0
H356 H 0.07085 0.18861 0.25975 0.0
H357 H 0.08478 0.16991 0.18614 0.0
H358 H 0.12994 0.17903 0.4015 0.0
C359 C 0.11251 0.20816 0.33364 0.0
C360 C 0.31668 0.03265 0.99852 0.0
C361 C 0.33326 0.04746 0.94988 0.0
C362 C 0.32833 0.07513 0.94208 0.0
C363 C 0.2986 0.07393 0.04298 0.0
C364 C 0.29808 0.0466 0.04241 0.0
C365 C 0.27772 0.03678 0.09824 0.0
H366 H 0.20067 0.07611 0.38879 0.0
C367 C 0.28554 0.08361 0.10731 0.0
C368 C 0.26847 0.06335 0.13298 0.0
H369 H 0.16954 0.0241 0.22416 0.0
H370 H 0.21046 0.03194 0.15247 0.0
H371 H 0.25965 0.05626 0.39007 0.0
H372 H 0.22066 0.12113 0.28637 0.0
H373 H 0.25105 0.13306 0.3235 0.0
H374 H 0.2264 0.11795 0.38077 0.0
H375 H 0.25966 0.08887 0.42922 0.0
H376 H 0.28616 0.07831 0.37023 0.0
C377 C 0.29167 0.01887 0.15345 0.0
C378 C 0.25486 0.0216 0.06075 0.0
C379 C 0.35122 0.13491 0.25884 0.0
C380 C 0.35341 0.13575 0.33361 0.0
C381 C 0.32981 0.13385 0.3746 0.0
C382 C 0.30547 0.1266 0.3423 0.0
C383 C 0.30497 0.12065 0.26884 0.0
C384 C 0.32728 0.12607 0.2276 0.0
C385 C 0.32472 0.1152 0.15282 0.0
C386 C 0.29688 0.1022 0.15629 0.0
C387 C 0.28612 0.10456 0.22521 0.0
C388 C 0.34715 0.09429 0.14087 0.0
C389 C 0.32662 0.13861 0.0992 0.0
C390 C 0.2028 0.06559 0.3385 0.0
C391 C 0.18189 0.04921 0.31307 0.0
C392 C 0.18555 0.03624 0.24627 0.0
C393 C 0.2093 0.04026 0.20542 0.0
C394 C 0.23005 0.05648 0.23278 0.0
C395 C 0.22616 0.06924 0.29777 0.0
C396 C 0.24829 0.08874 0.31475 0.0
C397 C 0.2643 0.08797 0.24591 0.0
C398 C 0.255 0.06767 0.1998 0.0
C399 C 0.26426 0.07769 0.37944 0.0
C400 C 0.23609 0.11675 0.32748 0.0
H401 H 0.30767 0.1096 0.98293 0.0
H402 H 0.31882 1.01121 1.00359 0.0
H403 H 0.24173 0.0356 0.03118 0.0
H404 H 0.24276 1.0101 0.09976 0.0
H405 H 0.263 1.00684 0.02211 0.0
H406 H 0.30877 0.02967 0.17865 0.0
H407 H 0.29936 1.00041 0.12773 0.0
H408 H 0.27743 1.01293 0.19627 0.0
H409 H 0.3689 0.13679 0.22586 0.0
H410 H 0.33075 0.13518 0.43231 0.0
H411 H 0.28848 0.12391 0.37655 0.0
H412 H 0.34535 0.07769 0.18006 0.0
H413 H 0.36734 0.10343 0.14633 0.0
H414 H 0.34692 0.08555 0.08687 0.0
H415 H 0.33966 0.15502 0.1197 0.0
H416 H 0.30659 0.1472 0.08825 0.0
H417 H 0.33594 0.13236 0.04827 0.0
H418 H 0.3396 0.087 0.90406 0.0
C419 C 0.31081 0.08839 0.98826 0.0
C420 C 0.496 0.32585 0.03076 0.0
C421 C 0.4824 0.3437 0.98308 0.0
C422 C 0.45434 0.34031 0.9756 0.0
C423 C 0.45342 0.30916 0.07294 0.0
C424 C 0.48076 0.30773 0.07371 0.0
C425 C 0.48924 0.28625 0.12774 0.0
H426 H 0.45477 0.21724 0.42819 0.0
C427 C 0.44239 0.29485 0.13389 0.0
C428 C 0.46208 0.27769 0.16081 0.0
H429 H 0.49888 0.17869 0.25817 0.0
H430 H 0.49088 0.2179 0.18172 0.0
H431 H 0.46512 0.28404 0.39261 0.0
H432 H 0.41013 0.22094 0.33393 0.0
H433 H 0.39181 0.25056 0.32842 0.0
H434 H 0.40525 0.24023 0.41367 0.0
H435 H 0.44408 0.26597 0.45392 0.0
H436 H 0.43186 0.29443 0.4066 0.0
C437 C 0.50776 0.29863 0.1847 0.0
C438 C 0.50316 0.26324 0.08836 0.0
C439 C 0.37997 0.35261 0.27696 0.0
C440 C 0.37519 0.3529 0.35128 0.0
C441 C 0.37497 0.32784 0.38632 0.0
C442 C 0.38649 0.30538 0.35388 0.0
C443 C 0.39773 0.30791 0.28543 0.0
C444 C 0.39251 0.3305 0.24603 0.0
C445 C 0.40648 0.33044 0.1749 0.0
C446 C 0.42139 0.30379 0.17883 0.0
C447 C 0.41732 0.29164 0.24542 0.0
C448 C 0.42599 0.35475 0.17271 0.0
C449 C 0.38521 0.33145 0.11479 0.0
C450 C 0.46339 0.21657 0.37534 0.0
C451 C 0.47766 0.19409 0.35106 0.0
C452 C 0.48846 0.19561 0.28069 0.0
C453 C 0.48438 0.21849 0.23658 0.0
C454 C 0.46946 0.24023 0.2626 0.0
C455 C 0.45798 0.23795 0.3295 0.0
C456 C 0.43569 0.25746 0.34068 0.0
C457 C 0.43501 0.27136 0.26883 0.0
C458 C 0.45645 0.26315 0.22528 0.0
C459 C 0.44439 0.27653 0.40177 0.0
C460 C 0.40933 0.24168 0.35548 0.0
H461 H 0.41888 0.32 1.01097 0.0
H462 H 0.51758 0.32639 0.0354 0.0
H463 H 0.48856 0.2515 0.05604 0.0
H464 H 0.51328 0.24978 0.1265 0.0
H465 H 0.51889 0.27116 0.05197 0.0
H466 H 0.49784 0.31576 0.21156 0.0
H467 H 0.52668 0.30594 0.16011 0.0
H468 H 0.51284 0.28357 0.22602 0.0
H469 H 0.37784 0.37029 0.24475 0.0
H470 H 0.3686 0.32598 0.44125 0.0
H471 H 0.38815 0.28768 0.38573 0.0
H472 H 0.44058 0.35377 0.21749 0.0
H473 H 0.41508 0.37394 0.17676 0.0
H474 H 0.43743 0.35604 0.12254 0.0
H475 H 0.36569 0.33917 0.13419 0.0
H476 H 0.38135 0.31127 0.09188 0.0
H477 H 0.39129 0.3453 0.07142 0.0
H478 H 0.44279 0.35246 0.93945 0.0
C479 C 0.44006 0.32254 1.01877 0.0
Eu480 Eu 0.99527 0.04085 0.63093 0.0
C481 C 0.09482 0.03892 0.81429 0.0
N482 N 0.09025 0.02489 0.75303 0.0
C483 C 0.13414 0.03608 0.71043 0.0
C484 C 0.11919 0.05281 0.82478 0.0
C485 C 0.10966 0.02275 0.70214 0.0
C486 C 0.13887 0.05131 0.77177 0.0
C487 C 0.07865 0.05532 0.9286 0.0
C488 C 0.07472 0.04012 0.86581 0.0
C489 C 0.10287 0.0692 0.93893 0.0
C490 C 0.12307 0.06792 0.88726 0.0
Eu491 Eu 0.04828 1.0032 0.74453 0.0
N492 N 0.0511 0.02712 0.85364 0.0
C493 C 0.05803 0.0563 0.97905 0.0
C494 C 0.03143 0.02712 0.90407 0.0
C495 C 0.03442 0.04194 0.96698 0.0
H496 H 0.10659 1.01039 0.65558 0.0
H497 H 0.01858 0.0421 1.0064 0.0
H498 H 0.9393 0.05909 0.71582 0.0
H499 H 1.00666 0.99515 0.36662 0.0
H500 H 1.01361 1.0154 0.89693 0.0
H501 H 0.06025 0.06781 0.0278 0.0
H502 H 0.02171 0.01841 0.47544 0.0
H503 H 0.14941 0.03447 0.66967 0.0
H504 H 0.10615 0.08104 0.9867 0.0
H505 H 0.14162 0.07879 0.89602 0.0
H506 H 0.89047 0.05113 0.70704 0.0
H507 H 0.15784 0.0617 0.77788 0.0
H508 H 0.95873 0.98415 0.35017 0.0
N509 N 0.9483 0.03655 0.62292 0.0
C510 C 0.93857 0.02332 0.56497 0.0
C511 C 0.90378 0.04296 0.6671 0.0
C512 C 0.91085 0.01885 0.55668 0.0
C513 C 0.93141 0.04703 0.6727 0.0
C514 C 0.89346 0.02856 0.60919 0.0
N515 N 0.98292 0.0199 0.52195 0.0
C516 C 1.00082 1.01365 0.46948 0.0
C517 C 0.94681 1.00187 0.45079 0.0
C518 C 0.95633 1.01503 0.51258 0.0
C519 C 0.96524 0.99436 0.3983 0.0
C520 C 0.99231 1.0005 0.40743 0.0
H521 H 0.87203 0.02554 0.60476 0.0
H522 H 0.88013 1.00151 0.48883 0.0
H523 H 0.91163 0.98657 0.39623 0.0
O524 O 0.01483 0.07647 0.58828 0.0
O525 O 0.99323 0.99542 0.61341 0.0
O526 O 0.03247 0.97642 0.65412 0.0
O527 O 0.97166 0.07515 0.59665 0.0
O528 O 0.03866 0.04062 0.58591 0.0
O529 O 0.05902 1.00252 0.62769 0.0
O530 O 0.05044 0.97451 0.8315 0.0
O531 O 0.04924 0.0492 0.73223 0.0
O532 O 1.00528 0.05815 0.73977 0.0
O533 O 0.07956 0.97271 0.74664 0.0
O534 O 1.00434 0.99485 0.77502 0.0
O535 O 0.98092 0.03272 0.74525 0.0
C536 C 1.00992 0.97513 0.61761 0.0
C537 C 0.99378 0.11496 0.63353 0.0
C538 C 0.02072 0.1516 0.68319 0.0
C539 C 0.99922 0.15836 0.7281 0.0
C540 C 0.97261 0.12201 0.67915 0.0
C541 C 0.97534 0.1437 0.72574 0.0
C542 C 0.01743 0.13016 0.63502 0.0
C543 C 0.05754 0.02222 0.58175 0.0
C544 C 0.99276 0.09034 0.58968 0.0
C545 C 0.90135 1.00526 0.49593 0.0
C546 C 0.91928 0.99679 0.44314 0.0
C547 C 0.02997 0.06517 0.7536 0.0
C548 C 0.06117 0.93223 0.7875 0.0
C549 C 0.02534 0.89967 0.76498 0.0
C550 C 0.04404 0.87903 0.77617 0.0
C551 C 0.07935 0.91155 0.79832 0.0
C552 C 0.03478 0.92619 0.76704 0.0
C553 C 0.07087 0.88501 0.79122 0.0
C554 C 0.98342 1.01065 0.78313 0.0
C555 C 0.06879 0.96023 0.80039 0.0
H556 H 1.0009 0.1747 0.76586 0.0
H557 H 0.95415 0.11056 0.6799 0.0
H558 H 0.95904 0.14889 0.76109 0.0
H559 H 0.03328 0.12512 0.59801 0.0
H560 H 0.038 0.85823 0.77685 0.0
H561 H 0.09987 0.9159 0.81323 0.0
H562 H 0.02133 0.94249 0.75618 0.0
H563 H 0.08488 0.86896 0.80038 0.0
Eu564 Eu 0.53112 0.04958 0.75488 0.0
C565 C 0.49414 0.93848 0.69057 0.0
N566 N 0.51451 0.95047 0.65496 0.0
C567 C 0.54231 0.9123 0.67433 0.0
C568 C 0.4974 0.91321 0.72243 0.0
C569 C 0.538 0.93735 0.64334 0.0
C570 C 0.5221 0.90041 0.71531 0.0
C571 C 0.44706 0.93771 0.72045 0.0
C572 C 0.46946 0.95074 0.69032 0.0
C573 C 0.45051 0.9134 0.75679 0.0
C574 C 0.47569 0.90119 0.75795 0.0
Eu575 Eu 0.50754 0.99498 0.61735 0.0
N576 N 0.46687 0.97403 0.65399 0.0
C577 C 0.42172 0.94877 0.70973 0.0
C578 C 0.44198 0.98311 0.63637 0.0
C579 C 0.41911 0.97115 0.66574 0.0
H580 H 0.55379 0.94689 0.61293 0.0
H581 H 0.39951 0.97913 0.65423 0.0
H582 H 0.50215 0.03663 0.91276 0.0
H583 H 0.56018 0.14639 0.64398 0.0
H584 H 0.43979 1.00012 0.60131 0.0
H585 H 0.40398 0.93941 0.73198 0.0
H586 H 0.56137 0.0972 0.65802 0.0
H587 H 0.56127 0.90231 0.66716 0.0
H588 H 0.43363 0.90333 0.7815 0.0
H589 H 0.47789 0.88198 0.7839 0.0
H590 H 0.47589 0.06037 1.00465 0.0
H591 H 0.52548 0.88102 0.7393 0.0
H592 H 0.53156 0.17357 0.72353 0.0
N593 N 0.50858 0.07136 0.8495 0.0
C594 C 0.50549 0.09817 0.84403 0.0
C595 C 0.484 0.07124 0.95956 0.0
C596 C 0.49098 0.11265 0.89561 0.0
C597 C 0.49882 0.05786 0.90733 0.0
C598 C 0.4798 0.09874 0.9533 0.0
N599 N 0.53308 0.09668 0.74277 0.0
C600 C 0.54886 0.10897 0.69291 0.0
C601 C 0.51707 0.13938 0.78339 0.0
C602 C 0.51824 0.1113 0.78883 0.0
C603 C 0.53195 0.15203 0.72965 0.0
C604 C 0.54819 0.13677 0.68478 0.0
H605 H 0.46846 0.1091 0.99404 0.0
H606 H 0.47746 0.15201 0.92761 0.0
H607 H 0.50039 0.17546 0.82923 0.0
O608 O 0.5682 0.02746 0.7672 0.0
O609 O 0.51274 0.06984 0.65729 0.0
O610 O 0.50487 0.03724 0.57072 0.0
O611 O 0.56112 0.0633 0.83264 0.0
O612 O 0.55394 0.04613 0.64755 0.0
O613 O 0.55234 1.0011 0.63002 0.0
O614 O 0.48982 0.9735 0.5267 0.0
O615 O 0.53426 0.98494 0.71246 0.0
O616 O 0.51705 1.00962 0.8021 0.0
O617 O 0.52738 0.99398 0.51348 0.0
O618 O 0.47616 0.02398 0.664 0.0
O619 O 0.49089 0.02987 0.77817 0.0
C620 C 0.50613 0.06243 0.59193 0.0
C621 C 0.60346 0.04005 0.84941 0.0
C622 C 0.64285 1.01254 0.86808 0.0
C623 C 0.65459 0.03352 0.90759 0.0
C624 C 0.61535 0.06069 0.88943 0.0
C625 C 0.64084 0.05739 0.91828 0.0
C626 C 0.61723 0.01594 0.83924 0.0
C627 C 0.56418 0.02423 0.61934 0.0
C628 C 0.57727 0.04388 0.81567 0.0
C629 C 0.48871 0.14054 0.88887 0.0
C630 C 0.50175 0.15389 0.83285 0.0
C631 C 0.52625 0.98667 0.77908 0.0
C632 C 0.49655 0.99848 0.4217 0.0
C633 C 0.46907 0.03586 0.38214 0.0
C634 C 0.48091 0.03401 0.31411 0.0
C635 C 0.50817 0.99693 0.35381 0.0
C636 C 0.4769 0.01775 0.43525 0.0
C637 C 0.50022 1.01456 0.30011 0.0
C638 C 0.47112 0.02785 0.7325 0.0
C639 C 0.50723 0.98278 0.48129 0.0
H640 H 0.67421 0.03126 0.93137 0.0
H641 H 0.6051 0.07947 0.89764 0.0
H642 H 0.64998 0.07338 0.94902 0.0
H643 H 0.60819 0.9999 0.80831 0.0
H644 H 0.47496 0.04727 0.27137 0.0
H645 H 0.52372 0.9825 0.34284 0.0
H646 H 0.46827 0.01915 0.48819 0.0
H647 H 0.50922 1.01332 0.24763 0.0
Eu648 Eu 0.54636 0.50577 0.63627 0.0
C649 C 0.48758 0.51962 0.92081 0.0
N650 N 0.47581 0.51697 0.85606 0.0
C651 C 0.44603 0.48347 0.90267 0.0
C652 C 0.47976 0.50345 0.97887 0.0
C653 C 0.45425 0.50033 0.84716 0.0
C654 C 0.4592 0.48466 0.96849 0.0
C655 C 0.51616 0.54579 0.9988 0.0
C656 C 0.5056 0.54032 0.93044 0.0
C657 C 0.50999 0.5286 0.05589 0.0
C658 C 0.49183 0.5074 0.04589 0.0
Eu659 Eu 0.49417 0.54253 0.76128 0.0
N660 N 0.5106 0.55675 0.87445 0.0
C661 C 0.53142 0.56911 1.00841 0.0
C662 C 0.52329 0.58074 0.88506 0.0
C663 C 0.53442 0.587 0.95168 0.0
H664 H 0.44425 0.49926 0.79596 0.0
H665 H 0.54537 0.60555 0.95909 0.0
H666 H 0.58957 0.47196 0.73896 0.0
H667 H 0.56652 0.55473 0.38139 0.0
H668 H 0.52583 0.59454 0.84115 0.0
H669 H 0.53992 0.57405 0.06004 0.0
H670 H 0.53892 0.53198 0.47325 0.0
H671 H 0.4296 0.46958 0.89466 0.0
H672 H 0.51825 0.53219 0.10858 0.0
H673 H 0.4864 0.49494 0.09098 0.0
H674 H 0.63837 0.46991 0.75979 0.0
H675 H 0.45267 0.47176 1.01162 0.0
H676 H 0.6154 0.55974 0.3993 0.0
N677 N 0.59289 0.49986 0.65379 0.0
C678 C 0.60957 0.51339 0.60943 0.0
C679 C 0.63053 0.48235 0.71751 0.0
C680 C 0.63756 0.5125 0.6184 0.0
C681 C 0.60293 0.4836 0.70569 0.0
C682 C 0.64793 0.49714 0.67425 0.0
N683 N 0.57175 0.52536 0.54302 0.0
C684 C 0.56026 0.53417 0.48122 0.0
C685 C 0.61521 0.53906 0.50087 0.0
C686 C 0.59861 0.52653 0.55187 0.0
C687 C 0.60336 0.54991 0.43975 0.0
C688 C 0.5758 0.54705 0.42933 0.0
H689 H 0.66932 0.49597 0.6831 0.0
H690 H 0.67576 0.52597 0.57639 0.0
H691 H 0.65615 0.54921 0.47316 0.0
O692 O 0.51942 0.47255 0.61222 0.0
O693 O 0.54375 0.55029 0.61173 0.0
O694 O 0.513 0.5726 0.68335 0.0
O695 O 0.55931 0.47316 0.56709 0.0
O696 O 0.50756 0.52183 0.58464 0.0
O697 O 0.48118 0.51207 0.67858 0.0
O698 O 0.46421 0.56956 0.80691 0.0
O699 O 0.49445 0.49666 0.753 0.0
O700 O 0.53835 0.48573 0.74443 0.0
O701 O 0.46182 0.55853 0.69637 0.0
O702 O 0.53911 0.5532 0.76933 0.0
O703 O 0.5596 0.51328 0.75144 0.0
C704 C 0.53056 0.57193 0.63063 0.0
C705 C 0.52353 0.45968 0.49154 0.0
C706 C 0.48396 0.45327 0.41619 0.0
C707 C 0.50046 0.45525 0.35535 0.0
C708 C 0.53953 0.46147 0.43001 0.0
C709 C 0.52796 0.4595 0.36242 0.0
C710 C 0.49576 0.45599 0.48402 0.0
C711 C 0.48352 0.51666 0.60996 0.0
C712 C 0.53529 0.46285 0.56351 0.0
C713 C 0.65421 0.52619 0.57005 0.0
C714 C 0.64305 0.53944 0.5113 0.0
C715 C 0.5143 0.48063 0.76949 0.0
C716 C 0.4523 0.60262 0.72243 0.0
C717 C 0.47749 0.64365 0.69796 0.0
C718 C 0.45661 0.65216 0.65315 0.0
C719 C 0.43168 0.61139 0.67775 0.0
C720 C 0.47464 0.61912 0.73387 0.0
C721 C 0.43373 0.63624 0.64398 0.0
C722 C 0.55839 0.53629 0.7849 0.0
C723 C 0.45318 0.57457 0.74541 0.0
H724 H 0.4924 0.45259 0.30213 0.0
H725 H 0.56096 0.46455 0.43395 0.0
H726 H 0.54043 0.46081 0.31526 0.0
H727 H 0.48333 0.4552 0.53136 0.0
H728 H 0.45813 0.67077 0.62393 0.0
H729 H 0.41452 0.59865 0.66702 0.0
H730 H 0.49024 0.61228 0.76927 0.0
H731 H 0.4179 0.64281 0.6088 0.0
Eu732 Eu 0.04151 0.55712 0.61108 0.0
C733 C 0.04896 0.47685 0.86135 0.0
N734 N 0.049 0.47108 0.79072 0.0
C735 C 0.08593 0.44137 0.80698 0.0
C736 C 0.06831 0.46602 0.90757 0.0
C737 C 0.06617 0.45256 0.76351 0.0
C738 C 0.08741 0.44863 0.87904 0.0
C739 C 0.02516 0.49514 0.9625 0.0
C740 C 0.02781 0.49129 0.88821 0.0
C741 C 0.04548 0.48629 1.00848 0.0
C742 C 0.06708 0.47175 0.98099 0.0
Eu743 Eu 0.0175 0.49343 0.71853 0.0
N744 N 1.00827 0.49879 0.84233 0.0
C745 C 1.00146 0.5063 0.9885 0.0
C746 C 0.9841 0.50701 0.86802 0.0
C747 C 0.98055 0.5116 0.94116 0.0
H748 H 0.0652 0.4473 0.70748 0.0
H749 H 0.96169 0.51912 0.96093 0.0
H750 H 0.07574 0.59817 0.71988 0.0
H751 H 0.98258 0.58389 0.37678 0.0
H752 H 0.96776 0.51083 0.83169 0.0
H753 H 0.9986 0.5096 0.0452 0.0
H754 H 1.00994 0.55455 0.45369 0.0
H755 H 0.1001 0.42736 0.7848 0.0
H756 H 0.04405 0.48946 0.06562 0.0
H757 H 0.08199 0.46398 1.01732 0.0
H758 H 0.07584 0.64577 0.75587 0.0
H759 H 0.10266 0.4399 0.91269 0.0
H760 H 0.97572 0.63124 0.41077 0.0
N761 N 0.04504 0.60293 0.64246 0.0
C762 C 0.02926 0.6203 0.60675 0.0
C763 C 0.06252 0.63886 0.71403 0.0
C764 C 0.02893 0.64771 0.62445 0.0
C765 C 0.06236 0.61191 0.69367 0.0
C766 C 0.04546 0.6568 0.6799 0.0
N767 N 0.01734 0.58472 0.53149 0.0
C768 C 1.00691 0.57519 0.46889 0.0
C769 C 0.99983 0.62845 0.50661 0.0
C770 C 0.01493 0.61085 0.54907 0.0
C771 C 0.98754 0.6184 0.44482 0.0
C772 C 0.99143 0.59172 0.42534 0.0
H773 H 0.04577 0.67769 0.69533 0.0
H774 H 1.01212 0.68629 0.59786 0.0
H775 H 0.98662 0.6694 0.49433 0.0
O776 O 0.07655 0.53476 0.57729 0.0
O777 O 0.9967 0.54899 0.59329 0.0
O778 O 0.98207 0.51248 0.66043 0.0
O779 O 0.07047 0.5748 0.53723 0.0
O780 O 0.02575 0.52013 0.55085 0.0
O781 O 0.04449 0.48904 0.6215 0.0
O782 O 0.99646 0.45724 0.75465 0.0
O783 O 0.0621 0.50238 0.70417 0.0
O784 O 0.06554 0.54752 0.71289 0.0
O785 O 1.00158 0.46427 0.6425 0.0
O786 O 1.00108 0.53488 0.7531 0.0
O787 O 0.03515 0.56448 0.72964 0.0
C788 C 0.97786 0.53207 0.61446 0.0
C789 C 0.08765 0.54242 0.45646 0.0
C790 C 0.09769 0.50525 0.37551 0.0
C791 C 0.09558 0.52303 0.31743 0.0
C792 C 0.08565 0.55965 0.3976 0.0
C793 C 0.08942 0.54989 0.32856 0.0
C794 C 0.0934 0.51525 0.44484 0.0
C795 C 0.03576 0.49607 0.55834 0.0
C796 C 0.0836 0.5525 0.52994 0.0
C797 C 1.01284 0.66519 0.58475 0.0
C798 C 0.99832 0.65558 0.52583 0.0
C799 C 0.0747 0.52364 0.72886 0.0
C800 C 0.96038 0.44744 0.67676 0.0
C801 C 0.91613 0.46674 0.68987 0.0
C802 C 0.90683 0.45133 0.63232 0.0
C803 C 0.95095 0.43174 0.61975 0.0
C804 C 0.94272 0.46451 0.71204 0.0
C805 C 0.92418 0.43356 0.59803 0.0
C806 C 0.01437 0.55724 0.76795 0.0
C807 C 0.9892 0.45025 0.69037 0.0
H808 H 0.0995 0.51654 0.2633 0.0
H809 H 0.08122 0.58065 0.40481 0.0
H810 H 0.08801 0.56333 0.28345 0.0
H811 H 0.09456 0.50193 0.49017 0.0
H812 H 0.88633 0.45303 0.61418 0.0
H813 H 0.96447 0.41891 0.59046 0.0
H814 H 0.95001 0.47732 0.75461 0.0
H815 H 0.91707 0.4217 0.55342 0.0
H816 H 0.15399 1.00497 0.36305 0.0
H817 H 0.15171 0.09104 0.35898 0.0
H818 H 0.11233 0.09075 0.43649 0.0
H819 H 0.07957 0.06617 0.51242 0.0
H820 H 0.08349 0.98015 0.52147 0.0
H821 H 0.12042 0.98033 0.43615 0.0
C822 C 0.14463 0.02362 0.37827 0.0
C823 C 0.15598 0.048 0.35462 0.0
C824 C 0.12209 0.02336 0.42473 0.0
C825 C 0.1436 0.07196 0.37616 0.0
C826 C 0.12099 0.07182 0.42077 0.0
C827 C 0.08824 0.04745 0.49493 0.0
C828 C 0.07848 0.02317 0.5238 0.0
C829 C 0.11018 0.04768 0.44643 0.0
C830 C 0.09045 0.99919 0.5008 0.0
C831 C 0.11171 0.99925 0.45174 0.0
H832 H 0.51425 0.15153 0.35028 0.0
H833 H 0.44209 0.1777 0.45659 0.0
H834 H 0.44546 0.14156 0.54032 0.0
H835 H 0.46894 0.10226 0.58823 0.0
H836 H 0.53602 0.07065 0.47243 0.0
H837 H 0.53402 0.10812 0.388 0.0
C838 C 0.49908 0.14944 0.39118 0.0
C839 C 0.47891 0.16914 0.39798 0.0
C840 C 0.50004 0.12712 0.43833 0.0
C841 C 0.45926 0.16484 0.45147 0.0
C842 C 0.46072 0.14351 0.49948 0.0
C843 C 0.483 0.10353 0.5442 0.0
C844 C 0.5028 0.08385 0.53719 0.0
C845 C 0.4812 0.12472 0.49438 0.0
C846 C 0.52061 0.08557 0.47917 0.0
C847 C 0.51952 0.1071 0.43094 0.0
H848 H 0.36968 0.49396 0.47036 0.0
H849 H 0.40836 0.52241 0.27951 0.0
H850 H 0.4497 0.53107 0.34804 0.0
H851 H 0.47596 0.52788 0.46353 0.0
H852 H 0.43498 0.49794 0.65064 0.0
H853 H 0.39428 0.49212 0.58239 0.0
C854 C 0.387 0.50249 0.44364 0.0
C855 C 0.38556 0.50774 0.36959 0.0
C856 C 0.41078 0.5067 0.48296 0.0
C857 C 0.40845 0.51866 0.33645 0.0
C858 C 0.4323 0.52326 0.37571 0.0
C859 C 0.4581 0.52017 0.48935 0.0
C860 C 0.45901 0.51345 0.56311 0.0
C861 C 0.43395 0.5169 0.44912 0.0
C862 C 0.43539 0.50345 0.59472 0.0
C863 C 0.41181 0.50009 0.55555 0.0
H864 H 1.00477 0.40899 0.32216 0.0
H865 H 0.08296 0.38006 0.37804 0.0
H866 H 0.08926 0.4175 0.46014 0.0
H867 H 0.07145 0.45688 0.52372 0.0
H868 H 0.99521 0.48889 0.46127 0.0
H869 H 0.98957 0.45272 0.37358 0.0
C870 C 0.02371 0.41165 0.34953 0.0
C871 C 0.04363 0.39184 0.34228 0.0
C872 C 0.02751 0.43385 0.39635 0.0
C873 C 0.06763 0.39526 0.38066 0.0
C874 C 0.07115 0.4166 0.42846 0.0
C875 C 0.05374 0.45614 0.49027 0.0
C876 C 0.03366 0.47554 0.49985 0.0
C877 C 0.05105 0.43573 0.43804 0.0
C878 C 1.011 0.47433 0.45531 0.0
C879 C 1.00776 0.45355 0.40502 0.0
H880 H 0.91154 0.96567 0.03773 0.0
H881 H 0.86037 0.03076 0.97601 0.0
H882 H 0.89387 0.04526 0.88791 0.0
H883 H 0.9366 0.03742 0.82217 0.0
H884 H 0.98527 0.96998 0.88051 0.0
H885 H 0.95356 0.95812 0.97384 0.0
C886 C 0.9074 0.98299 1.00496 0.0
C887 C 0.88286 0.99675 1.01367 0.0
C888 C 0.92624 0.99052 0.95217 0.0
C889 C 0.87887 0.01973 0.97168 0.0
C890 C 0.89798 0.02784 0.92034 0.0
C891 C 0.94019 0.0199 0.85425 0.0
C892 C 0.96328 1.00418 0.84134 0.0
C893 C 0.92152 1.013 0.90878 0.0
C894 C 0.96757 0.9821 0.88647 0.0
C895 C 0.94946 0.97542 0.9409 0.0
H896 H 0.57379 0.89131 0.95932 0.0
H897 H 0.49515 0.892 0.05483 0.0
H898 H 0.48401 0.93175 0.98451 0.0
H899 H 0.49561 0.96489 0.88813 0.0
H900 H 0.57237 0.95892 0.78443 0.0
H901 H 0.58439 0.92193 0.86222 0.0
C902 C 0.5539 0.89955 0.96444 0.0
C903 C 0.53527 0.88778 1.01245 0.0
C904 C 0.5471 0.92157 0.92111 0.0
C905 C 0.51017 0.90026 1.01937 0.0
C906 C 0.50363 0.92298 0.97829 0.0
C907 C 0.5151 0.95566 0.8835 0.0
C908 C 0.53321 0.96496 0.83069 0.0
C909 C 0.52179 0.93364 0.92801 0.0
C910 C 0.55812 0.95237 0.82447 0.0
C911 C 0.56508 0.93121 0.86939 0.0
H912 H 0.65038 0.58615 0.98157 0.0
H913 H 0.66093 0.50336 0.03779 0.0
H914 H 0.62303 0.49086 0.961 0.0
H915 H 0.58838 0.50313 0.87086 0.0
H916 H 0.57768 0.58614 0.81753 0.0
H917 H 0.61389 0.59874 0.89907 0.0
C918 C 0.64423 0.56536 0.97787 0.0
C919 C 0.65881 0.54576 1.01602 0.0
C920 C 0.62242 0.55828 0.93298 0.0
C921 C 0.65015 0.51899 1.0103 0.0
C922 C 0.62856 0.51178 0.96551 0.0
C923 C 0.59393 0.524 0.87721 0.0
C924 C 0.58013 0.54368 0.83737 0.0
C925 C 0.61481 0.53118 0.9254 0.0
C926 C 0.58766 0.57058 0.8472 0.0
C927 C 0.60849 0.5778 0.894 0.0
H928 H 0.95902 0.62676 1.01151 0.0
H929 H 0.03334 0.67099 0.9969 0.0
H930 H 0.05019 0.63799 0.91135 0.0
H931 H 0.0426 0.59831 0.83309 0.0
H932 H 0.96557 0.55885 0.83623 0.0
H933 H 0.951 0.58846 0.93215 0.0
C934 C 0.97884 0.6297 0.98938 0.0
C935 C 0.99452 0.65218 1.01086 0.0
C936 C 0.98793 0.61136 0.93712 0.0
C937 C 0.02063 0.65418 0.98279 0.0
C938 C 0.03021 0.63537 0.93278 0.0
C939 C 0.02254 0.59619 0.85429 0.0
C940 C 1.00546 0.57567 0.82737 0.0
C941 C 1.01381 0.61421 0.90816 0.0
C942 C 0.97961 0.57355 0.85661 0.0
C943 C 0.97112 0.59079 0.91133 0.0
H944 H 0.09862 0.23726 0.58083 0.0
H945 H 0.14129 0.16687 0.51138 0.0
H946 H 0.11543 0.13996 0.59529 0.0
H947 H 0.0721 0.13498 0.65724 0.0
H948 H 0.02606 0.20566 0.70538 0.0
H949 H 0.06244 0.23369 0.66356 0.0
C950 C 0.1031 0.2162 0.58363 0.0
C951 C 0.12011 0.20386 0.53314 0.0
C952 C 0.08695 0.20062 0.62826 0.0
C953 C 0.1267 0.17681 0.5446 0.0
C954 C 0.11188 0.1613 0.59286 0.0
C955 C 0.07007 0.15654 0.65914 0.0
C956 C 0.04565 0.16805 0.68086 0.0
C957 C 0.09025 0.17267 0.62948 0.0
C958 C 0.0442 0.19601 0.68767 0.0
C959 C 0.06502 0.21218 0.66297 0.0
H960 H 0.36293 0.09823 0.43348 0.0
H961 H 0.40338 0.15638 0.30127 0.0
H962 H 0.44481 0.13088 0.31036 0.0
H963 H 0.46664 0.08794 0.33745 0.0
H964 H 0.42387 0.0289 0.46213 0.0
H965 H 0.3867 0.05939 0.47651 0.0
C966 C 0.38105 0.10617 0.4094 0.0
C967 C 0.3798 0.12886 0.36519 0.0
C968 C 0.40439 0.09089 0.41244 0.0
C969 C 0.40364 0.13868 0.33453 0.0
C970 C 0.42726 0.12392 0.339 0.0
C971 C 0.44921 0.08178 0.36791 0.0
C972 C 0.44793 0.05589 0.39733 0.0
C973 C 0.42738 0.0992 0.37434 0.0
C974 C 0.42555 0.04863 0.43877 0.0
C975 C 0.40414 0.06605 0.44685 0.0
H976 H 0.37625 0.40626 0.30463 0.0
H977 H 0.38589 0.35972 0.49744 0.0
H978 H 0.41849 0.39142 0.54048 0.0
H979 H 0.45427 0.42216 0.50667 0.0
H980 H 0.44838 0.46672 0.30971 0.0
H981 H 0.40638 0.44393 0.28218 0.0
C982 C 0.38564 0.40245 0.3556 0.0
C983 C 0.38071 0.37828 0.39267 0.0
C984 C 0.40644 0.41954 0.37776 0.0
C985 C 0.39035 0.3766 0.46353 0.0
C986 C 0.4095 0.39476 0.48859 0.0
C987 C 0.44348 0.4279 0.45899 0.0
C988 C 0.45525 0.44543 0.40897 0.0
C989 C 0.41939 0.41471 0.44324 0.0
C990 C 0.44054 0.45238 0.34771 0.0
C991 C 0.41635 0.43951 0.33215 0.0
H992 H 0.151 0.40454 0.24851 0.0
H993 H 0.18768 0.4028 0.45764 0.0
H994 H 0.15613 0.43623 0.49933 0.0
H995 H 0.12751 0.47375 0.46538 0.0
H996 H 0.08753 0.47223 0.26045 0.0
H997 H 0.11167 0.43187 0.22838 0.0
C998 C 0.1518 0.41039 0.30417 0.0
C999 C 0.17351 0.40277 0.34786 0.0
C1000 C 0.13371 0.42977 0.32781 0.0
C1001 C 0.17261 0.4098 0.42078 0.0
C1002 C 0.15455 0.42902 0.44485 0.0
C1003 C 0.12313 0.46433 0.41456 0.0
C1004 C 0.10667 0.47712 0.36395 0.0
C1005 C 0.13657 0.44069 0.39686 0.0
C1006 C 0.10124 0.46387 0.29904 0.0
C1007 C 0.1148 0.44053 0.28086 0.0
H1008 H 0.90936 0.88278 0.8714 0.0
H1009 H 0.92968 0.80208 0.80866 0.0
H1010 H 0.96507 0.81893 0.73447 0.0
H1011 H 0.99901 0.85398 0.7192 0.0
H1012 H 0.98359 0.93267 0.80552 0.0
H1013 H 0.93891 0.91936 0.83696 0.0
C1014 C 0.92147 0.86864 0.84212 0.0
C1015 C 0.91808 0.84092 0.85287 0.0
C1016 C 0.94382 0.87818 0.80433 0.0
C1017 C 0.93217 0.82352 0.80661 0.0
C1018 C 0.953 0.83312 0.76391 0.0
C1019 C 0.98601 0.86834 0.74484 0.0
C1020 C 0.99582 0.89393 0.7632 0.0
C1021 C 0.96059 0.86003 0.76821 0.0
C1022 C 0.97755 0.91263 0.79154 0.0
C1023 C 0.95165 0.90496 0.81043 0.0
H1024 H 0.72437 0.92104 0.89243 0.0
H1025 H 0.65374 0.87792 0.96178 0.0
H1026 H 0.62589 0.91402 0.91772 0.0
H1027 H 0.62295 0.9623 0.88889 0.0
H1028 H 0.69456 1.00528 0.82819 0.0
H1029 H 0.72065 0.96448 0.83934 0.0
C1030 C 0.70288 0.91863 0.8962 0.0
C1031 C 0.69148 0.89745 0.93606 0.0
C1032 C 0.68709 0.93999 0.87366 0.0
C1033 C 0.66339 0.8947 0.93564 0.0
C1034 C 0.64733 0.91548 0.91049 0.0
C1035 C 0.64412 0.9625 0.87614 0.0
C1036 C 0.65705 0.98685 0.85979 0.0
C1037 C 0.65916 0.93908 0.88461 0.0
C1038 C 0.6844 0.98688 0.84283 0.0
C1039 C 0.69927 0.96355 0.84883 0.0
H1040 H 0.56585 0.72555 0.79118 0.0
H1041 H 0.60993 0.65251 0.82044 0.0
H1042 H 0.5751 0.62767 0.75558 0.0
H1043 H 0.52859 0.62572 0.71665 0.0
H1044 H 0.48263 0.69836 0.70121 0.0
H1045 H 0.52198 0.72444 0.73475 0.0
C1046 C 0.56844 0.70436 0.78091 0.0
C1047 C 0.59037 0.69081 0.81066 0.0
C1048 C 0.54758 0.69004 0.74847 0.0
C1049 C 0.5932 0.6633 0.79797 0.0
C1050 C 0.57312 0.64909 0.76203 0.0
C1051 C 0.52708 0.64726 0.71966 0.0
C1052 C 0.50234 0.65988 0.70755 0.0
C1053 C 0.54953 0.66205 0.74131 0.0
C1054 C 0.50124 0.68795 0.71018 0.0
C1055 C 0.52375 0.70292 0.7298 0.0
H1056 H 0.86636 0.54724 0.90449 0.0
H1057 H 0.85781 0.59493 0.71432 0.0
H1058 H 0.875 0.55764 0.64197 0.0
H1059 H 0.89406 0.51182 0.63518 0.0
H1060 H 0.90208 0.4657 0.82816 0.0
H1061 H 0.88301 0.50218 0.89778 0.0
C1062 C 0.8689 0.54986 0.84737 0.0
C1063 C 0.86182 0.57412 0.81494 0.0
C1064 C 0.87821 0.52849 0.80686 0.0
C1065 C 0.86387 0.57664 0.74048 0.0
C1066 C 0.8735 0.55532 0.69929 0.0
C1067 C 0.89107 0.50973 0.69215 0.0
C1068 C 0.89919 0.48624 0.72686 0.0
C1069 C 0.88078 0.53114 0.73206 0.0
C1070 C 0.8956 0.4836 0.80075 0.0
C1071 C 0.88505 0.5045 0.84047 0.0
H1072 H 0.07568 0.1695 0.911 0.0
H1073 H 0.99282 0.17713 0.97094 0.0
H1074 H 0.98187 0.13618 0.90489 0.0
H1075 H 0.99581 0.09729 0.83121 0.0
H1076 H 0.07815 0.09143 0.7649 0.0
H1077 H 0.08916 0.13199 0.83189 0.0
C1078 C 0.05516 0.16234 0.90918 0.0
C1079 C 0.03512 0.17674 0.94619 0.0
C1080 C 0.04889 0.13871 0.87021 0.0
C1081 C 1.00866 0.16694 0.9426 0.0
C1082 C 1.00241 0.14324 0.90532 0.0
C1083 C 0.01618 0.10486 0.83127 0.0
C1084 C 0.03617 0.09074 0.79345 0.0
C1085 C 0.02235 0.12881 0.86911 0.0
C1086 C 0.06237 0.10129 0.79422 0.0
C1087 C 0.06869 0.12472 0.8324 0.0
H1088 H 0.34983 0.05377 0.81009 0.0
H1089 H 0.37279 0.01689 1.00855 0.0
H1090 H 0.41711 1.00729 0.95924 0.0
H1091 H 0.45098 1.01288 0.86299 0.0
H1092 H 0.4275 0.04829 0.66306 0.0
H1093 H 0.38217 0.05504 0.70945 0.0
C1094 C 0.36434 0.04317 0.84223 0.0
C1095 C 0.35767 0.03608 0.91342 0.0
C1096 C 0.39003 0.03785 0.81346 0.0
C1097 C 0.37693 0.02228 0.95362 0.0
C1098 C 0.40252 0.01709 0.9256 0.0
C1099 C 0.43591 0.02198 0.82941 0.0
C1100 C 0.44291 0.03035 0.75959 0.0
C1101 C 0.40957 0.02538 0.85621 0.0
C1102 C 0.42287 0.04171 0.71679 0.0
C1103 C 0.39687 0.04559 0.74346 0.0
H1104 H 0.46913 0.36629 0.85284 0.0
H1105 H 0.5262 0.37457 0.02469 0.0
H1106 H 0.54258 0.41642 0.9718 0.0
H1107 H 0.53792 0.45331 0.88148 0.0
H1108 H 0.47598 0.44663 0.72208 0.0
H1109 H 0.46362 0.40242 0.76706 0.0
C1110 C 0.48486 0.37721 0.88018 0.0
C1111 C 0.49584 0.36694 0.94438 0.0
C1112 C 0.49312 0.40212 0.85184 0.0
C1113 C 0.51723 0.38139 0.97541 0.0
C1114 C 0.52643 0.4057 0.94551 0.0
C1115 C 0.52185 0.44202 0.85647 0.0
C1116 C 0.50798 0.45332 0.79796 0.0
C1117 C 0.51413 0.41665 0.88453 0.0
C1118 C 0.48696 0.43855 0.76695 0.0
C1119 C 0.47992 0.41317 0.79265 0.0
H1120 H 0.1852 0.48563 0.86125 0.0
H1121 H 0.17762 0.55865 0.98196 0.0
H1122 H 0.1368 0.56958 0.91535 0.0
H1123 H 0.10089 0.5566 0.82743 0.0
H1124 H 0.10995 0.48329 0.70839 0.0
H1125 H 0.15171 0.4742 0.77023 0.0
C1126 C 0.17476 0.50404 0.87315 0.0
C1127 C 0.18474 0.52113 0.92754 0.0
C1128 C 0.15101 0.51 0.8353 0.0
C1129 C 0.17086 0.54511 0.94041 0.0
C1130 C 0.14723 0.55126 0.90258 0.0
C1131 C 0.11214 0.53877 0.81461 0.0
C1132 C 0.10163 0.52033 0.76404 0.0
C1133 C 0.13675 0.53363 0.85057 0.0
C1134 C 0.11683 0.49748 0.74822 0.0
C1135 C 0.14099 0.49233 0.78332 0.0
H1136 H 0.96298 0.88044 0.42531 0.0
H1137 H 0.04488 0.85383 0.43332 0.0
H1138 H 0.05603 0.891 0.51358 0.0
H1139 H 0.04319 0.93319 0.57692 0.0
H1140 H 0.9614 0.9598 0.56317 0.0
H1141 H 0.95008 0.92132 0.48901 0.0
C1142 C 0.98344 0.88271 0.44355 0.0
C1143 C 1.00302 0.86396 0.42136 0.0
C1144 C 0.98993 0.90463 0.48874 0.0
C1145 C 0.02912 0.86739 0.44884 0.0
C1146 C 0.03563 0.88896 0.49466 0.0
C1147 C 0.02283 0.93053 0.55811 0.0
C1148 C 1.00332 0.95001 0.5756 0.0
C1149 C 0.0163 0.908 0.5144 0.0
C1150 C 0.97708 0.94578 0.55025 0.0
C1151 C 0.97049 0.92353 0.50779 0.0
H1152 H 0.66294 0.04089 0.40456 0.0
H1153 H 0.6816 0.96231 0.48419 0.0
H1154 H 0.64332 0.96385 0.56432 0.0
H1155 H 0.6023 0.98561 0.60665 0.0
H1156 H 0.58384 0.06518 0.5353 0.0
H1157 H 0.6237 0.06517 0.45831 0.0
C1158 C 0.65898 0.02439 0.44059 0.0
C1159 C 0.67533 1.00134 0.4372 0.0
C1160 C 0.63649 0.02536 0.48771 0.0
C1161 C 0.66947 0.98019 0.48457 0.0
C1162 C 0.6474 0.98098 0.53054 0.0
C1163 C 0.60703 1.00306 0.57459 0.0
C1164 C 0.58971 0.02525 0.57651 0.0
C1165 C 0.63035 1.00312 0.53149 0.0
C1166 C 0.59662 0.04777 0.53513 0.0
C1167 C 0.6195 0.04774 0.49081 0.0
H1168 H 0.58119 0.66573 0.44729 0.0
H1169 H 0.49841 0.68569 0.41433 0.0
H1170 H 0.48502 0.65098 0.50063 0.0
H1171 H 0.49688 0.61062 0.57426 0.0
H1172 H 0.58003 0.5897 0.59627 0.0
H1173 H 0.59305 0.62832 0.52458 0.0
C1174 C 0.56015 0.6628 0.45942 0.0
C1175 C 0.54088 0.67839 0.42322 0.0
C1176 C 0.55261 0.64198 0.50635 0.0
C1177 C 0.51379 0.67434 0.44117 0.0
C1178 C 0.50611 0.65413 0.48996 0.0
C1179 C 0.51784 0.61484 0.56423 0.0
C1180 C 0.53748 0.59717 0.59123 0.0
C1181 C 0.5253 0.63714 0.52114 0.0
C1182 C 0.56451 0.60277 0.57644 0.0
C1183 C 0.57199 0.62497 0.53544 0.0
H1184 H 0.87822 0.51741 0.40489 0.0
H1185 H 0.86784 0.60064 0.45664 0.0
H1186 H 0.905 0.59869 0.54113 0.0
H1187 H 0.94411 0.5747 0.59116 0.0
H1188 H 0.95263 0.49059 0.54806 0.0
H1189 H 0.91312 0.49143 0.47058 0.0
C1190 C 0.88332 0.53479 0.43693 0.0
C1191 C 0.8697 0.5591 0.4246 0.0
C1192 C 0.90507 0.53356 0.48611 0.0
C1193 C 0.87742 0.58156 0.4656 0.0
C1194 C 0.89907 0.58058 0.51329 0.0
C1195 C 0.93702 0.55647 0.56583 0.0
C1196 C 0.95151 0.5326 0.57567 0.0
C1197 C 0.91364 0.55693 0.52255 0.0
C1198 C 0.9419 0.50921 0.54207 0.0
C1199 C 0.91927 0.50971 0.49728 0.0
loop_
_geom_bond_atom_site_label_1
_geom_bond_atom_site_label_2
_geom_bond_distance
_geom_bond_site_symmetry_2
_ccdc_geom_bond_type
C0 C1 1.391 . S
C0 C4 1.391 . S
C0 H42 0.948 . S
C1 C0 1.391 . S
C1 C2 1.391 . S
C2 C1 1.391 . S
C2 H58 0.947 . S
C2 C59 1.392 . S
C3 C4 1.391 . S
C3 C7 1.397 . S
C3 C59 1.419 . S
C4 C0 1.391 . S
C4 C3 1.391 . S
C4 C5 1.399 . S
C5 C4 1.399 . S
C5 C8 1.396 . S
C5 C17 1.453 . S
C5 C18 1.684 . S
H6 C30 0.948 . S
C7 C3 1.397 . S
C7 C8 1.394 . S
C7 C26 1.723 . S
C8 C5 1.396 . S
C8 C7 1.394 . S
C8 C38 1.723 . S
H9 C32 0.947 . S
H10 C33 0.948 . S
H11 C39 0.982 . S
H12 C40 0.979 . S
H13 C40 0.980 . S
H14 C40 0.983 . S
H15 C39 0.979 . S
H16 C39 0.977 . S
C17 C5 1.453 . S
C17 H46 0.982 . S
C17 H47 0.979 . S
C17 H48 0.977 . S
C18 C5 1.684 . S
C18 H43 0.979 . S
C18 H44 0.980 . S
C18 H45 0.983 . S
C19 C20 1.391 . S
C19 C24 1.391 . S
C19 H49 0.948 . S
C20 C19 1.391 . S
C20 C21 1.391 . S
C21 C20 1.391 . S
C21 C22 1.392 . S
C21 H50 0.947 1_554 S
C22 C21 1.392 . S
C22 C23 1.419 . S
C22 H51 0.948 . S
C23 C22 1.419 . S
C23 C24 1.391 . S
C23 C27 1.397 . S
C24 C19 1.391 . S
C24 C23 1.391 . S
C24 C25 1.399 . S
C25 C24 1.399 . S
C25 C26 1.396 . S
C25 C28 1.453 . S
C25 C29 1.684 . S
C26 C7 1.723 . S
C26 C25 1.396 . S
C26 C27 1.394 . S
C27 C23 1.397 . S
C27 C26 1.394 . S
C27 C37 1.723 . S
C28 C25 1.453 . S
C28 H52 0.982 . S
C28 H53 0.979 . S
C28 H54 0.977 . S
C29 C25 1.684 . S
C29 H55 0.979 . S
C29 H56 0.980 . S
C29 H57 0.983 . S
C30 H6 0.948 . S
C30 C31 1.391 . S
C30 C35 1.391 . S
C31 C30 1.391 . S
C31 C32 1.391 . S
C32 H9 0.947 . S
C32 C31 1.391 . S
C32 C33 1.392 . S
C33 H10 0.948 . S
C33 C32 1.392 . S
C33 C34 1.419 . S
C34 C33 1.419 . S
C34 C35 1.391 . S
C34 C38 1.397 . S
C35 C30 1.391 . S
C35 C34 1.391 . S
C35 C36 1.399 . S
C36 C35 1.399 . S
C36 C37 1.396 . S
C36 C39 1.453 . S
C36 C40 1.684 . S
C37 C27 1.723 . S
C37 C36 1.396 . S
C37 C38 1.394 . S
C38 C8 1.723 . S
C38 C34 1.397 . S
C38 C37 1.394 . S
C39 H11 0.982 . S
C39 H15 0.979 . S
C39 H16 0.977 . S
C39 C36 1.453 . S
C40 H12 0.979 . S
C40 H13 0.980 . S
C40 H14 0.983 . S
C40 C36 1.684 . S
H41 C59 0.948 . S
H42 C0 0.948 . S
H43 C18 0.979 . S
H44 C18 0.980 . S
H45 C18 0.983 . S
H46 C17 0.982 . S
H47 C17 0.979 . S
H48 C17 0.977 . S
H49 C19 0.948 . S
H50 C21 0.947 1_556 S
H51 C22 0.948 . S
H52 C28 0.982 . S
H53 C28 0.979 . S
H54 C28 0.977 . S
H55 C29 0.979 . S
H56 C29 0.980 . S
H57 C29 0.983 . S
H58 C2 0.947 . S
C59 C2 1.392 . S
C59 C3 1.419 . S
C59 H41 0.948 . S
C60 C61 1.391 . S
C60 C64 1.391 . S
C60 H102 0.948 . S
C61 C60 1.391 . S
C61 C62 1.391 . S
C62 C61 1.391 . S
C62 H118 0.947 . S
C62 C119 1.392 . S
C63 C64 1.391 . S
C63 C67 1.397 . S
C63 C119 1.419 . S
C64 C60 1.391 . S
C64 C63 1.391 . S
C64 C65 1.399 . S
C65 C64 1.399 . S
C65 C68 1.396 . S
C65 C77 1.453 . S
C65 C78 1.684 . S
H66 C90 0.948 . S
C67 C63 1.397 . S
C67 C68 1.394 . S
C67 C86 1.723 . S
C68 C65 1.396 . S
C68 C67 1.394 . S
C68 C98 1.723 . S
H69 C92 0.947 . S
H70 C93 0.948 . S
H71 C99 0.982 1_455 S
H72 C100 0.979 . S
H73 C100 0.980 . S
H74 C100 0.983 . S
H75 C99 0.979 . S
H76 C99 0.977 . S
C77 C65 1.453 . S
C77 H106 0.982 1_655 S
C77 H107 0.979 . S
C77 H108 0.977 . S
C78 C65 1.684 . S
C78 H103 0.979 . S
C78 H104 0.980 . S
C78 H105 0.983 . S
C79 C80 1.391 . S
C79 C84 1.391 . S
C79 H109 0.948 . S
C80 C79 1.391 . S
C80 C81 1.391 . S
C81 C80 1.391 . S
C81 C82 1.392 . S
C81 H110 0.947 . S
C82 C81 1.392 . S
C82 C83 1.419 . S
C82 H111 0.948 . S
C83 C82 1.419 . S
C83 C84 1.391 . S
C83 C87 1.397 . S
C84 C79 1.391 . S
C84 C83 1.391 . S
C84 C85 1.399 . S
C85 C84 1.399 . S
C85 C86 1.396 . S
C85 C88 1.453 . S
C85 C89 1.684 . S
C86 C67 1.723 . S
C86 C85 1.396 . S
C86 C87 1.394 . S
C87 C83 1.397 . S
C87 C86 1.394 . S
C87 C97 1.723 . S
C88 C85 1.453 . S
C88 H112 0.982 1_655 S
C88 H113 0.979 . S
C88 H114 0.977 . S
C89 C85 1.684 . S
C89 H115 0.979 . S
C89 H116 0.980 . S
C89 H117 0.983 . S
C90 H66 0.948 . S
C90 C91 1.391 . S
C90 C95 1.391 . S
C91 C90 1.391 . S
C91 C92 1.391 . S
C92 H69 0.947 . S
C92 C91 1.391 . S
C92 C93 1.392 . S
C93 H70 0.948 . S
C93 C92 1.392 . S
C93 C94 1.419 . S
C94 C93 1.419 . S
C94 C95 1.391 . S
C94 C98 1.397 . S
C95 C90 1.391 . S
C95 C94 1.391 . S
C95 C96 1.399 . S
C96 C95 1.399 . S
C96 C97 1.396 . S
C96 C99 1.453 . S
C96 C100 1.684 . S
C97 C87 1.723 . S
C97 C96 1.396 . S
C97 C98 1.394 . S
C98 C68 1.723 . S
C98 C94 1.397 . S
C98 C97 1.394 . S
C99 H71 0.982 1_655 S
C99 H75 0.979 . S
C99 H76 0.977 . S
C99 C96 1.453 . S
C100 H72 0.979 . S
C100 H73 0.980 . S
C100 H74 0.983 . S
C100 C96 1.684 . S
H101 C119 0.948 . S
H102 C60 0.948 . S
H103 C78 0.979 . S
H104 C78 0.980 . S
H105 C78 0.983 . S
H106 C77 0.982 1_455 S
H107 C77 0.979 . S
H108 C77 0.977 . S
H109 C79 0.948 . S
H110 C81 0.947 . S
H111 C82 0.948 . S
H112 C88 0.982 1_455 S
H113 C88 0.979 . S
H114 C88 0.977 . S
H115 C89 0.979 . S
H116 C89 0.980 . S
H117 C89 0.983 . S
H118 C62 0.947 . S
C119 C62 1.392 . S
C119 C63 1.419 . S
C119 H101 0.948 . S
C120 C121 1.391 . S
C120 C124 1.391 . S
C120 H162 0.948 . S
C121 C120 1.391 . S
C121 C122 1.391 . S
C122 C121 1.391 . S
C122 H178 0.947 . S
C122 C179 1.392 . S
C123 C124 1.391 . S
C123 C127 1.397 . S
C123 C179 1.419 . S
C124 C120 1.391 . S
C124 C123 1.391 . S
C124 C125 1.399 . S
C125 C124 1.399 . S
C125 C128 1.396 . S
C125 C137 1.453 . S
C125 C138 1.684 . S
H126 C150 0.948 . S
C127 C123 1.397 . S
C127 C128 1.394 . S
C127 C146 1.723 . S
C128 C125 1.396 . S
C128 C127 1.394 . S
C128 C158 1.723 . S
H129 C152 0.947 . S
H130 C153 0.948 . S
H131 C159 0.982 1_545 S
H132 C160 0.979 . S
H133 C160 0.980 . S
H134 C160 0.983 . S
H135 C159 0.979 . S
H136 C159 0.977 . S
C137 C125 1.453 . S
C137 H166 0.982 1_565 S
C137 H167 0.979 . S
C137 H168 0.977 . S
C138 C125 1.684 . S
C138 H163 0.979 . S
C138 H164 0.980 . S
C138 H165 0.983 . S
C139 C140 1.391 . S
C139 C144 1.391 . S
C139 H169 0.948 . S
C140 C139 1.391 . S
C140 C141 1.391 . S
C141 C140 1.391 . S
C141 C142 1.392 . S
C141 H170 0.947 . S
C142 C141 1.392 . S
C142 C143 1.419 . S
C142 H171 0.948 . S
C143 C142 1.419 . S
C143 C144 1.391 . S
C143 C147 1.397 . S
C144 C139 1.391 . S
C144 C143 1.391 . S
C144 C145 1.399 . S
C145 C144 1.399 . S
C145 C146 1.396 . S
C145 C148 1.453 . S
C145 C149 1.684 . S
C146 C127 1.723 . S
C146 C145 1.396 . S
C146 C147 1.394 . S
C147 C143 1.397 . S
C147 C146 1.394 . S
C147 C157 1.723 . S
C148 C145 1.453 . S
C148 H172 0.982 1_565 S
C148 H173 0.979 . S
C148 H174 0.977 . S
C149 C145 1.684 . S
C149 H175 0.979 . S
C149 H176 0.980 . S
C149 H177 0.983 . S
C150 H126 0.948 . S
C150 C151 1.391 . S
C150 C155 1.391 . S
C151 C150 1.391 . S
C151 C152 1.391 . S
C152 H129 0.947 . S
C152 C151 1.391 . S
C152 C153 1.392 . S
C153 H130 0.948 . S
C153 C152 1.392 . S
C153 C154 1.419 . S
C154 C153 1.419 . S
C154 C155 1.391 . S
C154 C158 1.397 . S
C155 C150 1.391 . S
C155 C154 1.391 . S
C155 C156 1.399 . S
C156 C155 1.399 . S
C156 C157 1.396 . S
C156 C159 1.453 . S
C156 C160 1.684 . S
C157 C147 1.723 . S
C157 C156 1.396 . S
C157 C158 1.394 . S
C158 C128 1.723 . S
C158 C154 1.397 . S
C158 C157 1.394 . S
C159 H131 0.982 1_565 S
C159 H135 0.979 . S
C159 H136 0.977 . S
C159 C156 1.453 . S
C160 H132 0.979 . S
C160 H133 0.980 . S
C160 H134 0.983 . S
C160 C156 1.684 . S
H161 C179 0.948 . S
H162 C120 0.948 . S
H163 C138 0.979 . S
H164 C138 0.980 . S
H165 C138 0.983 . S
H166 C137 0.982 1_545 S
H167 C137 0.979 . S
H168 C137 0.977 . S
H169 C139 0.948 . S
H170 C141 0.947 . S
H171 C142 0.948 . S
H172 C148 0.982 1_545 S
H173 C148 0.979 . S
H174 C148 0.977 . S
H175 C149 0.979 . S
H176 C149 0.980 . S
H177 C149 0.983 . S
H178 C122 0.947 . S
C179 C122 1.392 . S
C179 C123 1.419 . S
C179 H161 0.948 . S
C180 C181 1.391 . S
C180 C184 1.391 . S
C180 H222 0.948 . S
C181 C180 1.391 . S
C181 C182 1.391 . S
C182 C181 1.391 . S
C182 H238 0.947 . S
C182 C239 1.392 . S
C183 C184 1.391 . S
C183 C187 1.397 . S
C183 C239 1.419 . S
C184 C180 1.391 . S
C184 C183 1.391 . S
C184 C185 1.399 . S
C185 C184 1.399 . S
C185 C188 1.396 . S
C185 C197 1.453 . S
C185 C198 1.684 . S
H186 C210 0.948 . S
C187 C183 1.397 . S
C187 C188 1.394 . S
C187 C206 1.723 . S
C188 C185 1.396 . S
C188 C187 1.394 . S
C188 C218 1.723 . S
H189 C212 0.947 . S
H190 C213 0.948 . S
H191 C219 0.982 . S
H192 C220 0.979 . S
H193 C220 0.980 . S
H194 C220 0.983 . S
H195 C219 0.979 . S
H196 C219 0.977 . S
C197 C185 1.453 . S
C197 H226 0.982 . S
C197 H227 0.979 . S
C197 H228 0.977 . S
C198 C185 1.684 . S
C198 H223 0.979 . S
C198 H224 0.980 . S
C198 H225 0.983 . S
C199 C200 1.391 . S
C199 C204 1.391 . S
C199 H229 0.948 . S
C200 C199 1.391 . S
C200 C201 1.391 . S
C201 C200 1.391 . S
C201 C202 1.392 . S
C201 H230 0.947 1_554 S
C202 C201 1.392 . S
C202 C203 1.419 . S
C202 H231 0.948 . S
C203 C202 1.419 . S
C203 C204 1.391 . S
C203 C207 1.397 . S
C204 C199 1.391 . S
C204 C203 1.391 . S
C204 C205 1.399 . S
C205 C204 1.399 . S
C205 C206 1.396 . S
C205 C208 1.453 . S
C205 C209 1.684 . S
C206 C187 1.723 . S
C206 C205 1.396 . S
C206 C207 1.394 . S
C207 C203 1.397 . S
C207 C206 1.394 . S
C207 C217 1.723 . S
C208 C205 1.453 . S
C208 H232 0.982 . S
C208 H233 0.979 . S
C208 H234 0.977 . S
C209 C205 1.684 . S
C209 H235 0.979 . S
C209 H236 0.980 . S
C209 H237 0.983 . S
C210 H186 0.948 . S
C210 C211 1.391 . S
C210 C215 1.391 . S
C211 C210 1.391 . S
C211 C212 1.391 . S
C212 H189 0.947 . S
C212 C211 1.391 . S
C212 C213 1.392 . S
C213 H190 0.948 . S
C213 C212 1.392 . S
C213 C214 1.419 . S
C214 C213 1.419 . S
C214 C215 1.391 . S
C214 C218 1.397 . S
C215 C210 1.391 . S
C215 C214 1.391 . S
C215 C216 1.399 . S
C216 C215 1.399 . S
C216 C217 1.396 . S
C216 C219 1.453 . S
C216 C220 1.684 . S
C217 C207 1.723 . S
C217 C216 1.396 . S
C217 C218 1.394 . S
C218 C188 1.723 . S
C218 C214 1.397 . S
C218 C217 1.394 . S
C219 H191 0.982 . S
C219 H195 0.979 . S
C219 H196 0.977 . S
C219 C216 1.453 . S
C220 H192 0.979 . S
C220 H193 0.980 . S
C220 H194 0.983 . S
C220 C216 1.684 . S
H221 C239 0.948 . S
H222 C180 0.948 . S
H223 C198 0.979 . S
H224 C198 0.980 . S
H225 C198 0.983 . S
H226 C197 0.982 . S
H227 C197 0.979 . S
H228 C197 0.977 . S
H229 C199 0.948 . S
H230 C201 0.947 1_556 S
H231 C202 0.948 . S
H232 C208 0.982 . S
H233 C208 0.979 . S
H234 C208 0.977 . S
H235 C209 0.979 . S
H236 C209 0.980 . S
H237 C209 0.983 . S
H238 C182 0.947 . S
C239 C182 1.392 . S
C239 C183 1.419 . S
C239 H221 0.948 . S
C240 C241 1.391 . S
C240 C244 1.391 . S
C240 H282 0.948 . S
C241 C240 1.391 . S
C241 C242 1.391 . S
C242 C241 1.391 . S
C242 H298 0.947 . S
C242 C299 1.392 . S
C243 C244 1.391 . S
C243 C247 1.397 . S
C243 C299 1.419 . S
C244 C240 1.391 . S
C244 C243 1.391 . S
C244 C245 1.399 1_554 S
C245 C244 1.399 1_556 S
C245 C248 1.397 . S
C245 C257 1.453 . S
C245 C258 1.684 . S
H246 C270 0.948 . S
C247 C243 1.397 . S
C247 C248 1.392 1_554 S
C247 C266 1.723 . S
C248 C245 1.397 . S
C248 C247 1.392 1_556 S
C248 C278 1.724 . S
H249 C272 0.947 . S
H250 C273 0.948 . S
H251 C279 0.982 . S
H252 C280 0.979 . S
H253 C280 0.980 1_554 S
H254 C280 0.983 . S
H255 C279 0.979 . S
H256 C279 0.977 1_554 S
C257 C245 1.453 . S
C257 H286 0.982 . S
C257 H287 0.979 . S
C257 H288 0.977 . S
C258 C245 1.684 . S
C258 H283 0.979 . S
C258 H284 0.980 . S
C258 H285 0.983 . S
C259 C260 1.391 . S
C259 C264 1.391 . S
C259 H289 0.948 . S
C260 C259 1.391 . S
C260 C261 1.391 . S
C261 C260 1.391 . S
C261 C262 1.392 . S
C261 H290 0.947 . S
C262 C261 1.392 . S
C262 C263 1.419 . S
C262 H291 0.948 . S
C263 C262 1.419 . S
C263 C264 1.391 . S
C263 C267 1.397 . S
C264 C259 1.391 . S
C264 C263 1.391 . S
C264 C265 1.399 . S
C265 C264 1.399 . S
C265 C266 1.396 . S
C265 C268 1.453 . S
C265 C269 1.684 . S
C266 C247 1.723 . S
C266 C265 1.396 . S
C266 C267 1.394 . S
C267 C263 1.397 . S
C267 C266 1.394 . S
C267 C277 1.723 1_554 S
C268 C265 1.453 . S
C268 H292 0.982 . S
C268 H293 0.979 . S
C268 H294 0.977 . S
C269 C265 1.684 . S
C269 H295 0.979 . S
C269 H296 0.980 . S
C269 H297 0.983 . S
C270 H246 0.948 . S
C270 C271 1.391 . S
C270 C275 1.391 . S
C271 C270 1.391 . S
C271 C272 1.391 . S
C272 H249 0.947 . S
C272 C271 1.391 . S
C272 C273 1.392 . S
C273 H250 0.948 . S
C273 C272 1.392 . S
C273 C274 1.419 . S
C274 C273 1.419 . S
C274 C275 1.391 . S
C274 C278 1.397 . S
C275 C270 1.391 . S
C275 C274 1.391 . S
C275 C276 1.399 . S
C276 C275 1.399 . S
C276 C277 1.396 . S
C276 C279 1.453 . S
C276 C280 1.684 . S
C277 C267 1.723 1_556 S
C277 C276 1.396 . S
C277 C278 1.394 . S
C278 C248 1.724 . S
C278 C274 1.397 . S
C278 C277 1.394 . S
C279 H251 0.982 . S
C279 H255 0.979 . S
C279 H256 0.977 1_556 S
C279 C276 1.453 . S
C280 H252 0.979 . S
C280 H253 0.980 1_556 S
C280 H254 0.983 . S
C280 C276 1.684 . S
H281 C299 0.948 . S
H282 C240 0.948 . S
H283 C258 0.979 . S
H284 C258 0.980 . S
H285 C258 0.983 . S
H286 C257 0.982 . S
H287 C257 0.979 . S
H288 C257 0.977 . S
H289 C259 0.948 . S
H290 C261 0.947 . S
H291 C262 0.948 . S
H292 C268 0.982 . S
H293 C268 0.979 . S
H294 C268 0.977 . S
H295 C269 0.979 . S
H296 C269 0.980 . S
H297 C269 0.983 . S
H298 C242 0.947 . S
C299 C242 1.392 . S
C299 C243 1.419 . S
C299 H281 0.948 . S
C300 C301 1.391 . S
C300 C304 1.391 . S
C300 H342 0.948 . S
C301 C300 1.391 . S
C301 C302 1.391 . S
C302 C301 1.391 . S
C302 H358 0.947 . S
C302 C359 1.392 . S
C303 C304 1.391 . S
C303 C307 1.397 . S
C303 C359 1.419 . S
C304 C300 1.391 . S
C304 C303 1.391 . S
C304 C305 1.399 . S
C305 C304 1.399 . S
C305 C308 1.396 . S
C305 C317 1.453 . S
C305 C318 1.684 . S
H306 C330 0.948 . S
C307 C303 1.397 . S
C307 C308 1.394 . S
C307 C326 1.722 . S
C308 C305 1.396 . S
C308 C307 1.394 . S
C308 C338 1.723 . S
H309 C332 0.947 . S
H310 C333 0.948 . S
H311 C339 0.982 . S
H312 C340 0.976 . S
H313 C340 0.980 . S
H314 C340 0.983 . S
H315 C339 0.979 . S
H316 C339 0.977 . S
C317 C305 1.453 . S
C317 H346 0.982 . S
C317 H347 0.979 . S
C317 H348 0.977 . S
C318 C305 1.684 . S
C318 H343 0.976 . S
C318 H344 0.980 . S
C318 H345 0.983 . S
C319 C320 1.391 . S
C319 C324 1.391 . S
C319 H349 0.948 . S
C320 C319 1.391 . S
C320 C321 1.391 . S
C321 C320 1.391 . S
C321 C322 1.392 . S
C321 H350 0.947 . S
C322 C321 1.392 . S
C322 C323 1.419 . S
C322 H351 0.948 . S
C323 C322 1.419 . S
C323 C324 1.391 . S
C323 C327 1.397 . S
C324 C319 1.391 . S
C324 C323 1.391 . S
C324 C325 1.399 . S
C325 C324 1.399 . S
C325 C326 1.397 1_556 S
C325 C328 1.453 . S
C325 C329 1.684 . S
C326 C307 1.722 . S
C326 C325 1.397 1_554 S
C326 C327 1.394 1_554 S
C327 C323 1.397 . S
C327 C326 1.394 1_556 S
C327 C337 1.723 1_556 S
C328 C325 1.453 . S
C328 H352 0.982 . S
C328 H353 0.979 . S
C328 H354 0.977 1_556 S
C329 C325 1.684 . S
C329 H355 0.976 . S
C329 H356 0.980 1_556 S
C329 H357 0.983 . S
C330 H306 0.948 . S
C330 C331 1.391 . S
C330 C335 1.391 . S
C331 C330 1.391 . S
C331 C332 1.391 . S
C332 H309 0.947 . S
C332 C331 1.391 . S
C332 C333 1.392 . S
C333 H310 0.948 . S
C333 C332 1.392 . S
C333 C334 1.419 . S
C334 C333 1.419 . S
C334 C335 1.391 . S
C334 C338 1.397 . S
C335 C330 1.391 . S
C335 C334 1.391 . S
C335 C336 1.399 1_554 S
C336 C335 1.399 1_556 S
C336 C337 1.396 1_556 S
C336 C339 1.453 . S
C336 C340 1.684 . S
C337 C327 1.723 1_554 S
C337 C336 1.396 1_554 S
C337 C338 1.394 . S
C338 C308 1.723 . S
C338 C334 1.397 . S
C338 C337 1.394 . S
C339 H311 0.982 . S
C339 H315 0.979 . S
C339 H316 0.977 . S
C339 C336 1.453 . S
C340 H312 0.976 . S
C340 H313 0.980 . S
C340 H314 0.983 . S
C340 C336 1.684 . S
H341 C359 0.948 . S
H342 C300 0.948 . S
H343 C318 0.976 . S
H344 C318 0.980 . S
H345 C318 0.983 . S
H346 C317 0.982 . S
H347 C317 0.979 . S
H348 C317 0.977 . S
H349 C319 0.948 . S
H350 C321 0.947 . S
H351 C322 0.948 . S
H352 C328 0.982 . S
H353 C328 0.979 . S
H354 C328 0.977 1_554 S
H355 C329 0.976 . S
H356 C329 0.980 1_554 S
H357 C329 0.983 . S
H358 C302 0.947 . S
C359 C302 1.392 . S
C359 C303 1.419 . S
C359 H341 0.948 . S
C360 C361 1.391 . S
C360 C364 1.391 . S
C360 H402 0.948 . S
C361 C360 1.391 . S
C361 C362 1.391 . S
C362 C361 1.391 . S
C362 H418 0.947 . S
C362 C419 1.392 . S
C363 C364 1.391 . S
C363 C367 1.397 . S
C363 C419 1.419 . S
C364 C360 1.391 . S
C364 C363 1.391 . S
C364 C365 1.399 . S
C365 C364 1.399 . S
C365 C368 1.396 . S
C365 C377 1.453 . S
C365 C378 1.684 . S
H366 C390 0.948 . S
C367 C363 1.397 . S
C367 C368 1.394 . S
C367 C386 1.723 1_556 S
C368 C365 1.396 . S
C368 C367 1.394 . S
C368 C398 1.723 1_556 S
H369 C392 0.947 1_556 S
H370 C393 0.948 1_556 S
H371 C399 0.982 . S
H372 C400 0.979 . S
H373 C400 0.980 . S
H374 C400 0.983 . S
H375 C399 0.979 . S
H376 C399 0.977 . S
C377 C365 1.453 . S
C377 H406 0.982 . S
C377 H407 0.979 . S
C377 H408 0.977 . S
C378 C365 1.684 . S
C378 H403 0.979 . S
C378 H404 0.980 . S
C378 H405 0.983 . S
C379 C380 1.391 . S
C379 C384 1.391 . S
C379 H409 0.948 . S
C380 C379 1.391 . S
C380 C381 1.391 . S
C381 C380 1.391 . S
C381 C382 1.392 . S
C381 H410 0.947 . S
C382 C381 1.392 . S
C382 C383 1.419 . S
C382 H411 0.948 . S
C383 C382 1.419 . S
C383 C384 1.391 . S
C383 C387 1.397 . S
C384 C379 1.391 . S
C384 C383 1.391 . S
C384 C385 1.399 . S
C385 C384 1.399 . S
C385 C386 1.396 . S
C385 C388 1.453 . S
C385 C389 1.684 . S
C386 C367 1.723 1_554 S
C386 C385 1.396 . S
C386 C387 1.394 . S
C387 C383 1.397 . S
C387 C386 1.394 . S
C387 C397 1.723 . S
C388 C385 1.453 . S
C388 H412 0.982 . S
C388 H413 0.979 . S
C388 H414 0.977 1_554 S
C389 C385 1.684 . S
C389 H415 0.979 . S
C389 H416 0.980 1_554 S
C389 H417 0.983 . S
C390 H366 0.948 . S
C390 C391 1.391 . S
C390 C395 1.391 . S
C391 C390 1.391 . S
C391 C392 1.391 . S
C392 H369 0.947 1_554 S
C392 C391 1.391 . S
C392 C393 1.392 . S
C393 H370 0.948 1_554 S
C393 C392 1.392 . S
C393 C394 1.419 . S
C394 C393 1.419 . S
C394 C395 1.391 . S
C394 C398 1.397 . S
C395 C390 1.391 . S
C395 C394 1.391 . S
C395 C396 1.399 . S
C396 C395 1.399 . S
C396 C397 1.396 . S
C396 C399 1.453 . S
C396 C400 1.684 . S
C397 C387 1.723 . S
C397 C396 1.396 . S
C397 C398 1.394 . S
C398 C368 1.723 1_554 S
C398 C394 1.397 . S
C398 C397 1.394 . S
C399 H371 0.982 . S
C399 H375 0.979 . S
C399 H376 0.977 . S
C399 C396 1.453 . S
C400 H372 0.979 . S
C400 H373 0.980 . S
C400 H374 0.983 . S
C400 C396 1.684 . S
H401 C419 0.948 . S
H402 C360 0.948 . S
H403 C378 0.979 . S
H404 C378 0.980 . S
H405 C378 0.983 . S
H406 C377 0.982 . S
H407 C377 0.979 . S
H408 C377 0.977 . S
H409 C379 0.948 . S
H410 C381 0.947 . S
H411 C382 0.948 . S
H412 C388 0.982 . S
H413 C388 0.979 . S
H414 C388 0.977 1_556 S
H415 C389 0.979 . S
H416 C389 0.980 1_556 S
H417 C389 0.983 . S
H418 C362 0.947 . S
C419 C362 1.392 . S
C419 C363 1.419 . S
C419 H401 0.948 . S
C420 C421 1.391 . S
C420 C424 1.391 . S
C420 H462 0.948 . S
C421 C420 1.391 . S
C421 C422 1.391 . S
C422 C421 1.391 . S
C422 H478 0.947 . S
C422 C479 1.392 . S
C423 C424 1.391 . S
C423 C427 1.397 . S
C423 C479 1.419 . S
C424 C420 1.391 . S
C424 C423 1.391 . S
C424 C425 1.399 . S
C425 C424 1.399 . S
C425 C428 1.396 . S
C425 C437 1.453 . S
C425 C438 1.684 . S
H426 C450 0.948 . S
C427 C423 1.397 . S
C427 C428 1.394 . S
C427 C446 1.723 1_556 S
C428 C425 1.396 . S
C428 C427 1.394 . S
C428 C458 1.723 1_556 S
H429 C452 0.947 1_556 S
H430 C453 0.948 1_556 S
H431 C459 0.982 . S
H432 C460 0.979 . S
H433 C460 0.980 . S
H434 C460 0.983 . S
H435 C459 0.979 . S
H436 C459 0.977 . S
C437 C425 1.453 . S
C437 H466 0.982 . S
C437 H467 0.979 . S
C437 H468 0.977 . S
C438 C425 1.684 . S
C438 H463 0.979 . S
C438 H464 0.980 . S
C438 H465 0.983 . S
C439 C440 1.391 . S
C439 C444 1.391 . S
C439 H469 0.948 . S
C440 C439 1.391 . S
C440 C441 1.391 . S
C441 C440 1.391 . S
C441 C442 1.392 . S
C441 H470 0.947 . S
C442 C441 1.392 . S
C442 C443 1.419 . S
C442 H471 0.948 . S
C443 C442 1.419 . S
C443 C444 1.391 . S
C443 C447 1.397 . S
C444 C439 1.391 . S
C444 C443 1.391 . S
C444 C445 1.399 . S
C445 C444 1.399 . S
C445 C446 1.396 . S
C445 C448 1.453 . S
C445 C449 1.684 . S
C446 C427 1.723 1_554 S
C446 C445 1.396 . S
C446 C447 1.394 . S
C447 C443 1.397 . S
C447 C446 1.394 . S
C447 C457 1.723 . S
C448 C445 1.453 . S
C448 H472 0.982 . S
C448 H473 0.979 . S
C448 H474 0.977 1_554 S
C449 C445 1.684 . S
C449 H475 0.979 . S
C449 H476 0.980 1_554 S
C449 H477 0.983 . S
C450 H426 0.948 . S
C450 C451 1.391 . S
C450 C455 1.391 . S
C451 C450 1.391 . S
C451 C452 1.391 . S
C452 H429 0.947 1_554 S
C452 C451 1.391 . S
C452 C453 1.392 . S
C453 H430 0.948 1_554 S
C453 C452 1.392 . S
C453 C454 1.419 . S
C454 C453 1.419 . S
C454 C455 1.391 . S
C454 C458 1.397 . S
C455 C450 1.391 . S
C455 C454 1.391 . S
C455 C456 1.399 . S
C456 C455 1.399 . S
C456 C457 1.396 . S
C456 C459 1.453 . S
C456 C460 1.684 . S
C457 C447 1.723 . S
C457 C456 1.396 . S
C457 C458 1.394 . S
C458 C428 1.723 1_554 S
C458 C454 1.397 . S
C458 C457 1.394 . S
C459 H431 0.982 . S
C459 H435 0.979 . S
C459 H436 0.977 . S
C459 C456 1.453 . S
C460 H432 0.979 . S
C460 H433 0.980 . S
C460 H434 0.983 . S
C460 C456 1.684 . S
H461 C479 0.948 . S
H462 C420 0.948 . S
H463 C438 0.979 . S
H464 C438 0.980 . S
H465 C438 0.983 . S
H466 C437 0.982 . S
H467 C437 0.979 . S
H468 C437 0.977 . S
H469 C439 0.948 . S
H470 C441 0.947 . S
H471 C442 0.948 . S
H472 C448 0.982 . S
H473 C448 0.979 . S
H474 C448 0.977 1_556 S
H475 C449 0.979 . S
H476 C449 0.980 1_556 S
H477 C449 0.983 . S
H478 C422 0.947 . S
C479 C422 1.392 . S
C479 C423 1.419 . S
C479 H461 0.948 . S
Eu480 N509 2.600 . S
Eu480 N515 2.562 . S
Eu480 O524 2.462 . S
Eu480 O525 2.373 1_545 S
Eu480 O527 2.432 . S
Eu480 O528 2.291 1_655 S
Eu480 O532 2.335 1_655 S
Eu480 O535 2.372 . S
Eu480 C544 2.787 . S
C481 N482 1.368 . S
C481 C484 1.405 . S
C481 C488 1.448 . S
N482 C481 1.368 . S
N482 C485 1.318 1_545 S
N482 Eu491 2.598 1_545 S
C483 C485 1.397 1_545 S
C483 C486 1.367 . S
C483 H503 0.931 . S
C484 C481 1.405 . S
C484 C486 1.403 . S
C484 C490 1.439 . S
C485 N482 1.318 1_565 S
C485 C483 1.397 1_565 S
C485 H496 0.930 . S
C486 C483 1.367 . S
C486 C484 1.403 . S
C486 H507 0.929 . S
C487 C488 1.430 . S
C487 C489 1.387 . S
C487 C493 1.404 . S
C488 C481 1.448 . S
C488 C487 1.430 . S
C488 N492 1.351 . S
C489 C487 1.387 . S
C489 C490 1.374 . S
C489 H504 0.931 . S
C490 C484 1.439 . S
C490 C489 1.374 . S
C490 H505 0.931 . S
Eu491 N482 2.598 1_565 S
Eu491 N492 2.562 1_565 S
Eu491 O526 2.335 . S
Eu491 O529 2.372 . S
Eu491 O530 2.462 . S
Eu491 O531 2.373 1_565 S
Eu491 O533 2.432 . S
Eu491 O534 2.282 1_465 S
Eu491 C555 2.787 . S
N492 C488 1.351 . S
N492 Eu491 2.562 1_545 S
N492 C494 1.325 . S
C493 C487 1.404 . S
C493 C495 1.366 . S
C493 H501 0.930 1_556 S
C494 N492 1.325 . S
C494 C495 1.416 . S
C494 H500 0.963 . S
C495 C493 1.366 . S
C495 C494 1.416 . S
C495 H497 0.930 . S
H496 C485 0.930 . S
H497 C495 0.930 . S
H498 C513 0.930 . S
H499 C520 0.930 1_455 S
H500 C494 0.963 . S
H501 C493 0.930 1_554 S
H502 C516 0.929 1_455 S
H503 C483 0.931 . S
H504 C489 0.931 . S
H505 C490 0.931 . S
H506 C511 0.931 . S
H507 C486 0.929 . S
H508 C519 0.930 . S
N509 Eu480 2.600 . S
N509 C510 1.365 . S
N509 C513 1.319 . S
C510 N509 1.365 . S
C510 C512 1.405 1_545 S
C510 C518 1.447 1_545 S
C511 H506 0.931 . S
C511 C513 1.397 . S
C511 C514 1.367 1_545 S
C512 C510 1.405 1_565 S
C512 C514 1.403 . S
C512 C545 1.439 . S
C513 H498 0.930 . S
C513 N509 1.319 . S
C513 C511 1.397 . S
C514 C511 1.367 1_565 S
C514 C512 1.403 . S
C514 H521 0.929 . S
N515 Eu480 2.562 . S
N515 C516 1.325 . S
N515 C518 1.348 1_545 S
C516 H502 0.929 1_655 S
C516 N515 1.325 . S
C516 C520 1.416 1_545 S
C517 C518 1.434 . S
C517 C519 1.404 . S
C517 C546 1.387 . S
C518 C510 1.447 1_565 S
C518 N515 1.348 1_565 S
C518 C517 1.434 . S
C519 H508 0.930 . S
C519 C517 1.404 . S
C519 C520 1.366 . S
C520 H499 0.930 1_655 S
C520 C516 1.416 1_565 S
C520 C519 1.366 . S
H521 C514 0.929 . S
H522 C545 0.931 . S
H523 C546 0.931 . S
O524 Eu480 2.462 . S
O524 C544 1.252 . S
O525 Eu480 2.373 1_565 S
O525 C536 1.249 . S
O526 Eu491 2.335 . S
O526 C536 1.264 1_455 S
O527 Eu480 2.432 . S
O527 C544 1.268 . S
O528 Eu480 2.291 1_455 S
O528 C543 1.255 . S
O529 Eu491 2.372 . S
O529 C543 1.257 1_565 S
O530 Eu491 2.462 . S
O530 C555 1.252 . S
O531 Eu491 2.373 1_545 S
O531 C547 1.249 . S
O532 Eu480 2.335 1_455 S
O532 C547 1.264 . S
O533 Eu491 2.432 . S
O533 C555 1.268 . S
O534 Eu491 2.282 1_645 S
O534 C554 1.263 . S
O535 Eu480 2.372 . S
O535 C554 1.257 . S
C536 O525 1.249 . S
C536 O526 1.264 1_655 S
C537 C540 1.382 . S
C537 C542 1.390 . S
C537 C544 1.506 . S
C538 C539 1.398 . S
C538 C542 1.392 . S
C539 C538 1.398 . S
C539 C541 1.372 . S
C539 H556 0.931 . S
C540 C537 1.382 . S
C540 C541 1.390 . S
C540 H557 0.931 . S
C541 C539 1.372 . S
C541 C540 1.390 . S
C541 H558 0.929 . S
C542 C537 1.390 . S
C542 C538 1.392 . S
C542 H559 0.930 1_655 S
C543 O528 1.255 . S
C543 O529 1.257 1_545 S
C544 Eu480 2.787 . S
C544 O524 1.252 . S
C544 O527 1.268 . S
C544 C537 1.506 . S
C545 C512 1.439 . S
C545 H522 0.931 . S
C545 C546 1.374 . S
C546 C517 1.387 . S
C546 H523 0.931 . S
C546 C545 1.374 . S
C547 O531 1.249 . S
C547 O532 1.264 . S
C548 C551 1.382 . S
C548 C552 1.390 . S
C548 C555 1.506 . S
C549 C550 1.398 . S
C549 C552 1.392 . S
C550 C549 1.398 . S
C550 C553 1.372 . S
C550 H560 0.931 . S
C551 C548 1.382 . S
C551 C553 1.390 . S
C551 H561 0.931 . S
C552 C548 1.390 . S
C552 C549 1.392 . S
C552 H562 0.930 . S
C553 C550 1.372 . S
C553 C551 1.390 . S
C553 H563 0.929 . S
C554 O534 1.263 . S
C554 O535 1.257 . S
C555 Eu491 2.787 . S
C555 O530 1.252 . S
C555 O533 1.268 . S
C555 C548 1.506 . S
H556 C539 0.931 . S
H557 C540 0.931 . S
H558 C541 0.929 . S
H559 C542 0.930 1_455 S
H560 C550 0.931 . S
H561 C551 0.931 . S
H562 C552 0.930 . S
H563 C553 0.929 . S
Eu564 N593 2.600 . S
Eu564 N599 2.562 . S
Eu564 O608 2.462 . S
Eu564 O609 2.373 . S
Eu564 O611 2.432 . S
Eu564 O612 2.291 . S
Eu564 O616 2.335 1_545 S
Eu564 O619 2.372 . S
Eu564 C628 2.787 . S
C565 N566 1.365 . S
C565 C568 1.405 . S
C565 C572 1.448 . S
N566 C565 1.365 . S
N566 C569 1.319 . S
N566 Eu575 2.600 . S
C567 C569 1.397 . S
C567 C570 1.367 . S
C567 H587 0.931 . S
C568 C565 1.405 . S
C568 C570 1.403 . S
C568 C574 1.439 . S
C569 N566 1.319 . S
C569 C567 1.397 . S
C569 H580 0.930 . S
C570 C567 1.367 . S
C570 C568 1.403 . S
C570 H591 0.929 . S
C571 C572 1.430 . S
C571 C573 1.387 . S
C571 C577 1.404 . S
C572 C565 1.448 . S
C572 C571 1.430 . S
C572 N576 1.351 . S
C573 C571 1.387 . S
C573 C574 1.374 . S
C573 H588 0.931 . S
C574 C568 1.439 . S
C574 C573 1.374 . S
C574 H589 0.931 . S
Eu575 N566 2.600 . S
Eu575 N576 2.562 . S
Eu575 O610 2.335 1_565 S
Eu575 O613 2.372 . S
Eu575 O614 2.462 . S
Eu575 O615 2.373 . S
Eu575 O617 2.432 . S
Eu575 O618 2.291 1_565 S
Eu575 C639 2.787 . S
N576 C572 1.351 . S
N576 Eu575 2.562 . S
N576 C578 1.325 . S
C577 C571 1.404 . S
C577 C579 1.366 . S
C577 H585 0.930 . S
C578 N576 1.325 . S
C578 C579 1.416 . S
C578 H584 0.929 . S
C579 C577 1.366 . S
C579 C578 1.416 . S
C579 H581 0.930 . S
H580 C569 0.930 . S
H581 C579 0.930 . S
H582 C597 0.930 . S
H583 C604 0.930 . S
H584 C578 0.929 . S
H585 C577 0.930 . S
H586 C600 0.929 . S
H587 C567 0.931 . S
H588 C573 0.931 . S
H589 C574 0.931 . S
H590 C595 0.931 . S
H591 C570 0.929 . S
H592 C603 0.930 . S
N593 Eu564 2.600 . S
N593 C594 1.365 . S
N593 C597 1.319 . S
C594 N593 1.365 . S
C594 C596 1.405 . S
C594 C602 1.448 . S
C595 H590 0.931 . S
C595 C597 1.397 . S
C595 C598 1.367 . S
C596 C594 1.405 . S
C596 C598 1.403 . S
C596 C629 1.439 . S
C597 H582 0.930 . S
C597 N593 1.319 . S
C597 C595 1.397 . S
C598 C595 1.367 . S
C598 C596 1.403 . S
C598 H605 0.929 . S
N599 Eu564 2.562 . S
N599 C600 1.325 . S
N599 C602 1.351 . S
C600 H586 0.929 . S
C600 N599 1.325 . S
C600 C604 1.416 . S
C601 C602 1.430 . S
C601 C603 1.404 . S
C601 C630 1.387 . S
C602 C594 1.448 . S
C602 N599 1.351 . S
C602 C601 1.430 . S
C603 H592 0.930 . S
C603 C601 1.404 . S
C603 C604 1.366 . S
C604 H583 0.930 . S
C604 C600 1.416 . S
C604 C603 1.366 . S
H605 C598 0.929 . S
H606 C629 0.931 . S
H607 C630 0.931 . S
O608 Eu564 2.462 . S
O608 C628 1.252 . S
O609 Eu564 2.373 . S
O609 C620 1.249 . S
O610 Eu575 2.335 1_545 S
O610 C620 1.264 . S
O611 Eu564 2.432 . S
O611 C628 1.268 . S
O612 Eu564 2.291 . S
O612 C627 1.255 1_545 S
O613 Eu575 2.372 . S
O613 C627 1.257 . S
O614 Eu575 2.462 . S
O614 C639 1.252 . S
O615 Eu575 2.373 . S
O615 C631 1.249 . S
O616 Eu564 2.335 1_565 S
O616 C631 1.264 . S
O617 Eu575 2.432 . S
O617 C639 1.268 . S
O618 Eu575 2.291 1_545 S
O618 C638 1.255 . S
O619 Eu564 2.372 . S
O619 C638 1.257 . S
C620 O609 1.249 . S
C620 O610 1.264 . S
C621 C624 1.382 . S
C621 C626 1.390 . S
C621 C628 1.506 . S
C622 C623 1.398 . S
C622 C626 1.392 . S
C623 C622 1.398 . S
C623 C625 1.372 1_556 S
C623 H640 0.931 1_556 S
C624 C621 1.382 . S
C624 C625 1.390 1_556 S
C624 H641 0.931 . S
C625 C623 1.372 1_554 S
C625 C624 1.390 1_554 S
C625 H642 0.929 . S
C626 C621 1.390 . S
C626 C622 1.392 . S
C626 H643 0.930 . S
C627 O612 1.255 1_565 S
C627 O613 1.257 . S
C628 Eu564 2.787 . S
C628 O608 1.252 . S
C628 O611 1.268 . S
C628 C621 1.506 . S
C629 C596 1.439 . S
C629 H606 0.931 . S
C629 C630 1.374 . S
C630 C601 1.387 . S
C630 H607 0.931 . S
C630 C629 1.374 . S
C631 O615 1.249 . S
C631 O616 1.264 . S
C632 C635 1.382 . S
C632 C636 1.390 . S
C632 C639 1.506 . S
C633 C634 1.398 . S
C633 C636 1.392 . S
C634 C633 1.398 . S
C634 C637 1.372 . S
C634 H644 0.931 . S
C635 C632 1.382 . S
C635 C637 1.390 . S
C635 H645 0.931 . S
C636 C632 1.390 . S
C636 C633 1.392 . S
C636 H646 0.930 1_565 S
C637 C634 1.372 . S
C637 C635 1.390 . S
C637 H647 0.929 . S
C638 O618 1.255 . S
C638 O619 1.257 . S
C639 Eu575 2.787 . S
C639 O614 1.252 . S
C639 O617 1.268 . S
C639 C632 1.506 . S
H640 C623 0.931 1_554 S
H641 C624 0.931 . S
H642 C625 0.929 . S
H643 C626 0.930 . S
H644 C634 0.931 . S
H645 C635 0.931 . S
H646 C636 0.930 1_545 S
H647 C637 0.929 . S
Eu648 N677 2.600 . S
Eu648 N683 2.562 . S
Eu648 O692 2.462 . S
Eu648 O693 2.373 . S
Eu648 O695 2.432 . S
Eu648 O696 2.291 . S
Eu648 O700 2.335 . S
Eu648 O703 2.372 . S
Eu648 C712 2.787 . S
C649 N650 1.365 . S
C649 C652 1.405 . S
C649 C656 1.448 . S
N650 C649 1.365 . S
N650 C653 1.319 . S
N650 Eu659 2.600 . S
C651 C653 1.397 . S
C651 C654 1.367 . S
C651 H671 0.931 . S
C652 C649 1.405 . S
C652 C654 1.403 . S
C652 C658 1.439 . S
C653 N650 1.319 . S
C653 C651 1.397 . S
C653 H664 0.930 . S
C654 C651 1.367 . S
C654 C652 1.403 . S
C654 H675 0.929 . S
C655 C656 1.430 . S
C655 C657 1.387 . S
C655 C661 1.404 . S
C656 C649 1.448 . S
C656 C655 1.430 . S
C656 N660 1.351 . S
C657 C655 1.387 . S
C657 C658 1.374 . S
C657 H672 0.931 . S
C658 C652 1.439 . S
C658 C657 1.374 . S
C658 H673 0.931 . S
Eu659 N650 2.600 . S
Eu659 N660 2.562 . S
Eu659 O694 2.335 . S
Eu659 O697 2.372 . S
Eu659 O698 2.462 . S
Eu659 O699 2.373 . S
Eu659 O701 2.432 . S
Eu659 O702 2.291 . S
Eu659 C723 2.787 . S
N660 C656 1.351 . S
N660 Eu659 2.562 . S
N660 C662 1.325 . S
C661 C655 1.404 . S
C661 C663 1.366 . S
C661 H669 0.930 1_556 S
C662 N660 1.325 . S
C662 C663 1.416 . S
C662 H668 0.929 . S
C663 C661 1.366 . S
C663 C662 1.416 . S
C663 H665 0.930 . S
H664 C653 0.930 . S
H665 C663 0.930 . S
H666 C681 0.930 . S
H667 C688 0.930 . S
H668 C662 0.929 . S
H669 C661 0.930 1_554 S
H670 C684 0.929 . S
H671 C651 0.931 . S
H672 C657 0.931 . S
H673 C658 0.931 . S
H674 C679 0.931 . S
H675 C654 0.929 . S
H676 C687 0.930 . S
N677 Eu648 2.600 . S
N677 C678 1.365 . S
N677 C681 1.319 . S
C678 N677 1.365 . S
C678 C680 1.405 . S
C678 C686 1.448 . S
C679 H674 0.931 . S
C679 C681 1.397 . S
C679 C682 1.367 . S
C680 C678 1.405 . S
C680 C682 1.403 . S
C680 C713 1.439 . S
C681 H666 0.930 . S
C681 N677 1.319 . S
C681 C679 1.397 . S
C682 C679 1.367 . S
C682 C680 1.403 . S
C682 H689 0.929 . S
N683 Eu648 2.562 . S
N683 C684 1.325 . S
N683 C686 1.351 . S
C684 H670 0.929 . S
C684 N683 1.325 . S
C684 C688 1.416 . S
C685 C686 1.430 . S
C685 C687 1.404 . S
C685 C714 1.387 . S
C686 C678 1.448 . S
C686 N683 1.351 . S
C686 C685 1.430 . S
C687 H676 0.930 . S
C687 C685 1.404 . S
C687 C688 1.366 . S
C688 H667 0.930 . S
C688 C684 1.416 . S
C688 C687 1.366 . S
H689 C682 0.929 . S
H690 C713 0.931 . S
H691 C714 0.931 . S
O692 Eu648 2.462 . S
O692 C712 1.252 . S
O693 Eu648 2.373 . S
O693 C704 1.249 . S
O694 Eu659 2.335 . S
O694 C704 1.264 . S
O695 Eu648 2.432 . S
O695 C712 1.268 . S
O696 Eu648 2.291 . S
O696 C711 1.255 . S
O697 Eu659 2.372 . S
O697 C711 1.257 . S
O698 Eu659 2.462 . S
O698 C723 1.252 . S
O699 Eu659 2.373 . S
O699 C715 1.249 . S
O700 Eu648 2.335 . S
O700 C715 1.264 . S
O701 Eu659 2.432 . S
O701 C723 1.268 . S
O702 Eu659 2.291 . S
O702 C722 1.255 . S
O703 Eu648 2.372 . S
O703 C722 1.257 . S
C704 O693 1.249 . S
C704 O694 1.264 . S
C705 C708 1.382 . S
C705 C710 1.390 . S
C705 C712 1.506 . S
C706 C707 1.398 . S
C706 C710 1.392 . S
C707 C706 1.398 . S
C707 C709 1.372 . S
C707 H724 0.931 . S
C708 C705 1.382 . S
C708 C709 1.390 . S
C708 H725 0.931 . S
C709 C707 1.372 . S
C709 C708 1.390 . S
C709 H726 0.929 . S
C710 C705 1.390 . S
C710 C706 1.392 . S
C710 H727 0.930 . S
C711 O696 1.255 . S
C711 O697 1.257 . S
C712 Eu648 2.787 . S
C712 O692 1.252 . S
C712 O695 1.268 . S
C712 C705 1.506 . S
C713 C680 1.439 . S
C713 H690 0.931 . S
C713 C714 1.374 . S
C714 C685 1.387 . S
C714 H691 0.931 . S
C714 C713 1.374 . S
C715 O699 1.249 . S
C715 O700 1.264 . S
C716 C719 1.382 . S
C716 C720 1.390 . S
C716 C723 1.506 . S
C717 C718 1.398 . S
C717 C720 1.392 . S
C718 C717 1.398 . S
C718 C721 1.372 . S
C718 H728 0.931 . S
C719 C716 1.382 . S
C719 C721 1.390 . S
C719 H729 0.931 . S
C720 C716 1.390 . S
C720 C717 1.392 . S
C720 H730 0.930 . S
C721 C718 1.372 . S
C721 C719 1.390 . S
C721 H731 0.929 . S
C722 O702 1.255 . S
C722 O703 1.257 . S
C723 Eu659 2.787 . S
C723 O698 1.252 . S
C723 O701 1.268 . S
C723 C716 1.506 . S
H724 C707 0.931 . S
H725 C708 0.931 . S
H726 C709 0.929 . S
H727 C710 0.930 . S
H728 C718 0.931 . S
H729 C719 0.931 . S
H730 C720 0.930 . S
H731 C721 0.929 . S
Eu732 N761 2.600 . S
Eu732 N767 2.562 . S
Eu732 O776 2.462 . S
Eu732 O777 2.373 1_455 S
Eu732 O779 2.432 . S
Eu732 O780 2.291 . S
Eu732 O784 2.335 . S
Eu732 O787 2.372 . S
Eu732 C796 2.787 . S
C733 N734 1.365 1_455 S
C733 C736 1.405 . S
C733 C740 1.448 . S
N734 C733 1.365 1_655 S
N734 C737 1.319 . S
N734 Eu743 2.600 . S
C735 C737 1.397 1_455 S
C735 C738 1.367 . S
C735 H755 0.931 . S
C736 C733 1.405 . S
C736 C738 1.403 . S
C736 C742 1.439 . S
C737 N734 1.319 . S
C737 C735 1.397 1_655 S
C737 H748 0.930 . S
C738 C735 1.367 . S
C738 C736 1.403 . S
C738 H759 0.929 . S
C739 C740 1.430 . S
C739 C741 1.387 . S
C739 C745 1.404 . S
C740 C733 1.448 . S
C740 C739 1.430 . S
C740 N744 1.351 . S
C741 C739 1.387 . S
C741 C742 1.374 . S
C741 H756 0.931 . S
C742 C736 1.439 . S
C742 C741 1.374 . S
C742 H757 0.931 . S
Eu743 N734 2.600 . S
Eu743 N744 2.562 1_655 S
Eu743 O778 2.335 . S
Eu743 O781 2.372 . S
Eu743 O782 2.462 . S
Eu743 O783 2.373 1_655 S
Eu743 O785 2.432 . S
Eu743 O786 2.302 . S
Eu743 C807 2.787 . S
N744 C740 1.351 . S
N744 Eu743 2.562 1_455 S
N744 C746 1.325 . S
C745 C739 1.404 . S
C745 C747 1.366 . S
C745 H753 0.930 1_556 S
C746 N744 1.325 . S
C746 C747 1.416 . S
C746 H752 0.921 1_455 S
C747 C745 1.366 . S
C747 C746 1.416 . S
C747 H749 0.930 . S
H748 C737 0.930 . S
H749 C747 0.930 . S
H750 C765 0.930 . S
H751 C772 0.930 . S
H752 C746 0.921 1_655 S
H753 C745 0.930 1_554 S
H754 C768 0.929 . S
H755 C735 0.931 . S
H756 C741 0.931 . S
H757 C742 0.931 . S
H758 C763 0.931 . S
H759 C738 0.929 . S
H760 C771 0.930 . S
N761 Eu732 2.600 . S
N761 C762 1.365 . S
N761 C765 1.319 . S
C762 N761 1.365 . S
C762 C764 1.405 1_455 S
C762 C770 1.444 1_455 S
C763 H758 0.931 . S
C763 C765 1.397 . S
C763 C766 1.367 1_455 S
C764 C762 1.405 1_655 S
C764 C766 1.403 . S
C764 C797 1.439 . S
C765 H750 0.930 . S
C765 N761 1.319 . S
C765 C763 1.397 . S
C766 C763 1.367 1_655 S
C766 C764 1.403 . S
C766 H773 0.929 . S
N767 Eu732 2.562 . S
N767 C768 1.325 . S
N767 C770 1.336 1_455 S
C768 H754 0.929 . S
C768 N767 1.325 . S
C768 C772 1.416 1_455 S
C769 C770 1.451 . S
C769 C771 1.404 . S
C769 C798 1.387 . S
C770 C762 1.444 1_655 S
C770 N767 1.336 1_655 S
C770 C769 1.451 . S
C771 H760 0.930 . S
C771 C769 1.404 . S
C771 C772 1.366 . S
C772 H751 0.930 . S
C772 C768 1.416 1_655 S
C772 C771 1.366 . S
H773 C766 0.929 . S
H774 C797 0.931 . S
H775 C798 0.931 . S
O776 Eu732 2.462 . S
O776 C796 1.252 . S
O777 Eu732 2.373 1_655 S
O777 C788 1.249 . S
O778 Eu743 2.335 . S
O778 C788 1.264 . S
O779 Eu732 2.432 . S
O779 C796 1.268 . S
O780 Eu732 2.291 . S
O780 C795 1.255 . S
O781 Eu743 2.372 . S
O781 C795 1.257 1_655 S
O782 Eu743 2.462 . S
O782 C807 1.252 . S
O783 Eu743 2.373 1_455 S
O783 C799 1.249 . S
O784 Eu732 2.335 . S
O784 C799 1.264 . S
O785 Eu743 2.432 . S
O785 C807 1.268 . S
O786 Eu743 2.302 . S
O786 C806 1.248 1_655 S
O787 Eu732 2.372 . S
O787 C806 1.257 . S
C788 O777 1.249 . S
C788 O778 1.264 . S
C789 C792 1.382 . S
C789 C794 1.390 . S
C789 C796 1.506 . S
C790 C791 1.398 . S
C790 C794 1.392 . S
C791 C790 1.398 . S
C791 C793 1.372 . S
C791 H808 0.931 . S
C792 C789 1.382 . S
C792 C793 1.390 . S
C792 H809 0.931 . S
C793 C791 1.372 . S
C793 C792 1.390 . S
C793 H810 0.929 . S
C794 C789 1.390 . S
C794 C790 1.392 . S
C794 H811 0.930 . S
C795 O780 1.255 . S
C795 O781 1.257 1_455 S
C796 Eu732 2.787 . S
C796 O776 1.252 . S
C796 O779 1.268 . S
C796 C789 1.506 . S
C797 C764 1.439 . S
C797 H774 0.931 . S
C797 C798 1.374 . S
C798 C769 1.387 . S
C798 H775 0.931 . S
C798 C797 1.374 . S
C799 O783 1.249 . S
C799 O784 1.264 . S
C800 C803 1.382 . S
C800 C804 1.390 . S
C800 C807 1.506 . S
C801 C802 1.398 . S
C801 C804 1.392 . S
C802 C801 1.398 . S
C802 C805 1.372 . S
C802 H812 0.931 . S
C803 C800 1.382 . S
C803 C805 1.390 . S
C803 H813 0.931 . S
C804 C800 1.390 . S
C804 C801 1.392 . S
C804 H814 0.930 . S
C805 C802 1.372 . S
C805 C803 1.390 . S
C805 H815 0.929 . S
C806 O786 1.248 1_455 S
C806 O787 1.257 . S
C807 Eu743 2.787 . S
C807 O782 1.252 . S
C807 O785 1.268 . S
C807 C800 1.506 . S
H808 C791 0.931 . S
H809 C792 0.931 . S
H810 C793 0.929 . S
H811 C794 0.930 . S
H812 C802 0.931 . S
H813 C803 0.931 . S
H814 C804 0.930 . S
H815 C805 0.929 . S
H816 C822 0.930 . S
H817 C825 0.930 . S
H818 C826 0.930 . S
H819 C827 0.930 . S
H820 C830 0.930 . S
H821 C831 0.930 . S
C822 H816 0.930 . S
C822 C823 1.355 . S
C822 C824 1.415 . S
C823 C822 1.355 . S
C823 C825 1.419 . S
C824 C822 1.415 . S
C824 C829 1.425 . S
C824 C831 1.409 . S
C825 H817 0.930 . S
C825 C823 1.419 . S
C825 C826 1.362 . S
C826 H818 0.930 . S
C826 C825 1.362 . S
C826 C829 1.409 . S
C827 H819 0.930 . S
C827 C828 1.355 . S
C827 C829 1.415 . S
C828 C827 1.355 . S
C828 C830 1.419 . S
C829 C824 1.425 . S
C829 C826 1.409 . S
C829 C827 1.415 . S
C830 H820 0.930 . S
C830 C828 1.419 . S
C830 C831 1.362 . S
C831 H821 0.930 . S
C831 C824 1.409 . S
C831 C830 1.362 . S
H832 C838 0.930 . S
H833 C841 0.930 . S
H834 C842 0.930 . S
H835 C843 0.930 . S
H836 C846 0.930 . S
H837 C847 0.930 . S
C838 H832 0.930 . S
C838 C839 1.355 . S
C838 C840 1.415 . S
C839 C838 1.355 . S
C839 C841 1.419 . S
C840 C838 1.415 . S
C840 C845 1.425 . S
C840 C847 1.409 . S
C841 H833 0.930 . S
C841 C839 1.419 . S
C841 C842 1.362 . S
C842 H834 0.930 . S
C842 C841 1.362 . S
C842 C845 1.409 . S
C843 H835 0.930 . S
C843 C844 1.355 . S
C843 C845 1.415 . S
C844 C843 1.355 . S
C844 C846 1.419 . S
C845 C840 1.425 . S
C845 C842 1.409 . S
C845 C843 1.415 . S
C846 H836 0.930 . S
C846 C844 1.419 . S
C846 C847 1.362 . S
C847 H837 0.930 . S
C847 C840 1.409 . S
C847 C846 1.362 . S
H848 C854 0.930 . S
H849 C857 0.930 . S
H850 C858 0.930 . S
H851 C859 0.930 . S
H852 C862 0.930 . S
H853 C863 0.930 . S
C854 H848 0.930 . S
C854 C855 1.355 . S
C854 C856 1.415 . S
C855 C854 1.355 . S
C855 C857 1.419 . S
C856 C854 1.415 . S
C856 C861 1.425 . S
C856 C863 1.409 . S
C857 H849 0.930 . S
C857 C855 1.419 . S
C857 C858 1.362 . S
C858 H850 0.930 . S
C858 C857 1.362 . S
C858 C861 1.409 . S
C859 H851 0.930 . S
C859 C860 1.355 . S
C859 C861 1.415 . S
C860 C859 1.355 . S
C860 C862 1.419 . S
C861 C856 1.425 . S
C861 C858 1.409 . S
C861 C859 1.415 . S
C862 H852 0.930 . S
C862 C860 1.419 . S
C862 C863 1.362 . S
C863 H853 0.930 . S
C863 C856 1.409 . S
C863 C862 1.362 . S
H864 C870 0.930 . S
H865 C873 0.930 . S
H866 C874 0.930 . S
H867 C875 0.930 . S
H868 C878 0.935 . S
H869 C879 0.910 1_655 S
C870 H864 0.930 . S
C870 C871 1.355 . S
C870 C872 1.415 . S
C871 C870 1.355 . S
C871 C873 1.419 . S
C872 C870 1.415 . S
C872 C877 1.425 . S
C872 C879 1.430 . S
C873 H865 0.930 . S
C873 C871 1.419 . S
C873 C874 1.362 . S
C874 H866 0.930 . S
C874 C873 1.362 . S
C874 C877 1.409 . S
C875 H867 0.930 . S
C875 C876 1.355 . S
C875 C877 1.415 . S
C876 C875 1.355 . S
C876 C878 1.414 1_455 S
C877 C872 1.425 . S
C877 C874 1.409 . S
C877 C875 1.415 . S
C878 H868 0.935 . S
C878 C876 1.414 1_655 S
C878 C879 1.361 1_655 S
C879 H869 0.910 1_455 S
C879 C872 1.430 . S
C879 C878 1.361 1_455 S
H880 C886 0.930 . S
H881 C889 0.930 . S
H882 C890 0.930 . S
H883 C891 0.930 . S
H884 C894 0.930 . S
H885 C895 0.930 . S
C886 H880 0.930 . S
C886 C887 1.355 . S
C886 C888 1.415 1_554 S
C887 C886 1.355 . S
C887 C889 1.419 1_565 S
C888 C886 1.415 1_556 S
C888 C893 1.425 . S
C888 C895 1.409 . S
C889 H881 0.930 . S
C889 C887 1.419 1_545 S
C889 C890 1.362 . S
C890 H882 0.930 . S
C890 C889 1.362 . S
C890 C893 1.409 1_544 S
C891 H883 0.930 . S
C891 C892 1.355 1_545 S
C891 C893 1.415 1_545 S
C892 C891 1.355 1_565 S
C892 C894 1.419 . S
C893 C888 1.425 . S
C893 C890 1.409 1_566 S
C893 C891 1.415 1_565 S
C894 H884 0.930 . S
C894 C892 1.419 . S
C894 C895 1.362 . S
C895 H885 0.930 . S
C895 C888 1.409 . S
C895 C894 1.362 . S
H896 C902 0.930 . S
H897 C905 0.930 . S
H898 C906 0.930 . S
H899 C907 0.930 . S
H900 C910 0.930 . S
H901 C911 0.930 . S
C902 H896 0.930 . S
C902 C903 1.355 . S
C902 C904 1.415 1_554 S
C903 C902 1.355 . S
C903 C905 1.419 . S
C904 C902 1.415 1_556 S
C904 C909 1.425 . S
C904 C911 1.409 . S
C905 H897 0.930 . S
C905 C903 1.419 . S
C905 C906 1.362 . S
C906 H898 0.930 . S
C906 C905 1.362 . S
C906 C909 1.409 1_554 S
C907 H899 0.930 . S
C907 C908 1.355 . S
C907 C909 1.415 . S
C908 C907 1.355 . S
C908 C910 1.419 . S
C909 C904 1.425 . S
C909 C906 1.409 1_556 S
C909 C907 1.415 . S
C910 H900 0.930 . S
C910 C908 1.419 . S
C910 C911 1.362 . S
C911 H901 0.930 . S
C911 C904 1.409 . S
C911 C910 1.362 . S
H912 C918 0.930 . S
H913 C921 0.930 . S
H914 C922 0.930 . S
H915 C923 0.930 . S
H916 C926 0.930 . S
H917 C927 0.930 . S
C918 H912 0.930 . S
C918 C919 1.355 . S
C918 C920 1.415 1_554 S
C919 C918 1.355 . S
C919 C921 1.419 . S
C920 C918 1.415 1_556 S
C920 C925 1.425 . S
C920 C927 1.409 . S
C921 H913 0.930 . S
C921 C919 1.419 . S
C921 C922 1.362 . S
C922 H914 0.930 . S
C922 C921 1.362 . S
C922 C925 1.409 1_554 S
C923 H915 0.930 . S
C923 C924 1.355 . S
C923 C925 1.415 . S
C924 C923 1.355 . S
C924 C926 1.419 . S
C925 C920 1.425 . S
C925 C922 1.409 1_556 S
C925 C923 1.415 . S
C926 H916 0.930 . S
C926 C924 1.419 . S
C926 C927 1.362 . S
C927 H917 0.930 . S
C927 C920 1.409 . S
C927 C926 1.362 . S
H928 C934 0.930 . S
H929 C937 0.930 1_455 S
H930 C938 0.930 . S
H931 C939 0.908 1_455 S
H932 C942 0.930 . S
H933 C943 0.930 . S
C934 H928 0.930 . S
C934 C935 1.355 . S
C934 C936 1.415 1_554 S
C935 C934 1.355 . S
C935 C937 1.419 . S
C936 C934 1.415 1_556 S
C936 C941 1.425 . S
C936 C943 1.409 . S
C937 H929 0.930 1_655 S
C937 C935 1.419 . S
C937 C938 1.362 1_654 S
C938 H930 0.930 . S
C938 C937 1.362 1_456 S
C938 C941 1.409 1_455 S
C939 H931 0.908 1_655 S
C939 C940 1.368 . S
C939 C941 1.424 . S
C940 C939 1.368 . S
C940 C942 1.419 . S
C941 C936 1.425 . S
C941 C938 1.409 1_655 S
C941 C939 1.424 . S
C942 H932 0.930 . S
C942 C940 1.419 . S
C942 C943 1.362 . S
C943 H933 0.930 . S
C943 C936 1.409 . S
C943 C942 1.362 . S
H944 C950 0.930 . S
H945 C953 0.930 . S
H946 C954 0.930 . S
H947 C955 0.930 . S
H948 C958 0.930 . S
H949 C959 0.930 . S
C950 H944 0.930 . S
C950 C951 1.355 . S
C950 C952 1.415 . S
C951 C950 1.355 . S
C951 C953 1.419 . S
C952 C950 1.415 . S
C952 C957 1.425 . S
C952 C959 1.409 1_455 S
C953 H945 0.930 . S
C953 C951 1.419 . S
C953 C954 1.362 . S
C954 H946 0.930 . S
C954 C953 1.362 . S
C954 C957 1.409 . S
C955 H947 0.930 . S
C955 C956 1.355 1_455 S
C955 C957 1.415 . S
C956 C955 1.355 1_655 S
C956 C958 1.419 . S
C957 C952 1.425 . S
C957 C954 1.409 . S
C957 C955 1.415 . S
C958 H948 0.930 . S
C958 C956 1.419 . S
C958 C959 1.362 . S
C959 H949 0.930 . S
C959 C952 1.409 1_655 S
C959 C958 1.362 . S
H960 C966 0.930 . S
H961 C969 0.930 . S
H962 C970 0.930 . S
H963 C971 0.930 . S
H964 C974 0.930 . S
H965 C975 0.930 . S
C966 H960 0.930 . S
C966 C967 1.355 . S
C966 C968 1.415 . S
C967 C966 1.355 . S
C967 C969 1.419 . S
C968 C966 1.415 . S
C968 C973 1.425 . S
C968 C975 1.409 1_545 S
C969 H961 0.930 . S
C969 C967 1.419 . S
C969 C970 1.362 . S
C970 H962 0.930 . S
C970 C969 1.362 . S
C970 C973 1.409 . S
C971 H963 0.930 . S
C971 C972 1.355 1_545 S
C971 C973 1.415 . S
C972 C971 1.355 1_565 S
C972 C974 1.419 . S
C973 C968 1.425 . S
C973 C970 1.409 . S
C973 C971 1.415 . S
C974 H964 0.930 . S
C974 C972 1.419 . S
C974 C975 1.362 . S
C975 H965 0.930 . S
C975 C968 1.409 1_565 S
C975 C974 1.362 . S
H976 C982 0.930 . S
H977 C985 0.930 . S
H978 C986 0.930 . S
H979 C987 0.930 . S
H980 C990 0.930 . S
H981 C991 0.930 . S
C982 H976 0.930 . S
C982 C983 1.355 . S
C982 C984 1.415 . S
C983 C982 1.355 . S
C983 C985 1.419 . S
C984 C982 1.415 . S
C984 C989 1.425 . S
C984 C991 1.409 . S
C985 H977 0.930 . S
C985 C983 1.419 . S
C985 C986 1.362 . S
C986 H978 0.930 . S
C986 C985 1.362 . S
C986 C989 1.409 . S
C987 H979 0.930 . S
C987 C988 1.355 . S
C987 C989 1.415 . S
C988 C987 1.355 . S
C988 C990 1.419 . S
C989 C984 1.425 . S
C989 C986 1.409 . S
C989 C987 1.415 . S
C990 H980 0.930 . S
C990 C988 1.419 . S
C990 C991 1.362 . S
C991 H981 0.930 . S
C991 C984 1.409 . S
C991 C990 1.362 . S
H992 C998 0.930 . S
H993 C1001 0.930 . S
H994 C1002 0.930 . S
H995 C1003 0.930 . S
H996 C1006 0.930 . S
H997 C1007 0.930 . S
C998 H992 0.930 . S
C998 C999 1.355 . S
C998 C1000 1.415 . S
C999 C998 1.355 . S
C999 C1001 1.419 . S
C1000 C998 1.415 . S
C1000 C1005 1.425 . S
C1000 C1007 1.409 . S
C1001 H993 0.930 . S
C1001 C999 1.419 . S
C1001 C1002 1.362 . S
C1002 H994 0.930 . S
C1002 C1001 1.362 . S
C1002 C1005 1.409 . S
C1003 H995 0.930 . S
C1003 C1004 1.355 . S
C1003 C1005 1.415 . S
C1004 C1003 1.355 . S
C1004 C1006 1.419 . S
C1005 C1000 1.425 . S
C1005 C1002 1.409 . S
C1005 C1003 1.415 . S
C1006 H996 0.930 . S
C1006 C1004 1.419 . S
C1006 C1007 1.362 . S
C1007 H997 0.930 . S
C1007 C1000 1.409 . S
C1007 C1006 1.362 . S
H1008 C1014 0.930 . S
H1009 C1017 0.930 . S
H1010 C1018 0.930 . S
H1011 C1019 0.930 . S
H1012 C1022 0.930 . S
H1013 C1023 0.930 . S
C1014 H1008 0.930 . S
C1014 C1015 1.355 . S
C1014 C1016 1.415 . S
C1015 C1014 1.355 . S
C1015 C1017 1.419 1_554 S
C1016 C1014 1.415 . S
C1016 C1021 1.425 1_554 S
C1016 C1023 1.409 . S
C1017 H1009 0.930 . S
C1017 C1015 1.419 1_556 S
C1017 C1018 1.362 . S
C1018 H1010 0.930 . S
C1018 C1017 1.362 . S
C1018 C1021 1.409 . S
C1019 H1011 0.930 . S
C1019 C1020 1.355 . S
C1019 C1021 1.415 1_455 S
C1020 C1019 1.355 . S
C1020 C1022 1.419 . S
C1021 C1016 1.425 1_556 S
C1021 C1018 1.409 . S
C1021 C1019 1.415 1_655 S
C1022 H1012 0.930 . S
C1022 C1020 1.419 . S
C1022 C1023 1.362 1_456 S
C1023 H1013 0.930 . S
C1023 C1016 1.409 . S
C1023 C1022 1.362 1_654 S
H1024 C1030 0.930 1_545 S
H1025 C1033 0.930 . S
H1026 C1034 0.930 . S
H1027 C1035 0.930 . S
H1028 C1038 0.930 . S
H1029 C1039 0.930 . S
C1030 H1024 0.930 1_565 S
C1030 C1031 1.355 . S
C1030 C1032 1.401 1_564 S
C1031 C1030 1.355 . S
C1031 C1033 1.419 . S
C1032 C1030 1.401 1_546 S
C1032 C1037 1.400 1_545 S
C1032 C1039 1.447 . S
C1033 H1025 0.930 . S
C1033 C1031 1.419 . S
C1033 C1034 1.362 1_554 S
C1034 H1026 0.930 . S
C1034 C1033 1.362 1_556 S
C1034 C1037 1.409 . S
C1035 H1027 0.930 . S
C1035 C1036 1.355 1_565 S
C1035 C1037 1.415 . S
C1036 C1035 1.355 1_545 S
C1036 C1038 1.419 . S
C1037 C1032 1.400 1_565 S
C1037 C1034 1.409 . S
C1037 C1035 1.415 . S
C1038 H1028 0.930 . S
C1038 C1036 1.419 . S
C1038 C1039 1.362 . S
C1039 H1029 0.930 . S
C1039 C1032 1.447 . S
C1039 C1038 1.362 . S
H1040 C1046 0.930 . S
H1041 C1049 0.930 . S
H1042 C1050 0.930 . S
H1043 C1051 0.930 . S
H1044 C1054 0.930 . S
H1045 C1055 0.930 1_554 S
C1046 H1040 0.930 . S
C1046 C1047 1.355 . S
C1046 C1048 1.415 1_554 S
C1047 C1046 1.355 . S
C1047 C1049 1.419 1_554 S
C1048 C1046 1.415 1_556 S
C1048 C1053 1.425 . S
C1048 C1055 1.409 . S
C1049 H1041 0.930 . S
C1049 C1047 1.419 1_556 S
C1049 C1050 1.362 . S
C1050 H1042 0.930 . S
C1050 C1049 1.362 . S
C1050 C1053 1.409 . S
C1051 H1043 0.930 . S
C1051 C1052 1.355 . S
C1051 C1053 1.415 . S
C1052 C1051 1.355 . S
C1052 C1054 1.419 . S
C1053 C1048 1.425 . S
C1053 C1050 1.409 . S
C1053 C1051 1.415 . S
C1054 H1044 0.930 . S
C1054 C1052 1.419 . S
C1054 C1055 1.362 . S
C1055 H1045 0.930 1_556 S
C1055 C1048 1.409 . S
C1055 C1054 1.362 . S
H1056 C1062 0.930 . S
H1057 C1065 0.930 . S
H1058 C1066 0.930 . S
H1059 C1067 0.930 . S
H1060 C1070 0.930 1_554 S
H1061 C1071 0.930 . S
C1062 H1056 0.930 . S
C1062 C1063 1.355 . S
C1062 C1064 1.415 . S
C1063 C1062 1.355 . S
C1063 C1065 1.419 1_554 S
C1064 C1062 1.415 . S
C1064 C1069 1.425 1_554 S
C1064 C1071 1.409 . S
C1065 H1057 0.930 . S
C1065 C1063 1.419 1_556 S
C1065 C1066 1.362 . S
C1066 H1058 0.930 . S
C1066 C1065 1.362 . S
C1066 C1069 1.409 . S
C1067 H1059 0.930 . S
C1067 C1068 1.355 . S
C1067 C1069 1.415 . S
C1068 C1067 1.355 . S
C1068 C1070 1.419 . S
C1069 C1064 1.425 1_556 S
C1069 C1066 1.409 . S
C1069 C1067 1.415 . S
C1070 H1060 0.930 1_556 S
C1070 C1068 1.419 . S
C1070 C1071 1.362 1_556 S
C1071 H1061 0.930 . S
C1071 C1064 1.409 . S
C1071 C1070 1.362 1_554 S
H1072 C1078 0.930 . S
H1073 C1081 0.930 1_655 S
H1074 C1082 0.930 1_655 S
H1075 C1083 0.930 1_655 S
H1076 C1086 0.930 . S
H1077 C1087 0.930 . S
C1078 H1072 0.930 . S
C1078 C1079 1.355 . S
C1078 C1080 1.415 . S
C1079 C1078 1.355 . S
C1079 C1081 1.419 . S
C1080 C1078 1.415 . S
C1080 C1085 1.425 . S
C1080 C1087 1.409 . S
C1081 H1073 0.930 1_455 S
C1081 C1079 1.419 . S
C1081 C1082 1.362 . S
C1082 H1074 0.930 1_455 S
C1082 C1081 1.362 . S
C1082 C1085 1.409 . S
C1083 H1075 0.930 1_455 S
C1083 C1084 1.355 . S
C1083 C1085 1.415 . S
C1084 C1083 1.355 . S
C1084 C1086 1.419 . S
C1085 C1080 1.425 . S
C1085 C1082 1.409 . S
C1085 C1083 1.415 . S
C1086 H1076 0.930 . S
C1086 C1084 1.419 . S
C1086 C1087 1.362 . S
C1087 H1077 0.930 . S
C1087 C1080 1.409 . S
C1087 C1086 1.362 . S
H1088 C1094 0.930 . S
H1089 C1097 0.930 . S
H1090 C1098 0.930 1_565 S
H1091 C1099 0.930 . S
H1092 C1102 0.930 . S
H1093 C1103 0.930 . S
C1094 H1088 0.930 . S
C1094 C1095 1.355 . S
C1094 C1096 1.415 . S
C1095 C1094 1.355 . S
C1095 C1097 1.419 . S
C1096 C1094 1.415 . S
C1096 C1101 1.425 . S
C1096 C1103 1.409 . S
C1097 H1089 0.930 . S
C1097 C1095 1.419 . S
C1097 C1098 1.362 . S
C1098 H1090 0.930 1_545 S
C1098 C1097 1.362 . S
C1098 C1101 1.409 . S
C1099 H1091 0.930 . S
C1099 C1100 1.355 . S
C1099 C1101 1.415 . S
C1100 C1099 1.355 . S
C1100 C1102 1.419 . S
C1101 C1096 1.425 . S
C1101 C1098 1.409 . S
C1101 C1099 1.415 . S
C1102 H1092 0.930 . S
C1102 C1100 1.419 . S
C1102 C1103 1.362 . S
C1103 H1093 0.930 . S
C1103 C1096 1.409 . S
C1103 C1102 1.362 . S
H1104 C1110 0.930 . S
H1105 C1113 0.930 . S
H1106 C1114 0.930 . S
H1107 C1115 0.930 . S
H1108 C1118 0.930 . S
H1109 C1119 0.930 . S
C1110 H1104 0.930 . S
C1110 C1111 1.355 . S
C1110 C1112 1.415 . S
C1111 C1110 1.355 . S
C1111 C1113 1.419 . S
C1112 C1110 1.415 . S
C1112 C1117 1.425 . S
C1112 C1119 1.409 . S
C1113 H1105 0.930 . S
C1113 C1111 1.419 . S
C1113 C1114 1.362 . S
C1114 H1106 0.930 . S
C1114 C1113 1.362 . S
C1114 C1117 1.409 . S
C1115 H1107 0.930 . S
C1115 C1116 1.355 . S
C1115 C1117 1.415 . S
C1116 C1115 1.355 . S
C1116 C1118 1.419 . S
C1117 C1112 1.425 . S
C1117 C1114 1.409 . S
C1117 C1115 1.415 . S
C1118 H1108 0.930 . S
C1118 C1116 1.419 . S
C1118 C1119 1.362 . S
C1119 H1109 0.930 . S
C1119 C1112 1.409 . S
C1119 C1118 1.362 . S
H1120 C1126 0.930 . S
H1121 C1129 0.930 . S
H1122 C1130 0.930 . S
H1123 C1131 0.930 . S
H1124 C1134 0.930 . S
H1125 C1135 0.930 . S
C1126 H1120 0.930 . S
C1126 C1127 1.355 . S
C1126 C1128 1.415 . S
C1127 C1126 1.355 . S
C1127 C1129 1.419 . S
C1128 C1126 1.415 . S
C1128 C1133 1.425 . S
C1128 C1135 1.409 . S
C1129 H1121 0.930 . S
C1129 C1127 1.419 . S
C1129 C1130 1.362 . S
C1130 H1122 0.930 . S
C1130 C1129 1.362 . S
C1130 C1133 1.409 . S
C1131 H1123 0.930 . S
C1131 C1132 1.355 . S
C1131 C1133 1.415 . S
C1132 C1131 1.355 . S
C1132 C1134 1.419 . S
C1133 C1128 1.425 . S
C1133 C1130 1.409 . S
C1133 C1131 1.415 . S
C1134 H1124 0.930 . S
C1134 C1132 1.419 . S
C1134 C1135 1.362 . S
C1135 H1125 0.930 . S
C1135 C1128 1.409 . S
C1135 C1134 1.362 . S
H1136 C1142 0.930 . S
H1137 C1145 0.941 . S
H1138 C1146 0.930 1_455 S
H1139 C1147 0.930 1_455 S
H1140 C1150 0.930 . S
H1141 C1151 0.930 . S
C1142 H1136 0.930 . S
C1142 C1143 1.355 . S
C1142 C1144 1.415 . S
C1143 C1142 1.355 . S
C1143 C1145 1.419 . S
C1144 C1142 1.415 . S
C1144 C1149 1.425 . S
C1144 C1151 1.409 . S
C1145 H1137 0.941 . S
C1145 C1143 1.419 . S
C1145 C1146 1.362 . S
C1146 H1138 0.930 1_655 S
C1146 C1145 1.362 . S
C1146 C1149 1.409 . S
C1147 H1139 0.930 1_655 S
C1147 C1148 1.355 . S
C1147 C1149 1.415 . S
C1148 C1147 1.355 . S
C1148 C1150 1.419 . S
C1149 C1144 1.425 . S
C1149 C1146 1.409 . S
C1149 C1147 1.415 . S
C1150 H1140 0.930 . S
C1150 C1148 1.419 . S
C1150 C1151 1.362 . S
C1151 H1141 0.930 . S
C1151 C1144 1.409 . S
C1151 C1150 1.362 . S
H1152 C1158 0.930 1_545 S
H1153 C1161 0.930 . S
H1154 C1162 0.930 . S
H1155 C1163 0.930 . S
H1156 C1166 0.930 . S
H1157 C1167 0.930 . S
C1158 H1152 0.930 1_565 S
C1158 C1159 1.355 . S
C1158 C1160 1.415 . S
C1159 C1158 1.355 . S
C1159 C1161 1.419 . S
C1160 C1158 1.415 . S
C1160 C1165 1.425 . S
C1160 C1167 1.409 1_565 S
C1161 H1153 0.930 . S
C1161 C1159 1.419 . S
C1161 C1162 1.362 . S
C1162 H1154 0.930 . S
C1162 C1161 1.362 . S
C1162 C1165 1.409 . S
C1163 H1155 0.930 . S
C1163 C1164 1.355 . S
C1163 C1165 1.415 . S
C1164 C1163 1.355 . S
C1164 C1166 1.419 1_565 S
C1165 C1160 1.425 . S
C1165 C1162 1.409 . S
C1165 C1163 1.415 . S
C1166 H1156 0.930 . S
C1166 C1164 1.419 1_545 S
C1166 C1167 1.362 . S
C1167 H1157 0.930 . S
C1167 C1160 1.409 1_545 S
C1167 C1166 1.362 . S
H1168 C1174 0.930 . S
H1169 C1177 0.930 . S
H1170 C1178 0.930 . S
H1171 C1179 0.930 . S
H1172 C1182 0.930 . S
H1173 C1183 0.930 . S
C1174 H1168 0.930 . S
C1174 C1175 1.355 . S
C1174 C1176 1.415 . S
C1175 C1174 1.355 . S
C1175 C1177 1.419 . S
C1176 C1174 1.415 . S
C1176 C1181 1.425 . S
C1176 C1183 1.409 . S
C1177 H1169 0.930 . S
C1177 C1175 1.419 . S
C1177 C1178 1.362 . S
C1178 H1170 0.930 . S
C1178 C1177 1.362 . S
C1178 C1181 1.409 . S
C1179 H1171 0.930 . S
C1179 C1180 1.355 . S
C1179 C1181 1.415 . S
C1180 C1179 1.355 . S
C1180 C1182 1.419 . S
C1181 C1176 1.425 . S
C1181 C1178 1.409 . S
C1181 C1179 1.415 . S
C1182 H1172 0.930 . S
C1182 C1180 1.419 . S
C1182 C1183 1.362 . S
C1183 H1173 0.930 . S
C1183 C1176 1.409 . S
C1183 C1182 1.362 . S
H1184 C1190 0.930 . S
H1185 C1193 0.930 . S
H1186 C1194 0.930 . S
H1187 C1195 0.930 . S
H1188 C1198 0.930 . S
H1189 C1199 0.930 . S
C1190 H1184 0.930 . S
C1190 C1191 1.355 . S
C1190 C1192 1.415 . S
C1191 C1190 1.355 . S
C1191 C1193 1.419 . S
C1192 C1190 1.415 . S
C1192 C1197 1.425 . S
C1192 C1199 1.409 . S
C1193 H1185 0.930 . S
C1193 C1191 1.419 . S
C1193 C1194 1.362 . S
C1194 H1186 0.930 . S
C1194 C1193 1.362 . S
C1194 C1197 1.409 . S
C1195 H1187 0.930 . S
C1195 C1196 1.355 . S
C1195 C1197 1.415 . S
C1196 C1195 1.355 . S
C1196 C1198 1.419 . S
C1197 C1192 1.425 . S
C1197 C1194 1.409 . S
C1197 C1195 1.415 . S
C1198 H1188 0.930 . S
C1198 C1196 1.419 . S
C1198 C1199 1.362 . S
C1199 H1189 0.930 . S
C1199 C1192 1.409 . S
C1199 C1198 1.362 . S
C823 C391 2.559 . S
C828 C543 2.608 . S
C844 C620 2.603 . S
C839 C451 2.540 . S
C860 C711 2.569 . S
C855 C241 2.148 . S
C876 C795 2.554 . S
C871 C331 2.157 . S
C892 C554 2.609 1_565 S
C887 C121 2.261 . S
C903 C211 2.500 . S
C908 C631 2.593 . S
C919 C31 2.524 . S
C924 C722 2.610 . S
C935 C91 2.188 . S
C940 C806 2.570 1_655 S
C956 C538 0.540 . S
C951 C301 0.747 . S
C972 C633 0.661 . S
C967 C380 0.601 . S
C988 C706 0.652 . S
C983 C440 0.540 . S
C999 C260 0.580 . S
C1004 C790 0.629 . S
C1015 C61 0.692 . S
C1020 C549 0.624 . S
C1036 C622 0.666 . S
C1031 C140 0.574 . S
C1052 C717 0.528 . S
C1047 C200 0.722 . S
C1063 C20 0.670 . S
C1068 C801 0.569 . S
C1079 C320 2.852 . S
C1084 C547 3.059 . S
C1095 C361 2.506 . S
C1100 C638 3.135 . S
C1116 C715 3.074 . S
C1111 C421 2.522 . S
C1132 C799 3.092 . S
C1127 C271 2.894 . S
C1143 C80 2.907 . S
C1148 C536 3.070 . S
C1164 C627 3.130 . S
C1159 C151 2.904 . S
C1180 C704 3.088 . S
C1175 C181 2.513 . S
C1191 C1 2.535 . S
C1196 C788 3.093 . S
