# Generated by pormake.
# Topology zzz, (3,6)-cn, num edge types: 1
# Building blocks:
#     Node 0, Type 0, BuildingBlock: MIDCAF_clean_linker_0, # of connection points: 3
#     Node 1, Type 0, BuildingBlock: MIDCAF_clean_linker_0, # of connection points: 3
#     Node 2, Type 0, BuildingBlock: MIDCAF_clean_linker_0, # of connection points: 3
#     Node 3, Type 0, BuildingBlock: MIDCAF_clean_linker_0, # of connection points: 3
#     Node 4, Type 0, BuildingBlock: MIDCAF_clean_linker_0, # of connection points: 3
#     Node 5, Type 0, BuildingBlock: MIDCAF_clean_linker_0, # of connection points: 3
#     Node 6, Type 0, BuildingBlock: MIDCAF_clean_linker_0, # of connection points: 3
#     Node 7, Type 0, BuildingBlock: MIDCAF_clean_linker_0, # of connection points: 3
#     Node 8, Type 1, BuildingBlock: PAMTOO_clean_sbu_0, # of connection points: 6
#     Node 9, Type 1, BuildingBlock: PAMTOO_clean_sbu_0, # of connection points: 6
#     Node 10, Type 1, BuildingBlock: PAMTOO_clean_sbu_0, # of connection points: 6
#     Node 11, Type 1, BuildingBlock: PAMTOO_clean_sbu_0, # of connection points: 6
#     Edge 12, Type (0, 1), BuildingBlock: EZIPEK_clean_linker_0, # of connection points: 2
#     Edge 13, Type (0, 1), BuildingBlock: EZIPEK_clean_linker_0, # of connection points: 2
#     Edge 14, Type (0, 1), BuildingBlock: EZIPEK_clean_linker_0, # of connection points: 2
#     Edge 15, Type (0, 1), BuildingBlock: EZIPEK_clean_linker_0, # of connection points: 2
#     Edge 16, Type (0, 1), BuildingBlock: EZIPEK_clean_linker_0, # of connection points: 2
#     Edge 17, Type (0, 1), BuildingBlock: EZIPEK_clean_linker_0, # of connection points: 2
#     Edge 18, Type (0, 1), BuildingBlock: EZIPEK_clean_linker_0, # of connection points: 2
#     Edge 19, Type (0, 1), BuildingBlock: EZIPEK_clean_linker_0, # of connection points: 2
#     Edge 20, Type (0, 1), BuildingBlock: EZIPEK_clean_linker_0, # of connection points: 2
#     Edge 21, Type (0, 1), BuildingBlock: EZIPEK_clean_linker_0, # of connection points: 2
#     Edge 22, Type (0, 1), BuildingBlock: EZIPEK_clean_linker_0, # of connection points: 2
#     Edge 23, Type (0, 1), BuildingBlock: EZIPEK_clean_linker_0, # of connection points: 2
#     Edge 24, Type (0, 1), BuildingBlock: EZIPEK_clean_linker_0, # of connection points: 2
#     Edge 25, Type (0, 1), BuildingBlock: EZIPEK_clean_linker_0, # of connection points: 2
#     Edge 26, Type (0, 1), BuildingBlock: EZIPEK_clean_linker_0, # of connection points: 2
#     Edge 27, Type (0, 1), BuildingBlock: EZIPEK_clean_linker_0, # of connection points: 2
#     Edge 28, Type (0, 1), BuildingBlock: EZIPEK_clean_linker_0, # of connection points: 2
#     Edge 29, Type (0, 1), BuildingBlock: EZIPEK_clean_linker_0, # of connection points: 2
#     Edge 30, Type (0, 1), BuildingBlock: EZIPEK_clean_linker_0, # of connection points: 2
#     Edge 31, Type (0, 1), BuildingBlock: EZIPEK_clean_linker_0, # of connection points: 2
#     Edge 32, Type (0, 1), BuildingBlock: EZIPEK_clean_linker_0, # of connection points: 2
#     Edge 33, Type (0, 1), BuildingBlock: EZIPEK_clean_linker_0, # of connection points: 2
#     Edge 34, Type (0, 1), BuildingBlock: EZIPEK_clean_linker_0, # of connection points: 2
#     Edge 35, Type (0, 1), BuildingBlock: EZIPEK_clean_linker_0, # of connection points: 2
# Relax obj value: 0.389
# Max RMSD: 0.288
# Mean RMSD: 0.224
data_MOF--net-zzz--node1-PAMTOO_clean_sbu_0--node2-MIDCAF_clean_linker_0--edge1-EZIPEK_clean_linker_0
_symmetry_space_group_name_H-M    P1
_symmetry_Int_Tables_number       1
_symmetry_cell_setting            triclinic
loop_
_symmetry_equiv_pos_as_xyz
'x, y, z'
_cell_length_a     50.583138
_cell_length_b     42.83629
_cell_length_c     16.402747
_cell_angle_alpha  92.599991
_cell_angle_beta   80.440874
_cell_angle_gamma 83.835571
loop_
_atom_site_label
_atom_site_type_symbol
_atom_site_fract_x
_atom_site_fract_y
_atom_site_fract_z
_atom_type_partial_charge
C0 C 0.82886 0.53873 0.66517 0.0
C1 C 0.8404 0.51694 0.71476 0.0
C2 C 0.82709 0.49075 0.73727 0.0
C3 C 0.80416 0.4848 0.70453 0.0
H4 H 0.69849 0.45905 0.50699 0.0
H5 H 0.66261 0.47372 0.42809 0.0
H6 H 0.68904 0.56561 0.40181 0.0
H7 H 0.72524 0.55093 0.48146 0.0
H8 H 0.76017 0.41406 0.37123 0.0
H9 H 0.78793 0.38543 0.24781 0.0
H10 H 0.85992 0.40869 0.3335 0.0
H11 H 0.83286 0.43583 0.45752 0.0
H12 H 0.79886 0.54816 0.58767 0.0
H13 H 0.83897 0.55895 0.64646 0.0
H14 H 0.83568 0.47359 0.77497 0.0
H15 H 0.79582 0.46288 0.71691 0.0
N16 N 0.75362 0.50501 0.57736 0.0
N17 N 0.75362 0.46458 0.47478 0.0
N18 N 0.7904 0.4654 0.54308 0.0
C19 C 0.74093 0.49077 0.52061 0.0
C20 C 0.77842 0.45193 0.48495 0.0
C21 C 0.7783 0.4915 0.58996 0.0
C22 C 0.71461 0.5039 0.50064 0.0
C23 C 0.69593 0.48289 0.48762 0.0
C24 C 0.67545 0.49118 0.4423 0.0
C25 C 0.67324 0.52064 0.40868 0.0
C26 C 0.69028 0.54282 0.42785 0.0
C27 C 0.71085 0.53451 0.47379 0.0
C28 C 0.79428 0.42792 0.42317 0.0
C29 C 0.78195 0.41218 0.36497 0.0
C30 C 0.79771 0.39584 0.29454 0.0
C31 C 0.82581 0.39601 0.28068 0.0
C32 C 0.83818 0.40886 0.34265 0.0
C33 C 0.8226 0.4244 0.41368 0.0
C34 C 0.79397 0.50493 0.64875 0.0
C35 C 0.80578 0.53273 0.63226 0.0
C36 C 0.98978 0.80505 0.5743 0.0
C37 C 1.00671 0.8157 0.62716 0.0
C38 C 0.02832 0.79482 0.64292 0.0
C39 C 0.0345 0.76514 0.60072 0.0
H40 H 0.98067 0.6818 0.37348 0.0
H41 H 0.96376 0.64314 0.28442 0.0
H42 H 0.04541 0.60181 0.19305 0.0
H43 H 0.06219 0.63924 0.28173 0.0
H44 H 0.08264 0.71709 0.19952 0.0
H45 H 0.09824 0.76079 0.12281 0.0
H46 H 0.12385 0.79963 0.33977 0.0
H47 H 0.10767 0.75623 0.41802 0.0
H48 H 0.98443 0.76893 0.48478 0.0
H49 H 0.97294 0.82074 0.56134 0.0
H50 H 0.0416 0.80234 0.6835 0.0
H51 H 0.05274 0.75075 0.60879 0.0
N52 N 0.02074 0.70857 0.44172 0.0
N53 N 0.05914 0.69678 0.33737 0.0
N54 N 0.05779 0.73769 0.43672 0.0
C55 C 0.03448 0.68998 0.37426 0.0
C56 C 0.07092 0.72055 0.36805 0.0
C57 C 0.03298 0.73214 0.47419 0.0
C58 C 0.02282 0.66398 0.33405 0.0
C59 C 0.99489 0.66397 0.33591 0.0
C60 C 0.98524 0.64202 0.28471 0.0
C61 C 1.0034 0.61991 0.23085 0.0
C62 C 0.03103 0.61878 0.23316 0.0
C63 C 0.04058 0.64038 0.28403 0.0
C64 C 0.09287 0.7341 0.3157 0.0
C65 C 0.09303 0.73382 0.22989 0.0
C66 C 0.10188 0.75891 0.18576 0.0
C67 C 0.11119 0.78383 0.22684 0.0
C68 C 0.11631 0.78071 0.3077 0.0
C69 C 0.10706 0.75587 0.35227 0.0
C70 C 0.01932 0.75559 0.54141 0.0
C71 C 0.9961 0.77523 0.53146 0.0
C72 C 0.6895 0.9928 0.50158 0.0
C73 C 0.67885 0.01364 0.57091 0.0
C74 C 0.69399 0.03766 0.59084 0.0
C75 C 0.71803 0.0424 0.53874 0.0
H76 H 0.82929 0.0184 0.346 0.0
H77 H 0.87528 0.00876 0.26364 0.0
H78 H 0.84197 0.01351 0.03872 0.0
H79 H 0.79645 0.02365 0.11995 0.0
H80 H 0.74185 0.07676 0.1312 0.0
H81 H 0.70321 0.10194 0.07707 0.0
H82 H 0.67163 0.14883 0.31702 0.0
H83 H 0.70985 0.12306 0.37219 0.0
H84 H 0.72009 0.98277 0.39277 0.0
H85 H 0.67812 0.97426 0.48441 0.0
H86 H 0.68616 0.05421 0.64341 0.0
H87 H 0.72778 0.06296 0.55154 0.0
N88 N 0.76959 0.02248 0.35663 0.0
N89 N 0.76893 0.05982 0.25504 0.0
N90 N 0.73284 0.06184 0.36486 0.0
C91 C 0.78198 0.0348 0.28612 0.0
C92 C 0.74462 0.0737 0.29487 0.0
C93 C 0.74472 0.03635 0.3961 0.0
C94 C 0.80915 0.02162 0.23963 0.0
C95 C 0.83178 0.0164 0.27904 0.0
C96 C 0.85809 0.0111 0.23197 0.0
C97 C 0.86216 0.01042 0.14472 0.0
C98 C 0.83945 0.0138 0.10566 0.0
C99 C 0.81338 0.01955 0.15236 0.0
C100 C 0.72844 0.09754 0.25616 0.0
C101 C 0.72739 0.09362 0.17136 0.0
C102 C 0.70532 0.10798 0.14035 0.0
C103 C 0.68446 0.12671 0.19362 0.0
C104 C 0.68756 0.13435 0.27527 0.0
C105 C 0.70932 0.11953 0.30668 0.0
C106 C 0.72779 0.023 0.466 0.0
C107 C 0.71376 0.99738 0.44979 0.0
C108 C 0.45224 0.68453 0.07219 0.0
C109 C 0.46512 0.65352 0.06227 0.0
C110 C 0.48648 0.64524 0.10462 0.0
C111 C 0.49534 0.66763 0.15451 0.0
H112 H 0.48206 0.79911 0.11285 0.0
H113 H 0.48711 0.84881 0.05029 0.0
H114 H 0.54178 0.87103 0.21381 0.0
H115 H 0.53714 0.8203 0.27751 0.0
H116 H 0.48684 0.73145 0.47858 0.0
H117 H 0.49469 0.68976 0.57237 0.0
H118 H 0.57278 0.66047 0.42429 0.0
H119 H 0.56482 0.70208 0.33006 0.0
H120 H 0.45201 0.73133 0.12591 0.0
H121 H 0.4355 0.69121 0.04064 0.0
H122 H 0.4966 0.62142 0.09801 0.0
H123 H 0.51211 0.66055 0.18558 0.0
N124 N 0.49554 0.75216 0.18925 0.0
N125 N 0.51756 0.76361 0.30124 0.0
N126 N 0.50417 0.71334 0.27965 0.0
C127 C 0.50731 0.77307 0.2325 0.0
C128 C 0.51565 0.73349 0.32489 0.0
C129 C 0.49403 0.72237 0.21228 0.0
C130 C 0.50936 0.8052 0.20046 0.0
C131 C 0.49524 0.8143 0.13633 0.0
C132 C 0.49805 0.84293 0.10005 0.0
C133 C 0.51499 0.86366 0.12646 0.0
C134 C 0.5287 0.85532 0.19191 0.0
C135 C 0.52593 0.82635 0.22855 0.0
C136 C 0.52552 0.7207 0.39814 0.0
C137 C 0.50636 0.7174 0.46896 0.0
C138 C 0.51067 0.69321 0.52196 0.0
C139 C 0.53422 0.67171 0.50506 0.0
C140 C 0.5545 0.67679 0.43885 0.0
C141 C 0.55012 0.70093 0.38567 0.0
C142 C 0.48338 0.69898 0.16178 0.0
C143 C 0.4617 0.70734 0.12043 0.0
C144 C 0.15484 0.47608 0.01874 0.0
C145 C 0.1607 0.48214 0.93496 0.0
C146 C 0.18766 0.48487 0.89952 0.0
C147 C 0.20812 0.48317 0.94881 0.0
H148 H 0.29696 0.42624 0.10545 0.0
H149 H 0.33984 0.41829 0.15771 0.0
H150 H 0.34075 0.51873 0.18281 0.0
H151 H 0.29878 0.52654 0.12775 0.0
H152 H 0.25138 0.52648 0.34369 0.0
H153 H 0.23003 0.55161 0.4795 0.0
H154 H 0.1535 0.52353 0.43998 0.0
H155 H 0.17439 0.49863 0.30519 0.0
H156 H 0.16933 0.47043 0.13248 0.0
H157 H 0.13432 0.4736 0.04727 0.0
H158 H 0.19265 0.4894 0.83467 0.0
H159 H 0.22844 0.48683 0.92117 0.0
N160 N 0.24881 0.47714 0.06963 0.0
N161 N 0.2534 0.49316 0.20565 0.0
N162 N 0.21056 0.49294 0.17187 0.0
C163 C 0.26485 0.48248 0.12748 0.0
C164 C 0.22641 0.49834 0.2285 0.0
C165 C 0.22124 0.48252 0.09252 0.0
C166 C 0.29463 0.47701 0.11169 0.0
C167 C 0.30733 0.44647 0.11643 0.0
C168 C 0.33161 0.44195 0.14785 0.0
C169 C 0.34312 0.46796 0.17663 0.0
C170 C 0.33219 0.49829 0.16201 0.0
C171 C 0.30834 0.50273 0.12921 0.0
C172 C 0.21443 0.51092 0.31332 0.0
C173 C 0.23005 0.52532 0.36453 0.0
C174 C 0.21798 0.53968 0.442 0.0
C175 C 0.19028 0.53939 0.46938 0.0
C176 C 0.17499 0.52383 0.4199 0.0
C177 C 0.18691 0.50981 0.34258 0.0
C178 C 0.20184 0.4787 0.03412 0.0
C179 C 0.17504 0.47429 0.06742 0.0
C180 C 1.0107 0.22035 0.99377 0.0
C181 C 0.02886 0.20009 0.93486 0.0
C182 C 0.05528 0.20759 0.91192 0.0
C183 C 0.06426 0.23253 0.95362 0.0
H184 H 1.01436 0.33898 0.21952 0.0
H185 H 1.00032 0.38399 0.32268 0.0
H186 H 0.07945 0.37421 0.39002 0.0
H187 H 0.09354 0.3299 0.28811 0.0
H188 H 0.0827 0.24423 0.3523 0.0
H189 H 0.07443 0.19475 0.41324 0.0
H190 H 0.1073 0.14415 0.17909 0.0
H191 H 0.11554 0.19369 0.11709 0.0
H192 H 1.00634 0.25795 0.08826 0.0
H193 H 0.99021 0.21502 0.01253 0.0
H194 H 0.06965 0.19245 0.86677 0.0
H195 H 0.08551 0.23556 0.9404 0.0
N196 N 0.05169 0.29194 0.1289 0.0
N197 N 0.08015 0.27822 0.22521 0.0
N198 N 0.07769 0.24253 0.11635 0.0
C199 C 0.06282 0.29994 0.1967 0.0
C200 C 0.08764 0.24945 0.18551 0.0
C201 C 0.05991 0.26316 0.08726 0.0
C202 C 0.05498 0.33059 0.24607 0.0
C203 C 0.02891 0.34696 0.25488 0.0
C204 C 0.02084 0.37257 0.31402 0.0
C205 C 0.0388 0.38222 0.36467 0.0
C206 C 0.06523 0.36711 0.35211 0.0
C207 C 0.07321 0.34167 0.29375 0.0
C208 C 0.09851 0.22285 0.22892 0.0
C209 C 0.08984 0.22255 0.31484 0.0
C210 C 0.08495 0.1942 0.3499 0.0
C211 C 0.08932 0.16617 0.29952 0.0
C212 C 0.10345 0.16574 0.21833 0.0
C213 C 0.10819 0.19412 0.18311 0.0
C214 C 0.04716 0.2503 0.01997 0.0
C215 C 0.01984 0.24523 0.03632 0.0
C216 C 0.3305 0.04604 0.09355 0.0
C217 C 0.34455 0.02124 0.03844 0.0
C218 C 0.33262 0.99325 0.03262 0.0
C219 C 0.30851 0.98917 0.08541 0.0
H220 H 0.20143 0.05034 0.3083 0.0
H221 H 0.15429 0.05908 0.38353 0.0
H222 H 0.16294 0.96582 0.47097 0.0
H223 H 0.20899 0.95682 0.39602 0.0
H224 H 0.26357 0.94315 0.47921 0.0
H225 H 0.29144 0.91762 0.57227 0.0
H226 H 0.36311 0.94199 0.41885 0.0
H227 H 0.33598 0.96687 0.32565 0.0
H228 H 0.29765 0.06017 0.19432 0.0
H229 H 0.33925 0.06784 0.09971 0.0
H230 H 0.34296 0.97368 0.99119 0.0
H231 H 0.30132 0.96624 0.08459 0.0
N232 N 0.25181 0.00975 0.24491 0.0
N233 N 0.25414 0.98087 0.36328 0.0
N234 N 0.2935 0.98581 0.27105 0.0
C235 C 0.23909 0.99814 0.31623 0.0
C236 C 0.28122 0.97475 0.34154 0.0
C237 C 0.27938 1.00308 0.22224 0.0
C238 C 0.20919 1.00293 0.34623 0.0
C239 C 0.19299 0.0315 0.34186 0.0
C240 C 0.16613 0.03661 0.38559 0.0
C241 C 0.15511 0.01327 0.43447 0.0
C242 C 0.17089 0.98434 0.43485 0.0
C243 C 0.19736 0.97926 0.39154 0.0
C244 C 0.29753 0.95731 0.39531 0.0
C245 C 0.28529 0.94282 0.465 0.0
C246 C 0.30109 0.92818 0.51806 0.0
C247 C 0.32918 0.9283 0.50242 0.0
C248 C 0.34139 0.94183 0.4318 0.0
C249 C 0.32579 0.95608 0.37863 0.0
C250 C 0.29558 0.01294 0.14545 0.0
C251 C 0.3064 0.04185 0.14685 0.0
C252 C 0.59609 0.34173 0.40386 0.0
C253 C 0.58088 0.35413 0.48007 0.0
C254 C 0.55958 0.33848 0.51831 0.0
C255 C 0.55202 0.31245 0.47742 0.0
H256 H 0.4792 0.21661 0.36555 0.0
H257 H 0.46917 0.17108 0.44795 0.0
H258 H 0.55426 0.14563 0.44186 0.0
H259 H 0.56423 0.19077 0.36073 0.0
H260 H 0.48031 0.29483 0.18595 0.0
H261 H 0.47063 0.33501 0.08807 0.0
H262 H 0.55594 0.33914 0.01401 0.0
H263 H 0.56554 0.29898 0.10918 0.0
H264 H 0.59832 0.3089 0.29954 0.0
H265 H 0.61276 0.35336 0.37403 0.0
H266 H 0.5478 0.34758 0.57754 0.0
H267 H 0.53435 0.30208 0.50539 0.0
N268 N 0.54393 0.25479 0.37072 0.0
N269 N 0.52162 0.25017 0.25569 0.0
N270 N 0.54555 0.2934 0.27472 0.0
C271 C 0.52911 0.23822 0.32609 0.0
C272 C 0.53028 0.278 0.22969 0.0
C273 C 0.55222 0.28224 0.34505 0.0
C274 C 0.52251 0.20716 0.35611 0.0
C275 C 0.49572 0.20065 0.37947 0.0
C276 C 0.49 0.17482 0.42723 0.0
C277 C 0.51098 0.15504 0.45204 0.0
C278 C 0.53773 0.1605 0.42408 0.0
C279 C 0.54339 0.18627 0.37725 0.0
C280 C 0.52371 0.29338 0.15464 0.0
C281 C 0.49694 0.30331 0.14599 0.0
C282 C 0.49141 0.32665 0.09098 0.0
C283 C 0.51256 0.34068 0.04457 0.0
C284 C 0.53923 0.32905 0.04929 0.0
C285 C 0.5447 0.30579 0.10333 0.0
C286 C 0.5653 0.30229 0.39716 0.0
C287 C 0.58793 0.31638 0.36168 0.0
Dy288 Dy 0.98927 0.01862 0.72371 0.0
Dy289 Dy 0.02984 0.99769 0.85389 0.0
C290 C 0.05449 0.01513 0.67051 0.0
O291 O 0.98543 0.96766 0.74186 0.0
O292 O 0.02663 0.95364 0.77824 0.0
O293 O 0.97435 0.00546 0.61251 0.0
O294 O 0.96162 0.05158 0.6739 0.0
O295 O 0.9875 0.99479 0.92424 0.0
O296 O 0.95997 0.01965 0.84155 0.0
O297 O 0.02555 0.05003 0.87011 0.0
O298 O 0.9989 0.06494 0.77427 0.0
O299 O 0.03862 0.99455 0.9782 0.0
O300 O 0.06866 0.97626 0.87226 0.0
C301 C 1.00529 0.9462 0.74924 0.0
O302 O 0.03111 0.01216 0.648 0.0
O303 O 0.05712 0.0155 0.74873 0.0
C304 C 0.97796 0.04922 0.53085 0.0
C305 C 1.01494 0.08132 0.4298 0.0
C306 C 0.01848 0.04841 0.42686 0.0
C307 C 1.00008 0.03242 0.47699 0.0
C308 C 0.97305 0.08195 0.52655 0.0
C309 C 0.99154 0.09792 0.47669 0.0
C310 C 0.96488 0.03446 0.60429 0.0
C311 C 0.96352 0.00711 0.91114 0.0
C312 C 1.01301 0.07181 0.83185 0.0
C313 C 0.07091 0.95257 0.99668 0.0
C314 C 0.08923 0.89963 0.07445 0.0
C315 C 0.06734 0.89877 0.03211 0.0
C316 C 0.05825 0.92513 0.9931 0.0
C317 C 0.09273 0.95346 0.03915 0.0
C318 C 0.10186 0.92709 0.07804 0.0
C319 C 0.06274 0.97987 0.95264 0.0
H320 H 0.0363 0.03532 0.38985 0.0
H321 H 1.00449 0.00715 0.47827 0.0
H322 H 0.95621 0.09547 0.56708 0.0
H323 H 0.9884 0.12338 0.47837 0.0
H324 H 0.05731 0.87772 0.02957 0.0
H325 H 0.04153 0.9241 0.95988 0.0
H326 H 0.10278 0.9745 0.04177 0.0
H327 H 0.11859 0.92809 0.11124 0.0
Dy328 Dy 0.50893 0.9878 0.74477 0.0
Dy329 Dy 0.51513 0.04421 0.87653 0.0
C330 C 0.50495 0.05902 0.69384 0.0
O331 O 0.55124 0.99892 0.70149 0.0
O332 O 0.55826 0.02765 0.8167 0.0
O333 O 0.50472 0.96921 0.62335 0.0
O334 O 0.50595 0.93838 0.72344 0.0
O335 O 0.50858 1.00092 0.94762 0.0
O336 O 0.52852 0.96525 0.84354 0.0
O337 O 0.47028 0.04642 0.88089 0.0
O338 O 0.46885 0.99584 0.83148 0.0
O339 O 0.52354 0.05799 0.99635 0.0
O340 O 0.51209 0.09373 0.91574 0.0
C341 C 0.56728 0.01297 0.74312 0.0
O342 O 0.49399 0.03256 0.69092 0.0
O343 O 0.51837 0.0655 0.75333 0.0
C344 C 0.47532 0.9294 0.63375 0.0
C345 C 0.42402 0.91271 0.61973 0.0
C346 C 0.4358 0.93424 0.56737 0.0
C347 C 0.46129 0.94245 0.57401 0.0
C348 C 0.46402 0.90643 0.68308 0.0
C349 C 0.43844 0.89821 0.67628 0.0
C350 C 0.50039 0.94157 0.64939 0.0
C351 C 0.51934 0.97211 0.92245 0.0
C352 C 0.45685 0.0222 0.87194 0.0
C353 C 0.54321 0.10466 1.00276 0.0
C354 C 0.58623 0.128 0.06393 0.0
C355 C 0.59126 0.10408 1.0002 0.0
C356 C 0.56988 0.09256 0.96944 0.0
C357 C 0.53823 0.13028 0.06182 0.0
C358 C 0.55973 0.14216 0.09187 0.0
C359 C 0.52086 0.08795 0.98447 0.0
H360 H 0.42485 0.94544 0.52302 0.0
H361 H 0.46953 0.95988 0.53443 0.0
H362 H 0.4745 0.89566 0.72902 0.0
H363 H 0.42955 0.88142 0.71675 0.0
H364 H 0.61163 0.09298 0.97801 0.0
H365 H 0.57407 0.07286 0.9236 0.0
H366 H 0.51772 0.13984 0.08808 0.0
H367 H 0.55559 0.16059 0.1413 0.0
Dy368 Dy 0.5427 0.5122 0.82715 0.0
Dy369 Dy 0.49798 0.49618 0.70257 0.0
C370 C 0.50921 0.45321 0.85584 0.0
O371 O 0.56197 0.47187 0.7394 0.0
O372 O 0.53966 0.48257 0.63267 0.0
O373 O 0.57625 0.4966 0.88714 0.0
O374 O 0.56151 0.54616 0.89438 0.0
O375 O 0.50687 0.54531 0.68097 0.0
O376 O 0.54892 0.54271 0.71818 0.0
O377 O 0.47364 0.53119 0.79856 0.0
O378 O 0.50454 0.54146 0.88374 0.0
O379 O 0.49219 0.48838 0.57544 0.0
O380 O 0.4589 0.48489 0.67787 0.0
C381 C 0.5603 0.46852 0.66092 0.0
O382 O 0.51867 0.47678 0.89176 0.0
O383 O 0.5032 0.45442 0.78049 0.0
C384 C 0.58549 0.52813 1.00117 0.0
C385 C 0.60814 0.53068 0.1476 0.0
C386 C 0.59332 0.50592 0.1307 0.0
C387 C 0.5821 0.5046 0.05797 0.0
C388 C 0.59903 0.55371 0.02073 0.0
C389 C 0.61028 0.55496 0.09313 0.0
C390 C 0.57862 0.52469 0.91691 0.0
C391 C 0.52996 0.5566 0.68131 0.0
C392 C 0.48065 0.54624 0.86185 0.0
C393 C 0.44964 0.47635 0.53669 0.0
C394 C 0.41745 0.46827 0.41299 0.0
C395 C 0.44478 0.45569 0.39936 0.0
C396 C 0.46081 0.46009 0.46018 0.0
C397 C 0.42211 0.48791 0.55143 0.0
C398 C 0.40625 0.48416 0.49 0.0
C399 C 0.46705 0.48374 0.59775 0.0
H400 H 0.59163 0.48681 0.17163 0.0
H401 H 0.57186 0.48452 0.04448 0.0
H402 H 0.60212 0.572 0.97778 0.0
H403 H 0.62182 0.57411 0.10463 0.0
H404 H 0.45384 0.4431 0.34093 0.0
H405 H 0.48201 0.45102 0.44708 0.0
H406 H 0.41305 0.50079 0.60945 0.0
H407 H 0.38522 0.49397 0.50223 0.0
Dy408 Dy 1.00847 0.53619 0.7541 0.0
Dy409 Dy 0.99943 0.47193 0.85199 0.0
C410 C 1.01594 0.46931 0.65692 0.0
O411 O 0.96354 0.53642 0.77664 0.0
O412 O 0.96066 0.48452 0.80482 0.0
O413 O 1.00419 0.58711 0.7553 0.0
O414 O 0.02254 0.55891 0.64338 0.0
O415 O 0.98241 0.51238 0.94468 0.0
O416 O 1.0098 0.54752 0.88732 0.0
O417 O 0.04093 0.4814 0.86857 0.0
O418 O 0.05048 0.51527 0.76518 0.0
O419 O 0.99699 0.4454 0.96154 0.0
O420 O 0.9933 0.42294 0.84403 0.0
C421 C 0.94987 0.51202 0.78589 0.0
O422 O 1.00495 0.49853 0.6584 0.0
O423 O 0.0222 0.45745 0.72447 0.0
C424 C 0.04373 0.60224 0.67553 0.0
C425 C 0.09963 0.60223 0.65382 0.0
C426 C 0.08635 0.6045 0.58537 0.0
C427 C 0.05842 0.60477 0.59625 0.0
C428 C 0.05654 0.60543 0.74498 0.0
C429 C 0.0845 0.60584 0.73408 0.0
C430 C 0.01895 0.58675 0.68191 0.0
C431 C 0.99416 0.5381 0.95108 0.0
C432 C 0.05794 0.4971 0.82209 0.0
C433 C 0.96665 0.40682 0.96382 0.0
C434 C 0.91763 0.38768 0.04014 0.0
C435 C 0.93478 0.40047 0.0882 0.0
C436 C 0.95918 0.40982 0.05042 0.0
C437 C 0.95021 0.39198 0.91627 0.0
C438 C 0.92583 0.38244 0.9543 0.0
C439 C 0.99076 0.42047 0.92372 0.0
H440 H 0.09778 0.60229 0.52294 0.0
H441 H 0.04893 0.60264 0.542 0.0
H442 H 0.04563 0.60384 0.80703 0.0
H443 H 0.09454 0.60456 0.78745 0.0
H444 H 0.92868 0.40453 0.1547 0.0
H445 H 0.97166 0.42058 0.08873 0.0
H446 H 0.95563 0.3888 0.84946 0.0
H447 H 0.91274 0.37253 0.91659 0.0
C448 C 0.12244 0.03819 0.56188 0.0
C449 C 0.12747 0.01832 0.48778 0.0
C450 C 0.08503 0.9959 0.53371 0.0
C451 C 0.079 0.0172 0.60538 0.0
N452 N 0.08916 0.06427 0.67478 0.0
N453 N 0.10989 0.98453 0.39385 0.0
C454 C 0.0969 0.04002 0.61568 0.0
C455 C 0.10745 0.99936 0.47068 0.0
N456 N 0.1424 0.05434 0.58319 0.0
N457 N 0.07076 0.97077 0.52821 0.0
H458 H 0.12595 0.98678 0.34635 0.0
H459 H 0.09467 0.97286 0.37498 0.0
H460 H 0.05577 0.96558 0.57555 0.0
H461 H 0.07596 0.95295 0.48109 0.0
H462 H 0.14097 0.06619 0.64092 0.0
H463 H 0.16126 0.05388 0.54589 0.0
H464 H 0.10015 0.0833 0.67951 0.0
H465 H 0.07032 0.06728 0.713 0.0
C466 C 0.51104 0.0977 0.48442 0.0
C467 C 0.50543 0.13001 0.51215 0.0
C468 C 0.49299 0.11452 0.6552 0.0
C469 C 0.50245 0.08258 0.62931 0.0
N470 N 0.5228 0.04398 0.51838 0.0
N471 N 0.49384 0.16943 0.62599 0.0
C472 C 0.51176 0.07412 0.54345 0.0
C473 C 0.49695 0.13848 0.59808 0.0
N474 N 0.51544 0.08955 0.40134 0.0
N475 N 0.4794 0.12191 0.73411 0.0
H476 H 0.49628 0.18775 0.58667 0.0
H477 H 0.49094 0.17683 0.68853 0.0
H478 H 0.47539 0.10495 0.77674 0.0
H479 H 0.46965 0.14424 0.75452 0.0
H480 H 0.51687 0.06647 0.37678 0.0
H481 H 0.51521 0.1062 0.35686 0.0
H482 H 0.53287 0.03725 0.45851 0.0
H483 H 0.52399 0.02604 0.5588 0.0
C484 C 0.35721 0.45224 0.31173 0.0
C485 C 0.36387 0.46425 0.2323 0.0
C486 C 0.40598 0.47933 0.27086 0.0
C487 C 0.40026 0.46495 0.34741 0.0
N488 N 0.37394 0.43012 0.4292 0.0
N489 N 0.39747 0.48284 0.12996 0.0
C490 C 0.377 0.44894 0.36402 0.0
C491 C 0.38924 0.47571 0.20985 0.0
N492 N 0.3315 0.44588 0.34011 0.0
N493 N 0.42641 0.49792 0.25796 0.0
H494 H 0.38583 0.48006 0.08379 0.0
H495 H 0.41678 0.4885 0.10793 0.0
H496 H 0.43862 0.50206 0.30165 0.0
H497 H 0.42961 0.51161 0.20717 0.0
H498 H 0.32505 0.44029 0.40083 0.0
H499 H 0.31581 0.44937 0.30645 0.0
H500 H 0.35865 0.41554 0.43934 0.0
H501 H 0.3883 0.42654 0.46776 0.0
C502 C 0.0396 0.43623 0.43209 0.0
C503 C 0.02991 0.40632 0.4357 0.0
C504 C 1.00708 0.42056 0.57894 0.0
C505 C 0.01984 0.44855 0.57912 0.0
N506 N 0.05081 0.48151 0.50824 0.0
N507 N 1.00733 0.36817 0.51656 0.0
C508 C 0.03661 0.45617 0.50602 0.0
C509 C 1.01429 0.39805 0.51009 0.0
N510 N 0.05139 0.44568 0.35761 0.0
N511 N 0.98731 0.41592 0.6434 0.0
H512 H 1.01195 0.35095 0.46776 0.0
H513 H 0.99887 0.35968 0.5723 0.0
H514 H 0.98096 0.43213 0.69401 0.0
H515 H 0.97528 0.39767 0.64276 0.0
H516 H 0.05647 0.46837 0.34898 0.0
H517 H 0.05384 0.43162 0.30263 0.0
H518 H 0.06558 0.48634 0.45976 0.0
H519 H 0.04952 0.49636 0.56127 0.0
C520 C 0.90554 0.98014 0.06583 0.0
C521 C 0.8899 0.00942 0.09334 0.0
C522 C 0.92481 0.03698 0.01198 0.0
C523 C 0.9391 0.0076 0.97783 0.0
N524 N 0.94132 0.95112 0.96442 0.0
N525 N 0.88368 0.06586 0.08971 0.0
C526 C 0.92916 0.97911 1.00346 0.0
C527 C 0.8994 0.03788 0.06589 0.0
N528 N 0.89777 0.95326 0.09946 0.0
N529 N 0.93592 0.06415 0.99439 0.0
H530 H 0.86585 0.06779 0.13288 0.0
H531 H 0.88741 0.087 0.06367 0.0
H532 H 0.95397 0.06463 0.95353 0.0
H533 H 0.92844 0.08598 0.02454 0.0
H534 H 0.9096 0.93156 0.08911 0.0
H535 H 0.88029 0.95313 0.14322 0.0
H536 H 0.93357 0.92975 0.97331 0.0
H537 H 0.95813 0.94956 0.91752 0.0
C538 C 0.49535 0.91724 0.09268 0.0
C539 C 0.51788 0.89383 0.08398 0.0
C540 C 0.54305 0.92539 0.98268 0.0
C541 C 0.51921 0.94626 0.98205 0.0
N542 N 0.47094 0.95763 0.02683 0.0
N543 N 0.56247 0.87374 0.01258 0.0
C544 C 0.49493 0.94124 0.03519 0.0
C545 C 0.54163 0.89749 0.02712 0.0
N546 N 0.47426 0.9166 0.1563 0.0
N547 N 0.5673 0.93266 0.94281 0.0
H548 H 0.56239 0.85314 0.0441 0.0
H549 H 0.57891 0.8734 0.96483 0.0
H550 H 0.56917 0.95314 0.91165 0.0
H551 H 0.58573 0.92015 0.94778 0.0
H552 H 0.45848 0.93474 0.17095 0.0
H553 H 0.47399 0.89945 0.19956 0.0
H554 H 0.45232 0.9527 0.05797 0.0
H555 H 0.46922 0.97378 0.98205 0.0
C556 C 0.66836 0.51531 0.25906 0.0
C557 C 0.65661 0.52559 0.34205 0.0
C558 C 0.61345 0.54189 0.29674 0.0
C559 C 0.62459 0.52902 0.21538 0.0
N560 N 0.66156 0.50006 0.12052 0.0
N561 N 0.61748 0.54566 0.44252 0.0
C562 C 0.65178 0.51485 0.19697 0.0
C563 C 0.62899 0.53814 0.36163 0.0
N564 N 0.69557 0.50641 0.23927 0.0
N565 N 0.58826 0.55831 0.31141 0.0
H566 H 0.6285 0.5441 0.4909 0.0
H567 H 0.59682 0.55154 0.46232 0.0
H568 H 0.57611 0.56068 0.26597 0.0
H569 H 0.58022 0.57153 0.36647 0.0
H570 H 0.70593 0.50233 0.17872 0.0
H571 H 0.70838 0.50543 0.283 0.0
H572 H 0.67998 0.48593 0.10622 0.0
H573 H 0.65042 0.49986 0.07245 0.0
C574 C 0.98636 0.6112 0.09577 0.0
C575 C 0.9945 0.59877 0.16781 0.0
C576 C 0.99877 0.54517 0.10242 0.0
C577 C 0.99025 0.55762 0.03092 0.0
N578 N 0.96851 0.60121 0.9698 0.0
N579 N 1.00147 0.55392 0.24809 0.0
C580 C 0.98157 0.59027 0.03121 0.0
C581 C 0.99828 0.56568 0.17385 0.0
N582 N 0.98483 0.64284 0.0863 0.0
N583 N 1.00908 0.51427 0.1005 0.0
H584 H 1.00107 0.56843 0.30127 0.0
H585 H 1.00185 0.53011 0.25885 0.0
H586 H 1.01009 0.49851 0.04952 0.0
H587 H 0.01853 0.50479 0.14704 0.0
H588 H 0.98225 0.65277 0.03093 0.0
H589 H 0.98822 0.65911 0.13149 0.0
H590 H 0.95945 0.62426 0.97054 0.0
H591 H 0.96429 0.58637 0.92256 0.0
C592 C 0.07954 0.12028 0.38454 0.0
C593 C 0.07266 0.14067 0.32399 0.0
C594 C 0.03147 0.11585 0.31906 0.0
C595 C 0.03635 0.09889 0.38796 0.0
N596 N 0.06324 0.08769 0.49422 0.0
N597 N 0.03973 0.16165 0.24279 0.0
C598 C 0.06007 0.1015 0.42245 0.0
C599 C 0.04811 0.13933 0.29297 0.0
N600 N 0.10464 0.1189 0.40561 0.0
N601 N 1.01092 0.10947 0.27864 0.0
H602 H 0.05097 0.17961 0.22191 0.0
H603 H 0.02042 0.16411 0.22789 0.0
H604 H 0.99843 0.09219 0.29622 0.0
H605 H 1.00784 0.11917 0.22344 0.0
H606 H 0.11177 0.10224 0.44354 0.0
H607 H 0.11919 0.13267 0.37902 0.0
H608 H 0.07831 0.09239 0.52759 0.0
H609 H 0.04952 0.0737 0.52434 0.0
C610 C 0.36466 0.88829 0.53306 0.0
C611 C 0.34668 0.91581 0.56002 0.0
C612 C 0.37505 0.93017 0.65927 0.0
C613 C 0.39578 0.9075 0.61708 0.0
N614 N 0.41026 0.86207 0.52241 0.0
N615 N 0.33253 0.9615 0.65465 0.0
C616 C 0.39032 0.88505 0.55801 0.0
C617 C 0.35077 0.9358 0.62697 0.0
N618 N 0.35729 0.86616 0.48137 0.0
N619 N 0.37915 0.94685 0.72815 0.0
H620 H 0.31417 0.96568 0.6338 0.0
H621 H 0.33588 0.97922 0.69597 0.0
H622 H 0.39708 0.94318 0.75181 0.0
H623 H 0.3642 0.96213 0.76576 0.0
H624 H 0.36866 0.84456 0.46261 0.0
H625 H 0.33842 0.86863 0.46294 0.0
H626 H 0.40873 0.84695 0.47238 0.0
H627 H 0.42887 0.85876 0.54221 0.0
C628 C 0.57723 0.41308 0.47754 0.0
C629 C 0.58498 0.38526 0.5163 0.0
C630 C 0.59153 0.41738 0.63746 0.0
C631 C 0.57848 0.44375 0.60507 0.0
N632 N 0.57494 0.47002 0.48094 0.0
N633 N 0.60307 0.36058 0.62759 0.0
C634 C 0.57681 0.44264 0.52013 0.0
C635 C 0.59373 0.38737 0.59417 0.0
N636 N 0.56782 0.41141 0.40417 0.0
N637 N 0.60298 0.42148 0.7063 0.0
H638 H 0.60643 0.33865 0.59485 0.0
H639 H 0.60668 0.35978 0.68812 0.0
H640 H 0.60466 0.44381 0.73155 0.0
H641 H 0.61381 0.40351 0.73179 0.0
H642 H 0.55905 0.431 0.3789 0.0
H643 H 0.56665 0.39035 0.37144 0.0
H644 H 0.57577 0.47084 0.41718 0.0
H645 H 0.57588 0.49164 0.51182 0.0
C646 C 0.16035 0.54113 0.60518 0.0
C647 C 0.17582 0.55744 0.54572 0.0
C648 C 0.14784 0.60661 0.59772 0.0
C649 C 0.12831 0.58867 0.63853 0.0
N650 N 0.1157 0.53777 0.67944 0.0
N651 N 0.18732 0.60504 0.48843 0.0
C652 C 0.13478 0.55575 0.6447 0.0
C653 C 0.17095 0.59045 0.54525 0.0
N654 N 0.16953 0.51107 0.61931 0.0
N655 N 0.14345 0.63866 0.60687 0.0
H656 H 0.18438 0.62886 0.47777 0.0
H657 H 0.18438 0.62886 0.47777 0.0
H658 H 0.12628 0.65036 0.6448 0.0
H659 H 0.15765 0.65333 0.58376 0.0
H660 H 0.16008 0.49862 0.66673 0.0
H661 H 0.18821 0.50014 0.58851 0.0
H662 H 0.11859 0.51327 0.67558 0.0
H663 H 0.09622 0.54694 0.70682 0.0
C664 C 0.08542 0.83712 0.22859 0.0
C665 C 0.10827 0.8154 0.19395 0.0
C666 C 0.11996 0.85006 0.08215 0.0
C667 C 0.09775 0.87212 0.11901 0.0
N668 N 0.06388 0.89068 0.23748 0.0
N669 N 0.14995 0.80326 0.09781 0.0
C670 C 0.08203 0.86697 0.19579 0.0
C671 C 0.12647 0.82259 0.12383 0.0
N672 N 0.06595 0.82859 0.28909 0.0
N673 N 0.1341 0.85482 1.00608 0.0
H674 H 0.15505 0.78295 0.12731 0.0
H675 H 0.16528 0.8086 0.05174 0.0
H676 H 0.1302 0.87502 0.97477 0.0
H677 H 0.14855 0.83802 0.97171 0.0
H678 H 0.04752 0.84226 0.30944 0.0
H679 H 0.06682 0.80663 0.31392 0.0
H680 H 0.05396 0.88934 0.29798 0.0
H681 H 0.06068 0.91288 0.21475 0.0
C682 C 0.63763 0.11208 0.20181 0.0
C683 C 0.65737 0.13167 0.16991 0.0
C684 C 0.62809 0.15335 0.07625 0.0
C685 C 0.60839 0.13399 0.10909 0.0
N686 N 0.59116 0.10138 0.21725 0.0
N687 N 0.66978 0.17508 0.08959 0.0
C688 C 0.61203 0.11573 0.1771 0.0
C689 C 0.65203 0.15376 0.11121 0.0
N690 N 0.64393 0.08833 0.25092 0.0
N691 N 0.6242 0.17049 0.01011 0.0
H692 H 0.68747 0.17567 0.11427 0.0
H693 H 0.66608 0.19361 0.05256 0.0
H694 H 0.60628 0.17174 0.98609 0.0
H695 H 0.63898 0.18233 0.97695 0.0
H696 H 0.63145 0.07099 0.26733 0.0
H697 H 0.66262 0.08392 0.26947 0.0
H698 H 0.59174 0.09091 0.27314 0.0
H699 H 0.5723 0.10236 0.19925 0.0
C700 C 0.44852 0.60152 0.04095 0.0
C701 C 0.45749 0.62909 0.00629 0.0
C702 C 0.46399 0.60262 0.86811 0.0
C703 C 0.4627 0.57355 0.9051 0.0
N704 N 0.44988 0.54465 0.024 0.0
N705 N 0.47359 0.65635 0.88494 0.0
C706 C 0.45311 0.5729 0.99078 0.0
C707 C 0.46441 0.63016 0.91896 0.0
N708 N 0.43638 0.60282 0.12205 0.0
N709 N 0.46577 0.60354 0.78437 0.0
H710 H 0.4746 0.67701 0.91959 0.0
H711 H 0.48189 0.65695 0.8226 0.0
H712 H 0.46456 0.58361 0.74692 0.0
H713 H 0.46515 0.62435 0.7539 0.0
H714 H 0.42789 0.58406 0.1501 0.0
H715 H 0.43279 0.62381 0.15917 0.0
H716 H 0.44603 0.54177 0.08735 0.0
H717 H 0.45177 0.52389 0.98658 0.0
C718 C 0.84458 0.40909 0.13799 0.0
C719 C 0.84283 0.38658 0.1989 0.0
C720 C 0.88551 0.35766 0.12865 0.0
C721 C 0.88987 0.38371 0.0801 0.0
N722 N 0.87368 0.43379 0.03387 0.0
N723 N 0.85898 0.33738 0.248 0.0
C724 C 0.86911 0.4089 0.08162 0.0
C725 C 0.86228 0.35977 0.19163 0.0
N726 N 0.82314 0.43117 0.13582 0.0
N727 N 0.90394 0.3314 0.11505 0.0
H728 H 0.84139 0.33797 0.29187 0.0
H729 H 0.87357 0.31882 0.25273 0.0
H730 H 0.92103 0.32967 0.06891 0.0
H731 H 0.90141 0.31066 0.1445 0.0
H732 H 0.8222 0.44628 0.08818 0.0
H733 H 0.80509 0.43259 0.17755 0.0
H734 H 0.86094 0.45483 0.04027 0.0
H735 H 0.8911 0.43421 0.99009 0.0
C736 C 0.01901 0.14502 0.96677 0.0
C737 C 0.02206 0.16836 0.90816 0.0
C738 C 0.02014 0.12825 0.79716 0.0
C739 C 1.01471 0.10562 0.85707 0.0
N740 N 1.0015 0.09627 1.00192 0.0
N741 N 0.02344 0.1818 0.76552 0.0
C742 C 1.01194 0.11514 0.94269 0.0
C743 C 0.02169 0.16001 0.82349 0.0
N744 N 0.02462 0.1504 0.04454 0.0
N745 N 0.02465 0.11972 0.71428 0.0
H746 H 0.02417 0.2057 0.7791 0.0
H747 H 0.02417 0.2057 0.7791 0.0
H748 H 0.02599 0.09657 0.69031 0.0
H749 H 0.02862 0.13584 0.66922 0.0
H750 H 0.02624 0.13261 0.0853 0.0
H751 H 0.03068 0.17142 0.06519 0.0
H752 H 0.99644 0.10368 0.06453 0.0
H753 H 0.99504 0.07467 0.98821 0.0
C754 C 0.39436 0.02313 0.04186 0.0
C755 C 0.37313 0.0229 0.99486 0.0
C756 C 0.40692 0.02075 0.86627 0.0
C757 C 0.42779 0.02371 0.91379 0.0
N758 N 0.44034 0.03258 0.04823 0.0
N759 N 0.3587 0.02572 0.86251 0.0
C760 C 0.42111 0.02664 1.0019 0.0
C761 C 0.37932 0.02278 0.90697 0.0
N762 N 0.38937 0.01796 0.12441 0.0
N763 N 0.41345 0.016 0.78202 0.0
H764 H 0.33844 0.02743 0.8902 0.0
H765 H 0.36141 0.02897 0.7993 0.0
H766 H 0.43294 0.01658 0.74962 0.0
H767 H 0.39992 0.00983 0.7444 0.0
H768 H 0.40452 0.01396 0.15992 0.0
H769 H 0.37039 0.01446 0.15609 0.0
H770 H 0.43587 0.03907 0.11141 0.0
H771 H 0.46057 0.03317 0.02322 0.0
C772 C 0.51702 0.36611 0.90734 0.0
C773 C 0.50755 0.36865 0.99416 0.0
C774 C 0.49332 0.42511 0.98473 0.0
C775 C 0.50675 0.42352 0.90101 0.0
N776 N 0.53553 0.39232 0.78681 0.0
N777 N 0.48998 0.40222 0.11795 0.0
C778 C 0.51949 0.3939 0.86303 0.0
C779 C 0.49638 0.39857 0.03352 0.0
N780 N 0.52348 0.33702 0.86686 0.0
N781 N 0.47702 0.45178 0.01727 0.0
H782 H 0.49225 0.38375 0.15637 0.0
H783 H 0.48465 0.4241 0.15029 0.0
H784 H 0.47367 0.47119 0.98269 0.0
H785 H 0.46465 0.45333 0.07518 0.0
H786 H 0.52798 0.33356 0.80253 0.0
H787 H 0.52162 0.31627 0.89722 0.0
H788 H 0.54763 0.37196 0.76049 0.0
H789 H 0.53897 0.41193 0.7531 0.0
C790 C 0.12381 0.51732 0.88763 0.0
C791 C 0.13778 0.48677 0.88766 0.0
C792 C 0.10246 0.4646 0.82418 0.0
C793 C 0.08654 0.49438 0.83654 0.0
N794 N 0.08114 0.54891 0.88684 0.0
N795 N 0.1405 0.43091 0.85764 0.0
C796 C 0.09711 0.52082 0.86908 0.0
C797 C 0.12723 0.4603 0.85556 0.0
N798 N 0.13608 0.54306 0.90568 0.0
N799 N 0.09412 0.4406 0.78079 0.0
H800 H 0.1593 0.42714 0.8761 0.0
H801 H 0.13236 0.41026 0.84512 0.0
H802 H 0.07631 0.44315 0.75625 0.0
H803 H 0.10587 0.41917 0.76267 0.0
H804 H 0.12829 0.56603 0.89787 0.0
H805 H 0.15535 0.5413 0.92107 0.0
H806 H 0.08643 0.56793 0.91988 0.0
H807 H 0.06166 0.55266 0.87362 0.0
C808 C 1.01063 0.87303 0.60202 0.0
C809 C 1.00418 0.84958 0.65841 0.0
C810 C 1.00049 0.88908 0.77507 0.0
C811 C 1.00443 0.91299 0.71846 0.0
N812 N 1.00949 0.92849 0.57751 0.0
N813 N 0.98858 0.83631 0.79793 0.0
C814 C 1.00812 0.90519 0.63181 0.0
C815 C 0.99785 0.85795 0.74485 0.0
N816 N 0.02085 0.86444 0.52058 0.0
N817 N 0.99974 0.89594 0.85766 0.0
H818 H 0.98614 0.81351 0.77775 0.0
H819 H 0.98102 0.84172 0.86056 0.0
H820 H 1.00108 0.91848 0.88221 0.0
H821 H 0.99991 0.87892 0.90097 0.0
H822 H 0.02889 0.87993 0.47867 0.0
H823 H 0.02375 0.8412 0.49608 0.0
H824 H 1.00883 0.92469 0.51474 0.0
H825 H 1.0094 0.9521 0.59588 0.0
C826 C 0.64509 0.99728 0.68962 0.0
C827 C 0.65035 0.01326 0.61568 0.0
C828 C 0.60147 0.0295 0.62623 0.0
C829 C 0.59615 0.01429 0.70183 0.0
N830 N 0.61342 0.98819 0.8125 0.0
N831 N 0.63421 0.04813 0.51889 0.0
C832 C 0.61817 0.99958 0.73565 0.0
C833 C 0.62867 0.03026 0.58538 0.0
N834 N 0.66584 0.97915 0.71462 0.0
N835 N 0.58039 0.04356 0.59359 0.0
H836 H 0.65362 0.04863 0.4858 0.0
H837 H 0.62001 0.06411 0.49911 0.0
H838 H 0.5607 0.047 0.62593 0.0
H839 H 0.5821 0.051 0.53362 0.0
H840 H 0.66323 0.964 0.76238 0.0
H841 H 0.68572 0.97751 0.68341 0.0
H842 H 0.62857 0.98022 0.84493 0.0
H843 H 0.59415 0.98893 0.84709 0.0
C844 C 0.53188 0.61305 0.5078 0.0
C845 C 0.53579 0.64171 0.5491 0.0
C846 C 0.53703 0.61432 0.67779 0.0
C847 C 0.53465 0.58539 0.63503 0.0
N848 N 0.53533 0.55604 0.50581 0.0
N849 N 0.54664 0.66864 0.66905 0.0
C850 C 0.53379 0.58446 0.54887 0.0
C851 C 0.53979 0.642 0.63286 0.0
N852 N 0.525 0.61332 0.4306 0.0
N853 N 0.53526 0.61575 0.76198 0.0
H854 H 0.54862 0.68923 0.63808 0.0
H855 H 0.55253 0.6696 0.7269 0.0
H856 H 0.53317 0.59615 0.79693 0.0
H857 H 0.53382 0.63669 0.79806 0.0
H858 H 0.51888 0.59397 0.40118 0.0
H859 H 0.52311 0.63362 0.3983 0.0
H860 H 0.53746 0.55337 0.44157 0.0
H861 H 0.53702 0.53467 0.53361 0.0
C862 C 0.89049 0.50278 0.67284 0.0
C863 C 0.86852 0.51816 0.73129 0.0
C864 C 0.90019 0.53237 0.82221 0.0
C865 C 0.92184 0.51479 0.76683 0.0
N866 N 0.9377 0.48151 0.64187 0.0
N867 N 0.8516 0.54563 0.86389 0.0
C868 C 0.91698 0.49954 0.69282 0.0
C869 C 0.87316 0.53257 0.80652 0.0
N870 N 0.88608 0.49179 0.59714 0.0
N871 N 0.90553 0.54896 0.88964 0.0
H872 H 0.83178 0.54707 0.85294 0.0
H873 H 0.85301 0.55351 0.92377 0.0
H874 H 0.92478 0.54814 0.90501 0.0
H875 H 0.89134 0.56492 0.92787 0.0
H876 H 0.90142 0.48382 0.54784 0.0
H877 H 0.86696 0.49263 0.58087 0.0
H878 H 0.93508 0.46621 0.59352 0.0
H879 H 0.95768 0.48047 0.65042 0.0
loop_
_geom_bond_atom_site_label_1
_geom_bond_atom_site_label_2
_geom_bond_distance
_geom_bond_site_symmetry_2
_ccdc_geom_bond_type
C0 C1 1.384 . S
C0 H13 0.947 . S
C0 C35 1.382 . S
C1 C0 1.384 . S
C1 C2 1.378 . S
C2 C1 1.378 . S
C2 C3 1.378 . S
C2 H14 0.952 . S
C3 C2 1.378 . S
C3 H15 0.950 . S
C3 C34 1.383 . S
H4 C23 0.947 . S
H5 C24 0.946 . S
H6 C26 0.953 . S
H7 C27 0.945 . S
H8 C29 0.952 . S
H9 C30 0.949 . S
H10 C32 0.950 . S
H11 C33 0.948 . S
H12 C35 0.951 . S
H13 C0 0.947 . S
H14 C2 0.952 . S
H15 C3 0.950 . S
N16 C19 1.382 . S
N16 C21 1.363 . S
N17 C19 1.371 . S
N17 C20 1.372 . S
N18 C20 1.361 . S
N18 C21 1.377 . S
C19 N16 1.382 . S
C19 N17 1.371 . S
C19 C22 1.480 . S
C20 N17 1.372 . S
C20 N18 1.361 . S
C20 C28 1.457 . S
C21 N16 1.363 . S
C21 N18 1.377 . S
C21 C34 1.479 . S
C22 C19 1.480 . S
C22 C23 1.383 . S
C22 C27 1.385 . S
C23 H4 0.947 . S
C23 C22 1.383 . S
C23 C24 1.388 . S
C24 H5 0.946 . S
C24 C23 1.388 . S
C24 C25 1.384 . S
C25 C24 1.384 . S
C25 C26 1.377 . S
C26 H6 0.953 . S
C26 C25 1.377 . S
C26 C27 1.369 . S
C27 H7 0.945 . S
C27 C22 1.385 . S
C27 C26 1.369 . S
C28 C20 1.457 . S
C28 C29 1.372 . S
C28 C33 1.364 . S
C29 H8 0.952 . S
C29 C28 1.372 . S
C29 C30 1.389 . S
C30 H9 0.949 . S
C30 C29 1.389 . S
C30 C31 1.387 . S
C31 C30 1.387 . S
C31 C32 1.372 . S
C32 H10 0.950 . S
C32 C31 1.372 . S
C32 C33 1.379 . S
C33 H11 0.948 . S
C33 C28 1.364 . S
C33 C32 1.379 . S
C34 C3 1.383 . S
C34 C21 1.479 . S
C34 C35 1.398 . S
C35 C0 1.382 . S
C35 H12 0.951 . S
C35 C34 1.398 . S
C36 C37 1.383 1_655 S
C36 H49 0.947 . S
C36 C71 1.383 1_655 S
C37 C36 1.383 1_455 S
C37 C38 1.378 . S
C38 C37 1.378 . S
C38 C39 1.378 . S
C38 H50 0.952 . S
C39 C38 1.378 . S
C39 H51 0.950 . S
C39 C70 1.383 . S
H40 C59 0.947 . S
H41 C60 0.951 . S
H42 C62 0.953 . S
H43 C63 0.945 . S
H44 C65 0.946 1_655 S
H45 C66 0.965 . S
H46 C68 0.950 . S
H47 C69 0.948 . S
H48 C71 0.951 1_655 S
H49 C36 0.947 . S
H50 C38 0.952 . S
H51 C39 0.950 . S
N52 C55 1.382 . S
N52 C57 1.363 . S
N53 C55 1.371 . S
N53 C56 1.372 . S
N54 C56 1.361 . S
N54 C57 1.377 . S
C55 N52 1.382 . S
C55 N53 1.371 . S
C55 C58 1.480 . S
C56 N53 1.372 . S
C56 N54 1.361 . S
C56 C64 1.457 . S
C57 N52 1.363 . S
C57 N54 1.377 . S
C57 C70 1.479 . S
C58 C55 1.480 . S
C58 C59 1.383 . S
C58 C63 1.385 . S
C59 H40 0.947 . S
C59 C58 1.383 . S
C59 C60 1.381 1_455 S
C60 H41 0.951 . S
C60 C59 1.381 1_655 S
C60 C61 1.387 1_655 S
C61 C60 1.387 1_455 S
C61 C62 1.377 . S
C62 H42 0.953 . S
C62 C61 1.377 . S
C62 C63 1.369 . S
C63 H43 0.945 . S
C63 C58 1.385 . S
C63 C62 1.369 . S
C64 C56 1.457 . S
C64 C65 1.381 . S
C64 C69 1.364 . S
C65 H44 0.946 1_455 S
C65 C64 1.381 . S
C65 C66 1.384 1_455 S
C66 H45 0.965 . S
C66 C65 1.384 1_655 S
C66 C67 1.376 1_655 S
C67 C66 1.376 1_455 S
C67 C68 1.372 . S
C68 H46 0.950 . S
C68 C67 1.372 . S
C68 C69 1.379 . S
C69 H47 0.948 . S
C69 C64 1.364 . S
C69 C68 1.379 . S
C70 C39 1.383 . S
C70 C57 1.479 . S
C70 C71 1.398 . S
C71 C36 1.383 1_455 S
C71 H48 0.951 1_455 S
C71 C70 1.398 . S
C72 C73 1.383 1_565 S
C72 H85 0.948 . S
C72 C107 1.381 1_565 S
C73 C72 1.383 1_545 S
C73 C74 1.378 . S
C74 C73 1.378 . S
C74 C75 1.378 . S
C74 H86 0.952 . S
C75 C74 1.378 . S
C75 H87 0.950 . S
C75 C106 1.383 . S
H76 C95 0.947 . S
H77 C96 0.951 . S
H78 C98 0.953 . S
H79 C99 0.945 . S
H80 C101 0.951 1_565 S
H81 C102 0.949 . S
H82 C104 0.950 . S
H83 C105 0.948 . S
H84 C107 0.951 1_565 S
H85 C72 0.948 . S
H86 C74 0.952 . S
H87 C75 0.950 . S
N88 C91 1.382 . S
N88 C93 1.363 . S
N89 C91 1.371 . S
N89 C92 1.372 . S
N90 C92 1.361 . S
N90 C93 1.377 . S
C91 N88 1.382 . S
C91 N89 1.371 . S
C91 C94 1.480 . S
C92 N89 1.372 . S
C92 N90 1.361 . S
C92 C100 1.457 . S
C93 N88 1.363 . S
C93 N90 1.377 . S
C93 C106 1.479 . S
C94 C91 1.480 . S
C94 C95 1.383 . S
C94 C99 1.385 . S
C95 H76 0.947 . S
C95 C94 1.383 . S
C95 C96 1.389 1_545 S
C96 H77 0.951 . S
C96 C95 1.389 1_565 S
C96 C97 1.379 1_565 S
C97 C96 1.379 1_545 S
C97 C98 1.377 . S
C98 H78 0.953 . S
C98 C97 1.377 . S
C98 C99 1.369 . S
C99 H79 0.945 . S
C99 C94 1.385 . S
C99 C98 1.369 . S
C100 C92 1.457 . S
C100 C101 1.375 . S
C100 C105 1.364 . S
C101 H80 0.951 1_545 S
C101 C100 1.375 . S
C101 C102 1.387 1_545 S
C102 H81 0.949 . S
C102 C101 1.387 1_565 S
C102 C103 1.387 1_565 S
C103 C102 1.387 1_545 S
C103 C104 1.372 . S
C104 H82 0.950 . S
C104 C103 1.372 . S
C104 C105 1.379 . S
C105 H83 0.948 . S
C105 C100 1.364 . S
C105 C104 1.379 . S
C106 C75 1.383 . S
C106 C93 1.479 . S
C106 C107 1.399 . S
C107 C72 1.381 1_545 S
C107 H84 0.951 1_545 S
C107 C106 1.399 . S
C108 C109 1.384 1_554 S
C108 H121 0.947 . S
C108 C143 1.382 . S
C109 C108 1.384 1_556 S
C109 C110 1.378 . S
C110 C109 1.378 . S
C110 C111 1.378 . S
C110 H122 0.952 . S
C111 C110 1.378 . S
C111 H123 0.950 . S
C111 C142 1.383 1_556 S
H112 C131 0.947 . S
H113 C132 0.946 . S
H114 C134 0.953 . S
H115 C135 0.945 . S
H116 C137 0.952 . S
H117 C138 0.949 . S
H118 C140 0.950 . S
H119 C141 0.948 . S
H120 C143 0.951 . S
H121 C108 0.947 . S
H122 C110 0.952 . S
H123 C111 0.950 . S
N124 C127 1.382 . S
N124 C129 1.363 . S
N125 C127 1.371 . S
N125 C128 1.372 . S
N126 C128 1.361 . S
N126 C129 1.377 . S
C127 N124 1.382 . S
C127 N125 1.371 . S
C127 C130 1.480 . S
C128 N125 1.372 . S
C128 N126 1.361 . S
C128 C136 1.457 . S
C129 N124 1.363 . S
C129 N126 1.377 . S
C129 C142 1.479 . S
C130 C127 1.480 . S
C130 C131 1.383 . S
C130 C135 1.385 . S
C131 H112 0.947 . S
C131 C130 1.383 . S
C131 C132 1.388 . S
C132 H113 0.946 . S
C132 C131 1.388 . S
C132 C133 1.384 . S
C133 C132 1.384 . S
C133 C134 1.377 . S
C134 H114 0.953 . S
C134 C133 1.377 . S
C134 C135 1.369 . S
C135 H115 0.945 . S
C135 C130 1.385 . S
C135 C134 1.369 . S
C136 C128 1.457 . S
C136 C137 1.372 . S
C136 C141 1.364 . S
C137 H116 0.952 . S
C137 C136 1.372 . S
C137 C138 1.389 . S
C138 H117 0.949 . S
C138 C137 1.389 . S
C138 C139 1.387 . S
C139 C138 1.387 . S
C139 C140 1.372 . S
C140 H118 0.950 . S
C140 C139 1.372 . S
C140 C141 1.379 . S
C141 H119 0.948 . S
C141 C136 1.364 . S
C141 C140 1.379 . S
C142 C111 1.383 1_554 S
C142 C129 1.479 . S
C142 C143 1.398 . S
C143 C108 1.382 . S
C143 H120 0.951 . S
C143 C142 1.398 . S
C144 C145 1.384 . S
C144 H157 0.947 . S
C144 C179 1.382 . S
C145 C144 1.384 . S
C145 C146 1.378 . S
C146 C145 1.378 . S
C146 C147 1.378 . S
C146 H158 0.952 . S
C147 C146 1.378 . S
C147 H159 0.950 . S
C147 C178 1.383 . S
H148 C167 0.947 . S
H149 C168 0.946 . S
H150 C170 0.953 . S
H151 C171 0.945 . S
H152 C173 0.952 . S
H153 C174 0.949 . S
H154 C176 0.950 . S
H155 C177 0.948 . S
H156 C179 0.951 . S
H157 C144 0.947 . S
H158 C146 0.952 . S
H159 C147 0.950 . S
N160 C163 1.382 1_556 S
N160 C165 1.363 . S
N161 C163 1.371 . S
N161 C164 1.372 . S
N162 C164 1.361 1_556 S
N162 C165 1.377 . S
C163 N160 1.382 1_554 S
C163 N161 1.371 . S
C163 C166 1.480 . S
C164 N161 1.372 . S
C164 N162 1.361 1_554 S
C164 C172 1.457 . S
C165 N160 1.363 . S
C165 N162 1.377 . S
C165 C178 1.479 . S
C166 C163 1.480 . S
C166 C167 1.383 1_554 S
C166 C171 1.385 . S
C167 H148 0.947 . S
C167 C166 1.383 1_556 S
C167 C168 1.388 . S
C168 H149 0.946 . S
C168 C167 1.388 . S
C168 C169 1.384 1_556 S
C169 C168 1.384 1_554 S
C169 C170 1.377 . S
C170 H150 0.953 . S
C170 C169 1.377 . S
C170 C171 1.369 . S
C171 H151 0.945 . S
C171 C166 1.385 . S
C171 C170 1.369 . S
C172 C164 1.457 . S
C172 C173 1.372 . S
C172 C177 1.364 . S
C173 H152 0.952 . S
C173 C172 1.372 . S
C173 C174 1.389 . S
C174 H153 0.949 . S
C174 C173 1.389 . S
C174 C175 1.387 . S
C175 C174 1.387 . S
C175 C176 1.372 . S
C176 H154 0.950 . S
C176 C175 1.372 . S
C176 C177 1.379 . S
C177 H155 0.948 . S
C177 C172 1.364 . S
C177 C176 1.379 . S
C178 C147 1.383 . S
C178 C165 1.479 . S
C178 C179 1.398 . S
C179 C144 1.382 . S
C179 H156 0.951 . S
C179 C178 1.398 . S
C180 C181 1.384 . S
C180 H193 0.948 1_455 S
C180 C215 1.379 . S
C181 C180 1.384 . S
C181 C182 1.378 . S
C182 C181 1.378 . S
C182 C183 1.378 . S
C182 H194 0.952 . S
C183 C182 1.378 . S
C183 H195 0.950 . S
C183 C214 1.383 . S
H184 C203 0.947 . S
H185 C204 0.950 . S
H186 C206 0.953 . S
H187 C207 0.945 . S
H188 C209 0.952 1_655 S
H189 C210 0.948 . S
H190 C212 0.950 . S
H191 C213 0.948 . S
H192 C215 0.951 1_654 S
H193 C180 0.948 1_655 S
H194 C182 0.952 . S
H195 C183 0.950 . S
N196 C199 1.382 . S
N196 C201 1.363 . S
N197 C199 1.371 . S
N197 C200 1.372 . S
N198 C200 1.361 . S
N198 C201 1.377 . S
C199 N196 1.382 . S
C199 N197 1.371 . S
C199 C202 1.480 . S
C200 N197 1.372 . S
C200 N198 1.361 . S
C200 C208 1.457 . S
C201 N196 1.363 . S
C201 N198 1.377 . S
C201 C214 1.479 1_554 S
C202 C199 1.480 . S
C202 C203 1.383 . S
C202 C207 1.385 . S
C203 H184 0.947 . S
C203 C202 1.383 . S
C203 C204 1.389 1_455 S
C204 H185 0.950 . S
C204 C203 1.389 1_655 S
C204 C205 1.379 1_655 S
C205 C204 1.379 1_455 S
C205 C206 1.377 . S
C206 H186 0.953 . S
C206 C205 1.377 . S
C206 C207 1.369 . S
C207 H187 0.945 . S
C207 C202 1.385 . S
C207 C206 1.369 . S
C208 C200 1.457 . S
C208 C209 1.373 . S
C208 C213 1.364 . S
C209 H188 0.952 1_455 S
C209 C208 1.373 . S
C209 C210 1.390 1_455 S
C210 H189 0.948 . S
C210 C209 1.390 1_655 S
C210 C211 1.388 1_655 S
C211 C210 1.388 1_455 S
C211 C212 1.372 . S
C212 H190 0.950 . S
C212 C211 1.372 . S
C212 C213 1.379 . S
C213 H191 0.948 . S
C213 C208 1.364 . S
C213 C212 1.379 . S
C214 C183 1.383 . S
C214 C201 1.479 1_556 S
C214 C215 1.401 . S
C215 C180 1.379 . S
C215 H192 0.951 1_456 S
C215 C214 1.401 . S
C216 C217 1.384 1_565 S
C216 H229 0.947 . S
C216 C251 1.382 1_566 S
C217 C216 1.384 1_545 S
C217 C218 1.378 . S
C218 C217 1.378 . S
C218 C219 1.378 . S
C218 H230 0.952 . S
C219 C218 1.378 . S
C219 H231 0.950 1_556 S
C219 C250 1.383 1_556 S
H220 C239 0.947 . S
H221 C240 0.950 . S
H222 C242 0.953 . S
H223 C243 0.945 . S
H224 C245 0.944 1_565 S
H225 C246 0.958 . S
H226 C248 0.950 . S
H227 C249 0.948 . S
H228 C251 0.950 1_565 S
H229 C216 0.947 . S
H230 C218 0.952 . S
H231 C219 0.950 1_554 S
N232 C235 1.382 . S
N232 C237 1.363 . S
N233 C235 1.371 . S
N233 C236 1.372 . S
N234 C236 1.361 . S
N234 C237 1.377 . S
C235 N232 1.382 . S
C235 N233 1.371 . S
C235 C238 1.480 . S
C236 N233 1.372 . S
C236 N234 1.361 . S
C236 C244 1.457 . S
C237 N232 1.363 . S
C237 N234 1.377 . S
C237 C250 1.479 . S
C238 C235 1.480 . S
C238 C239 1.383 . S
C238 C243 1.385 . S
C239 H220 0.947 . S
C239 C238 1.383 . S
C239 C240 1.384 1_545 S
C240 H221 0.950 . S
C240 C239 1.384 1_565 S
C240 C241 1.384 1_565 S
C241 C240 1.384 1_545 S
C241 C242 1.377 . S
C242 H222 0.953 . S
C242 C241 1.377 . S
C242 C243 1.369 . S
C243 H223 0.945 . S
C243 C238 1.385 . S
C243 C242 1.369 . S
C244 C236 1.457 . S
C244 C245 1.382 . S
C244 C249 1.364 . S
C245 H224 0.944 1_545 S
C245 C244 1.382 . S
C245 C246 1.389 1_545 S
C246 H225 0.958 . S
C246 C245 1.389 1_565 S
C246 C247 1.379 1_565 S
C247 C246 1.379 1_545 S
C247 C248 1.372 . S
C248 H226 0.950 . S
C248 C247 1.372 . S
C248 C249 1.379 . S
C249 H227 0.948 . S
C249 C244 1.364 . S
C249 C248 1.379 . S
C250 C219 1.383 1_554 S
C250 C237 1.479 . S
C250 C251 1.398 . S
C251 C216 1.382 1_544 S
C251 H228 0.950 1_545 S
C251 C250 1.398 . S
C252 C253 1.384 . S
C252 H265 0.947 . S
C252 C287 1.382 . S
C253 C252 1.384 . S
C253 C254 1.378 . S
C254 C253 1.378 . S
C254 C255 1.378 . S
C254 H266 0.952 . S
C255 C254 1.378 . S
C255 H267 0.950 . S
C255 C286 1.383 . S
H256 C275 0.947 . S
H257 C276 0.946 . S
H258 C278 0.953 . S
H259 C279 0.945 . S
H260 C281 0.952 . S
H261 C282 0.949 . S
H262 C284 0.950 . S
H263 C285 0.948 . S
H264 C287 0.951 . S
H265 C252 0.947 . S
H266 C254 0.952 . S
H267 C255 0.950 . S
N268 C271 1.382 . S
N268 C273 1.363 . S
N269 C271 1.371 . S
N269 C272 1.372 . S
N270 C272 1.361 . S
N270 C273 1.377 . S
C271 N268 1.382 . S
C271 N269 1.371 . S
C271 C274 1.480 . S
C272 N269 1.372 . S
C272 N270 1.361 . S
C272 C280 1.457 . S
C273 N268 1.363 . S
C273 N270 1.377 . S
C273 C286 1.479 . S
C274 C271 1.480 . S
C274 C275 1.383 . S
C274 C279 1.385 . S
C275 H256 0.947 . S
C275 C274 1.383 . S
C275 C276 1.388 . S
C276 H257 0.946 . S
C276 C275 1.388 . S
C276 C277 1.384 . S
C277 C276 1.384 . S
C277 C278 1.377 . S
C278 H258 0.953 . S
C278 C277 1.377 . S
C278 C279 1.369 . S
C279 H259 0.945 . S
C279 C274 1.385 . S
C279 C278 1.369 . S
C280 C272 1.457 . S
C280 C281 1.372 . S
C280 C285 1.364 . S
C281 H260 0.952 . S
C281 C280 1.372 . S
C281 C282 1.389 . S
C282 H261 0.949 . S
C282 C281 1.389 . S
C282 C283 1.387 . S
C283 C282 1.387 . S
C283 C284 1.372 . S
C284 H262 0.950 . S
C284 C283 1.372 . S
C284 C285 1.379 . S
C285 H263 0.948 . S
C285 C280 1.364 . S
C285 C284 1.379 . S
C286 C255 1.383 . S
C286 C273 1.479 . S
C286 C287 1.398 . S
C287 C252 1.382 . S
C287 H264 0.951 . S
C287 C286 1.398 . S
Dy288 O291 2.307 1_545 S
Dy288 O293 2.380 1_655 S
Dy288 O294 2.379 . S
Dy288 O296 2.339 . S
Dy288 O298 2.298 . S
Dy288 O302 2.275 1_655 S
Dy288 C310 2.738 . S
Dy289 O292 2.298 . S
Dy289 O295 2.275 1_455 S
Dy289 O297 2.307 1_565 S
Dy289 O299 2.384 1_455 S
Dy289 O300 2.379 . S
Dy289 O303 2.339 . S
Dy289 C319 2.738 . S
C290 O302 1.254 1_565 S
C290 O303 1.257 . S
O291 Dy288 2.307 1_565 S
O291 C301 1.266 . S
O292 Dy289 2.298 . S
O292 C301 1.236 1_455 S
O293 Dy288 2.380 1_455 S
O293 C310 1.222 1_455 S
O294 Dy288 2.379 . S
O294 C310 1.249 . S
O295 Dy289 2.275 1_655 S
O295 C311 1.254 1_565 S
O296 Dy288 2.339 . S
O296 C311 1.257 . S
O297 Dy289 2.307 1_545 S
O297 C312 1.266 . S
O298 Dy288 2.298 . S
O298 C312 1.236 1_655 S
O299 Dy289 2.384 1_655 S
O299 C319 1.231 1_655 S
O300 Dy289 2.379 . S
O300 C319 1.249 . S
C301 O291 1.266 . S
C301 O292 1.236 1_655 S
O302 Dy288 2.275 1_455 S
O302 C290 1.254 1_545 S
O303 Dy289 2.339 . S
O303 C290 1.257 . S
C304 C307 1.344 . S
C304 C308 1.328 . S
C304 C310 1.516 . S
C305 C306 1.304 . S
C305 C309 1.323 . S
C306 C305 1.304 . S
C306 C307 1.371 . S
C306 H320 0.930 1_655 S
C307 C304 1.344 . S
C307 C306 1.371 . S
C307 H321 0.931 1_655 S
C308 C304 1.328 . S
C308 C309 1.433 . S
C308 H322 0.931 . S
C309 C305 1.323 . S
C309 C308 1.433 . S
C309 H323 0.933 . S
C310 Dy288 2.738 . S
C310 O293 1.222 1_655 S
C310 O294 1.249 . S
C310 C304 1.516 . S
C311 O295 1.254 1_545 S
C311 O296 1.257 . S
C312 O297 1.266 . S
C312 O298 1.236 1_455 S
C313 C316 1.344 1_556 S
C313 C317 1.328 1_556 S
C313 C319 1.516 . S
C314 C315 1.304 . S
C314 C318 1.323 . S
C315 C314 1.304 . S
C315 C316 1.371 . S
C315 H324 0.930 1_455 S
C316 C313 1.344 1_554 S
C316 C315 1.371 . S
C316 H325 0.931 1_455 S
C317 C313 1.328 1_554 S
C317 C318 1.433 . S
C317 H326 0.931 1_554 S
C318 C314 1.323 . S
C318 C317 1.433 . S
C318 H327 0.933 . S
C319 Dy289 2.738 . S
C319 O299 1.231 1_455 S
C319 O300 1.249 . S
C319 C313 1.516 . S
H320 C306 0.930 1_455 S
H321 C307 0.931 1_455 S
H322 C308 0.931 . S
H323 C309 0.933 . S
H324 C315 0.930 1_655 S
H325 C316 0.931 1_655 S
H326 C317 0.931 1_556 S
H327 C318 0.933 . S
Dy328 O331 2.307 . S
Dy328 O333 2.395 1_565 S
Dy328 O334 2.379 . S
Dy328 O336 2.339 . S
Dy328 O338 2.298 . S
Dy328 O342 2.275 1_565 S
Dy328 C350 2.738 . S
Dy329 O332 2.298 . S
Dy329 O335 2.275 1_545 S
Dy329 O337 2.307 . S
Dy329 O339 2.395 1_545 S
Dy329 O340 2.379 . S
Dy329 O343 2.339 . S
Dy329 C359 2.738 . S
C330 O342 1.254 . S
C330 O343 1.257 . S
O331 Dy328 2.307 . S
O331 C341 1.266 . S
O332 Dy329 2.298 . S
O332 C341 1.236 1_545 S
O333 Dy328 2.395 1_545 S
O333 C350 1.255 1_545 S
O334 Dy328 2.379 . S
O334 C350 1.249 . S
O335 Dy329 2.275 1_565 S
O335 C351 1.254 . S
O336 Dy328 2.339 . S
O336 C351 1.257 . S
O337 Dy329 2.307 . S
O337 C352 1.266 . S
O338 Dy328 2.298 . S
O338 C352 1.236 1_565 S
O339 Dy329 2.395 1_565 S
O339 C359 1.255 1_565 S
O340 Dy329 2.379 . S
O340 C359 1.249 . S
C341 O331 1.266 . S
C341 O332 1.236 1_565 S
O342 Dy328 2.275 1_545 S
O342 C330 1.254 . S
O343 Dy329 2.339 . S
O343 C330 1.257 . S
C344 C347 1.344 . S
C344 C348 1.328 . S
C344 C350 1.516 . S
C345 C346 1.304 . S
C345 C349 1.323 . S
C346 C345 1.304 . S
C346 C347 1.371 . S
C346 H360 0.930 1_565 S
C347 C344 1.344 . S
C347 C346 1.371 . S
C347 H361 0.931 1_565 S
C348 C344 1.328 . S
C348 C349 1.433 . S
C348 H362 0.931 . S
C349 C345 1.323 . S
C349 C348 1.433 . S
C349 H363 0.933 . S
C350 Dy328 2.738 . S
C350 O333 1.255 1_565 S
C350 O334 1.249 . S
C350 C344 1.516 . S
C351 O335 1.254 . S
C351 O336 1.257 . S
C352 O337 1.266 . S
C352 O338 1.236 1_545 S
C353 C356 1.346 . S
C353 C357 1.328 1_556 S
C353 C359 1.516 . S
C354 C355 1.304 . S
C354 C358 1.323 . S
C355 C354 1.304 . S
C355 C356 1.365 1_554 S
C355 H364 0.930 1_545 S
C356 C353 1.346 . S
C356 C355 1.365 1_556 S
C356 H365 0.935 1_545 S
C357 C353 1.328 1_554 S
C357 C358 1.433 . S
C357 H366 0.931 . S
C358 C354 1.323 . S
C358 C357 1.433 . S
C358 H367 0.933 . S
C359 Dy329 2.738 . S
C359 O339 1.255 1_545 S
C359 O340 1.249 . S
C359 C353 1.516 . S
H360 C346 0.930 1_545 S
H361 C347 0.931 1_545 S
H362 C348 0.931 . S
H363 C349 0.933 . S
H364 C355 0.930 1_565 S
H365 C356 0.935 1_565 S
H366 C357 0.931 . S
H367 C358 0.933 . S
Dy368 O371 2.307 . S
Dy368 O373 2.395 . S
Dy368 O374 2.379 . S
Dy368 O376 2.339 . S
Dy368 O378 2.298 . S
Dy368 O382 2.275 . S
Dy368 C390 2.738 . S
Dy369 O372 2.298 . S
Dy369 O375 2.275 . S
Dy369 O377 2.307 . S
Dy369 O379 2.395 . S
Dy369 O380 2.379 . S
Dy369 O383 2.339 . S
Dy369 C399 2.738 . S
C370 O382 1.254 . S
C370 O383 1.257 . S
O371 Dy368 2.307 . S
O371 C381 1.266 . S
O372 Dy369 2.298 . S
O372 C381 1.236 . S
O373 Dy368 2.395 . S
O373 C390 1.255 . S
O374 Dy368 2.379 . S
O374 C390 1.249 . S
O375 Dy369 2.275 . S
O375 C391 1.254 . S
O376 Dy368 2.339 . S
O376 C391 1.257 . S
O377 Dy369 2.307 . S
O377 C392 1.266 . S
O378 Dy368 2.298 . S
O378 C392 1.236 . S
O379 Dy369 2.395 . S
O379 C399 1.255 . S
O380 Dy369 2.379 . S
O380 C399 1.249 . S
C381 O371 1.266 . S
C381 O372 1.236 . S
O382 Dy368 2.275 . S
O382 C370 1.254 . S
O383 Dy369 2.339 . S
O383 C370 1.257 . S
C384 C387 1.344 1_556 S
C384 C388 1.328 . S
C384 C390 1.516 . S
C385 C386 1.304 . S
C385 C389 1.323 1_554 S
C386 C385 1.304 . S
C386 C387 1.371 . S
C386 H400 0.930 . S
C387 C384 1.344 1_554 S
C387 C386 1.371 . S
C387 H401 0.931 . S
C388 C384 1.328 . S
C388 C389 1.433 . S
C388 H402 0.931 . S
C389 C385 1.323 1_556 S
C389 C388 1.433 . S
C389 H403 0.933 . S
C390 Dy368 2.738 . S
C390 O373 1.255 . S
C390 O374 1.249 . S
C390 C384 1.516 . S
C391 O375 1.254 . S
C391 O376 1.257 . S
C392 O377 1.266 . S
C392 O378 1.236 . S
C393 C396 1.344 . S
C393 C397 1.328 . S
C393 C399 1.516 . S
C394 C395 1.304 . S
C394 C398 1.323 . S
C395 C394 1.304 . S
C395 C396 1.371 . S
C395 H404 0.930 . S
C396 C393 1.344 . S
C396 C395 1.371 . S
C396 H405 0.931 . S
C397 C393 1.328 . S
C397 C398 1.433 . S
C397 H406 0.931 . S
C398 C394 1.323 . S
C398 C397 1.433 . S
C398 H407 0.933 . S
C399 Dy369 2.738 . S
C399 O379 1.255 . S
C399 O380 1.249 . S
C399 C393 1.516 . S
H400 C386 0.930 . S
H401 C387 0.931 . S
H402 C388 0.931 . S
H403 C389 0.933 . S
H404 C395 0.930 . S
H405 C396 0.931 . S
H406 C397 0.931 . S
H407 C398 0.933 . S
Dy408 O411 2.307 1_455 S
Dy408 O413 2.395 . S
Dy408 O414 2.379 . S
Dy408 O416 2.339 . S
Dy408 O418 2.298 . S
Dy408 O422 2.275 . S
Dy408 C430 2.738 . S
Dy409 O412 2.298 . S
Dy409 O415 2.275 . S
Dy409 O417 2.307 1_655 S
Dy409 O419 2.395 . S
Dy409 O420 2.379 . S
Dy409 O423 2.339 . S
Dy409 C439 2.738 . S
C410 O422 1.254 1_655 S
C410 O423 1.257 . S
O411 Dy408 2.307 1_655 S
O411 C421 1.266 . S
O412 Dy409 2.298 . S
O412 C421 1.236 . S
O413 Dy408 2.395 . S
O413 C430 1.255 . S
O414 Dy408 2.379 . S
O414 C430 1.249 . S
O415 Dy409 2.275 . S
O415 C431 1.254 1_655 S
O416 Dy408 2.339 . S
O416 C431 1.257 . S
O417 Dy409 2.307 1_455 S
O417 C432 1.266 . S
O418 Dy408 2.298 . S
O418 C432 1.236 . S
O419 Dy409 2.395 . S
O419 C439 1.255 . S
O420 Dy409 2.379 . S
O420 C439 1.249 . S
C421 O411 1.266 . S
C421 O412 1.236 . S
O422 Dy408 2.275 . S
O422 C410 1.254 1_455 S
O423 Dy409 2.339 . S
O423 C410 1.257 . S
C424 C427 1.344 . S
C424 C428 1.328 . S
C424 C430 1.516 . S
C425 C426 1.304 . S
C425 C429 1.323 . S
C426 C425 1.304 . S
C426 C427 1.371 . S
C426 H440 0.930 . S
C427 C424 1.344 . S
C427 C426 1.371 . S
C427 H441 0.931 . S
C428 C424 1.328 . S
C428 C429 1.433 . S
C428 H442 0.931 . S
C429 C425 1.323 . S
C429 C428 1.433 . S
C429 H443 0.933 . S
C430 Dy408 2.738 . S
C430 O413 1.255 . S
C430 O414 1.249 . S
C430 C424 1.516 . S
C431 O415 1.254 1_455 S
C431 O416 1.257 . S
C432 O417 1.266 . S
C432 O418 1.236 . S
C433 C436 1.344 . S
C433 C437 1.328 . S
C433 C439 1.516 1_554 S
C434 C435 1.304 . S
C434 C438 1.323 . S
C435 C434 1.304 . S
C435 C436 1.371 . S
C435 H444 0.930 . S
C436 C433 1.344 . S
C436 C435 1.371 . S
C436 H445 0.931 . S
C437 C433 1.328 . S
C437 C438 1.433 . S
C437 H446 0.931 . S
C438 C434 1.323 . S
C438 C437 1.433 . S
C438 H447 0.933 . S
C439 Dy409 2.738 . S
C439 O419 1.255 . S
C439 O420 1.249 . S
C439 C433 1.516 1_556 S
H440 C426 0.930 . S
H441 C427 0.931 . S
H442 C428 0.931 . S
H443 C429 0.933 . S
H444 C435 0.930 . S
H445 C436 0.931 . S
H446 C437 0.931 . S
H447 C438 0.933 . S
C448 C449 1.371 . S
C448 C454 1.379 . S
C448 N456 1.356 . S
C449 C448 1.371 . S
C449 C455 1.354 1_545 S
C450 C451 1.342 1_565 S
C450 C455 1.379 . S
C450 N457 1.356 . S
C451 C450 1.342 1_545 S
C451 C454 1.387 . S
N452 C454 1.356 . S
N452 H464 0.984 . S
N452 H465 0.985 . S
N453 C455 1.356 . S
N453 H458 0.984 . S
N453 H459 0.985 . S
C454 C448 1.379 . S
C454 C451 1.387 . S
C454 N452 1.356 . S
C455 C449 1.354 1_565 S
C455 C450 1.379 . S
C455 N453 1.356 . S
N456 C448 1.356 . S
N456 H462 0.984 . S
N456 H463 0.984 . S
N457 C450 1.356 . S
N457 H460 0.984 . S
N457 H461 0.985 . S
H458 N453 0.984 . S
H459 N453 0.985 . S
H460 N457 0.984 . S
H461 N457 0.985 . S
H462 N456 0.984 . S
H463 N456 0.984 . S
H464 N452 0.984 . S
H465 N452 0.985 . S
C466 C467 1.363 . S
C466 C472 1.379 . S
C466 N474 1.356 . S
C467 C466 1.363 . S
C467 C473 1.363 . S
C468 C469 1.363 . S
C468 C473 1.379 . S
C468 N475 1.356 . S
C469 C468 1.363 . S
C469 C472 1.363 . S
N470 C472 1.356 . S
N470 H482 0.984 . S
N470 H483 0.985 . S
N471 C473 1.356 . S
N471 H476 0.984 . S
N471 H477 0.985 . S
C472 C466 1.379 . S
C472 C469 1.363 . S
C472 N470 1.356 . S
C473 C467 1.363 . S
C473 C468 1.379 . S
C473 N471 1.356 . S
N474 C466 1.356 . S
N474 H480 0.984 . S
N474 H481 0.984 . S
N475 C468 1.356 . S
N475 H478 0.984 . S
N475 H479 0.985 . S
H476 N471 0.984 . S
H477 N471 0.985 . S
H478 N475 0.984 . S
H479 N475 0.985 . S
H480 N474 0.984 . S
H481 N474 0.984 . S
H482 N470 0.984 . S
H483 N470 0.985 . S
C484 C485 1.363 . S
C484 C490 1.379 . S
C484 N492 1.356 . S
C485 C484 1.363 . S
C485 C491 1.363 . S
C486 C487 1.363 . S
C486 C491 1.379 . S
C486 N493 1.356 . S
C487 C486 1.363 . S
C487 C490 1.363 . S
N488 C490 1.356 . S
N488 H500 0.984 . S
N488 H501 0.985 . S
N489 C491 1.356 . S
N489 H494 0.984 . S
N489 H495 0.985 . S
C490 C484 1.379 . S
C490 C487 1.363 . S
C490 N488 1.356 . S
C491 C485 1.363 . S
C491 C486 1.379 . S
C491 N489 1.356 . S
N492 C484 1.356 . S
N492 H498 0.984 . S
N492 H499 0.984 . S
N493 C486 1.356 . S
N493 H496 0.984 . S
N493 H497 0.985 . S
H494 N489 0.984 . S
H495 N489 0.985 . S
H496 N493 0.984 . S
H497 N493 0.985 . S
H498 N492 0.984 . S
H499 N492 0.984 . S
H500 N488 0.984 . S
H501 N488 0.985 . S
C502 C503 1.386 . S
C502 C508 1.379 . S
C502 N510 1.356 . S
C503 C502 1.386 . S
C503 C509 1.346 1_455 S
C504 C505 1.363 1_655 S
C504 C509 1.379 . S
C504 N511 1.356 . S
C505 C504 1.363 1_455 S
C505 C508 1.363 . S
N506 C508 1.356 . S
N506 H518 0.984 . S
N506 H519 0.985 . S
N507 C509 1.356 . S
N507 H512 0.984 . S
N507 H513 0.985 . S
C508 C502 1.379 . S
C508 C505 1.363 . S
C508 N506 1.356 . S
C509 C503 1.346 1_655 S
C509 C504 1.379 . S
C509 N507 1.356 . S
N510 C502 1.356 . S
N510 H516 0.984 . S
N510 H517 0.984 . S
N511 C504 1.356 . S
N511 H514 0.984 . S
N511 H515 0.985 . S
H512 N507 0.984 . S
H513 N507 0.985 . S
H514 N511 0.984 . S
H515 N511 0.985 . S
H516 N510 0.984 . S
H517 N510 0.984 . S
H518 N506 0.984 . S
H519 N506 0.985 . S
C520 C521 1.364 . S
C520 C526 1.379 . S
C520 N528 1.356 . S
C521 C520 1.364 . S
C521 C527 1.362 1_565 S
C522 C523 1.352 1_544 S
C522 C527 1.379 . S
C522 N529 1.356 1_554 S
C523 C522 1.352 1_566 S
C523 C526 1.376 1_556 S
N524 C526 1.356 1_556 S
N524 H536 0.984 1_556 S
N524 H537 0.985 . S
N525 C527 1.356 . S
N525 H530 0.984 . S
N525 H531 0.985 . S
C526 C520 1.379 . S
C526 C523 1.376 1_554 S
C526 N524 1.356 1_554 S
C527 C521 1.362 1_545 S
C527 C522 1.379 . S
C527 N525 1.356 . S
N528 C520 1.356 . S
N528 H534 0.984 . S
N528 H535 0.984 . S
N529 C522 1.356 1_556 S
N529 H532 0.984 . S
N529 H533 0.985 . S
H530 N525 0.984 . S
H531 N525 0.985 . S
H532 N529 0.984 . S
H533 N529 0.985 . S
H534 N528 0.984 . S
H535 N528 0.984 . S
H536 N524 0.984 1_554 S
H537 N524 0.985 . S
C538 C539 1.363 . S
C538 C544 1.379 1_554 S
C538 N546 1.356 . S
C539 C538 1.363 . S
C539 C545 1.363 1_554 S
C540 C541 1.363 . S
C540 C545 1.379 . S
C540 N547 1.356 . S
C541 C540 1.363 . S
C541 C544 1.363 . S
N542 C544 1.356 . S
N542 H554 0.984 1_556 S
N542 H555 0.985 . S
N543 C545 1.356 . S
N543 H548 0.984 1_556 S
N543 H549 0.985 . S
C544 C538 1.379 1_556 S
C544 C541 1.363 . S
C544 N542 1.356 . S
C545 C539 1.363 1_556 S
C545 C540 1.379 . S
C545 N543 1.356 . S
N546 C538 1.356 . S
N546 H552 0.984 . S
N546 H553 0.984 . S
N547 C540 1.356 . S
N547 H550 0.984 . S
N547 H551 0.985 . S
H548 N543 0.984 1_554 S
H549 N543 0.985 . S
H550 N547 0.984 . S
H551 N547 0.985 . S
H552 N546 0.984 . S
H553 N546 0.984 . S
H554 N542 0.984 1_554 S
H555 N542 0.985 . S
C556 C557 1.363 . S
C556 C562 1.379 . S
C556 N564 1.356 . S
C557 C556 1.363 . S
C557 C563 1.363 . S
C558 C559 1.363 . S
C558 C563 1.379 . S
C558 N565 1.356 . S
C559 C558 1.363 . S
C559 C562 1.363 . S
N560 C562 1.356 . S
N560 H572 0.984 . S
N560 H573 0.985 . S
N561 C563 1.356 . S
N561 H566 0.984 . S
N561 H567 0.985 . S
C562 C556 1.379 . S
C562 C559 1.363 . S
C562 N560 1.356 . S
C563 C557 1.363 . S
C563 C558 1.379 . S
C563 N561 1.356 . S
N564 C556 1.356 . S
N564 H570 0.984 . S
N564 H571 0.984 . S
N565 C558 1.356 . S
N565 H568 0.984 . S
N565 H569 0.985 . S
H566 N561 0.984 . S
H567 N561 0.985 . S
H568 N565 0.984 . S
H569 N565 0.985 . S
H570 N564 0.984 . S
H571 N564 0.984 . S
H572 N560 0.984 . S
H573 N560 0.985 . S
C574 C575 1.383 . S
C574 C580 1.379 . S
C574 N582 1.356 . S
C575 C574 1.383 . S
C575 C581 1.350 1_655 S
C576 C577 1.363 1_455 S
C576 C581 1.379 . S
C576 N583 1.356 1_554 S
C577 C576 1.363 1_655 S
C577 C580 1.363 . S
N578 C580 1.356 . S
N578 H590 0.984 . S
N578 H591 0.985 1_554 S
N579 C581 1.356 . S
N579 H584 0.984 . S
N579 H585 0.985 . S
C580 C574 1.379 . S
C580 C577 1.363 . S
C580 N578 1.356 . S
C581 C575 1.350 1_455 S
C581 C576 1.379 . S
C581 N579 1.356 . S
N582 C574 1.356 . S
N582 H588 0.984 . S
N582 H589 0.984 . S
N583 C576 1.356 1_556 S
N583 H586 0.984 . S
N583 H587 0.985 . S
H584 N579 0.984 . S
H585 N579 0.985 . S
H586 N583 0.984 . S
H587 N583 0.985 . S
H588 N582 0.984 . S
H589 N582 0.984 . S
H590 N578 0.984 . S
H591 N578 0.985 1_556 S
C592 C593 1.363 . S
C592 C598 1.379 1_455 S
C592 N600 1.356 . S
C593 C592 1.363 . S
C593 C599 1.363 1_455 S
C594 C595 1.363 . S
C594 C599 1.379 . S
C594 N601 1.356 . S
C595 C594 1.363 . S
C595 C598 1.363 . S
N596 C598 1.356 . S
N596 H608 0.984 . S
N596 H609 0.985 . S
N597 C599 1.356 . S
N597 H602 0.984 1_655 S
N597 H603 0.985 . S
C598 C592 1.379 1_655 S
C598 C595 1.363 . S
C598 N596 1.356 . S
C599 C593 1.363 1_655 S
C599 C594 1.379 . S
C599 N597 1.356 . S
N600 C592 1.356 . S
N600 H606 0.984 . S
N600 H607 0.984 . S
N601 C594 1.356 . S
N601 H604 0.984 . S
N601 H605 0.985 . S
H602 N597 0.984 1_455 S
H603 N597 0.985 . S
H604 N601 0.984 . S
H605 N601 0.985 . S
H606 N600 0.984 . S
H607 N600 0.984 . S
H608 N596 0.984 . S
H609 N596 0.985 . S
C610 C611 1.363 . S
C610 C616 1.379 . S
C610 N618 1.356 . S
C611 C610 1.363 . S
C611 C617 1.363 1_565 S
C612 C613 1.363 . S
C612 C617 1.379 1_565 S
C612 N619 1.356 . S
C613 C612 1.363 . S
C613 C616 1.363 . S
N614 C616 1.356 . S
N614 H626 0.984 . S
N614 H627 0.985 . S
N615 C617 1.356 . S
N615 H620 0.984 . S
N615 H621 0.985 . S
C616 C610 1.379 . S
C616 C613 1.363 . S
C616 N614 1.356 . S
C617 C611 1.363 1_545 S
C617 C612 1.379 1_545 S
C617 N615 1.356 . S
N618 C610 1.356 . S
N618 H624 0.984 . S
N618 H625 0.984 . S
N619 C612 1.356 . S
N619 H622 0.984 . S
N619 H623 0.985 1_565 S
H620 N615 0.984 . S
H621 N615 0.985 . S
H622 N619 0.984 . S
H623 N619 0.985 1_545 S
H624 N618 0.984 . S
H625 N618 0.984 . S
H626 N614 0.984 . S
H627 N614 0.985 . S
C628 C629 1.363 . S
C628 C634 1.379 . S
C628 N636 1.356 . S
C629 C628 1.363 . S
C629 C635 1.363 . S
C630 C631 1.363 . S
C630 C635 1.379 . S
C630 N637 1.356 . S
C631 C630 1.363 . S
C631 C634 1.363 . S
N632 C634 1.356 . S
N632 H644 0.984 . S
N632 H645 0.985 . S
N633 C635 1.356 . S
N633 H638 0.984 . S
N633 H639 0.985 . S
C634 C628 1.379 . S
C634 C631 1.363 . S
C634 N632 1.356 . S
C635 C629 1.363 . S
C635 C630 1.379 . S
C635 N633 1.356 . S
N636 C628 1.356 . S
N636 H642 0.984 . S
N636 H643 0.984 . S
N637 C630 1.356 . S
N637 H640 0.984 . S
N637 H641 0.985 . S
H638 N633 0.984 . S
H639 N633 0.985 . S
H640 N637 0.984 . S
H641 N637 0.985 . S
H642 N636 0.984 . S
H643 N636 0.984 . S
H644 N632 0.984 . S
H645 N632 0.985 . S
C646 C647 1.363 . S
C646 C652 1.379 . S
C646 N654 1.356 . S
C647 C646 1.363 . S
C647 C653 1.363 . S
C648 C649 1.363 . S
C648 C653 1.379 . S
C648 N655 1.356 . S
C649 C648 1.363 . S
C649 C652 1.363 . S
N650 C652 1.356 . S
N650 H662 0.984 . S
N650 H663 0.985 . S
N651 C653 1.356 . S
N651 H656 0.984 . S
N651 H657 0.985 . S
C652 C646 1.379 . S
C652 C649 1.363 . S
C652 N650 1.356 . S
C653 C647 1.363 . S
C653 C648 1.379 . S
C653 N651 1.356 . S
N654 C646 1.356 . S
N654 H660 0.984 . S
N654 H661 0.984 . S
N655 C648 1.356 . S
N655 H658 0.984 . S
N655 H659 0.985 . S
H656 N651 0.984 . S
H657 N651 0.985 . S
H658 N655 0.984 . S
H659 N655 0.985 . S
H660 N654 0.984 . S
H661 N654 0.984 . S
H662 N650 0.984 . S
H663 N650 0.985 . S
C664 C665 1.363 1_455 S
C664 C670 1.379 . S
C664 N672 1.356 1_455 S
C665 C664 1.363 1_655 S
C665 C671 1.363 1_655 S
C666 C667 1.363 . S
C666 C671 1.379 . S
C666 N673 1.356 1_554 S
C667 C666 1.363 . S
C667 C670 1.363 . S
N668 C670 1.356 . S
N668 H680 0.984 . S
N668 H681 0.985 . S
N669 C671 1.355 . S
N669 H674 0.986 1_455 S
N669 H675 0.984 . S
C670 C664 1.379 . S
C670 C667 1.363 . S
C670 N668 1.356 . S
C671 C665 1.363 1_455 S
C671 C666 1.379 . S
C671 N669 1.355 . S
N672 C664 1.356 1_655 S
N672 H678 0.984 . S
N672 H679 0.984 . S
N673 C666 1.356 1_556 S
N673 H676 0.984 . S
N673 H677 0.985 . S
H674 N669 0.986 1_655 S
H675 N669 0.984 . S
H676 N673 0.984 . S
H677 N673 0.985 . S
H678 N672 0.984 . S
H679 N672 0.984 . S
H680 N668 0.984 . S
H681 N668 0.985 . S
C682 C683 1.357 1_565 S
C682 C688 1.367 1_565 S
C682 N690 1.375 . S
C683 C682 1.357 1_545 S
C683 C689 1.363 . S
C684 C685 1.363 . S
C684 C689 1.379 . S
C684 N691 1.356 1_554 S
C685 C684 1.363 . S
C685 C688 1.363 . S
N686 C688 1.356 . S
N686 H698 0.984 . S
N686 H699 0.985 . S
N687 C689 1.356 1_556 S
N687 H692 0.984 1_556 S
N687 H693 0.985 . S
C688 C682 1.367 1_545 S
C688 C685 1.363 . S
C688 N686 1.356 . S
C689 C683 1.363 . S
C689 C684 1.379 . S
C689 N687 1.356 1_554 S
N690 C682 1.375 . S
N690 H696 0.984 . S
N690 H697 0.984 . S
N691 C684 1.356 1_556 S
N691 H694 0.984 . S
N691 H695 0.985 . S
H692 N687 0.984 1_554 S
H693 N687 0.985 . S
H694 N691 0.984 . S
H695 N691 0.985 . S
H696 N690 0.984 . S
H697 N690 0.984 . S
H698 N686 0.984 . S
H699 N686 0.985 . S
C700 C701 1.363 . S
C700 C706 1.379 . S
C700 N708 1.356 1_556 S
C701 C700 1.363 . S
C701 C707 1.363 . S
C702 C703 1.363 . S
C702 C707 1.379 . S
C702 N709 1.356 . S
C703 C702 1.363 . S
C703 C706 1.363 . S
N704 C706 1.356 1_554 S
N704 H716 0.984 . S
N704 H717 0.985 . S
N705 C707 1.356 . S
N705 H710 0.984 . S
N705 H711 0.985 . S
C706 C700 1.379 . S
C706 C703 1.363 . S
C706 N704 1.356 1_556 S
C707 C701 1.363 . S
C707 C702 1.379 . S
C707 N705 1.356 . S
N708 C700 1.356 1_554 S
N708 H714 0.984 . S
N708 H715 0.984 1_554 S
N709 C702 1.356 . S
N709 H712 0.984 . S
N709 H713 0.985 . S
H710 N705 0.984 . S
H711 N705 0.985 . S
H712 N709 0.984 . S
H713 N709 0.985 . S
H714 N708 0.984 . S
H715 N708 0.984 1_556 S
H716 N704 0.984 . S
H717 N704 0.985 . S
C718 C719 1.363 . S
C718 C724 1.379 . S
C718 N726 1.356 . S
C719 C718 1.363 . S
C719 C725 1.363 . S
C720 C721 1.363 . S
C720 C725 1.379 . S
C720 N727 1.356 . S
C721 C720 1.363 . S
C721 C724 1.363 . S
N722 C724 1.356 . S
N722 H734 0.984 . S
N722 H735 0.985 . S
N723 C725 1.356 . S
N723 H728 0.984 . S
N723 H729 0.985 . S
C724 C718 1.379 . S
C724 C721 1.363 . S
C724 N722 1.356 . S
C725 C719 1.363 . S
C725 C720 1.379 . S
C725 N723 1.356 . S
N726 C718 1.356 . S
N726 H732 0.984 . S
N726 H733 0.984 . S
N727 C720 1.356 . S
N727 H730 0.984 . S
N727 H731 0.985 . S
H728 N723 0.984 . S
H729 N723 0.985 . S
H730 N727 0.984 . S
H731 N727 0.985 . S
H732 N726 0.984 . S
H733 N726 0.984 . S
H734 N722 0.984 . S
H735 N722 0.985 . S
C736 C737 1.363 . S
C736 C742 1.379 . S
C736 N744 1.356 . S
C737 C736 1.363 . S
C737 C743 1.363 1_455 S
C738 C739 1.363 1_655 S
C738 C743 1.379 . S
C738 N745 1.356 . S
C739 C738 1.363 1_455 S
C739 C742 1.363 . S
N740 C742 1.356 . S
N740 H752 0.984 . S
N740 H753 0.985 . S
N741 C743 1.356 . S
N741 H746 0.984 . S
N741 H747 0.985 . S
C742 C736 1.379 . S
C742 C739 1.363 . S
C742 N740 1.356 . S
C743 C737 1.363 1_655 S
C743 C738 1.379 . S
C743 N741 1.356 . S
N744 C736 1.356 . S
N744 H750 0.984 . S
N744 H751 0.984 . S
N745 C738 1.356 . S
N745 H748 0.984 . S
N745 H749 0.985 . S
H746 N741 0.984 . S
H747 N741 0.985 . S
H748 N745 0.984 . S
H749 N745 0.985 . S
H750 N744 0.984 . S
H751 N744 0.984 . S
H752 N740 0.984 . S
H753 N740 0.985 . S
C754 C755 1.363 1_565 S
C754 C760 1.383 . S
C754 N762 1.356 . S
C755 C754 1.363 1_545 S
C755 C761 1.363 . S
C756 C757 1.363 . S
C756 C761 1.379 . S
C756 N763 1.356 . S
C757 C756 1.363 . S
C757 C760 1.353 1_545 S
N758 C760 1.360 . S
N758 H770 0.984 1_556 S
N758 H771 0.985 . S
N759 C761 1.356 . S
N759 H764 0.984 . S
N759 H765 0.985 . S
C760 C754 1.383 . S
C760 C757 1.353 1_565 S
C760 N758 1.360 . S
C761 C755 1.363 . S
C761 C756 1.379 . S
C761 N759 1.356 . S
N762 C754 1.356 . S
N762 H768 0.984 1_556 S
N762 H769 0.984 . S
N763 C756 1.356 . S
N763 H766 0.984 . S
N763 H767 0.985 . S
H764 N759 0.984 . S
H765 N759 0.985 . S
H766 N763 0.984 . S
H767 N763 0.985 . S
H768 N762 0.984 1_554 S
H769 N762 0.984 . S
H770 N758 0.984 1_554 S
H771 N758 0.985 . S
C772 C773 1.363 1_556 S
C772 C778 1.379 . S
C772 N780 1.356 . S
C773 C772 1.363 1_554 S
C773 C779 1.363 . S
C774 C775 1.363 1_554 S
C774 C779 1.379 . S
C774 N781 1.356 . S
C775 C774 1.363 1_556 S
C775 C778 1.363 . S
N776 C778 1.356 . S
N776 H788 0.984 . S
N776 H789 0.985 . S
N777 C779 1.356 . S
N777 H782 0.984 . S
N777 H783 0.985 . S
C778 C772 1.379 . S
C778 C775 1.363 . S
C778 N776 1.356 . S
C779 C773 1.363 . S
C779 C774 1.379 . S
C779 N777 1.356 . S
N780 C772 1.356 . S
N780 H786 0.984 . S
N780 H787 0.984 . S
N781 C774 1.356 . S
N781 H784 0.984 . S
N781 H785 0.985 . S
H782 N777 0.984 . S
H783 N777 0.985 . S
H784 N781 0.984 . S
H785 N781 0.985 . S
H786 N780 0.984 . S
H787 N780 0.984 . S
H788 N776 0.984 . S
H789 N776 0.985 . S
C790 C791 1.363 . S
C790 C796 1.379 . S
C790 N798 1.356 . S
C791 C790 1.363 . S
C791 C797 1.363 . S
C792 C793 1.363 . S
C792 C797 1.379 . S
C792 N799 1.356 . S
C793 C792 1.363 . S
C793 C796 1.363 . S
N794 C796 1.356 . S
N794 H806 0.984 . S
N794 H807 0.985 . S
N795 C797 1.356 . S
N795 H800 0.984 . S
N795 H801 0.985 . S
C796 C790 1.379 . S
C796 C793 1.363 . S
C796 N794 1.356 . S
C797 C791 1.363 . S
C797 C792 1.379 . S
C797 N795 1.356 . S
N798 C790 1.356 . S
N798 H804 0.984 . S
N798 H805 0.984 . S
N799 C792 1.356 . S
N799 H802 0.984 . S
N799 H803 0.985 . S
H800 N795 0.984 . S
H801 N795 0.985 . S
H802 N799 0.984 . S
H803 N799 0.985 . S
H804 N798 0.984 . S
H805 N798 0.984 . S
H806 N794 0.984 . S
H807 N794 0.985 . S
C808 C809 1.363 1_455 S
C808 C814 1.379 1_455 S
C808 N816 1.357 . S
C809 C808 1.363 1_655 S
C809 C815 1.363 . S
C810 C811 1.363 . S
C810 C815 1.379 . S
C810 N817 1.356 . S
C811 C810 1.363 . S
C811 C814 1.363 . S
N812 C814 1.356 1_455 S
N812 H824 0.984 . S
N812 H825 0.986 1_455 S
N813 C815 1.356 . S
N813 H818 0.984 . S
N813 H819 0.985 . S
C814 C808 1.379 1_655 S
C814 C811 1.363 . S
C814 N812 1.356 1_655 S
C815 C809 1.363 . S
C815 C810 1.379 . S
C815 N813 1.356 . S
N816 C808 1.357 . S
N816 H822 0.984 . S
N816 H823 0.984 . S
N817 C810 1.356 . S
N817 H820 0.984 . S
N817 H821 0.985 . S
H818 N813 0.984 . S
H819 N813 0.985 . S
H820 N817 0.984 . S
H821 N817 0.985 . S
H822 N816 0.984 . S
H823 N816 0.984 . S
H824 N812 0.984 . S
H825 N812 0.986 1_655 S
C826 C827 1.363 . S
C826 C832 1.379 . S
C826 N834 1.356 . S
C827 C826 1.363 . S
C827 C833 1.363 1_565 S
C828 C829 1.363 1_545 S
C828 C833 1.379 . S
C828 N835 1.356 . S
C829 C828 1.363 1_565 S
C829 C832 1.363 . S
N830 C832 1.356 . S
N830 H842 0.984 . S
N830 H843 0.985 . S
N831 C833 1.356 . S
N831 H836 0.984 . S
N831 H837 0.985 . S
C832 C826 1.379 . S
C832 C829 1.363 . S
C832 N830 1.356 . S
C833 C827 1.363 1_545 S
C833 C828 1.379 . S
C833 N831 1.356 . S
N834 C826 1.356 . S
N834 H840 0.984 . S
N834 H841 0.984 . S
N835 C828 1.356 . S
N835 H838 0.984 . S
N835 H839 0.985 . S
H836 N831 0.984 . S
H837 N831 0.985 . S
H838 N835 0.984 . S
H839 N835 0.985 . S
H840 N834 0.984 . S
H841 N834 0.984 . S
H842 N830 0.984 . S
H843 N830 0.985 . S
C844 C845 1.363 . S
C844 C850 1.379 . S
C844 N852 1.356 . S
C845 C844 1.363 . S
C845 C851 1.363 . S
C846 C847 1.363 . S
C846 C851 1.379 . S
C846 N853 1.356 . S
C847 C846 1.363 . S
C847 C850 1.363 . S
N848 C850 1.356 . S
N848 H860 0.984 . S
N848 H861 0.985 . S
N849 C851 1.356 . S
N849 H854 0.984 . S
N849 H855 0.985 . S
C850 C844 1.379 . S
C850 C847 1.363 . S
C850 N848 1.356 . S
C851 C845 1.363 . S
C851 C846 1.379 . S
C851 N849 1.356 . S
N852 C844 1.356 . S
N852 H858 0.984 . S
N852 H859 0.984 . S
N853 C846 1.356 . S
N853 H856 0.984 . S
N853 H857 0.985 . S
H854 N849 0.984 . S
H855 N849 0.985 . S
H856 N853 0.984 . S
H857 N853 0.985 . S
H858 N852 0.984 . S
H859 N852 0.984 . S
H860 N848 0.984 . S
H861 N848 0.985 . S
C862 C863 1.363 . S
C862 C868 1.379 . S
C862 N870 1.356 . S
C863 C862 1.363 . S
C863 C869 1.363 . S
C864 C865 1.363 . S
C864 C869 1.379 . S
C864 N871 1.356 . S
C865 C864 1.363 . S
C865 C868 1.363 . S
N866 C868 1.356 . S
N866 H878 0.984 . S
N866 H879 0.985 . S
N867 C869 1.356 . S
N867 H872 0.986 1_556 S
N867 H873 0.985 1_556 S
C868 C862 1.379 . S
C868 C865 1.363 . S
C868 N866 1.356 . S
C869 C863 1.363 . S
C869 C864 1.379 . S
C869 N867 1.356 . S
N870 C862 1.356 . S
N870 H876 0.984 . S
N870 H877 0.984 . S
N871 C864 1.356 . S
N871 H874 0.984 . S
N871 H875 0.985 . S
H872 N867 0.986 1_554 S
H873 N867 0.985 1_554 S
H874 N871 0.984 . S
H875 N871 0.985 . S
H876 N870 0.984 . S
H877 N870 0.984 . S
H878 N866 0.984 . S
H879 N866 0.985 . S
C449 C241 2.270 . S
C451 C290 2.481 1_545 S
C469 C330 2.293 . S
C467 C277 2.162 . S
C487 C394 2.867 . S
C485 C169 2.705 . S
C505 C410 2.756 1_455 S
C503 C205 2.339 . S
C523 C311 2.484 1_565 S
C521 C97 2.273 1_565 S
C539 C133 2.206 . S
C541 C351 2.296 . S
C557 C25 2.658 . S
C559 C385 2.867 . S
C575 C61 2.339 1_655 S
C577 C431 2.755 1_654 S
C595 C305 0.671 . S
C593 C211 0.622 . S
C613 C345 0.854 . S
C611 C247 0.865 1_565 S
C631 C381 0.863 . S
C629 C253 0.870 . S
C647 C175 1.157 . S
C649 C425 1.004 . S
C665 C67 0.661 1_655 S
C667 C314 0.669 . S
C685 C354 0.854 . S
C683 C103 0.847 . S
C703 C392 0.863 . S
C701 C109 0.899 . S
C719 C31 1.058 . S
C721 C434 1.011 . S
C737 C181 2.904 . S
C739 C312 3.332 . S
C755 C217 2.792 . S
C757 C352 3.168 . S
C775 C370 2.224 . S
C773 C283 2.087 . S
C793 C432 3.790 . S
C791 C145 3.309 . S
C809 C37 2.913 1_655 S
C811 C301 3.341 . S
C829 C341 3.168 . S
C827 C73 2.800 1_565 S
C847 C391 2.225 . S
C845 C139 2.122 . S
C863 C1 3.297 . S
C865 C421 3.795 . S
