# Generated by pormake.
# Topology zzz, (3,6)-cn, num edge types: 1
# Building blocks:
#     Node 0, Type 0, BuildingBlock: MIDCAF_clean_linker_0, # of connection points: 3
#     Node 1, Type 0, BuildingBlock: MIDCAF_clean_linker_0, # of connection points: 3
#     Node 2, Type 0, BuildingBlock: MIDCAF_clean_linker_0, # of connection points: 3
#     Node 3, Type 0, BuildingBlock: MIDCAF_clean_linker_0, # of connection points: 3
#     Node 4, Type 0, BuildingBlock: MIDCAF_clean_linker_0, # of connection points: 3
#     Node 5, Type 0, BuildingBlock: MIDCAF_clean_linker_0, # of connection points: 3
#     Node 6, Type 0, BuildingBlock: MIDCAF_clean_linker_0, # of connection points: 3
#     Node 7, Type 0, BuildingBlock: MIDCAF_clean_linker_0, # of connection points: 3
#     Node 8, Type 1, BuildingBlock: BETFEN_clean_sbu_0, # of connection points: 6
#     Node 9, Type 1, BuildingBlock: BETFEN_clean_sbu_0, # of connection points: 6
#     Node 10, Type 1, BuildingBlock: BETFEN_clean_sbu_0, # of connection points: 6
#     Node 11, Type 1, BuildingBlock: BETFEN_clean_sbu_0, # of connection points: 6
#     Edge 12, Type (0, 1), BuildingBlock: MIFKUJ_clean_linker_0, # of connection points: 2
#     Edge 13, Type (0, 1), BuildingBlock: MIFKUJ_clean_linker_0, # of connection points: 2
#     Edge 14, Type (0, 1), BuildingBlock: MIFKUJ_clean_linker_0, # of connection points: 2
#     Edge 15, Type (0, 1), BuildingBlock: MIFKUJ_clean_linker_0, # of connection points: 2
#     Edge 16, Type (0, 1), BuildingBlock: MIFKUJ_clean_linker_0, # of connection points: 2
#     Edge 17, Type (0, 1), BuildingBlock: MIFKUJ_clean_linker_0, # of connection points: 2
#     Edge 18, Type (0, 1), BuildingBlock: MIFKUJ_clean_linker_0, # of connection points: 2
#     Edge 19, Type (0, 1), BuildingBlock: MIFKUJ_clean_linker_0, # of connection points: 2
#     Edge 20, Type (0, 1), BuildingBlock: MIFKUJ_clean_linker_0, # of connection points: 2
#     Edge 21, Type (0, 1), BuildingBlock: MIFKUJ_clean_linker_0, # of connection points: 2
#     Edge 22, Type (0, 1), BuildingBlock: MIFKUJ_clean_linker_0, # of connection points: 2
#     Edge 23, Type (0, 1), BuildingBlock: MIFKUJ_clean_linker_0, # of connection points: 2
#     Edge 24, Type (0, 1), BuildingBlock: MIFKUJ_clean_linker_0, # of connection points: 2
#     Edge 25, Type (0, 1), BuildingBlock: MIFKUJ_clean_linker_0, # of connection points: 2
#     Edge 26, Type (0, 1), BuildingBlock: MIFKUJ_clean_linker_0, # of connection points: 2
#     Edge 27, Type (0, 1), BuildingBlock: MIFKUJ_clean_linker_0, # of connection points: 2
#     Edge 28, Type (0, 1), BuildingBlock: MIFKUJ_clean_linker_0, # of connection points: 2
#     Edge 29, Type (0, 1), BuildingBlock: MIFKUJ_clean_linker_0, # of connection points: 2
#     Edge 30, Type (0, 1), BuildingBlock: MIFKUJ_clean_linker_0, # of connection points: 2
#     Edge 31, Type (0, 1), BuildingBlock: MIFKUJ_clean_linker_0, # of connection points: 2
#     Edge 32, Type (0, 1), BuildingBlock: MIFKUJ_clean_linker_0, # of connection points: 2
#     Edge 33, Type (0, 1), BuildingBlock: MIFKUJ_clean_linker_0, # of connection points: 2
#     Edge 34, Type (0, 1), BuildingBlock: MIFKUJ_clean_linker_0, # of connection points: 2
#     Edge 35, Type (0, 1), BuildingBlock: MIFKUJ_clean_linker_0, # of connection points: 2
# Relax obj value: 0.420
# Max RMSD: 0.275
# Mean RMSD: 0.253
data_MOF--net-zzz--node1-BETFEN_clean_sbu_0--node2-MIDCAF_clean_linker_0--edge1-MIFKUJ_clean_linker_0
_symmetry_space_group_name_H-M    P1
_symmetry_Int_Tables_number       1
_symmetry_cell_setting            triclinic
loop_
_symmetry_equiv_pos_as_xyz
'x, y, z'
_cell_length_a     74.849214
_cell_length_b     74.803983
_cell_length_c     22.754561
_cell_angle_alpha  89.945579
_cell_angle_beta   90.056658
_cell_angle_gamma 90.015486
loop_
_atom_site_label
_atom_site_type_symbol
_atom_site_fract_x
_atom_site_fract_y
_atom_site_fract_z
_atom_type_partial_charge
C0 C 0.79686 0.52571 0.34885 0.0
C1 C 0.79425 0.51513 0.39894 0.0
C2 C 0.77716 0.50788 0.40931 0.0
C3 C 0.76329 0.51026 0.36792 0.0
H4 H 0.70122 0.54569 0.23199 0.0
H5 H 0.67077 0.5453 0.19295 0.0
H6 H 0.67393 0.488 0.17332 0.0
H7 H 0.70444 0.48854 0.21226 0.0
H8 H 0.73341 0.51912 0.05516 0.0
H9 H 0.74744 0.52129 0.9583 0.0
H10 H 0.79776 0.53431 0.04115 0.0
H11 H 0.78389 0.53248 0.13681 0.0
H12 H 0.78601 0.53607 0.26941 0.0
H13 H 0.80978 0.53172 0.34021 0.0
H14 H 0.7748 0.49969 0.4478 0.0
H15 H 0.75053 0.50378 0.37523 0.0
N16 N 0.7354 0.51808 0.27237 0.0
N17 N 0.73186 0.52089 0.16962 0.0
N18 N 0.76024 0.52284 0.21109 0.0
C19 C 0.72463 0.51844 0.22366 0.0
C20 C 0.74965 0.5231 0.16293 0.0
C21 C 0.75346 0.52035 0.26581 0.0
C22 C 0.70501 0.5171 0.2264 0.0
C23 C 0.69502 0.53293 0.22239 0.0
C24 C 0.6777 0.53272 0.19905 0.0
C25 C 0.67002 0.51665 0.1792 0.0
C26 C 0.6794 0.50059 0.18855 0.0
C27 C 0.69681 0.50084 0.21145 0.0
C28 C 0.75756 0.52551 0.10386 0.0
C29 C 0.74743 0.52268 0.05255 0.0
C30 C 0.75542 0.52388 0.99707 0.0
C31 C 0.77365 0.52811 0.99197 0.0
C32 C 0.78359 0.53141 0.04329 0.0
C33 C 0.77567 0.53014 0.09844 0.0
C34 C 0.76636 0.52 0.31587 0.0
C35 C 0.78316 0.52818 0.3082 0.0
C36 C 0.96929 0.78003 0.40854 0.0
C37 C 0.98671 0.78351 0.42865 0.0
C38 C 1.00038 0.77139 0.41299 0.0
C39 C 0.99677 0.75666 0.37618 0.0
H40 H 0.96415 0.68287 0.28305 0.0
H41 H 0.96995 0.65393 0.23688 0.0
H42 H 0.01606 0.67632 0.14973 0.0
H43 H 0.01026 0.70511 0.19681 0.0
H44 H 0.95856 0.72405 0.10126 0.0
H45 H 0.94782 0.74058 0.01581 0.0
H46 H 0.92963 0.78297 0.13008 0.0
H47 H 0.94 0.76648 0.21472 0.0
H48 H 0.95227 0.76383 0.35532 0.0
H49 H 0.95841 0.78906 0.4186 0.0
H50 H 0.01394 0.77352 0.42806 0.0
H51 H 0.00766 0.74808 0.36262 0.0
N52 N 0.98357 0.72475 0.30023 0.0
N53 N 0.96853 0.72032 0.21016 0.0
N54 N 0.96458 0.74693 0.26172 0.0
C55 C 0.97963 0.71418 0.2528 0.0
C56 C 0.96094 0.73667 0.21427 0.0
C57 C 0.97577 0.74126 0.30481 0.0
C58 C 0.98702 0.69608 0.24466 0.0
C59 C 0.97603 0.6813 0.2564 0.0
C60 C 0.97919 0.66482 0.22902 0.0
C61 C 0.99333 0.66281 0.18878 0.0
C62 C 0.00515 0.67727 0.18079 0.0
C63 C 1.00195 0.69376 0.20816 0.0
C64 C 0.95061 0.74422 0.16466 0.0
C65 C 0.95176 0.73665 0.10821 0.0
C66 C 0.94562 0.74612 0.05916 0.0
C67 C 0.93819 0.76326 0.06582 0.0
C68 C 0.93523 0.76981 0.12295 0.0
C69 C 0.94141 0.76041 0.17176 0.0
C70 C 0.97947 0.75391 0.35383 0.0
C71 C 0.96575 0.76552 0.37181 0.0
C72 C 0.7245 0.97238 0.39878 0.0
C73 C 0.72139 0.98883 0.42681 0.0
C74 C 0.73394 1.00269 0.41886 0.0
C75 C 0.74874 1.00039 0.38151 0.0
H76 H 0.81183 0.01383 0.23883 0.0
H77 H 0.84176 0.01396 0.19534 0.0
H78 H 0.84443 0.95663 0.21479 0.0
H79 H 0.81458 0.95664 0.25834 0.0
H80 H 0.78132 0.98025 0.08811 0.0
H81 H 0.76664 0.97822 0.99253 0.0
H82 H 0.71601 0.96962 0.07906 0.0
H83 H 0.73055 0.97138 0.1741 0.0
H84 H 0.74037 0.95776 0.33698 0.0
H85 H 0.71505 0.96149 0.40312 0.0
H86 H 0.73199 0.01551 0.43999 0.0
H87 H 0.75761 0.01157 0.37353 0.0
N88 N 0.78128 0.98545 0.30326 0.0
N89 N 0.78347 0.98096 0.20101 0.0
N90 N 0.75556 0.97988 0.2463 0.0
C91 C 0.79143 0.98416 0.25343 0.0
C92 C 0.76558 0.97885 0.19691 0.0
C93 C 0.76315 0.98321 0.29937 0.0
C94 C 0.81108 0.98528 0.25323 0.0
C95 C 0.81928 1.00143 0.23694 0.0
C96 C 0.83635 1.00145 0.21139 0.0
C97 C 0.84536 0.98526 0.20073 0.0
C98 C 0.83776 0.9693 0.2218 0.0
C99 C 0.8208 0.96932 0.24773 0.0
C100 C 0.75708 0.97611 0.13891 0.0
C101 C 0.76709 0.97766 0.08676 0.0
C102 C 0.75872 0.97652 0.03196 0.0
C103 C 0.74023 0.97364 0.02828 0.0
C104 C 0.73036 0.97148 0.08035 0.0
C105 C 0.73868 0.97269 0.13499 0.0
C106 C 0.75111 0.98427 0.35087 0.0
C107 C 0.73905 0.97021 0.36092 0.0
C108 C 0.53946 0.7297 0.03901 0.0
C109 C 0.53625 0.73992 0.98816 0.0
C110 C 0.53185 0.75807 0.9942 0.0
C111 C 0.53008 0.76566 0.05002 0.0
H112 H 0.4913 0.80594 0.20785 0.0
H113 H 0.48954 0.83615 0.16647 0.0
H114 H 0.54653 0.84199 0.18762 0.0
H115 H 0.54815 0.81192 0.22948 0.0
H116 H 0.50432 0.7579 0.36303 0.0
H117 H 0.50224 0.7334 0.43523 0.0
H118 H 0.5439 0.70505 0.34279 0.0
H119 H 0.54615 0.72925 0.27292 0.0
H120 H 0.53975 0.72879 0.1327 0.0
H121 H 0.54254 0.71558 0.03606 0.0
H122 H 0.52937 0.76628 0.95581 0.0
H123 H 0.52624 0.77959 0.05318 0.0
N124 N 0.52574 0.78028 0.16676 0.0
N125 N 0.52178 0.77632 0.2688 0.0
N126 N 0.52887 0.75192 0.20778 0.0
C127 C 0.52214 0.78723 0.22043 0.0
C128 C 0.52523 0.75844 0.26218 0.0
C129 C 0.52909 0.76267 0.15995 0.0
C130 C 0.5198 0.80676 0.22314 0.0
C131 C 0.50324 0.81413 0.20704 0.0
C132 C 0.50228 0.83136 0.18267 0.0
C133 C 0.51795 0.84134 0.17297 0.0
C134 C 0.53426 0.83456 0.19413 0.0
C135 C 0.53515 0.81747 0.21906 0.0
C136 C 0.52537 0.74554 0.31212 0.0
C137 C 0.51328 0.7466 0.35929 0.0
C138 C 0.51197 0.73246 0.40018 0.0
C139 C 0.5229 0.71715 0.39508 0.0
C140 C 0.53543 0.71662 0.34914 0.0
C141 C 0.53664 0.73054 0.30853 0.0
C142 C 0.53254 0.75519 0.10086 0.0
C143 C 0.53763 0.73724 0.09463 0.0
C144 C 0.22579 0.46751 0.95219 0.0
C145 C 0.22467 0.48382 0.92167 0.0
C146 C 0.23851 0.49643 0.92977 0.0
C147 C 0.25265 0.49303 0.96918 0.0
H148 H 0.30241 0.51171 0.13897 0.0
H149 H 0.33077 0.51923 0.18661 0.0
H150 H 0.35219 0.46798 0.13531 0.0
H151 H 0.32382 0.46064 0.0877 0.0
H152 H 0.281 0.46646 0.26232 0.0
H153 H 0.26329 0.46137 0.35074 0.0
H154 H 0.22123 0.43851 0.24432 0.0
H155 H 0.2389 0.44326 0.15692 0.0
H156 H 0.23966 0.45172 0.01568 0.0
H157 H 0.21538 0.45753 0.94808 0.0
H158 H 0.23821 0.50907 0.90661 0.0
H159 H 0.26266 0.50326 0.97638 0.0
N160 N 0.28246 0.48134 0.05376 0.0
N161 N 0.28609 0.46977 0.14956 0.0
N162 N 0.25925 0.46535 0.0996 0.0
C163 C 0.29284 0.47865 0.10256 0.0
C164 C 0.26933 0.46308 0.14848 0.0
C165 C 0.26555 0.47436 0.0521 0.0
C166 C 0.3111 0.48578 0.10855 0.0
C167 C 0.31351 0.50249 0.13529 0.0
C168 C 0.32965 0.50663 0.16345 0.0
C169 C 0.34367 0.49409 0.16558 0.0
C170 C 0.34175 0.478 0.13421 0.0
C171 C 0.32555 0.47384 0.10644 0.0
C172 C 0.26111 0.45573 0.20242 0.0
C173 C 0.26822 0.45978 0.2581 0.0
C174 C 0.25808 0.4569 0.30884 0.0
C175 C 0.24072 0.44984 0.30469 0.0
C176 C 0.23456 0.4439 0.24957 0.0
C177 C 0.24463 0.44684 0.19904 0.0
C178 C 0.25311 0.47705 1.00174 0.0
C179 C 0.23974 0.4642 0.99149 0.0
C180 C 0.0413 0.22449 0.95979 0.0
C181 C 0.02519 0.22116 0.92988 0.0
C182 C 0.0117 0.23439 0.93249 0.0
C183 C 0.01398 0.24995 0.96673 0.0
H184 H 0.99299 0.30786 0.10637 0.0
H185 H 0.98651 0.33726 0.14848 0.0
H186 H 0.04208 0.35181 0.12835 0.0
H187 H 0.04809 0.32287 0.08451 0.0
H188 H 0.0307 0.28287 0.25522 0.0
H189 H 0.03444 0.26644 0.34725 0.0
H190 H 0.06572 0.22659 0.25674 0.0
H191 H 0.06184 0.24279 0.1647 0.0
H192 H 0.05585 0.24143 0.0182 0.0
H193 H 0.05196 0.21472 0.96008 0.0
H194 H 0.99919 0.2325 0.90944 0.0
H195 H 1.00302 0.25933 0.97063 0.0
N196 N 0.02476 0.28311 0.04343 0.0
N197 N 0.03373 0.2881 0.14156 0.0
N198 N 0.03849 0.26026 0.0986 0.0
C199 C 0.02645 0.29428 0.09093 0.0
C200 C 0.03977 0.27115 0.14574 0.0
C201 C 0.03107 0.26592 0.04745 0.0
C202 C 0.02095 0.31324 0.09083 0.0
C203 C 0.00351 0.31779 0.10787 0.0
C204 C 0.99995 0.33452 0.13338 0.0
C205 C 0.01382 0.34696 0.14325 0.0
C206 C 0.03093 0.34286 0.12126 0.0
C207 C 0.03441 0.32623 0.0955 0.0
C208 C 0.04569 0.26388 0.20268 0.0
C209 C 0.03886 0.27092 0.25533 0.0
C210 C 0.04098 0.26155 0.30797 0.0
C211 C 0.05025 0.24526 0.30877 0.0
C212 C 0.05862 0.23921 0.25731 0.0
C213 C 0.05625 0.24839 0.20455 0.0
C214 C 0.02975 0.25255 0.9992 0.0
C215 C 0.04353 0.23989 0.99362 0.0
C216 C 0.27532 0.00408 0.95962 0.0
C217 C 0.28436 0.01793 0.92992 0.0
C218 C 0.27761 0.03541 0.93417 0.0
C219 C 0.26301 0.03916 0.97049 0.0
H220 H 0.18363 0.04293 0.09357 0.0
H221 H 0.15651 0.03508 0.14754 0.0
H222 H 0.18204 0.98691 0.20995 0.0
H223 H 0.20916 0.99489 0.15557 0.0
H224 H 0.22732 0.04845 0.25383 0.0
H225 H 0.24511 0.05747 0.33843 0.0
H226 H 0.28694 0.07572 0.22263 0.0
H227 H 0.26933 0.0666 0.13775 0.0
H228 H 0.2543 0.99707 0.01997 0.0
H229 H 0.28018 0.99047 0.95709 0.0
H230 H 0.28434 0.04639 0.91242 0.0
H231 H 0.25889 0.05294 0.976 0.0
N232 N 0.22606 0.02252 0.05921 0.0
N233 N 0.22249 0.03893 0.14669 0.0
N234 N 0.24861 0.04214 0.0918 0.0
C235 C 0.21591 0.02726 0.10665 0.0
C236 C 0.23883 0.04638 0.1399 0.0
C237 C 0.2424 0.03036 0.05125 0.0
C238 C 0.19831 0.0193 0.11935 0.0
C239 C 0.18308 0.03023 0.11642 0.0
C240 C 0.16759 0.02578 0.14776 0.0
C241 C 0.16716 0.01048 0.18372 0.0
C242 C 0.182 0.99889 0.18315 0.0
C243 C 0.19742 1.00327 0.15125 0.0
C244 C 0.24712 0.05637 0.18898 0.0
C245 C 0.24005 0.05492 0.2461 0.0
C246 C 0.2502 0.0601 0.29471 0.0
C247 C 0.26744 0.06708 0.28699 0.0
C248 C 0.27364 0.07044 0.2298 0.0
C249 C 0.2636 0.06506 0.18117 0.0
C250 C 0.25449 0.02549 1.00229 0.0
C251 C 0.2604 0.00781 0.99505 0.0
C252 C 0.4407 0.27692 0.23727 0.0
C253 C 0.44833 0.27337 0.29274 0.0
C254 C 0.45877 0.25783 0.29945 0.0
C255 C 0.46253 0.24695 0.25122 0.0
H256 H 0.45087 0.19032 0.12358 0.0
H257 H 0.45688 0.16112 0.16645 0.0
H258 H 0.5135 0.16956 0.14228 0.0
H259 H 0.50729 0.19904 0.09911 0.0
H260 H 0.4634 0.24674 0.93871 0.0
H261 H 0.46872 0.27154 0.86996 0.0
H262 H 0.50879 0.29272 0.98768 0.0
H263 H 0.50349 0.26798 0.05517 0.0
H264 H 0.43979 0.27002 0.14585 0.0
H265 H 0.43206 0.28835 0.23058 0.0
H266 H 0.46509 0.25463 0.34092 0.0
H267 H 0.47138 0.23563 0.25717 0.0
N268 N 0.4666 0.22454 0.14521 0.0
N269 N 0.48043 0.22577 0.05232 0.0
N270 N 0.46857 0.2518 0.09554 0.0
C271 C 0.47492 0.21612 0.10013 0.0
C272 C 0.477 0.24373 0.04996 0.0
C273 C 0.46333 0.2423 0.14313 0.0
C274 C 0.4786 0.19683 0.10743 0.0
C275 C 0.46456 0.18561 0.12525 0.0
C276 C 0.46804 0.16887 0.14999 0.0
C277 C 0.4857 0.163 0.15845 0.0
C278 C 0.49974 0.17374 0.13695 0.0
C279 C 0.49621 0.1905 0.11139 0.0
C280 C 0.48333 0.25527 1.00151 0.0
C281 C 0.4738 0.25635 0.94844 0.0
C282 C 0.47667 0.27072 0.90964 0.0
C283 C 0.48914 0.28426 0.92322 0.0
C284 C 0.49928 0.2825 0.97505 0.0
C285 C 0.49631 0.26827 0.01379 0.0
C286 C 0.45632 0.25161 0.19509 0.0
C287 C 0.44496 0.26636 0.1887 0.0
Pr288 Pr 0.01791 0.99395 0.75417 0.0
Pr289 Pr 0.99407 0.00676 0.63462 0.0
C290 C 0.02455 0.97818 0.85721 0.0
C291 C 0.01672 0.96173 0.88225 0.0
C292 C 0.02728 0.9463 0.88703 0.0
C293 C 0.01937 0.9297 0.89774 0.0
C294 C 1.00074 0.92827 0.90426 0.0
C295 C 0.99034 0.9439 0.90341 0.0
C296 C 0.99824 0.96046 0.89246 0.0
C297 C 0.04006 1.00288 0.65868 0.0
C298 C 1.00283 0.96381 0.65224 0.0
C299 C 0.98661 0.02447 0.53592 0.0
C300 C 0.99494 0.04154 0.52003 0.0
C301 C 0.98614 0.05385 0.48391 0.0
C302 C 0.99236 0.07148 0.48014 0.0
C303 C 0.00714 0.07718 0.51396 0.0
C304 C 0.01625 0.06444 0.54821 0.0
C305 C 0.01036 0.04682 0.55047 0.0
C306 C 0.97261 0.99676 0.73075 0.0
C307 C 0.0098 0.03709 0.73526 0.0
O308 O 0.01397 0.99212 0.85251 0.0
O309 O 0.0346 0.97566 0.81076 0.0
O310 O 0.02324 1.00343 0.66124 0.0
O311 O 0.04629 0.99814 0.70989 0.0
O312 O 0.99825 0.97648 0.61419 0.0
O313 O 0.0083 0.96727 0.70684 0.0
O314 O 0.99726 0.01054 0.53642 0.0
O315 O 0.97644 0.02548 0.58263 0.0
O316 O 0.98927 0.99774 0.72695 0.0
O317 O 0.96576 1.00052 0.6795 0.0
O318 O 0.01524 0.02461 0.7727 0.0
O319 O 1.00313 0.03335 0.68253 0.0
H320 H 0.04154 0.94691 0.87915 0.0
H321 H 0.02776 0.91791 0.89795 0.0
H322 H 0.97601 0.94328 0.90969 0.0
H323 H 0.98971 0.97209 0.88944 0.0
H324 H 0.97413 0.05004 0.46045 0.0
H325 H 0.9853 0.08068 0.45168 0.0
H326 H 0.02746 0.06811 0.57571 0.0
H327 H 0.01731 0.03754 0.579 0.0
Pr328 Pr 0.50816 0.01662 0.73204 0.0
Pr329 Pr 0.49611 0.99241 0.61196 0.0
C330 C 0.524 0.02464 0.83342 0.0
C331 C 0.54227 0.01939 0.84937 0.0
C332 C 0.55441 0.0324 0.8687 0.0
C333 C 0.57276 0.02896 0.86747 0.0
C334 C 0.57918 0.01246 0.8468 0.0
C335 C 0.56693 0.99913 0.83065 0.0
C336 C 0.54866 1.00254 0.83196 0.0
C337 C 0.49975 0.03801 0.63386 0.0
C338 C 0.53905 1.00158 0.63346 0.0
C339 C 0.48072 0.98443 0.50949 0.0
C340 C 0.46304 0.99025 0.48741 0.0
C341 C 0.4474 0.98183 0.50773 0.0
C342 C 0.43075 0.98979 0.49932 0.0
C343 C 0.42937 0.00625 0.47007 0.0
C344 C 0.44481 0.01395 0.44557 0.0
C345 C 0.46148 0.00594 0.45381 0.0
C346 C 0.50581 0.9711 0.70903 0.0
C347 C 0.46529 0.00739 0.71093 0.0
O348 O 0.51223 0.01167 0.82931 0.0
O349 O 0.52325 0.03598 0.78959 0.0
O350 O 0.49874 0.02133 0.63927 0.0
O351 O 0.50489 0.04473 0.68387 0.0
O352 O 0.52665 0.99677 0.59474 0.0
O353 O 0.53521 0.00731 0.68737 0.0
O354 O 0.49298 0.99693 0.51412 0.0
O355 O 0.48042 0.97352 0.55469 0.0
O356 O 0.50519 0.9878 0.70482 0.0
O357 O 0.50175 0.96422 0.65814 0.0
O358 O 0.47766 0.01244 0.74939 0.0
O359 O 0.46902 1.00152 0.65707 0.0
H360 H 0.54977 0.04558 0.88123 0.0
H361 H 0.58194 0.03938 0.88091 0.0
H362 H 0.57149 0.98639 0.81374 0.0
H363 H 0.53965 0.99238 0.81539 0.0
H364 H 0.44806 0.96962 0.53326 0.0
H365 H 0.41911 0.98352 0.51865 0.0
H366 H 0.44406 0.02644 0.42156 0.0
H367 H 0.47324 0.0126 0.43675 0.0
Pr368 Pr 0.49449 0.50797 0.73225 0.0
Pr369 Pr 0.51889 0.49721 0.62261 0.0
C370 C 0.48732 0.52448 0.83292 0.0
C371 C 0.49178 0.54345 0.84283 0.0
C372 C 0.47804 0.55605 0.84932 0.0
C373 C 0.48148 0.57425 0.84071 0.0
C374 C 0.49872 0.58011 0.8254 0.0
C375 C 0.51265 0.56757 0.8226 0.0
C376 C 0.50926 0.54948 0.83154 0.0
C377 C 0.47269 0.5038 0.63291 0.0
C378 C 0.51047 0.53963 0.63886 0.0
C379 C 0.53108 0.47914 0.5302 0.0
C380 C 0.52401 0.46171 0.51115 0.0
C381 C 0.53543 0.4469 0.5068 0.0
C382 C 0.52836 0.42958 0.50483 0.0
C383 C 0.50978 0.42689 0.50762 0.0
C384 C 0.49841 0.44177 0.50841 0.0
C385 C 0.50543 0.45897 0.51016 0.0
C386 C 0.53718 0.50745 0.72381 0.0
C387 C 0.49896 0.4652 0.70841 0.0
O388 O 0.50089 0.51353 0.82776 0.0
O389 O 0.47496 0.52176 0.79317 0.0
O390 O 0.4894 0.50189 0.63558 0.0
O391 O 0.46638 0.50713 0.68502 0.0
O392 O 0.51551 0.52739 0.60048 0.0
O393 O 0.50425 0.53547 0.69163 0.0
O394 O 0.52026 0.49283 0.52434 0.0
O395 O 0.53922 0.47877 0.58117 0.0
O396 O 0.5233 0.49786 0.72181 0.0
O397 O 0.54273 0.51143 0.67115 0.0
O398 O 0.49316 0.47719 0.74664 0.0
O399 O 0.50737 0.4698 0.65928 0.0
H400 H 0.46444 0.55174 0.85738 0.0
H401 H 0.47055 0.58366 0.84446 0.0
H402 H 0.52606 0.57159 0.81056 0.0
H403 H 0.52018 0.54017 0.82543 0.0
H404 H 0.54979 0.44866 0.50862 0.0
H405 H 0.53744 0.41831 0.50435 0.0
H406 H 0.48405 0.44013 0.50978 0.0
H407 H 0.49622 0.47001 0.51449 0.0
Pr408 Pr 0.00365 0.49106 0.72576 0.0
Pr409 Pr 0.01235 0.51767 0.60974 0.0
C410 C 0.98928 0.48025 0.82667 0.0
C411 C 0.97112 0.48496 0.84604 0.0
C412 C 0.9585 0.4713 0.85406 0.0
C413 C 0.94025 0.47508 0.85031 0.0
C414 C 0.93438 0.49259 0.8388 0.0
C415 C 0.94698 0.50646 0.83652 0.0
C416 C 0.96517 0.50271 0.84012 0.0
C417 C 0.01137 0.47144 0.6231 0.0
C418 C 0.97045 0.50587 0.63646 0.0
C419 C 0.02387 0.52891 0.50466 0.0
C420 C 0.03916 0.52313 0.46928 0.0
C421 C 0.04972 0.53587 0.44037 0.0
C422 C 0.06637 0.53103 0.41756 0.0
C423 C 0.07258 0.51338 0.4233 0.0
C424 C 0.06149 0.50048 0.44946 0.0
C425 C 0.04499 0.50534 0.47258 0.0
C426 C 1.00329 0.53755 0.71036 0.0
C427 C 0.04568 0.50184 0.69893 0.0
O428 O 1.00106 0.49327 0.82475 0.0
O429 O 0.98954 0.47009 0.7798 0.0
O430 O 0.01091 0.48812 0.62974 0.0
O431 O 0.00841 0.46387 0.67367 0.0
O432 O 0.98193 0.51163 0.59631 0.0
O433 O 0.97542 0.49987 0.68892 0.0
O434 O 0.01077 0.51738 0.51052 0.0
O435 O 0.02825 0.53683 0.55391 0.0
O436 O 0.00436 0.52082 0.70512 0.0
O437 O 0.00626 0.54487 0.65943 0.0
O438 O 0.0343 0.49514 0.73781 0.0
O439 O 0.04068 0.50928 0.64824 0.0
H440 H 0.96276 0.45751 0.85811 0.0
H441 H 0.93077 0.46417 0.85354 0.0
H442 H 0.94289 0.52005 0.82718 0.0
H443 H 0.97451 0.51354 0.83295 0.0
H444 H 0.04553 0.54971 0.43822 0.0
H445 H 0.07466 0.5412 0.39739 0.0
H446 H 0.06604 0.48685 0.45552 0.0
H447 H 0.03729 0.49539 0.49609 0.0
H448 H 0.16999 1.0017 0.29969 0.0
H449 H 0.1464 1.0 0.37308 0.0
H450 H 0.10706 0.01201 0.24008 0.0
H451 H 0.13088 0.01422 0.16631 0.0
H452 H 0.09938 0.03027 0.33305 0.0
H453 H 0.11199 0.96883 0.3025 0.0
H454 H 0.13032 0.94164 0.29211 0.0
H455 H 0.14889 0.94744 0.46967 0.0
H456 H 0.13085 0.97481 0.4809 0.0
H457 H 0.02982 0.00767 0.54335 0.0
H458 H 0.04912 0.00903 0.45635 0.0
H459 H 0.09549 0.00415 0.56785 0.0
H460 H 0.07624 1.00293 0.65432 0.0
H461 H 0.09648 0.98061 0.47724 0.0
H462 H 0.08429 0.04391 0.50183 0.0
H463 H 0.06485 0.07037 0.50904 0.0
H464 H 0.04336 0.05941 0.33777 0.0
H465 H 0.06261 0.03272 0.32978 0.0
C466 C 0.1563 1.00364 0.28567 0.0
C467 C 0.15234 0.00787 0.22683 0.0
C468 C 0.14275 1.00267 0.32786 0.0
C469 C 0.12479 0.00554 0.31229 0.0
C470 C 0.12076 0.00969 0.25342 0.0
C471 C 0.13439 0.01089 0.2112 0.0
C472 C 0.11046 0.00476 0.35811 0.0
C473 C 0.09856 0.01923 0.36385 0.0
C474 C 0.1093 0.99045 0.39884 0.0
C475 C 0.12016 0.97396 0.39238 0.0
C476 C 0.12007 0.96438 0.33921 0.0
C477 C 0.1304 0.94892 0.33319 0.0
C478 C 0.14079 0.94284 0.38016 0.0
C479 C 0.14085 0.95218 0.43331 0.0
C480 C 0.13055 0.96765 0.43955 0.0
C481 C 0.04408 0.00725 0.54926 0.0
C482 C 0.05142 0.00532 0.60574 0.0
C483 C 0.05516 0.00797 0.49949 0.0
C484 C 0.07382 0.00672 0.5054 0.0
C485 C 0.08115 0.00509 0.56198 0.0
C486 C 0.07011 0.00445 0.61148 0.0
C487 C 0.08585 0.00631 0.45309 0.0
C488 C 0.09724 0.99155 0.44602 0.0
C489 C 0.0863 0.02019 0.41072 0.0
C490 C 0.07473 0.0362 0.41553 0.0
C491 C 0.0753 0.04705 0.46593 0.0
C492 C 0.06432 0.0621 0.47011 0.0
C493 C 0.05278 0.06652 0.42401 0.0
C494 C 0.05226 0.05593 0.37352 0.0
C495 C 0.06322 0.04085 0.36912 0.0
H496 H 0.04429 0.07818 0.4272 0.0
H497 H 0.14878 0.93087 0.3754 0.0
H498 H 0.51087 0.15897 0.24484 0.0
H499 H 0.51388 0.13445 0.3149 0.0
H500 H 0.47124 0.10605 0.22793 0.0
H501 H 0.46809 0.13068 0.15774 0.0
H502 H 0.46546 0.10609 0.34108 0.0
H503 H 0.51583 0.09154 0.2228 0.0
H504 H 0.54391 0.09682 0.16896 0.0
H505 H 0.57005 0.11158 0.32982 0.0
H506 H 0.54206 0.10663 0.38456 0.0
H507 H 0.48006 0.03031 0.53491 0.0
H508 H 0.47787 0.04836 0.44431 0.0
H509 H 0.51384 0.08723 0.51917 0.0
H510 H 0.51582 0.06947 0.60913 0.0
H511 H 0.52257 0.07822 0.40301 0.0
H512 H 0.47163 0.09603 0.51789 0.0
H513 H 0.44337 0.09207 0.57183 0.0
H514 H 0.41841 0.07151 0.41599 0.0
H515 H 0.44661 0.07505 0.36131 0.0
C516 C 0.50244 0.14731 0.23953 0.0
C517 C 0.48925 0.14684 0.19541 0.0
C518 C 0.50415 0.13325 0.27986 0.0
C519 C 0.49288 0.11823 0.27673 0.0
C520 C 0.48008 0.11746 0.23155 0.0
C521 C 0.4783 0.13157 0.19135 0.0
C522 C 0.49364 0.10403 0.323 0.0
C523 C 0.4779 0.09969 0.35356 0.0
C524 C 0.5099 0.09587 0.34045 0.0
C525 C 0.52679 0.09883 0.30773 0.0
C526 C 0.52753 0.09604 0.24665 0.0
C527 C 0.54344 0.09895 0.21598 0.0
C528 C 0.55875 0.10456 0.24593 0.0
C529 C 0.55818 0.10724 0.30667 0.0
C530 C 0.5423 0.10436 0.33755 0.0
C531 C 0.48759 0.04262 0.53147 0.0
C532 C 0.4982 0.04843 0.57869 0.0
C533 C 0.48627 0.05296 0.48 0.0
C534 C 0.49577 0.06914 0.47481 0.0
C535 C 0.50648 0.07478 0.52191 0.0
C536 C 0.50752 0.06466 0.57344 0.0
C537 C 0.49446 0.08054 0.42118 0.0
C538 C 0.5101 0.08437 0.38949 0.0
C539 C 0.47813 0.08821 0.40259 0.0
C540 C 0.46131 0.08556 0.43576 0.0
C541 C 0.46019 0.09043 0.49532 0.0
C542 C 0.44415 0.08832 0.52598 0.0
C543 C 0.42909 0.08155 0.49735 0.0
C544 C 0.43006 0.0768 0.43806 0.0
C545 C 0.44608 0.0788 0.40725 0.0
H546 H 0.41668 0.08002 0.52115 0.0
H547 H 0.57105 0.10681 0.2221 0.0
H548 H 0.34263 0.5059 0.27871 0.0
H549 H 0.36703 0.50805 0.34909 0.0
H550 H 0.40413 0.48994 0.21694 0.0
H551 H 0.37944 0.48732 0.14621 0.0
H552 H 0.41164 0.47396 0.31573 0.0
H553 H 0.4026 0.5348 0.2645 0.0
H554 H 0.3858 0.56257 0.24564 0.0
H555 H 0.36838 0.56359 0.42534 0.0
H556 H 0.38487 0.53569 0.44511 0.0
H557 H 0.48332 0.49902 0.51818 0.0
H558 H 0.46407 0.49731 0.43052 0.0
H559 H 0.4176 0.50469 0.5397 0.0
H560 H 0.43661 0.50588 0.62686 0.0
H561 H 0.41867 0.52754 0.44193 0.0
H562 H 0.42667 0.46456 0.48765 0.0
H563 H 0.44458 0.4373 0.50364 0.0
H564 H 0.46606 0.4417 0.32935 0.0
H565 H 0.44846 0.46915 0.3126 0.0
C566 C 0.35601 0.50269 0.26411 0.0
C567 C 0.35909 0.4967 0.20642 0.0
C568 C 0.37002 0.50391 0.30457 0.0
C569 C 0.38759 0.49951 0.28832 0.0
C570 C 0.39074 0.49349 0.23068 0.0
C571 C 0.37663 0.49205 0.1902 0.0
C572 C 0.4024 0.5008 0.33234 0.0
C573 C 0.41339 0.48583 0.34247 0.0
C574 C 0.40477 0.51622 0.36772 0.0
C575 C 0.39489 0.53307 0.35617 0.0
C576 C 0.3951 0.54088 0.29991 0.0
C577 C 0.38563 0.55666 0.28907 0.0
C578 C 0.376 0.56482 0.33424 0.0
C579 C 0.37584 0.55725 0.39039 0.0
C580 C 0.38527 0.54146 0.40146 0.0
C581 C 0.46898 0.49991 0.52339 0.0
C582 C 0.46146 0.50231 0.57943 0.0
C583 C 0.45801 0.49904 0.47334 0.0
C584 C 0.43937 0.50082 0.47857 0.0
C585 C 0.43193 0.5033 0.53454 0.0
C586 C 0.44282 0.50393 0.58437 0.0
C587 C 0.42743 0.50059 0.42618 0.0
C588 C 0.41704 0.5158 0.41449 0.0
C589 C 0.42584 0.48552 0.38897 0.0
C590 C 0.43639 0.46902 0.3991 0.0
C591 C 0.43533 0.45981 0.45292 0.0
C592 C 0.44539 0.4443 0.46206 0.0
C593 C 0.45645 0.43778 0.41754 0.0
C594 C 0.45748 0.44677 0.36379 0.0
C595 C 0.44746 0.46229 0.35444 0.0
H596 H 0.46422 0.42577 0.4247 0.0
H597 H 0.36868 0.57703 0.32575 0.0
H598 H 0.02974 0.38031 0.13603 0.0
H599 H 0.02907 0.40424 0.20914 0.0
H600 H 0.9912 0.37427 0.31212 0.0
H601 H 0.99223 0.34999 0.24078 0.0
H602 H 0.98368 0.41151 0.30994 0.0
H603 H 0.03341 0.37137 0.3466 0.0
H604 H 0.06096 0.35534 0.31919 0.0
H605 H 0.08711 0.40531 0.2839 0.0
H606 H 0.0596 0.42163 0.31026 0.0
H607 H 0.02227 0.43716 0.61037 0.0
H608 H 0.0229 0.41918 0.52068 0.0
H609 H 0.00545 0.46484 0.42002 0.0
H610 H 0.00467 0.48287 0.51034 0.0
H611 H 0.04083 0.42173 0.41553 0.0
H612 H 0.97616 0.4481 0.31343 0.0
H613 H 0.94905 0.46439 0.34407 0.0
H614 H 0.95269 0.441 0.51605 0.0
H615 H 0.97961 0.42433 0.4861 0.0
C616 C 0.02119 0.37875 0.17403 0.0
C617 C 0.01118 0.36296 0.18228 0.0
C618 C 0.02075 0.39256 0.21571 0.0
C619 C 0.0102 0.39103 0.26649 0.0
C620 C 0.99939 0.37583 0.27323 0.0
C621 C 0.99995 0.36193 0.23193 0.0
C622 C 0.01154 0.40443 0.31495 0.0
C623 C 0.99621 0.41385 0.33265 0.0
C624 C 0.02784 0.40749 0.34506 0.0
C625 C 0.0444 0.3977 0.32974 0.0
C626 C 0.045 0.37893 0.33254 0.0
C627 C 0.0606 0.36979 0.31726 0.0
C628 C 0.07576 0.37929 0.29965 0.0
C629 C 0.07535 0.39796 0.29744 0.0
C630 C 0.05976 0.40716 0.31256 0.0
C631 C 0.01881 0.44345 0.56899 0.0
C632 C 0.0136 0.46148 0.56725 0.0
C633 C 0.01922 0.43316 0.51768 0.0
C634 C 0.01414 0.44058 0.46348 0.0
C635 C 0.00937 0.45877 0.4613 0.0
C636 C 0.00909 0.46913 0.51279 0.0
C637 C 0.01301 0.42887 0.41047 0.0
C638 C 0.02837 0.41966 0.39211 0.0
C639 C 0.99673 0.42598 0.38001 0.0
C640 C 0.98001 0.43514 0.39766 0.0
C641 C 0.97108 0.44633 0.35762 0.0
C642 C 0.95576 0.45564 0.37489 0.0
C643 C 0.9492 0.45379 0.43204 0.0
C644 C 0.95781 0.44246 0.47185 0.0
C645 C 0.9731 0.43308 0.45474 0.0
H646 H 0.93745 0.46116 0.44545 0.0
H647 H 0.08783 0.3722 0.28785 0.0
H648 H 0.85101 0.9629 0.10819 0.0
H649 H 0.87524 0.96349 0.03689 0.0
H650 H 0.89994 0.00707 0.13094 0.0
H651 H 0.87517 0.00692 0.20154 0.0
H652 H 0.90138 0.01451 0.02284 0.0
H653 H 0.91726 0.96198 0.12746 0.0
H654 H 0.91347 0.93243 0.17385 0.0
H655 H 0.90055 0.90943 0.0063 0.0
H656 H 0.90399 0.93891 0.95898 0.0
H657 H 0.98054 0.00654 0.84314 0.0
H658 H 0.96153 1.00331 0.93061 0.0
H659 H 0.92205 0.97568 0.82673 0.0
H660 H 0.9408 0.97935 0.73897 0.0
H661 H 0.93124 0.9601 0.94644 0.0
H662 H 0.91349 0.01475 0.84654 0.0
H663 H 0.91857 0.04465 0.80408 0.0
H664 H 0.93738 0.06367 0.97105 0.0
H665 H 0.93282 0.03374 0.01414 0.0
C666 C 0.86178 0.97239 0.11445 0.0
C667 C 0.86123 0.98474 0.16104 0.0
C668 C 0.87572 0.97269 0.07355 0.0
C669 C 0.88976 0.98509 0.07872 0.0
C670 C 0.88936 0.99731 0.12577 0.0
C671 C 0.87522 0.99721 0.16627 0.0
C672 C 0.90412 0.98597 0.03294 0.0
C673 C 0.90813 1.0026 0.00725 0.0
C674 C 0.91293 0.97047 0.01144 0.0
C675 C 0.91074 0.95271 0.03975 0.0
C676 C 0.91347 0.95066 0.10056 0.0
C677 C 0.9114 0.93391 0.12702 0.0
C678 C 0.90673 0.91907 0.09307 0.0
C679 C 0.90415 0.92095 0.03256 0.0
C680 C 0.90617 0.93767 0.00588 0.0
C681 C 0.96796 0.99948 0.83934 0.0
C682 C 0.9622 0.993 0.78458 0.0
C683 C 0.95707 0.99774 0.88917 0.0
C684 C 0.94038 0.98924 0.88516 0.0
C685 C 0.93491 0.98221 0.83084 0.0
C686 C 0.9456 0.98432 0.7808 0.0
C687 C 0.92815 0.9885 0.93664 0.0
C688 C 0.92458 0.97193 0.96306 0.0
C689 C 0.91999 0.00405 0.95957 0.0
C690 C 0.92306 0.02194 0.93333 0.0
C691 C 0.91897 0.02523 0.87397 0.0
C692 C 0.92171 0.0422 0.84982 0.0
C693 C 0.92835 0.05603 0.88477 0.0
C694 C 0.93229 0.05292 0.94395 0.0
C695 C 0.92966 0.03596 0.96824 0.0
H696 H 0.93037 0.06918 0.86604 0.0
H697 H 0.90516 0.90612 0.11363 0.0
H698 H 0.49589 0.87081 0.17677 0.0
H699 H 0.49478 0.8958 0.10683 0.0
H700 H 0.53752 0.87174 0.0072 0.0
H701 H 0.5392 0.84743 0.07835 0.0
H702 H 0.54305 0.90462 0.00503 0.0
H703 H 0.49035 0.86967 0.96917 0.0
H704 H 0.46195 0.85469 0.99365 0.0
H705 H 0.43903 0.90509 0.04309 0.0
H706 H 0.46738 0.92034 0.01959 0.0
H707 H 0.52115 0.93828 0.71639 0.0
H708 H 0.52453 0.91943 0.80403 0.0
H709 H 0.50076 0.96074 0.91022 0.0
H710 H 0.49768 0.9798 0.82257 0.0
H711 H 0.48531 0.92229 0.915 0.0
H712 H 0.53981 0.95651 0.94367 0.0
H713 H 0.56855 0.96954 0.9128 0.0
H714 H 0.58761 0.91749 0.86403 0.0
H715 H 0.55902 0.90411 0.89552 0.0
C716 C 0.50514 0.87102 0.14021 0.0
C717 C 0.51771 0.85722 0.13333 0.0
C718 C 0.50442 0.88523 0.09988 0.0
C719 C 0.51586 0.88563 0.0507 0.0
C720 C 0.52857 0.87193 0.04458 0.0
C721 C 0.52955 0.85799 0.08544 0.0
C722 C 0.51457 0.90002 0.00493 0.0
C723 C 0.53037 0.90832 0.98534 0.0
C724 C 0.49809 0.90524 0.97914 0.0
C725 C 0.48104 0.89611 0.99332 0.0
C726 C 0.47929 0.87753 0.98569 0.0
C727 C 0.4632 0.869 0.99932 0.0
C728 C 0.44871 0.87892 0.0201 0.0
C729 C 0.45027 0.89742 0.02712 0.0
C730 C 0.46635 0.90601 0.01364 0.0
C731 C 0.51694 0.94345 0.75862 0.0
C732 C 0.50942 0.9606 0.76295 0.0
C733 C 0.51886 0.93268 0.80859 0.0
C734 C 0.51292 0.93869 0.86364 0.0
C735 C 0.50551 0.95589 0.86821 0.0
C736 C 0.50394 0.96683 0.81832 0.0
C737 C 0.51372 0.92655 0.91541 0.0
C738 C 0.49787 0.91865 0.93565 0.0
C739 C 0.53014 0.92136 0.94079 0.0
C740 C 0.54725 0.92935 0.92146 0.0
C741 C 0.55009 0.94787 0.92596 0.0
C742 C 0.56637 0.95531 0.90846 0.0
C743 C 0.57986 0.94437 0.88591 0.0
C744 C 0.57714 0.92595 0.88135 0.0
C745 C 0.56094 0.91842 0.89931 0.0
H746 H 0.59245 0.95013 0.87222 0.0
H747 H 0.43626 0.87229 0.03061 0.0
H748 H 0.64045 0.49474 0.18449 0.0
H749 H 0.61496 0.49407 0.1166 0.0
H750 H 0.63798 0.5378 0.01864 0.0
H751 H 0.66294 0.53892 0.08738 0.0
H752 H 0.60444 0.54273 0.021 0.0
H753 H 0.64095 0.49143 0.977 0.0
H754 H 0.6567 0.4632 0.99837 0.0
H755 H 0.60706 0.43854 0.04721 0.0
H756 H 0.59105 0.46672 0.02684 0.0
H757 H 0.56627 0.52902 0.73723 0.0
H758 H 0.58581 0.53159 0.82324 0.0
H759 H 0.55262 0.49413 0.91733 0.0
H760 H 0.533 0.49155 0.83134 0.0
H761 H 0.58848 0.4856 0.92383 0.0
H762 H 0.55201 0.53756 0.95463 0.0
H763 H 0.53761 0.56612 0.92837 0.0
H764 H 0.58898 0.58974 0.89656 0.0
H765 H 0.6037 0.56129 0.9221 0.0
C766 C 0.63993 0.50431 0.14877 0.0
C767 C 0.65369 0.51693 0.14155 0.0
C768 C 0.62541 0.50386 0.10968 0.0
C769 C 0.6246 0.51568 0.06151 0.0
C770 C 0.63815 0.52855 0.05529 0.0
C771 C 0.65245 0.52921 0.09483 0.0
C772 C 0.61003 0.5145 0.01649 0.0
C773 C 0.60109 0.53023 0.99952 0.0
C774 C 0.60525 0.49818 0.9889 0.0
C775 C 0.61485 0.48124 1.00108 0.0
C776 C 0.63342 0.48003 0.99271 0.0
C777 C 0.64239 0.46403 0.00458 0.0
C778 C 0.63289 0.4491 0.02432 0.0
C779 C 0.6144 0.45013 0.03206 0.0
C780 C 0.60538 0.4661 0.02034 0.0
C781 C 0.56304 0.52148 0.77647 0.0
C782 C 0.54811 0.51008 0.77751 0.0
C783 C 0.57418 0.523 0.8257 0.0
C784 C 0.57067 0.51311 0.87697 0.0
C785 C 0.5556 0.5019 0.87836 0.0
C786 C 0.54436 0.5005 0.82927 0.0
C787 C 0.58321 0.51385 0.92788 0.0
C788 C 0.59174 0.49804 0.94585 0.0
C789 C 0.58783 0.53014 0.95562 0.0
C790 C 0.57896 0.54724 0.93994 0.0
C791 C 0.56024 0.5488 0.94157 0.0
C792 C 0.55201 0.56498 0.92687 0.0
C793 C 0.56238 0.57971 0.91066 0.0
C794 C 0.58098 0.57831 0.90911 0.0
C795 C 0.58927 0.56217 0.9238 0.0
H796 H 0.55603 0.59226 0.89956 0.0
H797 H 0.63986 0.43673 0.03347 0.0
H798 H 0.0233 0.64426 0.1535 0.0
H799 H 0.025 0.6201 0.08105 0.0
H800 H 0.96767 0.62105 0.06248 0.0
H801 H 0.96586 0.64496 0.13503 0.0
H802 H 0.97866 0.58764 0.05444 0.0
H803 H 0.99566 0.64372 0.9663 0.0
H804 H 0.01328 0.67144 0.95688 0.0
H805 H 0.06133 0.64061 0.93808 0.0
H806 H 0.044 0.6127 0.9482 0.0
H807 H 0.99336 0.57221 0.71796 0.0
H808 H 0.9912 0.59085 0.80563 0.0
H809 H 0.00491 0.54551 0.91391 0.0
H810 H 0.00715 0.52679 0.82553 0.0
H811 H 0.01648 0.59992 0.88011 0.0
H812 H 0.98651 0.5509 0.04812 0.0
H813 H 0.96604 0.525 0.04998 0.0
H814 H 0.93885 0.54518 0.89749 0.0
H815 H 0.95922 0.57106 0.89449 0.0
C816 C 0.01104 0.6392 0.13441 0.0
C817 C 0.99445 0.64666 0.15015 0.0
C818 C 0.01202 0.62537 0.09292 0.0
C819 C 0.99648 0.61886 0.06539 0.0
C820 C 0.97987 0.62573 0.083 0.0
C821 C 0.97886 0.63944 0.12477 0.0
C822 C 0.99751 0.60593 0.01535 0.0
C823 C 0.98706 0.59028 0.0166 0.0
C824 C 0.00815 0.6094 0.96511 0.0
C825 C 0.01857 0.62614 0.95864 0.0
C826 C 0.01 0.64286 0.96054 0.0
C827 C 0.01993 0.6586 0.95504 0.0
C828 C 0.03842 0.65779 0.94706 0.0
C829 C 0.04701 0.64122 0.94439 0.0
C830 C 0.03714 0.62544 0.94998 0.0
C831 C 0.99569 0.56613 0.76051 0.0
C832 C 1.00018 0.54793 0.76492 0.0
C833 C 0.99453 0.57684 0.81066 0.0
C834 C 0.99787 0.56966 0.86664 0.0
C835 C 1.00203 0.55136 0.87139 0.0
C836 C 1.00319 0.5406 0.82092 0.0
C837 C 0.99767 0.58164 0.91918 0.0
C838 C 0.00829 0.59713 0.91836 0.0
C839 C 0.98686 0.57824 0.96895 0.0
C840 C 0.97447 0.5628 0.97084 0.0
C841 C 0.97615 0.54979 0.01505 0.0
C842 C 0.96461 0.53508 0.01615 0.0
C843 C 0.95123 0.53337 0.97363 0.0
C844 C 0.94932 0.5464 0.93005 0.0
C845 C 0.96089 0.56106 0.92851 0.0
H846 H 0.9423 0.52198 0.97452 0.0
H847 H 0.04609 0.66999 0.9428 0.0
H848 H 0.01936 0.23496 0.3595 0.0
H849 H 0.01481 0.20893 0.42166 0.0
H850 H 0.07189 0.20101 0.43187 0.0
H851 H 0.07642 0.22678 0.36682 0.0
H852 H 0.05675 0.17238 0.39521 0.0
H853 H 0.04405 0.21284 0.55012 0.0
H854 H 0.02981 0.23816 0.60067 0.0
H855 H 0.97866 0.21261 0.58558 0.0
H856 H 0.99247 0.18728 0.53366 0.0
H857 H 0.04098 0.09089 0.5311 0.0
H858 H 0.05039 0.12182 0.52726 0.0
H859 H 0.99617 0.13822 0.4929 0.0
H860 H 0.98624 0.10729 0.50107 0.0
H861 H 0.01386 0.16306 0.5585 0.0
H862 H 0.02413 0.12937 0.37983 0.0
H863 H 0.03615 0.10372 0.32446 0.0
H864 H 0.08935 0.11746 0.37892 0.0
H865 H 0.07759 0.14308 0.43529 0.0
C866 C 0.03097 0.22807 0.37681 0.0
C867 C 0.04824 0.23283 0.35862 0.0
C868 C 0.02836 0.21318 0.4125 0.0
C869 C 0.04301 0.20305 0.4319 0.0
C870 C 0.06039 0.20864 0.41738 0.0
C871 C 0.06299 0.22336 0.38057 0.0
C872 C 0.04 0.18536 0.45946 0.0
C873 C 0.04775 0.17046 0.43206 0.0
C874 C 0.02775 0.18278 0.50619 0.0
C875 C 0.01936 0.19808 0.53762 0.0
C876 C 0.02973 0.21266 0.55689 0.0
C877 C 0.02173 0.22703 0.58593 0.0
C878 C 1.00334 0.227 0.59629 0.0
C879 C 0.99292 0.2126 0.57759 0.0
C880 C 1.00084 0.19821 0.54841 0.0
C881 C 0.03086 0.10094 0.52406 0.0
C882 C 0.01284 0.0963 0.51464 0.0
C883 C 0.03635 0.11872 0.52176 0.0
C884 C 0.02405 0.13225 0.50854 0.0
C885 C 0.00591 0.12793 0.50271 0.0
C886 C 1.00033 0.11014 0.50606 0.0
C887 C 0.03035 0.15041 0.49332 0.0
C888 C 0.02318 0.16524 0.52272 0.0
C889 C 0.04283 0.15307 0.44753 0.0
C890 C 0.04998 0.13802 0.41219 0.0
C891 C 0.03839 0.12689 0.38011 0.0
C892 C 0.04515 0.11236 0.34856 0.0
C893 C 0.0635 0.10894 0.34826 0.0
C894 C 0.07513 0.12011 0.37926 0.0
C895 C 0.06844 0.13464 0.41097 0.0
H896 H 0.0687 0.09765 0.32401 0.0
H897 H 0.99718 0.23813 0.61887 0.0
H898 H 0.27421 0.03991 0.36177 0.0
H899 H 0.30056 0.03615 0.42223 0.0
H900 H 0.31641 0.09052 0.38475 0.0
H901 H 0.29027 0.0939 0.32068 0.0
H902 H 0.34164 0.07136 0.35761 0.0
H903 H 0.3088 0.07282 0.533 0.0
H904 H 0.2849 0.06712 0.60504 0.0
H905 H 0.29729 0.0111 0.60364 0.0
H906 H 0.32102 0.01637 0.53067 0.0
H907 H 0.42346 0.04165 0.48979 0.0
H908 H 0.39491 0.05773 0.48475 0.0
H909 H 0.36773 0.00843 0.44506 0.0
H910 H 0.39619 0.99234 0.44831 0.0
H911 H 0.35024 0.03221 0.53132 0.0
H912 H 0.37917 0.03291 0.3377 0.0
H913 H 0.40408 0.04036 0.27121 0.0
H914 H 0.39909 0.09586 0.31625 0.0
H915 H 0.3744 0.08867 0.38415 0.0
C916 C 0.28292 0.05131 0.36826 0.0
C917 C 0.28027 0.06717 0.33639 0.0
C918 C 0.29802 0.04919 0.40336 0.0
C919 C 0.31058 0.06307 0.40862 0.0
C920 C 0.307 0.07957 0.38125 0.0
C921 C 0.29206 0.08154 0.34483 0.0
C922 C 0.32868 0.05904 0.43226 0.0
C923 C 0.34347 0.06331 0.39683 0.0
C924 C 0.33129 0.04837 0.48314 0.0
C925 C 0.31673 0.04502 0.52618 0.0
C926 C 0.30634 0.05926 0.5476 0.0
C927 C 0.29282 0.0561 0.58869 0.0
C928 C 0.28958 0.03876 0.60892 0.0
C929 C 0.29983 0.02453 0.58801 0.0
C930 C 0.31334 0.0276 0.54684 0.0
C931 C 0.41142 0.03431 0.47925 0.0
C932 C 0.41208 0.01583 0.46817 0.0
C933 C 0.39518 0.04345 0.47722 0.0
C934 C 0.37937 0.03424 0.46437 0.0
C935 C 0.37985 0.01571 0.45539 0.0
C936 C 0.3961 0.00657 0.45702 0.0
C937 C 0.3625 0.04404 0.45534 0.0
C938 C 0.34818 0.04079 0.49344 0.0
C939 C 0.36033 0.05596 0.40773 0.0
C940 C 0.37512 0.06022 0.36666 0.0
C941 C 0.38352 0.04667 0.33396 0.0
C942 C 0.39758 0.05085 0.29594 0.0
C943 C 0.4032 0.06856 0.28964 0.0
C944 C 0.39473 0.08214 0.3212 0.0
C945 C 0.38074 0.07802 0.35957 0.0
H946 H 0.4141 0.07177 0.26023 0.0
H947 H 0.27913 0.03636 0.64081 0.0
H948 H 0.44862 0.26814 0.41345 0.0
H949 H 0.45393 0.29092 0.48882 0.0
H950 H 0.45127 0.33205 0.35633 0.0
H951 H 0.44716 0.30976 0.281 0.0
H952 H 0.48383 0.31321 0.48642 0.0
H953 H 0.43286 0.36822 0.41025 0.0
H954 H 0.401 0.36983 0.38341 0.0
H955 H 0.39066 0.32179 0.481 0.0
H956 H 0.42241 0.32002 0.50925 0.0
H957 H 0.51919 0.39724 0.44509 0.0
H958 H 0.50507 0.36784 0.44775 0.0
H959 H 0.46907 0.38601 0.58322 0.0
H960 H 0.48298 0.41555 0.58005 0.0
H961 H 0.45099 0.37059 0.50153 0.0
H962 H 0.50063 0.35562 0.61073 0.0
H963 H 0.53169 0.35292 0.64459 0.0
H964 H 0.54425 0.32037 0.49496 0.0
H965 H 0.51327 0.32297 0.45971 0.0
C966 C 0.44904 0.28204 0.40031 0.0
C967 C 0.44761 0.28697 0.34059 0.0
C968 C 0.45191 0.29502 0.44363 0.0
C969 C 0.45286 0.31313 0.42811 0.0
C970 C 0.45024 0.31815 0.36941 0.0
C971 C 0.44776 0.30527 0.32616 0.0
C972 C 0.45903 0.32686 0.47012 0.0
C973 C 0.47667 0.32574 0.49069 0.0
C974 C 0.44925 0.3428 0.47821 0.0
C975 C 0.43006 0.34398 0.46186 0.0
C976 C 0.42378 0.35808 0.42646 0.0
C977 C 0.40574 0.359 0.41086 0.0
C978 C 0.39381 0.34592 0.43045 0.0
C979 C 0.39991 0.3319 0.46575 0.0
C980 C 0.41794 0.33091 0.4815 0.0
C981 C 0.50848 0.39487 0.47612 0.0
C982 C 0.50213 0.4087 0.51205 0.0
C983 C 0.50047 0.37805 0.47788 0.0
C984 C 0.48613 0.37468 0.5162 0.0
C985 C 0.4801 0.38833 0.55338 0.0
C986 C 0.48802 0.4052 0.55127 0.0
C987 C 0.47642 0.35749 0.51243 0.0
C988 C 0.45812 0.358 0.49921 0.0
C989 C 0.48555 0.34092 0.51229 0.0
C990 C 0.50441 0.33937 0.53276 0.0
C991 C 0.50996 0.34788 0.58487 0.0
C992 C 0.5276 0.34638 0.60435 0.0
C993 C 0.53994 0.33644 0.57203 0.0
C994 C 0.53465 0.328 0.52011 0.0
C995 C 0.517 0.32943 0.50049 0.0
H996 H 0.5536 0.3353 0.58714 0.0
H997 H 0.37985 0.34665 0.41829 0.0
H998 H 0.23714 0.47863 0.37744 0.0
H999 H 0.20935 0.48786 0.42351 0.0
H1000 H 0.18605 0.43659 0.3841 0.0
H1001 H 0.21411 0.42688 0.33976 0.0
H1002 H 0.17577 0.46868 0.31295 0.0
H1003 H 0.18054 0.44712 0.50967 0.0
H1004 H 0.19203 0.44287 0.6102 0.0
H1005 H 0.18746 0.4992 0.64264 0.0
H1006 H 0.17627 0.50387 0.54188 0.0
H1007 H 0.08438 0.48363 0.36599 0.0
H1008 H 0.11521 0.47331 0.35777 0.0
H1009 H 0.13371 0.5219 0.43984 0.0
H1010 H 0.10279 0.53212 0.44956 0.0
H1011 H 0.1475 0.49304 0.49243 0.0
H1012 H 0.14314 0.51472 0.29873 0.0
H1013 H 0.13097 0.51984 0.19942 0.0
H1014 H 0.13445 0.46368 0.1625 0.0
H1015 H 0.14641 0.45816 0.26192 0.0
C1016 C 0.22655 0.46885 0.38173 0.0
C1017 C 0.22763 0.45219 0.3531 0.0
C1018 C 0.21061 0.47421 0.4082 0.0
C1019 C 0.19563 0.46301 0.40617 0.0
C1020 C 0.19752 0.44542 0.38582 0.0
C1021 C 0.21351 0.43996 0.36004 0.0
C1022 C 0.17772 0.47118 0.40711 0.0
C1023 C 0.1693 0.47357 0.35248 0.0
C1024 C 0.16997 0.47847 0.45829 0.0
C1025 C 0.17787 0.47588 0.51761 0.0
C1026 C 0.18235 0.45867 0.5377 0.0
C1027 C 0.1887 0.45617 0.59493 0.0
C1028 C 0.19056 0.47077 0.6327 0.0
C1029 C 0.1861 0.48791 0.61325 0.0
C1030 C 0.17976 0.49049 0.55606 0.0
C1031 C 0.09504 0.49223 0.38143 0.0
C1032 C 0.09121 0.50865 0.40846 0.0
C1033 C 0.11264 0.48638 0.37643 0.0
C1034 C 0.12671 0.49688 0.39807 0.0
C1035 C 0.12301 0.51364 0.42278 0.0
C1036 C 0.10537 0.51952 0.42774 0.0
C1037 C 0.14505 0.48961 0.3989 0.0
C1038 C 0.15376 0.48777 0.45326 0.0
C1039 C 0.15315 0.48284 0.34755 0.0
C1040 C 0.14551 0.486 0.28811 0.0
C1041 C 0.14111 0.50342 0.26973 0.0
C1042 C 0.1343 0.5064 0.21333 0.0
C1043 C 0.13189 0.49209 0.17473 0.0
C1044 C 0.13629 0.47475 0.19247 0.0
C1045 C 0.14311 0.47169 0.24884 0.0
H1046 H 0.12666 0.49444 0.13103 0.0
H1047 H 0.19537 0.46879 0.67711 0.0
H1048 H 0.96197 0.76675 0.97563 0.0
H1049 H 0.96729 0.7941 0.92089 0.0
H1050 H 0.91857 0.81654 0.98939 0.0
H1051 H 0.91273 0.78887 0.04315 0.0
H1052 H 0.95093 0.82283 0.84824 0.0
H1053 H 0.93368 0.84988 0.07473 0.0
H1054 H 0.93001 0.83908 0.17666 0.0
H1055 H 0.96934 0.79832 0.14651 0.0
H1056 H 0.97339 0.80906 0.04483 0.0
H1057 H 0.97003 0.91689 0.85079 0.0
H1058 H 0.95576 0.88761 0.85906 0.0
H1059 H 0.99813 0.86991 0.97391 0.0
H1060 H 0.01207 0.89937 0.96786 0.0
H1061 H 0.96707 0.86131 0.01796 0.0
H1062 H 0.99534 0.85606 0.82892 0.0
H1063 H 1.00225 0.86417 0.72621 0.0
H1064 H 0.94686 0.85901 0.68026 0.0
H1065 H 0.93957 0.85102 0.78273 0.0
C1066 C 0.95177 0.777 0.97645 0.0
C1067 C 0.93721 0.77586 0.01545 0.0
C1068 C 0.95488 0.7927 0.94494 0.0
C1069 C 0.94356 0.80742 0.95245 0.0
C1070 C 0.92754 0.80532 0.98368 0.0
C1071 C 0.92432 0.78955 0.01477 0.0
C1072 C 0.95079 0.82551 0.94234 0.0
C1073 C 0.95425 0.83142 0.88504 0.0
C1074 C 0.95567 0.83634 0.99066 0.0
C1075 C 0.95366 0.83013 0.05216 0.0
C1076 C 0.94158 0.83866 0.09004 0.0
C1077 C 0.93944 0.83255 0.14772 0.0
C1078 C 0.94941 0.81799 0.168 0.0
C1079 C 0.96161 0.80958 0.13075 0.0
C1080 C 0.96381 0.81565 0.0731 0.0
C1081 C 0.97621 0.90682 0.87833 0.0
C1082 C 0.99212 0.91048 0.90907 0.0
C1083 C 0.96816 0.89002 0.8823 0.0
C1084 C 0.97597 0.87654 0.91663 0.0
C1085 C 0.9919 0.88013 0.94705 0.0
C1086 C 0.99991 0.89693 0.94332 0.0
C1087 C 0.96717 0.85894 0.92349 0.0
C1088 C 0.96347 0.85302 0.98066 0.0
C1089 C 0.96254 0.84801 0.87493 0.0
C1090 C 0.96688 0.85312 0.81361 0.0
C1091 C 0.98461 0.85683 0.79704 0.0
C1092 C 0.9886 0.86135 0.73888 0.0
C1093 C 0.97498 0.86212 0.69695 0.0
C1094 C 0.95736 0.85841 0.71292 0.0
C1095 C 0.9533 0.85386 0.77098 0.0
H1096 H 0.97806 0.86552 0.65205 0.0
H1097 H 0.94768 0.81324 0.21257 0.0
H1098 H 0.74521 0.99797 0.9399 0.0
H1099 H 0.72383 0.00505 0.86205 0.0
H1100 H 0.69185 0.95958 0.91277 0.0
H1101 H 0.71353 0.95199 0.98852 0.0
H1102 H 0.68605 0.96767 0.79931 0.0
H1103 H 0.68912 0.99996 0.98868 0.0
H1104 H 0.70465 0.01921 0.06047 0.0
H1105 H 0.71146 0.0597 0.92837 0.0
H1106 H 0.69616 0.04054 0.85564 0.0
H1107 H 0.59793 0.9826 0.87614 0.0
H1108 H 0.62978 0.97713 0.86349 0.0
H1109 H 0.63625 0.0298 0.78926 0.0
H1110 H 0.60411 0.03521 0.80039 0.0
H1111 H 0.65936 0.02387 0.87448 0.0
H1112 H 0.64168 0.99268 0.70403 0.0
H1113 H 0.62342 0.97195 0.64523 0.0
H1114 H 0.64206 0.92768 0.74798 0.0
H1115 H 0.65982 0.9481 0.80953 0.0
C1116 C 0.73407 0.98899 0.93258 0.0
C1117 C 0.7307 0.97473 0.97136 0.0
C1118 C 0.72183 0.9931 0.88817 0.0
C1119 C 0.70599 0.98317 0.88291 0.0
C1120 C 0.70389 0.96755 0.91639 0.0
C1121 C 0.71618 0.96334 0.96023 0.0
C1122 C 0.69001 0.9908 0.85384 0.0
C1123 C 0.68022 0.98006 0.81488 0.0
C1124 C 0.68268 0.00724 0.87305 0.0
C1125 C 0.69174 0.01877 0.91669 0.0
C1126 C 0.69402 0.01295 0.97498 0.0
C1127 C 0.70277 0.02382 0.01579 0.0
C1128 C 0.70909 0.04065 0.99894 0.0
C1129 C 0.70661 0.04664 0.94129 0.0
C1130 C 0.69792 0.03578 0.90026 0.0
C1131 C 0.60605 0.99286 0.85596 0.0
C1132 C 0.59855 0.0093 0.83935 0.0
C1133 C 0.62424 0.98971 0.84839 0.0
C1134 C 0.63528 1.00291 0.82389 0.0
C1135 C 0.62785 0.01935 0.80715 0.0
C1136 C 0.60959 0.02249 0.8144 0.0
C1137 C 0.65484 1.00015 0.8229 0.0
C1138 C 0.66534 0.01189 0.85615 0.0
C1139 C 0.66258 0.98445 0.79935 0.0
C1140 C 0.65218 0.972 0.76151 0.0
C1141 C 0.64186 0.97854 0.71442 0.0
C1142 C 0.63158 0.96684 0.68052 0.0
C1143 C 0.63171 0.94853 0.69241 0.0
C1144 C 0.64204 0.94187 0.7386 0.0
C1145 C 0.6522 0.95351 0.77314 0.0
H1146 H 0.62375 0.93952 0.66594 0.0
H1147 H 0.71585 0.04906 0.03059 0.0
H1148 H 0.5591 0.71475 0.94455 0.0
H1149 H 0.55226 0.6934 0.8675 0.0
H1150 H 0.50498 0.72343 0.82193 0.0
H1151 H 0.51129 0.74435 0.90152 0.0
H1152 H 0.4958 0.69245 0.8544 0.0
H1153 H 0.538 0.71223 0.71888 0.0
H1154 H 0.56617 0.72322 0.67674 0.0
H1155 H 0.59232 0.6743 0.72507 0.0
H1156 H 0.56438 0.66302 0.76822 0.0
H1157 H 0.47778 0.60316 0.76133 0.0
H1158 H 0.48321 0.635 0.74277 0.0
H1159 H 0.53332 0.6314 0.83584 0.0
H1160 H 0.5277 0.59999 0.8564 0.0
H1161 H 0.53523 0.65341 0.73574 0.0
H1162 H 0.49634 0.64168 0.90511 0.0
H1163 H 0.46864 0.63062 0.95106 0.0
H1164 H 0.43763 0.66599 0.84275 0.0
H1165 H 0.46517 0.67713 0.79583 0.0
C1166 C 0.54751 0.71709 0.91705 0.0
C1167 C 0.53546 0.73089 0.93024 0.0
C1168 C 0.54374 0.705 0.87217 0.0
C1169 C 0.52798 0.70669 0.839 0.0
C1170 C 0.51716 0.72181 0.84715 0.0
C1171 C 0.52083 0.73382 0.8926 0.0
C1172 C 0.52091 0.69075 0.80798 0.0
C1173 C 0.50422 0.68425 0.82652 0.0
C1174 C 0.53186 0.6799 0.77196 0.0
C1175 C 0.5489 0.68668 0.74656 0.0
C1176 C 0.54971 0.70377 0.72069 0.0
C1177 C 0.56568 0.71008 0.69661 0.0
C1178 C 0.58101 0.69945 0.69808 0.0
C1179 C 0.58041 0.68249 0.72374 0.0
C1180 C 0.56446 0.67611 0.74787 0.0
C1181 C 0.48993 0.6092 0.77791 0.0
C1182 C 0.50223 0.59912 0.81109 0.0
C1183 C 0.49313 0.62728 0.76642 0.0
C1184 C 0.50871 0.63548 0.78763 0.0
C1185 C 0.52134 0.62525 0.8183 0.0
C1186 C 0.51807 0.6073 0.83028 0.0
C1187 C 0.51102 0.65508 0.78608 0.0
C1188 C 0.52668 0.66212 0.76139 0.0
C1189 C 0.49928 0.66646 0.81703 0.0
C1190 C 0.48276 0.65983 0.84563 0.0
C1191 C 0.4836 0.64691 0.8905 0.0
C1192 C 0.46793 0.64068 0.91692 0.0
C1193 C 0.45137 0.64748 0.89947 0.0
C1194 C 0.45046 0.66062 0.85587 0.0
C1195 C 0.46609 0.66686 0.82925 0.0
H1196 H 0.43925 0.64266 0.92001 0.0
H1197 H 0.59337 0.70437 0.67943 0.0
H1198 H 0.79884 0.55125 0.95091 0.0
H1199 H 0.82062 0.54501 0.87533 0.0
H1200 H 0.79111 0.49786 0.82443 0.0
H1201 H 0.76988 0.50342 0.90383 0.0
H1202 H 0.82173 0.48816 0.85151 0.0
H1203 H 0.80507 0.53198 0.7138 0.0
H1204 H 0.79334 0.56095 0.67922 0.0
H1205 H 0.83732 0.58814 0.76105 0.0
H1206 H 0.84943 0.55933 0.79559 0.0
H1207 H 0.91215 0.47311 0.76806 0.0
H1208 H 0.88066 0.47902 0.74586 0.0
H1209 H 0.88266 0.52652 0.85308 0.0
H1210 H 0.91398 0.52063 0.87587 0.0
H1211 H 0.86188 0.53099 0.75034 0.0
H1212 H 0.86982 0.48742 0.91346 0.0
H1213 H 0.88074 0.45854 0.9518 0.0
H1214 H 0.8514 0.43073 0.81777 0.0
H1215 H 0.84047 0.45951 0.77835 0.0
C1216 C 0.79673 0.53979 0.92269 0.0
C1217 C 0.78298 0.52754 0.93453 0.0
C1218 C 0.80905 0.53639 0.87833 0.0
C1219 C 0.80763 0.5209 0.84366 0.0
C1220 C 0.79258 0.50985 0.85065 0.0
C1221 C 0.78037 0.51309 0.89595 0.0
C1222 C 0.82373 0.51437 0.812 0.0
C1223 C 0.83015 0.49731 0.82701 0.0
C1224 C 0.8349 0.52612 0.77982 0.0
C1225 C 0.82815 0.54347 0.75727 0.0
C1226 C 0.81226 0.54414 0.72432 0.0
C1227 C 0.80556 0.56053 0.70466 0.0
C1228 C 0.81456 0.57637 0.71806 0.0
C1229 C 0.83036 0.57585 0.75075 0.0
C1230 C 0.83725 0.55947 0.76986 0.0
C1231 C 0.90583 0.48476 0.78713 0.0
C1232 C 0.91541 0.49624 0.82467 0.0
C1233 C 0.88795 0.48825 0.77366 0.0
C1234 C 0.87938 0.5032 0.79783 0.0
C1235 C 0.88911 0.51502 0.83342 0.0
C1236 C 0.90696 0.51157 0.84682 0.0
C1237 C 0.85982 0.50545 0.79342 0.0
C1238 C 0.85294 0.52158 0.77157 0.0
C1239 C 0.84809 0.49279 0.81861 0.0
C1240 C 0.85452 0.47555 0.84264 0.0
C1241 C 0.86579 0.47514 0.89206 0.0
C1242 C 0.87197 0.4588 0.91397 0.0
C1243 C 0.86681 0.44281 0.88713 0.0
C1244 C 0.85542 0.44313 0.83843 0.0
C1245 C 0.84923 0.45944 0.81628 0.0
H1246 H 0.87161 0.43017 0.90415 0.0
H1247 H 0.80931 0.58906 0.70298 0.0
H1248 H 0.04975 0.20029 0.87092 0.0
H1249 H 0.04618 0.16981 0.83568 0.0
H1250 H 0.9904 0.17112 0.88275 0.0
H1251 H 0.99418 0.20124 0.92231 0.0
H1252 H 1.00276 0.14096 0.91529 0.0
H1253 H 0.008 0.17418 0.7372 0.0
H1254 H 0.02199 0.19526 0.66838 0.0
H1255 H 0.06733 0.1605 0.65117 0.0
H1256 H 0.05402 0.1396 0.72255 0.0
H1257 H 0.99895 0.06654 0.67253 0.0
H1258 H 1.00036 0.09791 0.70127 0.0
H1259 H 0.02532 0.08299 0.86504 0.0
H1260 H 0.02364 0.05147 0.8371 0.0
H1261 H 0.0259 0.12026 0.72288 0.0
H1262 H 0.01367 0.11228 0.97352 0.0
H1263 H 0.99813 0.09162 0.04089 0.0
H1264 H 0.96243 0.07625 0.90208 0.0
H1265 H 0.9774 0.0971 0.83445 0.0
C1266 C 0.03669 0.19415 0.87424 0.0
C1267 C 0.0223 0.20341 0.90022 0.0
C1268 C 0.03461 0.17667 0.85318 0.0
C1269 C 0.01796 0.16801 0.85579 0.0
C1270 C 0.00342 0.17738 0.88008 0.0
C1271 C 0.00555 0.1948 0.90204 0.0
C1272 C 0.01586 0.14903 0.83524 0.0
C1273 C 0.00783 0.13651 0.87312 0.0
C1274 C 0.02221 0.14302 0.77981 0.0
C1275 C 0.03009 0.15543 0.73595 0.0
C1276 C 0.02103 0.1711 0.71927 0.0
C1277 C 0.02888 0.18304 0.67977 0.0
C1278 C 0.04557 0.17923 0.65533 0.0
C1279 C 0.05444 0.16346 0.67031 0.0
C1280 C 0.04679 0.15161 0.71056 0.0
C1281 C 0.00474 0.06985 0.71477 0.0
C1282 C 0.01109 0.05632 0.75258 0.0
C1283 C 0.00558 0.08789 0.73111 0.0
C1284 C 0.01272 0.09295 0.78576 0.0
C1285 C 0.0194 0.07951 0.82314 0.0
C1286 C 0.01851 0.06143 0.80692 0.0
C1287 C 0.01318 0.11225 0.80343 0.0
C1288 C 0.02086 0.12478 0.76501 0.0
C1289 C 0.00625 0.11833 0.85782 0.0
C1290 C 0.9968 0.10612 0.89876 0.0
C1291 C 1.00241 0.10458 0.95753 0.0
C1292 C 0.99369 0.09284 0.99579 0.0
C1293 C 0.9793 0.0826 0.9758 0.0
C1294 C 0.97354 0.08417 0.91761 0.0
C1295 C 0.98215 0.09595 0.87928 0.0
H1296 H 0.9726 0.07346 0.00539 0.0
H1297 H 0.05168 0.18848 0.62481 0.0
H1298 H 0.29513 0.02938 0.82062 0.0
H1299 H 0.32503 0.02681 0.77679 0.0
H1300 H 0.3431 0.99747 0.92872 0.0
H1301 H 0.31325 0.99972 0.97218 0.0
H1302 H 0.36451 0.02859 0.89536 0.0
H1303 H 0.33752 0.97563 0.80948 0.0
H1304 H 0.31498 0.95968 0.75037 0.0
H1305 H 0.32913 0.99089 0.599 0.0
H1306 H 0.35145 0.00737 0.65755 0.0
H1307 H 0.45173 1.0035 0.82139 0.0
H1308 H 0.42056 0.0045 0.85213 0.0
H1309 H 0.40445 0.01511 0.6732 0.0
H1310 H 0.43569 0.01287 0.64175 0.0
H1311 H 0.38095 0.99529 0.715 0.0
H1312 H 0.40627 0.04862 0.78967 0.0
H1313 H 0.42769 0.06798 0.84197 0.0
H1314 H 0.4155 0.0414 0.0044 0.0
H1315 H 0.39417 0.02171 0.95293 0.0
C1316 C 0.30542 0.02216 0.84423 0.0
C1317 C 0.30178 0.01468 0.89978 0.0
C1318 C 0.32249 0.02069 0.81913 0.0
C1319 C 0.33633 0.01197 0.8495 0.0
C1320 C 0.33264 0.00424 0.90445 0.0
C1321 C 0.31552 0.00542 0.92904 0.0
C1322 C 0.3549 0.01169 0.82584 0.0
C1323 C 0.36819 0.02114 0.85632 0.0
C1324 C 0.35951 1.00273 0.77325 0.0
C1325 C 0.34602 0.99288 0.73815 0.0
C1326 C 0.33567 0.97926 0.76379 0.0
C1327 C 0.32294 0.97011 0.73035 0.0
C1328 C 0.32055 0.97435 0.67104 0.0
C1329 C 0.33092 0.98771 0.64502 0.0
C1330 C 0.34361 0.99696 0.67832 0.0
C1331 C 0.44156 0.0061 0.7886 0.0
C1332 C 0.44623 0.00829 0.72924 0.0
C1333 C 0.42366 0.0068 0.80628 0.0
C1334 C 0.40996 0.01042 0.76551 0.0
C1335 C 0.41463 0.01239 0.70588 0.0
C1336 C 0.43253 0.01118 0.68789 0.0
C1337 C 0.39087 0.01194 0.78524 0.0
C1338 C 0.37741 1.00284 0.75395 0.0
C1339 C 0.38593 0.02177 0.83607 0.0
C1340 C 0.39874 0.03358 0.86731 0.0
C1341 C 0.40825 0.04682 0.83647 0.0
C1342 C 0.42036 0.05786 0.86598 0.0
C1343 C 0.42298 0.05589 0.92644 0.0
C1344 C 0.41346 0.0429 0.95755 0.0
C1345 C 0.40135 0.03181 0.92825 0.0
H1346 H 0.43236 0.06446 0.9492 0.0
H1347 H 0.31071 0.96723 0.6452 0.0
H1348 H 0.46216 0.30359 0.87096 0.0
H1349 H 0.46429 0.33272 0.82247 0.0
H1350 H 0.52146 0.33218 0.84589 0.0
H1351 H 0.51945 0.30302 0.89395 0.0
H1352 H 0.50842 0.36258 0.88336 0.0
H1353 H 0.50097 0.32665 0.71366 0.0
H1354 H 0.48725 0.30506 0.64562 0.0
H1355 H 0.44162 0.33925 0.62571 0.0
H1356 H 0.45479 0.36088 0.69494 0.0
H1357 H 0.50997 0.43637 0.64274 0.0
H1358 H 0.50852 0.40466 0.66887 0.0
H1359 H 0.48146 0.41809 0.83003 0.0
H1360 H 0.48304 0.44981 0.80476 0.0
H1361 H 0.48203 0.38063 0.6923 0.0
H1362 H 0.49723 0.39182 0.93937 0.0
H1363 H 0.51324 0.41343 1.00215 0.0
H1364 H 0.54732 0.4275 0.85762 0.0
H1365 H 0.53169 0.40579 0.79427 0.0
C1366 C 0.47525 0.30943 0.86458 0.0
C1367 C 0.49063 0.3009 0.88679 0.0
C1368 C 0.47644 0.32618 0.83691 0.0
C1369 C 0.49304 0.33475 0.83042 0.0
C1370 C 0.50847 0.32596 0.85064 0.0
C1371 C 0.50729 0.30925 0.87828 0.0
C1372 C 0.49427 0.35337 0.80662 0.0
C1373 C 0.50259 0.36644 0.84156 0.0
C1374 C 0.48694 0.35851 0.75152 0.0
C1375 C 0.47876 0.34528 0.7107 0.0
C1376 C 0.48783 0.32942 0.69594 0.0
C1377 C 0.48017 0.31719 0.65692 0.0
C1378 C 0.46347 0.32068 0.63198 0.0
C1379 C 0.45447 0.33649 0.64556 0.0
C1380 C 0.46204 0.34875 0.68469 0.0
C1381 C 0.50357 0.43262 0.68359 0.0
C1382 C 0.49674 0.44578 0.72183 0.0
C1383 C 0.5027 0.41442 0.69834 0.0
C1384 C 0.49505 0.40893 0.75173 0.0
C1385 C 0.48765 0.42197 0.78893 0.0
C1386 C 0.48852 0.44015 0.77429 0.0
C1387 C 0.49556 0.38974 0.77014 0.0
C1388 C 0.48769 0.37664 0.73418 0.0
C1389 C 0.50348 0.38442 0.82391 0.0
C1390 C 0.51316 0.3973 0.86196 0.0
C1391 C 0.50819 0.39947 0.92108 0.0
C1392 C 0.51719 0.41174 0.95675 0.0
C1393 C 0.53125 0.42187 0.93383 0.0
C1394 C 0.53639 0.41969 0.87526 0.0
C1395 C 0.52745 0.40742 0.83944 0.0
H1396 H 0.53818 0.43138 0.96149 0.0
H1397 H 0.45758 0.31121 0.60166 0.0
H1398 H 0.20635 0.51562 0.91156 0.0
H1399 H 0.17767 0.52087 0.86298 0.0
H1400 H 0.17684 0.46612 0.80376 0.0
H1401 H 0.20589 0.46107 0.84943 0.0
H1402 H 0.16244 0.48493 0.72331 0.0
H1403 H 0.15369 0.48094 0.93069 0.0
H1404 H 0.15774 0.48823 0.03558 0.0
H1405 H 0.14014 0.54198 0.00326 0.0
H1406 H 0.13613 0.53504 0.89803 0.0
H1407 H 0.06344 0.47545 0.75798 0.0
H1408 H 0.0953 0.47431 0.78364 0.0
H1409 H 0.10326 0.52565 0.7018 0.0
H1410 H 0.07162 0.5264 0.67297 0.0
H1411 H 0.11421 0.51018 0.84731 0.0
H1412 H 0.1209 0.50919 0.63093 0.0
H1413 H 0.11322 0.49598 0.53523 0.0
H1414 H 0.1343 0.44542 0.59148 0.0
H1415 H 0.14086 0.45801 0.6893 0.0
C1416 C 0.20031 0.5048 0.88701 0.0
C1417 C 0.20843 0.48783 0.88532 0.0
C1418 C 0.18372 0.50776 0.85982 0.0
C1419 C 0.17471 0.49377 0.83088 0.0
C1420 C 0.1833 0.47713 0.82621 0.0
C1421 C 0.19992 0.47421 0.85293 0.0
C1422 C 0.15607 0.49612 0.808 0.0
C1423 C 0.15196 0.49053 0.75048 0.0
C1424 C 0.14216 0.50322 0.84333 0.0
C1425 C 0.14483 0.50753 0.90637 0.0
C1426 C 0.15084 0.49436 0.94586 0.0
C1427 C 0.15309 0.49842 0.00539 0.0
C1428 C 0.14926 0.51558 0.02602 0.0
C1429 C 0.14314 0.52871 0.98718 0.0
C1430 C 0.14086 0.52471 0.92761 0.0
C1431 C 0.07204 0.48638 0.74473 0.0
C1432 C 0.06505 0.50096 0.71305 0.0
C1433 C 0.09024 0.48569 0.75929 0.0
C1434 C 0.10175 0.49971 0.74353 0.0
C1435 C 0.09474 0.51446 0.71299 0.0
C1436 C 0.07665 0.5149 0.69673 0.0
C1437 C 0.12079 0.49935 0.76261 0.0
C1438 C 0.12486 0.50504 0.81978 0.0
C1439 C 0.13451 0.49188 0.72753 0.0
C1440 C 0.13082 0.48444 0.66827 0.0
C1441 C 0.12337 0.49513 0.62371 0.0
C1442 C 0.11923 0.48774 0.56897 0.0
C1443 C 0.12314 0.46983 0.55738 0.0
C1444 C 0.13114 0.45926 0.60065 0.0
C1445 C 0.13491 0.46648 0.65595 0.0
H1446 H 0.12013 0.46421 0.51467 0.0
H1447 H 0.15098 0.51868 0.07214 0.0
H1448 H 0.0158 0.80601 0.41964 0.0
H1449 H 0.01972 0.83551 0.46453 0.0
H1450 H 0.96976 0.82929 0.55634 0.0
H1451 H 0.96595 0.79968 0.51301 0.0
H1452 H 0.97092 0.86089 0.49942 0.0
H1453 H 0.00791 0.82868 0.63334 0.0
H1454 H 0.03206 0.8082 0.66354 0.0
H1455 H 0.0708 0.84216 0.58034 0.0
H1456 H 0.04683 0.86274 0.54902 0.0
H1457 H 0.00678 0.93328 0.71894 0.0
H1458 H 0.00484 0.90215 0.68635 0.0
H1459 H 0.99511 0.91993 0.50885 0.0
H1460 H 0.99663 0.95098 0.54111 0.0
H1461 H 0.02336 0.882 0.61341 0.0
H1462 H 0.96761 0.89181 0.43878 0.0
H1463 H 0.94122 0.91096 0.42214 0.0
H1464 H 0.93635 0.91953 0.60802 0.0
H1465 H 0.96255 0.90027 0.62577 0.0
C1466 C 0.00584 0.81069 0.45049 0.0
C1467 C 0.99046 0.8004 0.46207 0.0
C1468 C 0.00806 0.82765 0.47594 0.0
C1469 C 0.99496 0.83475 0.51355 0.0
C1470 C 0.97996 0.82424 0.52696 0.0
C1471 C 0.9778 0.80728 0.50193 0.0
C1472 C 0.99634 0.85344 0.53644 0.0
C1473 C 0.98246 0.8655 0.52401 0.0
C1474 C 0.01114 0.85947 0.56983 0.0
C1475 C 0.02557 0.84712 0.58824 0.0
C1476 C 0.02157 0.83168 0.621 0.0
C1477 C 0.03522 0.82008 0.63844 0.0
C1478 C 0.05295 0.82385 0.62369 0.0
C1479 C 0.05706 0.83925 0.59162 0.0
C1480 C 0.04345 0.85089 0.57406 0.0
C1481 C 0.0042 0.9306 0.67293 0.0
C1482 C 1.00175 0.94476 0.6328 0.0
C1483 C 1.00317 0.91274 0.6543 0.0
C1484 C 0.99968 0.90858 0.59513 0.0
C1485 C 0.99751 0.92269 0.5549 0.0
C1486 C 0.99843 0.94052 0.5735 0.0
C1487 C 0.99808 0.88955 0.57542 0.0
C1488 C 0.01192 0.87744 0.58825 0.0
C1489 C 0.983 0.88332 0.54372 0.0
C1490 C 0.96715 0.89479 0.53347 0.0
C1491 C 0.96087 0.89776 0.47607 0.0
C1492 C 0.94595 0.90863 0.46646 0.0
C1493 C 0.93716 0.91651 0.51398 0.0
C1494 C 0.94322 0.91348 0.57124 0.0
C1495 C 0.95811 0.90262 0.58108 0.0
H1496 H 0.92562 0.92493 0.50644 0.0
H1497 H 0.06351 0.81485 0.63725 0.0
H1498 H 0.70472 0.96641 0.50532 0.0
H1499 H 0.67481 0.96951 0.54756 0.0
H1500 H 0.66897 0.0207 0.46237 0.0
H1501 H 0.69899 0.0178 0.42091 0.0
H1502 H 0.65342 0.02182 0.56698 0.0
H1503 H 0.65174 0.98126 0.40158 0.0
H1504 H 0.6609 0.95453 0.34581 0.0
H1505 H 0.64464 0.92088 0.48913 0.0
H1506 H 0.63559 0.94745 0.54605 0.0
H1507 H 0.55284 0.99471 0.52401 0.0
H1508 H 0.58416 0.99374 0.49443 0.0
H1509 H 0.6003 0.00458 0.67294 0.0
H1510 H 0.56895 0.00613 0.70252 0.0
H1511 H 0.61071 0.97312 0.52044 0.0
H1512 H 0.64031 0.02782 0.67348 0.0
H1513 H 0.63073 0.0557 0.72219 0.0
H1514 H 0.58978 0.06303 0.59223 0.0
H1515 H 0.59938 0.0355 0.54188 0.0
C1516 C 0.69714 0.97842 0.49608 0.0
C1517 C 0.70426 0.99179 0.4593 0.0
C1518 C 0.68 0.98017 0.52017 0.0
C1519 C 0.66937 0.99518 0.50725 0.0
C1520 C 0.6768 0.00896 0.47302 0.0
C1521 C 0.69404 0.0073 0.44939 0.0
C1522 C 0.65024 0.99606 0.52623 0.0
C1523 C 0.64412 0.01111 0.55719 0.0
C1524 C 0.63789 0.98229 0.5126 0.0
C1525 C 0.64312 0.96633 0.47817 0.0
C1526 C 0.6502 0.96816 0.42127 0.0
C1527 C 0.65537 0.95304 0.38947 0.0
C1528 C 0.65339 0.93602 0.41396 0.0
C1529 C 0.64618 0.93407 0.47025 0.0
C1530 C 0.64102 0.94915 0.50227 0.0
C1531 C 0.56301 0.99692 0.55712 0.0
C1532 C 0.55824 1.00056 0.61573 0.0
C1533 C 0.58099 0.99632 0.54008 0.0
C1534 C 0.59473 0.99931 0.5811 0.0
C1535 C 0.59003 1.00261 0.63997 0.0
C1536 C 0.57203 1.00338 0.65696 0.0
C1537 C 0.61388 0.99878 0.56208 0.0
C1538 C 0.61999 0.98381 0.53071 0.0
C1539 C 0.62613 0.01272 0.57491 0.0
C1540 C 0.62042 0.02945 0.60441 0.0
C1541 C 0.6293 0.03542 0.65519 0.0
C1542 C 0.62388 0.05116 0.68307 0.0
C1543 C 0.60958 0.06104 0.66059 0.0
C1544 C 0.60078 0.0553 0.60983 0.0
C1545 C 0.60622 0.03964 0.58157 0.0
H1546 H 0.60537 0.07319 0.68236 0.0
H1547 H 0.6574 0.92433 0.38928 0.0
H1548 H 0.49196 0.70204 0.43893 0.0
H1549 H 0.48889 0.67339 0.49086 0.0
H1550 H 0.5461 0.66704 0.49003 0.0
H1551 H 0.54935 0.69578 0.44037 0.0
H1552 H 0.52491 0.63793 0.43781 0.0
H1553 H 0.52541 0.67721 0.60982 0.0
H1554 H 0.51207 0.70165 0.66755 0.0
H1555 H 0.46382 0.67134 0.68794 0.0
H1556 H 0.47645 0.64708 0.62804 0.0
H1557 H 0.53721 0.55597 0.57791 0.0
H1558 H 0.53927 0.58731 0.54866 0.0
H1559 H 0.48817 0.59766 0.62993 0.0
H1560 H 0.48709 0.56663 0.6642 0.0
H1561 H 0.50417 0.62556 0.64064 0.0
H1562 H 0.49618 0.59073 0.4694 0.0
H1563 H 0.50152 0.56678 0.39711 0.0
H1564 H 0.55373 0.58799 0.36167 0.0
H1565 H 0.54879 0.61194 0.43434 0.0
C1566 C 0.50392 0.6948 0.45117 0.0
C1567 C 0.52091 0.70121 0.43458 0.0
C1568 C 0.50213 0.67835 0.48057 0.0
C1569 C 0.51727 0.66798 0.4939 0.0
C1570 C 0.53422 0.67472 0.47978 0.0
C1571 C 0.53603 0.69116 0.45107 0.0
C1572 C 0.51563 0.64956 0.51847 0.0
C1573 C 0.52057 0.6352 0.48243 0.0
C1574 C 0.50898 0.64595 0.57552 0.0
C1575 C 0.50183 0.66036 0.61367 0.0
C1576 C 0.51187 0.67582 0.6259 0.0
C1577 C 0.50443 0.68966 0.65909 0.0
C1578 C 0.48716 0.68803 0.68163 0.0
C1579 C 0.47723 0.67259 0.67068 0.0
C1580 C 0.48449 0.65882 0.63687 0.0
C1581 C 0.52648 0.56498 0.58969 0.0
C1582 C 0.51185 0.55879 0.62239 0.0
C1583 C 0.52754 0.58293 0.57245 0.0
C1584 C 0.51352 0.59497 0.58456 0.0
C1585 C 0.49915 0.58883 0.61911 0.0
C1586 C 0.49845 0.57101 0.63848 0.0
C1587 C 0.51374 0.61368 0.56018 0.0
C1588 C 0.50852 0.62813 0.59602 0.0
C1589 C 0.51912 0.61739 0.50154 0.0
C1590 C 0.52218 0.60302 0.45774 0.0
C1591 C 0.50884 0.59021 0.44646 0.0
C1592 C 0.5118 0.57665 0.40539 0.0
C1593 C 0.52798 0.57583 0.37494 0.0
C1594 C 0.54122 0.58862 0.38537 0.0
C1595 C 0.53834 0.6022 0.42645 0.0
H1596 H 0.53024 0.56532 0.34316 0.0
H1597 H 0.48151 0.69871 0.70771 0.0
H1598 H 0.79883 0.52104 0.51774 0.0
H1599 H 0.8267 0.51752 0.57461 0.0
H1600 H 0.8529 0.49651 0.42066 0.0
H1601 H 0.82534 0.50003 0.36442 0.0
H1602 H 0.863 0.47822 0.51717 0.0
H1603 H 0.85582 0.53959 0.45859 0.0
H1604 H 0.84146 0.56919 0.45405 0.0
H1605 H 0.84693 0.57474 0.6408 0.0
H1606 H 0.86053 0.54476 0.64705 0.0
H1607 H 0.95493 0.5008 0.52917 0.0
H1608 H 0.92298 0.50017 0.50545 0.0
H1609 H 0.9102 0.51106 0.68657 0.0
H1610 H 0.9422 0.51105 0.71101 0.0
H1611 H 0.89142 0.5331 0.59625 0.0
H1612 H 0.90215 0.4727 0.65134 0.0
H1613 H 0.91807 0.44387 0.65192 0.0
H1614 H 0.90769 0.43753 0.46749 0.0
H1615 H 0.89203 0.46654 0.46552 0.0
C1616 C 0.81048 0.51537 0.49662 0.0
C1617 C 0.80997 0.51088 0.43664 0.0
C1618 C 0.82641 0.51346 0.52894 0.0
C1619 C 0.84201 0.50688 0.50182 0.0
C1620 C 0.84113 0.50158 0.44273 0.0
C1621 C 0.82537 0.50366 0.41051 0.0
C1622 C 0.85961 0.50641 0.53285 0.0
C1623 C 0.86917 0.49024 0.53447 0.0
C1624 C 0.86763 0.52199 0.5567 0.0
C1625 C 0.85888 0.53975 0.55341 0.0
C1626 C 0.85361 0.54694 0.49891 0.0
C1627 C 0.84558 0.56378 0.49607 0.0
C1628 C 0.84306 0.57374 0.54729 0.0
C1629 C 0.84859 0.56686 0.60143 0.0
C1630 C 0.8564 0.54992 0.60467 0.0
C1631 C 0.94533 0.50307 0.56396 0.0
C1632 C 0.95109 0.50597 0.62199 0.0
C1633 C 0.92707 0.50265 0.5504 0.0
C1634 C 0.91419 0.50548 0.5943 0.0
C1635 C 0.91989 0.50873 0.65212 0.0
C1636 C 0.93817 0.50869 0.66601 0.0
C1637 C 0.89484 0.50505 0.57905 0.0
C1638 C 0.88503 0.52103 0.58025 0.0
C1639 C 0.88662 0.48935 0.55739 0.0
C1640 C 0.89603 0.47188 0.55822 0.0
C1641 C 0.90341 0.46525 0.61077 0.0
C1642 C 0.91236 0.44886 0.61137 0.0
C1643 C 0.9139 0.43888 0.55975 0.0
C1644 C 0.90646 0.44527 0.50746 0.0
C1645 C 0.89755 0.4617 0.50657 0.0
H1646 H 0.92085 0.42619 0.56027 0.0
H1647 H 0.83697 0.58684 0.54499 0.0
loop_
_geom_bond_atom_site_label_1
_geom_bond_atom_site_label_2
_geom_bond_distance
_geom_bond_site_symmetry_2
_ccdc_geom_bond_type
C0 C1 1.384 . S
C0 H13 0.947 . S
C0 C35 1.382 . S
C1 C0 1.384 . S
C1 C2 1.378 . S
C2 C1 1.378 . S
C2 C3 1.378 . S
C2 H14 0.952 . S
C3 C2 1.378 . S
C3 H15 0.950 . S
C3 C34 1.383 . S
H4 C23 0.947 . S
H5 C24 0.946 . S
H6 C26 0.953 . S
H7 C27 0.945 . S
H8 C29 0.952 . S
H9 C30 0.949 . S
H10 C32 0.950 . S
H11 C33 0.948 . S
H12 C35 0.951 . S
H13 C0 0.947 . S
H14 C2 0.952 . S
H15 C3 0.950 . S
N16 C19 1.382 . S
N16 C21 1.363 . S
N17 C19 1.371 . S
N17 C20 1.372 . S
N18 C20 1.361 . S
N18 C21 1.377 . S
C19 N16 1.382 . S
C19 N17 1.371 . S
C19 C22 1.480 . S
C20 N17 1.372 . S
C20 N18 1.361 . S
C20 C28 1.457 . S
C21 N16 1.363 . S
C21 N18 1.377 . S
C21 C34 1.479 . S
C22 C19 1.480 . S
C22 C23 1.383 . S
C22 C27 1.385 . S
C23 H4 0.947 . S
C23 C22 1.383 . S
C23 C24 1.388 . S
C24 H5 0.946 . S
C24 C23 1.388 . S
C24 C25 1.384 . S
C25 C24 1.384 . S
C25 C26 1.377 . S
C26 H6 0.953 . S
C26 C25 1.377 . S
C26 C27 1.369 . S
C27 H7 0.945 . S
C27 C22 1.385 . S
C27 C26 1.369 . S
C28 C20 1.457 . S
C28 C29 1.372 . S
C28 C33 1.364 . S
C29 H8 0.952 . S
C29 C28 1.372 . S
C29 C30 1.389 . S
C30 H9 0.949 . S
C30 C29 1.389 . S
C30 C31 1.387 . S
C31 C30 1.387 . S
C31 C32 1.372 . S
C32 H10 0.950 . S
C32 C31 1.372 . S
C32 C33 1.379 . S
C33 H11 0.948 . S
C33 C28 1.364 . S
C33 C32 1.379 . S
C34 C3 1.383 . S
C34 C21 1.479 . S
C34 C35 1.398 . S
C35 C0 1.382 . S
C35 H12 0.951 . S
C35 C34 1.398 . S
C36 C37 1.385 . S
C36 H49 0.947 . S
C36 C71 1.382 . S
C37 C36 1.385 . S
C37 C38 1.377 1_655 S
C38 C37 1.377 1_455 S
C38 C39 1.378 . S
C38 H50 0.952 . S
C39 C38 1.378 . S
C39 H51 0.950 . S
C39 C70 1.383 . S
H40 C59 0.947 . S
H41 C60 0.946 . S
H42 C62 0.953 . S
H43 C63 0.945 . S
H44 C65 0.963 . S
H45 C66 0.949 . S
H46 C68 0.950 . S
H47 C69 0.948 . S
H48 C71 0.951 . S
H49 C36 0.947 . S
H50 C38 0.952 . S
H51 C39 0.950 . S
N52 C55 1.382 . S
N52 C57 1.363 . S
N53 C55 1.371 . S
N53 C56 1.372 . S
N54 C56 1.361 . S
N54 C57 1.377 . S
C55 N52 1.382 . S
C55 N53 1.371 . S
C55 C58 1.480 . S
C56 N53 1.372 . S
C56 N54 1.361 . S
C56 C64 1.457 . S
C57 N52 1.363 . S
C57 N54 1.377 . S
C57 C70 1.479 . S
C58 C55 1.480 . S
C58 C59 1.384 . S
C58 C63 1.385 . S
C59 H40 0.947 . S
C59 C58 1.384 . S
C59 C60 1.387 1_455 S
C60 H41 0.946 . S
C60 C59 1.387 1_655 S
C60 C61 1.384 1_655 S
C61 C60 1.384 1_455 S
C61 C62 1.376 . S
C62 H42 0.953 . S
C62 C61 1.376 . S
C62 C63 1.369 . S
C63 H43 0.945 . S
C63 C58 1.385 . S
C63 C62 1.369 . S
C64 C56 1.457 . S
C64 C65 1.361 1_455 S
C64 C69 1.364 . S
C65 H44 0.963 . S
C65 C64 1.361 1_655 S
C65 C66 1.393 . S
C66 H45 0.949 . S
C66 C65 1.393 . S
C66 C67 1.387 1_655 S
C67 C66 1.387 1_455 S
C67 C68 1.371 . S
C68 H46 0.950 . S
C68 C67 1.371 . S
C68 C69 1.379 . S
C69 H47 0.948 . S
C69 C64 1.364 . S
C69 C68 1.379 . S
C70 C39 1.383 . S
C70 C57 1.479 . S
C70 C71 1.398 1_455 S
C71 C36 1.382 . S
C71 H48 0.951 . S
C71 C70 1.398 1_655 S
C72 C73 1.384 . S
C72 H85 0.947 . S
C72 C107 1.382 . S
C73 C72 1.384 . S
C73 C74 1.378 1_565 S
C74 C73 1.378 1_545 S
C74 C75 1.378 . S
C74 H86 0.952 . S
C75 C74 1.378 . S
C75 H87 0.950 . S
C75 C106 1.383 . S
H76 C95 0.947 . S
H77 C96 0.946 . S
H78 C98 0.953 . S
H79 C99 0.945 . S
H80 C101 0.961 . S
H81 C102 0.949 . S
H82 C104 0.950 . S
H83 C105 0.948 . S
H84 C107 0.951 . S
H85 C72 0.947 . S
H86 C74 0.952 . S
H87 C75 0.950 . S
N88 C91 1.382 . S
N88 C93 1.363 . S
N89 C91 1.371 . S
N89 C92 1.372 . S
N90 C92 1.361 . S
N90 C93 1.377 . S
C91 N88 1.382 . S
C91 N89 1.371 . S
C91 C94 1.480 . S
C92 N89 1.372 . S
C92 N90 1.361 . S
C92 C100 1.457 . S
C93 N88 1.363 . S
C93 N90 1.377 . S
C93 C106 1.479 . S
C94 C91 1.480 . S
C94 C95 1.385 . S
C94 C99 1.385 . S
C95 H76 0.947 . S
C95 C94 1.385 . S
C95 C96 1.387 1_545 S
C96 H77 0.946 . S
C96 C95 1.387 1_565 S
C96 C97 1.383 1_565 S
C97 C96 1.383 1_545 S
C97 C98 1.377 . S
C98 H78 0.953 . S
C98 C97 1.377 . S
C98 C99 1.369 . S
C99 H79 0.945 . S
C99 C94 1.385 . S
C99 C98 1.369 . S
C100 C92 1.457 . S
C100 C101 1.362 1_545 S
C100 C105 1.364 . S
C101 H80 0.961 . S
C101 C100 1.362 1_565 S
C101 C102 1.392 . S
C102 H81 0.949 . S
C102 C101 1.392 . S
C102 C103 1.386 1_565 S
C103 C102 1.386 1_545 S
C103 C104 1.372 . S
C104 H82 0.950 . S
C104 C103 1.372 . S
C104 C105 1.379 . S
C105 H83 0.948 . S
C105 C100 1.364 . S
C105 C104 1.379 . S
C106 C75 1.383 . S
C106 C93 1.479 . S
C106 C107 1.398 1_545 S
C107 C72 1.382 . S
C107 H84 0.951 . S
C107 C106 1.398 1_565 S
C108 C109 1.384 . S
C108 H121 0.947 . S
C108 C143 1.382 . S
C109 C108 1.384 . S
C109 C110 1.378 . S
C110 C109 1.378 . S
C110 C111 1.378 . S
C110 H122 0.952 . S
C111 C110 1.378 . S
C111 H123 0.950 . S
C111 C142 1.383 . S
H112 C131 0.947 . S
H113 C132 0.946 . S
H114 C134 0.953 . S
H115 C135 0.945 . S
H116 C137 0.952 . S
H117 C138 0.949 . S
H118 C140 0.950 . S
H119 C141 0.948 . S
H120 C143 0.951 . S
H121 C108 0.947 . S
H122 C110 0.952 . S
H123 C111 0.950 . S
N124 C127 1.382 . S
N124 C129 1.363 . S
N125 C127 1.371 . S
N125 C128 1.372 . S
N126 C128 1.361 . S
N126 C129 1.377 . S
C127 N124 1.382 . S
C127 N125 1.371 . S
C127 C130 1.480 . S
C128 N125 1.372 . S
C128 N126 1.361 . S
C128 C136 1.457 . S
C129 N124 1.363 . S
C129 N126 1.377 . S
C129 C142 1.479 . S
C130 C127 1.480 . S
C130 C131 1.383 . S
C130 C135 1.385 . S
C131 H112 0.947 . S
C131 C130 1.383 . S
C131 C132 1.388 . S
C132 H113 0.946 . S
C132 C131 1.388 . S
C132 C133 1.384 . S
C133 C132 1.384 . S
C133 C134 1.377 . S
C134 H114 0.953 . S
C134 C133 1.377 . S
C134 C135 1.369 . S
C135 H115 0.945 . S
C135 C130 1.385 . S
C135 C134 1.369 . S
C136 C128 1.457 . S
C136 C137 1.372 . S
C136 C141 1.364 . S
C137 H116 0.952 . S
C137 C136 1.372 . S
C137 C138 1.389 . S
C138 H117 0.949 . S
C138 C137 1.389 . S
C138 C139 1.387 . S
C139 C138 1.387 . S
C139 C140 1.372 . S
C140 H118 0.950 . S
C140 C139 1.372 . S
C140 C141 1.379 . S
C141 H119 0.948 . S
C141 C136 1.364 . S
C141 C140 1.379 . S
C142 C111 1.383 . S
C142 C129 1.479 . S
C142 C143 1.398 . S
C143 C108 1.382 . S
C143 H120 0.951 . S
C143 C142 1.398 . S
C144 C145 1.384 . S
C144 H157 0.947 . S
C144 C179 1.382 . S
C145 C144 1.384 . S
C145 C146 1.378 . S
C146 C145 1.378 . S
C146 C147 1.378 . S
C146 H158 0.952 . S
C147 C146 1.378 . S
C147 H159 0.950 . S
C147 C178 1.383 . S
H148 C167 0.947 1_556 S
H149 C168 0.946 . S
H150 C170 0.953 . S
H151 C171 0.945 . S
H152 C173 0.952 . S
H153 C174 0.949 . S
H154 C176 0.950 . S
H155 C177 0.948 . S
H156 C179 0.951 . S
H157 C144 0.947 . S
H158 C146 0.952 . S
H159 C147 0.950 . S
N160 C163 1.382 1_556 S
N160 C165 1.363 . S
N161 C163 1.371 . S
N161 C164 1.372 . S
N162 C164 1.361 . S
N162 C165 1.377 1_554 S
C163 N160 1.382 1_554 S
C163 N161 1.371 . S
C163 C166 1.480 . S
C164 N161 1.372 . S
C164 N162 1.361 . S
C164 C172 1.457 . S
C165 N160 1.363 . S
C165 N162 1.377 1_556 S
C165 C178 1.479 . S
C166 C163 1.480 . S
C166 C167 1.383 . S
C166 C171 1.385 . S
C167 H148 0.947 1_554 S
C167 C166 1.383 . S
C167 C168 1.388 . S
C168 H149 0.946 . S
C168 C167 1.388 . S
C168 C169 1.384 . S
C169 C168 1.384 . S
C169 C170 1.377 . S
C170 H150 0.953 . S
C170 C169 1.377 . S
C170 C171 1.369 . S
C171 H151 0.945 . S
C171 C166 1.385 . S
C171 C170 1.369 . S
C172 C164 1.457 . S
C172 C173 1.372 . S
C172 C177 1.364 . S
C173 H152 0.952 . S
C173 C172 1.372 . S
C173 C174 1.389 . S
C174 H153 0.949 . S
C174 C173 1.389 . S
C174 C175 1.387 . S
C175 C174 1.387 . S
C175 C176 1.372 . S
C176 H154 0.950 . S
C176 C175 1.372 . S
C176 C177 1.379 . S
C177 H155 0.948 . S
C177 C172 1.364 . S
C177 C176 1.379 . S
C178 C147 1.383 . S
C178 C165 1.479 . S
C178 C179 1.398 . S
C179 C144 1.382 . S
C179 H156 0.951 . S
C179 C178 1.398 . S
C180 C181 1.384 . S
C180 H193 0.948 . S
C180 C215 1.382 . S
C181 C180 1.384 . S
C181 C182 1.378 . S
C182 C181 1.378 . S
C182 C183 1.378 . S
C182 H194 0.952 . S
C183 C182 1.378 . S
C183 H195 0.950 . S
C183 C214 1.383 . S
H184 C203 0.947 1_556 S
H185 C204 0.946 1_655 S
H186 C206 0.953 . S
H187 C207 0.945 . S
H188 C209 0.951 1_655 S
H189 C210 0.942 1_655 S
H190 C212 0.950 . S
H191 C213 0.948 . S
H192 C215 0.952 . S
H193 C180 0.948 . S
H194 C182 0.952 . S
H195 C183 0.950 . S
N196 C199 1.382 1_556 S
N196 C201 1.363 . S
N197 C199 1.371 . S
N197 C200 1.372 . S
N198 C200 1.361 . S
N198 C201 1.377 1_554 S
C199 N196 1.382 1_554 S
C199 N197 1.371 . S
C199 C202 1.480 . S
C200 N197 1.372 . S
C200 N198 1.361 . S
C200 C208 1.457 . S
C201 N196 1.363 . S
C201 N198 1.377 1_556 S
C201 C214 1.479 . S
C202 C199 1.480 . S
C202 C203 1.383 . S
C202 C207 1.385 . S
C203 H184 0.947 1_554 S
C203 C202 1.383 . S
C203 C204 1.388 . S
C204 H185 0.946 1_455 S
C204 C203 1.388 . S
C204 C205 1.384 . S
C205 C204 1.384 . S
C205 C206 1.377 . S
C206 H186 0.953 . S
C206 C205 1.377 . S
C206 C207 1.369 . S
C207 H187 0.945 . S
C207 C202 1.385 . S
C207 C206 1.369 . S
C208 C200 1.457 . S
C208 C209 1.372 . S
C208 C213 1.364 . S
C209 H188 0.951 1_455 S
C209 C208 1.372 . S
C209 C210 1.393 . S
C210 H189 0.942 1_455 S
C210 C209 1.393 . S
C210 C211 1.393 . S
C211 C210 1.393 . S
C211 C212 1.372 . S
C212 H190 0.950 . S
C212 C211 1.372 . S
C212 C213 1.379 . S
C213 H191 0.948 . S
C213 C208 1.364 . S
C213 C212 1.379 . S
C214 C183 1.383 . S
C214 C201 1.479 . S
C214 C215 1.398 . S
C215 C180 1.382 . S
C215 H192 0.952 . S
C215 C214 1.398 . S
C216 C217 1.384 . S
C216 H229 0.949 . S
C216 C251 1.382 . S
C217 C216 1.384 . S
C217 C218 1.378 . S
C218 C217 1.378 . S
C218 C219 1.378 . S
C218 H230 0.952 . S
C219 C218 1.378 . S
C219 H231 0.950 . S
C219 C250 1.383 . S
H220 C239 0.947 1_556 S
H221 C240 0.946 1_565 S
H222 C242 0.953 . S
H223 C243 0.945 . S
H224 C245 0.953 1_565 S
H225 C246 0.941 1_565 S
H226 C248 0.950 . S
H227 C249 0.948 . S
H228 C251 0.953 . S
H229 C216 0.949 . S
H230 C218 0.952 . S
H231 C219 0.950 . S
N232 C235 1.382 1_556 S
N232 C237 1.363 . S
N233 C235 1.371 . S
N233 C236 1.372 . S
N234 C236 1.361 . S
N234 C237 1.377 1_554 S
C235 N232 1.382 1_554 S
C235 N233 1.371 . S
C235 C238 1.480 . S
C236 N233 1.372 . S
C236 N234 1.361 . S
C236 C244 1.457 . S
C237 N232 1.363 . S
C237 N234 1.377 1_556 S
C237 C250 1.479 . S
C238 C235 1.480 . S
C238 C239 1.383 . S
C238 C243 1.385 . S
C239 H220 0.947 1_554 S
C239 C238 1.383 . S
C239 C240 1.388 . S
C240 H221 0.946 1_545 S
C240 C239 1.388 . S
C240 C241 1.384 . S
C241 C240 1.384 . S
C241 C242 1.377 . S
C242 H222 0.953 . S
C242 C241 1.377 . S
C242 C243 1.369 . S
C243 H223 0.945 . S
C243 C238 1.385 . S
C243 C242 1.369 . S
C244 C236 1.457 . S
C244 C245 1.372 . S
C244 C249 1.364 . S
C245 H224 0.953 1_545 S
C245 C244 1.372 . S
C245 C246 1.393 . S
C246 H225 0.941 1_545 S
C246 C245 1.393 . S
C246 C247 1.394 . S
C247 C246 1.394 . S
C247 C248 1.372 . S
C248 H226 0.950 . S
C248 C247 1.372 . S
C248 C249 1.379 . S
C249 H227 0.948 . S
C249 C244 1.364 . S
C249 C248 1.379 . S
C250 C219 1.383 . S
C250 C237 1.479 . S
C250 C251 1.398 . S
C251 C216 1.382 . S
C251 H228 0.953 . S
C251 C250 1.398 . S
C252 C253 1.384 . S
C252 H265 0.947 . S
C252 C287 1.382 . S
C253 C252 1.384 . S
C253 C254 1.378 . S
C254 C253 1.378 . S
C254 C255 1.378 . S
C254 H266 0.952 . S
C255 C254 1.378 . S
C255 H267 0.950 . S
C255 C286 1.383 . S
H256 C275 0.947 . S
H257 C276 0.946 . S
H258 C278 0.953 1_556 S
H259 C279 0.945 1_556 S
H260 C281 0.952 . S
H261 C282 0.949 . S
H262 C284 0.950 . S
H263 C285 0.948 . S
H264 C287 0.951 . S
H265 C252 0.947 . S
H266 C254 0.952 . S
H267 C255 0.950 . S
N268 C271 1.382 . S
N268 C273 1.363 . S
N269 C271 1.371 1_556 S
N269 C272 1.372 . S
N270 C272 1.361 1_554 S
N270 C273 1.377 . S
C271 N268 1.382 . S
C271 N269 1.371 1_554 S
C271 C274 1.480 . S
C272 N269 1.372 . S
C272 N270 1.361 1_556 S
C272 C280 1.457 . S
C273 N268 1.363 . S
C273 N270 1.377 . S
C273 C286 1.479 . S
C274 C271 1.480 . S
C274 C275 1.383 . S
C274 C279 1.385 . S
C275 H256 0.947 . S
C275 C274 1.383 . S
C275 C276 1.388 . S
C276 H257 0.946 . S
C276 C275 1.388 . S
C276 C277 1.384 . S
C277 C276 1.384 . S
C277 C278 1.377 . S
C278 H258 0.953 1_554 S
C278 C277 1.377 . S
C278 C279 1.369 . S
C279 H259 0.945 1_554 S
C279 C274 1.385 . S
C279 C278 1.369 . S
C280 C272 1.457 . S
C280 C281 1.372 . S
C280 C285 1.364 . S
C281 H260 0.952 . S
C281 C280 1.372 . S
C281 C282 1.389 . S
C282 H261 0.949 . S
C282 C281 1.389 . S
C282 C283 1.387 . S
C283 C282 1.387 . S
C283 C284 1.372 . S
C284 H262 0.950 . S
C284 C283 1.372 . S
C284 C285 1.379 . S
C285 H263 0.948 . S
C285 C280 1.364 . S
C285 C284 1.379 . S
C286 C255 1.383 . S
C286 C273 1.479 . S
C286 C287 1.398 . S
C287 C252 1.382 . S
C287 H264 0.951 . S
C287 C286 1.398 . S
Pr288 C290 2.880 . S
Pr288 O308 2.562 . S
Pr288 O309 2.490 . S
Pr288 O310 2.695 1_565 S
Pr288 O311 2.512 . S
Pr288 O313 2.437 . S
Pr288 O316 2.436 1_455 S
Pr288 O318 2.438 1_565 S
Pr289 C299 2.880 . S
Pr289 O310 2.436 1_655 S
Pr289 O312 2.438 1_545 S
Pr289 O314 2.562 . S
Pr289 O315 2.490 . S
Pr289 O316 2.695 1_545 S
Pr289 O317 2.512 . S
Pr289 O319 2.437 . S
C290 Pr288 2.880 . S
C290 C291 1.491 . S
C290 O308 1.254 . S
C290 O309 1.225 . S
C291 C290 1.491 . S
C291 C292 1.392 . S
C291 C296 1.356 . S
C292 C291 1.392 . S
C292 C293 1.368 . S
C292 H320 0.929 . S
C293 C292 1.368 . S
C293 C294 1.386 . S
C293 H321 0.929 . S
C294 C293 1.386 . S
C294 C295 1.373 . S
C295 C294 1.373 . S
C295 C296 1.409 . S
C295 H322 0.931 1_455 S
C296 C291 1.356 . S
C296 C295 1.409 . S
C296 H323 0.930 1_455 S
C297 O310 1.256 1_565 S
C297 O311 1.274 . S
C298 O312 1.267 . S
C298 O313 1.278 1_655 S
C299 Pr289 2.880 . S
C299 C300 1.491 . S
C299 O314 1.254 . S
C299 O315 1.225 . S
C300 C299 1.491 . S
C300 C301 1.392 . S
C300 C305 1.356 . S
C301 C300 1.392 . S
C301 C302 1.368 . S
C301 H324 0.929 . S
C302 C301 1.368 . S
C302 C303 1.386 . S
C302 H325 0.929 . S
C303 C302 1.386 . S
C303 C304 1.373 . S
C304 C303 1.373 . S
C304 C305 1.409 . S
C304 H326 0.931 1_655 S
C305 C300 1.356 . S
C305 C304 1.409 . S
C305 H327 0.930 1_655 S
C306 O316 1.270 1_545 S
C306 O317 1.248 . S
C307 O318 1.267 . S
C307 O319 1.278 1_455 S
O308 Pr288 2.562 . S
O308 C290 1.254 . S
O309 Pr288 2.490 . S
O309 C290 1.225 . S
O310 Pr288 2.695 1_545 S
O310 Pr289 2.436 1_455 S
O310 C297 1.256 1_545 S
O311 Pr288 2.512 . S
O311 C297 1.274 . S
O312 Pr289 2.438 1_565 S
O312 C298 1.267 . S
O313 Pr288 2.437 . S
O313 C298 1.278 1_455 S
O314 Pr289 2.562 . S
O314 C299 1.254 . S
O315 Pr289 2.490 . S
O315 C299 1.225 . S
O316 Pr288 2.436 1_655 S
O316 Pr289 2.695 1_565 S
O316 C306 1.270 1_565 S
O317 Pr289 2.512 . S
O317 C306 1.248 . S
O318 Pr288 2.438 1_545 S
O318 C307 1.267 . S
O319 Pr289 2.437 . S
O319 C307 1.278 1_655 S
H320 C292 0.929 . S
H321 C293 0.929 . S
H322 C295 0.931 1_655 S
H323 C296 0.930 1_655 S
H324 C301 0.929 . S
H325 C302 0.929 . S
H326 C304 0.931 1_455 S
H327 C305 0.930 1_455 S
Pr328 C330 2.880 . S
Pr328 O348 2.562 . S
Pr328 O349 2.490 . S
Pr328 O350 2.695 . S
Pr328 O351 2.512 . S
Pr328 O353 2.437 . S
Pr328 O356 2.436 1_545 S
Pr328 O358 2.438 . S
Pr329 C339 2.880 . S
Pr329 O350 2.436 1_565 S
Pr329 O352 2.438 . S
Pr329 O354 2.562 . S
Pr329 O355 2.490 . S
Pr329 O356 2.695 . S
Pr329 O357 2.512 . S
Pr329 O359 2.437 . S
C330 Pr328 2.880 . S
C330 C331 1.491 . S
C330 O348 1.254 . S
C330 O349 1.225 . S
C331 C330 1.491 . S
C331 C332 1.392 . S
C331 C336 1.356 . S
C332 C331 1.392 . S
C332 C333 1.368 . S
C332 H360 0.929 . S
C333 C332 1.368 . S
C333 C334 1.386 . S
C333 H361 0.929 . S
C334 C333 1.386 . S
C334 C335 1.373 . S
C335 C334 1.373 . S
C335 C336 1.409 . S
C335 H362 0.931 1_545 S
C336 C331 1.356 . S
C336 C335 1.409 . S
C336 H363 0.930 1_545 S
C337 O350 1.270 . S
C337 O351 1.248 . S
C338 O352 1.267 . S
C338 O353 1.278 1_565 S
C339 Pr329 2.880 . S
C339 C340 1.491 . S
C339 O354 1.254 . S
C339 O355 1.225 . S
C340 C339 1.491 . S
C340 C341 1.392 . S
C340 C345 1.356 . S
C341 C340 1.392 . S
C341 C342 1.368 . S
C341 H364 0.929 . S
C342 C341 1.368 . S
C342 C343 1.386 . S
C342 H365 0.929 . S
C343 C342 1.386 . S
C343 C344 1.373 . S
C344 C343 1.373 . S
C344 C345 1.409 . S
C344 H366 0.931 1_565 S
C345 C340 1.356 . S
C345 C344 1.409 . S
C345 H367 0.930 1_565 S
C346 O356 1.270 . S
C346 O357 1.248 . S
C347 O358 1.267 . S
C347 O359 1.278 1_545 S
O348 Pr328 2.562 . S
O348 C330 1.254 . S
O349 Pr328 2.490 . S
O349 C330 1.225 . S
O350 Pr328 2.695 . S
O350 Pr329 2.436 1_545 S
O350 C337 1.270 . S
O351 Pr328 2.512 . S
O351 C337 1.248 . S
O352 Pr329 2.438 . S
O352 C338 1.267 . S
O353 Pr328 2.437 . S
O353 C338 1.278 1_545 S
O354 Pr329 2.562 . S
O354 C339 1.254 . S
O355 Pr329 2.490 . S
O355 C339 1.225 . S
O356 Pr328 2.436 1_565 S
O356 Pr329 2.695 . S
O356 C346 1.270 . S
O357 Pr329 2.512 . S
O357 C346 1.248 . S
O358 Pr328 2.438 . S
O358 C347 1.267 . S
O359 Pr329 2.437 . S
O359 C347 1.278 1_565 S
H360 C332 0.929 . S
H361 C333 0.929 . S
H362 C335 0.931 1_565 S
H363 C336 0.930 1_565 S
H364 C341 0.929 . S
H365 C342 0.929 . S
H366 C344 0.931 1_545 S
H367 C345 0.930 1_545 S
Pr368 C370 2.880 . S
Pr368 O388 2.562 . S
Pr368 O389 2.490 . S
Pr368 O390 2.695 . S
Pr368 O391 2.512 . S
Pr368 O393 2.437 . S
Pr368 O396 2.436 . S
Pr368 O398 2.438 . S
Pr369 C379 2.880 . S
Pr369 O390 2.436 . S
Pr369 O392 2.438 . S
Pr369 O394 2.562 . S
Pr369 O395 2.490 . S
Pr369 O396 2.695 . S
Pr369 O397 2.512 . S
Pr369 O399 2.437 . S
C370 Pr368 2.880 . S
C370 C371 1.491 . S
C370 O388 1.254 . S
C370 O389 1.225 . S
C371 C370 1.491 . S
C371 C372 1.392 . S
C371 C376 1.356 . S
C372 C371 1.392 . S
C372 C373 1.368 . S
C372 H400 0.929 . S
C373 C372 1.368 . S
C373 C374 1.386 . S
C373 H401 0.929 . S
C374 C373 1.386 . S
C374 C375 1.373 . S
C375 C374 1.373 . S
C375 C376 1.409 . S
C375 H402 0.931 . S
C376 C371 1.356 . S
C376 C375 1.409 . S
C376 H403 0.930 . S
C377 O390 1.270 . S
C377 O391 1.248 . S
C378 O392 1.267 . S
C378 O393 1.278 . S
C379 Pr369 2.880 . S
C379 C380 1.491 . S
C379 O394 1.254 . S
C379 O395 1.225 . S
C380 C379 1.491 . S
C380 C381 1.392 . S
C380 C385 1.356 . S
C381 C380 1.392 . S
C381 C382 1.368 . S
C381 H404 0.929 . S
C382 C381 1.368 . S
C382 C383 1.386 . S
C382 H405 0.929 . S
C383 C382 1.386 . S
C383 C384 1.373 . S
C384 C383 1.373 . S
C384 C385 1.409 . S
C384 H406 0.931 . S
C385 C380 1.356 . S
C385 C384 1.409 . S
C385 H407 0.930 . S
C386 O396 1.270 . S
C386 O397 1.248 . S
C387 O398 1.267 . S
C387 O399 1.278 . S
O388 Pr368 2.562 . S
O388 C370 1.254 . S
O389 Pr368 2.490 . S
O389 C370 1.225 . S
O390 Pr368 2.695 . S
O390 Pr369 2.436 . S
O390 C377 1.270 . S
O391 Pr368 2.512 . S
O391 C377 1.248 . S
O392 Pr369 2.438 . S
O392 C378 1.267 . S
O393 Pr368 2.437 . S
O393 C378 1.278 . S
O394 Pr369 2.562 . S
O394 C379 1.254 . S
O395 Pr369 2.490 . S
O395 C379 1.225 . S
O396 Pr368 2.436 . S
O396 Pr369 2.695 . S
O396 C386 1.270 . S
O397 Pr369 2.512 . S
O397 C386 1.248 . S
O398 Pr368 2.438 . S
O398 C387 1.267 . S
O399 Pr369 2.437 . S
O399 C387 1.278 . S
H400 C372 0.929 . S
H401 C373 0.929 . S
H402 C375 0.931 . S
H403 C376 0.930 . S
H404 C381 0.929 . S
H405 C382 0.929 . S
H406 C384 0.931 . S
H407 C385 0.930 . S
Pr408 C410 2.880 . S
Pr408 O428 2.562 . S
Pr408 O429 2.490 . S
Pr408 O430 2.695 1_655 S
Pr408 O431 2.512 . S
Pr408 O433 2.437 . S
Pr408 O436 2.436 . S
Pr408 O438 2.438 1_655 S
Pr409 C419 2.880 . S
Pr409 O430 2.436 . S
Pr409 O432 2.438 1_455 S
Pr409 O434 2.562 . S
Pr409 O435 2.490 . S
Pr409 O436 2.695 1_455 S
Pr409 O437 2.512 . S
Pr409 O439 2.437 . S
C410 Pr408 2.880 . S
C410 C411 1.491 . S
C410 O428 1.254 . S
C410 O429 1.225 . S
C411 C410 1.491 . S
C411 C412 1.392 . S
C411 C416 1.356 . S
C412 C411 1.392 . S
C412 C413 1.368 . S
C412 H440 0.929 . S
C413 C412 1.368 . S
C413 C414 1.386 . S
C413 H441 0.929 . S
C414 C413 1.386 . S
C414 C415 1.373 . S
C415 C414 1.373 . S
C415 C416 1.409 . S
C415 H442 0.931 . S
C416 C411 1.356 . S
C416 C415 1.409 . S
C416 H443 0.930 . S
C417 O430 1.255 1_655 S
C417 O431 1.275 . S
C418 O432 1.267 . S
C418 O433 1.278 . S
C419 Pr409 2.880 . S
C419 C420 1.491 . S
C419 O434 1.254 . S
C419 O435 1.225 . S
C420 C419 1.491 . S
C420 C421 1.392 . S
C420 C425 1.356 . S
C421 C420 1.392 . S
C421 C422 1.368 . S
C421 H444 0.929 . S
C422 C421 1.368 . S
C422 C423 1.386 . S
C422 H445 0.929 . S
C423 C422 1.386 . S
C423 C424 1.373 . S
C424 C423 1.373 . S
C424 C425 1.409 . S
C424 H446 0.931 . S
C425 C420 1.356 . S
C425 C424 1.409 . S
C425 H447 0.930 . S
C426 O436 1.251 1_455 S
C426 O437 1.283 . S
C427 O438 1.267 . S
C427 O439 1.278 . S
O428 Pr408 2.562 . S
O428 C410 1.254 . S
O429 Pr408 2.490 . S
O429 C410 1.225 . S
O430 Pr408 2.695 1_455 S
O430 Pr409 2.436 . S
O430 C417 1.255 1_455 S
O431 Pr408 2.512 . S
O431 C417 1.275 . S
O432 Pr409 2.438 1_655 S
O432 C418 1.267 . S
O433 Pr408 2.437 . S
O433 C418 1.278 . S
O434 Pr409 2.562 . S
O434 C419 1.254 . S
O435 Pr409 2.490 . S
O435 C419 1.225 . S
O436 Pr408 2.436 . S
O436 Pr409 2.695 1_655 S
O436 C426 1.251 1_655 S
O437 Pr409 2.512 . S
O437 C426 1.283 . S
O438 Pr408 2.438 1_455 S
O438 C427 1.267 . S
O439 Pr409 2.437 . S
O439 C427 1.278 . S
H440 C412 0.929 . S
H441 C413 0.929 . S
H442 C415 0.931 . S
H443 C416 0.930 . S
H444 C421 0.929 . S
H445 C422 0.929 . S
H446 C424 0.931 . S
H447 C425 0.930 . S
H448 C466 0.951 . S
H449 C468 0.951 . S
H450 C470 0.950 . S
H451 C471 0.950 . S
H452 C473 0.950 . S
H453 C476 0.950 . S
H454 C477 0.950 . S
H455 C479 0.950 . S
H456 C480 0.969 . S
H457 C481 0.951 . S
H458 C483 0.951 . S
H459 C485 0.950 . S
H460 C486 0.950 . S
H461 C488 0.950 . S
H462 C491 0.950 . S
H463 C492 0.950 . S
H464 C494 0.950 . S
H465 C495 0.950 . S
C466 H448 0.951 . S
C466 C467 1.366 . S
C466 C468 1.388 . S
C467 C466 1.366 . S
C467 C471 1.385 1_545 S
C468 H449 0.951 . S
C468 C466 1.388 . S
C468 C469 1.380 . S
C469 C468 1.380 . S
C469 C470 1.402 1_545 S
C469 C472 1.498 . S
C470 H450 0.950 . S
C470 C469 1.402 1_565 S
C470 C471 1.374 . S
C471 H451 0.950 . S
C471 C467 1.385 1_565 S
C471 C470 1.374 . S
C472 C469 1.498 . S
C472 C473 1.378 . S
C472 C474 1.385 1_545 S
C473 H452 0.950 . S
C473 C472 1.378 . S
C473 C489 1.377 . S
C474 C472 1.385 1_565 S
C474 C475 1.524 . S
C474 C488 1.377 . S
C475 C474 1.524 . S
C475 C476 1.397 . S
C475 C480 1.363 . S
C476 H453 0.950 . S
C476 C475 1.397 . S
C476 C477 1.334 . S
C477 H454 0.950 . S
C477 C476 1.334 . S
C477 C478 1.287 . S
C478 C477 1.287 . S
C478 C479 1.524 . S
C478 H497 0.913 . S
C479 H455 0.950 . S
C479 C478 1.524 . S
C479 C480 1.415 . S
C480 H456 0.969 . S
C480 C475 1.363 . S
C480 C479 1.415 . S
C481 H457 0.951 . S
C481 C482 1.366 1_565 S
C481 C483 1.388 . S
C482 C481 1.366 1_545 S
C482 C486 1.385 . S
C483 H458 0.951 . S
C483 C481 1.388 . S
C483 C484 1.366 1_565 S
C484 C483 1.366 1_545 S
C484 C485 1.414 . S
C484 C487 1.499 . S
C485 H459 0.950 . S
C485 C484 1.414 . S
C485 C486 1.374 . S
C486 H460 0.950 . S
C486 C482 1.385 . S
C486 C485 1.374 . S
C487 C484 1.499 . S
C487 C488 1.373 1_545 S
C487 C489 1.389 . S
C488 H461 0.950 . S
C488 C474 1.377 . S
C488 C487 1.373 1_565 S
C489 C473 1.377 . S
C489 C487 1.389 . S
C489 C490 1.524 . S
C490 C489 1.524 . S
C490 C491 1.397 . S
C490 C495 1.363 . S
C491 H462 0.950 . S
C491 C490 1.397 . S
C491 C492 1.334 . S
C492 H463 0.950 . S
C492 C491 1.334 . S
C492 C493 1.287 . S
C493 C492 1.287 . S
C493 C494 1.524 . S
C493 H496 0.999 . S
C494 H464 0.950 . S
C494 C493 1.524 . S
C494 C495 1.415 . S
C495 H465 0.950 . S
C495 C490 1.363 . S
C495 C494 1.415 . S
H496 C493 0.999 . S
H497 C478 0.913 . S
H498 C516 0.951 . S
H499 C518 0.951 . S
H500 C520 0.950 . S
H501 C521 0.950 . S
H502 C523 0.950 . S
H503 C526 0.950 . S
H504 C527 0.950 . S
H505 C529 0.950 . S
H506 C530 0.950 . S
H507 C531 0.951 . S
H508 C533 0.951 . S
H509 C535 0.950 . S
H510 C536 0.950 . S
H511 C538 0.950 . S
H512 C541 0.950 . S
H513 C542 0.950 . S
H514 C544 0.950 . S
H515 C545 0.950 . S
C516 H498 0.951 . S
C516 C517 1.366 . S
C516 C518 1.388 . S
C517 C516 1.366 . S
C517 C521 1.385 . S
C518 H499 0.951 . S
C518 C516 1.388 . S
C518 C519 1.366 . S
C519 C518 1.366 . S
C519 C520 1.414 . S
C519 C522 1.499 . S
C520 H500 0.950 . S
C520 C519 1.414 . S
C520 C521 1.374 . S
C521 H501 0.950 . S
C521 C517 1.385 . S
C521 C520 1.374 . S
C522 C519 1.499 . S
C522 C523 1.373 . S
C522 C524 1.389 . S
C523 H502 0.950 . S
C523 C522 1.373 . S
C523 C539 1.377 . S
C524 C522 1.389 . S
C524 C525 1.524 . S
C524 C538 1.377 . S
C525 C524 1.524 . S
C525 C526 1.397 . S
C525 C530 1.363 . S
C526 H503 0.950 . S
C526 C525 1.397 . S
C526 C527 1.334 . S
C527 H504 0.950 . S
C527 C526 1.334 . S
C527 C528 1.287 . S
C528 C527 1.287 . S
C528 C529 1.524 . S
C528 H547 0.913 . S
C529 H505 0.950 . S
C529 C528 1.524 . S
C529 C530 1.415 . S
C530 H506 0.950 . S
C530 C525 1.363 . S
C530 C529 1.415 . S
C531 H507 0.951 . S
C531 C532 1.366 . S
C531 C533 1.388 . S
C532 C531 1.366 . S
C532 C536 1.385 . S
C533 H508 0.951 . S
C533 C531 1.388 . S
C533 C534 1.366 . S
C534 C533 1.366 . S
C534 C535 1.414 . S
C534 C537 1.499 . S
C535 H509 0.950 . S
C535 C534 1.414 . S
C535 C536 1.374 . S
C536 H510 0.950 . S
C536 C532 1.385 . S
C536 C535 1.374 . S
C537 C534 1.499 . S
C537 C538 1.373 . S
C537 C539 1.389 . S
C538 H511 0.950 . S
C538 C524 1.377 . S
C538 C537 1.373 . S
C539 C523 1.377 . S
C539 C537 1.389 . S
C539 C540 1.524 . S
C540 C539 1.524 . S
C540 C541 1.397 . S
C540 C545 1.363 . S
C541 H512 0.950 . S
C541 C540 1.397 . S
C541 C542 1.334 . S
C542 H513 0.950 . S
C542 C541 1.334 . S
C542 C543 1.287 . S
C543 C542 1.287 . S
C543 C544 1.524 . S
C543 H546 0.999 . S
C544 H514 0.950 . S
C544 C543 1.524 . S
C544 C545 1.415 . S
C545 H515 0.950 . S
C545 C540 1.363 . S
C545 C544 1.415 . S
H546 C543 0.999 . S
H547 C528 0.913 . S
H548 C566 0.951 . S
H549 C568 0.951 . S
H550 C570 0.950 . S
H551 C571 0.950 . S
H552 C573 0.950 . S
H553 C576 0.950 . S
H554 C577 0.950 . S
H555 C579 0.950 . S
H556 C580 0.950 . S
H557 C581 0.951 . S
H558 C583 0.951 . S
H559 C585 0.950 . S
H560 C586 0.950 . S
H561 C588 0.950 . S
H562 C591 0.950 . S
H563 C592 0.950 . S
H564 C594 0.950 . S
H565 C595 0.950 . S
C566 H548 0.951 . S
C566 C567 1.366 . S
C566 C568 1.388 . S
C567 C566 1.366 . S
C567 C571 1.385 . S
C568 H549 0.951 . S
C568 C566 1.388 . S
C568 C569 1.366 . S
C569 C568 1.366 . S
C569 C570 1.414 . S
C569 C572 1.499 . S
C570 H550 0.950 . S
C570 C569 1.414 . S
C570 C571 1.374 . S
C571 H551 0.950 . S
C571 C567 1.385 . S
C571 C570 1.374 . S
C572 C569 1.499 . S
C572 C573 1.373 . S
C572 C574 1.389 . S
C573 H552 0.950 . S
C573 C572 1.373 . S
C573 C589 1.377 . S
C574 C572 1.389 . S
C574 C575 1.524 . S
C574 C588 1.377 . S
C575 C574 1.524 . S
C575 C576 1.397 . S
C575 C580 1.363 . S
C576 H553 0.950 . S
C576 C575 1.397 . S
C576 C577 1.334 . S
C577 H554 0.950 . S
C577 C576 1.334 . S
C577 C578 1.287 . S
C578 C577 1.287 . S
C578 C579 1.524 . S
C578 H597 0.913 . S
C579 H555 0.950 . S
C579 C578 1.524 . S
C579 C580 1.415 . S
C580 H556 0.950 . S
C580 C575 1.363 . S
C580 C579 1.415 . S
C581 H557 0.951 . S
C581 C582 1.366 . S
C581 C583 1.388 . S
C582 C581 1.366 . S
C582 C586 1.385 . S
C583 H558 0.951 . S
C583 C581 1.388 . S
C583 C584 1.366 . S
C584 C583 1.366 . S
C584 C585 1.414 . S
C584 C587 1.499 . S
C585 H559 0.950 . S
C585 C584 1.414 . S
C585 C586 1.374 . S
C586 H560 0.950 . S
C586 C582 1.385 . S
C586 C585 1.374 . S
C587 C584 1.499 . S
C587 C588 1.373 . S
C587 C589 1.389 . S
C588 H561 0.950 . S
C588 C574 1.377 . S
C588 C587 1.373 . S
C589 C573 1.377 . S
C589 C587 1.389 . S
C589 C590 1.524 . S
C590 C589 1.524 . S
C590 C591 1.397 . S
C590 C595 1.363 . S
C591 H562 0.950 . S
C591 C590 1.397 . S
C591 C592 1.334 . S
C592 H563 0.950 . S
C592 C591 1.334 . S
C592 C593 1.287 . S
C593 C592 1.287 . S
C593 C594 1.524 . S
C593 H596 0.999 . S
C594 H564 0.950 . S
C594 C593 1.524 . S
C594 C595 1.415 . S
C595 H565 0.950 . S
C595 C590 1.363 . S
C595 C594 1.415 . S
H596 C593 0.999 . S
H597 C578 0.913 . S
H598 C616 0.951 . S
H599 C618 0.951 . S
H600 C620 0.950 . S
H601 C621 0.950 . S
H602 C623 0.950 . S
H603 C626 0.950 . S
H604 C627 0.950 . S
H605 C629 0.950 . S
H606 C630 0.950 . S
H607 C631 0.951 . S
H608 C633 0.951 . S
H609 C635 0.950 . S
H610 C636 0.950 . S
H611 C638 0.950 . S
H612 C641 0.950 . S
H613 C642 0.950 . S
H614 C644 0.950 . S
H615 C645 0.950 . S
C616 H598 0.951 . S
C616 C617 1.366 . S
C616 C618 1.388 . S
C617 C616 1.366 . S
C617 C621 1.385 1_455 S
C618 H599 0.951 . S
C618 C616 1.388 . S
C618 C619 1.366 . S
C619 C618 1.366 . S
C619 C620 1.414 1_455 S
C619 C622 1.499 . S
C620 H600 0.950 . S
C620 C619 1.414 1_655 S
C620 C621 1.374 . S
C621 H601 0.950 . S
C621 C617 1.385 1_655 S
C621 C620 1.374 . S
C622 C619 1.499 . S
C622 C623 1.373 1_455 S
C622 C624 1.389 . S
C623 H602 0.950 . S
C623 C622 1.373 1_655 S
C623 C639 1.377 . S
C624 C622 1.389 . S
C624 C625 1.524 . S
C624 C638 1.377 . S
C625 C624 1.524 . S
C625 C626 1.397 . S
C625 C630 1.363 . S
C626 H603 0.950 . S
C626 C625 1.397 . S
C626 C627 1.334 . S
C627 H604 0.950 . S
C627 C626 1.334 . S
C627 C628 1.287 . S
C628 C627 1.287 . S
C628 C629 1.524 . S
C628 H647 0.913 . S
C629 H605 0.950 . S
C629 C628 1.524 . S
C629 C630 1.415 . S
C630 H606 0.950 . S
C630 C625 1.363 . S
C630 C629 1.415 . S
C631 H607 0.951 . S
C631 C632 1.366 1_655 S
C631 C633 1.388 . S
C632 C631 1.366 1_455 S
C632 C636 1.385 . S
C633 H608 0.951 . S
C633 C631 1.388 . S
C633 C634 1.347 1_655 S
C634 C633 1.347 1_455 S
C634 C635 1.435 . S
C634 C637 1.498 . S
C635 H609 0.950 . S
C635 C634 1.435 . S
C635 C636 1.374 . S
C636 H610 0.950 . S
C636 C632 1.385 . S
C636 C635 1.374 . S
C637 C634 1.498 . S
C637 C638 1.425 . S
C637 C639 1.340 1_455 S
C638 H611 0.950 . S
C638 C624 1.377 . S
C638 C637 1.425 . S
C639 C623 1.377 . S
C639 C637 1.340 1_655 S
C639 C640 1.524 . S
C640 C639 1.524 . S
C640 C641 1.397 . S
C640 C645 1.363 . S
C641 H612 0.950 . S
C641 C640 1.397 . S
C641 C642 1.334 . S
C642 H613 0.950 . S
C642 C641 1.334 . S
C642 C643 1.287 . S
C643 C642 1.287 . S
C643 C644 1.524 . S
C643 H646 0.999 . S
C644 H614 0.950 . S
C644 C643 1.524 . S
C644 C645 1.415 . S
C645 H615 0.950 . S
C645 C640 1.363 . S
C645 C644 1.415 . S
H646 C643 0.999 . S
H647 C628 0.913 . S
H648 C666 0.951 . S
H649 C668 0.951 . S
H650 C670 0.950 . S
H651 C671 0.950 . S
H652 C673 0.950 . S
H653 C676 0.950 . S
H654 C677 0.950 . S
H655 C679 0.950 . S
H656 C680 0.950 . S
H657 C681 0.951 . S
H658 C683 0.951 . S
H659 C685 0.950 . S
H660 C686 0.950 . S
H661 C688 0.950 . S
H662 C691 0.950 . S
H663 C692 0.950 . S
H664 C694 0.950 . S
H665 C695 0.950 . S
C666 H648 0.951 . S
C666 C667 1.366 1_545 S
C666 C668 1.388 . S
C667 C666 1.366 1_565 S
C667 C671 1.385 . S
C668 H649 0.951 . S
C668 C666 1.388 . S
C668 C669 1.366 1_545 S
C669 C668 1.366 1_565 S
C669 C670 1.414 . S
C669 C672 1.499 . S
C670 H650 0.950 . S
C670 C669 1.414 . S
C670 C671 1.374 . S
C671 H651 0.950 . S
C671 C667 1.385 . S
C671 C670 1.374 . S
C672 C669 1.499 . S
C672 C673 1.373 1_565 S
C672 C674 1.389 1_554 S
C673 H652 0.950 . S
C673 C672 1.373 1_545 S
C673 C689 1.377 1_554 S
C674 C672 1.389 1_556 S
C674 C675 1.524 . S
C674 C688 1.377 . S
C675 C674 1.524 . S
C675 C676 1.397 1_556 S
C675 C680 1.363 . S
C676 H653 0.950 . S
C676 C675 1.397 1_554 S
C676 C677 1.334 . S
C677 H654 0.950 . S
C677 C676 1.334 . S
C677 C678 1.287 1_554 S
C678 C677 1.287 1_556 S
C678 C679 1.524 . S
C678 H697 0.913 . S
C679 H655 0.950 . S
C679 C678 1.524 . S
C679 C680 1.415 . S
C680 H656 0.950 . S
C680 C675 1.363 . S
C680 C679 1.415 . S
C681 H657 0.951 . S
C681 C682 1.366 . S
C681 C683 1.388 . S
C682 C681 1.366 . S
C682 C686 1.385 1_565 S
C683 H658 0.951 . S
C683 C681 1.388 . S
C683 C684 1.367 . S
C684 C683 1.367 . S
C684 C685 1.412 1_565 S
C684 C687 1.499 1_565 S
C685 H659 0.950 . S
C685 C684 1.412 1_545 S
C685 C686 1.374 . S
C686 H660 0.950 . S
C686 C682 1.385 1_545 S
C686 C685 1.374 . S
C687 C684 1.499 1_545 S
C687 C688 1.375 1_545 S
C687 C689 1.388 . S
C688 H661 0.950 . S
C688 C674 1.377 . S
C688 C687 1.375 1_565 S
C689 C673 1.377 1_556 S
C689 C687 1.388 . S
C689 C690 1.524 . S
C690 C689 1.524 . S
C690 C691 1.397 . S
C690 C695 1.363 1_556 S
C691 H662 0.950 . S
C691 C690 1.397 . S
C691 C692 1.334 . S
C692 H663 0.950 . S
C692 C691 1.334 . S
C692 C693 1.287 . S
C693 C692 1.287 . S
C693 C694 1.524 1_556 S
C693 H696 0.999 1_556 S
C694 H664 0.950 . S
C694 C693 1.524 1_554 S
C694 C695 1.415 . S
C695 H665 0.950 . S
C695 C690 1.363 1_554 S
C695 C694 1.415 . S
H696 C693 0.999 1_554 S
H697 C678 0.913 . S
H698 C716 0.951 . S
H699 C718 0.951 . S
H700 C720 0.950 . S
H701 C721 0.950 . S
H702 C723 0.950 . S
H703 C726 0.950 . S
H704 C727 0.950 . S
H705 C729 0.950 . S
H706 C730 0.950 . S
H707 C731 0.951 . S
H708 C733 0.951 . S
H709 C735 0.950 . S
H710 C736 0.950 . S
H711 C738 0.950 . S
H712 C741 0.950 . S
H713 C742 0.950 . S
H714 C744 0.950 . S
H715 C745 0.950 . S
C716 H698 0.951 . S
C716 C717 1.366 . S
C716 C718 1.388 . S
C717 C716 1.366 . S
C717 C721 1.385 . S
C718 H699 0.951 . S
C718 C716 1.388 . S
C718 C719 1.366 . S
C719 C718 1.366 . S
C719 C720 1.414 . S
C719 C722 1.499 . S
C720 H700 0.950 . S
C720 C719 1.414 . S
C720 C721 1.374 . S
C721 H701 0.950 . S
C721 C717 1.385 . S
C721 C720 1.374 . S
C722 C719 1.499 . S
C722 C723 1.373 . S
C722 C724 1.389 1_554 S
C723 H702 0.950 . S
C723 C722 1.373 . S
C723 C739 1.377 1_554 S
C724 C722 1.389 1_556 S
C724 C725 1.524 1_556 S
C724 C738 1.377 . S
C725 C724 1.524 1_554 S
C725 C726 1.397 . S
C725 C730 1.363 . S
C726 H703 0.950 . S
C726 C725 1.397 . S
C726 C727 1.334 . S
C727 H704 0.950 . S
C727 C726 1.334 . S
C727 C728 1.287 . S
C728 C727 1.287 . S
C728 C729 1.524 . S
C728 H747 0.913 . S
C729 H705 0.950 . S
C729 C728 1.524 . S
C729 C730 1.415 . S
C730 H706 0.950 . S
C730 C725 1.363 . S
C730 C729 1.415 . S
C731 H707 0.951 . S
C731 C732 1.366 . S
C731 C733 1.388 . S
C732 C731 1.366 . S
C732 C736 1.385 . S
C733 H708 0.951 . S
C733 C731 1.388 . S
C733 C734 1.366 . S
C734 C733 1.366 . S
C734 C735 1.414 . S
C734 C737 1.499 . S
C735 H709 0.950 . S
C735 C734 1.414 . S
C735 C736 1.374 . S
C736 H710 0.950 . S
C736 C732 1.385 . S
C736 C735 1.374 . S
C737 C734 1.499 . S
C737 C738 1.373 . S
C737 C739 1.389 . S
C738 H711 0.950 . S
C738 C724 1.377 . S
C738 C737 1.373 . S
C739 C723 1.377 1_556 S
C739 C737 1.389 . S
C739 C740 1.524 . S
C740 C739 1.524 . S
C740 C741 1.397 . S
C740 C745 1.363 . S
C741 H712 0.950 . S
C741 C740 1.397 . S
C741 C742 1.334 . S
C742 H713 0.950 . S
C742 C741 1.334 . S
C742 C743 1.287 . S
C743 C742 1.287 . S
C743 C744 1.524 . S
C743 H746 0.999 . S
C744 H714 0.950 . S
C744 C743 1.524 . S
C744 C745 1.415 . S
C745 H715 0.950 . S
C745 C740 1.363 . S
C745 C744 1.415 . S
H746 C743 0.999 . S
H747 C728 0.913 . S
H748 C766 0.951 . S
H749 C768 0.951 . S
H750 C770 0.950 . S
H751 C771 0.950 . S
H752 C773 0.950 . S
H753 C776 0.950 . S
H754 C777 0.951 . S
H755 C779 0.950 . S
H756 C780 0.950 . S
H757 C781 0.951 . S
H758 C783 0.951 . S
H759 C785 0.950 . S
H760 C786 0.950 . S
H761 C788 0.950 . S
H762 C791 0.950 . S
H763 C792 0.950 . S
H764 C794 0.950 . S
H765 C795 0.950 . S
C766 H748 0.951 . S
C766 C767 1.366 . S
C766 C768 1.388 . S
C767 C766 1.366 . S
C767 C771 1.385 . S
C768 H749 0.951 . S
C768 C766 1.388 . S
C768 C769 1.366 . S
C769 C768 1.366 . S
C769 C770 1.414 . S
C769 C772 1.499 . S
C770 H750 0.950 . S
C770 C769 1.414 . S
C770 C771 1.374 . S
C771 H751 0.950 . S
C771 C767 1.385 . S
C771 C770 1.374 . S
C772 C769 1.499 . S
C772 C773 1.373 . S
C772 C774 1.389 1_554 S
C773 H752 0.950 . S
C773 C772 1.373 . S
C773 C789 1.377 1_554 S
C774 C772 1.389 1_556 S
C774 C775 1.524 . S
C774 C788 1.377 . S
C775 C774 1.524 . S
C775 C776 1.397 . S
C775 C780 1.363 . S
C776 H753 0.950 . S
C776 C775 1.397 . S
C776 C777 1.334 1_556 S
C777 H754 0.951 . S
C777 C776 1.334 1_554 S
C777 C778 1.286 1_554 S
C778 C777 1.286 1_556 S
C778 C779 1.524 . S
C778 H797 0.912 1_556 S
C779 H755 0.950 . S
C779 C778 1.524 . S
C779 C780 1.415 . S
C780 H756 0.950 . S
C780 C775 1.363 . S
C780 C779 1.415 . S
C781 H757 0.951 . S
C781 C782 1.366 . S
C781 C783 1.388 . S
C782 C781 1.366 . S
C782 C786 1.385 . S
C783 H758 0.951 . S
C783 C781 1.388 . S
C783 C784 1.366 . S
C784 C783 1.366 . S
C784 C785 1.414 . S
C784 C787 1.499 . S
C785 H759 0.950 . S
C785 C784 1.414 . S
C785 C786 1.374 . S
C786 H760 0.950 . S
C786 C782 1.385 . S
C786 C785 1.374 . S
C787 C784 1.499 . S
C787 C788 1.373 . S
C787 C789 1.389 . S
C788 H761 0.950 . S
C788 C774 1.377 . S
C788 C787 1.373 . S
C789 C773 1.377 1_556 S
C789 C787 1.389 . S
C789 C790 1.524 . S
C790 C789 1.524 . S
C790 C791 1.397 . S
C790 C795 1.363 . S
C791 H762 0.950 . S
C791 C790 1.397 . S
C791 C792 1.334 . S
C792 H763 0.950 . S
C792 C791 1.334 . S
C792 C793 1.287 . S
C793 C792 1.287 . S
C793 C794 1.524 . S
C793 H796 0.999 . S
C794 H764 0.950 . S
C794 C793 1.524 . S
C794 C795 1.415 . S
C795 H765 0.950 . S
C795 C790 1.363 . S
C795 C794 1.415 . S
H796 C793 0.999 . S
H797 C778 0.912 1_554 S
H798 C816 0.951 . S
H799 C818 0.951 . S
H800 C820 0.950 . S
H801 C821 0.950 . S
H802 C823 0.950 . S
H803 C826 0.996 . S
H804 C827 0.950 . S
H805 C829 0.950 . S
H806 C830 0.950 . S
H807 C831 0.951 . S
H808 C833 0.951 . S
H809 C835 0.950 . S
H810 C836 0.950 . S
H811 C838 0.950 . S
H812 C841 0.950 . S
H813 C842 0.950 . S
H814 C844 0.950 . S
H815 C845 0.949 1_554 S
C816 H798 0.951 . S
C816 C817 1.366 1_455 S
C816 C818 1.388 . S
C817 C816 1.366 1_655 S
C817 C821 1.385 . S
C818 H799 0.951 . S
C818 C816 1.388 . S
C818 C819 1.366 1_455 S
C819 C818 1.366 1_655 S
C819 C820 1.414 . S
C819 C822 1.499 . S
C820 H800 0.950 . S
C820 C819 1.414 . S
C820 C821 1.374 . S
C821 H801 0.950 . S
C821 C817 1.385 . S
C821 C820 1.374 . S
C822 C819 1.499 . S
C822 C823 1.373 . S
C822 C824 1.389 1_654 S
C823 H802 0.950 . S
C823 C822 1.373 . S
C823 C839 1.377 1_554 S
C824 C822 1.389 1_456 S
C824 C825 1.524 . S
C824 C838 1.377 . S
C825 C824 1.524 . S
C825 C826 1.397 . S
C825 C830 1.363 . S
C826 H803 0.996 . S
C826 C825 1.397 . S
C826 C827 1.334 . S
C827 H804 0.950 . S
C827 C826 1.334 . S
C827 C828 1.287 . S
C828 C827 1.287 . S
C828 C829 1.524 . S
C828 H847 0.913 . S
C829 H805 0.950 . S
C829 C828 1.524 . S
C829 C830 1.415 . S
C830 H806 0.950 . S
C830 C825 1.363 . S
C830 C829 1.415 . S
C831 H807 0.951 . S
C831 C832 1.366 . S
C831 C833 1.388 . S
C832 C831 1.366 . S
C832 C836 1.385 1_655 S
C833 H808 0.951 . S
C833 C831 1.388 . S
C833 C834 1.366 . S
C834 C833 1.366 . S
C834 C835 1.414 1_655 S
C834 C837 1.501 . S
C835 H809 0.950 . S
C835 C834 1.414 1_455 S
C835 C836 1.374 . S
C836 H810 0.950 . S
C836 C832 1.385 1_455 S
C836 C835 1.374 . S
C837 C834 1.501 . S
C837 C838 1.345 1_655 S
C837 C839 1.420 . S
C838 H811 0.950 . S
C838 C824 1.377 . S
C838 C837 1.345 1_455 S
C839 C823 1.377 1_556 S
C839 C837 1.420 . S
C839 C840 1.524 . S
C840 C839 1.524 . S
C840 C841 1.397 . S
C840 C845 1.366 . S
C841 H812 0.950 . S
C841 C840 1.397 . S
C841 C842 1.334 . S
C842 H813 0.950 . S
C842 C841 1.334 . S
C842 C843 1.287 . S
C843 C842 1.287 . S
C843 C844 1.524 1_556 S
C843 H846 0.999 1_556 S
C844 H814 0.950 . S
C844 C843 1.524 1_554 S
C844 C845 1.413 1_554 S
C845 H815 0.949 1_556 S
C845 C840 1.366 . S
C845 C844 1.413 1_556 S
H846 C843 0.999 1_554 S
H847 C828 0.913 . S
H848 C866 0.951 . S
H849 C868 0.951 . S
H850 C870 0.950 . S
H851 C871 0.950 . S
H852 C873 0.950 . S
H853 C876 0.950 . S
H854 C877 0.950 . S
H855 C879 0.950 . S
H856 C880 0.950 . S
H857 C881 0.951 . S
H858 C883 1.001 . S
H859 C885 0.950 . S
H860 C886 0.950 . S
H861 C888 0.950 . S
H862 C891 0.950 . S
H863 C892 0.950 . S
H864 C894 0.950 . S
H865 C895 0.950 1_455 S
C866 H848 0.951 . S
C866 C867 1.366 1_655 S
C866 C868 1.388 . S
C867 C866 1.366 1_455 S
C867 C871 1.385 . S
C868 H849 0.951 . S
C868 C866 1.388 . S
C868 C869 1.366 . S
C869 C868 1.366 . S
C869 C870 1.414 1_655 S
C869 C872 1.499 . S
C870 H850 0.950 . S
C870 C869 1.414 1_455 S
C870 C871 1.374 . S
C871 H851 0.950 . S
C871 C867 1.385 . S
C871 C870 1.374 . S
C872 C869 1.499 . S
C872 C873 1.373 . S
C872 C874 1.389 . S
C873 H852 0.950 . S
C873 C872 1.373 . S
C873 C889 1.377 . S
C874 C872 1.389 . S
C874 C875 1.524 . S
C874 C888 1.377 . S
C875 C874 1.524 . S
C875 C876 1.397 1_655 S
C875 C880 1.363 . S
C876 H853 0.950 . S
C876 C875 1.397 1_455 S
C876 C877 1.334 . S
C877 H854 0.950 . S
C877 C876 1.334 . S
C877 C878 1.287 . S
C878 C877 1.287 . S
C878 C879 1.524 1_455 S
C878 H897 0.913 . S
C879 H855 0.950 . S
C879 C878 1.524 1_655 S
C879 C880 1.415 . S
C880 H856 0.950 . S
C880 C875 1.363 . S
C880 C879 1.415 . S
C881 H857 0.951 . S
C881 C882 1.366 . S
C881 C883 1.388 . S
C882 C881 1.366 . S
C882 C886 1.385 . S
C883 H858 1.001 . S
C883 C881 1.388 . S
C883 C884 1.366 . S
C884 C883 1.366 . S
C884 C885 1.414 . S
C884 C887 1.499 . S
C885 H859 0.950 . S
C885 C884 1.414 . S
C885 C886 1.374 . S
C886 H860 0.950 . S
C886 C882 1.385 . S
C886 C885 1.374 . S
C887 C884 1.499 . S
C887 C888 1.373 . S
C887 C889 1.389 . S
C888 H861 0.950 . S
C888 C874 1.377 . S
C888 C887 1.373 . S
C889 C873 1.377 . S
C889 C887 1.389 . S
C889 C890 1.524 . S
C890 C889 1.524 . S
C890 C891 1.397 . S
C890 C895 1.363 . S
C891 H862 0.950 . S
C891 C890 1.397 . S
C891 C892 1.334 . S
C892 H863 0.950 . S
C892 C891 1.334 . S
C892 C893 1.287 . S
C893 C892 1.287 . S
C893 C894 1.524 . S
C893 H896 0.999 . S
C894 H864 0.950 . S
C894 C893 1.524 . S
C894 C895 1.415 . S
C895 H865 0.950 1_655 S
C895 C890 1.363 . S
C895 C894 1.415 . S
H896 C893 0.999 . S
H897 C878 0.913 . S
H898 C916 0.951 . S
H899 C918 0.951 . S
H900 C920 0.950 . S
H901 C921 0.950 . S
H902 C923 0.950 . S
H903 C926 0.950 . S
H904 C927 0.950 . S
H905 C929 0.950 . S
H906 C930 0.950 . S
H907 C931 0.996 . S
H908 C933 0.951 1_545 S
H909 C935 0.950 . S
H910 C936 0.950 . S
H911 C938 0.950 . S
H912 C941 0.950 1_565 S
H913 C942 0.950 . S
H914 C944 0.950 . S
H915 C945 0.950 . S
C916 H898 0.951 . S
C916 C917 1.366 1_565 S
C916 C918 1.388 . S
C917 C916 1.366 1_545 S
C917 C921 1.385 . S
C918 H899 0.951 . S
C918 C916 1.388 . S
C918 C919 1.366 . S
C919 C918 1.366 . S
C919 C920 1.414 1_565 S
C919 C922 1.499 . S
C920 H900 0.950 . S
C920 C919 1.414 1_545 S
C920 C921 1.374 . S
C921 H901 0.950 . S
C921 C917 1.385 . S
C921 C920 1.374 . S
C922 C919 1.499 . S
C922 C923 1.373 1_565 S
C922 C924 1.389 . S
C923 H902 0.950 . S
C923 C922 1.373 1_545 S
C923 C939 1.377 1_545 S
C924 C922 1.389 . S
C924 C925 1.524 . S
C924 C938 1.377 . S
C925 C924 1.524 . S
C925 C926 1.397 . S
C925 C930 1.363 . S
C926 H903 0.950 . S
C926 C925 1.397 . S
C926 C927 1.334 . S
C927 H904 0.950 . S
C927 C926 1.334 . S
C927 C928 1.287 . S
C928 C927 1.287 . S
C928 C929 1.524 . S
C928 H947 0.913 . S
C929 H905 0.950 . S
C929 C928 1.524 . S
C929 C930 1.415 . S
C930 H906 0.950 . S
C930 C925 1.363 . S
C930 C929 1.415 . S
C931 H907 0.996 . S
C931 C932 1.366 . S
C931 C933 1.388 . S
C932 C931 1.366 . S
C932 C936 1.385 . S
C933 H908 0.951 1_565 S
C933 C931 1.388 . S
C933 C934 1.366 . S
C934 C933 1.366 . S
C934 C935 1.414 . S
C934 C937 1.499 . S
C935 H909 0.950 . S
C935 C934 1.414 . S
C935 C936 1.374 . S
C936 H910 0.950 . S
C936 C932 1.385 . S
C936 C935 1.374 . S
C937 C934 1.499 . S
C937 C938 1.373 . S
C937 C939 1.389 . S
C938 H911 0.950 . S
C938 C924 1.377 . S
C938 C937 1.373 . S
C939 C923 1.377 1_565 S
C939 C937 1.389 . S
C939 C940 1.524 1_565 S
C940 C939 1.524 1_545 S
C940 C941 1.397 . S
C940 C945 1.363 . S
C941 H912 0.950 1_545 S
C941 C940 1.397 . S
C941 C942 1.334 . S
C942 H913 0.950 . S
C942 C941 1.334 . S
C942 C943 1.287 . S
C943 C942 1.287 . S
C943 C944 1.524 . S
C943 H946 0.999 . S
C944 H914 0.950 . S
C944 C943 1.524 . S
C944 C945 1.415 . S
C945 H915 0.950 . S
C945 C940 1.363 . S
C945 C944 1.415 . S
H946 C943 0.999 . S
H947 C928 0.913 . S
H948 C966 0.951 . S
H949 C968 0.951 . S
H950 C970 0.950 . S
H951 C971 0.950 . S
H952 C973 0.950 . S
H953 C976 0.950 . S
H954 C977 0.950 . S
H955 C979 0.950 . S
H956 C980 0.950 . S
H957 C981 0.951 . S
H958 C983 0.951 . S
H959 C985 0.950 . S
H960 C986 0.950 . S
H961 C988 0.950 . S
H962 C991 0.950 . S
H963 C992 0.950 . S
H964 C994 0.950 . S
H965 C995 0.950 . S
C966 H948 0.951 . S
C966 C967 1.366 . S
C966 C968 1.388 . S
C967 C966 1.366 . S
C967 C971 1.385 . S
C968 H949 0.951 . S
C968 C966 1.388 . S
C968 C969 1.366 . S
C969 C968 1.366 . S
C969 C970 1.414 . S
C969 C972 1.499 . S
C970 H950 0.950 . S
C970 C969 1.414 . S
C970 C971 1.374 . S
C971 H951 0.950 . S
C971 C967 1.385 . S
C971 C970 1.374 . S
C972 C969 1.499 . S
C972 C973 1.373 . S
C972 C974 1.389 . S
C973 H952 0.950 . S
C973 C972 1.373 . S
C973 C989 1.377 . S
C974 C972 1.389 . S
C974 C975 1.524 . S
C974 C988 1.377 . S
C975 C974 1.524 . S
C975 C976 1.397 . S
C975 C980 1.363 . S
C976 H953 0.950 . S
C976 C975 1.397 . S
C976 C977 1.334 . S
C977 H954 0.950 . S
C977 C976 1.334 . S
C977 C978 1.287 . S
C978 C977 1.287 . S
C978 C979 1.524 . S
C978 H997 0.913 . S
C979 H955 0.950 . S
C979 C978 1.524 . S
C979 C980 1.415 . S
C980 H956 0.950 . S
C980 C975 1.363 . S
C980 C979 1.415 . S
C981 H957 0.951 . S
C981 C982 1.366 . S
C981 C983 1.388 . S
C982 C981 1.366 . S
C982 C986 1.385 . S
C983 H958 0.951 . S
C983 C981 1.388 . S
C983 C984 1.366 . S
C984 C983 1.366 . S
C984 C985 1.414 . S
C984 C987 1.499 . S
C985 H959 0.950 . S
C985 C984 1.414 . S
C985 C986 1.374 . S
C986 H960 0.950 . S
C986 C982 1.385 . S
C986 C985 1.374 . S
C987 C984 1.499 . S
C987 C988 1.373 . S
C987 C989 1.389 . S
C988 H961 0.950 . S
C988 C974 1.377 . S
C988 C987 1.373 . S
C989 C973 1.377 . S
C989 C987 1.389 . S
C989 C990 1.524 . S
C990 C989 1.524 . S
C990 C991 1.397 . S
C990 C995 1.363 . S
C991 H962 0.950 . S
C991 C990 1.397 . S
C991 C992 1.334 . S
C992 H963 0.950 . S
C992 C991 1.334 . S
C992 C993 1.287 . S
C993 C992 1.287 . S
C993 C994 1.524 . S
C993 H996 0.999 . S
C994 H964 0.950 . S
C994 C993 1.524 . S
C994 C995 1.415 . S
C995 H965 0.950 . S
C995 C990 1.363 . S
C995 C994 1.415 . S
H996 C993 0.999 . S
H997 C978 0.913 . S
H998 C1016 0.951 . S
H999 C1018 0.951 . S
H1000 C1020 0.950 . S
H1001 C1021 0.950 . S
H1002 C1023 0.950 . S
H1003 C1026 0.950 . S
H1004 C1027 0.950 . S
H1005 C1029 0.950 . S
H1006 C1030 0.950 . S
H1007 C1031 0.951 . S
H1008 C1033 0.951 . S
H1009 C1035 0.950 . S
H1010 C1036 0.950 . S
H1011 C1038 0.950 . S
H1012 C1041 0.950 . S
H1013 C1042 0.950 . S
H1014 C1044 0.950 . S
H1015 C1045 0.950 . S
C1016 H998 0.951 . S
C1016 C1017 1.366 . S
C1016 C1018 1.388 . S
C1017 C1016 1.366 . S
C1017 C1021 1.385 . S
C1018 H999 0.951 . S
C1018 C1016 1.388 . S
C1018 C1019 1.366 . S
C1019 C1018 1.366 . S
C1019 C1020 1.414 . S
C1019 C1022 1.499 . S
C1020 H1000 0.950 . S
C1020 C1019 1.414 . S
C1020 C1021 1.374 . S
C1021 H1001 0.950 . S
C1021 C1017 1.385 . S
C1021 C1020 1.374 . S
C1022 C1019 1.499 . S
C1022 C1023 1.373 . S
C1022 C1024 1.389 . S
C1023 H1002 0.950 . S
C1023 C1022 1.373 . S
C1023 C1039 1.377 . S
C1024 C1022 1.389 . S
C1024 C1025 1.524 . S
C1024 C1038 1.377 . S
C1025 C1024 1.524 . S
C1025 C1026 1.397 . S
C1025 C1030 1.363 . S
C1026 H1003 0.950 . S
C1026 C1025 1.397 . S
C1026 C1027 1.334 . S
C1027 H1004 0.950 . S
C1027 C1026 1.334 . S
C1027 C1028 1.287 . S
C1028 C1027 1.287 . S
C1028 C1029 1.524 . S
C1028 H1047 0.913 . S
C1029 H1005 0.950 . S
C1029 C1028 1.524 . S
C1029 C1030 1.415 . S
C1030 H1006 0.950 . S
C1030 C1025 1.363 . S
C1030 C1029 1.415 . S
C1031 H1007 0.951 . S
C1031 C1032 1.366 . S
C1031 C1033 1.388 . S
C1032 C1031 1.366 . S
C1032 C1036 1.385 . S
C1033 H1008 0.951 . S
C1033 C1031 1.388 . S
C1033 C1034 1.366 . S
C1034 C1033 1.366 . S
C1034 C1035 1.414 . S
C1034 C1037 1.499 . S
C1035 H1009 0.950 . S
C1035 C1034 1.414 . S
C1035 C1036 1.374 . S
C1036 H1010 0.950 . S
C1036 C1032 1.385 . S
C1036 C1035 1.374 . S
C1037 C1034 1.499 . S
C1037 C1038 1.373 . S
C1037 C1039 1.389 . S
C1038 H1011 0.950 . S
C1038 C1024 1.377 . S
C1038 C1037 1.373 . S
C1039 C1023 1.377 . S
C1039 C1037 1.389 . S
C1039 C1040 1.524 . S
C1040 C1039 1.524 . S
C1040 C1041 1.397 . S
C1040 C1045 1.363 . S
C1041 H1012 0.950 . S
C1041 C1040 1.397 . S
C1041 C1042 1.334 . S
C1042 H1013 0.950 . S
C1042 C1041 1.334 . S
C1042 C1043 1.287 . S
C1043 C1042 1.287 . S
C1043 C1044 1.524 . S
C1043 H1046 0.999 . S
C1044 H1014 0.950 . S
C1044 C1043 1.524 . S
C1044 C1045 1.415 . S
C1045 H1015 0.950 . S
C1045 C1040 1.363 . S
C1045 C1044 1.415 . S
H1046 C1043 0.999 . S
H1047 C1028 0.913 . S
H1048 C1066 0.951 . S
H1049 C1068 0.951 . S
H1050 C1070 0.949 . S
H1051 C1071 0.950 . S
H1052 C1073 0.950 . S
H1053 C1076 0.950 . S
H1054 C1077 0.950 . S
H1055 C1079 0.950 . S
H1056 C1080 0.950 . S
H1057 C1081 0.951 . S
H1058 C1083 0.951 1_655 S
H1059 C1085 0.950 . S
H1060 C1086 0.950 . S
H1061 C1088 0.950 . S
H1062 C1091 0.950 . S
H1063 C1092 0.950 . S
H1064 C1094 0.960 . S
H1065 C1095 0.950 . S
C1066 H1048 0.951 . S
C1066 C1067 1.366 1_455 S
C1066 C1068 1.388 . S
C1067 C1066 1.366 1_655 S
C1067 C1071 1.385 . S
C1068 H1049 0.951 . S
C1068 C1066 1.388 . S
C1068 C1069 1.366 . S
C1069 C1068 1.366 . S
C1069 C1070 1.414 1_455 S
C1069 C1072 1.499 . S
C1070 H1050 0.949 . S
C1070 C1069 1.414 1_655 S
C1070 C1071 1.374 . S
C1071 H1051 0.950 . S
C1071 C1067 1.385 . S
C1071 C1070 1.374 . S
C1072 C1069 1.499 . S
C1072 C1073 1.373 1_554 S
C1072 C1074 1.389 . S
C1073 H1052 0.950 . S
C1073 C1072 1.373 1_556 S
C1073 C1089 1.377 . S
C1074 C1072 1.389 . S
C1074 C1075 1.524 . S
C1074 C1088 1.377 . S
C1075 C1074 1.524 . S
C1075 C1076 1.397 1_455 S
C1075 C1080 1.363 . S
C1076 H1053 0.950 . S
C1076 C1075 1.397 1_655 S
C1076 C1077 1.334 . S
C1077 H1054 0.950 . S
C1077 C1076 1.334 . S
C1077 C1078 1.287 1_655 S
C1078 C1077 1.287 1_455 S
C1078 C1079 1.524 . S
C1078 H1097 0.913 . S
C1079 H1055 0.950 . S
C1079 C1078 1.524 . S
C1079 C1080 1.415 . S
C1080 H1056 0.950 . S
C1080 C1075 1.363 . S
C1080 C1079 1.415 . S
C1081 H1057 0.951 . S
C1081 C1082 1.366 . S
C1081 C1083 1.388 . S
C1082 C1081 1.366 . S
C1082 C1086 1.385 . S
C1083 H1058 0.951 1_455 S
C1083 C1081 1.388 . S
C1083 C1084 1.366 . S
C1084 C1083 1.366 . S
C1084 C1085 1.414 . S
C1084 C1087 1.499 . S
C1085 H1059 0.950 . S
C1085 C1084 1.414 . S
C1085 C1086 1.374 . S
C1086 H1060 0.950 . S
C1086 C1082 1.385 . S
C1086 C1085 1.374 . S
C1087 C1084 1.499 . S
C1087 C1088 1.373 1_556 S
C1087 C1089 1.389 . S
C1088 H1061 0.950 . S
C1088 C1074 1.377 . S
C1088 C1087 1.373 1_554 S
C1089 C1073 1.377 . S
C1089 C1087 1.389 . S
C1089 C1090 1.524 . S
C1090 C1089 1.524 . S
C1090 C1091 1.397 . S
C1090 C1095 1.363 1_455 S
C1091 H1062 0.950 . S
C1091 C1090 1.397 . S
C1091 C1092 1.334 . S
C1092 H1063 0.950 . S
C1092 C1091 1.334 . S
C1092 C1093 1.287 . S
C1093 C1092 1.287 . S
C1093 C1094 1.511 1_455 S
C1093 H1096 0.999 . S
C1094 H1064 0.960 . S
C1094 C1093 1.511 1_655 S
C1094 C1095 1.416 . S
C1095 H1065 0.950 . S
C1095 C1090 1.363 1_655 S
C1095 C1094 1.416 . S
H1096 C1093 0.999 . S
H1097 C1078 0.913 . S
H1098 C1116 0.951 . S
H1099 C1118 0.951 . S
H1100 C1120 0.950 . S
H1101 C1121 0.950 . S
H1102 C1123 0.950 . S
H1103 C1126 0.950 . S
H1104 C1127 0.950 . S
H1105 C1129 0.950 . S
H1106 C1130 0.950 1_556 S
H1107 C1131 0.951 . S
H1108 C1133 0.951 1_565 S
H1109 C1135 0.950 . S
H1110 C1136 0.950 . S
H1111 C1138 0.950 . S
H1112 C1141 0.950 . S
H1113 C1142 0.950 . S
H1114 C1144 0.950 . S
H1115 C1145 0.950 . S
C1116 H1098 0.951 . S
C1116 C1117 1.366 1_545 S
C1116 C1118 1.388 . S
C1117 C1116 1.366 1_565 S
C1117 C1121 1.385 . S
C1118 H1099 0.951 . S
C1118 C1116 1.388 . S
C1118 C1119 1.366 . S
C1119 C1118 1.366 . S
C1119 C1120 1.414 1_545 S
C1119 C1122 1.499 . S
C1120 H1100 0.950 . S
C1120 C1119 1.414 1_565 S
C1120 C1121 1.374 . S
C1121 H1101 0.950 . S
C1121 C1117 1.385 . S
C1121 C1120 1.374 . S
C1122 C1119 1.499 . S
C1122 C1123 1.373 1_544 S
C1122 C1124 1.389 . S
C1123 H1102 0.950 . S
C1123 C1122 1.373 1_566 S
C1123 C1139 1.377 . S
C1124 C1122 1.389 . S
C1124 C1125 1.524 . S
C1124 C1138 1.377 1_554 S
C1125 C1124 1.524 . S
C1125 C1126 1.397 . S
C1125 C1130 1.363 . S
C1126 H1103 0.950 . S
C1126 C1125 1.397 . S
C1126 C1127 1.334 . S
C1127 H1104 0.950 . S
C1127 C1126 1.334 . S
C1127 C1128 1.287 . S
C1128 C1127 1.287 . S
C1128 C1129 1.524 . S
C1128 H1147 0.913 . S
C1129 H1105 0.950 . S
C1129 C1128 1.524 . S
C1129 C1130 1.415 . S
C1130 H1106 0.950 1_554 S
C1130 C1125 1.363 . S
C1130 C1129 1.415 . S
C1131 H1107 0.951 . S
C1131 C1132 1.366 . S
C1131 C1133 1.388 . S
C1132 C1131 1.366 . S
C1132 C1136 1.385 . S
C1133 H1108 0.951 1_545 S
C1133 C1131 1.388 . S
C1133 C1134 1.366 . S
C1134 C1133 1.366 . S
C1134 C1135 1.414 . S
C1134 C1137 1.499 . S
C1135 H1109 0.950 . S
C1135 C1134 1.414 . S
C1135 C1136 1.374 . S
C1136 H1110 0.950 . S
C1136 C1132 1.385 . S
C1136 C1135 1.374 . S
C1137 C1134 1.499 . S
C1137 C1138 1.373 . S
C1137 C1139 1.389 1_545 S
C1138 H1111 0.950 . S
C1138 C1124 1.377 1_556 S
C1138 C1137 1.373 . S
C1139 C1123 1.377 . S
C1139 C1137 1.389 1_565 S
C1139 C1140 1.524 . S
C1140 C1139 1.524 . S
C1140 C1141 1.397 . S
C1140 C1145 1.363 . S
C1141 H1112 0.950 . S
C1141 C1140 1.397 . S
C1141 C1142 1.334 . S
C1142 H1113 0.950 . S
C1142 C1141 1.334 . S
C1142 C1143 1.287 . S
C1143 C1142 1.287 . S
C1143 C1144 1.524 . S
C1143 H1146 0.999 . S
C1144 H1114 0.950 . S
C1144 C1143 1.524 . S
C1144 C1145 1.415 . S
C1145 H1115 0.950 . S
C1145 C1140 1.363 . S
C1145 C1144 1.415 . S
H1146 C1143 0.999 . S
H1147 C1128 0.913 . S
H1148 C1166 0.951 . S
H1149 C1168 0.951 . S
H1150 C1170 0.950 1_556 S
H1151 C1171 0.950 . S
H1152 C1173 0.950 1_554 S
H1153 C1176 0.950 . S
H1154 C1177 0.950 . S
H1155 C1179 0.950 . S
H1156 C1180 0.950 . S
H1157 C1181 0.951 . S
H1158 C1183 0.951 . S
H1159 C1185 0.950 . S
H1160 C1186 0.950 . S
H1161 C1188 0.950 . S
H1162 C1191 0.950 1_554 S
H1163 C1192 0.950 1_554 S
H1164 C1194 0.950 . S
H1165 C1195 0.950 . S
C1166 H1148 0.951 . S
C1166 C1167 1.366 . S
C1166 C1168 1.388 . S
C1167 C1166 1.366 . S
C1167 C1171 1.385 . S
C1168 H1149 0.951 . S
C1168 C1166 1.388 . S
C1168 C1169 1.366 . S
C1169 C1168 1.366 . S
C1169 C1170 1.414 . S
C1169 C1172 1.499 . S
C1170 H1150 0.950 1_554 S
C1170 C1169 1.414 . S
C1170 C1171 1.374 . S
C1171 H1151 0.950 . S
C1171 C1167 1.385 . S
C1171 C1170 1.374 . S
C1172 C1169 1.499 . S
C1172 C1173 1.373 1_554 S
C1172 C1174 1.389 1_554 S
C1173 H1152 0.950 1_556 S
C1173 C1172 1.373 1_556 S
C1173 C1189 1.377 . S
C1174 C1172 1.389 1_556 S
C1174 C1175 1.524 . S
C1174 C1188 1.377 . S
C1175 C1174 1.524 . S
C1175 C1176 1.397 . S
C1175 C1180 1.363 1_556 S
C1176 H1153 0.950 . S
C1176 C1175 1.397 . S
C1176 C1177 1.334 . S
C1177 H1154 0.950 . S
C1177 C1176 1.334 . S
C1177 C1178 1.287 . S
C1178 C1177 1.287 . S
C1178 C1179 1.524 1_556 S
C1178 H1197 0.913 1_556 S
C1179 H1155 0.950 . S
C1179 C1178 1.524 1_554 S
C1179 C1180 1.415 . S
C1180 H1156 0.950 . S
C1180 C1175 1.363 1_554 S
C1180 C1179 1.415 . S
C1181 H1157 0.951 . S
C1181 C1182 1.366 . S
C1181 C1183 1.388 . S
C1182 C1181 1.366 . S
C1182 C1186 1.385 . S
C1183 H1158 0.951 . S
C1183 C1181 1.388 . S
C1183 C1184 1.366 . S
C1184 C1183 1.366 . S
C1184 C1185 1.414 . S
C1184 C1187 1.499 . S
C1185 H1159 0.950 . S
C1185 C1184 1.414 . S
C1185 C1186 1.374 . S
C1186 H1160 0.950 . S
C1186 C1182 1.385 . S
C1186 C1185 1.374 . S
C1187 C1184 1.499 . S
C1187 C1188 1.373 . S
C1187 C1189 1.389 . S
C1188 H1161 0.950 . S
C1188 C1174 1.377 . S
C1188 C1187 1.373 . S
C1189 C1173 1.377 . S
C1189 C1187 1.389 . S
C1189 C1190 1.524 . S
C1190 C1189 1.524 . S
C1190 C1191 1.397 . S
C1190 C1195 1.363 . S
C1191 H1162 0.950 1_556 S
C1191 C1190 1.397 . S
C1191 C1192 1.334 . S
C1192 H1163 0.950 1_556 S
C1192 C1191 1.334 . S
C1192 C1193 1.287 . S
C1193 C1192 1.287 . S
C1193 C1194 1.524 . S
C1193 H1196 0.999 . S
C1194 H1164 0.950 . S
C1194 C1193 1.524 . S
C1194 C1195 1.415 . S
C1195 H1165 0.950 . S
C1195 C1190 1.363 . S
C1195 C1194 1.415 . S
H1196 C1193 0.999 . S
H1197 C1178 0.913 1_554 S
H1198 C1216 0.951 . S
H1199 C1218 0.951 . S
H1200 C1220 0.950 1_556 S
H1201 C1221 0.950 . S
H1202 C1223 0.950 . S
H1203 C1226 0.950 . S
H1204 C1227 0.950 . S
H1205 C1229 0.950 . S
H1206 C1230 0.950 . S
H1207 C1231 0.951 . S
H1208 C1233 0.951 . S
H1209 C1235 0.950 . S
H1210 C1236 0.950 . S
H1211 C1238 0.950 . S
H1212 C1241 0.944 1_554 S
H1213 C1242 0.950 . S
H1214 C1244 0.950 . S
H1215 C1245 0.950 . S
C1216 H1198 0.951 . S
C1216 C1217 1.366 . S
C1216 C1218 1.388 . S
C1217 C1216 1.366 . S
C1217 C1221 1.385 . S
C1218 H1199 0.951 . S
C1218 C1216 1.388 . S
C1218 C1219 1.366 . S
C1219 C1218 1.366 . S
C1219 C1220 1.414 . S
C1219 C1222 1.499 . S
C1220 H1200 0.950 1_554 S
C1220 C1219 1.414 . S
C1220 C1221 1.374 . S
C1221 H1201 0.950 . S
C1221 C1217 1.385 . S
C1221 C1220 1.374 . S
C1222 C1219 1.499 . S
C1222 C1223 1.373 1_554 S
C1222 C1224 1.389 1_554 S
C1223 H1202 0.950 . S
C1223 C1222 1.373 1_556 S
C1223 C1239 1.377 . S
C1224 C1222 1.389 1_556 S
C1224 C1225 1.524 1_556 S
C1224 C1238 1.377 . S
C1225 C1224 1.524 1_554 S
C1225 C1226 1.397 1_554 S
C1225 C1230 1.363 . S
C1226 H1203 0.950 . S
C1226 C1225 1.397 1_556 S
C1226 C1227 1.334 . S
C1227 H1204 0.950 . S
C1227 C1226 1.334 . S
C1227 C1228 1.287 1_556 S
C1228 C1227 1.287 1_554 S
C1228 C1229 1.524 . S
C1228 H1247 0.913 . S
C1229 H1205 0.950 . S
C1229 C1228 1.524 . S
C1229 C1230 1.415 . S
C1230 H1206 0.950 . S
C1230 C1225 1.363 . S
C1230 C1229 1.415 . S
C1231 H1207 0.951 . S
C1231 C1232 1.366 . S
C1231 C1233 1.388 . S
C1232 C1231 1.366 . S
C1232 C1236 1.385 . S
C1233 H1208 0.951 . S
C1233 C1231 1.388 . S
C1233 C1234 1.366 . S
C1234 C1233 1.366 . S
C1234 C1235 1.414 . S
C1234 C1237 1.499 . S
C1235 H1209 0.950 . S
C1235 C1234 1.414 . S
C1235 C1236 1.374 . S
C1236 H1210 0.950 . S
C1236 C1232 1.385 . S
C1236 C1235 1.374 . S
C1237 C1234 1.499 . S
C1237 C1238 1.373 . S
C1237 C1239 1.389 . S
C1238 H1211 0.950 . S
C1238 C1224 1.377 . S
C1238 C1237 1.373 . S
C1239 C1223 1.377 . S
C1239 C1237 1.389 . S
C1239 C1240 1.524 . S
C1240 C1239 1.524 . S
C1240 C1241 1.397 . S
C1240 C1245 1.363 . S
C1241 H1212 0.944 1_556 S
C1241 C1240 1.397 . S
C1241 C1242 1.334 . S
C1242 H1213 0.950 . S
C1242 C1241 1.334 . S
C1242 C1243 1.287 . S
C1243 C1242 1.287 . S
C1243 C1244 1.524 . S
C1243 H1246 0.999 . S
C1244 H1214 0.950 . S
C1244 C1243 1.524 . S
C1244 C1245 1.415 . S
C1245 H1215 0.950 . S
C1245 C1240 1.363 . S
C1245 C1244 1.415 . S
H1246 C1243 0.999 . S
H1247 C1228 0.913 . S
H1248 C1266 0.951 . S
H1249 C1268 0.951 . S
H1250 C1270 0.950 . S
H1251 C1271 0.950 . S
H1252 C1273 0.950 . S
H1253 C1276 0.950 . S
H1254 C1277 0.950 . S
H1255 C1279 0.950 . S
H1256 C1280 0.950 . S
H1257 C1281 0.951 . S
H1258 C1283 0.951 . S
H1259 C1285 0.950 . S
H1260 C1286 0.950 . S
H1261 C1288 0.950 . S
H1262 C1291 0.950 . S
H1263 C1292 0.950 . S
H1264 C1294 0.961 . S
H1265 C1295 0.950 . S
C1266 H1248 0.951 . S
C1266 C1267 1.366 . S
C1266 C1268 1.388 . S
C1267 C1266 1.366 . S
C1267 C1271 1.385 1_455 S
C1268 H1249 0.951 . S
C1268 C1266 1.388 . S
C1268 C1269 1.366 . S
C1269 C1268 1.366 . S
C1269 C1270 1.414 1_455 S
C1269 C1272 1.499 . S
C1270 H1250 0.950 . S
C1270 C1269 1.414 1_655 S
C1270 C1271 1.374 . S
C1271 H1251 0.950 . S
C1271 C1267 1.385 1_655 S
C1271 C1270 1.374 . S
C1272 C1269 1.499 . S
C1272 C1273 1.373 . S
C1272 C1274 1.389 . S
C1273 H1252 0.950 . S
C1273 C1272 1.373 . S
C1273 C1289 1.377 . S
C1274 C1272 1.389 . S
C1274 C1275 1.524 . S
C1274 C1288 1.377 . S
C1275 C1274 1.524 . S
C1275 C1276 1.397 1_455 S
C1275 C1280 1.363 . S
C1276 H1253 0.950 . S
C1276 C1275 1.397 1_655 S
C1276 C1277 1.334 . S
C1277 H1254 0.950 . S
C1277 C1276 1.334 . S
C1277 C1278 1.287 . S
C1278 C1277 1.287 . S
C1278 C1279 1.524 1_655 S
C1278 H1297 0.913 . S
C1279 H1255 0.950 . S
C1279 C1278 1.524 1_455 S
C1279 C1280 1.415 . S
C1280 H1256 0.950 . S
C1280 C1275 1.363 . S
C1280 C1279 1.415 . S
C1281 H1257 0.951 . S
C1281 C1282 1.366 1_655 S
C1281 C1283 1.388 . S
C1282 C1281 1.366 1_455 S
C1282 C1286 1.385 . S
C1283 H1258 0.951 . S
C1283 C1281 1.388 . S
C1283 C1284 1.366 1_655 S
C1284 C1283 1.366 1_455 S
C1284 C1285 1.414 . S
C1284 C1287 1.499 . S
C1285 H1259 0.950 . S
C1285 C1284 1.414 . S
C1285 C1286 1.374 . S
C1286 H1260 0.950 . S
C1286 C1282 1.385 . S
C1286 C1285 1.374 . S
C1287 C1284 1.499 . S
C1287 C1288 1.373 . S
C1287 C1289 1.389 . S
C1288 H1261 0.950 . S
C1288 C1274 1.377 . S
C1288 C1287 1.373 . S
C1289 C1273 1.377 . S
C1289 C1287 1.389 . S
C1289 C1290 1.524 . S
C1290 C1289 1.524 . S
C1290 C1291 1.397 . S
C1290 C1295 1.363 1_455 S
C1291 H1262 0.950 . S
C1291 C1290 1.397 . S
C1291 C1292 1.334 . S
C1292 H1263 0.950 . S
C1292 C1291 1.334 . S
C1292 C1293 1.287 . S
C1293 C1292 1.287 . S
C1293 C1294 1.509 1_455 S
C1293 H1296 0.999 . S
C1294 H1264 0.961 . S
C1294 C1293 1.509 1_655 S
C1294 C1295 1.417 . S
C1295 H1265 0.950 . S
C1295 C1290 1.363 1_655 S
C1295 C1294 1.417 . S
H1296 C1293 0.999 . S
H1297 C1278 0.913 . S
H1298 C1316 0.950 1_565 S
H1299 C1318 0.947 1_565 S
H1300 C1320 0.950 . S
H1301 C1321 0.950 . S
H1302 C1323 0.950 . S
H1303 C1326 0.950 . S
H1304 C1327 0.950 . S
H1305 C1329 0.950 . S
H1306 C1330 0.950 . S
H1307 C1331 0.951 . S
H1308 C1333 0.951 . S
H1309 C1335 0.950 . S
H1310 C1336 0.950 . S
H1311 C1338 0.950 . S
H1312 C1341 0.950 . S
H1313 C1342 0.950 . S
H1314 C1344 0.950 . S
H1315 C1345 0.950 . S
C1316 H1298 0.950 1_545 S
C1316 C1317 1.367 . S
C1316 C1318 1.388 . S
C1317 C1316 1.367 . S
C1317 C1321 1.385 . S
C1318 H1299 0.947 1_545 S
C1318 C1316 1.388 . S
C1318 C1319 1.371 . S
C1319 C1318 1.371 . S
C1319 C1320 1.414 . S
C1319 C1322 1.499 . S
C1320 H1300 0.950 . S
C1320 C1319 1.414 . S
C1320 C1321 1.374 . S
C1321 H1301 0.950 . S
C1321 C1317 1.385 . S
C1321 C1320 1.374 . S
C1322 C1319 1.499 . S
C1322 C1323 1.373 . S
C1322 C1324 1.389 1_545 S
C1323 H1302 0.950 . S
C1323 C1322 1.373 . S
C1323 C1339 1.377 . S
C1324 C1322 1.389 1_565 S
C1324 C1325 1.524 . S
C1324 C1338 1.377 . S
C1325 C1324 1.524 . S
C1325 C1326 1.397 . S
C1325 C1330 1.363 . S
C1326 H1303 0.950 . S
C1326 C1325 1.397 . S
C1326 C1327 1.334 . S
C1327 H1304 0.950 . S
C1327 C1326 1.334 . S
C1327 C1328 1.287 . S
C1328 C1327 1.287 . S
C1328 C1329 1.524 . S
C1328 H1347 0.913 . S
C1329 H1305 0.950 . S
C1329 C1328 1.524 . S
C1329 C1330 1.415 . S
C1330 H1306 0.950 . S
C1330 C1325 1.363 . S
C1330 C1329 1.415 . S
C1331 H1307 0.951 . S
C1331 C1332 1.366 . S
C1331 C1333 1.388 . S
C1332 C1331 1.366 . S
C1332 C1336 1.385 . S
C1333 H1308 0.951 . S
C1333 C1331 1.388 . S
C1333 C1334 1.366 . S
C1334 C1333 1.366 . S
C1334 C1335 1.414 . S
C1334 C1337 1.499 . S
C1335 H1309 0.950 . S
C1335 C1334 1.414 . S
C1335 C1336 1.374 . S
C1336 H1310 0.950 . S
C1336 C1332 1.385 . S
C1336 C1335 1.374 . S
C1337 C1334 1.499 . S
C1337 C1338 1.373 1_545 S
C1337 C1339 1.389 . S
C1338 H1311 0.950 . S
C1338 C1324 1.377 . S
C1338 C1337 1.373 1_565 S
C1339 C1323 1.377 . S
C1339 C1337 1.389 . S
C1339 C1340 1.524 . S
C1340 C1339 1.524 . S
C1340 C1341 1.397 . S
C1340 C1345 1.363 . S
C1341 H1312 0.950 . S
C1341 C1340 1.397 . S
C1341 C1342 1.334 . S
C1342 H1313 0.950 . S
C1342 C1341 1.334 . S
C1342 C1343 1.287 . S
C1343 C1342 1.287 . S
C1343 C1344 1.524 . S
C1343 H1346 0.999 . S
C1344 H1314 0.950 . S
C1344 C1343 1.524 . S
C1344 C1345 1.415 . S
C1345 H1315 0.950 . S
C1345 C1340 1.363 . S
C1345 C1344 1.415 . S
H1346 C1343 0.999 . S
H1347 C1328 0.913 . S
H1348 C1366 0.951 . S
H1349 C1368 0.951 . S
H1350 C1370 0.950 . S
H1351 C1371 0.950 . S
H1352 C1373 0.950 . S
H1353 C1376 0.950 . S
H1354 C1377 0.950 . S
H1355 C1379 0.950 . S
H1356 C1380 0.950 . S
H1357 C1381 0.951 . S
H1358 C1383 0.951 . S
H1359 C1385 0.950 . S
H1360 C1386 0.950 . S
H1361 C1388 0.950 . S
H1362 C1391 0.950 . S
H1363 C1392 0.950 . S
H1364 C1394 0.950 . S
H1365 C1395 0.950 . S
C1366 H1348 0.951 . S
C1366 C1367 1.366 . S
C1366 C1368 1.388 . S
C1367 C1366 1.366 . S
C1367 C1371 1.385 . S
C1368 H1349 0.951 . S
C1368 C1366 1.388 . S
C1368 C1369 1.366 . S
C1369 C1368 1.366 . S
C1369 C1370 1.414 . S
C1369 C1372 1.499 . S
C1370 H1350 0.950 . S
C1370 C1369 1.414 . S
C1370 C1371 1.374 . S
C1371 H1351 0.950 . S
C1371 C1367 1.385 . S
C1371 C1370 1.374 . S
C1372 C1369 1.499 . S
C1372 C1373 1.373 . S
C1372 C1374 1.389 . S
C1373 H1352 0.950 . S
C1373 C1372 1.373 . S
C1373 C1389 1.377 . S
C1374 C1372 1.389 . S
C1374 C1375 1.524 . S
C1374 C1388 1.377 . S
C1375 C1374 1.524 . S
C1375 C1376 1.397 . S
C1375 C1380 1.363 . S
C1376 H1353 0.950 . S
C1376 C1375 1.397 . S
C1376 C1377 1.334 . S
C1377 H1354 0.950 . S
C1377 C1376 1.334 . S
C1377 C1378 1.287 . S
C1378 C1377 1.287 . S
C1378 C1379 1.524 . S
C1378 H1397 0.913 . S
C1379 H1355 0.950 . S
C1379 C1378 1.524 . S
C1379 C1380 1.415 . S
C1380 H1356 0.950 . S
C1380 C1375 1.363 . S
C1380 C1379 1.415 . S
C1381 H1357 0.951 . S
C1381 C1382 1.366 . S
C1381 C1383 1.388 . S
C1382 C1381 1.366 . S
C1382 C1386 1.385 . S
C1383 H1358 0.951 . S
C1383 C1381 1.388 . S
C1383 C1384 1.366 . S
C1384 C1383 1.366 . S
C1384 C1385 1.414 . S
C1384 C1387 1.499 . S
C1385 H1359 0.950 . S
C1385 C1384 1.414 . S
C1385 C1386 1.374 . S
C1386 H1360 0.950 . S
C1386 C1382 1.385 . S
C1386 C1385 1.374 . S
C1387 C1384 1.499 . S
C1387 C1388 1.373 . S
C1387 C1389 1.389 . S
C1388 H1361 0.950 . S
C1388 C1374 1.377 . S
C1388 C1387 1.373 . S
C1389 C1373 1.377 . S
C1389 C1387 1.389 . S
C1389 C1390 1.524 . S
C1390 C1389 1.524 . S
C1390 C1391 1.397 . S
C1390 C1395 1.363 . S
C1391 H1362 0.950 . S
C1391 C1390 1.397 . S
C1391 C1392 1.334 . S
C1392 H1363 0.950 . S
C1392 C1391 1.334 . S
C1392 C1393 1.287 . S
C1393 C1392 1.287 . S
C1393 C1394 1.524 . S
C1393 H1396 0.999 . S
C1394 H1364 0.950 . S
C1394 C1393 1.524 . S
C1394 C1395 1.415 . S
C1395 H1365 0.950 . S
C1395 C1390 1.363 . S
C1395 C1394 1.415 . S
H1396 C1393 0.999 . S
H1397 C1378 0.913 . S
H1398 C1416 0.951 . S
H1399 C1418 0.951 . S
H1400 C1420 0.950 . S
H1401 C1421 0.950 . S
H1402 C1423 0.950 . S
H1403 C1426 0.950 . S
H1404 C1427 0.950 . S
H1405 C1429 0.950 . S
H1406 C1430 0.950 . S
H1407 C1431 0.951 . S
H1408 C1433 0.951 . S
H1409 C1435 0.950 . S
H1410 C1436 0.950 . S
H1411 C1438 0.950 . S
H1412 C1441 0.950 . S
H1413 C1442 0.950 . S
H1414 C1444 0.950 . S
H1415 C1445 0.950 . S
C1416 H1398 0.951 . S
C1416 C1417 1.366 . S
C1416 C1418 1.388 . S
C1417 C1416 1.366 . S
C1417 C1421 1.385 . S
C1418 H1399 0.951 . S
C1418 C1416 1.388 . S
C1418 C1419 1.366 . S
C1419 C1418 1.366 . S
C1419 C1420 1.414 . S
C1419 C1422 1.499 . S
C1420 H1400 0.950 . S
C1420 C1419 1.414 . S
C1420 C1421 1.374 . S
C1421 H1401 0.950 . S
C1421 C1417 1.385 . S
C1421 C1420 1.374 . S
C1422 C1419 1.499 . S
C1422 C1423 1.373 . S
C1422 C1424 1.389 . S
C1423 H1402 0.950 . S
C1423 C1422 1.373 . S
C1423 C1439 1.377 . S
C1424 C1422 1.389 . S
C1424 C1425 1.524 . S
C1424 C1438 1.377 . S
C1425 C1424 1.524 . S
C1425 C1426 1.397 . S
C1425 C1430 1.363 . S
C1426 H1403 0.950 . S
C1426 C1425 1.397 . S
C1426 C1427 1.334 . S
C1427 H1404 0.950 . S
C1427 C1426 1.334 . S
C1427 C1428 1.287 . S
C1428 C1427 1.287 . S
C1428 C1429 1.524 . S
C1428 H1447 0.913 . S
C1429 H1405 0.950 . S
C1429 C1428 1.524 . S
C1429 C1430 1.415 . S
C1430 H1406 0.950 . S
C1430 C1425 1.363 . S
C1430 C1429 1.415 . S
C1431 H1407 0.951 . S
C1431 C1432 1.366 . S
C1431 C1433 1.388 . S
C1432 C1431 1.366 . S
C1432 C1436 1.385 . S
C1433 H1408 0.951 . S
C1433 C1431 1.388 . S
C1433 C1434 1.366 . S
C1434 C1433 1.366 . S
C1434 C1435 1.414 . S
C1434 C1437 1.499 . S
C1435 H1409 0.950 . S
C1435 C1434 1.414 . S
C1435 C1436 1.374 . S
C1436 H1410 0.950 . S
C1436 C1432 1.385 . S
C1436 C1435 1.374 . S
C1437 C1434 1.499 . S
C1437 C1438 1.373 . S
C1437 C1439 1.389 . S
C1438 H1411 0.950 . S
C1438 C1424 1.377 . S
C1438 C1437 1.373 . S
C1439 C1423 1.377 . S
C1439 C1437 1.389 . S
C1439 C1440 1.524 . S
C1440 C1439 1.524 . S
C1440 C1441 1.397 . S
C1440 C1445 1.363 . S
C1441 H1412 0.950 . S
C1441 C1440 1.397 . S
C1441 C1442 1.334 . S
C1442 H1413 0.950 . S
C1442 C1441 1.334 . S
C1442 C1443 1.287 . S
C1443 C1442 1.287 . S
C1443 C1444 1.524 . S
C1443 H1446 0.999 . S
C1444 H1414 0.950 . S
C1444 C1443 1.524 . S
C1444 C1445 1.415 . S
C1445 H1415 0.950 . S
C1445 C1440 1.363 . S
C1445 C1444 1.415 . S
H1446 C1443 0.999 . S
H1447 C1428 0.913 . S
H1448 C1466 0.951 . S
H1449 C1468 0.951 . S
H1450 C1470 0.950 . S
H1451 C1471 0.950 . S
H1452 C1473 0.950 . S
H1453 C1476 0.950 . S
H1454 C1477 0.950 . S
H1455 C1479 0.950 . S
H1456 C1480 0.950 . S
H1457 C1481 0.951 . S
H1458 C1483 0.951 . S
H1459 C1485 0.950 . S
H1460 C1486 0.950 . S
H1461 C1488 0.950 . S
H1462 C1491 0.950 . S
H1463 C1492 0.950 . S
H1464 C1494 0.950 . S
H1465 C1495 0.950 . S
C1466 H1448 0.951 . S
C1466 C1467 1.366 1_455 S
C1466 C1468 1.388 . S
C1467 C1466 1.366 1_655 S
C1467 C1471 1.385 . S
C1468 H1449 0.951 . S
C1468 C1466 1.388 . S
C1468 C1469 1.366 1_455 S
C1469 C1468 1.366 1_655 S
C1469 C1470 1.414 . S
C1469 C1472 1.499 . S
C1470 H1450 0.950 . S
C1470 C1469 1.414 . S
C1470 C1471 1.374 . S
C1471 H1451 0.950 . S
C1471 C1467 1.385 . S
C1471 C1470 1.374 . S
C1472 C1469 1.499 . S
C1472 C1473 1.373 . S
C1472 C1474 1.389 1_655 S
C1473 H1452 0.950 . S
C1473 C1472 1.373 . S
C1473 C1489 1.377 . S
C1474 C1472 1.389 1_455 S
C1474 C1475 1.524 . S
C1474 C1488 1.377 . S
C1475 C1474 1.524 . S
C1475 C1476 1.397 . S
C1475 C1480 1.363 . S
C1476 H1453 0.950 . S
C1476 C1475 1.397 . S
C1476 C1477 1.334 . S
C1477 H1454 0.950 . S
C1477 C1476 1.334 . S
C1477 C1478 1.287 . S
C1478 C1477 1.287 . S
C1478 C1479 1.524 . S
C1478 H1497 0.913 . S
C1479 H1455 0.950 . S
C1479 C1478 1.524 . S
C1479 C1480 1.415 . S
C1480 H1456 0.950 . S
C1480 C1475 1.363 . S
C1480 C1479 1.415 . S
C1481 H1457 0.951 . S
C1481 C1482 1.366 . S
C1481 C1483 1.388 . S
C1482 C1481 1.366 . S
C1482 C1486 1.385 1_655 S
C1483 H1458 0.951 . S
C1483 C1481 1.388 . S
C1483 C1484 1.366 . S
C1484 C1483 1.366 . S
C1484 C1485 1.414 1_655 S
C1484 C1487 1.499 . S
C1485 H1459 0.950 . S
C1485 C1484 1.414 1_455 S
C1485 C1486 1.374 . S
C1486 H1460 0.950 . S
C1486 C1482 1.385 1_455 S
C1486 C1485 1.374 . S
C1487 C1484 1.499 . S
C1487 C1488 1.373 1_655 S
C1487 C1489 1.389 . S
C1488 H1461 0.950 . S
C1488 C1474 1.377 . S
C1488 C1487 1.373 1_455 S
C1489 C1473 1.377 . S
C1489 C1487 1.389 . S
C1489 C1490 1.524 . S
C1490 C1489 1.524 . S
C1490 C1491 1.397 . S
C1490 C1495 1.363 . S
C1491 H1462 0.950 . S
C1491 C1490 1.397 . S
C1491 C1492 1.334 . S
C1492 H1463 0.950 . S
C1492 C1491 1.334 . S
C1492 C1493 1.287 . S
C1493 C1492 1.287 . S
C1493 C1494 1.524 . S
C1493 H1496 0.999 . S
C1494 H1464 0.950 . S
C1494 C1493 1.524 . S
C1494 C1495 1.415 . S
C1495 H1465 0.950 . S
C1495 C1490 1.363 . S
C1495 C1494 1.415 . S
H1496 C1493 0.999 . S
H1497 C1478 0.913 . S
H1498 C1516 0.951 . S
H1499 C1518 0.951 . S
H1500 C1520 0.950 . S
H1501 C1521 0.950 . S
H1502 C1523 0.950 . S
H1503 C1526 0.950 . S
H1504 C1527 0.950 . S
H1505 C1529 0.950 . S
H1506 C1530 0.950 . S
H1507 C1531 0.951 . S
H1508 C1533 0.951 . S
H1509 C1535 0.950 . S
H1510 C1536 0.950 . S
H1511 C1538 0.950 . S
H1512 C1541 0.950 . S
H1513 C1542 0.950 . S
H1514 C1544 0.950 . S
H1515 C1545 0.950 . S
C1516 H1498 0.951 . S
C1516 C1517 1.366 . S
C1516 C1518 1.388 . S
C1517 C1516 1.366 . S
C1517 C1521 1.385 1_565 S
C1518 H1499 0.951 . S
C1518 C1516 1.388 . S
C1518 C1519 1.366 . S
C1519 C1518 1.366 . S
C1519 C1520 1.414 1_565 S
C1519 C1522 1.499 . S
C1520 H1500 0.950 . S
C1520 C1519 1.414 1_545 S
C1520 C1521 1.374 . S
C1521 H1501 0.950 . S
C1521 C1517 1.385 1_545 S
C1521 C1520 1.374 . S
C1522 C1519 1.499 . S
C1522 C1523 1.373 1_565 S
C1522 C1524 1.389 . S
C1523 H1502 0.950 . S
C1523 C1522 1.373 1_545 S
C1523 C1539 1.377 . S
C1524 C1522 1.389 . S
C1524 C1525 1.524 . S
C1524 C1538 1.377 . S
C1525 C1524 1.524 . S
C1525 C1526 1.397 . S
C1525 C1530 1.363 . S
C1526 H1503 0.950 . S
C1526 C1525 1.397 . S
C1526 C1527 1.334 . S
C1527 H1504 0.950 . S
C1527 C1526 1.334 . S
C1527 C1528 1.287 . S
C1528 C1527 1.287 . S
C1528 C1529 1.524 . S
C1528 H1547 0.913 . S
C1529 H1505 0.950 . S
C1529 C1528 1.524 . S
C1529 C1530 1.415 . S
C1530 H1506 0.950 . S
C1530 C1525 1.363 . S
C1530 C1529 1.415 . S
C1531 H1507 0.951 . S
C1531 C1532 1.366 1_545 S
C1531 C1533 1.388 . S
C1532 C1531 1.366 1_565 S
C1532 C1536 1.385 . S
C1533 H1508 0.951 . S
C1533 C1531 1.388 . S
C1533 C1534 1.366 1_545 S
C1534 C1533 1.366 1_565 S
C1534 C1535 1.414 . S
C1534 C1537 1.499 . S
C1535 H1509 0.950 . S
C1535 C1534 1.414 . S
C1535 C1536 1.374 . S
C1536 H1510 0.950 . S
C1536 C1532 1.385 . S
C1536 C1535 1.374 . S
C1537 C1534 1.499 . S
C1537 C1538 1.373 . S
C1537 C1539 1.389 1_565 S
C1538 H1511 0.950 . S
C1538 C1524 1.377 . S
C1538 C1537 1.373 . S
C1539 C1523 1.377 . S
C1539 C1537 1.389 1_545 S
C1539 C1540 1.524 . S
C1540 C1539 1.524 . S
C1540 C1541 1.397 . S
C1540 C1545 1.363 . S
C1541 H1512 0.950 . S
C1541 C1540 1.397 . S
C1541 C1542 1.334 . S
C1542 H1513 0.950 . S
C1542 C1541 1.334 . S
C1542 C1543 1.287 . S
C1543 C1542 1.287 . S
C1543 C1544 1.524 . S
C1543 H1546 0.999 . S
C1544 H1514 0.950 . S
C1544 C1543 1.524 . S
C1544 C1545 1.415 . S
C1545 H1515 0.950 . S
C1545 C1540 1.363 . S
C1545 C1544 1.415 . S
H1546 C1543 0.999 . S
H1547 C1528 0.913 . S
H1548 C1566 0.951 . S
H1549 C1568 0.951 . S
H1550 C1570 0.950 . S
H1551 C1571 0.950 . S
H1552 C1573 0.950 . S
H1553 C1576 0.950 . S
H1554 C1577 0.950 . S
H1555 C1579 0.950 . S
H1556 C1580 0.950 . S
H1557 C1581 0.951 . S
H1558 C1583 0.951 . S
H1559 C1585 0.950 . S
H1560 C1586 0.950 . S
H1561 C1588 0.950 . S
H1562 C1591 0.950 . S
H1563 C1592 0.950 . S
H1564 C1594 0.950 . S
H1565 C1595 0.950 . S
C1566 H1548 0.951 . S
C1566 C1567 1.366 . S
C1566 C1568 1.388 . S
C1567 C1566 1.366 . S
C1567 C1571 1.385 . S
C1568 H1549 0.951 . S
C1568 C1566 1.388 . S
C1568 C1569 1.366 . S
C1569 C1568 1.366 . S
C1569 C1570 1.414 . S
C1569 C1572 1.499 . S
C1570 H1550 0.950 . S
C1570 C1569 1.414 . S
C1570 C1571 1.374 . S
C1571 H1551 0.950 . S
C1571 C1567 1.385 . S
C1571 C1570 1.374 . S
C1572 C1569 1.499 . S
C1572 C1573 1.373 . S
C1572 C1574 1.389 . S
C1573 H1552 0.950 . S
C1573 C1572 1.373 . S
C1573 C1589 1.377 . S
C1574 C1572 1.389 . S
C1574 C1575 1.524 . S
C1574 C1588 1.377 . S
C1575 C1574 1.524 . S
C1575 C1576 1.397 . S
C1575 C1580 1.363 . S
C1576 H1553 0.950 . S
C1576 C1575 1.397 . S
C1576 C1577 1.334 . S
C1577 H1554 0.950 . S
C1577 C1576 1.334 . S
C1577 C1578 1.287 . S
C1578 C1577 1.287 . S
C1578 C1579 1.524 . S
C1578 H1597 0.913 . S
C1579 H1555 0.950 . S
C1579 C1578 1.524 . S
C1579 C1580 1.415 . S
C1580 H1556 0.950 . S
C1580 C1575 1.363 . S
C1580 C1579 1.415 . S
C1581 H1557 0.951 . S
C1581 C1582 1.366 . S
C1581 C1583 1.388 . S
C1582 C1581 1.366 . S
C1582 C1586 1.385 . S
C1583 H1558 0.951 . S
C1583 C1581 1.388 . S
C1583 C1584 1.366 . S
C1584 C1583 1.366 . S
C1584 C1585 1.414 . S
C1584 C1587 1.499 . S
C1585 H1559 0.950 . S
C1585 C1584 1.414 . S
C1585 C1586 1.374 . S
C1586 H1560 0.950 . S
C1586 C1582 1.385 . S
C1586 C1585 1.374 . S
C1587 C1584 1.499 . S
C1587 C1588 1.373 . S
C1587 C1589 1.389 . S
C1588 H1561 0.950 . S
C1588 C1574 1.377 . S
C1588 C1587 1.373 . S
C1589 C1573 1.377 . S
C1589 C1587 1.389 . S
C1589 C1590 1.524 . S
C1590 C1589 1.524 . S
C1590 C1591 1.397 . S
C1590 C1595 1.363 . S
C1591 H1562 0.950 . S
C1591 C1590 1.397 . S
C1591 C1592 1.334 . S
C1592 H1563 0.950 . S
C1592 C1591 1.334 . S
C1592 C1593 1.287 . S
C1593 C1592 1.287 . S
C1593 C1594 1.524 . S
C1593 H1596 0.999 . S
C1594 H1564 0.950 . S
C1594 C1593 1.524 . S
C1594 C1595 1.415 . S
C1595 H1565 0.950 . S
C1595 C1590 1.363 . S
C1595 C1594 1.415 . S
H1596 C1593 0.999 . S
H1597 C1578 0.913 . S
H1598 C1616 0.951 . S
H1599 C1618 0.951 . S
H1600 C1620 0.950 . S
H1601 C1621 0.950 . S
H1602 C1623 0.950 . S
H1603 C1626 0.950 . S
H1604 C1627 0.950 . S
H1605 C1629 0.950 . S
H1606 C1630 0.950 . S
H1607 C1631 0.951 . S
H1608 C1633 0.951 . S
H1609 C1635 0.950 . S
H1610 C1636 0.950 . S
H1611 C1638 0.950 . S
H1612 C1641 0.950 . S
H1613 C1642 0.950 . S
H1614 C1644 0.950 . S
H1615 C1645 0.950 . S
C1616 H1598 0.951 . S
C1616 C1617 1.366 . S
C1616 C1618 1.388 . S
C1617 C1616 1.366 . S
C1617 C1621 1.385 . S
C1618 H1599 0.951 . S
C1618 C1616 1.388 . S
C1618 C1619 1.366 . S
C1619 C1618 1.366 . S
C1619 C1620 1.414 . S
C1619 C1622 1.499 . S
C1620 H1600 0.950 . S
C1620 C1619 1.414 . S
C1620 C1621 1.374 . S
C1621 H1601 0.950 . S
C1621 C1617 1.385 . S
C1621 C1620 1.374 . S
C1622 C1619 1.499 . S
C1622 C1623 1.373 . S
C1622 C1624 1.389 . S
C1623 H1602 0.950 . S
C1623 C1622 1.373 . S
C1623 C1639 1.377 . S
C1624 C1622 1.389 . S
C1624 C1625 1.524 . S
C1624 C1638 1.377 . S
C1625 C1624 1.524 . S
C1625 C1626 1.397 . S
C1625 C1630 1.363 . S
C1626 H1603 0.950 . S
C1626 C1625 1.397 . S
C1626 C1627 1.334 . S
C1627 H1604 0.950 . S
C1627 C1626 1.334 . S
C1627 C1628 1.287 . S
C1628 C1627 1.287 . S
C1628 C1629 1.524 . S
C1628 H1647 0.913 . S
C1629 H1605 0.950 . S
C1629 C1628 1.524 . S
C1629 C1630 1.415 . S
C1630 H1606 0.950 . S
C1630 C1625 1.363 . S
C1630 C1629 1.415 . S
C1631 H1607 0.951 . S
C1631 C1632 1.366 . S
C1631 C1633 1.388 . S
C1632 C1631 1.366 . S
C1632 C1636 1.385 . S
C1633 H1608 0.951 . S
C1633 C1631 1.388 . S
C1633 C1634 1.366 . S
C1634 C1633 1.366 . S
C1634 C1635 1.414 . S
C1634 C1637 1.499 . S
C1635 H1609 0.950 . S
C1635 C1634 1.414 . S
C1635 C1636 1.374 . S
C1636 H1610 0.950 . S
C1636 C1632 1.385 . S
C1636 C1635 1.374 . S
C1637 C1634 1.499 . S
C1637 C1638 1.373 . S
C1637 C1639 1.389 . S
C1638 H1611 0.950 . S
C1638 C1624 1.377 . S
C1638 C1637 1.373 . S
C1639 C1623 1.377 . S
C1639 C1637 1.389 . S
C1639 C1640 1.524 . S
C1640 C1639 1.524 . S
C1640 C1641 1.397 . S
C1640 C1645 1.363 . S
C1641 H1612 0.950 . S
C1641 C1640 1.397 . S
C1641 C1642 1.334 . S
C1642 H1613 0.950 . S
C1642 C1641 1.334 . S
C1642 C1643 1.287 . S
C1643 C1642 1.287 . S
C1643 C1644 1.524 . S
C1643 H1646 0.999 . S
C1644 H1614 0.950 . S
C1644 C1643 1.524 . S
C1644 C1645 1.415 . S
C1645 H1615 0.950 . S
C1645 C1640 1.363 . S
C1645 C1644 1.415 . S
H1646 C1643 0.999 . S
H1647 C1628 0.913 . S
C467 C241 1.858 . S
C482 C297 2.000 1_545 S
C532 C337 2.018 . S
C517 C277 1.915 . S
C582 C377 2.006 . S
C567 C169 1.858 . S
C632 C417 2.014 1_455 S
C617 C205 1.869 . S
C682 C306 2.006 1_565 S
C667 C97 1.861 1_565 S
C717 C133 1.915 . S
C732 C346 2.018 . S
C767 C25 1.860 . S
C782 C386 2.007 . S
C817 C61 1.869 1_655 S
C832 C426 2.013 1_655 S
C882 C303 0.266 . S
C867 C211 0.266 . S
C932 C343 0.268 . S
C917 C247 0.267 . S
C982 C383 0.263 . S
C967 C253 0.282 . S
C1017 C175 0.267 . S
C1032 C423 0.266 . S
C1067 C67 0.359 1_655 S
C1082 C294 0.263 . S
C1132 C334 0.269 . S
C1117 C103 0.355 1_565 S
C1182 C374 0.263 . S
C1167 C109 0.195 . S
C1217 C31 0.351 . S
C1232 C414 0.267 . S
C1267 C181 2.529 . S
C1282 C307 2.806 . S
C1317 C217 2.518 . S
C1332 C347 2.794 . S
C1382 C387 2.804 . S
C1367 C283 2.464 . S
C1432 C427 2.795 . S
C1417 C145 2.516 . S
C1467 C37 2.536 . S
C1482 C298 2.807 . S
C1532 C338 2.794 . S
C1517 C73 2.523 . S
C1582 C378 2.804 . S
C1567 C139 2.456 . S
C1617 C1 2.523 . S
C1632 C418 2.798 . S
