# Generated by pormake.
# Topology ftw, (4,12)-cn, num edge types: 1
# Building blocks:
#     Node 0, Type 0, BuildingBlock: GIZVER_clean_linker_0, # of connection points: 4
#     Node 1, Type 0, BuildingBlock: GIZVER_clean_linker_0, # of connection points: 4
#     Node 2, Type 0, BuildingBlock: GIZVER_clean_linker_0, # of connection points: 4
#     Node 3, Type 1, BuildingBlock: QEWDON_clean_sbu_0, # of connection points: 12
#     Edge 4, Type (0, 1), BuildingBlock: KIFKEQ_clean_linker_1, # of connection points: 2
#     Edge 5, Type (0, 1), BuildingBlock: KIFKEQ_clean_linker_1, # of connection points: 2
#     Edge 6, Type (0, 1), BuildingBlock: KIFKEQ_clean_linker_1, # of connection points: 2
#     Edge 7, Type (0, 1), BuildingBlock: KIFKEQ_clean_linker_1, # of connection points: 2
#     Edge 8, Type (0, 1), BuildingBlock: KIFKEQ_clean_linker_1, # of connection points: 2
#     Edge 9, Type (0, 1), BuildingBlock: KIFKEQ_clean_linker_1, # of connection points: 2
#     Edge 10, Type (0, 1), BuildingBlock: KIFKEQ_clean_linker_1, # of connection points: 2
#     Edge 11, Type (0, 1), BuildingBlock: KIFKEQ_clean_linker_1, # of connection points: 2
#     Edge 12, Type (0, 1), BuildingBlock: KIFKEQ_clean_linker_1, # of connection points: 2
#     Edge 13, Type (0, 1), BuildingBlock: KIFKEQ_clean_linker_1, # of connection points: 2
#     Edge 14, Type (0, 1), BuildingBlock: KIFKEQ_clean_linker_1, # of connection points: 2
#     Edge 15, Type (0, 1), BuildingBlock: KIFKEQ_clean_linker_1, # of connection points: 2
# Relax obj value: 0.120
# Max RMSD: 0.265
# Mean RMSD: 0.215
data_MOF--net-ftw--node1-QEWDON_clean_sbu_0--node2-GIZVER_clean_linker_0--edge1-KIFKEQ_clean_linker_1
_symmetry_space_group_name_H-M    P1
_symmetry_Int_Tables_number       1
_symmetry_cell_setting            triclinic
loop_
_symmetry_equiv_pos_as_xyz
'x, y, z'
_cell_length_a     26.331021
_cell_length_b     25.025725
_cell_length_c     24.192895
_cell_angle_alpha  90.686768
_cell_angle_beta   90.222862
_cell_angle_gamma 91.053844
loop_
_atom_site_label
_atom_site_type_symbol
_atom_site_fract_x
_atom_site_fract_y
_atom_site_fract_z
_atom_type_partial_charge
H0 H 0.94046 0.4285 0.3838 0.0
H1 H 0.91975 0.43472 0.55942 0.0
H2 H 0.01483 0.31501 0.48799 0.0
H3 H 0.87074 0.47851 0.42449 0.0
H4 H 0.8599 0.47743 0.49729 0.0
H5 H 0.92485 0.54594 0.38446 0.0
H6 H 0.97881 0.67653 0.48708 0.0
H7 H 0.91302 0.53636 0.56144 0.0
C8 C 0.95024 0.41397 0.4244 0.0
C9 C 0.9817 0.36928 0.42975 0.0
C10 C 0.92822 0.43787 0.47122 0.0
C11 C 0.93798 0.41724 0.52358 0.0
C12 C 0.96821 0.3722 0.52973 0.0
C13 C 0.99157 0.34988 0.48305 0.0
C14 C 0.89005 0.48163 0.46544 0.0
C15 C 0.91548 0.53568 0.47211 0.0
C16 C 0.93065 0.56386 0.42507 0.0
C17 C 0.95341 0.61473 0.43017 0.0
C18 C 0.96132 0.63712 0.483 0.0
C19 C 0.94717 0.60922 0.53068 0.0
C20 C 0.9245 0.55815 0.52499 0.0
H21 H 0.46501 0.04607 0.3854 0.0
H22 H 0.47601 0.05266 0.56218 0.0
H23 H 0.34226 0.9846 0.48422 0.0
H24 H 0.52163 0.11034 0.42969 0.0
H25 H 0.51871 0.12103 0.50235 0.0
H26 H 0.58661 0.05612 0.39022 0.0
H27 H 0.70787 0.0074 0.49674 0.0
H28 H 0.56869 0.06325 0.56701 0.0
C29 C 0.44938 0.03613 0.42544 0.0
C30 C 0.40118 0.011 0.42881 0.0
C31 C 0.47616 0.05179 0.47351 0.0
C32 C 0.45545 0.04 0.52532 0.0
C33 C 0.4071 0.01565 0.52988 0.0
C34 C 0.38067 0.00054 0.4813 0.0
C35 C 0.52167 0.08929 0.46996 0.0
C36 C 0.57153 0.06141 0.47768 0.0
C37 C 0.60135 0.04911 0.43134 0.0
C38 C 0.65068 0.02969 0.43787 0.0
C39 C 0.66953 0.02159 0.49137 0.0
C40 C 0.64028 0.03322 0.5382 0.0
C41 C 0.59092 0.05254 0.5311 0.0
H42 H 0.53438 0.38924 0.17551 0.0
H43 H 0.58374 0.55428 0.17544 0.0
H44 H 0.68061 0.43247 0.10985 0.0
H45 H 0.49147 0.45504 0.23356 0.0
H46 H 0.51452 0.52261 0.23787 0.0
H47 H 0.43285 0.42628 0.15933 0.0
H48 H 0.35884 0.54962 0.06829 0.0
H49 H 0.48949 0.58875 0.16867 0.0
C50 C 0.56255 0.4197 0.16543 0.0
C51 C 0.60854 0.40488 0.14134 0.0
C52 C 0.55371 0.47356 0.17851 0.0
C53 C 0.59054 0.51272 0.16533 0.0
C54 C 0.63657 0.49827 0.14056 0.0
C55 C 0.64535 0.44416 0.12917 0.0
C56 C 0.5061 0.48898 0.20854 0.0
C57 C 0.46591 0.50551 0.16807 0.0
C58 C 0.43078 0.46758 0.14663 0.0
C59 C 0.39158 0.4833 0.11112 0.0
C60 C 0.38906 0.53697 0.0955 0.0
C61 C 0.42455 0.5748 0.11574 0.0
C62 C 0.4628 0.55914 0.15209 0.0
Zn63 Zn 0.11596 0.09718 0.93354 0.0
Zn64 Zn 0.08214 0.10068 0.0607 0.0
O65 O 0.0894 0.05133 0.99572 0.0
H66 H 0.06982 0.01867 0.99032 0.0
C67 C 0.92953 0.13564 0.85885 0.0
O68 O 0.9586 0.13968 0.903 0.0
Zn69 Zn 0.95177 0.88107 0.07303 0.0
Zn70 Zn 0.9006 0.8817 0.95193 0.0
O71 O 0.94406 0.92552 0.00512 0.0
H72 H 0.96528 0.95588 0.99566 0.0
Zn73 Zn 0.87039 0.07027 0.93349 0.0
O74 O 0.92894 0.06541 0.9877 0.0
Zn75 Zn 0.89782 0.06392 0.06188 0.0
H76 H 0.96366 0.05665 0.97898 0.0
Zn77 Zn 0.13631 0.88578 0.93071 0.0
O78 O 0.09084 0.91112 0.99232 0.0
H79 H 0.05518 0.91895 0.9889 0.0
Zn80 Zn 0.13351 0.91721 0.06069 0.0
C81 C 0.07881 0.80024 0.87198 0.0
O82 O 0.07461 0.7815 0.92229 0.0
O83 O 0.14321 0.17054 0.96052 0.0
O84 O 0.11249 0.17481 0.04597 0.0
O85 O 0.8737 0.81122 0.98413 0.0
O86 O 0.91648 0.80765 0.06358 0.0
O87 O 0.80268 0.09257 0.96965 0.0
O88 O 0.82387 0.0836 0.058 0.0
C89 C 0.13973 0.02605 0.12696 0.0
O90 O 0.20768 0.86593 0.95791 0.0
O91 O 0.20622 0.89528 0.04518 0.0
O92 O 0.86323 0.91637 0.88571 0.0
C93 C 0.13752 0.19554 0.0062 0.0
O94 O 0.15521 0.06146 0.8692 0.0
C95 C 0.89939 0.96398 0.1326 0.0
O96 O 0.88912 0.10714 0.86058 0.0
C97 C 0.88504 0.78713 0.02853 0.0
O98 O 0.10337 0.8438 0.86458 0.0
C99 C 0.97984 0.12902 0.10916 0.0
O100 O 0.12278 0.07315 0.12432 0.0
O101 O 0.127 -0.00689 0.08864 0.0
C102 C 0.79147 0.09493 0.02082 0.0
O103 O 0.91558 0.91682 0.13668 0.0
O104 O 0.90992 0.98999 0.08933 0.0
C105 C 0.05805 0.85438 0.119 0.0
O106 O 0.93227 0.11978 0.11006 0.0
O107 O 1.00739 0.10058 0.07798 0.0
C108 C 0.22947 0.87385 0.00456 0.0
O109 O 0.10525 0.86536 0.11576 0.0
O110 O 0.02766 0.87899 0.08763 0.0
C111 C 0.81954 0.93668 0.89077 0.0
O112 O 0.7977 0.93697 0.93952 0.0
C113 C 0.20264 0.05528 0.87569 0.0
O114 O 0.22372 0.06981 0.92298 0.0
H115 H 0.9891 0.26057 0.41756 0.0
H116 H 0.01102 0.40771 0.32784 0.0
H117 H 1.0077 0.20966 0.33492 0.0
H118 H 0.02727 0.35559 0.24364 0.0
H119 H 0.94796 0.23053 0.11485 0.0
H120 H 0.96493 0.29509 0.18926 0.0
H121 H 0.07294 0.18777 0.26081 0.0
H122 H 0.05576 0.12311 0.18577 0.0
C123 C 0.99937 0.28239 0.38078 0.0
C124 C 0.99861 0.33866 0.3799 0.0
C125 C 0.00998 0.25287 0.33312 0.0
C126 C 0.01923 0.27859 0.28286 0.0
C127 C 0.02026 0.33476 0.28193 0.0
C128 C 0.01047 0.36452 0.33006 0.0
C129 C 0.97678 0.22175 0.14536 0.0
C130 C 1.00083 0.17218 0.14464 0.0
C131 C 0.98667 0.25876 0.18782 0.0
C132 C 0.02002 0.24632 0.23102 0.0
C133 C 0.04699 0.19829 0.22801 0.0
C134 C 0.03762 0.16154 0.18488 0.0
H135 H 0.66401 0.09432 0.34823 0.0
H136 H 0.71401 0.94637 0.41873 0.0
H137 H 0.72569 0.08452 0.27365 0.0
H138 H 0.77577 0.9369 0.34473 0.0
H139 H 0.91639 0.96303 0.24291 0.0
H140 H 0.85519 0.98202 0.31603 0.0
H141 H 0.74461 0.02526 0.19286 0.0
H142 H 0.80608 0.00605 0.12007 0.0
C143 C 0.68761 0.05934 0.34735 0.0
C144 C 0.68433 0.02124 0.38954 0.0
C145 C 0.7231 0.05391 0.30486 0.0
C146 C 0.75613 0.01043 0.3039 0.0
C147 C 0.75173 0.97157 0.34514 0.0
C148 C 0.71621 0.97686 0.38738 0.0
C149 C 0.87945 0.9781 0.23179 0.0
C150 C 0.86637 0.98509 0.17615 0.0
C151 C 0.84427 0.98839 0.27343 0.0
C152 C 0.79506 0.00509 0.2601 0.0
C153 C 0.78257 0.01362 0.20441 0.0
C154 C 0.81792 0.00345 0.16277 0.0
H155 H 0.90044 0.62588 0.3335 0.0
H156 H 0.0413 0.67166 0.41485 0.0
H157 H 0.92513 0.67846 0.25315 0.0
H158 H 0.0648 0.72597 0.33611 0.0
H159 H 0.11591 0.78162 0.17085 0.0
H160 H 0.09027 0.71843 0.24122 0.0
H161 H 0.93569 0.77232 0.22911 0.0
H162 H 0.9614 0.83473 0.15779 0.0
C163 C 0.93677 0.64691 0.33405 0.0
C164 C 0.96889 0.64485 0.38051 0.0
C165 C 0.95063 0.67744 0.28836 0.0
C166 C 0.99688 0.70637 0.28831 0.0
C167 C 0.02922 0.70358 0.33449 0.0
C168 C 0.01547 0.67303 0.37996 0.0
C169 C 0.07633 0.77988 0.1829 0.0
C170 C 0.04064 0.81378 0.15891 0.0
C171 C 0.06171 0.74371 0.2234 0.0
C172 C 0.01109 0.74081 0.24125 0.0
C173 C 0.97496 0.77328 0.21595 0.0
C174 C 0.98967 0.80934 0.17511 0.0
H175 H 0.33753 0.92591 0.40136 0.0
H176 H 0.39009 0.07975 0.34309 0.0
H177 H 0.27437 0.92152 0.32633 0.0
H178 H 0.32821 0.07465 0.26837 0.0
H179 H 0.16489 0.09028 0.21384 0.0
H180 H 0.23101 0.07896 0.28196 0.0
H181 H 0.26298 0.92302 0.21407 0.0
H182 H 0.19557 0.93428 0.14442 0.0
C183 C 0.33629 0.95824 0.37204 0.0
C184 C 0.36878 0.00332 0.37849 0.0
C185 C 0.30043 0.95546 0.32895 0.0
C186 C 0.29613 -0.00203 0.29197 0.0
C187 C 0.33045 0.04148 0.29661 0.0
C188 C 0.36629 0.04414 0.33922 0.0
C189 C 0.18552 0.05322 0.21313 0.0
C190 C 0.17545 0.01357 0.17258 0.0
C191 C 0.22372 0.04696 0.25224 0.0
C192 C 0.25294 0.00074 0.25249 0.0
C193 C 0.24124 0.95935 0.21435 0.0
C194 C 0.20278 0.96581 0.17447 0.0
H195 H 0.98989 0.56344 0.6217 0.0
H196 H 0.92762 0.71118 0.56395 0.0
H197 H 0.01766 0.60861 0.70724 0.0
H198 H 0.95506 0.75615 0.6491 0.0
H199 H 0.07586 0.83115 0.76418 0.0
H200 H 0.0385 0.78305 0.68563 0.0
H201 H 0.99059 0.65524 0.79308 0.0
H202 H 0.02863 0.70324 0.87203 0.0
C203 C 0.98123 0.60524 0.6278 0.0
C204 C 0.95727 0.63398 0.58584 0.0
C205 C 0.99715 0.63114 0.67672 0.0
C206 C 0.98932 0.6862 0.68452 0.0
C207 C 0.96277 0.71404 0.64379 0.0
C208 C 0.94694 0.68825 0.59509 0.0
C209 C 0.05731 0.79286 0.77121 0.0
C210 C 0.05532 0.77106 0.82442 0.0
C211 C 0.03554 0.76542 0.72619 0.0
C212 C 0.0113 0.71542 0.73314 0.0
C213 C 0.00928 0.69351 0.78633 0.0
C214 C 0.0309 0.72114 0.83155 0.0
H215 H 0.4124 0.08882 0.61489 0.0
H216 H 0.34216 0.93704 0.5688 0.0
H217 H 0.36633 0.08824 0.70133 0.0
H218 H 0.29415 0.93794 0.65529 0.0
H219 H 0.17132 0.0166 0.77452 0.0
H220 H 0.22417 -0.00169 0.69389 0.0
H221 H 0.35869 0.03625 0.79018 0.0
H222 H 0.30615 0.0545 0.87078 0.0
C223 C 0.38809 0.05461 0.62354 0.0
C224 C 0.38151 0.01268 0.5847 0.0
C225 C 0.3614 0.05453 0.67318 0.0
C226 C 0.3268 0.01298 0.6851 0.0
C227 C 0.32046 0.97061 0.64693 0.0
C228 C 0.34782 0.97025 0.59739 0.0
C229 C 0.21221 0.02029 0.77871 0.0
C230 C 0.23451 0.03768 0.82885 0.0
C231 C 0.24244 0.00946 0.73264 0.0
C232 C 0.29546 0.01628 0.73574 0.0
C233 C 0.31785 0.03122 0.78654 0.0
C234 C 0.28773 0.04154 0.83269 0.0
H235 H 0.887 0.35236 0.59555 0.0
H236 H 0.04805 0.32421 0.5823 0.0
H237 H 0.88248 0.29522 0.67558 0.0
H238 H 0.04295 0.26499 0.66225 0.0
H239 H 0.00934 0.20554 0.84372 0.0
H240 H 0.02306 0.26502 0.76548 0.0
H241 H 0.89015 0.19677 0.68447 0.0
H242 H 0.876 0.13794 0.76239 0.0
C243 C 0.92173 0.33483 0.61037 0.0
C244 C 0.96797 0.34298 0.58264 0.0
C245 C 0.91891 0.30137 0.65573 0.0
C246 C 0.96216 0.27499 0.67439 0.0
C247 C 0.00902 0.28481 0.64847 0.0
C248 C 0.01187 0.31843 0.60273 0.0
C249 C 0.98332 0.20295 0.80896 0.0
C250 C 0.94116 0.16761 0.80951 0.0
C251 C 0.99134 0.23685 0.7642 0.0
C252 C 0.95719 0.236 0.7195 0.0
C253 C 0.91643 0.19899 0.71903 0.0
C254 C 0.90849 0.16513 0.76353 0.0
H255 H 0.59852 0.98514 0.62916 0.0
H256 H 0.73357 0.06824 0.57325 0.0
H257 H 0.64079 0.96672 0.71715 0.0
H258 H 0.7755 0.0505 0.66081 0.0
H259 H 0.8547 0.94301 0.78498 0.0
H260 H 0.80916 0.97142 0.70317 0.0
H261 H 0.67762 0.00532 0.8029 0.0
H262 H 0.72312 0.976 0.88511 0.0
C263 C 0.63688 0.0002 0.63608 0.0
C264 C 0.66305 0.0273 0.59404 0.0
C265 C 0.6611 0.98975 0.68642 0.0
C266 C 0.71184 0.00644 0.69567 0.0
C267 C 0.73689 0.03592 0.65455 0.0
C268 C 0.71283 0.04617 0.60441 0.0
C269 C 0.81617 0.95677 0.78966 0.0
C270 C 0.79254 0.957 0.84162 0.0
C271 C 0.79011 0.9734 0.74272 0.0
C272 C 0.7397 0.99074 0.74645 0.0
C273 C 0.71621 0.99168 0.79853 0.0
C274 C 0.74241 0.97515 0.84566 0.0
H275 H 0.40441 0.38421 0.06545 0.0
H276 H 0.28893 0.49487 0.11547 0.0
H277 H 0.3383 0.31977 0.03612 0.0
H278 H 0.22278 0.43036 0.0863 0.0
H279 H 0.20911 0.24087 0.93914 0.0
H280 H 0.26825 0.31377 0.96211 0.0
H281 H 0.19314 0.33697 0.11856 0.0
H282 H 0.1338 0.26353 0.09604 0.0
C283 C 0.3649 0.39466 0.0701 0.0
C284 C 0.35173 0.44446 0.09255 0.0
C285 C 0.32712 0.35807 0.05298 0.0
C286 C 0.27546 0.37027 0.05877 0.0
C287 C 0.26229 0.41996 0.08149 0.0
C288 C 0.30008 0.45689 0.09782 0.0
C289 C 0.20445 0.26199 0.97808 0.0
C290 C 0.16689 0.24593 0.01598 0.0
C291 C 0.23866 0.3035 0.99132 0.0
C292 C 0.23569 0.33042 0.04238 0.0
C293 C 0.19625 0.31681 0.07888 0.0
C294 C 0.16231 0.27475 0.06595 0.0
H295 H 0.38151 0.64989 0.1799 0.0
H296 H 0.45083 0.62524 0.02089 0.0
H297 H 0.35167 0.73651 0.15084 0.0
H298 H 0.42369 0.71367 0.99192 0.0
H299 H 0.29105 0.88517 0.0959 0.0
H300 H 0.35847 0.82528 0.12284 0.0
H301 H 0.34459 0.74351 0.9648 0.0
H302 H 0.27972 0.80469 0.93714 0.0
C303 C 0.39198 0.6643 0.13937 0.0
C304 C 0.41799 0.63137 0.10238 0.0
C305 C 0.37527 0.71417 0.12263 0.0
C306 C 0.38465 0.73218 0.06857 0.0
C307 C 0.41475 0.70071 0.03335 0.0
C308 C 0.4307 0.65036 0.0499 0.0
C309 C 0.30367 0.85548 0.06628 0.0
C310 C 0.27903 0.84877 0.01494 0.0
C311 C 0.34208 0.82083 0.08189 0.0
C312 C 0.35602 0.7783 0.04681 0.0
C313 C 0.3352 0.77558 0.99315 0.0
C314 C 0.29745 0.81068 0.97727 0.0
H315 H 0.68435 0.34876 0.18615 0.0
H316 H 0.55895 0.33484 0.07139 0.0
H317 H 0.7118 0.25974 0.15981 0.0
H318 H 0.58665 0.24491 0.04416 0.0
H319 H 0.72508 0.15133 0.95748 0.0
H320 H 0.66499 0.21653 0.99196 0.0
H321 H 0.69024 0.16274 0.15857 0.0
H322 H 0.7511 0.09849 0.12443 0.0
C323 C 0.66214 0.3259 0.15603 0.0
C324 C 0.61984 0.34829 0.13054 0.0
C325 C 0.67749 0.27478 0.14122 0.0
C326 C 0.65119 0.24519 0.10005 0.0
C327 C 0.60752 0.26684 0.07603 0.0
C328 C 0.59165 0.31798 0.0916 0.0
C329 C 0.7165 0.15202 0.00123 0.0
C330 C 0.74394 0.12071 0.03841 0.0
C331 C 0.68184 0.18932 0.02097 0.0
C332 C 0.67395 0.19557 0.0781 0.0
C333 C 0.69646 0.15952 0.11441 0.0
C334 C 0.73122 0.12254 0.09477 0.0
H335 H 0.73907 0.49611 0.15929 0.0
H336 H 0.62184 0.59296 0.08873 0.0
H337 H 0.80354 0.5618 0.13088 0.0
H338 H 0.68608 0.65885 0.06106 0.0
H339 H 0.88899 0.72918 0.12431 0.0
H340 H 0.83082 0.65721 0.15212 0.0
H341 H 0.75686 0.6621 0.99272 0.0
H342 H 0.81444 0.73375 0.96483 0.0
C343 C 0.72713 0.53148 0.13777 0.0
C344 C 0.67545 0.53938 0.12604 0.0
C345 C 0.76397 0.56917 0.12186 0.0
C346 C 0.74989 0.61519 0.09337 0.0
C347 C 0.69814 0.62336 0.08228 0.0
C348 C 0.66131 0.58597 0.09863 0.0
C349 C 0.8609 0.7143 0.09484 0.0
C350 C 0.85609 0.73775 0.04252 0.0
C351 C 0.82758 0.67308 0.11082 0.0
C352 C 0.78872 0.65477 0.07491 0.0
C353 C 0.78572 0.67623 0.02169 0.0
C354 C 0.81906 0.71707 0.00562 0.0
loop_
_geom_bond_atom_site_label_1
_geom_bond_atom_site_label_2
_geom_bond_distance
_geom_bond_site_symmetry_2
_ccdc_geom_bond_type
H0 C8 0.930 . S
H1 C11 0.930 . S
H2 C13 0.930 . S
H3 C14 0.970 . S
H4 C14 0.970 . S
H5 C16 0.930 . S
H6 C18 0.930 . S
H7 C20 0.930 . S
C8 H0 0.930 . S
C8 C9 1.382 . S
C8 C10 1.426 . S
C9 C8 1.382 . S
C9 C13 1.389 1_655 S
C10 C8 1.426 . S
C10 C11 1.375 . S
C10 C14 1.532 . S
C11 H1 0.930 . S
C11 C10 1.375 . S
C11 C12 1.416 . S
C12 C11 1.416 . S
C12 C13 1.371 1_655 S
C13 H2 0.930 . S
C13 C9 1.389 1_455 S
C13 C12 1.371 1_455 S
C14 H3 0.970 . S
C14 H4 0.970 . S
C14 C10 1.532 . S
C14 C15 1.499 . S
C15 C14 1.499 . S
C15 C16 1.370 . S
C15 C20 1.415 . S
C16 H5 0.930 . S
C16 C15 1.370 . S
C16 C17 1.407 . S
C17 C16 1.407 . S
C17 C18 1.365 1_655 S
C18 H6 0.930 . S
C18 C17 1.365 1_455 S
C18 C19 1.393 1_455 S
C19 C18 1.393 1_655 S
C19 C20 1.387 . S
C20 H7 0.930 . S
C20 C15 1.415 . S
C20 C19 1.387 . S
H21 C29 0.930 . S
H22 C32 0.930 . S
H23 C34 0.930 . S
H24 C35 0.970 . S
H25 C35 0.970 . S
H26 C37 0.930 . S
H27 C39 0.930 . S
H28 C41 0.930 . S
C29 H21 0.930 . S
C29 C30 1.382 . S
C29 C31 1.426 . S
C30 C29 1.382 . S
C30 C34 1.389 1_545 S
C31 C29 1.426 . S
C31 C32 1.375 . S
C31 C35 1.532 . S
C32 H22 0.930 . S
C32 C31 1.375 . S
C32 C33 1.416 . S
C33 C32 1.416 . S
C33 C34 1.371 1_545 S
C34 H23 0.930 . S
C34 C30 1.389 1_565 S
C34 C33 1.371 1_565 S
C35 H24 0.970 . S
C35 H25 0.970 . S
C35 C31 1.532 . S
C35 C36 1.499 . S
C36 C35 1.499 . S
C36 C37 1.370 . S
C36 C41 1.415 . S
C37 H26 0.930 . S
C37 C36 1.370 . S
C37 C38 1.407 . S
C38 C37 1.407 . S
C38 C39 1.365 1_545 S
C39 H27 0.930 . S
C39 C38 1.365 1_565 S
C39 C40 1.393 1_565 S
C40 C39 1.393 1_545 S
C40 C41 1.387 . S
C41 H28 0.930 . S
C41 C36 1.415 . S
C41 C40 1.387 . S
H42 C50 0.930 . S
H43 C53 0.930 . S
H44 C55 0.930 1_556 S
H45 C56 0.970 . S
H46 C56 0.970 . S
H47 C58 0.930 . S
H48 C60 0.930 1_556 S
H49 C62 0.930 . S
C50 H42 0.930 . S
C50 C51 1.382 . S
C50 C52 1.426 . S
C51 C50 1.382 . S
C51 C55 1.389 . S
C52 C50 1.426 . S
C52 C53 1.375 . S
C52 C56 1.532 . S
C53 H43 0.930 . S
C53 C52 1.375 . S
C53 C54 1.416 . S
C54 C53 1.416 . S
C54 C55 1.371 . S
C55 H44 0.930 1_554 S
C55 C51 1.389 . S
C55 C54 1.371 . S
C56 H45 0.970 . S
C56 H46 0.970 . S
C56 C52 1.532 . S
C56 C57 1.499 . S
C57 C56 1.499 . S
C57 C58 1.370 . S
C57 C62 1.415 . S
C58 H47 0.930 . S
C58 C57 1.370 . S
C58 C59 1.407 . S
C59 C58 1.407 . S
C59 C60 1.365 . S
C60 H48 0.930 1_554 S
C60 C59 1.365 . S
C60 C61 1.393 . S
C61 C60 1.393 . S
C61 C62 1.387 . S
C62 H49 0.930 . S
C62 C57 1.415 . S
C62 C61 1.387 . S
Zn63 O65 1.933 1_556 S
Zn63 O83 1.985 . S
Zn63 O94 1.955 . S
Zn64 O65 1.911 . S
Zn64 O84 1.970 . S
Zn64 O100 1.945 . S
Zn64 O107 1.981 . S
O65 Zn63 1.933 1_554 S
O65 Zn64 1.911 . S
O65 H66 0.841 . S
H66 O65 0.841 . S
C67 O68 1.246 . S
C67 O96 1.276 1_455 S
O68 C67 1.246 . S
Zn69 O71 1.911 . S
Zn69 O86 1.970 . S
Zn69 O103 1.945 . S
Zn69 O110 1.981 . S
Zn70 O71 1.933 1_556 S
Zn70 O85 1.985 . S
Zn70 O92 1.955 . S
O71 Zn69 1.911 . S
O71 Zn70 1.933 1_554 S
O71 H72 0.841 . S
H72 O71 0.841 . S
Zn73 O74 1.933 1_556 S
Zn73 O87 1.985 . S
Zn73 O96 1.955 . S
O74 Zn73 1.933 1_554 S
O74 Zn75 1.911 . S
O74 H76 0.841 . S
Zn75 O74 1.911 . S
Zn75 O88 1.970 . S
Zn75 O104 1.981 . S
Zn75 O106 1.945 . S
H76 O74 0.841 . S
Zn77 O78 1.933 1_556 S
Zn77 O90 1.985 . S
Zn77 O98 1.955 . S
O78 Zn77 1.933 1_554 S
O78 H79 0.841 . S
O78 Zn80 1.911 . S
H79 O78 0.841 . S
Zn80 O78 1.911 . S
Zn80 O91 1.970 . S
Zn80 O101 1.981 . S
Zn80 O109 1.945 . S
C81 O82 1.246 . S
C81 O98 1.276 1_655 S
O82 C81 1.246 . S
O83 Zn63 1.985 . S
O83 C93 1.245 1_556 S
O84 Zn64 1.970 . S
O84 C93 1.263 . S
O85 Zn70 1.985 . S
O85 C97 1.245 1_556 S
O86 Zn69 1.970 . S
O86 C97 1.263 . S
O87 Zn73 1.985 . S
O87 C102 1.245 1_556 S
O88 Zn75 1.970 . S
O88 C102 1.263 . S
C89 O100 1.262 . S
C89 O101 1.245 1_545 S
O90 Zn77 1.985 . S
O90 C108 1.245 1_556 S
O91 Zn80 1.970 . S
O91 C108 1.263 . S
O92 Zn70 1.955 . S
O92 C111 1.276 1_565 S
C93 O83 1.245 1_554 S
C93 O84 1.263 . S
O94 Zn63 1.955 . S
O94 C113 1.276 1_545 S
C95 O103 1.269 . S
C95 O104 1.241 1_565 S
O96 C67 1.276 1_655 S
O96 Zn73 1.955 . S
C97 O85 1.245 1_554 S
C97 O86 1.263 . S
O98 Zn77 1.955 . S
O98 C81 1.276 1_455 S
C99 O106 1.260 . S
C99 O107 1.246 1_655 S
O100 Zn64 1.945 . S
O100 C89 1.262 . S
O101 Zn80 1.981 . S
O101 C89 1.245 1_565 S
C102 O87 1.245 1_554 S
C102 O88 1.263 . S
O103 Zn69 1.945 . S
O103 C95 1.269 . S
O104 Zn75 1.981 . S
O104 C95 1.241 1_545 S
C105 O109 1.264 . S
C105 O110 1.244 1_455 S
O106 Zn75 1.945 . S
O106 C99 1.260 . S
O107 Zn64 1.981 . S
O107 C99 1.246 1_455 S
C108 O90 1.245 1_554 S
C108 O91 1.263 . S
O109 Zn80 1.945 . S
O109 C105 1.264 . S
O110 Zn69 1.981 . S
O110 C105 1.244 1_655 S
C111 O92 1.276 1_545 S
C111 O112 1.246 . S
O112 C111 1.246 . S
C113 O94 1.276 1_565 S
C113 O114 1.246 . S
O114 C113 1.246 . S
H115 C123 0.950 . S
H116 C128 0.950 . S
H117 C125 0.950 . S
H118 C127 0.950 . S
H119 C129 0.950 . S
H120 C131 0.950 1_655 S
H121 C133 0.950 . S
H122 C134 0.950 . S
C123 H115 0.950 . S
C123 C124 1.386 1_455 S
C123 C125 1.391 . S
C124 C123 1.386 1_655 S
C124 C128 1.393 . S
C125 H117 0.950 . S
C125 C123 1.391 . S
C125 C126 1.400 . S
C126 C125 1.400 . S
C126 C127 1.398 1_455 S
C126 C132 1.491 . S
C127 H118 0.950 . S
C127 C126 1.398 1_655 S
C127 C128 1.391 . S
C128 H116 0.950 . S
C128 C124 1.393 . S
C128 C127 1.391 . S
C129 H119 0.950 . S
C129 C130 1.386 . S
C129 C131 1.391 . S
C130 C129 1.386 . S
C130 C134 1.393 . S
C131 H120 0.950 1_455 S
C131 C129 1.391 . S
C131 C132 1.400 . S
C132 C126 1.491 . S
C132 C131 1.400 . S
C132 C133 1.398 . S
C133 H121 0.950 . S
C133 C132 1.398 . S
C133 C134 1.391 . S
C134 H122 0.950 . S
C134 C130 1.393 . S
C134 C133 1.391 . S
H135 C143 0.950 . S
H136 C148 0.950 . S
H137 C145 0.950 . S
H138 C147 0.950 . S
H139 C149 0.950 . S
H140 C151 0.950 . S
H141 C153 0.950 . S
H142 C154 0.950 . S
C143 H135 0.950 . S
C143 C144 1.386 1_545 S
C143 C145 1.391 . S
C144 C143 1.386 1_565 S
C144 C148 1.393 . S
C145 H137 0.950 . S
C145 C143 1.391 . S
C145 C146 1.400 . S
C146 C145 1.400 . S
C146 C147 1.398 1_545 S
C146 C152 1.491 . S
C147 H138 0.950 . S
C147 C146 1.398 1_565 S
C147 C148 1.391 . S
C148 H136 0.950 . S
C148 C144 1.393 . S
C148 C147 1.391 . S
C149 H139 0.950 . S
C149 C150 1.386 1_565 S
C149 C151 1.391 . S
C150 C149 1.386 1_545 S
C150 C154 1.393 . S
C151 H140 0.950 . S
C151 C149 1.391 . S
C151 C152 1.400 1_565 S
C152 C146 1.491 . S
C152 C151 1.400 1_545 S
C152 C153 1.398 . S
C153 H141 0.950 . S
C153 C152 1.398 . S
C153 C154 1.391 . S
C154 H142 0.950 . S
C154 C150 1.393 . S
C154 C153 1.391 . S
H155 C163 0.950 . S
H156 C168 0.950 . S
H157 C165 0.950 . S
H158 C167 0.950 . S
H159 C169 0.950 . S
H160 C171 0.950 . S
H161 C173 0.950 . S
H162 C174 0.950 . S
C163 H155 0.950 . S
C163 C164 1.386 1_655 S
C163 C165 1.391 . S
C164 C163 1.386 1_455 S
C164 C168 1.393 . S
C165 H157 0.950 . S
C165 C163 1.391 . S
C165 C166 1.400 . S
C166 C165 1.400 . S
C166 C167 1.398 1_655 S
C166 C172 1.491 . S
C167 H158 0.950 . S
C167 C166 1.398 1_455 S
C167 C168 1.391 . S
C168 H156 0.950 . S
C168 C164 1.393 . S
C168 C167 1.391 . S
C169 H159 0.950 . S
C169 C170 1.386 1_455 S
C169 C171 1.391 . S
C170 C169 1.386 1_655 S
C170 C174 1.393 . S
C171 H160 0.950 . S
C171 C169 1.391 . S
C171 C172 1.400 1_455 S
C172 C166 1.491 . S
C172 C171 1.400 1_655 S
C172 C173 1.398 . S
C173 H161 0.950 . S
C173 C172 1.398 . S
C173 C174 1.391 . S
C174 H162 0.950 . S
C174 C170 1.393 . S
C174 C173 1.391 . S
H175 C183 0.950 . S
H176 C188 0.950 . S
H177 C185 0.950 . S
H178 C187 0.950 . S
H179 C189 0.950 . S
H180 C191 0.950 . S
H181 C193 0.950 . S
H182 C194 0.950 . S
C183 H175 0.950 . S
C183 C184 1.386 1_565 S
C183 C185 1.391 . S
C184 C183 1.386 1_545 S
C184 C188 1.393 . S
C185 H177 0.950 . S
C185 C183 1.391 . S
C185 C186 1.400 . S
C186 C185 1.400 . S
C186 C187 1.398 1_565 S
C186 C192 1.491 . S
C187 H178 0.950 . S
C187 C186 1.398 1_545 S
C187 C188 1.391 . S
C188 H176 0.950 . S
C188 C184 1.393 . S
C188 C187 1.391 . S
C189 H179 0.950 . S
C189 C190 1.386 1_545 S
C189 C191 1.391 . S
C190 C189 1.386 1_565 S
C190 C194 1.393 . S
C191 H180 0.950 . S
C191 C189 1.391 . S
C191 C192 1.400 1_545 S
C192 C186 1.491 . S
C192 C191 1.400 1_565 S
C192 C193 1.398 . S
C193 H181 0.950 . S
C193 C192 1.398 . S
C193 C194 1.391 . S
C194 H182 0.950 . S
C194 C190 1.393 . S
C194 C193 1.391 . S
H195 C203 0.950 . S
H196 C208 0.950 . S
H197 C205 0.950 . S
H198 C207 0.950 . S
H199 C209 0.950 . S
H200 C211 0.950 . S
H201 C213 0.950 . S
H202 C214 0.950 . S
C203 H195 0.950 . S
C203 C204 1.386 1_455 S
C203 C205 1.391 . S
C204 C203 1.386 1_655 S
C204 C208 1.393 . S
C205 H197 0.950 . S
C205 C203 1.391 . S
C205 C206 1.400 1_455 S
C206 C205 1.400 1_655 S
C206 C207 1.398 . S
C206 C212 1.491 . S
C207 H198 0.950 . S
C207 C206 1.398 . S
C207 C208 1.391 . S
C208 H196 0.950 . S
C208 C204 1.393 . S
C208 C207 1.391 . S
C209 H199 0.950 . S
C209 C210 1.386 . S
C209 C211 1.391 . S
C210 C209 1.386 . S
C210 C214 1.393 1_655 S
C211 H200 0.950 . S
C211 C209 1.391 . S
C211 C212 1.400 . S
C212 C206 1.491 . S
C212 C211 1.400 . S
C212 C213 1.398 1_655 S
C213 H201 0.950 . S
C213 C212 1.398 1_455 S
C213 C214 1.391 . S
C214 H202 0.950 . S
C214 C210 1.393 1_455 S
C214 C213 1.391 . S
H215 C223 0.950 . S
H216 C228 0.950 . S
H217 C225 0.950 . S
H218 C227 0.950 . S
H219 C229 0.950 . S
H220 C231 0.950 . S
H221 C233 0.950 . S
H222 C234 0.950 . S
C223 H215 0.950 . S
C223 C224 1.386 1_545 S
C223 C225 1.391 . S
C224 C223 1.386 1_565 S
C224 C228 1.393 . S
C225 H217 0.950 . S
C225 C223 1.391 . S
C225 C226 1.400 1_545 S
C226 C225 1.400 1_565 S
C226 C227 1.398 . S
C226 C232 1.491 . S
C227 H218 0.950 . S
C227 C226 1.398 . S
C227 C228 1.391 . S
C228 H216 0.950 . S
C228 C224 1.393 . S
C228 C227 1.391 . S
C229 H219 0.950 . S
C229 C230 1.386 . S
C229 C231 1.391 . S
C230 C229 1.386 . S
C230 C234 1.393 1_565 S
C231 H220 0.950 . S
C231 C229 1.391 . S
C231 C232 1.400 . S
C232 C226 1.491 . S
C232 C231 1.400 . S
C232 C233 1.398 1_565 S
C233 H221 0.950 . S
C233 C232 1.398 1_545 S
C233 C234 1.391 . S
C234 H222 0.950 . S
C234 C230 1.393 1_545 S
C234 C233 1.391 . S
H235 C243 0.950 . S
H236 C248 0.950 . S
H237 C245 0.950 . S
H238 C247 0.950 . S
H239 C249 0.950 . S
H240 C251 0.950 . S
H241 C253 0.950 . S
H242 C254 0.950 . S
C243 H235 0.950 . S
C243 C244 1.386 1_655 S
C243 C245 1.391 . S
C244 C243 1.386 1_455 S
C244 C248 1.393 . S
C245 H237 0.950 . S
C245 C243 1.391 . S
C245 C246 1.400 1_655 S
C246 C245 1.400 1_455 S
C246 C247 1.398 . S
C246 C252 1.491 . S
C247 H238 0.950 . S
C247 C246 1.398 . S
C247 C248 1.391 . S
C248 H236 0.950 . S
C248 C244 1.393 . S
C248 C247 1.391 . S
C249 H239 0.950 . S
C249 C250 1.386 . S
C249 C251 1.391 . S
C250 C249 1.386 . S
C250 C254 1.393 1_455 S
C251 H240 0.950 . S
C251 C249 1.391 . S
C251 C252 1.400 . S
C252 C246 1.491 . S
C252 C251 1.400 . S
C252 C253 1.398 1_455 S
C253 H241 0.950 . S
C253 C252 1.398 1_655 S
C253 C254 1.391 . S
C254 H242 0.950 . S
C254 C250 1.393 1_655 S
C254 C253 1.391 . S
H255 C263 0.947 1_565 S
H256 C268 0.950 . S
H257 C265 0.950 . S
H258 C267 0.950 . S
H259 C269 0.950 . S
H260 C271 0.950 . S
H261 C273 0.950 . S
H262 C274 0.950 . S
C263 H255 0.947 1_545 S
C263 C264 1.387 . S
C263 C265 1.392 . S
C264 C263 1.387 . S
C264 C268 1.393 . S
C265 H257 0.950 . S
C265 C263 1.392 . S
C265 C266 1.400 . S
C266 C265 1.400 . S
C266 C267 1.398 . S
C266 C272 1.491 . S
C267 H258 0.950 . S
C267 C266 1.398 . S
C267 C268 1.391 . S
C268 H256 0.950 . S
C268 C264 1.393 . S
C268 C267 1.391 . S
C269 H259 0.950 . S
C269 C270 1.386 . S
C269 C271 1.391 . S
C270 C269 1.386 . S
C270 C274 1.393 . S
C271 H260 0.950 . S
C271 C269 1.391 . S
C271 C272 1.400 . S
C272 C266 1.491 . S
C272 C271 1.400 . S
C272 C273 1.398 . S
C273 H261 0.950 . S
C273 C272 1.398 . S
C273 C274 1.391 . S
C274 H262 0.950 . S
C274 C270 1.393 . S
C274 C273 1.391 . S
H275 C283 0.950 . S
H276 C288 0.950 . S
H277 C285 0.950 . S
H278 C287 0.950 . S
H279 C289 0.950 . S
H280 C291 0.950 . S
H281 C293 0.950 . S
H282 C294 0.950 . S
C283 H275 0.950 . S
C283 C284 1.386 . S
C283 C285 1.391 . S
C284 C283 1.386 . S
C284 C288 1.393 . S
C285 H277 0.950 . S
C285 C283 1.391 . S
C285 C286 1.400 . S
C286 C285 1.400 . S
C286 C287 1.398 . S
C286 C292 1.491 . S
C287 H278 0.950 . S
C287 C286 1.398 . S
C287 C288 1.391 . S
C288 H276 0.950 . S
C288 C284 1.393 . S
C288 C287 1.391 . S
C289 H279 0.950 . S
C289 C290 1.386 . S
C289 C291 1.391 . S
C290 C289 1.386 . S
C290 C294 1.393 . S
C291 H280 0.950 . S
C291 C289 1.391 . S
C291 C292 1.400 . S
C292 C286 1.491 . S
C292 C291 1.400 . S
C292 C293 1.398 . S
C293 H281 0.950 . S
C293 C292 1.398 . S
C293 C294 1.391 . S
C294 H282 0.950 . S
C294 C290 1.393 . S
C294 C293 1.391 . S
H295 C303 0.950 . S
H296 C308 0.950 . S
H297 C305 0.950 . S
H298 C307 0.950 . S
H299 C309 0.950 1_556 S
H300 C311 0.950 1_556 S
H301 C313 0.950 . S
H302 C314 0.950 . S
C303 H295 0.950 . S
C303 C304 1.386 . S
C303 C305 1.391 . S
C304 C303 1.386 . S
C304 C308 1.393 . S
C305 H297 0.950 . S
C305 C303 1.391 . S
C305 C306 1.400 . S
C306 C305 1.400 . S
C306 C307 1.398 . S
C306 C312 1.491 . S
C307 H298 0.950 . S
C307 C306 1.398 . S
C307 C308 1.391 . S
C308 H296 0.950 . S
C308 C304 1.393 . S
C308 C307 1.391 . S
C309 H299 0.950 1_554 S
C309 C310 1.386 . S
C309 C311 1.391 . S
C310 C309 1.386 . S
C310 C314 1.393 . S
C311 H300 0.950 1_554 S
C311 C309 1.391 . S
C311 C312 1.400 . S
C312 C306 1.491 . S
C312 C311 1.400 . S
C312 C313 1.398 . S
C313 H301 0.950 . S
C313 C312 1.398 . S
C313 C314 1.391 . S
C314 H302 0.950 . S
C314 C310 1.393 . S
C314 C313 1.391 . S
H315 C323 0.950 . S
H316 C328 0.950 1_556 S
H317 C325 0.950 . S
H318 C327 0.950 1_556 S
H319 C329 0.953 . S
H320 C331 0.950 1_556 S
H321 C333 0.950 . S
H322 C334 0.950 . S
C323 H315 0.950 . S
C323 C324 1.386 . S
C323 C325 1.391 . S
C324 C323 1.386 . S
C324 C328 1.393 . S
C325 H317 0.950 . S
C325 C323 1.391 . S
C325 C326 1.400 . S
C326 C325 1.400 . S
C326 C327 1.398 . S
C326 C332 1.491 . S
C327 H318 0.950 1_554 S
C327 C326 1.398 . S
C327 C328 1.391 . S
C328 H316 0.950 1_554 S
C328 C324 1.393 . S
C328 C327 1.391 . S
C329 H319 0.953 . S
C329 C330 1.382 1_556 S
C329 C331 1.391 1_556 S
C330 C329 1.382 1_554 S
C330 C334 1.393 . S
C331 H320 0.950 1_554 S
C331 C329 1.391 1_554 S
C331 C332 1.400 . S
C332 C326 1.491 . S
C332 C331 1.400 . S
C332 C333 1.398 . S
C333 H321 0.950 . S
C333 C332 1.398 . S
C333 C334 1.391 . S
C334 H322 0.950 . S
C334 C330 1.393 . S
C334 C333 1.391 . S
H335 C343 0.950 . S
H336 C348 0.950 . S
H337 C345 0.950 . S
H338 C347 0.950 . S
H339 C349 0.950 . S
H340 C351 0.950 . S
H341 C353 0.950 . S
H342 C354 0.950 . S
C343 H335 0.950 . S
C343 C344 1.386 . S
C343 C345 1.391 . S
C344 C343 1.386 . S
C344 C348 1.393 . S
C345 H337 0.950 . S
C345 C343 1.391 . S
C345 C346 1.400 . S
C346 C345 1.400 . S
C346 C347 1.398 . S
C346 C352 1.491 . S
C347 H338 0.950 . S
C347 C346 1.398 . S
C347 C348 1.391 . S
C348 H336 0.950 . S
C348 C344 1.393 . S
C348 C347 1.391 . S
C349 H339 0.950 . S
C349 C350 1.386 . S
C349 C351 1.391 . S
C350 C349 1.386 . S
C350 C354 1.393 . S
C351 H340 0.950 . S
C351 C349 1.391 . S
C351 C352 1.400 . S
C352 C346 1.491 . S
C352 C351 1.400 . S
C352 C353 1.398 . S
C353 H341 0.950 . S
C353 C352 1.398 . S
C353 C354 1.391 . S
C354 H342 0.950 . S
C354 C350 1.393 . S
C354 C353 1.391 . S
C130 C99 1.323 1_455 S
C124 C9 1.346 . S
C150 C95 1.657 1_545 S
C144 C38 1.694 1_565 S
C170 C105 1.316 1_655 S
C164 C17 1.344 1_455 S
C190 C89 1.640 1_565 S
C184 C30 1.710 . S
C204 C19 1.449 . S
C210 C81 1.391 . S
C230 C113 1.766 . S
C224 C33 1.804 1_565 S
C244 C12 1.463 1_455 S
C250 C67 1.401 . S
C264 C40 1.819 . S
C270 C111 1.750 . S
C284 C59 1.381 . S
C290 C93 1.408 . S
C304 C61 1.417 . S
C310 C108 1.389 . S
C330 C102 1.396 . S
C324 C51 1.418 . S
C350 C97 1.409 . S
C344 C54 1.391 . S
