# Generated by pormake.
# Topology ptr, (4,4)-cn, num edge types: 1
# Building blocks:
#     Node 0, Type 0, BuildingBlock: AZAVOO_clean_sbu_0, # of connection points: 4
#     Node 1, Type 0, BuildingBlock: AZAVOO_clean_sbu_0, # of connection points: 4
#     Node 2, Type 0, BuildingBlock: AZAVOO_clean_sbu_0, # of connection points: 4
#     Node 3, Type 0, BuildingBlock: AZAVOO_clean_sbu_0, # of connection points: 4
#     Node 4, Type 0, BuildingBlock: AZAVOO_clean_sbu_0, # of connection points: 4
#     Node 5, Type 0, BuildingBlock: AZAVOO_clean_sbu_0, # of connection points: 4
#     Node 6, Type 0, BuildingBlock: AZAVOO_clean_sbu_0, # of connection points: 4
#     Node 7, Type 0, BuildingBlock: AZAVOO_clean_sbu_0, # of connection points: 4
#     Node 8, Type 0, BuildingBlock: AZAVOO_clean_sbu_0, # of connection points: 4
#     Node 9, Type 0, BuildingBlock: AZAVOO_clean_sbu_0, # of connection points: 4
#     Node 10, Type 0, BuildingBlock: AZAVOO_clean_sbu_0, # of connection points: 4
#     Node 11, Type 0, BuildingBlock: AZAVOO_clean_sbu_0, # of connection points: 4
#     Node 12, Type 0, BuildingBlock: AZAVOO_clean_sbu_0, # of connection points: 4
#     Node 13, Type 0, BuildingBlock: AZAVOO_clean_sbu_0, # of connection points: 4
#     Node 14, Type 0, BuildingBlock: AZAVOO_clean_sbu_0, # of connection points: 4
#     Node 15, Type 0, BuildingBlock: AZAVOO_clean_sbu_0, # of connection points: 4
#     Node 16, Type 0, BuildingBlock: AZAVOO_clean_sbu_0, # of connection points: 4
#     Node 17, Type 0, BuildingBlock: AZAVOO_clean_sbu_0, # of connection points: 4
#     Node 18, Type 1, BuildingBlock: NAHDIM_clean_linker_0, # of connection points: 4
#     Node 19, Type 1, BuildingBlock: NAHDIM_clean_linker_0, # of connection points: 4
#     Node 20, Type 1, BuildingBlock: NAHDIM_clean_linker_0, # of connection points: 4
#     Node 21, Type 1, BuildingBlock: NAHDIM_clean_linker_0, # of connection points: 4
#     Node 22, Type 1, BuildingBlock: NAHDIM_clean_linker_0, # of connection points: 4
#     Node 23, Type 1, BuildingBlock: NAHDIM_clean_linker_0, # of connection points: 4
#     Node 24, Type 1, BuildingBlock: NAHDIM_clean_linker_0, # of connection points: 4
#     Node 25, Type 1, BuildingBlock: NAHDIM_clean_linker_0, # of connection points: 4
#     Node 26, Type 1, BuildingBlock: NAHDIM_clean_linker_0, # of connection points: 4
#     Node 27, Type 1, BuildingBlock: NAHDIM_clean_linker_0, # of connection points: 4
#     Node 28, Type 1, BuildingBlock: NAHDIM_clean_linker_0, # of connection points: 4
#     Node 29, Type 1, BuildingBlock: NAHDIM_clean_linker_0, # of connection points: 4
#     Node 30, Type 1, BuildingBlock: NAHDIM_clean_linker_0, # of connection points: 4
#     Node 31, Type 1, BuildingBlock: NAHDIM_clean_linker_0, # of connection points: 4
#     Node 32, Type 1, BuildingBlock: NAHDIM_clean_linker_0, # of connection points: 4
#     Node 33, Type 1, BuildingBlock: NAHDIM_clean_linker_0, # of connection points: 4
#     Node 34, Type 1, BuildingBlock: NAHDIM_clean_linker_0, # of connection points: 4
#     Node 35, Type 1, BuildingBlock: NAHDIM_clean_linker_0, # of connection points: 4
#     Edge 36, Type (0, 1), BuildingBlock: XIVTED_clean_linker_0, # of connection points: 2
#     Edge 37, Type (0, 1), BuildingBlock: XIVTED_clean_linker_0, # of connection points: 2
#     Edge 38, Type (0, 1), BuildingBlock: XIVTED_clean_linker_0, # of connection points: 2
#     Edge 39, Type (0, 1), BuildingBlock: XIVTED_clean_linker_0, # of connection points: 2
#     Edge 40, Type (0, 1), BuildingBlock: XIVTED_clean_linker_0, # of connection points: 2
#     Edge 41, Type (0, 1), BuildingBlock: XIVTED_clean_linker_0, # of connection points: 2
#     Edge 42, Type (0, 1), BuildingBlock: XIVTED_clean_linker_0, # of connection points: 2
#     Edge 43, Type (0, 1), BuildingBlock: XIVTED_clean_linker_0, # of connection points: 2
#     Edge 44, Type (0, 1), BuildingBlock: XIVTED_clean_linker_0, # of connection points: 2
#     Edge 45, Type (0, 1), BuildingBlock: XIVTED_clean_linker_0, # of connection points: 2
#     Edge 46, Type (0, 1), BuildingBlock: XIVTED_clean_linker_0, # of connection points: 2
#     Edge 47, Type (0, 1), BuildingBlock: XIVTED_clean_linker_0, # of connection points: 2
#     Edge 48, Type (0, 1), BuildingBlock: XIVTED_clean_linker_0, # of connection points: 2
#     Edge 49, Type (0, 1), BuildingBlock: XIVTED_clean_linker_0, # of connection points: 2
#     Edge 50, Type (0, 1), BuildingBlock: XIVTED_clean_linker_0, # of connection points: 2
#     Edge 51, Type (0, 1), BuildingBlock: XIVTED_clean_linker_0, # of connection points: 2
#     Edge 52, Type (0, 1), BuildingBlock: XIVTED_clean_linker_0, # of connection points: 2
#     Edge 53, Type (0, 1), BuildingBlock: XIVTED_clean_linker_0, # of connection points: 2
#     Edge 54, Type (0, 1), BuildingBlock: XIVTED_clean_linker_0, # of connection points: 2
#     Edge 55, Type (0, 1), BuildingBlock: XIVTED_clean_linker_0, # of connection points: 2
#     Edge 56, Type (0, 1), BuildingBlock: XIVTED_clean_linker_0, # of connection points: 2
#     Edge 57, Type (0, 1), BuildingBlock: XIVTED_clean_linker_0, # of connection points: 2
#     Edge 58, Type (0, 1), BuildingBlock: XIVTED_clean_linker_0, # of connection points: 2
#     Edge 59, Type (0, 1), BuildingBlock: XIVTED_clean_linker_0, # of connection points: 2
#     Edge 60, Type (0, 1), BuildingBlock: XIVTED_clean_linker_0, # of connection points: 2
#     Edge 61, Type (0, 1), BuildingBlock: XIVTED_clean_linker_0, # of connection points: 2
#     Edge 62, Type (0, 1), BuildingBlock: XIVTED_clean_linker_0, # of connection points: 2
#     Edge 63, Type (0, 1), BuildingBlock: XIVTED_clean_linker_0, # of connection points: 2
#     Edge 64, Type (0, 1), BuildingBlock: XIVTED_clean_linker_0, # of connection points: 2
#     Edge 65, Type (0, 1), BuildingBlock: XIVTED_clean_linker_0, # of connection points: 2
#     Edge 66, Type (0, 1), BuildingBlock: XIVTED_clean_linker_0, # of connection points: 2
#     Edge 67, Type (0, 1), BuildingBlock: XIVTED_clean_linker_0, # of connection points: 2
#     Edge 68, Type (0, 1), BuildingBlock: XIVTED_clean_linker_0, # of connection points: 2
#     Edge 69, Type (0, 1), BuildingBlock: XIVTED_clean_linker_0, # of connection points: 2
#     Edge 70, Type (0, 1), BuildingBlock: XIVTED_clean_linker_0, # of connection points: 2
#     Edge 71, Type (0, 1), BuildingBlock: XIVTED_clean_linker_0, # of connection points: 2
#     Edge 72, Type (0, 1), BuildingBlock: XIVTED_clean_linker_0, # of connection points: 2
#     Edge 73, Type (0, 1), BuildingBlock: XIVTED_clean_linker_0, # of connection points: 2
#     Edge 74, Type (0, 1), BuildingBlock: XIVTED_clean_linker_0, # of connection points: 2
#     Edge 75, Type (0, 1), BuildingBlock: XIVTED_clean_linker_0, # of connection points: 2
#     Edge 76, Type (0, 1), BuildingBlock: XIVTED_clean_linker_0, # of connection points: 2
#     Edge 77, Type (0, 1), BuildingBlock: XIVTED_clean_linker_0, # of connection points: 2
#     Edge 78, Type (0, 1), BuildingBlock: XIVTED_clean_linker_0, # of connection points: 2
#     Edge 79, Type (0, 1), BuildingBlock: XIVTED_clean_linker_0, # of connection points: 2
#     Edge 80, Type (0, 1), BuildingBlock: XIVTED_clean_linker_0, # of connection points: 2
#     Edge 81, Type (0, 1), BuildingBlock: XIVTED_clean_linker_0, # of connection points: 2
#     Edge 82, Type (0, 1), BuildingBlock: XIVTED_clean_linker_0, # of connection points: 2
#     Edge 83, Type (0, 1), BuildingBlock: XIVTED_clean_linker_0, # of connection points: 2
#     Edge 84, Type (0, 1), BuildingBlock: XIVTED_clean_linker_0, # of connection points: 2
#     Edge 85, Type (0, 1), BuildingBlock: XIVTED_clean_linker_0, # of connection points: 2
#     Edge 86, Type (0, 1), BuildingBlock: XIVTED_clean_linker_0, # of connection points: 2
#     Edge 87, Type (0, 1), BuildingBlock: XIVTED_clean_linker_0, # of connection points: 2
#     Edge 88, Type (0, 1), BuildingBlock: XIVTED_clean_linker_0, # of connection points: 2
#     Edge 89, Type (0, 1), BuildingBlock: XIVTED_clean_linker_0, # of connection points: 2
#     Edge 90, Type (0, 1), BuildingBlock: XIVTED_clean_linker_0, # of connection points: 2
#     Edge 91, Type (0, 1), BuildingBlock: XIVTED_clean_linker_0, # of connection points: 2
#     Edge 92, Type (0, 1), BuildingBlock: XIVTED_clean_linker_0, # of connection points: 2
#     Edge 93, Type (0, 1), BuildingBlock: XIVTED_clean_linker_0, # of connection points: 2
#     Edge 94, Type (0, 1), BuildingBlock: XIVTED_clean_linker_0, # of connection points: 2
#     Edge 95, Type (0, 1), BuildingBlock: XIVTED_clean_linker_0, # of connection points: 2
#     Edge 96, Type (0, 1), BuildingBlock: XIVTED_clean_linker_0, # of connection points: 2
#     Edge 97, Type (0, 1), BuildingBlock: XIVTED_clean_linker_0, # of connection points: 2
#     Edge 98, Type (0, 1), BuildingBlock: XIVTED_clean_linker_0, # of connection points: 2
#     Edge 99, Type (0, 1), BuildingBlock: XIVTED_clean_linker_0, # of connection points: 2
#     Edge 100, Type (0, 1), BuildingBlock: XIVTED_clean_linker_0, # of connection points: 2
#     Edge 101, Type (0, 1), BuildingBlock: XIVTED_clean_linker_0, # of connection points: 2
#     Edge 102, Type (0, 1), BuildingBlock: XIVTED_clean_linker_0, # of connection points: 2
#     Edge 103, Type (0, 1), BuildingBlock: XIVTED_clean_linker_0, # of connection points: 2
#     Edge 104, Type (0, 1), BuildingBlock: XIVTED_clean_linker_0, # of connection points: 2
#     Edge 105, Type (0, 1), BuildingBlock: XIVTED_clean_linker_0, # of connection points: 2
#     Edge 106, Type (0, 1), BuildingBlock: XIVTED_clean_linker_0, # of connection points: 2
#     Edge 107, Type (0, 1), BuildingBlock: XIVTED_clean_linker_0, # of connection points: 2
# Relax obj value: 0.102
# Max RMSD: 0.341
# Mean RMSD: 0.135
data_MOF--net-ptr--node1-AZAVOO_clean_sbu_0--node2-NAHDIM_clean_linker_0--edge1-XIVTED_clean_linker_0
_symmetry_space_group_name_H-M    P1
_symmetry_Int_Tables_number       1
_symmetry_cell_setting            triclinic
loop_
_symmetry_equiv_pos_as_xyz
'x, y, z'
_cell_length_a     95.295664
_cell_length_b     93.268914
_cell_length_c     77.985174
_cell_angle_alpha  91.779613
_cell_angle_beta   91.187993
_cell_angle_gamma 120.31197
loop_
_atom_site_label
_atom_site_type_symbol
_atom_site_fract_x
_atom_site_fract_y
_atom_site_fract_z
_atom_type_partial_charge
Mg0 Mg 0.02124 0.34503 0.98954 0.0
O1 O 0.01134 0.35197 0.01305 0.0
O2 O 0.98916 0.35265 0.00447 0.0
Mg3 Mg 0.98437 0.34555 0.97569 0.0
C4 C 0.99962 0.35449 0.01613 0.0
C5 C 0.04079 0.32892 0.00511 0.0
O6 O 0.03358 0.31828 0.99197 0.0
O7 O 0.00107 0.31766 0.98946 0.0
O8 O 0.97987 0.31922 0.97909 0.0
O9 O 0.03559 0.37209 0.98316 0.0
O10 O 0.01039 0.35449 0.97367 0.0
C11 C 0.98622 0.31073 0.984 0.0
C12 C 0.02254 0.36941 0.97482 0.0
O13 O 0.03807 0.34086 0.00739 0.0
Mg14 Mg 0.67152 0.64461 0.0344 0.0
O15 O 0.65049 0.64108 0.01641 0.0
O16 O 0.62971 0.63629 0.03282 0.0
Mg17 Mg 0.63686 0.63543 0.06081 0.0
C18 C 0.63601 0.63825 0.01816 0.0
C19 C 0.70339 0.66937 0.01742 0.0
O20 O 0.70666 0.67508 0.03349 0.0
O21 O 0.67582 0.66984 0.04398 0.0
O22 O 0.65553 0.66352 0.06159 0.0
O23 O 0.66294 0.61752 0.03169 0.0
O24 O 0.65463 0.62885 0.05136 0.0
C25 C 0.66861 0.67416 0.05476 0.0
C26 C 0.65339 0.61565 0.04407 0.0
O27 O 0.68966 0.6566 0.01337 0.0
Mg28 Mg 0.33538 0.98313 0.9835 0.0
O29 O 0.35528 0.99605 0.0046 0.0
O30 O 0.37837 0.01506 0.99338 0.0
Mg31 Mg 0.37198 0.01618 0.96509 0.0
C32 C 0.37035 0.00702 0.0061 0.0
C33 C 0.30648 0.95627 0.00475 0.0
O34 O 0.3063 0.94579 0.99298 0.0
O35 O 0.33127 0.00503 0.98351 0.0
O36 O 0.35391 0.02481 0.97221 0.0
O37 O 0.34539 0.96633 0.9776 0.0
O38 O 0.35256 0.98984 0.96492 0.0
C39 C 0.33999 0.01979 0.97851 0.0
C40 C 0.35453 0.97736 0.967 0.0
O41 O 0.31696 0.97164 0.00424 0.0
Mg42 Mg 0.98481 0.65928 0.03971 0.0
O43 O 0.99793 0.6524 0.01962 0.0
O44 O 0.01794 0.65091 0.03336 0.0
Mg45 Mg 0.01701 0.65597 0.06223 0.0
C46 C 0.00989 0.64983 0.01958 0.0
C47 C 0.9802 0.67511 0.00618 0.0
O48 O 0.99512 0.67844 0.00371 0.0
O49 O 0.00608 0.68574 0.04256 0.0
O50 O 0.02451 0.68345 0.05862 0.0
O51 O 0.96783 0.63227 0.04329 0.0
O52 O 0.99098 0.64761 0.05824 0.0
C53 C 0.01969 0.69223 0.05096 0.0
C54 C 0.97841 0.63319 0.05464 0.0
O55 O 0.97285 0.66702 0.01911 0.0
Mg56 Mg 0.34029 0.35438 0.99002 0.0
O57 O 0.3613 0.35972 0.00877 0.0
O58 O 0.38195 0.36251 0.99332 0.0
Mg59 Mg 0.37449 0.36056 0.96468 0.0
C60 C 0.37571 0.36222 0.00776 0.0
C61 C 0.31106 0.34814 0.01144 0.0
O62 O 0.31146 0.35876 0.00049 0.0
O63 O 0.33577 0.32847 0.98384 0.0
O64 O 0.35533 0.33255 0.9659 0.0
O65 O 0.34899 0.38149 0.98921 0.0
O66 O 0.35658 0.36792 0.97156 0.0
C67 C 0.34245 0.32292 0.9737 0.0
C68 C 0.3578 0.38179 0.97664 0.0
O69 O 0.32212 0.34435 0.01119 0.0
Mg70 Mg 0.67232 0.01853 0.03302 0.0
O71 O 0.65247 0.00416 0.01193 0.0
O72 O 0.63035 0.98468 0.02421 0.0
Mg73 Mg 0.63613 0.98676 0.05317 0.0
C74 C 0.63775 0.99217 0.01096 0.0
C75 C 0.70454 0.04281 0.01609 0.0
O76 O 0.70595 0.0514 0.03035 0.0
O77 O 0.67664 0.99696 0.0358 0.0
O78 O 0.65484 0.97821 0.04913 0.0
O79 O 0.66316 0.03616 0.0368 0.0
O80 O 0.65475 0.01322 0.05093 0.0
C81 C 0.66867 0.98299 0.04269 0.0
C82 C 0.65349 0.026 0.04777 0.0
O83 O 0.69156 0.02896 0.01293 0.0
Mg84 Mg 0.68894 0.68611 0.32872 0.0
O85 O 0.67292 0.69071 0.34723 0.0
O86 O 0.65625 0.69553 0.33095 0.0
Mg87 Mg 0.66235 0.69548 0.30274 0.0
C88 C 0.66136 0.69386 0.34561 0.0
C89 C 0.69787 0.66193 0.34583 0.0
O90 O 0.69447 0.65583 0.32989 0.0
O91 O 0.66741 0.66075 0.31998 0.0
O92 O 0.65284 0.66732 0.30254 0.0
O93 O 0.70771 0.71313 0.33033 0.0
O94 O 0.68703 0.70172 0.31135 0.0
C95 C 0.65542 0.65654 0.30939 0.0
C96 C 0.69954 0.71495 0.31797 0.0
O97 O 0.6966 0.67455 0.3498 0.0
Mg98 Mg 0.33318 0.97955 0.36878 0.0
O99 O 0.3103 0.97334 0.35263 0.0
O100 O 0.29106 0.97026 0.3705 0.0
Mg101 Mg 0.30161 0.9741 0.39807 0.0
C102 C 0.29592 0.97033 0.35534 0.0
C103 C 0.36318 0.99758 0.34642 0.0
O104 O 0.36902 0.00597 0.36119 0.0
O105 O 0.33856 0.00604 0.37457 0.0
O106 O 0.31977 0.00163 0.39368 0.0
O107 O 0.32432 0.95253 0.37034 0.0
O108 O 0.31939 0.9673 0.38948 0.0
C109 C 0.33202 0.01144 0.38513 0.0
C110 C 0.31734 0.95313 0.38419 0.0
O111 O 0.3482 0.98652 0.34496 0.0
Mg112 Mg 0.013 0.32577 0.32075 0.0
O113 O 0.03458 0.33762 0.34059 0.0
O114 O 0.05714 0.35187 0.32593 0.0
Mg115 Mg 0.0504 0.34872 0.29726 0.0
C116 C 0.05001 0.347 0.34006 0.0
C117 C 0.99009 0.30661 0.3501 0.0
O118 O 0.99672 0.29742 0.34719 0.0
O119 O 0.01541 0.3512 0.31737 0.0
O120 O 0.03767 0.36368 0.30195 0.0
O121 O 0.01562 0.30322 0.31722 0.0
O122 O 0.02802 0.32551 0.302 0.0
C123 C 0.02576 0.36362 0.30926 0.0
C124 C 0.02579 0.31116 0.30552 0.0
O125 O 0.99478 0.31969 0.3418 0.0
Mg126 Mg 0.64833 0.97227 0.3533 0.0
O127 O 0.66481 0.96789 0.33549 0.0
O128 O 0.68326 0.96628 0.35221 0.0
Mg129 Mg 0.67788 0.96833 0.3804 0.0
C130 C 0.67721 0.96614 0.33739 0.0
C131 C 0.62317 0.97233 0.32773 0.0
O132 O 0.6141 0.95882 0.336 0.0
O133 O 0.6685 0.99898 0.35939 0.0
O134 O 0.68486 0.99568 0.37775 0.0
O135 O 0.63134 0.94487 0.35481 0.0
O136 O 0.65246 0.95981 0.37265 0.0
C137 C 0.68091 0.00497 0.36975 0.0
C138 C 0.64028 0.9455 0.36788 0.0
O139 O 0.6384 0.98053 0.33123 0.0
Mg140 Mg 0.01692 0.69043 0.32973 0.0
O141 O 0.03729 0.69565 0.34955 0.0
O142 O 0.05935 0.70152 0.33495 0.0
Mg143 Mg 0.05358 0.70146 0.30623 0.0
C144 C 0.05215 0.6994 0.34908 0.0
C145 C 0.98896 0.68498 0.35291 0.0
O146 O 0.99286 0.69919 0.34616 0.0
O147 O 0.01428 0.66551 0.32143 0.0
O148 O 0.03577 0.67313 0.30518 0.0
O149 O 0.02407 0.71734 0.33052 0.0
O150 O 0.03378 0.70603 0.31266 0.0
C151 C 0.02254 0.66191 0.31131 0.0
C152 C 0.03358 0.71906 0.31814 0.0
O153 O 0.99732 0.67819 0.34942 0.0
Mg154 Mg 0.32846 0.35381 0.35745 0.0
O155 O 0.3078 0.3374 0.33777 0.0
O156 O 0.28692 0.31843 0.35206 0.0
Mg157 Mg 0.29399 0.32341 0.38084 0.0
C158 C 0.29341 0.32487 0.33804 0.0
C159 C 0.35875 0.37813 0.33828 0.0
O160 O 0.35921 0.38757 0.35139 0.0
O161 O 0.33358 0.33296 0.36165 0.0
O162 O 0.31304 0.31523 0.37722 0.0
O163 O 0.31921 0.37142 0.3605 0.0
O164 O 0.31189 0.34961 0.37619 0.0
C165 C 0.32645 0.31971 0.36993 0.0
C166 C 0.31052 0.36225 0.37263 0.0
O167 O 0.34683 0.36334 0.33644 0.0
Mg168 Mg 0.35265 0.02506 0.65859 0.0
O169 O 0.33709 0.03018 0.67722 0.0
O170 O 0.31931 0.03356 0.66124 0.0
Mg171 Mg 0.32403 0.03168 0.63285 0.0
C172 C 0.32527 0.03293 0.67583 0.0
C173 C 0.36867 0.00748 0.67716 0.0
O174 O 0.36739 0.00158 0.66133 0.0
O175 O 0.33145 0.99876 0.65203 0.0
O176 O 0.31564 0.00389 0.63477 0.0
O177 O 0.37058 0.05208 0.65834 0.0
O178 O 0.34931 0.03913 0.64019 0.0
C179 C 0.31889 0.99373 0.64201 0.0
C180 C 0.36177 0.05289 0.64599 0.0
O181 O 0.36271 0.0167 0.68049 0.0
Mg182 Mg 0.9935 0.31853 0.70324 0.0
O183 O 0.97275 0.30807 0.6824 0.0
O184 O 0.94954 0.29847 0.69616 0.0
Mg185 Mg 0.95495 0.30172 0.72506 0.0
C186 C 0.95726 0.30132 0.68233 0.0
C187 C 0.01638 0.32351 0.67321 0.0
O188 O 0.00844 0.30723 0.6738 0.0
O189 O 0.99035 0.34118 0.70806 0.0
O190 O 0.96747 0.32976 0.72252 0.0
O191 O 0.99155 0.29353 0.70516 0.0
O192 O 0.97769 0.30195 0.72052 0.0
C193 C 0.97946 0.34236 0.71625 0.0
C194 C 0.98061 0.29029 0.71633 0.0
O195 O 0.01261 0.3319 0.6833 0.0
Mg196 Mg 0.66995 0.64582 0.65536 0.0
O197 O 0.69141 0.66193 0.67449 0.0
O198 O 0.71194 0.6806 0.65954 0.0
Mg199 Mg 0.70387 0.67641 0.63118 0.0
C200 C 0.70592 0.67419 0.67372 0.0
C201 C 0.63853 0.63447 0.67418 0.0
O202 O 0.63507 0.63739 0.65874 0.0
O203 O 0.6652 0.66723 0.65269 0.0
O204 O 0.68572 0.68508 0.63721 0.0
O205 O 0.67956 0.62847 0.65124 0.0
O206 O 0.68597 0.65034 0.63594 0.0
C207 C 0.67265 0.68085 0.64506 0.0
C208 C 0.68817 0.6382 0.63941 0.0
O209 O 0.6525 0.63627 0.67733 0.0
Mg210 Mg 0.3165 0.31429 0.68491 0.0
O211 O 0.33152 0.30883 0.66586 0.0
O212 O 0.34886 0.3045 0.68146 0.0
Mg213 Mg 0.34417 0.30581 0.70999 0.0
C214 C 0.34307 0.30566 0.66699 0.0
C215 C 0.29302 0.32108 0.66383 0.0
O216 O 0.28325 0.30972 0.67416 0.0
O217 O 0.33826 0.33991 0.69209 0.0
O218 O 0.35352 0.33385 0.70913 0.0
O219 O 0.29767 0.28714 0.68545 0.0
O220 O 0.31935 0.30001 0.70297 0.0
C221 C 0.35065 0.3444 0.70217 0.0
C222 C 0.30637 0.28643 0.69803 0.0
O223 O 0.30796 0.32528 0.66423 0.0
Mg224 Mg 0.68285 0.02942 0.66236 0.0
O225 O 0.70337 0.03333 0.68123 0.0
O226 O 0.7236 0.03503 0.66579 0.0
Mg227 Mg 0.71659 0.0337 0.6372 0.0
C228 C 0.71746 0.03494 0.68021 0.0
C229 C 0.66043 0.03084 0.69008 0.0
O230 O 0.66758 0.04621 0.68517 0.0
O231 O 0.67647 0.00276 0.65602 0.0
O232 O 0.6963 0.0063 0.63874 0.0
O233 O 0.69315 0.05689 0.66104 0.0
O234 O 0.69943 0.04206 0.64369 0.0
C235 C 0.68299 0.9969 0.64601 0.0
C236 C 0.70138 0.05633 0.64829 0.0
O237 O 0.66465 0.02096 0.68366 0.0
Mg238 Mg 0.98304 0.68718 0.69085 0.0
O239 O 0.96397 0.67252 0.6692 0.0
O240 O 0.94089 0.65475 0.68139 0.0
Mg241 Mg 0.94487 0.6594 0.71064 0.0
C242 C 0.94912 0.66082 0.66809 0.0
C243 C 0.01705 0.69846 0.68003 0.0
O244 O 0.01772 0.6978 0.69682 0.0
O245 O 0.9845 0.66439 0.69652 0.0
O246 O 0.962 0.64852 0.7106 0.0
O247 O 0.97657 0.70707 0.69168 0.0
O248 O 0.96522 0.68479 0.70711 0.0
C249 C 0.97557 0.65143 0.70469 0.0
C250 C 0.96609 0.69844 0.70291 0.0
O251 O 0.00364 0.695 0.6726 0.0
C252 C 0.19947 0.25159 0.04244 0.0
C253 C 0.20351 0.26622 0.05498 0.0
C254 C 0.19436 0.26474 0.08393 0.0
C255 C 0.1975 0.28102 0.08687 0.0
C256 C 0.18903 0.2846 0.09918 0.0
C257 C 0.17685 0.27151 0.10837 0.0
C258 C 0.17378 0.25507 0.10545 0.0
C259 C 0.18293 0.25201 0.09357 0.0
C260 C 0.19297 0.30234 0.10218 0.0
C261 C 0.16055 0.24061 0.11446 0.0
C262 C 0.09293 0.31321 0.07392 0.0
C263 C 0.10402 0.3125 0.08704 0.0
C264 C 0.11214 0.29321 0.09758 0.0
C265 C 0.10789 0.27656 0.09848 0.0
C266 C 0.11813 0.27209 0.10704 0.0
C267 C 0.13307 0.28464 0.11481 0.0
C268 C 0.13747 0.30154 0.11397 0.0
C269 C 0.12694 0.30565 0.10546 0.0
C270 C 0.11305 0.25397 0.10776 0.0
C271 C 0.1534 0.31527 0.12193 0.0
C272 C 0.11155 0.27661 0.2259 0.0
C273 C 0.10975 0.26124 0.22049 0.0
C274 C 0.12165 0.26055 0.21076 0.0
C275 C 0.13576 0.2755 0.20675 0.0
C276 C 0.13801 0.29094 0.21301 0.0
C277 C 0.12581 0.29127 0.22245 0.0
C278 C 0.11899 0.24387 0.20443 0.0
C279 C 0.15309 0.30709 0.20932 0.0
C280 C 0.24313 0.26029 0.2198 0.0
C281 C 0.23602 0.27136 0.22426 0.0
C282 C 0.20802 0.26454 0.21728 0.0
C283 C 0.19262 0.251 0.21284 0.0
C284 C 0.18061 0.2532 0.20471 0.0
C285 C 0.18406 0.26943 0.20122 0.0
C286 C 0.19946 0.28327 0.2062 0.0
C287 C 0.21131 0.28069 0.2142 0.0
C288 C 0.16427 0.23817 0.19975 0.0
C289 C 0.20338 0.30076 0.20304 0.0
C290 C 0.16673 0.27483 0.12027 0.0
C291 C 0.15496 0.27785 0.11307 0.0
C292 C 0.1444 0.28024 0.12334 0.0
C293 C 0.14514 0.27895 0.14132 0.0
C294 C 0.13406 0.28025 0.15195 0.0
C295 C 0.13481 0.27885 0.16961 0.0
C296 C 0.14687 0.27641 0.17737 0.0
C297 C 0.14777 0.27502 0.19532 0.0
C298 C 0.16006 0.2729 0.20266 0.0
C299 C 0.17149 0.27191 0.19251 0.0
C300 C 0.17062 0.27295 0.17449 0.0
C301 C 0.18173 0.27172 0.16385 0.0
C302 C 0.18061 0.27251 0.14611 0.0
C303 C 0.1683 0.27451 0.13832 0.0
C304 C 0.15724 0.27624 0.14884 0.0
C305 C 0.15827 0.27524 0.16692 0.0
C306 C 0.07405 0.25985 0.2194 0.0
C307 C 0.08392 0.26577 0.23659 0.0
O308 O 0.20194 0.26095 0.07161 0.0
O309 O 0.21925 0.26148 0.22463 0.0
O310 O 0.09988 0.27802 0.23419 0.0
O311 O 0.10177 0.29675 0.08892 0.0
H312 H 0.19444 0.27011 0.05207 0.0
H313 H 0.18677 0.24143 0.04404 0.0
H314 H 0.20777 0.24668 0.04484 0.0
H315 H 0.20056 0.2555 0.02899 0.0
H316 H 0.20659 0.29091 0.07956 0.0
H317 H 0.18069 0.2395 0.09118 0.0
H318 H 0.18313 0.30381 0.09619 0.0
H319 H 0.20464 0.31132 0.09654 0.0
H320 H 0.1937 0.30551 0.11614 0.0
H321 H 0.15768 0.22845 0.10836 0.0
H322 H 0.14925 0.24129 0.11444 0.0
H323 H 0.16455 0.24105 0.12802 0.0
H324 H 0.10563 0.31956 0.09943 0.0
H325 H 0.08246 0.30006 0.07153 0.0
H326 H 0.1096 0.32812 0.05347 0.0
H327 H 0.08552 0.3176 0.08114 0.0
H328 H 0.09647 0.26704 0.09239 0.0
H329 H 0.13042 0.3186 0.10491 0.0
H330 H 0.11352 0.25079 0.12128 0.0
H331 H 0.12168 0.25158 0.10062 0.0
H332 H 0.10057 0.24565 0.10212 0.0
H333 H 0.15539 0.32782 0.1195 0.0
H334 H 0.16365 0.31427 0.11674 0.0
H335 H 0.15363 0.31396 0.13601 0.0
H336 H 0.08374 0.25508 0.24274 0.0
H337 H 0.09903 0.24976 0.22357 0.0
H338 H 0.1272 0.30306 0.22692 0.0
H339 H 0.11913 0.24334 0.19019 0.0
H340 H 0.10726 0.23338 0.20845 0.0
H341 H 0.12906 0.24224 0.20943 0.0
H342 H 0.15358 0.31794 0.21623 0.0
H343 H 0.15341 0.309 0.19532 0.0
H344 H 0.16412 0.30656 0.21309 0.0
H345 H 0.23948 0.28035 0.21389 0.0
H346 H 0.25658 0.26791 0.21922 0.0
H347 H 0.2381 0.25382 0.20705 0.0
H348 H 0.24001 0.25078 0.22952 0.0
H349 H 0.19014 0.23861 0.21549 0.0
H350 H 0.22301 0.29131 0.21819 0.0
H351 H 0.16149 0.238 0.18582 0.0
H352 H 0.15465 0.2389 0.20683 0.0
H353 H 0.16377 0.22633 0.20262 0.0
H354 H 0.21571 0.31024 0.2082 0.0
H355 H 0.19426 0.30315 0.20908 0.0
H356 H 0.20265 0.30222 0.18903 0.0
H357 H 0.15401 0.27839 0.09924 0.0
H358 H 0.12457 0.28218 0.14669 0.0
H359 H 0.12585 0.27979 0.17711 0.0
H360 H 0.16067 0.27191 0.21645 0.0
H361 H 0.19139 0.27005 0.16911 0.0
H362 H 0.18951 0.27151 0.13855 0.0
H363 H 0.06109 0.25074 0.22161 0.0
H364 H 0.07866 0.25362 0.21079 0.0
H365 H 0.07473 0.27052 0.21272 0.0
C366 C 0.73595 0.91989 0.04731 0.0
C367 C 0.7248 0.9176 0.06211 0.0
C368 C 0.73075 0.9133 0.09143 0.0
C369 C 0.71478 0.9023 0.09609 0.0
C370 C 0.71179 0.89164 0.1096 0.0
C371 C 0.72504 0.89197 0.11854 0.0
C372 C 0.74117 0.90377 0.11452 0.0
C373 C 0.74379 0.91448 0.10114 0.0
C374 C 0.69446 0.87957 0.11387 0.0
C375 C 0.75561 0.90447 0.12371 0.0
C376 C 0.70185 0.76842 0.08139 0.0
C377 C 0.70972 0.78634 0.08635 0.0
C378 C 0.70411 0.80489 0.10402 0.0
C379 C 0.72048 0.81753 0.10655 0.0
C380 C 0.7247 0.83217 0.11626 0.0
C381 C 0.7123 0.83429 0.12341 0.0
C382 C 0.69583 0.82158 0.12092 0.0
C383 C 0.69198 0.80699 0.11133 0.0
C384 C 0.74238 0.84548 0.11873 0.0
C385 C 0.68228 0.82353 0.12814 0.0
C386 C 0.71983 0.82098 0.23696 0.0
C387 C 0.7348 0.83521 0.23382 0.0
C388 C 0.73549 0.84758 0.22347 0.0
C389 C 0.7209 0.84598 0.21649 0.0
C390 C 0.70578 0.83195 0.2201 0.0
C391 C 0.70548 0.81951 0.23007 0.0
C392 C 0.75186 0.86235 0.21995 0.0
C393 C 0.68994 0.83001 0.21333 0.0
C394 C 0.74252 0.97465 0.22728 0.0
C395 C 0.73083 0.95654 0.23123 0.0
C396 C 0.73577 0.93333 0.2268 0.0
C397 C 0.74837 0.93013 0.22403 0.0
C398 C 0.74527 0.91492 0.21642 0.0
C399 C 0.72907 0.90249 0.21181 0.0
C400 C 0.71615 0.90538 0.21527 0.0
C401 C 0.71963 0.92079 0.22274 0.0
C402 C 0.75934 0.91226 0.21301 0.0
C403 C 0.69871 0.89225 0.21085 0.0
C404 C 0.72205 0.87856 0.13027 0.0
C405 C 0.71869 0.86333 0.12268 0.0
C406 C 0.71644 0.8502 0.13259 0.0
C407 C 0.71786 0.85229 0.15069 0.0
C408 C 0.71649 0.83961 0.16104 0.0
C409 C 0.71787 0.84178 0.17885 0.0
C410 C 0.72037 0.8566 0.18702 0.0
C411 C 0.72157 0.85884 0.20515 0.0
C412 C 0.72411 0.87378 0.2128 0.0
C413 C 0.72573 0.88672 0.20285 0.0
C414 C 0.72468 0.88475 0.18472 0.0
C415 C 0.72647 0.89759 0.1743 0.0
C416 C 0.72557 0.8956 0.15647 0.0
C417 C 0.72284 0.88069 0.14837 0.0
C418 C 0.72085 0.86752 0.15861 0.0
C419 C 0.7219 0.8696 0.1768 0.0
C420 C 0.72618 0.79384 0.26615 0.0
C421 C 0.73125 0.80874 0.25607 0.0
O422 O 0.73397 0.92264 0.07746 0.0
O423 O 0.73969 0.94861 0.23344 0.0
O424 O 0.71871 0.80841 0.24636 0.0
O425 O 0.6995 0.79056 0.09465 0.0
H426 H 0.71567 0.90405 0.06182 0.0
H427 H 0.74137 0.91188 0.04893 0.0
H428 H 0.74601 0.933 0.04703 0.0
H429 H 0.7289 0.91624 0.03484 0.0
H430 H 0.70465 0.90184 0.08903 0.0
H431 H 0.75607 0.92324 0.09761 0.0
H432 H 0.69118 0.86685 0.10915 0.0
H433 H 0.68574 0.88271 0.10786 0.0
H434 H 0.69317 0.87937 0.128 0.0
H435 H 0.76737 0.91426 0.11891 0.0
H436 H 0.75494 0.89227 0.12203 0.0
H437 H 0.75539 0.90697 0.13767 0.0
H438 H 0.71707 0.79508 0.07642 0.0
H439 H 0.71507 0.75947 0.09799 0.0
H440 H 0.68827 0.76322 0.08161 0.0
H441 H 0.70205 0.76772 0.06692 0.0
H442 H 0.73002 0.81608 0.10094 0.0
H443 H 0.67941 0.79717 0.10932 0.0
H444 H 0.74547 0.84925 0.13257 0.0
H445 H 0.74456 0.85665 0.11188 0.0
H446 H 0.75065 0.84131 0.1138 0.0
H447 H 0.67007 0.81274 0.12452 0.0
H448 H 0.68296 0.83498 0.12348 0.0
H449 H 0.68372 0.82491 0.14236 0.0
H450 H 0.74272 0.81293 0.24919 0.0
H451 H 0.74603 0.8367 0.23918 0.0
H452 H 0.69398 0.80858 0.23263 0.0
H453 H 0.75283 0.86462 0.20601 0.0
H454 H 0.76208 0.86066 0.22431 0.0
H455 H 0.75316 0.87359 0.2268 0.0
H456 H 0.67925 0.81965 0.2192 0.0
H457 H 0.68875 0.82749 0.19922 0.0
H458 H 0.68975 0.8417 0.21585 0.0
H459 H 0.72218 0.95089 0.2199 0.0
H460 H 0.73573 0.9813 0.22526 0.0
H461 H 0.74894 0.97516 0.21538 0.0
H462 H 0.75175 0.98113 0.23797 0.0
H463 H 0.76075 0.9398 0.22745 0.0
H464 H 0.70973 0.92296 0.22543 0.0
H465 H 0.75925 0.90906 0.19915 0.0
H466 H 0.75801 0.90165 0.2203 0.0
H467 H 0.77128 0.92341 0.21676 0.0
H468 H 0.68998 0.896 0.21532 0.0
H469 H 0.69587 0.88043 0.21672 0.0
H470 H 0.69696 0.8898 0.19672 0.0
H471 H 0.71785 0.86169 0.10877 0.0
H472 H 0.71444 0.8279 0.15546 0.0
H473 H 0.71685 0.83163 0.18613 0.0
H474 H 0.7251 0.87546 0.22669 0.0
H475 H 0.72862 0.90936 0.17982 0.0
H476 H 0.72702 0.90587 0.14908 0.0
H477 H 0.73321 0.788 0.26097 0.0
H478 H 0.71407 0.78371 0.26039 0.0
H479 H 0.7291 0.80354 0.2934 0.0
C480 C 0.19866 0.92056 0.06695 0.0
C481 C 0.21199 0.92336 0.08031 0.0
C482 C 0.19563 0.90227 0.10089 0.0
C483 C 0.18747 0.9102 0.10736 0.0
C484 C 0.17457 0.90209 0.11842 0.0
C485 C 0.16996 0.88588 0.12335 0.0
C486 C 0.17866 0.8782 0.11754 0.0
C487 C 0.19137 0.88651 0.10635 0.0
C488 C 0.16559 0.91065 0.12448 0.0
C489 C 0.17424 0.86104 0.1228 0.0
C490 C 0.0592 0.81987 0.06179 0.0
C491 C 0.07006 0.81536 0.07229 0.0
C492 C 0.08331 0.82822 0.10005 0.0
C493 C 0.095 0.82338 0.10127 0.0
C494 C 0.10871 0.83206 0.11251 0.0
C495 C 0.11101 0.84623 0.12228 0.0
C496 C 0.09921 0.85117 0.1209 0.0
C497 C 0.08525 0.84175 0.11018 0.0
C498 C 0.1208 0.82616 0.11374 0.0
C499 C 0.10139 0.86659 0.13038 0.0
C500 C 0.08382 0.83226 0.23274 0.0
C501 C 0.09269 0.82477 0.22732 0.0
C502 C 0.10735 0.83393 0.21899 0.0
C503 C 0.11305 0.8508 0.21573 0.0
C504 C 0.10437 0.85848 0.22167 0.0
C505 C 0.08997 0.84913 0.23034 0.0
C506 C 0.11661 0.82551 0.21346 0.0
C507 C 0.11015 0.87649 0.21862 0.0
C508 C 0.22646 0.95463 0.23983 0.0
C509 C 0.21814 0.94159 0.2533 0.0
C510 C 0.19964 0.91547 0.23673 0.0
C511 C 0.19669 0.89953 0.23223 0.0
C512 C 0.18276 0.88813 0.22233 0.0
C513 C 0.17159 0.89289 0.21664 0.0
C514 C 0.17451 0.90902 0.22103 0.0
C515 C 0.18845 0.92013 0.23108 0.0
C516 C 0.17998 0.871 0.21792 0.0
C517 C 0.16288 0.91454 0.21505 0.0
C518 C 0.15532 0.87644 0.13353 0.0
C519 C 0.14056 0.86616 0.12448 0.0
C520 C 0.12623 0.85646 0.133 0.0
C521 C 0.12659 0.857 0.15118 0.0
C522 C 0.11255 0.84714 0.16024 0.0
C523 C 0.1129 0.84825 0.1781 0.0
C524 C 0.12741 0.85901 0.18762 0.0
C525 C 0.12786 0.86033 0.20578 0.0
C526 C 0.14247 0.87124 0.2148 0.0
C527 C 0.15675 0.88098 0.20621 0.0
C528 C 0.15658 0.87973 0.18807 0.0
C529 C 0.17076 0.88923 0.17902 0.0
C530 C 0.17042 0.88804 0.16116 0.0
C531 C 0.15586 0.87749 0.15167 0.0
C532 C 0.14143 0.86774 0.16052 0.0
C533 C 0.14182 0.86877 0.17875 0.0
C534 C 0.04095 0.80499 0.23493 0.0
C535 C 0.05789 0.80699 0.2364 0.0
O536 O 0.20737 0.90908 0.08917 0.0
O537 O 0.21341 0.92584 0.24638 0.0
O538 O 0.06928 0.82356 0.24018 0.0
O539 O 0.06996 0.81996 0.08934 0.0
H540 H 0.21429 0.93374 0.08952 0.0
H541 H 0.18735 0.91801 0.07324 0.0
H542 H 0.19574 0.90984 0.05798 0.0
H543 H 0.20274 0.93185 0.05945 0.0
H544 H 0.19085 0.92257 0.10364 0.0
H545 H 0.19784 0.88056 0.10148 0.0
H546 H 0.15259 0.90316 0.12011 0.0
H547 H 0.17075 0.92334 0.11963 0.0
H548 H 0.16604 0.91157 0.13873 0.0
H549 H 0.18307 0.85739 0.1184 0.0
H550 H 0.16198 0.85184 0.11726 0.0
H551 H 0.17371 0.86047 0.13699 0.0
H552 H 0.08259 0.82261 0.06746 0.0
H553 H 0.05975 0.81758 0.04782 0.0
H554 H 0.0634 0.83328 0.06408 0.0
H555 H 0.04637 0.81248 0.0656 0.0
H556 H 0.0933 0.8127 0.09359 0.0
H557 H 0.07605 0.84529 0.10914 0.0
H558 H 0.12504 0.82687 0.12728 0.0
H559 H 0.13155 0.83431 0.10628 0.0
H560 H 0.11556 0.81318 0.10846 0.0
H561 H 0.09322 0.87071 0.12492 0.0
H562 H 0.11415 0.87698 0.12999 0.0
H563 H 0.0985 0.86393 0.14403 0.0
H564 H 0.06001 0.80301 0.22355 0.0
H565 H 0.08823 0.81182 0.22965 0.0
H566 H 0.08313 0.85482 0.23479 0.0
H567 H 0.11592 0.82399 0.19924 0.0
H568 H 0.11169 0.81305 0.21883 0.0
H569 H 0.12966 0.83332 0.21757 0.0
H570 H 0.10116 0.88011 0.22248 0.0
H571 H 0.1126 0.87895 0.20484 0.0
H572 H 0.12172 0.88449 0.22613 0.0
H573 H 0.20731 0.942 0.25771 0.0
H574 H 0.23055 0.96727 0.24553 0.0
H575 H 0.21791 0.95227 0.22881 0.0
H576 H 0.23715 0.95431 0.23488 0.0
H577 H 0.20537 0.89602 0.2366 0.0
H578 H 0.19049 0.93241 0.23433 0.0
H579 H 0.17952 0.86902 0.20376 0.0
H580 H 0.16807 0.86145 0.22261 0.0
H581 H 0.18968 0.8691 0.22359 0.0
H582 H 0.16719 0.92772 0.21896 0.0
H583 H 0.15081 0.90658 0.22049 0.0
H584 H 0.16119 0.913 0.20085 0.0
H585 H 0.14023 0.86572 0.11054 0.0
H586 H 0.10107 0.83853 0.15362 0.0
H587 H 0.10162 0.84056 0.18434 0.0
H588 H 0.14269 0.87232 0.22872 0.0
H589 H 0.18228 0.89769 0.18564 0.0
H590 H 0.1817 0.89563 0.15487 0.0
H591 H 0.03802 0.80938 0.24701 0.0
H592 H 0.03158 0.79175 0.23204 0.0
H593 H 0.04045 0.81243 0.22432 0.0
C594 C 0.28702 0.0978 0.96762 0.0
C595 C 0.2901 0.08907 0.95245 0.0
C596 C 0.29572 0.10812 0.92891 0.0
C597 C 0.27949 0.10361 0.92497 0.0
C598 C 0.27576 0.11188 0.91254 0.0
C599 C 0.2885 0.12516 0.90414 0.0
C600 C 0.30484 0.12973 0.90808 0.0
C601 C 0.30819 0.12098 0.92025 0.0
C602 C 0.25818 0.10658 0.90857 0.0
C603 C 0.31877 0.14411 0.89972 0.0
C604 C 0.25027 0.19957 0.95332 0.0
C605 C 0.26566 0.20234 0.94468 0.0
C606 C 0.26612 0.1892 0.91761 0.0
C607 C 0.2823 0.19304 0.91681 0.0
C608 C 0.28632 0.18289 0.90694 0.0
C609 C 0.27378 0.1683 0.89818 0.0
C610 C 0.25739 0.16442 0.89911 0.0
C611 C 0.25386 0.17524 0.90844 0.0
C612 C 0.30395 0.18763 0.9061 0.0
C613 C 0.24353 0.14866 0.89069 0.0
C614 C 0.25727 0.17251 0.78545 0.0
C615 C 0.27372 0.18022 0.79088 0.0
C616 C 0.27951 0.1717 0.8006 0.0
C617 C 0.26852 0.15527 0.80522 0.0
C618 C 0.25205 0.1473 0.79919 0.0
C619 C 0.24672 0.15598 0.78913 0.0
C620 C 0.29728 0.18035 0.80616 0.0
C621 C 0.24001 0.12973 0.80367 0.0
C622 C 0.27795 0.04922 0.79386 0.0
C623 C 0.28099 0.06125 0.77956 0.0
C624 C 0.28904 0.08842 0.79388 0.0
C625 C 0.30193 0.1047 0.79691 0.0
C626 C 0.29967 0.11682 0.80545 0.0
C627 C 0.28409 0.11249 0.81114 0.0
C628 C 0.27099 0.096 0.80832 0.0
C629 C 0.2736 0.08411 0.79979 0.0
C630 C 0.31392 0.13426 0.80837 0.0
C631 C 0.25422 0.09096 0.8143 0.0
C632 C 0.28477 0.13499 0.89221 0.0
C633 C 0.28153 0.14683 0.89946 0.0
C634 C 0.27769 0.15651 0.88925 0.0
C635 C 0.27714 0.15442 0.87114 0.0
C636 C 0.27347 0.16402 0.86042 0.0
C637 C 0.2723 0.16139 0.84266 0.0
C638 C 0.27526 0.1494 0.83488 0.0
C639 C 0.27403 0.14657 0.81683 0.0
C640 C 0.27724 0.13469 0.80955 0.0
C641 C 0.28139 0.12525 0.81982 0.0
C642 C 0.28246 0.12772 0.8379 0.0
C643 C 0.28632 0.11824 0.84863 0.0
C644 C 0.28703 0.12055 0.86642 0.0
C645 C 0.28411 0.13256 0.87416 0.0
C646 C 0.28028 0.14233 0.86359 0.0
C647 C 0.27942 0.13988 0.84544 0.0
C648 C 0.23956 0.1974 0.78374 0.0
C649 C 0.25517 0.19699 0.78071 0.0
O650 O 0.30001 0.10064 0.94097 0.0
O651 O 0.29213 0.07741 0.78532 0.0
O652 O 0.25122 0.18075 0.77682 0.0
O653 O 0.26209 0.19883 0.9272 0.0
H654 H 0.2783 0.07986 0.94593 0.0
H655 H 0.2807 0.10432 0.96304 0.0
H656 H 0.2987 0.1071 0.97429 0.0
H657 H 0.27919 0.08858 0.9769 0.0
H658 H 0.26962 0.09376 0.93154 0.0
H659 H 0.32067 0.12439 0.92337 0.0
H660 H 0.25575 0.11635 0.91363 0.0
H661 H 0.24966 0.09468 0.91439 0.0
H662 H 0.25565 0.10517 0.89446 0.0
H663 H 0.33081 0.14675 0.90499 0.0
H664 H 0.31788 0.15547 0.90156 0.0
H665 H 0.31807 0.14128 0.88569 0.0
H666 H 0.26907 0.19356 0.95019 0.0
H667 H 0.25231 0.20139 0.9675 0.0
H668 H 0.2402 0.18664 0.95034 0.0
H669 H 0.24652 0.20831 0.9486 0.0
H670 H 0.29175 0.20404 0.92381 0.0
H671 H 0.2414 0.17248 0.90918 0.0
H672 H 0.30688 0.186 0.89273 0.0
H673 H 0.30622 0.17938 0.91422 0.0
H674 H 0.3123 0.20071 0.91079 0.0
H675 H 0.23155 0.14595 0.89544 0.0
H676 H 0.24512 0.13787 0.89305 0.0
H677 H 0.2433 0.14995 0.87661 0.0
H678 H 0.26258 0.20173 0.79301 0.0
H679 H 0.28202 0.19289 0.78753 0.0
H680 H 0.2341 0.15009 0.78463 0.0
H681 H 0.29863 0.18321 0.82022 0.0
H682 H 0.3046 0.19215 0.7996 0.0
H683 H 0.3023 0.17207 0.80346 0.0
H684 H 0.22738 0.12585 0.79924 0.0
H685 H 0.2403 0.12853 0.81778 0.0
H686 H 0.24343 0.12108 0.7976 0.0
H687 H 0.26924 0.06029 0.77564 0.0
H688 H 0.26926 0.03624 0.78914 0.0
H689 H 0.27264 0.05222 0.80497 0.0
H690 H 0.28949 0.05007 0.79838 0.0
H691 H 0.31382 0.10793 0.79243 0.0
H692 H 0.2635 0.07154 0.79788 0.0
H693 H 0.3157 0.13785 0.8223 0.0
H694 H 0.31133 0.14309 0.80175 0.0
H695 H 0.32538 0.13554 0.80359 0.0
H696 H 0.24525 0.07768 0.81096 0.0
H697 H 0.24988 0.09878 0.80841 0.0
H698 H 0.25473 0.09309 0.82844 0.0
H699 H 0.28184 0.14842 0.91334 0.0
H700 H 0.27127 0.17356 0.86565 0.0
H701 H 0.26911 0.16894 0.8351 0.0
H702 H 0.27621 0.13255 0.79571 0.0
H703 H 0.28872 0.10885 0.84339 0.0
H704 H 0.2899 0.11279 0.87404 0.0
H705 H 0.23105 0.19221 0.7723 0.0
H706 H 0.24245 0.21037 0.78667 0.0
H707 H 0.23337 0.18985 0.79484 0.0
C708 C 0.80957 0.0518 0.97146 0.0
C709 C 0.80624 0.06348 0.96108 0.0
C710 C 0.81407 0.07101 0.93203 0.0
C711 C 0.81195 0.0847 0.93032 0.0
C712 C 0.82104 0.09695 0.91874 0.0
C713 C 0.83284 0.09568 0.9091 0.0
C714 C 0.83487 0.08172 0.91076 0.0
C715 C 0.82509 0.06932 0.9219 0.0
C716 C 0.81823 0.1114 0.91711 0.0
C717 C 0.84768 0.08009 0.90126 0.0
C718 C 0.93345 0.21469 0.95647 0.0
C719 C 0.9245 0.19768 0.94838 0.0
C720 C 0.90041 0.18058 0.9294 0.0
C721 C 0.90445 0.16839 0.92505 0.0
C722 C 0.894 0.15452 0.91421 0.0
C723 C 0.87926 0.15282 0.90762 0.0
C724 C 0.87536 0.16525 0.91169 0.0
C725 C 0.88602 0.17898 0.92251 0.0
C726 C 0.89855 0.14152 0.91002 0.0
C727 C 0.85975 0.16384 0.90489 0.0
C728 C 0.90118 0.17 0.79552 0.0
C729 C 0.90329 0.1569 0.80071 0.0
C730 C 0.89147 0.14413 0.81022 0.0
C731 C 0.8772 0.14438 0.81437 0.0
C732 C 0.87483 0.15726 0.80866 0.0
C733 C 0.88688 0.16991 0.79931 0.0
C734 C 0.89427 0.13045 0.81601 0.0
C735 C 0.85965 0.15777 0.81265 0.0
C736 C 0.76845 0.0193 0.79366 0.0
C737 C 0.77564 0.03777 0.79057 0.0
C738 C 0.80377 0.05962 0.79793 0.0
C739 C 0.81907 0.06171 0.80184 0.0
C740 C 0.83119 0.0761 0.81082 0.0
C741 C 0.82796 0.08885 0.8157 0.0
C742 C 0.81269 0.08711 0.81119 0.0
C743 C 0.80072 0.07249 0.80234 0.0
C744 C 0.84739 0.07761 0.81524 0.0
C745 C 0.80903 0.10069 0.81578 0.0
C746 C 0.84386 0.10949 0.8983 0.0
C747 C 0.85607 0.12409 0.90672 0.0
C748 C 0.86731 0.13746 0.89757 0.0
C749 C 0.86673 0.13613 0.87943 0.0
C750 C 0.87824 0.14906 0.86981 0.0
C751 C 0.87769 0.14751 0.85196 0.0
C752 C 0.86548 0.13305 0.84304 0.0
C753 C 0.86487 0.1313 0.82491 0.0
C754 C 0.85244 0.11688 0.81643 0.0
C755 C 0.84056 0.10396 0.82557 0.0
C756 C 0.84106 0.10538 0.84373 0.0
C757 C 0.82938 0.09256 0.85335 0.0
C758 C 0.83013 0.09397 0.87121 0.0
C759 C 0.84266 0.10817 0.88014 0.0
C760 C 0.85432 0.12143 0.87069 0.0
C761 C 0.85359 0.11997 0.85247 0.0
C762 C 0.93887 0.19313 0.80075 0.0
C763 C 0.92844 0.18736 0.78394 0.0
O764 O 0.80594 0.05955 0.94375 0.0
O765 O 0.79239 0.04511 0.7898 0.0
O766 O 0.91252 0.18304 0.78697 0.0
O767 O 0.90989 0.19393 0.94024 0.0
H768 H 0.81648 0.07636 0.96431 0.0
H769 H 0.82146 0.05322 0.96808 0.0
H770 H 0.79992 0.03863 0.96867 0.0
H771 H 0.81007 0.05484 0.98544 0.0
H772 H 0.80319 0.08578 0.93808 0.0
H773 H 0.82656 0.05863 0.92337 0.0
H774 H 0.82831 0.12257 0.92402 0.0
H775 H 0.8066 0.10888 0.92268 0.0
H776 H 0.81809 0.11432 0.90343 0.0
H777 H 0.84968 0.07026 0.90639 0.0
H778 H 0.85944 0.09204 0.90206 0.0
H779 H 0.8438 0.07684 0.8875 0.0
H780 H 0.92382 0.18761 0.95628 0.0
H781 H 0.92449 0.21918 0.95779 0.0
H782 H 0.9555 0.22783 0.94078 0.0
H783 H 0.93415 0.21284 0.97064 0.0
H784 H 0.91563 0.16954 0.93019 0.0
H785 H 0.88305 0.18848 0.92586 0.0
H786 H 0.89812 0.13938 0.89589 0.0
H787 H 0.88957 0.12957 0.91542 0.0
H788 H 0.91088 0.14513 0.91526 0.0
H789 H 0.8587 0.1748 0.90885 0.0
H790 H 0.84919 0.1525 0.90963 0.0
H791 H 0.85904 0.16255 0.89065 0.0
H792 H 0.92867 0.17653 0.77787 0.0
H793 H 0.91413 0.15659 0.7975 0.0
H794 H 0.8853 0.17999 0.79509 0.0
H795 H 0.89422 0.13023 0.83023 0.0
H796 H 0.906 0.13201 0.81174 0.0
H797 H 0.88421 0.11823 0.81085 0.0
H798 H 0.85948 0.16844 0.80693 0.0
H799 H 0.85878 0.15868 0.82678 0.0
H800 H 0.84874 0.14606 0.80772 0.0
H801 H 0.77242 0.04315 0.80172 0.0
H802 H 0.75502 0.0131 0.79452 0.0
H803 H 0.7736 0.01783 0.80594 0.0
H804 H 0.77135 0.01305 0.7831 0.0
H805 H 0.82138 0.05181 0.79815 0.0
H806 H 0.7891 0.07124 0.79877 0.0
H807 H 0.85007 0.07996 0.8293 0.0
H808 H 0.85717 0.08838 0.80883 0.0
H809 H 0.84773 0.06626 0.8112 0.0
H810 H 0.79689 0.09782 0.8106 0.0
H811 H 0.81846 0.11262 0.81073 0.0
H812 H 0.80943 0.10247 0.82996 0.0
H813 H 0.85684 0.12509 0.92065 0.0
H814 H 0.88789 0.16046 0.87601 0.0
H815 H 0.88695 0.15782 0.84524 0.0
H816 H 0.85207 0.11566 0.80252 0.0
H817 H 0.81956 0.08127 0.84719 0.0
H818 H 0.82078 0.08374 0.87795 0.0
H819 H 0.95173 0.19717 0.79813 0.0
H820 H 0.93454 0.18291 0.80976 0.0
H821 H 0.93839 0.20368 0.80715 0.0
C822 C 0.77647 0.70375 0.95789 0.0
C823 C 0.7914 0.71161 0.94802 0.0
C824 C 0.80574 0.70461 0.9268 0.0
C825 C 0.81696 0.7212 0.92334 0.0
C826 C 0.82962 0.72501 0.91219 0.0
C827 C 0.83106 0.71199 0.90426 0.0
C828 C 0.81968 0.69528 0.90751 0.0
C829 C 0.80713 0.69181 0.91874 0.0
C830 C 0.84153 0.74298 0.90894 0.0
C831 C 0.82084 0.68113 0.89916 0.0
C832 C 0.95169 0.75141 0.93131 0.0
C833 C 0.9373 0.73497 0.93676 0.0
C834 C 0.91494 0.72556 0.91498 0.0
C835 C 0.90493 0.71244 0.90333 0.0
C836 C 0.89114 0.71145 0.89531 0.0
C837 C 0.88754 0.72424 0.89868 0.0
C838 C 0.89779 0.73775 0.91022 0.0
C839 C 0.91132 0.73822 0.91835 0.0
C840 C 0.88035 0.69666 0.88335 0.0
C841 C 0.89446 0.75171 0.91394 0.0
C842 C 0.91394 0.75839 0.79226 0.0
C843 C 0.90569 0.74132 0.79516 0.0
C844 C 0.89097 0.73389 0.80362 0.0
C845 C 0.88467 0.74388 0.80974 0.0
C846 C 0.89268 0.76098 0.80627 0.0
C847 C 0.9071 0.76794 0.79728 0.0
C848 C 0.88236 0.71546 0.80629 0.0
C849 C 0.88624 0.77199 0.81238 0.0
C850 C 0.76703 0.72367 0.79673 0.0
C851 C 0.77643 0.72145 0.78217 0.0
C852 C 0.7964 0.71536 0.79553 0.0
C853 C 0.80067 0.70315 0.79703 0.0
C854 C 0.81523 0.70664 0.8056 0.0
C855 C 0.82572 0.72278 0.81297 0.0
C856 C 0.82145 0.7352 0.81167 0.0
C857 C 0.80683 0.73138 0.80299 0.0
C858 C 0.81941 0.6931 0.8068 0.0
C859 C 0.83234 0.7525 0.81952 0.0
C860 C 0.84466 0.71601 0.89277 0.0
C861 C 0.8591 0.71798 0.90004 0.0
C862 C 0.8729 0.72326 0.89035 0.0
C863 C 0.87244 0.72709 0.873 0.0
C864 C 0.88642 0.73369 0.86325 0.0
C865 C 0.88577 0.73715 0.84612 0.0
C866 C 0.87103 0.73373 0.83795 0.0
C867 C 0.8701 0.73665 0.82036 0.0
C868 C 0.85519 0.7329 0.81264 0.0
C869 C 0.84115 0.72664 0.82209 0.0
C870 C 0.8419 0.72404 0.83977 0.0
C871 C 0.82812 0.71824 0.84977 0.0
C872 C 0.82901 0.71574 0.86717 0.0
C873 C 0.84364 0.71862 0.87514 0.0
C874 C 0.85764 0.72433 0.86527 0.0
C875 C 0.85685 0.72735 0.84764 0.0
C876 C 0.95722 0.77839 0.78921 0.0
C877 C 0.94075 0.76226 0.78759 0.0
O878 O 0.79355 0.70047 0.93785 0.0
O879 O 0.78213 0.71105 0.78694 0.0
O880 O 0.92859 0.76603 0.78487 0.0
O881 O 0.92794 0.72549 0.92247 0.0
H882 H 0.80261 0.72111 0.95538 0.0
H883 H 0.78077 0.70648 0.97184 0.0
H884 H 0.77237 0.69008 0.95812 0.0
H885 H 0.76124 0.7133 0.94634 0.0
H886 H 0.81594 0.73125 0.9293 0.0
H887 H 0.79839 0.67906 0.92141 0.0
H888 H 0.85409 0.74594 0.9125 0.0
H889 H 0.83891 0.75169 0.91632 0.0
H890 H 0.84113 0.7451 0.89505 0.0
H891 H 0.81077 0.66879 0.90263 0.0
H892 H 0.8326 0.6822 0.90311 0.0
H893 H 0.82059 0.68187 0.88498 0.0
H894 H 0.92986 0.73791 0.94542 0.0
H895 H 0.95954 0.75868 0.94273 0.0
H896 H 0.94727 0.75901 0.9251 0.0
H897 H 0.95912 0.74915 0.92201 0.0
H898 H 0.90784 0.70276 0.90075 0.0
H899 H 0.91903 0.7486 0.92717 0.0
H900 H 0.88141 0.70073 0.86998 0.0
H901 H 0.86742 0.69121 0.88669 0.0
H902 H 0.88367 0.68684 0.88379 0.0
H903 H 0.90463 0.76229 0.92149 0.0
H904 H 0.88326 0.747 0.92132 0.0
H905 H 0.89234 0.75632 0.90175 0.0
H906 H 0.93919 0.75625 0.8001 0.0
H907 H 0.91071 0.73377 0.79082 0.0
H908 H 0.91347 0.78106 0.79474 0.0
H909 H 0.8841 0.71339 0.81991 0.0
H910 H 0.88712 0.70904 0.7981 0.0
H911 H 0.86908 0.7097 0.80343 0.0
H912 H 0.89472 0.7853 0.81006 0.0
H913 H 0.88404 0.7707 0.82633 0.0
H914 H 0.87443 0.76805 0.80554 0.0
H915 H 0.78679 0.73386 0.77928 0.0
H916 H 0.76214 0.7317 0.79274 0.0
H917 H 0.77519 0.72971 0.80829 0.0
H918 H 0.75679 0.71147 0.80028 0.0
H919 H 0.79255 0.69081 0.79133 0.0
H920 H 0.80366 0.74096 0.80224 0.0
H921 H 0.82057 0.69079 0.82049 0.0
H922 H 0.83134 0.69714 0.80106 0.0
H923 H 0.81008 0.68125 0.80014 0.0
H924 H 0.82718 0.76072 0.81768 0.0
H925 H 0.8444 0.75818 0.81368 0.0
H926 H 0.83432 0.75187 0.8335 0.0
H927 H 0.85963 0.7155 0.91347 0.0
H928 H 0.89806 0.73637 0.8688 0.0
H929 H 0.89697 0.74236 0.83933 0.0
H930 H 0.85452 0.73497 0.7991 0.0
H931 H 0.8165 0.71566 0.84429 0.0
H932 H 0.81803 0.71132 0.87426 0.0
H933 H 0.95949 0.78563 0.77751 0.0
H934 H 0.96717 0.77563 0.79128 0.0
H935 H 0.95742 0.78619 0.80039 0.0
C936 C 0.86751 0.60408 0.37049 0.0
C937 C 0.87389 0.61661 0.38588 0.0
C938 C 0.86175 0.61039 0.41374 0.0
C939 C 0.8652 0.62633 0.41929 0.0
C940 C 0.85615 0.62842 0.43208 0.0
C941 C 0.84324 0.61425 0.43926 0.0
C942 C 0.83993 0.59816 0.43383 0.0
C943 C 0.84949 0.59648 0.42136 0.0
C944 C 0.86026 0.64577 0.43779 0.0
C945 C 0.8261 0.58273 0.44092 0.0
C946 C 0.74379 0.63074 0.40373 0.0
C947 C 0.75169 0.62318 0.41349 0.0
C948 C 0.77569 0.63097 0.43207 0.0
C949 C 0.77164 0.61458 0.43523 0.0
C950 C 0.78277 0.61133 0.44383 0.0
C951 C 0.7982 0.62471 0.44949 0.0
C952 C 0.80209 0.64124 0.44687 0.0
C953 C 0.79073 0.64414 0.43824 0.0
C954 C 0.77818 0.59356 0.4466 0.0
C955 C 0.81838 0.65581 0.45286 0.0
C956 C 0.78952 0.62195 0.56743 0.0
C957 C 0.78333 0.60668 0.55833 0.0
C958 C 0.79217 0.60437 0.54543 0.0
C959 C 0.80751 0.61781 0.5414 0.0
C960 C 0.81377 0.63338 0.55036 0.0
C961 C 0.80481 0.63527 0.56336 0.0
C962 C 0.78524 0.58753 0.53627 0.0
C963 C 0.8301 0.64798 0.54637 0.0
C964 C 0.90976 0.59331 0.54998 0.0
C965 C 0.90223 0.60431 0.55219 0.0
C966 C 0.87475 0.59872 0.5444 0.0
C967 C 0.85895 0.586 0.53981 0.0
C968 C 0.84736 0.58951 0.53291 0.0
C969 C 0.8517 0.60623 0.53074 0.0
C970 C 0.86755 0.61922 0.53576 0.0
C971 C 0.87894 0.61535 0.54255 0.0
C972 C 0.83052 0.57537 0.52784 0.0
C973 C 0.87244 0.63719 0.53391 0.0
C974 C 0.83292 0.61626 0.45203 0.0
C975 C 0.82089 0.61942 0.44593 0.0
C976 C 0.81065 0.62138 0.45712 0.0
C977 C 0.81231 0.62005 0.47498 0.0
C978 C 0.80224 0.62195 0.48664 0.0
C979 C 0.80394 0.62052 0.50419 0.0
C980 C 0.81571 0.61703 0.51073 0.0
C981 C 0.81747 0.61541 0.5285 0.0
C982 C 0.82926 0.61189 0.53454 0.0
C983 C 0.83957 0.6101 0.52334 0.0
C984 C 0.83812 0.61181 0.50554 0.0
C985 C 0.84844 0.61028 0.49394 0.0
C986 C 0.8469 0.61194 0.47645 0.0
C987 C 0.83483 0.61495 0.46984 0.0
C988 C 0.8244 0.61673 0.48133 0.0
C989 C 0.82607 0.61518 0.49921 0.0
C990 C 0.79561 0.63854 0.60568 0.0
C991 C 0.78429 0.63701 0.59058 0.0
O992 O 0.8699 0.60806 0.40089 0.0
O993 O 0.88545 0.59437 0.55061 0.0
O994 O 0.78043 0.62316 0.58004 0.0
O995 O 0.76561 0.63458 0.42298 0.0
H996 H 0.86762 0.62393 0.38479 0.0
H997 H 0.85405 0.59628 0.3707 0.0
H998 H 0.87271 0.59578 0.37087 0.0
H999 H 0.87068 0.61067 0.35829 0.0
H1000 H 0.87499 0.63712 0.41365 0.0
H1001 H 0.84703 0.58424 0.41704 0.0
H1002 H 0.85037 0.64791 0.43329 0.0
H1003 H 0.87187 0.65544 0.43261 0.0
H1004 H 0.86118 0.6472 0.45203 0.0
H1005 H 0.82396 0.5712 0.43392 0.0
H1006 H 0.81472 0.58326 0.44017 0.0
H1007 H 0.82888 0.58203 0.45464 0.0
H1008 H 0.75288 0.61341 0.40617 0.0
H1009 H 0.7201 0.6217 0.41638 0.0
H1010 H 0.74432 0.62753 0.38977 0.0
H1011 H 0.75317 0.64436 0.40291 0.0
H1012 H 0.75988 0.60426 0.43091 0.0
H1013 H 0.7937 0.65675 0.43592 0.0
H1014 H 0.77959 0.59195 0.46045 0.0
H1015 H 0.78651 0.5906 0.43962 0.0
H1016 H 0.76547 0.58455 0.44208 0.0
H1017 H 0.81928 0.66793 0.45052 0.0
H1018 H 0.82819 0.65519 0.44604 0.0
H1019 H 0.8205 0.6552 0.4668 0.0
H1020 H 0.7906 0.64846 0.58321 0.0
H1021 H 0.77158 0.59645 0.56154 0.0
H1022 H 0.81 0.64717 0.5703 0.0
H1023 H 0.78367 0.58862 0.52232 0.0
H1024 H 0.7733 0.57824 0.54117 0.0
H1025 H 0.79386 0.5829 0.53783 0.0
H1026 H 0.83258 0.65967 0.55328 0.0
H1027 H 0.83071 0.64987 0.53235 0.0
H1028 H 0.83985 0.64534 0.5501 0.0
H1029 H 0.9067 0.61317 0.54164 0.0
H1030 H 0.92326 0.60099 0.55089 0.0
H1031 H 0.90606 0.58667 0.53716 0.0
H1032 H 0.90563 0.58394 0.55998 0.0
H1033 H 0.85579 0.57323 0.54144 0.0
H1034 H 0.89101 0.62534 0.54648 0.0
H1035 H 0.82778 0.57588 0.51404 0.0
H1036 H 0.82139 0.57666 0.53531 0.0
H1037 H 0.82915 0.56303 0.53008 0.0
H1038 H 0.88516 0.64588 0.53864 0.0
H1039 H 0.86417 0.64004 0.54118 0.0
H1040 H 0.87119 0.63941 0.52021 0.0
H1041 H 0.81948 0.62036 0.43224 0.0
H1042 H 0.79292 0.62455 0.48231 0.0
H1043 H 0.79586 0.62211 0.51257 0.0
H1044 H 0.8305 0.61064 0.5482 0.0
H1045 H 0.85786 0.60782 0.49826 0.0
H1046 H 0.85525 0.61074 0.46814 0.0
H1047 H 0.79004 0.62706 0.61304 0.0
H1048 H 0.79823 0.64932 0.61442 0.0
H1049 H 0.80733 0.64053 0.60092 0.0
C1050 C 0.39342 0.25665 0.37216 0.0
C1051 C 0.38295 0.25443 0.38759 0.0
C1052 C 0.39044 0.25069 0.41648 0.0
C1053 C 0.37481 0.23949 0.42188 0.0
C1054 C 0.37268 0.22899 0.43531 0.0
C1055 C 0.38646 0.22972 0.44343 0.0
C1056 C 0.40225 0.24176 0.43874 0.0
C1057 C 0.40403 0.25228 0.42543 0.0
C1058 C 0.35568 0.21663 0.44033 0.0
C1059 C 0.41722 0.24292 0.44716 0.0
C1060 C 0.36508 0.10688 0.40554 0.0
C1061 C 0.37278 0.12494 0.40973 0.0
C1062 C 0.36732 0.14336 0.42794 0.0
C1063 C 0.38363 0.15622 0.4301 0.0
C1064 C 0.3878 0.17076 0.44 0.0
C1065 C 0.37541 0.17255 0.4477 0.0
C1066 C 0.359 0.15961 0.44553 0.0
C1067 C 0.35521 0.14513 0.43578 0.0
C1068 C 0.40542 0.18431 0.44211 0.0
C1069 C 0.34542 0.1612 0.45325 0.0
C1070 C 0.37928 0.15706 0.5612 0.0
C1071 C 0.39442 0.17148 0.55919 0.0
C1072 C 0.39574 0.18417 0.54893 0.0
C1073 C 0.38157 0.18267 0.54088 0.0
C1074 C 0.36624 0.16842 0.54334 0.0
C1075 C 0.36536 0.15567 0.55321 0.0
C1076 C 0.41232 0.19914 0.54663 0.0
C1077 C 0.35077 0.16658 0.53548 0.0
C1078 C 0.40287 0.31069 0.55326 0.0
C1079 C 0.39128 0.29276 0.55792 0.0
C1080 C 0.39638 0.26973 0.55265 0.0
C1081 C 0.40913 0.2668 0.54964 0.0
C1082 C 0.40624 0.25182 0.54162 0.0
C1083 C 0.39011 0.23935 0.53679 0.0
C1084 C 0.37706 0.24197 0.54043 0.0
C1085 C 0.38032 0.25715 0.54835 0.0
C1086 C 0.42044 0.24942 0.53807 0.0
C1087 C 0.35969 0.22877 0.53578 0.0
C1088 C 0.38429 0.21648 0.45502 0.0
C1089 C 0.3814 0.20148 0.44727 0.0
C1090 C 0.37943 0.18836 0.45704 0.0
C1091 C 0.38066 0.19026 0.47516 0.0
C1092 C 0.37943 0.17757 0.48538 0.0
C1093 C 0.38037 0.17945 0.50321 0.0
C1094 C 0.38233 0.194 0.51151 0.0
C1095 C 0.38289 0.19586 0.52965 0.0
C1096 C 0.38514 0.21064 0.53744 0.0
C1097 C 0.38698 0.22374 0.52764 0.0
C1098 C 0.38632 0.22206 0.50949 0.0
C1099 C 0.38809 0.23497 0.49921 0.0
C1100 C 0.38742 0.23319 0.48137 0.0
C1101 C 0.38501 0.21846 0.47313 0.0
C1102 C 0.38321 0.20528 0.48323 0.0
C1103 C 0.38392 0.2071 0.50143 0.0
C1104 C 0.38324 0.1297 0.59206 0.0
C1105 C 0.38914 0.14478 0.58208 0.0
O1106 O 0.39281 0.25983 0.40247 0.0
O1107 O 0.40011 0.28476 0.55984 0.0
O1108 O 0.37759 0.14424 0.57054 0.0
O1109 O 0.36271 0.12908 0.41848 0.0
H1110 H 0.37402 0.24084 0.38765 0.0
H1111 H 0.39906 0.24879 0.37332 0.0
H1112 H 0.40332 0.26979 0.37148 0.0
H1113 H 0.38581 0.25277 0.36004 0.0
H1114 H 0.36427 0.23873 0.41543 0.0
H1115 H 0.41605 0.26119 0.42135 0.0
H1116 H 0.35261 0.20394 0.43578 0.0
H1117 H 0.34647 0.21928 0.4347 0.0
H1118 H 0.35495 0.2167 0.45453 0.0
H1119 H 0.42864 0.25321 0.44231 0.0
H1120 H 0.41706 0.23104 0.44475 0.0
H1121 H 0.41721 0.2449 0.46127 0.0
H1122 H 0.37937 0.13333 0.39924 0.0
H1123 H 0.37963 0.09912 0.42162 0.0
H1124 H 0.36447 0.10557 0.39105 0.0
H1125 H 0.35152 0.10141 0.40657 0.0
H1126 H 0.39313 0.15503 0.42404 0.0
H1127 H 0.34268 0.13513 0.43404 0.0
H1128 H 0.40875 0.18821 0.45589 0.0
H1129 H 0.40725 0.19534 0.43523 0.0
H1130 H 0.41375 0.1803 0.43696 0.0
H1131 H 0.33322 0.15043 0.4495 0.0
H1132 H 0.34594 0.17275 0.44913 0.0
H1133 H 0.34693 0.16215 0.46746 0.0
H1134 H 0.40143 0.14948 0.57688 0.0
H1135 H 0.40533 0.17285 0.56535 0.0
H1136 H 0.35371 0.14458 0.5549 0.0
H1137 H 0.41417 0.20192 0.53285 0.0
H1138 H 0.4223 0.19736 0.55167 0.0
H1139 H 0.41314 0.21012 0.55359 0.0
H1140 H 0.33975 0.15621 0.54088 0.0
H1141 H 0.35029 0.16407 0.52142 0.0
H1142 H 0.3505 0.17827 0.53759 0.0
H1143 H 0.38211 0.28687 0.54704 0.0
H1144 H 0.3961 0.31739 0.55143 0.0
H1145 H 0.40874 0.31076 0.54107 0.0
H1146 H 0.41253 0.31739 0.56351 0.0
H1147 H 0.42146 0.27649 0.55325 0.0
H1148 H 0.37031 0.25907 0.55127 0.0
H1149 H 0.42062 0.24682 0.5241 0.0
H1150 H 0.41904 0.2385 0.54483 0.0
H1151 H 0.43229 0.26047 0.54229 0.0
H1152 H 0.35084 0.23242 0.54011 0.0
H1153 H 0.35686 0.21695 0.54164 0.0
H1154 H 0.35812 0.22637 0.52164 0.0
H1155 H 0.38055 0.19995 0.43336 0.0
H1156 H 0.37777 0.16605 0.4797 0.0
H1157 H 0.37943 0.16928 0.5104 0.0
H1158 H 0.38568 0.21204 0.55134 0.0
H1159 H 0.38997 0.24659 0.50485 0.0
H1160 H 0.38879 0.24349 0.47409 0.0
H1161 H 0.39123 0.12438 0.58869 0.0
H1162 H 0.37211 0.1195 0.58476 0.0
H1163 H 0.38274 0.13864 0.61889 0.0
C1164 C 0.87115 0.25413 0.38934 0.0
C1165 C 0.88258 0.25915 0.40533 0.0
C1166 C 0.8659 0.23679 0.42466 0.0
C1167 C 0.85477 0.24206 0.42837 0.0
C1168 C 0.84141 0.23261 0.43848 0.0
C1169 C 0.8392 0.21769 0.4451 0.0
C1170 C 0.85044 0.21245 0.44155 0.0
C1171 C 0.86367 0.22211 0.43138 0.0
C1172 C 0.82961 0.23853 0.44207 0.0
C1173 C 0.84846 0.19663 0.44847 0.0
C1174 C 0.71872 0.1266 0.41995 0.0
C1175 C 0.73229 0.12412 0.41293 0.0
C1176 C 0.75655 0.1411 0.43228 0.0
C1177 C 0.76745 0.13982 0.44342 0.0
C1178 C 0.78102 0.15397 0.45096 0.0
C1179 C 0.78335 0.16989 0.44782 0.0
C1180 C 0.77244 0.17134 0.43636 0.0
C1181 C 0.75924 0.1569 0.42849 0.0
C1182 C 0.79272 0.15177 0.46241 0.0
C1183 C 0.77458 0.1881 0.43268 0.0
C1184 C 0.75613 0.16651 0.55684 0.0
C1185 C 0.76584 0.15985 0.55187 0.0
C1186 C 0.78023 0.16945 0.54325 0.0
C1187 C 0.78486 0.18596 0.53936 0.0
C1188 C 0.77543 0.19288 0.54499 0.0
C1189 C 0.76127 0.18309 0.55388 0.0
C1190 C 0.79033 0.16187 0.53804 0.0
C1191 C 0.78008 0.21048 0.54125 0.0
C1192 C 0.90126 0.29106 0.55849 0.0
C1193 C 0.89135 0.27843 0.57179 0.0
C1194 C 0.87203 0.25199 0.55634 0.0
C1195 C 0.86805 0.23549 0.55337 0.0
C1196 C 0.85365 0.22395 0.54424 0.0
C1197 C 0.84297 0.22911 0.53791 0.0
C1198 C 0.84691 0.2458 0.54075 0.0
C1199 C 0.86145 0.25711 0.54981 0.0
C1200 C 0.84987 0.20626 0.54129 0.0
C1201 C 0.83578 0.25168 0.5341 0.0
C1202 C 0.82509 0.20759 0.45575 0.0
C1203 C 0.8109 0.19475 0.44754 0.0
C1204 C 0.79711 0.18484 0.45678 0.0
C1205 C 0.79725 0.18817 0.47462 0.0
C1206 C 0.78328 0.17918 0.48412 0.0
C1207 C 0.78378 0.18186 0.50183 0.0
C1208 C 0.79834 0.1935 0.51075 0.0
C1209 C 0.79919 0.19576 0.52885 0.0
C1210 C 0.81387 0.20744 0.53728 0.0
C1211 C 0.82778 0.21709 0.5281 0.0
C1212 C 0.82714 0.21509 0.51 0.0
C1213 C 0.84089 0.22468 0.50037 0.0
C1214 C 0.84019 0.22245 0.48258 0.0
C1215 C 0.82579 0.21036 0.47377 0.0
C1216 C 0.81179 0.20063 0.48321 0.0
C1217 C 0.81241 0.20312 0.50133 0.0
C1218 C 0.71389 0.13766 0.55776 0.0
C1219 C 0.73101 0.14046 0.56095 0.0
O1220 O 0.87884 0.2453 0.41463 0.0
O1221 O 0.88614 0.26242 0.5654 0.0
O1222 O 0.74174 0.15728 0.56439 0.0
O1223 O 0.74352 0.12668 0.42597 0.0
H1224 H 0.88142 0.26844 0.41352 0.0
H1225 H 0.85832 0.24869 0.393 0.0
H1226 H 0.87212 0.24477 0.38107 0.0
H1227 H 0.87427 0.2652 0.38179 0.0
H1228 H 0.85633 0.25345 0.42341 0.0
H1229 H 0.87232 0.21816 0.4285 0.0
H1230 H 0.81714 0.22881 0.43753 0.0
H1231 H 0.83284 0.25025 0.43573 0.0
H1232 H 0.82936 0.24061 0.45613 0.0
H1233 H 0.85846 0.19444 0.44483 0.0
H1234 H 0.83671 0.18588 0.44353 0.0
H1235 H 0.84813 0.19717 0.4627 0.0
H1236 H 0.73842 0.13291 0.4026 0.0
H1237 H 0.70965 0.12438 0.40949 0.0
H1238 H 0.72372 0.13948 0.42534 0.0
H1239 H 0.71246 0.1179 0.43028 0.0
H1240 H 0.7653 0.12756 0.44615 0.0
H1241 H 0.75097 0.15806 0.41971 0.0
H1242 H 0.79045 0.15333 0.47605 0.0
H1243 H 0.80552 0.16125 0.46004 0.0
H1244 H 0.79123 0.13922 0.46041 0.0
H1245 H 0.76409 0.18702 0.42505 0.0
H1246 H 0.78575 0.19525 0.4254 0.0
H1247 H 0.77613 0.1953 0.44489 0.0
H1248 H 0.73408 0.13615 0.54886 0.0
H1249 H 0.7622 0.14717 0.55471 0.0
H1250 H 0.7538 0.18817 0.55802 0.0
H1251 H 0.78933 0.15972 0.52388 0.0
H1252 H 0.78632 0.14981 0.54402 0.0
H1253 H 0.80336 0.17051 0.54171 0.0
H1254 H 0.77098 0.21372 0.54571 0.0
H1255 H 0.78137 0.21223 0.52723 0.0
H1256 H 0.79204 0.21927 0.5477 0.0
H1257 H 0.88073 0.27985 0.57473 0.0
H1258 H 0.90594 0.30393 0.56385 0.0
H1259 H 0.89348 0.28913 0.54686 0.0
H1260 H 0.91167 0.28969 0.55455 0.0
H1261 H 0.8763 0.23165 0.55832 0.0
H1262 H 0.86444 0.2699 0.55158 0.0
H1263 H 0.84833 0.20296 0.5273 0.0
H1264 H 0.83821 0.19766 0.54718 0.0
H1265 H 0.85956 0.20428 0.54681 0.0
H1266 H 0.84026 0.26492 0.53791 0.0
H1267 H 0.82342 0.24392 0.53904 0.0
H1268 H 0.83463 0.25019 0.51987 0.0
H1269 H 0.81073 0.19218 0.43384 0.0
H1270 H 0.7718 0.16992 0.47796 0.0
H1271 H 0.77266 0.17451 0.50845 0.0
H1272 H 0.81447 0.20903 0.55117 0.0
H1273 H 0.85236 0.23402 0.50648 0.0
H1274 H 0.85115 0.23016 0.47585 0.0
H1275 H 0.70505 0.12423 0.55498 0.0
H1276 H 0.71373 0.14461 0.54651 0.0
H1277 H 0.71 0.14209 0.56909 0.0
C1278 C 0.02842 0.47854 0.31605 0.0
C1279 C 0.01942 0.46762 0.29998 0.0
C1280 C 0.01945 0.477 0.27086 0.0
C1281 C 0.00323 0.4652 0.26598 0.0
C1282 C 0.99559 0.46741 0.25154 0.0
C1283 C 0.00438 0.48157 0.24175 0.0
C1284 C 0.02104 0.49276 0.24591 0.0
C1285 C 0.02838 0.49025 0.26038 0.0
C1286 C 0.97791 0.45502 0.24718 0.0
C1287 C 0.03086 0.50787 0.23561 0.0
C1288 C 0.94092 0.55308 0.24429 0.0
C1289 C 0.95729 0.55379 0.24595 0.0
C1290 C 0.96176 0.53023 0.24586 0.0
C1291 C 0.97717 0.53806 0.23875 0.0
C1292 C 0.98374 0.52869 0.23201 0.0
C1293 C 0.97462 0.51113 0.23222 0.0
C1294 C 0.95931 0.50324 0.23983 0.0
C1295 C 0.95317 0.51295 0.24675 0.0
C1296 C 0.00038 0.53755 0.22459 0.0
C1297 C 0.94935 0.48456 0.24045 0.0
C1298 C 0.96022 0.51257 0.1218 0.0
C1299 C 0.97632 0.52135 0.12838 0.0
C1300 C 0.98291 0.51329 0.13759 0.0
C1301 C 0.97303 0.49614 0.14051 0.0
C1302 C 0.95707 0.48707 0.13302 0.0
C1303 C 0.95092 0.49541 0.12353 0.0
C1304 C 0.0002 0.52325 0.14479 0.0
C1305 C 0.94628 0.46877 0.13573 0.0
C1306 C 0.02933 0.42131 0.13635 0.0
C1307 C 0.01381 0.41884 0.12722 0.0
C1308 C 0.01021 0.44291 0.13274 0.0
C1309 C 0.01982 0.46021 0.13446 0.0
C1310 C 0.01424 0.46979 0.14287 0.0
C1311 C 0.99846 0.46183 0.1494 0.0
C1312 C 0.98854 0.44431 0.14749 0.0
C1313 C 0.99451 0.43501 0.13915 0.0
C1314 C 0.02513 0.48843 0.1446 0.0
C1315 C 0.97149 0.43548 0.15391 0.0
C1316 C 0.99564 0.48612 0.22908 0.0
C1317 C 0.9889 0.4954 0.23543 0.0
C1318 C 0.98112 0.50101 0.2245 0.0
C1319 C 0.97998 0.49733 0.20664 0.0
C1320 C 0.97226 0.50283 0.19527 0.0
C1321 C 0.97175 0.49973 0.17766 0.0
C1322 C 0.97881 0.49085 0.17073 0.0
C1323 C 0.97888 0.48822 0.15278 0.0
C1324 C 0.98526 0.47865 0.14632 0.0
C1325 C 0.99199 0.47191 0.15733 0.0
C1326 C 0.99274 0.4751 0.17531 0.0
C1327 C 0.00012 0.46923 0.18674 0.0
C1328 C 0.00106 0.47277 0.20439 0.0
C1329 C 0.99454 0.48218 0.21125 0.0
C1330 C 0.9868 0.48796 0.19998 0.0
C1331 C 0.98605 0.48456 0.182 0.0
C1332 C 0.93548 0.52793 0.12779 0.0
C1333 C 0.95279 0.53379 0.12226 0.0
O1334 O 0.02687 0.47629 0.28561 0.0
O1335 O 0.01621 0.43447 0.12402 0.0
O1336 O 0.95329 0.52055 0.11431 0.0
O1337 O 0.95482 0.5389 0.25195 0.0
H1338 H 0.00668 0.46503 0.30038 0.0
H1339 H 0.02792 0.49018 0.31601 0.0
H1340 H 0.04139 0.48187 0.31648 0.0
H1341 H 0.02263 0.47194 0.3278 0.0
H1342 H 0.99641 0.45443 0.27353 0.0
H1343 H 0.04098 0.49908 0.26404 0.0
H1344 H 0.97049 0.46086 0.25003 0.0
H1345 H 0.97335 0.44364 0.25461 0.0
H1346 H 0.97614 0.45142 0.23325 0.0
H1347 H 0.04396 0.51466 0.23969 0.0
H1348 H 0.02607 0.51648 0.23715 0.0
H1349 H 0.02965 0.50415 0.22176 0.0
H1350 H 0.96193 0.5555 0.23272 0.0
H1351 H 0.94264 0.56501 0.23969 0.0
H1352 H 0.93492 0.5506 0.25678 0.0
H1353 H 0.93274 0.54294 0.23483 0.0
H1354 H 0.98413 0.55149 0.23854 0.0
H1355 H 0.94139 0.50704 0.25248 0.0
H1356 H 0.99924 0.53479 0.21052 0.0
H1357 H 0.00814 0.533 0.2302 0.0
H1358 H 0.00658 0.55125 0.22698 0.0
H1359 H 0.93721 0.4803 0.24577 0.0
H1360 H 0.95595 0.4801 0.24857 0.0
H1361 H 0.94766 0.47876 0.22735 0.0
H1362 H 0.96072 0.53828 0.13423 0.0
H1363 H 0.98361 0.53458 0.12656 0.0
H1364 H 0.93855 0.48874 0.11817 0.0
H1365 H 0.00012 0.52542 0.15886 0.0
H1366 H 0.00706 0.53552 0.13894 0.0
H1367 H 0.00669 0.5163 0.14265 0.0
H1368 H 0.93413 0.46353 0.12912 0.0
H1369 H 0.94463 0.46675 0.14968 0.0
H1370 H 0.95217 0.46187 0.13087 0.0
H1371 H 0.00361 0.41206 0.13587 0.0
H1372 H 0.02767 0.40936 0.14074 0.0
H1373 H 0.03241 0.42982 0.14789 0.0
H1374 H 0.0397 0.42687 0.12768 0.0
H1375 H 0.03182 0.46622 0.12922 0.0
H1376 H 0.98667 0.4217 0.13719 0.0
H1377 H 0.0261 0.49282 0.15821 0.0
H1378 H 0.01971 0.49441 0.13694 0.0
H1379 H 0.03754 0.49259 0.14013 0.0
H1380 H 0.96522 0.42181 0.15127 0.0
H1381 H 0.96422 0.44033 0.14771 0.0
H1382 H 0.97188 0.43802 0.16796 0.0
H1383 H 0.98992 0.49849 0.2491 0.0
H1384 H 0.96665 0.50976 0.19984 0.0
H1385 H 0.96575 0.50442 0.16956 0.0
H1386 H 0.98516 0.47659 0.13254 0.0
H1387 H 0.00538 0.46198 0.18215 0.0
H1388 H 0.00697 0.46806 0.21261 0.0
H1389 H 0.92666 0.52272 0.1166 0.0
H1390 H 0.9348 0.53843 0.13401 0.0
H1391 H 0.93192 0.51808 0.1372 0.0
C1392 C 0.46931 0.39752 0.29945 0.0
C1393 C 0.4651 0.40826 0.2885 0.0
C1394 C 0.47401 0.41614 0.25978 0.0
C1395 C 0.47168 0.42969 0.25793 0.0
C1396 C 0.48097 0.44214 0.24661 0.0
C1397 C 0.49315 0.4412 0.23736 0.0
C1398 C 0.49537 0.42737 0.23915 0.0
C1399 C 0.48542 0.41478 0.25002 0.0
C1400 C 0.47795 0.45643 0.2448 0.0
C1401 C 0.50857 0.42609 0.23006 0.0
C1402 C 0.59527 0.56135 0.28331 0.0
C1403 C 0.58504 0.54385 0.27681 0.0
C1404 C 0.56129 0.52692 0.25743 0.0
C1405 C 0.56441 0.51381 0.25485 0.0
C1406 C 0.55376 0.49963 0.24452 0.0
C1407 C 0.53966 0.49847 0.23673 0.0
C1408 C 0.53653 0.51167 0.23925 0.0
C1409 C 0.54746 0.52577 0.2495 0.0
C1410 C 0.55751 0.48581 0.242 0.0
C1411 C 0.52152 0.51078 0.23131 0.0
C1412 C 0.5648 0.51499 0.1246 0.0
C1413 C 0.56528 0.50067 0.12867 0.0
C1414 C 0.55315 0.48841 0.13834 0.0
C1415 C 0.54005 0.49031 0.14371 0.0
C1416 C 0.53938 0.50457 0.13936 0.0
C1417 C 0.5519 0.51684 0.13005 0.0
C1418 C 0.55434 0.47342 0.14279 0.0
C1419 C 0.52544 0.50686 0.14457 0.0
C1420 C 0.43487 0.36462 0.12481 0.0
C1421 C 0.44005 0.38203 0.11895 0.0
C1422 C 0.46761 0.40521 0.12582 0.0
C1423 C 0.48293 0.4077 0.13045 0.0
C1424 C 0.4945 0.42219 0.13974 0.0
C1425 C 0.49074 0.43469 0.14407 0.0
C1426 C 0.47544 0.43251 0.13884 0.0
C1427 C 0.464 0.41776 0.12977 0.0
C1428 C 0.5107 0.42409 0.14501 0.0
C1429 C 0.47119 0.44576 0.1429 0.0
C1430 C 0.50429 0.45517 0.22681 0.0
C1431 C 0.51628 0.46977 0.23547 0.0
C1432 C 0.5278 0.48316 0.22655 0.0
C1433 C 0.52772 0.48187 0.20843 0.0
C1434 C 0.53966 0.49473 0.19908 0.0
C1435 C 0.53956 0.49326 0.18126 0.0
C1436 C 0.52736 0.479 0.17207 0.0
C1437 C 0.52715 0.47739 0.15395 0.0
C1438 C 0.5149 0.46299 0.14524 0.0
C1439 C 0.50282 0.44997 0.15413 0.0
C1440 C 0.50283 0.45134 0.17225 0.0
C1441 C 0.49091 0.43847 0.18163 0.0
C1442 C 0.49121 0.43979 0.19947 0.0
C1443 C 0.50353 0.45396 0.20865 0.0
C1444 C 0.51544 0.46726 0.19945 0.0
C1445 C 0.51516 0.46591 0.18123 0.0
C1446 C 0.59755 0.54044 0.09552 0.0
C1447 C 0.58853 0.52641 0.10673 0.0
O1448 O 0.46573 0.40451 0.27131 0.0
O1449 O 0.45677 0.39069 0.11731 0.0
O1450 O 0.57648 0.52728 0.11554 0.0
O1451 O 0.57121 0.54082 0.26742 0.0
H1452 H 0.47453 0.42146 0.2919 0.0
H1453 H 0.48177 0.40013 0.29678 0.0
H1454 H 0.46063 0.38409 0.29649 0.0
H1455 H 0.46896 0.40038 0.31332 0.0
H1456 H 0.46261 0.43051 0.26537 0.0
H1457 H 0.48705 0.40419 0.25159 0.0
H1458 H 0.48788 0.46768 0.25175 0.0
H1459 H 0.46621 0.45375 0.2502 0.0
H1460 H 0.47791 0.45929 0.23109 0.0
H1461 H 0.51056 0.41626 0.23522 0.0
H1462 H 0.52023 0.43812 0.23124 0.0
H1463 H 0.50509 0.42303 0.2162 0.0
H1464 H 0.58288 0.53419 0.28614 0.0
H1465 H 0.61799 0.57066 0.26865 0.0
H1466 H 0.59515 0.56077 0.29775 0.0
H1467 H 0.58751 0.56733 0.28266 0.0
H1468 H 0.5751 0.51454 0.26088 0.0
H1469 H 0.54516 0.53594 0.25152 0.0
H1470 H 0.5572 0.48271 0.22808 0.0
H1471 H 0.54805 0.47448 0.24796 0.0
H1472 H 0.56959 0.48915 0.24777 0.0
H1473 H 0.52053 0.52182 0.23503 0.0
H1474 H 0.51047 0.49944 0.23529 0.0
H1475 H 0.52176 0.50985 0.2171 0.0
H1476 H 0.59623 0.52306 0.11466 0.0
H1477 H 0.57516 0.49902 0.1245 0.0
H1478 H 0.5516 0.5279 0.1268 0.0
H1479 H 0.5524 0.47111 0.15666 0.0
H1480 H 0.5663 0.47486 0.13969 0.0
H1481 H 0.54467 0.46231 0.13542 0.0
H1482 H 0.52589 0.51781 0.13877 0.0
H1483 H 0.52582 0.50857 0.15875 0.0
H1484 H 0.51366 0.49558 0.14067 0.0
H1485 H 0.43644 0.38809 0.12907 0.0
H1486 H 0.42151 0.35743 0.12638 0.0
H1487 H 0.44105 0.36556 0.13739 0.0
H1488 H 0.43822 0.35781 0.11535 0.0
H1489 H 0.48567 0.39804 0.1271 0.0
H1490 H 0.45236 0.41615 0.1256 0.0
H1491 H 0.5131 0.42698 0.15905 0.0
H1492 H 0.52051 0.43465 0.13842 0.0
H1493 H 0.51127 0.41272 0.14175 0.0
H1494 H 0.45911 0.44254 0.13723 0.0
H1495 H 0.48058 0.45779 0.138 0.0
H1496 H 0.47112 0.44753 0.15704 0.0
H1497 H 0.5167 0.4707 0.2494 0.0
H1498 H 0.54931 0.50601 0.20547 0.0
H1499 H 0.54916 0.5035 0.17478 0.0
H1500 H 0.51492 0.46179 0.13135 0.0
H1501 H 0.48123 0.42719 0.17527 0.0
H1502 H 0.4817 0.42952 0.20601 0.0
H1503 H 0.61061 0.54693 0.10059 0.0
H1504 H 0.59541 0.55073 0.10021 0.0
H1505 H 0.59032 0.5286 0.06896 0.0
C1506 C 0.43569 0.96122 0.2907 0.0
C1507 C 0.43893 0.97643 0.28082 0.0
C1508 C 0.44802 0.9798 0.2517 0.0
C1509 C 0.45707 0.99717 0.25135 0.0
C1510 C 0.46975 0.00497 0.24002 0.0
C1511 C 0.47359 0.99514 0.22906 0.0
C1512 C 0.46411 0.97757 0.22907 0.0
C1513 C 0.45118 0.97012 0.24018 0.0
C1514 C 0.47933 0.02371 0.24009 0.0
C1515 C 0.46802 0.96665 0.21788 0.0
C1516 C 0.57742 0.04699 0.29267 0.0
C1517 C 0.57044 0.03202 0.27985 0.0
C1518 C 0.56052 0.03259 0.25141 0.0
C1519 C 0.55082 0.0158 0.2462 0.0
C1520 C 0.5373 0.01049 0.23485 0.0
C1521 C 0.53323 0.02223 0.22901 0.0
C1522 C 0.54322 0.03927 0.23413 0.0
C1523 C 0.557 0.04427 0.24501 0.0
C1524 C 0.52715 0.99227 0.22947 0.0
C1525 C 0.53904 0.0521 0.22868 0.0
C1526 C 0.56143 0.04969 0.12269 0.0
C1527 C 0.5545 0.03272 0.12561 0.0
C1528 C 0.53911 0.02384 0.1326 0.0
C1529 C 0.53074 0.03227 0.13713 0.0
C1530 C 0.53737 0.04918 0.13332 0.0
C1531 C 0.55258 0.05761 0.12588 0.0
C1532 C 0.53206 0.00562 0.13568 0.0
C1533 C 0.5287 0.05851 0.13774 0.0
C1534 C 0.3974 0.97062 0.1183 0.0
C1535 C 0.41296 0.98656 0.11409 0.0
C1536 C 0.44 0.98997 0.11963 0.0
C1537 C 0.44745 0.98046 0.12133 0.0
C1538 C 0.46263 0.98697 0.13 0.0
C1539 C 0.47062 0.00354 0.1369 0.0
C1540 C 0.46347 0.01349 0.13459 0.0
C1541 C 0.44822 0.00662 0.12591 0.0
C1542 C 0.46997 0.97606 0.13209 0.0
C1543 C 0.47188 0.03131 0.14149 0.0
C1544 C 0.48835 0.00323 0.21877 0.0
C1545 C 0.50336 0.00894 0.22739 0.0
C1546 C 0.51786 0.01647 0.21872 0.0
C1547 C 0.51746 0.01836 0.20083 0.0
C1548 C 0.53179 0.02575 0.19164 0.0
C1549 C 0.53129 0.02781 0.1741 0.0
C1550 C 0.51639 0.02209 0.16493 0.0
C1551 C 0.51573 0.02384 0.147 0.0
C1552 C 0.5007 0.01779 0.13828 0.0
C1553 C 0.4862 0.0102 0.14701 0.0
C1554 C 0.48663 0.00862 0.16497 0.0
C1555 C 0.47229 0.00133 0.1742 0.0
C1556 C 0.47283 0.99974 0.19185 0.0
C1557 C 0.48769 0.00513 0.20091 0.0
C1558 C 0.50231 0.01266 0.1919 0.0
C1559 C 0.50178 0.01446 0.17392 0.0
C1560 C 0.60308 0.07577 0.13066 0.0
C1561 C 0.59003 0.05825 0.12424 0.0
O1562 O 0.43651 0.97213 0.26339 0.0
O1563 O 0.42504 0.98267 0.11161 0.0
O1564 O 0.57681 0.05877 0.11728 0.0
O1565 O 0.57284 0.03757 0.2633 0.0
H1566 H 0.45186 0.98615 0.2839 0.0
H1567 H 0.44417 0.95696 0.28673 0.0
H1568 H 0.42301 0.95084 0.28805 0.0
H1569 H 0.43765 0.96439 0.30473 0.0
H1570 H 0.4543 0.00459 0.26007 0.0
H1571 H 0.44398 0.9567 0.24054 0.0
H1572 H 0.49156 0.0283 0.24626 0.0
H1573 H 0.47326 0.02941 0.24724 0.0
H1574 H 0.48108 0.02794 0.22674 0.0
H1575 H 0.4604 0.95329 0.22057 0.0
H1576 H 0.48103 0.97042 0.21987 0.0
H1577 H 0.46599 0.96819 0.20417 0.0
H1578 H 0.55715 0.02451 0.28212 0.0
H1579 H 0.57569 0.04279 0.30604 0.0
H1580 H 0.571 0.05402 0.29076 0.0
H1581 H 0.59059 0.05549 0.29087 0.0
H1582 H 0.55376 0.00687 0.25117 0.0
H1583 H 0.56463 0.05722 0.24922 0.0
H1584 H 0.52422 0.99069 0.21544 0.0
H1585 H 0.51549 0.98671 0.23614 0.0
H1586 H 0.53341 0.98532 0.23271 0.0
H1587 H 0.5469 0.06439 0.23547 0.0
H1588 H 0.52613 0.04791 0.2312 0.0
H1589 H 0.54056 0.0537 0.21468 0.0
H1590 H 0.5865 0.05053 0.13575 0.0
H1591 H 0.56122 0.0265 0.12261 0.0
H1592 H 0.558 0.07067 0.1233 0.0
H1593 H 0.53298 0.00401 0.14962 0.0
H1594 H 0.53858 0.00029 0.12875 0.0
H1595 H 0.51897 0.99848 0.13155 0.0
H1596 H 0.53585 0.07181 0.13463 0.0
H1597 H 0.52625 0.05776 0.15164 0.0
H1598 H 0.5168 0.05268 0.13051 0.0
H1599 H 0.41611 0.99549 0.12529 0.0
H1600 H 0.38749 0.97323 0.12108 0.0
H1601 H 0.3997 0.96529 0.12984 0.0
H1602 H 0.39333 0.96124 0.1074 0.0
H1603 H 0.44111 0.96772 0.11617 0.0
H1604 H 0.44285 0.01431 0.12396 0.0
H1605 H 0.47154 0.9746 0.14596 0.0
H1606 H 0.48222 0.98206 0.12663 0.0
H1607 H 0.46234 0.96354 0.12569 0.0
H1608 H 0.46497 0.03759 0.13818 0.0
H1609 H 0.4842 0.03835 0.13626 0.0
H1610 H 0.47346 0.03173 0.15568 0.0
H1611 H 0.50375 0.00748 0.24112 0.0
H1612 H 0.54358 0.03014 0.19794 0.0
H1613 H 0.54276 0.03383 0.16781 0.0
H1614 H 0.50027 0.019 0.12451 0.0
H1615 H 0.46048 0.99682 0.16789 0.0
H1616 H 0.46143 0.99413 0.1983 0.0
H1617 H 0.60692 0.08454 0.12009 0.0
H1618 H 0.61388 0.07565 0.13613 0.0
H1619 H 0.59818 0.08036 0.14089 0.0
C1620 C 0.53955 0.9665 0.71894 0.0
C1621 C 0.54875 0.97945 0.73361 0.0
C1622 C 0.53951 0.97682 0.76273 0.0
C1623 C 0.54642 0.99372 0.76761 0.0
C1624 C 0.5401 0.99881 0.78104 0.0
C1625 C 0.52646 0.98673 0.78957 0.0
C1626 C 0.51977 0.96964 0.78495 0.0
C1627 C 0.52664 0.9649 0.77179 0.0
C1628 C 0.54777 0.0171 0.78588 0.0
C1629 C 0.50504 0.9564 0.79349 0.0
C1630 C 0.47354 0.03279 0.74444 0.0
C1631 C 0.45976 0.0169 0.75155 0.0
C1632 C 0.46838 0.01499 0.78006 0.0
C1633 C 0.46299 0.99838 0.78325 0.0
C1634 C 0.47273 0.99407 0.79301 0.0
C1635 C 0.48828 0.00671 0.79948 0.0
C1636 C 0.49348 0.02358 0.79676 0.0
C1637 C 0.48332 0.02754 0.78722 0.0
C1638 C 0.46668 0.97598 0.79585 0.0
C1639 C 0.51003 0.03734 0.80328 0.0
C1640 C 0.48084 0.01177 0.91404 0.0
C1641 C 0.47239 0.99669 0.90441 0.0
C1642 C 0.48066 0.99149 0.89348 0.0
C1643 C 0.49762 0.00198 0.89173 0.0
C1644 C 0.5062 0.01706 0.90182 0.0
C1645 C 0.49768 0.02161 0.91311 0.0
C1646 C 0.47119 0.97495 0.88363 0.0
C1647 C 0.52426 0.02854 0.9004 0.0
C1648 C 0.57899 0.94954 0.88772 0.0
C1649 C 0.57684 0.96327 0.89622 0.0
C1650 C 0.55206 0.96501 0.89285 0.0
C1651 C 0.53545 0.95505 0.88867 0.0
C1652 C 0.52628 0.96199 0.88278 0.0
C1653 C 0.53392 0.97939 0.88126 0.0
C1654 C 0.55058 0.98965 0.88621 0.0
C1655 C 0.5595 0.98236 0.89202 0.0
C1656 C 0.50848 0.9507 0.87785 0.0
C1657 C 0.55896 0.00828 0.88514 0.0
C1658 C 0.51849 0.99204 0.80241 0.0
C1659 C 0.50816 0.99744 0.79623 0.0
C1660 C 0.49969 0.00207 0.80737 0.0
C1661 C 0.50164 0.00146 0.82531 0.0
C1662 C 0.49348 0.0062 0.83693 0.0
C1663 C 0.49531 0.00531 0.85455 0.0
C1664 C 0.505 0.99917 0.86122 0.0
C1665 C 0.50634 0.99745 0.87907 0.0
C1666 C 0.51599 0.99119 0.88519 0.0
C1667 C 0.52455 0.98672 0.87399 0.0
C1668 C 0.52354 0.98854 0.85614 0.0
C1669 C 0.53217 0.98437 0.84454 0.0
C1670 C 0.53079 0.98582 0.82697 0.0
C1671 C 0.52052 0.99122 0.82029 0.0
C1672 C 0.51197 0.99584 0.83177 0.0
C1673 C 0.51355 0.99458 0.84973 0.0
C1674 C 0.46617 0.03854 0.9221 0.0
C1675 C 0.46122 0.02055 0.91715 0.0
O1676 O 0.54475 0.9717 0.74909 0.0
O1677 O 0.56035 0.95738 0.89771 0.0
O1678 O 0.47281 0.01726 0.92386 0.0
O1679 O 0.45964 0.01889 0.76923 0.0
H1680 H 0.54458 0.98865 0.7329 0.0
H1681 H 0.52624 0.96086 0.72037 0.0
H1682 H 0.54253 0.95642 0.71903 0.0
H1683 H 0.54267 0.97243 0.70637 0.0
H1684 H 0.55669 0.00293 0.76086 0.0
H1685 H 0.52152 0.95188 0.76797 0.0
H1686 H 0.5394 0.02149 0.78181 0.0
H1687 H 0.55956 0.02466 0.77971 0.0
H1688 H 0.54979 0.01925 0.80003 0.0
H1689 H 0.50041 0.94385 0.78728 0.0
H1690 H 0.49513 0.95937 0.79311 0.0
H1691 H 0.5082 0.95604 0.80718 0.0
H1692 H 0.46207 0.00655 0.74828 0.0
H1693 H 0.47357 0.03144 0.73023 0.0
H1694 H 0.48546 0.03524 0.74983 0.0
H1695 H 0.47213 0.04364 0.74789 0.0
H1696 H 0.45134 0.9888 0.77768 0.0
H1697 H 0.4873 0.04036 0.78465 0.0
H1698 H 0.46855 0.97425 0.80956 0.0
H1699 H 0.47376 0.97183 0.78813 0.0
H1700 H 0.45358 0.96793 0.79205 0.0
H1701 H 0.51221 0.04983 0.80018 0.0
H1702 H 0.51961 0.03552 0.79751 0.0
H1703 H 0.51124 0.03691 0.81741 0.0
H1704 H 0.46074 0.01946 0.90282 0.0
H1705 H 0.45934 0.98906 0.90544 0.0
H1706 H 0.50402 0.03322 0.92073 0.0
H1707 H 0.46923 0.97702 0.87008 0.0
H1708 H 0.45909 0.96693 0.88904 0.0
H1709 H 0.47805 0.96823 0.88369 0.0
H1710 H 0.52877 0.04055 0.90778 0.0
H1711 H 0.52725 0.0311 0.88673 0.0
H1712 H 0.53086 0.02244 0.90535 0.0
H1713 H 0.58231 0.97389 0.88759 0.0
H1714 H 0.59211 0.95396 0.88627 0.0
H1715 H 0.57283 0.94603 0.87476 0.0
H1716 H 0.57359 0.93832 0.89548 0.0
H1717 H 0.52977 0.94171 0.88964 0.0
H1718 H 0.57219 0.99025 0.89596 0.0
H1719 H 0.50628 0.95185 0.86405 0.0
H1720 H 0.50105 0.95454 0.88536 0.0
H1721 H 0.50427 0.93745 0.88009 0.0
H1722 H 0.57185 0.01461 0.88997 0.0
H1723 H 0.55241 0.01317 0.89271 0.0
H1724 H 0.5586 0.01145 0.87159 0.0
H1725 H 0.50649 0.99779 0.78247 0.0
H1726 H 0.48561 0.0107 0.83251 0.0
H1727 H 0.48883 0.00928 0.86287 0.0
H1728 H 0.51674 0.98964 0.89885 0.0
H1729 H 0.54008 0.97991 0.84891 0.0
H1730 H 0.53774 0.98245 0.81865 0.0
H1731 H 0.46714 0.04064 0.93628 0.0
H1732 H 0.4571 0.04151 0.91671 0.0
H1733 H 0.47817 0.04713 0.91683 0.0
C1734 C 0.04781 0.60804 0.76006 0.0
C1735 C 0.03002 0.59445 0.75615 0.0
C1736 C 0.0193 0.57466 0.779 0.0
C1737 C 0.00553 0.5669 0.78878 0.0
C1738 C 0.0013 0.55205 0.79669 0.0
C1739 C 0.01169 0.54533 0.79553 0.0
C1740 C 0.02584 0.55331 0.78585 0.0
C1741 C 0.02939 0.5678 0.77748 0.0
C1742 C 0.98568 0.54357 0.80618 0.0
C1743 C 0.03725 0.54658 0.78437 0.0
C1744 C 0.97041 0.45094 0.71775 0.0
C1745 C 0.97945 0.44978 0.73359 0.0
C1746 C 0.9776 0.46084 0.76196 0.0
C1747 C 0.99412 0.46881 0.76723 0.0
C1748 C 0.00031 0.48097 0.78076 0.0
C1749 C 0.98973 0.48505 0.78927 0.0
C1750 C 0.9729 0.4762 0.78475 0.0
C1751 C 0.96704 0.46409 0.77121 0.0
C1752 C 0.01825 0.48988 0.78559 0.0
C1753 C 0.96123 0.48006 0.79372 0.0
C1754 C 0.98636 0.45043 0.89509 0.0
C1755 C 0.00248 0.46053 0.89029 0.0
C1756 C 0.00761 0.4762 0.88377 0.0
C1757 C 0.99641 0.48185 0.88209 0.0
C1758 C 0.98041 0.47206 0.88777 0.0
C1759 C 0.97565 0.4565 0.89436 0.0
C1760 C 0.0249 0.48656 0.87832 0.0
C1761 C 0.96824 0.47783 0.88637 0.0
C1762 C 0.04209 0.61199 0.90281 0.0
C1763 C 0.02806 0.59882 0.91274 0.0
C1764 C 0.02613 0.57188 0.90768 0.0
C1765 C 0.03705 0.56628 0.90502 0.0
C1766 C 0.03242 0.55162 0.89509 0.0
C1767 C 0.01633 0.5422 0.88802 0.0
C1768 C 0.00498 0.54738 0.89144 0.0
C1769 C 0.01 0.56218 0.90124 0.0
C1770 C 0.04479 0.5464 0.89183 0.0
C1771 C 0.98758 0.53735 0.88457 0.0
C1772 C 0.00758 0.52982 0.80418 0.0
C1773 C 0.00126 0.51515 0.794 0.0
C1774 C 0.99652 0.49993 0.80123 0.0
C1775 C 0.99788 0.4992 0.81923 0.0
C1776 C 0.99304 0.48408 0.82698 0.0
C1777 C 0.99417 0.4835 0.84476 0.0
C1778 C 0.00017 0.49802 0.85545 0.0
C1779 C 0.00117 0.49756 0.87354 0.0
C1780 C 0.00665 0.51212 0.8838 0.0
C1781 C 0.01151 0.52733 0.87646 0.0
C1782 C 0.0112 0.52816 0.85838 0.0
C1783 C 0.01668 0.54337 0.85056 0.0
C1784 C 0.01586 0.544 0.8328 0.0
C1785 C 0.00927 0.52941 0.82218 0.0
C1786 C 0.00418 0.51401 0.82974 0.0
C1787 C 0.00524 0.5134 0.84787 0.0
C1788 C 0.97085 0.40751 0.88838 0.0
C1789 C 0.98577 0.42392 0.89478 0.0
O1790 O 0.02264 0.58895 0.77161 0.0
O1791 O 0.03142 0.58646 0.91685 0.0
O1792 O 0.98072 0.43479 0.90038 0.0
O1793 O 0.97134 0.44998 0.7481 0.0
H1794 H 0.02972 0.58408 0.74838 0.0
H1795 H 0.0536 0.60384 0.76962 0.0
H1796 H 0.04853 0.61959 0.76542 0.0
H1797 H 0.05495 0.61082 0.74831 0.0
H1798 H 0.99786 0.57235 0.78986 0.0
H1799 H 0.04019 0.57389 0.77008 0.0
H1800 H 0.97911 0.52992 0.80334 0.0
H1801 H 0.97746 0.54835 0.80277 0.0
H1802 H 0.98853 0.54581 0.82021 0.0
H1803 H 0.04887 0.55553 0.77864 0.0
H1804 H 0.03132 0.53495 0.77613 0.0
H1805 H 0.03997 0.5435 0.7972 0.0
H1806 H 0.99196 0.46077 0.73377 0.0
H1807 H 0.97667 0.45087 0.70591 0.0
H1808 H 0.97014 0.46271 0.71867 0.0
H1809 H 0.95767 0.44035 0.71675 0.0
H1810 H 0.00225 0.4657 0.76075 0.0
H1811 H 0.95424 0.45757 0.7673 0.0
H1812 H 0.02011 0.48983 0.79969 0.0
H1813 H 0.02394 0.50305 0.78209 0.0
H1814 H 0.02458 0.48414 0.77901 0.0
H1815 H 0.94837 0.47136 0.78943 0.0
H1816 H 0.96425 0.49293 0.79114 0.0
H1817 H 0.96248 0.47941 0.80782 0.0
H1818 H 0.99365 0.42878 0.88358 0.0
H1819 H 0.01104 0.45619 0.89157 0.0
H1820 H 0.96333 0.44872 0.89841 0.0
H1821 H 0.02492 0.48763 0.86418 0.0
H1822 H 0.03251 0.4811 0.88187 0.0
H1823 H 0.03052 0.49933 0.8843 0.0
H1824 H 0.95625 0.46872 0.8913 0.0
H1825 H 0.96649 0.47992 0.87275 0.0
H1826 H 0.97296 0.48988 0.89373 0.0
H1827 H 0.01688 0.59372 0.90427 0.0
H1828 H 0.03964 0.62203 0.89943 0.0
H1829 H 0.04342 0.60623 0.89073 0.0
H1830 H 0.05372 0.6175 0.91056 0.0
H1831 H 0.04939 0.5737 0.91035 0.0
H1832 H 0.00127 0.56602 0.904 0.0
H1833 H 0.04604 0.54534 0.87778 0.0
H1834 H 0.04054 0.53396 0.89695 0.0
H1835 H 0.05693 0.55532 0.89787 0.0
H1836 H 0.97986 0.5421 0.88981 0.0
H1837 H 0.98228 0.52412 0.88774 0.0
H1838 H 0.98724 0.53778 0.87036 0.0
H1839 H 0.99986 0.51555 0.7802 0.0
H1840 H 0.98825 0.47254 0.81938 0.0
H1841 H 0.99015 0.47149 0.85001 0.0
H1842 H 0.00703 0.51158 0.89767 0.0
H1843 H 0.02167 0.55498 0.85808 0.0
H1844 H 0.0203 0.55607 0.82751 0.0
H1845 H 0.96209 0.40195 0.89874 0.0
H1846 H 0.97455 0.39854 0.88384 0.0
H1847 H 0.96461 0.40973 0.87748 0.0
C1848 C 0.56741 0.59772 0.73716 0.0
C1849 C 0.55312 0.59168 0.74794 0.0
C1850 C 0.53789 0.57032 0.76827 0.0
C1851 C 0.52727 0.57614 0.7724 0.0
C1852 C 0.51422 0.56724 0.78305 0.0
C1853 C 0.51186 0.55235 0.78989 0.0
C1854 C 0.52278 0.5467 0.78616 0.0
C1855 C 0.53567 0.55579 0.77538 0.0
C1856 C 0.5028 0.57361 0.78682 0.0
C1857 C 0.52069 0.53095 0.79339 0.0
C1858 C 0.39207 0.46105 0.76436 0.0
C1859 C 0.4057 0.46028 0.75504 0.0
C1860 C 0.43007 0.47646 0.77442 0.0
C1861 C 0.44109 0.47497 0.78519 0.0
C1862 C 0.45412 0.48891 0.79375 0.0
C1863 C 0.45595 0.50479 0.79173 0.0
C1864 C 0.44487 0.50646 0.7808 0.0
C1865 C 0.43207 0.49227 0.77212 0.0
C1866 C 0.4659 0.48662 0.80494 0.0
C1867 C 0.44649 0.52322 0.77842 0.0
C1868 C 0.42583 0.50223 0.89906 0.0
C1869 C 0.43556 0.49548 0.89456 0.0
C1870 C 0.45039 0.50515 0.88669 0.0
C1871 C 0.45534 0.52176 0.88289 0.0
C1872 C 0.44585 0.52877 0.88812 0.0
C1873 C 0.43131 0.51894 0.89641 0.0
C1874 C 0.46054 0.49747 0.88207 0.0
C1875 C 0.45081 0.54648 0.88452 0.0
C1876 C 0.56911 0.62897 0.90149 0.0
C1877 C 0.561 0.6165 0.9155 0.0
C1878 C 0.54206 0.58955 0.90057 0.0
C1879 C 0.53904 0.57342 0.89719 0.0
C1880 C 0.52478 0.56139 0.88822 0.0
C1881 C 0.51331 0.56569 0.88235 0.0
C1882 C 0.51623 0.58198 0.8857 0.0
C1883 C 0.53057 0.59376 0.89478 0.0
C1884 C 0.52201 0.54411 0.8849 0.0
C1885 C 0.50426 0.58697 0.8795 0.0
C1886 C 0.4976 0.54236 0.80039 0.0
C1887 C 0.4836 0.52941 0.79202 0.0
C1888 C 0.46962 0.51956 0.80099 0.0
C1889 C 0.46936 0.52298 0.81874 0.0
C1890 C 0.45523 0.51391 0.82796 0.0
C1891 C 0.45527 0.51691 0.84555 0.0
C1892 C 0.46955 0.52889 0.85466 0.0
C1893 C 0.46993 0.53152 0.87269 0.0
C1894 C 0.48433 0.54356 0.8813 0.0
C1895 C 0.49842 0.55324 0.87237 0.0
C1896 C 0.49825 0.55086 0.85435 0.0
C1897 C 0.51218 0.56046 0.84496 0.0
C1898 C 0.51197 0.55782 0.82727 0.0
C1899 C 0.49786 0.54541 0.8183 0.0
C1900 C 0.48365 0.5357 0.82749 0.0
C1901 C 0.48381 0.53851 0.84551 0.0
C1902 C 0.38355 0.47597 0.89549 0.0
C1903 C 0.39967 0.47679 0.89989 0.0
O1904 O 0.55024 0.5782 0.75741 0.0
O1905 O 0.55622 0.60055 0.90924 0.0
O1906 O 0.41102 0.49284 0.90572 0.0
O1907 O 0.41774 0.46226 0.76676 0.0
H1908 H 0.54202 0.59051 0.74143 0.0
H1909 H 0.56249 0.59599 0.72349 0.0
H1910 H 0.57026 0.58737 0.73589 0.0
H1911 H 0.5849 0.62294 0.74903 0.0
H1912 H 0.529 0.58755 0.76727 0.0
H1913 H 0.54397 0.55145 0.77224 0.0
H1914 H 0.49018 0.56403 0.78262 0.0
H1915 H 0.50613 0.58526 0.78029 0.0
H1916 H 0.50291 0.57599 0.80087 0.0
H1917 H 0.53084 0.52883 0.79023 0.0
H1918 H 0.50911 0.52015 0.78814 0.0
H1919 H 0.51992 0.53147 0.80756 0.0
H1920 H 0.41095 0.47018 0.74558 0.0
H1921 H 0.38237 0.45938 0.75498 0.0
H1922 H 0.39683 0.47327 0.77134 0.0
H1923 H 0.38668 0.45117 0.7738 0.0
H1924 H 0.43945 0.46272 0.78682 0.0
H1925 H 0.42369 0.49365 0.76374 0.0
H1926 H 0.46435 0.48896 0.81862 0.0
H1927 H 0.47863 0.4957 0.80187 0.0
H1928 H 0.46398 0.47387 0.80336 0.0
H1929 H 0.43613 0.52228 0.77065 0.0
H1930 H 0.45792 0.5313 0.77189 0.0
H1931 H 0.44726 0.52936 0.79112 0.0
H1932 H 0.40352 0.47345 0.88772 0.0
H1933 H 0.43153 0.48266 0.89714 0.0
H1934 H 0.42379 0.52406 0.90021 0.0
H1935 H 0.45939 0.49469 0.86801 0.0
H1936 H 0.45662 0.4857 0.88864 0.0
H1937 H 0.47359 0.50626 0.88551 0.0
H1938 H 0.44146 0.54963 0.88822 0.0
H1939 H 0.45303 0.5486 0.87066 0.0
H1940 H 0.46236 0.55509 0.89181 0.0
H1941 H 0.55024 0.61712 0.91978 0.0
H1942 H 0.5733 0.6418 0.90666 0.0
H1943 H 0.56033 0.62618 0.89055 0.0
H1944 H 0.57968 0.62841 0.89656 0.0
H1945 H 0.54796 0.57028 0.90165 0.0
H1946 H 0.53271 0.60621 0.8971 0.0
H1947 H 0.5214 0.5414 0.87085 0.0
H1948 H 0.51018 0.53481 0.88998 0.0
H1949 H 0.53181 0.54255 0.89089 0.0
H1950 H 0.50837 0.60019 0.88295 0.0
H1951 H 0.4923 0.579 0.88514 0.0
H1952 H 0.50244 0.58497 0.86532 0.0
H1953 H 0.48368 0.52676 0.77839 0.0
H1954 H 0.44395 0.50438 0.82166 0.0
H1955 H 0.44401 0.50956 0.85193 0.0
H1956 H 0.48459 0.54543 0.89513 0.0
H1957 H 0.52343 0.5701 0.85119 0.0
H1958 H 0.52306 0.56552 0.82072 0.0
H1959 H 0.37423 0.46318 0.8908 0.0
H1960 H 0.38529 0.48462 0.88519 0.0
H1961 H 0.37903 0.47959 0.9069 0.0
C1962 C 0.62087 0.76035 0.63861 0.0
C1963 C 0.62339 0.75163 0.62303 0.0
C1964 C 0.62897 0.7704 0.5992 0.0
C1965 C 0.61286 0.76663 0.59595 0.0
C1966 C 0.60912 0.77443 0.583 0.0
C1967 C 0.62174 0.78646 0.57334 0.0
C1968 C 0.63797 0.79038 0.57666 0.0
C1969 C 0.64132 0.78215 0.58945 0.0
C1970 C 0.59167 0.77 0.57981 0.0
C1971 C 0.6518 0.80347 0.56693 0.0
C1972 C 0.59544 0.88029 0.59043 0.0
C1973 C 0.61084 0.88064 0.5971 0.0
C1974 C 0.61659 0.86326 0.57723 0.0
C1975 C 0.62851 0.86401 0.5666 0.0
C1976 C 0.62762 0.84953 0.55965 0.0
C1977 C 0.61401 0.83385 0.56288 0.0
C1978 C 0.6017 0.83298 0.57343 0.0
C1979 C 0.6032 0.84771 0.58067 0.0
C1980 C 0.64137 0.85111 0.54904 0.0
C1981 C 0.58698 0.81651 0.57709 0.0
C1982 C 0.59056 0.82919 0.45165 0.0
C1983 C 0.60669 0.8365 0.45807 0.0
C1984 C 0.61171 0.82747 0.46798 0.0
C1985 C 0.60021 0.81095 0.47193 0.0
C1986 C 0.58411 0.80335 0.46481 0.0
C1987 C 0.57958 0.81254 0.45449 0.0
C1988 C 0.62919 0.83574 0.4746 0.0
C1989 C 0.57156 0.78573 0.46855 0.0
C1990 C 0.6112 0.70541 0.46396 0.0
C1991 C 0.61456 0.71784 0.45002 0.0
C1992 C 0.62153 0.74458 0.46467 0.0
C1993 C 0.63408 0.76095 0.4681 0.0
C1994 C 0.63116 0.7728 0.4762 0.0
C1995 C 0.61523 0.76809 0.48104 0.0
C1996 C 0.60249 0.75148 0.4779 0.0
C1997 C 0.60576 0.73986 0.46983 0.0
C1998 C 0.64506 0.79038 0.47946 0.0
C1999 C 0.58539 0.74605 0.48302 0.0
C2000 C 0.61805 0.7957 0.5606 0.0
C2001 C 0.61687 0.80926 0.56675 0.0
C2002 C 0.61309 0.81844 0.5557 0.0
C2003 C 0.61001 0.81374 0.538 0.0
C2004 C 0.6051 0.82196 0.52668 0.0
C2005 C 0.60294 0.81785 0.50916 0.0
C2006 C 0.60593 0.80557 0.50222 0.0
C2007 C 0.6047 0.80198 0.4843 0.0
C2008 C 0.60778 0.78972 0.47789 0.0
C2009 C 0.61183 0.78068 0.4889 0.0
C2010 C 0.6129 0.78394 0.50687 0.0
C2011 C 0.61664 0.77489 0.51836 0.0
C2012 C 0.61796 0.77844 0.536 0.0
C2013 C 0.61601 0.79145 0.54278 0.0
C2014 C 0.612 0.80055 0.53145 0.0
C2015 C 0.61022 0.79664 0.5135 0.0
C2016 C 0.57264 0.85388 0.44942 0.0
C2017 C 0.58862 0.85387 0.44809 0.0
O2018 O 0.63329 0.76327 0.61161 0.0
O2019 O 0.62525 0.7339 0.45644 0.0
O2020 O 0.58522 0.83802 0.443 0.0
O2021 O 0.6185 0.87789 0.58355 0.0
H2022 H 0.61139 0.74273 0.61665 0.0
H2023 H 0.61483 0.76728 0.63449 0.0
H2024 H 0.63274 0.76929 0.6452 0.0
H2025 H 0.61301 0.75107 0.64783 0.0
H2026 H 0.60313 0.75776 0.60349 0.0
H2027 H 0.65372 0.78504 0.59209 0.0
H2028 H 0.59037 0.7808 0.58371 0.0
H2029 H 0.58306 0.75916 0.58708 0.0
H2030 H 0.58824 0.76715 0.5659 0.0
H2031 H 0.66384 0.80571 0.57172 0.0
H2032 H 0.65178 0.81536 0.56799 0.0
H2033 H 0.65015 0.79953 0.55311 0.0
H2034 H 0.60757 0.87093 0.60666 0.0
H2035 H 0.58915 0.88233 0.60126 0.0
H2036 H 0.5869 0.86805 0.58394 0.0
H2037 H 0.59851 0.8901 0.58108 0.0
H2038 H 0.63877 0.87608 0.56403 0.0
H2039 H 0.5938 0.84697 0.58878 0.0
H2040 H 0.63736 0.84862 0.53527 0.0
H2041 H 0.64487 0.84189 0.5527 0.0
H2042 H 0.6523 0.86374 0.55053 0.0
H2043 H 0.57733 0.81806 0.5831 0.0
H2044 H 0.59067 0.80981 0.58597 0.0
H2045 H 0.58185 0.80863 0.56506 0.0
H2046 H 0.59462 0.85743 0.4612 0.0
H2047 H 0.6153 0.84929 0.45538 0.0
H2048 H 0.56723 0.80698 0.44923 0.0
H2049 H 0.62995 0.83943 0.4884 0.0
H2050 H 0.63718 0.84708 0.46761 0.0
H2051 H 0.63388 0.82702 0.4734 0.0
H2052 H 0.55928 0.78209 0.46309 0.0
H2053 H 0.57082 0.78425 0.48264 0.0
H2054 H 0.57523 0.77707 0.46303 0.0
H2055 H 0.60284 0.71672 0.44569 0.0
H2056 H 0.60287 0.69252 0.45874 0.0
H2057 H 0.60533 0.70791 0.47489 0.0
H2058 H 0.62269 0.70639 0.4689 0.0
H2059 H 0.64623 0.76449 0.46423 0.0
H2060 H 0.59591 0.72718 0.46767 0.0
H2061 H 0.64625 0.79395 0.49336 0.0
H2062 H 0.64248 0.79905 0.47247 0.0
H2063 H 0.65682 0.79197 0.47531 0.0
H2064 H 0.57682 0.73263 0.47989 0.0
H2065 H 0.58092 0.75341 0.47632 0.0
H2066 H 0.58535 0.74852 0.49703 0.0
H2067 H 0.61919 0.81289 0.58034 0.0
H2068 H 0.60291 0.83171 0.53127 0.0
H2069 H 0.59915 0.82463 0.5011 0.0
H2070 H 0.60702 0.78717 0.46412 0.0
H2071 H 0.61857 0.76496 0.51383 0.0
H2072 H 0.62084 0.77107 0.54425 0.0
H2073 H 0.56568 0.85005 0.43689 0.0
H2074 H 0.57507 0.86648 0.45353 0.0
H2075 H 0.56505 0.84503 0.45911 0.0
C2076 C 0.11496 0.71122 0.60323 0.0
C2077 C 0.1153 0.72646 0.61164 0.0
C2078 C 0.12889 0.74976 0.59245 0.0
C2079 C 0.12637 0.76071 0.58288 0.0
C2080 C 0.13924 0.77399 0.575 0.0
C2081 C 0.155 0.77606 0.57638 0.0
C2082 C 0.15773 0.76516 0.58625 0.0
C2083 C 0.14465 0.75214 0.5943 0.0
C2084 C 0.1359 0.78557 0.56488 0.0
C2085 C 0.17438 0.76703 0.58791 0.0
C2086 C 0.25822 0.89748 0.62086 0.0
C2087 C 0.24792 0.87973 0.61514 0.0
C2088 C 0.22425 0.862 0.59594 0.0
C2089 C 0.22747 0.84889 0.59425 0.0
C2090 C 0.21695 0.83433 0.58434 0.0
C2091 C 0.20286 0.83278 0.57606 0.0
C2092 C 0.19956 0.84593 0.57776 0.0
C2093 C 0.21038 0.86042 0.5876 0.0
C2094 C 0.22084 0.82055 0.58277 0.0
C2095 C 0.18456 0.84462 0.56927 0.0
C2096 C 0.22832 0.84818 0.46391 0.0
C2097 C 0.23339 0.8392 0.4739 0.0
C2098 C 0.22225 0.82603 0.48349 0.0
C2099 C 0.20585 0.82217 0.48355 0.0
C2100 C 0.20072 0.83116 0.47344 0.0
C2101 C 0.21201 0.8439 0.46353 0.0
C2102 C 0.22804 0.81627 0.49354 0.0
C2103 C 0.18335 0.82742 0.47319 0.0
C2104 C 0.1065 0.69123 0.4645 0.0
C2105 C 0.11182 0.70926 0.46097 0.0
C2106 C 0.13878 0.73346 0.46806 0.0
C2107 C 0.15466 0.73751 0.47258 0.0
C2108 C 0.16555 0.7527 0.48125 0.0
C2109 C 0.16047 0.76426 0.48515 0.0
C2110 C 0.14461 0.76054 0.47993 0.0
C2111 C 0.1339 0.74513 0.47147 0.0
C2112 C 0.1824 0.7563 0.4865 0.0
C2113 C 0.13897 0.7728 0.4834 0.0
C2114 C 0.16827 0.78896 0.56653 0.0
C2115 C 0.17931 0.80412 0.57499 0.0
C2116 C 0.19134 0.81717 0.56607 0.0
C2117 C 0.19218 0.81519 0.54811 0.0
C2118 C 0.20364 0.82825 0.53857 0.0
C2119 C 0.20416 0.82624 0.52087 0.0
C2120 C 0.1935 0.81096 0.51207 0.0
C2121 C 0.19405 0.80869 0.49412 0.0
C2122 C 0.18318 0.79339 0.48579 0.0
C2123 C 0.17168 0.78014 0.49487 0.0
C2124 C 0.171 0.78212 0.51284 0.0
C2125 C 0.1597 0.769 0.52241 0.0
C2126 C 0.15887 0.77116 0.54 0.0
C2127 C 0.16937 0.78651 0.54874 0.0
C2128 C 0.18119 0.79977 0.53945 0.0
C2129 C 0.18192 0.79761 0.52145 0.0
C2130 C 0.26388 0.88235 0.44412 0.0
C2131 C 0.2555 0.86994 0.45712 0.0
O2132 O 0.11568 0.73693 0.59923 0.0
O2133 O 0.12864 0.71826 0.46034 0.0
O2134 O 0.23875 0.86098 0.45447 0.0
O2135 O 0.23412 0.8763 0.60541 0.0
H2136 H 0.12623 0.73313 0.62051 0.0
H2137 H 0.12617 0.71506 0.59607 0.0
H2138 H 0.10431 0.70441 0.59408 0.0
H2139 H 0.11433 0.70268 0.61321 0.0
H2140 H 0.11418 0.75878 0.58157 0.0
H2141 H 0.14678 0.74371 0.60161 0.0
H2142 H 0.1452 0.79872 0.5683 0.0
H2143 H 0.12365 0.78376 0.56714 0.0
H2144 H 0.13664 0.78328 0.55097 0.0
H2145 H 0.17442 0.7572 0.59558 0.0
H2146 H 0.18309 0.77935 0.59415 0.0
H2147 H 0.1788 0.76652 0.57496 0.0
H2148 H 0.2457 0.87053 0.62504 0.0
H2149 H 0.28097 0.90597 0.60645 0.0
H2150 H 0.25805 0.89757 0.63533 0.0
H2151 H 0.25051 0.90347 0.61949 0.0
H2152 H 0.23816 0.84992 0.60061 0.0
H2153 H 0.20797 0.87057 0.58895 0.0
H2154 H 0.21112 0.80926 0.58856 0.0
H2155 H 0.2327 0.82399 0.58923 0.0
H2156 H 0.22114 0.81731 0.56901 0.0
H2157 H 0.18353 0.85578 0.57218 0.0
H2158 H 0.17353 0.83348 0.57361 0.0
H2159 H 0.18485 0.84302 0.55514 0.0
H2160 H 0.25962 0.8743 0.47075 0.0
H2161 H 0.24596 0.84226 0.47412 0.0
H2162 H 0.20822 0.85084 0.4557 0.0
H2163 H 0.22842 0.81934 0.50746 0.0
H2164 H 0.24039 0.8191 0.49003 0.0
H2165 H 0.21947 0.80271 0.49134 0.0
H2166 H 0.18175 0.83675 0.46623 0.0
H2167 H 0.17932 0.82708 0.48652 0.0
H2168 H 0.17529 0.81498 0.46681 0.0
H2169 H 0.1077 0.71403 0.47187 0.0
H2170 H 0.09306 0.68374 0.46531 0.0
H2171 H 0.11213 0.69074 0.47693 0.0
H2172 H 0.11037 0.68563 0.45419 0.0
H2173 H 0.15838 0.72851 0.46966 0.0
H2174 H 0.1218 0.74233 0.46743 0.0
H2175 H 0.1846 0.7592 0.50056 0.0
H2176 H 0.19159 0.7674 0.47999 0.0
H2177 H 0.18423 0.7457 0.4832 0.0
H2178 H 0.12681 0.76864 0.47727 0.0
H2179 H 0.14786 0.78511 0.4786 0.0
H2180 H 0.13833 0.77448 0.49746 0.0
H2181 H 0.17843 0.80583 0.58867 0.0
H2182 H 0.21223 0.84023 0.54467 0.0
H2183 H 0.21308 0.83681 0.51418 0.0
H2184 H 0.18368 0.79176 0.47201 0.0
H2185 H 0.15129 0.75691 0.5164 0.0
H2186 H 0.14987 0.76062 0.54667 0.0
H2187 H 0.2783 0.87295 0.43038 0.0
H2188 H 0.26994 0.89481 0.45141 0.0
H2189 H 0.25438 0.8843 0.43743 0.0
C2190 C 0.13527 0.39054 0.63233 0.0
C2191 C 0.12344 0.38361 0.61657 0.0
C2192 C 0.13948 0.37719 0.59655 0.0
C2193 C 0.15083 0.3937 0.5929 0.0
C2194 C 0.16422 0.39733 0.58289 0.0
C2195 C 0.16628 0.38422 0.57636 0.0
C2196 C 0.15479 0.3676 0.57981 0.0
C2197 C 0.1415 0.36432 0.5898 0.0
C2198 C 0.17622 0.41518 0.57931 0.0
C2199 C 0.15661 0.35333 0.57302 0.0
C2200 C 0.27279 0.41678 0.63674 0.0
C2201 C 0.26144 0.4019 0.6247 0.0
C2202 C 0.25048 0.40369 0.59719 0.0
C2203 C 0.23748 0.38744 0.5941 0.0
C2204 C 0.22405 0.38425 0.58346 0.0
C2205 C 0.22348 0.39768 0.57617 0.0
C2206 C 0.23667 0.41413 0.57931 0.0
C2207 C 0.25022 0.41685 0.58945 0.0
C2208 C 0.21041 0.36653 0.58022 0.0
C2209 C 0.23636 0.42889 0.57232 0.0
C2210 C 0.25179 0.41411 0.46692 0.0
C2211 C 0.24197 0.39726 0.47042 0.0
C2212 C 0.22718 0.39164 0.47852 0.0
C2213 C 0.22229 0.40316 0.48341 0.0
C2214 C 0.23189 0.42001 0.47926 0.0
C2215 C 0.24643 0.4252 0.47083 0.0
C2216 C 0.21694 0.37347 0.48214 0.0
C2217 C 0.22697 0.43261 0.48408 0.0
C2218 C 0.10889 0.3932 0.46451 0.0
C2219 C 0.11802 0.38985 0.45045 0.0
C2220 C 0.13629 0.38207 0.46492 0.0
C2221 C 0.13925 0.36902 0.46729 0.0
C2222 C 0.15319 0.37157 0.47651 0.0
C2223 C 0.16446 0.38763 0.48356 0.0
C2224 C 0.16158 0.40092 0.48128 0.0
C2225 C 0.1475 0.39802 0.47207 0.0
C2226 C 0.15586 0.35711 0.47881 0.0
C2227 C 0.17335 0.4182 0.48869 0.0
C2228 C 0.18056 0.3879 0.56604 0.0
C2229 C 0.19487 0.39107 0.57476 0.0
C2230 C 0.20878 0.39456 0.56591 0.0
C2231 C 0.2085 0.39506 0.54778 0.0
C2232 C 0.22223 0.39852 0.53842 0.0
C2233 C 0.222 0.39958 0.52067 0.0
C2234 C 0.20786 0.39669 0.51151 0.0
C2235 C 0.20752 0.3978 0.49345 0.0
C2236 C 0.19318 0.39458 0.48474 0.0
C2237 C 0.17912 0.39047 0.49359 0.0
C2238 C 0.17929 0.38956 0.51166 0.0
C2239 C 0.16544 0.38571 0.52097 0.0
C2240 C 0.16581 0.38516 0.53878 0.0
C2241 C 0.18002 0.38831 0.54794 0.0
C2242 C 0.19408 0.392 0.5388 0.0
C2243 C 0.19373 0.39268 0.52063 0.0
C2244 C 0.2942 0.42956 0.46758 0.0
C2245 C 0.27732 0.41455 0.46316 0.0
O2246 O 0.12655 0.37305 0.60653 0.0
O2247 O 0.12251 0.37864 0.45583 0.0
O2248 O 0.26653 0.42008 0.45992 0.0
O2249 O 0.26319 0.40697 0.60799 0.0
H2250 H 0.12477 0.39403 0.60886 0.0
H2251 H 0.14802 0.39793 0.62839 0.0
H2252 H 0.13415 0.38025 0.64009 0.0
H2253 H 0.13265 0.39884 0.64049 0.0
H2254 H 0.1494 0.40383 0.59783 0.0
H2255 H 0.13267 0.35163 0.59259 0.0
H2256 H 0.18848 0.41858 0.58457 0.0
H2257 H 0.17276 0.42396 0.58503 0.0
H2258 H 0.17708 0.41666 0.56523 0.0
H2259 H 0.14667 0.3411 0.57694 0.0
H2260 H 0.16844 0.35499 0.57777 0.0
H2261 H 0.15668 0.35323 0.55878 0.0
H2262 H 0.24882 0.3977 0.62874 0.0
H2263 H 0.27159 0.41299 0.65025 0.0
H2264 H 0.26952 0.42661 0.63584 0.0
H2265 H 0.28567 0.42209 0.63322 0.0
H2266 H 0.23788 0.37728 0.6 0.0
H2267 H 0.26038 0.42935 0.59197 0.0
H2268 H 0.20667 0.36399 0.56636 0.0
H2269 H 0.1997 0.36457 0.58742 0.0
H2270 H 0.21389 0.35742 0.58439 0.0
H2271 H 0.2461 0.44084 0.57842 0.0
H2272 H 0.22441 0.4279 0.57436 0.0
H2273 H 0.23813 0.42917 0.5583 0.0
H2274 H 0.27382 0.40687 0.47468 0.0
H2275 H 0.24584 0.38852 0.46683 0.0
H2276 H 0.254 0.43812 0.46781 0.0
H2277 H 0.2171 0.37196 0.49619 0.0
H2278 H 0.22142 0.36582 0.47575 0.0
H2279 H 0.2041 0.36866 0.47776 0.0
H2280 H 0.23629 0.44542 0.48089 0.0
H2281 H 0.22491 0.43249 0.49805 0.0
H2282 H 0.21535 0.42926 0.47714 0.0
H2283 H 0.12901 0.40184 0.44764 0.0
H2284 H 0.10487 0.40179 0.45998 0.0
H2285 H 0.11697 0.39909 0.47615 0.0
H2286 H 0.09809 0.38146 0.46816 0.0
H2287 H 0.13054 0.35676 0.46183 0.0
H2288 H 0.14535 0.40826 0.47068 0.0
H2289 H 0.15682 0.35534 0.49271 0.0
H2290 H 0.16752 0.35983 0.47318 0.0
H2291 H 0.14587 0.34535 0.47266 0.0
H2292 H 0.16966 0.42735 0.4853 0.0
H2293 H 0.18568 0.42244 0.48394 0.0
H2294 H 0.17417 0.41799 0.50289 0.0
H2295 H 0.19518 0.39079 0.58866 0.0
H2296 H 0.23339 0.40066 0.54473 0.0
H2297 H 0.23305 0.40262 0.51422 0.0
H2298 H 0.19302 0.3955 0.47091 0.0
H2299 H 0.15415 0.38318 0.51462 0.0
H2300 H 0.15481 0.38225 0.54526 0.0
H2301 H 0.3031 0.42544 0.47019 0.0
H2302 H 0.29373 0.4364 0.47927 0.0
H2303 H 0.29847 0.43822 0.4569 0.0
H2304 H 0.01236 0.35177 0.04692 0.0
H2305 H 0.00891 0.42593 0.09372 0.0
H2306 H 0.98648 0.37382 0.02417 0.0
H2307 H 0.00899 0.38721 0.1227 0.0
H2308 H 0.00354 0.40877 0.06748 0.0
H2309 H 0.01412 0.36628 0.0744 0.0
C2310 C 0.00691 0.35951 0.04776 0.0
C2311 C 0.99923 0.36156 0.03326 0.0
C2312 C 0.00475 0.40407 0.07961 0.0
C2313 C 0.00154 0.37843 0.06443 0.0
C2314 C 0.00792 0.41391 0.09467 0.0
C2315 C 0.00994 0.40829 0.11057 0.0
C2316 C 0.00376 0.38858 0.08034 0.0
C2317 C 0.00807 0.39233 0.11075 0.0
C2318 C 0.00789 0.36775 0.06341 0.0
C2319 C 0.9924 0.37178 0.03505 0.0
N2320 N 0.00535 0.38315 0.09586 0.0
N2321 N 0.99393 0.38003 0.05028 0.0
H2322 H 0.65576 0.58772 0.04303 0.0
H2323 H 0.5611 0.52675 0.08472 0.0
H2324 H 0.62348 0.60555 0.05698 0.0
H2325 H 0.60826 0.51458 0.08719 0.0
H2326 H 0.58317 0.55621 0.06719 0.0
H2327 H 0.63619 0.5604 0.05348 0.0
C2328 C 0.64452 0.58585 0.04818 0.0
C2329 C 0.64131 0.59895 0.04938 0.0
C2330 C 0.58689 0.54755 0.07108 0.0
C2331 C 0.61894 0.56788 0.06105 0.0
C2332 C 0.57288 0.529 0.08094 0.0
C2333 C 0.5832 0.51848 0.0905 0.0
C2334 C 0.60726 0.55198 0.06815 0.0
C2335 C 0.60263 0.52135 0.08248 0.0
C2336 C 0.63343 0.57032 0.05419 0.0
C2337 C 0.62657 0.5959 0.05615 0.0
N2338 N 0.61321 0.53894 0.07333 0.0
N2339 N 0.61587 0.58063 0.06168 0.0
H2340 H 0.35836 0.00387 0.03807 0.0
H2341 H 0.42257 0.98617 0.08056 0.0
H2342 H 0.40158 0.0139 0.01182 0.0
H2343 H 0.39594 0.00283 0.11139 0.0
H2344 H 0.41457 0.99525 0.05501 0.0
H2345 H 0.37121 0.00258 0.06504 0.0
C2346 C 0.37067 0.00607 0.03806 0.0
C2347 C 0.37894 0.00898 0.02273 0.0
C2348 C 0.41072 0.99717 0.06742 0.0
C2349 C 0.3935 0.0071 0.05337 0.0
C2350 C 0.41526 0.99198 0.08204 0.0
C2351 C 0.40995 0.9938 0.09822 0.0
C2352 C 0.40041 0.00377 0.06888 0.0
C2353 C 0.4003 0.00123 0.09919 0.0
C2354 C 0.37799 0.00536 0.05343 0.0
C2355 C 0.39484 0.01173 0.0234 0.0
N2356 N 0.39562 0.0057 0.08469 0.0
N2357 N 0.40151 0.01039 0.03842 0.0
H2358 H 0.37812 0.97257 0.98179 0.0
H2359 H 0.432 0.00496 0.89905 0.0
H2360 H 0.36227 0.98281 0.93393 0.0
H2361 H 0.45273 0.00997 0.9501 0.0
H2362 H 0.40481 0.9893 0.91025 0.0
H2363 H 0.40389 0.97884 0.96886 0.0
C2364 C 0.37989 0.9756 0.96842 0.0
C2365 C 0.36818 0.97718 0.95882 0.0
C2366 C 0.4153 0.99359 0.91898 0.0
C2367 C 0.39735 0.98442 0.94412 0.0
C2368 C 0.4308 0.00247 0.91258 0.0
C2369 C 0.4446 0.00874 0.92367 0.0
C2370 C 0.41353 0.99108 0.93666 0.0
C2371 C 0.44236 0.00528 0.94113 0.0
C2372 C 0.39459 0.97933 0.96111 0.0
C2373 C 0.37107 0.98148 0.94169 0.0
N2374 N 0.42709 0.9968 0.94714 0.0
N2375 N 0.38539 0.98503 0.93491 0.0
H2376 H 0.99923 0.37723 0.98062 0.0
H2377 H 0.01421 0.42318 0.89364 0.0
H2378 H 0.04192 0.39143 0.95161 0.0
H2379 H 0.97728 0.41736 0.92839 0.0
H2380 H 0.02641 0.41446 0.91594 0.0
H2381 H 0.99295 0.39486 0.96344 0.0
C2382 C 0.00742 0.38433 0.97077 0.0
C2383 C 0.02099 0.38282 0.96734 0.0
C2384 C 0.01582 0.41539 0.91882 0.0
C2385 C 0.01375 0.40272 0.94734 0.0
C2386 C 0.00886 0.42035 0.90609 0.0
C2387 C 0.99472 0.42096 0.9092 0.0
C2388 C 0.00842 0.41074 0.93466 0.0
C2389 C 0.98819 0.41706 0.9255 0.0
C2390 C 0.00386 0.39441 0.96097 0.0
C2391 C 0.03135 0.39236 0.95461 0.0
N2392 N 0.99498 0.41193 0.93754 0.0
N2393 N 0.02734 0.40169 0.9448 0.0
H2394 H 0.64218 0.63535 0.98436 0.0
H2395 H 0.55959 0.62819 0.94792 0.0
H2396 H 0.60674 0.63715 0.0166 0.0
H2397 H 0.58899 0.61472 0.91775 0.0
H2398 H 0.57839 0.63464 0.97265 0.0
H2399 H 0.62451 0.63103 0.95917 0.0
C2400 C 0.63075 0.63495 0.98616 0.0
C2401 C 0.62592 0.63655 0.00266 0.0
C2402 C 0.58074 0.63029 0.96062 0.0
C2403 C 0.60566 0.6316 0.97387 0.0
C2404 C 0.57003 0.62661 0.94651 0.0
C2405 C 0.5727 0.62082 0.9308 0.0
C2406 C 0.59432 0.6283 0.95898 0.0
C2407 C 0.58648 0.61912 0.92965 0.0
C2408 C 0.62064 0.63241 0.97177 0.0
C2409 C 0.61094 0.63589 0.00416 0.0
N2410 N 0.59678 0.62283 0.94356 0.0
N2411 N 0.60135 0.63346 0.98997 0.0
H2412 H 0.99502 0.64498 0.98768 0.0
H2413 H 0.04576 0.60761 0.94363 0.0
H2414 H 0.03335 0.6415 0.01422 0.0
H2415 H 0.00569 0.60864 0.91819 0.0
H2416 H 0.04229 0.62123 0.96923 0.0
H2417 H 0.99988 0.63325 0.96161 0.0
C2418 C 0.00454 0.64187 0.98803 0.0
C2419 C 0.01372 0.64417 0.00326 0.0
C2420 C 0.0342 0.61842 0.95809 0.0
C2421 C 0.01928 0.63059 0.97338 0.0
C2422 C 0.03613 0.61058 0.94352 0.0
C2423 C 0.02575 0.60667 0.92892 0.0
C2424 C 0.02191 0.62255 0.95801 0.0
C2425 C 0.01375 0.61116 0.92929 0.0
C2426 C 0.00728 0.63511 0.97312 0.0
C2427 C 0.02593 0.63993 0.00284 0.0
N2428 N 0.01212 0.61881 0.94361 0.0
N2429 N 0.02829 0.63328 0.98818 0.0
H2430 H 0.37567 0.38565 0.94835 0.0
H2431 H 0.39414 0.47812 0.93436 0.0
H2432 H 0.36287 0.41301 0.98414 0.0
H2433 H 0.39951 0.44738 0.89568 0.0
H2434 H 0.38716 0.45635 0.9549 0.0
H2435 H 0.38915 0.41016 0.93125 0.0
C2436 C 0.3759 0.39688 0.95277 0.0
C2437 C 0.36799 0.39722 0.96762 0.0
C2438 C 0.39006 0.45445 0.94197 0.0
C2439 C 0.38327 0.42531 0.94797 0.0
C2440 C 0.39407 0.46688 0.93029 0.0
C2441 C 0.39736 0.4645 0.91331 0.0
C2442 C 0.38932 0.43955 0.93662 0.0
C2443 C 0.39705 0.4497 0.90865 0.0
C2444 C 0.38355 0.41087 0.94294 0.0
C2445 C 0.36871 0.41215 0.9727 0.0
N2446 N 0.393 0.43775 0.9202 0.0
N2447 N 0.37607 0.42557 0.96281 0.0
H2448 H 0.60655 0.96679 0.00318 0.0
H2449 H 0.60707 0.98992 0.90498 0.0
H2450 H 0.64827 0.00672 0.98017 0.0
H2451 H 0.56673 0.94773 0.92683 0.0
H2452 H 0.62201 0.99692 0.93277 0.0
H2453 H 0.59153 0.96004 0.97557 0.0
C2454 C 0.6126 0.97411 0.99233 0.0
C2455 C 0.62874 0.98737 0.99406 0.0
C2456 C 0.60985 0.98619 0.93154 0.0
C2457 C 0.6115 0.97973 0.96237 0.0
C2458 C 0.6013 0.98226 0.91572 0.0
C2459 C 0.58556 0.96841 0.9137 0.0
C2460 C 0.60264 0.97612 0.94545 0.0
C2461 C 0.57875 0.95868 0.92793 0.0
C2462 C 0.60398 0.97025 0.97655 0.0
C2463 C 0.63588 0.99638 0.97949 0.0
N2464 N 0.58732 0.96273 0.9432 0.0
N2465 N 0.62721 0.99243 0.9643 0.0
H2466 H 0.64616 0.05049 0.04247 0.0
H2467 H 0.59543 0.03216 0.1271 0.0
H2468 H 0.63405 0.00865 0.07365 0.0
H2469 H 0.59986 0.06862 0.09159 0.0
H2470 H 0.6086 0.02265 0.10689 0.0
H2471 H 0.62841 0.05676 0.05944 0.0
C2472 C 0.63965 0.04253 0.05276 0.0
C2473 C 0.64166 0.02908 0.0567 0.0
C2474 C 0.60659 0.03264 0.10341 0.0
C2475 C 0.62146 0.03624 0.07623 0.0
C2476 C 0.59907 0.03806 0.11495 0.0
C2477 C 0.59669 0.05127 0.11105 0.0
C2478 C 0.61196 0.04062 0.08791 0.0
C2479 C 0.60159 0.05847 0.09511 0.0
C2480 C 0.62951 0.0461 0.06243 0.0
C2481 C 0.63289 0.01915 0.07014 0.0
N2482 N 0.60916 0.05316 0.08419 0.0
N2483 N 0.62331 0.02302 0.07951 0.0
H2484 H 0.99674 0.63182 0.08126 0.0
H2485 H 0.94155 0.5333 0.08917 0.0
H2486 H 0.95512 0.60058 0.04737 0.0
H2487 H 0.97645 0.56651 0.12838 0.0
H2488 H 0.94896 0.55713 0.07132 0.0
H2489 H 0.99206 0.6073 0.09625 0.0
C2490 C 0.9867 0.61978 0.07686 0.0
C2491 C 0.97626 0.61827 0.06308 0.0
C2492 C 0.95507 0.55917 0.08378 0.0
C2493 C 0.97078 0.59011 0.08027 0.0
C2494 C 0.95088 0.54559 0.09392 0.0
C2495 C 0.95834 0.54797 0.1103 0.0
C2496 C 0.96687 0.57521 0.09003 0.0
C2497 C 0.97037 0.56413 0.11586 0.0
C2498 C 0.984 0.60578 0.08548 0.0
C2499 C 0.96341 0.60233 0.058 0.0
N2500 N 0.97422 0.57713 0.10578 0.0
N2501 N 0.961 0.58887 0.06663 0.0
H2502 H 0.40623 0.36611 0.01163 0.0
H2503 H 0.41215 0.3832 0.11363 0.0
H2504 H 0.36791 0.36564 0.04068 0.0
H2505 H 0.44769 0.37712 0.08605 0.0
H2506 H 0.39673 0.3788 0.08658 0.0
H2507 H 0.42245 0.37186 0.03836 0.0
C2508 C 0.4012 0.36719 0.0236 0.0
C2509 C 0.38563 0.36535 0.02385 0.0
C2510 C 0.40797 0.37855 0.08639 0.0
C2511 C 0.40422 0.37204 0.05452 0.0
C2512 C 0.41681 0.38117 0.10181 0.0
C2513 C 0.43135 0.38083 0.10203 0.0
C2514 C 0.41365 0.37545 0.07104 0.0
C2515 C 0.43668 0.37778 0.0864 0.0
C2516 C 0.41048 0.37048 0.03887 0.0
C2517 C 0.3798 0.3669 0.0398 0.0
N2518 N 0.42784 0.37523 0.07154 0.0
N2519 N 0.38909 0.37018 0.05445 0.0
H2520 H 0.63323 0.69486 0.34742 0.0
H2521 H 0.64486 0.72096 0.44755 0.0
H2522 H 0.67262 0.69851 0.37928 0.0
H2523 H 0.60055 0.70572 0.41769 0.0
H2524 H 0.65607 0.71429 0.4225 0.0
H2525 H 0.62183 0.70022 0.37285 0.0
C2526 C 0.63948 0.69674 0.35977 0.0
C2527 C 0.65394 0.69625 0.36117 0.0
C2528 C 0.64388 0.71238 0.42146 0.0
C2529 C 0.64094 0.70254 0.39042 0.0
C2530 C 0.63752 0.71621 0.43571 0.0
C2531 C 0.62179 0.71396 0.43467 0.0
C2532 C 0.6345 0.70636 0.406 0.0
C2533 C 0.61276 0.70774 0.41904 0.0
C2534 C 0.63292 0.69978 0.37431 0.0
C2535 C 0.66142 0.69872 0.37757 0.0
N2536 N 0.61927 0.70424 0.40533 0.0
N2537 N 0.65489 0.70187 0.39155 0.0
H2538 H 0.31462 0.95182 0.41872 0.0
H2539 H 0.2429 0.84928 0.42218 0.0
H2540 H 0.29888 0.92075 0.37207 0.0
H2541 H 0.29032 0.88109 0.46706 0.0
H2542 H 0.26038 0.87786 0.40148 0.0
H2543 H 0.3007 0.92682 0.43537 0.0
C2544 C 0.30806 0.93974 0.412 0.0
C2545 C 0.30789 0.93825 0.39405 0.0
C2546 C 0.26535 0.87738 0.4139 0.0
C2547 C 0.29189 0.90991 0.41289 0.0
C2548 C 0.25496 0.85933 0.42602 0.0
C2549 C 0.26354 0.86309 0.44847 0.0
C2550 C 0.28379 0.89486 0.42264 0.0
C2551 C 0.28487 0.8794 0.4543 0.0
C2552 C 0.30027 0.92556 0.42149 0.0
C2553 C 0.29932 0.92234 0.38592 0.0
N2554 N 0.29207 0.89444 0.44109 0.0
N2555 N 0.29146 0.90869 0.39543 0.0
H2556 H 0.08176 0.37178 0.34462 0.0
H2557 H 0.08936 0.35988 0.44467 0.0
H2558 H 0.04122 0.33576 0.37254 0.0
H2559 H 0.12292 0.40393 0.41905 0.0
H2560 H 0.07254 0.34906 0.41795 0.0
H2561 H 0.09811 0.38182 0.37138 0.0
C2562 C 0.07628 0.36592 0.35637 0.0
C2563 C 0.06005 0.35289 0.3563 0.0
C2564 C 0.08357 0.3611 0.41822 0.0
C2565 C 0.07882 0.36439 0.38707 0.0
C2566 C 0.09314 0.36727 0.43343 0.0
C2567 C 0.1075 0.38287 0.4341 0.0
C2568 C 0.08851 0.3705 0.40353 0.0
C2569 C 0.11194 0.39188 0.41913 0.0
C2570 C 0.08564 0.37173 0.37167 0.0
C2571 C 0.05365 0.34586 0.37198 0.0
N2572 N 0.10252 0.38554 0.40447 0.0
N2573 N 0.06308 0.35167 0.38675 0.0
H2574 H 0.02593 0.28227 0.3114 0.0
H2575 H 0.08669 0.29647 0.23582 0.0
H2576 H 0.04619 0.32443 0.27921 0.0
H2577 H 0.06337 0.25121 0.26318 0.0
H2578 H 0.07333 0.30761 0.25352 0.0
H2579 H 0.04076 0.27121 0.29564 0.0
C2580 C 0.03356 0.28925 0.30112 0.0
C2581 C 0.03492 0.30437 0.29671 0.0
C2582 C 0.07117 0.29528 0.25579 0.0
C2583 C 0.05183 0.29184 0.2787 0.0
C2584 C 0.07887 0.28895 0.24572 0.0
C2585 C 0.07634 0.273 0.24825 0.0
C2586 C 0.06067 0.28555 0.2684 0.0
C2587 C 0.0658 0.26365 0.26102 0.0
C2588 C 0.04199 0.28293 0.29214 0.0
C2589 C 0.04492 0.31286 0.28326 0.0
N2590 N 0.05833 0.27006 0.27065 0.0
N2591 N 0.05295 0.30648 0.27476 0.0
H2592 H 0.68058 0.72512 0.30131 0.0
H2593 H 0.76187 0.81992 0.27798 0.0
H2594 H 0.72965 0.74274 0.32055 0.0
H2595 H 0.70195 0.80558 0.27617 0.0
H2596 H 0.75017 0.78839 0.29354 0.0
H2597 H 0.68941 0.75267 0.29049 0.0
C2598 C 0.69319 0.73474 0.30325 0.0
C2599 C 0.7044 0.73161 0.31184 0.0
C2600 C 0.74184 0.79262 0.29012 0.0
C2601 C 0.71454 0.76299 0.29936 0.0
C2602 C 0.74937 0.81253 0.28162 0.0
C2603 C 0.73269 0.81529 0.27273 0.0
C2604 C 0.72044 0.77952 0.29255 0.0
C2605 C 0.71156 0.80336 0.28033 0.0
C2606 C 0.69819 0.75046 0.29715 0.0
C2607 C 0.72059 0.74463 0.31409 0.0
N2608 N 0.70752 0.78573 0.28816 0.0
N2609 N 0.72522 0.75973 0.30772 0.0
H2610 H 0.26578 0.96744 0.35506 0.0
H2611 H 0.2457 0.93904 0.25543 0.0
H2612 H 0.29972 0.96413 0.32166 0.0
H2613 H 0.21695 0.95316 0.28588 0.0
H2614 H 0.26469 0.94617 0.28017 0.0
H2615 H 0.24679 0.96033 0.33041 0.0
C2616 C 0.26926 0.96524 0.34256 0.0
C2617 C 0.2844 0.9664 0.34047 0.0
C2618 C 0.25422 0.9477 0.28145 0.0
C2619 C 0.26265 0.95815 0.31219 0.0
C2620 C 0.24338 0.94359 0.26736 0.0
C2621 C 0.2297 0.94544 0.26864 0.0
C2622 C 0.25134 0.95363 0.29698 0.0
C2623 C 0.22729 0.95146 0.28437 0.0
C2624 C 0.25842 0.9612 0.32848 0.0
C2625 C 0.28823 0.96343 0.32392 0.0
N2626 N 0.23797 0.95529 0.29794 0.0
N2627 N 0.2774 0.95938 0.31045 0.0
H2628 H 0.70485 0.964 0.33593 0.0
H2629 H 0.70049 0.95282 0.23332 0.0
H2630 H 0.66695 0.96291 0.30357 0.0
H2631 H 0.74103 0.95954 0.26526 0.0
H2632 H 0.68691 0.95425 0.25909 0.0
H2633 H 0.71725 0.96032 0.31036 0.0
C2634 C 0.6991 0.96297 0.32346 0.0
C2635 C 0.68482 0.96382 0.32194 0.0
C2636 C 0.69871 0.95526 0.26049 0.0
C2637 C 0.69901 0.95955 0.29255 0.0
C2638 C 0.70641 0.95435 0.2458 0.0
C2639 C 0.72177 0.95579 0.2472 0.0
C2640 C 0.70649 0.95774 0.27672 0.0
C2641 C 0.72907 0.9581 0.26365 0.0
C2642 C 0.70621 0.96087 0.30885 0.0
C2643 C 0.67797 0.96239 0.3054 0.0
N2644 N 0.72137 0.95901 0.27776 0.0
N2645 N 0.68513 0.96033 0.29137 0.0
H2646 H 0.03488 0.74865 0.32578 0.0
H2647 H 0.0615 0.77973 0.23219 0.0
H2648 H 0.05153 0.72507 0.2896 0.0
H2649 H 0.05571 0.80964 0.27153 0.0
H2650 H 0.05979 0.76063 0.25384 0.0
H2651 H 0.04455 0.7723 0.30731 0.0
C2652 C 0.04086 0.74858 0.31413 0.0
C2653 C 0.04222 0.73476 0.30913 0.0
C2654 C 0.05908 0.77146 0.25783 0.0
C2655 C 0.05304 0.76163 0.28782 0.0
C2656 C 0.06003 0.78235 0.24545 0.0
C2657 C 0.05858 0.79617 0.25006 0.0
C2658 C 0.05639 0.77425 0.27494 0.0
C2659 C 0.05674 0.79902 0.26744 0.0
C2660 C 0.04634 0.76208 0.30357 0.0
C2661 C 0.0501 0.73538 0.29392 0.0
N2662 N 0.05547 0.78802 0.27923 0.0
N2663 N 0.05498 0.74846 0.28369 0.0
H2664 H 0.26346 0.29664 0.33277 0.0
H2665 H 0.2619 0.3029 0.23055 0.0
H2666 H 0.30184 0.33622 0.30564 0.0
H2667 H 0.22691 0.2602 0.25688 0.0
H2668 H 0.27523 0.31661 0.25826 0.0
H2669 H 0.24854 0.28436 0.3054 0.0
C2670 C 0.26875 0.30279 0.32109 0.0
C2671 C 0.284 0.31748 0.32156 0.0
C2672 C 0.26454 0.30431 0.25801 0.0
C2673 C 0.2669 0.30344 0.29012 0.0
C2674 C 0.25689 0.29654 0.24222 0.0
C2675 C 0.24315 0.28052 0.24145 0.0
C2676 C 0.25848 0.29595 0.2732 0.0
C2677 C 0.23733 0.27266 0.25692 0.0
C2678 C 0.26021 0.29575 0.30545 0.0
C2679 C 0.29018 0.32486 0.30595 0.0
N2680 N 0.24503 0.28045 0.27216 0.0
N2681 N 0.28163 0.31776 0.2909 0.0
H2682 H 0.29269 0.34655 0.40017 0.0
H2683 H 0.28109 0.42276 0.42919 0.0
H2684 H 0.30646 0.38917 0.36966 0.0
H2685 H 0.27528 0.38411 0.46229 0.0
H2686 H 0.28531 0.40799 0.40512 0.0
H2687 H 0.28085 0.35733 0.42061 0.0
C2688 C 0.29297 0.35803 0.39759 0.0
C2689 C 0.30076 0.36707 0.38327 0.0
C2690 C 0.28291 0.40263 0.4176 0.0
C2691 C 0.28739 0.3796 0.4068 0.0
C2692 C 0.28047 0.41103 0.4313 0.0
C2693 C 0.2779 0.40465 0.44773 0.0
C2694 C 0.28277 0.38776 0.42038 0.0
C2695 C 0.27725 0.38946 0.44982 0.0
C2696 C 0.28627 0.36422 0.40933 0.0
C2697 C 0.3007 0.38186 0.3806 0.0
N2698 N 0.27978 0.38158 0.43634 0.0
N2699 N 0.2943 0.38777 0.39237 0.0
H2700 H 0.65702 0.94295 0.39546 0.0
H2701 H 0.61575 0.8844 0.45513 0.0
H2702 H 0.6134 0.91437 0.36336 0.0
H2703 H 0.58546 0.85207 0.41268 0.0
H2704 H 0.63106 0.90601 0.43525 0.0
H2705 H 0.64762 0.91989 0.41438 0.0
C2706 C 0.64549 0.93178 0.39232 0.0
C2707 C 0.63588 0.93071 0.37792 0.0
C2708 C 0.62144 0.89407 0.43008 0.0
C2709 C 0.6246 0.90441 0.40004 0.0
C2710 C 0.6126 0.88175 0.44151 0.0
C2711 C 0.59942 0.8664 0.43551 0.0
C2712 C 0.61703 0.89108 0.41245 0.0
C2713 C 0.59564 0.86371 0.41778 0.0
C2714 C 0.63999 0.91864 0.40331 0.0
C2715 C 0.62113 0.91581 0.37442 0.0
N2716 N 0.60429 0.876 0.4069 0.0
N2717 N 0.61587 0.90331 0.38551 0.0
H2718 H 0.08316 0.70487 0.35345 0.0
H2719 H 0.08371 0.71017 0.45623 0.0
H2720 H 0.04241 0.69903 0.38207 0.0
H2721 H 0.12137 0.70884 0.42778 0.0
H2722 H 0.06943 0.70852 0.42911 0.0
H2723 H 0.09826 0.70855 0.38047 0.0
C2724 C 0.07736 0.70436 0.36539 0.0
C2725 C 0.06143 0.70158 0.36543 0.0
C2726 C 0.08089 0.70874 0.42878 0.0
C2727 C 0.07876 0.70587 0.39649 0.0
C2728 C 0.08908 0.70979 0.44424 0.0
C2729 C 0.10387 0.70994 0.44423 0.0
C2730 C 0.08749 0.70773 0.41315 0.0
C2731 C 0.11014 0.70905 0.42835 0.0
C2732 C 0.08602 0.70647 0.38084 0.0
C2733 C 0.05462 0.70107 0.38136 0.0
N2734 N 0.10192 0.70799 0.41346 0.0
N2735 N 0.06332 0.70321 0.39623 0.0
H2736 H 0.33787 0.03884 0.70903 0.0
H2737 H 0.26555 0.04798 0.74802 0.0
H2738 H 0.29735 0.03427 0.6785 0.0
H2739 H 0.31092 0.06375 0.77597 0.0
H2740 H 0.27597 0.04034 0.72311 0.0
H2741 H 0.32705 0.04529 0.73446 0.0
C2742 C 0.32666 0.03909 0.70767 0.0
C2743 C 0.31854 0.03605 0.69156 0.0
C2744 C 0.28368 0.0455 0.73467 0.0
C2745 C 0.30612 0.04342 0.72063 0.0
C2746 C 0.27773 0.04987 0.74888 0.0
C2747 C 0.28744 0.05663 0.76404 0.0
C2748 C 0.2994 0.04774 0.73563 0.0
C2749 C 0.30308 0.05864 0.7645 0.0
C2750 C 0.32054 0.04285 0.72219 0.0
C2751 C 0.30408 0.0366 0.69061 0.0
N2752 N 0.30858 0.05421 0.75051 0.0
N2753 N 0.29835 0.0402 0.70492 0.0
H2754 H 0.95357 0.27827 0.73543 0.0
H2755 H 0.95066 0.19403 0.75877 0.0
H2756 H 0.98733 0.26481 0.71506 0.0
H2757 H 0.92264 0.21333 0.78237 0.0
H2758 H 0.9627 0.21805 0.74038 0.0
H2759 H 0.94009 0.25243 0.74974 0.0
C2760 C 0.95814 0.26987 0.73382 0.0
C2761 C 0.97167 0.27386 0.724 0.0
C2762 C 0.95377 0.21687 0.74946 0.0
C2763 C 0.95636 0.24402 0.74093 0.0
C2764 C 0.94688 0.20318 0.75988 0.0
C2765 C 0.93535 0.20148 0.77181 0.0
C2766 C 0.94909 0.22891 0.75108 0.0
C2767 C 0.93118 0.2139 0.7731 0.0
C2768 C 0.95043 0.25503 0.74214 0.0
C2769 C 0.97692 0.26224 0.72251 0.0
N2770 N 0.93799 0.22699 0.76285 0.0
N2771 N 0.96933 0.24787 0.73104 0.0
H2772 H 0.73524 0.70308 0.67815 0.0
H2773 H 0.74991 0.6899 0.77626 0.0
H2774 H 0.70008 0.66142 0.70581 0.0
H2775 H 0.7783 0.73621 0.75161 0.0
H2776 H 0.73246 0.67829 0.75007 0.0
H2777 H 0.75219 0.71444 0.70446 0.0
C2778 C 0.73106 0.69629 0.68975 0.0
C2779 C 0.71618 0.68124 0.68973 0.0
C2780 C 0.74249 0.691 0.75042 0.0
C2781 C 0.73563 0.69423 0.71997 0.0
C2782 C 0.75244 0.69761 0.76533 0.0
C2783 C 0.76557 0.71403 0.76609 0.0
C2784 C 0.74577 0.70084 0.73611 0.0
C2785 C 0.76835 0.72348 0.75156 0.0
C2786 C 0.74075 0.70284 0.70479 0.0
C2787 C 0.71143 0.67307 0.70521 0.0
N2788 N 0.75858 0.71674 0.73716 0.0
N2789 N 0.72116 0.67964 0.71969 0.0
H2790 H 0.70592 0.65514 0.61251 0.0
H2791 H 0.76006 0.61201 0.60869 0.0
H2792 H 0.69967 0.61722 0.64702 0.0
H2793 H 0.77337 0.65898 0.58694 0.0
H2794 H 0.7357 0.61101 0.61993 0.0
H2795 H 0.72836 0.6538 0.5999 0.0
C2796 C 0.7093 0.64656 0.61751 0.0
C2797 C 0.70109 0.63651 0.63109 0.0
C2798 C 0.74397 0.6215 0.61268 0.0
C2799 C 0.72674 0.63475 0.61646 0.0
C2800 C 0.75783 0.62208 0.60627 0.0
C2801 C 0.76881 0.63567 0.597 0.0
C2802 C 0.74099 0.6345 0.60957 0.0
C2803 C 0.76528 0.6483 0.59407 0.0
C2804 C 0.72211 0.64577 0.61024 0.0
C2805 C 0.70577 0.6253 0.63667 0.0
N2806 N 0.75169 0.6474 0.60032 0.0
N2807 N 0.71836 0.62475 0.62937 0.0
H2808 H 0.3907 0.08194 0.64975 0.0
H2809 H 0.35716 0.14011 0.59737 0.0
H2810 H 0.34239 0.06085 0.62655 0.0
H2811 H 0.41714 0.15632 0.60804 0.0
H2812 H 0.34924 0.10946 0.6134 0.0
H2813 H 0.39782 0.10867 0.63803 0.0
C2814 C 0.38155 0.08293 0.64226 0.0
C2815 C 0.36591 0.06911 0.63913 0.0
C2816 C 0.36179 0.11901 0.61208 0.0
C2817 C 0.37398 0.09968 0.62582 0.0
C2818 C 0.36647 0.13821 0.6032 0.0
C2819 C 0.38843 0.15085 0.59839 0.0
C2820 C 0.37797 0.11563 0.6186 0.0
C2821 C 0.40428 0.14843 0.60996 0.0
C2822 C 0.38566 0.09818 0.63552 0.0
C2823 C 0.35458 0.07113 0.62925 0.0
N2824 N 0.39712 0.13009 0.61758 0.0
N2825 N 0.35881 0.08621 0.62303 0.0
H2826 H 0.96748 0.3005 0.64969 0.0
H2827 H 0.88545 0.28636 0.60404 0.0
H2828 H 0.92555 0.29293 0.67717 0.0
H2829 H 0.91967 0.27747 0.57715 0.0
H2830 H 0.90146 0.2914 0.6307 0.0
H2831 H 0.95155 0.29454 0.62258 0.0
C2832 C 0.95495 0.29756 0.65005 0.0
C2833 C 0.94786 0.29723 0.66575 0.0
C2834 C 0.90549 0.28836 0.61897 0.0
C2835 C 0.92969 0.29057 0.63486 0.0
C2836 C 0.89638 0.28553 0.60374 0.0
C2837 C 0.90132 0.28166 0.58832 0.0
C2838 C 0.91975 0.28744 0.61882 0.0
C2839 C 0.91555 0.28063 0.58873 0.0
C2840 C 0.94587 0.29412 0.63459 0.0
C2841 C 0.93155 0.2933 0.66542 0.0
N2842 N 0.92433 0.28361 0.60373 0.0
N2843 N 0.92308 0.29023 0.65025 0.0
H2844 H 0.36942 0.30146 0.66406 0.0
H2845 H 0.36167 0.29051 0.5614 0.0
H2846 H 0.33238 0.30385 0.63354 0.0
H2847 H 0.40258 0.29578 0.59155 0.0
H2848 H 0.34944 0.29295 0.58785 0.0
H2849 H 0.38051 0.29713 0.63778 0.0
C2850 C 0.36359 0.30107 0.65185 0.0
C2851 C 0.34993 0.30307 0.65106 0.0
C2852 C 0.36102 0.29342 0.5887 0.0
C2853 C 0.36261 0.29804 0.62084 0.0
C2854 C 0.36794 0.29193 0.57363 0.0
C2855 C 0.38299 0.29262 0.57432 0.0
C2856 C 0.36927 0.29574 0.6046 0.0
C2857 C 0.39081 0.29486 0.59047 0.0
C2858 C 0.36996 0.2986 0.63683 0.0
C2859 C 0.34294 0.30243 0.63481 0.0
N2860 N 0.38385 0.29631 0.60496 0.0
N2861 N 0.34934 0.29996 0.62036 0.0
H2862 H 0.71812 0.05821 0.61957 0.0
H2863 H 0.72893 0.14583 0.59557 0.0
H2864 H 0.70617 0.08775 0.65327 0.0
H2865 H 0.73318 0.1122 0.55976 0.0
H2866 H 0.72586 0.1274 0.61876 0.0
H2867 H 0.72931 0.08072 0.59975 0.0
C2868 C 0.71813 0.06955 0.62299 0.0
C2869 C 0.71101 0.07101 0.63803 0.0
C2870 C 0.72769 0.12417 0.60587 0.0
C2871 C 0.72361 0.09677 0.61521 0.0
C2872 C 0.72947 0.13469 0.59267 0.0
C2873 C 0.73126 0.13048 0.57575 0.0
C2874 C 0.72767 0.10933 0.60209 0.0
C2875 C 0.73181 0.11588 0.57263 0.0
C2876 C 0.72445 0.08238 0.61159 0.0
C2877 C 0.71142 0.08604 0.64175 0.0
N2878 N 0.72991 0.10579 0.58565 0.0
N2879 N 0.71741 0.09827 0.63031 0.0
H2880 H 0.9615 0.67187 0.63661 0.0
H2881 H 0.88906 0.59376 0.58381 0.0
H2882 H 0.91913 0.63338 0.66019 0.0
H2883 H 0.92798 0.63561 0.55994 0.0
H2884 H 0.89954 0.60829 0.6119 0.0
H2885 H 0.94918 0.65903 0.60842 0.0
C2886 C 0.94957 0.66076 0.63589 0.0
C2887 C 0.94139 0.65367 0.65086 0.0
C2888 C 0.90569 0.61439 0.60051 0.0
C2889 C 0.92722 0.63884 0.61852 0.0
C2890 C 0.89967 0.60613 0.58449 0.0
C2891 C 0.90753 0.61364 0.56952 0.0
C2892 C 0.91984 0.63017 0.60163 0.0
C2893 C 0.92146 0.62951 0.57116 0.0
C2894 C 0.94253 0.65344 0.61976 0.0
C2895 C 0.92593 0.63929 0.64904 0.0
N2896 N 0.9272 0.63722 0.58691 0.0
N2897 N 0.9194 0.6323 0.63319 0.0
H2898 H 0.9465 0.68506 0.72994 0.0
H2899 H 0.9421 0.76685 0.75268 0.0
H2900 H 0.96563 0.72716 0.6977 0.0
H2901 H 0.93886 0.73203 0.78972 0.0
H2902 H 0.94429 0.74939 0.72987 0.0
H2903 H 0.93659 0.69892 0.74904 0.0
C2904 C 0.94832 0.69707 0.72666 0.0
C2905 C 0.95712 0.70507 0.71232 0.0
C2906 C 0.94292 0.74552 0.74298 0.0
C2907 C 0.94593 0.72105 0.73426 0.0
C2908 C 0.94169 0.75545 0.75595 0.0
C2909 C 0.94049 0.75095 0.7731 0.0
C2910 C 0.94274 0.7309 0.74719 0.0
C2911 C 0.93989 0.736 0.77668 0.0
C2912 C 0.94275 0.70501 0.73765 0.0
C2913 C 0.95905 0.72061 0.70871 0.0
N2914 N 0.94108 0.72655 0.76385 0.0
N2915 N 0.95367 0.7282 0.71974 0.0
H2916 H 0.32182 0.28205 0.72549 0.0
H2917 H 0.24632 0.19348 0.74617 0.0
H2918 H 0.27848 0.25603 0.69247 0.0
H2919 H 0.28497 0.22567 0.78277 0.0
H2920 H 0.26026 0.21344 0.72395 0.0
H2921 H 0.31095 0.25847 0.74384 0.0
C2922 C 0.31013 0.27127 0.7219 0.0
C2923 C 0.301 0.27111 0.70747 0.0
C2924 C 0.26575 0.21603 0.73681 0.0
C2925 C 0.28833 0.24406 0.72868 0.0
C2926 C 0.25782 0.20467 0.74945 0.0
C2927 C 0.26442 0.20806 0.76636 0.0
C2928 C 0.28043 0.23079 0.74109 0.0
C2929 C 0.2794 0.22264 0.76994 0.0
C2930 C 0.30388 0.25781 0.73247 0.0
C2931 C 0.2859 0.25672 0.70352 0.0
N2932 N 0.28685 0.2335 0.75744 0.0
N2933 N 0.27994 0.24382 0.71419 0.0
H2934 H 0.74683 0.03626 0.6837 0.0
H2935 H 0.75009 0.04322 0.78656 0.0
H2936 H 0.70972 0.03756 0.71344 0.0
H2937 H 0.78404 0.03602 0.75716 0.0
H2938 H 0.73653 0.04374 0.75977 0.0
H2939 H 0.76191 0.03854 0.71034 0.0
C2940 C 0.74185 0.03706 0.69581 0.0
C2941 C 0.72692 0.03665 0.69628 0.0
C2942 C 0.74704 0.0422 0.75915 0.0
C2943 C 0.7442 0.03931 0.72688 0.0
C2944 C 0.75482 0.04201 0.77443 0.0
C2945 C 0.76835 0.03984 0.77406 0.0
C2946 C 0.75274 0.04009 0.74335 0.0
C2947 C 0.77381 0.03798 0.75801 0.0
C2948 C 0.75048 0.03836 0.71103 0.0
C2949 C 0.72113 0.03776 0.7124 0.0
N2950 N 0.76598 0.03814 0.7433 0.0
N2951 N 0.72976 0.03902 0.72703 0.0
H2952 H 0.05806 0.34904 0.03321 0.0
H2953 H 0.10861 0.29556 0.05411 0.0
H2954 H 0.04994 0.30533 0.00379 0.0
H2955 H 0.11868 0.3496 0.0857 0.0
H2956 H 0.08441 0.29801 0.0334 0.0
H2957 H 0.07789 0.34695 0.05172 0.0
C2958 C 0.0604 0.33897 0.03065 0.0
C2959 C 0.05237 0.3274 0.01683 0.0
C2960 C 0.09146 0.30733 0.04347 0.0
C2961 C 0.07508 0.32498 0.03799 0.0
C2962 C 0.10703 0.30624 0.05533 0.0
C2963 C 0.11478 0.32118 0.07435 0.0
C2964 C 0.08761 0.32389 0.04836 0.0
C2965 C 0.11341 0.34035 0.0752 0.0
C2966 C 0.07174 0.3378 0.04124 0.0
C2967 C 0.05588 0.31457 0.01423 0.0
N2968 N 0.09866 0.33873 0.06284 0.0
N2969 N 0.06703 0.31374 0.02469 0.0
H2970 H 0.69617 0.70082 0.04312 0.0
H2971 H 0.69593 0.76921 0.12058 0.0
H2972 H 0.65849 0.68808 0.07949 0.0
H2973 H 0.73866 0.78415 0.07448 0.0
H2974 H 0.68046 0.73585 0.10524 0.0
H2975 H 0.7097 0.72963 0.05455 0.0
C2976 C 0.69067 0.70407 0.05341 0.0
C2977 C 0.67619 0.69193 0.06042 0.0
C2978 C 0.69157 0.74563 0.10024 0.0
C2979 C 0.69171 0.72482 0.07357 0.0
C2980 C 0.70149 0.76581 0.1105 0.0
C2981 C 0.71794 0.78132 0.09738 0.0
C2982 C 0.70003 0.74171 0.08162 0.0
C2983 C 0.72846 0.77521 0.08147 0.0
C2984 C 0.69843 0.72052 0.05992 0.0
C2985 C 0.66963 0.69695 0.0737 0.0
N2986 N 0.71729 0.75598 0.07425 0.0
N2987 N 0.67751 0.71299 0.07993 0.0
H2988 H 0.28141 0.92457 0.00927 0.0
H2989 H 0.2392 0.95427 0.07826 0.0
H2990 H 0.30253 0.97516 0.02958 0.0
H2991 H 0.21961 0.90303 0.06118 0.0
H2992 H 0.26321 0.96191 0.06152 0.0
H2993 H 0.2594 0.91609 0.02923 0.0
C2994 C 0.28149 0.93388 0.018 0.0
C2995 C 0.29378 0.95062 0.01764 0.0
C2996 C 0.25375 0.94896 0.06156 0.0
C2997 C 0.26858 0.94103 0.04046 0.0
C2998 C 0.24008 0.94461 0.07115 0.0
C2999 C 0.22751 0.92798 0.07125 0.0
C3000 C 0.25478 0.93663 0.05179 0.0
C3001 C 0.22913 0.91597 0.06158 0.0
C3002 C 0.26891 0.92903 0.02939 0.0
C3003 C 0.29328 0.96213 0.02931 0.0
N3004 N 0.24248 0.92054 0.05219 0.0
N3005 N 0.28084 0.95713 0.04014 0.0
H3006 H 0.30893 0.01222 0.9854 0.0
H3007 H 0.32285 0.1006 0.9591 0.0
H3008 H 0.35538 0.05281 0.9714 0.0
H3009 H 0.27555 0.05653 0.96119 0.0
H3010 H 0.33539 0.08466 0.9684 0.0
H3011 H 0.29707 0.02986 0.98166 0.0
C3012 C 0.3167 0.02489 0.98175 0.0
C3013 C 0.33316 0.03096 0.97851 0.0
C3014 C 0.32227 0.07848 0.96682 0.0
C3015 C 0.3196 0.05118 0.97415 0.0
C3016 C 0.31512 0.08754 0.96145 0.0
C3017 C 0.29816 0.0797 0.95881 0.0
C3018 C 0.31239 0.06153 0.96987 0.0
C3019 C 0.28869 0.06291 0.96264 0.0
C3020 C 0.30989 0.03493 0.97954 0.0
C3021 C 0.34261 0.04753 0.97386 0.0
N3022 N 0.29594 0.05435 0.96785 0.0
N3023 N 0.33567 0.05702 0.97171 0.0
H3024 H 0.95557 0.29226 0.9693 0.0
H3025 H 0.95682 0.2005 0.95856 0.0
H3026 H 0.99537 0.28745 0.98991 0.0
H3027 H 0.92629 0.21979 0.91862 0.0
H3028 H 0.97024 0.23285 0.97609 0.0
H3029 H 0.94252 0.26364 0.95782 0.0
C3030 C 0.96147 0.28514 0.97172 0.0
C3031 C 0.97678 0.29245 0.9804 0.0
C3032 C 0.96192 0.22945 0.96507 0.0
C3033 C 0.96178 0.25961 0.96718 0.0
C3034 C 0.95468 0.20999 0.95369 0.0
C3035 C 0.93779 0.20538 0.93796 0.0
C3036 C 0.95524 0.24324 0.9582 0.0
C3037 C 0.93533 0.22214 0.92863 0.0
C3038 C 0.95402 0.26881 0.96503 0.0
C3039 C 0.98366 0.28242 0.98319 0.0
N3040 N 0.94338 0.23898 0.94101 0.0
N3041 N 0.97615 0.26649 0.97646 0.0
H3042 H 0.73176 0.69923 0.02089 0.0
H3043 H 0.7638 0.69066 0.92017 0.0
H3044 H 0.70292 0.65851 0.98414 0.0
H3045 H 0.79161 0.74214 0.96219 0.0
H3046 H 0.73837 0.67666 0.94465 0.0
H3047 H 0.75207 0.7127 0.99933 0.0
C3048 C 0.72969 0.69311 0.00829 0.0
C3049 C 0.71561 0.6777 0.00433 0.0
C3050 C 0.74869 0.68906 0.94691 0.0
C3051 C 0.73884 0.69306 0.97965 0.0
C3052 C 0.76374 0.69789 0.93126 0.0
C3053 C 0.78215 0.71731 0.93982 0.0
C3054 C 0.75104 0.70072 0.96653 0.0
C3055 C 0.78125 0.73034 0.95776 0.0
C3056 C 0.74127 0.70085 0.99598 0.0
C3057 C 0.71357 0.6704 0.98774 0.0
N3058 N 0.76618 0.71979 0.97011 0.0
N3059 N 0.72513 0.67812 0.97601 0.0
H3060 H 0.95298 0.67709 0.01194 0.0
H3061 H 0.95612 0.72205 0.92535 0.0
H3062 H 0.99026 0.68938 0.97524 0.0
H3063 H 0.93154 0.72496 0.97001 0.0
H3064 H 0.96588 0.70644 0.94152 0.0
H3065 H 0.94189 0.69073 0.99457 0.0
C3066 C 0.95875 0.68252 1.00015 0.0
C3067 C 0.97262 0.68216 0.99508 0.0
C3068 C 0.95838 0.71053 0.94777 0.0
C3069 C 0.95995 0.69777 0.97514 0.0
C3070 C 0.95284 0.71946 0.93858 0.0
C3071 C 0.94322 0.72505 0.94644 0.0
C3072 C 0.95402 0.70689 0.96485 0.0
C3073 C 0.93905 0.72104 0.9635 0.0
C3074 C 0.95246 0.69038 0.9903 0.0
C3075 C 0.9796 0.68945 0.97969 0.0
N3076 N 0.94446 0.71219 0.97213 0.0
N3077 N 0.97319 0.69695 0.97025 0.0
H3078 H 0.34201 0.30673 0.94367 0.0
H3079 H 0.28278 0.21565 0.97506 0.0
H3080 H 0.3235 0.29797 0.99465 0.0
H3081 H 0.27978 0.22925 0.92328 0.0
H3082 H 0.30351 0.24464 0.98253 0.0
H3083 H 0.32498 0.27684 0.93623 0.0
C3084 C 0.33461 0.29848 0.95338 0.0
C3085 C 0.33408 0.3048 0.96978 0.0
C3086 C 0.29839 0.24118 0.96951 0.0
C3087 C 0.3148 0.27079 0.9614 0.0
C3088 C 0.28662 0.2247 0.96523 0.0
C3089 C 0.27949 0.21999 0.94856 0.0
C3090 C 0.30331 0.25302 0.95694 0.0
C3091 C 0.28492 0.23223 0.93629 0.0
C3092 C 0.32484 0.2815 0.94909 0.0
C3093 C 0.32417 0.2936 0.98183 0.0
N3094 N 0.29655 0.24819 0.94072 0.0
N3095 N 0.31493 0.27711 0.97741 0.0
H3096 H 0.73431 0.07129 0.01949 0.0
H3097 H 0.77486 0.03915 0.9511 0.0
H3098 H 0.70712 0.02604 0.98792 0.0
H3099 H 0.80165 0.08425 0.98283 0.0
H3100 H 0.74943 0.03567 0.96199 0.0
H3101 H 0.75854 0.0779 0.0037 0.0
C3102 C 0.73338 0.06282 0.00911 0.0
C3103 C 0.71869 0.04799 0.00517 0.0
C3104 C 0.76085 0.04645 0.96641 0.0
C3105 C 0.74646 0.05542 0.9871 0.0
C3106 C 0.77534 0.04845 0.96015 0.0
C3107 C 0.79034 0.06207 0.966 0.0
C3108 C 0.7614 0.05806 0.97874 0.0
C3109 C 0.79033 0.07364 0.97792 0.0
C3110 C 0.74724 0.06659 1.0001 0.0
C3111 C 0.71821 0.03755 0.9915 0.0
N3112 N 0.7761 0.07133 0.98396 0.0
N3113 N 0.73193 0.04138 0.98308 0.0
H3114 H 0.65432 0.95035 0.05129 0.0
H3115 H 0.73837 0.95161 0.06185 0.0
H3116 H 0.70047 0.99208 0.03838 0.0
H3117 H 0.69208 0.90598 0.05689 0.0
H3118 H 0.72453 0.96723 0.05642 0.0
H3119 H 0.66779 0.93425 0.0561 0.0
C3120 C 0.66725 0.9561 0.04938 0.0
C3121 C 0.67627 0.9726 0.04442 0.0
C3122 C 0.71741 0.9538 0.05649 0.0
C3123 C 0.69175 0.95434 0.05016 0.0
C3124 C 0.72529 0.94491 0.05962 0.0
C3125 C 0.71636 0.92749 0.05966 0.0
C3126 C 0.70044 0.94524 0.05362 0.0
C3127 C 0.6994 0.9194 0.05689 0.0
C3128 C 0.67492 0.9469 0.05212 0.0
C3129 C 0.693 0.97939 0.04212 0.0
N3130 N 0.69197 0.92834 0.05402 0.0
N3131 N 0.70021 0.97029 0.04515 0.0
H3132 H 0.0222 0.71515 0.02835 0.0
H3133 H 0.05705 0.79018 0.0959 0.0
H3134 H 0.0389 0.71086 0.07874 0.0
H3135 H 0.06982 0.79855 0.04285 0.0
H3136 H 0.04689 0.76052 0.0903 0.0
H3137 H 0.03622 0.74544 0.03354 0.0
C3138 C 0.02894 0.72061 0.04043 0.0
C3139 C 0.02946 0.71053 0.05312 0.0
C3140 C 0.05201 0.76893 0.07994 0.0
C3141 C 0.04504 0.74495 0.05927 0.0
C3142 C 0.05778 0.78586 0.08309 0.0
C3143 C 0.06421 0.79693 0.06975 0.0
C3144 C 0.05227 0.76295 0.0633 0.0
C3145 C 0.0648 0.79045 0.05343 0.0
C3146 C 0.03694 0.73784 0.04335 0.0
C3147 C 0.03833 0.71821 0.06857 0.0
N3148 N 0.05868 0.77386 0.05059 0.0
N3149 N 0.04556 0.73497 0.07134 0.0
H3150 H 0.28463 0.35214 0.01375 0.0
H3151 H 0.23296 0.26896 0.06416 0.0
H3152 H 0.30444 0.32272 0.03268 0.0
H3153 H 0.21255 0.29551 0.03961 0.0
H3154 H 0.26021 0.2909 0.05689 0.0
H3155 H 0.25926 0.33407 0.02754 0.0
C3156 C 0.28373 0.342 0.02098 0.0
C3157 C 0.29662 0.33882 0.02185 0.0
C3158 C 0.24979 0.29202 0.05328 0.0
C3159 C 0.2675 0.31796 0.03759 0.0
C3160 C 0.23428 0.27954 0.05746 0.0
C3161 C 0.22053 0.28046 0.05246 0.0
C3162 C 0.25153 0.30547 0.044 0.0
C3163 C 0.22284 0.29435 0.04371 0.0
C3164 C 0.2692 0.33165 0.02883 0.0
C3165 C 0.29477 0.32556 0.03154 0.0
N3166 N 0.23802 0.30626 0.03968 0.0
N3167 N 0.28042 0.31551 0.03888 0.0
H3168 H 0.69769 0.63258 0.34257 0.0
H3169 H 0.74694 0.64519 0.44118 0.0
H3170 H 0.71088 0.67404 0.37846 0.0
H3171 H 0.72077 0.59231 0.40105 0.0
H3172 H 0.73341 0.65829 0.41686 0.0
H3173 H 0.70742 0.62044 0.36369 0.0
C3174 C 0.70262 0.63914 0.3549 0.0
C3175 C 0.70344 0.65436 0.35875 0.0
C3176 C 0.73139 0.64585 0.41489 0.0
C3177 C 0.71467 0.64052 0.38293 0.0
C3178 C 0.73893 0.63759 0.4305 0.0
C3179 C 0.7375 0.61787 0.42237 0.0
C3180 C 0.72071 0.63351 0.39586 0.0
C3181 C 0.7224 0.60425 0.4052 0.0
C3182 C 0.70814 0.63216 0.36695 0.0
C3183 C 0.70995 0.66226 0.37497 0.0
N3184 N 0.71679 0.61435 0.39281 0.0
N3185 N 0.71539 0.65527 0.38646 0.0
H3186 H 0.35925 0.03702 0.37135 0.0
H3187 H 0.36148 0.10941 0.4451 0.0
H3188 H 0.32221 0.02731 0.40774 0.0
H3189 H 0.40135 0.1228 0.39619 0.0
H3190 H 0.34579 0.07549 0.4314 0.0
H3191 H 0.37303 0.06658 0.3805 0.0
C3192 C 0.35391 0.04109 0.3811 0.0
C3193 C 0.33959 0.02959 0.38887 0.0
C3194 C 0.35643 0.08512 0.42552 0.0
C3195 C 0.35538 0.06324 0.39944 0.0
C3196 C 0.36655 0.1057 0.43477 0.0
C3197 C 0.38193 0.12068 0.42036 0.0
C3198 C 0.3639 0.08051 0.4065 0.0
C3199 C 0.39171 0.1141 0.40396 0.0
C3200 C 0.36181 0.05794 0.38632 0.0
C3201 C 0.33325 0.03563 0.40143 0.0
N3202 N 0.38049 0.09455 0.39781 0.0
N3203 N 0.34128 0.052 0.40643 0.0
H3204 H 0.97433 0.2771 0.36599 0.0
H3205 H 0.90415 0.29216 0.40092 0.0
H3206 H 0.97351 0.32246 0.35932 0.0
H3207 H 0.90014 0.24402 0.39626 0.0
H3208 H 0.93154 0.3047 0.38977 0.0
H3209 H 0.94925 0.26617 0.38154 0.0
C3210 C 0.96898 0.28485 0.36794 0.0
C3211 C 0.97596 0.30067 0.36118 0.0
C3212 C 0.92473 0.29142 0.39138 0.0
C3213 C 0.94718 0.28818 0.37895 0.0
C3214 C 0.90916 0.28429 0.39781 0.0
C3215 C 0.89999 0.26709 0.39985 0.0
C3216 C 0.93116 0.28126 0.38688 0.0
C3217 C 0.90689 0.25737 0.39523 0.0
C3218 C 0.95461 0.27856 0.37677 0.0
C3219 C 0.96849 0.31015 0.36419 0.0
N3220 N 0.92206 0.2646 0.389 0.0
N3221 N 0.95445 0.30372 0.37277 0.0
H3222 H 0.00123 0.36852 0.32075 0.0
H3223 H 0.04393 0.46205 0.29025 0.0
H3224 H 0.04664 0.39285 0.29492 0.0
H3225 H 0.99619 0.43727 0.31104 0.0
H3226 H 0.04506 0.43661 0.29236 0.0
H3227 H 0.99911 0.39349 0.31802 0.0
C3228 C 0.01075 0.37908 0.31453 0.0
C3229 C 0.02413 0.37854 0.30805 0.0
C3230 C 0.03425 0.43664 0.29634 0.0
C3231 C 0.02176 0.40708 0.30489 0.0
C3232 C 0.03359 0.45114 0.29505 0.0
C3233 C 0.0198 0.45162 0.30015 0.0
C3234 C 0.02113 0.42253 0.30302 0.0
C3235 C 0.00692 0.43728 0.30672 0.0
C3236 C 0.0095 0.3933 0.31294 0.0
C3237 C 0.03608 0.39261 0.3001 0.0
N3238 N 0.00789 0.42329 0.30798 0.0
N3239 N 0.03461 0.40625 0.29877 0.0
H3240 H 0.6302 0.64298 0.28523 0.0
H3241 H 0.61479 0.54347 0.29066 0.0
H3242 H 0.65662 0.62947 0.32063 0.0
H3243 H 0.59073 0.564 0.24404 0.0
H3244 H 0.63096 0.57728 0.30488 0.0
H3245 H 0.61485 0.61415 0.2741 0.0
C3246 C 0.6327 0.63396 0.2908 0.0
C3247 C 0.64487 0.63876 0.30382 0.0
C3248 C 0.62323 0.57381 0.29336 0.0
C3249 C 0.62731 0.60572 0.29101 0.0
C3250 C 0.6143 0.55326 0.28408 0.0
C3251 C 0.59867 0.54918 0.26695 0.0
C3252 C 0.61926 0.58857 0.28355 0.0
C3253 C 0.59904 0.56621 0.2548 0.0
C3254 C 0.62394 0.6175 0.28436 0.0
C3255 C 0.64745 0.62641 0.31053 0.0
N3256 N 0.60835 0.58404 0.26557 0.0
N3257 N 0.63879 0.61046 0.30397 0.0
H3258 H 0.39614 0.01853 0.34609 0.0
H3259 H 0.40637 0.96375 0.2723 0.0
H3260 H 0.35585 0.9785 0.31648 0.0
H3261 H 0.44628 0.00291 0.30298 0.0
H3262 H 0.38801 0.97194 0.285 0.0
H3263 H 0.41492 0.01623 0.32695 0.0
C3264 C 0.39121 0.00943 0.3354 0.0
C3265 C 0.37439 0.99849 0.33308 0.0
C3266 C 0.40083 0.97892 0.28875 0.0
C3267 C 0.39586 0.99565 0.31122 0.0
C3268 C 0.41129 0.97428 0.28147 0.0
C3269 C 0.42786 0.98272 0.28656 0.0
C3270 C 0.40694 0.99199 0.30136 0.0
C3271 C 0.4336 0.99613 0.29866 0.0
C3272 C 0.40196 0.00809 0.32449 0.0
C3273 C 0.36873 0.98706 0.31889 0.0
N3274 N 0.42314 0.00026 0.30574 0.0
N3275 N 0.37945 0.98577 0.30866 0.0
H3276 H 0.59086 0.95857 0.31889 0.0
H3277 H 0.60216 0.03996 0.2749 0.0
H3278 H 0.63778 0.00168 0.31113 0.0
H3279 H 0.55647 0.00057 0.29182 0.0
H3280 H 0.61512 0.02403 0.28316 0.0
H3281 H 0.57788 0.97164 0.30382 0.0
C3282 C 0.59847 0.97071 0.31385 0.0
C3283 C 0.61544 0.97914 0.3165 0.0
C3284 C 0.60223 0.01881 0.2849 0.0
C3285 C 0.6006 0.99423 0.29929 0.0
C3286 C 0.59485 0.02787 0.28017 0.0
C3287 C 0.57827 0.02162 0.28285 0.0
C3288 C 0.59293 0.00337 0.29227 0.0
C3289 C 0.5693 0.00588 0.28964 0.0
C3290 C 0.59103 0.97819 0.30527 0.0
C3291 C 0.62465 0.99479 0.30952 0.0
N3292 N 0.57676 0.99735 0.29421 0.0
N3293 N 0.6171 0.00191 0.30138 0.0
H3294 H 0.03394 0.65 0.28591 0.0
H3295 H 0.95547 0.55869 0.28079 0.0
H3296 H 0.99515 0.63395 0.32141 0.0
H3297 H 0.9858 0.58165 0.23815 0.0
H3298 H 0.97325 0.58369 0.299 0.0
H3299 H 0.01988 0.62228 0.27184 0.0
C3300 C 0.0226 0.6406 0.29096 0.0
C3301 C 0.01561 0.64444 0.30473 0.0
C3302 C 0.97608 0.58316 0.2857 0.0
C3303 C 0.99944 0.61265 0.28856 0.0
C3304 C 0.96596 0.56894 0.27533 0.0
C3305 C 0.96906 0.56823 0.25789 0.0
C3306 C 0.9895 0.59665 0.27862 0.0
C3307 C 0.98291 0.58175 0.25148 0.0
C3308 C 0.01455 0.62479 0.28283 0.0
C3309 C 0.00092 0.63164 0.31071 0.0
N3310 N 0.99257 0.59543 0.26182 0.0
N3311 N 0.99325 0.61635 0.30249 0.0
H3312 H 0.36344 0.36064 0.31228 0.0
H3313 H 0.45762 0.42871 0.30718 0.0
H3314 H 0.38669 0.4085 0.33971 0.0
H3315 H 0.43491 0.38112 0.27943 0.0
H3316 H 0.43095 0.42274 0.31646 0.0
H3317 H 0.38856 0.36911 0.29732 0.0
C3318 C 0.37375 0.373 0.315 0.0
C3319 C 0.37301 0.3838 0.32743 0.0
C3320 C 0.43173 0.41366 0.30818 0.0
C3321 C 0.40184 0.39352 0.31044 0.0
C3322 C 0.44695 0.41709 0.30286 0.0
C3323 C 0.44844 0.4054 0.29252 0.0
C3324 C 0.41787 0.39831 0.30331 0.0
C3325 C 0.43425 0.39047 0.28737 0.0
C3326 C 0.38811 0.37782 0.30648 0.0
C3327 C 0.38674 0.3997 0.33036 0.0
N3328 N 0.41956 0.38729 0.29293 0.0
N3329 N 0.40062 0.40401 0.32207 0.0
H3330 H 0.35797 0.32896 0.36365 0.0
H3331 H 0.34995 0.24221 0.3849 0.0
H3332 H 0.31343 0.28795 0.38103 0.0
H3333 H 0.39587 0.2883 0.38632 0.0
H3334 H 0.33585 0.25779 0.38061 0.0
H3335 H 0.37156 0.3131 0.36845 0.0
C3336 C 0.351 0.31657 0.36837 0.0
C3337 C 0.33451 0.30979 0.37196 0.0
C3338 C 0.34901 0.26448 0.3819 0.0
C3339 C 0.35006 0.29157 0.37748 0.0
C3340 C 0.35705 0.25562 0.38433 0.0
C3341 C 0.3741 0.26398 0.38579 0.0
C3342 C 0.35811 0.28181 0.3807 0.0
C3343 C 0.38272 0.28137 0.38505 0.0
C3344 C 0.35881 0.30758 0.37121 0.0
C3345 C 0.32616 0.29369 0.37814 0.0
N3346 N 0.37464 0.28969 0.38241 0.0
N3347 N 0.33402 0.2851 0.38065 0.0
H3348 H 0.67952 0.02988 0.35306 0.0
H3349 H 0.72511 0.09606 0.43014 0.0
H3350 H 0.7031 0.02144 0.39628 0.0
H3351 H 0.72226 0.11188 0.37942 0.0
H3352 H 0.71393 0.06773 0.41838 0.0
H3353 H 0.69268 0.05935 0.36258 0.0
C3354 C 0.68756 0.03422 0.36443 0.0
C3355 C 0.69012 0.02312 0.37394 0.0
C3356 C 0.71589 0.07741 0.40976 0.0
C3357 C 0.7049 0.05662 0.38497 0.0
C3358 C 0.72228 0.09359 0.41646 0.0
C3359 C 0.7251 0.10646 0.40563 0.0
C3360 C 0.71184 0.07386 0.39215 0.0
C3361 C 0.7206 0.10237 0.38811 0.0
C3362 C 0.69506 0.05102 0.36982 0.0
C3363 C 0.70071 0.02947 0.38853 0.0
N3364 N 0.71415 0.08637 0.38187 0.0
N3365 N 0.70753 0.04573 0.39369 0.0
H3366 H 0.97501 0.65369 0.36555 0.0
H3367 H 0.89068 0.64993 0.38 0.0
H3368 H 0.96796 0.6957 0.36126 0.0
H3369 H 0.89837 0.60918 0.39014 0.0
H3370 H 0.91972 0.66758 0.37567 0.0
H3371 H 0.94793 0.63789 0.37717 0.0
C3372 C 0.96788 0.65968 0.36726 0.0
C3373 C 0.9737 0.67599 0.36221 0.0
C3374 C 0.91514 0.65483 0.37902 0.0
C3375 C 0.94265 0.65792 0.37535 0.0
C3376 C 0.89855 0.64476 0.38151 0.0
C3377 C 0.89211 0.62805 0.38531 0.0
C3378 C 0.92539 0.6481 0.38011 0.0
C3379 C 0.90286 0.62199 0.38713 0.0
C3380 C 0.9524 0.65063 0.37387 0.0
C3381 C 0.96393 0.68311 0.36479 0.0
N3382 N 0.91895 0.63195 0.38431 0.0
N3383 N 0.94885 0.67398 0.37099 0.0
H3384 H 0.38281 0.98828 0.67456 0.0
H3385 H 0.44063 0.03074 0.75864 0.0
H3386 H 0.3786 0.02267 0.70939 0.0
H3387 H 0.4428 0.99453 0.7248 0.0
H3388 H 0.41626 0.02611 0.74241 0.0
H3389 H 0.40294 0.98833 0.69446 0.0
C3390 C 0.38597 0.9957 0.68648 0.0
C3391 C 0.37911 0.00562 0.6902 0.0
C3392 C 0.42192 0.01899 0.73869 0.0
C3393 C 0.40234 0.00588 0.71303 0.0
C3394 C 0.43578 0.02159 0.74799 0.0
C3395 C 0.44361 0.01284 0.74318 0.0
C3396 C 0.41597 0.00772 0.72434 0.0
C3397 C 0.43703 0.00139 0.72905 0.0
C3398 C 0.39751 0.99575 0.69785 0.0
C3399 C 0.38363 0.0149 0.70593 0.0
N3400 N 0.42367 0.99923 0.7201 0.0
N3401 N 0.39509 0.01495 0.71667 0.0
H3402 H 0.0034 0.37332 0.70666 0.0
H3403 H 0.95597 0.4182 0.7415 0.0
H3404 H 0.95751 0.34857 0.73158 0.0
H3405 H 0.004 0.44529 0.72162 0.0
H3406 H 0.95654 0.39248 0.73747 0.0
H3407 H 0.00407 0.39982 0.71138 0.0
C3408 C 0.99349 0.37343 0.7131 0.0
C3409 C 0.98038 0.35865 0.71871 0.0
C3410 C 0.96705 0.40404 0.73411 0.0
C3411 C 0.98108 0.38884 0.72413 0.0
C3412 C 0.96674 0.41874 0.7365 0.0
C3413 C 0.98011 0.43393 0.73224 0.0
C3414 C 0.98072 0.40444 0.72715 0.0
C3415 C 0.99357 0.43385 0.72535 0.0
C3416 C 0.99389 0.38855 0.71581 0.0
C3417 C 0.96789 0.35957 0.727 0.0
N3418 N 0.99355 0.41931 0.723 0.0
N3419 N 0.96855 0.37435 0.72942 0.0
H3420 H 0.61031 0.63524 0.67285 0.0
H3421 H 0.58128 0.59743 0.77369 0.0
H3422 H 0.63963 0.62392 0.7065 0.0
H3423 H 0.55529 0.62309 0.73596 0.0
H3424 H 0.60517 0.60691 0.74757 0.0
H3425 H 0.59105 0.62889 0.69551 0.0
C3426 C 0.61268 0.63135 0.68498 0.0
C3427 C 0.62663 0.63012 0.68778 0.0
C3428 C 0.59551 0.60975 0.74643 0.0
C3429 C 0.6046 0.62286 0.71377 0.0
C3430 C 0.58149 0.60475 0.7631 0.0
C3431 C 0.56379 0.60691 0.75636 0.0
C3432 C 0.59322 0.61914 0.72769 0.0
C3433 C 0.56513 0.62094 0.73931 0.0
C3434 C 0.6017 0.6278 0.69794 0.0
C3435 C 0.62905 0.62507 0.70382 0.0
N3436 N 0.57916 0.62425 0.72583 0.0
N3437 N 0.61809 0.62156 0.71624 0.0
H3438 H 0.64193 0.67355 0.65322 0.0
H3439 H 0.65603 0.76246 0.62893 0.0
H3440 H 0.68741 0.7132 0.6359 0.0
H3441 H 0.60844 0.71877 0.63087 0.0
H3442 H 0.66828 0.74585 0.63665 0.0
H3443 H 0.63009 0.69137 0.6502 0.0
C3444 C 0.64947 0.68604 0.64893 0.0
C3445 C 0.66565 0.69183 0.64463 0.0
C3446 C 0.65516 0.7399 0.63538 0.0
C3447 C 0.65219 0.71223 0.64124 0.0
C3448 C 0.64817 0.74935 0.63092 0.0
C3449 C 0.6312 0.74182 0.62868 0.0
C3450 C 0.64512 0.72287 0.63792 0.0
C3451 C 0.62158 0.72492 0.63204 0.0
C3452 C 0.64268 0.69616 0.64716 0.0
C3453 C 0.67484 0.70813 0.63918 0.0
N3454 N 0.62867 0.71597 0.63638 0.0
N3455 N 0.66797 0.71774 0.6376 0.0
H3456 H 0.29282 0.97869 0.61898 0.0
H3457 H 0.27753 0.87981 0.63018 0.0
H3458 H 0.32089 0.96748 0.65461 0.0
H3459 H 0.25382 0.89836 0.58125 0.0
H3460 H 0.29385 0.91417 0.64273 0.0
H3461 H 0.27729 0.94938 0.60958 0.0
C3462 C 0.29566 0.97008 0.62497 0.0
C3463 C 0.30834 0.97567 0.63754 0.0
C3464 C 0.28614 0.91021 0.63115 0.0
C3465 C 0.29053 0.94204 0.62671 0.0
C3466 C 0.27713 0.8893 0.62291 0.0
C3467 C 0.26158 0.88453 0.60546 0.0
C3468 C 0.28232 0.92456 0.62019 0.0
C3469 C 0.26209 0.90102 0.59217 0.0
C3470 C 0.28678 0.95334 0.61952 0.0
C3471 C 0.31132 0.96381 0.64482 0.0
N3472 N 0.27147 0.91927 0.60209 0.0
N3473 N 0.30252 0.94754 0.63924 0.0
H3474 H 0.03036 0.30941 0.65401 0.0
H3475 H 0.10334 0.39586 0.62401 0.0
H3476 H 0.03504 0.35687 0.66776 0.0
H3477 H 0.10469 0.35031 0.62367 0.0
H3478 H 0.07623 0.38121 0.63592 0.0
H3479 H 0.05539 0.32368 0.63839 0.0
C3480 C 0.03656 0.32282 0.65362 0.0
C3481 C 0.03065 0.33196 0.66235 0.0
C3482 C 0.0824 0.37439 0.63305 0.0
C3483 C 0.05936 0.34839 0.64447 0.0
C3484 C 0.0978 0.38271 0.62618 0.0
C3485 C 0.10615 0.37423 0.62251 0.0
C3486 C 0.07528 0.35745 0.63629 0.0
C3487 C 0.09859 0.35728 0.62596 0.0
C3488 C 0.05089 0.33097 0.64475 0.0
C3489 C 0.03921 0.34933 0.66133 0.0
N3490 N 0.08358 0.34946 0.6326 0.0
N3491 N 0.05317 0.35699 0.6526 0.0
H3492 H 0.26211 0.31582 0.66118 0.0
H3493 H 0.28837 0.40049 0.61449 0.0
H3494 H 0.31064 0.34803 0.6442 0.0
H3495 H 0.24292 0.37187 0.63917 0.0
H3496 H 0.29527 0.37907 0.6207 0.0
H3497 H 0.25342 0.33375 0.64838 0.0
C3498 C 0.27092 0.32656 0.65458 0.0
C3499 C 0.28719 0.33053 0.65397 0.0
C3500 C 0.28371 0.3774 0.62458 0.0
C3501 C 0.27731 0.35123 0.63936 0.0
C3502 C 0.27977 0.38958 0.62101 0.0
C3503 C 0.26509 0.38797 0.62642 0.0
C3504 C 0.27287 0.3635 0.63358 0.0
C3505 C 0.25437 0.37362 0.63482 0.0
C3506 C 0.26594 0.33683 0.6473 0.0
C3507 C 0.298 0.34456 0.64511 0.0
N3508 N 0.2585 0.362 0.63823 0.0
N3509 N 0.2929 0.3545 0.6383 0.0
H3510 H 0.69009 0.98068 0.62092 0.0
H3511 H 0.6116 0.89121 0.63066 0.0
H3512 H 0.65533 0.97196 0.65978 0.0
H3513 H 0.63587 0.90858 0.58318 0.0
H3514 H 0.63011 0.91883 0.64444 0.0
H3515 H 0.67328 0.95187 0.61031 0.0
C3516 C 0.67904 0.97268 0.6274 0.0
C3517 C 0.67404 0.97886 0.64117 0.0
C3518 C 0.63141 0.91646 0.63105 0.0
C3519 C 0.6547 0.94579 0.62896 0.0
C3520 C 0.62092 0.90076 0.62322 0.0
C3521 C 0.62242 0.89745 0.60587 0.0
C3522 C 0.64352 0.92886 0.62146 0.0
C3523 C 0.63447 0.91037 0.59668 0.0
C3524 C 0.6694 0.95624 0.62124 0.0
C3525 C 0.65959 0.96779 0.64903 0.0
N3526 N 0.6446 0.92542 0.60461 0.0
N3527 N 0.65036 0.95178 0.64276 0.0
H3528 H 0.04753 0.70735 0.69243 0.0
H3529 H 0.08386 0.7144 0.59944 0.0
H3530 H 0.01955 0.69862 0.64504 0.0
H3531 H 0.11258 0.72644 0.64678 0.0
H3532 H 0.05983 0.70722 0.61594 0.0
H3533 H 0.07121 0.71338 0.67595 0.0
C3534 C 0.04636 0.70673 0.67854 0.0
C3535 C 0.03153 0.7025 0.6701 0.0
C3536 C 0.07137 0.71142 0.62274 0.0
C3537 C 0.05863 0.70933 0.65113 0.0
C3538 C 0.08506 0.71548 0.61334 0.0
C3539 C 0.10025 0.7212 0.62178 0.0
C3540 C 0.07283 0.71301 0.64075 0.0
C3541 C 0.10113 0.72223 0.63979 0.0
C3542 C 0.0599 0.71016 0.66914 0.0
C3543 C 0.03075 0.70187 0.65208 0.0
N3544 N 0.08762 0.71824 0.64868 0.0
N3545 N 0.04412 0.70524 0.6432 0.0
H3546 H 0.00372 0.65337 0.69414 0.0
H3547 H 0.99775 0.58594 0.75844 0.0
H3548 H 0.96202 0.62408 0.72443 0.0
H3549 H 0.03986 0.61568 0.7288 0.0
H3550 H 0.98322 0.59718 0.74327 0.0
H3551 H 0.01571 0.63719 0.70388 0.0
C3552 C 0.99697 0.64342 0.70269 0.0
C3553 C 0.9819 0.64025 0.70866 0.0
C3554 C 0.99568 0.60132 0.74016 0.0
C3555 C 0.99569 0.62172 0.71994 0.0
C3556 C 0.00411 0.595 0.74894 0.0
C3557 C 0.02055 0.60065 0.74582 0.0
C3558 C 0.00359 0.61322 0.7279 0.0
C3559 C 0.02758 0.6116 0.73246 0.0
C3560 C 0.00387 0.63418 0.70825 0.0
C3561 C 0.97371 0.62709 0.7196 0.0
N3562 N 0.01916 0.61773 0.72423 0.0
N3563 N 0.9808 0.61843 0.72503 0.0
H3564 H 0.37577 0.35827 0.72629 0.0
H3565 H 0.39231 0.45103 0.72207 0.0
H3566 H 0.34932 0.37126 0.69037 0.0
H3567 H 0.40262 0.43122 0.76677 0.0
H3568 H 0.3804 0.42344 0.70724 0.0
H3569 H 0.39037 0.38693 0.73774 0.0
C3570 C 0.37314 0.36716 0.72064 0.0
C3571 C 0.36112 0.36224 0.70745 0.0
C3572 C 0.38544 0.42525 0.72023 0.0
C3573 C 0.37783 0.39517 0.72064 0.0
C3574 C 0.39225 0.44094 0.72865 0.0
C3575 C 0.39883 0.44354 0.74551 0.0
C3576 C 0.38529 0.41213 0.72874 0.0
C3577 C 0.39809 0.42995 0.75364 0.0
C3578 C 0.38144 0.38353 0.72727 0.0
C3579 C 0.35837 0.37444 0.70063 0.0
N3580 N 0.39156 0.4149 0.74514 0.0
N3581 N 0.36661 0.39035 0.70738 0.0
H3582 H 0.64612 0.04778 0.70286 0.0
H3583 H 0.56904 0.96642 0.73621 0.0
H3584 H 0.64188 0.99942 0.70174 0.0
H3585 H 0.56956 0.0118 0.72577 0.0
H3586 H 0.59779 0.97975 0.72917 0.0
H3587 H 0.62028 0.03618 0.71705 0.0
C3588 C 0.63987 0.03477 0.70578 0.0
C3589 C 0.64607 0.02451 0.70086 0.0
C3590 C 0.59165 0.98683 0.7286 0.0
C3591 C 0.61642 0.01114 0.71706 0.0
C3592 C 0.57529 0.97925 0.73263 0.0
C3593 C 0.56691 0.98799 0.7314 0.0
C3594 C 0.59969 0.00329 0.72339 0.0
C3595 C 0.57555 0.0046 0.72678 0.0
C3596 C 0.62508 0.02814 0.71384 0.0
C3597 C 0.63747 0.00776 0.70513 0.0
N3598 N 0.59143 0.01168 0.72285 0.0
N3599 N 0.623 0.00156 0.71284 0.0
loop_
_geom_bond_atom_site_label_1
_geom_bond_atom_site_label_2
_geom_bond_distance
_geom_bond_site_symmetry_2
_ccdc_geom_bond_type
Mg0 O1 2.028 1_556 S
Mg0 O7 1.986 1_455 S
Mg0 O9 2.114 . S
Mg0 O10 2.251 . S
Mg0 O13 2.010 1_556 S
O1 Mg0 2.028 1_554 S
O1 C4 1.250 1_455 S
O2 Mg3 2.028 1_554 S
O2 C4 1.248 . S
Mg3 O2 2.028 1_556 S
Mg3 O8 2.032 . S
Mg3 O10 2.079 1_655 S
C4 O1 1.250 1_655 S
C4 O2 1.248 . S
C5 O6 1.264 . S
C5 O13 1.249 . S
O6 C5 1.264 . S
O7 Mg0 1.986 1_655 S
O7 C11 1.246 . S
O8 Mg3 2.032 . S
O8 C11 1.259 . S
O9 Mg0 2.114 . S
O9 C12 1.252 . S
O10 Mg0 2.251 . S
O10 Mg3 2.079 1_455 S
O10 C12 1.273 . S
C11 O7 1.246 . S
C11 O8 1.259 . S
C12 O9 1.252 . S
C12 O10 1.273 . S
O13 Mg0 2.010 1_554 S
O13 C5 1.249 . S
Mg14 O15 2.028 . S
Mg14 O21 1.986 . S
Mg14 O23 2.114 . S
Mg14 O24 2.251 . S
Mg14 O27 2.010 . S
O15 Mg14 2.028 . S
O15 C18 1.250 . S
O16 Mg17 2.028 . S
O16 C18 1.248 . S
Mg17 O16 2.028 . S
Mg17 O22 2.032 . S
Mg17 O24 2.079 . S
C18 O15 1.250 . S
C18 O16 1.248 . S
C19 O20 1.264 . S
C19 O27 1.249 . S
O20 C19 1.264 . S
O21 Mg14 1.986 . S
O21 C25 1.246 . S
O22 Mg17 2.032 . S
O22 C25 1.259 . S
O23 Mg14 2.114 . S
O23 C26 1.252 . S
O24 Mg14 2.251 . S
O24 Mg17 2.079 . S
O24 C26 1.273 . S
C25 O21 1.246 . S
C25 O22 1.259 . S
C26 O23 1.252 . S
C26 O24 1.273 . S
O27 Mg14 2.010 . S
O27 C19 1.249 . S
Mg28 O29 2.041 1_565 S
Mg28 O35 1.983 1_564 S
Mg28 O37 2.109 1_554 S
Mg28 O38 2.242 1_564 S
Mg28 O41 2.017 . S
O29 Mg28 2.041 1_545 S
O29 C32 1.250 . S
O30 Mg31 2.028 1_554 S
O30 C32 1.248 . S
Mg31 O30 2.028 1_556 S
Mg31 O36 2.032 . S
Mg31 O38 2.079 . S
C32 O29 1.250 . S
C32 O30 1.248 . S
C33 O34 1.264 . S
C33 O41 1.249 . S
O34 C33 1.264 . S
O35 Mg28 1.983 1_546 S
O35 C39 1.265 . S
O36 Mg31 2.032 . S
O36 C39 1.259 . S
O37 Mg28 2.109 1_556 S
O37 C40 1.252 . S
O38 Mg28 2.242 1_546 S
O38 Mg31 2.079 . S
O38 C40 1.273 1_545 S
C39 O35 1.265 . S
C39 O36 1.259 . S
C40 O37 1.252 . S
C40 O38 1.273 1_565 S
O41 Mg28 2.017 . S
O41 C33 1.249 . S
Mg42 O43 1.979 1_654 S
Mg42 O49 1.986 1_655 S
Mg42 O51 2.114 . S
Mg42 O52 2.251 1_655 S
Mg42 O55 2.010 . S
O43 Mg42 1.979 1_456 S
O43 C46 1.264 . S
O44 Mg45 2.028 . S
O44 C46 1.248 1_554 S
Mg45 O44 2.028 . S
Mg45 O50 2.032 . S
Mg45 O52 2.079 . S
C46 O43 1.264 . S
C46 O44 1.248 1_556 S
C47 O48 1.264 . S
C47 O55 1.249 . S
O48 C47 1.264 . S
O49 Mg42 1.986 1_455 S
O49 C53 1.246 . S
O50 Mg45 2.032 . S
O50 C53 1.259 . S
O51 Mg42 2.114 . S
O51 C54 1.252 . S
O52 Mg42 2.251 1_455 S
O52 Mg45 2.079 . S
O52 C54 1.273 1_455 S
C53 O49 1.246 . S
C53 O50 1.259 . S
C54 O51 1.252 . S
C54 O52 1.273 1_655 S
O55 Mg42 2.010 . S
O55 C47 1.249 . S
Mg56 O57 2.028 1_556 S
Mg56 O63 1.986 . S
Mg56 O65 2.114 . S
Mg56 O66 2.251 . S
Mg56 O69 2.010 1_556 S
O57 Mg56 2.028 1_554 S
O57 C60 1.250 . S
O58 Mg59 2.028 1_554 S
O58 C60 1.248 . S
Mg59 O58 2.028 1_556 S
Mg59 O64 2.032 . S
Mg59 O66 2.079 . S
C60 O57 1.250 . S
C60 O58 1.248 . S
C61 O62 1.264 . S
C61 O69 1.249 . S
O62 C61 1.264 . S
O63 Mg56 1.986 . S
O63 C67 1.246 . S
O64 Mg59 2.032 . S
O64 C67 1.259 . S
O65 Mg56 2.114 . S
O65 C68 1.252 . S
O66 Mg56 2.251 . S
O66 Mg59 2.079 . S
O66 C68 1.273 . S
C67 O63 1.246 . S
C67 O64 1.259 . S
C68 O65 1.252 . S
C68 O66 1.273 . S
O69 Mg56 2.010 1_554 S
O69 C61 1.249 . S
Mg70 O71 2.056 . S
Mg70 O77 1.986 1_545 S
Mg70 O79 2.114 . S
Mg70 O80 2.251 . S
Mg70 O83 2.010 . S
O71 Mg70 2.056 . S
O71 C74 1.244 1_544 S
O72 Mg73 2.028 . S
O72 C74 1.248 1_554 S
Mg73 O72 2.028 . S
Mg73 O78 2.032 . S
Mg73 O80 2.079 1_565 S
C74 O71 1.244 1_566 S
C74 O72 1.248 1_556 S
C75 O76 1.264 . S
C75 O83 1.249 . S
O76 C75 1.264 . S
O77 Mg70 1.986 1_565 S
O77 C81 1.246 . S
O78 Mg73 2.032 . S
O78 C81 1.259 . S
O79 Mg70 2.114 . S
O79 C82 1.252 . S
O80 Mg70 2.251 . S
O80 Mg73 2.079 1_545 S
O80 C82 1.273 . S
C81 O77 1.246 . S
C81 O78 1.259 . S
C82 O79 1.252 . S
C82 O80 1.273 . S
O83 Mg70 2.010 . S
O83 C75 1.249 . S
Mg84 O85 2.028 . S
Mg84 O91 1.986 . S
Mg84 O93 2.114 . S
Mg84 O94 2.251 . S
Mg84 O97 2.010 . S
O85 Mg84 2.028 . S
O85 C88 1.250 . S
O86 Mg87 2.028 . S
O86 C88 1.248 . S
Mg87 O86 2.028 . S
Mg87 O92 2.032 . S
Mg87 O94 2.079 . S
C88 O85 1.250 . S
C88 O86 1.248 . S
C89 O90 1.264 . S
C89 O97 1.249 . S
O90 C89 1.264 . S
O91 Mg84 1.986 . S
O91 C95 1.246 . S
O92 Mg87 2.032 . S
O92 C95 1.259 . S
O93 Mg84 2.114 . S
O93 C96 1.252 . S
O94 Mg84 2.251 . S
O94 Mg87 2.079 . S
O94 C96 1.273 . S
C95 O91 1.246 . S
C95 O92 1.259 . S
C96 O93 1.252 . S
C96 O94 1.273 . S
O97 Mg84 2.010 . S
O97 C89 1.249 . S
Mg98 O99 2.028 . S
Mg98 O105 1.986 1_565 S
Mg98 O107 2.114 . S
Mg98 O108 2.251 . S
Mg98 O111 2.010 . S
O99 Mg98 2.028 . S
O99 C102 1.250 . S
O100 Mg101 2.028 . S
O100 C102 1.248 . S
Mg101 O100 2.028 . S
Mg101 O106 2.032 1_565 S
Mg101 O108 2.079 . S
C102 O99 1.250 . S
C102 O100 1.248 . S
C103 O104 1.264 . S
C103 O111 1.249 . S
O104 C103 1.264 . S
O105 Mg98 1.986 1_545 S
O105 C109 1.246 . S
O106 Mg101 2.032 1_545 S
O106 C109 1.259 . S
O107 Mg98 2.114 . S
O107 C110 1.252 . S
O108 Mg98 2.251 . S
O108 Mg101 2.079 . S
O108 C110 1.273 . S
C109 O105 1.246 . S
C109 O106 1.259 . S
C110 O107 1.252 . S
C110 O108 1.273 . S
O111 Mg98 2.010 . S
O111 C103 1.249 . S
Mg112 O113 2.028 . S
Mg112 O119 1.986 . S
Mg112 O121 2.114 . S
Mg112 O122 2.251 . S
Mg112 O125 2.010 1_455 S
O113 Mg112 2.028 . S
O113 C116 1.250 . S
O114 Mg115 2.028 . S
O114 C116 1.248 . S
Mg115 O114 2.028 . S
Mg115 O120 2.032 . S
Mg115 O122 2.079 . S
C116 O113 1.250 . S
C116 O114 1.248 . S
C117 O118 1.264 . S
C117 O125 1.249 . S
O118 C117 1.264 . S
O119 Mg112 1.986 . S
O119 C123 1.246 . S
O120 Mg115 2.032 . S
O120 C123 1.259 . S
O121 Mg112 2.114 . S
O121 C124 1.252 . S
O122 Mg112 2.251 . S
O122 Mg115 2.079 . S
O122 C124 1.273 . S
C123 O119 1.246 . S
C123 O120 1.259 . S
C124 O121 1.252 . S
C124 O122 1.273 . S
O125 Mg112 2.010 1_655 S
O125 C117 1.249 . S
Mg126 O127 2.028 . S
Mg126 O133 1.986 1_565 S
Mg126 O135 2.114 . S
Mg126 O136 2.251 . S
Mg126 O139 2.010 . S
O127 Mg126 2.028 . S
O127 C130 1.250 . S
O128 Mg129 2.028 . S
O128 C130 1.248 . S
Mg129 O128 2.028 . S
Mg129 O134 2.032 1_565 S
Mg129 O136 2.079 . S
C130 O127 1.250 . S
C130 O128 1.248 . S
C131 O132 1.264 . S
C131 O139 1.249 . S
O132 C131 1.264 . S
O133 Mg126 1.986 1_545 S
O133 C137 1.246 . S
O134 Mg129 2.032 1_545 S
O134 C137 1.259 . S
O135 Mg126 2.114 . S
O135 C138 1.252 . S
O136 Mg126 2.251 . S
O136 Mg129 2.079 . S
O136 C138 1.273 . S
C137 O133 1.246 . S
C137 O134 1.259 . S
C138 O135 1.252 . S
C138 O136 1.273 . S
O139 Mg126 2.010 . S
O139 C131 1.249 . S
Mg140 O141 2.028 . S
Mg140 O147 1.986 . S
Mg140 O149 2.114 . S
Mg140 O150 2.251 . S
Mg140 O153 2.010 1_455 S
O141 Mg140 2.028 . S
O141 C144 1.250 . S
O142 Mg143 2.028 . S
O142 C144 1.248 . S
Mg143 O142 2.028 . S
Mg143 O148 2.032 . S
Mg143 O150 2.079 . S
C144 O141 1.250 . S
C144 O142 1.248 . S
C145 O146 1.264 . S
C145 O153 1.249 . S
O146 C145 1.264 . S
O147 Mg140 1.986 . S
O147 C151 1.246 . S
O148 Mg143 2.032 . S
O148 C151 1.259 . S
O149 Mg140 2.114 . S
O149 C152 1.252 . S
O150 Mg140 2.251 . S
O150 Mg143 2.079 . S
O150 C152 1.273 . S
C151 O147 1.246 . S
C151 O148 1.259 . S
C152 O149 1.252 . S
C152 O150 1.273 . S
O153 Mg140 2.010 1_655 S
O153 C145 1.249 . S
Mg154 O155 2.028 . S
Mg154 O161 1.986 . S
Mg154 O163 2.114 . S
Mg154 O164 2.251 . S
Mg154 O167 2.010 . S
O155 Mg154 2.028 . S
O155 C158 1.250 . S
O156 Mg157 2.028 . S
O156 C158 1.248 . S
Mg157 O156 2.028 . S
Mg157 O162 2.032 . S
Mg157 O164 2.079 . S
C158 O155 1.250 . S
C158 O156 1.248 . S
C159 O160 1.264 . S
C159 O167 1.249 . S
O160 C159 1.264 . S
O161 Mg154 1.986 . S
O161 C165 1.246 . S
O162 Mg157 2.032 . S
O162 C165 1.259 . S
O163 Mg154 2.114 . S
O163 C166 1.252 . S
O164 Mg154 2.251 . S
O164 Mg157 2.079 . S
O164 C166 1.273 . S
C165 O161 1.246 . S
C165 O162 1.259 . S
C166 O163 1.252 . S
C166 O164 1.273 . S
O167 Mg154 2.010 . S
O167 C159 1.249 . S
Mg168 O169 2.028 . S
Mg168 O175 1.986 1_545 S
Mg168 O177 2.114 . S
Mg168 O178 2.251 . S
Mg168 O181 2.010 . S
O169 Mg168 2.028 . S
O169 C172 1.250 . S
O170 Mg171 2.028 . S
O170 C172 1.248 . S
Mg171 O170 2.028 . S
Mg171 O176 1.971 1_545 S
Mg171 O178 2.079 . S
C172 O169 1.250 . S
C172 O170 1.248 . S
C173 O174 1.264 . S
C173 O181 1.249 . S
O174 C173 1.264 . S
O175 Mg168 1.986 1_565 S
O175 C179 1.246 . S
O176 Mg171 1.971 1_565 S
O176 C179 1.314 . S
O177 Mg168 2.114 . S
O177 C180 1.252 . S
O178 Mg168 2.251 . S
O178 Mg171 2.079 . S
O178 C180 1.273 . S
C179 O175 1.246 . S
C179 O176 1.314 . S
C180 O177 1.252 . S
C180 O178 1.273 . S
O181 Mg168 2.010 . S
O181 C173 1.249 . S
Mg182 O183 2.028 . S
Mg182 O189 1.986 . S
Mg182 O191 2.114 . S
Mg182 O192 2.251 . S
Mg182 O195 2.010 1_655 S
O183 Mg182 2.028 . S
O183 C186 1.250 . S
O184 Mg185 2.028 . S
O184 C186 1.248 . S
Mg185 O184 2.028 . S
Mg185 O190 2.032 . S
Mg185 O192 2.079 . S
C186 O183 1.250 . S
C186 O184 1.248 . S
C187 O188 1.264 . S
C187 O195 1.249 . S
O188 C187 1.264 . S
O189 Mg182 1.986 . S
O189 C193 1.246 . S
O190 Mg185 2.032 . S
O190 C193 1.259 . S
O191 Mg182 2.114 . S
O191 C194 1.252 . S
O192 Mg182 2.251 . S
O192 Mg185 2.079 . S
O192 C194 1.273 . S
C193 O189 1.246 . S
C193 O190 1.259 . S
C194 O191 1.252 . S
C194 O192 1.273 . S
O195 Mg182 2.010 1_455 S
O195 C187 1.249 . S
Mg196 O197 2.028 . S
Mg196 O203 1.986 . S
Mg196 O205 2.114 . S
Mg196 O206 2.251 . S
Mg196 O209 2.010 . S
O197 Mg196 2.028 . S
O197 C200 1.250 . S
O198 Mg199 2.028 . S
O198 C200 1.248 . S
Mg199 O198 2.028 . S
Mg199 O204 2.032 . S
Mg199 O206 2.079 . S
C200 O197 1.250 . S
C200 O198 1.248 . S
C201 O202 1.264 . S
C201 O209 1.249 . S
O202 C201 1.264 . S
O203 Mg196 1.986 . S
O203 C207 1.246 . S
O204 Mg199 2.032 . S
O204 C207 1.259 . S
O205 Mg196 2.114 . S
O205 C208 1.252 . S
O206 Mg196 2.251 . S
O206 Mg199 2.079 . S
O206 C208 1.273 . S
C207 O203 1.246 . S
C207 O204 1.259 . S
C208 O205 1.252 . S
C208 O206 1.273 . S
O209 Mg196 2.010 . S
O209 C201 1.249 . S
Mg210 O211 2.028 . S
Mg210 O217 1.986 . S
Mg210 O219 2.114 . S
Mg210 O220 2.251 . S
Mg210 O223 2.010 . S
O211 Mg210 2.028 . S
O211 C214 1.250 . S
O212 Mg213 2.028 . S
O212 C214 1.248 . S
Mg213 O212 2.028 . S
Mg213 O218 2.032 . S
Mg213 O220 2.079 . S
C214 O211 1.250 . S
C214 O212 1.248 . S
C215 O216 1.264 . S
C215 O223 1.249 . S
O216 C215 1.264 . S
O217 Mg210 1.986 . S
O217 C221 1.246 . S
O218 Mg213 2.032 . S
O218 C221 1.259 . S
O219 Mg210 2.114 . S
O219 C222 1.252 . S
O220 Mg210 2.251 . S
O220 Mg213 2.079 . S
O220 C222 1.273 . S
C221 O217 1.246 . S
C221 O218 1.259 . S
C222 O219 1.252 . S
C222 O220 1.273 . S
O223 Mg210 2.010 . S
O223 C215 1.249 . S
Mg224 O225 2.028 . S
Mg224 O231 1.986 1_545 S
Mg224 O233 2.114 . S
Mg224 O234 2.251 . S
Mg224 O237 2.010 . S
O225 Mg224 2.028 . S
O225 C228 1.250 . S
O226 Mg227 2.028 . S
O226 C228 1.248 . S
Mg227 O226 2.028 . S
Mg227 O232 2.032 1_545 S
Mg227 O234 2.079 . S
C228 O225 1.250 . S
C228 O226 1.248 . S
C229 O230 1.264 . S
C229 O237 1.249 . S
O230 C229 1.264 . S
O231 Mg224 1.986 1_565 S
O231 C235 1.246 . S
O232 Mg227 2.032 1_565 S
O232 C235 1.259 . S
O233 Mg224 2.114 . S
O233 C236 1.252 . S
O234 Mg224 2.251 . S
O234 Mg227 2.079 . S
O234 C236 1.273 . S
C235 O231 1.246 . S
C235 O232 1.259 . S
C236 O233 1.252 . S
C236 O234 1.273 . S
O237 Mg224 2.010 . S
O237 C229 1.249 . S
Mg238 O239 2.028 . S
Mg238 O245 1.986 . S
Mg238 O247 2.114 . S
Mg238 O248 2.251 . S
Mg238 O251 2.010 1_655 S
O239 Mg238 2.028 . S
O239 C242 1.250 . S
O240 Mg241 2.028 . S
O240 C242 1.248 . S
Mg241 O240 2.028 . S
Mg241 O246 2.032 . S
Mg241 O248 2.079 . S
C242 O239 1.250 . S
C242 O240 1.248 . S
C243 O244 1.264 . S
C243 O251 1.249 . S
O244 C243 1.264 . S
O245 Mg238 1.986 . S
O245 C249 1.246 . S
O246 Mg241 2.032 . S
O246 C249 1.259 . S
O247 Mg238 2.114 . S
O247 C250 1.252 . S
O248 Mg238 2.251 . S
O248 Mg241 2.079 . S
O248 C250 1.273 . S
C249 O245 1.246 . S
C249 O246 1.259 . S
C250 O247 1.252 . S
C250 O248 1.273 . S
O251 Mg238 2.010 1_455 S
O251 C243 1.249 . S
C252 C253 1.560 . S
C252 H313 0.959 . S
C252 H314 0.959 . S
C252 H315 0.960 . S
C253 C252 1.560 . S
C253 O308 1.426 . S
C253 H312 0.980 . S
C254 C255 1.407 . S
C254 C259 1.418 . S
C254 O308 1.334 . S
C255 C254 1.407 . S
C255 C256 1.360 . S
C255 H316 0.929 . S
C256 C255 1.360 . S
C256 C257 1.401 . S
C256 C260 1.527 . S
C257 C256 1.401 . S
C257 C258 1.405 . S
C257 C290 1.587 . S
C258 C257 1.405 . S
C258 C259 1.332 . S
C258 C261 1.496 . S
C259 C254 1.418 . S
C259 C258 1.332 . S
C259 H317 0.929 . S
C260 C256 1.527 . S
C260 H318 0.959 . S
C260 H319 0.961 . S
C260 H320 0.961 . S
C261 C258 1.496 . S
C261 H321 0.960 . S
C261 H322 0.960 . S
C261 H323 0.961 . S
C262 C263 1.517 . S
C262 H325 0.961 . S
C262 H326 0.960 . S
C262 H327 0.959 . S
C263 C262 1.517 . S
C263 O311 1.468 . S
C263 H324 0.980 . S
C264 C265 1.349 . S
C264 C269 1.367 . S
C264 O311 1.408 . S
C265 C264 1.349 . S
C265 C266 1.407 . S
C265 H328 0.930 . S
C266 C265 1.407 . S
C266 C267 1.449 . S
C266 C270 1.535 . S
C267 C266 1.449 . S
C267 C268 1.384 . S
C267 C292 1.553 . S
C268 C267 1.384 . S
C268 C269 1.364 . S
C268 C271 1.450 . S
C269 C264 1.367 . S
C269 C268 1.364 . S
C269 H329 0.931 . S
C270 C266 1.535 . S
C270 H330 0.959 . S
C270 H331 0.961 . S
C270 H332 0.959 . S
C271 C268 1.450 . S
C271 H333 0.960 . S
C271 H334 0.960 . S
C271 H335 0.960 . S
C272 C273 1.309 . S
C272 C277 1.304 . S
C272 O310 1.435 . S
C273 C272 1.309 . S
C273 C274 1.476 . S
C273 H337 0.930 . S
C274 C273 1.476 . S
C274 C275 1.400 . S
C274 C278 1.567 . S
C275 C274 1.400 . S
C275 C276 1.373 . S
C275 C297 1.432 . S
C276 C275 1.373 . S
C276 C277 1.339 . S
C276 C279 1.530 . S
C277 C272 1.304 . S
C277 C276 1.339 . S
C277 H338 0.930 . S
C278 C274 1.567 . S
C278 H339 0.961 . S
C278 H340 0.960 . S
C278 H341 0.958 . S
C279 C276 1.530 . S
C279 H342 0.961 . S
C279 H343 0.960 . S
C279 H344 0.960 . S
C280 C281 1.530 . S
C280 H346 0.961 . S
C280 H347 0.961 . S
C280 H348 0.959 . S
C281 C280 1.530 . S
C281 O309 1.412 . S
C281 H345 0.980 . S
C282 C283 1.288 . S
C282 C287 1.377 . S
C282 O309 1.393 . S
C283 C282 1.288 . S
C283 C284 1.369 . S
C283 H349 0.932 . S
C284 C283 1.369 . S
C284 C285 1.398 . S
C284 C288 1.527 . S
C285 C284 1.398 . S
C285 C286 1.380 . S
C285 C299 1.497 . S
C286 C285 1.380 . S
C286 C287 1.383 . S
C286 C289 1.603 . S
C287 C282 1.377 . S
C287 C286 1.383 . S
C287 H350 0.929 . S
C288 C284 1.527 . S
C288 H351 0.961 . S
C288 H352 0.959 . S
C288 H353 0.959 . S
C289 C286 1.603 . S
C289 H354 0.960 . S
C289 H355 0.962 . S
C289 H356 0.961 . S
C290 C257 1.587 . S
C290 C291 1.360 . S
C290 C303 1.412 . S
C291 C290 1.360 . S
C291 C292 1.365 . S
C291 H357 0.929 . S
C292 C267 1.553 . S
C292 C291 1.365 . S
C292 C293 1.404 . S
C293 C292 1.404 . S
C293 C294 1.395 . S
C293 C304 1.451 . S
C294 C293 1.395 . S
C294 C295 1.322 . S
C294 H358 0.930 . S
C295 C294 1.322 . S
C295 C296 1.459 . S
C295 H359 0.929 . S
C296 C295 1.459 . S
C296 C297 1.445 . S
C296 C305 1.395 . S
C297 C275 1.432 . S
C297 C296 1.445 . S
C297 C298 1.370 . S
C298 C297 1.370 . S
C298 C299 1.438 . S
C298 H360 0.930 . S
C299 C285 1.497 . S
C299 C298 1.438 . S
C299 C300 1.360 . S
C300 C299 1.360 . S
C300 C301 1.401 . S
C300 C305 1.446 . S
C301 C300 1.401 . S
C301 C302 1.347 . S
C301 H361 0.929 . S
C302 C301 1.347 . S
C302 C303 1.455 . S
C302 H362 0.930 . S
C303 C290 1.412 . S
C303 C302 1.455 . S
C303 C304 1.331 . S
C304 C293 1.451 . S
C304 C303 1.331 . S
C304 C305 1.497 . S
C305 C296 1.395 . S
C305 C300 1.446 . S
C305 C304 1.497 . S
C306 C307 1.582 . S
C306 H363 0.962 . S
C306 H364 0.959 . S
C306 H365 0.958 . S
C307 C306 1.582 . S
C307 O310 1.458 . S
C307 H336 0.980 . S
O308 C253 1.426 . S
O308 C254 1.334 . S
O309 C281 1.412 . S
O309 C282 1.393 . S
O310 C272 1.435 . S
O310 C307 1.458 . S
O311 C263 1.468 . S
O311 C264 1.408 . S
H312 C253 0.980 . S
H313 C252 0.959 . S
H314 C252 0.959 . S
H315 C252 0.960 . S
H316 C255 0.929 . S
H317 C259 0.929 . S
H318 C260 0.959 . S
H319 C260 0.961 . S
H320 C260 0.961 . S
H321 C261 0.960 . S
H322 C261 0.960 . S
H323 C261 0.961 . S
H324 C263 0.980 . S
H325 C262 0.961 . S
H326 C262 0.960 . S
H327 C262 0.959 . S
H328 C265 0.930 . S
H329 C269 0.931 . S
H330 C270 0.959 . S
H331 C270 0.961 . S
H332 C270 0.959 . S
H333 C271 0.960 . S
H334 C271 0.960 . S
H335 C271 0.960 . S
H336 C307 0.980 . S
H337 C273 0.930 . S
H338 C277 0.930 . S
H339 C278 0.961 . S
H340 C278 0.960 . S
H341 C278 0.958 . S
H342 C279 0.961 . S
H343 C279 0.960 . S
H344 C279 0.960 . S
H345 C281 0.980 . S
H346 C280 0.961 . S
H347 C280 0.961 . S
H348 C280 0.959 . S
H349 C283 0.932 . S
H350 C287 0.929 . S
H351 C288 0.961 . S
H352 C288 0.959 . S
H353 C288 0.959 . S
H354 C289 0.960 . S
H355 C289 0.962 . S
H356 C289 0.961 . S
H357 C291 0.929 . S
H358 C294 0.930 . S
H359 C295 0.929 . S
H360 C298 0.930 . S
H361 C301 0.929 . S
H362 C302 0.930 . S
H363 C306 0.962 . S
H364 C306 0.959 . S
H365 C306 0.958 . S
C366 C367 1.560 . S
C366 H427 0.959 . S
C366 H428 0.959 . S
C366 H429 0.960 . S
C367 C366 1.560 . S
C367 O422 1.426 . S
C367 H426 0.980 . S
C368 C369 1.407 . S
C368 C373 1.418 . S
C368 O422 1.334 . S
C369 C368 1.407 . S
C369 C370 1.360 . S
C369 H430 0.929 . S
C370 C369 1.360 . S
C370 C371 1.401 . S
C370 C374 1.527 . S
C371 C370 1.401 . S
C371 C372 1.405 . S
C371 C404 1.587 . S
C372 C371 1.405 . S
C372 C373 1.332 . S
C372 C375 1.496 . S
C373 C368 1.418 . S
C373 C372 1.332 . S
C373 H431 0.929 . S
C374 C370 1.527 . S
C374 H432 0.959 . S
C374 H433 0.961 . S
C374 H434 0.961 . S
C375 C372 1.496 . S
C375 H435 0.960 . S
C375 H436 0.960 . S
C375 H437 0.961 . S
C376 C377 1.517 . S
C376 H439 0.961 . S
C376 H440 0.960 . S
C376 H441 0.959 . S
C377 C376 1.517 . S
C377 O425 1.468 . S
C377 H438 0.980 . S
C378 C379 1.349 . S
C378 C383 1.367 . S
C378 O425 1.408 . S
C379 C378 1.349 . S
C379 C380 1.407 . S
C379 H442 0.930 . S
C380 C379 1.407 . S
C380 C381 1.449 . S
C380 C384 1.535 . S
C381 C380 1.449 . S
C381 C382 1.384 . S
C381 C406 1.553 . S
C382 C381 1.384 . S
C382 C383 1.364 . S
C382 C385 1.450 . S
C383 C378 1.367 . S
C383 C382 1.364 . S
C383 H443 0.931 . S
C384 C380 1.535 . S
C384 H444 0.959 . S
C384 H445 0.961 . S
C384 H446 0.959 . S
C385 C382 1.450 . S
C385 H447 0.960 . S
C385 H448 0.960 . S
C385 H449 0.960 . S
C386 C387 1.309 . S
C386 C391 1.304 . S
C386 O424 1.435 . S
C387 C386 1.309 . S
C387 C388 1.476 . S
C387 H451 0.930 . S
C388 C387 1.476 . S
C388 C389 1.400 . S
C388 C392 1.567 . S
C389 C388 1.400 . S
C389 C390 1.373 . S
C389 C411 1.432 . S
C390 C389 1.373 . S
C390 C391 1.339 . S
C390 C393 1.530 . S
C391 C386 1.304 . S
C391 C390 1.339 . S
C391 H452 0.930 . S
C392 C388 1.567 . S
C392 H453 0.961 . S
C392 H454 0.960 . S
C392 H455 0.958 . S
C393 C390 1.530 . S
C393 H456 0.961 . S
C393 H457 0.960 . S
C393 H458 0.960 . S
C394 C395 1.530 . S
C394 H460 0.961 . S
C394 H461 0.961 . S
C394 H462 0.959 . S
C395 C394 1.530 . S
C395 O423 1.412 . S
C395 H459 0.980 . S
C396 C397 1.288 . S
C396 C401 1.377 . S
C396 O423 1.393 . S
C397 C396 1.288 . S
C397 C398 1.369 . S
C397 H463 0.932 . S
C398 C397 1.369 . S
C398 C399 1.398 . S
C398 C402 1.527 . S
C399 C398 1.398 . S
C399 C400 1.380 . S
C399 C413 1.497 . S
C400 C399 1.380 . S
C400 C401 1.383 . S
C400 C403 1.603 . S
C401 C396 1.377 . S
C401 C400 1.383 . S
C401 H464 0.929 . S
C402 C398 1.527 . S
C402 H465 0.961 . S
C402 H466 0.959 . S
C402 H467 0.959 . S
C403 C400 1.603 . S
C403 H468 0.960 . S
C403 H469 0.962 . S
C403 H470 0.961 . S
C404 C371 1.587 . S
C404 C405 1.360 . S
C404 C417 1.412 . S
C405 C404 1.360 . S
C405 C406 1.365 . S
C405 H471 0.929 . S
C406 C381 1.553 . S
C406 C405 1.365 . S
C406 C407 1.404 . S
C407 C406 1.404 . S
C407 C408 1.395 . S
C407 C418 1.451 . S
C408 C407 1.395 . S
C408 C409 1.322 . S
C408 H472 0.930 . S
C409 C408 1.322 . S
C409 C410 1.459 . S
C409 H473 0.929 . S
C410 C409 1.459 . S
C410 C411 1.445 . S
C410 C419 1.395 . S
C411 C389 1.432 . S
C411 C410 1.445 . S
C411 C412 1.370 . S
C412 C411 1.370 . S
C412 C413 1.438 . S
C412 H474 0.930 . S
C413 C399 1.497 . S
C413 C412 1.438 . S
C413 C414 1.360 . S
C414 C413 1.360 . S
C414 C415 1.401 . S
C414 C419 1.446 . S
C415 C414 1.401 . S
C415 C416 1.347 . S
C415 H475 0.929 . S
C416 C415 1.347 . S
C416 C417 1.455 . S
C416 H476 0.930 . S
C417 C404 1.412 . S
C417 C416 1.455 . S
C417 C418 1.331 . S
C418 C407 1.451 . S
C418 C417 1.331 . S
C418 C419 1.497 . S
C419 C410 1.395 . S
C419 C414 1.446 . S
C419 C418 1.497 . S
C420 C421 1.582 . S
C420 H477 0.962 . S
C420 H478 0.959 . S
C420 H479 0.958 . S
C421 C420 1.582 . S
C421 O424 1.458 . S
C421 H450 0.980 . S
O422 C367 1.426 . S
O422 C368 1.334 . S
O423 C395 1.412 . S
O423 C396 1.393 . S
O424 C386 1.435 . S
O424 C421 1.458 . S
O425 C377 1.468 . S
O425 C378 1.408 . S
H426 C367 0.980 . S
H427 C366 0.959 . S
H428 C366 0.959 . S
H429 C366 0.960 . S
H430 C369 0.929 . S
H431 C373 0.929 . S
H432 C374 0.959 . S
H433 C374 0.961 . S
H434 C374 0.961 . S
H435 C375 0.960 . S
H436 C375 0.960 . S
H437 C375 0.961 . S
H438 C377 0.980 . S
H439 C376 0.961 . S
H440 C376 0.960 . S
H441 C376 0.959 . S
H442 C379 0.930 . S
H443 C383 0.931 . S
H444 C384 0.959 . S
H445 C384 0.961 . S
H446 C384 0.959 . S
H447 C385 0.960 . S
H448 C385 0.960 . S
H449 C385 0.960 . S
H450 C421 0.980 . S
H451 C387 0.930 . S
H452 C391 0.930 . S
H453 C392 0.961 . S
H454 C392 0.960 . S
H455 C392 0.958 . S
H456 C393 0.961 . S
H457 C393 0.960 . S
H458 C393 0.960 . S
H459 C395 0.980 . S
H460 C394 0.961 . S
H461 C394 0.961 . S
H462 C394 0.959 . S
H463 C397 0.932 . S
H464 C401 0.929 . S
H465 C402 0.961 . S
H466 C402 0.959 . S
H467 C402 0.959 . S
H468 C403 0.960 . S
H469 C403 0.962 . S
H470 C403 0.961 . S
H471 C405 0.929 . S
H472 C408 0.930 . S
H473 C409 0.929 . S
H474 C412 0.930 . S
H475 C415 0.929 . S
H476 C416 0.930 . S
H477 C420 0.962 . S
H478 C420 0.959 . S
H479 C420 0.958 . S
C480 C481 1.560 . S
C480 H541 0.959 . S
C480 H542 0.959 . S
C480 H543 0.960 . S
C481 C480 1.560 . S
C481 O536 1.426 . S
C481 H540 0.980 . S
C482 C483 1.407 . S
C482 C487 1.418 . S
C482 O536 1.334 . S
C483 C482 1.407 . S
C483 C484 1.360 . S
C483 H544 0.929 . S
C484 C483 1.360 . S
C484 C485 1.401 . S
C484 C488 1.527 . S
C485 C484 1.401 . S
C485 C486 1.405 . S
C485 C518 1.587 . S
C486 C485 1.405 . S
C486 C487 1.332 . S
C486 C489 1.496 . S
C487 C482 1.418 . S
C487 C486 1.332 . S
C487 H545 0.929 . S
C488 C484 1.527 . S
C488 H546 0.959 . S
C488 H547 0.961 . S
C488 H548 0.961 . S
C489 C486 1.496 . S
C489 H549 0.960 . S
C489 H550 0.960 . S
C489 H551 0.961 . S
C490 C491 1.517 . S
C490 H553 0.961 . S
C490 H554 0.960 . S
C490 H555 0.959 . S
C491 C490 1.517 . S
C491 O539 1.468 . S
C491 H552 0.980 . S
C492 C493 1.349 . S
C492 C497 1.367 . S
C492 O539 1.408 . S
C493 C492 1.349 . S
C493 C494 1.407 . S
C493 H556 0.930 . S
C494 C493 1.407 . S
C494 C495 1.449 . S
C494 C498 1.535 . S
C495 C494 1.449 . S
C495 C496 1.384 . S
C495 C520 1.553 . S
C496 C495 1.384 . S
C496 C497 1.364 . S
C496 C499 1.450 . S
C497 C492 1.367 . S
C497 C496 1.364 . S
C497 H557 0.931 . S
C498 C494 1.535 . S
C498 H558 0.959 . S
C498 H559 0.961 . S
C498 H560 0.959 . S
C499 C496 1.450 . S
C499 H561 0.960 . S
C499 H562 0.960 . S
C499 H563 0.960 . S
C500 C501 1.309 . S
C500 C505 1.304 . S
C500 O538 1.435 . S
C501 C500 1.309 . S
C501 C502 1.476 . S
C501 H565 0.930 . S
C502 C501 1.476 . S
C502 C503 1.400 . S
C502 C506 1.567 . S
C503 C502 1.400 . S
C503 C504 1.373 . S
C503 C525 1.432 . S
C504 C503 1.373 . S
C504 C505 1.339 . S
C504 C507 1.530 . S
C505 C500 1.304 . S
C505 C504 1.339 . S
C505 H566 0.930 . S
C506 C502 1.567 . S
C506 H567 0.961 . S
C506 H568 0.960 . S
C506 H569 0.958 . S
C507 C504 1.530 . S
C507 H570 0.961 . S
C507 H571 0.960 . S
C507 H572 0.960 . S
C508 C509 1.530 . S
C508 H574 0.961 . S
C508 H575 0.961 . S
C508 H576 0.959 . S
C509 C508 1.530 . S
C509 O537 1.412 . S
C509 H573 0.980 . S
C510 C511 1.288 . S
C510 C515 1.377 . S
C510 O537 1.393 . S
C511 C510 1.288 . S
C511 C512 1.369 . S
C511 H577 0.932 . S
C512 C511 1.369 . S
C512 C513 1.398 . S
C512 C516 1.527 . S
C513 C512 1.398 . S
C513 C514 1.380 . S
C513 C527 1.497 . S
C514 C513 1.380 . S
C514 C515 1.383 . S
C514 C517 1.603 . S
C515 C510 1.377 . S
C515 C514 1.383 . S
C515 H578 0.929 . S
C516 C512 1.527 . S
C516 H579 0.961 . S
C516 H580 0.959 . S
C516 H581 0.959 . S
C517 C514 1.603 . S
C517 H582 0.960 . S
C517 H583 0.962 . S
C517 H584 0.961 . S
C518 C485 1.587 . S
C518 C519 1.360 . S
C518 C531 1.412 . S
C519 C518 1.360 . S
C519 C520 1.365 . S
C519 H585 0.929 . S
C520 C495 1.553 . S
C520 C519 1.365 . S
C520 C521 1.404 . S
C521 C520 1.404 . S
C521 C522 1.395 . S
C521 C532 1.451 . S
C522 C521 1.395 . S
C522 C523 1.322 . S
C522 H586 0.930 . S
C523 C522 1.322 . S
C523 C524 1.459 . S
C523 H587 0.929 . S
C524 C523 1.459 . S
C524 C525 1.445 . S
C524 C533 1.395 . S
C525 C503 1.432 . S
C525 C524 1.445 . S
C525 C526 1.370 . S
C526 C525 1.370 . S
C526 C527 1.438 . S
C526 H588 0.930 . S
C527 C513 1.497 . S
C527 C526 1.438 . S
C527 C528 1.360 . S
C528 C527 1.360 . S
C528 C529 1.401 . S
C528 C533 1.446 . S
C529 C528 1.401 . S
C529 C530 1.347 . S
C529 H589 0.929 . S
C530 C529 1.347 . S
C530 C531 1.455 . S
C530 H590 0.930 . S
C531 C518 1.412 . S
C531 C530 1.455 . S
C531 C532 1.331 . S
C532 C521 1.451 . S
C532 C531 1.331 . S
C532 C533 1.497 . S
C533 C524 1.395 . S
C533 C528 1.446 . S
C533 C532 1.497 . S
C534 C535 1.582 . S
C534 H591 0.962 . S
C534 H592 0.959 . S
C534 H593 0.958 . S
C535 C534 1.582 . S
C535 O538 1.458 . S
C535 H564 0.980 . S
O536 C481 1.426 . S
O536 C482 1.334 . S
O537 C509 1.412 . S
O537 C510 1.393 . S
O538 C500 1.435 . S
O538 C535 1.458 . S
O539 C491 1.468 . S
O539 C492 1.408 . S
H540 C481 0.980 . S
H541 C480 0.959 . S
H542 C480 0.959 . S
H543 C480 0.960 . S
H544 C483 0.929 . S
H545 C487 0.929 . S
H546 C488 0.959 . S
H547 C488 0.961 . S
H548 C488 0.961 . S
H549 C489 0.960 . S
H550 C489 0.960 . S
H551 C489 0.961 . S
H552 C491 0.980 . S
H553 C490 0.961 . S
H554 C490 0.960 . S
H555 C490 0.959 . S
H556 C493 0.930 . S
H557 C497 0.931 . S
H558 C498 0.959 . S
H559 C498 0.961 . S
H560 C498 0.959 . S
H561 C499 0.960 . S
H562 C499 0.960 . S
H563 C499 0.960 . S
H564 C535 0.980 . S
H565 C501 0.930 . S
H566 C505 0.930 . S
H567 C506 0.961 . S
H568 C506 0.960 . S
H569 C506 0.958 . S
H570 C507 0.961 . S
H571 C507 0.960 . S
H572 C507 0.960 . S
H573 C509 0.980 . S
H574 C508 0.961 . S
H575 C508 0.961 . S
H576 C508 0.959 . S
H577 C511 0.932 . S
H578 C515 0.929 . S
H579 C516 0.961 . S
H580 C516 0.959 . S
H581 C516 0.959 . S
H582 C517 0.960 . S
H583 C517 0.962 . S
H584 C517 0.961 . S
H585 C519 0.929 . S
H586 C522 0.930 . S
H587 C523 0.929 . S
H588 C526 0.930 . S
H589 C529 0.929 . S
H590 C530 0.930 . S
H591 C534 0.962 . S
H592 C534 0.959 . S
H593 C534 0.958 . S
C594 C595 1.560 . S
C594 H655 0.959 . S
C594 H656 0.959 . S
C594 H657 0.960 . S
C595 C594 1.560 . S
C595 O650 1.426 . S
C595 H654 0.980 . S
C596 C597 1.407 . S
C596 C601 1.418 . S
C596 O650 1.334 . S
C597 C596 1.407 . S
C597 C598 1.360 . S
C597 H658 0.929 . S
C598 C597 1.360 . S
C598 C599 1.401 . S
C598 C602 1.527 . S
C599 C598 1.401 . S
C599 C600 1.405 . S
C599 C632 1.587 . S
C600 C599 1.405 . S
C600 C601 1.332 . S
C600 C603 1.496 . S
C601 C596 1.418 . S
C601 C600 1.332 . S
C601 H659 0.929 . S
C602 C598 1.527 . S
C602 H660 0.959 . S
C602 H661 0.961 . S
C602 H662 0.961 . S
C603 C600 1.496 . S
C603 H663 0.960 . S
C603 H664 0.960 . S
C603 H665 0.961 . S
C604 C605 1.517 . S
C604 H667 0.961 . S
C604 H668 0.960 . S
C604 H669 0.959 . S
C605 C604 1.517 . S
C605 O653 1.468 . S
C605 H666 0.980 . S
C606 C607 1.349 . S
C606 C611 1.367 . S
C606 O653 1.408 . S
C607 C606 1.349 . S
C607 C608 1.407 . S
C607 H670 0.930 . S
C608 C607 1.407 . S
C608 C609 1.449 . S
C608 C612 1.535 . S
C609 C608 1.449 . S
C609 C610 1.384 . S
C609 C634 1.553 . S
C610 C609 1.384 . S
C610 C611 1.364 . S
C610 C613 1.450 . S
C611 C606 1.367 . S
C611 C610 1.364 . S
C611 H671 0.931 . S
C612 C608 1.535 . S
C612 H672 0.959 . S
C612 H673 0.961 . S
C612 H674 0.959 . S
C613 C610 1.450 . S
C613 H675 0.960 . S
C613 H676 0.960 . S
C613 H677 0.960 . S
C614 C615 1.309 . S
C614 C619 1.304 . S
C614 O652 1.435 . S
C615 C614 1.309 . S
C615 C616 1.476 . S
C615 H679 0.930 . S
C616 C615 1.476 . S
C616 C617 1.400 . S
C616 C620 1.567 . S
C617 C616 1.400 . S
C617 C618 1.373 . S
C617 C639 1.432 . S
C618 C617 1.373 . S
C618 C619 1.339 . S
C618 C621 1.530 . S
C619 C614 1.304 . S
C619 C618 1.339 . S
C619 H680 0.930 . S
C620 C616 1.567 . S
C620 H681 0.961 . S
C620 H682 0.960 . S
C620 H683 0.958 . S
C621 C618 1.530 . S
C621 H684 0.961 . S
C621 H685 0.960 . S
C621 H686 0.960 . S
C622 C623 1.530 . S
C622 H688 0.961 . S
C622 H689 0.961 . S
C622 H690 0.959 . S
C623 C622 1.530 . S
C623 O651 1.412 . S
C623 H687 0.980 . S
C624 C625 1.288 . S
C624 C629 1.377 . S
C624 O651 1.393 . S
C625 C624 1.288 . S
C625 C626 1.369 . S
C625 H691 0.932 . S
C626 C625 1.369 . S
C626 C627 1.398 . S
C626 C630 1.527 . S
C627 C626 1.398 . S
C627 C628 1.380 . S
C627 C641 1.497 . S
C628 C627 1.380 . S
C628 C629 1.383 . S
C628 C631 1.603 . S
C629 C624 1.377 . S
C629 C628 1.383 . S
C629 H692 0.929 . S
C630 C626 1.527 . S
C630 H693 0.961 . S
C630 H694 0.959 . S
C630 H695 0.959 . S
C631 C628 1.603 . S
C631 H696 0.960 . S
C631 H697 0.962 . S
C631 H698 0.961 . S
C632 C599 1.587 . S
C632 C633 1.360 . S
C632 C645 1.412 . S
C633 C632 1.360 . S
C633 C634 1.365 . S
C633 H699 0.929 . S
C634 C609 1.553 . S
C634 C633 1.365 . S
C634 C635 1.404 . S
C635 C634 1.404 . S
C635 C636 1.395 . S
C635 C646 1.451 . S
C636 C635 1.395 . S
C636 C637 1.322 . S
C636 H700 0.930 . S
C637 C636 1.322 . S
C637 C638 1.459 . S
C637 H701 0.929 . S
C638 C637 1.459 . S
C638 C639 1.445 . S
C638 C647 1.395 . S
C639 C617 1.432 . S
C639 C638 1.445 . S
C639 C640 1.370 . S
C640 C639 1.370 . S
C640 C641 1.438 . S
C640 H702 0.930 . S
C641 C627 1.497 . S
C641 C640 1.438 . S
C641 C642 1.360 . S
C642 C641 1.360 . S
C642 C643 1.401 . S
C642 C647 1.446 . S
C643 C642 1.401 . S
C643 C644 1.347 . S
C643 H703 0.929 . S
C644 C643 1.347 . S
C644 C645 1.455 . S
C644 H704 0.930 . S
C645 C632 1.412 . S
C645 C644 1.455 . S
C645 C646 1.331 . S
C646 C635 1.451 . S
C646 C645 1.331 . S
C646 C647 1.497 . S
C647 C638 1.395 . S
C647 C642 1.446 . S
C647 C646 1.497 . S
C648 C649 1.582 . S
C648 H705 0.962 . S
C648 H706 0.959 . S
C648 H707 0.958 . S
C649 C648 1.582 . S
C649 O652 1.458 . S
C649 H678 0.980 . S
O650 C595 1.426 . S
O650 C596 1.334 . S
O651 C623 1.412 . S
O651 C624 1.393 . S
O652 C614 1.435 . S
O652 C649 1.458 . S
O653 C605 1.468 . S
O653 C606 1.408 . S
H654 C595 0.980 . S
H655 C594 0.959 . S
H656 C594 0.959 . S
H657 C594 0.960 . S
H658 C597 0.929 . S
H659 C601 0.929 . S
H660 C602 0.959 . S
H661 C602 0.961 . S
H662 C602 0.961 . S
H663 C603 0.960 . S
H664 C603 0.960 . S
H665 C603 0.961 . S
H666 C605 0.980 . S
H667 C604 0.961 . S
H668 C604 0.960 . S
H669 C604 0.959 . S
H670 C607 0.930 . S
H671 C611 0.931 . S
H672 C612 0.959 . S
H673 C612 0.961 . S
H674 C612 0.959 . S
H675 C613 0.960 . S
H676 C613 0.960 . S
H677 C613 0.960 . S
H678 C649 0.980 . S
H679 C615 0.930 . S
H680 C619 0.930 . S
H681 C620 0.961 . S
H682 C620 0.960 . S
H683 C620 0.958 . S
H684 C621 0.961 . S
H685 C621 0.960 . S
H686 C621 0.960 . S
H687 C623 0.980 . S
H688 C622 0.961 . S
H689 C622 0.961 . S
H690 C622 0.959 . S
H691 C625 0.932 . S
H692 C629 0.929 . S
H693 C630 0.961 . S
H694 C630 0.959 . S
H695 C630 0.959 . S
H696 C631 0.960 . S
H697 C631 0.962 . S
H698 C631 0.961 . S
H699 C633 0.929 . S
H700 C636 0.930 . S
H701 C637 0.929 . S
H702 C640 0.930 . S
H703 C643 0.929 . S
H704 C644 0.930 . S
H705 C648 0.962 . S
H706 C648 0.959 . S
H707 C648 0.958 . S
C708 C709 1.560 . S
C708 H769 0.959 . S
C708 H770 0.959 . S
C708 H771 0.960 . S
C709 C708 1.560 . S
C709 O764 1.426 . S
C709 H768 0.980 . S
C710 C711 1.407 . S
C710 C715 1.418 . S
C710 O764 1.334 . S
C711 C710 1.407 . S
C711 C712 1.360 . S
C711 H772 0.929 . S
C712 C711 1.360 . S
C712 C713 1.401 . S
C712 C716 1.527 . S
C713 C712 1.401 . S
C713 C714 1.405 . S
C713 C746 1.587 . S
C714 C713 1.405 . S
C714 C715 1.332 . S
C714 C717 1.496 . S
C715 C710 1.418 . S
C715 C714 1.332 . S
C715 H773 0.929 . S
C716 C712 1.527 . S
C716 H774 0.959 . S
C716 H775 0.961 . S
C716 H776 0.961 . S
C717 C714 1.496 . S
C717 H777 0.960 . S
C717 H778 0.960 . S
C717 H779 0.961 . S
C718 C719 1.517 . S
C718 H781 0.961 . S
C718 H782 0.960 . S
C718 H783 0.959 . S
C719 C718 1.517 . S
C719 O767 1.468 . S
C719 H780 0.980 . S
C720 C721 1.349 . S
C720 C725 1.367 . S
C720 O767 1.408 . S
C721 C720 1.349 . S
C721 C722 1.407 . S
C721 H784 0.930 . S
C722 C721 1.407 . S
C722 C723 1.449 . S
C722 C726 1.535 . S
C723 C722 1.449 . S
C723 C724 1.384 . S
C723 C748 1.553 . S
C724 C723 1.384 . S
C724 C725 1.364 . S
C724 C727 1.450 . S
C725 C720 1.367 . S
C725 C724 1.364 . S
C725 H785 0.931 . S
C726 C722 1.535 . S
C726 H786 0.959 . S
C726 H787 0.961 . S
C726 H788 0.959 . S
C727 C724 1.450 . S
C727 H789 0.960 . S
C727 H790 0.960 . S
C727 H791 0.960 . S
C728 C729 1.309 . S
C728 C733 1.304 . S
C728 O766 1.435 . S
C729 C728 1.309 . S
C729 C730 1.476 . S
C729 H793 0.930 . S
C730 C729 1.476 . S
C730 C731 1.400 . S
C730 C734 1.567 . S
C731 C730 1.400 . S
C731 C732 1.373 . S
C731 C753 1.432 . S
C732 C731 1.373 . S
C732 C733 1.339 . S
C732 C735 1.530 . S
C733 C728 1.304 . S
C733 C732 1.339 . S
C733 H794 0.930 . S
C734 C730 1.567 . S
C734 H795 0.961 . S
C734 H796 0.960 . S
C734 H797 0.958 . S
C735 C732 1.530 . S
C735 H798 0.961 . S
C735 H799 0.960 . S
C735 H800 0.960 . S
C736 C737 1.530 . S
C736 H802 0.961 . S
C736 H803 0.961 . S
C736 H804 0.959 . S
C737 C736 1.530 . S
C737 O765 1.412 . S
C737 H801 0.980 . S
C738 C739 1.288 . S
C738 C743 1.377 . S
C738 O765 1.393 . S
C739 C738 1.288 . S
C739 C740 1.369 . S
C739 H805 0.932 . S
C740 C739 1.369 . S
C740 C741 1.398 . S
C740 C744 1.527 . S
C741 C740 1.398 . S
C741 C742 1.380 . S
C741 C755 1.497 . S
C742 C741 1.380 . S
C742 C743 1.383 . S
C742 C745 1.603 . S
C743 C738 1.377 . S
C743 C742 1.383 . S
C743 H806 0.929 . S
C744 C740 1.527 . S
C744 H807 0.961 . S
C744 H808 0.959 . S
C744 H809 0.959 . S
C745 C742 1.603 . S
C745 H810 0.960 . S
C745 H811 0.962 . S
C745 H812 0.961 . S
C746 C713 1.587 . S
C746 C747 1.360 . S
C746 C759 1.412 . S
C747 C746 1.360 . S
C747 C748 1.365 . S
C747 H813 0.929 . S
C748 C723 1.553 . S
C748 C747 1.365 . S
C748 C749 1.404 . S
C749 C748 1.404 . S
C749 C750 1.395 . S
C749 C760 1.451 . S
C750 C749 1.395 . S
C750 C751 1.322 . S
C750 H814 0.930 . S
C751 C750 1.322 . S
C751 C752 1.459 . S
C751 H815 0.929 . S
C752 C751 1.459 . S
C752 C753 1.445 . S
C752 C761 1.395 . S
C753 C731 1.432 . S
C753 C752 1.445 . S
C753 C754 1.370 . S
C754 C753 1.370 . S
C754 C755 1.438 . S
C754 H816 0.930 . S
C755 C741 1.497 . S
C755 C754 1.438 . S
C755 C756 1.360 . S
C756 C755 1.360 . S
C756 C757 1.401 . S
C756 C761 1.446 . S
C757 C756 1.401 . S
C757 C758 1.347 . S
C757 H817 0.929 . S
C758 C757 1.347 . S
C758 C759 1.455 . S
C758 H818 0.930 . S
C759 C746 1.412 . S
C759 C758 1.455 . S
C759 C760 1.331 . S
C760 C749 1.451 . S
C760 C759 1.331 . S
C760 C761 1.497 . S
C761 C752 1.395 . S
C761 C756 1.446 . S
C761 C760 1.497 . S
C762 C763 1.582 . S
C762 H819 0.962 . S
C762 H820 0.959 . S
C762 H821 0.958 . S
C763 C762 1.582 . S
C763 O766 1.458 . S
C763 H792 0.980 . S
O764 C709 1.426 . S
O764 C710 1.334 . S
O765 C737 1.412 . S
O765 C738 1.393 . S
O766 C728 1.435 . S
O766 C763 1.458 . S
O767 C719 1.468 . S
O767 C720 1.408 . S
H768 C709 0.980 . S
H769 C708 0.959 . S
H770 C708 0.959 . S
H771 C708 0.960 . S
H772 C711 0.929 . S
H773 C715 0.929 . S
H774 C716 0.959 . S
H775 C716 0.961 . S
H776 C716 0.961 . S
H777 C717 0.960 . S
H778 C717 0.960 . S
H779 C717 0.961 . S
H780 C719 0.980 . S
H781 C718 0.961 . S
H782 C718 0.960 . S
H783 C718 0.959 . S
H784 C721 0.930 . S
H785 C725 0.931 . S
H786 C726 0.959 . S
H787 C726 0.961 . S
H788 C726 0.959 . S
H789 C727 0.960 . S
H790 C727 0.960 . S
H791 C727 0.960 . S
H792 C763 0.980 . S
H793 C729 0.930 . S
H794 C733 0.930 . S
H795 C734 0.961 . S
H796 C734 0.960 . S
H797 C734 0.958 . S
H798 C735 0.961 . S
H799 C735 0.960 . S
H800 C735 0.960 . S
H801 C737 0.980 . S
H802 C736 0.961 . S
H803 C736 0.961 . S
H804 C736 0.959 . S
H805 C739 0.932 . S
H806 C743 0.929 . S
H807 C744 0.961 . S
H808 C744 0.959 . S
H809 C744 0.959 . S
H810 C745 0.960 . S
H811 C745 0.962 . S
H812 C745 0.961 . S
H813 C747 0.929 . S
H814 C750 0.930 . S
H815 C751 0.929 . S
H816 C754 0.930 . S
H817 C757 0.929 . S
H818 C758 0.930 . S
H819 C762 0.962 . S
H820 C762 0.959 . S
H821 C762 0.958 . S
C822 C823 1.560 . S
C822 H883 0.959 . S
C822 H884 0.959 . S
C822 H885 0.960 . S
C823 C822 1.560 . S
C823 O878 1.426 . S
C823 H882 0.980 . S
C824 C825 1.407 . S
C824 C829 1.418 . S
C824 O878 1.334 . S
C825 C824 1.407 . S
C825 C826 1.360 . S
C825 H886 0.929 . S
C826 C825 1.360 . S
C826 C827 1.401 . S
C826 C830 1.527 . S
C827 C826 1.401 . S
C827 C828 1.405 . S
C827 C860 1.587 . S
C828 C827 1.405 . S
C828 C829 1.332 . S
C828 C831 1.496 . S
C829 C824 1.418 . S
C829 C828 1.332 . S
C829 H887 0.929 . S
C830 C826 1.527 . S
C830 H888 0.959 . S
C830 H889 0.961 . S
C830 H890 0.961 . S
C831 C828 1.496 . S
C831 H891 0.960 . S
C831 H892 0.960 . S
C831 H893 0.961 . S
C832 C833 1.517 . S
C832 H895 0.961 . S
C832 H896 0.960 . S
C832 H897 0.959 . S
C833 C832 1.517 . S
C833 O881 1.468 . S
C833 H894 0.980 . S
C834 C835 1.349 . S
C834 C839 1.367 . S
C834 O881 1.408 . S
C835 C834 1.349 . S
C835 C836 1.407 . S
C835 H898 0.930 . S
C836 C835 1.407 . S
C836 C837 1.449 . S
C836 C840 1.535 . S
C837 C836 1.449 . S
C837 C838 1.384 . S
C837 C862 1.553 . S
C838 C837 1.384 . S
C838 C839 1.364 . S
C838 C841 1.450 . S
C839 C834 1.367 . S
C839 C838 1.364 . S
C839 H899 0.931 . S
C840 C836 1.535 . S
C840 H900 0.959 . S
C840 H901 0.961 . S
C840 H902 0.959 . S
C841 C838 1.450 . S
C841 H903 0.960 . S
C841 H904 0.960 . S
C841 H905 0.960 . S
C842 C843 1.309 . S
C842 C847 1.304 . S
C842 O880 1.435 . S
C843 C842 1.309 . S
C843 C844 1.476 . S
C843 H907 0.930 . S
C844 C843 1.476 . S
C844 C845 1.400 . S
C844 C848 1.567 . S
C845 C844 1.400 . S
C845 C846 1.373 . S
C845 C867 1.432 . S
C846 C845 1.373 . S
C846 C847 1.339 . S
C846 C849 1.530 . S
C847 C842 1.304 . S
C847 C846 1.339 . S
C847 H908 0.930 . S
C848 C844 1.567 . S
C848 H909 0.961 . S
C848 H910 0.960 . S
C848 H911 0.958 . S
C849 C846 1.530 . S
C849 H912 0.961 . S
C849 H913 0.960 . S
C849 H914 0.960 . S
C850 C851 1.530 . S
C850 H916 0.961 . S
C850 H917 0.961 . S
C850 H918 0.959 . S
C851 C850 1.530 . S
C851 O879 1.412 . S
C851 H915 0.980 . S
C852 C853 1.288 . S
C852 C857 1.377 . S
C852 O879 1.393 . S
C853 C852 1.288 . S
C853 C854 1.369 . S
C853 H919 0.932 . S
C854 C853 1.369 . S
C854 C855 1.398 . S
C854 C858 1.527 . S
C855 C854 1.398 . S
C855 C856 1.380 . S
C855 C869 1.497 . S
C856 C855 1.380 . S
C856 C857 1.383 . S
C856 C859 1.603 . S
C857 C852 1.377 . S
C857 C856 1.383 . S
C857 H920 0.929 . S
C858 C854 1.527 . S
C858 H921 0.961 . S
C858 H922 0.959 . S
C858 H923 0.959 . S
C859 C856 1.603 . S
C859 H924 0.960 . S
C859 H925 0.962 . S
C859 H926 0.961 . S
C860 C827 1.587 . S
C860 C861 1.360 . S
C860 C873 1.412 . S
C861 C860 1.360 . S
C861 C862 1.365 . S
C861 H927 0.929 . S
C862 C837 1.553 . S
C862 C861 1.365 . S
C862 C863 1.404 . S
C863 C862 1.404 . S
C863 C864 1.395 . S
C863 C874 1.451 . S
C864 C863 1.395 . S
C864 C865 1.322 . S
C864 H928 0.930 . S
C865 C864 1.322 . S
C865 C866 1.459 . S
C865 H929 0.929 . S
C866 C865 1.459 . S
C866 C867 1.445 . S
C866 C875 1.395 . S
C867 C845 1.432 . S
C867 C866 1.445 . S
C867 C868 1.370 . S
C868 C867 1.370 . S
C868 C869 1.438 . S
C868 H930 0.930 . S
C869 C855 1.497 . S
C869 C868 1.438 . S
C869 C870 1.360 . S
C870 C869 1.360 . S
C870 C871 1.401 . S
C870 C875 1.446 . S
C871 C870 1.401 . S
C871 C872 1.347 . S
C871 H931 0.929 . S
C872 C871 1.347 . S
C872 C873 1.455 . S
C872 H932 0.930 . S
C873 C860 1.412 . S
C873 C872 1.455 . S
C873 C874 1.331 . S
C874 C863 1.451 . S
C874 C873 1.331 . S
C874 C875 1.497 . S
C875 C866 1.395 . S
C875 C870 1.446 . S
C875 C874 1.497 . S
C876 C877 1.582 . S
C876 H933 0.962 . S
C876 H934 0.959 . S
C876 H935 0.958 . S
C877 C876 1.582 . S
C877 O880 1.458 . S
C877 H906 0.980 . S
O878 C823 1.426 . S
O878 C824 1.334 . S
O879 C851 1.412 . S
O879 C852 1.393 . S
O880 C842 1.435 . S
O880 C877 1.458 . S
O881 C833 1.468 . S
O881 C834 1.408 . S
H882 C823 0.980 . S
H883 C822 0.959 . S
H884 C822 0.959 . S
H885 C822 0.960 . S
H886 C825 0.929 . S
H887 C829 0.929 . S
H888 C830 0.959 . S
H889 C830 0.961 . S
H890 C830 0.961 . S
H891 C831 0.960 . S
H892 C831 0.960 . S
H893 C831 0.961 . S
H894 C833 0.980 . S
H895 C832 0.961 . S
H896 C832 0.960 . S
H897 C832 0.959 . S
H898 C835 0.930 . S
H899 C839 0.931 . S
H900 C840 0.959 . S
H901 C840 0.961 . S
H902 C840 0.959 . S
H903 C841 0.960 . S
H904 C841 0.960 . S
H905 C841 0.960 . S
H906 C877 0.980 . S
H907 C843 0.930 . S
H908 C847 0.930 . S
H909 C848 0.961 . S
H910 C848 0.960 . S
H911 C848 0.958 . S
H912 C849 0.961 . S
H913 C849 0.960 . S
H914 C849 0.960 . S
H915 C851 0.980 . S
H916 C850 0.961 . S
H917 C850 0.961 . S
H918 C850 0.959 . S
H919 C853 0.932 . S
H920 C857 0.929 . S
H921 C858 0.961 . S
H922 C858 0.959 . S
H923 C858 0.959 . S
H924 C859 0.960 . S
H925 C859 0.962 . S
H926 C859 0.961 . S
H927 C861 0.929 . S
H928 C864 0.930 . S
H929 C865 0.929 . S
H930 C868 0.930 . S
H931 C871 0.929 . S
H932 C872 0.930 . S
H933 C876 0.962 . S
H934 C876 0.959 . S
H935 C876 0.958 . S
C936 C937 1.560 . S
C936 H997 0.959 . S
C936 H998 0.959 . S
C936 H999 0.960 . S
C937 C936 1.560 . S
C937 O992 1.426 . S
C937 H996 0.980 . S
C938 C939 1.407 . S
C938 C943 1.418 . S
C938 O992 1.334 . S
C939 C938 1.407 . S
C939 C940 1.360 . S
C939 H1000 0.929 . S
C940 C939 1.360 . S
C940 C941 1.401 . S
C940 C944 1.527 . S
C941 C940 1.401 . S
C941 C942 1.405 . S
C941 C974 1.587 . S
C942 C941 1.405 . S
C942 C943 1.332 . S
C942 C945 1.496 . S
C943 C938 1.418 . S
C943 C942 1.332 . S
C943 H1001 0.929 . S
C944 C940 1.527 . S
C944 H1002 0.959 . S
C944 H1003 0.961 . S
C944 H1004 0.961 . S
C945 C942 1.496 . S
C945 H1005 0.960 . S
C945 H1006 0.960 . S
C945 H1007 0.961 . S
C946 C947 1.517 . S
C946 H1009 0.961 . S
C946 H1010 0.960 . S
C946 H1011 0.959 . S
C947 C946 1.517 . S
C947 O995 1.468 . S
C947 H1008 0.980 . S
C948 C949 1.349 . S
C948 C953 1.367 . S
C948 O995 1.408 . S
C949 C948 1.349 . S
C949 C950 1.407 . S
C949 H1012 0.930 . S
C950 C949 1.407 . S
C950 C951 1.449 . S
C950 C954 1.535 . S
C951 C950 1.449 . S
C951 C952 1.384 . S
C951 C976 1.553 . S
C952 C951 1.384 . S
C952 C953 1.364 . S
C952 C955 1.450 . S
C953 C948 1.367 . S
C953 C952 1.364 . S
C953 H1013 0.931 . S
C954 C950 1.535 . S
C954 H1014 0.959 . S
C954 H1015 0.961 . S
C954 H1016 0.959 . S
C955 C952 1.450 . S
C955 H1017 0.960 . S
C955 H1018 0.960 . S
C955 H1019 0.960 . S
C956 C957 1.309 . S
C956 C961 1.304 . S
C956 O994 1.435 . S
C957 C956 1.309 . S
C957 C958 1.476 . S
C957 H1021 0.930 . S
C958 C957 1.476 . S
C958 C959 1.400 . S
C958 C962 1.567 . S
C959 C958 1.400 . S
C959 C960 1.373 . S
C959 C981 1.432 . S
C960 C959 1.373 . S
C960 C961 1.339 . S
C960 C963 1.530 . S
C961 C956 1.304 . S
C961 C960 1.339 . S
C961 H1022 0.930 . S
C962 C958 1.567 . S
C962 H1023 0.961 . S
C962 H1024 0.960 . S
C962 H1025 0.958 . S
C963 C960 1.530 . S
C963 H1026 0.961 . S
C963 H1027 0.960 . S
C963 H1028 0.960 . S
C964 C965 1.530 . S
C964 H1030 0.961 . S
C964 H1031 0.961 . S
C964 H1032 0.959 . S
C965 C964 1.530 . S
C965 O993 1.412 . S
C965 H1029 0.980 . S
C966 C967 1.288 . S
C966 C971 1.377 . S
C966 O993 1.393 . S
C967 C966 1.288 . S
C967 C968 1.369 . S
C967 H1033 0.932 . S
C968 C967 1.369 . S
C968 C969 1.398 . S
C968 C972 1.527 . S
C969 C968 1.398 . S
C969 C970 1.380 . S
C969 C983 1.497 . S
C970 C969 1.380 . S
C970 C971 1.383 . S
C970 C973 1.603 . S
C971 C966 1.377 . S
C971 C970 1.383 . S
C971 H1034 0.929 . S
C972 C968 1.527 . S
C972 H1035 0.961 . S
C972 H1036 0.959 . S
C972 H1037 0.959 . S
C973 C970 1.603 . S
C973 H1038 0.960 . S
C973 H1039 0.962 . S
C973 H1040 0.961 . S
C974 C941 1.587 . S
C974 C975 1.360 . S
C974 C987 1.412 . S
C975 C974 1.360 . S
C975 C976 1.365 . S
C975 H1041 0.929 . S
C976 C951 1.553 . S
C976 C975 1.365 . S
C976 C977 1.404 . S
C977 C976 1.404 . S
C977 C978 1.395 . S
C977 C988 1.451 . S
C978 C977 1.395 . S
C978 C979 1.322 . S
C978 H1042 0.930 . S
C979 C978 1.322 . S
C979 C980 1.459 . S
C979 H1043 0.929 . S
C980 C979 1.459 . S
C980 C981 1.445 . S
C980 C989 1.395 . S
C981 C959 1.432 . S
C981 C980 1.445 . S
C981 C982 1.370 . S
C982 C981 1.370 . S
C982 C983 1.438 . S
C982 H1044 0.930 . S
C983 C969 1.497 . S
C983 C982 1.438 . S
C983 C984 1.360 . S
C984 C983 1.360 . S
C984 C985 1.401 . S
C984 C989 1.446 . S
C985 C984 1.401 . S
C985 C986 1.347 . S
C985 H1045 0.929 . S
C986 C985 1.347 . S
C986 C987 1.455 . S
C986 H1046 0.930 . S
C987 C974 1.412 . S
C987 C986 1.455 . S
C987 C988 1.331 . S
C988 C977 1.451 . S
C988 C987 1.331 . S
C988 C989 1.497 . S
C989 C980 1.395 . S
C989 C984 1.446 . S
C989 C988 1.497 . S
C990 C991 1.582 . S
C990 H1047 0.962 . S
C990 H1048 0.959 . S
C990 H1049 0.958 . S
C991 C990 1.582 . S
C991 O994 1.458 . S
C991 H1020 0.980 . S
O992 C937 1.426 . S
O992 C938 1.334 . S
O993 C965 1.412 . S
O993 C966 1.393 . S
O994 C956 1.435 . S
O994 C991 1.458 . S
O995 C947 1.468 . S
O995 C948 1.408 . S
H996 C937 0.980 . S
H997 C936 0.959 . S
H998 C936 0.959 . S
H999 C936 0.960 . S
H1000 C939 0.929 . S
H1001 C943 0.929 . S
H1002 C944 0.959 . S
H1003 C944 0.961 . S
H1004 C944 0.961 . S
H1005 C945 0.960 . S
H1006 C945 0.960 . S
H1007 C945 0.961 . S
H1008 C947 0.980 . S
H1009 C946 0.961 . S
H1010 C946 0.960 . S
H1011 C946 0.959 . S
H1012 C949 0.930 . S
H1013 C953 0.931 . S
H1014 C954 0.959 . S
H1015 C954 0.961 . S
H1016 C954 0.959 . S
H1017 C955 0.960 . S
H1018 C955 0.960 . S
H1019 C955 0.960 . S
H1020 C991 0.980 . S
H1021 C957 0.930 . S
H1022 C961 0.930 . S
H1023 C962 0.961 . S
H1024 C962 0.960 . S
H1025 C962 0.958 . S
H1026 C963 0.961 . S
H1027 C963 0.960 . S
H1028 C963 0.960 . S
H1029 C965 0.980 . S
H1030 C964 0.961 . S
H1031 C964 0.961 . S
H1032 C964 0.959 . S
H1033 C967 0.932 . S
H1034 C971 0.929 . S
H1035 C972 0.961 . S
H1036 C972 0.959 . S
H1037 C972 0.959 . S
H1038 C973 0.960 . S
H1039 C973 0.962 . S
H1040 C973 0.961 . S
H1041 C975 0.929 . S
H1042 C978 0.930 . S
H1043 C979 0.929 . S
H1044 C982 0.930 . S
H1045 C985 0.929 . S
H1046 C986 0.930 . S
H1047 C990 0.962 . S
H1048 C990 0.959 . S
H1049 C990 0.958 . S
C1050 C1051 1.560 . S
C1050 H1111 0.959 . S
C1050 H1112 0.959 . S
C1050 H1113 0.960 . S
C1051 C1050 1.560 . S
C1051 O1106 1.426 . S
C1051 H1110 0.980 . S
C1052 C1053 1.407 . S
C1052 C1057 1.418 . S
C1052 O1106 1.334 . S
C1053 C1052 1.407 . S
C1053 C1054 1.360 . S
C1053 H1114 0.929 . S
C1054 C1053 1.360 . S
C1054 C1055 1.401 . S
C1054 C1058 1.527 . S
C1055 C1054 1.401 . S
C1055 C1056 1.405 . S
C1055 C1088 1.587 . S
C1056 C1055 1.405 . S
C1056 C1057 1.332 . S
C1056 C1059 1.496 . S
C1057 C1052 1.418 . S
C1057 C1056 1.332 . S
C1057 H1115 0.929 . S
C1058 C1054 1.527 . S
C1058 H1116 0.959 . S
C1058 H1117 0.961 . S
C1058 H1118 0.961 . S
C1059 C1056 1.496 . S
C1059 H1119 0.960 . S
C1059 H1120 0.960 . S
C1059 H1121 0.961 . S
C1060 C1061 1.517 . S
C1060 H1123 0.961 . S
C1060 H1124 0.960 . S
C1060 H1125 0.959 . S
C1061 C1060 1.517 . S
C1061 O1109 1.468 . S
C1061 H1122 0.980 . S
C1062 C1063 1.349 . S
C1062 C1067 1.367 . S
C1062 O1109 1.408 . S
C1063 C1062 1.349 . S
C1063 C1064 1.407 . S
C1063 H1126 0.930 . S
C1064 C1063 1.407 . S
C1064 C1065 1.449 . S
C1064 C1068 1.535 . S
C1065 C1064 1.449 . S
C1065 C1066 1.384 . S
C1065 C1090 1.553 . S
C1066 C1065 1.384 . S
C1066 C1067 1.364 . S
C1066 C1069 1.450 . S
C1067 C1062 1.367 . S
C1067 C1066 1.364 . S
C1067 H1127 0.931 . S
C1068 C1064 1.535 . S
C1068 H1128 0.959 . S
C1068 H1129 0.961 . S
C1068 H1130 0.959 . S
C1069 C1066 1.450 . S
C1069 H1131 0.960 . S
C1069 H1132 0.960 . S
C1069 H1133 0.960 . S
C1070 C1071 1.309 . S
C1070 C1075 1.304 . S
C1070 O1108 1.435 . S
C1071 C1070 1.309 . S
C1071 C1072 1.476 . S
C1071 H1135 0.930 . S
C1072 C1071 1.476 . S
C1072 C1073 1.400 . S
C1072 C1076 1.567 . S
C1073 C1072 1.400 . S
C1073 C1074 1.373 . S
C1073 C1095 1.432 . S
C1074 C1073 1.373 . S
C1074 C1075 1.339 . S
C1074 C1077 1.530 . S
C1075 C1070 1.304 . S
C1075 C1074 1.339 . S
C1075 H1136 0.930 . S
C1076 C1072 1.567 . S
C1076 H1137 0.961 . S
C1076 H1138 0.960 . S
C1076 H1139 0.958 . S
C1077 C1074 1.530 . S
C1077 H1140 0.961 . S
C1077 H1141 0.960 . S
C1077 H1142 0.960 . S
C1078 C1079 1.530 . S
C1078 H1144 0.961 . S
C1078 H1145 0.961 . S
C1078 H1146 0.959 . S
C1079 C1078 1.530 . S
C1079 O1107 1.412 . S
C1079 H1143 0.980 . S
C1080 C1081 1.288 . S
C1080 C1085 1.377 . S
C1080 O1107 1.393 . S
C1081 C1080 1.288 . S
C1081 C1082 1.369 . S
C1081 H1147 0.932 . S
C1082 C1081 1.369 . S
C1082 C1083 1.398 . S
C1082 C1086 1.527 . S
C1083 C1082 1.398 . S
C1083 C1084 1.380 . S
C1083 C1097 1.497 . S
C1084 C1083 1.380 . S
C1084 C1085 1.383 . S
C1084 C1087 1.603 . S
C1085 C1080 1.377 . S
C1085 C1084 1.383 . S
C1085 H1148 0.929 . S
C1086 C1082 1.527 . S
C1086 H1149 0.961 . S
C1086 H1150 0.959 . S
C1086 H1151 0.959 . S
C1087 C1084 1.603 . S
C1087 H1152 0.960 . S
C1087 H1153 0.962 . S
C1087 H1154 0.961 . S
C1088 C1055 1.587 . S
C1088 C1089 1.360 . S
C1088 C1101 1.412 . S
C1089 C1088 1.360 . S
C1089 C1090 1.365 . S
C1089 H1155 0.929 . S
C1090 C1065 1.553 . S
C1090 C1089 1.365 . S
C1090 C1091 1.404 . S
C1091 C1090 1.404 . S
C1091 C1092 1.395 . S
C1091 C1102 1.451 . S
C1092 C1091 1.395 . S
C1092 C1093 1.322 . S
C1092 H1156 0.930 . S
C1093 C1092 1.322 . S
C1093 C1094 1.459 . S
C1093 H1157 0.929 . S
C1094 C1093 1.459 . S
C1094 C1095 1.445 . S
C1094 C1103 1.395 . S
C1095 C1073 1.432 . S
C1095 C1094 1.445 . S
C1095 C1096 1.370 . S
C1096 C1095 1.370 . S
C1096 C1097 1.438 . S
C1096 H1158 0.930 . S
C1097 C1083 1.497 . S
C1097 C1096 1.438 . S
C1097 C1098 1.360 . S
C1098 C1097 1.360 . S
C1098 C1099 1.401 . S
C1098 C1103 1.446 . S
C1099 C1098 1.401 . S
C1099 C1100 1.347 . S
C1099 H1159 0.929 . S
C1100 C1099 1.347 . S
C1100 C1101 1.455 . S
C1100 H1160 0.930 . S
C1101 C1088 1.412 . S
C1101 C1100 1.455 . S
C1101 C1102 1.331 . S
C1102 C1091 1.451 . S
C1102 C1101 1.331 . S
C1102 C1103 1.497 . S
C1103 C1094 1.395 . S
C1103 C1098 1.446 . S
C1103 C1102 1.497 . S
C1104 C1105 1.582 . S
C1104 H1161 0.962 . S
C1104 H1162 0.959 . S
C1104 H1163 0.958 . S
C1105 C1104 1.582 . S
C1105 O1108 1.458 . S
C1105 H1134 0.980 . S
O1106 C1051 1.426 . S
O1106 C1052 1.334 . S
O1107 C1079 1.412 . S
O1107 C1080 1.393 . S
O1108 C1070 1.435 . S
O1108 C1105 1.458 . S
O1109 C1061 1.468 . S
O1109 C1062 1.408 . S
H1110 C1051 0.980 . S
H1111 C1050 0.959 . S
H1112 C1050 0.959 . S
H1113 C1050 0.960 . S
H1114 C1053 0.929 . S
H1115 C1057 0.929 . S
H1116 C1058 0.959 . S
H1117 C1058 0.961 . S
H1118 C1058 0.961 . S
H1119 C1059 0.960 . S
H1120 C1059 0.960 . S
H1121 C1059 0.961 . S
H1122 C1061 0.980 . S
H1123 C1060 0.961 . S
H1124 C1060 0.960 . S
H1125 C1060 0.959 . S
H1126 C1063 0.930 . S
H1127 C1067 0.931 . S
H1128 C1068 0.959 . S
H1129 C1068 0.961 . S
H1130 C1068 0.959 . S
H1131 C1069 0.960 . S
H1132 C1069 0.960 . S
H1133 C1069 0.960 . S
H1134 C1105 0.980 . S
H1135 C1071 0.930 . S
H1136 C1075 0.930 . S
H1137 C1076 0.961 . S
H1138 C1076 0.960 . S
H1139 C1076 0.958 . S
H1140 C1077 0.961 . S
H1141 C1077 0.960 . S
H1142 C1077 0.960 . S
H1143 C1079 0.980 . S
H1144 C1078 0.961 . S
H1145 C1078 0.961 . S
H1146 C1078 0.959 . S
H1147 C1081 0.932 . S
H1148 C1085 0.929 . S
H1149 C1086 0.961 . S
H1150 C1086 0.959 . S
H1151 C1086 0.959 . S
H1152 C1087 0.960 . S
H1153 C1087 0.962 . S
H1154 C1087 0.961 . S
H1155 C1089 0.929 . S
H1156 C1092 0.930 . S
H1157 C1093 0.929 . S
H1158 C1096 0.930 . S
H1159 C1099 0.929 . S
H1160 C1100 0.930 . S
H1161 C1104 0.962 . S
H1162 C1104 0.959 . S
H1163 C1104 0.958 . S
C1164 C1165 1.560 . S
C1164 H1225 0.959 . S
C1164 H1226 0.959 . S
C1164 H1227 0.960 . S
C1165 C1164 1.560 . S
C1165 O1220 1.426 . S
C1165 H1224 0.980 . S
C1166 C1167 1.407 . S
C1166 C1171 1.418 . S
C1166 O1220 1.334 . S
C1167 C1166 1.407 . S
C1167 C1168 1.360 . S
C1167 H1228 0.929 . S
C1168 C1167 1.360 . S
C1168 C1169 1.401 . S
C1168 C1172 1.527 . S
C1169 C1168 1.401 . S
C1169 C1170 1.405 . S
C1169 C1202 1.587 . S
C1170 C1169 1.405 . S
C1170 C1171 1.332 . S
C1170 C1173 1.496 . S
C1171 C1166 1.418 . S
C1171 C1170 1.332 . S
C1171 H1229 0.929 . S
C1172 C1168 1.527 . S
C1172 H1230 0.959 . S
C1172 H1231 0.961 . S
C1172 H1232 0.961 . S
C1173 C1170 1.496 . S
C1173 H1233 0.960 . S
C1173 H1234 0.960 . S
C1173 H1235 0.961 . S
C1174 C1175 1.517 . S
C1174 H1237 0.961 . S
C1174 H1238 0.960 . S
C1174 H1239 0.959 . S
C1175 C1174 1.517 . S
C1175 O1223 1.468 . S
C1175 H1236 0.980 . S
C1176 C1177 1.349 . S
C1176 C1181 1.367 . S
C1176 O1223 1.408 . S
C1177 C1176 1.349 . S
C1177 C1178 1.407 . S
C1177 H1240 0.930 . S
C1178 C1177 1.407 . S
C1178 C1179 1.449 . S
C1178 C1182 1.535 . S
C1179 C1178 1.449 . S
C1179 C1180 1.384 . S
C1179 C1204 1.553 . S
C1180 C1179 1.384 . S
C1180 C1181 1.364 . S
C1180 C1183 1.450 . S
C1181 C1176 1.367 . S
C1181 C1180 1.364 . S
C1181 H1241 0.931 . S
C1182 C1178 1.535 . S
C1182 H1242 0.959 . S
C1182 H1243 0.961 . S
C1182 H1244 0.959 . S
C1183 C1180 1.450 . S
C1183 H1245 0.960 . S
C1183 H1246 0.960 . S
C1183 H1247 0.960 . S
C1184 C1185 1.309 . S
C1184 C1189 1.304 . S
C1184 O1222 1.435 . S
C1185 C1184 1.309 . S
C1185 C1186 1.476 . S
C1185 H1249 0.930 . S
C1186 C1185 1.476 . S
C1186 C1187 1.400 . S
C1186 C1190 1.567 . S
C1187 C1186 1.400 . S
C1187 C1188 1.373 . S
C1187 C1209 1.432 . S
C1188 C1187 1.373 . S
C1188 C1189 1.339 . S
C1188 C1191 1.530 . S
C1189 C1184 1.304 . S
C1189 C1188 1.339 . S
C1189 H1250 0.930 . S
C1190 C1186 1.567 . S
C1190 H1251 0.961 . S
C1190 H1252 0.960 . S
C1190 H1253 0.958 . S
C1191 C1188 1.530 . S
C1191 H1254 0.961 . S
C1191 H1255 0.960 . S
C1191 H1256 0.960 . S
C1192 C1193 1.530 . S
C1192 H1258 0.961 . S
C1192 H1259 0.961 . S
C1192 H1260 0.959 . S
C1193 C1192 1.530 . S
C1193 O1221 1.412 . S
C1193 H1257 0.980 . S
C1194 C1195 1.288 . S
C1194 C1199 1.377 . S
C1194 O1221 1.393 . S
C1195 C1194 1.288 . S
C1195 C1196 1.369 . S
C1195 H1261 0.932 . S
C1196 C1195 1.369 . S
C1196 C1197 1.398 . S
C1196 C1200 1.527 . S
C1197 C1196 1.398 . S
C1197 C1198 1.380 . S
C1197 C1211 1.497 . S
C1198 C1197 1.380 . S
C1198 C1199 1.383 . S
C1198 C1201 1.603 . S
C1199 C1194 1.377 . S
C1199 C1198 1.383 . S
C1199 H1262 0.929 . S
C1200 C1196 1.527 . S
C1200 H1263 0.961 . S
C1200 H1264 0.959 . S
C1200 H1265 0.959 . S
C1201 C1198 1.603 . S
C1201 H1266 0.960 . S
C1201 H1267 0.962 . S
C1201 H1268 0.961 . S
C1202 C1169 1.587 . S
C1202 C1203 1.360 . S
C1202 C1215 1.412 . S
C1203 C1202 1.360 . S
C1203 C1204 1.365 . S
C1203 H1269 0.929 . S
C1204 C1179 1.553 . S
C1204 C1203 1.365 . S
C1204 C1205 1.404 . S
C1205 C1204 1.404 . S
C1205 C1206 1.395 . S
C1205 C1216 1.451 . S
C1206 C1205 1.395 . S
C1206 C1207 1.322 . S
C1206 H1270 0.930 . S
C1207 C1206 1.322 . S
C1207 C1208 1.459 . S
C1207 H1271 0.929 . S
C1208 C1207 1.459 . S
C1208 C1209 1.445 . S
C1208 C1217 1.395 . S
C1209 C1187 1.432 . S
C1209 C1208 1.445 . S
C1209 C1210 1.370 . S
C1210 C1209 1.370 . S
C1210 C1211 1.438 . S
C1210 H1272 0.930 . S
C1211 C1197 1.497 . S
C1211 C1210 1.438 . S
C1211 C1212 1.360 . S
C1212 C1211 1.360 . S
C1212 C1213 1.401 . S
C1212 C1217 1.446 . S
C1213 C1212 1.401 . S
C1213 C1214 1.347 . S
C1213 H1273 0.929 . S
C1214 C1213 1.347 . S
C1214 C1215 1.455 . S
C1214 H1274 0.930 . S
C1215 C1202 1.412 . S
C1215 C1214 1.455 . S
C1215 C1216 1.331 . S
C1216 C1205 1.451 . S
C1216 C1215 1.331 . S
C1216 C1217 1.497 . S
C1217 C1208 1.395 . S
C1217 C1212 1.446 . S
C1217 C1216 1.497 . S
C1218 C1219 1.582 . S
C1218 H1275 0.962 . S
C1218 H1276 0.959 . S
C1218 H1277 0.958 . S
C1219 C1218 1.582 . S
C1219 O1222 1.458 . S
C1219 H1248 0.980 . S
O1220 C1165 1.426 . S
O1220 C1166 1.334 . S
O1221 C1193 1.412 . S
O1221 C1194 1.393 . S
O1222 C1184 1.435 . S
O1222 C1219 1.458 . S
O1223 C1175 1.468 . S
O1223 C1176 1.408 . S
H1224 C1165 0.980 . S
H1225 C1164 0.959 . S
H1226 C1164 0.959 . S
H1227 C1164 0.960 . S
H1228 C1167 0.929 . S
H1229 C1171 0.929 . S
H1230 C1172 0.959 . S
H1231 C1172 0.961 . S
H1232 C1172 0.961 . S
H1233 C1173 0.960 . S
H1234 C1173 0.960 . S
H1235 C1173 0.961 . S
H1236 C1175 0.980 . S
H1237 C1174 0.961 . S
H1238 C1174 0.960 . S
H1239 C1174 0.959 . S
H1240 C1177 0.930 . S
H1241 C1181 0.931 . S
H1242 C1182 0.959 . S
H1243 C1182 0.961 . S
H1244 C1182 0.959 . S
H1245 C1183 0.960 . S
H1246 C1183 0.960 . S
H1247 C1183 0.960 . S
H1248 C1219 0.980 . S
H1249 C1185 0.930 . S
H1250 C1189 0.930 . S
H1251 C1190 0.961 . S
H1252 C1190 0.960 . S
H1253 C1190 0.958 . S
H1254 C1191 0.961 . S
H1255 C1191 0.960 . S
H1256 C1191 0.960 . S
H1257 C1193 0.980 . S
H1258 C1192 0.961 . S
H1259 C1192 0.961 . S
H1260 C1192 0.959 . S
H1261 C1195 0.932 . S
H1262 C1199 0.929 . S
H1263 C1200 0.961 . S
H1264 C1200 0.959 . S
H1265 C1200 0.959 . S
H1266 C1201 0.960 . S
H1267 C1201 0.962 . S
H1268 C1201 0.961 . S
H1269 C1203 0.929 . S
H1270 C1206 0.930 . S
H1271 C1207 0.929 . S
H1272 C1210 0.930 . S
H1273 C1213 0.929 . S
H1274 C1214 0.930 . S
H1275 C1218 0.962 . S
H1276 C1218 0.959 . S
H1277 C1218 0.958 . S
C1278 C1279 1.560 . S
C1278 H1339 0.959 . S
C1278 H1340 0.959 . S
C1278 H1341 0.960 . S
C1279 C1278 1.560 . S
C1279 O1334 1.426 . S
C1279 H1338 0.980 . S
C1280 C1281 1.407 1_455 S
C1280 C1285 1.418 . S
C1280 O1334 1.334 . S
C1281 C1280 1.407 1_655 S
C1281 C1282 1.360 . S
C1281 H1342 0.929 . S
C1282 C1281 1.360 . S
C1282 C1283 1.401 1_655 S
C1282 C1286 1.527 . S
C1283 C1282 1.401 1_455 S
C1283 C1284 1.405 . S
C1283 C1316 1.587 1_455 S
C1284 C1283 1.405 . S
C1284 C1285 1.332 . S
C1284 C1287 1.496 . S
C1285 C1280 1.418 . S
C1285 C1284 1.332 . S
C1285 H1343 0.929 . S
C1286 C1282 1.527 . S
C1286 H1344 0.959 . S
C1286 H1345 0.961 . S
C1286 H1346 0.961 . S
C1287 C1284 1.496 . S
C1287 H1347 0.960 . S
C1287 H1348 0.960 . S
C1287 H1349 0.961 . S
C1288 C1289 1.517 . S
C1288 H1351 0.961 . S
C1288 H1352 0.960 . S
C1288 H1353 0.959 . S
C1289 C1288 1.517 . S
C1289 O1337 1.468 . S
C1289 H1350 0.942 1_655 S
C1290 C1291 1.349 . S
C1290 C1295 1.367 . S
C1290 O1337 1.408 . S
C1291 C1290 1.349 . S
C1291 C1292 1.405 1_655 S
C1291 H1354 0.930 1_655 S
C1292 C1291 1.405 1_455 S
C1292 C1293 1.447 1_455 S
C1292 C1296 1.540 . S
C1293 C1292 1.447 1_655 S
C1293 C1294 1.384 . S
C1293 C1318 1.553 . S
C1294 C1293 1.384 . S
C1294 C1295 1.364 . S
C1294 C1297 1.450 . S
C1295 C1290 1.367 . S
C1295 C1294 1.364 . S
C1295 H1355 0.931 . S
C1296 C1292 1.540 . S
C1296 H1356 0.959 . S
C1296 H1357 0.961 . S
C1296 H1358 0.959 . S
C1297 C1294 1.450 . S
C1297 H1359 0.960 . S
C1297 H1360 0.960 . S
C1297 H1361 0.960 . S
C1298 C1299 1.309 . S
C1298 C1303 1.304 . S
C1298 O1336 1.435 . S
C1299 C1298 1.309 . S
C1299 C1300 1.450 1_655 S
C1299 H1363 0.930 1_655 S
C1300 C1299 1.450 1_455 S
C1300 C1301 1.384 1_455 S
C1300 C1304 1.608 . S
C1301 C1300 1.384 1_655 S
C1301 C1302 1.373 . S
C1301 C1323 1.432 . S
C1302 C1301 1.373 . S
C1302 C1303 1.339 . S
C1302 C1305 1.530 . S
C1303 C1298 1.304 . S
C1303 C1302 1.339 . S
C1303 H1364 0.930 . S
C1304 C1300 1.608 . S
C1304 H1365 0.961 . S
C1304 H1366 0.960 . S
C1304 H1367 0.958 . S
C1305 C1302 1.530 . S
C1305 H1368 0.961 . S
C1305 H1369 0.960 . S
C1305 H1370 0.960 . S
C1306 C1307 1.599 . S
C1306 H1372 0.961 . S
C1306 H1373 0.961 . S
C1306 H1374 0.959 . S
C1307 C1306 1.599 . S
C1307 O1335 1.427 . S
C1307 H1371 0.962 1_455 S
C1308 C1309 1.288 . S
C1308 C1313 1.377 1_455 S
C1308 O1335 1.393 . S
C1309 C1308 1.288 . S
C1309 C1310 1.369 . S
C1309 H1375 0.932 . S
C1310 C1309 1.369 . S
C1310 C1311 1.328 1_455 S
C1310 C1314 1.527 . S
C1311 C1310 1.328 1_655 S
C1311 C1312 1.402 . S
C1311 C1325 1.545 . S
C1312 C1311 1.402 . S
C1312 C1313 1.383 . S
C1312 C1315 1.603 . S
C1313 C1308 1.377 1_655 S
C1313 C1312 1.383 . S
C1313 H1376 0.929 . S
C1314 C1310 1.527 . S
C1314 H1377 0.961 . S
C1314 H1378 0.959 . S
C1314 H1379 0.959 . S
C1315 C1312 1.603 . S
C1315 H1380 0.960 . S
C1315 H1381 0.962 . S
C1315 H1382 0.961 . S
C1316 C1283 1.587 1_655 S
C1316 C1317 1.360 . S
C1316 C1329 1.412 . S
C1317 C1316 1.360 . S
C1317 C1318 1.365 . S
C1317 H1383 0.929 . S
C1318 C1293 1.553 . S
C1318 C1317 1.365 . S
C1318 C1319 1.404 . S
C1319 C1318 1.404 . S
C1319 C1320 1.395 . S
C1319 C1330 1.451 . S
C1320 C1319 1.395 . S
C1320 C1321 1.322 . S
C1320 H1384 0.930 . S
C1321 C1320 1.322 . S
C1321 C1322 1.459 . S
C1321 H1385 0.929 . S
C1322 C1321 1.459 . S
C1322 C1323 1.445 . S
C1322 C1331 1.395 . S
C1323 C1301 1.432 . S
C1323 C1322 1.445 . S
C1323 C1324 1.370 . S
C1324 C1323 1.370 . S
C1324 C1325 1.438 . S
C1324 H1386 0.930 . S
C1325 C1311 1.545 . S
C1325 C1324 1.438 . S
C1325 C1326 1.360 . S
C1326 C1325 1.360 . S
C1326 C1327 1.401 . S
C1326 C1331 1.446 . S
C1327 C1326 1.401 . S
C1327 C1328 1.347 . S
C1327 H1387 0.929 . S
C1328 C1327 1.347 . S
C1328 C1329 1.455 . S
C1328 H1388 0.930 . S
C1329 C1316 1.412 . S
C1329 C1328 1.455 . S
C1329 C1330 1.331 . S
C1330 C1319 1.451 . S
C1330 C1329 1.331 . S
C1330 C1331 1.497 . S
C1331 C1322 1.395 . S
C1331 C1326 1.446 . S
C1331 C1330 1.497 . S
C1332 C1333 1.582 . S
C1332 H1389 0.962 . S
C1332 H1390 0.959 . S
C1332 H1391 0.958 . S
C1333 C1332 1.582 . S
C1333 O1336 1.458 . S
C1333 H1362 0.980 . S
O1334 C1279 1.426 . S
O1334 C1280 1.334 . S
O1335 C1307 1.427 . S
O1335 C1308 1.393 . S
O1336 C1298 1.435 . S
O1336 C1333 1.458 . S
O1337 C1289 1.468 . S
O1337 C1290 1.408 . S
H1338 C1279 0.980 . S
H1339 C1278 0.959 . S
H1340 C1278 0.959 . S
H1341 C1278 0.960 . S
H1342 C1281 0.929 . S
H1343 C1285 0.929 . S
H1344 C1286 0.959 . S
H1345 C1286 0.961 . S
H1346 C1286 0.961 . S
H1347 C1287 0.960 . S
H1348 C1287 0.960 . S
H1349 C1287 0.961 . S
H1350 C1289 0.942 1_455 S
H1351 C1288 0.961 . S
H1352 C1288 0.960 . S
H1353 C1288 0.959 . S
H1354 C1291 0.930 1_455 S
H1355 C1295 0.931 . S
H1356 C1296 0.959 . S
H1357 C1296 0.961 . S
H1358 C1296 0.959 . S
H1359 C1297 0.960 . S
H1360 C1297 0.960 . S
H1361 C1297 0.960 . S
H1362 C1333 0.980 . S
H1363 C1299 0.930 1_455 S
H1364 C1303 0.930 . S
H1365 C1304 0.961 . S
H1366 C1304 0.960 . S
H1367 C1304 0.958 . S
H1368 C1305 0.961 . S
H1369 C1305 0.960 . S
H1370 C1305 0.960 . S
H1371 C1307 0.962 1_655 S
H1372 C1306 0.961 . S
H1373 C1306 0.961 . S
H1374 C1306 0.959 . S
H1375 C1309 0.932 . S
H1376 C1313 0.929 . S
H1377 C1314 0.961 . S
H1378 C1314 0.959 . S
H1379 C1314 0.959 . S
H1380 C1315 0.960 . S
H1381 C1315 0.962 . S
H1382 C1315 0.961 . S
H1383 C1317 0.929 . S
H1384 C1320 0.930 . S
H1385 C1321 0.929 . S
H1386 C1324 0.930 . S
H1387 C1327 0.929 . S
H1388 C1328 0.930 . S
H1389 C1332 0.962 . S
H1390 C1332 0.959 . S
H1391 C1332 0.958 . S
C1392 C1393 1.560 . S
C1392 H1453 0.959 . S
C1392 H1454 0.959 . S
C1392 H1455 0.960 . S
C1393 C1392 1.560 . S
C1393 O1448 1.426 . S
C1393 H1452 0.980 . S
C1394 C1395 1.407 . S
C1394 C1399 1.418 . S
C1394 O1448 1.334 . S
C1395 C1394 1.407 . S
C1395 C1396 1.360 . S
C1395 H1456 0.929 . S
C1396 C1395 1.360 . S
C1396 C1397 1.401 . S
C1396 C1400 1.527 . S
C1397 C1396 1.401 . S
C1397 C1398 1.405 . S
C1397 C1430 1.587 . S
C1398 C1397 1.405 . S
C1398 C1399 1.332 . S
C1398 C1401 1.496 . S
C1399 C1394 1.418 . S
C1399 C1398 1.332 . S
C1399 H1457 0.929 . S
C1400 C1396 1.527 . S
C1400 H1458 0.959 . S
C1400 H1459 0.961 . S
C1400 H1460 0.961 . S
C1401 C1398 1.496 . S
C1401 H1461 0.960 . S
C1401 H1462 0.960 . S
C1401 H1463 0.961 . S
C1402 C1403 1.517 . S
C1402 H1465 0.961 . S
C1402 H1466 0.960 . S
C1402 H1467 0.959 . S
C1403 C1402 1.517 . S
C1403 O1451 1.468 . S
C1403 H1464 0.980 . S
C1404 C1405 1.349 . S
C1404 C1409 1.367 . S
C1404 O1451 1.408 . S
C1405 C1404 1.349 . S
C1405 C1406 1.407 . S
C1405 H1468 0.930 . S
C1406 C1405 1.407 . S
C1406 C1407 1.449 . S
C1406 C1410 1.535 . S
C1407 C1406 1.449 . S
C1407 C1408 1.384 . S
C1407 C1432 1.553 . S
C1408 C1407 1.384 . S
C1408 C1409 1.364 . S
C1408 C1411 1.450 . S
C1409 C1404 1.367 . S
C1409 C1408 1.364 . S
C1409 H1469 0.931 . S
C1410 C1406 1.535 . S
C1410 H1470 0.959 . S
C1410 H1471 0.961 . S
C1410 H1472 0.959 . S
C1411 C1408 1.450 . S
C1411 H1473 0.960 . S
C1411 H1474 0.960 . S
C1411 H1475 0.960 . S
C1412 C1413 1.309 . S
C1412 C1417 1.304 . S
C1412 O1450 1.435 . S
C1413 C1412 1.309 . S
C1413 C1414 1.476 . S
C1413 H1477 0.930 . S
C1414 C1413 1.476 . S
C1414 C1415 1.400 . S
C1414 C1418 1.567 . S
C1415 C1414 1.400 . S
C1415 C1416 1.373 . S
C1415 C1437 1.432 . S
C1416 C1415 1.373 . S
C1416 C1417 1.339 . S
C1416 C1419 1.530 . S
C1417 C1412 1.304 . S
C1417 C1416 1.339 . S
C1417 H1478 0.930 . S
C1418 C1414 1.567 . S
C1418 H1479 0.961 . S
C1418 H1480 0.960 . S
C1418 H1481 0.958 . S
C1419 C1416 1.530 . S
C1419 H1482 0.961 . S
C1419 H1483 0.960 . S
C1419 H1484 0.960 . S
C1420 C1421 1.530 . S
C1420 H1486 0.961 . S
C1420 H1487 0.961 . S
C1420 H1488 0.959 . S
C1421 C1420 1.530 . S
C1421 O1449 1.412 . S
C1421 H1485 0.980 . S
C1422 C1423 1.288 . S
C1422 C1427 1.377 . S
C1422 O1449 1.393 . S
C1423 C1422 1.288 . S
C1423 C1424 1.369 . S
C1423 H1489 0.932 . S
C1424 C1423 1.369 . S
C1424 C1425 1.398 . S
C1424 C1428 1.527 . S
C1425 C1424 1.398 . S
C1425 C1426 1.380 . S
C1425 C1439 1.497 . S
C1426 C1425 1.380 . S
C1426 C1427 1.383 . S
C1426 C1429 1.603 . S
C1427 C1422 1.377 . S
C1427 C1426 1.383 . S
C1427 H1490 0.929 . S
C1428 C1424 1.527 . S
C1428 H1491 0.961 . S
C1428 H1492 0.959 . S
C1428 H1493 0.959 . S
C1429 C1426 1.603 . S
C1429 H1494 0.960 . S
C1429 H1495 0.962 . S
C1429 H1496 0.961 . S
C1430 C1397 1.587 . S
C1430 C1431 1.360 . S
C1430 C1443 1.412 . S
C1431 C1430 1.360 . S
C1431 C1432 1.365 . S
C1431 H1497 0.929 . S
C1432 C1407 1.553 . S
C1432 C1431 1.365 . S
C1432 C1433 1.404 . S
C1433 C1432 1.404 . S
C1433 C1434 1.395 . S
C1433 C1444 1.451 . S
C1434 C1433 1.395 . S
C1434 C1435 1.322 . S
C1434 H1498 0.930 . S
C1435 C1434 1.322 . S
C1435 C1436 1.459 . S
C1435 H1499 0.929 . S
C1436 C1435 1.459 . S
C1436 C1437 1.445 . S
C1436 C1445 1.395 . S
C1437 C1415 1.432 . S
C1437 C1436 1.445 . S
C1437 C1438 1.370 . S
C1438 C1437 1.370 . S
C1438 C1439 1.438 . S
C1438 H1500 0.930 . S
C1439 C1425 1.497 . S
C1439 C1438 1.438 . S
C1439 C1440 1.360 . S
C1440 C1439 1.360 . S
C1440 C1441 1.401 . S
C1440 C1445 1.446 . S
C1441 C1440 1.401 . S
C1441 C1442 1.347 . S
C1441 H1501 0.929 . S
C1442 C1441 1.347 . S
C1442 C1443 1.455 . S
C1442 H1502 0.930 . S
C1443 C1430 1.412 . S
C1443 C1442 1.455 . S
C1443 C1444 1.331 . S
C1444 C1433 1.451 . S
C1444 C1443 1.331 . S
C1444 C1445 1.497 . S
C1445 C1436 1.395 . S
C1445 C1440 1.446 . S
C1445 C1444 1.497 . S
C1446 C1447 1.582 . S
C1446 H1503 0.962 . S
C1446 H1504 0.959 . S
C1446 H1505 0.958 . S
C1447 C1446 1.582 . S
C1447 O1450 1.458 . S
C1447 H1476 0.980 . S
O1448 C1393 1.426 . S
O1448 C1394 1.334 . S
O1449 C1421 1.412 . S
O1449 C1422 1.393 . S
O1450 C1412 1.435 . S
O1450 C1447 1.458 . S
O1451 C1403 1.468 . S
O1451 C1404 1.408 . S
H1452 C1393 0.980 . S
H1453 C1392 0.959 . S
H1454 C1392 0.959 . S
H1455 C1392 0.960 . S
H1456 C1395 0.929 . S
H1457 C1399 0.929 . S
H1458 C1400 0.959 . S
H1459 C1400 0.961 . S
H1460 C1400 0.961 . S
H1461 C1401 0.960 . S
H1462 C1401 0.960 . S
H1463 C1401 0.961 . S
H1464 C1403 0.980 . S
H1465 C1402 0.961 . S
H1466 C1402 0.960 . S
H1467 C1402 0.959 . S
H1468 C1405 0.930 . S
H1469 C1409 0.931 . S
H1470 C1410 0.959 . S
H1471 C1410 0.961 . S
H1472 C1410 0.959 . S
H1473 C1411 0.960 . S
H1474 C1411 0.960 . S
H1475 C1411 0.960 . S
H1476 C1447 0.980 . S
H1477 C1413 0.930 . S
H1478 C1417 0.930 . S
H1479 C1418 0.961 . S
H1480 C1418 0.960 . S
H1481 C1418 0.958 . S
H1482 C1419 0.961 . S
H1483 C1419 0.960 . S
H1484 C1419 0.960 . S
H1485 C1421 0.980 . S
H1486 C1420 0.961 . S
H1487 C1420 0.961 . S
H1488 C1420 0.959 . S
H1489 C1423 0.932 . S
H1490 C1427 0.929 . S
H1491 C1428 0.961 . S
H1492 C1428 0.959 . S
H1493 C1428 0.959 . S
H1494 C1429 0.960 . S
H1495 C1429 0.962 . S
H1496 C1429 0.961 . S
H1497 C1431 0.929 . S
H1498 C1434 0.930 . S
H1499 C1435 0.929 . S
H1500 C1438 0.930 . S
H1501 C1441 0.929 . S
H1502 C1442 0.930 . S
H1503 C1446 0.962 . S
H1504 C1446 0.959 . S
H1505 C1446 0.958 . S
C1506 C1507 1.560 . S
C1506 H1567 0.959 . S
C1506 H1568 0.959 . S
C1506 H1569 0.960 . S
C1507 C1506 1.560 . S
C1507 O1562 1.426 . S
C1507 H1566 0.980 . S
C1508 C1509 1.407 1_565 S
C1508 C1513 1.418 . S
C1508 O1562 1.334 . S
C1509 C1508 1.407 1_545 S
C1509 C1510 1.360 . S
C1509 H1570 0.929 . S
C1510 C1509 1.360 . S
C1510 C1511 1.401 1_545 S
C1510 C1514 1.527 . S
C1511 C1510 1.401 1_565 S
C1511 C1512 1.405 . S
C1511 C1544 1.587 1_565 S
C1512 C1511 1.405 . S
C1512 C1513 1.332 . S
C1512 C1515 1.496 . S
C1513 C1508 1.418 . S
C1513 C1512 1.332 . S
C1513 H1571 0.929 . S
C1514 C1510 1.527 . S
C1514 H1572 0.959 . S
C1514 H1573 0.961 . S
C1514 H1574 0.961 . S
C1515 C1512 1.496 . S
C1515 H1575 0.960 . S
C1515 H1576 0.960 . S
C1515 H1577 0.961 . S
C1516 C1517 1.517 . S
C1516 H1579 0.917 1_545 S
C1516 H1580 0.960 . S
C1516 H1581 0.959 . S
C1517 C1516 1.517 . S
C1517 O1565 1.468 . S
C1517 H1578 0.980 1_545 S
C1518 C1519 1.349 . S
C1518 C1523 1.367 . S
C1518 O1565 1.408 . S
C1519 C1518 1.349 . S
C1519 C1520 1.407 1_545 S
C1519 H1582 0.930 1_545 S
C1520 C1519 1.407 1_565 S
C1520 C1521 1.449 1_565 S
C1520 C1524 1.535 . S
C1521 C1520 1.449 1_545 S
C1521 C1522 1.384 . S
C1521 C1546 1.553 . S
C1522 C1521 1.384 . S
C1522 C1523 1.364 . S
C1522 C1525 1.450 . S
C1523 C1518 1.367 . S
C1523 C1522 1.364 . S
C1523 H1583 0.931 . S
C1524 C1520 1.535 . S
C1524 H1584 0.959 . S
C1524 H1585 0.961 . S
C1524 H1586 0.959 . S
C1525 C1522 1.450 . S
C1525 H1587 0.960 . S
C1525 H1588 0.960 . S
C1525 H1589 0.960 . S
C1526 C1527 1.309 . S
C1526 C1531 1.304 . S
C1526 O1564 1.435 . S
C1527 C1526 1.309 . S
C1527 C1528 1.482 1_545 S
C1527 H1591 0.930 1_545 S
C1528 C1527 1.482 1_565 S
C1528 C1529 1.378 1_565 S
C1528 C1532 1.582 . S
C1529 C1528 1.378 1_545 S
C1529 C1530 1.373 . S
C1529 C1551 1.432 . S
C1530 C1529 1.373 . S
C1530 C1531 1.339 . S
C1530 C1533 1.530 . S
C1531 C1526 1.304 . S
C1531 C1530 1.339 . S
C1531 H1592 0.930 . S
C1532 C1528 1.582 . S
C1532 H1593 0.961 . S
C1532 H1594 0.960 . S
C1532 H1595 0.958 . S
C1533 C1530 1.530 . S
C1533 H1596 0.961 . S
C1533 H1597 0.960 . S
C1533 H1598 0.960 . S
C1534 C1535 1.530 1_565 S
C1534 H1600 0.961 . S
C1534 H1601 0.961 . S
C1534 H1602 0.959 . S
C1535 C1534 1.530 1_545 S
C1535 O1563 1.412 1_545 S
C1535 H1599 0.980 . S
C1536 C1537 1.288 . S
C1536 C1541 1.377 1_565 S
C1536 O1563 1.393 . S
C1537 C1536 1.288 . S
C1537 C1538 1.369 . S
C1537 H1603 0.932 . S
C1538 C1537 1.369 . S
C1538 C1539 1.398 1_565 S
C1538 C1542 1.527 . S
C1539 C1538 1.398 1_545 S
C1539 C1540 1.380 . S
C1539 C1553 1.497 . S
C1540 C1539 1.380 . S
C1540 C1541 1.383 . S
C1540 C1543 1.603 . S
C1541 C1536 1.377 1_545 S
C1541 C1540 1.383 . S
C1541 H1604 0.929 . S
C1542 C1538 1.527 . S
C1542 H1605 0.961 . S
C1542 H1606 0.959 . S
C1542 H1607 0.959 . S
C1543 C1540 1.603 . S
C1543 H1608 0.960 . S
C1543 H1609 0.962 . S
C1543 H1610 0.961 . S
C1544 C1511 1.587 1_545 S
C1544 C1545 1.360 . S
C1544 C1557 1.412 . S
C1545 C1544 1.360 . S
C1545 C1546 1.365 . S
C1545 H1611 0.929 . S
C1546 C1521 1.553 . S
C1546 C1545 1.365 . S
C1546 C1547 1.404 . S
C1547 C1546 1.404 . S
C1547 C1548 1.395 . S
C1547 C1558 1.451 . S
C1548 C1547 1.395 . S
C1548 C1549 1.322 . S
C1548 H1612 0.930 . S
C1549 C1548 1.322 . S
C1549 C1550 1.459 . S
C1549 H1613 0.929 . S
C1550 C1549 1.459 . S
C1550 C1551 1.445 . S
C1550 C1559 1.395 . S
C1551 C1529 1.432 . S
C1551 C1550 1.445 . S
C1551 C1552 1.370 . S
C1552 C1551 1.370 . S
C1552 C1553 1.438 . S
C1552 H1614 0.930 . S
C1553 C1539 1.497 . S
C1553 C1552 1.438 . S
C1553 C1554 1.360 . S
C1554 C1553 1.360 . S
C1554 C1555 1.401 . S
C1554 C1559 1.446 . S
C1555 C1554 1.401 . S
C1555 C1556 1.347 . S
C1555 H1615 0.929 . S
C1556 C1555 1.347 . S
C1556 C1557 1.455 . S
C1556 H1616 0.930 . S
C1557 C1544 1.412 . S
C1557 C1556 1.455 . S
C1557 C1558 1.331 . S
C1558 C1547 1.451 . S
C1558 C1557 1.331 . S
C1558 C1559 1.497 . S
C1559 C1550 1.395 . S
C1559 C1554 1.446 . S
C1559 C1558 1.497 . S
C1560 C1561 1.582 . S
C1560 H1617 0.962 . S
C1560 H1618 0.959 . S
C1560 H1619 0.958 . S
C1561 C1560 1.582 . S
C1561 O1564 1.458 . S
C1561 H1590 0.980 . S
O1562 C1507 1.426 . S
O1562 C1508 1.334 . S
O1563 C1535 1.412 1_565 S
O1563 C1536 1.393 . S
O1564 C1526 1.435 . S
O1564 C1561 1.458 . S
O1565 C1517 1.468 . S
O1565 C1518 1.408 . S
H1566 C1507 0.980 . S
H1567 C1506 0.959 . S
H1568 C1506 0.959 . S
H1569 C1506 0.960 . S
H1570 C1509 0.929 . S
H1571 C1513 0.929 . S
H1572 C1514 0.959 . S
H1573 C1514 0.961 . S
H1574 C1514 0.961 . S
H1575 C1515 0.960 . S
H1576 C1515 0.960 . S
H1577 C1515 0.961 . S
H1578 C1517 0.980 1_565 S
H1579 C1516 0.917 1_565 S
H1580 C1516 0.960 . S
H1581 C1516 0.959 . S
H1582 C1519 0.930 1_565 S
H1583 C1523 0.931 . S
H1584 C1524 0.959 . S
H1585 C1524 0.961 . S
H1586 C1524 0.959 . S
H1587 C1525 0.960 . S
H1588 C1525 0.960 . S
H1589 C1525 0.960 . S
H1590 C1561 0.980 . S
H1591 C1527 0.930 1_565 S
H1592 C1531 0.930 . S
H1593 C1532 0.961 . S
H1594 C1532 0.960 . S
H1595 C1532 0.958 . S
H1596 C1533 0.961 . S
H1597 C1533 0.960 . S
H1598 C1533 0.960 . S
H1599 C1535 0.980 . S
H1600 C1534 0.961 . S
H1601 C1534 0.961 . S
H1602 C1534 0.959 . S
H1603 C1537 0.932 . S
H1604 C1541 0.929 . S
H1605 C1542 0.961 . S
H1606 C1542 0.959 . S
H1607 C1542 0.959 . S
H1608 C1543 0.960 . S
H1609 C1543 0.962 . S
H1610 C1543 0.961 . S
H1611 C1545 0.929 . S
H1612 C1548 0.930 . S
H1613 C1549 0.929 . S
H1614 C1552 0.930 . S
H1615 C1555 0.929 . S
H1616 C1556 0.930 . S
H1617 C1560 0.962 . S
H1618 C1560 0.959 . S
H1619 C1560 0.958 . S
C1620 C1621 1.560 . S
C1620 H1681 0.959 . S
C1620 H1682 0.959 . S
C1620 H1683 0.960 . S
C1621 C1620 1.560 . S
C1621 O1676 1.426 . S
C1621 H1680 0.980 1_565 S
C1622 C1623 1.407 1_565 S
C1622 C1627 1.418 . S
C1622 O1676 1.334 . S
C1623 C1622 1.407 1_545 S
C1623 C1624 1.360 . S
C1623 H1684 0.929 . S
C1624 C1623 1.360 . S
C1624 C1625 1.401 . S
C1624 C1628 1.527 . S
C1625 C1624 1.401 . S
C1625 C1626 1.405 1_545 S
C1625 C1658 1.587 . S
C1626 C1625 1.405 1_565 S
C1626 C1627 1.332 . S
C1626 C1629 1.496 . S
C1627 C1622 1.418 . S
C1627 C1626 1.332 . S
C1627 H1685 0.929 . S
C1628 C1624 1.527 . S
C1628 H1686 0.959 . S
C1628 H1687 0.961 . S
C1628 H1688 0.961 . S
C1629 C1626 1.496 . S
C1629 H1689 0.960 . S
C1629 H1690 0.960 . S
C1629 H1691 0.961 . S
C1630 C1631 1.517 . S
C1630 H1693 0.961 . S
C1630 H1694 0.960 . S
C1630 H1695 0.959 . S
C1631 C1630 1.517 . S
C1631 O1679 1.468 . S
C1631 H1692 0.980 . S
C1632 C1633 1.349 . S
C1632 C1637 1.367 . S
C1632 O1679 1.408 . S
C1633 C1632 1.349 . S
C1633 C1634 1.407 . S
C1633 H1696 0.910 1_545 S
C1634 C1633 1.407 . S
C1634 C1635 1.449 . S
C1634 C1638 1.535 1_545 S
C1635 C1634 1.449 . S
C1635 C1636 1.384 . S
C1635 C1660 1.553 . S
C1636 C1635 1.384 . S
C1636 C1637 1.364 . S
C1636 C1639 1.450 . S
C1637 C1632 1.367 . S
C1637 C1636 1.364 . S
C1637 H1697 0.931 . S
C1638 C1634 1.535 1_565 S
C1638 H1698 0.959 . S
C1638 H1699 0.961 . S
C1638 H1700 0.959 . S
C1639 C1636 1.450 . S
C1639 H1701 0.960 . S
C1639 H1702 0.960 . S
C1639 H1703 0.960 . S
C1640 C1641 1.309 1_545 S
C1640 C1645 1.304 . S
C1640 O1678 1.435 . S
C1641 C1640 1.309 1_565 S
C1641 C1642 1.476 . S
C1641 H1705 0.930 . S
C1642 C1641 1.476 . S
C1642 C1643 1.400 1_565 S
C1642 C1646 1.567 . S
C1643 C1642 1.400 1_545 S
C1643 C1644 1.373 . S
C1643 C1665 1.432 . S
C1644 C1643 1.373 . S
C1644 C1645 1.339 . S
C1644 C1647 1.530 . S
C1645 C1640 1.304 . S
C1645 C1644 1.339 . S
C1645 H1706 0.930 . S
C1646 C1642 1.567 . S
C1646 H1707 0.961 . S
C1646 H1708 0.960 . S
C1646 H1709 0.958 . S
C1647 C1644 1.530 . S
C1647 H1710 0.961 . S
C1647 H1711 0.960 . S
C1647 H1712 0.960 . S
C1648 C1649 1.530 . S
C1648 H1714 0.961 . S
C1648 H1715 0.961 . S
C1648 H1716 0.959 . S
C1649 C1648 1.530 . S
C1649 O1677 1.412 . S
C1649 H1713 0.981 1_565 S
C1650 C1651 1.288 . S
C1650 C1655 1.377 1_565 S
C1650 O1677 1.393 . S
C1651 C1650 1.288 . S
C1651 C1652 1.369 . S
C1651 H1717 0.932 . S
C1652 C1651 1.369 . S
C1652 C1653 1.398 . S
C1652 C1656 1.527 . S
C1653 C1652 1.398 . S
C1653 C1654 1.380 1_565 S
C1653 C1667 1.497 1_565 S
C1654 C1653 1.380 1_545 S
C1654 C1655 1.383 . S
C1654 C1657 1.603 . S
C1655 C1650 1.377 1_545 S
C1655 C1654 1.383 . S
C1655 H1718 0.929 . S
C1656 C1652 1.527 . S
C1656 H1719 0.961 . S
C1656 H1720 0.959 . S
C1656 H1721 0.959 . S
C1657 C1654 1.603 . S
C1657 H1722 0.960 . S
C1657 H1723 0.962 . S
C1657 H1724 0.961 . S
C1658 C1625 1.587 . S
C1658 C1659 1.360 . S
C1658 C1671 1.412 . S
C1659 C1658 1.360 . S
C1659 C1660 1.365 . S
C1659 H1725 0.929 . S
C1660 C1635 1.553 . S
C1660 C1659 1.365 . S
C1660 C1661 1.404 . S
C1661 C1660 1.404 . S
C1661 C1662 1.395 . S
C1661 C1672 1.451 . S
C1662 C1661 1.395 . S
C1662 C1663 1.322 . S
C1662 H1726 0.930 . S
C1663 C1662 1.322 . S
C1663 C1664 1.459 . S
C1663 H1727 0.929 . S
C1664 C1663 1.459 . S
C1664 C1665 1.445 . S
C1664 C1673 1.395 . S
C1665 C1643 1.432 . S
C1665 C1664 1.445 . S
C1665 C1666 1.370 . S
C1666 C1665 1.370 . S
C1666 C1667 1.438 . S
C1666 H1728 0.930 . S
C1667 C1653 1.497 1_545 S
C1667 C1666 1.438 . S
C1667 C1668 1.360 . S
C1668 C1667 1.360 . S
C1668 C1669 1.401 . S
C1668 C1673 1.446 . S
C1669 C1668 1.401 . S
C1669 C1670 1.347 . S
C1669 H1729 0.981 . S
C1670 C1669 1.347 . S
C1670 C1671 1.455 . S
C1670 H1730 0.930 . S
C1671 C1658 1.412 . S
C1671 C1670 1.455 . S
C1671 C1672 1.331 . S
C1672 C1661 1.451 . S
C1672 C1671 1.331 . S
C1672 C1673 1.497 . S
C1673 C1664 1.395 . S
C1673 C1668 1.446 . S
C1673 C1672 1.497 . S
C1674 C1675 1.627 . S
C1674 H1731 0.962 . S
C1674 H1732 0.959 . S
C1674 H1733 0.958 . S
C1675 C1674 1.627 . S
C1675 O1678 1.477 . S
C1675 H1704 0.981 1_545 S
O1676 C1621 1.426 . S
O1676 C1622 1.334 . S
O1677 C1649 1.412 . S
O1677 C1650 1.393 . S
O1678 C1640 1.435 . S
O1678 C1675 1.477 . S
O1679 C1631 1.468 . S
O1679 C1632 1.408 . S
H1680 C1621 0.980 1_545 S
H1681 C1620 0.959 . S
H1682 C1620 0.959 . S
H1683 C1620 0.960 . S
H1684 C1623 0.929 . S
H1685 C1627 0.929 . S
H1686 C1628 0.959 . S
H1687 C1628 0.961 . S
H1688 C1628 0.961 . S
H1689 C1629 0.960 . S
H1690 C1629 0.960 . S
H1691 C1629 0.961 . S
H1692 C1631 0.980 . S
H1693 C1630 0.961 . S
H1694 C1630 0.960 . S
H1695 C1630 0.959 . S
H1696 C1633 0.910 1_565 S
H1697 C1637 0.931 . S
H1698 C1638 0.959 . S
H1699 C1638 0.961 . S
H1700 C1638 0.959 . S
H1701 C1639 0.960 . S
H1702 C1639 0.960 . S
H1703 C1639 0.960 . S
H1704 C1675 0.981 1_565 S
H1705 C1641 0.930 . S
H1706 C1645 0.930 . S
H1707 C1646 0.961 . S
H1708 C1646 0.960 . S
H1709 C1646 0.958 . S
H1710 C1647 0.961 . S
H1711 C1647 0.960 . S
H1712 C1647 0.960 . S
H1713 C1649 0.981 1_545 S
H1714 C1648 0.961 . S
H1715 C1648 0.961 . S
H1716 C1648 0.959 . S
H1717 C1651 0.932 . S
H1718 C1655 0.929 . S
H1719 C1656 0.961 . S
H1720 C1656 0.959 . S
H1721 C1656 0.959 . S
H1722 C1657 0.960 . S
H1723 C1657 0.962 . S
H1724 C1657 0.961 . S
H1725 C1659 0.929 . S
H1726 C1662 0.930 . S
H1727 C1663 0.929 . S
H1728 C1666 0.930 . S
H1729 C1669 0.981 . S
H1730 C1670 0.930 . S
H1731 C1674 0.962 . S
H1732 C1674 0.959 . S
H1733 C1674 0.958 . S
C1734 C1735 1.560 . S
C1734 H1795 0.959 . S
C1734 H1796 0.959 . S
C1734 H1797 0.960 . S
C1735 C1734 1.560 . S
C1735 O1790 1.426 . S
C1735 H1794 0.980 1_455 S
C1736 C1737 1.407 1_455 S
C1736 C1741 1.418 . S
C1736 O1790 1.334 . S
C1737 C1736 1.407 1_655 S
C1737 C1738 1.360 . S
C1737 H1798 0.929 . S
C1738 C1737 1.360 . S
C1738 C1739 1.401 . S
C1738 C1742 1.527 . S
C1739 C1738 1.401 . S
C1739 C1740 1.405 1_655 S
C1739 C1772 1.587 . S
C1740 C1739 1.405 1_455 S
C1740 C1741 1.332 . S
C1740 C1743 1.496 . S
C1741 C1736 1.418 . S
C1741 C1740 1.332 . S
C1741 H1799 0.929 . S
C1742 C1738 1.527 . S
C1742 H1800 0.959 . S
C1742 H1801 0.961 . S
C1742 H1802 0.961 . S
C1743 C1740 1.496 . S
C1743 H1803 0.960 . S
C1743 H1804 0.960 . S
C1743 H1805 0.961 . S
C1744 C1745 1.517 . S
C1744 H1807 0.961 . S
C1744 H1808 0.960 . S
C1744 H1809 0.959 . S
C1745 C1744 1.517 . S
C1745 O1793 1.468 . S
C1745 H1806 0.980 . S
C1746 C1747 1.349 . S
C1746 C1751 1.367 . S
C1746 O1793 1.408 . S
C1747 C1746 1.349 . S
C1747 C1748 1.407 . S
C1747 H1810 0.884 1_655 S
C1748 C1747 1.407 . S
C1748 C1749 1.449 . S
C1748 C1752 1.535 1_655 S
C1749 C1748 1.449 . S
C1749 C1750 1.384 . S
C1749 C1774 1.553 . S
C1750 C1749 1.384 . S
C1750 C1751 1.364 . S
C1750 C1753 1.450 . S
C1751 C1746 1.367 . S
C1751 C1750 1.364 . S
C1751 H1811 0.931 . S
C1752 C1748 1.535 1_455 S
C1752 H1812 0.959 . S
C1752 H1813 0.961 . S
C1752 H1814 0.959 . S
C1753 C1750 1.450 . S
C1753 H1815 0.960 . S
C1753 H1816 0.960 . S
C1753 H1817 0.960 . S
C1754 C1755 1.309 1_655 S
C1754 C1759 1.304 . S
C1754 O1792 1.435 . S
C1755 C1754 1.309 1_455 S
C1755 C1756 1.476 . S
C1755 H1819 0.930 . S
C1756 C1755 1.476 . S
C1756 C1757 1.400 1_455 S
C1756 C1760 1.567 . S
C1757 C1756 1.400 1_655 S
C1757 C1758 1.373 . S
C1757 C1779 1.432 . S
C1758 C1757 1.373 . S
C1758 C1759 1.339 . S
C1758 C1761 1.530 . S
C1759 C1754 1.304 . S
C1759 C1758 1.339 . S
C1759 H1820 0.930 . S
C1760 C1756 1.567 . S
C1760 H1821 0.961 . S
C1760 H1822 0.960 . S
C1760 H1823 0.958 . S
C1761 C1758 1.530 . S
C1761 H1824 0.961 . S
C1761 H1825 0.960 . S
C1761 H1826 0.960 . S
C1762 C1763 1.530 . S
C1762 H1828 0.961 . S
C1762 H1829 0.961 . S
C1762 H1830 0.959 . S
C1763 C1762 1.530 . S
C1763 O1791 1.412 . S
C1763 H1827 0.966 1_455 S
C1764 C1765 1.288 . S
C1764 C1769 1.377 1_455 S
C1764 O1791 1.393 . S
C1765 C1764 1.288 . S
C1765 C1766 1.369 . S
C1765 H1831 0.932 . S
C1766 C1765 1.369 . S
C1766 C1767 1.398 . S
C1766 C1770 1.527 . S
C1767 C1766 1.398 . S
C1767 C1768 1.380 1_455 S
C1767 C1781 1.497 1_455 S
C1768 C1767 1.380 1_655 S
C1768 C1769 1.383 . S
C1768 C1771 1.603 . S
C1769 C1764 1.377 1_655 S
C1769 C1768 1.383 . S
C1769 H1832 0.929 . S
C1770 C1766 1.527 . S
C1770 H1833 0.961 . S
C1770 H1834 0.959 . S
C1770 H1835 0.959 . S
C1771 C1768 1.603 . S
C1771 H1836 0.960 . S
C1771 H1837 0.962 . S
C1771 H1838 0.961 . S
C1772 C1739 1.587 . S
C1772 C1773 1.360 . S
C1772 C1785 1.412 . S
C1773 C1772 1.360 . S
C1773 C1774 1.365 . S
C1773 H1839 0.929 . S
C1774 C1749 1.553 . S
C1774 C1773 1.365 . S
C1774 C1775 1.404 . S
C1775 C1774 1.404 . S
C1775 C1776 1.395 . S
C1775 C1786 1.451 . S
C1776 C1775 1.395 . S
C1776 C1777 1.322 . S
C1776 H1840 0.930 . S
C1777 C1776 1.322 . S
C1777 C1778 1.459 . S
C1777 H1841 0.929 . S
C1778 C1777 1.459 . S
C1778 C1779 1.445 . S
C1778 C1787 1.395 . S
C1779 C1757 1.432 . S
C1779 C1778 1.445 . S
C1779 C1780 1.370 . S
C1780 C1779 1.370 . S
C1780 C1781 1.438 . S
C1780 H1842 0.930 . S
C1781 C1767 1.497 1_655 S
C1781 C1780 1.438 . S
C1781 C1782 1.360 . S
C1782 C1781 1.360 . S
C1782 C1783 1.401 . S
C1782 C1787 1.446 . S
C1783 C1782 1.401 . S
C1783 C1784 1.347 . S
C1783 H1843 0.929 . S
C1784 C1783 1.347 . S
C1784 C1785 1.455 . S
C1784 H1844 0.930 . S
C1785 C1772 1.412 . S
C1785 C1784 1.455 . S
C1785 C1786 1.331 . S
C1786 C1775 1.451 . S
C1786 C1785 1.331 . S
C1786 C1787 1.497 . S
C1787 C1778 1.395 . S
C1787 C1782 1.446 . S
C1787 C1786 1.497 . S
C1788 C1789 1.581 1_655 S
C1788 H1845 0.957 . S
C1788 H1846 0.959 . S
C1788 H1847 0.958 . S
C1789 C1788 1.581 1_455 S
C1789 O1792 1.395 1_455 S
C1789 H1818 1.008 . S
O1790 C1735 1.426 . S
O1790 C1736 1.334 . S
O1791 C1763 1.412 . S
O1791 C1764 1.393 . S
O1792 C1754 1.435 . S
O1792 C1789 1.395 1_655 S
O1793 C1745 1.468 . S
O1793 C1746 1.408 . S
H1794 C1735 0.980 1_655 S
H1795 C1734 0.959 . S
H1796 C1734 0.959 . S
H1797 C1734 0.960 . S
H1798 C1737 0.929 . S
H1799 C1741 0.929 . S
H1800 C1742 0.959 . S
H1801 C1742 0.961 . S
H1802 C1742 0.961 . S
H1803 C1743 0.960 . S
H1804 C1743 0.960 . S
H1805 C1743 0.961 . S
H1806 C1745 0.980 . S
H1807 C1744 0.961 . S
H1808 C1744 0.960 . S
H1809 C1744 0.959 . S
H1810 C1747 0.884 1_455 S
H1811 C1751 0.931 . S
H1812 C1752 0.959 . S
H1813 C1752 0.961 . S
H1814 C1752 0.959 . S
H1815 C1753 0.960 . S
H1816 C1753 0.960 . S
H1817 C1753 0.960 . S
H1818 C1789 1.008 . S
H1819 C1755 0.930 . S
H1820 C1759 0.930 . S
H1821 C1760 0.961 . S
H1822 C1760 0.960 . S
H1823 C1760 0.958 . S
H1824 C1761 0.961 . S
H1825 C1761 0.960 . S
H1826 C1761 0.960 . S
H1827 C1763 0.966 1_655 S
H1828 C1762 0.961 . S
H1829 C1762 0.961 . S
H1830 C1762 0.959 . S
H1831 C1765 0.932 . S
H1832 C1769 0.929 . S
H1833 C1770 0.961 . S
H1834 C1770 0.959 . S
H1835 C1770 0.959 . S
H1836 C1771 0.960 . S
H1837 C1771 0.962 . S
H1838 C1771 0.961 . S
H1839 C1773 0.929 . S
H1840 C1776 0.930 . S
H1841 C1777 0.929 . S
H1842 C1780 0.930 . S
H1843 C1783 0.929 . S
H1844 C1784 0.930 . S
H1845 C1788 0.957 . S
H1846 C1788 0.959 . S
H1847 C1788 0.958 . S
C1848 C1849 1.560 . S
C1848 H1909 0.959 . S
C1848 H1910 0.959 . S
C1848 H1911 0.960 . S
C1849 C1848 1.560 . S
C1849 O1904 1.426 . S
C1849 H1908 0.980 . S
C1850 C1851 1.407 . S
C1850 C1855 1.418 . S
C1850 O1904 1.334 . S
C1851 C1850 1.407 . S
C1851 C1852 1.360 . S
C1851 H1912 0.929 . S
C1852 C1851 1.360 . S
C1852 C1853 1.401 . S
C1852 C1856 1.527 . S
C1853 C1852 1.401 . S
C1853 C1854 1.405 . S
C1853 C1886 1.587 . S
C1854 C1853 1.405 . S
C1854 C1855 1.332 . S
C1854 C1857 1.496 . S
C1855 C1850 1.418 . S
C1855 C1854 1.332 . S
C1855 H1913 0.929 . S
C1856 C1852 1.527 . S
C1856 H1914 0.959 . S
C1856 H1915 0.961 . S
C1856 H1916 0.961 . S
C1857 C1854 1.496 . S
C1857 H1917 0.960 . S
C1857 H1918 0.960 . S
C1857 H1919 0.961 . S
C1858 C1859 1.517 . S
C1858 H1921 0.961 . S
C1858 H1922 0.960 . S
C1858 H1923 0.959 . S
C1859 C1858 1.517 . S
C1859 O1907 1.468 . S
C1859 H1920 0.980 . S
C1860 C1861 1.349 . S
C1860 C1865 1.367 . S
C1860 O1907 1.408 . S
C1861 C1860 1.349 . S
C1861 C1862 1.407 . S
C1861 H1924 0.930 . S
C1862 C1861 1.407 . S
C1862 C1863 1.449 . S
C1862 C1866 1.535 . S
C1863 C1862 1.449 . S
C1863 C1864 1.384 . S
C1863 C1888 1.553 . S
C1864 C1863 1.384 . S
C1864 C1865 1.364 . S
C1864 C1867 1.450 . S
C1865 C1860 1.367 . S
C1865 C1864 1.364 . S
C1865 H1925 0.931 . S
C1866 C1862 1.535 . S
C1866 H1926 0.959 . S
C1866 H1927 0.961 . S
C1866 H1928 0.959 . S
C1867 C1864 1.450 . S
C1867 H1929 0.960 . S
C1867 H1930 0.960 . S
C1867 H1931 0.960 . S
C1868 C1869 1.309 . S
C1868 C1873 1.304 . S
C1868 O1906 1.435 . S
C1869 C1868 1.309 . S
C1869 C1870 1.476 . S
C1869 H1933 0.930 . S
C1870 C1869 1.476 . S
C1870 C1871 1.400 . S
C1870 C1874 1.567 . S
C1871 C1870 1.400 . S
C1871 C1872 1.373 . S
C1871 C1893 1.432 . S
C1872 C1871 1.373 . S
C1872 C1873 1.339 . S
C1872 C1875 1.530 . S
C1873 C1868 1.304 . S
C1873 C1872 1.339 . S
C1873 H1934 0.930 . S
C1874 C1870 1.567 . S
C1874 H1935 0.961 . S
C1874 H1936 0.960 . S
C1874 H1937 0.958 . S
C1875 C1872 1.530 . S
C1875 H1938 0.961 . S
C1875 H1939 0.960 . S
C1875 H1940 0.960 . S
C1876 C1877 1.530 . S
C1876 H1942 0.961 . S
C1876 H1943 0.961 . S
C1876 H1944 0.959 . S
C1877 C1876 1.530 . S
C1877 O1905 1.412 . S
C1877 H1941 0.980 . S
C1878 C1879 1.288 . S
C1878 C1883 1.377 . S
C1878 O1905 1.393 . S
C1879 C1878 1.288 . S
C1879 C1880 1.369 . S
C1879 H1945 0.932 . S
C1880 C1879 1.369 . S
C1880 C1881 1.398 . S
C1880 C1884 1.527 . S
C1881 C1880 1.398 . S
C1881 C1882 1.380 . S
C1881 C1895 1.497 . S
C1882 C1881 1.380 . S
C1882 C1883 1.383 . S
C1882 C1885 1.603 . S
C1883 C1878 1.377 . S
C1883 C1882 1.383 . S
C1883 H1946 0.929 . S
C1884 C1880 1.527 . S
C1884 H1947 0.961 . S
C1884 H1948 0.959 . S
C1884 H1949 0.959 . S
C1885 C1882 1.603 . S
C1885 H1950 0.960 . S
C1885 H1951 0.962 . S
C1885 H1952 0.961 . S
C1886 C1853 1.587 . S
C1886 C1887 1.360 . S
C1886 C1899 1.412 . S
C1887 C1886 1.360 . S
C1887 C1888 1.365 . S
C1887 H1953 0.929 . S
C1888 C1863 1.553 . S
C1888 C1887 1.365 . S
C1888 C1889 1.404 . S
C1889 C1888 1.404 . S
C1889 C1890 1.395 . S
C1889 C1900 1.451 . S
C1890 C1889 1.395 . S
C1890 C1891 1.322 . S
C1890 H1954 0.930 . S
C1891 C1890 1.322 . S
C1891 C1892 1.459 . S
C1891 H1955 0.929 . S
C1892 C1891 1.459 . S
C1892 C1893 1.445 . S
C1892 C1901 1.395 . S
C1893 C1871 1.432 . S
C1893 C1892 1.445 . S
C1893 C1894 1.370 . S
C1894 C1893 1.370 . S
C1894 C1895 1.438 . S
C1894 H1956 0.930 . S
C1895 C1881 1.497 . S
C1895 C1894 1.438 . S
C1895 C1896 1.360 . S
C1896 C1895 1.360 . S
C1896 C1897 1.401 . S
C1896 C1901 1.446 . S
C1897 C1896 1.401 . S
C1897 C1898 1.347 . S
C1897 H1957 0.929 . S
C1898 C1897 1.347 . S
C1898 C1899 1.455 . S
C1898 H1958 0.930 . S
C1899 C1886 1.412 . S
C1899 C1898 1.455 . S
C1899 C1900 1.331 . S
C1900 C1889 1.451 . S
C1900 C1899 1.331 . S
C1900 C1901 1.497 . S
C1901 C1892 1.395 . S
C1901 C1896 1.446 . S
C1901 C1900 1.497 . S
C1902 C1903 1.582 . S
C1902 H1959 0.962 . S
C1902 H1960 0.959 . S
C1902 H1961 0.958 . S
C1903 C1902 1.582 . S
C1903 O1906 1.458 . S
C1903 H1932 0.980 . S
O1904 C1849 1.426 . S
O1904 C1850 1.334 . S
O1905 C1877 1.412 . S
O1905 C1878 1.393 . S
O1906 C1868 1.435 . S
O1906 C1903 1.458 . S
O1907 C1859 1.468 . S
O1907 C1860 1.408 . S
H1908 C1849 0.980 . S
H1909 C1848 0.959 . S
H1910 C1848 0.959 . S
H1911 C1848 0.960 . S
H1912 C1851 0.929 . S
H1913 C1855 0.929 . S
H1914 C1856 0.959 . S
H1915 C1856 0.961 . S
H1916 C1856 0.961 . S
H1917 C1857 0.960 . S
H1918 C1857 0.960 . S
H1919 C1857 0.961 . S
H1920 C1859 0.980 . S
H1921 C1858 0.961 . S
H1922 C1858 0.960 . S
H1923 C1858 0.959 . S
H1924 C1861 0.930 . S
H1925 C1865 0.931 . S
H1926 C1866 0.959 . S
H1927 C1866 0.961 . S
H1928 C1866 0.959 . S
H1929 C1867 0.960 . S
H1930 C1867 0.960 . S
H1931 C1867 0.960 . S
H1932 C1903 0.980 . S
H1933 C1869 0.930 . S
H1934 C1873 0.930 . S
H1935 C1874 0.961 . S
H1936 C1874 0.960 . S
H1937 C1874 0.958 . S
H1938 C1875 0.961 . S
H1939 C1875 0.960 . S
H1940 C1875 0.960 . S
H1941 C1877 0.980 . S
H1942 C1876 0.961 . S
H1943 C1876 0.961 . S
H1944 C1876 0.959 . S
H1945 C1879 0.932 . S
H1946 C1883 0.929 . S
H1947 C1884 0.961 . S
H1948 C1884 0.959 . S
H1949 C1884 0.959 . S
H1950 C1885 0.960 . S
H1951 C1885 0.962 . S
H1952 C1885 0.961 . S
H1953 C1887 0.929 . S
H1954 C1890 0.930 . S
H1955 C1891 0.929 . S
H1956 C1894 0.930 . S
H1957 C1897 0.929 . S
H1958 C1898 0.930 . S
H1959 C1902 0.962 . S
H1960 C1902 0.959 . S
H1961 C1902 0.958 . S
C1962 C1963 1.560 . S
C1962 H2023 0.959 . S
C1962 H2024 0.959 . S
C1962 H2025 0.960 . S
C1963 C1962 1.560 . S
C1963 O2018 1.426 . S
C1963 H2022 0.980 . S
C1964 C1965 1.407 . S
C1964 C1969 1.418 . S
C1964 O2018 1.334 . S
C1965 C1964 1.407 . S
C1965 C1966 1.360 . S
C1965 H2026 0.929 . S
C1966 C1965 1.360 . S
C1966 C1967 1.401 . S
C1966 C1970 1.527 . S
C1967 C1966 1.401 . S
C1967 C1968 1.405 . S
C1967 C2000 1.587 . S
C1968 C1967 1.405 . S
C1968 C1969 1.332 . S
C1968 C1971 1.496 . S
C1969 C1964 1.418 . S
C1969 C1968 1.332 . S
C1969 H2027 0.929 . S
C1970 C1966 1.527 . S
C1970 H2028 0.959 . S
C1970 H2029 0.961 . S
C1970 H2030 0.961 . S
C1971 C1968 1.496 . S
C1971 H2031 0.960 . S
C1971 H2032 0.960 . S
C1971 H2033 0.961 . S
C1972 C1973 1.517 . S
C1972 H2035 0.961 . S
C1972 H2036 0.960 . S
C1972 H2037 0.959 . S
C1973 C1972 1.517 . S
C1973 O2021 1.468 . S
C1973 H2034 0.980 . S
C1974 C1975 1.349 . S
C1974 C1979 1.367 . S
C1974 O2021 1.408 . S
C1975 C1974 1.349 . S
C1975 C1976 1.407 . S
C1975 H2038 0.930 . S
C1976 C1975 1.407 . S
C1976 C1977 1.449 . S
C1976 C1980 1.535 . S
C1977 C1976 1.449 . S
C1977 C1978 1.384 . S
C1977 C2002 1.553 . S
C1978 C1977 1.384 . S
C1978 C1979 1.364 . S
C1978 C1981 1.450 . S
C1979 C1974 1.367 . S
C1979 C1978 1.364 . S
C1979 H2039 0.931 . S
C1980 C1976 1.535 . S
C1980 H2040 0.959 . S
C1980 H2041 0.961 . S
C1980 H2042 0.959 . S
C1981 C1978 1.450 . S
C1981 H2043 0.960 . S
C1981 H2044 0.960 . S
C1981 H2045 0.960 . S
C1982 C1983 1.309 . S
C1982 C1987 1.304 . S
C1982 O2020 1.435 . S
C1983 C1982 1.309 . S
C1983 C1984 1.476 . S
C1983 H2047 0.930 . S
C1984 C1983 1.476 . S
C1984 C1985 1.400 . S
C1984 C1988 1.567 . S
C1985 C1984 1.400 . S
C1985 C1986 1.373 . S
C1985 C2007 1.432 . S
C1986 C1985 1.373 . S
C1986 C1987 1.339 . S
C1986 C1989 1.530 . S
C1987 C1982 1.304 . S
C1987 C1986 1.339 . S
C1987 H2048 0.930 . S
C1988 C1984 1.567 . S
C1988 H2049 0.961 . S
C1988 H2050 0.960 . S
C1988 H2051 0.958 . S
C1989 C1986 1.530 . S
C1989 H2052 0.961 . S
C1989 H2053 0.960 . S
C1989 H2054 0.960 . S
C1990 C1991 1.530 . S
C1990 H2056 0.961 . S
C1990 H2057 0.961 . S
C1990 H2058 0.959 . S
C1991 C1990 1.530 . S
C1991 O2019 1.412 . S
C1991 H2055 0.980 . S
C1992 C1993 1.288 . S
C1992 C1997 1.377 . S
C1992 O2019 1.393 . S
C1993 C1992 1.288 . S
C1993 C1994 1.369 . S
C1993 H2059 0.932 . S
C1994 C1993 1.369 . S
C1994 C1995 1.398 . S
C1994 C1998 1.527 . S
C1995 C1994 1.398 . S
C1995 C1996 1.380 . S
C1995 C2009 1.497 . S
C1996 C1995 1.380 . S
C1996 C1997 1.383 . S
C1996 C1999 1.603 . S
C1997 C1992 1.377 . S
C1997 C1996 1.383 . S
C1997 H2060 0.929 . S
C1998 C1994 1.527 . S
C1998 H2061 0.961 . S
C1998 H2062 0.959 . S
C1998 H2063 0.959 . S
C1999 C1996 1.603 . S
C1999 H2064 0.960 . S
C1999 H2065 0.962 . S
C1999 H2066 0.961 . S
C2000 C1967 1.587 . S
C2000 C2001 1.360 . S
C2000 C2013 1.412 . S
C2001 C2000 1.360 . S
C2001 C2002 1.365 . S
C2001 H2067 0.929 . S
C2002 C1977 1.553 . S
C2002 C2001 1.365 . S
C2002 C2003 1.404 . S
C2003 C2002 1.404 . S
C2003 C2004 1.395 . S
C2003 C2014 1.451 . S
C2004 C2003 1.395 . S
C2004 C2005 1.322 . S
C2004 H2068 0.930 . S
C2005 C2004 1.322 . S
C2005 C2006 1.459 . S
C2005 H2069 0.929 . S
C2006 C2005 1.459 . S
C2006 C2007 1.445 . S
C2006 C2015 1.395 . S
C2007 C1985 1.432 . S
C2007 C2006 1.445 . S
C2007 C2008 1.370 . S
C2008 C2007 1.370 . S
C2008 C2009 1.438 . S
C2008 H2070 0.930 . S
C2009 C1995 1.497 . S
C2009 C2008 1.438 . S
C2009 C2010 1.360 . S
C2010 C2009 1.360 . S
C2010 C2011 1.401 . S
C2010 C2015 1.446 . S
C2011 C2010 1.401 . S
C2011 C2012 1.347 . S
C2011 H2071 0.929 . S
C2012 C2011 1.347 . S
C2012 C2013 1.455 . S
C2012 H2072 0.930 . S
C2013 C2000 1.412 . S
C2013 C2012 1.455 . S
C2013 C2014 1.331 . S
C2014 C2003 1.451 . S
C2014 C2013 1.331 . S
C2014 C2015 1.497 . S
C2015 C2006 1.395 . S
C2015 C2010 1.446 . S
C2015 C2014 1.497 . S
C2016 C2017 1.582 . S
C2016 H2073 0.962 . S
C2016 H2074 0.959 . S
C2016 H2075 0.958 . S
C2017 C2016 1.582 . S
C2017 O2020 1.458 . S
C2017 H2046 0.980 . S
O2018 C1963 1.426 . S
O2018 C1964 1.334 . S
O2019 C1991 1.412 . S
O2019 C1992 1.393 . S
O2020 C1982 1.435 . S
O2020 C2017 1.458 . S
O2021 C1973 1.468 . S
O2021 C1974 1.408 . S
H2022 C1963 0.980 . S
H2023 C1962 0.959 . S
H2024 C1962 0.959 . S
H2025 C1962 0.960 . S
H2026 C1965 0.929 . S
H2027 C1969 0.929 . S
H2028 C1970 0.959 . S
H2029 C1970 0.961 . S
H2030 C1970 0.961 . S
H2031 C1971 0.960 . S
H2032 C1971 0.960 . S
H2033 C1971 0.961 . S
H2034 C1973 0.980 . S
H2035 C1972 0.961 . S
H2036 C1972 0.960 . S
H2037 C1972 0.959 . S
H2038 C1975 0.930 . S
H2039 C1979 0.931 . S
H2040 C1980 0.959 . S
H2041 C1980 0.961 . S
H2042 C1980 0.959 . S
H2043 C1981 0.960 . S
H2044 C1981 0.960 . S
H2045 C1981 0.960 . S
H2046 C2017 0.980 . S
H2047 C1983 0.930 . S
H2048 C1987 0.930 . S
H2049 C1988 0.961 . S
H2050 C1988 0.960 . S
H2051 C1988 0.958 . S
H2052 C1989 0.961 . S
H2053 C1989 0.960 . S
H2054 C1989 0.960 . S
H2055 C1991 0.980 . S
H2056 C1990 0.961 . S
H2057 C1990 0.961 . S
H2058 C1990 0.959 . S
H2059 C1993 0.932 . S
H2060 C1997 0.929 . S
H2061 C1998 0.961 . S
H2062 C1998 0.959 . S
H2063 C1998 0.959 . S
H2064 C1999 0.960 . S
H2065 C1999 0.962 . S
H2066 C1999 0.961 . S
H2067 C2001 0.929 . S
H2068 C2004 0.930 . S
H2069 C2005 0.929 . S
H2070 C2008 0.930 . S
H2071 C2011 0.929 . S
H2072 C2012 0.930 . S
H2073 C2016 0.962 . S
H2074 C2016 0.959 . S
H2075 C2016 0.958 . S
C2076 C2077 1.560 . S
C2076 H2137 0.959 . S
C2076 H2138 0.959 . S
C2076 H2139 0.960 . S
C2077 C2076 1.560 . S
C2077 O2132 1.426 . S
C2077 H2136 0.980 . S
C2078 C2079 1.407 . S
C2078 C2083 1.418 . S
C2078 O2132 1.334 . S
C2079 C2078 1.407 . S
C2079 C2080 1.360 . S
C2079 H2140 0.929 . S
C2080 C2079 1.360 . S
C2080 C2081 1.401 . S
C2080 C2084 1.527 . S
C2081 C2080 1.401 . S
C2081 C2082 1.405 . S
C2081 C2114 1.587 . S
C2082 C2081 1.405 . S
C2082 C2083 1.332 . S
C2082 C2085 1.496 . S
C2083 C2078 1.418 . S
C2083 C2082 1.332 . S
C2083 H2141 0.929 . S
C2084 C2080 1.527 . S
C2084 H2142 0.959 . S
C2084 H2143 0.961 . S
C2084 H2144 0.961 . S
C2085 C2082 1.496 . S
C2085 H2145 0.960 . S
C2085 H2146 0.960 . S
C2085 H2147 0.961 . S
C2086 C2087 1.517 . S
C2086 H2149 0.961 . S
C2086 H2150 0.960 . S
C2086 H2151 0.959 . S
C2087 C2086 1.517 . S
C2087 O2135 1.468 . S
C2087 H2148 0.980 . S
C2088 C2089 1.349 . S
C2088 C2093 1.367 . S
C2088 O2135 1.408 . S
C2089 C2088 1.349 . S
C2089 C2090 1.407 . S
C2089 H2152 0.930 . S
C2090 C2089 1.407 . S
C2090 C2091 1.449 . S
C2090 C2094 1.535 . S
C2091 C2090 1.449 . S
C2091 C2092 1.384 . S
C2091 C2116 1.553 . S
C2092 C2091 1.384 . S
C2092 C2093 1.364 . S
C2092 C2095 1.450 . S
C2093 C2088 1.367 . S
C2093 C2092 1.364 . S
C2093 H2153 0.931 . S
C2094 C2090 1.535 . S
C2094 H2154 0.959 . S
C2094 H2155 0.961 . S
C2094 H2156 0.959 . S
C2095 C2092 1.450 . S
C2095 H2157 0.960 . S
C2095 H2158 0.960 . S
C2095 H2159 0.960 . S
C2096 C2097 1.309 . S
C2096 C2101 1.304 . S
C2096 O2134 1.435 . S
C2097 C2096 1.309 . S
C2097 C2098 1.476 . S
C2097 H2161 0.930 . S
C2098 C2097 1.476 . S
C2098 C2099 1.400 . S
C2098 C2102 1.567 . S
C2099 C2098 1.400 . S
C2099 C2100 1.373 . S
C2099 C2121 1.432 . S
C2100 C2099 1.373 . S
C2100 C2101 1.339 . S
C2100 C2103 1.530 . S
C2101 C2096 1.304 . S
C2101 C2100 1.339 . S
C2101 H2162 0.930 . S
C2102 C2098 1.567 . S
C2102 H2163 0.961 . S
C2102 H2164 0.960 . S
C2102 H2165 0.958 . S
C2103 C2100 1.530 . S
C2103 H2166 0.961 . S
C2103 H2167 0.960 . S
C2103 H2168 0.960 . S
C2104 C2105 1.530 . S
C2104 H2170 0.961 . S
C2104 H2171 0.961 . S
C2104 H2172 0.959 . S
C2105 C2104 1.530 . S
C2105 O2133 1.412 . S
C2105 H2169 0.980 . S
C2106 C2107 1.288 . S
C2106 C2111 1.377 . S
C2106 O2133 1.393 . S
C2107 C2106 1.288 . S
C2107 C2108 1.369 . S
C2107 H2173 0.932 . S
C2108 C2107 1.369 . S
C2108 C2109 1.398 . S
C2108 C2112 1.527 . S
C2109 C2108 1.398 . S
C2109 C2110 1.380 . S
C2109 C2123 1.497 . S
C2110 C2109 1.380 . S
C2110 C2111 1.383 . S
C2110 C2113 1.603 . S
C2111 C2106 1.377 . S
C2111 C2110 1.383 . S
C2111 H2174 0.929 . S
C2112 C2108 1.527 . S
C2112 H2175 0.961 . S
C2112 H2176 0.959 . S
C2112 H2177 0.959 . S
C2113 C2110 1.603 . S
C2113 H2178 0.960 . S
C2113 H2179 0.962 . S
C2113 H2180 0.961 . S
C2114 C2081 1.587 . S
C2114 C2115 1.360 . S
C2114 C2127 1.412 . S
C2115 C2114 1.360 . S
C2115 C2116 1.365 . S
C2115 H2181 0.929 . S
C2116 C2091 1.553 . S
C2116 C2115 1.365 . S
C2116 C2117 1.404 . S
C2117 C2116 1.404 . S
C2117 C2118 1.395 . S
C2117 C2128 1.451 . S
C2118 C2117 1.395 . S
C2118 C2119 1.322 . S
C2118 H2182 0.930 . S
C2119 C2118 1.322 . S
C2119 C2120 1.459 . S
C2119 H2183 0.929 . S
C2120 C2119 1.459 . S
C2120 C2121 1.445 . S
C2120 C2129 1.395 . S
C2121 C2099 1.432 . S
C2121 C2120 1.445 . S
C2121 C2122 1.370 . S
C2122 C2121 1.370 . S
C2122 C2123 1.438 . S
C2122 H2184 0.930 . S
C2123 C2109 1.497 . S
C2123 C2122 1.438 . S
C2123 C2124 1.360 . S
C2124 C2123 1.360 . S
C2124 C2125 1.401 . S
C2124 C2129 1.446 . S
C2125 C2124 1.401 . S
C2125 C2126 1.347 . S
C2125 H2185 0.929 . S
C2126 C2125 1.347 . S
C2126 C2127 1.455 . S
C2126 H2186 0.930 . S
C2127 C2114 1.412 . S
C2127 C2126 1.455 . S
C2127 C2128 1.331 . S
C2128 C2117 1.451 . S
C2128 C2127 1.331 . S
C2128 C2129 1.497 . S
C2129 C2120 1.395 . S
C2129 C2124 1.446 . S
C2129 C2128 1.497 . S
C2130 C2131 1.582 . S
C2130 H2187 0.962 . S
C2130 H2188 0.959 . S
C2130 H2189 0.958 . S
C2131 C2130 1.582 . S
C2131 O2134 1.458 . S
C2131 H2160 0.980 . S
O2132 C2077 1.426 . S
O2132 C2078 1.334 . S
O2133 C2105 1.412 . S
O2133 C2106 1.393 . S
O2134 C2096 1.435 . S
O2134 C2131 1.458 . S
O2135 C2087 1.468 . S
O2135 C2088 1.408 . S
H2136 C2077 0.980 . S
H2137 C2076 0.959 . S
H2138 C2076 0.959 . S
H2139 C2076 0.960 . S
H2140 C2079 0.929 . S
H2141 C2083 0.929 . S
H2142 C2084 0.959 . S
H2143 C2084 0.961 . S
H2144 C2084 0.961 . S
H2145 C2085 0.960 . S
H2146 C2085 0.960 . S
H2147 C2085 0.961 . S
H2148 C2087 0.980 . S
H2149 C2086 0.961 . S
H2150 C2086 0.960 . S
H2151 C2086 0.959 . S
H2152 C2089 0.930 . S
H2153 C2093 0.931 . S
H2154 C2094 0.959 . S
H2155 C2094 0.961 . S
H2156 C2094 0.959 . S
H2157 C2095 0.960 . S
H2158 C2095 0.960 . S
H2159 C2095 0.960 . S
H2160 C2131 0.980 . S
H2161 C2097 0.930 . S
H2162 C2101 0.930 . S
H2163 C2102 0.961 . S
H2164 C2102 0.960 . S
H2165 C2102 0.958 . S
H2166 C2103 0.961 . S
H2167 C2103 0.960 . S
H2168 C2103 0.960 . S
H2169 C2105 0.980 . S
H2170 C2104 0.961 . S
H2171 C2104 0.961 . S
H2172 C2104 0.959 . S
H2173 C2107 0.932 . S
H2174 C2111 0.929 . S
H2175 C2112 0.961 . S
H2176 C2112 0.959 . S
H2177 C2112 0.959 . S
H2178 C2113 0.960 . S
H2179 C2113 0.962 . S
H2180 C2113 0.961 . S
H2181 C2115 0.929 . S
H2182 C2118 0.930 . S
H2183 C2119 0.929 . S
H2184 C2122 0.930 . S
H2185 C2125 0.929 . S
H2186 C2126 0.930 . S
H2187 C2130 0.962 . S
H2188 C2130 0.959 . S
H2189 C2130 0.958 . S
C2190 C2191 1.560 . S
C2190 H2251 0.959 . S
C2190 H2252 0.959 . S
C2190 H2253 0.960 . S
C2191 C2190 1.560 . S
C2191 O2246 1.426 . S
C2191 H2250 0.980 . S
C2192 C2193 1.407 . S
C2192 C2197 1.418 . S
C2192 O2246 1.334 . S
C2193 C2192 1.407 . S
C2193 C2194 1.360 . S
C2193 H2254 0.929 . S
C2194 C2193 1.360 . S
C2194 C2195 1.401 . S
C2194 C2198 1.527 . S
C2195 C2194 1.401 . S
C2195 C2196 1.405 . S
C2195 C2228 1.587 . S
C2196 C2195 1.405 . S
C2196 C2197 1.332 . S
C2196 C2199 1.496 . S
C2197 C2192 1.418 . S
C2197 C2196 1.332 . S
C2197 H2255 0.929 . S
C2198 C2194 1.527 . S
C2198 H2256 0.959 . S
C2198 H2257 0.961 . S
C2198 H2258 0.961 . S
C2199 C2196 1.496 . S
C2199 H2259 0.960 . S
C2199 H2260 0.960 . S
C2199 H2261 0.961 . S
C2200 C2201 1.517 . S
C2200 H2263 0.961 . S
C2200 H2264 0.960 . S
C2200 H2265 0.959 . S
C2201 C2200 1.517 . S
C2201 O2249 1.468 . S
C2201 H2262 0.980 . S
C2202 C2203 1.349 . S
C2202 C2207 1.367 . S
C2202 O2249 1.408 . S
C2203 C2202 1.349 . S
C2203 C2204 1.407 . S
C2203 H2266 0.930 . S
C2204 C2203 1.407 . S
C2204 C2205 1.449 . S
C2204 C2208 1.535 . S
C2205 C2204 1.449 . S
C2205 C2206 1.384 . S
C2205 C2230 1.553 . S
C2206 C2205 1.384 . S
C2206 C2207 1.364 . S
C2206 C2209 1.450 . S
C2207 C2202 1.367 . S
C2207 C2206 1.364 . S
C2207 H2267 0.931 . S
C2208 C2204 1.535 . S
C2208 H2268 0.959 . S
C2208 H2269 0.961 . S
C2208 H2270 0.959 . S
C2209 C2206 1.450 . S
C2209 H2271 0.960 . S
C2209 H2272 0.960 . S
C2209 H2273 0.960 . S
C2210 C2211 1.309 . S
C2210 C2215 1.304 . S
C2210 O2248 1.435 . S
C2211 C2210 1.309 . S
C2211 C2212 1.476 . S
C2211 H2275 0.930 . S
C2212 C2211 1.476 . S
C2212 C2213 1.400 . S
C2212 C2216 1.567 . S
C2213 C2212 1.400 . S
C2213 C2214 1.373 . S
C2213 C2235 1.432 . S
C2214 C2213 1.373 . S
C2214 C2215 1.339 . S
C2214 C2217 1.530 . S
C2215 C2210 1.304 . S
C2215 C2214 1.339 . S
C2215 H2276 0.930 . S
C2216 C2212 1.567 . S
C2216 H2277 0.961 . S
C2216 H2278 0.960 . S
C2216 H2279 0.958 . S
C2217 C2214 1.530 . S
C2217 H2280 0.961 . S
C2217 H2281 0.960 . S
C2217 H2282 0.960 . S
C2218 C2219 1.530 . S
C2218 H2284 0.961 . S
C2218 H2285 0.961 . S
C2218 H2286 0.959 . S
C2219 C2218 1.530 . S
C2219 O2247 1.412 . S
C2219 H2283 0.980 . S
C2220 C2221 1.288 . S
C2220 C2225 1.377 . S
C2220 O2247 1.393 . S
C2221 C2220 1.288 . S
C2221 C2222 1.369 . S
C2221 H2287 0.932 . S
C2222 C2221 1.369 . S
C2222 C2223 1.398 . S
C2222 C2226 1.527 . S
C2223 C2222 1.398 . S
C2223 C2224 1.380 . S
C2223 C2237 1.497 . S
C2224 C2223 1.380 . S
C2224 C2225 1.383 . S
C2224 C2227 1.603 . S
C2225 C2220 1.377 . S
C2225 C2224 1.383 . S
C2225 H2288 0.929 . S
C2226 C2222 1.527 . S
C2226 H2289 0.961 . S
C2226 H2290 0.959 . S
C2226 H2291 0.959 . S
C2227 C2224 1.603 . S
C2227 H2292 0.960 . S
C2227 H2293 0.962 . S
C2227 H2294 0.961 . S
C2228 C2195 1.587 . S
C2228 C2229 1.360 . S
C2228 C2241 1.412 . S
C2229 C2228 1.360 . S
C2229 C2230 1.365 . S
C2229 H2295 0.929 . S
C2230 C2205 1.553 . S
C2230 C2229 1.365 . S
C2230 C2231 1.404 . S
C2231 C2230 1.404 . S
C2231 C2232 1.395 . S
C2231 C2242 1.451 . S
C2232 C2231 1.395 . S
C2232 C2233 1.322 . S
C2232 H2296 0.930 . S
C2233 C2232 1.322 . S
C2233 C2234 1.459 . S
C2233 H2297 0.929 . S
C2234 C2233 1.459 . S
C2234 C2235 1.445 . S
C2234 C2243 1.395 . S
C2235 C2213 1.432 . S
C2235 C2234 1.445 . S
C2235 C2236 1.370 . S
C2236 C2235 1.370 . S
C2236 C2237 1.438 . S
C2236 H2298 0.930 . S
C2237 C2223 1.497 . S
C2237 C2236 1.438 . S
C2237 C2238 1.360 . S
C2238 C2237 1.360 . S
C2238 C2239 1.401 . S
C2238 C2243 1.446 . S
C2239 C2238 1.401 . S
C2239 C2240 1.347 . S
C2239 H2299 0.929 . S
C2240 C2239 1.347 . S
C2240 C2241 1.455 . S
C2240 H2300 0.930 . S
C2241 C2228 1.412 . S
C2241 C2240 1.455 . S
C2241 C2242 1.331 . S
C2242 C2231 1.451 . S
C2242 C2241 1.331 . S
C2242 C2243 1.497 . S
C2243 C2234 1.395 . S
C2243 C2238 1.446 . S
C2243 C2242 1.497 . S
C2244 C2245 1.582 . S
C2244 H2301 0.962 . S
C2244 H2302 0.959 . S
C2244 H2303 0.958 . S
C2245 C2244 1.582 . S
C2245 O2248 1.458 . S
C2245 H2274 0.980 . S
O2246 C2191 1.426 . S
O2246 C2192 1.334 . S
O2247 C2219 1.412 . S
O2247 C2220 1.393 . S
O2248 C2210 1.435 . S
O2248 C2245 1.458 . S
O2249 C2201 1.468 . S
O2249 C2202 1.408 . S
H2250 C2191 0.980 . S
H2251 C2190 0.959 . S
H2252 C2190 0.959 . S
H2253 C2190 0.960 . S
H2254 C2193 0.929 . S
H2255 C2197 0.929 . S
H2256 C2198 0.959 . S
H2257 C2198 0.961 . S
H2258 C2198 0.961 . S
H2259 C2199 0.960 . S
H2260 C2199 0.960 . S
H2261 C2199 0.961 . S
H2262 C2201 0.980 . S
H2263 C2200 0.961 . S
H2264 C2200 0.960 . S
H2265 C2200 0.959 . S
H2266 C2203 0.930 . S
H2267 C2207 0.931 . S
H2268 C2208 0.959 . S
H2269 C2208 0.961 . S
H2270 C2208 0.959 . S
H2271 C2209 0.960 . S
H2272 C2209 0.960 . S
H2273 C2209 0.960 . S
H2274 C2245 0.980 . S
H2275 C2211 0.930 . S
H2276 C2215 0.930 . S
H2277 C2216 0.961 . S
H2278 C2216 0.960 . S
H2279 C2216 0.958 . S
H2280 C2217 0.961 . S
H2281 C2217 0.960 . S
H2282 C2217 0.960 . S
H2283 C2219 0.980 . S
H2284 C2218 0.961 . S
H2285 C2218 0.961 . S
H2286 C2218 0.959 . S
H2287 C2221 0.932 . S
H2288 C2225 0.929 . S
H2289 C2226 0.961 . S
H2290 C2226 0.959 . S
H2291 C2226 0.959 . S
H2292 C2227 0.960 . S
H2293 C2227 0.962 . S
H2294 C2227 0.961 . S
H2295 C2229 0.929 . S
H2296 C2232 0.930 . S
H2297 C2233 0.929 . S
H2298 C2236 0.930 . S
H2299 C2239 0.929 . S
H2300 C2240 0.930 . S
H2301 C2244 0.962 . S
H2302 C2244 0.959 . S
H2303 C2244 0.958 . S
H2304 C2310 0.930 . S
H2305 C2314 0.933 1_455 S
H2306 C2319 0.938 . S
H2307 C2317 0.929 . S
H2308 C2312 0.929 1_455 S
H2309 C2318 0.929 . S
C2310 H2304 0.930 . S
C2310 C2311 1.367 . S
C2310 C2318 1.378 . S
C2311 C2310 1.367 . S
C2311 C2319 1.451 1_655 S
C2312 H2308 0.929 1_655 S
C2312 C2314 1.378 . S
C2312 C2316 1.350 . S
C2313 C2316 1.463 . S
C2313 C2318 1.350 . S
C2313 N2321 1.428 1_655 S
C2314 H2305 0.933 1_655 S
C2314 C2312 1.378 . S
C2314 C2315 1.367 . S
C2315 C2314 1.367 . S
C2315 C2317 1.433 . S
C2316 C2312 1.350 . S
C2316 C2313 1.463 . S
C2316 N2320 1.427 . S
C2317 H2307 0.929 . S
C2317 C2315 1.433 . S
C2317 N2320 1.384 . S
C2318 H2309 0.929 . S
C2318 C2310 1.378 . S
C2318 C2313 1.350 . S
C2319 H2306 0.938 . S
C2319 C2311 1.451 1_455 S
C2319 N2321 1.358 . S
N2320 C2316 1.427 . S
N2320 C2317 1.384 . S
N2321 C2313 1.428 1_455 S
N2321 C2319 1.358 . S
H2322 C2328 0.930 . S
H2323 C2332 0.930 . S
H2324 C2337 0.929 . S
H2325 C2335 0.929 . S
H2326 C2330 0.929 . S
H2327 C2336 0.929 . S
C2328 H2322 0.930 . S
C2328 C2329 1.367 . S
C2328 C2336 1.378 . S
C2329 C2328 1.367 . S
C2329 C2337 1.433 . S
C2330 H2326 0.929 . S
C2330 C2332 1.378 . S
C2330 C2334 1.350 . S
C2331 C2334 1.463 . S
C2331 C2336 1.350 . S
C2331 N2339 1.427 . S
C2332 H2323 0.930 . S
C2332 C2330 1.378 . S
C2332 C2333 1.367 . S
C2333 C2332 1.367 . S
C2333 C2335 1.433 . S
C2334 C2330 1.350 . S
C2334 C2331 1.463 . S
C2334 N2338 1.427 . S
C2335 H2325 0.929 . S
C2335 C2333 1.433 . S
C2335 N2338 1.384 . S
C2336 H2327 0.929 . S
C2336 C2328 1.378 . S
C2336 C2331 1.350 . S
C2337 H2324 0.929 . S
C2337 C2329 1.433 . S
C2337 N2339 1.384 . S
N2338 C2334 1.427 . S
N2338 C2335 1.384 . S
N2339 C2331 1.427 . S
N2339 C2337 1.384 . S
H2340 C2346 0.930 . S
H2341 C2350 0.923 1_565 S
H2342 C2355 0.929 . S
H2343 C2353 0.929 . S
H2344 C2348 0.929 . S
H2345 C2354 0.929 . S
C2346 H2340 0.930 . S
C2346 C2347 1.367 . S
C2346 C2354 1.378 . S
C2347 C2346 1.367 . S
C2347 C2355 1.433 . S
C2348 H2344 0.929 . S
C2348 C2350 1.378 . S
C2348 C2352 1.350 . S
C2349 C2352 1.463 . S
C2349 C2354 1.350 . S
C2349 N2357 1.427 . S
C2350 H2341 0.923 1_545 S
C2350 C2348 1.378 . S
C2350 C2351 1.367 . S
C2351 C2350 1.367 . S
C2351 C2353 1.433 . S
C2352 C2348 1.350 . S
C2352 C2349 1.463 . S
C2352 N2356 1.427 . S
C2353 H2343 0.929 . S
C2353 C2351 1.433 . S
C2353 N2356 1.384 . S
C2354 H2345 0.929 . S
C2354 C2346 1.378 . S
C2354 C2349 1.350 . S
C2355 H2342 0.929 . S
C2355 C2347 1.433 . S
C2355 N2357 1.384 . S
N2356 C2352 1.427 . S
N2356 C2353 1.384 . S
N2357 C2349 1.427 . S
N2357 C2355 1.384 . S
H2358 C2364 0.930 . S
H2359 C2368 0.930 . S
H2360 C2373 0.929 . S
H2361 C2371 0.929 . S
H2362 C2366 0.929 . S
H2363 C2372 0.929 . S
C2364 H2358 0.930 . S
C2364 C2365 1.367 . S
C2364 C2372 1.378 . S
C2365 C2364 1.367 . S
C2365 C2373 1.433 1_565 S
C2366 H2362 0.929 . S
C2366 C2368 1.378 . S
C2366 C2370 1.350 1_545 S
C2367 C2370 1.463 . S
C2367 C2372 1.350 . S
C2367 N2375 1.427 1_565 S
C2368 H2359 0.930 . S
C2368 C2366 1.378 . S
C2368 C2369 1.367 1_545 S
C2369 C2368 1.367 1_565 S
C2369 C2371 1.433 . S
C2370 C2366 1.350 1_565 S
C2370 C2367 1.463 . S
C2370 N2374 1.427 . S
C2371 H2361 0.929 . S
C2371 C2369 1.433 . S
C2371 N2374 1.384 . S
C2372 H2363 0.929 . S
C2372 C2364 1.378 . S
C2372 C2367 1.350 . S
C2373 H2360 0.929 . S
C2373 C2365 1.433 1_545 S
C2373 N2375 1.384 . S
N2374 C2370 1.427 . S
N2374 C2371 1.384 . S
N2375 C2367 1.427 1_545 S
N2375 C2373 1.384 . S
H2376 C2382 0.930 . S
H2377 C2386 0.930 1_655 S
H2378 C2391 0.929 . S
H2379 C2389 0.929 . S
H2380 C2384 0.929 1_655 S
H2381 C2390 0.929 . S
C2382 H2376 0.930 . S
C2382 C2383 1.367 . S
C2382 C2390 1.378 . S
C2383 C2382 1.367 . S
C2383 C2391 1.433 . S
C2384 H2380 0.929 1_455 S
C2384 C2386 1.378 . S
C2384 C2388 1.350 . S
C2385 C2388 1.463 . S
C2385 C2390 1.350 . S
C2385 N2393 1.427 . S
C2386 H2377 0.930 1_455 S
C2386 C2384 1.378 . S
C2386 C2387 1.367 . S
C2387 C2386 1.367 . S
C2387 C2389 1.433 . S
C2388 C2384 1.350 . S
C2388 C2385 1.463 . S
C2388 N2392 1.427 . S
C2389 H2379 0.929 . S
C2389 C2387 1.433 . S
C2389 N2392 1.384 . S
C2390 H2381 0.929 . S
C2390 C2382 1.378 . S
C2390 C2385 1.350 . S
C2391 H2378 0.929 . S
C2391 C2383 1.433 . S
C2391 N2393 1.384 . S
N2392 C2388 1.427 . S
N2392 C2389 1.384 . S
N2393 C2385 1.427 . S
N2393 C2391 1.384 . S
H2394 C2400 0.930 . S
H2395 C2404 0.930 . S
H2396 C2409 0.929 1_554 S
H2397 C2407 0.929 . S
H2398 C2402 0.929 . S
H2399 C2408 0.929 . S
C2400 H2394 0.930 . S
C2400 C2401 1.367 . S
C2400 C2408 1.378 . S
C2401 C2400 1.367 . S
C2401 C2409 1.433 . S
C2402 H2398 0.929 . S
C2402 C2404 1.378 . S
C2402 C2406 1.350 . S
C2403 C2406 1.463 . S
C2403 C2408 1.350 . S
C2403 N2411 1.427 . S
C2404 H2395 0.930 . S
C2404 C2402 1.378 . S
C2404 C2405 1.367 . S
C2405 C2404 1.367 . S
C2405 C2407 1.433 . S
C2406 C2402 1.350 . S
C2406 C2403 1.463 . S
C2406 N2410 1.427 . S
C2407 H2397 0.929 . S
C2407 C2405 1.433 . S
C2407 N2410 1.384 . S
C2408 H2399 0.929 . S
C2408 C2400 1.378 . S
C2408 C2403 1.350 . S
C2409 H2396 0.929 1_556 S
C2409 C2401 1.433 . S
C2409 N2411 1.384 . S
N2410 C2406 1.427 . S
N2410 C2407 1.384 . S
N2411 C2403 1.427 . S
N2411 C2409 1.384 . S
H2412 C2418 0.930 . S
H2413 C2422 0.930 . S
H2414 C2427 0.929 . S
H2415 C2425 0.929 . S
H2416 C2420 0.929 . S
H2417 C2426 0.929 . S
C2418 H2412 0.930 . S
C2418 C2419 1.367 1_655 S
C2418 C2426 1.378 . S
C2419 C2418 1.367 1_455 S
C2419 C2427 1.433 . S
C2420 H2416 0.929 . S
C2420 C2422 1.378 . S
C2420 C2424 1.350 . S
C2421 C2424 1.463 . S
C2421 C2426 1.350 1_455 S
C2421 N2429 1.427 . S
C2422 H2413 0.930 . S
C2422 C2420 1.378 . S
C2422 C2423 1.367 . S
C2423 C2422 1.367 . S
C2423 C2425 1.433 1_455 S
C2424 C2420 1.350 . S
C2424 C2421 1.463 . S
C2424 N2428 1.427 1_455 S
C2425 H2415 0.929 . S
C2425 C2423 1.433 1_655 S
C2425 N2428 1.384 . S
C2426 H2417 0.929 . S
C2426 C2418 1.378 . S
C2426 C2421 1.350 1_655 S
C2427 H2414 0.929 . S
C2427 C2419 1.433 . S
C2427 N2429 1.384 . S
N2428 C2424 1.427 1_655 S
N2428 C2425 1.384 . S
N2429 C2421 1.427 . S
N2429 C2427 1.384 . S
H2430 C2436 0.930 . S
H2431 C2440 0.930 . S
H2432 C2445 0.929 . S
H2433 C2443 0.929 . S
H2434 C2438 0.929 . S
H2435 C2444 0.929 . S
C2436 H2430 0.930 . S
C2436 C2437 1.367 . S
C2436 C2444 1.378 . S
C2437 C2436 1.367 . S
C2437 C2445 1.433 . S
C2438 H2434 0.929 . S
C2438 C2440 1.378 . S
C2438 C2442 1.350 . S
C2439 C2442 1.463 . S
C2439 C2444 1.350 . S
C2439 N2447 1.427 . S
C2440 H2431 0.930 . S
C2440 C2438 1.378 . S
C2440 C2441 1.367 . S
C2441 C2440 1.367 . S
C2441 C2443 1.433 . S
C2442 C2438 1.350 . S
C2442 C2439 1.463 . S
C2442 N2446 1.427 . S
C2443 H2433 0.929 . S
C2443 C2441 1.433 . S
C2443 N2446 1.384 . S
C2444 H2435 0.929 . S
C2444 C2436 1.378 . S
C2444 C2439 1.350 . S
C2445 H2432 0.929 . S
C2445 C2437 1.433 . S
C2445 N2447 1.384 . S
N2446 C2442 1.427 . S
N2446 C2443 1.384 . S
N2447 C2439 1.427 . S
N2447 C2445 1.384 . S
H2448 C2454 0.930 . S
H2449 C2458 0.930 . S
H2450 C2463 0.929 . S
H2451 C2461 0.929 . S
H2452 C2456 0.929 . S
H2453 C2462 0.929 . S
C2454 H2448 0.930 . S
C2454 C2455 1.367 . S
C2454 C2462 1.378 . S
C2455 C2454 1.367 . S
C2455 C2463 1.433 1_565 S
C2456 H2452 0.929 . S
C2456 C2458 1.378 . S
C2456 C2460 1.350 1_545 S
C2457 C2460 1.463 . S
C2457 C2462 1.350 . S
C2457 N2465 1.427 1_565 S
C2458 H2449 0.930 . S
C2458 C2456 1.378 . S
C2458 C2459 1.366 1_545 S
C2459 C2458 1.366 1_565 S
C2459 C2461 1.464 . S
C2460 C2456 1.350 1_565 S
C2460 C2457 1.463 . S
C2460 N2464 1.427 . S
C2461 H2451 0.929 . S
C2461 C2459 1.464 . S
C2461 N2464 1.384 . S
C2462 H2453 0.929 . S
C2462 C2454 1.378 . S
C2462 C2457 1.350 . S
C2463 H2450 0.929 . S
C2463 C2455 1.433 1_545 S
C2463 N2465 1.384 . S
N2464 C2460 1.427 . S
N2464 C2461 1.384 . S
N2465 C2457 1.427 1_545 S
N2465 C2463 1.384 . S
H2466 C2472 0.891 1_565 S
H2467 C2476 0.930 . S
H2468 C2481 0.929 . S
H2469 C2479 0.929 . S
H2470 C2474 0.929 . S
H2471 C2480 0.929 1_565 S
C2472 H2466 0.891 1_545 S
C2472 C2473 1.367 . S
C2472 C2480 1.378 . S
C2473 C2472 1.367 . S
C2473 C2481 1.433 . S
C2474 H2470 0.929 . S
C2474 C2476 1.378 . S
C2474 C2478 1.350 . S
C2475 C2478 1.463 . S
C2475 C2480 1.350 . S
C2475 N2483 1.427 . S
C2476 H2467 0.930 . S
C2476 C2474 1.378 . S
C2476 C2477 1.367 . S
C2477 C2476 1.367 . S
C2477 C2479 1.433 1_545 S
C2478 C2474 1.350 . S
C2478 C2475 1.463 . S
C2478 N2482 1.427 1_545 S
C2479 H2469 0.929 . S
C2479 C2477 1.433 1_565 S
C2479 N2482 1.384 . S
C2480 H2471 0.929 1_545 S
C2480 C2472 1.378 . S
C2480 C2475 1.350 . S
C2481 H2468 0.929 . S
C2481 C2473 1.433 . S
C2481 N2483 1.384 . S
N2482 C2478 1.427 1_565 S
N2482 C2479 1.384 . S
N2483 C2475 1.427 . S
N2483 C2481 1.384 . S
H2484 C2490 0.930 . S
H2485 C2494 0.930 . S
H2486 C2499 0.929 . S
H2487 C2497 0.929 . S
H2488 C2492 0.926 . S
H2489 C2498 0.929 . S
C2490 H2484 0.930 . S
C2490 C2491 1.367 . S
C2490 C2498 1.378 . S
C2491 C2490 1.367 . S
C2491 C2499 1.433 . S
C2492 H2488 0.926 . S
C2492 C2494 1.374 . S
C2492 C2496 1.356 1_455 S
C2493 C2496 1.463 . S
C2493 C2498 1.350 . S
C2493 N2501 1.427 . S
C2494 H2485 0.930 . S
C2494 C2492 1.374 . S
C2494 C2495 1.367 1_455 S
C2495 C2494 1.367 1_655 S
C2495 C2497 1.433 . S
C2496 C2492 1.356 1_655 S
C2496 C2493 1.463 . S
C2496 N2500 1.427 . S
C2497 H2487 0.929 . S
C2497 C2495 1.433 . S
C2497 N2500 1.384 . S
C2498 H2489 0.929 . S
C2498 C2490 1.378 . S
C2498 C2493 1.350 . S
C2499 H2486 0.929 . S
C2499 C2491 1.433 . S
C2499 N2501 1.384 . S
N2500 C2496 1.427 . S
N2500 C2497 1.384 . S
N2501 C2493 1.427 . S
N2501 C2499 1.384 . S
H2502 C2508 0.930 . S
H2503 C2512 0.930 . S
H2504 C2517 0.929 . S
H2505 C2515 0.929 . S
H2506 C2510 0.929 . S
H2507 C2516 0.929 . S
C2508 H2502 0.930 . S
C2508 C2509 1.367 . S
C2508 C2516 1.378 . S
C2509 C2508 1.367 . S
C2509 C2517 1.433 . S
C2510 H2506 0.929 . S
C2510 C2512 1.378 . S
C2510 C2514 1.350 . S
C2511 C2514 1.463 . S
C2511 C2516 1.350 . S
C2511 N2519 1.427 . S
C2512 H2503 0.930 . S
C2512 C2510 1.378 . S
C2512 C2513 1.367 . S
C2513 C2512 1.367 . S
C2513 C2515 1.433 . S
C2514 C2510 1.350 . S
C2514 C2511 1.463 . S
C2514 N2518 1.427 . S
C2515 H2505 0.929 . S
C2515 C2513 1.433 . S
C2515 N2518 1.384 . S
C2516 H2507 0.929 . S
C2516 C2508 1.378 . S
C2516 C2511 1.350 . S
C2517 H2504 0.929 . S
C2517 C2509 1.433 . S
C2517 N2519 1.384 . S
N2518 C2514 1.427 . S
N2518 C2515 1.384 . S
N2519 C2511 1.427 . S
N2519 C2517 1.384 . S
H2520 C2526 0.930 . S
H2521 C2530 0.930 . S
H2522 C2535 0.929 . S
H2523 C2533 0.929 . S
H2524 C2528 0.929 . S
H2525 C2534 0.929 . S
C2526 H2520 0.930 . S
C2526 C2527 1.367 . S
C2526 C2534 1.378 . S
C2527 C2526 1.367 . S
C2527 C2535 1.433 . S
C2528 H2524 0.929 . S
C2528 C2530 1.378 . S
C2528 C2532 1.350 . S
C2529 C2532 1.463 . S
C2529 C2534 1.350 . S
C2529 N2537 1.427 . S
C2530 H2521 0.930 . S
C2530 C2528 1.378 . S
C2530 C2531 1.367 . S
C2531 C2530 1.367 . S
C2531 C2533 1.433 . S
C2532 C2528 1.350 . S
C2532 C2529 1.463 . S
C2532 N2536 1.427 . S
C2533 H2523 0.929 . S
C2533 C2531 1.433 . S
C2533 N2536 1.384 . S
C2534 H2525 0.929 . S
C2534 C2526 1.378 . S
C2534 C2529 1.350 . S
C2535 H2522 0.929 . S
C2535 C2527 1.433 . S
C2535 N2537 1.384 . S
N2536 C2532 1.427 . S
N2536 C2533 1.384 . S
N2537 C2529 1.427 . S
N2537 C2535 1.384 . S
H2538 C2544 0.930 . S
H2539 C2548 0.930 . S
H2540 C2553 0.929 . S
H2541 C2551 0.929 . S
H2542 C2546 0.929 . S
H2543 C2552 0.929 . S
C2544 H2538 0.930 . S
C2544 C2545 1.367 . S
C2544 C2552 1.378 . S
C2545 C2544 1.367 . S
C2545 C2553 1.433 . S
C2546 H2542 0.929 . S
C2546 C2548 1.378 . S
C2546 C2550 1.350 . S
C2547 C2550 1.463 . S
C2547 C2552 1.350 . S
C2547 N2555 1.427 . S
C2548 H2539 0.930 . S
C2548 C2546 1.378 . S
C2548 C2549 1.367 . S
C2549 C2548 1.367 . S
C2549 C2551 1.433 . S
C2550 C2546 1.350 . S
C2550 C2547 1.463 . S
C2550 N2554 1.427 . S
C2551 H2541 0.929 . S
C2551 C2549 1.433 . S
C2551 N2554 1.384 . S
C2552 H2543 0.929 . S
C2552 C2544 1.378 . S
C2552 C2547 1.350 . S
C2553 H2540 0.929 . S
C2553 C2545 1.433 . S
C2553 N2555 1.384 . S
N2554 C2550 1.427 . S
N2554 C2551 1.384 . S
N2555 C2547 1.427 . S
N2555 C2553 1.384 . S
H2556 C2562 0.930 . S
H2557 C2566 0.930 . S
H2558 C2571 0.929 . S
H2559 C2569 0.929 . S
H2560 C2564 0.929 . S
H2561 C2570 0.929 . S
C2562 H2556 0.930 . S
C2562 C2563 1.367 . S
C2562 C2570 1.378 . S
C2563 C2562 1.367 . S
C2563 C2571 1.433 . S
C2564 H2560 0.929 . S
C2564 C2566 1.378 . S
C2564 C2568 1.350 . S
C2565 C2568 1.463 . S
C2565 C2570 1.350 . S
C2565 N2573 1.427 . S
C2566 H2557 0.930 . S
C2566 C2564 1.378 . S
C2566 C2567 1.367 . S
C2567 C2566 1.367 . S
C2567 C2569 1.433 . S
C2568 C2564 1.350 . S
C2568 C2565 1.463 . S
C2568 N2572 1.427 . S
C2569 H2559 0.929 . S
C2569 C2567 1.433 . S
C2569 N2572 1.384 . S
C2570 H2561 0.929 . S
C2570 C2562 1.378 . S
C2570 C2565 1.350 . S
C2571 H2558 0.929 . S
C2571 C2563 1.433 . S
C2571 N2573 1.384 . S
N2572 C2568 1.427 . S
N2572 C2569 1.384 . S
N2573 C2565 1.427 . S
N2573 C2571 1.384 . S
H2574 C2580 0.930 . S
H2575 C2584 0.930 . S
H2576 C2589 0.929 . S
H2577 C2587 0.929 . S
H2578 C2582 0.929 . S
H2579 C2588 0.929 . S
C2580 H2574 0.930 . S
C2580 C2581 1.367 . S
C2580 C2588 1.378 . S
C2581 C2580 1.367 . S
C2581 C2589 1.433 . S
C2582 H2578 0.929 . S
C2582 C2584 1.378 . S
C2582 C2586 1.350 . S
C2583 C2586 1.463 . S
C2583 C2588 1.350 . S
C2583 N2591 1.427 . S
C2584 H2575 0.930 . S
C2584 C2582 1.378 . S
C2584 C2585 1.367 . S
C2585 C2584 1.367 . S
C2585 C2587 1.433 . S
C2586 C2582 1.350 . S
C2586 C2583 1.463 . S
C2586 N2590 1.427 . S
C2587 H2577 0.929 . S
C2587 C2585 1.433 . S
C2587 N2590 1.384 . S
C2588 H2579 0.929 . S
C2588 C2580 1.378 . S
C2588 C2583 1.350 . S
C2589 H2576 0.929 . S
C2589 C2581 1.433 . S
C2589 N2591 1.384 . S
N2590 C2586 1.427 . S
N2590 C2587 1.384 . S
N2591 C2583 1.427 . S
N2591 C2589 1.384 . S
H2592 C2598 0.930 . S
H2593 C2602 0.930 . S
H2594 C2607 0.929 . S
H2595 C2605 0.929 . S
H2596 C2600 0.929 . S
H2597 C2606 0.929 . S
C2598 H2592 0.930 . S
C2598 C2599 1.367 . S
C2598 C2606 1.378 . S
C2599 C2598 1.367 . S
C2599 C2607 1.433 . S
C2600 H2596 0.929 . S
C2600 C2602 1.378 . S
C2600 C2604 1.350 . S
C2601 C2604 1.463 . S
C2601 C2606 1.350 . S
C2601 N2609 1.427 . S
C2602 H2593 0.930 . S
C2602 C2600 1.378 . S
C2602 C2603 1.367 . S
C2603 C2602 1.367 . S
C2603 C2605 1.433 . S
C2604 C2600 1.350 . S
C2604 C2601 1.463 . S
C2604 N2608 1.427 . S
C2605 H2595 0.929 . S
C2605 C2603 1.433 . S
C2605 N2608 1.384 . S
C2606 H2597 0.929 . S
C2606 C2598 1.378 . S
C2606 C2601 1.350 . S
C2607 H2594 0.929 . S
C2607 C2599 1.433 . S
C2607 N2609 1.384 . S
N2608 C2604 1.427 . S
N2608 C2605 1.384 . S
N2609 C2601 1.427 . S
N2609 C2607 1.384 . S
H2610 C2616 0.930 . S
H2611 C2620 0.930 . S
H2612 C2625 0.929 . S
H2613 C2623 0.929 . S
H2614 C2618 0.929 . S
H2615 C2624 0.929 . S
C2616 H2610 0.930 . S
C2616 C2617 1.367 . S
C2616 C2624 1.378 . S
C2617 C2616 1.367 . S
C2617 C2625 1.433 . S
C2618 H2614 0.929 . S
C2618 C2620 1.378 . S
C2618 C2622 1.350 . S
C2619 C2622 1.463 . S
C2619 C2624 1.350 . S
C2619 N2627 1.427 . S
C2620 H2611 0.930 . S
C2620 C2618 1.378 . S
C2620 C2621 1.367 . S
C2621 C2620 1.367 . S
C2621 C2623 1.433 . S
C2622 C2618 1.350 . S
C2622 C2619 1.463 . S
C2622 N2626 1.427 . S
C2623 H2613 0.929 . S
C2623 C2621 1.433 . S
C2623 N2626 1.384 . S
C2624 H2615 0.929 . S
C2624 C2616 1.378 . S
C2624 C2619 1.350 . S
C2625 H2612 0.929 . S
C2625 C2617 1.433 . S
C2625 N2627 1.384 . S
N2626 C2622 1.427 . S
N2626 C2623 1.384 . S
N2627 C2619 1.427 . S
N2627 C2625 1.384 . S
H2628 C2634 0.930 . S
H2629 C2638 0.930 . S
H2630 C2643 0.929 . S
H2631 C2641 0.929 . S
H2632 C2636 0.929 . S
H2633 C2642 0.929 . S
C2634 H2628 0.930 . S
C2634 C2635 1.367 . S
C2634 C2642 1.378 . S
C2635 C2634 1.367 . S
C2635 C2643 1.433 . S
C2636 H2632 0.929 . S
C2636 C2638 1.378 . S
C2636 C2640 1.350 . S
C2637 C2640 1.463 . S
C2637 C2642 1.350 . S
C2637 N2645 1.427 . S
C2638 H2629 0.930 . S
C2638 C2636 1.378 . S
C2638 C2639 1.367 . S
C2639 C2638 1.367 . S
C2639 C2641 1.433 . S
C2640 C2636 1.350 . S
C2640 C2637 1.463 . S
C2640 N2644 1.427 . S
C2641 H2631 0.929 . S
C2641 C2639 1.433 . S
C2641 N2644 1.384 . S
C2642 H2633 0.929 . S
C2642 C2634 1.378 . S
C2642 C2637 1.350 . S
C2643 H2630 0.929 . S
C2643 C2635 1.433 . S
C2643 N2645 1.384 . S
N2644 C2640 1.427 . S
N2644 C2641 1.384 . S
N2645 C2637 1.427 . S
N2645 C2643 1.384 . S
H2646 C2652 0.930 . S
H2647 C2656 0.930 . S
H2648 C2661 0.929 . S
H2649 C2659 0.929 . S
H2650 C2654 0.929 . S
H2651 C2660 0.929 . S
C2652 H2646 0.930 . S
C2652 C2653 1.367 . S
C2652 C2660 1.378 . S
C2653 C2652 1.367 . S
C2653 C2661 1.433 . S
C2654 H2650 0.929 . S
C2654 C2656 1.378 . S
C2654 C2658 1.350 . S
C2655 C2658 1.463 . S
C2655 C2660 1.350 . S
C2655 N2663 1.427 . S
C2656 H2647 0.930 . S
C2656 C2654 1.378 . S
C2656 C2657 1.367 . S
C2657 C2656 1.367 . S
C2657 C2659 1.433 . S
C2658 C2654 1.350 . S
C2658 C2655 1.463 . S
C2658 N2662 1.427 . S
C2659 H2649 0.929 . S
C2659 C2657 1.433 . S
C2659 N2662 1.384 . S
C2660 H2651 0.929 . S
C2660 C2652 1.378 . S
C2660 C2655 1.350 . S
C2661 H2648 0.929 . S
C2661 C2653 1.433 . S
C2661 N2663 1.384 . S
N2662 C2658 1.427 . S
N2662 C2659 1.384 . S
N2663 C2655 1.427 . S
N2663 C2661 1.384 . S
H2664 C2670 0.930 . S
H2665 C2674 0.930 . S
H2666 C2679 0.929 . S
H2667 C2677 0.929 . S
H2668 C2672 0.929 . S
H2669 C2678 0.929 . S
C2670 H2664 0.930 . S
C2670 C2671 1.367 . S
C2670 C2678 1.378 . S
C2671 C2670 1.367 . S
C2671 C2679 1.433 . S
C2672 H2668 0.929 . S
C2672 C2674 1.378 . S
C2672 C2676 1.350 . S
C2673 C2676 1.463 . S
C2673 C2678 1.350 . S
C2673 N2681 1.427 . S
C2674 H2665 0.930 . S
C2674 C2672 1.378 . S
C2674 C2675 1.367 . S
C2675 C2674 1.367 . S
C2675 C2677 1.433 . S
C2676 C2672 1.350 . S
C2676 C2673 1.463 . S
C2676 N2680 1.427 . S
C2677 H2667 0.929 . S
C2677 C2675 1.433 . S
C2677 N2680 1.384 . S
C2678 H2669 0.929 . S
C2678 C2670 1.378 . S
C2678 C2673 1.350 . S
C2679 H2666 0.929 . S
C2679 C2671 1.433 . S
C2679 N2681 1.384 . S
N2680 C2676 1.427 . S
N2680 C2677 1.384 . S
N2681 C2673 1.427 . S
N2681 C2679 1.384 . S
H2682 C2688 0.930 . S
H2683 C2692 0.930 . S
H2684 C2697 0.929 . S
H2685 C2695 0.929 . S
H2686 C2690 0.929 . S
H2687 C2696 0.929 . S
C2688 H2682 0.930 . S
C2688 C2689 1.367 . S
C2688 C2696 1.378 . S
C2689 C2688 1.367 . S
C2689 C2697 1.433 . S
C2690 H2686 0.929 . S
C2690 C2692 1.378 . S
C2690 C2694 1.350 . S
C2691 C2694 1.463 . S
C2691 C2696 1.350 . S
C2691 N2699 1.427 . S
C2692 H2683 0.930 . S
C2692 C2690 1.378 . S
C2692 C2693 1.367 . S
C2693 C2692 1.367 . S
C2693 C2695 1.433 . S
C2694 C2690 1.350 . S
C2694 C2691 1.463 . S
C2694 N2698 1.427 . S
C2695 H2685 0.929 . S
C2695 C2693 1.433 . S
C2695 N2698 1.384 . S
C2696 H2687 0.929 . S
C2696 C2688 1.378 . S
C2696 C2691 1.350 . S
C2697 H2684 0.929 . S
C2697 C2689 1.433 . S
C2697 N2699 1.384 . S
N2698 C2694 1.427 . S
N2698 C2695 1.384 . S
N2699 C2691 1.427 . S
N2699 C2697 1.384 . S
H2700 C2706 0.930 . S
H2701 C2710 0.930 . S
H2702 C2715 0.929 . S
H2703 C2713 0.929 . S
H2704 C2708 0.929 . S
H2705 C2714 0.929 . S
C2706 H2700 0.930 . S
C2706 C2707 1.367 . S
C2706 C2714 1.378 . S
C2707 C2706 1.367 . S
C2707 C2715 1.433 . S
C2708 H2704 0.929 . S
C2708 C2710 1.378 . S
C2708 C2712 1.350 . S
C2709 C2712 1.463 . S
C2709 C2714 1.350 . S
C2709 N2717 1.427 . S
C2710 H2701 0.930 . S
C2710 C2708 1.378 . S
C2710 C2711 1.367 . S
C2711 C2710 1.367 . S
C2711 C2713 1.433 . S
C2712 C2708 1.350 . S
C2712 C2709 1.463 . S
C2712 N2716 1.427 . S
C2713 H2703 0.929 . S
C2713 C2711 1.433 . S
C2713 N2716 1.384 . S
C2714 H2705 0.929 . S
C2714 C2706 1.378 . S
C2714 C2709 1.350 . S
C2715 H2702 0.929 . S
C2715 C2707 1.433 . S
C2715 N2717 1.384 . S
N2716 C2712 1.427 . S
N2716 C2713 1.384 . S
N2717 C2709 1.427 . S
N2717 C2715 1.384 . S
H2718 C2724 0.930 . S
H2719 C2728 0.930 . S
H2720 C2733 0.929 . S
H2721 C2731 0.929 . S
H2722 C2726 0.929 . S
H2723 C2732 0.929 . S
C2724 H2718 0.930 . S
C2724 C2725 1.367 . S
C2724 C2732 1.378 . S
C2725 C2724 1.367 . S
C2725 C2733 1.433 . S
C2726 H2722 0.929 . S
C2726 C2728 1.378 . S
C2726 C2730 1.350 . S
C2727 C2730 1.463 . S
C2727 C2732 1.350 . S
C2727 N2735 1.427 . S
C2728 H2719 0.930 . S
C2728 C2726 1.378 . S
C2728 C2729 1.367 . S
C2729 C2728 1.367 . S
C2729 C2731 1.433 . S
C2730 C2726 1.350 . S
C2730 C2727 1.463 . S
C2730 N2734 1.427 . S
C2731 H2721 0.929 . S
C2731 C2729 1.433 . S
C2731 N2734 1.384 . S
C2732 H2723 0.929 . S
C2732 C2724 1.378 . S
C2732 C2727 1.350 . S
C2733 H2720 0.929 . S
C2733 C2725 1.433 . S
C2733 N2735 1.384 . S
N2734 C2730 1.427 . S
N2734 C2731 1.384 . S
N2735 C2727 1.427 . S
N2735 C2733 1.384 . S
H2736 C2742 0.930 . S
H2737 C2746 0.930 . S
H2738 C2751 0.929 . S
H2739 C2749 0.929 . S
H2740 C2744 0.929 . S
H2741 C2750 0.929 . S
C2742 H2736 0.930 . S
C2742 C2743 1.367 . S
C2742 C2750 1.378 . S
C2743 C2742 1.367 . S
C2743 C2751 1.433 . S
C2744 H2740 0.929 . S
C2744 C2746 1.378 . S
C2744 C2748 1.350 . S
C2745 C2748 1.463 . S
C2745 C2750 1.350 . S
C2745 N2753 1.427 . S
C2746 H2737 0.930 . S
C2746 C2744 1.378 . S
C2746 C2747 1.367 . S
C2747 C2746 1.367 . S
C2747 C2749 1.433 . S
C2748 C2744 1.350 . S
C2748 C2745 1.463 . S
C2748 N2752 1.427 . S
C2749 H2739 0.929 . S
C2749 C2747 1.433 . S
C2749 N2752 1.384 . S
C2750 H2741 0.929 . S
C2750 C2742 1.378 . S
C2750 C2745 1.350 . S
C2751 H2738 0.929 . S
C2751 C2743 1.433 . S
C2751 N2753 1.384 . S
N2752 C2748 1.427 . S
N2752 C2749 1.384 . S
N2753 C2745 1.427 . S
N2753 C2751 1.384 . S
H2754 C2760 0.930 . S
H2755 C2764 0.930 . S
H2756 C2769 0.929 . S
H2757 C2767 0.929 . S
H2758 C2762 0.929 . S
H2759 C2768 0.929 . S
C2760 H2754 0.930 . S
C2760 C2761 1.367 . S
C2760 C2768 1.378 . S
C2761 C2760 1.367 . S
C2761 C2769 1.433 . S
C2762 H2758 0.929 . S
C2762 C2764 1.378 . S
C2762 C2766 1.350 . S
C2763 C2766 1.463 . S
C2763 C2768 1.350 . S
C2763 N2771 1.427 . S
C2764 H2755 0.930 . S
C2764 C2762 1.378 . S
C2764 C2765 1.367 . S
C2765 C2764 1.367 . S
C2765 C2767 1.433 . S
C2766 C2762 1.350 . S
C2766 C2763 1.463 . S
C2766 N2770 1.427 . S
C2767 H2757 0.929 . S
C2767 C2765 1.433 . S
C2767 N2770 1.384 . S
C2768 H2759 0.929 . S
C2768 C2760 1.378 . S
C2768 C2763 1.350 . S
C2769 H2756 0.929 . S
C2769 C2761 1.433 . S
C2769 N2771 1.384 . S
N2770 C2766 1.427 . S
N2770 C2767 1.384 . S
N2771 C2763 1.427 . S
N2771 C2769 1.384 . S
H2772 C2778 0.930 . S
H2773 C2782 0.930 . S
H2774 C2787 0.929 . S
H2775 C2785 0.929 . S
H2776 C2780 0.929 . S
H2777 C2786 0.929 . S
C2778 H2772 0.930 . S
C2778 C2779 1.367 . S
C2778 C2786 1.378 . S
C2779 C2778 1.367 . S
C2779 C2787 1.433 . S
C2780 H2776 0.929 . S
C2780 C2782 1.378 . S
C2780 C2784 1.350 . S
C2781 C2784 1.463 . S
C2781 C2786 1.350 . S
C2781 N2789 1.427 . S
C2782 H2773 0.930 . S
C2782 C2780 1.378 . S
C2782 C2783 1.367 . S
C2783 C2782 1.367 . S
C2783 C2785 1.433 . S
C2784 C2780 1.350 . S
C2784 C2781 1.463 . S
C2784 N2788 1.427 . S
C2785 H2775 0.929 . S
C2785 C2783 1.433 . S
C2785 N2788 1.384 . S
C2786 H2777 0.929 . S
C2786 C2778 1.378 . S
C2786 C2781 1.350 . S
C2787 H2774 0.929 . S
C2787 C2779 1.433 . S
C2787 N2789 1.384 . S
N2788 C2784 1.427 . S
N2788 C2785 1.384 . S
N2789 C2781 1.427 . S
N2789 C2787 1.384 . S
H2790 C2796 0.930 . S
H2791 C2800 0.930 . S
H2792 C2805 0.929 . S
H2793 C2803 0.929 . S
H2794 C2798 0.929 . S
H2795 C2804 0.929 . S
C2796 H2790 0.930 . S
C2796 C2797 1.367 . S
C2796 C2804 1.378 . S
C2797 C2796 1.367 . S
C2797 C2805 1.433 . S
C2798 H2794 0.929 . S
C2798 C2800 1.378 . S
C2798 C2802 1.350 . S
C2799 C2802 1.463 . S
C2799 C2804 1.350 . S
C2799 N2807 1.427 . S
C2800 H2791 0.930 . S
C2800 C2798 1.378 . S
C2800 C2801 1.367 . S
C2801 C2800 1.367 . S
C2801 C2803 1.433 . S
C2802 C2798 1.350 . S
C2802 C2799 1.463 . S
C2802 N2806 1.427 . S
C2803 H2793 0.929 . S
C2803 C2801 1.433 . S
C2803 N2806 1.384 . S
C2804 H2795 0.929 . S
C2804 C2796 1.378 . S
C2804 C2799 1.350 . S
C2805 H2792 0.929 . S
C2805 C2797 1.433 . S
C2805 N2807 1.384 . S
N2806 C2802 1.427 . S
N2806 C2803 1.384 . S
N2807 C2799 1.427 . S
N2807 C2805 1.384 . S
H2808 C2814 0.930 . S
H2809 C2818 0.930 . S
H2810 C2823 0.929 . S
H2811 C2821 0.929 . S
H2812 C2816 0.929 . S
H2813 C2822 0.929 . S
C2814 H2808 0.930 . S
C2814 C2815 1.367 . S
C2814 C2822 1.378 . S
C2815 C2814 1.367 . S
C2815 C2823 1.433 . S
C2816 H2812 0.929 . S
C2816 C2818 1.378 . S
C2816 C2820 1.350 . S
C2817 C2820 1.463 . S
C2817 C2822 1.350 . S
C2817 N2825 1.427 . S
C2818 H2809 0.930 . S
C2818 C2816 1.378 . S
C2818 C2819 1.367 . S
C2819 C2818 1.367 . S
C2819 C2821 1.433 . S
C2820 C2816 1.350 . S
C2820 C2817 1.463 . S
C2820 N2824 1.427 . S
C2821 H2811 0.929 . S
C2821 C2819 1.433 . S
C2821 N2824 1.384 . S
C2822 H2813 0.929 . S
C2822 C2814 1.378 . S
C2822 C2817 1.350 . S
C2823 H2810 0.929 . S
C2823 C2815 1.433 . S
C2823 N2825 1.384 . S
N2824 C2820 1.427 . S
N2824 C2821 1.384 . S
N2825 C2817 1.427 . S
N2825 C2823 1.384 . S
H2826 C2832 0.930 . S
H2827 C2836 0.930 . S
H2828 C2841 0.929 . S
H2829 C2839 0.929 . S
H2830 C2834 0.929 . S
H2831 C2840 0.929 . S
C2832 H2826 0.930 . S
C2832 C2833 1.367 . S
C2832 C2840 1.378 . S
C2833 C2832 1.367 . S
C2833 C2841 1.433 . S
C2834 H2830 0.929 . S
C2834 C2836 1.378 . S
C2834 C2838 1.350 . S
C2835 C2838 1.463 . S
C2835 C2840 1.350 . S
C2835 N2843 1.427 . S
C2836 H2827 0.930 . S
C2836 C2834 1.378 . S
C2836 C2837 1.367 . S
C2837 C2836 1.367 . S
C2837 C2839 1.433 . S
C2838 C2834 1.350 . S
C2838 C2835 1.463 . S
C2838 N2842 1.427 . S
C2839 H2829 0.929 . S
C2839 C2837 1.433 . S
C2839 N2842 1.384 . S
C2840 H2831 0.929 . S
C2840 C2832 1.378 . S
C2840 C2835 1.350 . S
C2841 H2828 0.929 . S
C2841 C2833 1.433 . S
C2841 N2843 1.384 . S
N2842 C2838 1.427 . S
N2842 C2839 1.384 . S
N2843 C2835 1.427 . S
N2843 C2841 1.384 . S
H2844 C2850 0.930 . S
H2845 C2854 0.930 . S
H2846 C2859 0.929 . S
H2847 C2857 0.929 . S
H2848 C2852 0.929 . S
H2849 C2858 0.929 . S
C2850 H2844 0.930 . S
C2850 C2851 1.367 . S
C2850 C2858 1.378 . S
C2851 C2850 1.367 . S
C2851 C2859 1.433 . S
C2852 H2848 0.929 . S
C2852 C2854 1.378 . S
C2852 C2856 1.350 . S
C2853 C2856 1.463 . S
C2853 C2858 1.350 . S
C2853 N2861 1.427 . S
C2854 H2845 0.930 . S
C2854 C2852 1.378 . S
C2854 C2855 1.367 . S
C2855 C2854 1.367 . S
C2855 C2857 1.433 . S
C2856 C2852 1.350 . S
C2856 C2853 1.463 . S
C2856 N2860 1.427 . S
C2857 H2847 0.929 . S
C2857 C2855 1.433 . S
C2857 N2860 1.384 . S
C2858 H2849 0.929 . S
C2858 C2850 1.378 . S
C2858 C2853 1.350 . S
C2859 H2846 0.929 . S
C2859 C2851 1.433 . S
C2859 N2861 1.384 . S
N2860 C2856 1.427 . S
N2860 C2857 1.384 . S
N2861 C2853 1.427 . S
N2861 C2859 1.384 . S
H2862 C2868 0.930 . S
H2863 C2872 0.930 . S
H2864 C2877 0.929 . S
H2865 C2875 0.929 . S
H2866 C2870 0.929 . S
H2867 C2876 0.929 . S
C2868 H2862 0.930 . S
C2868 C2869 1.367 . S
C2868 C2876 1.378 . S
C2869 C2868 1.367 . S
C2869 C2877 1.433 . S
C2870 H2866 0.929 . S
C2870 C2872 1.378 . S
C2870 C2874 1.350 . S
C2871 C2874 1.463 . S
C2871 C2876 1.350 . S
C2871 N2879 1.427 . S
C2872 H2863 0.930 . S
C2872 C2870 1.378 . S
C2872 C2873 1.367 . S
C2873 C2872 1.367 . S
C2873 C2875 1.433 . S
C2874 C2870 1.350 . S
C2874 C2871 1.463 . S
C2874 N2878 1.427 . S
C2875 H2865 0.929 . S
C2875 C2873 1.433 . S
C2875 N2878 1.384 . S
C2876 H2867 0.929 . S
C2876 C2868 1.378 . S
C2876 C2871 1.350 . S
C2877 H2864 0.929 . S
C2877 C2869 1.433 . S
C2877 N2879 1.384 . S
N2878 C2874 1.427 . S
N2878 C2875 1.384 . S
N2879 C2871 1.427 . S
N2879 C2877 1.384 . S
H2880 C2886 0.930 . S
H2881 C2890 0.930 . S
H2882 C2895 0.929 . S
H2883 C2893 0.929 . S
H2884 C2888 0.929 . S
H2885 C2894 0.929 . S
C2886 H2880 0.930 . S
C2886 C2887 1.367 . S
C2886 C2894 1.378 . S
C2887 C2886 1.367 . S
C2887 C2895 1.433 . S
C2888 H2884 0.929 . S
C2888 C2890 1.378 . S
C2888 C2892 1.350 . S
C2889 C2892 1.463 . S
C2889 C2894 1.350 . S
C2889 N2897 1.427 . S
C2890 H2881 0.930 . S
C2890 C2888 1.378 . S
C2890 C2891 1.367 . S
C2891 C2890 1.367 . S
C2891 C2893 1.433 . S
C2892 C2888 1.350 . S
C2892 C2889 1.463 . S
C2892 N2896 1.427 . S
C2893 H2883 0.929 . S
C2893 C2891 1.433 . S
C2893 N2896 1.384 . S
C2894 H2885 0.929 . S
C2894 C2886 1.378 . S
C2894 C2889 1.350 . S
C2895 H2882 0.929 . S
C2895 C2887 1.433 . S
C2895 N2897 1.384 . S
N2896 C2892 1.427 . S
N2896 C2893 1.384 . S
N2897 C2889 1.427 . S
N2897 C2895 1.384 . S
H2898 C2904 0.930 . S
H2899 C2908 0.930 . S
H2900 C2913 0.929 . S
H2901 C2911 0.929 . S
H2902 C2906 0.929 . S
H2903 C2912 0.929 . S
C2904 H2898 0.930 . S
C2904 C2905 1.367 . S
C2904 C2912 1.378 . S
C2905 C2904 1.367 . S
C2905 C2913 1.433 . S
C2906 H2902 0.929 . S
C2906 C2908 1.378 . S
C2906 C2910 1.350 . S
C2907 C2910 1.463 . S
C2907 C2912 1.350 . S
C2907 N2915 1.427 . S
C2908 H2899 0.930 . S
C2908 C2906 1.378 . S
C2908 C2909 1.367 . S
C2909 C2908 1.367 . S
C2909 C2911 1.433 . S
C2910 C2906 1.350 . S
C2910 C2907 1.463 . S
C2910 N2914 1.427 . S
C2911 H2901 0.929 . S
C2911 C2909 1.433 . S
C2911 N2914 1.384 . S
C2912 H2903 0.929 . S
C2912 C2904 1.378 . S
C2912 C2907 1.350 . S
C2913 H2900 0.929 . S
C2913 C2905 1.433 . S
C2913 N2915 1.384 . S
N2914 C2910 1.427 . S
N2914 C2911 1.384 . S
N2915 C2907 1.427 . S
N2915 C2913 1.384 . S
H2916 C2922 0.930 . S
H2917 C2926 0.930 . S
H2918 C2931 0.929 . S
H2919 C2929 0.929 . S
H2920 C2924 0.929 . S
H2921 C2930 0.929 . S
C2922 H2916 0.930 . S
C2922 C2923 1.367 . S
C2922 C2930 1.378 . S
C2923 C2922 1.367 . S
C2923 C2931 1.433 . S
C2924 H2920 0.929 . S
C2924 C2926 1.378 . S
C2924 C2928 1.350 . S
C2925 C2928 1.463 . S
C2925 C2930 1.350 . S
C2925 N2933 1.427 . S
C2926 H2917 0.930 . S
C2926 C2924 1.378 . S
C2926 C2927 1.367 . S
C2927 C2926 1.367 . S
C2927 C2929 1.433 . S
C2928 C2924 1.350 . S
C2928 C2925 1.463 . S
C2928 N2932 1.427 . S
C2929 H2919 0.929 . S
C2929 C2927 1.433 . S
C2929 N2932 1.384 . S
C2930 H2921 0.929 . S
C2930 C2922 1.378 . S
C2930 C2925 1.350 . S
C2931 H2918 0.929 . S
C2931 C2923 1.433 . S
C2931 N2933 1.384 . S
N2932 C2928 1.427 . S
N2932 C2929 1.384 . S
N2933 C2925 1.427 . S
N2933 C2931 1.384 . S
H2934 C2940 0.930 . S
H2935 C2944 0.930 . S
H2936 C2949 0.929 . S
H2937 C2947 0.929 . S
H2938 C2942 0.929 . S
H2939 C2948 0.929 . S
C2940 H2934 0.930 . S
C2940 C2941 1.367 . S
C2940 C2948 1.378 . S
C2941 C2940 1.367 . S
C2941 C2949 1.433 . S
C2942 H2938 0.929 . S
C2942 C2944 1.378 . S
C2942 C2946 1.350 . S
C2943 C2946 1.463 . S
C2943 C2948 1.350 . S
C2943 N2951 1.427 . S
C2944 H2935 0.930 . S
C2944 C2942 1.378 . S
C2944 C2945 1.367 . S
C2945 C2944 1.367 . S
C2945 C2947 1.433 . S
C2946 C2942 1.350 . S
C2946 C2943 1.463 . S
C2946 N2950 1.427 . S
C2947 H2937 0.929 . S
C2947 C2945 1.433 . S
C2947 N2950 1.384 . S
C2948 H2939 0.929 . S
C2948 C2940 1.378 . S
C2948 C2943 1.350 . S
C2949 H2936 0.929 . S
C2949 C2941 1.433 . S
C2949 N2951 1.384 . S
N2950 C2946 1.427 . S
N2950 C2947 1.384 . S
N2951 C2943 1.427 . S
N2951 C2949 1.384 . S
H2952 C2958 0.930 . S
H2953 C2962 0.930 . S
H2954 C2967 0.929 . S
H2955 C2965 0.929 . S
H2956 C2960 0.929 . S
H2957 C2966 0.929 . S
C2958 H2952 0.930 . S
C2958 C2959 1.367 . S
C2958 C2966 1.378 . S
C2959 C2958 1.367 . S
C2959 C2967 1.433 . S
C2960 H2956 0.929 . S
C2960 C2962 1.378 . S
C2960 C2964 1.350 . S
C2961 C2964 1.463 . S
C2961 C2966 1.350 . S
C2961 N2969 1.427 . S
C2962 H2953 0.930 . S
C2962 C2960 1.378 . S
C2962 C2963 1.367 . S
C2963 C2962 1.367 . S
C2963 C2965 1.433 . S
C2964 C2960 1.350 . S
C2964 C2961 1.463 . S
C2964 N2968 1.427 . S
C2965 H2955 0.929 . S
C2965 C2963 1.433 . S
C2965 N2968 1.384 . S
C2966 H2957 0.929 . S
C2966 C2958 1.378 . S
C2966 C2961 1.350 . S
C2967 H2954 0.929 . S
C2967 C2959 1.433 . S
C2967 N2969 1.384 . S
N2968 C2964 1.427 . S
N2968 C2965 1.384 . S
N2969 C2961 1.427 . S
N2969 C2967 1.384 . S
H2970 C2976 0.930 . S
H2971 C2980 0.930 . S
H2972 C2985 0.929 . S
H2973 C2983 0.929 . S
H2974 C2978 0.929 . S
H2975 C2984 0.929 . S
C2976 H2970 0.930 . S
C2976 C2977 1.367 . S
C2976 C2984 1.378 . S
C2977 C2976 1.367 . S
C2977 C2985 1.433 . S
C2978 H2974 0.929 . S
C2978 C2980 1.378 . S
C2978 C2982 1.350 . S
C2979 C2982 1.463 . S
C2979 C2984 1.350 . S
C2979 N2987 1.427 . S
C2980 H2971 0.930 . S
C2980 C2978 1.378 . S
C2980 C2981 1.367 . S
C2981 C2980 1.367 . S
C2981 C2983 1.433 . S
C2982 C2978 1.350 . S
C2982 C2979 1.463 . S
C2982 N2986 1.427 . S
C2983 H2973 0.929 . S
C2983 C2981 1.433 . S
C2983 N2986 1.384 . S
C2984 H2975 0.929 . S
C2984 C2976 1.378 . S
C2984 C2979 1.350 . S
C2985 H2972 0.929 . S
C2985 C2977 1.433 . S
C2985 N2987 1.384 . S
N2986 C2982 1.427 . S
N2986 C2983 1.384 . S
N2987 C2979 1.427 . S
N2987 C2985 1.384 . S
H2988 C2994 0.930 . S
H2989 C2998 0.930 . S
H2990 C3003 0.929 . S
H2991 C3001 0.929 . S
H2992 C2996 0.929 . S
H2993 C3002 0.929 . S
C2994 H2988 0.930 . S
C2994 C2995 1.367 . S
C2994 C3002 1.378 . S
C2995 C2994 1.367 . S
C2995 C3003 1.433 . S
C2996 H2992 0.929 . S
C2996 C2998 1.378 . S
C2996 C3000 1.350 . S
C2997 C3000 1.463 . S
C2997 C3002 1.350 . S
C2997 N3005 1.427 . S
C2998 H2989 0.930 . S
C2998 C2996 1.378 . S
C2998 C2999 1.367 . S
C2999 C2998 1.367 . S
C2999 C3001 1.433 . S
C3000 C2996 1.350 . S
C3000 C2997 1.463 . S
C3000 N3004 1.427 . S
C3001 H2991 0.929 . S
C3001 C2999 1.433 . S
C3001 N3004 1.384 . S
C3002 H2993 0.929 . S
C3002 C2994 1.378 . S
C3002 C2997 1.350 . S
C3003 H2990 0.929 . S
C3003 C2995 1.433 . S
C3003 N3005 1.384 . S
N3004 C3000 1.427 . S
N3004 C3001 1.384 . S
N3005 C2997 1.427 . S
N3005 C3003 1.384 . S
H3006 C3012 0.930 . S
H3007 C3016 0.930 . S
H3008 C3021 0.929 . S
H3009 C3019 0.929 . S
H3010 C3014 0.929 . S
H3011 C3020 0.929 . S
C3012 H3006 0.930 . S
C3012 C3013 1.367 . S
C3012 C3020 1.378 . S
C3013 C3012 1.367 . S
C3013 C3021 1.433 . S
C3014 H3010 0.929 . S
C3014 C3016 1.378 . S
C3014 C3018 1.350 . S
C3015 C3018 1.463 . S
C3015 C3020 1.350 . S
C3015 N3023 1.427 . S
C3016 H3007 0.930 . S
C3016 C3014 1.378 . S
C3016 C3017 1.367 . S
C3017 C3016 1.367 . S
C3017 C3019 1.433 . S
C3018 C3014 1.350 . S
C3018 C3015 1.463 . S
C3018 N3022 1.427 . S
C3019 H3009 0.929 . S
C3019 C3017 1.433 . S
C3019 N3022 1.384 . S
C3020 H3011 0.929 . S
C3020 C3012 1.378 . S
C3020 C3015 1.350 . S
C3021 H3008 0.929 . S
C3021 C3013 1.433 . S
C3021 N3023 1.384 . S
N3022 C3018 1.427 . S
N3022 C3019 1.384 . S
N3023 C3015 1.427 . S
N3023 C3021 1.384 . S
H3024 C3030 0.930 1_554 S
H3025 C3034 0.930 . S
H3026 C3039 0.929 . S
H3027 C3037 0.929 . S
H3028 C3032 0.929 . S
H3029 C3038 0.929 . S
C3030 H3024 0.930 1_556 S
C3030 C3031 1.367 . S
C3030 C3038 1.378 . S
C3031 C3030 1.367 . S
C3031 C3039 1.433 . S
C3032 H3028 0.929 . S
C3032 C3034 1.378 . S
C3032 C3036 1.350 . S
C3033 C3036 1.463 . S
C3033 C3038 1.350 . S
C3033 N3041 1.427 . S
C3034 H3025 0.930 . S
C3034 C3032 1.378 . S
C3034 C3035 1.367 . S
C3035 C3034 1.367 . S
C3035 C3037 1.433 . S
C3036 C3032 1.350 . S
C3036 C3033 1.463 . S
C3036 N3040 1.427 . S
C3037 H3027 0.929 . S
C3037 C3035 1.433 . S
C3037 N3040 1.384 . S
C3038 H3029 0.929 . S
C3038 C3030 1.378 . S
C3038 C3033 1.350 . S
C3039 H3026 0.929 . S
C3039 C3031 1.433 . S
C3039 N3041 1.384 . S
N3040 C3036 1.427 . S
N3040 C3037 1.384 . S
N3041 C3033 1.427 . S
N3041 C3039 1.384 . S
H3042 C3048 0.930 1_554 S
H3043 C3052 0.930 . S
H3044 C3057 0.929 . S
H3045 C3055 0.929 . S
H3046 C3050 0.929 . S
H3047 C3056 0.929 . S
C3048 H3042 0.930 1_556 S
C3048 C3049 1.367 . S
C3048 C3056 1.378 . S
C3049 C3048 1.367 . S
C3049 C3057 1.433 . S
C3050 H3046 0.929 . S
C3050 C3052 1.378 . S
C3050 C3054 1.350 . S
C3051 C3054 1.463 . S
C3051 C3056 1.350 . S
C3051 N3059 1.427 . S
C3052 H3043 0.930 . S
C3052 C3050 1.378 . S
C3052 C3053 1.367 . S
C3053 C3052 1.367 . S
C3053 C3055 1.433 . S
C3054 C3050 1.350 . S
C3054 C3051 1.463 . S
C3054 N3058 1.427 . S
C3055 H3045 0.929 . S
C3055 C3053 1.433 . S
C3055 N3058 1.384 . S
C3056 H3047 0.929 . S
C3056 C3048 1.378 . S
C3056 C3051 1.350 . S
C3057 H3044 0.929 . S
C3057 C3049 1.433 . S
C3057 N3059 1.384 . S
N3058 C3054 1.427 . S
N3058 C3055 1.384 . S
N3059 C3051 1.427 . S
N3059 C3057 1.384 . S
H3060 C3066 0.930 1_554 S
H3061 C3070 0.930 . S
H3062 C3075 0.929 . S
H3063 C3073 0.929 . S
H3064 C3068 0.929 . S
H3065 C3074 0.929 . S
C3066 H3060 0.930 1_556 S
C3066 C3067 1.367 . S
C3066 C3074 1.378 . S
C3067 C3066 1.367 . S
C3067 C3075 1.433 . S
C3068 H3064 0.929 . S
C3068 C3070 1.378 . S
C3068 C3072 1.350 . S
C3069 C3072 1.463 . S
C3069 C3074 1.350 . S
C3069 N3077 1.427 . S
C3070 H3061 0.930 . S
C3070 C3068 1.378 . S
C3070 C3071 1.367 . S
C3071 C3070 1.367 . S
C3071 C3073 1.433 . S
C3072 C3068 1.350 . S
C3072 C3069 1.463 . S
C3072 N3076 1.427 . S
C3073 H3063 0.929 . S
C3073 C3071 1.433 . S
C3073 N3076 1.384 . S
C3074 H3065 0.929 . S
C3074 C3066 1.378 . S
C3074 C3069 1.350 . S
C3075 H3062 0.929 . S
C3075 C3067 1.433 . S
C3075 N3077 1.384 . S
N3076 C3072 1.427 . S
N3076 C3073 1.384 . S
N3077 C3069 1.427 . S
N3077 C3075 1.384 . S
H3078 C3084 0.930 . S
H3079 C3088 0.930 . S
H3080 C3093 0.929 . S
H3081 C3091 0.929 . S
H3082 C3086 0.929 . S
H3083 C3092 0.929 . S
C3084 H3078 0.930 . S
C3084 C3085 1.367 . S
C3084 C3092 1.378 . S
C3085 C3084 1.367 . S
C3085 C3093 1.433 . S
C3086 H3082 0.929 . S
C3086 C3088 1.378 . S
C3086 C3090 1.350 . S
C3087 C3090 1.463 . S
C3087 C3092 1.350 . S
C3087 N3095 1.427 . S
C3088 H3079 0.930 . S
C3088 C3086 1.378 . S
C3088 C3089 1.367 . S
C3089 C3088 1.367 . S
C3089 C3091 1.433 . S
C3090 C3086 1.350 . S
C3090 C3087 1.463 . S
C3090 N3094 1.427 . S
C3091 H3081 0.929 . S
C3091 C3089 1.433 . S
C3091 N3094 1.384 . S
C3092 H3083 0.929 . S
C3092 C3084 1.378 . S
C3092 C3087 1.350 . S
C3093 H3080 0.929 . S
C3093 C3085 1.433 . S
C3093 N3095 1.384 . S
N3094 C3090 1.427 . S
N3094 C3091 1.384 . S
N3095 C3087 1.427 . S
N3095 C3093 1.384 . S
H3096 C3102 0.930 . S
H3097 C3106 0.930 . S
H3098 C3111 0.929 . S
H3099 C3109 0.929 . S
H3100 C3104 0.929 . S
H3101 C3110 0.929 . S
C3102 H3096 0.930 . S
C3102 C3103 1.367 . S
C3102 C3110 1.378 . S
C3103 C3102 1.367 . S
C3103 C3111 1.433 . S
C3104 H3100 0.929 . S
C3104 C3106 1.378 . S
C3104 C3108 1.350 . S
C3105 C3108 1.463 . S
C3105 C3110 1.350 . S
C3105 N3113 1.427 . S
C3106 H3097 0.930 . S
C3106 C3104 1.378 . S
C3106 C3107 1.367 . S
C3107 C3106 1.367 . S
C3107 C3109 1.433 . S
C3108 C3104 1.350 . S
C3108 C3105 1.463 . S
C3108 N3112 1.427 . S
C3109 H3099 0.929 . S
C3109 C3107 1.433 . S
C3109 N3112 1.384 . S
C3110 H3101 0.929 . S
C3110 C3102 1.378 . S
C3110 C3105 1.350 . S
C3111 H3098 0.929 . S
C3111 C3103 1.433 . S
C3111 N3113 1.384 . S
N3112 C3108 1.427 . S
N3112 C3109 1.384 . S
N3113 C3105 1.427 . S
N3113 C3111 1.384 . S
H3114 C3120 0.930 . S
H3115 C3124 0.930 . S
H3116 C3129 0.929 . S
H3117 C3127 0.929 . S
H3118 C3122 0.929 . S
H3119 C3128 0.929 . S
C3120 H3114 0.930 . S
C3120 C3121 1.367 . S
C3120 C3128 1.378 . S
C3121 C3120 1.367 . S
C3121 C3129 1.433 . S
C3122 H3118 0.929 . S
C3122 C3124 1.378 . S
C3122 C3126 1.350 . S
C3123 C3126 1.463 . S
C3123 C3128 1.350 . S
C3123 N3131 1.427 . S
C3124 H3115 0.930 . S
C3124 C3122 1.378 . S
C3124 C3125 1.367 . S
C3125 C3124 1.367 . S
C3125 C3127 1.433 . S
C3126 C3122 1.350 . S
C3126 C3123 1.463 . S
C3126 N3130 1.427 . S
C3127 H3117 0.929 . S
C3127 C3125 1.433 . S
C3127 N3130 1.384 . S
C3128 H3119 0.929 . S
C3128 C3120 1.378 . S
C3128 C3123 1.350 . S
C3129 H3116 0.929 . S
C3129 C3121 1.433 . S
C3129 N3131 1.384 . S
N3130 C3126 1.427 . S
N3130 C3127 1.384 . S
N3131 C3123 1.427 . S
N3131 C3129 1.384 . S
H3132 C3138 0.930 . S
H3133 C3142 0.930 . S
H3134 C3147 0.929 . S
H3135 C3145 0.929 . S
H3136 C3140 0.929 . S
H3137 C3146 0.929 . S
C3138 H3132 0.930 . S
C3138 C3139 1.367 . S
C3138 C3146 1.378 . S
C3139 C3138 1.367 . S
C3139 C3147 1.433 . S
C3140 H3136 0.929 . S
C3140 C3142 1.378 . S
C3140 C3144 1.350 . S
C3141 C3144 1.463 . S
C3141 C3146 1.350 . S
C3141 N3149 1.427 . S
C3142 H3133 0.930 . S
C3142 C3140 1.378 . S
C3142 C3143 1.367 . S
C3143 C3142 1.367 . S
C3143 C3145 1.433 . S
C3144 C3140 1.350 . S
C3144 C3141 1.463 . S
C3144 N3148 1.427 . S
C3145 H3135 0.929 . S
C3145 C3143 1.433 . S
C3145 N3148 1.384 . S
C3146 H3137 0.929 . S
C3146 C3138 1.378 . S
C3146 C3141 1.350 . S
C3147 H3134 0.929 . S
C3147 C3139 1.433 . S
C3147 N3149 1.384 . S
N3148 C3144 1.427 . S
N3148 C3145 1.384 . S
N3149 C3141 1.427 . S
N3149 C3147 1.384 . S
H3150 C3156 0.930 . S
H3151 C3160 0.930 . S
H3152 C3165 0.929 . S
H3153 C3163 0.929 . S
H3154 C3158 0.929 . S
H3155 C3164 0.929 . S
C3156 H3150 0.930 . S
C3156 C3157 1.367 . S
C3156 C3164 1.378 . S
C3157 C3156 1.367 . S
C3157 C3165 1.433 . S
C3158 H3154 0.929 . S
C3158 C3160 1.378 . S
C3158 C3162 1.350 . S
C3159 C3162 1.463 . S
C3159 C3164 1.350 . S
C3159 N3167 1.427 . S
C3160 H3151 0.930 . S
C3160 C3158 1.378 . S
C3160 C3161 1.367 . S
C3161 C3160 1.367 . S
C3161 C3163 1.433 . S
C3162 C3158 1.350 . S
C3162 C3159 1.463 . S
C3162 N3166 1.427 . S
C3163 H3153 0.929 . S
C3163 C3161 1.433 . S
C3163 N3166 1.384 . S
C3164 H3155 0.929 . S
C3164 C3156 1.378 . S
C3164 C3159 1.350 . S
C3165 H3152 0.929 . S
C3165 C3157 1.433 . S
C3165 N3167 1.384 . S
N3166 C3162 1.427 . S
N3166 C3163 1.384 . S
N3167 C3159 1.427 . S
N3167 C3165 1.384 . S
H3168 C3174 0.930 . S
H3169 C3178 0.930 . S
H3170 C3183 0.929 . S
H3171 C3181 0.929 . S
H3172 C3176 0.929 . S
H3173 C3182 0.929 . S
C3174 H3168 0.930 . S
C3174 C3175 1.367 . S
C3174 C3182 1.378 . S
C3175 C3174 1.367 . S
C3175 C3183 1.433 . S
C3176 H3172 0.929 . S
C3176 C3178 1.378 . S
C3176 C3180 1.350 . S
C3177 C3180 1.463 . S
C3177 C3182 1.350 . S
C3177 N3185 1.427 . S
C3178 H3169 0.930 . S
C3178 C3176 1.378 . S
C3178 C3179 1.367 . S
C3179 C3178 1.367 . S
C3179 C3181 1.433 . S
C3180 C3176 1.350 . S
C3180 C3177 1.463 . S
C3180 N3184 1.427 . S
C3181 H3171 0.929 . S
C3181 C3179 1.433 . S
C3181 N3184 1.384 . S
C3182 H3173 0.929 . S
C3182 C3174 1.378 . S
C3182 C3177 1.350 . S
C3183 H3170 0.929 . S
C3183 C3175 1.433 . S
C3183 N3185 1.384 . S
N3184 C3180 1.427 . S
N3184 C3181 1.384 . S
N3185 C3177 1.427 . S
N3185 C3183 1.384 . S
H3186 C3192 0.930 . S
H3187 C3196 0.930 . S
H3188 C3201 0.929 . S
H3189 C3199 0.929 . S
H3190 C3194 0.929 . S
H3191 C3200 0.929 . S
C3192 H3186 0.930 . S
C3192 C3193 1.367 . S
C3192 C3200 1.378 . S
C3193 C3192 1.367 . S
C3193 C3201 1.433 . S
C3194 H3190 0.929 . S
C3194 C3196 1.378 . S
C3194 C3198 1.350 . S
C3195 C3198 1.463 . S
C3195 C3200 1.350 . S
C3195 N3203 1.427 . S
C3196 H3187 0.930 . S
C3196 C3194 1.378 . S
C3196 C3197 1.367 . S
C3197 C3196 1.367 . S
C3197 C3199 1.433 . S
C3198 C3194 1.350 . S
C3198 C3195 1.463 . S
C3198 N3202 1.427 . S
C3199 H3189 0.929 . S
C3199 C3197 1.433 . S
C3199 N3202 1.384 . S
C3200 H3191 0.929 . S
C3200 C3192 1.378 . S
C3200 C3195 1.350 . S
C3201 H3188 0.929 . S
C3201 C3193 1.433 . S
C3201 N3203 1.384 . S
N3202 C3198 1.427 . S
N3202 C3199 1.384 . S
N3203 C3195 1.427 . S
N3203 C3201 1.384 . S
H3204 C3210 0.930 . S
H3205 C3214 0.930 . S
H3206 C3219 0.929 . S
H3207 C3217 0.929 . S
H3208 C3212 0.929 . S
H3209 C3218 0.929 . S
C3210 H3204 0.930 . S
C3210 C3211 1.367 . S
C3210 C3218 1.378 . S
C3211 C3210 1.367 . S
C3211 C3219 1.433 . S
C3212 H3208 0.929 . S
C3212 C3214 1.378 . S
C3212 C3216 1.350 . S
C3213 C3216 1.463 . S
C3213 C3218 1.350 . S
C3213 N3221 1.427 . S
C3214 H3205 0.930 . S
C3214 C3212 1.378 . S
C3214 C3215 1.367 . S
C3215 C3214 1.367 . S
C3215 C3217 1.433 . S
C3216 C3212 1.350 . S
C3216 C3213 1.463 . S
C3216 N3220 1.427 . S
C3217 H3207 0.929 . S
C3217 C3215 1.433 . S
C3217 N3220 1.384 . S
C3218 H3209 0.929 . S
C3218 C3210 1.378 . S
C3218 C3213 1.350 . S
C3219 H3206 0.929 . S
C3219 C3211 1.433 . S
C3219 N3221 1.384 . S
N3220 C3216 1.427 . S
N3220 C3217 1.384 . S
N3221 C3213 1.427 . S
N3221 C3219 1.384 . S
H3222 C3228 0.930 1_655 S
H3223 C3232 0.930 . S
H3224 C3237 0.929 . S
H3225 C3235 0.929 . S
H3226 C3230 0.929 . S
H3227 C3236 0.929 1_655 S
C3228 H3222 0.930 1_455 S
C3228 C3229 1.367 . S
C3228 C3236 1.377 . S
C3229 C3228 1.367 . S
C3229 C3237 1.433 . S
C3230 H3226 0.929 . S
C3230 C3232 1.378 . S
C3230 C3234 1.350 . S
C3231 C3234 1.463 . S
C3231 C3236 1.350 . S
C3231 N3239 1.427 . S
C3232 H3223 0.930 . S
C3232 C3230 1.378 . S
C3232 C3233 1.367 . S
C3233 C3232 1.367 . S
C3233 C3235 1.433 1_455 S
C3234 C3230 1.350 . S
C3234 C3231 1.463 . S
C3234 N3238 1.427 1_455 S
C3235 H3225 0.929 . S
C3235 C3233 1.433 1_655 S
C3235 N3238 1.384 . S
C3236 H3227 0.929 1_455 S
C3236 C3228 1.377 . S
C3236 C3231 1.350 . S
C3237 H3224 0.929 . S
C3237 C3229 1.433 . S
C3237 N3239 1.384 . S
N3238 C3234 1.427 1_655 S
N3238 C3235 1.384 . S
N3239 C3231 1.427 . S
N3239 C3237 1.384 . S
H3240 C3246 0.930 . S
H3241 C3250 0.930 . S
H3242 C3255 0.929 . S
H3243 C3253 0.929 . S
H3244 C3248 0.929 . S
H3245 C3254 0.929 . S
C3246 H3240 0.930 . S
C3246 C3247 1.367 . S
C3246 C3254 1.378 . S
C3247 C3246 1.367 . S
C3247 C3255 1.433 . S
C3248 H3244 0.929 . S
C3248 C3250 1.378 . S
C3248 C3252 1.350 . S
C3249 C3252 1.463 . S
C3249 C3254 1.350 . S
C3249 N3257 1.427 . S
C3250 H3241 0.930 . S
C3250 C3248 1.378 . S
C3250 C3251 1.367 . S
C3251 C3250 1.367 . S
C3251 C3253 1.433 . S
C3252 C3248 1.350 . S
C3252 C3249 1.463 . S
C3252 N3256 1.427 . S
C3253 H3243 0.929 . S
C3253 C3251 1.433 . S
C3253 N3256 1.384 . S
C3254 H3245 0.929 . S
C3254 C3246 1.378 . S
C3254 C3249 1.350 . S
C3255 H3242 0.929 . S
C3255 C3247 1.433 . S
C3255 N3257 1.384 . S
N3256 C3252 1.427 . S
N3256 C3253 1.384 . S
N3257 C3249 1.427 . S
N3257 C3255 1.384 . S
H3258 C3264 0.930 1_545 S
H3259 C3268 0.930 . S
H3260 C3273 0.929 . S
H3261 C3271 0.936 . S
H3262 C3266 0.929 . S
H3263 C3272 0.929 1_545 S
C3264 H3258 0.930 1_565 S
C3264 C3265 1.367 . S
C3264 C3272 1.378 . S
C3265 C3264 1.367 . S
C3265 C3273 1.433 . S
C3266 H3262 0.929 . S
C3266 C3268 1.378 . S
C3266 C3270 1.350 . S
C3267 C3270 1.463 . S
C3267 C3272 1.350 . S
C3267 N3275 1.427 . S
C3268 H3259 0.930 . S
C3268 C3266 1.378 . S
C3268 C3269 1.367 . S
C3269 C3268 1.367 . S
C3269 C3271 1.411 1_565 S
C3270 C3266 1.350 . S
C3270 C3267 1.463 . S
C3270 N3274 1.431 . S
C3271 H3261 0.936 . S
C3271 C3269 1.411 1_545 S
C3271 N3274 1.413 1_545 S
C3272 H3263 0.929 1_565 S
C3272 C3264 1.378 . S
C3272 C3267 1.350 . S
C3273 H3260 0.929 . S
C3273 C3265 1.433 . S
C3273 N3275 1.384 . S
N3274 C3270 1.431 . S
N3274 C3271 1.413 1_565 S
N3275 C3267 1.427 . S
N3275 C3273 1.384 . S
H3276 C3282 0.930 . S
H3277 C3286 0.930 . S
H3278 C3291 0.929 . S
H3279 C3289 0.929 . S
H3280 C3284 0.929 1_545 S
H3281 C3290 0.929 . S
C3282 H3276 0.930 . S
C3282 C3283 1.367 . S
C3282 C3290 1.378 . S
C3283 C3282 1.367 . S
C3283 C3291 1.433 . S
C3284 H3280 0.929 1_565 S
C3284 C3286 1.378 1_565 S
C3284 C3288 1.350 . S
C3285 C3288 1.463 . S
C3285 C3290 1.350 . S
C3285 N3293 1.427 . S
C3286 H3277 0.930 . S
C3286 C3284 1.378 1_545 S
C3286 C3287 1.367 1_545 S
C3287 C3286 1.367 1_565 S
C3287 C3289 1.433 . S
C3288 C3284 1.350 . S
C3288 C3285 1.463 . S
C3288 N3292 1.427 . S
C3289 H3279 0.929 . S
C3289 C3287 1.433 . S
C3289 N3292 1.384 . S
C3290 H3281 0.929 . S
C3290 C3282 1.378 . S
C3290 C3285 1.350 . S
C3291 H3278 0.929 . S
C3291 C3283 1.433 . S
C3291 N3293 1.384 . S
N3292 C3288 1.427 . S
N3292 C3289 1.384 . S
N3293 C3285 1.427 . S
N3293 C3291 1.384 . S
H3294 C3300 0.930 . S
H3295 C3304 0.930 . S
H3296 C3309 0.929 . S
H3297 C3307 0.929 . S
H3298 C3302 0.929 . S
H3299 C3308 0.929 . S
C3300 H3294 0.930 . S
C3300 C3301 1.367 . S
C3300 C3308 1.378 . S
C3301 C3300 1.367 . S
C3301 C3309 1.433 . S
C3302 H3298 0.929 . S
C3302 C3304 1.378 . S
C3302 C3306 1.350 1_655 S
C3303 C3306 1.463 . S
C3303 C3308 1.350 . S
C3303 N3311 1.427 . S
C3304 H3295 0.930 . S
C3304 C3302 1.378 . S
C3304 C3305 1.364 . S
C3305 C3304 1.364 . S
C3305 C3307 1.434 1_655 S
C3306 C3302 1.350 1_455 S
C3306 C3303 1.463 . S
C3306 N3310 1.427 . S
C3307 H3297 0.929 . S
C3307 C3305 1.434 1_455 S
C3307 N3310 1.384 . S
C3308 H3299 0.929 . S
C3308 C3300 1.378 . S
C3308 C3303 1.350 . S
C3309 H3296 0.929 . S
C3309 C3301 1.433 . S
C3309 N3311 1.384 . S
N3310 C3306 1.427 . S
N3310 C3307 1.384 . S
N3311 C3303 1.427 . S
N3311 C3309 1.384 . S
H3312 C3318 0.930 . S
H3313 C3322 0.930 . S
H3314 C3327 0.929 . S
H3315 C3325 0.929 . S
H3316 C3320 0.929 . S
H3317 C3326 0.929 . S
C3318 H3312 0.930 . S
C3318 C3319 1.367 . S
C3318 C3326 1.378 . S
C3319 C3318 1.367 . S
C3319 C3327 1.433 . S
C3320 H3316 0.929 . S
C3320 C3322 1.378 . S
C3320 C3324 1.350 . S
C3321 C3324 1.463 . S
C3321 C3326 1.350 . S
C3321 N3329 1.427 . S
C3322 H3313 0.930 . S
C3322 C3320 1.378 . S
C3322 C3323 1.367 . S
C3323 C3322 1.367 . S
C3323 C3325 1.433 . S
C3324 C3320 1.350 . S
C3324 C3321 1.463 . S
C3324 N3328 1.427 . S
C3325 H3315 0.929 . S
C3325 C3323 1.433 . S
C3325 N3328 1.384 . S
C3326 H3317 0.929 . S
C3326 C3318 1.378 . S
C3326 C3321 1.350 . S
C3327 H3314 0.929 . S
C3327 C3319 1.433 . S
C3327 N3329 1.384 . S
N3328 C3324 1.427 . S
N3328 C3325 1.384 . S
N3329 C3321 1.427 . S
N3329 C3327 1.384 . S
H3330 C3336 0.930 . S
H3331 C3340 0.930 . S
H3332 C3345 0.929 . S
H3333 C3343 0.929 . S
H3334 C3338 0.929 . S
H3335 C3344 0.929 . S
C3336 H3330 0.930 . S
C3336 C3337 1.367 . S
C3336 C3344 1.378 . S
C3337 C3336 1.367 . S
C3337 C3345 1.433 . S
C3338 H3334 0.929 . S
C3338 C3340 1.378 . S
C3338 C3342 1.350 . S
C3339 C3342 1.463 . S
C3339 C3344 1.350 . S
C3339 N3347 1.427 . S
C3340 H3331 0.930 . S
C3340 C3338 1.378 . S
C3340 C3341 1.367 . S
C3341 C3340 1.367 . S
C3341 C3343 1.433 . S
C3342 C3338 1.350 . S
C3342 C3339 1.463 . S
C3342 N3346 1.427 . S
C3343 H3333 0.929 . S
C3343 C3341 1.433 . S
C3343 N3346 1.384 . S
C3344 H3335 0.929 . S
C3344 C3336 1.378 . S
C3344 C3339 1.350 . S
C3345 H3332 0.929 . S
C3345 C3337 1.433 . S
C3345 N3347 1.384 . S
N3346 C3342 1.427 . S
N3346 C3343 1.384 . S
N3347 C3339 1.427 . S
N3347 C3345 1.384 . S
H3348 C3354 0.930 . S
H3349 C3358 0.930 . S
H3350 C3363 0.929 . S
H3351 C3361 0.929 . S
H3352 C3356 0.929 . S
H3353 C3362 0.929 . S
C3354 H3348 0.930 . S
C3354 C3355 1.367 . S
C3354 C3362 1.378 . S
C3355 C3354 1.367 . S
C3355 C3363 1.433 . S
C3356 H3352 0.929 . S
C3356 C3358 1.378 . S
C3356 C3360 1.350 . S
C3357 C3360 1.463 . S
C3357 C3362 1.350 . S
C3357 N3365 1.427 . S
C3358 H3349 0.930 . S
C3358 C3356 1.378 . S
C3358 C3359 1.367 . S
C3359 C3358 1.367 . S
C3359 C3361 1.433 . S
C3360 C3356 1.350 . S
C3360 C3357 1.463 . S
C3360 N3364 1.427 . S
C3361 H3351 0.929 . S
C3361 C3359 1.433 . S
C3361 N3364 1.384 . S
C3362 H3353 0.929 . S
C3362 C3354 1.378 . S
C3362 C3357 1.350 . S
C3363 H3350 0.929 . S
C3363 C3355 1.433 . S
C3363 N3365 1.384 . S
N3364 C3360 1.427 . S
N3364 C3361 1.384 . S
N3365 C3357 1.427 . S
N3365 C3363 1.384 . S
H3366 C3372 0.930 . S
H3367 C3376 0.930 . S
H3368 C3381 0.929 . S
H3369 C3379 0.929 . S
H3370 C3374 0.929 . S
H3371 C3380 0.929 . S
C3372 H3366 0.930 . S
C3372 C3373 1.367 . S
C3372 C3380 1.378 . S
C3373 C3372 1.367 . S
C3373 C3381 1.433 . S
C3374 H3370 0.929 . S
C3374 C3376 1.378 . S
C3374 C3378 1.350 . S
C3375 C3378 1.463 . S
C3375 C3380 1.350 . S
C3375 N3383 1.427 . S
C3376 H3367 0.930 . S
C3376 C3374 1.378 . S
C3376 C3377 1.367 . S
C3377 C3376 1.367 . S
C3377 C3379 1.433 . S
C3378 C3374 1.350 . S
C3378 C3375 1.463 . S
C3378 N3382 1.427 . S
C3379 H3369 0.929 . S
C3379 C3377 1.433 . S
C3379 N3382 1.384 . S
C3380 H3371 0.929 . S
C3380 C3372 1.378 . S
C3380 C3375 1.350 . S
C3381 H3368 0.929 . S
C3381 C3373 1.433 . S
C3381 N3383 1.384 . S
N3382 C3378 1.427 . S
N3382 C3379 1.384 . S
N3383 C3375 1.427 . S
N3383 C3381 1.384 . S
H3384 C3390 0.930 . S
H3385 C3394 0.930 . S
H3386 C3399 0.929 . S
H3387 C3397 0.929 1_565 S
H3388 C3392 0.929 . S
H3389 C3398 0.929 . S
C3390 H3384 0.930 . S
C3390 C3391 1.367 . S
C3390 C3398 1.378 . S
C3391 C3390 1.367 . S
C3391 C3399 1.433 . S
C3392 H3388 0.929 . S
C3392 C3394 1.378 . S
C3392 C3396 1.350 . S
C3393 C3396 1.463 . S
C3393 C3398 1.350 . S
C3393 N3401 1.427 . S
C3394 H3385 0.930 . S
C3394 C3392 1.378 . S
C3394 C3395 1.367 . S
C3395 C3394 1.367 . S
C3395 C3397 1.433 . S
C3396 C3392 1.350 . S
C3396 C3393 1.463 . S
C3396 N3400 1.427 . S
C3397 H3387 0.929 1_545 S
C3397 C3395 1.433 . S
C3397 N3400 1.384 . S
C3398 H3389 0.929 . S
C3398 C3390 1.378 . S
C3398 C3393 1.350 . S
C3399 H3386 0.929 . S
C3399 C3391 1.433 . S
C3399 N3401 1.384 . S
N3400 C3396 1.427 . S
N3400 C3397 1.384 . S
N3401 C3393 1.427 . S
N3401 C3399 1.384 . S
H3402 C3408 0.913 1_455 S
H3403 C3412 0.930 . S
H3404 C3417 0.929 . S
H3405 C3415 0.932 . S
H3406 C3410 0.929 . S
H3407 C3416 0.929 1_455 S
C3408 H3402 0.913 1_655 S
C3408 C3409 1.367 . S
C3408 C3416 1.378 . S
C3409 C3408 1.367 . S
C3409 C3417 1.433 . S
C3410 H3406 0.929 . S
C3410 C3412 1.378 . S
C3410 C3414 1.350 . S
C3411 C3414 1.463 . S
C3411 C3416 1.350 . S
C3411 N3419 1.427 . S
C3412 H3403 0.930 . S
C3412 C3410 1.378 . S
C3412 C3413 1.367 . S
C3413 C3412 1.367 . S
C3413 C3415 1.409 1_655 S
C3414 C3410 1.350 . S
C3414 C3411 1.463 . S
C3414 N3418 1.429 . S
C3415 H3405 0.932 . S
C3415 C3413 1.409 1_455 S
C3415 N3418 1.424 1_455 S
C3416 H3407 0.929 1_655 S
C3416 C3408 1.378 . S
C3416 C3411 1.350 . S
C3417 H3404 0.929 . S
C3417 C3409 1.433 . S
C3417 N3419 1.384 . S
N3418 C3414 1.429 . S
N3418 C3415 1.424 1_655 S
N3419 C3411 1.427 . S
N3419 C3417 1.384 . S
H3420 C3426 0.930 . S
H3421 C3430 0.930 . S
H3422 C3435 0.929 . S
H3423 C3433 0.929 . S
H3424 C3428 0.929 . S
H3425 C3434 0.929 . S
C3426 H3420 0.930 . S
C3426 C3427 1.367 . S
C3426 C3434 1.378 . S
C3427 C3426 1.367 . S
C3427 C3435 1.433 . S
C3428 H3424 0.929 . S
C3428 C3430 1.378 . S
C3428 C3432 1.350 . S
C3429 C3432 1.463 . S
C3429 C3434 1.350 . S
C3429 N3437 1.427 . S
C3430 H3421 0.930 . S
C3430 C3428 1.378 . S
C3430 C3431 1.367 . S
C3431 C3430 1.367 . S
C3431 C3433 1.433 . S
C3432 C3428 1.350 . S
C3432 C3429 1.463 . S
C3432 N3436 1.427 . S
C3433 H3423 0.929 . S
C3433 C3431 1.433 . S
C3433 N3436 1.384 . S
C3434 H3425 0.929 . S
C3434 C3426 1.378 . S
C3434 C3429 1.350 . S
C3435 H3422 0.929 . S
C3435 C3427 1.433 . S
C3435 N3437 1.384 . S
N3436 C3432 1.427 . S
N3436 C3433 1.384 . S
N3437 C3429 1.427 . S
N3437 C3435 1.384 . S
H3438 C3444 0.930 . S
H3439 C3448 0.930 . S
H3440 C3453 0.929 . S
H3441 C3451 0.929 . S
H3442 C3446 0.929 . S
H3443 C3452 0.929 . S
C3444 H3438 0.930 . S
C3444 C3445 1.367 . S
C3444 C3452 1.378 . S
C3445 C3444 1.367 . S
C3445 C3453 1.433 . S
C3446 H3442 0.929 . S
C3446 C3448 1.378 . S
C3446 C3450 1.350 . S
C3447 C3450 1.463 . S
C3447 C3452 1.350 . S
C3447 N3455 1.427 . S
C3448 H3439 0.930 . S
C3448 C3446 1.378 . S
C3448 C3449 1.367 . S
C3449 C3448 1.367 . S
C3449 C3451 1.433 . S
C3450 C3446 1.350 . S
C3450 C3447 1.463 . S
C3450 N3454 1.427 . S
C3451 H3441 0.929 . S
C3451 C3449 1.433 . S
C3451 N3454 1.384 . S
C3452 H3443 0.929 . S
C3452 C3444 1.378 . S
C3452 C3447 1.350 . S
C3453 H3440 0.929 . S
C3453 C3445 1.433 . S
C3453 N3455 1.384 . S
N3454 C3450 1.427 . S
N3454 C3451 1.384 . S
N3455 C3447 1.427 . S
N3455 C3453 1.384 . S
H3456 C3462 0.930 . S
H3457 C3466 0.930 . S
H3458 C3471 0.929 . S
H3459 C3469 0.929 . S
H3460 C3464 0.929 . S
H3461 C3470 0.929 . S
C3462 H3456 0.930 . S
C3462 C3463 1.367 . S
C3462 C3470 1.378 . S
C3463 C3462 1.367 . S
C3463 C3471 1.433 . S
C3464 H3460 0.929 . S
C3464 C3466 1.378 . S
C3464 C3468 1.350 . S
C3465 C3468 1.463 . S
C3465 C3470 1.350 . S
C3465 N3473 1.427 . S
C3466 H3457 0.930 . S
C3466 C3464 1.378 . S
C3466 C3467 1.367 . S
C3467 C3466 1.367 . S
C3467 C3469 1.433 . S
C3468 C3464 1.350 . S
C3468 C3465 1.463 . S
C3468 N3472 1.427 . S
C3469 H3459 0.929 . S
C3469 C3467 1.433 . S
C3469 N3472 1.384 . S
C3470 H3461 0.929 . S
C3470 C3462 1.378 . S
C3470 C3465 1.350 . S
C3471 H3458 0.929 . S
C3471 C3463 1.433 . S
C3471 N3473 1.384 . S
N3472 C3468 1.427 . S
N3472 C3469 1.384 . S
N3473 C3465 1.427 . S
N3473 C3471 1.384 . S
H3474 C3480 0.930 . S
H3475 C3484 0.930 . S
H3476 C3489 0.929 . S
H3477 C3487 0.929 . S
H3478 C3482 0.929 . S
H3479 C3488 0.929 . S
C3480 H3474 0.930 . S
C3480 C3481 1.367 . S
C3480 C3488 1.378 . S
C3481 C3480 1.367 . S
C3481 C3489 1.433 . S
C3482 H3478 0.929 . S
C3482 C3484 1.378 . S
C3482 C3486 1.350 . S
C3483 C3486 1.463 . S
C3483 C3488 1.350 . S
C3483 N3491 1.427 . S
C3484 H3475 0.930 . S
C3484 C3482 1.378 . S
C3484 C3485 1.367 . S
C3485 C3484 1.367 . S
C3485 C3487 1.433 . S
C3486 C3482 1.350 . S
C3486 C3483 1.463 . S
C3486 N3490 1.427 . S
C3487 H3477 0.929 . S
C3487 C3485 1.433 . S
C3487 N3490 1.384 . S
C3488 H3479 0.929 . S
C3488 C3480 1.378 . S
C3488 C3483 1.350 . S
C3489 H3476 0.929 . S
C3489 C3481 1.433 . S
C3489 N3491 1.384 . S
N3490 C3486 1.427 . S
N3490 C3487 1.384 . S
N3491 C3483 1.427 . S
N3491 C3489 1.384 . S
H3492 C3498 0.930 . S
H3493 C3502 0.930 . S
H3494 C3507 0.929 . S
H3495 C3505 0.929 . S
H3496 C3500 0.929 . S
H3497 C3506 0.929 . S
C3498 H3492 0.930 . S
C3498 C3499 1.367 . S
C3498 C3506 1.378 . S
C3499 C3498 1.367 . S
C3499 C3507 1.433 . S
C3500 H3496 0.929 . S
C3500 C3502 1.378 . S
C3500 C3504 1.350 . S
C3501 C3504 1.463 . S
C3501 C3506 1.350 . S
C3501 N3509 1.427 . S
C3502 H3493 0.930 . S
C3502 C3500 1.378 . S
C3502 C3503 1.367 . S
C3503 C3502 1.367 . S
C3503 C3505 1.433 . S
C3504 C3500 1.350 . S
C3504 C3501 1.463 . S
C3504 N3508 1.427 . S
C3505 H3495 0.929 . S
C3505 C3503 1.433 . S
C3505 N3508 1.384 . S
C3506 H3497 0.929 . S
C3506 C3498 1.378 . S
C3506 C3501 1.350 . S
C3507 H3494 0.929 . S
C3507 C3499 1.433 . S
C3507 N3509 1.384 . S
N3508 C3504 1.427 . S
N3508 C3505 1.384 . S
N3509 C3501 1.427 . S
N3509 C3507 1.384 . S
H3510 C3516 0.930 . S
H3511 C3520 0.930 . S
H3512 C3525 0.929 . S
H3513 C3523 0.929 . S
H3514 C3518 0.929 . S
H3515 C3524 0.929 . S
C3516 H3510 0.930 . S
C3516 C3517 1.367 . S
C3516 C3524 1.378 . S
C3517 C3516 1.367 . S
C3517 C3525 1.433 . S
C3518 H3514 0.929 . S
C3518 C3520 1.378 . S
C3518 C3522 1.350 . S
C3519 C3522 1.463 . S
C3519 C3524 1.350 . S
C3519 N3527 1.427 . S
C3520 H3511 0.930 . S
C3520 C3518 1.378 . S
C3520 C3521 1.367 . S
C3521 C3520 1.367 . S
C3521 C3523 1.433 . S
C3522 C3518 1.350 . S
C3522 C3519 1.463 . S
C3522 N3526 1.427 . S
C3523 H3513 0.929 . S
C3523 C3521 1.433 . S
C3523 N3526 1.384 . S
C3524 H3515 0.929 . S
C3524 C3516 1.378 . S
C3524 C3519 1.350 . S
C3525 H3512 0.929 . S
C3525 C3517 1.433 . S
C3525 N3527 1.384 . S
N3526 C3522 1.427 . S
N3526 C3523 1.384 . S
N3527 C3519 1.427 . S
N3527 C3525 1.384 . S
H3528 C3534 0.930 . S
H3529 C3538 0.930 . S
H3530 C3543 0.929 . S
H3531 C3541 0.929 . S
H3532 C3536 0.929 . S
H3533 C3542 0.929 . S
C3534 H3528 0.930 . S
C3534 C3535 1.367 . S
C3534 C3542 1.378 . S
C3535 C3534 1.367 . S
C3535 C3543 1.433 . S
C3536 H3532 0.929 . S
C3536 C3538 1.378 . S
C3536 C3540 1.350 . S
C3537 C3540 1.463 . S
C3537 C3542 1.350 . S
C3537 N3545 1.427 . S
C3538 H3529 0.930 . S
C3538 C3536 1.378 . S
C3538 C3539 1.367 . S
C3539 C3538 1.367 . S
C3539 C3541 1.433 . S
C3540 C3536 1.350 . S
C3540 C3537 1.463 . S
C3540 N3544 1.427 . S
C3541 H3531 0.929 . S
C3541 C3539 1.433 . S
C3541 N3544 1.384 . S
C3542 H3533 0.929 . S
C3542 C3534 1.378 . S
C3542 C3537 1.350 . S
C3543 H3530 0.929 . S
C3543 C3535 1.433 . S
C3543 N3545 1.384 . S
N3544 C3540 1.427 . S
N3544 C3541 1.384 . S
N3545 C3537 1.427 . S
N3545 C3543 1.384 . S
H3546 C3552 0.906 1_455 S
H3547 C3556 0.930 . S
H3548 C3561 0.929 . S
H3549 C3559 0.929 . S
H3550 C3554 0.929 . S
H3551 C3560 0.929 . S
C3552 H3546 0.906 1_655 S
C3552 C3553 1.422 . S
C3552 C3560 1.350 1_655 S
C3553 C3552 1.422 . S
C3553 C3561 1.433 . S
C3554 H3550 0.929 . S
C3554 C3556 1.378 . S
C3554 C3558 1.350 . S
C3555 C3558 1.463 . S
C3555 C3560 1.350 1_655 S
C3555 N3563 1.427 . S
C3556 H3547 0.930 . S
C3556 C3554 1.378 . S
C3556 C3557 1.367 . S
C3557 C3556 1.367 . S
C3557 C3559 1.433 1_655 S
C3558 C3554 1.350 . S
C3558 C3555 1.463 . S
C3558 N3562 1.427 1_655 S
C3559 H3549 0.929 . S
C3559 C3557 1.433 1_455 S
C3559 N3562 1.384 . S
C3560 H3551 0.929 . S
C3560 C3552 1.350 1_455 S
C3560 C3555 1.350 1_455 S
C3561 H3548 0.929 . S
C3561 C3553 1.433 . S
C3561 N3563 1.384 . S
N3562 C3558 1.427 1_455 S
N3562 C3559 1.384 . S
N3563 C3555 1.427 . S
N3563 C3561 1.384 . S
H3564 C3570 0.930 . S
H3565 C3574 0.930 . S
H3566 C3579 0.929 . S
H3567 C3577 0.929 . S
H3568 C3572 0.929 . S
H3569 C3578 0.929 . S
C3570 H3564 0.930 . S
C3570 C3571 1.367 . S
C3570 C3578 1.378 . S
C3571 C3570 1.367 . S
C3571 C3579 1.433 . S
C3572 H3568 0.929 . S
C3572 C3574 1.378 . S
C3572 C3576 1.350 . S
C3573 C3576 1.463 . S
C3573 C3578 1.350 . S
C3573 N3581 1.427 . S
C3574 H3565 0.930 . S
C3574 C3572 1.378 . S
C3574 C3575 1.367 . S
C3575 C3574 1.367 . S
C3575 C3577 1.433 . S
C3576 C3572 1.350 . S
C3576 C3573 1.463 . S
C3576 N3580 1.427 . S
C3577 H3567 0.929 . S
C3577 C3575 1.433 . S
C3577 N3580 1.384 . S
C3578 H3569 0.929 . S
C3578 C3570 1.378 . S
C3578 C3573 1.350 . S
C3579 H3566 0.929 . S
C3579 C3571 1.433 . S
C3579 N3581 1.384 . S
N3580 C3576 1.427 . S
N3580 C3577 1.384 . S
N3581 C3573 1.427 . S
N3581 C3579 1.384 . S
H3582 C3588 0.930 . S
H3583 C3592 0.930 . S
H3584 C3597 0.913 1_565 S
H3585 C3595 0.929 . S
H3586 C3590 0.929 . S
H3587 C3596 0.929 . S
C3588 H3582 0.930 . S
C3588 C3589 1.367 . S
C3588 C3596 1.378 . S
C3589 C3588 1.367 . S
C3589 C3597 1.446 . S
C3590 H3586 0.929 . S
C3590 C3592 1.378 . S
C3590 C3594 1.350 1_565 S
C3591 C3594 1.463 . S
C3591 C3596 1.350 . S
C3591 N3599 1.427 1_545 S
C3592 H3583 0.930 . S
C3592 C3590 1.378 . S
C3592 C3593 1.367 1_565 S
C3593 C3592 1.367 1_545 S
C3593 C3595 1.433 . S
C3594 C3590 1.350 1_545 S
C3594 C3591 1.463 . S
C3594 N3598 1.427 . S
C3595 H3585 0.929 . S
C3595 C3593 1.433 . S
C3595 N3598 1.384 . S
C3596 H3587 0.929 . S
C3596 C3588 1.378 . S
C3596 C3591 1.350 . S
C3597 H3584 0.913 1_545 S
C3597 C3589 1.446 . S
C3597 N3599 1.388 1_545 S
N3598 C3594 1.427 . S
N3598 C3595 1.384 . S
N3599 C3591 1.427 1_565 S
N3599 C3597 1.388 1_565 S
C2311 C4 1.284 . S
C2315 C1307 1.054 1_655 S
C2329 C26 1.664 . S
C2333 C1447 1.017 . S
C2351 C1535 1.064 . S
C2347 C32 1.260 . S
C2365 C40 1.343 . S
C2369 C1675 0.969 1_565 S
C2383 C12 1.365 . S
C2387 C1789 1.084 . S
C2401 C18 1.571 1_556 S
C2405 C1877 1.194 . S
C2419 C46 1.256 . S
C2423 C1763 1.015 . S
C2441 C1903 1.267 . S
C2437 C68 1.563 . S
C2459 C1649 1.073 . S
C2455 C74 1.268 . S
C2473 C82 1.340 . S
C2477 C1561 0.938 . S
C2495 C1333 1.029 . S
C2491 C54 1.392 . S
C2509 C60 1.474 . S
C2513 C1421 1.350 . S
C2527 C88 1.706 . S
C2531 C1991 1.271 . S
C2545 C110 1.777 . S
C2549 C2131 1.123 . S
C2567 C2219 1.241 . S
C2563 C116 1.681 . S
C2581 C124 1.607 . S
C2585 C307 0.998 . S
C2599 C96 1.691 . S
C2603 C421 1.097 . S
C2617 C102 1.664 . S
C2621 C509 1.240 . S
C2635 C130 1.461 . S
C2639 C395 1.339 . S
C2653 C152 1.674 . S
C2657 C535 1.408 . S
C2675 C281 1.471 . S
C2671 C158 1.598 . S
C2693 C2245 1.376 . S
C2689 C166 1.656 . S
C2711 C2017 1.266 . S
C2707 C138 1.549 . S
C2729 C2105 1.495 . S
C2725 C144 1.594 . S
C2743 C172 1.584 . S
C2747 C623 1.173 . S
C2761 C194 1.783 . S
C2765 C763 1.119 . S
C2779 C200 1.707 . S
C2783 C851 1.273 . S
C2797 C208 1.735 . S
C2801 C991 1.134 . S
C2819 C1105 1.032 . S
C2815 C180 1.653 . S
C2837 C1193 1.264 . S
C2833 C186 1.679 . S
C2855 C1079 1.491 . S
C2851 C214 1.611 . S
C2873 C1219 1.403 . S
C2869 C236 1.666 . S
C2887 C242 1.559 . S
C2891 C965 1.452 . S
C2909 C877 1.265 . S
C2905 C250 1.506 . S
C2923 C222 1.610 . S
C2927 C649 1.339 . S
C2945 C737 1.467 . S
C2941 C228 1.570 . S
C2963 C263 0.928 . S
C2959 C5 1.606 . S
C2977 C25 1.616 . S
C2981 C377 0.886 . S
C2999 C481 1.234 . S
C2995 C33 1.540 . S
C3017 C595 1.068 . S
C3013 C39 1.519 . S
C3035 C719 0.929 . S
C3031 C11 1.726 . S
C3053 C823 1.133 . S
C3049 C19 1.342 1_556 S
C3067 C47 1.692 1_556 S
C3071 C833 1.528 . S
C3085 C67 1.733 . S
C3089 C605 1.352 . S
C3103 C75 1.669 1_556 S
C3107 C709 1.688 . S
C3121 C81 1.657 . S
C3125 C367 1.454 . S
C3143 C491 1.455 . S
C3139 C53 1.839 . S
C3157 C61 1.431 . S
C3161 C253 1.490 . S
C3179 C947 0.922 . S
C3175 C89 1.439 . S
C3193 C109 1.731 . S
C3197 C1061 0.992 . S
C3211 C117 1.445 . S
C3215 C1165 1.253 . S
C3233 C1279 0.880 . S
C3229 C123 1.064 . S
C3247 C95 1.547 . S
C3251 C1403 0.814 . S
C3265 C103 1.052 . S
C3269 C1507 0.965 . S
C3283 C131 1.137 . S
C3287 C1517 0.868 1_565 S
C3301 C151 1.198 . S
C3305 C1289 0.833 . S
C3323 C1393 1.484 . S
C3319 C159 1.434 . S
C3337 C165 1.580 . S
C3341 C1051 1.395 . S
C3355 C137 1.812 . S
C3359 C1175 1.430 . S
C3377 C937 1.593 . S
C3373 C145 1.524 . S
C3395 C1631 0.805 . S
C3391 C173 1.136 . S
C3409 C193 1.146 . S
C3413 C1745 0.799 . S
C3427 C201 1.320 . S
C3431 C1849 1.123 . S
C3449 C1963 1.069 . S
C3445 C207 1.451 . S
C3467 C2087 0.953 . S
C3463 C179 1.716 . S
C3481 C187 1.457 . S
C3485 C2191 1.220 . S
C3499 C215 1.558 . S
C3503 C2201 1.440 . S
C3517 C235 1.844 . S
C3521 C1973 1.434 . S
C3539 C2077 1.635 . S
C3535 C243 1.528 . S
C3557 C1735 0.930 1_655 S
C3553 C249 1.056 . S
C3575 C1859 1.257 . S
C3571 C221 1.673 . S
C3589 C229 1.074 . S
C3593 C1621 0.994 1_545 S
