# Generated by pormake.
# Topology rtl, (3,6)-cn, num edge types: 1
# Building blocks:
#     Node 0, Type 0, BuildingBlock: BETDIP_clean_linker_0, # of connection points: 3
#     Node 1, Type 0, BuildingBlock: BETDIP_clean_linker_0, # of connection points: 3
#     Node 2, Type 0, BuildingBlock: BETDIP_clean_linker_0, # of connection points: 3
#     Node 3, Type 0, BuildingBlock: BETDIP_clean_linker_0, # of connection points: 3
#     Node 4, Type 1, BuildingBlock: CIFDUS_clean_sbu_1, # of connection points: 6
#     Node 5, Type 1, BuildingBlock: CIFDUS_clean_sbu_1, # of connection points: 6
#     Edge 6, Type (0, 1), BuildingBlock: TEMPAE_clean_linker_10, # of connection points: 2
#     Edge 7, Type (0, 1), BuildingBlock: TEMPAE_clean_linker_10, # of connection points: 2
#     Edge 8, Type (0, 1), BuildingBlock: TEMPAE_clean_linker_10, # of connection points: 2
#     Edge 9, Type (0, 1), BuildingBlock: TEMPAE_clean_linker_10, # of connection points: 2
#     Edge 10, Type (0, 1), BuildingBlock: TEMPAE_clean_linker_10, # of connection points: 2
#     Edge 11, Type (0, 1), BuildingBlock: TEMPAE_clean_linker_10, # of connection points: 2
#     Edge 12, Type (0, 1), BuildingBlock: TEMPAE_clean_linker_10, # of connection points: 2
#     Edge 13, Type (0, 1), BuildingBlock: TEMPAE_clean_linker_10, # of connection points: 2
#     Edge 14, Type (0, 1), BuildingBlock: TEMPAE_clean_linker_10, # of connection points: 2
#     Edge 15, Type (0, 1), BuildingBlock: TEMPAE_clean_linker_10, # of connection points: 2
#     Edge 16, Type (0, 1), BuildingBlock: TEMPAE_clean_linker_10, # of connection points: 2
#     Edge 17, Type (0, 1), BuildingBlock: TEMPAE_clean_linker_10, # of connection points: 2
# Relax obj value: 0.017
# Max RMSD: 0.115
# Mean RMSD: 0.088
data_MOF--net-rtl--node1-CIFDUS_clean_sbu_1--node2-BETDIP_clean_linker_0--edge1-TEMPAE_clean_linker_10
_symmetry_space_group_name_H-M    P1
_symmetry_Int_Tables_number       1
_symmetry_cell_setting            triclinic
loop_
_symmetry_equiv_pos_as_xyz
'x, y, z'
_cell_length_a     36.050968
_cell_length_b     36.01743
_cell_length_c     22.353797
_cell_angle_alpha  91.140165
_cell_angle_beta   99.239416
_cell_angle_gamma 90.577251
loop_
_atom_site_label
_atom_site_type_symbol
_atom_site_fract_x
_atom_site_fract_y
_atom_site_fract_z
_atom_type_partial_charge
H0 H 0.20306 0.81498 0.98968 0.0
H1 H 0.2228 0.82915 0.18257 0.0
H2 H 0.14764 0.90212 0.07732 0.0
H3 H 0.2769 0.80131 0.17644 0.0
C4 C 0.27302 0.78372 0.1359 0.0
C5 C 0.1979 0.83086 0.02888 0.0
C6 C 0.1722 0.86053 0.02357 0.0
C7 C 0.21771 0.82059 0.08519 0.0
C8 C 0.20983 0.83819 0.13834 0.0
C9 C 0.18375 0.86687 0.13471 0.0
C10 C 0.16616 0.87871 0.07784 0.0
N11 N 0.24448 0.7917 0.08622 0.0
H12 H 0.7194 0.72031 0.69201 0.0
H13 H 0.70208 0.7317 0.49755 0.0
H14 H 0.63761 0.65178 0.57679 0.0
H15 H 0.7537 0.76262 0.51202 0.0
C16 C 0.76081 0.77326 0.55815 0.0
C17 C 0.70491 0.71222 0.6473 0.0
C18 C 0.67746 0.68368 0.64085 0.0
C19 C 0.71478 0.72965 0.59624 0.0
C20 C 0.69596 0.71873 0.53804 0.0
C21 C 0.66829 0.6907 0.5313 0.0
C22 C 0.65906 0.67347 0.58255 0.0
N23 N 0.74368 0.75762 0.60522 0.0
H24 H 0.81438 0.23087 0.89224 0.0
H25 H 0.81357 0.23453 0.08449 0.0
H26 H 0.88067 0.15383 0.00859 0.0
H27 H 0.74537 0.24244 0.03363 0.0
C28 C 0.75178 0.26604 0.00729 0.0
C29 C 0.82408 0.22008 0.93685 0.0
C30 C 0.84919 0.19021 0.9438 0.0
C31 C 0.81048 0.23564 0.98696 0.0
C32 C 0.82342 0.22229 0.04534 0.0
C33 C 0.84929 0.1932 0.05307 0.0
C34 C 0.86165 0.17708 1.00231 0.0
N35 N 0.78372 0.26456 0.97746 0.0
H36 H 0.27711 0.34961 0.38034 0.0
H37 H 0.29027 0.32795 0.5704 0.0
H38 H 0.36662 0.40343 0.50173 0.0
H39 H 0.28073 0.26223 0.4706 0.0
C40 C 0.25263 0.27364 0.46634 0.0
C41 C 0.29196 0.35479 0.42592 0.0
C42 C 0.32415 0.37765 0.4356 0.0
C43 C 0.27995 0.33696 0.47463 0.0
C44 C 0.29967 0.3426 0.53363 0.0
C45 C 0.33111 0.36684 0.54482 0.0
C46 C 0.34299 0.38417 0.49493 0.0
N47 N 0.24829 0.31272 0.46396 0.0
O48 O 0.98273 0.05487 0.46152 0.0
Mn49 Mn 0.00771 0.02281 0.53488 0.0
O50 O 0.95074 0.01533 0.39219 0.0
Mn51 Mn 0.96923 0.97282 0.43005 0.0
O52 O 0.03285 0.98807 0.60669 0.0
O53 O 0.04437 0.06907 0.55824 0.0
Mn54 Mn 0.04255 0.06391 0.63739 0.0
O55 O 0.96611 0.04307 0.58334 0.0
O56 O 0.07041 0.02565 0.66877 0.0
O57 O 0.04737 1.0021 0.48249 0.0
O58 O 0.01636 0.9602 0.41605 0.0
O59 O 0.06863 0.10495 0.64017 0.0
O60 O 0.99827 0.07117 0.66465 0.0
C61 C 0.94793 0.95162 0.50541 0.0
C62 C 0.96115 0.04798 0.41068 0.0
C63 C 0.05956 0.99336 0.65178 0.0
C64 C 0.06571 0.09759 0.58255 0.0
C65 C 0.96755 0.0609 0.63376 0.0
C66 C 0.04633 0.9772 0.43989 0.0
O67 O 0.97159 0.97943 0.5091 0.0
O68 O 0.93774 0.93735 0.45156 0.0
O69 O 0.53509 0.55569 0.11224 0.0
Mn70 Mn 0.50524 0.52514 0.04019 0.0
O71 O 0.53941 0.51188 0.18093 0.0
Mn72 Mn 0.53 0.47362 0.12316 0.0
O73 O 0.47474 0.49323 0.96676 0.0
O74 O 0.46825 0.5695 0.03112 0.0
Mn75 Mn 0.46326 0.57479 0.95222 0.0
O76 O 0.54106 0.5474 0.98188 0.0
O77 O 0.44102 0.53486 0.90991 0.0
O78 O 0.46686 0.50551 0.09623 0.0
O79 O 0.4848 0.44927 0.11637 0.0
O80 O 0.4326 0.60951 0.97138 0.0
O81 O 0.50686 0.59115 0.93067 0.0
C82 C 0.56895 0.45545 0.075 0.0
C83 C 0.54332 0.54554 0.16715 0.0
C84 C 0.45031 0.50164 0.92051 0.0
C85 C 0.44482 0.5976 0.0253 0.0
C86 C 0.53723 0.57366 0.94305 0.0
C87 C 0.45943 0.47285 0.11276 0.0
O88 O 0.54569 0.48187 0.05178 0.0
O89 O 0.56718 0.44269 0.12831 0.0
C90 C 0.18416 0.26081 0.46922 0.0
C91 C 0.21999 0.24794 0.46323 0.0
C92 C 0.15463 0.23571 0.47378 0.0
C93 C 0.16115 0.19697 0.47201 0.0
C94 C 0.19648 0.18409 0.46107 0.0
C95 C 0.22555 0.20972 0.4574 0.0
C96 C 0.11754 0.25063 0.48601 0.0
C97 C 0.20468 0.14311 0.45876 0.0
C98 C 0.11996 0.13996 0.58506 0.0
C99 C 0.08973 0.12078 0.54961 0.0
C100 C 0.14244 0.16503 0.56015 0.0
C101 C 0.13555 0.17087 0.49714 0.0
C102 C 0.10577 0.15104 0.46007 0.0
C103 C 0.08292 0.12613 0.48688 0.0
C104 C 0.17371 0.18529 0.60197 0.0
C105 C 0.09767 0.1567 0.39264 0.0
H106 H 0.17963 0.29038 0.4735 0.0
H107 H 0.25316 0.19975 0.45221 0.0
H108 H 0.09382 0.23546 0.45784 0.0
H109 H 0.11502 0.24634 0.53424 0.0
H110 H 0.11487 0.28078 0.47688 0.0
H111 H 0.23086 0.13754 0.44001 0.0
H112 H 0.208 0.13201 0.50526 0.0
H113 H 0.18099 0.12775 0.43082 0.0
H114 H 0.12624 0.13565 0.63347 0.0
H115 H 0.05959 0.11158 0.45925 0.0
H116 H 0.17046 0.21575 0.5975 0.0
H117 H 0.20131 0.17799 0.58943 0.0
H118 H 0.17424 0.17848 0.65036 0.0
H119 H 0.0853 0.18452 0.38373 0.0
H120 H 0.07765 0.13544 0.36913 0.0
H121 H 0.12401 0.15586 0.37291 0.0
C122 C 0.29791 0.7311 0.07894 0.0
C123 C 0.30032 0.75367 0.13129 0.0
C124 C 0.3247 0.70358 0.07404 0.0
C125 C 0.35443 0.69829 0.12289 0.0
C126 C 0.35649 0.72056 0.17622 0.0
C127 C 0.32948 0.74805 0.17968 0.0
C128 C 0.32176 0.68093 0.01582 0.0
C129 C 0.38767 0.71582 0.22914 0.0
C130 C 0.40464 0.60744 0.10428 0.0
C131 C 0.43405 0.61976 0.07542 0.0
C132 C 0.38035 0.63314 0.12586 0.0
C133 C 0.38487 0.67159 0.11572 0.0
C134 C 0.41663 0.68405 0.09157 0.0
C135 C 0.44142 0.65798 0.07362 0.0
C136 C 0.34788 0.61893 0.15423 0.0
C137 C 0.42191 0.72438 0.07708 0.0
H138 H 0.27543 0.73523 0.04132 0.0
H139 H 0.33139 0.76551 0.22016 0.0
H140 H 0.34742 0.68522 0.99509 0.0
H141 H 0.31985 0.65093 0.02536 0.0
H142 H 0.29688 0.68835 0.9823 0.0
H143 H 0.3837 0.73332 0.26905 0.0
H144 H 0.38929 0.68631 0.24253 0.0
H145 H 0.41505 0.72343 0.21581 0.0
H146 H 0.39839 0.57794 0.10467 0.0
H147 H 0.46375 0.66744 0.05006 0.0
H148 H 0.32165 0.6198 0.12071 0.0
H149 H 0.34387 0.63676 0.19369 0.0
H150 H 0.35221 0.58986 0.16929 0.0
H151 H 0.40066 0.73174 0.03758 0.0
H152 H 0.45026 0.73011 0.06564 0.0
H153 H 0.41764 0.74285 0.11556 0.0
C154 C 0.80629 0.81503 0.628 0.0
C155 C 0.78968 0.80335 0.56943 0.0
C156 C 0.83494 0.84256 0.63664 0.0
C157 C 0.84683 0.85887 0.58554 0.0
C158 C 0.82932 0.84758 0.5265 0.0
C159 C 0.80123 0.81996 0.51934 0.0
C160 C 0.85276 0.85387 0.70017 0.0
C161 C 0.84072 0.86415 0.47044 0.0
C162 C 0.89821 0.94894 0.56921 0.0
C163 C 0.93225 0.93525 0.55586 0.0
C164 C 0.87134 0.92487 0.58766 0.0
C165 C 0.87873 0.88632 0.59192 0.0
C166 C 0.91522 0.87362 0.58701 0.0
C167 C 0.94158 0.89835 0.56922 0.0
C168 C 0.83328 0.93991 0.59417 0.0
C169 C 0.92469 0.83294 0.59143 0.0
H170 H 0.79743 0.80225 0.66696 0.0
H171 H 0.78832 0.8111 0.47404 0.0
H172 H 0.88353 0.84946 0.70627 0.0
H173 H 0.84846 0.88393 0.70789 0.0
H174 H 0.84094 0.83806 0.73507 0.0
H175 H 0.82368 0.85291 0.42798 0.0
H176 H 0.83755 0.89475 0.47165 0.0
H177 H 0.87074 0.85837 0.469 0.0
H178 H 0.89066 0.97734 0.55808 0.0
H179 H 0.96769 0.88759 0.55805 0.0
H180 H 0.82143 0.92562 0.63049 0.0
H181 H 0.81368 0.93504 0.55104 0.0
H182 H 0.83474 0.97026 0.6044 0.0
H183 H 0.9128 0.81999 0.62889 0.0
H184 H 0.95554 0.82862 0.59865 0.0
H185 H 0.91223 0.81834 0.54858 0.0
C186 C 0.73432 0.33151 0.97676 0.0
C187 C 0.72473 0.29703 0.99859 0.0
C188 C 0.70956 0.36169 0.97477 0.0
C189 C 0.67443 0.35716 0.99481 0.0
C190 C 0.66386 0.32163 0.01312 0.0
C191 C 0.68922 0.29219 0.01518 0.0
C192 C 0.72202 0.39892 0.95479 0.0
C193 C 0.62674 0.31521 0.03465 0.0
C194 C 0.63351 0.43244 0.08332 0.0
C195 C 0.59968 0.44026 0.04535 0.0
C196 C 0.65922 0.40727 0.06571 0.0
C197 C 0.6517 0.39011 0.00751 0.0
C198 C 0.61967 0.40105 0.96622 0.0
C199 C 0.59362 0.42584 0.98586 0.0
C200 C 0.69243 0.39629 0.11196 0.0
C201 C 0.61166 0.38457 0.9029 0.0
H202 H 0.76174 0.33539 0.96364 0.0
H203 H 0.6816 0.26544 0.03141 0.0
H204 H 0.69847 0.41285 0.92607 0.0
H205 H 0.73117 0.41711 0.9952 0.0
H206 H 0.7459 0.39631 0.92923 0.0
H207 H 0.62101 0.28528 0.04082 0.0
H208 H 0.62692 0.33009 0.07866 0.0
H209 H 0.60335 0.32641 1.00192 0.0
H210 H 0.63847 0.4438 0.12928 0.0
H211 H 0.56751 0.43167 0.95638 0.0
H212 H 0.71876 0.39754 0.09235 0.0
H213 H 0.68851 0.3672 0.12551 0.0
H214 H 0.69592 0.41435 0.1534 0.0
H215 H 0.63724 0.38603 0.88122 0.0
H216 H 0.58846 0.39905 0.87413 0.0
H217 H 0.60378 0.35482 0.90474 0.0
C218 C 0.14035 0.86811 0.2103 0.0
C219 C 0.17218 0.88267 0.19027 0.0
C220 C 0.12618 0.88477 0.25909 0.0
C221 C 0.14428 0.91692 0.28838 0.0
C222 C 0.17758 0.93063 0.26993 0.0
C223 C 0.1911 0.91338 0.22075 0.0
C224 C 0.0906 0.86913 0.27696 0.0
C225 C 0.19793 0.96445 0.30042 0.0
C226 C 0.07594 0.98127 0.34883 0.0
C227 C 0.07894 0.97057 0.40928 0.0
C228 C 0.09866 0.96555 0.31 0.0
C229 C 0.1254 0.93859 0.33231 0.0
C230 C 0.13055 0.92975 0.39468 0.0
C231 C 0.10686 0.9456 0.43246 0.0
C232 C 0.09163 0.97544 0.24379 0.0
C233 C 0.15902 0.90151 0.42044 0.0
H234 H 0.12586 0.8443 0.18642 0.0
H235 H 0.21577 0.9245 0.20496 0.0
H236 H 0.09432 0.86513 0.32661 0.0
H237 H 0.06741 0.88907 0.26531 0.0
H238 H 0.08205 0.84214 0.25362 0.0
H239 H 0.22553 0.96911 0.28553 0.0
H240 H 0.18049 0.98938 0.2897 0.0
H241 H 0.20247 0.96159 0.35039 0.0
H242 H 0.05367 0.99993 0.33067 0.0
H243 H 0.10847 0.93657 0.47878 0.0
H244 H 0.07955 0.95098 0.21614 0.0
H245 H 0.1184 0.983 0.22837 0.0
H246 H 0.07189 0.99889 0.23468 0.0
H247 H 0.14841 0.87322 0.40575 0.0
H248 H 0.16444 0.90281 0.47079 0.0
H249 H 0.18595 0.90578 0.40333 0.0
C250 C 0.65999 0.68418 0.74517 0.0
C251 C 0.66769 0.66412 0.69433 0.0
C252 C 0.64572 0.66624 0.79212 0.0
C253 C 0.63929 0.62728 0.78831 0.0
C254 C 0.64953 0.60664 0.73907 0.0
C255 C 0.66346 0.62531 0.69263 0.0
C256 C 0.63452 0.68941 0.84317 0.0
C257 C 0.64302 0.56517 0.73293 0.0
C258 C 0.6045 0.58108 0.92263 0.0
C259 C 0.56553 0.5823 0.90368 0.0
C260 C 0.6294 0.59459 0.88484 0.0
C261 C 0.61473 0.60976 0.82778 0.0
C262 C 0.57553 0.60935 0.80793 0.0
C263 C 0.55176 0.59519 0.84545 0.0
C264 C 0.67119 0.59364 0.90635 0.0
C265 C 0.55826 0.62529 0.74782 0.0
H266 H 0.66303 0.71418 0.74659 0.0
H267 H 0.66995 0.60958 0.65385 0.0
H268 H 0.60341 0.69031 0.83799 0.0
H269 H 0.64487 0.6768 0.8875 0.0
H270 H 0.64555 0.71835 0.8438 0.0
H271 H 0.65791 0.5525 0.69792 0.0
H272 H 0.65244 0.55165 0.77683 0.0
H273 H 0.61251 0.55917 0.71985 0.0
H274 H 0.61536 0.57091 0.96726 0.0
H275 H 0.52173 0.59525 0.82944 0.0
H276 H 0.68244 0.62241 0.91422 0.0
H277 H 0.68551 0.58062 0.87101 0.0
H278 H 0.67834 0.5781 0.949 0.0
H279 H 0.56542 0.6553 0.74715 0.0
H280 H 0.52715 0.62217 0.73891 0.0
H281 H 0.5697 0.61142 0.71012 0.0
C282 C 0.8494 0.14483 0.13096 0.0
C283 C 0.86343 0.17862 0.11368 0.0
C284 C 0.86587 0.1278 0.18455 0.0
C285 C 0.89751 0.14477 0.2212 0.0
C286 C 0.91112 0.17951 0.20456 0.0
C287 C 0.8938 0.19609 0.15091 0.0
C288 C 0.85041 0.09081 0.20049 0.0
C289 C 0.94513 0.19816 0.24164 0.0
C290 C 0.9246 0.10496 0.37891 0.0
C291 C 0.9503 0.07788 0.36765 0.0
C292 C 0.9082 0.12823 0.33222 0.0
C293 C 0.91816 0.12435 0.27353 0.0
C294 C 0.94588 0.09842 0.2634 0.0
C295 C 0.96128 0.07528 0.31042 0.0
C296 C 0.87863 0.15537 0.34467 0.0
C297 C 0.95778 0.09354 0.20196 0.0
H298 H 0.82617 0.13124 0.10153 0.0
H299 H 0.90492 0.22198 0.13672 0.0
H300 H 0.87132 0.06883 0.19674 0.0
H301 H 0.84519 0.09154 0.24807 0.0
H302 H 0.82381 0.08296 0.17028 0.0
H303 H 0.94975 0.22675 0.22633 0.0
H304 H 0.94216 0.19945 0.29026 0.0
H305 H 0.97049 0.18162 0.23788 0.0
H306 H 0.91572 0.10646 0.42298 0.0
H307 H 0.98102 0.05404 0.30183 0.0
H308 H 0.85086 0.14622 0.31954 0.0
H309 H 0.88476 0.18329 0.32831 0.0
H310 H 0.87665 0.15763 0.39369 0.0
H311 H 0.93423 0.08111 0.16944 0.0
H312 H 0.98253 0.07524 0.20346 0.0
H313 H 0.96475 0.12083 0.18416 0.0
C314 C 0.38938 0.38469 0.61871 0.0
C315 C 0.35092 0.37515 0.60802 0.0
C316 C 0.40696 0.39859 0.6754 0.0
C317 C 0.3862 0.40136 0.72389 0.0
C318 C 0.34853 0.38824 0.71534 0.0
C319 C 0.33111 0.37604 0.65736 0.0
C320 C 0.44676 0.41346 0.68169 0.0
C321 C 0.32563 0.38982 0.76624 0.0
C322 C 0.44072 0.43569 0.8767 0.0
C323 C 0.43265 0.47371 0.87425 0.0
C324 C 0.42467 0.41111 0.82916 0.0
C325 C 0.40096 0.42518 0.77788 0.0
C326 C 0.39237 0.46332 0.77603 0.0
C327 C 0.40776 0.48671 0.82415 0.0
C328 C 0.43327 0.37029 0.83336 0.0
C329 C 0.36782 0.47999 0.72211 0.0
H330 H 0.40565 0.38274 0.58208 0.0
H331 H 0.30144 0.36903 0.65046 0.0
H332 H 0.44671 0.44415 0.68746 0.0
H333 H 0.46427 0.40228 0.72251 0.0
H334 H 0.46008 0.40652 0.64145 0.0
H335 H 0.30045 0.37129 0.7568 0.0
H336 H 0.34282 0.38182 0.80969 0.0
H337 H 0.31598 0.41862 0.77207 0.0
H338 H 0.45967 0.42528 0.91512 0.0
H339 H 0.40075 0.51587 0.82121 0.0
H340 H 0.45052 0.3622 0.79849 0.0
H341 H 0.40682 0.35363 0.82408 0.0
H342 H 0.44874 0.36308 0.87861 0.0
H343 H 0.38007 0.47464 0.68033 0.0
H344 H 0.36458 0.51046 0.72753 0.0
H345 H 0.33945 0.46693 0.71527 0.0
C346 C 0.67003 0.6532 0.43745 0.0
C347 C 0.65045 0.67732 0.47053 0.0
C348 C 0.65203 0.63578 0.38371 0.0
C349 C 0.6137 0.64319 0.36232 0.0
C350 C 0.59448 0.66928 0.39399 0.0
C351 C 0.61301 0.68571 0.44835 0.0
C352 C 0.67339 0.60774 0.35195 0.0
C353 C 0.55384 0.67837 0.37219 0.0
C354 C 0.57418 0.60674 0.2033 0.0
C355 C 0.55859 0.57251 0.2161 0.0
C356 C 0.59142 0.6307 0.25043 0.0
C357 C 0.59279 0.62021 0.31151 0.0
C358 C 0.57579 0.58636 0.32451 0.0
C359 C 0.55902 0.56299 0.27677 0.0
C360 C 0.60907 0.66668 0.23493 0.0
C361 C 0.57633 0.57418 0.38895 0.0
H362 H 0.69894 0.64663 0.45524 0.0
H363 H 0.59801 0.70439 0.47436 0.0
H364 H 0.66142 0.57956 0.35603 0.0
H365 H 0.67049 0.61364 0.30293 0.0
H366 H 0.70376 0.60751 0.37134 0.0
H367 H 0.54474 0.703 0.39652 0.0
H368 H 0.54915 0.68371 0.32285 0.0
H369 H 0.53575 0.65433 0.37954 0.0
H370 H 0.57391 0.61431 0.15655 0.0
H371 H 0.54659 0.53683 0.28715 0.0
H372 H 0.63995 0.66588 0.24956 0.0
H373 H 0.59841 0.69025 0.2597 0.0
H374 H 0.60334 0.67205 0.18556 0.0
H375 H 0.60579 0.57027 0.41123 0.0
H376 H 0.56048 0.54778 0.39131 0.0
H377 H 0.56403 0.5959 0.41534 0.0
C378 C 0.83577 0.16433 0.83713 0.0
C379 C 0.86155 0.17181 0.89019 0.0
C380 C 0.84666 0.14533 0.78737 0.0
C381 C 0.88419 0.13339 0.79076 0.0
C382 C 0.9105 0.14131 0.84385 0.0
C383 C 0.89888 0.16044 0.89278 0.0
C384 C 0.81794 0.13757 0.73146 0.0
C385 C 0.95101 0.12961 0.84901 0.0
C386 C 0.91659 0.05549 0.69531 0.0
C387 C 0.93409 0.07576 0.65468 0.0
C388 C 0.89724 0.07384 0.73692 0.0
C389 C 0.89648 0.11322 0.73863 0.0
C390 C 0.91165 0.13342 0.69438 0.0
C391 C 0.92984 0.11433 0.65245 0.0
C392 C 0.88076 0.0513 0.78266 0.0
C393 C 0.9124 0.17537 0.69529 0.0
H394 H 0.80677 0.17259 0.83496 0.0
H395 H 0.91915 0.16663 0.93316 0.0
H396 H 0.82786 0.14898 0.691 0.0
H397 H 0.8143 0.10713 0.72373 0.0
H398 H 0.79018 0.14972 0.7352 0.0
H399 H 0.96794 0.13807 0.89326 0.0
H400 H 0.95244 0.099 0.8436 0.0
H401 H 0.96401 0.14204 0.81222 0.0
H402 H 0.92083 0.02577 0.69816 0.0
H403 H 0.94442 0.12999 0.62212 0.0
H404 H 0.85246 0.06151 0.78764 0.0
H405 H 0.89889 0.05438 0.82758 0.0
H406 H 0.87853 0.02131 0.76974 0.0
H407 H 0.88432 0.18644 0.69947 0.0
H408 H 0.92137 0.18669 0.65392 0.0
H409 H 0.93236 0.18571 0.73532 0.0
C410 C 0.37655 0.38549 0.37645 0.0
C411 C 0.33957 0.39335 0.38377 0.0
C412 C 0.39212 0.40004 0.3281 0.0
C413 C 0.37039 0.42371 0.28668 0.0
C414 C 0.33292 0.4317 0.29391 0.0
C415 C 0.31779 0.41609 0.34213 0.0
C416 C 0.43194 0.39021 0.32165 0.0
C417 C 0.309 0.45694 0.25102 0.0
C418 C 0.42812 0.48688 0.20156 0.0
C419 C 0.42918 0.46582 0.1485 0.0
C420 C 0.4078 0.47424 0.24606 0.0
C421 C 0.38732 0.44024 0.23641 0.0
C422 C 0.38621 0.42032 0.18084 0.0
C423 C 0.40772 0.43303 0.13802 0.0
C424 C 0.4106 0.49579 0.30527 0.0
C425 C 0.3644 0.38425 0.16831 0.0
H426 H 0.39322 0.36758 0.40843 0.0
H427 H 0.2892 0.4222 0.34803 0.0
H428 H 0.43267 0.37784 0.27601 0.0
H429 H 0.44976 0.41571 0.3261 0.0
H430 H 0.44444 0.37024 0.35622 0.0
H431 H 0.28031 0.46012 0.26245 0.0
H432 H 0.32255 0.4848 0.25222 0.0
H433 H 0.30661 0.44584 0.20388 0.0
H434 H 0.44565 0.51165 0.21049 0.0
H435 H 0.40918 0.4164 0.0975 0.0
H436 H 0.42652 0.47946 0.34225 0.0
H437 H 0.38221 0.50046 0.3169 0.0
H438 H 0.42505 0.52307 0.3039 0.0
H439 H 0.37846 0.36238 0.1977 0.0
H440 H 0.36237 0.37478 0.12027 0.0
H441 H 0.33559 0.38724 0.17915 0.0
C442 C 0.16495 0.86187 0.90801 0.0
C443 C 0.15212 0.87249 0.96226 0.0
C444 C 0.14704 0.8736 0.85114 0.0
C445 C 0.11728 0.89905 0.84782 0.0
C446 C 0.10381 0.9099 0.9015 0.0
C447 C 0.1202 0.8953 0.95724 0.0
C448 C 0.16122 0.85992 0.79472 0.0
C449 C 0.07323 0.93839 0.90074 0.0
C450 C 0.11197 0.97094 0.72628 0.0
C451 C 0.07674 0.96334 0.69091 0.0
C452 C 0.12548 0.94996 0.77672 0.0
C453 C 0.10447 0.91881 0.79035 0.0
C454 C 0.07071 0.90851 0.75122 0.0
C455 C 0.05678 0.93135 0.70221 0.0
C456 C 0.16079 0.96313 0.81802 0.0
C457 C 0.04866 0.87428 0.7625 0.0
H458 H 0.18962 0.84507 0.90885 0.0
H459 H 0.1079 0.90273 0.99669 0.0
H460 H 0.13756 0.85488 0.75697 0.0
H461 H 0.18009 0.88119 0.78 0.0
H462 H 0.17731 0.83386 0.80283 0.0
H463 H 0.06837 0.94643 0.94707 0.0
H464 H 0.08067 0.96382 0.87775 0.0
H465 H 0.04651 0.9272 0.87493 0.0
H466 H 0.12796 0.99526 0.71708 0.0
H467 H 0.02962 0.92526 0.67502 0.0
H468 H 0.18245 0.94134 0.82166 0.0
H469 H 0.15447 0.96879 0.86431 0.0
H470 H 0.17295 0.98881 0.80183 0.0
H471 H 0.06774 0.85038 0.77221 0.0
H472 H 0.02665 0.8669 0.72321 0.0
H473 H 0.03479 0.87904 0.80274 0.0
loop_
_geom_bond_atom_site_label_1
_geom_bond_atom_site_label_2
_geom_bond_distance
_geom_bond_site_symmetry_2
_ccdc_geom_bond_type
H0 C5 0.930 1_556 S
H1 C8 0.930 . S
H2 C10 0.930 . S
H3 C4 1.016 . S
C4 H3 1.016 . S
C4 N11 1.286 . S
C5 H0 0.930 1_554 S
C5 C6 1.397 . S
C5 C7 1.361 . S
C6 C5 1.397 . S
C6 C10 1.390 . S
C7 C5 1.361 . S
C7 C8 1.393 . S
C7 N11 1.413 . S
C8 H1 0.930 . S
C8 C7 1.393 . S
C8 C9 1.399 . S
C9 C8 1.399 . S
C9 C10 1.381 . S
C10 H2 0.930 . S
C10 C6 1.390 . S
C10 C9 1.381 . S
N11 C4 1.286 . S
N11 C7 1.413 . S
H12 C17 0.930 . S
H13 C20 0.930 . S
H14 C22 0.930 . S
H15 C16 1.016 . S
C16 H15 1.016 . S
C16 N23 1.286 . S
C17 H12 0.930 . S
C17 C18 1.397 . S
C17 C19 1.361 . S
C18 C17 1.397 . S
C18 C22 1.390 . S
C19 C17 1.361 . S
C19 C20 1.393 . S
C19 N23 1.413 . S
C20 H13 0.930 . S
C20 C19 1.393 . S
C20 C21 1.399 . S
C21 C20 1.399 . S
C21 C22 1.381 . S
C22 H14 0.930 . S
C22 C18 1.390 . S
C22 C21 1.381 . S
N23 C16 1.286 . S
N23 C19 1.413 . S
H24 C29 0.930 . S
H25 C32 0.930 . S
H26 C34 0.930 . S
H27 C28 1.016 . S
C28 H27 1.016 . S
C28 N35 1.286 1_554 S
C29 H24 0.930 . S
C29 C30 1.397 . S
C29 C31 1.361 . S
C30 C29 1.397 . S
C30 C34 1.390 1_556 S
C31 C29 1.361 . S
C31 C32 1.393 1_556 S
C31 N35 1.413 . S
C32 H25 0.930 . S
C32 C31 1.393 1_554 S
C32 C33 1.399 . S
C33 C32 1.399 . S
C33 C34 1.381 . S
C34 H26 0.930 . S
C34 C30 1.390 1_554 S
C34 C33 1.381 . S
N35 C28 1.286 1_556 S
N35 C31 1.413 . S
H36 C41 0.930 . S
H37 C44 0.930 . S
H38 C46 0.930 . S
H39 C40 1.016 . S
C40 H39 1.016 . S
C40 N47 1.286 . S
C41 H36 0.930 . S
C41 C42 1.397 . S
C41 C43 1.361 . S
C42 C41 1.397 . S
C42 C46 1.390 . S
C43 C41 1.361 . S
C43 C44 1.393 . S
C43 N47 1.413 . S
C44 H37 0.930 . S
C44 C43 1.393 . S
C44 C45 1.399 . S
C45 C44 1.399 . S
C45 C46 1.381 . S
C46 H38 0.930 . S
C46 C42 1.390 . S
C46 C45 1.381 . S
N47 C40 1.286 . S
N47 C43 1.413 . S
O48 Mn49 2.163 1_655 S
O48 C62 1.244 . S
Mn49 O48 2.163 1_455 S
Mn49 O52 2.160 1_545 S
Mn49 O53 2.221 . S
Mn49 O55 2.163 1_455 S
Mn49 O57 2.160 1_545 S
Mn49 O67 2.221 1_445 S
O50 Mn51 2.087 1_545 S
O50 C62 1.256 . S
Mn51 O50 2.087 1_565 S
Mn51 O58 2.089 1_655 S
Mn51 O67 2.290 . S
Mn51 O68 2.251 . S
O52 Mn49 2.160 1_565 S
O52 C63 1.239 . S
O53 Mn49 2.221 . S
O53 Mn54 2.290 . S
O53 C64 1.278 . S
Mn54 O53 2.290 . S
Mn54 O56 2.089 . S
Mn54 O59 2.251 . S
Mn54 O60 2.087 . S
O55 Mn49 2.163 1_655 S
O55 C65 1.244 . S
O56 Mn54 2.089 . S
O56 C63 1.256 1_545 S
O57 Mn49 2.160 1_565 S
O57 C66 1.239 . S
O58 Mn51 2.089 1_455 S
O58 C66 1.256 . S
O59 Mn54 2.251 . S
O59 C64 1.241 . S
O60 Mn54 2.087 . S
O60 C65 1.256 1_455 S
C61 O67 1.278 . S
C61 O68 1.241 . S
C62 O48 1.244 . S
C62 O50 1.256 . S
C63 O52 1.239 . S
C63 O56 1.256 1_565 S
C64 O53 1.278 . S
C64 O59 1.241 . S
C65 O55 1.244 . S
C65 O60 1.256 1_655 S
C66 O57 1.239 . S
C66 O58 1.256 . S
O67 Mn49 2.221 1_665 S
O67 Mn51 2.290 . S
O67 C61 1.278 . S
O68 Mn51 2.251 . S
O68 C61 1.241 . S
O69 Mn70 2.163 . S
O69 C83 1.244 . S
Mn70 O69 2.163 . S
Mn70 O73 2.160 1_554 S
Mn70 O74 2.221 . S
Mn70 O76 2.163 1_554 S
Mn70 O78 2.160 . S
Mn70 O88 2.221 . S
O71 Mn72 2.087 . S
O71 C83 1.256 . S
Mn72 O71 2.087 . S
Mn72 O79 2.089 . S
Mn72 O88 2.290 . S
Mn72 O89 2.251 . S
O73 Mn70 2.160 1_556 S
O73 C84 1.239 . S
O74 Mn70 2.221 . S
O74 Mn75 2.290 1_554 S
O74 C85 1.278 . S
Mn75 O74 2.290 1_556 S
Mn75 O77 2.089 . S
Mn75 O80 2.251 . S
Mn75 O81 2.087 . S
O76 Mn70 2.163 1_556 S
O76 C86 1.244 . S
O77 Mn75 2.089 . S
O77 C84 1.256 . S
O78 Mn70 2.160 . S
O78 C87 1.239 . S
O79 Mn72 2.089 . S
O79 C87 1.256 . S
O80 Mn75 2.251 . S
O80 C85 1.241 1_556 S
O81 Mn75 2.087 . S
O81 C86 1.256 . S
C82 O88 1.278 . S
C82 O89 1.241 . S
C83 O69 1.244 . S
C83 O71 1.256 . S
C84 O73 1.239 . S
C84 O77 1.256 . S
C85 O74 1.278 . S
C85 O80 1.241 1_554 S
C86 O76 1.244 . S
C86 O81 1.256 . S
C87 O78 1.239 . S
C87 O79 1.256 . S
O88 Mn70 2.221 . S
O88 Mn72 2.290 . S
O88 C82 1.278 . S
O89 Mn72 2.251 . S
O89 C82 1.241 . S
C90 C91 1.391 . S
C90 C92 1.394 . S
C90 H106 0.931 . S
C91 C90 1.391 . S
C91 C95 1.376 . S
C92 C90 1.394 . S
C92 C93 1.369 . S
C92 C96 1.531 . S
C93 C92 1.369 . S
C93 C94 1.410 . S
C93 C101 1.503 . S
C94 C93 1.410 . S
C94 C95 1.392 . S
C94 C97 1.511 . S
C95 C91 1.376 . S
C95 C94 1.392 . S
C95 H107 0.929 . S
C96 C92 1.531 . S
C96 H108 0.960 . S
C96 H109 0.962 . S
C96 H110 0.960 . S
C97 C94 1.511 . S
C97 H111 0.961 . S
C97 H112 0.961 . S
C97 H113 0.961 . S
C98 C99 1.370 . S
C98 C100 1.363 . S
C98 H114 0.931 . S
C99 C98 1.370 . S
C99 C103 1.408 . S
C100 C98 1.363 . S
C100 C101 1.370 . S
C100 C104 1.524 . S
C101 C93 1.503 . S
C101 C100 1.370 . S
C101 C102 1.403 . S
C102 C101 1.403 . S
C102 C103 1.404 . S
C102 C105 1.539 . S
C103 C99 1.408 . S
C103 C102 1.404 . S
C103 H115 0.930 . S
C104 C100 1.524 . S
C104 H116 0.956 . S
C104 H117 0.961 . S
C104 H118 0.961 . S
C105 C102 1.539 . S
C105 H119 0.958 . S
C105 H120 0.961 . S
C105 H121 0.960 . S
H106 C90 0.931 . S
H107 C95 0.929 . S
H108 C96 0.960 . S
H109 C96 0.962 . S
H110 C96 0.960 . S
H111 C97 0.961 . S
H112 C97 0.961 . S
H113 C97 0.961 . S
H114 C98 0.931 . S
H115 C103 0.930 . S
H116 C104 0.956 . S
H117 C104 0.961 . S
H118 C104 0.961 . S
H119 C105 0.958 . S
H120 C105 0.961 . S
H121 C105 0.960 . S
C122 C123 1.391 . S
C122 C124 1.394 . S
C122 H138 0.931 . S
C123 C122 1.391 . S
C123 C127 1.376 . S
C124 C122 1.394 . S
C124 C125 1.369 . S
C124 C128 1.531 1_554 S
C125 C124 1.369 . S
C125 C126 1.410 . S
C125 C133 1.503 . S
C126 C125 1.410 . S
C126 C127 1.392 . S
C126 C129 1.511 . S
C127 C123 1.376 . S
C127 C126 1.392 . S
C127 H139 0.929 . S
C128 C124 1.531 1_556 S
C128 H140 0.960 . S
C128 H141 0.962 . S
C128 H142 0.960 . S
C129 C126 1.511 . S
C129 H143 0.961 . S
C129 H144 0.961 . S
C129 H145 0.961 . S
C130 C131 1.370 . S
C130 C132 1.363 . S
C130 H146 0.931 . S
C131 C130 1.370 . S
C131 C135 1.408 . S
C132 C130 1.363 . S
C132 C133 1.370 . S
C132 C136 1.524 . S
C133 C125 1.503 . S
C133 C132 1.370 . S
C133 C134 1.403 . S
C134 C133 1.403 . S
C134 C135 1.404 . S
C134 C137 1.539 . S
C135 C131 1.408 . S
C135 C134 1.404 . S
C135 H147 0.930 . S
C136 C132 1.524 . S
C136 H148 0.956 . S
C136 H149 0.961 . S
C136 H150 0.961 . S
C137 C134 1.539 . S
C137 H151 0.958 1_554 S
C137 H152 0.961 . S
C137 H153 0.960 . S
H138 C122 0.931 . S
H139 C127 0.929 . S
H140 C128 0.960 . S
H141 C128 0.962 . S
H142 C128 0.960 . S
H143 C129 0.961 . S
H144 C129 0.961 . S
H145 C129 0.961 . S
H146 C130 0.931 . S
H147 C135 0.930 . S
H148 C136 0.956 . S
H149 C136 0.961 . S
H150 C136 0.961 . S
H151 C137 0.958 1_556 S
H152 C137 0.961 . S
H153 C137 0.960 . S
C154 C155 1.391 . S
C154 C156 1.394 . S
C154 H170 0.931 . S
C155 C154 1.391 . S
C155 C159 1.376 . S
C156 C154 1.394 . S
C156 C157 1.369 . S
C156 C160 1.531 . S
C157 C156 1.369 . S
C157 C158 1.410 . S
C157 C165 1.503 . S
C158 C157 1.410 . S
C158 C159 1.392 . S
C158 C161 1.511 . S
C159 C155 1.376 . S
C159 C158 1.392 . S
C159 H171 0.929 . S
C160 C156 1.531 . S
C160 H172 0.960 . S
C160 H173 0.962 . S
C160 H174 0.960 . S
C161 C158 1.511 . S
C161 H175 0.961 . S
C161 H176 0.961 . S
C161 H177 0.961 . S
C162 C163 1.370 . S
C162 C164 1.363 . S
C162 H178 0.931 . S
C163 C162 1.370 . S
C163 C167 1.408 . S
C164 C162 1.363 . S
C164 C165 1.370 . S
C164 C168 1.524 . S
C165 C157 1.503 . S
C165 C164 1.370 . S
C165 C166 1.403 . S
C166 C165 1.403 . S
C166 C167 1.404 . S
C166 C169 1.539 . S
C167 C163 1.408 . S
C167 C166 1.404 . S
C167 H179 0.930 . S
C168 C164 1.524 . S
C168 H180 0.956 . S
C168 H181 0.961 . S
C168 H182 0.961 . S
C169 C166 1.539 . S
C169 H183 0.958 . S
C169 H184 0.961 . S
C169 H185 0.960 . S
H170 C154 0.931 . S
H171 C159 0.929 . S
H172 C160 0.960 . S
H173 C160 0.962 . S
H174 C160 0.960 . S
H175 C161 0.961 . S
H176 C161 0.961 . S
H177 C161 0.961 . S
H178 C162 0.931 . S
H179 C167 0.930 . S
H180 C168 0.956 . S
H181 C168 0.961 . S
H182 C168 0.961 . S
H183 C169 0.958 . S
H184 C169 0.961 . S
H185 C169 0.960 . S
C186 C187 1.391 1_556 S
C186 C188 1.394 . S
C186 H202 0.931 . S
C187 C186 1.391 1_554 S
C187 C191 1.376 . S
C188 C186 1.394 . S
C188 C189 1.369 1_556 S
C188 C192 1.531 . S
C189 C188 1.369 1_554 S
C189 C190 1.410 . S
C189 C197 1.503 . S
C190 C189 1.410 . S
C190 C191 1.392 . S
C190 C193 1.511 . S
C191 C187 1.376 . S
C191 C190 1.392 . S
C191 H203 0.929 . S
C192 C188 1.531 . S
C192 H204 0.960 . S
C192 H205 0.962 1_556 S
C192 H206 0.960 . S
C193 C190 1.511 . S
C193 H207 0.961 . S
C193 H208 0.961 . S
C193 H209 0.961 1_554 S
C194 C195 1.370 . S
C194 C196 1.363 . S
C194 H210 0.931 . S
C195 C194 1.370 . S
C195 C199 1.408 1_554 S
C196 C194 1.363 . S
C196 C197 1.370 . S
C196 C200 1.524 . S
C197 C189 1.503 . S
C197 C196 1.370 . S
C197 C198 1.403 1_554 S
C198 C197 1.403 1_556 S
C198 C199 1.404 . S
C198 C201 1.539 . S
C199 C195 1.408 1_556 S
C199 C198 1.404 . S
C199 H211 0.930 . S
C200 C196 1.524 . S
C200 H212 0.956 . S
C200 H213 0.961 . S
C200 H214 0.961 . S
C201 C198 1.539 . S
C201 H215 0.958 . S
C201 H216 0.961 . S
C201 H217 0.960 . S
H202 C186 0.931 . S
H203 C191 0.929 . S
H204 C192 0.960 . S
H205 C192 0.962 1_554 S
H206 C192 0.960 . S
H207 C193 0.961 . S
H208 C193 0.961 . S
H209 C193 0.961 1_556 S
H210 C194 0.931 . S
H211 C199 0.930 . S
H212 C200 0.956 . S
H213 C200 0.961 . S
H214 C200 0.961 . S
H215 C201 0.958 . S
H216 C201 0.961 . S
H217 C201 0.960 . S
C218 C219 1.391 . S
C218 C220 1.394 . S
C218 H234 0.931 . S
C219 C218 1.391 . S
C219 C223 1.376 . S
C220 C218 1.394 . S
C220 C221 1.369 . S
C220 C224 1.531 . S
C221 C220 1.369 . S
C221 C222 1.410 . S
C221 C229 1.503 . S
C222 C221 1.410 . S
C222 C223 1.392 . S
C222 C225 1.511 . S
C223 C219 1.376 . S
C223 C222 1.392 . S
C223 H235 0.929 . S
C224 C220 1.531 . S
C224 H236 0.960 . S
C224 H237 0.962 . S
C224 H238 0.960 . S
C225 C222 1.511 . S
C225 H239 0.961 . S
C225 H240 0.961 . S
C225 H241 0.961 . S
C226 C227 1.370 . S
C226 C228 1.363 . S
C226 H242 0.931 . S
C227 C226 1.370 . S
C227 C231 1.408 . S
C228 C226 1.363 . S
C228 C229 1.370 . S
C228 C232 1.524 . S
C229 C221 1.503 . S
C229 C228 1.370 . S
C229 C230 1.403 . S
C230 C229 1.403 . S
C230 C231 1.404 . S
C230 C233 1.539 . S
C231 C227 1.408 . S
C231 C230 1.404 . S
C231 H243 0.930 . S
C232 C228 1.524 . S
C232 H244 0.956 . S
C232 H245 0.961 . S
C232 H246 0.961 . S
C233 C230 1.539 . S
C233 H247 0.958 . S
C233 H248 0.961 . S
C233 H249 0.960 . S
H234 C218 0.931 . S
H235 C223 0.929 . S
H236 C224 0.960 . S
H237 C224 0.962 . S
H238 C224 0.960 . S
H239 C225 0.961 . S
H240 C225 0.961 . S
H241 C225 0.961 . S
H242 C226 0.931 . S
H243 C231 0.930 . S
H244 C232 0.956 . S
H245 C232 0.961 . S
H246 C232 0.961 . S
H247 C233 0.958 . S
H248 C233 0.961 . S
H249 C233 0.960 . S
C250 C251 1.391 . S
C250 C252 1.394 . S
C250 H266 0.931 . S
C251 C250 1.391 . S
C251 C255 1.376 . S
C252 C250 1.394 . S
C252 C253 1.369 . S
C252 C256 1.531 . S
C253 C252 1.369 . S
C253 C254 1.410 . S
C253 C261 1.503 . S
C254 C253 1.410 . S
C254 C255 1.392 . S
C254 C257 1.511 . S
C255 C251 1.376 . S
C255 C254 1.392 . S
C255 H267 0.929 . S
C256 C252 1.531 . S
C256 H268 0.960 . S
C256 H269 0.962 . S
C256 H270 0.960 . S
C257 C254 1.511 . S
C257 H271 0.961 . S
C257 H272 0.961 . S
C257 H273 0.961 . S
C258 C259 1.370 . S
C258 C260 1.363 . S
C258 H274 0.931 . S
C259 C258 1.370 . S
C259 C263 1.408 . S
C260 C258 1.363 . S
C260 C261 1.370 . S
C260 C264 1.524 . S
C261 C253 1.503 . S
C261 C260 1.370 . S
C261 C262 1.403 . S
C262 C261 1.403 . S
C262 C263 1.404 . S
C262 C265 1.539 . S
C263 C259 1.408 . S
C263 C262 1.404 . S
C263 H275 0.930 . S
C264 C260 1.524 . S
C264 H276 0.956 . S
C264 H277 0.961 . S
C264 H278 0.961 . S
C265 C262 1.539 . S
C265 H279 0.958 . S
C265 H280 0.961 . S
C265 H281 0.960 . S
H266 C250 0.931 . S
H267 C255 0.929 . S
H268 C256 0.960 . S
H269 C256 0.962 . S
H270 C256 0.960 . S
H271 C257 0.961 . S
H272 C257 0.961 . S
H273 C257 0.961 . S
H274 C258 0.931 . S
H275 C263 0.930 . S
H276 C264 0.956 . S
H277 C264 0.961 . S
H278 C264 0.961 . S
H279 C265 0.958 . S
H280 C265 0.961 . S
H281 C265 0.960 . S
C282 C283 1.391 . S
C282 C284 1.394 . S
C282 H298 0.931 . S
C283 C282 1.391 . S
C283 C287 1.376 . S
C284 C282 1.394 . S
C284 C285 1.369 . S
C284 C288 1.531 . S
C285 C284 1.369 . S
C285 C286 1.410 . S
C285 C293 1.503 . S
C286 C285 1.410 . S
C286 C287 1.392 . S
C286 C289 1.511 . S
C287 C283 1.376 . S
C287 C286 1.392 . S
C287 H299 0.929 . S
C288 C284 1.531 . S
C288 H300 0.960 . S
C288 H301 0.962 . S
C288 H302 0.960 . S
C289 C286 1.511 . S
C289 H303 0.961 . S
C289 H304 0.961 . S
C289 H305 0.961 . S
C290 C291 1.370 . S
C290 C292 1.363 . S
C290 H306 0.931 . S
C291 C290 1.370 . S
C291 C295 1.408 . S
C292 C290 1.363 . S
C292 C293 1.370 . S
C292 C296 1.524 . S
C293 C285 1.503 . S
C293 C292 1.370 . S
C293 C294 1.403 . S
C294 C293 1.403 . S
C294 C295 1.404 . S
C294 C297 1.539 . S
C295 C291 1.408 . S
C295 C294 1.404 . S
C295 H307 0.930 . S
C296 C292 1.524 . S
C296 H308 0.956 . S
C296 H309 0.961 . S
C296 H310 0.961 . S
C297 C294 1.539 . S
C297 H311 0.958 . S
C297 H312 0.961 . S
C297 H313 0.960 . S
H298 C282 0.931 . S
H299 C287 0.929 . S
H300 C288 0.960 . S
H301 C288 0.962 . S
H302 C288 0.960 . S
H303 C289 0.961 . S
H304 C289 0.961 . S
H305 C289 0.961 . S
H306 C290 0.931 . S
H307 C295 0.930 . S
H308 C296 0.956 . S
H309 C296 0.961 . S
H310 C296 0.961 . S
H311 C297 0.958 . S
H312 C297 0.961 . S
H313 C297 0.960 . S
C314 C315 1.391 . S
C314 C316 1.394 . S
C314 H330 0.931 . S
C315 C314 1.391 . S
C315 C319 1.376 . S
C316 C314 1.394 . S
C316 C317 1.369 . S
C316 C320 1.531 . S
C317 C316 1.369 . S
C317 C318 1.410 . S
C317 C325 1.503 . S
C318 C317 1.410 . S
C318 C319 1.392 . S
C318 C321 1.511 . S
C319 C315 1.376 . S
C319 C318 1.392 . S
C319 H331 0.929 . S
C320 C316 1.531 . S
C320 H332 0.960 . S
C320 H333 0.962 . S
C320 H334 0.960 . S
C321 C318 1.511 . S
C321 H335 0.961 . S
C321 H336 0.961 . S
C321 H337 0.961 . S
C322 C323 1.370 . S
C322 C324 1.363 . S
C322 H338 0.931 . S
C323 C322 1.370 . S
C323 C327 1.408 . S
C324 C322 1.363 . S
C324 C325 1.370 . S
C324 C328 1.524 . S
C325 C317 1.503 . S
C325 C324 1.370 . S
C325 C326 1.403 . S
C326 C325 1.403 . S
C326 C327 1.404 . S
C326 C329 1.539 . S
C327 C323 1.408 . S
C327 C326 1.404 . S
C327 H339 0.930 . S
C328 C324 1.524 . S
C328 H340 0.956 . S
C328 H341 0.961 . S
C328 H342 0.961 . S
C329 C326 1.539 . S
C329 H343 0.958 . S
C329 H344 0.961 . S
C329 H345 0.960 . S
H330 C314 0.931 . S
H331 C319 0.929 . S
H332 C320 0.960 . S
H333 C320 0.962 . S
H334 C320 0.960 . S
H335 C321 0.961 . S
H336 C321 0.961 . S
H337 C321 0.961 . S
H338 C322 0.931 . S
H339 C327 0.930 . S
H340 C328 0.956 . S
H341 C328 0.961 . S
H342 C328 0.961 . S
H343 C329 0.958 . S
H344 C329 0.961 . S
H345 C329 0.960 . S
C346 C347 1.391 . S
C346 C348 1.394 . S
C346 H362 0.931 . S
C347 C346 1.391 . S
C347 C351 1.376 . S
C348 C346 1.394 . S
C348 C349 1.369 . S
C348 C352 1.531 . S
C349 C348 1.369 . S
C349 C350 1.410 . S
C349 C357 1.503 . S
C350 C349 1.410 . S
C350 C351 1.392 . S
C350 C353 1.511 . S
C351 C347 1.376 . S
C351 C350 1.392 . S
C351 H363 0.929 . S
C352 C348 1.531 . S
C352 H364 0.960 . S
C352 H365 0.962 . S
C352 H366 0.960 . S
C353 C350 1.511 . S
C353 H367 0.961 . S
C353 H368 0.961 . S
C353 H369 0.961 . S
C354 C355 1.370 . S
C354 C356 1.363 . S
C354 H370 0.931 . S
C355 C354 1.370 . S
C355 C359 1.408 . S
C356 C354 1.363 . S
C356 C357 1.370 . S
C356 C360 1.524 . S
C357 C349 1.503 . S
C357 C356 1.370 . S
C357 C358 1.403 . S
C358 C357 1.403 . S
C358 C359 1.404 . S
C358 C361 1.539 . S
C359 C355 1.408 . S
C359 C358 1.404 . S
C359 H371 0.930 . S
C360 C356 1.524 . S
C360 H372 0.956 . S
C360 H373 0.961 . S
C360 H374 0.961 . S
C361 C358 1.539 . S
C361 H375 0.958 . S
C361 H376 0.961 . S
C361 H377 0.960 . S
H362 C346 0.931 . S
H363 C351 0.929 . S
H364 C352 0.960 . S
H365 C352 0.962 . S
H366 C352 0.960 . S
H367 C353 0.961 . S
H368 C353 0.961 . S
H369 C353 0.961 . S
H370 C354 0.931 . S
H371 C359 0.930 . S
H372 C360 0.956 . S
H373 C360 0.961 . S
H374 C360 0.961 . S
H375 C361 0.958 . S
H376 C361 0.961 . S
H377 C361 0.960 . S
C378 C379 1.391 . S
C378 C380 1.394 . S
C378 H394 0.931 . S
C379 C378 1.391 . S
C379 C383 1.376 . S
C380 C378 1.394 . S
C380 C381 1.369 . S
C380 C384 1.531 . S
C381 C380 1.369 . S
C381 C382 1.410 . S
C381 C389 1.503 . S
C382 C381 1.410 . S
C382 C383 1.392 . S
C382 C385 1.511 . S
C383 C379 1.376 . S
C383 C382 1.392 . S
C383 H395 0.929 . S
C384 C380 1.531 . S
C384 H396 0.960 . S
C384 H397 0.962 . S
C384 H398 0.960 . S
C385 C382 1.511 . S
C385 H399 0.961 . S
C385 H400 0.961 . S
C385 H401 0.961 . S
C386 C387 1.370 . S
C386 C388 1.363 . S
C386 H402 0.931 . S
C387 C386 1.370 . S
C387 C391 1.408 . S
C388 C386 1.363 . S
C388 C389 1.370 . S
C388 C392 1.524 . S
C389 C381 1.503 . S
C389 C388 1.370 . S
C389 C390 1.403 . S
C390 C389 1.403 . S
C390 C391 1.404 . S
C390 C393 1.539 . S
C391 C387 1.408 . S
C391 C390 1.404 . S
C391 H403 0.930 . S
C392 C388 1.524 . S
C392 H404 0.956 . S
C392 H405 0.961 . S
C392 H406 0.961 . S
C393 C390 1.539 . S
C393 H407 0.958 . S
C393 H408 0.961 . S
C393 H409 0.960 . S
H394 C378 0.931 . S
H395 C383 0.929 . S
H396 C384 0.960 . S
H397 C384 0.962 . S
H398 C384 0.960 . S
H399 C385 0.961 . S
H400 C385 0.961 . S
H401 C385 0.961 . S
H402 C386 0.931 . S
H403 C391 0.930 . S
H404 C392 0.956 . S
H405 C392 0.961 . S
H406 C392 0.961 . S
H407 C393 0.958 . S
H408 C393 0.961 . S
H409 C393 0.960 . S
C410 C411 1.391 . S
C410 C412 1.394 . S
C410 H426 0.931 . S
C411 C410 1.391 . S
C411 C415 1.376 . S
C412 C410 1.394 . S
C412 C413 1.369 . S
C412 C416 1.531 . S
C413 C412 1.369 . S
C413 C414 1.410 . S
C413 C421 1.503 . S
C414 C413 1.410 . S
C414 C415 1.392 . S
C414 C417 1.511 . S
C415 C411 1.376 . S
C415 C414 1.392 . S
C415 H427 0.929 . S
C416 C412 1.531 . S
C416 H428 0.960 . S
C416 H429 0.962 . S
C416 H430 0.960 . S
C417 C414 1.511 . S
C417 H431 0.961 . S
C417 H432 0.961 . S
C417 H433 0.961 . S
C418 C419 1.370 . S
C418 C420 1.363 . S
C418 H434 0.931 . S
C419 C418 1.370 . S
C419 C423 1.408 . S
C420 C418 1.363 . S
C420 C421 1.370 . S
C420 C424 1.524 . S
C421 C413 1.503 . S
C421 C420 1.370 . S
C421 C422 1.403 . S
C422 C421 1.403 . S
C422 C423 1.404 . S
C422 C425 1.539 . S
C423 C419 1.408 . S
C423 C422 1.404 . S
C423 H435 0.930 . S
C424 C420 1.524 . S
C424 H436 0.956 . S
C424 H437 0.961 . S
C424 H438 0.961 . S
C425 C422 1.539 . S
C425 H439 0.958 . S
C425 H440 0.961 . S
C425 H441 0.960 . S
H426 C410 0.931 . S
H427 C415 0.929 . S
H428 C416 0.960 . S
H429 C416 0.962 . S
H430 C416 0.960 . S
H431 C417 0.961 . S
H432 C417 0.961 . S
H433 C417 0.961 . S
H434 C418 0.931 . S
H435 C423 0.930 . S
H436 C424 0.956 . S
H437 C424 0.961 . S
H438 C424 0.961 . S
H439 C425 0.958 . S
H440 C425 0.961 . S
H441 C425 0.960 . S
C442 C443 1.391 . S
C442 C444 1.394 . S
C442 H458 0.931 . S
C443 C442 1.391 . S
C443 C447 1.376 . S
C444 C442 1.394 . S
C444 C445 1.369 . S
C444 C448 1.531 . S
C445 C444 1.369 . S
C445 C446 1.410 . S
C445 C453 1.503 . S
C446 C445 1.410 . S
C446 C447 1.392 . S
C446 C449 1.511 . S
C447 C443 1.376 . S
C447 C446 1.392 . S
C447 H459 0.929 1_556 S
C448 C444 1.531 . S
C448 H460 0.960 . S
C448 H461 0.962 . S
C448 H462 0.960 . S
C449 C446 1.511 . S
C449 H463 0.961 . S
C449 H464 0.961 . S
C449 H465 0.961 . S
C450 C451 1.370 . S
C450 C452 1.363 . S
C450 H466 0.931 . S
C451 C450 1.370 . S
C451 C455 1.408 . S
C452 C450 1.363 . S
C452 C453 1.370 . S
C452 C456 1.524 . S
C453 C445 1.503 . S
C453 C452 1.370 . S
C453 C454 1.403 . S
C454 C453 1.403 . S
C454 C455 1.404 . S
C454 C457 1.539 . S
C455 C451 1.408 . S
C455 C454 1.404 . S
C455 H467 0.930 . S
C456 C452 1.524 . S
C456 H468 0.956 . S
C456 H469 0.961 . S
C456 H470 0.981 . S
C457 C454 1.539 . S
C457 H471 0.958 . S
C457 H472 0.961 . S
C457 H473 0.960 . S
H458 C442 0.931 . S
H459 C447 0.929 1_554 S
H460 C448 0.960 . S
H461 C448 0.962 . S
H462 C448 0.960 . S
H463 C449 0.961 . S
H464 C449 0.961 . S
H465 C449 0.961 . S
H466 C450 0.931 . S
H467 C455 0.930 . S
H468 C456 0.956 . S
H469 C456 0.961 . S
H470 C456 0.981 . S
H471 C457 0.958 . S
H472 C457 0.961 . S
H473 C457 0.960 . S
C99 C64 1.279 . S
C91 C40 1.447 . S
C123 C4 1.464 . S
C131 C85 1.264 . S
C155 C16 1.587 . S
C163 C61 1.399 . S
C187 C28 1.607 . S
C195 C82 1.415 . S
C227 C66 1.503 . S
C219 C9 1.524 . S
C259 C86 1.531 . S
C251 C18 1.590 . S
C283 C33 1.566 . S
C291 C62 1.547 . S
C315 C45 1.510 . S
C323 C84 1.453 . S
C355 C83 1.478 . S
C347 C21 1.504 . S
C387 C65 1.468 . S
C379 C30 1.534 . S
C419 C87 1.434 . S
C411 C42 1.468 . S
C443 C6 1.451 1_556 S
C451 C63 1.422 . S
