# Generated by pormake.
# Topology pyr, (3,6)-cn, num edge types: 1
# Building blocks:
#     Node 0, Type 0, BuildingBlock: BETDIP_clean_linker_0, # of connection points: 3
#     Node 1, Type 0, BuildingBlock: BETDIP_clean_linker_0, # of connection points: 3
#     Node 2, Type 0, BuildingBlock: BETDIP_clean_linker_0, # of connection points: 3
#     Node 3, Type 0, BuildingBlock: BETDIP_clean_linker_0, # of connection points: 3
#     Node 4, Type 0, BuildingBlock: BETDIP_clean_linker_0, # of connection points: 3
#     Node 5, Type 0, BuildingBlock: BETDIP_clean_linker_0, # of connection points: 3
#     Node 6, Type 0, BuildingBlock: BETDIP_clean_linker_0, # of connection points: 3
#     Node 7, Type 0, BuildingBlock: BETDIP_clean_linker_0, # of connection points: 3
#     Node 8, Type 1, BuildingBlock: BETDAH_clean_sbu_0, # of connection points: 6
#     Node 9, Type 1, BuildingBlock: BETDAH_clean_sbu_0, # of connection points: 6
#     Node 10, Type 1, BuildingBlock: BETDAH_clean_sbu_0, # of connection points: 6
#     Node 11, Type 1, BuildingBlock: BETDAH_clean_sbu_0, # of connection points: 6
#     Edge 12, Type (0, 1), BuildingBlock: KIFKEQ_clean_linker_1, # of connection points: 2
#     Edge 13, Type (0, 1), BuildingBlock: KIFKEQ_clean_linker_1, # of connection points: 2
#     Edge 14, Type (0, 1), BuildingBlock: KIFKEQ_clean_linker_1, # of connection points: 2
#     Edge 15, Type (0, 1), BuildingBlock: KIFKEQ_clean_linker_1, # of connection points: 2
#     Edge 16, Type (0, 1), BuildingBlock: KIFKEQ_clean_linker_1, # of connection points: 2
#     Edge 17, Type (0, 1), BuildingBlock: KIFKEQ_clean_linker_1, # of connection points: 2
#     Edge 18, Type (0, 1), BuildingBlock: KIFKEQ_clean_linker_1, # of connection points: 2
#     Edge 19, Type (0, 1), BuildingBlock: KIFKEQ_clean_linker_1, # of connection points: 2
#     Edge 20, Type (0, 1), BuildingBlock: KIFKEQ_clean_linker_1, # of connection points: 2
#     Edge 21, Type (0, 1), BuildingBlock: KIFKEQ_clean_linker_1, # of connection points: 2
#     Edge 22, Type (0, 1), BuildingBlock: KIFKEQ_clean_linker_1, # of connection points: 2
#     Edge 23, Type (0, 1), BuildingBlock: KIFKEQ_clean_linker_1, # of connection points: 2
#     Edge 24, Type (0, 1), BuildingBlock: KIFKEQ_clean_linker_1, # of connection points: 2
#     Edge 25, Type (0, 1), BuildingBlock: KIFKEQ_clean_linker_1, # of connection points: 2
#     Edge 26, Type (0, 1), BuildingBlock: KIFKEQ_clean_linker_1, # of connection points: 2
#     Edge 27, Type (0, 1), BuildingBlock: KIFKEQ_clean_linker_1, # of connection points: 2
#     Edge 28, Type (0, 1), BuildingBlock: KIFKEQ_clean_linker_1, # of connection points: 2
#     Edge 29, Type (0, 1), BuildingBlock: KIFKEQ_clean_linker_1, # of connection points: 2
#     Edge 30, Type (0, 1), BuildingBlock: KIFKEQ_clean_linker_1, # of connection points: 2
#     Edge 31, Type (0, 1), BuildingBlock: KIFKEQ_clean_linker_1, # of connection points: 2
#     Edge 32, Type (0, 1), BuildingBlock: KIFKEQ_clean_linker_1, # of connection points: 2
#     Edge 33, Type (0, 1), BuildingBlock: KIFKEQ_clean_linker_1, # of connection points: 2
#     Edge 34, Type (0, 1), BuildingBlock: KIFKEQ_clean_linker_1, # of connection points: 2
#     Edge 35, Type (0, 1), BuildingBlock: KIFKEQ_clean_linker_1, # of connection points: 2
# Relax obj value: 0.127
# Max RMSD: 0.170
# Mean RMSD: 0.137
data_MOF--net-pyr--node1-BETDAH_clean_sbu_0--node2-BETDIP_clean_linker_0--edge1-KIFKEQ_clean_linker_1
_symmetry_space_group_name_H-M    P1
_symmetry_Int_Tables_number       1
_symmetry_cell_setting            triclinic
loop_
_symmetry_equiv_pos_as_xyz
'x, y, z'
_cell_length_a     39.418928
_cell_length_b     39.847607
_cell_length_c     37.228161
_cell_angle_alpha  91.573611
_cell_angle_beta   86.465177
_cell_angle_gamma 106.58877
loop_
_atom_site_label
_atom_site_type_symbol
_atom_site_fract_x
_atom_site_fract_y
_atom_site_fract_z
_atom_type_partial_charge
H0 H 0.2982 0.32262 0.23757 0.0
H1 H 0.3789 0.30752 0.16134 0.0
H2 H 0.33462 0.23122 0.2438 0.0
H3 H 0.33554 0.3847 0.22514 0.0
C4 C 0.32917 0.37811 0.19734 0.0
C5 C 0.31641 0.30791 0.2285 0.0
C6 C 0.31388 0.27582 0.24468 0.0
C7 C 0.34017 0.31966 0.19872 0.0
C8 C 0.3614 0.29894 0.18499 0.0
C9 C 0.35997 0.26721 0.20152 0.0
C10 C 0.33648 0.25611 0.2316 0.0
N11 N 0.34036 0.35045 0.18024 0.0
H12 H 0.17345 0.87503 0.69735 0.0
H13 H 0.20388 0.80315 0.62249 0.0
H14 H 0.27983 0.8667 0.69279 0.0
H15 H 0.16273 0.81711 0.58854 0.0
C16 C 0.14617 0.82893 0.60606 0.0
C17 C 0.19333 0.86317 0.68602 0.0
C18 C 0.22775 0.87387 0.69807 0.0
C19 C 0.18502 0.83874 0.6578 0.0
C20 C 0.2107 0.8232 0.64315 0.0
C21 C 0.24481 0.83258 0.65631 0.0
C22 C 0.2533 0.85862 0.68306 0.0
N23 N 0.1512 0.83181 0.64355 0.0
H24 H 0.70833 0.43345 0.85647 0.0
H25 H 0.6169 0.34342 0.85129 0.0
H26 H 0.69497 0.34786 0.92899 0.0
H27 H 0.59312 0.38341 0.82443 0.0
C28 C 0.61487 0.40095 0.80885 0.0
C29 C 0.69301 0.40806 0.86657 0.0
C30 C 0.70593 0.39281 0.89474 0.0
C31 C 0.66074 0.39096 0.8508 0.0
C32 C 0.64107 0.35734 0.86376 0.0
C33 C 0.65337 0.34091 0.89178 0.0
C34 C 0.68574 0.35931 0.90686 0.0
N35 N 0.65007 0.40785 0.82126 0.0
H36 H 0.80264 0.65188 0.36667 0.0
H37 H 0.89402 0.74251 0.35913 0.0
H38 H 0.80866 0.73973 0.43786 0.0
H39 H 0.91857 0.70794 0.32457 0.0
C40 C 0.8978 0.68725 0.31293 0.0
C41 C 0.81697 0.67774 0.37607 0.0
C42 C 0.8018 0.69391 0.40414 0.0
C43 C 0.85016 0.69479 0.35946 0.0
C44 C 0.86869 0.72858 0.37183 0.0
C45 C 0.8538 0.74517 0.40011 0.0
C46 C 0.82023 0.72758 0.41578 0.0
N47 N 0.86297 0.67742 0.32977 0.0
H48 H 0.62932 0.79174 0.93345 0.0
H49 H 0.71143 0.77239 0.86196 0.0
H50 H 0.67983 0.86619 0.85114 0.0
H51 H 0.66851 0.70874 0.87606 0.0
C52 C 0.67708 0.71822 0.90261 0.0
C53 C 0.64798 0.79946 0.91047 0.0
C54 C 0.65148 0.83125 0.8931 0.0
C55 C 0.66861 0.77757 0.89851 0.0
C56 C 0.69381 0.78814 0.86963 0.0
C57 C 0.69846 0.82031 0.85266 0.0
C58 C 0.67645 0.84126 0.86396 0.0
N59 N 0.66624 0.74677 0.918 0.0
H60 H 0.75411 0.16812 0.43881 0.0
H61 H 0.76533 0.24832 0.52059 0.0
H62 H 0.72957 0.26387 0.41745 0.0
H63 H 0.80405 0.22275 0.54195 0.0
C64 C 0.79727 0.19568 0.53277 0.0
C65 C 0.75267 0.19398 0.44714 0.0
C66 C 0.74069 0.21451 0.4237 0.0
C67 C 0.76264 0.20629 0.48159 0.0
C68 C 0.7594 0.23912 0.49345 0.0
C69 C 0.74757 0.25994 0.47018 0.0
C70 C 0.73887 0.24775 0.43528 0.0
N71 N 0.77539 0.18447 0.50336 0.0
H72 H 0.30462 0.67107 0.2317 0.0
H73 H 0.39677 0.7606 0.23581 0.0
H74 H 0.31847 0.75594 0.15822 0.0
H75 H 0.41954 0.72032 0.26435 0.0
C76 C 0.39746 0.7034 0.28007 0.0
C77 C 0.32017 0.69626 0.22129 0.0
C78 C 0.30768 0.71109 0.19254 0.0
C79 C 0.35226 0.71354 0.23728 0.0
C80 C 0.37228 0.74688 0.22378 0.0
C81 C 0.36054 0.76268 0.19485 0.0
C82 C 0.32811 0.74428 0.17992 0.0
N83 N 0.36242 0.69702 0.26741 0.0
H84 H 0.12213 0.34079 0.73941 0.0
H85 H 0.207 0.4367 0.72874 0.0
H86 H 0.20934 0.34821 0.6614 0.0
H87 H 0.16481 0.46022 0.75298 0.0
C88 C 0.14991 0.44145 0.77288 0.0
C89 C 0.147 0.35573 0.72638 0.0
C90 C 0.16374 0.34004 0.6989 0.0
C91 C 0.16202 0.39064 0.73731 0.0
C92 C 0.19446 0.41006 0.72034 0.0
C93 C 0.21177 0.39468 0.69322 0.0
C94 C 0.19636 0.35972 0.68289 0.0
N95 N 0.14443 0.40494 0.76601 0.0
Ho96 Ho 0.01289 0.05833 0.51662 0.0
Ho97 Ho 0.01252 1.02206 0.58772 0.0
C98 C 0.05168 0.10281 0.58507 0.0
C99 C 0.01142 0.10029 0.46551 0.0
C100 C 0.04013 0.12771 0.44794 0.0
C101 C 0.03477 0.14268 0.41598 0.0
C102 C 0.06353 0.16485 0.39647 0.0
C103 C 0.09808 0.1721 0.40856 0.0
C104 C 0.10291 0.15825 0.44158 0.0
C105 C 0.07417 0.13623 0.46107 0.0
C106 C 0.06639 1.02884 0.5227 0.0
C107 C 0.97402 0.97779 0.5189 0.0
C108 C 0.01284 0.97961 0.63876 0.0
C109 C 0.98278 0.95387 0.65672 0.0
C110 C 0.98622 0.94014 0.69006 0.0
C111 C 0.95618 0.91987 0.70952 0.0
C112 C 0.92228 0.91329 0.69593 0.0
C113 C 0.91935 0.92595 0.66171 0.0
C114 C 0.94932 0.94608 0.64233 0.0
C115 C 0.95882 0.05085 0.58213 0.0
O116 O 0.03404 0.10287 0.55591 0.0
O117 O 0.05332 0.07304 0.59879 0.0
O118 O 0.01409 0.06862 0.45989 0.0
O119 O 0.00335 0.10611 0.49926 0.0
O120 O 0.05215 1.03095 0.4928 0.0
O121 O 0.0537 0.04522 0.54661 0.0
O122 O 0.99189 0.97755 0.54789 0.0
O123 O 0.97201 1.00763 0.50576 0.0
O124 O 0.01285 1.01209 0.64442 0.0
O125 O 0.01965 0.97313 0.60488 0.0
O126 O 0.97282 0.04849 0.61205 0.0
O127 O 0.97144 1.03495 0.55768 0.0
H128 H 0.00862 0.13624 0.40548 0.0
H129 H 0.05887 0.17551 0.3714 0.0
H130 H 0.12914 0.16287 0.45146 0.0
H131 H 0.07876 0.12457 0.48561 0.0
H132 H 0.01187 0.9461 0.7016 0.0
H133 H 0.95937 0.91012 0.73559 0.0
H134 H 0.8937 0.92188 0.65064 0.0
H135 H 0.94615 0.95689 0.61676 0.0
Ho136 Ho 0.54255 0.06579 0.06207 0.0
Ho137 Ho 0.46875 1.03718 1.02151 0.0
C138 C 0.47465 0.09104 0.08918 0.0
C139 C 0.60462 0.10194 0.08005 0.0
C140 C 0.62316 0.11047 0.11343 0.0
C141 C 0.65095 0.14139 0.11556 0.0
C142 C 0.66719 0.15139 0.14795 0.0
C143 C 0.65587 0.13051 0.17866 0.0
C144 C 0.62859 0.09901 0.17615 0.0
C145 C 0.6122 0.08914 0.14377 0.0
C146 C 0.4982 1.00572 0.0938 0.0
C147 C 0.53619 1.0104 0.9967 0.0
C148 C 0.40629 1.00201 1.00336 0.0
C149 C 0.38453 1.00034 0.97255 0.0
C150 C 0.35002 0.97775 0.97351 0.0
C151 C 0.3298 0.97394 0.94337 0.0
C152 C 0.3439 0.99268 0.91179 0.0
C153 C 0.37812 1.01633 0.91151 0.0
C154 C 0.3983 1.02011 0.94169 0.0
C155 C 0.51307 0.0975 0.99008 0.0
O156 O 0.50962 0.09812 0.08795 0.0
O157 O 0.45402 0.06499 0.07073 0.0
O158 O 0.59736 0.06923 0.06914 0.0
O159 O 0.57821 0.11538 0.07735 0.0
O160 O 0.52895 1.02308 0.10509 0.0
O161 O 0.49334 1.02284 0.06752 0.0
O162 O 0.50115 1.0025 0.99955 0.0
O163 O 0.55697 1.03808 1.01278 0.0
O164 O 0.41243 1.0309 1.02257 0.0
O165 O 0.43451 0.99113 0.99721 0.0
O166 O 0.4821 0.08055 0.97905 0.0
O167 O 0.5179 0.07994 1.01597 0.0
H168 H 0.65961 0.15814 0.09234 0.0
H169 H 0.68835 0.17565 0.14912 0.0
H170 H 0.61908 0.08267 0.19952 0.0
H171 H 0.59051 0.0653 0.14263 0.0
H172 H 0.33907 0.96234 0.99722 0.0
H173 H 0.30375 0.95518 0.94428 0.0
H174 H 0.38954 1.03136 0.88769 0.0
H175 H 0.4249 1.03783 0.94067 0.0
Ho176 Ho 0.5061 0.52273 0.52039 0.0
Ho177 Ho 0.50142 0.57995 0.57092 0.0
C178 C 0.53267 0.52237 0.60279 0.0
C179 C 0.52753 0.47775 0.48074 0.0
C180 C 0.5553 0.46038 0.48387 0.0
C181 C 0.58267 0.47366 0.50733 0.0
C182 C 0.60938 0.4573 0.50974 0.0
C183 C 0.60925 0.42763 0.48845 0.0
C184 C 0.58159 0.4143 0.46519 0.0
C185 C 0.55478 0.43056 0.46297 0.0
C186 C 0.44159 0.51292 0.55492 0.0
C187 C 0.47473 0.5806 0.48842 0.0
C188 C 0.48194 0.62656 0.6097 0.0
C189 C 0.46055 0.65074 0.60415 0.0
C190 C 0.4236 0.63826 0.60188 0.0
C191 C 0.40352 0.66157 0.59841 0.0
C192 C 0.41992 0.69784 0.59703 0.0
C193 C 0.45702 0.7102 0.5981 0.0
C194 C 0.4771 0.68688 0.60183 0.0
C195 C 0.56598 0.58869 0.537 0.0
O196 O 0.53633 0.5131 0.56845 0.0
O197 O 0.51584 0.54605 0.61152 0.0
O198 O 0.50075 0.46886 0.50443 0.0
O199 O 0.53887 0.51154 0.47581 0.0
O200 O 0.44626 0.50485 0.52132 0.0
O201 O 0.47122 0.52462 0.5685 0.0
O202 O 0.47277 0.5914 0.52246 0.0
O203 O 0.48963 0.55538 0.47998 0.0
O204 O 0.5125 0.63306 0.59152 0.0
O205 O 0.46508 0.59313 0.61072 0.0
O206 O 0.56124 0.59633 0.57068 0.0
O207 O 0.53645 0.57789 0.52309 0.0
H208 H 0.58365 0.49691 0.52345 0.0
H209 H 0.63049 0.46825 0.52767 0.0
H210 H 0.58055 0.39114 0.44887 0.0
H211 H 0.53377 0.41996 0.44483 0.0
H212 H 0.40997 0.61054 0.60355 0.0
H213 H 0.37497 0.65117 0.59829 0.0
H214 H 0.47051 0.73795 0.59668 0.0
H215 H 0.50555 0.69717 0.60341 0.0
Ho216 Ho 0.00782 0.51745 0.05749 0.0
Ho217 Ho 0.00783 0.58626 1.02704 0.0
C218 C 0.07531 0.58747 0.07111 0.0
C219 C 0.02557 0.4623 0.07375 0.0
C220 C 0.05793 0.4559 0.08604 0.0
C221 C 0.09161 0.47804 0.07579 0.0
C222 C 0.12214 0.47153 0.08747 0.0
C223 C 0.11954 0.44286 0.10974 0.0
C224 C 0.08572 0.42094 0.12017 0.0
C225 C 0.0552 0.42742 0.10837 0.0
C226 C 0.97315 0.55453 0.10012 0.0
C227 C 0.94011 0.51624 1.01372 0.0
C228 C 0.99064 0.64181 1.01119 0.0
C229 C 0.95869 0.64917 0.99898 0.0
C230 C 0.94791 0.67703 1.0148 0.0
C231 C 0.9167 0.68352 1.00517 0.0
C232 C 0.89563 0.66232 0.97934 0.0
C233 C 0.90667 0.63445 0.96337 0.0
C234 C 0.93785 0.62787 0.97317 0.0
C235 C 0.0443 0.55025 0.98548 0.0
O236 O 0.06279 0.55273 0.0707 0.0
O237 O 0.05712 0.60713 0.05792 0.0
O238 O 0.00901 0.47851 0.09657 0.0
O239 O 0.02765 0.47391 0.04094 0.0
O240 O 0.9627 0.52064 0.09665 0.0
O241 O 1.00201 0.56653 0.08199 0.0
O242 O 0.95293 0.55097 1.01355 0.0
O243 O 0.95802 0.49658 1.02742 0.0
O244 O 0.00756 0.62579 0.98845 0.0
O245 O 0.98767 0.62962 0.04381 0.0
O246 O 0.05419 0.58408 0.98963 0.0
O247 O 0.01475 0.53751 1.00233 0.0
H248 H 0.09437 0.50031 0.05868 0.0
H249 H 0.14776 0.48915 0.07938 0.0
H250 H 0.08286 0.39845 0.13701 0.0
H251 H 0.02944 0.41008 0.11656 0.0
H252 H 0.96343 0.69351 1.03506 0.0
H253 H 0.90876 0.7048 1.01852 0.0
H254 H 0.89137 0.61783 0.9431 0.0
H255 H 0.94552 0.60605 0.96074 0.0
H256 H 0.27154 0.20855 0.24961 0.0
H257 H 0.2899 0.31008 0.30142 0.0
H258 H 0.22039 0.1854 0.29072 0.0
H259 H 0.23744 0.28712 0.34172 0.0
H260 H 0.15893 0.22064 0.42878 0.0
H261 H 0.21277 0.24608 0.3912 0.0
H262 H 0.16126 0.19224 0.29827 0.0
H263 H 0.10829 0.16571 0.33587 0.0
C264 C 0.26498 0.22585 0.27011 0.0
C265 C 0.28486 0.26119 0.27223 0.0
C266 C 0.23526 0.2127 0.29331 0.0
C267 C 0.22451 0.23456 0.31909 0.0
C268 C 0.24506 0.26961 0.32215 0.0
C269 C 0.27493 0.2828 0.29891 0.0
C270 C 0.15916 0.21428 0.40032 0.0
C271 C 0.12933 0.19104 0.38537 0.0
C272 C 0.18989 0.22906 0.37876 0.0
C273 C 0.19141 0.22082 0.34186 0.0
C274 C 0.16117 0.19858 0.32675 0.0
C275 C 0.13056 0.18381 0.34823 0.0
H276 H 0.19892 0.87099 0.76656 0.0
H277 H 0.27948 0.93554 0.69434 0.0
H278 H 0.2243 0.90782 0.81732 0.0
H279 H 0.30418 0.97339 0.74462 0.0
H280 H 0.37064 0.98348 0.84438 0.0
H281 H 0.33822 0.96261 0.7912 0.0
H282 H 0.24018 0.9626 0.85007 0.0
H283 H 0.27298 0.9833 0.90388 0.0
C284 C 0.22131 0.89386 0.76151 0.0
C285 C 0.23762 0.90036 0.72688 0.0
C286 C 0.23583 0.91505 0.79049 0.0
C287 C 0.26669 0.94324 0.78511 0.0
C288 C 0.28095 0.9514 0.7498 0.0
C289 C 0.26674 0.92995 0.72101 0.0
C290 C 0.34231 0.97997 0.8458 0.0
C291 C 0.32436 0.9849 0.87838 0.0
C292 C 0.32363 0.96803 0.8152 0.0
C293 C 0.28651 0.96086 0.81632 0.0
C294 C 0.2687 0.96742 0.84846 0.0
C295 C 0.28745 0.97928 0.87922 0.0
H296 H 0.5495 0.40523 0.7943 0.0
H297 H 0.65816 0.43988 0.75289 0.0
H298 H 0.5315 0.43457 0.74519 0.0
H299 H 0.63995 0.46896 0.70282 0.0
H300 H 0.58157 0.48363 0.59766 0.0
H301 H 0.60334 0.45604 0.64625 0.0
H302 H 0.53737 0.49464 0.72381 0.0
H303 H 0.51618 0.52249 0.6757 0.0
C304 C 0.56969 0.4192 0.7747 0.0
C305 C 0.6054 0.42019 0.77805 0.0
C306 C 0.55931 0.43623 0.74639 0.0
C307 C 0.58409 0.4545 0.71964 0.0
C308 C 0.61991 0.45515 0.72261 0.0
C309 C 0.63045 0.4386 0.75155 0.0
C310 C 0.57177 0.48639 0.62508 0.0
C311 C 0.54691 0.50553 0.63234 0.0
C312 C 0.58447 0.47064 0.65312 0.0
C313 C 0.57221 0.47278 0.68938 0.0
C314 C 0.54738 0.49193 0.69646 0.0
C315 C 0.53526 0.50817 0.66865 0.0
H316 H 0.9632 0.6952 0.28071 0.0
H317 H 0.85385 0.63542 0.27256 0.0
H318 H 0.98014 0.66355 0.22889 0.0
H319 H 0.87043 0.60442 0.2199 0.0
H320 H 0.91835 0.52989 0.15022 0.0
H321 H 0.89938 0.56178 0.20087 0.0
H322 H 0.97819 0.65658 0.16593 0.0
H323 H 0.99791 0.62425 0.11631 0.0
C324 C 0.94273 0.67541 0.26763 0.0
C325 C 0.90725 0.6678 0.28086 0.0
C326 C 0.95237 0.65738 0.23766 0.0
C327 C 0.92672 0.63133 0.21982 0.0
C328 C 0.89109 0.62387 0.23307 0.0
C329 C 0.88149 0.64182 0.26323 0.0
C330 C 0.93147 0.55759 0.15331 0.0
C331 C 0.95968 0.57449 0.12925 0.0
C332 C 0.92047 0.57601 0.1823 0.0
C333 C 0.93729 0.6119 0.1879 0.0
C334 C 0.96496 0.62889 0.16313 0.0
C335 C 0.97608 0.61042 0.13433 0.0
H336 H 0.40023 0.23415 0.23636 0.0
H337 H 0.36502 0.24699 0.1314 0.0
H338 H 0.42871 0.1908 0.21124 0.0
H339 H 0.39349 0.20384 0.10634 0.0
H340 H 0.40655 0.09436 0.08701 0.0
H341 H 0.38096 0.13816 0.11498 0.0
H342 H 0.479 0.18652 0.16547 0.0
H343 H 0.50498 0.14268 0.13736 0.0
C344 C 0.3989 0.22791 0.20788 0.0
C345 C 0.38045 0.24389 0.18579 0.0
C346 C 0.41526 0.20325 0.19353 0.0
C347 C 0.41298 0.19376 0.15695 0.0
C348 C 0.39527 0.21038 0.13473 0.0
C349 C 0.37933 0.23533 0.14896 0.0
C350 C 0.42263 0.114 0.10441 0.0
C351 C 0.45791 0.11503 0.10982 0.0
C352 C 0.40801 0.13929 0.12016 0.0
C353 C 0.42815 0.16596 0.142 0.0
C354 C 0.46291 0.16622 0.14872 0.0
C355 C 0.47774 0.14113 0.13259 0.0
H356 H 0.15533 0.85213 0.53716 0.0
H357 H 0.10021 0.86121 0.63925 0.0
H358 H 0.13701 0.90081 0.51392 0.0
H359 H 0.08149 0.90919 0.61604 0.0
H360 H 0.06904 0.97255 0.48029 0.0
H361 H 0.08579 0.92105 0.4981 0.0
H362 H 0.11422 0.96985 0.60132 0.0
H363 H 0.09694 1.02084 0.58373 0.0
C364 C 0.13865 0.86404 0.55428 0.0
C365 C 0.12959 0.85336 0.59007 0.0
C366 C 0.12823 0.89187 0.54105 0.0
C367 C 0.10852 0.90927 0.56347 0.0
C368 C 0.09752 0.89691 0.59849 0.0
C369 C 0.108 0.86926 0.61168 0.0
C370 C 0.07947 0.97241 0.50652 0.0
C371 C 0.08162 1.00047 0.53078 0.0
C372 C 0.08894 0.94295 0.51672 0.0
C373 C 0.10071 0.94121 0.5513 0.0
C374 C 0.10443 0.9701 0.5748 0.0
C375 C 0.09494 0.99943 0.56464 0.0
H376 H 0.75932 0.36571 0.91388 0.0
H377 H 0.73158 0.46277 0.91415 0.0
H378 H 0.81447 0.39518 0.94147 0.0
H379 H 0.78615 0.49231 0.94318 0.0
H380 H 0.90108 0.54527 0.97089 0.0
H381 H 0.84637 0.51658 0.94187 0.0
H382 H 0.8439 0.41882 0.99098 0.0
H383 H 0.89947 0.44734 1.01832 0.0
C384 C 0.76474 0.39337 0.92019 0.0
C385 C 0.7405 0.41159 0.9116 0.0
C386 C 0.79663 0.41049 0.93641 0.0
C387 C 0.80558 0.44658 0.9453 0.0
C388 C 0.78123 0.4648 0.93655 0.0
C389 C 0.74952 0.44771 0.91985 0.0
C390 C 0.88891 0.51763 0.97553 0.0
C391 C 0.90524 0.49884 0.99707 0.0
C392 C 0.85704 0.50098 0.95891 0.0
C393 C 0.83986 0.46484 0.96347 0.0
C394 C 0.85608 0.44631 0.98562 0.0
C395 C 0.88815 0.46287 1.00181 0.0
H396 H 0.74252 0.71622 0.40906 0.0
H397 H 0.78218 0.63114 0.43872 0.0
H398 H 0.68497 0.68758 0.43968 0.0
H399 H 0.72486 0.60295 0.47038 0.0
H400 H 0.63215 0.60258 0.56217 0.0
H401 H 0.68927 0.62524 0.52824 0.0
H402 H 0.63448 0.62464 0.43133 0.0
H403 H 0.57747 0.60093 0.46491 0.0
C404 C 0.73881 0.69135 0.4221 0.0
C405 C 0.76664 0.67579 0.42151 0.0
C406 C 0.70595 0.67495 0.43947 0.0
C407 C 0.70055 0.6431 0.45735 0.0
C408 C 0.7284 0.62753 0.45683 0.0
C409 C 0.76103 0.64353 0.43866 0.0
C410 C 0.63239 0.60693 0.53354 0.0
C411 C 0.60044 0.60014 0.51618 0.0
C412 C 0.665 0.61976 0.51416 0.0
C413 C 0.66619 0.62679 0.47724 0.0
C414 C 0.63424 0.61956 0.4598 0.0
C415 C 0.60169 0.60592 0.47898 0.0
H416 H 0.30098 0.36376 0.13095 0.0
H417 H 0.29552 0.42219 0.22948 0.0
H418 H 0.25154 0.38155 0.10926 0.0
H419 H 0.24637 0.4404 0.20764 0.0
H420 H 0.13138 0.42429 0.17696 0.0
H421 H 0.18396 0.411 0.19662 0.0
H422 H 0.23397 0.43277 0.08994 0.0
H423 H 0.18094 0.44521 0.07001 0.0
C424 C 0.28952 0.38079 0.14776 0.0
C425 C 0.30192 0.39151 0.18199 0.0
C426 C 0.26128 0.39108 0.13528 0.0
C427 C 0.24486 0.41217 0.15686 0.0
C428 C 0.2581 0.42372 0.19062 0.0
C429 C 0.28637 0.41354 0.20301 0.0
C430 C 0.15353 0.42607 0.15766 0.0
C431 C 0.15196 0.43571 0.12191 0.0
C432 C 0.18381 0.41884 0.16902 0.0
C433 C 0.21318 0.42093 0.14486 0.0
C434 C 0.21169 0.4307 0.10913 0.0
C435 C 0.18145 0.43813 0.09781 0.0
H436 H 0.67937 0.28794 0.91522 0.0
H437 H 0.58049 0.31052 0.9002 0.0
H438 H 0.64708 0.23074 0.93922 0.0
H439 H 0.54813 0.25319 0.92419 0.0
H440 H 0.4975 0.13541 0.93707 0.0
H441 H 0.53072 0.19246 0.91358 0.0
H442 H 0.6121 0.19776 0.98778 0.0
H443 H 0.57873 0.13972 1.01072 0.0
C444 C 0.6507 0.28104 0.91727 0.0
C445 C 0.63291 0.30464 0.9056 0.0
C446 C 0.632 0.24786 0.93122 0.0
C447 C 0.59461 0.23662 0.93403 0.0
C448 C 0.57679 0.26013 0.92216 0.0
C449 C 0.59551 0.29335 0.90821 0.0
C450 C 0.52254 0.14862 0.94845 0.0
C451 C 0.53519 0.13264 0.97603 0.0
C452 C 0.54162 0.1818 0.93508 0.0
C453 C 0.57436 0.20061 0.94866 0.0
C454 C 0.58727 0.18441 0.97613 0.0
C455 C 0.56799 0.15103 0.98961 0.0
H456 H 0.92378 0.7702 0.41607 0.0
H457 H 0.82699 0.8004 0.41604 0.0
H458 H 0.9535 0.82674 0.44345 0.0
H459 H 0.85634 0.85642 0.44391 0.0
H460 H 0.92927 0.9668 0.4634 0.0
H461 H 0.90194 0.91178 0.43248 0.0
H462 H 0.9519 0.85727 0.50184 0.0
H463 H 0.97953 0.91232 0.53258 0.0
C464 C 0.90895 0.78903 0.42155 0.0
C465 C 0.87296 0.78068 0.41396 0.0
C466 C 0.92586 0.82129 0.43762 0.0
C467 C 0.90729 0.84615 0.44614 0.0
C468 C 0.87158 0.83811 0.43756 0.0
C469 C 0.85465 0.80582 0.42181 0.0
C470 C 0.93441 0.9431 0.47215 0.0
C471 C 0.9565 0.94408 0.50066 0.0
C472 C 0.91862 0.91148 0.45445 0.0
C473 C 0.9247 0.87999 0.46458 0.0
C474 C 0.94694 0.88102 0.49299 0.0
C475 C 0.96254 0.9126 0.51087 0.0
H476 H 0.26183 0.81505 0.58692 0.0
H477 H 0.28741 0.80875 0.69728 0.0
H478 H 0.30711 0.78617 0.56704 0.0
H479 H 0.33227 0.78038 0.67761 0.0
H480 H 0.43039 0.7589 0.63541 0.0
H481 H 0.39011 0.79484 0.64457 0.0
H482 H 0.31829 0.72781 0.5721 0.0
H483 H 0.35956 0.69259 0.56144 0.0
C484 C 0.27701 0.80742 0.60686 0.0
C485 C 0.2714 0.8145 0.6436 0.0
C486 C 0.30293 0.79104 0.5955 0.0
C487 C 0.32361 0.7816 0.62073 0.0
C488 C 0.31749 0.78825 0.65743 0.0
C489 C 0.2917 0.80444 0.66871 0.0
C490 C 0.40659 0.75236 0.62051 0.0
C491 C 0.39799 0.72258 0.59802 0.0
C492 C 0.38328 0.77274 0.62613 0.0
C493 C 0.35075 0.76369 0.60962 0.0
C494 C 0.34316 0.73537 0.58523 0.0
C495 C 0.3666 0.71499 0.57946 0.0
H496 H 0.74312 0.88666 0.84764 0.0
H497 H 0.72327 0.78388 0.7984 0.0
H498 H 0.79627 0.90743 0.8085 0.0
H499 H 0.77765 0.80436 0.76026 0.0
H500 H 0.86126 0.86565 0.67488 0.0
H501 H 0.8057 0.84316 0.71069 0.0
H502 H 0.85465 0.89909 0.80387 0.0
H503 H 0.90945 0.92279 0.76784 0.0
C504 C 0.74981 0.86857 0.82813 0.0
C505 C 0.72888 0.83358 0.82617 0.0
C506 C 0.78067 0.88035 0.80608 0.0
C507 C 0.79153 0.85741 0.78166 0.0
C508 C 0.77 0.82271 0.77876 0.0
C509 C 0.739 0.81092 0.8008 0.0
C510 C 0.86011 0.87314 0.70301 0.0
C511 C 0.88979 0.89615 0.71844 0.0
C512 C 0.82837 0.86003 0.72359 0.0
C513 C 0.82562 0.86965 0.76002 0.0
C514 C 0.85566 0.89169 0.77569 0.0
C515 C 0.8873 0.90483 0.75516 0.0
H516 H 0.68294 0.2208 0.39069 0.0
H517 H 0.77154 0.17726 0.3754 0.0
H518 H 0.66436 0.20039 0.33086 0.0
H519 H 0.75226 0.15607 0.31559 0.0
H520 H 0.67777 0.0927 0.22806 0.0
H521 H 0.69937 0.1124 0.28757 0.0
H522 H 0.68932 0.21527 0.26744 0.0
H523 H 0.66739 0.19557 0.20842 0.0
C524 C 0.69863 0.20712 0.37446 0.0
C525 C 0.72897 0.20101 0.38765 0.0
C526 C 0.6879 0.19535 0.34026 0.0
C527 C 0.70705 0.17692 0.31859 0.0
C528 C 0.73694 0.17007 0.33192 0.0
C529 C 0.74789 0.18213 0.36612 0.0
C530 C 0.68029 0.11952 0.23643 0.0
C531 C 0.67094 0.14263 0.21372 0.0
C532 C 0.69285 0.13082 0.27027 0.0
C533 C 0.69582 0.16528 0.28205 0.0
C534 C 0.68695 0.18847 0.2591 0.0
C535 C 0.67474 0.1773 0.22523 0.0
H536 H 0.3534 0.66673 0.33683 0.0
H537 H 0.46195 0.69665 0.2947 0.0
H538 H 0.37041 0.63746 0.38749 0.0
H539 H 0.47872 0.667 0.34437 0.0
H540 H 0.4897 0.5779 0.41538 0.0
H541 H 0.46974 0.60623 0.36681 0.0
H542 H 0.40815 0.6506 0.44391 0.0
H543 H 0.42881 0.62261 0.49301 0.0
C544 C 0.38082 0.66693 0.33813 0.0
C545 C 0.40621 0.68408 0.31125 0.0
C546 C 0.39069 0.65026 0.36741 0.0
C547 C 0.42609 0.64949 0.37036 0.0
C548 C 0.4512 0.66649 0.34322 0.0
C549 C 0.44153 0.68368 0.31458 0.0
C550 C 0.47184 0.59358 0.42226 0.0
C551 C 0.46109 0.59771 0.4586 0.0
C552 C 0.46043 0.6101 0.39416 0.0
C553 C 0.43719 0.631 0.40097 0.0
C554 C 0.42579 0.63464 0.43726 0.0
C555 C 0.43784 0.61863 0.46558 0.0
H556 H 0.15079 0.50852 0.78664 0.0
H557 H 0.11233 0.4053 0.8322 0.0
H558 H 0.12539 0.53283 0.83874 0.0
H559 H 0.08763 0.42976 0.88535 0.0
H560 H 0.01726 0.48369 0.95815 0.0
H561 H 0.04233 0.45583 0.90779 0.0
H562 H 0.13382 0.54671 0.8999 0.0
H563 H 0.10817 0.57467 0.9491 0.0
C564 C 0.137 0.49102 0.80799 0.0
C565 C 0.13363 0.45503 0.80523 0.0
C566 C 0.12264 0.50501 0.83813 0.0
C567 C 0.10466 0.48346 0.86676 0.0
C568 C 0.10101 0.44723 0.86385 0.0
C569 C 0.11531 0.43317 0.83342 0.0
C570 C 0.04282 0.49753 0.9457 0.0
C571 C 0.06056 0.53155 0.95734 0.0
C572 C 0.05732 0.48151 0.91689 0.0
C573 C 0.09 0.4991 0.89918 0.0
C574 C 0.10821 0.5326 0.91202 0.0
C575 C 0.09364 0.54861 0.94051 0.0
H576 H 0.61346 0.86464 0.85543 0.0
H577 H 0.64514 0.8533 0.96233 0.0
H578 H 0.58457 0.90858 0.87829 0.0
H579 H 0.61655 0.89721 0.98504 0.0
H580 H 0.60443 1.00791 0.99934 0.0
H581 H 0.63041 0.96362 0.97314 0.0
H582 H 0.53221 0.91234 0.92425 0.0
H583 H 0.50575 0.95659 0.95079 0.0
C584 C 0.61399 0.8714 0.88381 0.0
C585 C 0.63145 0.85559 0.90716 0.0
C586 C 0.59741 0.89638 0.89686 0.0
C587 C 0.59862 0.90641 0.93333 0.0
C588 C 0.61555 0.89016 0.95673 0.0
C589 C 0.6316 0.86483 0.94383 0.0
C590 C 0.58839 0.9875 0.98267 0.0
C591 C 0.55293 0.98577 0.97726 0.0
C592 C 0.60324 0.96199 0.96792 0.0
C593 C 0.58318 0.93442 0.94702 0.0
C594 C 0.54822 0.93337 0.94028 0.0
C595 C 0.53311 0.95866 0.95552 0.0
H596 H 0.85271 0.213 0.57621 0.0
H597 H 0.78696 0.12615 0.51727 0.0
H598 H 0.89072 0.1767 0.59059 0.0
H599 H 0.82449 0.09004 0.53183 0.0
H600 H 0.92706 0.05671 0.52082 0.0
H601 H 0.88579 0.09087 0.51223 0.0
H602 H 0.89165 0.12351 0.6239 0.0
H603 H 0.93331 0.08955 0.63234 0.0
C604 C 0.84612 0.18603 0.56687 0.0
C605 C 0.81726 0.17253 0.54531 0.0
C606 C 0.86775 0.16528 0.57511 0.0
C607 C 0.86077 0.13072 0.56188 0.0
C608 C 0.83089 0.11681 0.54175 0.0
C609 C 0.80932 0.13748 0.53357 0.0
C610 C 0.91934 0.07104 0.54353 0.0
C611 C 0.93314 0.07049 0.57724 0.0
C612 C 0.89563 0.09044 0.53869 0.0
C613 C 0.88539 0.10969 0.56748 0.0
C614 C 0.89926 0.10909 0.60123 0.0
C615 C 0.92289 0.08955 0.60609 0.0
H616 H 0.2541 0.73788 0.17349 0.0
H617 H 0.28264 0.64124 0.17286 0.0
H618 H 0.19929 0.70827 0.14535 0.0
H619 H 0.22848 0.61157 0.14319 0.0
H620 H 0.11413 0.55818 0.11384 0.0
H621 H 0.1684 0.58691 0.14364 0.0
H622 H 0.1707 0.68501 0.09537 0.0
H623 H 0.11556 0.65648 0.06732 0.0
C624 C 0.24891 0.71028 0.16698 0.0
C625 C 0.27324 0.6922 0.1756 0.0
C626 C 0.21725 0.69309 0.15044 0.0
C627 C 0.20869 0.65709 0.14121 0.0
C628 C 0.23312 0.639 0.15005 0.0
C629 C 0.26458 0.65615 0.16711 0.0
C630 C 0.1262 0.58591 0.10956 0.0
C631 C 0.10996 0.60483 0.08808 0.0
C632 C 0.15779 0.60258 0.12662 0.0
C633 C 0.17476 0.63881 0.12254 0.0
C634 C 0.15865 0.65744 0.10039 0.0
C635 C 0.12684 0.64088 0.08378 0.0
H636 H 0.27459 0.37858 0.68885 0.0
H637 H 0.22563 0.45605 0.6565 0.0
H638 H 0.33028 0.4103 0.65676 0.0
H639 H 0.28114 0.48732 0.62342 0.0
H640 H 0.37447 0.49381 0.53109 0.0
H641 H 0.31867 0.46805 0.56626 0.0
H642 H 0.37658 0.47493 0.66208 0.0
H643 H 0.43215 0.50163 0.62729 0.0
C644 C 0.27586 0.40247 0.67494 0.0
C645 C 0.24592 0.41496 0.67522 0.0
C646 C 0.30767 0.42064 0.65669 0.0
C647 C 0.30997 0.45123 0.63759 0.0
C648 C 0.28003 0.46376 0.63785 0.0
C649 C 0.24842 0.44602 0.65688 0.0
C650 C 0.37517 0.49019 0.55974 0.0
C651 C 0.40763 0.49963 0.57642 0.0
C652 C 0.34329 0.47556 0.57985 0.0
C653 C 0.34337 0.46938 0.61684 0.0
C654 C 0.3758 0.47927 0.63358 0.0
C655 C 0.40754 0.49464 0.61368 0.0
H656 H 0.71559 0.74528 0.96111 0.0
H657 H 0.70459 0.66683 0.87689 0.0
H658 H 0.76722 0.73025 0.98111 0.0
H659 H 0.75635 0.6518 0.89686 0.0
H660 H 0.8322 0.61453 0.96515 0.0
H661 H 0.77767 0.62622 0.94872 0.0
H662 H 0.82875 0.73738 0.95511 0.0
H663 H 0.88343 0.72587 0.97073 0.0
C664 C 0.72396 0.72456 0.94711 0.0
C665 C 0.70615 0.7072 0.91738 0.0
C666 C 0.75367 0.71613 0.95842 0.0
C667 C 0.76596 0.69 0.94041 0.0
C668 C 0.74736 0.67186 0.91144 0.0
C669 C 0.71783 0.6805 0.89996 0.0
C670 C 0.83196 0.64147 0.96268 0.0
C671 C 0.86229 0.66925 0.96931 0.0
C672 C 0.80065 0.64814 0.95342 0.0
C673 C 0.79888 0.68271 0.95085 0.0
C674 C 0.82911 0.71046 0.95753 0.0
C675 C 0.86045 0.70382 0.96651 0.0
H676 H 0.36976 0.78559 0.12423 0.0
H677 H 0.39887 0.82192 0.23132 0.0
H678 H 0.40048 0.84333 0.10053 0.0
H679 H 0.42965 0.87983 0.20761 0.0
H680 H 0.51153 0.97109 0.15072 0.0
H681 H 0.47931 0.91389 0.17444 0.0
H682 H 0.40186 0.90303 0.09455 0.0
H683 H 0.4351 0.96063 0.07024 0.0
C684 C 0.38241 0.80589 0.14298 0.0
C685 C 0.38135 0.79844 0.18004 0.0
C686 C 0.40016 0.83939 0.12921 0.0
C687 C 0.41782 0.86705 0.15181 0.0
C688 C 0.41703 0.85953 0.18886 0.0
C689 C 0.39925 0.82597 0.20264 0.0
C690 C 0.48751 0.95668 0.13819 0.0
C691 C 0.47606 0.97086 0.10847 0.0
C692 C 0.46871 0.92363 0.15208 0.0
C693 C 0.4375 0.90311 0.13686 0.0
C694 C 0.42587 0.91743 0.10707 0.0
C695 C 0.4448 0.95075 0.09315 0.0
H696 H 0.0943 0.31043 0.68383 0.0
H697 H 0.19489 0.28743 0.68367 0.0
H698 H 0.0675 0.25254 0.658 0.0
H699 H 0.16816 0.22965 0.65742 0.0
H700 H 0.04585 0.16747 0.56945 0.0
H701 H 0.07235 0.22323 0.59902 0.0
H702 H 0.12338 0.17186 0.6705 0.0
H703 H 0.09674 0.11566 0.64081 0.0
C704 C 0.11061 0.29287 0.67868 0.0
C705 C 0.14678 0.30367 0.68576 0.0
C706 C 0.09533 0.25981 0.66352 0.0
C707 C 0.11572 0.23649 0.65537 0.0
C708 C 0.15164 0.24685 0.66349 0.0
C709 C 0.16701 0.28008 0.6783 0.0
C710 C 0.06278 0.16791 0.59141 0.0
C711 C 0.06912 0.13691 0.60268 0.0
C712 C 0.07777 0.19995 0.60857 0.0
C713 C 0.09982 0.20207 0.63733 0.0
C714 C 0.10665 0.1712 0.64833 0.0
C715 C 0.09129 0.13896 0.63136 0.0
H716 H 0.70585 0.26934 0.52813 0.0
H717 H 0.77205 0.32395 0.43913 0.0
H718 H 0.67985 0.31779 0.53755 0.0
H719 H 0.74685 0.37298 0.44901 0.0
H720 H 0.64486 0.40542 0.43223 0.0
H721 H 0.68765 0.37228 0.43438 0.0
H722 H 0.68226 0.37905 0.55059 0.0
H723 H 0.63829 0.41157 0.54834 0.0
C724 C 0.71591 0.29244 0.51164 0.0
C725 C 0.74048 0.29288 0.48262 0.0
C726 C 0.70105 0.32022 0.51699 0.0
C727 C 0.71076 0.34885 0.49347 0.0
C728 C 0.73826 0.35087 0.467 0.0
C729 C 0.75285 0.323 0.46148 0.0
C730 C 0.65293 0.39998 0.45823 0.0
C731 C 0.6379 0.4106 0.4901 0.0
C732 C 0.6779 0.38146 0.45949 0.0
C733 C 0.68848 0.37313 0.4927 0.0
C734 C 0.6745 0.38497 0.52463 0.0
C735 C 0.64951 0.40369 0.52334 0.0
loop_
_geom_bond_atom_site_label_1
_geom_bond_atom_site_label_2
_geom_bond_distance
_geom_bond_site_symmetry_2
_ccdc_geom_bond_type
H0 C5 0.930 . S
H1 C8 0.930 . S
H2 C10 0.930 . S
H3 C4 1.016 . S
C4 H3 1.016 . S
C4 N11 1.286 . S
C5 H0 0.930 . S
C5 C6 1.397 . S
C5 C7 1.361 . S
C6 C5 1.397 . S
C6 C10 1.390 . S
C7 C5 1.361 . S
C7 C8 1.393 . S
C7 N11 1.413 . S
C8 H1 0.930 . S
C8 C7 1.393 . S
C8 C9 1.399 . S
C9 C8 1.399 . S
C9 C10 1.381 . S
C10 H2 0.930 . S
C10 C6 1.390 . S
C10 C9 1.381 . S
N11 C4 1.286 . S
N11 C7 1.413 . S
H12 C17 0.930 . S
H13 C20 0.930 . S
H14 C22 0.930 . S
H15 C16 1.016 . S
C16 H15 1.016 . S
C16 N23 1.286 . S
C17 H12 0.930 . S
C17 C18 1.397 . S
C17 C19 1.361 . S
C18 C17 1.397 . S
C18 C22 1.390 . S
C19 C17 1.361 . S
C19 C20 1.393 . S
C19 N23 1.413 . S
C20 H13 0.930 . S
C20 C19 1.393 . S
C20 C21 1.399 . S
C21 C20 1.399 . S
C21 C22 1.381 . S
C22 H14 0.930 . S
C22 C18 1.390 . S
C22 C21 1.381 . S
N23 C16 1.286 . S
N23 C19 1.413 . S
H24 C29 0.930 . S
H25 C32 0.930 . S
H26 C34 0.930 . S
H27 C28 1.016 . S
C28 H27 1.016 . S
C28 N35 1.286 . S
C29 H24 0.930 . S
C29 C30 1.397 . S
C29 C31 1.361 . S
C30 C29 1.397 . S
C30 C34 1.390 . S
C31 C29 1.361 . S
C31 C32 1.393 . S
C31 N35 1.413 . S
C32 H25 0.930 . S
C32 C31 1.393 . S
C32 C33 1.399 . S
C33 C32 1.399 . S
C33 C34 1.381 . S
C34 H26 0.930 . S
C34 C30 1.390 . S
C34 C33 1.381 . S
N35 C28 1.286 . S
N35 C31 1.413 . S
H36 C41 0.930 . S
H37 C44 0.930 . S
H38 C46 0.930 . S
H39 C40 1.016 . S
C40 H39 1.016 . S
C40 N47 1.286 . S
C41 H36 0.930 . S
C41 C42 1.397 . S
C41 C43 1.361 . S
C42 C41 1.397 . S
C42 C46 1.390 . S
C43 C41 1.361 . S
C43 C44 1.393 . S
C43 N47 1.413 . S
C44 H37 0.930 . S
C44 C43 1.393 . S
C44 C45 1.399 . S
C45 C44 1.399 . S
C45 C46 1.381 . S
C46 H38 0.930 . S
C46 C42 1.390 . S
C46 C45 1.381 . S
N47 C40 1.286 . S
N47 C43 1.413 . S
H48 C53 0.930 . S
H49 C56 0.930 . S
H50 C58 0.930 . S
H51 C52 1.016 . S
C52 H51 1.016 . S
C52 N59 1.286 . S
C53 H48 0.930 . S
C53 C54 1.397 . S
C53 C55 1.361 . S
C54 C53 1.397 . S
C54 C58 1.390 . S
C55 C53 1.361 . S
C55 C56 1.393 . S
C55 N59 1.413 . S
C56 H49 0.930 . S
C56 C55 1.393 . S
C56 C57 1.399 . S
C57 C56 1.399 . S
C57 C58 1.381 . S
C58 H50 0.930 . S
C58 C54 1.390 . S
C58 C57 1.381 . S
N59 C52 1.286 . S
N59 C55 1.413 . S
H60 C65 0.930 . S
H61 C68 0.930 . S
H62 C70 0.930 . S
H63 C64 1.016 . S
C64 H63 1.016 . S
C64 N71 1.286 . S
C65 H60 0.930 . S
C65 C66 1.397 . S
C65 C67 1.361 . S
C66 C65 1.397 . S
C66 C70 1.390 . S
C67 C65 1.361 . S
C67 C68 1.393 . S
C67 N71 1.413 . S
C68 H61 0.930 . S
C68 C67 1.393 . S
C68 C69 1.399 . S
C69 C68 1.399 . S
C69 C70 1.381 . S
C70 H62 0.930 . S
C70 C66 1.390 . S
C70 C69 1.381 . S
N71 C64 1.286 . S
N71 C67 1.413 . S
H72 C77 0.930 . S
H73 C80 0.930 . S
H74 C82 0.930 . S
H75 C76 1.016 . S
C76 H75 1.016 . S
C76 N83 1.286 . S
C77 H72 0.930 . S
C77 C78 1.397 . S
C77 C79 1.361 . S
C78 C77 1.397 . S
C78 C82 1.390 . S
C79 C77 1.361 . S
C79 C80 1.393 . S
C79 N83 1.413 . S
C80 H73 0.930 . S
C80 C79 1.393 . S
C80 C81 1.399 . S
C81 C80 1.399 . S
C81 C82 1.381 . S
C82 H74 0.930 . S
C82 C78 1.390 . S
C82 C81 1.381 . S
N83 C76 1.286 . S
N83 C79 1.413 . S
H84 C89 0.930 . S
H85 C92 0.930 . S
H86 C94 0.930 . S
H87 C88 1.016 . S
C88 H87 1.016 . S
C88 N95 1.286 . S
C89 H84 0.930 . S
C89 C90 1.397 . S
C89 C91 1.361 . S
C90 C89 1.397 . S
C90 C94 1.390 . S
C91 C89 1.361 . S
C91 C92 1.393 . S
C91 N95 1.413 . S
C92 H85 0.930 . S
C92 C91 1.393 . S
C92 C93 1.399 . S
C93 C92 1.399 . S
C93 C94 1.381 . S
C94 H86 0.930 . S
C94 C90 1.390 . S
C94 C93 1.381 . S
N95 C88 1.286 . S
N95 C91 1.413 . S
Ho96 C99 2.811 . S
Ho96 O116 2.322 . S
Ho96 O118 2.378 . S
Ho96 O119 2.524 . S
Ho96 O120 2.381 1_545 S
Ho96 O121 2.669 1_545 S
Ho96 O123 2.346 1_445 S
Ho96 O127 2.305 1_455 S
Ho97 C108 2.813 . S
Ho97 O117 2.343 1_665 S
Ho97 O121 2.306 1_655 S
Ho97 O122 2.323 . S
Ho97 O124 2.379 . S
Ho97 O125 2.526 . S
Ho97 O126 2.379 1_565 S
Ho97 O127 2.668 1_565 S
C98 O116 1.259 . S
C98 O117 1.268 . S
C99 Ho96 2.811 . S
C99 C100 1.488 . S
C99 O118 1.215 . S
C99 O119 1.289 . S
C100 C99 1.488 . S
C100 C101 1.348 . S
C100 C105 1.413 . S
C101 C100 1.348 . S
C101 C102 1.442 . S
C101 H128 0.930 . S
C102 C101 1.442 . S
C102 C103 1.381 . S
C102 H129 0.931 . S
C103 C102 1.381 . S
C103 C104 1.321 . S
C104 C103 1.321 . S
C104 C105 1.403 . S
C104 H130 0.934 . S
C105 C100 1.413 . S
C105 C104 1.403 . S
C105 H131 0.930 . S
C106 O120 1.275 . S
C106 O121 1.256 . S
C107 O122 1.259 . S
C107 O123 1.268 . S
C108 Ho97 2.813 . S
C108 C109 1.488 . S
C108 O124 1.215 . S
C108 O125 1.289 . S
C109 C108 1.488 . S
C109 C110 1.348 . S
C109 C114 1.413 . S
C110 C109 1.348 . S
C110 C111 1.442 . S
C110 H132 0.930 . S
C111 C110 1.442 . S
C111 C112 1.381 . S
C111 H133 0.931 . S
C112 C111 1.381 . S
C112 C113 1.321 . S
C113 C112 1.321 . S
C113 C114 1.403 . S
C113 H134 0.934 . S
C114 C109 1.413 . S
C114 C113 1.403 . S
C114 H135 0.930 . S
C115 O126 1.275 . S
C115 O127 1.256 . S
O116 Ho96 2.322 . S
O116 C98 1.259 . S
O117 Ho97 2.343 1_445 S
O117 C98 1.268 . S
O118 Ho96 2.378 . S
O118 C99 1.215 . S
O119 Ho96 2.524 . S
O119 C99 1.289 . S
O120 Ho96 2.381 1_565 S
O120 C106 1.275 . S
O121 Ho96 2.669 1_565 S
O121 Ho97 2.306 1_455 S
O121 C106 1.256 . S
O122 Ho97 2.323 . S
O122 C107 1.259 . S
O123 Ho96 2.346 1_665 S
O123 C107 1.268 . S
O124 Ho97 2.379 . S
O124 C108 1.215 . S
O125 Ho97 2.526 . S
O125 C108 1.289 . S
O126 Ho97 2.379 1_545 S
O126 C115 1.275 . S
O127 Ho96 2.305 1_655 S
O127 Ho97 2.668 1_545 S
O127 C115 1.256 . S
H128 C101 0.930 . S
H129 C102 0.931 . S
H130 C104 0.934 . S
H131 C105 0.930 . S
H132 C110 0.930 . S
H133 C111 0.931 . S
H134 C113 0.934 . S
H135 C114 0.930 . S
Ho136 C139 2.811 . S
Ho136 O156 2.322 . S
Ho136 O158 2.378 . S
Ho136 O159 2.524 . S
Ho136 O160 2.381 1_545 S
Ho136 O161 2.669 1_545 S
Ho136 O163 2.346 1_544 S
Ho136 O167 2.305 1_554 S
Ho137 C148 2.811 1_545 S
Ho137 O157 2.346 1_556 S
Ho137 O161 2.305 1_546 S
Ho137 O162 2.322 1_545 S
Ho137 O164 2.378 1_545 S
Ho137 O165 2.524 1_545 S
Ho137 O166 2.381 . S
Ho137 O167 2.669 . S
C138 O156 1.259 . S
C138 O157 1.268 . S
C139 Ho136 2.811 . S
C139 C140 1.488 . S
C139 O158 1.215 . S
C139 O159 1.289 . S
C140 C139 1.488 . S
C140 C141 1.348 . S
C140 C145 1.413 . S
C141 C140 1.348 . S
C141 C142 1.442 . S
C141 H168 0.930 . S
C142 C141 1.442 . S
C142 C143 1.381 . S
C142 H169 0.931 . S
C143 C142 1.381 . S
C143 C144 1.321 . S
C144 C143 1.321 . S
C144 C145 1.403 . S
C144 H170 0.934 . S
C145 C140 1.413 . S
C145 C144 1.403 . S
C145 H171 0.930 . S
C146 O160 1.275 . S
C146 O161 1.256 . S
C147 O162 1.259 . S
C147 O163 1.268 . S
C148 Ho137 2.811 1_565 S
C148 C149 1.488 . S
C148 O164 1.215 . S
C148 O165 1.289 . S
C149 C148 1.488 . S
C149 C150 1.348 . S
C149 C154 1.413 . S
C150 C149 1.348 . S
C150 C151 1.442 . S
C150 H172 0.930 . S
C151 C150 1.442 . S
C151 C152 1.381 . S
C151 H173 0.931 . S
C152 C151 1.381 . S
C152 C153 1.321 . S
C153 C152 1.321 . S
C153 C154 1.403 . S
C153 H174 0.934 . S
C154 C149 1.413 . S
C154 C153 1.403 . S
C154 H175 0.930 . S
C155 O166 1.275 . S
C155 O167 1.255 . S
O156 Ho136 2.322 . S
O156 C138 1.259 . S
O157 Ho137 2.346 1_554 S
O157 C138 1.268 . S
O158 Ho136 2.378 . S
O158 C139 1.215 . S
O159 Ho136 2.524 . S
O159 C139 1.289 . S
O160 Ho136 2.381 1_565 S
O160 C146 1.275 . S
O161 Ho136 2.669 1_565 S
O161 Ho137 2.305 1_564 S
O161 C146 1.256 . S
O162 Ho137 2.322 1_565 S
O162 C147 1.259 . S
O163 Ho136 2.346 1_566 S
O163 C147 1.268 . S
O164 Ho137 2.378 1_565 S
O164 C148 1.215 . S
O165 Ho137 2.524 1_565 S
O165 C148 1.289 . S
O166 Ho137 2.381 . S
O166 C155 1.275 . S
O167 Ho136 2.305 1_556 S
O167 Ho137 2.669 . S
O167 C155 1.255 . S
H168 C141 0.930 . S
H169 C142 0.931 . S
H170 C144 0.934 . S
H171 C145 0.930 . S
H172 C150 0.930 . S
H173 C151 0.931 . S
H174 C153 0.934 . S
H175 C154 0.930 . S
Ho176 C179 2.811 . S
Ho176 O196 2.322 . S
Ho176 O198 2.378 . S
Ho176 O199 2.524 . S
Ho176 O200 2.381 . S
Ho176 O201 2.669 . S
Ho176 O203 2.346 . S
Ho176 O207 2.305 . S
Ho177 C188 2.811 . S
Ho177 O197 2.346 . S
Ho177 O201 2.305 . S
Ho177 O202 2.322 . S
Ho177 O204 2.378 . S
Ho177 O205 2.524 . S
Ho177 O206 2.381 . S
Ho177 O207 2.669 . S
C178 O196 1.259 . S
C178 O197 1.268 . S
C179 Ho176 2.811 . S
C179 C180 1.488 . S
C179 O198 1.215 . S
C179 O199 1.289 . S
C180 C179 1.488 . S
C180 C181 1.348 . S
C180 C185 1.413 . S
C181 C180 1.348 . S
C181 C182 1.442 . S
C181 H208 0.930 . S
C182 C181 1.442 . S
C182 C183 1.381 . S
C182 H209 0.931 . S
C183 C182 1.381 . S
C183 C184 1.321 . S
C184 C183 1.321 . S
C184 C185 1.403 . S
C184 H210 0.934 . S
C185 C180 1.413 . S
C185 C184 1.403 . S
C185 H211 0.930 . S
C186 O200 1.275 . S
C186 O201 1.256 . S
C187 O202 1.259 . S
C187 O203 1.268 . S
C188 Ho177 2.811 . S
C188 C189 1.488 . S
C188 O204 1.215 . S
C188 O205 1.289 . S
C189 C188 1.488 . S
C189 C190 1.348 . S
C189 C194 1.413 . S
C190 C189 1.348 . S
C190 C191 1.442 . S
C190 H212 0.930 . S
C191 C190 1.442 . S
C191 C192 1.381 . S
C191 H213 0.931 . S
C192 C191 1.381 . S
C192 C193 1.321 . S
C193 C192 1.321 . S
C193 C194 1.403 . S
C193 H214 0.934 . S
C194 C189 1.413 . S
C194 C193 1.403 . S
C194 H215 0.930 . S
C195 O206 1.275 . S
C195 O207 1.256 . S
O196 Ho176 2.322 . S
O196 C178 1.259 . S
O197 Ho177 2.346 . S
O197 C178 1.268 . S
O198 Ho176 2.378 . S
O198 C179 1.215 . S
O199 Ho176 2.524 . S
O199 C179 1.289 . S
O200 Ho176 2.381 . S
O200 C186 1.275 . S
O201 Ho176 2.669 . S
O201 Ho177 2.305 . S
O201 C186 1.256 . S
O202 Ho177 2.322 . S
O202 C187 1.259 . S
O203 Ho176 2.346 . S
O203 C187 1.268 . S
O204 Ho177 2.378 . S
O204 C188 1.215 . S
O205 Ho177 2.524 . S
O205 C188 1.289 . S
O206 Ho177 2.381 . S
O206 C195 1.275 . S
O207 Ho176 2.305 . S
O207 Ho177 2.669 . S
O207 C195 1.256 . S
H208 C181 0.930 . S
H209 C182 0.931 . S
H210 C184 0.934 . S
H211 C185 0.930 . S
H212 C190 0.930 . S
H213 C191 0.931 . S
H214 C193 0.934 . S
H215 C194 0.930 . S
Ho216 C219 2.811 . S
Ho216 O236 2.322 . S
Ho216 O238 2.378 . S
Ho216 O239 2.524 . S
Ho216 O240 2.381 1_455 S
Ho216 O241 2.669 1_455 S
Ho216 O243 2.346 1_454 S
Ho216 O247 2.305 1_554 S
Ho217 C228 2.811 1_455 S
Ho217 O237 2.346 1_556 S
Ho217 O241 2.305 1_456 S
Ho217 O242 2.322 1_455 S
Ho217 O244 2.378 1_455 S
Ho217 O245 2.524 1_455 S
Ho217 O246 2.381 . S
Ho217 O247 2.669 . S
C218 O236 1.259 . S
C218 O237 1.268 . S
C219 Ho216 2.811 . S
C219 C220 1.488 . S
C219 O238 1.215 . S
C219 O239 1.289 . S
C220 C219 1.488 . S
C220 C221 1.348 . S
C220 C225 1.413 . S
C221 C220 1.348 . S
C221 C222 1.442 . S
C221 H248 0.930 . S
C222 C221 1.442 . S
C222 C223 1.381 . S
C222 H249 0.931 . S
C223 C222 1.381 . S
C223 C224 1.321 . S
C224 C223 1.321 . S
C224 C225 1.403 . S
C224 H250 0.934 . S
C225 C220 1.413 . S
C225 C224 1.403 . S
C225 H251 0.930 . S
C226 O240 1.275 . S
C226 O241 1.256 . S
C227 O242 1.259 . S
C227 O243 1.268 . S
C228 Ho217 2.811 1_655 S
C228 C229 1.488 . S
C228 O244 1.215 . S
C228 O245 1.289 . S
C229 C228 1.488 . S
C229 C230 1.348 . S
C229 C234 1.413 . S
C230 C229 1.348 . S
C230 C231 1.442 . S
C230 H252 0.930 . S
C231 C230 1.442 . S
C231 C232 1.381 . S
C231 H253 0.931 . S
C232 C231 1.381 . S
C232 C233 1.321 . S
C233 C232 1.321 . S
C233 C234 1.403 . S
C233 H254 0.934 . S
C234 C229 1.413 . S
C234 C233 1.403 . S
C234 H255 0.930 . S
C235 O246 1.275 . S
C235 O247 1.256 . S
O236 Ho216 2.322 . S
O236 C218 1.259 . S
O237 Ho217 2.346 1_554 S
O237 C218 1.268 . S
O238 Ho216 2.378 . S
O238 C219 1.215 . S
O239 Ho216 2.524 . S
O239 C219 1.289 . S
O240 Ho216 2.381 1_655 S
O240 C226 1.275 . S
O241 Ho216 2.669 1_655 S
O241 Ho217 2.305 1_654 S
O241 C226 1.256 . S
O242 Ho217 2.322 1_655 S
O242 C227 1.259 . S
O243 Ho216 2.346 1_656 S
O243 C227 1.268 . S
O244 Ho217 2.378 1_655 S
O244 C228 1.215 . S
O245 Ho217 2.524 1_655 S
O245 C228 1.289 . S
O246 Ho217 2.381 . S
O246 C235 1.275 . S
O247 Ho216 2.305 1_556 S
O247 Ho217 2.669 . S
O247 C235 1.256 . S
H248 C221 0.930 . S
H249 C222 0.931 . S
H250 C224 0.934 . S
H251 C225 0.930 . S
H252 C230 0.930 . S
H253 C231 0.931 . S
H254 C233 0.934 . S
H255 C234 0.930 . S
H256 C264 0.950 . S
H257 C269 0.950 . S
H258 C266 0.950 . S
H259 C268 0.950 . S
H260 C270 0.950 . S
H261 C272 0.950 . S
H262 C274 0.950 . S
H263 C275 0.950 . S
C264 H256 0.950 . S
C264 C265 1.386 . S
C264 C266 1.391 . S
C265 C264 1.386 . S
C265 C269 1.393 . S
C266 H258 0.950 . S
C266 C264 1.391 . S
C266 C267 1.400 . S
C267 C266 1.400 . S
C267 C268 1.398 . S
C267 C273 1.491 . S
C268 H259 0.950 . S
C268 C267 1.398 . S
C268 C269 1.391 . S
C269 H257 0.950 . S
C269 C265 1.393 . S
C269 C268 1.391 . S
C270 H260 0.950 . S
C270 C271 1.386 . S
C270 C272 1.391 . S
C271 C270 1.386 . S
C271 C275 1.393 . S
C272 H261 0.950 . S
C272 C270 1.391 . S
C272 C273 1.400 . S
C273 C267 1.491 . S
C273 C272 1.400 . S
C273 C274 1.398 . S
C274 H262 0.950 . S
C274 C273 1.398 . S
C274 C275 1.391 . S
C275 H263 0.950 . S
C275 C271 1.393 . S
C275 C274 1.391 . S
H276 C284 0.950 . S
H277 C289 0.950 . S
H278 C286 0.950 . S
H279 C288 0.950 . S
H280 C290 0.950 . S
H281 C292 0.950 . S
H282 C294 0.950 . S
H283 C295 0.950 . S
C284 H276 0.950 . S
C284 C285 1.386 . S
C284 C286 1.391 . S
C285 C284 1.386 . S
C285 C289 1.393 . S
C286 H278 0.950 . S
C286 C284 1.391 . S
C286 C287 1.400 . S
C287 C286 1.400 . S
C287 C288 1.398 . S
C287 C293 1.491 . S
C288 H279 0.950 . S
C288 C287 1.398 . S
C288 C289 1.391 . S
C289 H277 0.950 . S
C289 C285 1.393 . S
C289 C288 1.391 . S
C290 H280 0.950 . S
C290 C291 1.386 . S
C290 C292 1.391 . S
C291 C290 1.386 . S
C291 C295 1.393 . S
C292 H281 0.950 . S
C292 C290 1.391 . S
C292 C293 1.400 . S
C293 C287 1.491 . S
C293 C292 1.400 . S
C293 C294 1.398 . S
C294 H282 0.950 . S
C294 C293 1.398 . S
C294 C295 1.391 . S
C295 H283 0.950 . S
C295 C291 1.393 . S
C295 C294 1.391 . S
H296 C304 0.950 . S
H297 C309 0.950 . S
H298 C306 0.950 . S
H299 C308 0.950 . S
H300 C310 0.950 . S
H301 C312 0.950 . S
H302 C314 0.950 . S
H303 C315 0.950 . S
C304 H296 0.950 . S
C304 C305 1.386 . S
C304 C306 1.391 . S
C305 C304 1.386 . S
C305 C309 1.393 . S
C306 H298 0.950 . S
C306 C304 1.391 . S
C306 C307 1.400 . S
C307 C306 1.400 . S
C307 C308 1.398 . S
C307 C313 1.491 . S
C308 H299 0.950 . S
C308 C307 1.398 . S
C308 C309 1.391 . S
C309 H297 0.950 . S
C309 C305 1.393 . S
C309 C308 1.391 . S
C310 H300 0.950 . S
C310 C311 1.386 . S
C310 C312 1.391 . S
C311 C310 1.386 . S
C311 C315 1.393 . S
C312 H301 0.950 . S
C312 C310 1.391 . S
C312 C313 1.400 . S
C313 C307 1.491 . S
C313 C312 1.400 . S
C313 C314 1.398 . S
C314 H302 0.950 . S
C314 C313 1.398 . S
C314 C315 1.391 . S
C315 H303 0.950 . S
C315 C311 1.393 . S
C315 C314 1.391 . S
H316 C324 0.950 . S
H317 C329 0.950 . S
H318 C326 0.950 . S
H319 C328 0.950 . S
H320 C330 0.950 . S
H321 C332 0.950 . S
H322 C334 0.950 . S
H323 C335 0.950 . S
C324 H316 0.950 . S
C324 C325 1.386 . S
C324 C326 1.391 . S
C325 C324 1.386 . S
C325 C329 1.393 . S
C326 H318 0.950 . S
C326 C324 1.391 . S
C326 C327 1.400 . S
C327 C326 1.400 . S
C327 C328 1.398 . S
C327 C333 1.491 . S
C328 H319 0.950 . S
C328 C327 1.398 . S
C328 C329 1.391 . S
C329 H317 0.950 . S
C329 C325 1.393 . S
C329 C328 1.391 . S
C330 H320 0.950 . S
C330 C331 1.386 . S
C330 C332 1.391 . S
C331 C330 1.386 . S
C331 C335 1.393 . S
C332 H321 0.950 . S
C332 C330 1.391 . S
C332 C333 1.400 . S
C333 C327 1.491 . S
C333 C332 1.400 . S
C333 C334 1.398 . S
C334 H322 0.950 . S
C334 C333 1.398 . S
C334 C335 1.391 . S
C335 H323 0.950 . S
C335 C331 1.393 . S
C335 C334 1.391 . S
H336 C344 0.950 . S
H337 C349 0.950 . S
H338 C346 0.950 . S
H339 C348 0.950 . S
H340 C350 0.950 . S
H341 C352 0.950 . S
H342 C354 0.950 . S
H343 C355 0.950 . S
C344 H336 0.950 . S
C344 C345 1.386 . S
C344 C346 1.391 . S
C345 C344 1.386 . S
C345 C349 1.393 . S
C346 H338 0.950 . S
C346 C344 1.391 . S
C346 C347 1.400 . S
C347 C346 1.400 . S
C347 C348 1.398 . S
C347 C353 1.491 . S
C348 H339 0.950 . S
C348 C347 1.398 . S
C348 C349 1.391 . S
C349 H337 0.950 . S
C349 C345 1.393 . S
C349 C348 1.391 . S
C350 H340 0.950 . S
C350 C351 1.386 . S
C350 C352 1.391 . S
C351 C350 1.386 . S
C351 C355 1.393 . S
C352 H341 0.950 . S
C352 C350 1.391 . S
C352 C353 1.400 . S
C353 C347 1.491 . S
C353 C352 1.400 . S
C353 C354 1.398 . S
C354 H342 0.950 . S
C354 C353 1.398 . S
C354 C355 1.391 . S
C355 H343 0.950 . S
C355 C351 1.393 . S
C355 C354 1.391 . S
H356 C364 0.950 . S
H357 C369 0.950 . S
H358 C366 0.950 . S
H359 C368 0.950 . S
H360 C370 0.950 . S
H361 C372 0.950 . S
H362 C374 0.950 . S
H363 C375 0.950 . S
C364 H356 0.950 . S
C364 C365 1.386 . S
C364 C366 1.391 . S
C365 C364 1.386 . S
C365 C369 1.393 . S
C366 H358 0.950 . S
C366 C364 1.391 . S
C366 C367 1.400 . S
C367 C366 1.400 . S
C367 C368 1.398 . S
C367 C373 1.491 . S
C368 H359 0.950 . S
C368 C367 1.398 . S
C368 C369 1.391 . S
C369 H357 0.950 . S
C369 C365 1.393 . S
C369 C368 1.391 . S
C370 H360 0.950 . S
C370 C371 1.386 . S
C370 C372 1.391 . S
C371 C370 1.386 . S
C371 C375 1.393 . S
C372 H361 0.950 . S
C372 C370 1.391 . S
C372 C373 1.400 . S
C373 C367 1.491 . S
C373 C372 1.400 . S
C373 C374 1.398 . S
C374 H362 0.950 . S
C374 C373 1.398 . S
C374 C375 1.391 . S
C375 H363 0.950 . S
C375 C371 1.393 . S
C375 C374 1.391 . S
H376 C384 0.950 . S
H377 C389 0.950 . S
H378 C386 0.950 . S
H379 C388 0.950 . S
H380 C390 0.950 . S
H381 C392 0.950 . S
H382 C394 0.950 . S
H383 C395 0.950 . S
C384 H376 0.950 . S
C384 C385 1.386 . S
C384 C386 1.391 . S
C385 C384 1.386 . S
C385 C389 1.393 . S
C386 H378 0.950 . S
C386 C384 1.391 . S
C386 C387 1.400 . S
C387 C386 1.400 . S
C387 C388 1.398 . S
C387 C393 1.491 . S
C388 H379 0.950 . S
C388 C387 1.398 . S
C388 C389 1.391 . S
C389 H377 0.950 . S
C389 C385 1.393 . S
C389 C388 1.391 . S
C390 H380 0.950 . S
C390 C391 1.386 . S
C390 C392 1.391 . S
C391 C390 1.386 . S
C391 C395 1.393 . S
C392 H381 0.950 . S
C392 C390 1.391 . S
C392 C393 1.400 . S
C393 C387 1.491 . S
C393 C392 1.400 . S
C393 C394 1.398 . S
C394 H382 0.950 . S
C394 C393 1.398 . S
C394 C395 1.391 . S
C395 H383 0.950 . S
C395 C391 1.393 . S
C395 C394 1.391 . S
H396 C404 0.950 . S
H397 C409 0.950 . S
H398 C406 0.950 . S
H399 C408 0.950 . S
H400 C410 0.950 . S
H401 C412 0.950 . S
H402 C414 0.950 . S
H403 C415 0.950 . S
C404 H396 0.950 . S
C404 C405 1.386 . S
C404 C406 1.391 . S
C405 C404 1.386 . S
C405 C409 1.393 . S
C406 H398 0.950 . S
C406 C404 1.391 . S
C406 C407 1.400 . S
C407 C406 1.400 . S
C407 C408 1.398 . S
C407 C413 1.491 . S
C408 H399 0.950 . S
C408 C407 1.398 . S
C408 C409 1.391 . S
C409 H397 0.950 . S
C409 C405 1.393 . S
C409 C408 1.391 . S
C410 H400 0.950 . S
C410 C411 1.386 . S
C410 C412 1.391 . S
C411 C410 1.386 . S
C411 C415 1.393 . S
C412 H401 0.950 . S
C412 C410 1.391 . S
C412 C413 1.400 . S
C413 C407 1.491 . S
C413 C412 1.400 . S
C413 C414 1.398 . S
C414 H402 0.950 . S
C414 C413 1.398 . S
C414 C415 1.391 . S
C415 H403 0.950 . S
C415 C411 1.393 . S
C415 C414 1.391 . S
H416 C424 0.950 . S
H417 C429 0.950 . S
H418 C426 0.950 . S
H419 C428 0.950 . S
H420 C430 0.950 . S
H421 C432 0.950 . S
H422 C434 0.950 . S
H423 C435 0.950 . S
C424 H416 0.950 . S
C424 C425 1.386 . S
C424 C426 1.391 . S
C425 C424 1.386 . S
C425 C429 1.393 . S
C426 H418 0.950 . S
C426 C424 1.391 . S
C426 C427 1.400 . S
C427 C426 1.400 . S
C427 C428 1.398 . S
C427 C433 1.491 . S
C428 H419 0.950 . S
C428 C427 1.398 . S
C428 C429 1.391 . S
C429 H417 0.950 . S
C429 C425 1.393 . S
C429 C428 1.391 . S
C430 H420 0.950 . S
C430 C431 1.386 . S
C430 C432 1.391 . S
C431 C430 1.386 . S
C431 C435 1.393 . S
C432 H421 0.950 . S
C432 C430 1.391 . S
C432 C433 1.400 . S
C433 C427 1.491 . S
C433 C432 1.400 . S
C433 C434 1.398 . S
C434 H422 0.950 . S
C434 C433 1.398 . S
C434 C435 1.391 . S
C435 H423 0.950 . S
C435 C431 1.393 . S
C435 C434 1.391 . S
H436 C444 0.950 . S
H437 C449 0.950 . S
H438 C446 0.950 . S
H439 C448 0.950 . S
H440 C450 0.950 . S
H441 C452 0.950 . S
H442 C454 0.950 . S
H443 C455 0.950 . S
C444 H436 0.950 . S
C444 C445 1.386 . S
C444 C446 1.391 . S
C445 C444 1.386 . S
C445 C449 1.393 . S
C446 H438 0.950 . S
C446 C444 1.391 . S
C446 C447 1.400 . S
C447 C446 1.400 . S
C447 C448 1.398 . S
C447 C453 1.491 . S
C448 H439 0.950 . S
C448 C447 1.398 . S
C448 C449 1.391 . S
C449 H437 0.950 . S
C449 C445 1.393 . S
C449 C448 1.391 . S
C450 H440 0.950 . S
C450 C451 1.386 . S
C450 C452 1.391 . S
C451 C450 1.386 . S
C451 C455 1.393 . S
C452 H441 0.950 . S
C452 C450 1.391 . S
C452 C453 1.400 . S
C453 C447 1.491 . S
C453 C452 1.400 . S
C453 C454 1.398 . S
C454 H442 0.950 . S
C454 C453 1.398 . S
C454 C455 1.391 . S
C455 H443 0.950 . S
C455 C451 1.393 . S
C455 C454 1.391 . S
H456 C464 0.950 . S
H457 C469 0.950 . S
H458 C466 0.950 . S
H459 C468 0.950 . S
H460 C470 0.950 . S
H461 C472 0.950 . S
H462 C474 0.950 . S
H463 C475 0.950 . S
C464 H456 0.950 . S
C464 C465 1.386 . S
C464 C466 1.391 . S
C465 C464 1.386 . S
C465 C469 1.393 . S
C466 H458 0.950 . S
C466 C464 1.391 . S
C466 C467 1.400 . S
C467 C466 1.400 . S
C467 C468 1.398 . S
C467 C473 1.491 . S
C468 H459 0.950 . S
C468 C467 1.398 . S
C468 C469 1.391 . S
C469 H457 0.950 . S
C469 C465 1.393 . S
C469 C468 1.391 . S
C470 H460 0.950 . S
C470 C471 1.386 . S
C470 C472 1.391 . S
C471 C470 1.386 . S
C471 C475 1.393 . S
C472 H461 0.950 . S
C472 C470 1.391 . S
C472 C473 1.400 . S
C473 C467 1.491 . S
C473 C472 1.400 . S
C473 C474 1.398 . S
C474 H462 0.950 . S
C474 C473 1.398 . S
C474 C475 1.391 . S
C475 H463 0.950 . S
C475 C471 1.393 . S
C475 C474 1.391 . S
H476 C484 0.950 . S
H477 C489 0.950 . S
H478 C486 0.950 . S
H479 C488 0.950 . S
H480 C490 0.950 . S
H481 C492 0.950 . S
H482 C494 0.950 . S
H483 C495 0.950 . S
C484 H476 0.950 . S
C484 C485 1.386 . S
C484 C486 1.391 . S
C485 C484 1.386 . S
C485 C489 1.393 . S
C486 H478 0.950 . S
C486 C484 1.391 . S
C486 C487 1.400 . S
C487 C486 1.400 . S
C487 C488 1.398 . S
C487 C493 1.491 . S
C488 H479 0.950 . S
C488 C487 1.398 . S
C488 C489 1.391 . S
C489 H477 0.950 . S
C489 C485 1.393 . S
C489 C488 1.391 . S
C490 H480 0.950 . S
C490 C491 1.386 . S
C490 C492 1.391 . S
C491 C490 1.386 . S
C491 C495 1.393 . S
C492 H481 0.950 . S
C492 C490 1.391 . S
C492 C493 1.400 . S
C493 C487 1.491 . S
C493 C492 1.400 . S
C493 C494 1.398 . S
C494 H482 0.950 . S
C494 C493 1.398 . S
C494 C495 1.391 . S
C495 H483 0.950 . S
C495 C491 1.393 . S
C495 C494 1.391 . S
H496 C504 0.950 . S
H497 C509 0.950 . S
H498 C506 0.950 . S
H499 C508 0.950 . S
H500 C510 0.950 . S
H501 C512 0.950 . S
H502 C514 0.950 . S
H503 C515 0.950 . S
C504 H496 0.950 . S
C504 C505 1.386 . S
C504 C506 1.391 . S
C505 C504 1.386 . S
C505 C509 1.393 . S
C506 H498 0.950 . S
C506 C504 1.391 . S
C506 C507 1.400 . S
C507 C506 1.400 . S
C507 C508 1.398 . S
C507 C513 1.491 . S
C508 H499 0.950 . S
C508 C507 1.398 . S
C508 C509 1.391 . S
C509 H497 0.950 . S
C509 C505 1.393 . S
C509 C508 1.391 . S
C510 H500 0.950 . S
C510 C511 1.386 . S
C510 C512 1.391 . S
C511 C510 1.386 . S
C511 C515 1.393 . S
C512 H501 0.950 . S
C512 C510 1.391 . S
C512 C513 1.400 . S
C513 C507 1.491 . S
C513 C512 1.400 . S
C513 C514 1.398 . S
C514 H502 0.950 . S
C514 C513 1.398 . S
C514 C515 1.391 . S
C515 H503 0.950 . S
C515 C511 1.393 . S
C515 C514 1.391 . S
H516 C524 0.950 . S
H517 C529 0.950 . S
H518 C526 0.950 . S
H519 C528 0.950 . S
H520 C530 0.950 . S
H521 C532 0.950 . S
H522 C534 0.950 . S
H523 C535 0.950 . S
C524 H516 0.950 . S
C524 C525 1.386 . S
C524 C526 1.391 . S
C525 C524 1.386 . S
C525 C529 1.393 . S
C526 H518 0.950 . S
C526 C524 1.391 . S
C526 C527 1.400 . S
C527 C526 1.400 . S
C527 C528 1.398 . S
C527 C533 1.491 . S
C528 H519 0.950 . S
C528 C527 1.398 . S
C528 C529 1.391 . S
C529 H517 0.950 . S
C529 C525 1.393 . S
C529 C528 1.391 . S
C530 H520 0.950 . S
C530 C531 1.386 . S
C530 C532 1.391 . S
C531 C530 1.386 . S
C531 C535 1.393 . S
C532 H521 0.950 . S
C532 C530 1.391 . S
C532 C533 1.400 . S
C533 C527 1.491 . S
C533 C532 1.400 . S
C533 C534 1.398 . S
C534 H522 0.950 . S
C534 C533 1.398 . S
C534 C535 1.391 . S
C535 H523 0.950 . S
C535 C531 1.393 . S
C535 C534 1.391 . S
H536 C544 0.950 . S
H537 C549 0.950 . S
H538 C546 0.950 . S
H539 C548 0.950 . S
H540 C550 0.950 . S
H541 C552 0.950 . S
H542 C554 0.950 . S
H543 C555 0.950 . S
C544 H536 0.950 . S
C544 C545 1.386 . S
C544 C546 1.391 . S
C545 C544 1.386 . S
C545 C549 1.393 . S
C546 H538 0.950 . S
C546 C544 1.391 . S
C546 C547 1.400 . S
C547 C546 1.400 . S
C547 C548 1.398 . S
C547 C553 1.491 . S
C548 H539 0.950 . S
C548 C547 1.398 . S
C548 C549 1.391 . S
C549 H537 0.950 . S
C549 C545 1.393 . S
C549 C548 1.391 . S
C550 H540 0.950 . S
C550 C551 1.386 . S
C550 C552 1.391 . S
C551 C550 1.386 . S
C551 C555 1.393 . S
C552 H541 0.950 . S
C552 C550 1.391 . S
C552 C553 1.400 . S
C553 C547 1.491 . S
C553 C552 1.400 . S
C553 C554 1.398 . S
C554 H542 0.950 . S
C554 C553 1.398 . S
C554 C555 1.391 . S
C555 H543 0.950 . S
C555 C551 1.393 . S
C555 C554 1.391 . S
H556 C564 0.950 . S
H557 C569 0.950 . S
H558 C566 0.950 . S
H559 C568 0.950 . S
H560 C570 0.950 . S
H561 C572 0.950 . S
H562 C574 0.950 . S
H563 C575 0.950 . S
C564 H556 0.950 . S
C564 C565 1.386 . S
C564 C566 1.391 . S
C565 C564 1.386 . S
C565 C569 1.393 . S
C566 H558 0.950 . S
C566 C564 1.391 . S
C566 C567 1.400 . S
C567 C566 1.400 . S
C567 C568 1.398 . S
C567 C573 1.491 . S
C568 H559 0.950 . S
C568 C567 1.398 . S
C568 C569 1.391 . S
C569 H557 0.950 . S
C569 C565 1.393 . S
C569 C568 1.391 . S
C570 H560 0.950 . S
C570 C571 1.386 . S
C570 C572 1.391 . S
C571 C570 1.386 . S
C571 C575 1.393 . S
C572 H561 0.950 . S
C572 C570 1.391 . S
C572 C573 1.400 . S
C573 C567 1.491 . S
C573 C572 1.400 . S
C573 C574 1.398 . S
C574 H562 0.950 . S
C574 C573 1.398 . S
C574 C575 1.391 . S
C575 H563 0.950 . S
C575 C571 1.393 . S
C575 C574 1.391 . S
H576 C584 0.950 . S
H577 C589 0.950 . S
H578 C586 0.950 . S
H579 C588 0.950 . S
H580 C590 0.950 . S
H581 C592 0.950 . S
H582 C594 0.950 . S
H583 C595 0.950 . S
C584 H576 0.950 . S
C584 C585 1.386 . S
C584 C586 1.391 . S
C585 C584 1.386 . S
C585 C589 1.393 . S
C586 H578 0.950 . S
C586 C584 1.391 . S
C586 C587 1.400 . S
C587 C586 1.400 . S
C587 C588 1.398 . S
C587 C593 1.491 . S
C588 H579 0.950 . S
C588 C587 1.398 . S
C588 C589 1.391 . S
C589 H577 0.950 . S
C589 C585 1.393 . S
C589 C588 1.391 . S
C590 H580 0.950 . S
C590 C591 1.386 . S
C590 C592 1.391 . S
C591 C590 1.386 . S
C591 C595 1.393 . S
C592 H581 0.950 . S
C592 C590 1.391 . S
C592 C593 1.400 . S
C593 C587 1.491 . S
C593 C592 1.400 . S
C593 C594 1.398 . S
C594 H582 0.950 . S
C594 C593 1.398 . S
C594 C595 1.391 . S
C595 H583 0.950 . S
C595 C591 1.393 . S
C595 C594 1.391 . S
H596 C604 0.950 . S
H597 C609 0.950 . S
H598 C606 0.950 . S
H599 C608 0.950 . S
H600 C610 0.950 . S
H601 C612 0.950 . S
H602 C614 0.950 . S
H603 C615 0.950 . S
C604 H596 0.950 . S
C604 C605 1.386 . S
C604 C606 1.391 . S
C605 C604 1.386 . S
C605 C609 1.393 . S
C606 H598 0.950 . S
C606 C604 1.391 . S
C606 C607 1.400 . S
C607 C606 1.400 . S
C607 C608 1.398 . S
C607 C613 1.491 . S
C608 H599 0.950 . S
C608 C607 1.398 . S
C608 C609 1.391 . S
C609 H597 0.950 . S
C609 C605 1.393 . S
C609 C608 1.391 . S
C610 H600 0.950 . S
C610 C611 1.386 . S
C610 C612 1.391 . S
C611 C610 1.386 . S
C611 C615 1.393 . S
C612 H601 0.950 . S
C612 C610 1.391 . S
C612 C613 1.400 . S
C613 C607 1.491 . S
C613 C612 1.400 . S
C613 C614 1.398 . S
C614 H602 0.950 . S
C614 C613 1.398 . S
C614 C615 1.391 . S
C615 H603 0.950 . S
C615 C611 1.393 . S
C615 C614 1.391 . S
H616 C624 0.950 . S
H617 C629 0.950 . S
H618 C626 0.950 . S
H619 C628 0.950 . S
H620 C630 0.950 . S
H621 C632 0.950 . S
H622 C634 0.950 . S
H623 C635 0.950 . S
C624 H616 0.950 . S
C624 C625 1.386 . S
C624 C626 1.391 . S
C625 C624 1.386 . S
C625 C629 1.393 . S
C626 H618 0.950 . S
C626 C624 1.391 . S
C626 C627 1.400 . S
C627 C626 1.400 . S
C627 C628 1.398 . S
C627 C633 1.491 . S
C628 H619 0.950 . S
C628 C627 1.398 . S
C628 C629 1.391 . S
C629 H617 0.950 . S
C629 C625 1.393 . S
C629 C628 1.391 . S
C630 H620 0.950 . S
C630 C631 1.386 . S
C630 C632 1.391 . S
C631 C630 1.386 . S
C631 C635 1.393 . S
C632 H621 0.950 . S
C632 C630 1.391 . S
C632 C633 1.400 . S
C633 C627 1.491 . S
C633 C632 1.400 . S
C633 C634 1.398 . S
C634 H622 0.950 . S
C634 C633 1.398 . S
C634 C635 1.391 . S
C635 H623 0.950 . S
C635 C631 1.393 . S
C635 C634 1.391 . S
H636 C644 0.950 . S
H637 C649 0.950 . S
H638 C646 0.950 . S
H639 C648 0.950 . S
H640 C650 0.950 . S
H641 C652 0.950 . S
H642 C654 0.950 . S
H643 C655 0.950 . S
C644 H636 0.950 . S
C644 C645 1.386 . S
C644 C646 1.391 . S
C645 C644 1.386 . S
C645 C649 1.393 . S
C646 H638 0.950 . S
C646 C644 1.391 . S
C646 C647 1.400 . S
C647 C646 1.400 . S
C647 C648 1.398 . S
C647 C653 1.491 . S
C648 H639 0.950 . S
C648 C647 1.398 . S
C648 C649 1.391 . S
C649 H637 0.950 . S
C649 C645 1.393 . S
C649 C648 1.391 . S
C650 H640 0.950 . S
C650 C651 1.386 . S
C650 C652 1.391 . S
C651 C650 1.386 . S
C651 C655 1.393 . S
C652 H641 0.950 . S
C652 C650 1.391 . S
C652 C653 1.400 . S
C653 C647 1.491 . S
C653 C652 1.400 . S
C653 C654 1.398 . S
C654 H642 0.950 . S
C654 C653 1.398 . S
C654 C655 1.391 . S
C655 H643 0.950 . S
C655 C651 1.393 . S
C655 C654 1.391 . S
H656 C664 0.950 . S
H657 C669 0.950 . S
H658 C666 0.950 . S
H659 C668 0.950 . S
H660 C670 0.950 . S
H661 C672 0.950 . S
H662 C674 0.950 . S
H663 C675 0.950 . S
C664 H656 0.950 . S
C664 C665 1.386 . S
C664 C666 1.391 . S
C665 C664 1.386 . S
C665 C669 1.393 . S
C666 H658 0.950 . S
C666 C664 1.391 . S
C666 C667 1.400 . S
C667 C666 1.400 . S
C667 C668 1.398 . S
C667 C673 1.491 . S
C668 H659 0.950 . S
C668 C667 1.398 . S
C668 C669 1.391 . S
C669 H657 0.950 . S
C669 C665 1.393 . S
C669 C668 1.391 . S
C670 H660 0.950 . S
C670 C671 1.386 . S
C670 C672 1.391 . S
C671 C670 1.386 . S
C671 C675 1.393 . S
C672 H661 0.950 . S
C672 C670 1.391 . S
C672 C673 1.400 . S
C673 C667 1.491 . S
C673 C672 1.400 . S
C673 C674 1.398 . S
C674 H662 0.950 . S
C674 C673 1.398 . S
C674 C675 1.391 . S
C675 H663 0.950 . S
C675 C671 1.393 . S
C675 C674 1.391 . S
H676 C684 0.950 . S
H677 C689 0.950 . S
H678 C686 0.950 . S
H679 C688 0.950 . S
H680 C690 0.950 . S
H681 C692 0.950 . S
H682 C694 0.950 . S
H683 C695 0.950 . S
C684 H676 0.950 . S
C684 C685 1.386 . S
C684 C686 1.391 . S
C685 C684 1.386 . S
C685 C689 1.393 . S
C686 H678 0.950 . S
C686 C684 1.391 . S
C686 C687 1.400 . S
C687 C686 1.400 . S
C687 C688 1.398 . S
C687 C693 1.491 . S
C688 H679 0.950 . S
C688 C687 1.398 . S
C688 C689 1.391 . S
C689 H677 0.950 . S
C689 C685 1.393 . S
C689 C688 1.391 . S
C690 H680 0.950 . S
C690 C691 1.386 . S
C690 C692 1.391 . S
C691 C690 1.386 . S
C691 C695 1.393 . S
C692 H681 0.950 . S
C692 C690 1.391 . S
C692 C693 1.400 . S
C693 C687 1.491 . S
C693 C692 1.400 . S
C693 C694 1.398 . S
C694 H682 0.950 . S
C694 C693 1.398 . S
C694 C695 1.391 . S
C695 H683 0.950 . S
C695 C691 1.393 . S
C695 C694 1.391 . S
H696 C704 0.950 . S
H697 C709 0.950 . S
H698 C706 0.950 . S
H699 C708 0.950 . S
H700 C710 0.950 . S
H701 C712 0.950 . S
H702 C714 0.950 . S
H703 C715 0.950 . S
C704 H696 0.950 . S
C704 C705 1.386 . S
C704 C706 1.391 . S
C705 C704 1.386 . S
C705 C709 1.393 . S
C706 H698 0.950 . S
C706 C704 1.391 . S
C706 C707 1.400 . S
C707 C706 1.400 . S
C707 C708 1.398 . S
C707 C713 1.491 . S
C708 H699 0.950 . S
C708 C707 1.398 . S
C708 C709 1.391 . S
C709 H697 0.950 . S
C709 C705 1.393 . S
C709 C708 1.391 . S
C710 H700 0.950 . S
C710 C711 1.386 . S
C710 C712 1.391 . S
C711 C710 1.386 . S
C711 C715 1.393 . S
C712 H701 0.950 . S
C712 C710 1.391 . S
C712 C713 1.400 . S
C713 C707 1.491 . S
C713 C712 1.400 . S
C713 C714 1.398 . S
C714 H702 0.950 . S
C714 C713 1.398 . S
C714 C715 1.391 . S
C715 H703 0.950 . S
C715 C711 1.393 . S
C715 C714 1.391 . S
H716 C724 0.950 . S
H717 C729 0.950 . S
H718 C726 0.950 . S
H719 C728 0.950 . S
H720 C730 0.950 . S
H721 C732 0.950 . S
H722 C734 0.950 . S
H723 C735 0.950 . S
C724 H716 0.950 . S
C724 C725 1.386 . S
C724 C726 1.391 . S
C725 C724 1.386 . S
C725 C729 1.393 . S
C726 H718 0.950 . S
C726 C724 1.391 . S
C726 C727 1.400 . S
C727 C726 1.400 . S
C727 C728 1.398 . S
C727 C733 1.491 . S
C728 H719 0.950 . S
C728 C727 1.398 . S
C728 C729 1.391 . S
C729 H717 0.950 . S
C729 C725 1.393 . S
C729 C728 1.391 . S
C730 H720 0.950 . S
C730 C731 1.386 . S
C730 C732 1.391 . S
C731 C730 1.386 . S
C731 C735 1.393 . S
C732 H721 0.950 . S
C732 C730 1.391 . S
C732 C733 1.400 . S
C733 C727 1.491 . S
C733 C732 1.400 . S
C733 C734 1.398 . S
C734 H722 0.950 . S
C734 C733 1.398 . S
C734 C735 1.391 . S
C735 H723 0.950 . S
C735 C731 1.393 . S
C735 C734 1.391 . S
C265 C6 1.071 . S
C271 C103 1.084 . S
C285 C18 1.250 . S
C291 C152 1.234 . S
C311 C178 2.573 . S
C305 C28 2.621 . S
C325 C40 1.783 . S
C331 C226 1.747 . S
C351 C138 2.354 . S
C345 C9 2.239 . S
C371 C106 0.861 . S
C365 C16 0.866 . S
C391 C227 1.888 . S
C385 C30 1.918 . S
C411 C195 1.277 . S
C405 C42 1.308 . S
C425 C4 1.471 . S
C431 C223 1.505 . S
C451 C155 2.515 . S
C445 C33 2.582 . S
C465 C45 2.075 . S
C471 C107 2.060 . S
C485 C21 1.008 . S
C491 C192 1.030 . S
C511 C112 1.090 . S
C505 C57 1.073 . S
C525 C66 1.281 . S
C531 C143 1.256 . S
C545 C76 2.669 . S
C551 C187 2.620 . S
C565 C88 1.725 . S
C571 C235 1.695 . S
C585 C54 2.238 . S
C591 C147 2.337 . S
C611 C115 0.978 . S
C605 C64 0.985 . S
C631 C218 1.795 . S
C625 C78 1.836 . S
C651 C186 1.326 . S
C645 C93 1.344 . S
C665 C52 1.456 . S
C671 C232 1.516 . S
C691 C146 2.495 . S
C685 C81 2.569 . S
C711 C98 2.040 . S
C705 C90 2.052 . S
C725 C69 1.038 . S
C731 C183 1.058 . S
