# Generated by pormake.
# Topology cml, (3,6)-cn, num edge types: 1
# Building blocks:
#     Node 0, Type 0, BuildingBlock: INOVEN_clean_linker_0, # of connection points: 3
#     Node 1, Type 0, BuildingBlock: INOVEN_clean_linker_0, # of connection points: 3
#     Node 2, Type 0, BuildingBlock: INOVEN_clean_linker_0, # of connection points: 3
#     Node 3, Type 0, BuildingBlock: INOVEN_clean_linker_0, # of connection points: 3
#     Node 4, Type 0, BuildingBlock: INOVEN_clean_linker_0, # of connection points: 3
#     Node 5, Type 0, BuildingBlock: INOVEN_clean_linker_0, # of connection points: 3
#     Node 6, Type 0, BuildingBlock: INOVEN_clean_linker_0, # of connection points: 3
#     Node 7, Type 0, BuildingBlock: INOVEN_clean_linker_0, # of connection points: 3
#     Node 8, Type 1, BuildingBlock: IZENUY_clean_sbu_0, # of connection points: 6
#     Node 9, Type 1, BuildingBlock: IZENUY_clean_sbu_0, # of connection points: 6
#     Node 10, Type 1, BuildingBlock: IZENUY_clean_sbu_0, # of connection points: 6
#     Node 11, Type 1, BuildingBlock: IZENUY_clean_sbu_0, # of connection points: 6
#     Edge 12, Type (0, 1), BuildingBlock: OJICUG_clean_linker_0, # of connection points: 2
#     Edge 13, Type (0, 1), BuildingBlock: OJICUG_clean_linker_0, # of connection points: 2
#     Edge 14, Type (0, 1), BuildingBlock: OJICUG_clean_linker_0, # of connection points: 2
#     Edge 15, Type (0, 1), BuildingBlock: OJICUG_clean_linker_0, # of connection points: 2
#     Edge 16, Type (0, 1), BuildingBlock: OJICUG_clean_linker_0, # of connection points: 2
#     Edge 17, Type (0, 1), BuildingBlock: OJICUG_clean_linker_0, # of connection points: 2
#     Edge 18, Type (0, 1), BuildingBlock: OJICUG_clean_linker_0, # of connection points: 2
#     Edge 19, Type (0, 1), BuildingBlock: OJICUG_clean_linker_0, # of connection points: 2
#     Edge 20, Type (0, 1), BuildingBlock: OJICUG_clean_linker_0, # of connection points: 2
#     Edge 21, Type (0, 1), BuildingBlock: OJICUG_clean_linker_0, # of connection points: 2
#     Edge 22, Type (0, 1), BuildingBlock: OJICUG_clean_linker_0, # of connection points: 2
#     Edge 23, Type (0, 1), BuildingBlock: OJICUG_clean_linker_0, # of connection points: 2
#     Edge 24, Type (0, 1), BuildingBlock: OJICUG_clean_linker_0, # of connection points: 2
#     Edge 25, Type (0, 1), BuildingBlock: OJICUG_clean_linker_0, # of connection points: 2
#     Edge 26, Type (0, 1), BuildingBlock: OJICUG_clean_linker_0, # of connection points: 2
#     Edge 27, Type (0, 1), BuildingBlock: OJICUG_clean_linker_0, # of connection points: 2
#     Edge 28, Type (0, 1), BuildingBlock: OJICUG_clean_linker_0, # of connection points: 2
#     Edge 29, Type (0, 1), BuildingBlock: OJICUG_clean_linker_0, # of connection points: 2
#     Edge 30, Type (0, 1), BuildingBlock: OJICUG_clean_linker_0, # of connection points: 2
#     Edge 31, Type (0, 1), BuildingBlock: OJICUG_clean_linker_0, # of connection points: 2
#     Edge 32, Type (0, 1), BuildingBlock: OJICUG_clean_linker_0, # of connection points: 2
#     Edge 33, Type (0, 1), BuildingBlock: OJICUG_clean_linker_0, # of connection points: 2
#     Edge 34, Type (0, 1), BuildingBlock: OJICUG_clean_linker_0, # of connection points: 2
#     Edge 35, Type (0, 1), BuildingBlock: OJICUG_clean_linker_0, # of connection points: 2
# Relax obj value: 0.004
# Max RMSD: 0.061
# Mean RMSD: 0.049
data_MOF--net-cml--node1-IZENUY_clean_sbu_0--node2-INOVEN_clean_linker_0--edge1-OJICUG_clean_linker_0
_symmetry_space_group_name_H-M    P1
_symmetry_Int_Tables_number       1
_symmetry_cell_setting            triclinic
loop_
_symmetry_equiv_pos_as_xyz
'x, y, z'
_cell_length_a     26.880445
_cell_length_b     29.646312
_cell_length_c     26.748689
_cell_angle_alpha  89.047275
_cell_angle_beta   90.906639
_cell_angle_gamma 90.919755
loop_
_atom_site_label
_atom_site_type_symbol
_atom_site_fract_x
_atom_site_fract_y
_atom_site_fract_z
_atom_type_partial_charge
H0 H 0.29433 0.34321 0.07386 0.0
H1 H 0.38181 0.46486 0.05701 0.0
H2 H 0.28381 0.42228 0.93764 0.0
N3 N 0.2489 0.34698 0.9864 0.0
N4 N 0.22677 0.35117 0.94528 0.0
C5 C 0.30514 0.37273 0.0519 0.0
C6 C 0.33975 0.40386 0.07148 0.0
C7 C 0.28416 0.37939 0.00412 0.0
C8 C 0.29896 0.41731 0.97506 0.0
C9 C 0.33389 0.44866 0.99428 0.0
C10 C 0.35347 0.44182 0.04268 0.0
H11 H 0.74548 0.69045 0.57302 0.0
H12 H 0.6457 0.57749 0.55136 0.0
H13 H 0.74861 0.6156 0.43642 0.0
N14 N 0.78957 0.6866 0.48605 0.0
N15 N 0.80625 0.68542 0.44282 0.0
C16 C 0.73123 0.66315 0.55017 0.0
C17 C 0.6937 0.63413 0.56845 0.0
C18 C 0.75102 0.65689 0.50258 0.0
C19 C 0.73307 0.62106 0.4729 0.0
C20 C 0.69577 0.59161 0.49089 0.0
C21 C 0.67604 0.59889 0.53828 0.0
H22 H 0.74871 0.34721 0.06861 0.0
H23 H 0.64979 0.45849 0.04874 0.0
H24 H 0.74321 0.42001 0.92794 0.0
N25 N 0.78577 0.34917 0.97896 0.0
N26 N 0.7995 0.34794 0.93463 0.0
C27 C 0.73342 0.37412 0.04546 0.0
C28 C 0.69796 0.40286 0.06506 0.0
C29 C 0.74966 0.37968 0.99612 0.0
C30 C 0.73039 0.41511 0.96585 0.0
C31 C 0.69517 0.44474 0.98527 0.0
C32 C 0.67887 0.43756 0.03447 0.0
H33 H 0.2868 0.58756 0.42948 0.0
H34 H 0.37937 0.55252 0.55634 0.0
H35 H 0.28543 0.66823 0.56159 0.0
N36 N 0.24772 0.65928 0.46723 0.0
N37 N 0.23576 0.69641 0.48416 0.0
C38 C 0.29944 0.59348 0.46753 0.0
C39 C 0.33477 0.56516 0.49013 0.0
C40 C 0.28155 0.63057 0.49286 0.0
C41 C 0.29868 0.63925 0.54187 0.0
C42 C 0.3332 0.61049 0.5654 0.0
C43 C 0.35074 0.57338 0.53935 0.0
H44 H 0.79428 0.84328 0.07393 0.0
H45 H 0.88176 0.96492 0.05705 0.0
H46 H 0.78371 0.92235 0.93772 0.0
N47 N 0.74882 0.84705 0.98648 0.0
N48 N 0.72668 0.85124 0.94536 0.0
C49 C 0.80508 0.8728 0.05197 0.0
C50 C 0.8397 0.90393 0.07153 0.0
C51 C 0.78408 0.87947 0.0042 0.0
C52 C 0.79887 0.91739 0.97513 0.0
C53 C 0.83381 0.94873 0.99434 0.0
C54 C 0.85341 0.94189 0.04273 0.0
H55 H 0.2456 0.19033 0.57314 0.0
H56 H 0.1458 0.07738 0.55145 0.0
H57 H 0.24876 0.11547 0.43655 0.0
N58 N 0.2897 0.18647 0.48618 0.0
N59 N 0.30637 0.1853 0.44295 0.0
C60 C 0.23135 0.16302 0.55029 0.0
C61 C 0.1938 0.13401 0.56856 0.0
C62 C 0.25116 0.15676 0.5027 0.0
C63 C 0.23321 0.12093 0.47303 0.0
C64 C 0.1959 0.09149 0.491 0.0
C65 C 0.17616 0.09877 0.53838 0.0
H66 H 0.24872 0.84718 0.06859 0.0
H67 H 0.14979 0.95845 0.04875 0.0
H68 H 0.24316 0.91997 0.92791 0.0
N69 N 0.28575 0.84915 0.97893 0.0
N70 N 0.29947 0.84791 0.9346 0.0
C71 C 0.23341 0.87409 0.04544 0.0
C72 C 0.19797 0.90283 0.06505 0.0
C73 C 0.24964 0.87965 0.99609 0.0
C74 C 0.23035 0.91508 0.96583 0.0
C75 C 0.19514 0.94471 0.98527 0.0
C76 C 0.17887 0.93753 0.03447 0.0
H77 H 0.78691 0.08765 0.42941 0.0
H78 H 0.87941 0.05257 0.55631 0.0
H79 H 0.78548 0.16829 0.56155 0.0
N80 N 0.74782 0.15937 0.46717 0.0
N81 N 0.73585 0.19649 0.48411 0.0
C82 C 0.79954 0.09357 0.46747 0.0
C83 C 0.83485 0.06524 0.49008 0.0
C84 C 0.78163 0.13065 0.4928 0.0
C85 C 0.79874 0.13932 0.54182 0.0
C86 C 0.83325 0.11055 0.56537 0.0
C87 C 0.8508 0.07344 0.53932 0.0
Fe88 Fe 0.02999 0.82881 0.30373 0.0
Fe89 Fe 0.02624 0.87555 0.40524 0.0
O90 O 0.02751 0.87887 0.33914 0.0
Fe91 Fe 0.02556 0.93235 0.30873 0.0
O92 O 0.96846 0.91736 0.27611 0.0
O93 O 0.99203 0.85082 0.25116 0.0
O94 O 0.97246 0.8072 0.33023 0.0
C95 C 0.96433 0.80231 0.37628 0.0
C96 C 0.09288 0.88351 0.24991 0.0
O97 O 0.9921 0.82155 0.40831 0.0
C98 C 0.08867 0.95184 0.38636 0.0
O99 O 0.06844 0.79802 0.35038 0.0
O100 O 0.08556 0.84832 0.40794 0.0
O101 O 0.0636 0.91592 0.25604 0.0
O102 O 0.08742 0.84677 0.27388 0.0
C103 C 0.95828 0.94126 0.38832 0.0
O104 O 0.06029 0.92888 0.41468 0.0
O105 O 0.08263 0.95129 0.33953 0.0
C106 C 0.09505 0.8119 0.38684 0.0
O107 O 0.96657 0.90276 0.40687 0.0
O108 O 0.98692 0.95849 0.35582 0.0
C109 C 0.96257 0.88379 0.24822 0.0
Fe110 Fe 0.01418 0.15474 0.90167 0.0
Fe111 Fe 0.0131 0.09759 0.80698 0.0
O112 O 0.01343 0.1512 0.83553 0.0
Fe113 Fe 0.01256 0.20121 0.79783 0.0
O114 O 0.0502 0.23509 0.84172 0.0
O115 O 0.07191 0.18719 0.90147 0.0
O116 O 0.05216 0.10408 0.91208 0.0
C117 C 0.0794 0.08176 0.88341 0.0
C118 C 0.94791 0.22446 0.87099 0.0
O119 O 0.07153 0.08208 0.83684 0.0
C120 C 0.94702 0.14158 0.74564 0.0
O121 O 0.95637 0.12241 0.90676 0.0
O122 O 0.977 0.06879 0.85578 0.0
O123 O 0.9548 0.21923 0.82492 0.0
O124 O 0.9764 0.20606 0.90335 0.0
C125 C 0.0774 0.15046 0.7456 0.0
O126 O 0.9546 0.10876 0.77515 0.0
O127 O 0.97487 0.17645 0.74697 0.0
C128 C 0.94895 0.08364 0.88904 0.0
O129 O 0.04922 0.11645 0.75289 0.0
O130 O 0.07024 0.18702 0.76766 0.0
C131 C 0.07893 0.22375 0.87762 0.0
Fe132 Fe 0.52997 0.32879 0.30374 0.0
Fe133 Fe 0.52623 0.37555 0.40524 0.0
O134 O 0.52747 0.37886 0.33914 0.0
Fe135 Fe 0.52549 0.43233 0.30872 0.0
O136 O 0.46838 0.41731 0.27612 0.0
O137 O 0.49198 0.35078 0.25118 0.0
O138 O 0.47246 0.30717 0.33027 0.0
C139 C 0.46436 0.30227 0.37632 0.0
C140 C 0.59281 0.38352 0.24989 0.0
O141 O 0.49212 0.32153 0.40834 0.0
C142 C 0.5886 0.45187 0.38633 0.0
O143 O 0.56845 0.29803 0.35039 0.0
O144 O 0.58557 0.34835 0.40792 0.0
O145 O 0.56352 0.41592 0.25603 0.0
O146 O 0.58738 0.34678 0.27387 0.0
C147 C 0.45822 0.44123 0.38833 0.0
O148 O 0.56025 0.4289 0.41466 0.0
O149 O 0.58255 0.45131 0.3395 0.0
C150 C 0.59507 0.31193 0.38683 0.0
O151 O 0.46655 0.40273 0.40689 0.0
O152 O 0.48684 0.45846 0.35582 0.0
C153 C 0.46251 0.38373 0.24823 0.0
Fe154 Fe 0.51419 0.65474 0.90165 0.0
Fe155 Fe 0.51315 0.5976 0.80697 0.0
O156 O 0.51346 0.6512 0.83552 0.0
Fe157 Fe 0.51256 0.70122 0.79782 0.0
O158 O 0.55019 0.73511 0.84172 0.0
O159 O 0.57191 0.68722 0.90147 0.0
O160 O 0.55219 0.60409 0.91207 0.0
C161 C 0.57945 0.58179 0.8834 0.0
C162 C 0.4479 0.72445 0.87098 0.0
O163 O 0.57159 0.58212 0.83682 0.0
C164 C 0.44705 0.64157 0.74563 0.0
O165 O 0.45639 0.62239 0.90674 0.0
O166 O 0.47706 0.56878 0.85576 0.0
O167 O 0.4548 0.71922 0.8249 0.0
O168 O 0.47639 0.70605 0.90334 0.0
C169 C 0.57742 0.6505 0.74558 0.0
O170 O 0.45465 0.60875 0.77514 0.0
O171 O 0.47488 0.67644 0.74695 0.0
C172 C 0.449 0.58362 0.88902 0.0
O173 O 0.54926 0.61648 0.75288 0.0
O174 O 0.57026 0.68706 0.76765 0.0
C175 C 0.57891 0.72378 0.87763 0.0
C176 C 0.18192 0.27821 0.95575 0.0
C177 C 0.19135 0.31841 0.92852 0.0
H178 H 0.1393 0.21674 0.96087 0.0
C179 C 0.16469 0.32663 0.88403 0.0
H180 H 0.20208 0.2708 0.99019 0.0
C181 C 0.1285 0.29575 0.86723 0.0
C182 C 0.11846 0.25576 0.89462 0.0
H183 H 0.17159 0.35733 0.86256 0.0
H184 H 0.10825 0.30338 0.83288 0.0
C185 C 0.14594 0.24718 0.93887 0.0
C186 C 0.85915 0.7152 0.3767 0.0
C187 C 0.84542 0.71479 0.427 0.0
H188 H 0.9073 0.74333 0.32078 0.0
C189 C 0.87106 0.74313 0.46064 0.0
H190 H 0.8398 0.69352 0.35036 0.0
C191 C 0.9098 0.77126 0.44407 0.0
C192 C 0.92356 0.77191 0.39353 0.0
H193 H 0.8614 0.74345 0.49978 0.0
H194 H 0.92873 0.79274 0.47091 0.0
C195 C 0.89767 0.74366 0.35994 0.0
C196 C 0.86157 0.28912 0.95432 0.0
C197 C 0.83602 0.31677 0.91947 0.0
H198 H 0.91664 0.23851 0.96635 0.0
C199 C 0.84703 0.31344 0.86865 0.0
H200 H 0.85404 0.29082 0.99387 0.0
C201 C 0.88281 0.28313 0.8527 0.0
C202 C 0.90877 0.25572 0.88749 0.0
H203 H 0.82778 0.33438 0.84125 0.0
H204 H 0.89046 0.28157 0.81315 0.0
C205 C 0.89757 0.25909 0.93849 0.0
C206 C 0.1777 0.71167 0.4136 0.0
C207 C 0.20198 0.72493 0.45815 0.0
H208 H 0.1249 0.72899 0.35589 0.0
C209 C 0.19247 0.76725 0.4777 0.0
H210 H 0.1845 0.67909 0.39756 0.0
C211 C 0.1587 0.79593 0.45377 0.0
C212 C 0.13344 0.78257 0.40978 0.0
H213 H 0.21104 0.77792 0.51184 0.0
H214 H 0.15186 0.8283 0.47033 0.0
C215 C 0.14365 0.74027 0.38968 0.0
C216 C 0.68185 0.77827 0.95581 0.0
C217 C 0.69128 0.81847 0.92859 0.0
H218 H 0.63927 0.71678 0.96089 0.0
C219 C 0.66462 0.8267 0.8841 0.0
H220 H 0.70201 0.77086 0.99025 0.0
C221 C 0.62845 0.79581 0.86728 0.0
C222 C 0.61842 0.75581 0.89465 0.0
H223 H 0.67151 0.85741 0.86264 0.0
H224 H 0.6082 0.80344 0.83292 0.0
C225 C 0.6459 0.74723 0.93891 0.0
C226 C 0.37116 0.24304 0.46074 0.0
C227 C 0.34553 0.21468 0.42711 0.0
H228 H 0.42881 0.29269 0.47098 0.0
C229 C 0.35923 0.2151 0.37681 0.0
H230 H 0.36152 0.24336 0.49988 0.0
C231 C 0.39773 0.24358 0.36003 0.0
C232 C 0.42362 0.27185 0.39359 0.0
H233 H 0.33989 0.1934 0.35047 0.0
H234 H 0.40734 0.24325 0.32086 0.0
C235 C 0.40988 0.27119 0.44415 0.0
C236 C 0.347 0.81341 0.86862 0.0
C237 C 0.33599 0.81674 0.91944 0.0
H238 H 0.39044 0.78154 0.81312 0.0
C239 C 0.36154 0.78909 0.95429 0.0
H240 H 0.32776 0.83434 0.84122 0.0
C241 C 0.39754 0.75907 0.93847 0.0
C242 C 0.40875 0.7557 0.88747 0.0
H243 H 0.35401 0.7908 0.99385 0.0
H244 H 0.41662 0.73849 0.96633 0.0
C245 C 0.38279 0.78311 0.85268 0.0
C246 C 0.69254 0.26732 0.47766 0.0
C247 C 0.70207 0.22501 0.45809 0.0
H248 H 0.65189 0.32836 0.47031 0.0
C249 C 0.67779 0.21175 0.41355 0.0
H250 H 0.71111 0.278 0.51179 0.0
C251 C 0.64372 0.24034 0.38964 0.0
C252 C 0.63349 0.28263 0.40976 0.0
H253 H 0.68461 0.17917 0.39751 0.0
H254 H 0.62497 0.22906 0.35585 0.0
C255 C 0.65875 0.29599 0.45374 0.0
C256 C 0.37258 0.47771 0.91536 0.0
C257 C 0.35435 0.48624 0.9631 0.0
H258 H 0.41673 0.5019 0.85446 0.0
C259 C 0.36229 0.52924 0.98355 0.0
H260 H 0.36734 0.44484 0.8988 0.0
C261 C 0.39076 0.562 0.95828 0.0
C262 C 0.4122 0.55225 0.9122 0.0
H263 H 0.34825 0.53684 0.02015 0.0
H264 H 0.398 0.59405 0.97605 0.0
C265 C 0.40131 0.51032 0.89024 0.0
C266 C 0.66559 0.51169 0.48442 0.0
C267 C 0.67603 0.55341 0.46081 0.0
H268 H 0.63007 0.44693 0.47916 0.0
C269 C 0.66316 0.55924 0.40997 0.0
H270 H 0.67616 0.50571 0.5232 0.0
C271 C 0.63717 0.5251 0.38438 0.0
C272 C 0.62342 0.48481 0.40943 0.0
H273 H 0.67068 0.59102 0.39079 0.0
H274 H 0.62543 0.53128 0.34599 0.0
C275 C 0.63934 0.47794 0.45916 0.0
C276 C 0.66347 0.5239 0.97846 0.0
C277 C 0.67338 0.48275 0.95523 0.0
H278 H 0.62599 0.58706 0.97423 0.0
C279 C 0.65726 0.47699 0.90543 0.0
H280 H 0.67644 0.5301 0.01632 0.0
C281 C 0.62896 0.51032 0.88085 0.0
C282 C 0.61583 0.5498 0.90579 0.0
H283 H 0.66409 0.44578 0.88642 0.0
H284 H 0.61509 0.50402 0.84333 0.0
C285 C 0.63466 0.55671 0.95431 0.0
C286 C 0.37812 0.54147 0.41331 0.0
C287 C 0.35949 0.53037 0.46078 0.0
H288 H 0.42378 0.52178 0.35303 0.0
C289 C 0.36917 0.48763 0.48184 0.0
H290 H 0.37158 0.57433 0.39636 0.0
C291 C 0.39912 0.45744 0.457 0.0
C292 C 0.42036 0.46973 0.41094 0.0
H293 H 0.35484 0.47815 0.51822 0.0
H294 H 0.40743 0.42539 0.47501 0.0
C295 C 0.40834 0.51149 0.38868 0.0
C296 C 0.86224 0.0293 0.98359 0.0
C297 C 0.85428 0.9863 0.96314 0.0
H298 H 0.89798 0.0941 0.97609 0.0
C299 C 0.87248 0.97776 0.9154 0.0
H300 H 0.84821 0.03691 0.0202 0.0
C301 C 0.90122 1.01036 0.89027 0.0
C302 C 0.91214 0.05229 0.91224 0.0
H303 H 0.86722 0.9449 0.89884 0.0
H304 H 0.91662 1.00194 0.85449 0.0
C305 C 0.89072 0.06205 0.95832 0.0
C306 C 0.1633 0.05915 0.41006 0.0
C307 C 0.17615 0.0533 0.4609 0.0
H308 H 0.12557 0.03123 0.34606 0.0
C309 C 0.16567 1.01158 0.4845 0.0
H310 H 0.17085 0.09094 0.39089 0.0
C311 C 0.13941 0.97786 0.45921 0.0
C312 C 0.12351 0.98475 0.40948 0.0
H313 H 0.17622 1.00559 0.52328 0.0
H314 H 0.1301 0.94684 0.47921 0.0
C315 C 0.1373 0.02503 0.38445 0.0
C316 C 0.16343 0.02387 0.97846 0.0
C317 C 0.17333 0.98272 0.95523 0.0
H318 H 0.12596 0.08702 0.97424 0.0
C319 C 0.1572 0.97695 0.90544 0.0
H320 H 0.17641 0.03006 0.01632 0.0
C321 C 0.12889 1.01028 0.88086 0.0
C322 C 0.11578 0.04977 0.9058 0.0
H323 H 0.16403 0.94574 0.88643 0.0
H324 H 0.11502 1.00398 0.84334 0.0
C325 C 0.13462 0.05668 0.95432 0.0
C326 C 0.87823 0.04155 0.41329 0.0
C327 C 0.85957 0.03044 0.46074 0.0
H328 H 0.92392 0.02185 0.35302 0.0
C329 C 0.86922 0.9877 0.48179 0.0
H330 H 0.87173 0.07441 0.39634 0.0
C331 C 0.89916 0.9575 0.45696 0.0
C332 C 0.92043 0.96979 0.41091 0.0
H333 H 0.85486 0.97822 0.51816 0.0
H334 H 0.90744 0.92543 0.47497 0.0
C335 C 0.90845 1.01156 0.38866 0.0
C336 C 0.36941 0.43117 0.15472 0.0
C337 C 0.36461 0.39593 0.12051 0.0
H338 H 0.40341 0.45477 0.22223 0.0
C339 C 0.38818 0.35487 0.13114 0.0
H340 H 0.35121 0.46303 0.14753 0.0
C341 C 0.41855 0.35013 0.17379 0.0
C342 C 0.42553 0.38629 0.2067 0.0
H343 H 0.38525 0.32727 0.10515 0.0
H344 H 0.43789 0.3187 0.18 0.0
C345 C 0.39932 0.42635 0.19749 0.0
C346 C 0.65684 0.68295 0.63428 0.0
C347 C 0.6715 0.64022 0.61841 0.0
H348 H 0.61554 0.71998 0.68763 0.0
C349 C 0.66044 0.60219 0.64853 0.0
H350 H 0.66478 0.71286 0.61183 0.0
C351 C 0.63195 0.60617 0.69123 0.0
C352 C 0.61432 0.64835 0.70532 0.0
H353 H 0.67228 0.56894 0.63802 0.0
H354 H 0.62232 0.57586 0.71238 0.0
C355 C 0.62858 0.68701 0.67758 0.0
C356 C 0.66626 0.35341 0.13575 0.0
C357 C 0.67903 0.39655 0.11677 0.0
H358 H 0.62922 0.31522 0.19346 0.0
C359 C 0.66933 0.4344 0.14585 0.0
H360 H 0.67312 0.32357 0.11425 0.0
C361 C 0.64378 0.42967 0.19065 0.0
C362 C 0.62792 0.38692 0.20792 0.0
H363 H 0.67985 0.46801 0.13302 0.0
H364 H 0.63482 0.45976 0.2109 0.0
C365 C 0.64107 0.34862 0.18109 0.0
C366 C 0.36046 0.58614 0.65137 0.0
C367 C 0.35477 0.62072 0.61533 0.0
H368 H 0.39328 0.56573 0.72122 0.0
C369 C 0.3748 0.66376 0.62519 0.0
H370 H 0.34494 0.55275 0.64483 0.0
C371 C 0.40286 0.67124 0.66883 0.0
C372 C 0.41112 0.63586 0.70354 0.0
H373 H 0.37119 0.69096 0.59789 0.0
H374 H 0.41974 0.70425 0.67434 0.0
C375 C 0.3881 0.59366 0.69513 0.0
C376 C 0.88817 0.85493 0.13116 0.0
C377 C 0.86459 0.89599 0.12056 0.0
H378 H 0.93791 0.81876 0.17999 0.0
C379 C 0.86942 0.93123 0.15476 0.0
H380 H 0.88521 0.82733 0.10518 0.0
C381 C 0.89936 0.92641 0.19751 0.0
C382 C 0.92558 0.88635 0.2067 0.0
H383 H 0.85122 0.9631 0.14758 0.0
H384 H 0.90347 0.95483 0.22225 0.0
C385 C 0.91857 0.85019 0.17379 0.0
C386 C 0.15692 0.18286 0.63435 0.0
C387 C 0.17158 0.14011 0.6185 0.0
H388 H 0.1156 0.21991 0.68766 0.0
C389 C 0.16046 0.1021 0.64861 0.0
H390 H 0.1649 0.21276 0.6119 0.0
C391 C 0.13194 0.10609 0.69129 0.0
C392 C 0.11432 0.14828 0.70536 0.0
H393 H 0.1723 0.06884 0.63812 0.0
H394 H 0.12228 0.07579 0.71244 0.0
C395 C 0.12862 0.18694 0.67762 0.0
C396 C 0.16939 0.93438 0.14586 0.0
C397 C 0.17907 0.89652 0.11678 0.0
H398 H 0.13492 0.95974 0.21092 0.0
C399 C 0.16628 0.85338 0.13575 0.0
H400 H 0.17992 0.96799 0.13302 0.0
C401 C 0.1411 0.8486 0.1811 0.0
C402 C 0.12798 0.88691 0.20794 0.0
H403 H 0.17312 0.82354 0.11424 0.0
H404 H 0.12924 0.81521 0.19347 0.0
C405 C 0.14386 0.92965 0.19067 0.0
C406 C 0.87482 0.1638 0.62519 0.0
C407 C 0.85479 0.12077 0.6153 0.0
H408 H 0.91973 0.20428 0.67436 0.0
C409 C 0.86046 0.08617 0.65134 0.0
H410 H 0.87121 0.19101 0.59789 0.0
C411 C 0.88809 0.09369 0.69512 0.0
C412 C 0.9111 0.13588 0.70355 0.0
H413 H 0.84495 0.05279 0.64479 0.0
H414 H 0.89326 0.06575 0.7212 0.0
C415 C 0.90285 0.17127 0.66885 0.0
loop_
_geom_bond_atom_site_label_1
_geom_bond_atom_site_label_2
_geom_bond_distance
_geom_bond_site_symmetry_2
_ccdc_geom_bond_type
H0 C5 0.929 . S
H1 C10 0.931 . S
H2 C8 0.930 . S
N3 N4 1.234 . S
N3 C7 1.453 1_556 S
N4 N3 1.234 . S
C5 H0 0.929 . S
C5 C6 1.373 . S
C5 C7 1.368 . S
C6 C5 1.373 . S
C6 C10 1.397 . S
C7 N3 1.453 1_554 S
C7 C5 1.368 . S
C7 C8 1.373 1_554 S
C8 H2 0.930 . S
C8 C7 1.373 1_556 S
C8 C9 1.371 . S
C9 C8 1.371 . S
C9 C10 1.383 1_556 S
C10 H1 0.931 . S
C10 C6 1.397 . S
C10 C9 1.383 1_554 S
H11 C16 0.929 . S
H12 C21 0.931 . S
H13 C19 0.930 . S
N14 N15 1.234 . S
N14 C18 1.453 . S
N15 N14 1.234 . S
C16 H11 0.929 . S
C16 C17 1.373 . S
C16 C18 1.368 . S
C17 C16 1.373 . S
C17 C21 1.397 . S
C18 N14 1.453 . S
C18 C16 1.368 . S
C18 C19 1.373 . S
C19 H13 0.930 . S
C19 C18 1.373 . S
C19 C20 1.371 . S
C20 C19 1.371 . S
C20 C21 1.383 . S
C21 H12 0.931 . S
C21 C17 1.397 . S
C21 C20 1.383 . S
H22 C27 0.929 . S
H23 C32 0.931 . S
H24 C30 0.930 . S
N25 N26 1.234 1_554 S
N25 C29 1.453 . S
N26 N25 1.234 1_556 S
C27 H22 0.929 . S
C27 C28 1.373 . S
C27 C29 1.368 . S
C28 C27 1.373 . S
C28 C32 1.397 . S
C29 N25 1.453 . S
C29 C27 1.368 . S
C29 C30 1.373 1_554 S
C30 H24 0.930 . S
C30 C29 1.373 1_556 S
C30 C31 1.371 . S
C31 C30 1.371 . S
C31 C32 1.383 1_556 S
C32 H23 0.931 . S
C32 C28 1.397 . S
C32 C31 1.383 1_554 S
H33 C38 0.929 . S
H34 C43 0.931 . S
H35 C41 0.930 . S
N36 N37 1.234 . S
N36 C40 1.453 . S
N37 N36 1.234 . S
C38 H33 0.929 . S
C38 C39 1.373 . S
C38 C40 1.368 . S
C39 C38 1.373 . S
C39 C43 1.397 . S
C40 N36 1.453 . S
C40 C38 1.368 . S
C40 C41 1.373 . S
C41 H35 0.930 . S
C41 C40 1.373 . S
C41 C42 1.371 . S
C42 C41 1.371 . S
C42 C43 1.383 . S
C43 H34 0.931 . S
C43 C39 1.397 . S
C43 C42 1.383 . S
H44 C49 0.929 . S
H45 C54 0.931 . S
H46 C52 0.930 . S
N47 N48 1.234 . S
N47 C51 1.453 1_556 S
N48 N47 1.234 . S
C49 H44 0.929 . S
C49 C50 1.373 . S
C49 C51 1.368 . S
C50 C49 1.373 . S
C50 C54 1.397 . S
C51 N47 1.453 1_554 S
C51 C49 1.368 . S
C51 C52 1.373 1_554 S
C52 H46 0.930 . S
C52 C51 1.373 1_556 S
C52 C53 1.371 . S
C53 C52 1.371 . S
C53 C54 1.383 1_556 S
C54 H45 0.931 . S
C54 C50 1.397 . S
C54 C53 1.383 1_554 S
H55 C60 0.929 . S
H56 C65 0.931 . S
H57 C63 0.930 . S
N58 N59 1.234 . S
N58 C62 1.453 . S
N59 N58 1.234 . S
C60 H55 0.929 . S
C60 C61 1.373 . S
C60 C62 1.368 . S
C61 C60 1.373 . S
C61 C65 1.397 . S
C62 N58 1.453 . S
C62 C60 1.368 . S
C62 C63 1.373 . S
C63 H57 0.930 . S
C63 C62 1.373 . S
C63 C64 1.371 . S
C64 C63 1.371 . S
C64 C65 1.383 . S
C65 H56 0.931 . S
C65 C61 1.397 . S
C65 C64 1.383 . S
H66 C71 0.929 . S
H67 C76 0.931 . S
H68 C74 0.930 . S
N69 N70 1.234 1_554 S
N69 C73 1.453 . S
N70 N69 1.234 1_556 S
C71 H66 0.929 . S
C71 C72 1.373 . S
C71 C73 1.368 . S
C72 C71 1.373 . S
C72 C76 1.397 . S
C73 N69 1.453 . S
C73 C71 1.368 . S
C73 C74 1.373 1_554 S
C74 H68 0.930 . S
C74 C73 1.373 1_556 S
C74 C75 1.371 . S
C75 C74 1.371 . S
C75 C76 1.383 1_556 S
C76 H67 0.931 . S
C76 C72 1.397 . S
C76 C75 1.383 1_554 S
H77 C82 0.929 . S
H78 C87 0.931 . S
H79 C85 0.930 . S
N80 N81 1.234 . S
N80 C84 1.453 . S
N81 N80 1.234 . S
C82 H77 0.929 . S
C82 C83 1.373 . S
C82 C84 1.368 . S
C83 C82 1.373 . S
C83 C87 1.397 . S
C84 N80 1.453 . S
C84 C82 1.368 . S
C84 C85 1.373 . S
C85 H79 0.930 . S
C85 C84 1.373 . S
C85 C86 1.371 . S
C86 C85 1.371 . S
C86 C87 1.383 . S
C87 H78 0.931 . S
C87 C83 1.397 . S
C87 C86 1.383 . S
Fe88 O90 1.918 . S
Fe88 O93 1.997 1_455 S
Fe88 O94 2.002 1_455 S
Fe88 O99 1.976 . S
Fe88 O102 1.996 . S
Fe89 O90 1.918 . S
Fe89 O97 1.997 1_455 S
Fe89 O100 1.996 . S
Fe89 O104 1.976 . S
Fe89 O107 2.002 1_455 S
O90 Fe88 1.918 . S
O90 Fe89 1.918 . S
O90 Fe91 1.918 . S
Fe91 O90 1.918 . S
Fe91 O92 2.002 1_455 S
Fe91 O101 1.976 . S
Fe91 O105 1.996 . S
Fe91 O108 1.997 1_455 S
O92 Fe91 2.002 1_655 S
O92 C109 1.295 . S
O93 Fe88 1.997 1_655 S
O93 C109 1.235 . S
O94 Fe88 2.002 1_655 S
O94 C95 1.295 . S
C95 O94 1.295 . S
C95 O97 1.235 . S
C96 O101 1.287 . S
C96 O102 1.255 . S
O97 Fe89 1.997 1_655 S
O97 C95 1.235 . S
C98 O104 1.287 . S
C98 O105 1.255 . S
O99 Fe88 1.976 . S
O99 C106 1.287 . S
O100 Fe89 1.996 . S
O100 C106 1.255 . S
O101 Fe91 1.976 . S
O101 C96 1.287 . S
O102 Fe88 1.996 . S
O102 C96 1.255 . S
C103 O107 1.295 . S
C103 O108 1.235 . S
O104 Fe89 1.976 . S
O104 C98 1.287 . S
O105 Fe91 1.996 . S
O105 C98 1.255 . S
C106 O99 1.287 . S
C106 O100 1.255 . S
O107 Fe89 2.002 1_655 S
O107 C103 1.295 . S
O108 Fe91 1.997 1_655 S
O108 C103 1.235 . S
C109 O92 1.295 . S
C109 O93 1.235 . S
Fe110 O112 1.918 . S
Fe110 O115 1.990 1_655 S
Fe110 O116 1.995 1_655 S
Fe110 O121 1.983 . S
Fe110 O124 2.003 . S
Fe111 O112 1.918 . S
Fe111 O119 1.997 1_655 S
Fe111 O122 1.996 . S
Fe111 O126 1.976 . S
Fe111 O129 2.002 1_655 S
O112 Fe110 1.918 . S
O112 Fe111 1.918 . S
O112 Fe113 1.919 . S
Fe113 O112 1.919 . S
Fe113 O114 1.989 1_655 S
Fe113 O123 1.990 . S
Fe113 O127 2.009 . S
Fe113 O130 1.982 1_655 S
O114 Fe113 1.989 1_455 S
O114 C131 1.295 . S
O115 Fe110 1.990 1_455 S
O115 C131 1.235 . S
O116 Fe110 1.995 1_455 S
O116 C117 1.295 . S
C117 O116 1.295 . S
C117 O119 1.235 . S
C118 O123 1.287 . S
C118 O124 1.255 . S
O119 Fe111 1.997 1_455 S
O119 C117 1.235 . S
C120 O126 1.287 . S
C120 O127 1.255 . S
O121 Fe110 1.983 . S
O121 C128 1.287 . S
O122 Fe111 1.996 . S
O122 C128 1.255 . S
O123 Fe113 1.990 . S
O123 C118 1.287 . S
O124 Fe110 2.003 . S
O124 C118 1.255 . S
C125 O129 1.295 . S
C125 O130 1.235 . S
O126 Fe111 1.976 . S
O126 C120 1.287 . S
O127 Fe113 2.009 . S
O127 C120 1.255 . S
C128 O121 1.287 . S
C128 O122 1.255 . S
O129 Fe111 2.002 1_455 S
O129 C125 1.295 . S
O130 Fe113 1.982 1_455 S
O130 C125 1.235 . S
C131 O114 1.295 . S
C131 O115 1.235 . S
Fe132 O134 1.918 . S
Fe132 O137 1.997 . S
Fe132 O138 2.002 . S
Fe132 O143 1.976 . S
Fe132 O146 1.996 . S
Fe133 O134 1.918 . S
Fe133 O141 1.997 . S
Fe133 O144 1.996 . S
Fe133 O148 1.976 . S
Fe133 O151 2.002 . S
O134 Fe132 1.918 . S
O134 Fe133 1.918 . S
O134 Fe135 1.918 . S
Fe135 O134 1.918 . S
Fe135 O136 2.002 . S
Fe135 O145 1.976 . S
Fe135 O149 1.996 . S
Fe135 O152 1.997 . S
O136 Fe135 2.002 . S
O136 C153 1.295 . S
O137 Fe132 1.997 . S
O137 C153 1.235 . S
O138 Fe132 2.002 . S
O138 C139 1.295 . S
C139 O138 1.295 . S
C139 O141 1.235 . S
C140 O145 1.287 . S
C140 O146 1.255 . S
O141 Fe133 1.997 . S
O141 C139 1.235 . S
C142 O148 1.287 . S
C142 O149 1.255 . S
O143 Fe132 1.976 . S
O143 C150 1.287 . S
O144 Fe133 1.996 . S
O144 C150 1.255 . S
O145 Fe135 1.976 . S
O145 C140 1.287 . S
O146 Fe132 1.996 . S
O146 C140 1.255 . S
C147 O151 1.295 . S
C147 O152 1.235 . S
O148 Fe133 1.976 . S
O148 C142 1.287 . S
O149 Fe135 1.996 . S
O149 C142 1.255 . S
C150 O143 1.287 . S
C150 O144 1.255 . S
O151 Fe133 2.002 . S
O151 C147 1.295 . S
O152 Fe135 1.997 . S
O152 C147 1.235 . S
C153 O136 1.295 . S
C153 O137 1.235 . S
Fe154 O156 1.918 . S
Fe154 O159 1.997 . S
Fe154 O160 2.002 . S
Fe154 O165 1.976 . S
Fe154 O168 1.996 . S
Fe155 O156 1.918 . S
Fe155 O163 1.997 . S
Fe155 O166 1.996 . S
Fe155 O170 1.976 . S
Fe155 O173 2.002 . S
O156 Fe154 1.918 . S
O156 Fe155 1.918 . S
O156 Fe157 1.918 . S
Fe157 O156 1.918 . S
Fe157 O158 2.002 . S
Fe157 O167 1.976 . S
Fe157 O171 1.996 . S
Fe157 O174 1.997 . S
O158 Fe157 2.002 . S
O158 C175 1.295 . S
O159 Fe154 1.997 . S
O159 C175 1.235 . S
O160 Fe154 2.002 . S
O160 C161 1.295 . S
C161 O160 1.295 . S
C161 O163 1.235 . S
C162 O167 1.287 . S
C162 O168 1.255 . S
O163 Fe155 1.997 . S
O163 C161 1.235 . S
C164 O170 1.287 . S
C164 O171 1.255 . S
O165 Fe154 1.976 . S
O165 C172 1.287 . S
O166 Fe155 1.996 . S
O166 C172 1.255 . S
O167 Fe157 1.976 . S
O167 C162 1.287 . S
O168 Fe154 1.996 . S
O168 C162 1.255 . S
C169 O173 1.295 . S
C169 O174 1.235 . S
O170 Fe155 1.976 . S
O170 C164 1.287 . S
O171 Fe157 1.996 . S
O171 C164 1.255 . S
C172 O165 1.287 . S
C172 O166 1.255 . S
O173 Fe155 2.002 . S
O173 C169 1.295 . S
O174 Fe157 1.997 . S
O174 C169 1.235 . S
C175 O158 1.295 . S
C175 O159 1.235 . S
C176 C177 1.387 . S
C176 H180 0.950 . S
C176 C185 1.390 . S
C177 C176 1.387 . S
C177 C179 1.387 . S
H178 C185 0.950 . S
C179 C177 1.387 . S
C179 C181 1.390 . S
C179 H183 0.950 . S
H180 C176 0.950 . S
C181 C179 1.390 . S
C181 C182 1.387 . S
C181 H184 0.950 . S
C182 C181 1.387 . S
C182 C185 1.387 . S
H183 C179 0.950 . S
H184 C181 0.950 . S
C185 C176 1.390 . S
C185 H178 0.950 . S
C185 C182 1.387 . S
C186 C187 1.387 . S
C186 H190 0.950 . S
C186 C195 1.390 . S
C187 C186 1.387 . S
C187 C189 1.387 . S
H188 C195 0.950 . S
C189 C187 1.387 . S
C189 C191 1.390 . S
C189 H193 0.950 . S
H190 C186 0.950 . S
C191 C189 1.390 . S
C191 C192 1.387 . S
C191 H194 0.950 . S
C192 C191 1.387 . S
C192 C195 1.387 . S
H193 C189 0.950 . S
H194 C191 0.950 . S
C195 C186 1.390 . S
C195 H188 0.950 . S
C195 C192 1.387 . S
C196 C197 1.387 . S
C196 H200 0.950 1_556 S
C196 C205 1.390 . S
C197 C196 1.387 . S
C197 C199 1.387 . S
H198 C205 0.950 . S
C199 C197 1.387 . S
C199 C201 1.390 . S
C199 H203 0.950 . S
H200 C196 0.950 1_554 S
C201 C199 1.390 . S
C201 C202 1.387 . S
C201 H204 0.950 . S
C202 C201 1.387 . S
C202 C205 1.387 . S
H203 C199 0.950 . S
H204 C201 0.950 . S
C205 C196 1.390 . S
C205 H198 0.950 . S
C205 C202 1.387 . S
C206 C207 1.387 . S
C206 H210 0.950 . S
C206 C215 1.390 . S
C207 C206 1.387 . S
C207 C209 1.387 . S
H208 C215 0.950 . S
C209 C207 1.387 . S
C209 C211 1.390 . S
C209 H213 0.950 . S
H210 C206 0.950 . S
C211 C209 1.390 . S
C211 C212 1.387 . S
C211 H214 0.950 . S
C212 C211 1.387 . S
C212 C215 1.387 . S
H213 C209 0.950 . S
H214 C211 0.950 . S
C215 C206 1.390 . S
C215 H208 0.950 . S
C215 C212 1.387 . S
C216 C217 1.387 . S
C216 H220 0.950 . S
C216 C225 1.390 . S
C217 C216 1.387 . S
C217 C219 1.387 . S
H218 C225 0.950 . S
C219 C217 1.387 . S
C219 C221 1.390 . S
C219 H223 0.950 . S
H220 C216 0.950 . S
C221 C219 1.390 . S
C221 C222 1.387 . S
C221 H224 0.950 . S
C222 C221 1.387 . S
C222 C225 1.387 . S
H223 C219 0.950 . S
H224 C221 0.950 . S
C225 C216 1.390 . S
C225 H218 0.950 . S
C225 C222 1.387 . S
C226 C227 1.387 . S
C226 H230 0.950 . S
C226 C235 1.390 . S
C227 C226 1.387 . S
C227 C229 1.387 . S
H228 C235 0.950 . S
C229 C227 1.387 . S
C229 C231 1.390 . S
C229 H233 0.950 . S
H230 C226 0.950 . S
C231 C229 1.390 . S
C231 C232 1.387 . S
C231 H234 0.950 . S
C232 C231 1.387 . S
C232 C235 1.387 . S
H233 C229 0.950 . S
H234 C231 0.950 . S
C235 C226 1.390 . S
C235 H228 0.950 . S
C235 C232 1.387 . S
C236 C237 1.387 . S
C236 H240 0.950 . S
C236 C245 1.390 . S
C237 C236 1.387 . S
C237 C239 1.387 . S
H238 C245 0.950 . S
C239 C237 1.387 . S
C239 C241 1.390 . S
C239 H243 0.950 1_556 S
H240 C236 0.950 . S
C241 C239 1.390 . S
C241 C242 1.387 . S
C241 H244 0.950 . S
C242 C241 1.387 . S
C242 C245 1.387 . S
H243 C239 0.950 1_554 S
H244 C241 0.950 . S
C245 C236 1.390 . S
C245 H238 0.950 . S
C245 C242 1.387 . S
C246 C247 1.387 . S
C246 H250 0.950 . S
C246 C255 1.390 . S
C247 C246 1.387 . S
C247 C249 1.387 . S
H248 C255 0.950 . S
C249 C247 1.387 . S
C249 C251 1.390 . S
C249 H253 0.950 . S
H250 C246 0.950 . S
C251 C249 1.390 . S
C251 C252 1.387 . S
C251 H254 0.950 . S
C252 C251 1.387 . S
C252 C255 1.387 . S
H253 C249 0.950 . S
H254 C251 0.950 . S
C255 C246 1.390 . S
C255 H248 0.950 . S
C255 C252 1.387 . S
C256 C257 1.387 . S
C256 H260 0.950 . S
C256 C265 1.390 . S
C257 C256 1.387 . S
C257 C259 1.387 . S
H258 C265 0.950 . S
C259 C257 1.387 . S
C259 C261 1.390 . S
C259 H263 0.950 . S
H260 C256 0.950 . S
C261 C259 1.390 . S
C261 C262 1.387 . S
C261 H264 0.950 . S
C262 C261 1.387 . S
C262 C265 1.387 . S
H263 C259 0.950 . S
H264 C261 0.950 . S
C265 C256 1.390 . S
C265 H258 0.950 . S
C265 C262 1.387 . S
C266 C267 1.387 . S
C266 H270 0.950 . S
C266 C275 1.390 . S
C267 C266 1.387 . S
C267 C269 1.387 . S
H268 C275 0.950 . S
C269 C267 1.387 . S
C269 C271 1.390 . S
C269 H273 0.950 . S
H270 C266 0.950 . S
C271 C269 1.390 . S
C271 C272 1.387 . S
C271 H274 0.950 . S
C272 C271 1.387 . S
C272 C275 1.387 . S
H273 C269 0.950 . S
H274 C271 0.950 . S
C275 C266 1.390 . S
C275 H268 0.950 . S
C275 C272 1.387 . S
C276 C277 1.387 . S
C276 H280 0.950 1_556 S
C276 C285 1.390 . S
C277 C276 1.387 . S
C277 C279 1.387 . S
H278 C285 0.950 . S
C279 C277 1.387 . S
C279 C281 1.390 . S
C279 H283 0.950 . S
H280 C276 0.950 1_554 S
C281 C279 1.390 . S
C281 C282 1.387 . S
C281 H284 0.950 . S
C282 C281 1.387 . S
C282 C285 1.387 . S
H283 C279 0.950 . S
H284 C281 0.950 . S
C285 C276 1.390 . S
C285 H278 0.950 . S
C285 C282 1.387 . S
C286 C287 1.387 . S
C286 H290 0.950 . S
C286 C295 1.390 . S
C287 C286 1.387 . S
C287 C289 1.387 . S
H288 C295 0.950 . S
C289 C287 1.387 . S
C289 C291 1.390 . S
C289 H293 0.950 . S
H290 C286 0.950 . S
C291 C289 1.390 . S
C291 C292 1.387 . S
C291 H294 0.950 . S
C292 C291 1.387 . S
C292 C295 1.387 . S
H293 C289 0.950 . S
H294 C291 0.950 . S
C295 C286 1.390 . S
C295 H288 0.950 . S
C295 C292 1.387 . S
C296 C297 1.387 1_545 S
C296 H300 0.950 . S
C296 C305 1.390 . S
C297 C296 1.387 1_565 S
C297 C299 1.387 . S
H298 C305 0.950 . S
C299 C297 1.387 . S
C299 C301 1.390 . S
C299 H303 0.950 . S
H300 C296 0.950 . S
C301 C299 1.390 . S
C301 C302 1.387 1_565 S
C301 H304 0.950 . S
C302 C301 1.387 1_545 S
C302 C305 1.387 . S
H303 C299 0.950 . S
H304 C301 0.950 . S
C305 C296 1.390 . S
C305 H298 0.950 . S
C305 C302 1.387 . S
C306 C307 1.387 . S
C306 H310 0.950 . S
C306 C315 1.390 . S
C307 C306 1.387 . S
C307 C309 1.387 . S
H308 C315 0.950 . S
C309 C307 1.387 . S
C309 C311 1.390 1_545 S
C309 H313 0.950 . S
H310 C306 0.950 . S
C311 C309 1.390 1_565 S
C311 C312 1.387 . S
C311 H314 0.950 . S
C312 C311 1.387 . S
C312 C315 1.387 1_565 S
H313 C309 0.950 . S
H314 C311 0.950 . S
C315 C306 1.390 . S
C315 H308 0.950 . S
C315 C312 1.387 1_545 S
C316 C317 1.387 . S
C316 H320 0.950 1_556 S
C316 C325 1.390 1_565 S
C317 C316 1.387 . S
C317 C319 1.387 . S
H318 C325 0.950 . S
C319 C317 1.387 . S
C319 C321 1.390 . S
C319 H323 0.950 . S
H320 C316 0.950 1_554 S
C321 C319 1.390 . S
C321 C322 1.387 1_565 S
C321 H324 0.950 . S
C322 C321 1.387 1_545 S
C322 C325 1.387 . S
H323 C319 0.950 . S
H324 C321 0.950 . S
C325 C316 1.390 1_545 S
C325 H318 0.950 . S
C325 C322 1.387 . S
C326 C327 1.387 . S
C326 H330 0.950 . S
C326 C335 1.390 . S
C327 C326 1.387 . S
C327 C329 1.387 . S
H328 C335 0.950 . S
C329 C327 1.387 . S
C329 C331 1.390 1_545 S
C329 H333 0.950 . S
H330 C326 0.950 . S
C331 C329 1.390 1_565 S
C331 C332 1.387 . S
C331 H334 0.950 . S
C332 C331 1.387 . S
C332 C335 1.387 1_565 S
H333 C329 0.950 . S
H334 C331 0.950 . S
C335 C326 1.390 . S
C335 H328 0.950 . S
C335 C332 1.387 1_545 S
C336 C337 1.387 . S
C336 H340 0.950 . S
C336 C345 1.390 . S
C337 C336 1.387 . S
C337 C339 1.387 . S
H338 C345 0.950 . S
C339 C337 1.387 . S
C339 C341 1.390 . S
C339 H343 0.950 . S
H340 C336 0.950 . S
C341 C339 1.390 . S
C341 C342 1.387 . S
C341 H344 0.950 . S
C342 C341 1.387 . S
C342 C345 1.387 . S
H343 C339 0.950 . S
H344 C341 0.950 . S
C345 C336 1.390 . S
C345 H338 0.950 . S
C345 C342 1.387 . S
C346 C347 1.387 . S
C346 H350 0.950 . S
C346 C355 1.390 . S
C347 C346 1.387 . S
C347 C349 1.387 . S
H348 C355 0.950 . S
C349 C347 1.387 . S
C349 C351 1.390 . S
C349 H353 0.950 . S
H350 C346 0.950 . S
C351 C349 1.390 . S
C351 C352 1.387 . S
C351 H354 0.950 . S
C352 C351 1.387 . S
C352 C355 1.387 . S
H353 C349 0.950 . S
H354 C351 0.950 . S
C355 C346 1.390 . S
C355 H348 0.950 . S
C355 C352 1.387 . S
C356 C357 1.387 . S
C356 H360 0.950 . S
C356 C365 1.390 . S
C357 C356 1.387 . S
C357 C359 1.387 . S
H358 C365 0.950 . S
C359 C357 1.387 . S
C359 C361 1.390 . S
C359 H363 0.950 . S
H360 C356 0.950 . S
C361 C359 1.390 . S
C361 C362 1.387 . S
C361 H364 0.950 . S
C362 C361 1.387 . S
C362 C365 1.387 . S
H363 C359 0.950 . S
H364 C361 0.950 . S
C365 C356 1.390 . S
C365 H358 0.950 . S
C365 C362 1.387 . S
C366 C367 1.387 . S
C366 H370 0.950 . S
C366 C375 1.390 . S
C367 C366 1.387 . S
C367 C369 1.387 . S
H368 C375 0.950 . S
C369 C367 1.387 . S
C369 C371 1.390 . S
C369 H373 0.950 . S
H370 C366 0.950 . S
C371 C369 1.390 . S
C371 C372 1.387 . S
C371 H374 0.950 . S
C372 C371 1.387 . S
C372 C375 1.387 . S
H373 C369 0.950 . S
H374 C371 0.950 . S
C375 C366 1.390 . S
C375 H368 0.950 . S
C375 C372 1.387 . S
C376 C377 1.387 . S
C376 H380 0.950 . S
C376 C385 1.390 . S
C377 C376 1.387 . S
C377 C379 1.387 . S
H378 C385 0.950 . S
C379 C377 1.387 . S
C379 C381 1.390 . S
C379 H383 0.950 . S
H380 C376 0.950 . S
C381 C379 1.390 . S
C381 C382 1.387 . S
C381 H384 0.950 . S
C382 C381 1.387 . S
C382 C385 1.387 . S
H383 C379 0.950 . S
H384 C381 0.950 . S
C385 C376 1.390 . S
C385 H378 0.950 . S
C385 C382 1.387 . S
C386 C387 1.387 . S
C386 H390 0.950 . S
C386 C395 1.390 . S
C387 C386 1.387 . S
C387 C389 1.387 . S
H388 C395 0.950 . S
C389 C387 1.387 . S
C389 C391 1.390 . S
C389 H393 0.950 . S
H390 C386 0.950 . S
C391 C389 1.390 . S
C391 C392 1.387 . S
C391 H394 0.950 . S
C392 C391 1.387 . S
C392 C395 1.387 . S
H393 C389 0.950 . S
H394 C391 0.950 . S
C395 C386 1.390 . S
C395 H388 0.950 . S
C395 C392 1.387 . S
C396 C397 1.387 . S
C396 H400 0.950 . S
C396 C405 1.390 . S
C397 C396 1.387 . S
C397 C399 1.387 . S
H398 C405 0.950 . S
C399 C397 1.387 . S
C399 C401 1.390 . S
C399 H403 0.950 . S
H400 C396 0.950 . S
C401 C399 1.390 . S
C401 C402 1.387 . S
C401 H404 0.950 . S
C402 C401 1.387 . S
C402 C405 1.387 . S
H403 C399 0.950 . S
H404 C401 0.950 . S
C405 C396 1.390 . S
C405 H398 0.950 . S
C405 C402 1.387 . S
C406 C407 1.387 . S
C406 H410 0.950 . S
C406 C415 1.390 . S
C407 C406 1.387 . S
C407 C409 1.387 . S
H408 C415 0.950 . S
C409 C407 1.387 . S
C409 C411 1.390 . S
C409 H413 0.950 . S
H410 C406 0.950 . S
C411 C409 1.390 . S
C411 C412 1.387 . S
C411 H414 0.950 . S
C412 C411 1.387 . S
C412 C415 1.387 . S
H413 C409 0.950 . S
H414 C411 0.950 . S
C415 C406 1.390 . S
C415 H408 0.950 . S
C415 C412 1.387 . S
C177 N4 1.537 . S
C182 C131 1.525 . S
C192 C95 1.529 . S
C187 N15 1.538 . S
C202 C118 1.599 . S
C197 N26 1.589 . S
C212 C106 1.486 . S
C207 N37 1.482 . S
C222 C175 1.526 . S
C217 N48 1.537 . S
C232 C139 1.528 . S
C227 N59 1.537 . S
C237 N70 1.587 . S
C242 C162 1.597 . S
C252 C150 1.487 . S
C247 N81 1.484 . S
C257 C9 1.503 . S
C262 C172 1.544 . S
C272 C142 1.520 . S
C267 C20 1.482 . S
C277 C31 1.572 . S
C282 C161 1.607 . S
C287 C39 1.453 . S
C292 C147 1.468 . S
C302 C128 1.544 . S
C297 C53 1.505 . S
C307 C64 1.480 . S
C312 C98 1.520 . S
C322 C117 1.607 . S
C317 C75 1.572 . S
C332 C103 1.469 . S
C327 C83 1.451 . S
C342 C153 1.522 . S
C337 C6 1.512 . S
C352 C169 1.517 . S
C347 C17 1.504 . S
C357 C28 1.500 . S
C362 C140 1.506 . S
C372 C164 1.505 . S
C367 C42 1.469 . S
C382 C109 1.521 . S
C377 C50 1.514 . S
C387 C61 1.503 . S
C392 C125 1.517 . S
C397 C72 1.501 . S
C402 C96 1.506 . S
C407 C86 1.466 . S
C412 C120 1.505 . S
