# Generated by pormake.
# Topology eea, (3,6)-cn, num edge types: 1
# Building blocks:
#     Node 0, Type 0, BuildingBlock: BETDIP_clean_linker_0, # of connection points: 3
#     Node 1, Type 0, BuildingBlock: BETDIP_clean_linker_0, # of connection points: 3
#     Node 2, Type 0, BuildingBlock: BETDIP_clean_linker_0, # of connection points: 3
#     Node 3, Type 0, BuildingBlock: BETDIP_clean_linker_0, # of connection points: 3
#     Node 4, Type 0, BuildingBlock: BETDIP_clean_linker_0, # of connection points: 3
#     Node 5, Type 0, BuildingBlock: BETDIP_clean_linker_0, # of connection points: 3
#     Node 6, Type 0, BuildingBlock: BETDIP_clean_linker_0, # of connection points: 3
#     Node 7, Type 0, BuildingBlock: BETDIP_clean_linker_0, # of connection points: 3
#     Node 8, Type 0, BuildingBlock: BETDIP_clean_linker_0, # of connection points: 3
#     Node 9, Type 0, BuildingBlock: BETDIP_clean_linker_0, # of connection points: 3
#     Node 10, Type 0, BuildingBlock: BETDIP_clean_linker_0, # of connection points: 3
#     Node 11, Type 0, BuildingBlock: BETDIP_clean_linker_0, # of connection points: 3
#     Node 12, Type 0, BuildingBlock: BETDIP_clean_linker_0, # of connection points: 3
#     Node 13, Type 0, BuildingBlock: BETDIP_clean_linker_0, # of connection points: 3
#     Node 14, Type 0, BuildingBlock: BETDIP_clean_linker_0, # of connection points: 3
#     Node 15, Type 0, BuildingBlock: BETDIP_clean_linker_0, # of connection points: 3
#     Node 16, Type 0, BuildingBlock: BETDIP_clean_linker_0, # of connection points: 3
#     Node 17, Type 0, BuildingBlock: BETDIP_clean_linker_0, # of connection points: 3
#     Node 18, Type 1, BuildingBlock: KUMBUR_clean_sbu_0, # of connection points: 6
#     Node 19, Type 1, BuildingBlock: KUMBUR_clean_sbu_0, # of connection points: 6
#     Node 20, Type 1, BuildingBlock: KUMBUR_clean_sbu_0, # of connection points: 6
#     Node 21, Type 1, BuildingBlock: KUMBUR_clean_sbu_0, # of connection points: 6
#     Node 22, Type 1, BuildingBlock: KUMBUR_clean_sbu_0, # of connection points: 6
#     Node 23, Type 1, BuildingBlock: KUMBUR_clean_sbu_0, # of connection points: 6
#     Node 24, Type 1, BuildingBlock: KUMBUR_clean_sbu_0, # of connection points: 6
#     Node 25, Type 1, BuildingBlock: KUMBUR_clean_sbu_0, # of connection points: 6
#     Node 26, Type 1, BuildingBlock: KUMBUR_clean_sbu_0, # of connection points: 6
#     Edge 27, Type (0, 1), BuildingBlock: UVAHIK_clean_linker_0, # of connection points: 2
#     Edge 28, Type (0, 1), BuildingBlock: UVAHIK_clean_linker_0, # of connection points: 2
#     Edge 29, Type (0, 1), BuildingBlock: UVAHIK_clean_linker_0, # of connection points: 2
#     Edge 30, Type (0, 1), BuildingBlock: UVAHIK_clean_linker_0, # of connection points: 2
#     Edge 31, Type (0, 1), BuildingBlock: UVAHIK_clean_linker_0, # of connection points: 2
#     Edge 32, Type (0, 1), BuildingBlock: UVAHIK_clean_linker_0, # of connection points: 2
#     Edge 33, Type (0, 1), BuildingBlock: UVAHIK_clean_linker_0, # of connection points: 2
#     Edge 34, Type (0, 1), BuildingBlock: UVAHIK_clean_linker_0, # of connection points: 2
#     Edge 35, Type (0, 1), BuildingBlock: UVAHIK_clean_linker_0, # of connection points: 2
#     Edge 36, Type (0, 1), BuildingBlock: UVAHIK_clean_linker_0, # of connection points: 2
#     Edge 37, Type (0, 1), BuildingBlock: UVAHIK_clean_linker_0, # of connection points: 2
#     Edge 38, Type (0, 1), BuildingBlock: UVAHIK_clean_linker_0, # of connection points: 2
#     Edge 39, Type (0, 1), BuildingBlock: UVAHIK_clean_linker_0, # of connection points: 2
#     Edge 40, Type (0, 1), BuildingBlock: UVAHIK_clean_linker_0, # of connection points: 2
#     Edge 41, Type (0, 1), BuildingBlock: UVAHIK_clean_linker_0, # of connection points: 2
#     Edge 42, Type (0, 1), BuildingBlock: UVAHIK_clean_linker_0, # of connection points: 2
#     Edge 43, Type (0, 1), BuildingBlock: UVAHIK_clean_linker_0, # of connection points: 2
#     Edge 44, Type (0, 1), BuildingBlock: UVAHIK_clean_linker_0, # of connection points: 2
#     Edge 45, Type (0, 1), BuildingBlock: UVAHIK_clean_linker_0, # of connection points: 2
#     Edge 46, Type (0, 1), BuildingBlock: UVAHIK_clean_linker_0, # of connection points: 2
#     Edge 47, Type (0, 1), BuildingBlock: UVAHIK_clean_linker_0, # of connection points: 2
#     Edge 48, Type (0, 1), BuildingBlock: UVAHIK_clean_linker_0, # of connection points: 2
#     Edge 49, Type (0, 1), BuildingBlock: UVAHIK_clean_linker_0, # of connection points: 2
#     Edge 50, Type (0, 1), BuildingBlock: UVAHIK_clean_linker_0, # of connection points: 2
#     Edge 51, Type (0, 1), BuildingBlock: UVAHIK_clean_linker_0, # of connection points: 2
#     Edge 52, Type (0, 1), BuildingBlock: UVAHIK_clean_linker_0, # of connection points: 2
#     Edge 53, Type (0, 1), BuildingBlock: UVAHIK_clean_linker_0, # of connection points: 2
#     Edge 54, Type (0, 1), BuildingBlock: UVAHIK_clean_linker_0, # of connection points: 2
#     Edge 55, Type (0, 1), BuildingBlock: UVAHIK_clean_linker_0, # of connection points: 2
#     Edge 56, Type (0, 1), BuildingBlock: UVAHIK_clean_linker_0, # of connection points: 2
#     Edge 57, Type (0, 1), BuildingBlock: UVAHIK_clean_linker_0, # of connection points: 2
#     Edge 58, Type (0, 1), BuildingBlock: UVAHIK_clean_linker_0, # of connection points: 2
#     Edge 59, Type (0, 1), BuildingBlock: UVAHIK_clean_linker_0, # of connection points: 2
#     Edge 60, Type (0, 1), BuildingBlock: UVAHIK_clean_linker_0, # of connection points: 2
#     Edge 61, Type (0, 1), BuildingBlock: UVAHIK_clean_linker_0, # of connection points: 2
#     Edge 62, Type (0, 1), BuildingBlock: UVAHIK_clean_linker_0, # of connection points: 2
#     Edge 63, Type (0, 1), BuildingBlock: UVAHIK_clean_linker_0, # of connection points: 2
#     Edge 64, Type (0, 1), BuildingBlock: UVAHIK_clean_linker_0, # of connection points: 2
#     Edge 65, Type (0, 1), BuildingBlock: UVAHIK_clean_linker_0, # of connection points: 2
#     Edge 66, Type (0, 1), BuildingBlock: UVAHIK_clean_linker_0, # of connection points: 2
#     Edge 67, Type (0, 1), BuildingBlock: UVAHIK_clean_linker_0, # of connection points: 2
#     Edge 68, Type (0, 1), BuildingBlock: UVAHIK_clean_linker_0, # of connection points: 2
#     Edge 69, Type (0, 1), BuildingBlock: UVAHIK_clean_linker_0, # of connection points: 2
#     Edge 70, Type (0, 1), BuildingBlock: UVAHIK_clean_linker_0, # of connection points: 2
#     Edge 71, Type (0, 1), BuildingBlock: UVAHIK_clean_linker_0, # of connection points: 2
#     Edge 72, Type (0, 1), BuildingBlock: UVAHIK_clean_linker_0, # of connection points: 2
#     Edge 73, Type (0, 1), BuildingBlock: UVAHIK_clean_linker_0, # of connection points: 2
#     Edge 74, Type (0, 1), BuildingBlock: UVAHIK_clean_linker_0, # of connection points: 2
#     Edge 75, Type (0, 1), BuildingBlock: UVAHIK_clean_linker_0, # of connection points: 2
#     Edge 76, Type (0, 1), BuildingBlock: UVAHIK_clean_linker_0, # of connection points: 2
#     Edge 77, Type (0, 1), BuildingBlock: UVAHIK_clean_linker_0, # of connection points: 2
#     Edge 78, Type (0, 1), BuildingBlock: UVAHIK_clean_linker_0, # of connection points: 2
#     Edge 79, Type (0, 1), BuildingBlock: UVAHIK_clean_linker_0, # of connection points: 2
#     Edge 80, Type (0, 1), BuildingBlock: UVAHIK_clean_linker_0, # of connection points: 2
# Relax obj value: 0.025
# Max RMSD: 0.155
# Mean RMSD: 0.114
data_MOF--net-eea--node1-KUMBUR_clean_sbu_0--node2-BETDIP_clean_linker_0--edge1-UVAHIK_clean_linker_0
_symmetry_space_group_name_H-M    P1
_symmetry_Int_Tables_number       1
_symmetry_cell_setting            triclinic
loop_
_symmetry_equiv_pos_as_xyz
'x, y, z'
_cell_length_a     70.788719
_cell_length_b     72.4834
_cell_length_c     82.609554
_cell_angle_alpha  90.124567
_cell_angle_beta   90.128258
_cell_angle_gamma 119.96336
loop_
_atom_site_label
_atom_site_type_symbol
_atom_site_fract_x
_atom_site_fract_y
_atom_site_fract_z
_atom_type_partial_charge
H0 H 0.23218 0.10522 0.38761 0.0
H1 H 0.25767 0.14602 0.42932 0.0
H2 H 0.25787 0.08695 0.42785 0.0
H3 H 0.26282 0.17116 0.4111 0.0
C4 C 0.24796 0.16327 0.40391 0.0
C5 C 0.23964 0.10841 0.39951 0.0
C6 C 0.24488 0.09395 0.40663 0.0
C7 C 0.24446 0.12733 0.40748 0.0
C8 C 0.25421 0.13163 0.42293 0.0
C9 C 0.25942 0.11728 0.43027 0.0
C10 C 0.25459 0.09846 0.42204 0.0
N11 N 0.23866 0.14138 0.39987 0.0
H12 H 0.92088 0.12219 0.39009 0.0
H13 H 0.87448 0.10253 0.42876 0.0
H14 H 0.93367 0.16283 0.43171 0.0
H15 H 0.85122 0.09055 0.40591 0.0
C16 C 0.85846 0.0819 0.40041 0.0
C17 C 0.91611 0.1254 0.40174 0.0
C18 C 0.93011 0.14427 0.41025 0.0
C19 C 0.89573 0.11065 0.40812 0.0
C20 C 0.8897 0.1144 0.42344 0.0
C21 C 0.90335 0.1331 0.43213 0.0
C22 C 0.92344 0.14798 0.42537 0.0
N23 N 0.88155 0.09199 0.39912 0.0
H24 H 0.89679 0.80546 0.39318 0.0
H25 H 0.91812 0.78351 0.43399 0.0
H26 H 0.85393 0.77561 0.43363 0.0
H27 H 0.95083 0.81288 0.42682 0.0
C28 C 0.95051 0.80998 0.41389 0.0
C29 C 0.89369 0.7981 0.405 0.0
C30 C 0.8732 0.79065 0.4124 0.0
C31 C 0.9102 0.79597 0.41282 0.0
C32 C 0.90586 0.78586 0.42802 0.0
C33 C 0.88566 0.77865 0.43564 0.0
C34 C 0.86954 0.78121 0.42777 0.0
N35 N 0.93081 0.80352 0.40509 0.0
H36 H 0.09505 0.20057 0.63556 0.0
H37 H 0.13704 0.21595 0.59429 0.0
H38 H 0.08397 0.22887 0.59342 0.0
H39 H 0.13023 0.17903 0.60554 0.0
C40 C 0.13811 0.18781 0.61654 0.0
C41 C 0.09934 0.20678 0.62338 0.0
C42 C 0.08697 0.21433 0.61531 0.0
C43 C 0.11725 0.20715 0.61576 0.0
C44 C 0.12308 0.21549 0.60006 0.0
C45 C 0.11133 0.22361 0.59193 0.0
C46 C 0.0932 0.22277 0.59962 0.0
N47 N 0.12991 0.19996 0.62423 0.0
H48 H 0.80825 0.89282 0.63083 0.0
H49 H 0.78337 0.91126 0.59028 0.0
H50 H 0.771 0.84723 0.5935 0.0
H51 H 0.81164 0.94327 0.59529 0.0
C52 C 0.81237 0.94403 0.60842 0.0
C53 C 0.79943 0.88883 0.61944 0.0
C54 C 0.78953 0.86787 0.61337 0.0
C55 C 0.79793 0.90477 0.61097 0.0
C56 C 0.78581 0.8995 0.5965 0.0
C57 C 0.776 0.87877 0.59017 0.0
C58 C 0.77803 0.8631 0.59862 0.0
N59 N 0.808 0.92572 0.61756 0.0
H60 H 0.11136 0.91041 0.62969 0.0
H61 H 0.0969 0.86554 0.5909 0.0
H62 H 0.15804 0.92413 0.59171 0.0
H63 H 0.06223 0.85959 0.59608 0.0
C64 C 0.06208 0.85858 0.6092 0.0
C65 C 0.11617 0.90594 0.61857 0.0
C66 C 0.13656 0.91974 0.61159 0.0
C67 C 0.10149 0.88668 0.61094 0.0
C68 C 0.10768 0.88079 0.59649 0.0
C69 C 0.12812 0.89419 0.58949 0.0
C70 C 0.14232 0.91363 0.59711 0.0
N71 N 0.08081 0.8733 0.61818 0.0
H72 H 0.89529 0.43721 0.72245 0.0
H73 H 0.92145 0.47873 0.76374 0.0
H74 H 0.92046 0.41904 0.76308 0.0
H75 H 0.92796 0.50369 0.74487 0.0
C76 C 0.91321 0.49618 0.73755 0.0
C77 C 0.90267 0.44047 0.73438 0.0
C78 C 0.90762 0.42591 0.74171 0.0
C79 C 0.90789 0.45966 0.7421 0.0
C80 C 0.91765 0.4641 0.75755 0.0
C81 C 0.92254 0.44965 0.76512 0.0
C82 C 0.91734 0.43057 0.75712 0.0
N83 N 0.90282 0.47401 0.73413 0.0
H84 H 0.59284 0.44965 0.7291 0.0
H85 H 0.5463 0.43236 0.76767 0.0
H86 H 0.60358 0.49396 0.76778 0.0
H87 H 0.53929 0.39989 0.76202 0.0
C88 C 0.53992 0.39956 0.74889 0.0
C89 C 0.5877 0.45363 0.74028 0.0
C90 C 0.60066 0.47381 0.74748 0.0
C91 C 0.5684 0.43824 0.74773 0.0
C92 C 0.5617 0.4435 0.76221 0.0
C93 C 0.57444 0.46342 0.7696 0.0
C94 C 0.5938 0.4785 0.76213 0.0
N95 N 0.55579 0.4178 0.74036 0.0
H96 H 0.56391 0.13817 0.72562 0.0
H97 H 0.5852 0.11647 0.7666 0.0
H98 H 0.52094 0.10841 0.76605 0.0
H99 H 0.61787 0.14597 0.75946 0.0
C100 C 0.6176 0.14295 0.74655 0.0
C101 C 0.56078 0.13086 0.73747 0.0
C102 C 0.54026 0.1234 0.74482 0.0
C103 C 0.5773 0.12882 0.74536 0.0
C104 C 0.57293 0.11876 0.76058 0.0
C105 C 0.5527 0.11152 0.76814 0.0
C106 C 0.53658 0.11401 0.76022 0.0
N107 N 0.59793 0.13639 0.73768 0.0
H108 H 0.7599 0.53337 0.96745 0.0
H109 H 0.80353 0.55358 0.92682 0.0
H110 H 0.75017 0.56589 0.92748 0.0
H111 H 0.80304 0.52196 0.93394 0.0
C112 C 0.80678 0.52578 0.9467 0.0
C113 C 0.76466 0.5409 0.9557 0.0
C114 C 0.75264 0.54941 0.94839 0.0
C115 C 0.78288 0.54209 0.9479 0.0
C116 C 0.7893 0.55226 0.93278 0.0
C117 C 0.77762 0.56091 0.9253 0.0
C118 C 0.75928 0.5593 0.93318 0.0
N119 N 0.79499 0.53363 0.95558 0.0
H120 H 0.46963 0.22465 0.96594 0.0
H121 H 0.43822 0.24078 0.92864 0.0
H122 H 0.4388 0.18197 0.92565 0.0
H123 H 0.42866 0.25346 0.95133 0.0
C124 C 0.44478 0.26226 0.95678 0.0
C125 C 0.46048 0.22057 0.9547 0.0
C126 C 0.45544 0.20167 0.94639 0.0
C127 C 0.45352 0.23423 0.9487 0.0
C128 C 0.44244 0.22959 0.9338 0.0
C129 C 0.43732 0.2109 0.92527 0.0
C130 C 0.44361 0.1969 0.93179 0.0
N131 N 0.45812 0.25276 0.95767 0.0
H132 H 0.77994 0.24344 0.96485 0.0
H133 H 0.7669 0.19822 0.92659 0.0
H134 H 0.82454 0.25982 0.92498 0.0
H135 H 0.7532 0.17557 0.94884 0.0
C136 C 0.74342 0.18176 0.95412 0.0
C137 C 0.78464 0.23936 0.95351 0.0
C138 C 0.80396 0.25424 0.94572 0.0
C139 C 0.7714 0.21902 0.94685 0.0
C140 C 0.77722 0.21374 0.93196 0.0
C141 C 0.79641 0.2284 0.924 0.0
C142 C 0.80962 0.24853 0.93101 0.0
N143 N 0.75223 0.20417 0.95523 0.0
H144 H 0.55327 0.76667 0.0616 0.0
H145 H 0.58286 0.80987 0.10164 0.0
H146 H 0.58464 0.75153 0.09972 0.0
H147 H 0.5873 0.83395 0.08274 0.0
C148 C 0.57215 0.82617 0.07589 0.0
C149 C 0.56205 0.77067 0.07302 0.0
C150 C 0.56861 0.75698 0.07969 0.0
C151 C 0.56757 0.79 0.08062 0.0
C152 C 0.57894 0.79521 0.09546 0.0
C153 C 0.58535 0.7815 0.10241 0.0
C154 C 0.58015 0.76245 0.09437 0.0
N155 N 0.56146 0.80385 0.07308 0.0
H156 H 0.25397 0.78965 0.05657 0.0
H157 H 0.20842 0.76957 0.09592 0.0
H158 H 0.26838 0.82903 0.0992 0.0
H159 H 0.18468 0.75763 0.07353 0.0
C160 C 0.19181 0.74916 0.06758 0.0
C161 C 0.24955 0.79261 0.06844 0.0
C162 C 0.26387 0.81126 0.07707 0.0
C163 C 0.22932 0.77777 0.075 0.0
C164 C 0.22376 0.78119 0.0906 0.0
C165 C 0.23781 0.79961 0.09941 0.0
C166 C 0.2577 0.81463 0.0925 0.0
N167 N 0.21485 0.75935 0.06588 0.0
H168 H 0.23069 0.47463 0.06021 0.0
H169 H 0.25171 0.45409 0.10204 0.0
H170 H 0.18712 0.44521 0.10034 0.0
H171 H 0.28448 0.48289 0.09468 0.0
C172 C 0.28428 0.47988 0.08177 0.0
C173 C 0.22743 0.46752 0.07214 0.0
C174 C 0.20678 0.46003 0.07925 0.0
C175 C 0.24392 0.46577 0.08036 0.0
C176 C 0.23942 0.45606 0.09573 0.0
C177 C 0.21903 0.44878 0.10307 0.0
C178 C 0.2029 0.45088 0.09474 0.0
N179 N 0.26465 0.47328 0.07283 0.0
H180 H 0.42686 0.86472 0.30052 0.0
H181 H 0.47021 0.88455 0.25972 0.0
H182 H 0.41673 0.89668 0.26034 0.0
H183 H 0.47012 0.85326 0.26709 0.0
C184 C 0.47383 0.85716 0.27984 0.0
C185 C 0.43152 0.8721 0.28871 0.0
C186 C 0.4194 0.88047 0.28136 0.0
C187 C 0.44971 0.87326 0.28089 0.0
C188 C 0.456 0.88325 0.2657 0.0
C189 C 0.44422 0.89176 0.25817 0.0
C190 C 0.42592 0.89019 0.26608 0.0
N191 N 0.46194 0.86497 0.28864 0.0
H192 H 0.13496 0.55574 0.30001 0.0
H193 H 0.10489 0.57287 0.26225 0.0
H194 H 0.1075 0.51522 0.2581 0.0
H195 H 0.09456 0.5849 0.28485 0.0
C196 C 0.11047 0.59358 0.29064 0.0
C197 C 0.12652 0.55215 0.28848 0.0
C198 C 0.12215 0.53368 0.27981 0.0
C199 C 0.11981 0.56599 0.28245 0.0
C200 C 0.10956 0.56192 0.26723 0.0
C201 C 0.10519 0.54368 0.25839 0.0
C202 C 0.11127 0.52952 0.26482 0.0
N203 N 0.12379 0.5841 0.29174 0.0
H204 H 0.44736 0.57542 0.29887 0.0
H205 H 0.43416 0.53012 0.26065 0.0
H206 H 0.49208 0.59151 0.2591 0.0
H207 H 0.42047 0.50753 0.28299 0.0
C208 C 0.41071 0.51377 0.28823 0.0
C209 C 0.45206 0.57129 0.28755 0.0
C210 C 0.47146 0.58608 0.2798 0.0
C211 C 0.43875 0.55096 0.2809 0.0
C212 C 0.44454 0.54562 0.26603 0.0
C213 C 0.46379 0.5602 0.25809 0.0
C214 C 0.47711 0.58031 0.26511 0.0
N215 N 0.41955 0.53618 0.28927 0.0
Tb216 Tb 0.48753 0.99076 0.99374 0.0
C217 C 0.53742 0.06431 0.04253 0.0
C218 C 0.57515 0.07429 0.03874 0.0
C219 C 0.56596 0.10071 0.04792 0.0
C220 C 0.55275 0.05902 0.03798 0.0
C221 C 0.54379 0.085 0.04814 0.0
C222 C 0.58164 0.09536 0.04318 0.0
C223 C 0.50638 0.07221 0.05577 0.0
N224 N 0.51631 0.04855 0.04283 0.0
C225 C 0.5009 0.05195 0.05 0.0
C226 C 0.52785 0.08893 0.05451 0.0
Tb227 Tb 0.50858 0.01587 0.03306 0.0
N228 N 0.54572 0.03838 0.0342 0.0
C229 C 0.56053 0.03161 0.03245 0.0
C230 C 0.5903 0.0677 0.03573 0.0
C231 C 0.58294 0.04617 0.03289 0.0
H232 H 0.48422 0.03922 0.05091 0.0
H233 H 0.59452 0.04076 0.03097 0.0
H234 H 0.59875 0.10741 0.04361 0.0
H235 H 0.49401 0.07492 0.06108 0.0
H236 H 0.55527 0.01512 0.03012 0.0
H237 H 0.40258 0.96954 0.99489 0.0
H238 H 0.60766 0.07892 0.03611 0.0
H239 H 0.51085 0.96425 0.97945 0.0
H240 H 0.44216 0.99396 0.99604 0.0
H241 H 0.49967 0.92735 0.97141 0.0
H242 H 0.5712 0.11679 0.05196 0.0
H243 H 0.38795 0.93103 0.99024 0.0
H244 H 0.39528 0.90115 0.98409 0.0
H245 H 0.53206 0.10458 0.05901 0.0
H246 H 0.42178 0.88959 0.97768 0.0
N247 N 0.45029 0.96959 0.99244 0.0
C248 C 0.4362 0.97726 0.99391 0.0
C249 C 0.40543 0.9417 0.9907 0.0
C250 C 0.4199 0.93412 0.98825 0.0
C251 C 0.41363 0.96343 0.99328 0.0
C252 C 0.44248 0.94869 0.98907 0.0
H253 H 0.46079 0.89935 0.97264 0.0
N254 N 0.47871 0.9571 0.98566 0.0
C255 C 0.48757 0.93128 0.97546 0.0
C256 C 0.45726 0.94218 0.98558 0.0
C257 C 0.49384 0.95218 0.97999 0.0
C258 C 0.46562 0.9155 0.97622 0.0
C259 C 0.45008 0.92094 0.98104 0.0
O260 O 0.50361 0.99807 0.97125 0.0
O261 O 0.5142 0.01555 0.00739 0.0
O262 O 0.50461 0.0391 0.0188 0.0
O263 O 0.48091 0.01703 0.99835 0.0
O264 O 0.52187 0.00101 0.98942 0.0
O265 O 0.47539 0.00144 0.97487 0.0
O266 O 0.4931 0.00703 0.05579 0.0
O267 O 0.48196 0.99161 0.01919 0.0
O268 O 0.49067 0.96776 0.00887 0.0
O269 O 0.51686 0.99101 0.0273 0.0
O270 O 0.474 0.00499 0.03759 0.0
O271 O 0.52096 0.0037 0.05064 0.0
C272 C 0.53002 0.01589 1.00012 0.0
C273 C 0.48174 0.99331 0.94839 0.0
C274 C 0.4842 0.997 0.91894 0.0
C275 C 0.49092 0.00586 0.93453 0.0
C276 C 0.46805 0.97544 0.91745 0.0
C277 C 0.46549 0.97193 0.94661 0.0
C278 C 0.45871 0.96306 0.93122 0.0
C279 C 0.49115 0.03538 0.00642 0.0
C280 C 0.48981 0.00263 0.96452 0.0
C281 C 0.42764 0.90606 0.98096 0.0
C282 C 0.41256 0.91265 0.98458 0.0
C283 C 0.46594 0.99072 0.02644 0.0
C284 C 0.51614 0.01089 0.07772 0.0
C285 C 0.50808 0.99791 0.09152 0.0
C286 C 0.51677 0.00604 0.107 0.0
C287 C 0.53343 0.02745 0.10839 0.0
C288 C 0.53287 0.03209 0.07945 0.0
C289 C 0.54138 0.04032 0.09471 0.0
C290 C 0.5058 0.97217 0.02004 0.0
C291 C 0.50708 0.00212 0.06162 0.0
H292 H 0.50356 0.02239 0.93587 0.0
H293 H 0.46244 0.96824 0.90563 0.0
H294 H 0.45809 0.96207 0.95708 0.0
H295 H 0.44619 0.94652 0.92994 0.0
H296 H 0.49534 0.98144 0.09014 0.0
H297 H 0.5402 0.03435 0.12011 0.0
H298 H 0.53942 0.04226 0.06904 0.0
H299 H 0.55422 0.05674 0.09594 0.0
Tb300 Tb 0.02161 0.49627 0.99536 0.0
C301 C 0.94195 0.46977 0.03915 0.0
C302 C 0.93069 0.4955 0.03333 0.0
C303 C 0.90387 0.45985 0.04198 0.0
C304 C 0.94698 0.48972 0.03405 0.0
C305 C 0.92049 0.45476 0.0437 0.0
C306 C 0.90897 0.48023 0.03679 0.0
C307 C 0.93413 0.43218 0.05334 0.0
N308 N 0.95857 0.46575 0.04096 0.0
C309 C 0.95517 0.44768 0.04871 0.0
C310 C 0.91663 0.43555 0.05054 0.0
Tb311 Tb 0.99248 0.49168 0.03275 0.0
N312 N 0.96822 0.50403 0.03116 0.0
C313 C 0.97447 0.52501 0.02881 0.0
C314 C 0.93688 0.51663 0.02985 0.0
C315 C 0.95892 0.53153 0.02789 0.0
H316 H 0.96856 0.44486 0.05087 0.0
H317 H 0.96397 0.54804 0.02557 0.0
H318 H 0.89617 0.48425 0.03608 0.0
H319 H 0.93145 0.41763 0.05904 0.0
H320 H 0.99136 0.53681 0.02714 0.0
H321 H 0.04782 0.43801 1.00069 0.0
H322 H 0.92488 0.52173 0.02913 0.0
H323 H 0.04752 0.54543 0.98101 0.0
H324 H 0.02112 0.45024 0.99966 0.0
H325 H 0.08539 0.57281 0.97455 0.0
H326 H 0.88721 0.44846 0.04522 0.0
H327 H 0.08718 0.46383 0.99781 0.0
H328 H 0.11676 0.50147 0.99236 0.0
H329 H 0.90038 0.42359 0.05422 0.0
H330 H 0.12704 0.53829 0.98523 0.0
N331 N 0.04499 0.48297 0.99654 0.0
C332 C 0.03817 0.46178 0.99829 0.0
C333 C 0.0755 0.46934 0.99731 0.0
C334 C 0.0823 0.4908 0.99461 0.0
C335 C 0.0533 0.45472 0.99889 0.0
C336 C 0.06643 0.49713 0.99415 0.0
H337 H 0.11538 0.56498 0.97826 0.0
N338 N 0.05611 0.52258 0.98878 0.0
C339 C 0.08192 0.5574 0.979 0.0
C340 C 0.07221 0.51771 0.99012 0.0
C341 C 0.06049 0.54184 0.98262 0.0
C342 C 0.09882 0.55295 0.98116 0.0
C343 C 0.09402 0.53275 0.9865 0.0
O344 O 0.01679 0.50378 0.97168 0.0
O345 O 0.99432 0.49623 0.0069 0.0
O346 O 0.97106 0.46328 0.01859 0.0
O347 O 0.9955 0.463 0.99948 0.0
O348 O 0.00891 0.5174 0.9886 0.0
O349 O 0.01295 0.47301 0.97722 0.0
O350 O 0.99988 0.48658 0.05644 0.0
O351 O 0.01927 0.49102 0.02103 0.0
O352 O 0.04318 0.52288 0.011 0.0
O353 O 0.0174 0.52497 0.02718 0.0
O354 O 0.00522 0.47064 0.03976 0.0
O355 O 1.00163 0.51613 0.04996 0.0
C356 C 0.99297 0.51011 0.99863 0.0
C357 C 0.02518 0.48671 0.951 0.0
C358 C 0.02595 0.48531 0.92149 0.0
C359 C 0.01487 0.484 0.93596 0.0
C360 C 0.04761 0.48952 0.92235 0.0
C361 C 0.04665 0.49058 0.95158 0.0
C362 C 0.05782 0.49207 0.93732 0.0
C363 C 0.97639 0.45394 0.00706 0.0
C364 C 0.01328 0.48562 0.96586 0.0
C365 C 0.11013 0.52691 0.9878 0.0
C366 C 0.10428 0.50595 0.99185 0.0
C367 C 0.02062 0.47716 0.02931 0.0
C368 C 0.99128 0.50393 0.0767 0.0
C369 C 1.00201 0.50681 0.09156 0.0
C370 C 0.99135 0.50562 0.10621 0.0
C371 C 0.96968 0.50142 0.10571 0.0
C372 C 0.96979 0.50002 0.07646 0.0
C373 C 0.95904 0.49871 0.09091 0.0
C374 C 0.03736 0.5333 0.02113 0.0
C375 C 1.00272 0.50472 0.06167 0.0
H376 H 0.99811 0.48057 0.9356 0.0
H377 H 0.05675 0.49101 0.91146 0.0
H378 H 0.05479 0.49242 0.96297 0.0
H379 H 0.07445 0.49522 0.93787 0.0
H380 H 0.01878 0.51024 0.09163 0.0
H381 H 0.96086 0.50005 0.11676 0.0
H382 H 0.96131 0.49803 0.06518 0.0
H383 H 0.94239 0.49555 0.09063 0.0
Tb384 Tb 0.52888 0.51292 0.03117 0.0
C385 C 0.47742 0.53835 0.98499 0.0
C386 C 0.43981 0.51218 0.99011 0.0
C387 C 0.44915 0.54763 0.98113 0.0
C388 C 0.46211 0.51831 0.98994 0.0
C389 C 0.47113 0.55307 0.97998 0.0
C390 C 0.43348 0.52719 0.98622 0.0
C391 C 0.50811 0.57609 0.97108 0.0
N392 N 0.49832 0.54272 0.98379 0.0
C393 C 0.51346 0.56085 0.97617 0.0
C394 C 0.48694 0.57237 0.97328 0.0
Tb395 Tb 0.50602 0.51728 0.99282 0.0
N396 N 0.46895 0.50427 0.99325 0.0
C397 C 0.45393 0.4832 0.99544 0.0
C398 C 0.42453 0.49098 0.99351 0.0
C399 C 0.43161 0.47634 0.99587 0.0
H400 H 0.52991 0.56394 0.97448 0.0
H401 H 0.41991 0.45977 0.99811 0.0
H402 H 0.41647 0.52289 0.98651 0.0
H403 H 0.52033 0.5907 0.96549 0.0
H404 H 0.45896 0.47161 0.99741 0.0
H405 H 0.6144 0.57271 0.0279 0.0
H406 H 0.40725 0.48562 0.99383 0.0
H407 H 0.50492 0.46368 0.0454 0.0
H408 H 0.57502 0.55964 0.02786 0.0
H409 H 0.51538 0.43693 0.0526 0.0
H410 H 0.44399 0.55882 0.97754 0.0
H411 H 0.62811 0.5476 0.03166 0.0
H412 H 0.61989 0.51025 0.03746 0.0
H413 H 0.48279 0.58413 0.96925 0.0
H414 H 0.59288 0.47317 0.04422 0.0
N415 N 0.56604 0.52709 0.03125 0.0
C416 C 0.58057 0.54837 0.02962 0.0
C417 C 0.61071 0.54171 0.0317 0.0
C418 C 0.59585 0.52015 0.03429 0.0
C419 C 0.60303 0.55593 0.02962 0.0
C420 C 0.57338 0.51332 0.03413 0.0
H421 H 0.55385 0.44574 0.05019 0.0
N422 N 0.53704 0.4872 0.03851 0.0
C423 C 0.52762 0.4525 0.0484 0.0
C424 C 0.55831 0.49259 0.03789 0.0
C425 C 0.52176 0.46772 0.04436 0.0
C426 C 0.54933 0.45751 0.04698 0.0
C427 C 0.56508 0.4779 0.04194 0.0
O428 O 0.5148 0.50494 0.05435 0.0
O429 O 0.50183 0.51251 0.01866 0.0
O430 O 0.51256 0.54551 0.00671 0.0
O431 O 0.53644 0.54595 0.02674 0.0
O432 O 0.49448 0.49078 0.03665 0.0
O433 O 0.54243 0.53597 0.04964 0.0
O434 O 0.52003 0.52274 0.9696 0.0
O435 O 0.53314 0.51838 0.00557 0.0
O436 O 0.52456 0.48663 0.01574 0.0
O437 O 0.49722 0.48421 0.99861 0.0
O438 O 0.54053 0.53897 0.9869 0.0
O439 O 0.49151 0.49292 0.97536 0.0
C440 C 0.48612 0.49802 0.02643 0.0
C441 C 0.53887 0.52218 0.07606 0.0
C442 C 0.53915 0.5239 0.10562 0.0
C443 C 0.53034 0.52501 0.09058 0.0
C444 C 0.55656 0.51974 0.10584 0.0
C445 C 0.55636 0.51828 0.07658 0.0
C446 C 0.56509 0.517 0.0914 0.0
C447 C 0.52686 0.55488 0.01861 0.0
C448 C 0.52914 0.52316 0.06058 0.0
C449 C 0.58734 0.48427 0.04132 0.0
C450 C 0.60272 0.50538 0.03749 0.0
C451 C 0.54895 0.53254 0.99772 0.0
C452 C 0.49514 0.5051 0.94844 0.0
C453 C 0.50374 0.50211 0.93403 0.0
C454 C 0.49486 0.50283 0.91892 0.0
C455 C 0.47732 0.50679 0.91851 0.0
C456 C 0.47753 0.50883 0.94775 0.0
C457 C 0.46873 0.50973 0.93285 0.0
C458 C 0.50862 0.47612 0.00518 0.0
C459 C 0.5049 0.5045 0.96401 0.0
H460 H 0.51706 0.52839 0.09011 0.0
H461 H 0.56349 0.51841 0.11718 0.0
H462 H 0.5633 0.51626 0.06559 0.0
H463 H 0.57851 0.51386 0.09171 0.0
H464 H 0.51712 0.49889 0.93464 0.0
H465 H 0.47033 0.50779 0.9071 0.0
H466 H 0.47054 0.51098 0.95868 0.0
H467 H 0.45522 0.51273 0.9324 0.0
Tb468 Tb 0.15485 0.32318 0.32767 0.0
C469 C 0.20471 0.3972 0.37594 0.0
C470 C 0.24232 0.40648 0.37273 0.0
C471 C 0.23358 0.43356 0.38095 0.0
C472 C 0.21985 0.39145 0.3719 0.0
C473 C 0.21132 0.41813 0.38107 0.0
C474 C 0.24909 0.42774 0.37674 0.0
C475 C 0.17387 0.40615 0.38806 0.0
N476 N 0.1835 0.3817 0.37618 0.0
C477 C 0.16818 0.38562 0.38288 0.0
C478 C 0.19548 0.4226 0.38686 0.0
Tb479 Tb 0.17531 0.34862 0.36702 0.0
N480 N 0.21254 0.37067 0.36844 0.0
C481 C 0.22711 0.36355 0.36709 0.0
C482 C 0.25725 0.39948 0.37017 0.0
C483 C 0.24959 0.37784 0.36766 0.0
H484 H 0.1514 0.37307 0.38376 0.0
H485 H 0.26098 0.37215 0.36606 0.0
H486 H 0.26626 0.4396 0.37723 0.0
H487 H 0.16156 0.40929 0.39294 0.0
H488 H 0.22166 0.34697 0.365 0.0
H489 H 0.06991 0.30206 0.32784 0.0
H490 H 0.27465 0.41051 0.37063 0.0
H491 H 0.17834 0.29656 0.31396 0.0
H492 H 0.10946 0.32644 0.3293 0.0
H493 H 0.16724 0.25964 0.30605 0.0
H494 H 0.23902 0.44981 0.38464 0.0
H495 H 0.0553 0.26352 0.32335 0.0
H496 H 0.06268 0.23359 0.31755 0.0
H497 H 0.19986 0.43846 0.39095 0.0
H498 H 0.08924 0.22198 0.31159 0.0
N499 N 0.11762 0.30204 0.32603 0.0
C500 C 0.10353 0.30974 0.32724 0.0
C501 C 0.07277 0.27418 0.32394 0.0
C502 C 0.08726 0.26657 0.32175 0.0
C503 C 0.08097 0.29592 0.32644 0.0
C504 C 0.10984 0.28112 0.32274 0.0
H505 H 0.12833 0.23168 0.30697 0.0
N506 N 0.14609 0.28948 0.31975 0.0
C507 C 0.15509 0.2636 0.3099 0.0
C508 C 0.12464 0.27458 0.31952 0.0
C509 C 0.16131 0.28452 0.31435 0.0
C510 C 0.13312 0.24785 0.31048 0.0
C511 C 0.11752 0.25332 0.31506 0.0
O512 O 0.1709 0.32989 0.30519 0.0
O513 O 0.18132 0.34802 0.34145 0.0
O514 O 0.1713 0.37158 0.35248 0.0
O515 O 0.14809 0.34942 0.33184 0.0
O516 O 0.18926 0.33337 0.32375 0.0
O517 O 0.14351 0.3346 0.30878 0.0
O518 O 0.15957 0.34055 0.38967 0.0
O519 O 0.1489 0.32429 0.35304 0.0
O520 O 0.15767 0.30022 0.34312 0.0
O521 O 0.18342 0.32356 0.36175 0.0
O522 O 0.14066 0.33781 0.37119 0.0
O523 O 0.1869 0.33617 0.38498 0.0
C524 C 0.19724 0.34829 0.33442 0.0
C525 C 0.14939 0.32624 0.28228 0.0
C526 C 0.14975 0.33115 0.25294 0.0
C527 C 0.15732 0.33943 0.26859 0.0
C528 C 0.13421 0.30937 0.2513 0.0
C529 C 0.13378 0.30469 0.28032 0.0
C530 C 0.12629 0.29631 0.2649 0.0
C531 C 0.15796 0.36769 0.34001 0.0
C532 C 0.1577 0.33523 0.29846 0.0
C533 C 0.09508 0.23846 0.3148 0.0
C534 C 0.07996 0.24508 0.31818 0.0
C535 C 0.13277 0.32345 0.36009 0.0
C536 C 0.18198 0.3438 0.41189 0.0
C537 C 0.17426 0.33056 0.42557 0.0
C538 C 0.1829 0.33856 0.44108 0.0
C539 C 0.19918 0.36009 0.44263 0.0
C540 C 0.19831 0.36513 0.41376 0.0
C541 C 0.20679 0.37322 0.42906 0.0
C542 C 0.17242 0.30464 0.35462 0.0
C543 C 0.17302 0.33511 0.39576 0.0
H544 H 0.16915 0.35617 0.27019 0.0
H545 H 0.12831 0.30232 0.23947 0.0
H546 H 0.1274 0.29433 0.29066 0.0
H547 H 0.11433 0.27961 0.26347 0.0
H548 H 0.16183 0.31399 0.42407 0.0
H549 H 0.20591 0.36687 0.45438 0.0
H550 H 0.20456 0.37551 0.40343 0.0
H551 H 0.21933 0.38975 0.43041 0.0
Tb552 Tb 0.68849 0.82803 0.33021 0.0
C553 C 0.60847 0.80215 0.37354 0.0
C554 C 0.59741 0.82794 0.36738 0.0
C555 C 0.57042 0.79244 0.37618 0.0
C556 C 0.61362 0.82208 0.36828 0.0
C557 C 0.58695 0.78726 0.37806 0.0
C558 C 0.57565 0.81279 0.37083 0.0
C559 C 0.60036 0.76458 0.38794 0.0
N560 N 0.625 0.79803 0.37549 0.0
C561 C 0.62145 0.77997 0.38333 0.0
C562 C 0.58295 0.76806 0.38502 0.0
Tb563 Tb 0.65901 0.8238 0.36735 0.0
N564 N 0.63489 0.83628 0.3654 0.0
C565 C 0.64125 0.85725 0.36289 0.0
C566 C 0.60371 0.84906 0.36373 0.0
C567 C 0.62579 0.86386 0.36179 0.0
H568 H 0.63477 0.77707 0.38558 0.0
H569 H 0.63092 0.88037 0.35934 0.0
H570 H 0.56291 0.81689 0.36999 0.0
H571 H 0.59755 0.75005 0.39373 0.0
H572 H 0.65817 0.86898 0.36124 0.0
H573 H 0.71475 0.7699 0.33619 0.0
H574 H 0.59178 0.85423 0.36287 0.0
H575 H 0.71443 0.87713 0.31571 0.0
H576 H 0.68803 0.78209 0.33495 0.0
H577 H 0.75232 0.90447 0.30928 0.0
H578 H 0.55372 0.78113 0.37939 0.0
H579 H 0.75411 0.79571 0.3333 0.0
H580 H 0.78368 0.83331 0.32773 0.0
H581 H 0.56665 0.75619 0.38868 0.0
H582 H 0.79397 0.87007 0.3204 0.0
N583 N 0.7119 0.8148 0.33171 0.0
C584 C 0.70509 0.79363 0.33359 0.0
C585 C 0.74243 0.80121 0.33271 0.0
C586 C 0.74922 0.82264 0.3299 0.0
C587 C 0.72023 0.78659 0.3343 0.0
C588 C 0.73334 0.82895 0.32933 0.0
H589 H 0.78231 0.89669 0.31319 0.0
N590 N 0.72301 0.85434 0.3237 0.0
C591 C 0.74884 0.8891 0.31381 0.0
C592 C 0.73911 0.84949 0.32516 0.0
C593 C 0.7274 0.87355 0.31742 0.0
C594 C 0.76574 0.88467 0.31609 0.0
C595 C 0.76093 0.86452 0.32154 0.0
O596 O 0.68376 0.83529 0.30643 0.0
O597 O 0.66109 0.82811 0.34147 0.0
O598 O 0.6377 0.7953 0.35323 0.0
O599 O 0.66234 0.79481 0.33442 0.0
O600 O 0.67585 0.84911 0.32311 0.0
O601 O 0.68017 0.80467 0.3122 0.0
O602 O 0.66585 0.81874 0.39123 0.0
O603 O 0.68585 0.82296 0.3559 0.0
O604 O 0.70997 0.85471 0.34582 0.0
O605 O 0.68408 0.85702 0.36171 0.0
O606 O 0.6717 0.80284 0.37475 0.0
O607 O 0.66833 0.8485 0.38434 0.0
C608 C 0.65982 0.84191 0.33306 0.0
C609 C 0.69269 0.81834 0.28601 0.0
C610 C 0.69422 0.81781 0.2565 0.0
C611 C 0.68285 0.81626 0.27087 0.0
C612 C 0.71572 0.82161 0.25758 0.0
C613 C 0.71399 0.82177 0.28681 0.0
C614 C 0.72546 0.82349 0.27266 0.0
C615 C 0.64313 0.78585 0.34186 0.0
C616 C 0.68052 0.81717 0.30073 0.0
C617 C 0.77705 0.8587 0.32296 0.0
C618 C 0.7712 0.83777 0.32713 0.0
C619 C 0.68715 0.80921 0.36436 0.0
C620 C 0.65732 0.83667 0.41108 0.0
C621 C 0.66742 0.83872 0.4261 0.0
C622 C 0.65674 0.83828 0.44056 0.0
C623 C 0.63565 0.83559 0.43974 0.0
C624 C 0.63636 0.83416 0.41049 0.0
C625 C 0.62557 0.83355 0.42477 0.0
C626 C 0.7041 0.86526 0.35578 0.0
C627 C 0.66892 0.83706 0.39624 0.0
H628 H 0.6662 0.81313 0.27034 0.0
H629 H 0.7251 0.82329 0.24679 0.0
H630 H 0.72177 0.82307 0.29829 0.0
H631 H 0.74197 0.8263 0.27339 0.0
H632 H 0.68378 0.84103 0.42647 0.0
H633 H 0.6269 0.83493 0.45066 0.0
H634 H 0.62836 0.83279 0.39908 0.0
H635 H 0.60936 0.83153 0.42423 0.0
Tb636 Tb 0.19628 0.84511 0.3643 0.0
C637 C 0.1455 0.87134 0.31843 0.0
C638 C 0.10748 0.84519 0.32215 0.0
C639 C 0.11778 0.88136 0.31448 0.0
C640 C 0.1297 0.85101 0.32247 0.0
C641 C 0.13978 0.8867 0.31406 0.0
C642 C 0.10164 0.86062 0.31853 0.0
C643 C 0.17769 0.91077 0.30794 0.0
N644 N 0.16648 0.87574 0.31806 0.0
C645 C 0.1825 0.89492 0.3123 0.0
C646 C 0.15627 0.90674 0.309 0.0
Tb647 Tb 0.17296 0.84908 0.32605 0.0
N648 N 0.13607 0.83659 0.32575 0.0
C649 C 0.12076 0.81557 0.32762 0.0
C650 C 0.09183 0.82393 0.32501 0.0
C651 C 0.0985 0.809 0.3275 0.0
H652 H 0.19914 0.89829 0.31153 0.0
H653 H 0.08652 0.79243 0.32943 0.0
H654 H 0.08468 0.85653 0.31842 0.0
H655 H 0.19051 0.92609 0.30377 0.0
H656 H 0.12553 0.80379 0.32969 0.0
H657 H 0.28244 0.90271 0.36041 0.0
H658 H 0.0746 0.8188 0.32495 0.0
H659 H 0.17102 0.79617 0.37924 0.0
H660 H 0.24333 0.89082 0.36041 0.0
H661 H 0.18029 0.76878 0.38697 0.0
H662 H 0.11304 0.89299 0.31131 0.0
H663 H 0.29497 0.87677 0.36473 0.0
H664 H 0.28553 0.83922 0.37123 0.0
H665 H 0.15257 0.91901 0.30556 0.0
H666 H 0.25766 0.80266 0.37854 0.0
N667 N 0.23328 0.85812 0.36437 0.0
C668 C 0.24834 0.87921 0.36242 0.0
C669 C 0.27768 0.87141 0.36479 0.0
C670 C 0.2623 0.85009 0.36771 0.0
C671 C 0.27067 0.88609 0.36239 0.0
C672 C 0.24 0.84395 0.36755 0.0
H673 H 0.21835 0.77631 0.38472 0.0
N674 N 0.20341 0.81887 0.37223 0.0
C675 C 0.19288 0.7841 0.38261 0.0
C676 C 0.22447 0.82354 0.37166 0.0
C677 C 0.1877 0.79971 0.37826 0.0
C678 C 0.21436 0.78838 0.38128 0.0
C679 C 0.23056 0.80844 0.37601 0.0
O680 O 0.18243 0.83874 0.38756 0.0
O681 O 0.16898 0.84404 0.35177 0.0
O682 O 0.17743 0.87547 0.34133 0.0
O683 O 0.20496 0.87825 0.35852 0.0
O684 O 0.16188 0.82346 0.37046 0.0
O685 O 0.21056 0.86908 0.38209 0.0
O686 O 0.18652 0.85526 0.3027 0.0
O687 O 0.20016 0.85006 0.3386 0.0
O688 O 0.19123 0.81829 0.34918 0.0
O689 O 0.16394 0.81597 0.33192 0.0
O690 O 0.20745 0.87049 0.31985 0.0
O691 O 0.15864 0.82484 0.30848 0.0
C692 C 0.15333 0.82993 0.35978 0.0
C693 C 0.20696 0.85636 0.4089 0.0
C694 C 0.20685 0.85809 0.43846 0.0
C695 C 0.1983 0.85929 0.42332 0.0
C696 C 0.22419 0.85382 0.43886 0.0
C697 C 0.22436 0.85234 0.4096 0.0
C698 C 0.23288 0.85104 0.42451 0.0
C699 C 0.19352 0.88621 0.35175 0.0
C700 C 0.19723 0.85705 0.39333 0.0
C701 C 0.25264 0.81408 0.37541 0.0
C702 C 0.2685 0.83489 0.37125 0.0
C703 C 0.21591 0.86398 0.33057 0.0
C704 C 0.16183 0.83698 0.28155 0.0
C705 C 0.17003 0.83323 0.26723 0.0
C706 C 0.16116 0.83377 0.25207 0.0
C707 C 0.14393 0.83818 0.25153 0.0
C708 C 0.14457 0.8412 0.28073 0.0
C709 C 0.1357 0.84182 0.26579 0.0
C710 C 0.17516 0.80777 0.33868 0.0
C711 C 0.1718 0.83677 0.29713 0.0
H712 H 0.18507 0.86272 0.42269 0.0
H713 H 0.23091 0.85238 0.45026 0.0
H714 H 0.23134 0.85018 0.39868 0.0
H715 H 0.24622 0.84778 0.42496 0.0
H716 H 0.18318 0.82968 0.26796 0.0
H717 H 0.13696 0.83909 0.24009 0.0
H718 H 0.13796 0.84403 0.29158 0.0
H719 H 0.12245 0.84521 0.26524 0.0
Tb720 Tb 0.82 0.65662 0.66064 0.0
C721 C 0.8682 0.73122 0.70805 0.0
C722 C 0.90634 0.74202 0.70555 0.0
C723 C 0.89579 0.76821 0.71257 0.0
C724 C 0.88413 0.72624 0.70464 0.0
C725 C 0.87376 0.75215 0.71238 0.0
C726 C 0.91208 0.76314 0.70915 0.0
C727 C 0.83556 0.73933 0.71725 0.0
N728 N 0.84718 0.7152 0.70784 0.0
C729 C 0.8309 0.71879 0.71297 0.0
C730 C 0.85706 0.75615 0.71678 0.0
Tb731 Tb 0.84097 0.68229 0.69979 0.0
N732 N 0.87785 0.70562 0.70135 0.0
C733 C 0.89317 0.69945 0.70008 0.0
C734 C 0.92206 0.73596 0.70329 0.0
C735 C 0.91543 0.71452 0.70081 0.0
H736 H 0.81421 0.70596 0.71325 0.0
H737 H 0.92744 0.70957 0.69934 0.0
H738 H 0.92904 0.77555 0.70972 0.0
H739 H 0.82255 0.74217 0.7209 0.0
H740 H 0.88844 0.68303 0.69799 0.0
H741 H 0.73375 0.63027 0.66234 0.0
H742 H 0.9393 0.74759 0.70383 0.0
H743 H 0.84583 0.63278 0.64574 0.0
H744 H 0.77286 0.65646 0.66336 0.0
H745 H 0.83687 0.59664 0.63733 0.0
H746 H 0.90043 0.78445 0.71571 0.0
H747 H 0.72134 0.59222 0.65739 0.0
H748 H 0.73101 0.56404 0.65073 0.0
H749 H 0.86063 0.77202 0.72016 0.0
H750 H 0.75916 0.55484 0.64384 0.0
N751 N 0.78301 0.63362 0.65941 0.0
C752 C 0.7679 0.64002 0.6611 0.0
C753 C 0.73863 0.6037 0.6578 0.0
C754 C 0.75411 0.59743 0.65509 0.0
C755 C 0.74558 0.62516 0.66055 0.0
C756 C 0.7764 0.613 0.65586 0.0
H757 H 0.79872 0.56699 0.63851 0.0
N758 N 0.81316 0.62369 0.65209 0.0
C759 C 0.82411 0.59954 0.64152 0.0
C760 C 0.79209 0.60783 0.65205 0.0
C761 C 0.82911 0.62004 0.64627 0.0
C762 C 0.80257 0.58284 0.64225 0.0
C763 C 0.78616 0.58694 0.6473 0.0
O764 O 0.83578 0.66527 0.63807 0.0
O765 O 0.84646 0.68158 0.67426 0.0
O766 O 0.83766 0.70477 0.68427 0.0
O767 O 0.81109 0.6812 0.66622 0.0
O768 O 0.85466 0.66831 0.65581 0.0
O769 O 0.80683 0.66713 0.64237 0.0
O770 O 0.82608 0.67504 0.72272 0.0
O771 O 0.81468 0.65719 0.6862 0.0
O772 O 0.82465 0.63434 0.67558 0.0
O773 O 0.85019 0.65799 0.6943 0.0
O774 O 0.80619 0.67014 0.70461 0.0
O775 O 0.85362 0.67095 0.7178 0.0
C776 C 0.86254 0.68272 0.66687 0.0
C777 C 0.8132 0.65992 0.61559 0.0
C778 C 0.81575 0.66364 0.58615 0.0
C779 C 0.82243 0.67248 0.60174 0.0
C780 C 0.79956 0.64209 0.58464 0.0
C781 C 0.79694 0.63854 0.6138 0.0
C782 C 0.79018 0.6297 0.59839 0.0
C783 C 0.82227 0.70017 0.6733 0.0
C784 C 0.82131 0.66917 0.63174 0.0
C785 C 0.76406 0.57106 0.64728 0.0
C786 C 0.74804 0.5763 0.65119 0.0
C787 C 0.79846 0.65565 0.69362 0.0
C788 C 0.84922 0.67928 0.74469 0.0
C789 C 0.84153 0.66652 0.75862 0.0
C790 C 0.85024 0.67502 0.77401 0.0
C791 C 0.86662 0.69656 0.77519 0.0
C792 C 0.86559 0.70065 0.74619 0.0
C793 C 0.8742 0.70923 0.76137 0.0
C794 C 0.83987 0.63922 0.6868 0.0
C795 C 0.83996 0.67007 0.72874 0.0
H796 H 0.83512 0.68899 0.6031 0.0
H797 H 0.79398 0.63491 0.5728 0.0
H798 H 0.78954 0.62866 0.62426 0.0
H799 H 0.77764 0.61317 0.5971 0.0
H800 H 0.82902 0.64993 0.75741 0.0
H801 H 0.87342 0.70373 0.78683 0.0
H802 H 0.87173 0.7107 0.73568 0.0
H803 H 0.88678 0.72578 0.76243 0.0
Tb804 Tb 0.3553 0.16029 0.66131 0.0
C805 C 0.27639 0.1361 0.70473 0.0
C806 C 0.26648 0.16283 0.69903 0.0
C807 C 0.23861 0.12737 0.70722 0.0
C808 C 0.28219 0.15631 0.69974 0.0
C809 C 0.25469 0.12156 0.70908 0.0
C810 C 0.24451 0.14802 0.70221 0.0
C811 C 0.26709 0.09811 0.71902 0.0
N812 N 0.29252 0.13143 0.70678 0.0
C813 C 0.2884 0.11319 0.71463 0.0
C814 C 0.25007 0.10212 0.71593 0.0
Tb815 Tb 0.32689 0.15667 0.69888 0.0
N816 N 0.30364 0.17018 0.69718 0.0
C817 C 0.31066 0.19138 0.69517 0.0
C818 C 0.27348 0.18425 0.69598 0.0
C819 C 0.29571 0.19865 0.69436 0.0
H820 H 0.30144 0.10991 0.71699 0.0
H821 H 0.30137 0.21537 0.69238 0.0
H822 H 0.23214 0.15263 0.70147 0.0
H823 H 0.26382 0.0834 0.72477 0.0
H824 H 0.32773 0.20281 0.69377 0.0
H825 H 0.38098 0.10176 0.66766 0.0
H826 H 0.26196 0.18994 0.69544 0.0
H827 H 0.38097 0.20853 0.64532 0.0
H828 H 0.35449 0.11425 0.66646 0.0
H829 H 0.41855 0.23513 0.63754 0.0
H830 H 0.22178 0.11635 0.71029 0.0
H831 H 0.42032 0.12721 0.66414 0.0
H832 H 0.44993 0.16445 0.65761 0.0
H833 H 0.23361 0.09051 0.71946 0.0
H834 H 0.46022 0.20089 0.64927 0.0
N835 N 0.3785 0.1468 0.66269 0.0
C836 C 0.37155 0.12564 0.66482 0.0
C837 C 0.40875 0.13284 0.66359 0.0
C838 C 0.41564 0.15421 0.66039 0.0
C839 C 0.38655 0.11842 0.66553 0.0
C840 C 0.3999 0.1607 0.6599 0.0
H841 H 0.44851 0.22726 0.64134 0.0
N842 N 0.38963 0.18601 0.65383 0.0
C843 C 0.41518 0.22002 0.64259 0.0
C844 C 0.40568 0.18107 0.65523 0.0
C845 C 0.39389 0.20489 0.64698 0.0
C846 C 0.43206 0.21555 0.6448 0.0
C847 C 0.42736 0.19572 0.65093 0.0
O848 O 0.34967 0.16696 0.63757 0.0
O849 O 0.32856 0.16109 0.67305 0.0
O850 O 0.30498 0.12833 0.68481 0.0
O851 O 0.32903 0.12723 0.66579 0.0
O852 O 0.34315 0.18189 0.65459 0.0
O853 O 0.34605 0.13643 0.6436 0.0
O854 O 0.3334 0.1508 0.72262 0.0
O855 O 0.35333 0.15547 0.68706 0.0
O856 O 0.37757 0.18732 0.67633 0.0
O857 O 0.35279 0.18972 0.69358 0.0
O858 O 0.33904 0.13515 0.70583 0.0
O859 O 0.33657 0.181 0.71626 0.0
C860 C 0.32749 0.17515 0.66484 0.0
C861 C 0.35796 0.14942 0.61719 0.0
C862 C 0.359 0.14834 0.58768 0.0
C863 C 0.34795 0.14733 0.60211 0.0
C864 C 0.38037 0.15174 0.58864 0.0
C865 C 0.37908 0.15236 0.61785 0.0
C866 C 0.39025 0.15364 0.60365 0.0
C867 C 0.30997 0.11859 0.6734 0.0
C868 C 0.34616 0.14868 0.63203 0.0
C869 C 0.4434 0.18979 0.65233 0.0
C870 C 0.43754 0.16905 0.65707 0.0
C871 C 0.35445 0.14151 0.69539 0.0
C872 C 0.32529 0.16861 0.74284 0.0
C873 C 0.33577 0.17153 0.75781 0.0
C874 C 0.32492 0.17061 0.77233 0.0
C875 C 0.30333 0.16661 0.77155 0.0
C876 C 0.3039 0.16497 0.74233 0.0
C877 C 0.29296 0.16389 0.75663 0.0
C878 C 0.37247 0.19778 0.687 0.0
C879 C 0.33687 0.16914 0.72795 0.0
H880 H 0.33142 0.14455 0.60167 0.0
H881 H 0.38952 0.15304 0.5778 0.0
H882 H 0.38693 0.15357 0.62927 0.0
H883 H 0.40663 0.15609 0.60428 0.0
H884 H 0.35247 0.1748 0.75809 0.0
H885 H 0.29435 0.1654 0.78247 0.0
H886 H 0.29564 0.163 0.73096 0.0
H887 H 0.27639 0.16091 0.75614 0.0
Tb888 Tb 0.86389 0.17941 0.69814 0.0
C889 C 0.81138 0.20296 0.65228 0.0
C890 C 0.77378 0.17566 0.65603 0.0
C891 C 0.78253 0.21147 0.64851 0.0
C892 C 0.79622 0.18236 0.65628 0.0
C893 C 0.80476 0.21769 0.64797 0.0
C894 C 0.76705 0.19047 0.65254 0.0
C895 C 0.84231 0.24282 0.64154 0.0
N896 N 0.83262 0.2082 0.65175 0.0
C897 C 0.84801 0.22757 0.64583 0.0
C898 C 0.82062 0.23796 0.64281 0.0
Tb899 Tb 0.84056 0.18249 0.65964 0.0
N900 N 0.80344 0.16856 0.6594 0.0
C901 C 0.78881 0.14732 0.66118 0.0
C902 C 0.75881 0.15417 0.6588 0.0
C903 C 0.76637 0.13989 0.66113 0.0
H904 H 0.86484 0.23154 0.64491 0.0
H905 H 0.75492 0.12315 0.66298 0.0
H906 H 0.7499 0.1857 0.6525 0.0
H907 H 0.85463 0.25832 0.63727 0.0
H908 H 0.79427 0.13603 0.66311 0.0
H909 H 0.94971 0.23793 0.69367 0.0
H910 H 0.74143 0.14838 0.65879 0.0
H911 H 0.83952 0.13128 0.71446 0.0
H912 H 0.91046 0.22542 0.69365 0.0
H913 H 0.84953 0.10488 0.72349 0.0
H914 H 0.7771 0.2226 0.64541 0.0
H915 H 0.9629 0.21265 0.69873 0.0
H916 H 0.95417 0.17559 0.70625 0.0
H917 H 0.81623 0.24976 0.63942 0.0
H918 H 0.92682 0.13926 0.71453 0.0
N919 N 0.90099 0.19298 0.69822 0.0
C920 C 0.91576 0.21409 0.69595 0.0
C921 C 0.94555 0.207 0.69874 0.0
C922 C 0.93047 0.18572 0.70209 0.0
C923 C 0.93817 0.22132 0.69593 0.0
C924 C 0.90807 0.1792 0.70184 0.0
H925 H 0.88776 0.11288 0.72138 0.0
N926 N 0.87168 0.15394 0.70694 0.0
C927 C 0.86187 0.11999 0.71863 0.0
C928 C 0.89283 0.15892 0.70644 0.0
C929 C 0.85627 0.13504 0.71352 0.0
C930 C 0.88345 0.12453 0.71738 0.0
C931 C 0.89933 0.14434 0.71146 0.0
O932 O 0.84983 0.17347 0.72134 0.0
O933 O 0.83638 0.1775 0.68533 0.0
O934 O 0.84432 0.20878 0.67477 0.0
O935 O 0.87198 0.21228 0.69211 0.0
O936 O 0.82956 0.15708 0.70406 0.0
O937 O 0.87778 0.2038 0.71562 0.0
O938 O 0.85425 0.18948 0.63632 0.0
O939 O 0.86794 0.18414 0.67239 0.0
O940 O 0.85952 0.15242 0.68354 0.0
O941 O 0.83296 0.14966 0.66523 0.0
O942 O 0.87495 0.20462 0.65368 0.0
O943 O 0.82705 0.15851 0.64183 0.0
C944 C 0.82081 0.16313 0.69324 0.0
C945 C 0.87432 0.19167 0.74259 0.0
C946 C 0.8742 0.19378 0.77212 0.0
C947 C 0.86537 0.19436 0.75694 0.0
C948 C 0.89205 0.19028 0.77263 0.0
C949 C 0.89225 0.18846 0.7434 0.0
C950 C 0.901 0.18769 0.75836 0.0
C951 C 0.86021 0.21981 0.68526 0.0
C952 C 0.8645 0.19193 0.72694 0.0
C953 C 0.92149 0.1503 0.71091 0.0
C954 C 0.93706 0.17097 0.70619 0.0
C955 C 0.88358 0.19829 0.6644 0.0
C956 C 0.82979 0.17104 0.61506 0.0
C957 C 0.83787 0.16746 0.6006 0.0
C958 C 0.82868 0.16794 0.58556 0.0
C959 C 0.81132 0.17219 0.5853 0.0
C960 C 0.81234 0.175 0.61449 0.0
C961 C 0.80321 0.17562 0.59968 0.0
C962 C 0.84432 0.14188 0.67241 0.0
C963 C 0.83999 0.17091 0.63056 0.0
H964 H 0.85173 0.19719 0.75624 0.0
H965 H 0.899 0.18935 0.78408 0.0
H966 H 0.89951 0.18656 0.73254 0.0
H967 H 0.91475 0.18506 0.75889 0.0
H968 H 0.85114 0.16407 0.60113 0.0
H969 H 0.80414 0.17312 0.57396 0.0
H970 H 0.80577 0.17762 0.62543 0.0
H971 H 0.78985 0.17885 0.59934 0.0
C972 C 0.28664 0.83339 0.05362 0.0
C973 C 0.28506 0.82756 0.07001 0.0
C974 C 0.30612 0.8501 0.04747 0.0
C975 C 0.35433 0.89911 0.06102 0.0
H976 H 0.38024 0.89713 0.02019 0.0
C977 C 0.44164 0.95101 0.02744 0.0
C978 C 0.44437 0.97154 0.02863 0.0
C979 C 0.42148 0.93308 0.03085 0.0
C980 C 0.37314 0.89786 0.03161 0.0
H981 H 0.30322 0.83389 0.0925 0.0
H982 H 0.33693 0.86317 0.08186 0.0
H983 H 0.3466 0.86572 0.02939 0.0
H984 H 0.42858 0.98954 0.03493 0.0
H985 H 0.39334 0.95821 0.0411 0.0
H986 H 0.38075 0.93109 0.06334 0.0
C987 C 0.32301 0.85504 0.07383 0.0
C988 C 0.35388 0.87998 0.03682 0.0
C989 C 0.30366 0.83828 0.07992 0.0
C990 C 0.42674 0.97384 0.03365 0.0
C991 C 0.40665 0.95595 0.03722 0.0
C992 C 0.37337 0.917 0.05574 0.0
C993 C 0.32435 0.86139 0.05762 0.0
C994 C 0.34442 0.88037 0.05167 0.0
C995 C 0.40385 0.93539 0.03597 0.0
C996 C 0.38308 0.91654 0.04105 0.0
H997 H 0.27259 0.8256 0.04567 0.0
H998 H 0.30667 0.85471 0.03494 0.0
H999 H 0.34728 0.89998 0.07242 0.0
H1000 H 0.45513 0.94876 0.0242 0.0
H1001 H 0.41991 0.91746 0.03005 0.0
C1002 C 0.16767 0.44402 0.07071 0.0
C1003 C 0.18896 0.4616 0.07086 0.0
C1004 C 0.15021 0.44592 0.06478 0.0
C1005 C 0.13516 0.48022 0.04078 0.0
H1006 H 0.08232 0.45149 0.06628 0.0
C1007 C 0.0614 0.49411 0.03223 0.0
C1008 C 0.04053 0.47594 0.03266 0.0
C1009 C 0.07994 0.49269 0.03611 0.0
C1010 C 0.09683 0.45942 0.05889 0.0
H1011 H 0.20871 0.49477 0.06422 0.0
H1012 H 0.1781 0.49821 0.05393 0.0
H1013 H 0.11379 0.44837 0.07381 0.0
H1014 H 0.02253 0.44241 0.03846 0.0
H1015 H 0.05476 0.4398 0.04515 0.0
H1016 H 0.11801 0.49143 0.02595 0.0
C1017 C 0.17495 0.48286 0.05831 0.0
C1018 C 0.11494 0.45761 0.0632 0.0
C1019 C 0.19251 0.48091 0.0642 0.0
C1020 C 0.03848 0.45656 0.03773 0.0
C1021 C 0.05694 0.45512 0.04164 0.0
C1022 C 0.11697 0.48208 0.03648 0.0
C1023 C 0.15347 0.4655 0.0589 0.0
C1024 C 0.13434 0.46783 0.05416 0.0
C1025 C 0.07794 0.47316 0.04087 0.0
C1026 C 0.09752 0.47159 0.04544 0.0
H1027 H 0.16444 0.42882 0.07549 0.0
H1028 H 0.13405 0.43202 0.06502 0.0
H1029 H 0.14973 0.48819 0.03346 0.0
H1030 H 0.06344 0.50945 0.02901 0.0
H1031 H 0.09579 0.50698 0.03568 0.0
C1032 C 0.5806 0.73228 0.06896 0.0
C1033 C 0.56387 0.73707 0.07131 0.0
C1034 C 0.57611 0.71303 0.06185 0.0
C1035 C 0.53257 0.65832 0.05686 0.0
H1036 H 0.57006 0.65545 0.02396 0.0
C1037 C 0.53235 0.58078 0.04046 0.0
C1038 C 0.5316 0.57616 0.02388 0.0
C1039 C 0.53574 0.60059 0.04558 0.0
C1040 C 0.5594 0.65604 0.03308 0.0
H1041 H 0.52944 0.72576 0.06793 0.0
H1042 H 0.52146 0.69178 0.0556 0.0
H1043 H 0.57664 0.69015 0.0335 0.0
H1044 H 0.53497 0.58887 0.99975 0.0
H1045 H 0.54083 0.6235 0.00861 0.0
H1046 H 0.51553 0.62421 0.05662 0.0
C1047 C 0.53804 0.703 0.05925 0.0
C1048 C 0.56322 0.67585 0.03859 0.0
C1049 C 0.54261 0.72243 0.06618 0.0
C1050 C 0.53485 0.59182 0.01253 0.0
C1051 C 0.5385 0.61172 0.01763 0.0
C1052 C 0.5289 0.63851 0.0515 0.0
C1053 C 0.55475 0.6981 0.05712 0.0
C1054 C 0.54991 0.67716 0.05059 0.0
C1055 C 0.53878 0.61622 0.0342 0.0
C1056 C 0.54236 0.6372 0.03962 0.0
H1057 H 0.59716 0.7434 0.07272 0.0
H1058 H 0.58924 0.70958 0.06047 0.0
H1059 H 0.52219 0.65891 0.06622 0.0
H1060 H 0.52986 0.56892 0.04945 0.0
H1061 H 0.53615 0.60376 0.05843 0.0
C1062 C 0.82388 0.27751 0.96969 0.0
C1063 C 0.81894 0.27545 0.95305 0.0
C1064 C 0.84006 0.29697 0.97611 0.0
C1065 C 0.89019 0.34463 0.96392 0.0
H1066 H 0.88393 0.37005 0.00339 0.0
C1067 C 0.95592 0.42867 0.98465 0.0
C1068 C 0.95941 0.4328 0.00131 0.0
C1069 C 0.93868 0.40932 0.97906 0.0
C1070 C 0.88611 0.36302 0.99249 0.0
H1071 H 0.82605 0.29268 0.93036 0.0
H1072 H 0.85449 0.32638 0.94151 0.0
H1073 H 0.85332 0.33673 0.9934 0.0
H1074 H 0.94858 0.41951 0.02513 0.0
H1075 H 0.91878 0.38559 0.01553 0.0
H1076 H 0.92302 0.37043 0.9631 0.0
C1077 C 0.84608 0.31287 0.94952 0.0
C1078 C 0.86851 0.34398 0.98674 0.0
C1079 C 0.82981 0.29355 0.94315 0.0
C1080 C 0.94583 0.41699 0.01227 0.0
C1081 C 0.92875 0.39753 0.00671 0.0
C1082 C 0.90786 0.36349 0.96975 0.0
C1083 C 0.8517 0.31467 0.96599 0.0
C1084 C 0.87033 0.3347 0.97233 0.0
C1085 C 0.92475 0.39351 0.99001 0.0
C1086 C 0.90604 0.37306 0.98405 0.0
H1087 H 0.81596 0.26388 0.97764 0.0
H1088 H 0.84411 0.29792 0.98885 0.0
H1089 H 0.89218 0.33763 0.95292 0.0
H1090 H 0.96606 0.44071 0.97594 0.0
H1091 H 0.93599 0.40702 0.96612 0.0
C1092 C 0.72984 0.56567 0.95629 0.0
C1093 C 0.73304 0.54802 0.95635 0.0
C1094 C 0.71057 0.56401 0.96225 0.0
C1095 C 0.66101 0.53033 0.98694 0.0
H1096 H 0.63705 0.55893 0.96169 0.0
C1097 C 0.57299 0.51612 0.99578 0.0
C1098 C 0.5704 0.5341 0.99501 0.0
C1099 C 0.59312 0.51776 0.99213 0.0
C1100 C 0.64361 0.55105 0.96903 0.0
H1101 H 0.71865 0.5149 0.96326 0.0
H1102 H 0.68483 0.51189 0.97358 0.0
H1103 H 0.67149 0.56188 0.95378 0.0
H1104 H 0.58642 0.56758 0.98907 0.0
H1105 H 0.62156 0.57058 0.98279 0.0
H1106 H 0.63279 0.51934 0.00208 0.0
C1107 C 0.69736 0.52713 0.96904 0.0
C1108 C 0.66344 0.55276 0.96449 0.0
C1109 C 0.71676 0.52884 0.96312 0.0
C1110 C 0.5881 0.55357 0.99004 0.0
C1111 C 0.60818 0.55522 0.98635 0.0
C1112 C 0.64106 0.52858 0.99147 0.0
C1113 C 0.69382 0.5446 0.96838 0.0
C1114 C 0.67253 0.54254 0.97341 0.0
C1115 C 0.61096 0.53732 0.98727 0.0
C1116 C 0.63215 0.539 0.98259 0.0
H1117 H 0.74221 0.58081 0.95147 0.0
H1118 H 0.70875 0.57798 0.96192 0.0
H1119 H 0.66756 0.52239 0.99419 0.0
H1120 H 0.55944 0.50072 0.99896 0.0
H1121 H 0.59454 0.50357 0.99271 0.0
C1122 C 0.46804 0.17513 0.94258 0.0
C1123 C 0.46185 0.18652 0.95305 0.0
C1124 C 0.47224 0.15957 0.9486 0.0
C1125 C 0.48849 0.14152 0.98413 0.0
H1126 H 0.4548 0.08519 0.96518 0.0
C1127 C 0.48974 0.06884 0.0112 0.0
C1128 C 0.48791 0.05288 1.00063 0.0
C1129 C 0.48684 0.08542 0.00558 0.0
C1130 C 0.46467 0.10087 0.97044 0.0
H1131 H 0.45596 0.19084 0.9782 0.0
H1132 H 0.46415 0.16412 0.98872 0.0
H1133 H 0.45045 0.1143 0.95491 0.0
H1134 H 0.48228 0.04212 0.97566 0.0
H1135 H 0.47813 0.07137 0.96566 0.0
H1136 H 0.50332 0.12845 0.99931 0.0
C1137 C 0.4655 0.16724 0.97583 0.0
C1138 C 0.46204 0.1175 0.96459 0.0
C1139 C 0.46092 0.18259 0.96979 0.0
C1140 C 0.48341 0.05397 0.98421 0.0
C1141 C 0.48094 0.07076 0.97849 0.0
C1142 C 0.49145 0.12498 0.98979 0.0
C1143 C 0.47077 0.15534 0.96524 0.0
C1144 C 0.47388 0.13793 0.97141 0.0
C1145 C 0.48249 0.08666 0.98911 0.0
C1146 C 0.47952 0.10439 0.98305 0.0
H1147 H 0.46946 0.17809 0.92967 0.0
H1148 H 0.47659 0.15077 0.94023 0.0
H1149 H 0.4979 0.15722 0.98948 0.0
H1150 H 0.49304 0.06841 0.02386 0.0
H1151 H 0.48774 0.09708 0.01423 0.0
C1152 C 0.70738 0.17299 0.96666 0.0
C1153 C 0.72153 0.16642 0.96038 0.0
C1154 C 0.68639 0.15787 0.97182 0.0
C1155 C 0.64502 0.10114 0.96589 0.0
H1156 H 0.6188 0.10764 0.00509 0.0
C1157 C 0.56882 0.03099 0.99284 0.0
C1158 C 0.55192 0.03447 0.9978 0.0
C1159 C 0.58928 0.04811 0.98906 0.0
C1160 C 0.62586 0.10575 0.99402 0.0
H1161 H 0.72514 0.13913 0.95494 0.0
H1162 H 0.68885 0.11286 0.96409 0.0
H1163 H 0.65519 0.1359 0.997 0.0
H1164 H 0.54283 0.05847 0.00222 0.0
H1165 H 0.57893 0.08866 0.99577 0.0
H1166 H 0.61598 0.07101 0.96294 0.0
C1167 C 0.69365 0.12957 0.96479 0.0
C1168 C 0.64666 0.12191 0.98938 0.0
C1169 C 0.71451 0.14461 0.95964 0.0
C1170 C 0.55578 0.05542 0.99884 0.0
C1171 C 0.57639 0.07266 0.99511 0.0
C1172 C 0.62438 0.08505 0.97053 0.0
C1173 C 0.6792 0.13596 0.97074 0.0
C1174 C 0.65662 0.11961 0.97538 0.0
C1175 C 0.59325 0.06912 0.98994 0.0
C1176 C 0.61469 0.08699 0.98476 0.0
H1177 H 0.71237 0.18973 0.96737 0.0
H1178 H 0.67562 0.16332 0.97627 0.0
H1179 H 0.65192 0.09906 0.95481 0.0
H1180 H 0.56613 0.01495 0.99179 0.0
H1181 H 0.60199 0.04487 0.9853 0.0
C1182 C 0.83403 0.51376 0.9445 0.0
C1183 C 0.82407 0.52252 0.95406 0.0
C1184 C 0.85099 0.51123 0.95068 0.0
C1185 C 0.89389 0.53161 0.9822 0.0
H1186 H 0.89858 0.4824 0.96983 0.0
C1187 C 0.95218 0.49205 0.99559 0.0
C1188 C 0.97275 0.51056 0.99482 0.0
C1189 C 0.93326 0.49272 0.99167 0.0
C1190 C 0.89746 0.49616 0.97355 0.0
H1191 H 0.82401 0.5354 0.97774 0.0
H1192 H 0.85372 0.53089 0.98866 0.0
H1193 H 0.86656 0.48448 0.96179 0.0
H1194 H 0.98983 0.54389 0.98833 0.0
H1195 H 0.95687 0.54515 0.98144 0.0
H1196 H 0.92479 0.54322 0.99404 0.0
C1197 C 0.84845 0.52609 0.97628 0.0
C1198 C 0.87917 0.49747 0.96878 0.0
C1199 C 0.83134 0.52856 0.97007 0.0
C1200 C 0.97411 0.52952 0.98938 0.0
C1201 C 0.95522 0.53024 0.98555 0.0
C1202 C 0.91223 0.53032 0.98694 0.0
C1203 C 0.85854 0.51743 0.96663 0.0
C1204 C 0.87725 0.51534 0.97284 0.0
C1205 C 0.9345 0.51189 0.98674 0.0
C1206 C 0.9144 0.51271 0.98249 0.0
H1207 H 0.82885 0.50908 0.93208 0.0
H1208 H 0.85854 0.50485 0.94277 0.0
H1209 H 0.89308 0.54567 0.98547 0.0
H1210 H 0.95069 0.47706 0.99926 0.0
H1211 H 0.91762 0.47828 0.99276 0.0
C1212 C 0.47283 0.29619 0.97023 0.0
C1213 C 0.45239 0.28407 0.96272 0.0
C1214 C 0.4799 0.31713 0.97518 0.0
C1215 C 0.47117 0.36205 0.96666 0.0
H1216 H 0.49743 0.38308 0.00884 0.0
C1217 C 0.48359 0.441 0.99221 0.0
C1218 C 0.50302 0.45425 1.00063 0.0
C1219 C 0.47832 0.4204 0.98774 0.0
C1220 C 0.49039 0.37753 0.99694 0.0
H1221 H 0.42322 0.28399 0.95471 0.0
H1222 H 0.43549 0.32047 0.96335 0.0
H1223 H 0.48667 0.34665 1.0008 0.0
H1224 H 0.53238 0.45637 0.01073 0.0
H1225 H 0.52319 0.42038 0.00287 0.0
H1226 H 0.47487 0.39281 0.96271 0.0
C1227 C 0.44615 0.31396 0.96528 0.0
C1228 C 0.48422 0.35668 0.99236 0.0
C1229 C 0.43907 0.29307 0.96043 0.0
C1230 C 0.51711 0.44645 0.00447 0.0
C1231 C 0.51185 0.42582 0.99998 0.0
C1232 C 0.4774 0.38287 0.9712 0.0
C1233 C 0.4667 0.32627 0.97259 0.0
C1234 C 0.47429 0.34866 0.97725 0.0
C1235 C 0.49242 0.4126 0.9915 0.0
C1236 C 0.48682 0.39077 0.98647 0.0
H1237 H 0.48344 0.28963 0.97215 0.0
H1238 H 0.49586 0.3263 0.98071 0.0
H1239 H 0.46395 0.35644 0.95481 0.0
H1240 H 0.47232 0.44645 0.98911 0.0
H1241 H 0.46305 0.4105 0.98147 0.0
C1242 C 0.18496 0.71492 0.05439 0.0
C1243 C 0.17707 0.72714 0.06189 0.0
C1244 C 0.17054 0.69382 0.04974 0.0
C1245 C 0.11553 0.64889 0.0587 0.0
H1246 H 0.12074 0.62665 0.01726 0.0
C1247 C 0.04763 0.56859 0.03375 0.0
C1248 C 0.05386 0.55534 0.02576 0.0
C1249 C 0.06321 0.58939 0.0381 0.0
C1250 C 0.11922 0.63254 0.02896 0.0
H1251 H 0.14809 0.72713 0.07022 0.0
H1252 H 0.12295 0.6905 0.06204 0.0
H1253 H 0.14718 0.66327 0.02487 0.0
H1254 H 0.0815 0.55345 0.01648 0.0
H1255 H 0.10862 0.58971 0.02405 0.0
H1256 H 0.08763 0.61827 0.06284 0.0
C1257 C 0.14022 0.697 0.05991 0.0
C1258 C 0.13437 0.65352 0.03331 0.0
C1259 C 0.15459 0.71802 0.06449 0.0
C1260 C 0.07606 0.56334 0.02234 0.0
C1261 C 0.09164 0.58415 0.02668 0.0
C1262 C 0.10043 0.62795 0.05437 0.0
C1263 C 0.14801 0.68457 0.0526 0.0
C1264 C 0.13256 0.66201 0.04817 0.0
C1265 C 0.08541 0.59743 0.03464 0.0
C1266 C 0.10195 0.61956 0.03939 0.0
H1267 H 0.20224 0.72154 0.05226 0.0
H1268 H 0.17706 0.68462 0.04423 0.0
H1269 H 0.11392 0.6548 0.07037 0.0
H1270 H 0.03068 0.56299 0.03656 0.0
H1271 H 0.05779 0.59928 0.04402 0.0
C1272 C 0.30641 0.47982 0.05765 0.0
C1273 C 0.30469 0.4828 0.07429 0.0
C1274 C 0.32585 0.48202 0.05127 0.0
C1275 C 0.37444 0.47913 0.06391 0.0
H1276 H 0.40046 0.50886 0.02392 0.0
C1277 C 0.46192 0.51427 0.02868 0.0
C1278 C 0.46482 0.49648 0.02974 0.0
C1279 C 0.4419 0.51257 0.03287 0.0
C1280 C 0.39341 0.50058 0.03514 0.0
H1281 H 0.32198 0.4908 0.09718 0.0
H1282 H 0.35562 0.4946 0.08617 0.0
H1283 H 0.36637 0.50619 0.03352 0.0
H1284 H 0.44945 0.46329 0.03651 0.0
H1285 H 0.41461 0.46027 0.04383 0.0
H1286 H 0.40138 0.47366 0.06571 0.0
C1287 C 0.34204 0.49037 0.07801 0.0
C1288 C 0.37379 0.49888 0.04056 0.0
C1289 C 0.32279 0.4883 0.08432 0.0
C1290 C 0.44754 0.47717 0.03539 0.0
C1291 C 0.42763 0.47548 0.03964 0.0
C1292 C 0.39386 0.48068 0.05846 0.0
C1293 C 0.34381 0.48705 0.06144 0.0
C1294 C 0.36417 0.48828 0.05511 0.0
C1295 C 0.42456 0.49317 0.03854 0.0
C1296 C 0.40367 0.49148 0.04405 0.0
H1297 H 0.29274 0.47558 0.0496 0.0
H1298 H 0.32663 0.47926 0.03846 0.0
H1299 H 0.36739 0.47065 0.07506 0.0
H1300 H 0.47517 0.52952 0.02481 0.0
H1301 H 0.44018 0.52658 0.03209 0.0
C1302 C 0.57607 0.86163 0.07083 0.0
C1303 C 0.56414 0.83952 0.06853 0.0
C1304 C 0.56897 0.87468 0.06397 0.0
C1305 C 0.52031 0.87454 0.04827 0.0
H1306 H 0.56318 0.92864 0.02992 0.0
C1307 C 0.49803 0.93436 0.01942 0.0
C1308 C 0.51146 0.9557 0.0242 0.0
C1309 C 0.5037 0.91897 0.02335 0.0
C1310 C 0.55103 0.91362 0.03506 0.0
H1311 H 0.5353 0.81356 0.05734 0.0
H1312 H 0.52288 0.83646 0.04526 0.0
H1313 H 0.57451 0.90386 0.03947 0.0
H1314 H 0.54118 0.97748 0.03709 0.0
H1315 H 0.55089 0.95076 0.04397 0.0
H1316 H 0.49689 0.88455 0.04404 0.0
C1317 C 0.53769 0.84368 0.05245 0.0
C1318 C 0.55752 0.89945 0.04054 0.0
C1319 C 0.54485 0.8306 0.0593 0.0
C1320 C 0.53051 0.96126 0.0331 0.0
C1321 C 0.53619 0.94595 0.03696 0.0
C1322 C 0.5138 0.88875 0.04275 0.0
C1323 C 0.54974 0.86588 0.05467 0.0
C1324 C 0.54233 0.87995 0.04752 0.0
C1325 C 0.52293 0.92468 0.03208 0.0
C1326 C 0.5292 0.90862 0.03641 0.0
H1327 H 0.59093 0.86886 0.07797 0.0
H1328 H 0.57841 0.89168 0.06615 0.0
H1329 H 0.50826 0.85969 0.05369 0.0
H1330 H 0.48307 0.9295 0.01275 0.0
H1331 H 0.49317 0.90268 0.01943 0.0
C1332 C 0.95333 0.16596 0.38681 0.0
C1333 C 0.95139 0.16055 0.40332 0.0
C1334 C 0.97289 0.18265 0.38073 0.0
C1335 C 0.02063 0.2322 0.39424 0.0
H1336 H 0.0473 0.22962 0.35396 0.0
C1337 C 0.10843 0.28375 0.36116 0.0
C1338 C 0.11115 0.30429 0.36216 0.0
C1339 C 0.08822 0.26585 0.36453 0.0
C1340 C 0.03999 0.23052 0.36523 0.0
H1341 H 0.96899 0.16764 0.42611 0.0
H1342 H 1.00283 0.19685 0.41558 0.0
H1343 H 0.01363 0.19828 0.36318 0.0
H1344 H 0.09527 0.32234 0.36804 0.0
H1345 H 0.05995 0.29107 0.37412 0.0
H1346 H 0.04691 0.26427 0.39642 0.0
C1347 C 0.98914 0.18841 0.4074 0.0
C1348 C 0.0207 0.21267 0.37044 0.0
C1349 C 0.96972 0.17169 0.41343 0.0
C1350 C 0.09345 0.30663 0.36692 0.0
C1351 C 0.07331 0.28877 0.37044 0.0
C1352 C 0.03971 0.25005 0.38896 0.0
C1353 C 0.99083 0.19434 0.39105 0.0
C1354 C 0.01096 0.21328 0.3851 0.0
C1355 C 0.07053 0.26819 0.36941 0.0
C1356 C 0.0497 0.24938 0.37447 0.0
H1357 H 0.93951 0.15785 0.3787 0.0
H1358 H 0.97369 0.18693 0.36809 0.0
H1359 H 0.01336 0.23325 0.40548 0.0
H1360 H 0.12195 0.28147 0.35812 0.0
H1361 H 0.08668 0.25022 0.36389 0.0
C1362 C 0.85892 0.81193 0.39793 0.0
C1363 C 0.85531 0.7925 0.4044 0.0
C1364 C 0.84135 0.81409 0.39235 0.0
C1365 C 0.78147 0.78923 0.39782 0.0
H1366 H 0.78421 0.8232 0.36077 0.0
C1367 C 0.70489 0.78857 0.37296 0.0
C1368 C 0.70701 0.80795 0.36784 0.0
C1369 C 0.72334 0.78708 0.37685 0.0
C1370 C 0.78327 0.81382 0.37125 0.0
H1371 H 0.83067 0.75976 0.40902 0.0
H1372 H 0.80027 0.76335 0.3991 0.0
H1373 H 0.81589 0.81972 0.36788 0.0
H1374 H 0.72998 0.84143 0.36414 0.0
H1375 H 0.76228 0.83887 0.37076 0.0
H1376 H 0.74896 0.7833 0.40125 0.0
C1377 C 0.81649 0.77716 0.39877 0.0
C1378 C 0.80144 0.81182 0.37533 0.0
C1379 C 0.83395 0.77505 0.40439 0.0
C1380 C 0.7279 0.82609 0.36739 0.0
C1381 C 0.7464 0.82462 0.37125 0.0
C1382 C 0.76337 0.79118 0.39374 0.0
C1383 C 0.81982 0.79684 0.39307 0.0
C1384 C 0.80073 0.79936 0.38862 0.0
C1385 C 0.74436 0.80506 0.376 0.0
C1386 C 0.76395 0.8034 0.38037 0.0
H1387 H 0.87518 0.82569 0.39784 0.0
H1388 H 0.84456 0.82951 0.3881 0.0
H1389 H 0.78042 0.77994 0.40838 0.0
H1390 H 0.68892 0.77445 0.37373 0.0
H1391 H 0.72112 0.77174 0.38037 0.0
C1392 C 0.25532 0.06687 0.39872 0.0
C1393 C 0.24016 0.074 0.39817 0.0
C1394 C 0.25039 0.04738 0.39182 0.0
C1395 C 0.2034 0.99575 0.38021 0.0
H1396 H 0.24768 0.98718 0.35968 0.0
C1397 C 0.18436 0.91534 0.35207 0.0
C1398 C 0.19897 0.90816 0.35588 0.0
C1399 C 0.1894 0.93606 0.35592 0.0
C1400 C 0.23519 0.98934 0.36547 0.0
H1401 H 0.20818 0.06657 0.38949 0.0
H1402 H 0.19975 0.0327 0.37706 0.0
H1403 H 0.25648 0.02293 0.36802 0.0
H1404 H 0.23032 0.9171 0.36678 0.0
H1405 H 0.23906 0.9533 0.3736 0.0
H1406 H 0.18217 0.96213 0.3777 0.0
C1407 C 0.21531 0.04204 0.3831 0.0
C1408 C 0.24021 0.00979 0.37025 0.0
C1409 C 0.22023 0.06155 0.39006 0.0
C1410 C 0.21873 0.92214 0.36366 0.0
C1411 C 0.22382 0.94292 0.36745 0.0
C1412 C 0.19836 0.97533 0.37535 0.0
C1413 C 0.23022 0.0346 0.38411 0.0
C1414 C 0.22445 0.01319 0.37786 0.0
C1415 C 0.20917 0.95005 0.36366 0.0
C1416 C 0.21428 0.97188 0.3681 0.0
H1417 H 0.27096 0.07626 0.40467 0.0
H1418 H 0.26216 0.04207 0.39297 0.0
H1419 H 0.19099 0.99774 0.38628 0.0
H1420 H 0.16889 0.90491 0.34623 0.0
H1421 H 0.17786 0.94116 0.35276 0.0
C1422 C 0.49117 0.60936 0.30383 0.0
C1423 C 0.4865 0.60728 0.28714 0.0
C1424 C 0.50728 0.62881 0.31032 0.0
C1425 C 0.55769 0.67638 0.29852 0.0
H1426 H 0.55054 0.70203 0.33752 0.0
C1427 C 0.62309 0.76045 0.31941 0.0
C1428 C 0.62617 0.7647 0.33608 0.0
C1429 C 0.60594 0.74109 0.31374 0.0
C1430 C 0.55297 0.69494 0.32676 0.0
H1431 H 0.49406 0.62448 0.26442 0.0
H1432 H 0.5224 0.65815 0.27568 0.0
H1433 H 0.52015 0.66867 0.32738 0.0
H1434 H 0.61468 0.75162 0.35986 0.0
H1435 H 0.58505 0.71768 0.35014 0.0
H1436 H 0.59056 0.70213 0.298 0.0
C1437 C 0.51382 0.64466 0.28369 0.0
C1438 C 0.53549 0.67587 0.32092 0.0
C1439 C 0.49761 0.62535 0.27725 0.0
C1440 C 0.61226 0.74901 0.34698 0.0
C1441 C 0.59527 0.72953 0.34135 0.0
C1442 C 0.57524 0.69525 0.30445 0.0
C1443 C 0.51913 0.64648 0.30022 0.0
C1444 C 0.53763 0.66652 0.30666 0.0
C1445 C 0.59169 0.72538 0.32464 0.0
C1446 C 0.5731 0.70491 0.31858 0.0
H1447 H 0.48308 0.59574 0.31178 0.0
H1448 H 0.51109 0.62977 0.32311 0.0
H1449 H 0.55992 0.66931 0.28764 0.0
H1450 H 0.63349 0.77239 0.31073 0.0
H1451 H 0.60357 0.7387 0.30079 0.0
C1452 C 0.39658 0.89674 0.28915 0.0
C1453 C 0.39983 0.87912 0.28933 0.0
C1454 C 0.37731 0.89508 0.2951 0.0
C1455 C 0.32793 0.86168 0.32001 0.0
H1456 H 0.30366 0.88966 0.29437 0.0
C1457 C 0.23993 0.84753 0.32892 0.0
C1458 C 0.23731 0.86548 0.32787 0.0
C1459 C 0.26003 0.8491 0.32528 0.0
C1460 C 0.3103 0.88196 0.30181 0.0
H1461 H 0.38558 0.8461 0.29648 0.0
H1462 H 0.35176 0.84312 0.30681 0.0
H1463 H 0.33809 0.89258 0.2865 0.0
H1464 H 0.25327 0.89884 0.32153 0.0
H1465 H 0.28837 0.90171 0.31528 0.0
H1466 H 0.29981 0.8509 0.33523 0.0
C1467 C 0.36425 0.85831 0.30217 0.0
C1468 C 0.33013 0.88365 0.2973 0.0
C1469 C 0.38364 0.86001 0.29624 0.0
C1470 C 0.25497 0.88485 0.32269 0.0
C1471 C 0.27502 0.88643 0.31902 0.0
C1472 C 0.30799 0.85995 0.32452 0.0
C1473 C 0.36063 0.87573 0.30137 0.0
C1474 C 0.33934 0.87365 0.30636 0.0
C1475 C 0.27781 0.86856 0.32018 0.0
C1476 C 0.29897 0.87016 0.31551 0.0
H1477 H 0.40889 0.91183 0.28422 0.0
H1478 H 0.37543 0.90901 0.29466 0.0
H1479 H 0.33457 0.85391 0.32737 0.0
H1480 H 0.22641 0.83222 0.33232 0.0
H1481 H 0.26147 0.83494 0.32607 0.0
C1482 C 0.13604 0.50814 0.27618 0.0
C1483 C 0.12835 0.51841 0.28648 0.0
C1484 C 0.1403 0.4926 0.28217 0.0
C1485 C 0.15248 0.47245 0.31898 0.0
H1486 H 0.12637 0.41871 0.29572 0.0
C1487 C 0.15184 0.39834 0.34499 0.0
C1488 C 0.15463 0.38501 0.33414 0.0
C1489 C 0.14903 0.41493 0.33927 0.0
C1490 C 0.13408 0.4337 0.30224 0.0
H1491 H 0.11964 0.52071 0.31128 0.0
H1492 H 0.12762 0.49387 0.3218 0.0
H1493 H 0.12177 0.44773 0.28555 0.0
H1494 H 0.15682 0.3785 0.30883 0.0
H1495 H 0.15248 0.40774 0.29877 0.0
H1496 H 0.16515 0.45864 0.33553 0.0
C1497 C 0.13028 0.4979 0.30907 0.0
C1498 C 0.13138 0.45029 0.29642 0.0
C1499 C 0.12579 0.51331 0.30304 0.0
C1500 C 0.15449 0.38846 0.31745 0.0
C1501 C 0.15194 0.40519 0.31171 0.0
C1502 C 0.15542 0.45593 0.32472 0.0
C1503 C 0.13723 0.48717 0.29863 0.0
C1504 C 0.14051 0.4698 0.30475 0.0
C1505 C 0.14915 0.41864 0.32255 0.0
C1506 C 0.1462 0.43632 0.31643 0.0
H1507 H 0.13867 0.51202 0.26343 0.0
H1508 H 0.14598 0.48479 0.27392 0.0
H1509 H 0.15984 0.48742 0.32554 0.0
H1510 H 0.15123 0.39563 0.35784 0.0
H1511 H 0.14642 0.42463 0.34797 0.0
C1512 C 0.37467 0.50508 0.30072 0.0
C1513 C 0.38884 0.49847 0.29456 0.0
C1514 C 0.35369 0.48999 0.30594 0.0
C1515 C 0.31243 0.43312 0.3004 0.0
H1516 H 0.28608 0.44015 0.33932 0.0
C1517 C 0.23617 0.36332 0.32756 0.0
C1518 C 0.2192 0.36684 0.33224 0.0
C1519 C 0.25667 0.38039 0.32382 0.0
C1520 C 0.29318 0.43811 0.32834 0.0
H1521 H 0.39252 0.47115 0.28939 0.0
H1522 H 0.35628 0.44496 0.29866 0.0
H1523 H 0.32247 0.46834 0.33115 0.0
H1524 H 0.21002 0.39087 0.33619 0.0
H1525 H 0.2462 0.421 0.32982 0.0
H1526 H 0.28344 0.40292 0.29762 0.0
C1527 C 0.36104 0.46166 0.29921 0.0
C1528 C 0.31398 0.45423 0.32365 0.0
C1529 C 0.38187 0.47666 0.294 0.0
C1530 C 0.22304 0.3878 0.33305 0.0
C1531 C 0.24369 0.405 0.32936 0.0
C1532 C 0.29181 0.41708 0.3051 0.0
C1533 C 0.34655 0.46807 0.30504 0.0
C1534 C 0.32398 0.45175 0.30974 0.0
C1535 C 0.26061 0.40141 0.32446 0.0
C1536 C 0.28207 0.41922 0.31923 0.0
H1537 H 0.37961 0.52182 0.30128 0.0
H1538 H 0.3429 0.49546 0.31029 0.0
H1539 H 0.31936 0.4309 0.28939 0.0
H1540 H 0.23349 0.34727 0.32669 0.0
H1541 H 0.26944 0.37713 0.32027 0.0
C1542 C 0.49834 0.86016 0.30331 0.0
C1543 C 0.49113 0.854 0.28729 0.0
C1544 C 0.51546 0.85777 0.30961 0.0
C1545 C 0.54623 0.82913 0.30247 0.0
H1546 H 0.59176 0.87507 0.32765 0.0
C1547 C 0.64106 0.86127 0.32343 0.0
C1548 C 0.63964 0.84235 0.32905 0.0
C1549 C 0.6222 0.86198 0.31945 0.0
C1550 C 0.57923 0.86213 0.32057 0.0
H1551 H 0.49602 0.84045 0.26542 0.0
H1552 H 0.52572 0.83636 0.27628 0.0
H1553 H 0.56008 0.87747 0.31888 0.0
H1554 H 0.61751 0.80891 0.33366 0.0
H1555 H 0.58451 0.81012 0.32689 0.0
H1556 H 0.56563 0.81407 0.30375 0.0
C1557 C 0.51812 0.84276 0.28411 0.0
C1558 C 0.56091 0.86338 0.31571 0.0
C1559 C 0.50116 0.84523 0.27783 0.0
C1560 C 0.61906 0.82387 0.32984 0.0
C1561 C 0.60017 0.82453 0.32578 0.0
C1562 C 0.5645 0.82786 0.30736 0.0
C1563 C 0.52561 0.84908 0.30006 0.0
C1564 C 0.54431 0.84704 0.30638 0.0
C1565 C 0.60147 0.84366 0.32066 0.0
C1566 C 0.58141 0.84447 0.31628 0.0
H1567 H 0.49097 0.86702 0.3109 0.0
H1568 H 0.52068 0.86265 0.32198 0.0
H1569 H 0.53365 0.8161 0.2955 0.0
H1570 H 0.6568 0.87562 0.32237 0.0
H1571 H 0.6239 0.87686 0.31521 0.0
C1572 C 0.13816 0.62731 0.30451 0.0
C1573 C 0.11791 0.6153 0.29673 0.0
C1574 C 0.14514 0.6482 0.30953 0.0
C1575 C 0.1368 0.69328 0.30073 0.0
H1576 H 0.16251 0.71414 0.34309 0.0
C1577 C 0.14984 0.77262 0.32587 0.0
C1578 C 0.16927 0.78575 0.33434 0.0
C1579 C 0.14433 0.75191 0.32155 0.0
C1580 C 0.15562 0.70863 0.33114 0.0
H1581 H 0.08896 0.61536 0.28831 0.0
H1582 H 0.10108 0.65176 0.2971 0.0
H1583 H 0.15157 0.67763 0.33512 0.0
H1584 H 0.19833 0.78753 0.34473 0.0
H1585 H 0.18872 0.75135 0.33711 0.0
H1586 H 0.14086 0.72414 0.29666 0.0
C1587 C 0.11166 0.6452 0.29918 0.0
C1588 C 0.14934 0.68774 0.3266 0.0
C1589 C 0.10467 0.62435 0.29425 0.0
C1590 C 0.18308 0.77771 0.33841 0.0
C1591 C 0.17758 0.75697 0.33406 0.0
C1592 C 0.14314 0.71413 0.30524 0.0
C1593 C 0.13205 0.65741 0.30674 0.0
C1594 C 0.13963 0.67979 0.31142 0.0
C1595 C 0.15818 0.74388 0.32551 0.0
C1596 C 0.15237 0.72197 0.32056 0.0
H1597 H 0.14871 0.6207 0.30658 0.0
H1598 H 0.16098 0.65729 0.31526 0.0
H1599 H 0.12976 0.68772 0.28883 0.0
H1600 H 0.13877 0.77825 0.32261 0.0
H1601 H 0.12909 0.74212 0.31522 0.0
C1602 C 0.82127 0.05073 0.3973 0.0
C1603 C 0.84379 0.05975 0.39497 0.0
C1604 C 0.80695 0.02961 0.39294 0.0
C1605 C 0.80135 0.9855 0.36729 0.0
H1606 H 0.75416 0.951 0.39673 0.0
C1607 C 0.74283 0.8952 0.35707 0.0
C1608 C 0.72061 0.88734 0.36032 0.0
C1609 C 0.75843 0.91606 0.36129 0.0
C1610 C 0.76709 0.96046 0.38828 0.0
H1611 H 0.86909 0.05385 0.38605 0.0
H1612 H 0.84396 0.01674 0.3784 0.0
H1613 H 0.78047 0.98766 0.40394 0.0
H1614 H 0.69741 0.89527 0.37067 0.0
H1615 H 0.72454 0.93164 0.3779 0.0
H1616 H 0.78782 0.95829 0.35157 0.0
C1617 C 0.83738 0.02611 0.38353 0.0
C1618 C 0.7822 0.98148 0.39243 0.0
C1619 C 0.85177 0.04731 0.38796 0.0
C1620 C 0.71437 0.90077 0.36801 0.0
C1621 C 0.72996 0.92162 0.37223 0.0
C1622 C 0.78618 0.96444 0.36312 0.0
C1623 C 0.81481 0.01697 0.38613 0.0
C1624 C 0.79939 0.99432 0.38192 0.0
C1625 C 0.75219 0.92953 0.36893 0.0
C1626 C 0.76875 0.95173 0.37351 0.0
H1627 H 0.81471 0.06001 0.40263 0.0
H1628 H 0.78965 0.0232 0.39485 0.0
H1629 H 0.81428 0.99503 0.35886 0.0
H1630 H 0.74828 0.88518 0.35144 0.0
H1631 H 0.77542 0.92151 0.35879 0.0
C1632 C 0.98883 0.81784 0.41626 0.0
C1633 C 0.97077 0.81271 0.40629 0.0
C1634 C 0.00796 0.81973 0.40984 0.0
C1635 C 0.03969 0.82874 0.37238 0.0
H1636 H 0.06685 0.80267 0.39703 0.0
C1637 C 0.11433 0.80805 0.36746 0.0
C1638 C 0.13159 0.82771 0.36232 0.0
C1639 C 0.09407 0.80583 0.37132 0.0
C1640 C 0.05943 0.80991 0.3899 0.0
H1641 H 0.95875 0.80598 0.3816 0.0
H1642 H 0.99245 0.8094 0.37026 0.0
H1643 H 0.03278 0.79947 0.40637 0.0
H1644 H 0.14148 0.86076 0.35793 0.0
H1645 H 0.10596 0.85689 0.36448 0.0
H1646 H 0.06659 0.8392 0.35591 0.0
C1647 C 0.99172 0.81197 0.38311 0.0
C1648 C 0.03997 0.80825 0.39536 0.0
C1649 C 0.9724 0.80992 0.3896 0.0
C1650 C 0.12828 0.84525 0.36133 0.0
C1651 C 0.10793 0.84302 0.36513 0.0
C1652 C 0.05935 0.83055 0.36696 0.0
C1653 C 0.00964 0.81662 0.39322 0.0
C1654 C 0.02989 0.81776 0.38676 0.0
C1655 C 0.09063 0.82332 0.37036 0.0
C1656 C 0.06949 0.82118 0.3757 0.0
H1657 H 0.9881 0.82018 0.42915 0.0
H1658 H 0.02152 0.82368 0.41795 0.0
H1659 H 0.03241 0.83632 0.36551 0.0
H1660 H 0.11656 0.79437 0.36856 0.0
H1661 H 0.08109 0.7904 0.37517 0.0
C1662 C 0.24716 0.19709 0.40327 0.0
C1663 C 0.23791 0.17577 0.39842 0.0
C1664 C 0.23768 0.20913 0.39862 0.0
C1665 C 0.20174 0.21266 0.36822 0.0
H1666 H 0.19863 0.25068 0.39984 0.0
C1667 C 0.1648 0.26683 0.3542 0.0
C1668 C 0.17751 0.28801 0.35957 0.0
C1669 C 0.16989 0.25132 0.35903 0.0
C1670 C 0.19947 0.2402 0.39086 0.0
H1671 H 0.21155 0.15022 0.38477 0.0
H1672 H 0.19493 0.17135 0.37661 0.0
H1673 H 0.21192 0.22691 0.40804 0.0
H1674 H 0.20541 0.30937 0.3744 0.0
H1675 H 0.21417 0.2825 0.38271 0.0
H1676 H 0.18961 0.22631 0.35097 0.0
C1677 C 0.20959 0.17876 0.38396 0.0
C1678 C 0.20709 0.22662 0.39555 0.0
C1679 C 0.21906 0.16667 0.38868 0.0
C1680 C 0.19522 0.29326 0.37 0.0
C1681 C 0.2002 0.2778 0.37487 0.0
C1682 C 0.19409 0.2263 0.36351 0.0
C1683 C 0.21873 0.20008 0.38899 0.0
C1684 C 0.20877 0.21304 0.38422 0.0
C1685 C 0.1876 0.25667 0.36948 0.0
C1686 C 0.19335 0.24054 0.37472 0.0
H1687 H 0.26172 0.20445 0.41075 0.0
H1688 H 0.24532 0.22562 0.40246 0.0
H1689 H 0.20294 0.20242 0.35921 0.0
H1690 H 0.15081 0.26217 0.3464 0.0
H1691 H 0.15979 0.2351 0.3548 0.0
C1692 C 0.62282 0.49436 0.72328 0.0
C1693 C 0.62144 0.49014 0.73998 0.0
C1694 C 0.64184 0.51125 0.71667 0.0
C1695 C 0.68839 0.5627 0.72891 0.0
H1696 H 0.71504 0.55996 0.68868 0.0
C1697 C 0.77515 0.61582 0.69461 0.0
C1698 C 0.77722 0.63609 0.69583 0.0
C1699 C 0.75532 0.59754 0.69819 0.0
C1700 C 0.70775 0.56091 0.69994 0.0
H1701 H 0.63951 0.49938 0.7626 0.0
H1702 H 0.67242 0.52876 0.75116 0.0
H1703 H 0.68231 0.52817 0.69857 0.0
H1704 H 0.76056 0.65326 0.7021 0.0
H1705 H 0.72589 0.62137 0.7084 0.0
H1706 H 0.71379 0.5952 0.73049 0.0
C1707 C 0.6587 0.51937 0.74321 0.0
C1708 C 0.68897 0.54279 0.70554 0.0
C1709 C 0.63981 0.50253 0.74977 0.0
C1710 C 0.75924 0.63777 0.70087 0.0
C1711 C 0.73947 0.61955 0.70452 0.0
C1712 C 0.70698 0.58077 0.72329 0.0
C1713 C 0.65978 0.52424 0.72667 0.0
C1714 C 0.67925 0.54345 0.7202 0.0
C1715 C 0.73735 0.59923 0.70341 0.0
C1716 C 0.71698 0.58008 0.70881 0.0
H1717 H 0.60893 0.48516 0.71542 0.0
H1718 H 0.64218 0.51465 0.70388 0.0
H1719 H 0.68113 0.56382 0.74013 0.0
H1720 H 0.78893 0.61407 0.69129 0.0
H1721 H 0.75431 0.58215 0.69745 0.0
C1722 C 0.501 0.10776 0.73681 0.0
C1723 C 0.52238 0.12518 0.73672 0.0
C1724 C 0.48357 0.10981 0.73103 0.0
C1725 C 0.46864 0.14399 0.70686 0.0
H1726 H 0.41624 0.11631 0.73292 0.0
C1727 C 0.39523 0.15831 0.69817 0.0
C1728 C 0.3743 0.14026 0.69891 0.0
C1729 C 0.41373 0.15686 0.7021 0.0
C1730 C 0.43062 0.12395 0.72537 0.0
H1731 H 0.54231 0.15823 0.72983 0.0
H1732 H 0.51176 0.16194 0.71978 0.0
H1733 H 0.44765 0.11304 0.74038 0.0
H1734 H 0.35618 0.10691 0.70528 0.0
H1735 H 0.38835 0.10424 0.71206 0.0
H1736 H 0.45143 0.15501 0.69192 0.0
C1737 C 0.50851 0.1466 0.72425 0.0
C1738 C 0.44869 0.12205 0.72964 0.0
C1739 C 0.52604 0.1445 0.73 0.0
C1740 C 0.37216 0.12097 0.70432 0.0
C1741 C 0.39059 0.1195 0.70828 0.0
C1742 C 0.45049 0.14592 0.70258 0.0
C1743 C 0.48696 0.12939 0.72505 0.0
C1744 C 0.46792 0.13188 0.7204 0.0
C1745 C 0.41164 0.13741 0.7072 0.0
C1746 C 0.4312 0.1358 0.71175 0.0
H1747 H 0.49767 0.09254 0.74163 0.0
H1748 H 0.46734 0.09604 0.73144 0.0
H1749 H 0.48308 0.15165 0.69938 0.0
H1750 H 0.39735 0.17359 0.69465 0.0
H1751 H 0.42963 0.17106 0.70141 0.0
C1752 C 0.88311 0.39345 0.7251 0.0
C1753 C 0.90293 0.40591 0.73335 0.0
C1754 C 0.8784 0.37405 0.71802 0.0
C1755 C 0.90412 0.34268 0.70481 0.0
H1756 H 0.84632 0.29424 0.71142 0.0
C1757 C 0.88464 0.25583 0.69734 0.0
C1758 C 0.86509 0.2416 0.68942 0.0
C1759 C 0.88915 0.27639 0.70127 0.0
C1760 C 0.86244 0.30767 0.7093 0.0
H1761 H 0.93369 0.40823 0.74005 0.0
H1762 H 0.92527 0.37427 0.72813 0.0
H1763 H 0.8544 0.32949 0.72048 0.0
H1764 H 0.83479 0.23769 0.67966 0.0
H1765 H 0.84278 0.27361 0.68644 0.0
H1766 H 0.91227 0.32071 0.69399 0.0
C1767 C 0.91342 0.37949 0.72696 0.0
C1768 C 0.86707 0.32788 0.71444 0.0
C1769 C 0.91814 0.39884 0.73399 0.0
C1770 C 0.85012 0.24833 0.68559 0.0
C1771 C 0.85459 0.26885 0.6896 0.0
C1772 C 0.89952 0.32246 0.69975 0.0
C1773 C 0.89342 0.36675 0.71903 0.0
C1774 C 0.88804 0.34558 0.71244 0.0
C1775 C 0.87415 0.28309 0.69749 0.0
C1776 C 0.87871 0.30471 0.7021 0.0
H1777 H 0.87103 0.39842 0.72445 0.0
H1778 H 0.86294 0.36473 0.71183 0.0
H1779 H 0.92032 0.35605 0.70282 0.0
H1780 H 0.89649 0.25113 0.70048 0.0
H1781 H 0.90424 0.28693 0.70754 0.0
C1782 C 0.16396 0.95867 0.60943 0.0
C1783 C 0.15206 0.94061 0.61917 0.0
C1784 C 0.17995 0.97787 0.61616 0.0
C1785 C 0.21605 -0.00041 0.65203 0.0
H1786 H 0.22731 0.0536 0.63421 0.0
C1787 C 0.27929 0.0818 0.67897 0.0
C1788 C 0.29269 0.09747 0.66785 0.0
C1789 C 0.26186 0.06241 0.67361 0.0
C1790 C 0.22446 0.03863 0.63922 0.0
H1791 H 0.14712 0.92885 0.64379 0.0
H1792 H 0.17465 0.96265 0.65568 0.0
H1793 H 0.19625 0.02064 0.6244 0.0
H1794 H 0.29883 0.1051 0.64239 0.0
H1795 H 0.26831 0.07122 0.63294 0.0
H1796 H 0.24422 0.01779 0.66699 0.0
C1797 C 0.17194 0.96178 0.64273 0.0
C1798 C 0.20666 0.01971 0.6336 0.0
C1799 C 0.15595 0.94247 0.63596 0.0
C1800 C 0.28873 0.09324 0.65122 0.0
C1801 C 0.27116 0.07396 0.64584 0.0
C1802 C 0.23375 0.01857 0.65776 0.0
C1803 C 0.18437 0.97966 0.63287 0.0
C1804 C 0.20237 -0.00011 0.63976 0.0
C1805 C 0.2574 0.05842 0.65699 0.0
C1806 C 0.23829 0.03826 0.65127 0.0
H1807 H 0.16113 0.95792 0.5965 0.0
H1808 H 0.18928 0.99114 0.60813 0.0
H1809 H 0.21349 0.98466 0.6569 0.0
H1810 H 0.28237 0.0844 0.6918 0.0
H1811 H 0.25158 0.05074 0.68249 0.0
C1812 C 0.05161 0.1948 0.63074 0.0
C1813 C 0.06744 0.21339 0.623 0.0
C1814 C 0.0323 0.19335 0.63657 0.0
C1815 C 0.99753 0.21787 0.63056 0.0
H1816 H 0.96856 0.1872 0.66956 0.0
C1817 C 0.92245 0.21928 0.65601 0.0
C1818 C 0.90506 0.19999 0.66159 0.0
C1819 C 0.94255 0.22102 0.6523 0.0
C1820 C 0.97637 0.19567 0.65857 0.0
H1821 H 0.07592 0.24548 0.61622 0.0
H1822 H 0.04261 0.24314 0.62657 0.0
H1823 H 1.00331 0.19026 0.66167 0.0
H1824 H 0.8947 0.167 0.66673 0.0
H1825 H 0.92988 0.17003 0.66046 0.0
H1826 H 0.97069 0.2233 0.62742 0.0
C1827 C 0.0447 0.22938 0.62772 0.0
C1828 C 0.9963 0.19742 0.65402 0.0
C1829 C 0.06388 0.23078 0.62183 0.0
C1830 C 0.90801 0.18227 0.66301 0.0
C1831 C 0.92817 0.18401 0.65936 0.0
C1832 C 0.97772 0.21619 0.63512 0.0
C1833 C 0.02841 0.21051 0.63489 0.0
C1834 C 0.0072 0.2086 0.63996 0.0
C1835 C 0.94568 0.20339 0.65386 0.0
C1836 C 0.96687 0.20511 0.64918 0.0
H1837 H 0.05377 0.18107 0.63173 0.0
H1838 H 0.02011 0.1785 0.64189 0.0
H1839 H 0.00508 0.22617 0.61945 0.0
H1840 H 0.9205 0.2331 0.65458 0.0
H1841 H 0.95569 0.23623 0.64822 0.0
C1842 C 0.77366 0.83002 0.62254 0.0
C1843 C 0.79142 0.85095 0.62211 0.0
C1844 C 0.77587 0.81368 0.62951 0.0
C1845 C 0.80869 0.802 0.65761 0.0
H1846 H 0.78978 0.75157 0.63103 0.0
C1847 C 0.83257 0.73852 0.67217 0.0
C1848 C 0.81749 0.7171 0.66869 0.0
C1849 C 0.82842 0.75465 0.66749 0.0
C1850 C 0.7948 0.76533 0.63877 0.0
H1851 H 0.82525 0.87119 0.62918 0.0
H1852 H 0.82894 0.84263 0.64167 0.0
H1853 H 0.784 0.78014 0.62156 0.0
H1854 H 0.78601 0.69574 0.65788 0.0
H1855 H 0.77846 0.7238 0.65007 0.0
H1856 H 0.81928 0.78715 0.67492 0.0
C1857 C 0.81333 0.83896 0.63656 0.0
C1858 C 0.79154 0.78174 0.63329 0.0
C1859 C 0.81119 0.85531 0.62943 0.0
C1860 C 0.79803 0.7121 0.66062 0.0
C1861 C 0.79376 0.72823 0.65608 0.0
C1862 C 0.81173 0.78547 0.66319 0.0
C1863 C 0.79581 0.81793 0.63638 0.0
C1864 C 0.79858 0.80029 0.6426 0.0
C1865 C 0.809 0.74973 0.65932 0.0
C1866 C 0.80497 0.76699 0.65377 0.0
H1867 H 0.75805 0.82619 0.61735 0.0
H1868 H 0.762 0.79765 0.62944 0.0
H1869 H 0.81408 0.81607 0.66508 0.0
H1870 H 0.84785 0.74293 0.67822 0.0
H1871 H 0.8407 0.77101 0.66995 0.0
C1872 C 0.04055 0.8394 0.63406 0.0
C1873 C 0.04208 0.84193 0.61716 0.0
C1874 C 0.02164 0.82288 0.6411 0.0
C1875 C 0.97481 0.77014 0.63101 0.0
H1876 H 0.94823 0.77773 0.66957 0.0
C1877 C 0.90187 0.69889 0.66069 0.0
C1878 C 0.88431 0.70167 0.66503 0.0
C1879 C 0.92209 0.71642 0.65688 0.0
C1880 C 0.95546 0.77541 0.65877 0.0
H1881 H 0.02502 0.82961 0.59444 0.0
H1882 H 0.99211 0.80098 0.60662 0.0
H1883 H 0.98143 0.80795 0.65862 0.0
H1884 H 0.87388 0.72487 0.66836 0.0
H1885 H 0.90926 0.75562 0.66175 0.0
H1886 H 0.94877 0.73788 0.63082 0.0
C1887 C 0.00551 0.81147 0.61447 0.0
C1888 C 0.97456 0.79264 0.65259 0.0
C1889 C 0.02431 0.82794 0.60749 0.0
C1890 C 0.88732 0.72233 0.66555 0.0
C1891 C 0.90759 0.73993 0.66172 0.0
C1892 C 0.95586 0.75298 0.63719 0.0
C1893 C 0.00401 0.80856 0.63134 0.0
C1894 C 0.9843 0.79024 0.63851 0.0
C1895 C 0.9251 0.73712 0.65703 0.0
C1896 C 0.94585 0.75539 0.65108 0.0
H1897 H 0.054 0.84996 0.64184 0.0
H1898 H 0.02103 0.82099 0.65412 0.0
H1899 H 0.98204 0.76764 0.62028 0.0
H1900 H 0.89983 0.68306 0.66003 0.0
H1901 H 0.93529 0.7137 0.65353 0.0
C1902 C 0.17264 0.20186 0.63297 0.0
C1903 C 0.15619 0.18562 0.62356 0.0
C1904 C 0.19069 0.2003 0.63816 0.0
C1905 C 0.21915 0.16892 0.63008 0.0
H1906 H 0.25225 0.19892 0.66827 0.0
C1907 C 0.28689 0.15721 0.66094 0.0
C1908 C 0.30741 0.17585 0.66108 0.0
C1909 C 0.26811 0.15801 0.65676 0.0
C1910 C 0.24307 0.19042 0.65761 0.0
H1911 H 0.14517 0.1547 0.61273 0.0
H1912 H 0.1755 0.15111 0.6227 0.0
H1913 H 0.21952 0.20028 0.66109 0.0
H1914 H 0.32458 0.20968 0.6562 0.0
H1915 H 0.29156 0.21122 0.64947 0.0
H1916 H 0.24241 0.15835 0.62721 0.0
C1917 C 0.17537 0.16564 0.62549 0.0
C1918 C 0.22438 0.19135 0.65333 0.0
C1919 C 0.15772 0.16751 0.61991 0.0
C1920 C 0.30888 0.19518 0.65649 0.0
C1921 C 0.29006 0.19607 0.65269 0.0
C1922 C 0.23746 0.16753 0.63464 0.0
C1923 C 0.19246 0.1822 0.63442 0.0
C1924 C 0.21215 0.18074 0.63939 0.0
C1925 C 0.26952 0.17749 0.65278 0.0
C1926 C 0.24968 0.1784 0.64835 0.0
H1927 H 0.172 0.21614 0.63578 0.0
H1928 H 0.20349 0.21365 0.64472 0.0
H1929 H 0.2108 0.16097 0.61903 0.0
H1930 H 0.28535 0.142 0.66395 0.0
H1931 H 0.25245 0.14346 0.6568 0.0
C1932 C 0.82242 0.96812 0.63268 0.0
C1933 C 0.81597 0.96374 0.61638 0.0
C1934 C 0.82544 0.98688 0.63994 0.0
C1935 C 0.80657 0.02439 0.63934 0.0
H1936 H 0.8637 0.06757 0.65445 0.0
C1937 C 0.82464 0.10898 0.65532 0.0
C1938 C 0.8401 0.12051 0.66742 0.0
C1939 C 0.82133 0.08923 0.65011 0.0
C1940 C 0.84751 0.05556 0.65064 0.0
H1941 H 0.80754 0.9752 0.5949 0.0
H1942 H 0.81211 0.00765 0.60779 0.0
H1943 H 0.85849 0.03382 0.64402 0.0
H1944 H 0.86436 0.12027 0.68338 0.0
H1945 H 0.85756 0.08537 0.67517 0.0
H1946 H 0.79522 0.04553 0.6463 0.0
C1947 C 0.81505 0.99673 0.61483 0.0
C1948 C 0.84463 0.0363 0.64458 0.0
C1949 C 0.81254 0.97828 0.60749 0.0
C1950 C 0.85201 0.11171 0.67429 0.0
C1951 C 0.84836 0.09176 0.66933 0.0
C1952 C 0.8093 0.04342 0.64572 0.0
C1953 C 0.82155 0.00116 0.63109 0.0
C1954 C 0.82423 0.02075 0.63867 0.0
C1955 C 0.83311 0.08031 0.65706 0.0
C1956 C 0.8299 0.05945 0.65121 0.0
H1957 H 0.82526 0.95718 0.63976 0.0
H1958 H 0.83049 0.99009 0.65251 0.0
H1959 H 0.79065 0.01247 0.63492 0.0
H1960 H 0.8153 0.11531 0.64961 0.0
H1961 H 0.80982 0.08123 0.64036 0.0
C1962 C 0.50393 0.36644 0.74889 0.0
C1963 C 0.5231 0.38025 0.74053 0.0
C1964 C 0.48774 0.34789 0.74151 0.0
C1965 C 0.47879 0.30666 0.71379 0.0
H1966 H 0.41941 0.29562 0.71013 0.0
C1967 C 0.41101 0.22817 0.68594 0.0
C1968 C 0.38969 0.21947 0.69194 0.0
C1969 C 0.4273 0.24855 0.69053 0.0
C1970 C 0.43579 0.29822 0.71128 0.0
H1971 H 0.54059 0.38549 0.71797 0.0
H1972 H 0.51239 0.35232 0.70519 0.0
H1973 H 0.44789 0.32985 0.72056 0.0
H1974 H 0.36904 0.22531 0.70803 0.0
H1975 H 0.39762 0.26025 0.71678 0.0
H1976 H 0.46681 0.2748 0.70554 0.0
C1977 C 0.50986 0.35622 0.71736 0.0
C1978 C 0.45213 0.31795 0.71709 0.0
C1979 C 0.5259 0.37514 0.72463 0.0
C1980 C 0.3852 0.23155 0.70299 0.0
C1981 C 0.40163 0.25178 0.70789 0.0
C1982 C 0.46239 0.28675 0.70832 0.0
C1983 C 0.49063 0.34252 0.72575 0.0
C1984 C 0.47373 0.32229 0.71844 0.0
C1985 C 0.42293 0.26065 0.70168 0.0
C1986 C 0.44059 0.28216 0.70705 0.0
H1987 H 0.50142 0.37006 0.76116 0.0
H1988 H 0.47312 0.33749 0.74825 0.0
H1989 H 0.49532 0.30959 0.71495 0.0
H1990 H 0.4153 0.2192 0.67776 0.0
H1991 H 0.44331 0.25478 0.68524 0.0
C1992 C 0.63955 0.14266 0.72239 0.0
C1993 C 0.63787 0.14557 0.73905 0.0
C1994 C 0.65887 0.14462 0.71599 0.0
C1995 C 0.70703 0.1409 0.72849 0.0
H1996 H 0.73387 0.17179 0.68907 0.0
C1997 C 0.79558 0.17821 0.69483 0.0
C1998 C 0.79901 0.16075 0.69582 0.0
C1999 C 0.77516 0.17586 0.69857 0.0
C2000 C 0.72657 0.16315 0.70012 0.0
H2001 H 0.65509 0.15314 0.76196 0.0
H2002 H 0.68852 0.15647 0.75092 0.0
H2003 H 0.69962 0.16888 0.6985 0.0
H2004 H 0.78416 0.12744 0.70208 0.0
H2005 H 0.74857 0.12324 0.70861 0.0
H2006 H 0.73394 0.13538 0.73034 0.0
C2007 C 0.675 0.1525 0.74276 0.0
C2008 C 0.70686 0.16132 0.70543 0.0
C2009 C 0.65587 0.15071 0.74909 0.0
C2010 C 0.78183 0.14106 0.70097 0.0
C2011 C 0.76149 0.13871 0.70477 0.0
C2012 C 0.72654 0.14257 0.72314 0.0
C2013 C 0.67673 0.14928 0.72617 0.0
C2014 C 0.697 0.15038 0.71981 0.0
C2015 C 0.75792 0.1561 0.70375 0.0
C2016 C 0.73668 0.15384 0.70896 0.0
H2017 H 0.62595 0.13871 0.71434 0.0
H2018 H 0.65965 0.14197 0.70316 0.0
H2019 H 0.69978 0.13214 0.7395 0.0
H2020 H 0.80872 0.19377 0.69146 0.0
H2021 H 0.7731 0.18967 0.6979 0.0
C2022 C 0.88601 0.50092 0.72109 0.0
C2023 C 0.905 0.50963 0.73065 0.0
C2024 C 0.87843 0.514 0.7149 0.0
C2025 C 0.89645 0.5703 0.70581 0.0
H2026 H 0.83495 0.55237 0.70857 0.0
C2027 C 0.8654 0.62937 0.69995 0.0
C2028 C 0.84643 0.62333 0.6908 0.0
C2029 C 0.872 0.61464 0.70353 0.0
C2030 C 0.85212 0.55747 0.7075 0.0
H2031 H 0.93089 0.53861 0.74129 0.0
H2032 H 0.91762 0.56144 0.73064 0.0
H2033 H 0.84763 0.52811 0.71709 0.0
H2034 H 0.81911 0.59682 0.67865 0.0
H2035 H 0.83084 0.57109 0.68477 0.0
H2036 H 0.90103 0.59975 0.69648 0.0
C2037 C 0.90874 0.54462 0.7277 0.0
C2038 C 0.85938 0.54358 0.71238 0.0
C2039 C 0.91627 0.53156 0.73388 0.0
C2040 C 0.83399 0.60208 0.68551 0.0
C2041 C 0.84059 0.58729 0.68914 0.0
C2042 C 0.88921 0.58415 0.70097 0.0
C2043 C 0.88973 0.536 0.71814 0.0
C2044 C 0.88169 0.55001 0.71184 0.0
C2045 C 0.85976 0.59348 0.6981 0.0
C2046 C 0.86703 0.57804 0.70202 0.0
H2047 H 0.87697 0.48404 0.7184 0.0
H2048 H 0.86384 0.50693 0.70748 0.0
H2049 H 0.91367 0.57555 0.70493 0.0
H2050 H 0.87532 0.64552 0.70434 0.0
H2051 H 0.88662 0.61981 0.71072 0.0
C2052 C 0.43579 0.89933 0.2301 0.0
C2053 C 0.45122 0.90257 0.24217 0.0
C2054 C 0.4424 0.90975 0.21518 0.0
C2055 C 0.48857 0.95655 0.19577 0.0
H2056 H 0.46109 0.92739 0.15571 0.0
C2057 C 0.52348 0.99401 0.13381 0.0
C2058 C 0.50872 0.99245 0.12172 0.0
C2059 C 0.51605 0.98231 0.1481 0.0
C2060 C 0.46878 0.93582 0.1668 0.0
H2061 H 0.48575 0.91944 0.24795 0.0
H2062 H 0.49729 0.93719 0.22188 0.0
H2063 H 0.44896 0.90848 0.18141 0.0
H2064 H 0.4745 0.97694 0.11512 0.0
H2065 H 0.46148 0.95643 0.14013 0.0
H2066 H 0.50839 0.98386 0.18123 0.0
C2067 C 0.48003 0.92679 0.224 0.0
C2068 C 0.46182 0.92499 0.18155 0.0
C2069 C 0.47343 0.91639 0.23889 0.0
C2070 C 0.48633 0.97839 0.12412 0.0
C2071 C 0.47887 0.96665 0.13846 0.0
C2072 C 0.49553 0.96735 0.18106 0.0
C2073 C 0.46461 0.92369 0.21196 0.0
C2074 C 0.47171 0.93519 0.19622 0.0
C2075 C 0.49364 0.96869 0.15073 0.0
C2076 C 0.48583 0.95711 0.16637 0.0
H2077 H 0.41857 0.88863 0.23214 0.0
H2078 H 0.43006 0.90711 0.20626 0.0
H2079 H 0.49626 0.96508 0.20684 0.0
H2080 H 0.54087 0.00431 0.13223 0.0
H2081 H 0.52792 0.98392 0.15712 0.0
C2082 C 0.07619 0.51918 0.23898 0.0
C2083 C 0.09403 0.53936 0.24249 0.0
C2084 C 0.0653 0.5153 0.22415 0.0
C2085 C 0.05696 0.54332 0.18986 0.0
H2086 H 0.03443 0.48863 0.16843 0.0
C2087 C 0.99996 0.52039 0.1345 0.0
C2088 C 1.00287 0.50893 0.12194 0.0
C2089 C 0.01102 0.52377 0.14919 0.0
C2090 C 0.0408 0.50407 0.17417 0.0
H2091 H 0.11491 0.57113 0.23318 0.0
H2092 H 0.09624 0.56429 0.20714 0.0
H2093 H 0.05466 0.49539 0.19369 0.0
H2094 H 0.01947 0.49174 0.11514 0.0
H2095 H 0.03935 0.49832 0.14053 0.0
H2096 H 0.04375 0.55226 0.17009 0.0
C2097 C 0.09025 0.55158 0.21596 0.0
C2098 C 0.05215 0.50785 0.18878 0.0
C2099 C 0.101 0.5555 0.23084 0.0
C2100 C 0.01706 0.50088 0.12447 0.0
C2101 C 0.02824 0.5044 0.13912 0.0
C2102 C 0.04575 0.5396 0.1752 0.0
C2103 C 0.07216 0.53148 0.21247 0.0
C2104 C 0.06032 0.5275 0.19682 0.0
C2105 C 0.02539 0.51593 0.15166 0.0
C2106 C 0.03746 0.5199 0.1672 0.0
H2107 H 0.07034 0.50653 0.24784 0.0
H2108 H 0.05123 0.49973 0.22199 0.0
H2109 H 0.06277 0.55854 0.19581 0.0
H2110 H 0.98936 0.52702 0.13291 0.0
H2111 H 0.00818 0.53246 0.15865 0.0
C2112 C 0.49214 0.56058 0.23969 0.0
C2113 C 0.47024 0.5546 0.24251 0.0
C2114 C 0.49861 0.55664 0.22475 0.0
C2115 C 0.47887 0.52381 0.18785 0.0
H2116 H 0.53153 0.56976 0.16908 0.0
C2117 C 0.50786 0.5189 0.12317 0.0
C2118 C 0.5304 0.52726 0.12104 0.0
C2119 C 0.49976 0.52204 0.13773 0.0
C2120 C 0.51694 0.55666 0.17421 0.0
H2121 H 0.43785 0.53929 0.23188 0.0
H2122 H 0.44917 0.53215 0.20575 0.0
H2123 H 0.51874 0.57504 0.19506 0.0
H2124 H 0.56207 0.54576 0.13252 0.0
H2125 H 0.54796 0.5507 0.15796 0.0
H2126 H 0.47724 0.50532 0.16707 0.0
C2127 C 0.4613 0.53989 0.21518 0.0
C2128 C 0.50959 0.55971 0.1891 0.0
C2129 C 0.45482 0.54395 0.23015 0.0
C2130 C 0.54461 0.53886 0.1338 0.0
C2131 C 0.53652 0.54195 0.14833 0.0
C2132 C 0.4863 0.5207 0.17295 0.0
C2133 C 0.48333 0.54649 0.21225 0.0
C2134 C 0.49059 0.54327 0.19616 0.0
C2135 C 0.514 0.53362 0.15049 0.0
C2136 C 0.50554 0.53705 0.16602 0.0
H2137 H 0.50436 0.56838 0.24906 0.0
H2138 H 0.51563 0.56151 0.22298 0.0
H2139 H 0.46426 0.51079 0.19304 0.0
H2140 H 0.49643 0.50969 0.11366 0.0
H2141 H 0.48234 0.51558 0.13891 0.0
C2142 C 0.94947 0.44919 0.78465 0.0
C2143 C 0.93318 0.45437 0.78131 0.0
C2144 C 0.959 0.45285 0.79998 0.0
C2145 C 0.96984 0.48467 0.8369 0.0
H2146 H 0.97605 0.43944 0.85658 0.0
C2147 C 1.00084 0.49016 0.9026 0.0
C2148 C 0.01489 0.48206 0.90555 0.0
C2149 C 0.99032 0.48688 0.88765 0.0
C2150 C 0.9747 0.45234 0.85119 0.0
H2151 H 0.91433 0.4677 0.79149 0.0
H2152 H 0.93137 0.47446 0.81826 0.0
H2153 H 0.95902 0.43389 0.83002 0.0
H2154 H 0.02875 0.46398 0.89508 0.0
H2155 H 0.0111 0.45894 0.86889 0.0
H2156 H 0.9859 0.50329 0.85793 0.0
C2157 C 0.9367 0.46757 0.80893 0.0
C2158 C 0.96489 0.44912 0.83599 0.0
C2159 C 0.927 0.46374 0.7936 0.0
C2160 C 0.01825 0.47068 0.89317 0.0
C2161 C 0.00786 0.46752 0.87821 0.0
C2162 C 0.97984 0.48796 0.85208 0.0
C2163 C 0.95263 0.46195 0.8123 0.0
C2164 C 0.96248 0.46529 0.82865 0.0
C2165 C 0.99369 0.47549 0.87528 0.0
C2166 C 0.98252 0.47188 0.85936 0.0
H2167 H 0.95496 0.44238 0.77538 0.0
H2168 H 0.97152 0.44871 0.80216 0.0
H2169 H 0.96835 0.49746 0.83145 0.0
H2170 H 0.99807 0.49921 0.9118 0.0
H2171 H 0.97936 0.49307 0.88586 0.0
C2172 C 0.56852 0.48789 0.78786 0.0
C2173 C 0.5675 0.46824 0.78526 0.0
C2174 C 0.56139 0.49205 0.80248 0.0
C2175 C 0.52596 0.46446 0.83745 0.0
H2176 H 0.55654 0.52033 0.85752 0.0
C2177 C 0.52627 0.50795 0.90154 0.0
C2178 C 0.50369 0.49927 0.90365 0.0
C2179 C 0.53448 0.50448 0.88718 0.0
C2180 C 0.54791 0.50459 0.85215 0.0
H2181 H 0.55897 0.43788 0.79614 0.0
H2182 H 0.54673 0.44517 0.82165 0.0
H2183 H 0.57059 0.51369 0.83256 0.0
H2184 H 0.47204 0.47995 0.89232 0.0
H2185 H 0.48635 0.47433 0.86718 0.0
H2186 H 0.50356 0.45519 0.85717 0.0
C2187 C 0.55254 0.4572 0.81229 0.0
C2188 C 0.55582 0.50086 0.83773 0.0
C2189 C 0.55958 0.45302 0.79768 0.0
C2190 C 0.48953 0.48707 0.89104 0.0
C2191 C 0.49773 0.48363 0.87669 0.0
C2192 C 0.51808 0.46818 0.85185 0.0
C2193 C 0.55318 0.47668 0.81483 0.0
C2194 C 0.54492 0.48074 0.83021 0.0
C2195 C 0.52029 0.49223 0.87459 0.0
C2196 C 0.52891 0.4883 0.85936 0.0
H2197 H 0.57435 0.49985 0.77846 0.0
H2198 H 0.56186 0.50712 0.80396 0.0
H2199 H 0.517 0.44885 0.83189 0.0
H2200 H 0.53765 0.51761 0.91093 0.0
H2201 H 0.55193 0.51117 0.88602 0.0
C2202 C 0.55258 0.08451 0.78724 0.0
C2203 C 0.54818 0.10108 0.78426 0.0
C2204 C 0.54725 0.07397 0.80214 0.0
C2205 C 0.53613 0.07929 0.84489 0.0
H2206 H 0.50337 0.01758 0.84434 0.0
C2207 C 0.49553 0.03009 0.9026 0.0
C2208 C 0.49388 0.01006 0.9042 0.0
C2209 C 0.50342 0.04175 0.88827 0.0
C2210 C 0.51286 0.0348 0.84481 0.0
H2211 H 0.53538 0.12004 0.7947 0.0
H2212 H 0.52629 0.10179 0.82081 0.0
H2213 H 0.51536 0.03698 0.81896 0.0
H2214 H 0.50009 0.98692 0.89238 0.0
H2215 H 0.51453 0.00746 0.86766 0.0
H2216 H 0.534 0.07721 0.87072 0.0
C2217 C 0.53377 0.09689 0.8116 0.0
C2218 C 0.51965 0.04591 0.8302 0.0
C2219 C 0.53881 0.10723 0.79662 0.0
C2220 C 0.50087 0.00219 0.89138 0.0
C2221 C 0.50904 0.01395 0.87717 0.0
C2222 C 0.52958 0.06817 0.85954 0.0
C2223 C 0.5377 0.07999 0.81446 0.0
C2224 C 0.53124 0.06827 0.83006 0.0
C2225 C 0.51014 0.03377 0.87528 0.0
C2226 C 0.51772 0.04574 0.85971 0.0
H2227 H 0.55967 0.07937 0.7779 0.0
H2228 H 0.5506 0.0611 0.80404 0.0
H2229 H 0.54523 0.09653 0.84516 0.0
H2230 H 0.49007 0.03646 0.91224 0.0
H2231 H 0.50368 0.05676 0.88726 0.0
C2232 C 0.10301 0.23028 0.56353 0.0
C2233 C 0.1184 0.23364 0.57568 0.0
C2234 C 0.10968 0.2405 0.54854 0.0
C2235 C 0.15581 0.28742 0.52934 0.0
H2236 H 0.12837 0.25874 0.48913 0.0
C2237 C 0.19008 0.32631 0.46763 0.0
C2238 C 0.17515 0.32468 0.45567 0.0
C2239 C 0.18289 0.31429 0.4818 0.0
C2240 C 0.13605 0.26704 0.50026 0.0
H2241 H 0.15293 0.25036 0.58144 0.0
H2242 H 0.16456 0.26776 0.55526 0.0
H2243 H 0.11639 0.23944 0.5147 0.0
H2244 H 0.14088 0.30873 0.44916 0.0
H2245 H 0.12828 0.2877 0.47395 0.0
H2246 H 0.17541 0.31501 0.515 0.0
C2247 C 0.14729 0.25742 0.55738 0.0
C2248 C 0.12919 0.25598 0.51493 0.0
C2249 C 0.14063 0.24722 0.57234 0.0
C2250 C 0.15284 0.31025 0.45806 0.0
C2251 C 0.14562 0.2982 0.47228 0.0
C2252 C 0.16266 0.29845 0.51471 0.0
C2253 C 0.13191 0.25437 0.54533 0.0
C2254 C 0.13905 0.26602 0.52966 0.0
C2255 C 0.16055 0.30029 0.48443 0.0
C2256 C 0.15296 0.2884 0.49997 0.0
H2257 H 0.08577 0.21974 0.56561 0.0
H2258 H 0.09737 0.23787 0.5396 0.0
H2259 H 0.16347 0.29582 0.54045 0.0
H2260 H 0.20742 0.33692 0.46605 0.0
H2261 H 0.19489 0.31597 0.49072 0.0
C2262 C 0.74338 0.85479 0.57314 0.0
C2263 C 0.76363 0.87358 0.57473 0.0
C2264 C 0.73148 0.85027 0.55873 0.0
C2265 C 0.7256 0.87649 0.52241 0.0
H2266 H 0.69501 0.81915 0.50484 0.0
C2267 C 0.68013 0.83112 0.45947 0.0
C2268 C 0.66777 0.84104 0.45641 0.0
C2269 C 0.69118 0.83438 0.47416 0.0
C2270 C 0.70357 0.83527 0.50955 0.0
H2271 H 0.78758 0.90203 0.56233 0.0
H2272 H 0.76688 0.89412 0.53717 0.0
H2273 H 0.71624 0.82632 0.52972 0.0
H2274 H 0.6572 0.86207 0.46643 0.0
H2275 H 0.67609 0.8674 0.4922 0.0
H2276 H 0.71338 0.88557 0.50207 0.0
C2277 C 0.75999 0.88308 0.54715 0.0
C2278 C 0.71554 0.83933 0.52389 0.0
C2279 C 0.77186 0.8876 0.56155 0.0
C2280 C 0.66642 0.85404 0.46847 0.0
C2281 C 0.67746 0.8573 0.48316 0.0
C2282 C 0.71365 0.87244 0.50809 0.0
C2283 C 0.73959 0.86444 0.54562 0.0
C2284 C 0.72673 0.86001 0.53045 0.0
C2285 C 0.6901 0.84764 0.48612 0.0
C2286 C 0.70252 0.85179 0.50148 0.0
H2287 H 0.73652 0.8438 0.58316 0.0
H2288 H 0.7157 0.83591 0.55799 0.0
H2289 H 0.73382 0.89255 0.52725 0.0
H2290 H 0.68128 0.82081 0.45049 0.0
H2291 H 0.70093 0.82685 0.47601 0.0
C2292 C 0.15639 0.89267 0.57212 0.0
C2293 C 0.13478 0.88818 0.57417 0.0
C2294 C 0.16322 0.88863 0.55736 0.0
C2295 C 0.14437 0.85765 0.51965 0.0
H2296 H 0.19886 0.90288 0.50252 0.0
C2297 C 0.17529 0.85335 0.45559 0.0
C2298 C 0.19782 0.86134 0.4538 0.0
C2299 C 0.16691 0.85639 0.47004 0.0
C2300 C 0.18376 0.88995 0.5072 0.0
H2301 H 0.10325 0.87528 0.56238 0.0
H2302 H 0.11517 0.86786 0.53663 0.0
H2303 H 0.18543 0.90787 0.52831 0.0
H2304 H 0.2292 0.87907 0.46585 0.0
H2305 H 0.21459 0.88368 0.49114 0.0
H2306 H 0.14288 0.83955 0.49868 0.0
C2307 C 0.12678 0.87458 0.5465 0.0
C2308 C 0.17604 0.89285 0.52197 0.0
C2309 C 0.11995 0.87878 0.56127 0.0
C2310 C 0.21174 0.87244 0.46683 0.0
C2311 C 0.20337 0.87536 0.48129 0.0
C2312 C 0.15219 0.85466 0.5049 0.0
C2313 C 0.14859 0.87982 0.54432 0.0
C2314 C 0.15635 0.8767 0.52842 0.0
C2315 C 0.18085 0.86743 0.48309 0.0
C2316 C 0.17208 0.87073 0.49854 0.0
H2317 H 0.16812 0.89944 0.58191 0.0
H2318 H 0.18003 0.89244 0.55615 0.0
H2319 H 0.12921 0.84487 0.52439 0.0
H2320 H 0.16404 0.84451 0.44588 0.0
H2321 H 0.14952 0.85025 0.47092 0.0
C2322 C 0.61448 0.78253 0.12038 0.0
C2323 C 0.59744 0.78693 0.11803 0.0
C2324 C 0.62523 0.78668 0.13526 0.0
C2325 C 0.6377 0.81844 0.17235 0.0
H2326 H 0.64537 0.7736 0.1911 0.0
C2327 C 0.66966 0.82347 0.23761 0.0
C2328 C 0.6836 0.8152 0.24045 0.0
C2329 C 0.65929 0.82052 0.22264 0.0
C2330 C 0.64368 0.78643 0.18595 0.0
H2331 H 0.57857 0.79944 0.12947 0.0
H2332 H 0.59774 0.80709 0.1554 0.0
H2333 H 0.62742 0.76796 0.16492 0.0
H2334 H 0.69753 0.79735 0.2297 0.0
H2335 H 0.68021 0.79299 0.20346 0.0
H2336 H 0.65429 0.83709 0.19323 0.0
C2337 C 0.60271 0.80043 0.14566 0.0
C2338 C 0.63332 0.78314 0.17097 0.0
C2339 C 0.59179 0.7961 0.1308 0.0
C2340 C 0.68712 0.80416 0.22789 0.0
C2341 C 0.6769 0.80137 0.2129 0.0
C2342 C 0.64827 0.82183 0.18729 0.0
C2343 C 0.61935 0.79552 0.14808 0.0
C2344 C 0.63026 0.79912 0.16401 0.0
C2345 C 0.66273 0.80937 0.21011 0.0
C2346 C 0.65142 0.80586 0.19426 0.0
H2347 H 0.61958 0.77591 0.1107 0.0
H2348 H 0.63825 0.78306 0.13672 0.0
H2349 H 0.63571 0.83109 0.16717 0.0
H2350 H 0.6668 0.83231 0.24692 0.0
H2351 H 0.64831 0.82672 0.22098 0.0
C2352 C 0.22272 0.78673 0.12716 0.0
C2353 C 0.2315 0.80323 0.11573 0.0
C2354 C 0.2162 0.78992 0.14237 0.0
C2355 C 0.22194 0.83228 0.17079 0.0
H2356 H 0.16864 0.78656 0.18897 0.0
C2357 C 0.15564 0.81797 0.22415 0.0
C2358 C 0.16984 0.82979 0.23686 0.0
C2359 C 0.16374 0.81449 0.20977 0.0
C2360 C 0.18347 0.79956 0.18403 0.0
H2361 H 0.2403 0.836 0.11124 0.0
H2362 H 0.22862 0.84153 0.13767 0.0
H2363 H 0.18166 0.78134 0.1631 0.0
H2364 H 0.20379 0.84727 0.24431 0.0
H2365 H 0.21786 0.84065 0.21941 0.0
H2366 H 0.2233 0.85076 0.19145 0.0
C2367 C 0.22717 0.82623 0.13505 0.0
C2368 C 0.19112 0.79646 0.16927 0.0
C2369 C 0.23383 0.82306 0.11988 0.0
C2370 C 0.19235 0.8379 0.23486 0.0
C2371 C 0.20045 0.83434 0.22048 0.0
C2372 C 0.21423 0.83541 0.18552 0.0
C2373 C 0.21816 0.80966 0.14646 0.0
C2374 C 0.2104 0.81281 0.16242 0.0
C2375 C 0.18625 0.82264 0.20773 0.0
C2376 C 0.19484 0.81913 0.19229 0.0
H2377 H 0.22103 0.77136 0.12438 0.0
H2378 H 0.20971 0.77693 0.15095 0.0
H2379 H 0.23699 0.84513 0.16598 0.0
H2380 H 0.13819 0.81126 0.22534 0.0
H2381 H 0.15234 0.80565 0.20015 0.0
C2382 C 0.21968 0.42309 0.12324 0.0
C2383 C 0.21431 0.43881 0.1194 0.0
C2384 C 0.214 0.41285 0.13827 0.0
C2385 C 0.17554 0.40146 0.17231 0.0
H2386 H 0.21208 0.38338 0.19409 0.0
C2387 C 0.14362 0.34228 0.22548 0.0
C2388 C 0.1579 0.34501 0.23832 0.0
C2389 C 0.15124 0.35469 0.21152 0.0
C2390 C 0.20177 0.38851 0.18828 0.0
H2391 H 0.19967 0.45677 0.1286 0.0
H2392 H 0.19012 0.43926 0.15486 0.0
H2393 H 0.22468 0.40379 0.16912 0.0
H2394 H 0.19151 0.3632 0.24645 0.0
H2395 H 0.2047 0.38528 0.22225 0.0
H2396 H 0.15285 0.38664 0.19161 0.0
C2397 C 0.19817 0.43436 0.14614 0.0
C2398 C 0.20888 0.39999 0.17381 0.0
C2399 C 0.2037 0.44447 0.13109 0.0
C2400 C 0.17999 0.36075 0.23688 0.0
C2401 C 0.18762 0.37325 0.2229 0.0
C2402 C 0.16848 0.39008 0.18679 0.0
C2403 C 0.20294 0.41819 0.14987 0.0
C2404 C 0.1958 0.40652 0.16557 0.0
C2405 C 0.17335 0.37032 0.20999 0.0
C2406 C 0.1814 0.38327 0.19491 0.0
H2407 H 0.22767 0.41824 0.11443 0.0
H2408 H 0.21772 0.40031 0.1406 0.0
H2409 H 0.16486 0.40595 0.16626 0.0
H2410 H 0.12645 0.33054 0.22622 0.0
H2411 H 0.13979 0.35175 0.20179 0.0
C2412 C 0.7694 0.56865 0.89723 0.0
C2413 C 0.78474 0.57185 0.90936 0.0
C2414 C 0.77612 0.57912 0.88234 0.0
C2415 C 0.82234 0.62598 0.86305 0.0
H2416 H 0.79526 0.59668 0.82294 0.0
C2417 C 0.85719 0.66363 0.80104 0.0
C2418 C 0.84237 0.66167 0.78887 0.0
C2419 C 0.84987 0.65202 0.81539 0.0
C2420 C 0.80283 0.60516 0.83404 0.0
H2421 H 0.81922 0.58872 0.91529 0.0
H2422 H 0.83095 0.60661 0.88928 0.0
H2423 H 0.78305 0.57778 0.84864 0.0
H2424 H 0.80814 0.64563 0.78222 0.0
H2425 H 0.79532 0.62531 0.80731 0.0
H2426 H 0.8421 0.65333 0.84853 0.0
C2427 C 0.81368 0.59617 0.89132 0.0
C2428 C 0.79583 0.59433 0.84879 0.0
C2429 C 0.80697 0.58571 0.90619 0.0
C2430 C 0.82002 0.64738 0.79127 0.0
C2431 C 0.81268 0.63574 0.80566 0.0
C2432 C 0.82933 0.63678 0.84834 0.0
C2433 C 0.79835 0.59309 0.87921 0.0
C2434 C 0.80556 0.60458 0.86348 0.0
C2435 C 0.8275 0.63811 0.81799 0.0
C2436 C 0.81976 0.62651 0.83363 0.0
H2437 H 0.75217 0.55792 0.89919 0.0
H2438 H 0.76384 0.57649 0.87336 0.0
H2439 H 0.82992 0.63452 0.87413 0.0
H2440 H 0.87455 0.67415 0.79947 0.0
H2441 H 0.86179 0.65391 0.82445 0.0
C2442 C 0.4309 0.19677 0.89678 0.0
C2443 C 0.42538 0.20597 0.9096 0.0
C2444 C 0.41976 0.19225 0.88203 0.0
C2445 C 0.36873 0.185 0.86336 0.0
H2446 H 0.40088 0.19462 0.82336 0.0
C2447 C 0.33294 0.18541 0.80062 0.0
C2448 C 0.33614 0.17395 0.7882 0.0
C2449 C 0.34355 0.18867 0.81551 0.0
C2450 C 0.39168 0.19168 0.83445 0.0
H2451 H 0.40359 0.21738 0.91696 0.0
H2452 H 0.38479 0.2103 0.89107 0.0
H2453 H 0.42003 0.20178 0.84921 0.0
H2454 H 0.35282 0.15667 0.78185 0.0
H2455 H 0.37172 0.16283 0.80775 0.0
H2456 H 0.34048 0.17537 0.84849 0.0
C2457 C 0.39745 0.20618 0.8925 0.0
C2458 C 0.40261 0.19571 0.84927 0.0
C2459 C 0.40846 0.21054 0.90729 0.0
C2460 C 0.35026 0.16588 0.79103 0.0
C2461 C 0.36104 0.16933 0.80587 0.0
C2462 C 0.35786 0.18117 0.84854 0.0
C2463 C 0.40294 0.19697 0.87968 0.0
C2464 C 0.39128 0.19244 0.86391 0.0
C2465 C 0.35775 0.18073 0.81825 0.0
C2466 C 0.36923 0.1845 0.83395 0.0
H2467 H 0.44401 0.19327 0.89806 0.0
H2468 H 0.42425 0.1849 0.8725 0.0
H2469 H 0.3594 0.18191 0.87439 0.0
H2470 H 0.32251 0.19219 0.79878 0.0
H2471 H 0.34095 0.19775 0.82478 0.0
C2472 C 0.8249 0.22908 0.90561 0.0
C2473 C 0.80294 0.22287 0.90843 0.0
C2474 C 0.83147 0.22529 0.89066 0.0
C2475 C 0.81231 0.19254 0.85376 0.0
H2476 H 0.86441 0.23926 0.835 0.0
C2477 C 0.8424 0.18809 0.78936 0.0
C2478 C 0.86504 0.19701 0.78737 0.0
C2479 C 0.83392 0.19108 0.80378 0.0
C2480 C 0.84998 0.22595 0.84013 0.0
H2481 H 0.77054 0.20724 0.8978 0.0
H2482 H 0.78204 0.20033 0.87165 0.0
H2483 H 0.85123 0.24416 0.86093 0.0
H2484 H 0.89649 0.21634 0.79898 0.0
H2485 H 0.88175 0.22097 0.8242 0.0
H2486 H 0.81128 0.17421 0.83306 0.0
C2487 C 0.79414 0.20817 0.88109 0.0
C2488 C 0.8424 0.22879 0.85499 0.0
C2489 C 0.78756 0.21209 0.89607 0.0
C2490 C 0.87896 0.20901 0.80014 0.0
C2491 C 0.8705 0.21192 0.81455 0.0
C2492 C 0.81998 0.18965 0.83891 0.0
C2493 C 0.81623 0.21505 0.87816 0.0
C2494 C 0.82362 0.21207 0.86205 0.0
C2495 C 0.84789 0.20304 0.81657 0.0
C2496 C 0.83905 0.20627 0.83199 0.0
H2497 H 0.8371 0.23696 0.91498 0.0
H2498 H 0.84854 0.23038 0.88888 0.0
H2499 H 0.79786 0.17933 0.85897 0.0
H2500 H 0.83118 0.17858 0.77984 0.0
H2501 H 0.81644 0.18418 0.80486 0.0
C2502 C 0.28609 0.11661 0.44996 0.0
C2503 C 0.26977 0.12172 0.44657 0.0
C2504 C 0.29522 0.11986 0.46541 0.0
C2505 C 0.30518 0.15052 0.50273 0.0
H2506 H 0.30978 0.10424 0.52213 0.0
C2507 C 0.33469 0.15425 0.56868 0.0
C2508 C 0.34822 0.14556 0.57168 0.0
C2509 C 0.32447 0.15142 0.55364 0.0
C2510 C 0.3089 0.11744 0.51683 0.0
H2511 H 0.25045 0.13453 0.45678 0.0
H2512 H 0.26686 0.14066 0.48374 0.0
H2513 H 0.29362 0.09963 0.49532 0.0
H2514 H 0.36141 0.12688 0.56122 0.0
H2515 H 0.34438 0.12271 0.53491 0.0
H2516 H 0.32092 0.16855 0.52406 0.0
C2517 C 0.2725 0.13411 0.47436 0.0
C2518 C 0.29957 0.11475 0.50149 0.0
C2519 C 0.26318 0.13066 0.45892 0.0
C2520 C 0.35134 0.13405 0.55928 0.0
C2521 C 0.34128 0.13137 0.54424 0.0
C2522 C 0.31473 0.15331 0.51804 0.0
C2523 C 0.28842 0.1285 0.47778 0.0
C2524 C 0.29775 0.1313 0.49426 0.0
C2525 C 0.32764 0.13993 0.54124 0.0
C2526 C 0.31685 0.13684 0.52522 0.0
H2527 H 0.2919 0.11014 0.44065 0.0
H2528 H 0.30774 0.11573 0.46766 0.0
H2529 H 0.3041 0.16359 0.49736 0.0
H2530 H 0.33212 0.16342 0.57789 0.0
H2531 H 0.3139 0.15805 0.55182 0.0
C2532 C 0.9115 0.14663 0.46087 0.0
C2533 C 0.89642 0.13717 0.44813 0.0
C2534 C 0.90489 0.1504 0.47587 0.0
C2535 C 0.86023 0.15523 0.49522 0.0
H2536 H 0.88361 0.14607 0.53496 0.0
C2537 C 0.82266 0.1525 0.5575 0.0
C2538 C 0.8371 0.16409 0.57016 0.0
C2539 C 0.8305 0.14949 0.54281 0.0
C2540 C 0.8771 0.14888 0.52396 0.0
H2541 H 0.86256 0.12452 0.44119 0.0
H2542 H 0.85093 0.13036 0.4674 0.0
H2543 H 0.89614 0.14034 0.5089 0.0
H2544 H 0.8712 0.18146 0.57726 0.0
H2545 H 0.88483 0.17583 0.55167 0.0
H2546 H 0.84092 0.16339 0.5103 0.0
C2547 C 0.86796 0.13522 0.46577 0.0
C2548 C 0.8843 0.14565 0.50902 0.0
C2549 C 0.87458 0.13158 0.45077 0.0
C2550 C 0.85958 0.17222 0.56786 0.0
C2551 C 0.86741 0.16906 0.55319 0.0
C2552 C 0.85292 0.15828 0.51014 0.0
C2553 C 0.88303 0.14474 0.47851 0.0
C2554 C 0.87586 0.14868 0.49445 0.0
C2555 C 0.85296 0.15784 0.54046 0.0
C2556 C 0.86118 0.15503 0.52466 0.0
H2557 H 0.9284 0.15095 0.45933 0.0
H2558 H 0.917 0.15796 0.48534 0.0
H2559 H 0.85371 0.15818 0.48428 0.0
H2560 H 0.80522 0.1456 0.55894 0.0
H2561 H 0.81893 0.14046 0.53332 0.0
C2562 C 0.87187 0.77439 0.46413 0.0
C2563 C 0.88115 0.7682 0.45174 0.0
C2564 C 0.86674 0.764 0.47908 0.0
C2565 C 0.85217 0.71282 0.49753 0.0
H2566 H 0.86641 0.74392 0.53814 0.0
C2567 C 0.83253 0.66878 0.55863 0.0
C2568 C 0.82555 0.67669 0.57142 0.0
C2569 C 0.84087 0.68057 0.54444 0.0
C2570 C 0.86202 0.73494 0.52693 0.0
H2571 H 0.89245 0.74636 0.44532 0.0
H2572 H 0.88324 0.72798 0.47143 0.0
H2573 H 0.87797 0.76337 0.51265 0.0
H2574 H 0.82194 0.70322 0.57943 0.0
H2575 H 0.83586 0.72358 0.55451 0.0
H2576 H 0.83558 0.68444 0.51158 0.0
C2577 C 0.88001 0.74093 0.46956 0.0
C2578 C 0.86876 0.74612 0.51232 0.0
C2579 C 0.88543 0.75154 0.45468 0.0
C2580 C 0.82738 0.69681 0.56982 0.0
C2581 C 0.83545 0.7085 0.55553 0.0
C2582 C 0.84519 0.70164 0.5121 0.0
C2583 C 0.87051 0.74698 0.4819 0.0
C2584 C 0.86391 0.73518 0.49747 0.0
C2585 C 0.84217 0.70048 0.54256 0.0
C2586 C 0.84999 0.71251 0.52704 0.0
H2587 H 0.86853 0.78728 0.46224 0.0
H2588 H 0.85931 0.76892 0.48831 0.0
H2589 H 0.8479 0.70395 0.48627 0.0
H2590 H 0.8316 0.65345 0.55962 0.0
H2591 H 0.84635 0.67403 0.53496 0.0
loop_
_geom_bond_atom_site_label_1
_geom_bond_atom_site_label_2
_geom_bond_distance
_geom_bond_site_symmetry_2
_ccdc_geom_bond_type
H0 C5 0.930 . S
H1 C8 0.930 . S
H2 C10 0.930 . S
H3 C4 1.016 . S
C4 H3 1.016 . S
C4 N11 1.286 . S
C5 H0 0.930 . S
C5 C6 1.397 . S
C5 C7 1.361 . S
C6 C5 1.397 . S
C6 C10 1.390 . S
C7 C5 1.361 . S
C7 C8 1.393 . S
C7 N11 1.413 . S
C8 H1 0.930 . S
C8 C7 1.393 . S
C8 C9 1.399 . S
C9 C8 1.399 . S
C9 C10 1.381 . S
C10 H2 0.930 . S
C10 C6 1.390 . S
C10 C9 1.381 . S
N11 C4 1.286 . S
N11 C7 1.413 . S
H12 C17 0.930 . S
H13 C20 0.930 . S
H14 C22 0.930 . S
H15 C16 1.016 . S
C16 H15 1.016 . S
C16 N23 1.286 . S
C17 H12 0.930 . S
C17 C18 1.397 . S
C17 C19 1.361 . S
C18 C17 1.397 . S
C18 C22 1.390 . S
C19 C17 1.361 . S
C19 C20 1.393 . S
C19 N23 1.413 . S
C20 H13 0.930 . S
C20 C19 1.393 . S
C20 C21 1.399 . S
C21 C20 1.399 . S
C21 C22 1.381 . S
C22 H14 0.930 . S
C22 C18 1.390 . S
C22 C21 1.381 . S
N23 C16 1.286 . S
N23 C19 1.413 . S
H24 C29 0.930 . S
H25 C32 0.930 . S
H26 C34 0.930 . S
H27 C28 1.016 . S
C28 H27 1.016 . S
C28 N35 1.286 . S
C29 H24 0.930 . S
C29 C30 1.397 . S
C29 C31 1.361 . S
C30 C29 1.397 . S
C30 C34 1.390 . S
C31 C29 1.361 . S
C31 C32 1.393 . S
C31 N35 1.413 . S
C32 H25 0.930 . S
C32 C31 1.393 . S
C32 C33 1.399 . S
C33 C32 1.399 . S
C33 C34 1.381 . S
C34 H26 0.930 . S
C34 C30 1.390 . S
C34 C33 1.381 . S
N35 C28 1.286 . S
N35 C31 1.413 . S
H36 C41 0.930 . S
H37 C44 0.930 . S
H38 C46 0.930 . S
H39 C40 1.016 . S
C40 H39 1.016 . S
C40 N47 1.286 . S
C41 H36 0.930 . S
C41 C42 1.397 . S
C41 C43 1.361 . S
C42 C41 1.397 . S
C42 C46 1.390 . S
C43 C41 1.361 . S
C43 C44 1.393 . S
C43 N47 1.413 . S
C44 H37 0.930 . S
C44 C43 1.393 . S
C44 C45 1.399 . S
C45 C44 1.399 . S
C45 C46 1.381 . S
C46 H38 0.930 . S
C46 C42 1.390 . S
C46 C45 1.381 . S
N47 C40 1.286 . S
N47 C43 1.413 . S
H48 C53 0.930 . S
H49 C56 0.930 . S
H50 C58 0.930 . S
H51 C52 1.016 . S
C52 H51 1.016 . S
C52 N59 1.286 . S
C53 H48 0.930 . S
C53 C54 1.397 . S
C53 C55 1.361 . S
C54 C53 1.397 . S
C54 C58 1.390 . S
C55 C53 1.361 . S
C55 C56 1.393 . S
C55 N59 1.413 . S
C56 H49 0.930 . S
C56 C55 1.393 . S
C56 C57 1.399 . S
C57 C56 1.399 . S
C57 C58 1.381 . S
C58 H50 0.930 . S
C58 C54 1.390 . S
C58 C57 1.381 . S
N59 C52 1.286 . S
N59 C55 1.413 . S
H60 C65 0.930 . S
H61 C68 0.930 . S
H62 C70 0.930 . S
H63 C64 1.016 . S
C64 H63 1.016 . S
C64 N71 1.286 . S
C65 H60 0.930 . S
C65 C66 1.397 . S
C65 C67 1.361 . S
C66 C65 1.397 . S
C66 C70 1.390 . S
C67 C65 1.361 . S
C67 C68 1.393 . S
C67 N71 1.413 . S
C68 H61 0.930 . S
C68 C67 1.393 . S
C68 C69 1.399 . S
C69 C68 1.399 . S
C69 C70 1.381 . S
C70 H62 0.930 . S
C70 C66 1.390 . S
C70 C69 1.381 . S
N71 C64 1.286 . S
N71 C67 1.413 . S
H72 C77 0.930 . S
H73 C80 0.930 . S
H74 C82 0.930 . S
H75 C76 1.016 . S
C76 H75 1.016 . S
C76 N83 1.286 . S
C77 H72 0.930 . S
C77 C78 1.397 . S
C77 C79 1.361 . S
C78 C77 1.397 . S
C78 C82 1.390 . S
C79 C77 1.361 . S
C79 C80 1.393 . S
C79 N83 1.413 . S
C80 H73 0.930 . S
C80 C79 1.393 . S
C80 C81 1.399 . S
C81 C80 1.399 . S
C81 C82 1.381 . S
C82 H74 0.930 . S
C82 C78 1.390 . S
C82 C81 1.381 . S
N83 C76 1.286 . S
N83 C79 1.413 . S
H84 C89 0.930 . S
H85 C92 0.930 . S
H86 C94 0.930 . S
H87 C88 1.016 . S
C88 H87 1.016 . S
C88 N95 1.286 . S
C89 H84 0.930 . S
C89 C90 1.397 . S
C89 C91 1.361 . S
C90 C89 1.397 . S
C90 C94 1.390 . S
C91 C89 1.361 . S
C91 C92 1.393 . S
C91 N95 1.413 . S
C92 H85 0.930 . S
C92 C91 1.393 . S
C92 C93 1.399 . S
C93 C92 1.399 . S
C93 C94 1.381 . S
C94 H86 0.930 . S
C94 C90 1.390 . S
C94 C93 1.381 . S
N95 C88 1.286 . S
N95 C91 1.413 . S
H96 C101 0.930 . S
H97 C104 0.930 . S
H98 C106 0.930 . S
H99 C100 1.016 . S
C100 H99 1.016 . S
C100 N107 1.286 . S
C101 H96 0.930 . S
C101 C102 1.397 . S
C101 C103 1.361 . S
C102 C101 1.397 . S
C102 C106 1.390 . S
C103 C101 1.361 . S
C103 C104 1.393 . S
C103 N107 1.413 . S
C104 H97 0.930 . S
C104 C103 1.393 . S
C104 C105 1.399 . S
C105 C104 1.399 . S
C105 C106 1.381 . S
C106 H98 0.930 . S
C106 C102 1.390 . S
C106 C105 1.381 . S
N107 C100 1.286 . S
N107 C103 1.413 . S
H108 C113 0.930 . S
H109 C116 0.930 . S
H110 C118 0.930 . S
H111 C112 1.016 . S
C112 H111 1.016 . S
C112 N119 1.286 . S
C113 H108 0.930 . S
C113 C114 1.397 . S
C113 C115 1.361 . S
C114 C113 1.397 . S
C114 C118 1.390 . S
C115 C113 1.361 . S
C115 C116 1.393 . S
C115 N119 1.413 . S
C116 H109 0.930 . S
C116 C115 1.393 . S
C116 C117 1.399 . S
C117 C116 1.399 . S
C117 C118 1.381 . S
C118 H110 0.930 . S
C118 C114 1.390 . S
C118 C117 1.381 . S
N119 C112 1.286 . S
N119 C115 1.413 . S
H120 C125 0.930 . S
H121 C128 0.930 . S
H122 C130 0.930 . S
H123 C124 1.016 . S
C124 H123 1.016 . S
C124 N131 1.286 . S
C125 H120 0.930 . S
C125 C126 1.397 . S
C125 C127 1.361 . S
C126 C125 1.397 . S
C126 C130 1.390 . S
C127 C125 1.361 . S
C127 C128 1.393 . S
C127 N131 1.413 . S
C128 H121 0.930 . S
C128 C127 1.393 . S
C128 C129 1.399 . S
C129 C128 1.399 . S
C129 C130 1.381 . S
C130 H122 0.930 . S
C130 C126 1.390 . S
C130 C129 1.381 . S
N131 C124 1.286 . S
N131 C127 1.413 . S
H132 C137 0.930 . S
H133 C140 0.930 . S
H134 C142 0.930 . S
H135 C136 1.016 . S
C136 H135 1.016 . S
C136 N143 1.286 . S
C137 H132 0.930 . S
C137 C138 1.397 . S
C137 C139 1.361 . S
C138 C137 1.397 . S
C138 C142 1.390 . S
C139 C137 1.361 . S
C139 C140 1.393 . S
C139 N143 1.413 . S
C140 H133 0.930 . S
C140 C139 1.393 . S
C140 C141 1.399 . S
C141 C140 1.399 . S
C141 C142 1.381 . S
C142 H134 0.930 . S
C142 C138 1.390 . S
C142 C141 1.381 . S
N143 C136 1.286 . S
N143 C139 1.413 . S
H144 C149 0.930 . S
H145 C152 0.930 . S
H146 C154 0.930 . S
H147 C148 1.016 . S
C148 H147 1.016 . S
C148 N155 1.286 . S
C149 H144 0.930 . S
C149 C150 1.397 . S
C149 C151 1.361 . S
C150 C149 1.397 . S
C150 C154 1.390 . S
C151 C149 1.361 . S
C151 C152 1.393 . S
C151 N155 1.413 . S
C152 H145 0.930 . S
C152 C151 1.393 . S
C152 C153 1.399 . S
C153 C152 1.399 . S
C153 C154 1.381 . S
C154 H146 0.930 . S
C154 C150 1.390 . S
C154 C153 1.381 . S
N155 C148 1.286 . S
N155 C151 1.413 . S
H156 C161 0.930 . S
H157 C164 0.930 . S
H158 C166 0.930 . S
H159 C160 1.016 . S
C160 H159 1.016 . S
C160 N167 1.286 . S
C161 H156 0.930 . S
C161 C162 1.397 . S
C161 C163 1.361 . S
C162 C161 1.397 . S
C162 C166 1.390 . S
C163 C161 1.361 . S
C163 C164 1.393 . S
C163 N167 1.413 . S
C164 H157 0.930 . S
C164 C163 1.393 . S
C164 C165 1.399 . S
C165 C164 1.399 . S
C165 C166 1.381 . S
C166 H158 0.930 . S
C166 C162 1.390 . S
C166 C165 1.381 . S
N167 C160 1.286 . S
N167 C163 1.413 . S
H168 C173 0.930 . S
H169 C176 0.930 . S
H170 C178 0.930 . S
H171 C172 1.016 . S
C172 H171 1.016 . S
C172 N179 1.286 . S
C173 H168 0.930 . S
C173 C174 1.397 . S
C173 C175 1.361 . S
C174 C173 1.397 . S
C174 C178 1.390 . S
C175 C173 1.361 . S
C175 C176 1.393 . S
C175 N179 1.413 . S
C176 H169 0.930 . S
C176 C175 1.393 . S
C176 C177 1.399 . S
C177 C176 1.399 . S
C177 C178 1.381 . S
C178 H170 0.930 . S
C178 C174 1.390 . S
C178 C177 1.381 . S
N179 C172 1.286 . S
N179 C175 1.413 . S
H180 C185 0.930 . S
H181 C188 0.930 . S
H182 C190 0.930 . S
H183 C184 1.016 . S
C184 H183 1.016 . S
C184 N191 1.286 . S
C185 H180 0.930 . S
C185 C186 1.397 . S
C185 C187 1.361 . S
C186 C185 1.397 . S
C186 C190 1.390 . S
C187 C185 1.361 . S
C187 C188 1.393 . S
C187 N191 1.413 . S
C188 H181 0.930 . S
C188 C187 1.393 . S
C188 C189 1.399 . S
C189 C188 1.399 . S
C189 C190 1.381 . S
C190 H182 0.930 . S
C190 C186 1.390 . S
C190 C189 1.381 . S
N191 C184 1.286 . S
N191 C187 1.413 . S
H192 C197 0.930 . S
H193 C200 0.930 . S
H194 C202 0.930 . S
H195 C196 1.016 . S
C196 H195 1.016 . S
C196 N203 1.286 . S
C197 H192 0.930 . S
C197 C198 1.397 . S
C197 C199 1.361 . S
C198 C197 1.397 . S
C198 C202 1.390 . S
C199 C197 1.361 . S
C199 C200 1.393 . S
C199 N203 1.413 . S
C200 H193 0.930 . S
C200 C199 1.393 . S
C200 C201 1.399 . S
C201 C200 1.399 . S
C201 C202 1.381 . S
C202 H194 0.930 . S
C202 C198 1.390 . S
C202 C201 1.381 . S
N203 C196 1.286 . S
N203 C199 1.413 . S
H204 C209 0.930 . S
H205 C212 0.930 . S
H206 C214 0.930 . S
H207 C208 1.016 . S
C208 H207 1.016 . S
C208 N215 1.286 . S
C209 H204 0.930 . S
C209 C210 1.397 . S
C209 C211 1.361 . S
C210 C209 1.397 . S
C210 C214 1.390 . S
C211 C209 1.361 . S
C211 C212 1.393 . S
C211 N215 1.413 . S
C212 H205 0.930 . S
C212 C211 1.393 . S
C212 C213 1.399 . S
C213 C212 1.399 . S
C213 C214 1.381 . S
C214 H206 0.930 . S
C214 C210 1.390 . S
C214 C213 1.381 . S
N215 C208 1.286 . S
N215 C211 1.413 . S
Tb216 N247 2.660 . S
Tb216 N254 2.600 . S
Tb216 O260 2.546 . S
Tb216 O261 2.610 1_566 S
Tb216 O263 2.320 1_565 S
Tb216 O264 2.552 1_565 S
Tb216 O265 2.413 1_565 S
Tb216 O267 2.362 1_556 S
Tb216 O268 2.421 1_556 S
Tb216 C280 2.833 1_565 S
C217 C220 1.432 . S
C217 C221 1.414 . S
C217 N224 1.359 . S
C218 C220 1.417 . S
C218 C222 1.432 . S
C218 C230 1.410 . S
C219 C221 1.444 . S
C219 C222 1.317 . S
C219 H242 0.929 . S
C220 C217 1.432 . S
C220 C218 1.417 . S
C220 N228 1.360 . S
C221 C217 1.414 . S
C221 C219 1.444 . S
C221 C226 1.385 . S
C222 C218 1.432 . S
C222 C219 1.317 . S
C222 H234 0.930 . S
C223 C225 1.392 . S
C223 C226 1.370 . S
C223 H235 0.931 . S
N224 C217 1.359 . S
N224 C225 1.327 . S
N224 Tb227 2.600 . S
C225 C223 1.392 . S
C225 N224 1.327 . S
C225 H232 0.930 . S
C226 C221 1.385 . S
C226 C223 1.370 . S
C226 H245 0.930 . S
Tb227 N224 2.600 . S
Tb227 N228 2.660 . S
Tb227 O261 2.362 . S
Tb227 O262 2.421 . S
Tb227 O266 2.546 . S
Tb227 O267 2.610 1_545 S
Tb227 O269 2.320 1_545 S
Tb227 O270 2.552 1_545 S
Tb227 O271 2.389 1_545 S
Tb227 C291 2.833 . S
N228 C220 1.360 . S
N228 Tb227 2.660 . S
N228 C229 1.305 . S
C229 N228 1.305 . S
C229 C231 1.407 . S
C229 H236 0.930 . S
C230 C218 1.410 . S
C230 C231 1.345 . S
C230 H238 0.930 . S
C231 C229 1.407 . S
C231 C230 1.345 . S
C231 H233 0.930 . S
H232 C225 0.930 . S
H233 C231 0.930 . S
H234 C222 0.930 . S
H235 C223 0.931 . S
H236 C229 0.930 . S
H237 C251 0.930 . S
H238 C230 0.930 . S
H239 C257 0.930 . S
H240 C248 0.932 . S
H241 C255 0.931 . S
H242 C219 0.929 . S
H243 C249 0.930 . S
H244 C282 0.930 . S
H245 C226 0.930 . S
H246 C281 0.929 . S
N247 Tb216 2.660 . S
N247 C248 1.305 . S
N247 C252 1.360 . S
C248 H240 0.932 . S
C248 N247 1.305 . S
C248 C251 1.407 . S
C249 H243 0.930 . S
C249 C250 1.410 . S
C249 C251 1.345 . S
C250 C249 1.410 . S
C250 C252 1.417 . S
C250 C282 1.432 . S
C251 H237 0.930 . S
C251 C248 1.407 . S
C251 C249 1.345 . S
C252 N247 1.360 . S
C252 C250 1.417 . S
C252 C256 1.432 . S
H253 C258 0.930 . S
N254 Tb216 2.600 . S
N254 C256 1.359 . S
N254 C257 1.327 . S
C255 H241 0.931 . S
C255 C257 1.392 . S
C255 C258 1.370 . S
C256 C252 1.432 . S
C256 N254 1.359 . S
C256 C259 1.414 . S
C257 H239 0.930 . S
C257 N254 1.327 . S
C257 C255 1.392 . S
C258 H253 0.930 . S
C258 C255 1.370 . S
C258 C259 1.385 . S
C259 C256 1.414 . S
C259 C258 1.385 . S
C259 C281 1.444 . S
O260 Tb216 2.546 . S
O260 C280 1.251 1_565 S
O261 Tb216 2.610 1_544 S
O261 Tb227 2.362 . S
O261 C272 1.283 1_554 S
O262 Tb227 2.421 . S
O262 C279 1.262 . S
O263 Tb216 2.320 1_545 S
O263 C279 1.260 1_556 S
O264 Tb216 2.552 1_545 S
O264 C272 1.243 . S
O265 Tb216 2.413 1_545 S
O265 C280 1.256 . S
O266 Tb227 2.546 . S
O266 C291 1.251 . S
O267 Tb216 2.362 1_554 S
O267 Tb227 2.610 1_565 S
O267 C283 1.283 . S
O268 Tb216 2.421 1_554 S
O268 C290 1.262 . S
O269 Tb227 2.320 1_565 S
O269 C290 1.260 . S
O270 Tb227 2.552 1_565 S
O270 C283 1.243 . S
O271 Tb227 2.389 1_565 S
O271 C291 1.216 1_565 S
C272 O261 1.283 1_556 S
C272 O264 1.243 . S
C273 C275 1.382 . S
C273 C277 1.393 1_545 S
C273 C280 1.500 . S
C274 C275 1.400 . S
C274 C276 1.384 . S
C275 C273 1.382 . S
C275 C274 1.400 . S
C275 H292 0.930 . S
C276 C274 1.384 . S
C276 C278 1.360 1_545 S
C276 H293 0.931 . S
C277 C273 1.393 1_565 S
C277 C278 1.407 . S
C277 H294 0.930 . S
C278 C276 1.360 1_565 S
C278 C277 1.407 . S
C278 H295 0.957 . S
C279 O262 1.262 . S
C279 O263 1.260 1_554 S
C280 Tb216 2.833 1_545 S
C280 O260 1.251 1_545 S
C280 O265 1.256 . S
C280 C273 1.500 . S
C281 H246 0.929 . S
C281 C259 1.444 . S
C281 C282 1.317 . S
C282 H244 0.930 . S
C282 C250 1.432 . S
C282 C281 1.317 . S
C283 O267 1.283 . S
C283 O270 1.243 . S
C284 C285 1.331 1_545 S
C284 C288 1.436 . S
C284 C291 1.509 . S
C285 C284 1.331 1_565 S
C285 C286 1.400 . S
C285 H296 0.930 . S
C286 C285 1.400 . S
C286 C287 1.384 . S
C287 C286 1.384 . S
C287 C289 1.392 1_565 S
C287 H297 0.931 . S
C288 C284 1.436 . S
C288 C289 1.401 . S
C288 H298 0.930 . S
C289 C287 1.392 1_545 S
C289 C288 1.401 . S
C289 H299 0.930 . S
C290 O268 1.262 . S
C290 O269 1.260 . S
C291 Tb227 2.833 . S
C291 O266 1.251 . S
C291 O271 1.216 1_545 S
C291 C284 1.509 . S
H292 C275 0.930 . S
H293 C276 0.931 . S
H294 C277 0.930 . S
H295 C278 0.957 . S
H296 C285 0.930 . S
H297 C287 0.931 . S
H298 C288 0.930 . S
H299 C289 0.930 . S
Tb300 N331 2.660 . S
Tb300 N338 2.600 . S
Tb300 O344 2.546 . S
Tb300 O345 2.610 1_456 S
Tb300 O347 2.320 1_455 S
Tb300 O348 2.552 1_455 S
Tb300 O349 2.413 . S
Tb300 O351 2.362 1_556 S
Tb300 O352 2.421 1_556 S
Tb300 C364 2.833 . S
C301 C304 1.432 . S
C301 C305 1.414 . S
C301 N308 1.359 . S
C302 C304 1.417 . S
C302 C306 1.432 . S
C302 C314 1.410 . S
C303 C305 1.444 . S
C303 C306 1.317 . S
C303 H326 0.929 . S
C304 C301 1.432 . S
C304 C302 1.417 . S
C304 N312 1.360 . S
C305 C301 1.414 . S
C305 C303 1.444 . S
C305 C310 1.385 . S
C306 C302 1.432 . S
C306 C303 1.317 . S
C306 H318 0.930 . S
C307 C309 1.392 . S
C307 C310 1.370 . S
C307 H319 0.931 . S
N308 C301 1.359 . S
N308 C309 1.327 . S
N308 Tb311 2.600 . S
C309 C307 1.392 . S
C309 N308 1.327 . S
C309 H316 0.930 . S
C310 C305 1.385 . S
C310 C307 1.370 . S
C310 H329 0.930 . S
Tb311 N308 2.600 . S
Tb311 N312 2.660 . S
Tb311 O345 2.362 . S
Tb311 O346 2.421 . S
Tb311 O350 2.546 . S
Tb311 O351 2.610 1_655 S
Tb311 O353 2.320 1_655 S
Tb311 O354 2.552 1_655 S
Tb311 O355 2.413 1_655 S
Tb311 C375 2.833 1_655 S
N312 C304 1.360 . S
N312 Tb311 2.660 . S
N312 C313 1.305 . S
C313 N312 1.305 . S
C313 C315 1.407 . S
C313 H320 0.917 1_655 S
C314 C302 1.410 . S
C314 C315 1.345 . S
C314 H322 0.930 . S
C315 C313 1.407 . S
C315 C314 1.345 . S
C315 H317 0.930 . S
H316 C309 0.930 . S
H317 C315 0.930 . S
H318 C306 0.930 . S
H319 C307 0.931 . S
H320 C313 0.917 1_455 S
H321 C335 0.930 . S
H322 C314 0.930 . S
H323 C341 0.930 . S
H324 C332 0.930 . S
H325 C339 0.931 . S
H326 C303 0.929 . S
H327 C333 0.930 . S
H328 C366 0.930 . S
H329 C310 0.930 . S
H330 C365 0.929 . S
N331 Tb300 2.660 . S
N331 C332 1.305 . S
N331 C336 1.360 . S
C332 H324 0.930 . S
C332 N331 1.305 . S
C332 C335 1.407 . S
C333 H327 0.930 . S
C333 C334 1.410 . S
C333 C335 1.345 . S
C334 C333 1.410 . S
C334 C336 1.417 . S
C334 C366 1.432 . S
C335 H321 0.930 . S
C335 C332 1.407 . S
C335 C333 1.345 . S
C336 N331 1.360 . S
C336 C334 1.417 . S
C336 C340 1.432 . S
H337 C342 0.930 . S
N338 Tb300 2.600 . S
N338 C340 1.359 . S
N338 C341 1.327 . S
C339 H325 0.931 . S
C339 C341 1.392 . S
C339 C342 1.370 . S
C340 C336 1.432 . S
C340 N338 1.359 . S
C340 C343 1.414 . S
C341 H323 0.930 . S
C341 N338 1.327 . S
C341 C339 1.392 . S
C342 H337 0.930 . S
C342 C339 1.370 . S
C342 C343 1.385 . S
C343 C340 1.414 . S
C343 C342 1.385 . S
C343 C365 1.444 . S
O344 Tb300 2.546 . S
O344 C364 1.251 . S
O345 Tb300 2.610 1_654 S
O345 Tb311 2.362 . S
O345 C356 1.283 1_554 S
O346 Tb311 2.421 . S
O346 C363 1.262 . S
O347 Tb300 2.320 1_655 S
O347 C363 1.260 1_556 S
O348 Tb300 2.552 1_655 S
O348 C356 1.243 . S
O349 Tb300 2.413 . S
O349 C364 1.256 . S
O350 Tb311 2.546 . S
O350 C375 1.251 1_655 S
O351 Tb300 2.362 1_554 S
O351 Tb311 2.610 1_455 S
O351 C367 1.283 . S
O352 Tb300 2.421 1_554 S
O352 C374 1.262 . S
O353 Tb311 2.320 1_455 S
O353 C374 1.260 . S
O354 Tb311 2.552 1_455 S
O354 C367 1.243 . S
O355 Tb311 2.413 1_455 S
O355 C375 1.256 . S
C356 O345 1.283 1_556 S
C356 O348 1.243 . S
C357 C359 1.382 1_455 S
C357 C361 1.393 . S
C357 C364 1.500 . S
C358 C359 1.400 . S
C358 C360 1.384 . S
C359 C357 1.382 1_655 S
C359 C358 1.400 . S
C359 H376 0.930 . S
C360 C358 1.384 . S
C360 C362 1.392 1_655 S
C360 H377 0.931 . S
C361 C357 1.393 . S
C361 C362 1.401 . S
C361 H378 0.930 . S
C362 C360 1.392 1_455 S
C362 C361 1.401 . S
C362 H379 0.930 . S
C363 O346 1.262 . S
C363 O347 1.260 1_554 S
C364 Tb300 2.833 . S
C364 O344 1.251 . S
C364 O349 1.256 . S
C364 C357 1.500 . S
C365 H330 0.929 . S
C365 C343 1.444 . S
C365 C366 1.317 . S
C366 H328 0.930 . S
C366 C334 1.432 . S
C366 C365 1.317 . S
C367 O351 1.283 . S
C367 O354 1.243 . S
C368 C369 1.382 . S
C368 C372 1.393 1_455 S
C368 C375 1.500 . S
C369 C368 1.382 . S
C369 C370 1.400 . S
C369 H380 0.930 . S
C370 C369 1.400 . S
C370 C371 1.384 . S
C371 C370 1.384 . S
C371 C373 1.392 1_455 S
C371 H381 0.931 . S
C372 C368 1.393 1_655 S
C372 C373 1.401 . S
C372 H382 0.930 . S
C373 C371 1.392 1_655 S
C373 C372 1.401 . S
C373 H383 0.930 . S
C374 O352 1.262 . S
C374 O353 1.260 . S
C375 Tb311 2.833 1_455 S
C375 O350 1.251 1_455 S
C375 O355 1.256 . S
C375 C368 1.500 . S
H376 C359 0.930 . S
H377 C360 0.931 . S
H378 C361 0.930 . S
H379 C362 0.930 . S
H380 C369 0.930 . S
H381 C371 0.931 . S
H382 C372 0.930 . S
H383 C373 0.930 . S
Tb384 N415 2.660 . S
Tb384 N422 2.600 . S
Tb384 O428 2.546 . S
Tb384 O429 2.610 . S
Tb384 O431 2.320 . S
Tb384 O432 2.552 . S
Tb384 O433 2.413 . S
Tb384 O435 2.362 . S
Tb384 O436 2.421 . S
Tb384 C448 2.833 . S
C385 C388 1.432 . S
C385 C389 1.414 . S
C385 N392 1.359 . S
C386 C388 1.417 . S
C386 C390 1.432 . S
C386 C398 1.410 . S
C387 C389 1.444 . S
C387 C390 1.317 . S
C387 H410 0.929 . S
C388 C385 1.432 . S
C388 C386 1.417 . S
C388 N396 1.360 . S
C389 C385 1.414 . S
C389 C387 1.444 . S
C389 C394 1.385 . S
C390 C386 1.432 . S
C390 C387 1.317 . S
C390 H402 0.930 . S
C391 C393 1.392 . S
C391 C394 1.370 . S
C391 H403 0.931 . S
N392 C385 1.359 . S
N392 C393 1.327 . S
N392 Tb395 2.600 . S
C393 C391 1.392 . S
C393 N392 1.327 . S
C393 H400 0.930 . S
C394 C389 1.385 . S
C394 C391 1.370 . S
C394 H413 0.930 . S
Tb395 N392 2.600 . S
Tb395 N396 2.660 . S
Tb395 O429 2.362 1_556 S
Tb395 O430 2.421 1_556 S
Tb395 O434 2.546 . S
Tb395 O435 2.610 1_556 S
Tb395 O437 2.320 . S
Tb395 O438 2.552 . S
Tb395 O439 2.413 . S
Tb395 C459 2.833 . S
N396 C388 1.360 . S
N396 Tb395 2.660 . S
N396 C397 1.305 . S
C397 N396 1.305 . S
C397 C399 1.407 . S
C397 H404 0.930 . S
C398 C386 1.410 . S
C398 C399 1.345 . S
C398 H406 0.930 . S
C399 C397 1.407 . S
C399 C398 1.345 . S
C399 H401 0.930 . S
H400 C393 0.930 . S
H401 C399 0.930 . S
H402 C390 0.930 . S
H403 C391 0.931 . S
H404 C397 0.930 . S
H405 C419 0.930 . S
H406 C398 0.930 . S
H407 C425 0.930 . S
H408 C416 0.930 . S
H409 C423 0.931 . S
H410 C387 0.929 . S
H411 C417 0.930 . S
H412 C450 0.930 . S
H413 C394 0.930 . S
H414 C449 0.929 . S
N415 Tb384 2.660 . S
N415 C416 1.305 . S
N415 C420 1.360 . S
C416 H408 0.930 . S
C416 N415 1.305 . S
C416 C419 1.407 . S
C417 H411 0.930 . S
C417 C418 1.410 . S
C417 C419 1.345 . S
C418 C417 1.410 . S
C418 C420 1.417 . S
C418 C450 1.432 . S
C419 H405 0.930 . S
C419 C416 1.407 . S
C419 C417 1.345 . S
C420 N415 1.360 . S
C420 C418 1.417 . S
C420 C424 1.432 . S
H421 C426 0.930 . S
N422 Tb384 2.600 . S
N422 C424 1.359 . S
N422 C425 1.327 . S
C423 H409 0.931 . S
C423 C425 1.392 . S
C423 C426 1.370 . S
C424 C420 1.432 . S
C424 N422 1.359 . S
C424 C427 1.414 . S
C425 H407 0.930 . S
C425 N422 1.327 . S
C425 C423 1.392 . S
C426 H421 0.930 . S
C426 C423 1.370 . S
C426 C427 1.385 . S
C427 C424 1.414 . S
C427 C426 1.385 . S
C427 C449 1.444 . S
O428 Tb384 2.546 . S
O428 C448 1.251 . S
O429 Tb384 2.610 . S
O429 Tb395 2.362 1_554 S
O429 C440 1.283 . S
O430 Tb395 2.421 1_554 S
O430 C447 1.262 . S
O431 Tb384 2.320 . S
O431 C447 1.260 . S
O432 Tb384 2.552 . S
O432 C440 1.243 . S
O433 Tb384 2.413 . S
O433 C448 1.256 . S
O434 Tb395 2.546 . S
O434 C459 1.251 . S
O435 Tb384 2.362 . S
O435 Tb395 2.610 1_554 S
O435 C451 1.237 1_554 S
O436 Tb384 2.421 . S
O436 C458 1.262 . S
O437 Tb395 2.320 . S
O437 C458 1.260 1_556 S
O438 Tb395 2.552 . S
O438 C451 1.303 . S
O439 Tb395 2.413 . S
O439 C459 1.256 . S
C440 O429 1.283 . S
C440 O432 1.243 . S
C441 C443 1.382 . S
C441 C445 1.393 . S
C441 C448 1.500 . S
C442 C443 1.400 . S
C442 C444 1.384 . S
C443 C441 1.382 . S
C443 C442 1.400 . S
C443 H460 0.930 . S
C444 C442 1.384 . S
C444 C446 1.392 . S
C444 H461 0.931 . S
C445 C441 1.393 . S
C445 C446 1.401 . S
C445 H462 0.930 . S
C446 C444 1.392 . S
C446 C445 1.401 . S
C446 H463 0.930 . S
C447 O430 1.262 . S
C447 O431 1.260 . S
C448 Tb384 2.833 . S
C448 O428 1.251 . S
C448 O433 1.256 . S
C448 C441 1.500 . S
C449 H414 0.929 . S
C449 C427 1.444 . S
C449 C450 1.317 . S
C450 H412 0.930 . S
C450 C418 1.432 . S
C450 C449 1.317 . S
C451 O435 1.237 1_556 S
C451 O438 1.303 . S
C452 C453 1.382 . S
C452 C456 1.393 . S
C452 C459 1.500 . S
C453 C452 1.382 . S
C453 C454 1.400 . S
C453 H464 0.930 . S
C454 C453 1.400 . S
C454 C455 1.384 . S
C455 C454 1.384 . S
C455 C457 1.392 . S
C455 H465 0.931 . S
C456 C452 1.393 . S
C456 C457 1.401 . S
C456 H466 0.930 . S
C457 C455 1.392 . S
C457 C456 1.401 . S
C457 H467 0.930 . S
C458 O436 1.262 . S
C458 O437 1.260 1_554 S
C459 Tb395 2.833 . S
C459 O434 1.251 . S
C459 O439 1.256 . S
C459 C452 1.500 . S
H460 C443 0.930 . S
H461 C444 0.931 . S
H462 C445 0.930 . S
H463 C446 0.930 . S
H464 C453 0.930 . S
H465 C455 0.931 . S
H466 C456 0.930 . S
H467 C457 0.930 . S
Tb468 N499 2.660 . S
Tb468 N506 2.600 . S
Tb468 O512 2.546 . S
Tb468 O513 2.610 . S
Tb468 O515 2.320 . S
Tb468 O516 2.552 . S
Tb468 O517 2.413 . S
Tb468 O519 2.362 . S
Tb468 O520 2.421 . S
Tb468 C532 2.833 . S
C469 C472 1.432 . S
C469 C473 1.414 . S
C469 N476 1.359 . S
C470 C472 1.417 . S
C470 C474 1.432 . S
C470 C482 1.410 . S
C471 C473 1.444 . S
C471 C474 1.317 . S
C471 H494 0.929 . S
C472 C469 1.432 . S
C472 C470 1.417 . S
C472 N480 1.360 . S
C473 C469 1.414 . S
C473 C471 1.444 . S
C473 C478 1.385 . S
C474 C470 1.432 . S
C474 C471 1.317 . S
C474 H486 0.930 . S
C475 C477 1.392 . S
C475 C478 1.370 . S
C475 H487 0.931 . S
N476 C469 1.359 . S
N476 C477 1.327 . S
N476 Tb479 2.600 . S
C477 C475 1.392 . S
C477 N476 1.327 . S
C477 H484 0.930 . S
C478 C473 1.385 . S
C478 C475 1.370 . S
C478 H497 0.930 . S
Tb479 N476 2.600 . S
Tb479 N480 2.660 . S
Tb479 O513 2.362 . S
Tb479 O514 2.421 . S
Tb479 O518 2.546 . S
Tb479 O519 2.610 . S
Tb479 O521 2.320 . S
Tb479 O522 2.552 . S
Tb479 O523 2.413 . S
Tb479 C543 2.833 . S
N480 C472 1.360 . S
N480 Tb479 2.660 . S
N480 C481 1.305 . S
C481 N480 1.305 . S
C481 C483 1.407 . S
C481 H488 0.930 . S
C482 C470 1.410 . S
C482 C483 1.345 . S
C482 H490 0.930 . S
C483 C481 1.407 . S
C483 C482 1.345 . S
C483 H485 0.930 . S
H484 C477 0.930 . S
H485 C483 0.930 . S
H486 C474 0.930 . S
H487 C475 0.931 . S
H488 C481 0.930 . S
H489 C503 0.930 . S
H490 C482 0.930 . S
H491 C509 0.930 . S
H492 C500 0.930 . S
H493 C507 0.931 . S
H494 C471 0.929 . S
H495 C501 0.930 . S
H496 C534 0.930 . S
H497 C478 0.930 . S
H498 C533 0.929 . S
N499 Tb468 2.660 . S
N499 C500 1.305 . S
N499 C504 1.360 . S
C500 H492 0.930 . S
C500 N499 1.305 . S
C500 C503 1.407 . S
C501 H495 0.930 . S
C501 C502 1.410 . S
C501 C503 1.345 . S
C502 C501 1.410 . S
C502 C504 1.417 . S
C502 C534 1.432 . S
C503 H489 0.930 . S
C503 C500 1.407 . S
C503 C501 1.345 . S
C504 N499 1.360 . S
C504 C502 1.417 . S
C504 C508 1.432 . S
H505 C510 0.930 . S
N506 Tb468 2.600 . S
N506 C508 1.359 . S
N506 C509 1.327 . S
C507 H493 0.931 . S
C507 C509 1.392 . S
C507 C510 1.370 . S
C508 C504 1.432 . S
C508 N506 1.359 . S
C508 C511 1.414 . S
C509 H491 0.930 . S
C509 N506 1.327 . S
C509 C507 1.392 . S
C510 H505 0.930 . S
C510 C507 1.370 . S
C510 C511 1.385 . S
C511 C508 1.414 . S
C511 C510 1.385 . S
C511 C533 1.444 . S
O512 Tb468 2.546 . S
O512 C532 1.251 . S
O513 Tb468 2.610 . S
O513 Tb479 2.362 . S
O513 C524 1.283 . S
O514 Tb479 2.421 . S
O514 C531 1.262 . S
O515 Tb468 2.320 . S
O515 C531 1.260 . S
O516 Tb468 2.552 . S
O516 C524 1.243 . S
O517 Tb468 2.413 . S
O517 C532 1.256 . S
O518 Tb479 2.546 . S
O518 C543 1.251 . S
O519 Tb468 2.362 . S
O519 Tb479 2.610 . S
O519 C535 1.283 . S
O520 Tb468 2.421 . S
O520 C542 1.262 . S
O521 Tb479 2.320 . S
O521 C542 1.260 . S
O522 Tb479 2.552 . S
O522 C535 1.243 . S
O523 Tb479 2.413 . S
O523 C543 1.256 . S
C524 O513 1.283 . S
C524 O516 1.243 . S
C525 C527 1.382 . S
C525 C529 1.393 . S
C525 C532 1.500 . S
C526 C527 1.400 . S
C526 C528 1.384 . S
C527 C525 1.382 . S
C527 C526 1.400 . S
C527 H544 0.930 . S
C528 C526 1.384 . S
C528 C530 1.392 . S
C528 H545 0.931 . S
C529 C525 1.393 . S
C529 C530 1.401 . S
C529 H546 0.930 . S
C530 C528 1.392 . S
C530 C529 1.401 . S
C530 H547 0.930 . S
C531 O514 1.262 . S
C531 O515 1.260 . S
C532 Tb468 2.833 . S
C532 O512 1.251 . S
C532 O517 1.256 . S
C532 C525 1.500 . S
C533 H498 0.929 . S
C533 C511 1.444 . S
C533 C534 1.317 . S
C534 H496 0.930 . S
C534 C502 1.432 . S
C534 C533 1.317 . S
C535 O519 1.283 . S
C535 O522 1.243 . S
C536 C537 1.382 . S
C536 C540 1.393 . S
C536 C543 1.500 . S
C537 C536 1.382 . S
C537 C538 1.400 . S
C537 H548 0.930 . S
C538 C537 1.400 . S
C538 C539 1.384 . S
C539 C538 1.384 . S
C539 C541 1.392 . S
C539 H549 0.931 . S
C540 C536 1.393 . S
C540 C541 1.401 . S
C540 H550 0.930 . S
C541 C539 1.392 . S
C541 C540 1.401 . S
C541 H551 0.930 . S
C542 O520 1.262 . S
C542 O521 1.260 . S
C543 Tb479 2.833 . S
C543 O518 1.251 . S
C543 O523 1.256 . S
C543 C536 1.500 . S
H544 C527 0.930 . S
H545 C528 0.931 . S
H546 C529 0.930 . S
H547 C530 0.930 . S
H548 C537 0.930 . S
H549 C539 0.931 . S
H550 C540 0.930 . S
H551 C541 0.930 . S
Tb552 N583 2.660 . S
Tb552 N590 2.600 . S
Tb552 O596 2.546 . S
Tb552 O597 2.610 . S
Tb552 O599 2.320 . S
Tb552 O600 2.552 . S
Tb552 O601 2.413 . S
Tb552 O603 2.362 . S
Tb552 O604 2.421 . S
Tb552 C616 2.833 . S
C553 C556 1.432 . S
C553 C557 1.414 . S
C553 N560 1.359 . S
C554 C556 1.417 . S
C554 C558 1.432 . S
C554 C566 1.410 . S
C555 C557 1.444 . S
C555 C558 1.317 . S
C555 H578 0.929 . S
C556 C553 1.432 . S
C556 C554 1.417 . S
C556 N564 1.360 . S
C557 C553 1.414 . S
C557 C555 1.444 . S
C557 C562 1.385 . S
C558 C554 1.432 . S
C558 C555 1.317 . S
C558 H570 0.930 . S
C559 C561 1.392 . S
C559 C562 1.370 . S
C559 H571 0.931 . S
N560 C553 1.359 . S
N560 C561 1.327 . S
N560 Tb563 2.600 . S
C561 C559 1.392 . S
C561 N560 1.327 . S
C561 H568 0.930 . S
C562 C557 1.385 . S
C562 C559 1.370 . S
C562 H581 0.930 . S
Tb563 N560 2.600 . S
Tb563 N564 2.660 . S
Tb563 O597 2.362 . S
Tb563 O598 2.421 . S
Tb563 O602 2.546 . S
Tb563 O603 2.610 . S
Tb563 O605 2.320 . S
Tb563 O606 2.552 . S
Tb563 O607 2.413 . S
Tb563 C627 2.833 . S
N564 C556 1.360 . S
N564 Tb563 2.660 . S
N564 C565 1.305 . S
C565 N564 1.305 . S
C565 C567 1.407 . S
C565 H572 0.930 . S
C566 C554 1.410 . S
C566 C567 1.345 . S
C566 H574 0.930 . S
C567 C565 1.407 . S
C567 C566 1.345 . S
C567 H569 0.930 . S
H568 C561 0.930 . S
H569 C567 0.930 . S
H570 C558 0.930 . S
H571 C559 0.931 . S
H572 C565 0.930 . S
H573 C587 0.930 . S
H574 C566 0.930 . S
H575 C593 0.930 . S
H576 C584 0.930 . S
H577 C591 0.931 . S
H578 C555 0.929 . S
H579 C585 0.930 . S
H580 C618 0.930 . S
H581 C562 0.930 . S
H582 C617 0.929 . S
N583 Tb552 2.660 . S
N583 C584 1.305 . S
N583 C588 1.360 . S
C584 H576 0.930 . S
C584 N583 1.305 . S
C584 C587 1.407 . S
C585 H579 0.930 . S
C585 C586 1.410 . S
C585 C587 1.345 . S
C586 C585 1.410 . S
C586 C588 1.417 . S
C586 C618 1.432 . S
C587 H573 0.930 . S
C587 C584 1.407 . S
C587 C585 1.345 . S
C588 N583 1.360 . S
C588 C586 1.417 . S
C588 C592 1.432 . S
H589 C594 0.930 . S
N590 Tb552 2.600 . S
N590 C592 1.359 . S
N590 C593 1.327 . S
C591 H577 0.931 . S
C591 C593 1.392 . S
C591 C594 1.370 . S
C592 C588 1.432 . S
C592 N590 1.359 . S
C592 C595 1.414 . S
C593 H575 0.930 . S
C593 N590 1.327 . S
C593 C591 1.392 . S
C594 H589 0.930 . S
C594 C591 1.370 . S
C594 C595 1.385 . S
C595 C592 1.414 . S
C595 C594 1.385 . S
C595 C617 1.444 . S
O596 Tb552 2.546 . S
O596 C616 1.251 . S
O597 Tb552 2.610 . S
O597 Tb563 2.362 . S
O597 C608 1.283 . S
O598 Tb563 2.421 . S
O598 C615 1.262 . S
O599 Tb552 2.320 . S
O599 C615 1.260 . S
O600 Tb552 2.552 . S
O600 C608 1.243 . S
O601 Tb552 2.413 . S
O601 C616 1.256 . S
O602 Tb563 2.546 . S
O602 C627 1.251 . S
O603 Tb552 2.362 . S
O603 Tb563 2.610 . S
O603 C619 1.283 . S
O604 Tb552 2.421 . S
O604 C626 1.262 . S
O605 Tb563 2.320 . S
O605 C626 1.260 . S
O606 Tb563 2.552 . S
O606 C619 1.243 . S
O607 Tb563 2.413 . S
O607 C627 1.256 . S
C608 O597 1.283 . S
C608 O600 1.243 . S
C609 C611 1.382 . S
C609 C613 1.393 . S
C609 C616 1.500 . S
C610 C611 1.400 . S
C610 C612 1.384 . S
C611 C609 1.382 . S
C611 C610 1.400 . S
C611 H628 0.930 . S
C612 C610 1.384 . S
C612 C614 1.392 . S
C612 H629 0.931 . S
C613 C609 1.393 . S
C613 C614 1.401 . S
C613 H630 0.930 . S
C614 C612 1.392 . S
C614 C613 1.401 . S
C614 H631 0.930 . S
C615 O598 1.262 . S
C615 O599 1.260 . S
C616 Tb552 2.833 . S
C616 O596 1.251 . S
C616 O601 1.256 . S
C616 C609 1.500 . S
C617 H582 0.929 . S
C617 C595 1.444 . S
C617 C618 1.317 . S
C618 H580 0.930 . S
C618 C586 1.432 . S
C618 C617 1.317 . S
C619 O603 1.283 . S
C619 O606 1.243 . S
C620 C621 1.382 . S
C620 C624 1.393 . S
C620 C627 1.500 . S
C621 C620 1.382 . S
C621 C622 1.400 . S
C621 H632 0.930 . S
C622 C621 1.400 . S
C622 C623 1.384 . S
C623 C622 1.384 . S
C623 C625 1.392 . S
C623 H633 0.931 . S
C624 C620 1.393 . S
C624 C625 1.401 . S
C624 H634 0.930 . S
C625 C623 1.392 . S
C625 C624 1.401 . S
C625 H635 0.930 . S
C626 O604 1.262 . S
C626 O605 1.260 . S
C627 Tb563 2.833 . S
C627 O602 1.251 . S
C627 O607 1.256 . S
C627 C620 1.500 . S
H628 C611 0.930 . S
H629 C612 0.931 . S
H630 C613 0.930 . S
H631 C614 0.930 . S
H632 C621 0.930 . S
H633 C623 0.931 . S
H634 C624 0.930 . S
H635 C625 0.930 . S
Tb636 N667 2.660 . S
Tb636 N674 2.600 . S
Tb636 O680 2.546 . S
Tb636 O681 2.610 . S
Tb636 O683 2.320 . S
Tb636 O684 2.552 . S
Tb636 O685 2.413 . S
Tb636 O687 2.362 . S
Tb636 O688 2.421 . S
Tb636 C700 2.833 . S
C637 C640 1.432 . S
C637 C641 1.414 . S
C637 N644 1.359 . S
C638 C640 1.417 . S
C638 C642 1.432 . S
C638 C650 1.410 . S
C639 C641 1.444 . S
C639 C642 1.317 . S
C639 H662 0.929 . S
C640 C637 1.432 . S
C640 C638 1.417 . S
C640 N648 1.360 . S
C641 C637 1.414 . S
C641 C639 1.444 . S
C641 C646 1.385 . S
C642 C638 1.432 . S
C642 C639 1.317 . S
C642 H654 0.930 . S
C643 C645 1.392 . S
C643 C646 1.370 . S
C643 H655 0.931 . S
N644 C637 1.359 . S
N644 C645 1.327 . S
N644 Tb647 2.600 . S
C645 C643 1.392 . S
C645 N644 1.327 . S
C645 H652 0.930 . S
C646 C641 1.385 . S
C646 C643 1.370 . S
C646 H665 0.930 . S
Tb647 N644 2.600 . S
Tb647 N648 2.660 . S
Tb647 O681 2.362 . S
Tb647 O682 2.421 . S
Tb647 O686 2.546 . S
Tb647 O687 2.610 . S
Tb647 O689 2.320 . S
Tb647 O690 2.552 . S
Tb647 O691 2.413 . S
Tb647 C711 2.833 . S
N648 C640 1.360 . S
N648 Tb647 2.660 . S
N648 C649 1.305 . S
C649 N648 1.305 . S
C649 C651 1.407 . S
C649 H656 0.930 . S
C650 C638 1.410 . S
C650 C651 1.345 . S
C650 H658 0.930 . S
C651 C649 1.407 . S
C651 C650 1.345 . S
C651 H653 0.930 . S
H652 C645 0.930 . S
H653 C651 0.930 . S
H654 C642 0.930 . S
H655 C643 0.931 . S
H656 C649 0.930 . S
H657 C671 0.930 . S
H658 C650 0.930 . S
H659 C677 0.930 . S
H660 C668 0.930 . S
H661 C675 0.931 . S
H662 C639 0.929 . S
H663 C669 0.930 . S
H664 C702 0.930 . S
H665 C646 0.930 . S
H666 C701 0.929 . S
N667 Tb636 2.660 . S
N667 C668 1.305 . S
N667 C672 1.360 . S
C668 H660 0.930 . S
C668 N667 1.305 . S
C668 C671 1.407 . S
C669 H663 0.930 . S
C669 C670 1.410 . S
C669 C671 1.345 . S
C670 C669 1.410 . S
C670 C672 1.417 . S
C670 C702 1.432 . S
C671 H657 0.930 . S
C671 C668 1.407 . S
C671 C669 1.345 . S
C672 N667 1.360 . S
C672 C670 1.417 . S
C672 C676 1.432 . S
H673 C678 0.930 . S
N674 Tb636 2.600 . S
N674 C676 1.359 . S
N674 C677 1.327 . S
C675 H661 0.931 . S
C675 C677 1.392 . S
C675 C678 1.370 . S
C676 C672 1.432 . S
C676 N674 1.359 . S
C676 C679 1.414 . S
C677 H659 0.930 . S
C677 N674 1.327 . S
C677 C675 1.392 . S
C678 H673 0.930 . S
C678 C675 1.370 . S
C678 C679 1.385 . S
C679 C676 1.414 . S
C679 C678 1.385 . S
C679 C701 1.444 . S
O680 Tb636 2.546 . S
O680 C700 1.251 . S
O681 Tb636 2.610 . S
O681 Tb647 2.362 . S
O681 C692 1.283 . S
O682 Tb647 2.421 . S
O682 C699 1.262 . S
O683 Tb636 2.320 . S
O683 C699 1.260 . S
O684 Tb636 2.552 . S
O684 C692 1.243 . S
O685 Tb636 2.413 . S
O685 C700 1.256 . S
O686 Tb647 2.546 . S
O686 C711 1.251 . S
O687 Tb636 2.362 . S
O687 Tb647 2.610 . S
O687 C703 1.283 . S
O688 Tb636 2.421 . S
O688 C710 1.262 . S
O689 Tb647 2.320 . S
O689 C710 1.260 . S
O690 Tb647 2.552 . S
O690 C703 1.243 . S
O691 Tb647 2.413 . S
O691 C711 1.256 . S
C692 O681 1.283 . S
C692 O684 1.243 . S
C693 C695 1.382 . S
C693 C697 1.393 . S
C693 C700 1.500 . S
C694 C695 1.400 . S
C694 C696 1.384 . S
C695 C693 1.382 . S
C695 C694 1.400 . S
C695 H712 0.930 . S
C696 C694 1.384 . S
C696 C698 1.392 . S
C696 H713 0.931 . S
C697 C693 1.393 . S
C697 C698 1.401 . S
C697 H714 0.930 . S
C698 C696 1.392 . S
C698 C697 1.401 . S
C698 H715 0.930 . S
C699 O682 1.262 . S
C699 O683 1.260 . S
C700 Tb636 2.833 . S
C700 O680 1.251 . S
C700 O685 1.256 . S
C700 C693 1.500 . S
C701 H666 0.929 . S
C701 C679 1.444 . S
C701 C702 1.317 . S
C702 H664 0.930 . S
C702 C670 1.432 . S
C702 C701 1.317 . S
C703 O687 1.283 . S
C703 O690 1.243 . S
C704 C705 1.382 . S
C704 C708 1.393 . S
C704 C711 1.500 . S
C705 C704 1.382 . S
C705 C706 1.400 . S
C705 H716 0.930 . S
C706 C705 1.400 . S
C706 C707 1.384 . S
C707 C706 1.384 . S
C707 C709 1.392 . S
C707 H717 0.931 . S
C708 C704 1.393 . S
C708 C709 1.401 . S
C708 H718 0.930 . S
C709 C707 1.392 . S
C709 C708 1.401 . S
C709 H719 0.930 . S
C710 O688 1.262 . S
C710 O689 1.260 . S
C711 Tb647 2.833 . S
C711 O686 1.251 . S
C711 O691 1.256 . S
C711 C704 1.500 . S
H712 C695 0.930 . S
H713 C696 0.931 . S
H714 C697 0.930 . S
H715 C698 0.930 . S
H716 C705 0.930 . S
H717 C707 0.931 . S
H718 C708 0.930 . S
H719 C709 0.930 . S
Tb720 N751 2.660 . S
Tb720 N758 2.600 . S
Tb720 O764 2.546 . S
Tb720 O765 2.610 . S
Tb720 O767 2.320 . S
Tb720 O768 2.552 . S
Tb720 O769 2.413 . S
Tb720 O771 2.362 . S
Tb720 O772 2.421 . S
Tb720 C784 2.833 . S
C721 C724 1.432 . S
C721 C725 1.414 . S
C721 N728 1.359 . S
C722 C724 1.417 . S
C722 C726 1.432 . S
C722 C734 1.410 . S
C723 C725 1.444 . S
C723 C726 1.317 . S
C723 H746 0.929 . S
C724 C721 1.432 . S
C724 C722 1.417 . S
C724 N732 1.360 . S
C725 C721 1.414 . S
C725 C723 1.444 . S
C725 C730 1.385 . S
C726 C722 1.432 . S
C726 C723 1.317 . S
C726 H738 0.930 . S
C727 C729 1.392 . S
C727 C730 1.370 . S
C727 H739 0.931 . S
N728 C721 1.359 . S
N728 C729 1.327 . S
N728 Tb731 2.600 . S
C729 C727 1.392 . S
C729 N728 1.327 . S
C729 H736 0.930 . S
C730 C725 1.385 . S
C730 C727 1.370 . S
C730 H749 0.930 . S
Tb731 N728 2.600 . S
Tb731 N732 2.660 . S
Tb731 O765 2.362 . S
Tb731 O766 2.421 . S
Tb731 O770 2.546 . S
Tb731 O771 2.610 . S
Tb731 O773 2.320 . S
Tb731 O774 2.552 . S
Tb731 O775 2.413 . S
Tb731 C795 2.833 . S
N732 C724 1.360 . S
N732 Tb731 2.660 . S
N732 C733 1.305 . S
C733 N732 1.305 . S
C733 C735 1.407 . S
C733 H740 0.930 . S
C734 C722 1.410 . S
C734 C735 1.345 . S
C734 H742 0.930 . S
C735 C733 1.407 . S
C735 C734 1.345 . S
C735 H737 0.930 . S
H736 C729 0.930 . S
H737 C735 0.930 . S
H738 C726 0.930 . S
H739 C727 0.931 . S
H740 C733 0.930 . S
H741 C755 0.930 . S
H742 C734 0.930 . S
H743 C761 0.930 . S
H744 C752 0.930 . S
H745 C759 0.931 . S
H746 C723 0.929 . S
H747 C753 0.930 . S
H748 C786 0.930 . S
H749 C730 0.930 . S
H750 C785 0.929 . S
N751 Tb720 2.660 . S
N751 C752 1.305 . S
N751 C756 1.360 . S
C752 H744 0.930 . S
C752 N751 1.305 . S
C752 C755 1.407 . S
C753 H747 0.930 . S
C753 C754 1.410 . S
C753 C755 1.345 . S
C754 C753 1.410 . S
C754 C756 1.417 . S
C754 C786 1.432 . S
C755 H741 0.930 . S
C755 C752 1.407 . S
C755 C753 1.345 . S
C756 N751 1.360 . S
C756 C754 1.417 . S
C756 C760 1.432 . S
H757 C762 0.930 . S
N758 Tb720 2.600 . S
N758 C760 1.359 . S
N758 C761 1.327 . S
C759 H745 0.931 . S
C759 C761 1.392 . S
C759 C762 1.370 . S
C760 C756 1.432 . S
C760 N758 1.359 . S
C760 C763 1.414 . S
C761 H743 0.930 . S
C761 N758 1.327 . S
C761 C759 1.392 . S
C762 H757 0.930 . S
C762 C759 1.370 . S
C762 C763 1.385 . S
C763 C760 1.414 . S
C763 C762 1.385 . S
C763 C785 1.444 . S
O764 Tb720 2.546 . S
O764 C784 1.251 . S
O765 Tb720 2.610 . S
O765 Tb731 2.362 . S
O765 C776 1.283 . S
O766 Tb731 2.421 . S
O766 C783 1.262 . S
O767 Tb720 2.320 . S
O767 C783 1.260 . S
O768 Tb720 2.552 . S
O768 C776 1.243 . S
O769 Tb720 2.413 . S
O769 C784 1.256 . S
O770 Tb731 2.546 . S
O770 C795 1.251 . S
O771 Tb720 2.362 . S
O771 Tb731 2.610 . S
O771 C787 1.283 . S
O772 Tb720 2.421 . S
O772 C794 1.262 . S
O773 Tb731 2.320 . S
O773 C794 1.260 . S
O774 Tb731 2.552 . S
O774 C787 1.243 . S
O775 Tb731 2.413 . S
O775 C795 1.256 . S
C776 O765 1.283 . S
C776 O768 1.243 . S
C777 C779 1.382 . S
C777 C781 1.393 . S
C777 C784 1.500 . S
C778 C779 1.400 . S
C778 C780 1.384 . S
C779 C777 1.382 . S
C779 C778 1.400 . S
C779 H796 0.930 . S
C780 C778 1.384 . S
C780 C782 1.392 . S
C780 H797 0.931 . S
C781 C777 1.393 . S
C781 C782 1.401 . S
C781 H798 0.930 . S
C782 C780 1.392 . S
C782 C781 1.401 . S
C782 H799 0.930 . S
C783 O766 1.262 . S
C783 O767 1.260 . S
C784 Tb720 2.833 . S
C784 O764 1.251 . S
C784 O769 1.256 . S
C784 C777 1.500 . S
C785 H750 0.929 . S
C785 C763 1.444 . S
C785 C786 1.317 . S
C786 H748 0.930 . S
C786 C754 1.432 . S
C786 C785 1.317 . S
C787 O771 1.283 . S
C787 O774 1.243 . S
C788 C789 1.382 . S
C788 C792 1.393 . S
C788 C795 1.500 . S
C789 C788 1.382 . S
C789 C790 1.400 . S
C789 H800 0.930 . S
C790 C789 1.400 . S
C790 C791 1.384 . S
C791 C790 1.384 . S
C791 C793 1.392 . S
C791 H801 0.931 . S
C792 C788 1.393 . S
C792 C793 1.401 . S
C792 H802 0.930 . S
C793 C791 1.392 . S
C793 C792 1.401 . S
C793 H803 0.930 . S
C794 O772 1.262 . S
C794 O773 1.260 . S
C795 Tb731 2.833 . S
C795 O770 1.251 . S
C795 O775 1.256 . S
C795 C788 1.500 . S
H796 C779 0.930 . S
H797 C780 0.931 . S
H798 C781 0.930 . S
H799 C782 0.930 . S
H800 C789 0.930 . S
H801 C791 0.931 . S
H802 C792 0.930 . S
H803 C793 0.930 . S
Tb804 N835 2.660 . S
Tb804 N842 2.600 . S
Tb804 O848 2.546 . S
Tb804 O849 2.610 . S
Tb804 O851 2.320 . S
Tb804 O852 2.552 . S
Tb804 O853 2.413 . S
Tb804 O855 2.362 . S
Tb804 O856 2.421 . S
Tb804 C868 2.833 . S
C805 C808 1.432 . S
C805 C809 1.414 . S
C805 N812 1.359 . S
C806 C808 1.417 . S
C806 C810 1.432 . S
C806 C818 1.410 . S
C807 C809 1.444 . S
C807 C810 1.317 . S
C807 H830 0.929 . S
C808 C805 1.432 . S
C808 C806 1.417 . S
C808 N816 1.360 . S
C809 C805 1.414 . S
C809 C807 1.444 . S
C809 C814 1.385 . S
C810 C806 1.432 . S
C810 C807 1.317 . S
C810 H822 0.930 . S
C811 C813 1.392 . S
C811 C814 1.370 . S
C811 H823 0.931 . S
N812 C805 1.359 . S
N812 C813 1.327 . S
N812 Tb815 2.600 . S
C813 C811 1.392 . S
C813 N812 1.327 . S
C813 H820 0.930 . S
C814 C809 1.385 . S
C814 C811 1.370 . S
C814 H833 0.930 . S
Tb815 N812 2.600 . S
Tb815 N816 2.660 . S
Tb815 O849 2.362 . S
Tb815 O850 2.421 . S
Tb815 O854 2.546 . S
Tb815 O855 2.610 . S
Tb815 O857 2.320 . S
Tb815 O858 2.552 . S
Tb815 O859 2.413 . S
Tb815 C879 2.833 . S
N816 C808 1.360 . S
N816 Tb815 2.660 . S
N816 C817 1.305 . S
C817 N816 1.305 . S
C817 C819 1.407 . S
C817 H824 0.930 . S
C818 C806 1.410 . S
C818 C819 1.345 . S
C818 H826 0.930 . S
C819 C817 1.407 . S
C819 C818 1.345 . S
C819 H821 0.930 . S
H820 C813 0.930 . S
H821 C819 0.930 . S
H822 C810 0.930 . S
H823 C811 0.931 . S
H824 C817 0.930 . S
H825 C839 0.930 . S
H826 C818 0.930 . S
H827 C845 0.930 . S
H828 C836 0.930 . S
H829 C843 0.931 . S
H830 C807 0.929 . S
H831 C837 0.930 . S
H832 C870 0.930 . S
H833 C814 0.930 . S
H834 C869 0.929 . S
N835 Tb804 2.660 . S
N835 C836 1.305 . S
N835 C840 1.360 . S
C836 H828 0.930 . S
C836 N835 1.305 . S
C836 C839 1.407 . S
C837 H831 0.930 . S
C837 C838 1.410 . S
C837 C839 1.345 . S
C838 C837 1.410 . S
C838 C840 1.417 . S
C838 C870 1.432 . S
C839 H825 0.930 . S
C839 C836 1.407 . S
C839 C837 1.345 . S
C840 N835 1.360 . S
C840 C838 1.417 . S
C840 C844 1.432 . S
H841 C846 0.930 . S
N842 Tb804 2.600 . S
N842 C844 1.359 . S
N842 C845 1.327 . S
C843 H829 0.931 . S
C843 C845 1.392 . S
C843 C846 1.370 . S
C844 C840 1.432 . S
C844 N842 1.359 . S
C844 C847 1.414 . S
C845 H827 0.930 . S
C845 N842 1.327 . S
C845 C843 1.392 . S
C846 H841 0.930 . S
C846 C843 1.370 . S
C846 C847 1.385 . S
C847 C844 1.414 . S
C847 C846 1.385 . S
C847 C869 1.444 . S
O848 Tb804 2.546 . S
O848 C868 1.251 . S
O849 Tb804 2.610 . S
O849 Tb815 2.362 . S
O849 C860 1.283 . S
O850 Tb815 2.421 . S
O850 C867 1.262 . S
O851 Tb804 2.320 . S
O851 C867 1.260 . S
O852 Tb804 2.552 . S
O852 C860 1.243 . S
O853 Tb804 2.413 . S
O853 C868 1.256 . S
O854 Tb815 2.546 . S
O854 C879 1.251 . S
O855 Tb804 2.362 . S
O855 Tb815 2.610 . S
O855 C871 1.283 . S
O856 Tb804 2.421 . S
O856 C878 1.262 . S
O857 Tb815 2.320 . S
O857 C878 1.260 . S
O858 Tb815 2.552 . S
O858 C871 1.243 . S
O859 Tb815 2.413 . S
O859 C879 1.256 . S
C860 O849 1.283 . S
C860 O852 1.243 . S
C861 C863 1.382 . S
C861 C865 1.393 . S
C861 C868 1.500 . S
C862 C863 1.400 . S
C862 C864 1.384 . S
C863 C861 1.382 . S
C863 C862 1.400 . S
C863 H880 0.930 . S
C864 C862 1.384 . S
C864 C866 1.392 . S
C864 H881 0.931 . S
C865 C861 1.393 . S
C865 C866 1.401 . S
C865 H882 0.930 . S
C866 C864 1.392 . S
C866 C865 1.401 . S
C866 H883 0.930 . S
C867 O850 1.262 . S
C867 O851 1.260 . S
C868 Tb804 2.833 . S
C868 O848 1.251 . S
C868 O853 1.256 . S
C868 C861 1.500 . S
C869 H834 0.929 . S
C869 C847 1.444 . S
C869 C870 1.317 . S
C870 H832 0.930 . S
C870 C838 1.432 . S
C870 C869 1.317 . S
C871 O855 1.283 . S
C871 O858 1.243 . S
C872 C873 1.382 . S
C872 C876 1.393 . S
C872 C879 1.500 . S
C873 C872 1.382 . S
C873 C874 1.400 . S
C873 H884 0.930 . S
C874 C873 1.400 . S
C874 C875 1.384 . S
C875 C874 1.384 . S
C875 C877 1.392 . S
C875 H885 0.931 . S
C876 C872 1.393 . S
C876 C877 1.401 . S
C876 H886 0.930 . S
C877 C875 1.392 . S
C877 C876 1.401 . S
C877 H887 0.930 . S
C878 O856 1.262 . S
C878 O857 1.260 . S
C879 Tb815 2.833 . S
C879 O854 1.251 . S
C879 O859 1.256 . S
C879 C872 1.500 . S
H880 C863 0.930 . S
H881 C864 0.931 . S
H882 C865 0.930 . S
H883 C866 0.930 . S
H884 C873 0.930 . S
H885 C875 0.931 . S
H886 C876 0.930 . S
H887 C877 0.930 . S
Tb888 N919 2.660 . S
Tb888 N926 2.600 . S
Tb888 O932 2.546 . S
Tb888 O933 2.610 . S
Tb888 O935 2.320 . S
Tb888 O936 2.552 . S
Tb888 O937 2.413 . S
Tb888 O939 2.362 . S
Tb888 O940 2.421 . S
Tb888 C952 2.833 . S
C889 C892 1.432 . S
C889 C893 1.414 . S
C889 N896 1.359 . S
C890 C892 1.417 . S
C890 C894 1.432 . S
C890 C902 1.410 . S
C891 C893 1.444 . S
C891 C894 1.317 . S
C891 H914 0.929 . S
C892 C889 1.432 . S
C892 C890 1.417 . S
C892 N900 1.360 . S
C893 C889 1.414 . S
C893 C891 1.444 . S
C893 C898 1.385 . S
C894 C890 1.432 . S
C894 C891 1.317 . S
C894 H906 0.930 . S
C895 C897 1.392 . S
C895 C898 1.370 . S
C895 H907 0.931 . S
N896 C889 1.359 . S
N896 C897 1.327 . S
N896 Tb899 2.600 . S
C897 C895 1.392 . S
C897 N896 1.327 . S
C897 H904 0.930 . S
C898 C893 1.385 . S
C898 C895 1.370 . S
C898 H917 0.930 . S
Tb899 N896 2.600 . S
Tb899 N900 2.660 . S
Tb899 O933 2.362 . S
Tb899 O934 2.421 . S
Tb899 O938 2.546 . S
Tb899 O939 2.610 . S
Tb899 O941 2.320 . S
Tb899 O942 2.552 . S
Tb899 O943 2.413 . S
Tb899 C963 2.833 . S
N900 C892 1.360 . S
N900 Tb899 2.660 . S
N900 C901 1.305 . S
C901 N900 1.305 . S
C901 C903 1.407 . S
C901 H908 0.930 . S
C902 C890 1.410 . S
C902 C903 1.345 . S
C902 H910 0.930 . S
C903 C901 1.407 . S
C903 C902 1.345 . S
C903 H905 0.930 . S
H904 C897 0.930 . S
H905 C903 0.930 . S
H906 C894 0.930 . S
H907 C895 0.931 . S
H908 C901 0.930 . S
H909 C923 0.930 . S
H910 C902 0.930 . S
H911 C929 0.930 . S
H912 C920 0.930 . S
H913 C927 0.931 . S
H914 C891 0.929 . S
H915 C921 0.930 . S
H916 C954 0.930 . S
H917 C898 0.930 . S
H918 C953 0.929 . S
N919 Tb888 2.660 . S
N919 C920 1.305 . S
N919 C924 1.360 . S
C920 H912 0.930 . S
C920 N919 1.305 . S
C920 C923 1.407 . S
C921 H915 0.930 . S
C921 C922 1.410 . S
C921 C923 1.345 . S
C922 C921 1.410 . S
C922 C924 1.417 . S
C922 C954 1.432 . S
C923 H909 0.930 . S
C923 C920 1.407 . S
C923 C921 1.345 . S
C924 N919 1.360 . S
C924 C922 1.417 . S
C924 C928 1.432 . S
H925 C930 0.930 . S
N926 Tb888 2.600 . S
N926 C928 1.359 . S
N926 C929 1.327 . S
C927 H913 0.931 . S
C927 C929 1.392 . S
C927 C930 1.370 . S
C928 C924 1.432 . S
C928 N926 1.359 . S
C928 C931 1.414 . S
C929 H911 0.930 . S
C929 N926 1.327 . S
C929 C927 1.392 . S
C930 H925 0.930 . S
C930 C927 1.370 . S
C930 C931 1.385 . S
C931 C928 1.414 . S
C931 C930 1.385 . S
C931 C953 1.444 . S
O932 Tb888 2.546 . S
O932 C952 1.251 . S
O933 Tb888 2.610 . S
O933 Tb899 2.362 . S
O933 C944 1.283 . S
O934 Tb899 2.421 . S
O934 C951 1.262 . S
O935 Tb888 2.320 . S
O935 C951 1.260 . S
O936 Tb888 2.552 . S
O936 C944 1.243 . S
O937 Tb888 2.413 . S
O937 C952 1.256 . S
O938 Tb899 2.546 . S
O938 C963 1.251 . S
O939 Tb888 2.362 . S
O939 Tb899 2.610 . S
O939 C955 1.283 . S
O940 Tb888 2.421 . S
O940 C962 1.262 . S
O941 Tb899 2.320 . S
O941 C962 1.260 . S
O942 Tb899 2.552 . S
O942 C955 1.243 . S
O943 Tb899 2.413 . S
O943 C963 1.256 . S
C944 O933 1.283 . S
C944 O936 1.243 . S
C945 C947 1.382 . S
C945 C949 1.393 . S
C945 C952 1.500 . S
C946 C947 1.400 . S
C946 C948 1.384 . S
C947 C945 1.382 . S
C947 C946 1.400 . S
C947 H964 0.930 . S
C948 C946 1.384 . S
C948 C950 1.392 . S
C948 H965 0.931 . S
C949 C945 1.393 . S
C949 C950 1.401 . S
C949 H966 0.930 . S
C950 C948 1.392 . S
C950 C949 1.401 . S
C950 H967 0.930 . S
C951 O934 1.262 . S
C951 O935 1.260 . S
C952 Tb888 2.833 . S
C952 O932 1.251 . S
C952 O937 1.256 . S
C952 C945 1.500 . S
C953 H918 0.929 . S
C953 C931 1.444 . S
C953 C954 1.317 . S
C954 H916 0.930 . S
C954 C922 1.432 . S
C954 C953 1.317 . S
C955 O939 1.283 . S
C955 O942 1.243 . S
C956 C957 1.382 . S
C956 C960 1.393 . S
C956 C963 1.500 . S
C957 C956 1.382 . S
C957 C958 1.400 . S
C957 H968 0.930 . S
C958 C957 1.400 . S
C958 C959 1.384 . S
C959 C958 1.384 . S
C959 C961 1.392 . S
C959 H969 0.931 . S
C960 C956 1.393 . S
C960 C961 1.401 . S
C960 H970 0.930 . S
C961 C959 1.392 . S
C961 C960 1.401 . S
C961 H971 0.930 . S
C962 O940 1.262 . S
C962 O941 1.260 . S
C963 Tb899 2.833 . S
C963 O938 1.251 . S
C963 O943 1.256 . S
C963 C956 1.500 . S
H964 C947 0.930 . S
H965 C948 0.931 . S
H966 C949 0.930 . S
H967 C950 0.930 . S
H968 C957 0.930 . S
H969 C959 0.931 . S
H970 C960 0.930 . S
H971 C961 0.930 . S
C972 C973 1.349 . S
C972 C974 1.327 . S
C972 H997 0.950 . S
C973 C972 1.349 . S
C973 C989 1.349 . S
C974 C972 1.327 . S
C974 C993 1.429 . S
C974 H998 0.950 . S
C975 C992 1.574 . S
C975 C994 1.368 . S
C975 H999 0.949 . S
H976 C980 0.949 . S
C977 C978 1.349 . S
C977 C979 1.327 . S
C977 H1000 0.950 . S
C978 C977 1.349 . S
C978 C990 1.349 . S
C979 C977 1.327 . S
C979 C995 1.429 . S
C979 H1001 0.950 . S
C980 H976 0.949 . S
C980 C988 1.574 . S
C980 C996 1.368 . S
H981 C989 0.950 . S
H982 C987 0.950 . S
H983 C988 0.949 . S
H984 C990 0.950 . S
H985 C991 0.950 . S
H986 C992 0.949 . S
C987 H982 0.950 . S
C987 C989 1.327 . S
C987 C993 1.429 . S
C988 C980 1.574 . S
C988 H983 0.949 . S
C988 C994 1.368 . S
C989 C973 1.349 . S
C989 H981 0.950 . S
C989 C987 1.327 . S
C990 C978 1.349 . S
C990 H984 0.950 . S
C990 C991 1.327 . S
C991 H985 0.950 . S
C991 C990 1.327 . S
C991 C995 1.429 . S
C992 C975 1.574 . S
C992 H986 0.949 . S
C992 C996 1.368 . S
C993 C974 1.429 . S
C993 C987 1.429 . S
C993 C994 1.523 . S
C994 C975 1.368 . S
C994 C988 1.368 . S
C994 C993 1.523 . S
C995 C979 1.429 . S
C995 C991 1.429 . S
C995 C996 1.523 . S
C996 C980 1.368 . S
C996 C992 1.368 . S
C996 C995 1.523 . S
H997 C972 0.950 . S
H998 C974 0.950 . S
H999 C975 0.949 . S
H1000 C977 0.950 . S
H1001 C979 0.950 . S
C1002 C1003 1.349 . S
C1002 C1004 1.327 . S
C1002 H1027 0.950 . S
C1003 C1002 1.349 . S
C1003 C1019 1.349 . S
C1004 C1002 1.327 . S
C1004 C1023 1.429 . S
C1004 H1028 0.950 . S
C1005 C1022 1.574 . S
C1005 C1024 1.368 . S
C1005 H1029 0.949 . S
H1006 C1010 0.949 . S
C1007 C1008 1.349 . S
C1007 C1009 1.327 . S
C1007 H1030 0.950 . S
C1008 C1007 1.349 . S
C1008 C1020 1.349 . S
C1009 C1007 1.327 . S
C1009 C1025 1.429 . S
C1009 H1031 0.950 . S
C1010 H1006 0.949 . S
C1010 C1018 1.574 . S
C1010 C1026 1.368 . S
H1011 C1019 0.950 . S
H1012 C1017 0.950 . S
H1013 C1018 0.949 . S
H1014 C1020 0.950 . S
H1015 C1021 0.950 . S
H1016 C1022 0.949 . S
C1017 H1012 0.950 . S
C1017 C1019 1.327 . S
C1017 C1023 1.429 . S
C1018 C1010 1.574 . S
C1018 H1013 0.949 . S
C1018 C1024 1.368 . S
C1019 C1003 1.349 . S
C1019 H1011 0.950 . S
C1019 C1017 1.327 . S
C1020 C1008 1.349 . S
C1020 H1014 0.950 . S
C1020 C1021 1.327 . S
C1021 H1015 0.950 . S
C1021 C1020 1.327 . S
C1021 C1025 1.429 . S
C1022 C1005 1.574 . S
C1022 H1016 0.949 . S
C1022 C1026 1.368 . S
C1023 C1004 1.429 . S
C1023 C1017 1.429 . S
C1023 C1024 1.523 . S
C1024 C1005 1.368 . S
C1024 C1018 1.368 . S
C1024 C1023 1.523 . S
C1025 C1009 1.429 . S
C1025 C1021 1.429 . S
C1025 C1026 1.523 . S
C1026 C1010 1.368 . S
C1026 C1022 1.368 . S
C1026 C1025 1.523 . S
H1027 C1002 0.950 . S
H1028 C1004 0.950 . S
H1029 C1005 0.949 . S
H1030 C1007 0.950 . S
H1031 C1009 0.950 . S
C1032 C1033 1.349 . S
C1032 C1034 1.327 . S
C1032 H1057 0.950 . S
C1033 C1032 1.349 . S
C1033 C1049 1.349 . S
C1034 C1032 1.327 . S
C1034 C1053 1.429 . S
C1034 H1058 0.950 . S
C1035 C1052 1.574 . S
C1035 C1054 1.368 . S
C1035 H1059 0.949 . S
H1036 C1040 0.949 . S
C1037 C1038 1.349 . S
C1037 C1039 1.327 . S
C1037 H1060 0.950 . S
C1038 C1037 1.349 . S
C1038 C1050 1.349 . S
C1039 C1037 1.327 . S
C1039 C1055 1.429 . S
C1039 H1061 0.950 . S
C1040 H1036 0.949 . S
C1040 C1048 1.574 . S
C1040 C1056 1.368 . S
H1041 C1049 0.950 . S
H1042 C1047 0.950 . S
H1043 C1048 0.949 . S
H1044 C1050 0.950 . S
H1045 C1051 0.950 . S
H1046 C1052 0.949 . S
C1047 H1042 0.950 . S
C1047 C1049 1.327 . S
C1047 C1053 1.429 . S
C1048 C1040 1.574 . S
C1048 H1043 0.949 . S
C1048 C1054 1.368 . S
C1049 C1033 1.349 . S
C1049 H1041 0.950 . S
C1049 C1047 1.327 . S
C1050 C1038 1.349 . S
C1050 H1044 0.950 . S
C1050 C1051 1.327 . S
C1051 H1045 0.950 . S
C1051 C1050 1.327 . S
C1051 C1055 1.429 . S
C1052 C1035 1.574 . S
C1052 H1046 0.949 . S
C1052 C1056 1.368 . S
C1053 C1034 1.429 . S
C1053 C1047 1.429 . S
C1053 C1054 1.523 . S
C1054 C1035 1.368 . S
C1054 C1048 1.368 . S
C1054 C1053 1.523 . S
C1055 C1039 1.429 . S
C1055 C1051 1.429 . S
C1055 C1056 1.523 . S
C1056 C1040 1.368 . S
C1056 C1052 1.368 . S
C1056 C1055 1.523 . S
H1057 C1032 0.950 . S
H1058 C1034 0.950 . S
H1059 C1035 0.949 . S
H1060 C1037 0.950 . S
H1061 C1039 0.950 . S
C1062 C1063 1.349 . S
C1062 C1064 1.327 . S
C1062 H1087 0.950 . S
C1063 C1062 1.349 . S
C1063 C1079 1.349 . S
C1064 C1062 1.327 . S
C1064 C1083 1.429 . S
C1064 H1088 0.950 . S
C1065 C1082 1.574 . S
C1065 C1084 1.368 . S
C1065 H1089 0.949 . S
H1066 C1070 0.949 1_554 S
C1067 C1068 1.349 . S
C1067 C1069 1.327 . S
C1067 H1090 0.950 . S
C1068 C1067 1.349 . S
C1068 C1080 1.349 1_556 S
C1069 C1067 1.327 . S
C1069 C1085 1.429 . S
C1069 H1091 0.950 . S
C1070 H1066 0.949 1_556 S
C1070 C1078 1.574 . S
C1070 C1086 1.368 . S
H1071 C1079 0.950 . S
H1072 C1077 0.950 . S
H1073 C1078 0.949 . S
H1074 C1080 0.950 . S
H1075 C1081 0.950 . S
H1076 C1082 0.949 . S
C1077 H1072 0.950 . S
C1077 C1079 1.327 . S
C1077 C1083 1.429 . S
C1078 C1070 1.574 . S
C1078 H1073 0.949 . S
C1078 C1084 1.368 . S
C1079 C1063 1.349 . S
C1079 H1071 0.950 . S
C1079 C1077 1.327 . S
C1080 C1068 1.349 1_554 S
C1080 H1074 0.950 . S
C1080 C1081 1.327 . S
C1081 H1075 0.950 . S
C1081 C1080 1.327 . S
C1081 C1085 1.429 1_554 S
C1082 C1065 1.574 . S
C1082 H1076 0.949 . S
C1082 C1086 1.368 . S
C1083 C1064 1.429 . S
C1083 C1077 1.429 . S
C1083 C1084 1.523 . S
C1084 C1065 1.368 . S
C1084 C1078 1.368 . S
C1084 C1083 1.523 . S
C1085 C1069 1.429 . S
C1085 C1081 1.429 1_556 S
C1085 C1086 1.523 . S
C1086 C1070 1.368 . S
C1086 C1082 1.368 . S
C1086 C1085 1.523 . S
H1087 C1062 0.950 . S
H1088 C1064 0.950 . S
H1089 C1065 0.949 . S
H1090 C1067 0.950 . S
H1091 C1069 0.950 . S
C1092 C1093 1.349 . S
C1092 C1094 1.327 . S
C1092 H1117 0.950 . S
C1093 C1092 1.349 . S
C1093 C1109 1.349 . S
C1094 C1092 1.327 . S
C1094 C1113 1.429 . S
C1094 H1118 0.950 . S
C1095 C1112 1.574 . S
C1095 C1114 1.368 . S
C1095 H1119 0.949 . S
H1096 C1100 0.949 . S
C1097 C1098 1.349 1_554 S
C1097 C1099 1.308 1_554 S
C1097 H1120 0.950 . S
C1098 C1097 1.349 1_556 S
C1098 C1110 1.349 . S
C1099 C1097 1.308 1_556 S
C1099 C1115 1.471 . S
C1099 H1121 0.930 1_556 S
C1100 H1096 0.949 . S
C1100 C1108 1.574 . S
C1100 C1116 1.368 . S
H1101 C1109 0.950 . S
H1102 C1107 0.950 . S
H1103 C1108 0.949 . S
H1104 C1110 0.950 . S
H1105 C1111 0.950 . S
H1106 C1112 0.949 . S
C1107 H1102 0.950 . S
C1107 C1109 1.327 . S
C1107 C1113 1.429 . S
C1108 C1100 1.574 . S
C1108 H1103 0.949 . S
C1108 C1114 1.368 . S
C1109 C1093 1.349 . S
C1109 H1101 0.950 . S
C1109 C1107 1.327 . S
C1110 C1098 1.349 . S
C1110 H1104 0.950 . S
C1110 C1111 1.327 . S
C1111 H1105 0.950 . S
C1111 C1110 1.327 . S
C1111 C1115 1.429 . S
C1112 C1095 1.574 . S
C1112 H1106 0.949 . S
C1112 C1116 1.368 . S
C1113 C1094 1.429 . S
C1113 C1107 1.429 . S
C1113 C1114 1.523 . S
C1114 C1095 1.368 . S
C1114 C1108 1.368 . S
C1114 C1113 1.523 . S
C1115 C1099 1.471 . S
C1115 C1111 1.429 . S
C1115 C1116 1.523 . S
C1116 C1100 1.368 . S
C1116 C1112 1.368 . S
C1116 C1115 1.523 . S
H1117 C1092 0.950 . S
H1118 C1094 0.950 . S
H1119 C1095 0.949 . S
H1120 C1097 0.950 . S
H1121 C1099 0.930 1_554 S
C1122 C1123 1.349 . S
C1122 C1124 1.327 . S
C1122 H1147 0.950 . S
C1123 C1122 1.349 . S
C1123 C1139 1.349 . S
C1124 C1122 1.327 . S
C1124 C1143 1.429 . S
C1124 H1148 0.950 . S
C1125 C1142 1.574 . S
C1125 C1144 1.368 . S
C1125 H1149 0.921 1_556 S
H1126 C1130 0.949 . S
C1127 C1128 1.350 1_554 S
C1127 C1129 1.327 . S
C1127 H1150 0.950 . S
C1128 C1127 1.350 1_556 S
C1128 C1140 1.347 . S
C1129 C1127 1.327 . S
C1129 C1145 1.429 1_554 S
C1129 H1151 0.950 . S
C1130 H1126 0.949 . S
C1130 C1138 1.574 . S
C1130 C1146 1.368 . S
H1131 C1139 0.950 . S
H1132 C1137 0.950 . S
H1133 C1138 0.949 . S
H1134 C1140 0.950 . S
H1135 C1141 0.950 . S
H1136 C1142 0.949 1_554 S
C1137 H1132 0.950 . S
C1137 C1139 1.327 . S
C1137 C1143 1.429 . S
C1138 C1130 1.574 . S
C1138 H1133 0.949 . S
C1138 C1144 1.368 . S
C1139 C1123 1.349 . S
C1139 H1131 0.950 . S
C1139 C1137 1.327 . S
C1140 C1128 1.347 . S
C1140 H1134 0.950 . S
C1140 C1141 1.327 . S
C1141 H1135 0.950 . S
C1141 C1140 1.327 . S
C1141 C1145 1.429 . S
C1142 C1125 1.574 . S
C1142 H1136 0.949 1_556 S
C1142 C1146 1.368 . S
C1143 C1124 1.429 . S
C1143 C1137 1.429 . S
C1143 C1144 1.523 . S
C1144 C1125 1.368 . S
C1144 C1138 1.368 . S
C1144 C1143 1.523 . S
C1145 C1129 1.429 1_556 S
C1145 C1141 1.429 . S
C1145 C1146 1.523 . S
C1146 C1130 1.368 . S
C1146 C1142 1.368 . S
C1146 C1145 1.523 . S
H1147 C1122 0.950 . S
H1148 C1124 0.950 . S
H1149 C1125 0.921 1_554 S
H1150 C1127 0.950 . S
H1151 C1129 0.950 . S
C1152 C1153 1.349 . S
C1152 C1154 1.327 . S
C1152 H1177 0.950 . S
C1153 C1152 1.349 . S
C1153 C1169 1.349 . S
C1154 C1152 1.327 . S
C1154 C1173 1.429 . S
C1154 H1178 0.950 . S
C1155 C1172 1.574 . S
C1155 C1174 1.368 . S
C1155 H1179 0.949 . S
H1156 C1160 0.949 1_554 S
C1157 C1158 1.349 . S
C1157 C1159 1.327 . S
C1157 H1180 0.950 . S
C1158 C1157 1.349 . S
C1158 C1170 1.349 1_556 S
C1159 C1157 1.327 . S
C1159 C1175 1.429 . S
C1159 H1181 0.950 . S
C1160 H1156 0.949 1_556 S
C1160 C1168 1.574 . S
C1160 C1176 1.368 . S
H1161 C1169 0.950 . S
H1162 C1167 0.950 . S
H1163 C1168 0.949 . S
H1164 C1170 0.950 . S
H1165 C1171 0.950 . S
H1166 C1172 0.949 . S
C1167 H1162 0.950 . S
C1167 C1169 1.327 . S
C1167 C1173 1.429 . S
C1168 C1160 1.574 . S
C1168 H1163 0.949 . S
C1168 C1174 1.368 . S
C1169 C1153 1.349 . S
C1169 H1161 0.950 . S
C1169 C1167 1.327 . S
C1170 C1158 1.349 1_554 S
C1170 H1164 0.950 . S
C1170 C1171 1.327 . S
C1171 H1165 0.950 . S
C1171 C1170 1.327 . S
C1171 C1175 1.429 1_554 S
C1172 C1155 1.574 . S
C1172 H1166 0.949 . S
C1172 C1176 1.368 . S
C1173 C1154 1.429 . S
C1173 C1167 1.429 . S
C1173 C1174 1.523 . S
C1174 C1155 1.368 . S
C1174 C1168 1.368 . S
C1174 C1173 1.523 . S
C1175 C1159 1.429 . S
C1175 C1171 1.429 1_556 S
C1175 C1176 1.523 . S
C1176 C1160 1.368 . S
C1176 C1172 1.368 . S
C1176 C1175 1.523 . S
H1177 C1152 0.950 . S
H1178 C1154 0.950 . S
H1179 C1155 0.949 . S
H1180 C1157 0.950 . S
H1181 C1159 0.950 . S
C1182 C1183 1.349 . S
C1182 C1184 1.327 . S
C1182 H1207 0.950 . S
C1183 C1182 1.349 . S
C1183 C1199 1.349 . S
C1184 C1182 1.327 . S
C1184 C1203 1.429 . S
C1184 H1208 0.950 . S
C1185 C1202 1.574 . S
C1185 C1204 1.368 . S
C1185 H1209 0.949 . S
H1186 C1190 0.949 . S
C1187 C1188 1.349 1_554 S
C1187 C1189 1.327 . S
C1187 H1210 0.950 . S
C1188 C1187 1.349 1_556 S
C1188 C1200 1.349 . S
C1189 C1187 1.327 . S
C1189 C1205 1.429 1_554 S
C1189 H1211 0.950 . S
C1190 H1186 0.949 . S
C1190 C1198 1.574 . S
C1190 C1206 1.368 . S
H1191 C1199 0.950 . S
H1192 C1197 0.950 . S
H1193 C1198 0.949 . S
H1194 C1200 0.950 . S
H1195 C1201 0.950 . S
H1196 C1202 0.949 1_554 S
C1197 H1192 0.950 . S
C1197 C1199 1.327 . S
C1197 C1203 1.429 . S
C1198 C1190 1.574 . S
C1198 H1193 0.949 . S
C1198 C1204 1.368 . S
C1199 C1183 1.349 . S
C1199 H1191 0.950 . S
C1199 C1197 1.327 . S
C1200 C1188 1.349 . S
C1200 H1194 0.950 . S
C1200 C1201 1.327 . S
C1201 H1195 0.950 . S
C1201 C1200 1.327 . S
C1201 C1205 1.429 . S
C1202 C1185 1.574 . S
C1202 H1196 0.949 1_556 S
C1202 C1206 1.368 . S
C1203 C1184 1.429 . S
C1203 C1197 1.429 . S
C1203 C1204 1.523 . S
C1204 C1185 1.368 . S
C1204 C1198 1.368 . S
C1204 C1203 1.523 . S
C1205 C1189 1.429 1_556 S
C1205 C1201 1.429 . S
C1205 C1206 1.523 . S
C1206 C1190 1.368 . S
C1206 C1202 1.368 . S
C1206 C1205 1.523 . S
H1207 C1182 0.950 . S
H1208 C1184 0.950 . S
H1209 C1185 0.949 . S
H1210 C1187 0.950 . S
H1211 C1189 0.950 . S
C1212 C1213 1.349 . S
C1212 C1214 1.327 . S
C1212 H1237 0.950 . S
C1213 C1212 1.349 . S
C1213 C1229 1.349 . S
C1214 C1212 1.327 . S
C1214 C1233 1.429 . S
C1214 H1238 0.950 . S
C1215 C1232 1.574 . S
C1215 C1234 1.368 . S
C1215 H1239 0.949 . S
H1216 C1220 0.989 . S
C1217 C1218 1.328 1_556 S
C1217 C1219 1.327 . S
C1217 H1240 0.950 . S
C1218 C1217 1.328 1_554 S
C1218 C1230 1.365 . S
C1219 C1217 1.327 . S
C1219 C1235 1.429 . S
C1219 H1241 0.950 . S
C1220 H1216 0.989 . S
C1220 C1228 1.564 1_554 S
C1220 C1236 1.335 1_554 S
H1221 C1229 0.950 . S
H1222 C1227 0.950 . S
H1223 C1228 0.949 1_554 S
H1224 C1230 0.950 . S
H1225 C1231 0.950 . S
H1226 C1232 0.949 . S
C1227 H1222 0.950 . S
C1227 C1229 1.327 . S
C1227 C1233 1.429 . S
C1228 C1220 1.564 1_556 S
C1228 H1223 0.949 1_556 S
C1228 C1234 1.368 . S
C1229 C1213 1.349 . S
C1229 H1221 0.950 . S
C1229 C1227 1.327 . S
C1230 C1218 1.365 . S
C1230 H1224 0.950 . S
C1230 C1231 1.327 . S
C1231 H1225 0.950 . S
C1231 C1230 1.327 . S
C1231 C1235 1.429 1_554 S
C1232 C1215 1.574 . S
C1232 H1226 0.949 . S
C1232 C1236 1.368 . S
C1233 C1214 1.429 . S
C1233 C1227 1.429 . S
C1233 C1234 1.523 . S
C1234 C1215 1.368 . S
C1234 C1228 1.368 . S
C1234 C1233 1.523 . S
C1235 C1219 1.429 . S
C1235 C1231 1.429 1_556 S
C1235 C1236 1.523 . S
C1236 C1220 1.335 1_556 S
C1236 C1232 1.368 . S
C1236 C1235 1.523 . S
H1237 C1212 0.950 . S
H1238 C1214 0.950 . S
H1239 C1215 0.949 . S
H1240 C1217 0.950 . S
H1241 C1219 0.950 . S
C1242 C1243 1.349 . S
C1242 C1244 1.327 . S
C1242 H1267 0.950 . S
C1243 C1242 1.349 . S
C1243 C1259 1.349 . S
C1244 C1242 1.327 . S
C1244 C1263 1.429 . S
C1244 H1268 0.950 . S
C1245 C1262 1.574 . S
C1245 C1264 1.368 . S
C1245 H1269 0.949 . S
H1246 C1250 0.949 . S
C1247 C1248 1.349 . S
C1247 C1249 1.327 . S
C1247 H1270 0.950 . S
C1248 C1247 1.349 . S
C1248 C1260 1.349 . S
C1249 C1247 1.327 . S
C1249 C1265 1.429 . S
C1249 H1271 0.950 . S
C1250 H1246 0.949 . S
C1250 C1258 1.574 . S
C1250 C1266 1.368 . S
H1251 C1259 0.950 . S
H1252 C1257 0.950 . S
H1253 C1258 0.949 . S
H1254 C1260 0.950 . S
H1255 C1261 0.950 . S
H1256 C1262 0.949 . S
C1257 H1252 0.950 . S
C1257 C1259 1.327 . S
C1257 C1263 1.429 . S
C1258 C1250 1.574 . S
C1258 H1253 0.949 . S
C1258 C1264 1.368 . S
C1259 C1243 1.349 . S
C1259 H1251 0.950 . S
C1259 C1257 1.327 . S
C1260 C1248 1.349 . S
C1260 H1254 0.950 . S
C1260 C1261 1.327 . S
C1261 H1255 0.950 . S
C1261 C1260 1.327 . S
C1261 C1265 1.429 . S
C1262 C1245 1.574 . S
C1262 H1256 0.949 . S
C1262 C1266 1.368 . S
C1263 C1244 1.429 . S
C1263 C1257 1.429 . S
C1263 C1264 1.523 . S
C1264 C1245 1.368 . S
C1264 C1258 1.368 . S
C1264 C1263 1.523 . S
C1265 C1249 1.429 . S
C1265 C1261 1.429 . S
C1265 C1266 1.523 . S
C1266 C1250 1.368 . S
C1266 C1262 1.368 . S
C1266 C1265 1.523 . S
H1267 C1242 0.950 . S
H1268 C1244 0.950 . S
H1269 C1245 0.949 . S
H1270 C1247 0.950 . S
H1271 C1249 0.950 . S
C1272 C1273 1.349 . S
C1272 C1274 1.327 . S
C1272 H1297 0.950 . S
C1273 C1272 1.349 . S
C1273 C1289 1.349 . S
C1274 C1272 1.327 . S
C1274 C1293 1.429 . S
C1274 H1298 0.950 . S
C1275 C1292 1.574 . S
C1275 C1294 1.368 . S
C1275 H1299 0.949 . S
H1276 C1280 0.949 . S
C1277 C1278 1.349 . S
C1277 C1279 1.327 . S
C1277 H1300 0.950 . S
C1278 C1277 1.349 . S
C1278 C1290 1.349 . S
C1279 C1277 1.327 . S
C1279 C1295 1.429 . S
C1279 H1301 0.950 . S
C1280 H1276 0.949 . S
C1280 C1288 1.574 . S
C1280 C1296 1.368 . S
H1281 C1289 0.950 . S
H1282 C1287 0.950 . S
H1283 C1288 0.949 . S
H1284 C1290 0.950 . S
H1285 C1291 0.950 . S
H1286 C1292 0.949 . S
C1287 H1282 0.950 . S
C1287 C1289 1.327 . S
C1287 C1293 1.429 . S
C1288 C1280 1.574 . S
C1288 H1283 0.949 . S
C1288 C1294 1.368 . S
C1289 C1273 1.349 . S
C1289 H1281 0.950 . S
C1289 C1287 1.327 . S
C1290 C1278 1.349 . S
C1290 H1284 0.950 . S
C1290 C1291 1.327 . S
C1291 H1285 0.950 . S
C1291 C1290 1.327 . S
C1291 C1295 1.429 . S
C1292 C1275 1.574 . S
C1292 H1286 0.949 . S
C1292 C1296 1.368 . S
C1293 C1274 1.429 . S
C1293 C1287 1.429 . S
C1293 C1294 1.523 . S
C1294 C1275 1.368 . S
C1294 C1288 1.368 . S
C1294 C1293 1.523 . S
C1295 C1279 1.429 . S
C1295 C1291 1.429 . S
C1295 C1296 1.523 . S
C1296 C1280 1.368 . S
C1296 C1292 1.368 . S
C1296 C1295 1.523 . S
H1297 C1272 0.950 . S
H1298 C1274 0.950 . S
H1299 C1275 0.949 . S
H1300 C1277 0.950 . S
H1301 C1279 0.950 . S
C1302 C1303 1.349 . S
C1302 C1304 1.327 . S
C1302 H1327 0.950 . S
C1303 C1302 1.349 . S
C1303 C1319 1.349 . S
C1304 C1302 1.327 . S
C1304 C1323 1.429 . S
C1304 H1328 0.950 . S
C1305 C1322 1.574 . S
C1305 C1324 1.368 . S
C1305 H1329 0.949 . S
H1306 C1310 0.949 . S
C1307 C1308 1.349 . S
C1307 C1309 1.327 . S
C1307 H1330 0.950 . S
C1308 C1307 1.349 . S
C1308 C1320 1.349 . S
C1309 C1307 1.327 . S
C1309 C1325 1.429 . S
C1309 H1331 0.950 . S
C1310 H1306 0.949 . S
C1310 C1318 1.574 . S
C1310 C1326 1.368 . S
H1311 C1319 0.950 . S
H1312 C1317 0.950 . S
H1313 C1318 0.949 . S
H1314 C1320 0.950 . S
H1315 C1321 0.950 . S
H1316 C1322 0.949 . S
C1317 H1312 0.950 . S
C1317 C1319 1.327 . S
C1317 C1323 1.429 . S
C1318 C1310 1.574 . S
C1318 H1313 0.949 . S
C1318 C1324 1.368 . S
C1319 C1303 1.349 . S
C1319 H1311 0.950 . S
C1319 C1317 1.327 . S
C1320 C1308 1.349 . S
C1320 H1314 0.950 . S
C1320 C1321 1.327 . S
C1321 H1315 0.950 . S
C1321 C1320 1.327 . S
C1321 C1325 1.429 . S
C1322 C1305 1.574 . S
C1322 H1316 0.949 . S
C1322 C1326 1.368 . S
C1323 C1304 1.429 . S
C1323 C1317 1.429 . S
C1323 C1324 1.523 . S
C1324 C1305 1.368 . S
C1324 C1318 1.368 . S
C1324 C1323 1.523 . S
C1325 C1309 1.429 . S
C1325 C1321 1.429 . S
C1325 C1326 1.523 . S
C1326 C1310 1.368 . S
C1326 C1322 1.368 . S
C1326 C1325 1.523 . S
H1327 C1302 0.950 . S
H1328 C1304 0.950 . S
H1329 C1305 0.949 . S
H1330 C1307 0.950 . S
H1331 C1309 0.950 . S
C1332 C1333 1.349 . S
C1332 C1334 1.327 . S
C1332 H1357 0.950 . S
C1333 C1332 1.349 . S
C1333 C1349 1.349 . S
C1334 C1332 1.327 . S
C1334 C1353 1.429 . S
C1334 H1358 0.950 . S
C1335 C1352 1.574 . S
C1335 C1354 1.368 1_455 S
C1335 H1359 0.949 . S
H1336 C1340 0.949 . S
C1337 C1338 1.349 . S
C1337 C1339 1.327 . S
C1337 H1360 0.950 . S
C1338 C1337 1.349 . S
C1338 C1350 1.349 . S
C1339 C1337 1.327 . S
C1339 C1355 1.429 . S
C1339 H1361 0.950 . S
C1340 H1336 0.949 . S
C1340 C1348 1.574 1_455 S
C1340 C1356 1.368 . S
H1341 C1349 0.950 . S
H1342 C1347 0.950 . S
H1343 C1348 0.949 . S
H1344 C1350 0.950 . S
H1345 C1351 0.950 . S
H1346 C1352 0.949 . S
C1347 H1342 0.950 . S
C1347 C1349 1.327 . S
C1347 C1353 1.429 . S
C1348 C1340 1.574 1_655 S
C1348 H1343 0.949 . S
C1348 C1354 1.368 . S
C1349 C1333 1.349 . S
C1349 H1341 0.950 . S
C1349 C1347 1.327 . S
C1350 C1338 1.349 . S
C1350 H1344 0.950 . S
C1350 C1351 1.327 . S
C1351 H1345 0.950 . S
C1351 C1350 1.327 . S
C1351 C1355 1.429 . S
C1352 C1335 1.574 . S
C1352 H1346 0.949 . S
C1352 C1356 1.368 . S
C1353 C1334 1.429 . S
C1353 C1347 1.429 . S
C1353 C1354 1.523 . S
C1354 C1335 1.368 1_655 S
C1354 C1348 1.368 . S
C1354 C1353 1.523 . S
C1355 C1339 1.429 . S
C1355 C1351 1.429 . S
C1355 C1356 1.523 . S
C1356 C1340 1.368 . S
C1356 C1352 1.368 . S
C1356 C1355 1.523 . S
H1357 C1332 0.950 . S
H1358 C1334 0.950 . S
H1359 C1335 0.949 . S
H1360 C1337 0.950 . S
H1361 C1339 0.950 . S
C1362 C1363 1.349 . S
C1362 C1364 1.327 . S
C1362 H1387 0.950 . S
C1363 C1362 1.349 . S
C1363 C1379 1.349 . S
C1364 C1362 1.327 . S
C1364 C1383 1.429 . S
C1364 H1388 0.950 . S
C1365 C1382 1.574 . S
C1365 C1384 1.368 . S
C1365 H1389 0.949 . S
H1366 C1370 0.949 . S
C1367 C1368 1.349 . S
C1367 C1369 1.327 . S
C1367 H1390 0.950 . S
C1368 C1367 1.349 . S
C1368 C1380 1.349 . S
C1369 C1367 1.327 . S
C1369 C1385 1.429 . S
C1369 H1391 0.950 . S
C1370 H1366 0.949 . S
C1370 C1378 1.574 . S
C1370 C1386 1.368 . S
H1371 C1379 0.950 . S
H1372 C1377 0.950 . S
H1373 C1378 0.949 . S
H1374 C1380 0.950 . S
H1375 C1381 0.950 . S
H1376 C1382 0.949 . S
C1377 H1372 0.950 . S
C1377 C1379 1.327 . S
C1377 C1383 1.429 . S
C1378 C1370 1.574 . S
C1378 H1373 0.949 . S
C1378 C1384 1.368 . S
C1379 C1363 1.349 . S
C1379 H1371 0.950 . S
C1379 C1377 1.327 . S
C1380 C1368 1.349 . S
C1380 H1374 0.950 . S
C1380 C1381 1.327 . S
C1381 H1375 0.950 . S
C1381 C1380 1.327 . S
C1381 C1385 1.429 . S
C1382 C1365 1.574 . S
C1382 H1376 0.949 . S
C1382 C1386 1.368 . S
C1383 C1364 1.429 . S
C1383 C1377 1.429 . S
C1383 C1384 1.523 . S
C1384 C1365 1.368 . S
C1384 C1378 1.368 . S
C1384 C1383 1.523 . S
C1385 C1369 1.429 . S
C1385 C1381 1.429 . S
C1385 C1386 1.523 . S
C1386 C1370 1.368 . S
C1386 C1382 1.368 . S
C1386 C1385 1.523 . S
H1387 C1362 0.950 . S
H1388 C1364 0.950 . S
H1389 C1365 0.949 . S
H1390 C1367 0.950 . S
H1391 C1369 0.950 . S
C1392 C1393 1.349 . S
C1392 C1394 1.327 . S
C1392 H1417 0.950 . S
C1393 C1392 1.349 . S
C1393 C1409 1.349 . S
C1394 C1392 1.327 . S
C1394 C1413 1.429 . S
C1394 H1418 0.950 . S
C1395 C1412 1.574 1_545 S
C1395 C1414 1.368 . S
C1395 H1419 0.949 . S
H1396 C1400 0.917 1_565 S
C1397 C1398 1.349 . S
C1397 C1399 1.327 . S
C1397 H1420 0.950 . S
C1398 C1397 1.349 . S
C1398 C1410 1.349 . S
C1399 C1397 1.327 . S
C1399 C1415 1.429 . S
C1399 H1421 0.950 . S
C1400 H1396 0.917 1_545 S
C1400 C1408 1.574 . S
C1400 C1416 1.368 1_545 S
H1401 C1409 0.950 . S
H1402 C1407 0.950 . S
H1403 C1408 0.949 . S
H1404 C1410 0.950 . S
H1405 C1411 0.950 . S
H1406 C1412 0.949 . S
C1407 H1402 0.950 . S
C1407 C1409 1.327 . S
C1407 C1413 1.429 . S
C1408 C1400 1.574 . S
C1408 H1403 0.949 . S
C1408 C1414 1.368 . S
C1409 C1393 1.349 . S
C1409 H1401 0.950 . S
C1409 C1407 1.327 . S
C1410 C1398 1.349 . S
C1410 H1404 0.950 . S
C1410 C1411 1.327 . S
C1411 H1405 0.950 . S
C1411 C1410 1.327 . S
C1411 C1415 1.429 . S
C1412 C1395 1.574 1_565 S
C1412 H1406 0.949 . S
C1412 C1416 1.368 . S
C1413 C1394 1.429 . S
C1413 C1407 1.429 . S
C1413 C1414 1.523 . S
C1414 C1395 1.368 . S
C1414 C1408 1.368 . S
C1414 C1413 1.523 . S
C1415 C1399 1.429 . S
C1415 C1411 1.429 . S
C1415 C1416 1.523 . S
C1416 C1400 1.368 1_565 S
C1416 C1412 1.368 . S
C1416 C1415 1.523 . S
H1417 C1392 0.950 . S
H1418 C1394 0.950 . S
H1419 C1395 0.949 . S
H1420 C1397 0.950 . S
H1421 C1399 0.950 . S
C1422 C1423 1.349 . S
C1422 C1424 1.327 . S
C1422 H1447 0.950 . S
C1423 C1422 1.349 . S
C1423 C1439 1.349 . S
C1424 C1422 1.327 . S
C1424 C1443 1.429 . S
C1424 H1448 0.950 . S
C1425 C1442 1.574 . S
C1425 C1444 1.368 . S
C1425 H1449 0.949 . S
H1426 C1430 0.949 . S
C1427 C1428 1.349 . S
C1427 C1429 1.327 . S
C1427 H1450 0.950 . S
C1428 C1427 1.349 . S
C1428 C1440 1.349 . S
C1429 C1427 1.327 . S
C1429 C1445 1.429 . S
C1429 H1451 0.950 . S
C1430 H1426 0.949 . S
C1430 C1438 1.574 . S
C1430 C1446 1.368 . S
H1431 C1439 0.950 . S
H1432 C1437 0.950 . S
H1433 C1438 0.949 . S
H1434 C1440 0.950 . S
H1435 C1441 0.950 . S
H1436 C1442 0.949 . S
C1437 H1432 0.950 . S
C1437 C1439 1.327 . S
C1437 C1443 1.429 . S
C1438 C1430 1.574 . S
C1438 H1433 0.949 . S
C1438 C1444 1.368 . S
C1439 C1423 1.349 . S
C1439 H1431 0.950 . S
C1439 C1437 1.327 . S
C1440 C1428 1.349 . S
C1440 H1434 0.950 . S
C1440 C1441 1.327 . S
C1441 H1435 0.950 . S
C1441 C1440 1.327 . S
C1441 C1445 1.429 . S
C1442 C1425 1.574 . S
C1442 H1436 0.949 . S
C1442 C1446 1.368 . S
C1443 C1424 1.429 . S
C1443 C1437 1.429 . S
C1443 C1444 1.523 . S
C1444 C1425 1.368 . S
C1444 C1438 1.368 . S
C1444 C1443 1.523 . S
C1445 C1429 1.429 . S
C1445 C1441 1.429 . S
C1445 C1446 1.523 . S
C1446 C1430 1.368 . S
C1446 C1442 1.368 . S
C1446 C1445 1.523 . S
H1447 C1422 0.950 . S
H1448 C1424 0.950 . S
H1449 C1425 0.949 . S
H1450 C1427 0.950 . S
H1451 C1429 0.950 . S
C1452 C1453 1.349 . S
C1452 C1454 1.327 . S
C1452 H1477 0.950 . S
C1453 C1452 1.349 . S
C1453 C1469 1.349 . S
C1454 C1452 1.327 . S
C1454 C1473 1.429 . S
C1454 H1478 0.950 . S
C1455 C1472 1.574 . S
C1455 C1474 1.368 . S
C1455 H1479 0.949 . S
H1456 C1460 0.949 . S
C1457 C1458 1.349 . S
C1457 C1459 1.327 . S
C1457 H1480 0.950 . S
C1458 C1457 1.349 . S
C1458 C1470 1.349 . S
C1459 C1457 1.327 . S
C1459 C1475 1.429 . S
C1459 H1481 0.950 . S
C1460 H1456 0.949 . S
C1460 C1468 1.574 . S
C1460 C1476 1.368 . S
H1461 C1469 0.950 . S
H1462 C1467 0.950 . S
H1463 C1468 0.949 . S
H1464 C1470 0.950 . S
H1465 C1471 0.950 . S
H1466 C1472 0.949 . S
C1467 H1462 0.950 . S
C1467 C1469 1.327 . S
C1467 C1473 1.429 . S
C1468 C1460 1.574 . S
C1468 H1463 0.949 . S
C1468 C1474 1.368 . S
C1469 C1453 1.349 . S
C1469 H1461 0.950 . S
C1469 C1467 1.327 . S
C1470 C1458 1.349 . S
C1470 H1464 0.950 . S
C1470 C1471 1.327 . S
C1471 H1465 0.950 . S
C1471 C1470 1.327 . S
C1471 C1475 1.429 . S
C1472 C1455 1.574 . S
C1472 H1466 0.949 . S
C1472 C1476 1.368 . S
C1473 C1454 1.429 . S
C1473 C1467 1.429 . S
C1473 C1474 1.523 . S
C1474 C1455 1.368 . S
C1474 C1468 1.368 . S
C1474 C1473 1.523 . S
C1475 C1459 1.429 . S
C1475 C1471 1.429 . S
C1475 C1476 1.523 . S
C1476 C1460 1.368 . S
C1476 C1472 1.368 . S
C1476 C1475 1.523 . S
H1477 C1452 0.950 . S
H1478 C1454 0.950 . S
H1479 C1455 0.949 . S
H1480 C1457 0.950 . S
H1481 C1459 0.950 . S
C1482 C1483 1.349 . S
C1482 C1484 1.327 . S
C1482 H1507 0.950 . S
C1483 C1482 1.349 . S
C1483 C1499 1.349 . S
C1484 C1482 1.327 . S
C1484 C1503 1.429 . S
C1484 H1508 0.950 . S
C1485 C1502 1.574 . S
C1485 C1504 1.368 . S
C1485 H1509 0.949 . S
H1486 C1490 0.949 . S
C1487 C1488 1.349 . S
C1487 C1489 1.327 . S
C1487 H1510 0.950 . S
C1488 C1487 1.349 . S
C1488 C1500 1.349 . S
C1489 C1487 1.327 . S
C1489 C1505 1.429 . S
C1489 H1511 0.950 . S
C1490 H1486 0.949 . S
C1490 C1498 1.574 . S
C1490 C1506 1.368 . S
H1491 C1499 0.950 . S
H1492 C1497 0.950 . S
H1493 C1498 0.949 . S
H1494 C1500 0.950 . S
H1495 C1501 0.950 . S
H1496 C1502 0.949 . S
C1497 H1492 0.950 . S
C1497 C1499 1.327 . S
C1497 C1503 1.429 . S
C1498 C1490 1.574 . S
C1498 H1493 0.949 . S
C1498 C1504 1.368 . S
C1499 C1483 1.349 . S
C1499 H1491 0.950 . S
C1499 C1497 1.327 . S
C1500 C1488 1.349 . S
C1500 H1494 0.950 . S
C1500 C1501 1.327 . S
C1501 H1495 0.950 . S
C1501 C1500 1.327 . S
C1501 C1505 1.429 . S
C1502 C1485 1.574 . S
C1502 H1496 0.949 . S
C1502 C1506 1.368 . S
C1503 C1484 1.429 . S
C1503 C1497 1.429 . S
C1503 C1504 1.523 . S
C1504 C1485 1.368 . S
C1504 C1498 1.368 . S
C1504 C1503 1.523 . S
C1505 C1489 1.429 . S
C1505 C1501 1.429 . S
C1505 C1506 1.523 . S
C1506 C1490 1.368 . S
C1506 C1502 1.368 . S
C1506 C1505 1.523 . S
H1507 C1482 0.950 . S
H1508 C1484 0.950 . S
H1509 C1485 0.949 . S
H1510 C1487 0.950 . S
H1511 C1489 0.950 . S
C1512 C1513 1.349 . S
C1512 C1514 1.327 . S
C1512 H1537 0.950 . S
C1513 C1512 1.349 . S
C1513 C1529 1.349 . S
C1514 C1512 1.327 . S
C1514 C1533 1.429 . S
C1514 H1538 0.950 . S
C1515 C1532 1.574 . S
C1515 C1534 1.368 . S
C1515 H1539 0.949 . S
H1516 C1520 0.949 . S
C1517 C1518 1.349 . S
C1517 C1519 1.327 . S
C1517 H1540 0.950 . S
C1518 C1517 1.349 . S
C1518 C1530 1.349 . S
C1519 C1517 1.327 . S
C1519 C1535 1.429 . S
C1519 H1541 0.950 . S
C1520 H1516 0.949 . S
C1520 C1528 1.574 . S
C1520 C1536 1.368 . S
H1521 C1529 0.950 . S
H1522 C1527 0.950 . S
H1523 C1528 0.949 . S
H1524 C1530 0.950 . S
H1525 C1531 0.950 . S
H1526 C1532 0.949 . S
C1527 H1522 0.950 . S
C1527 C1529 1.327 . S
C1527 C1533 1.429 . S
C1528 C1520 1.574 . S
C1528 H1523 0.949 . S
C1528 C1534 1.368 . S
C1529 C1513 1.349 . S
C1529 H1521 0.950 . S
C1529 C1527 1.327 . S
C1530 C1518 1.349 . S
C1530 H1524 0.950 . S
C1530 C1531 1.327 . S
C1531 H1525 0.950 . S
C1531 C1530 1.327 . S
C1531 C1535 1.429 . S
C1532 C1515 1.574 . S
C1532 H1526 0.949 . S
C1532 C1536 1.368 . S
C1533 C1514 1.429 . S
C1533 C1527 1.429 . S
C1533 C1534 1.523 . S
C1534 C1515 1.368 . S
C1534 C1528 1.368 . S
C1534 C1533 1.523 . S
C1535 C1519 1.429 . S
C1535 C1531 1.429 . S
C1535 C1536 1.523 . S
C1536 C1520 1.368 . S
C1536 C1532 1.368 . S
C1536 C1535 1.523 . S
H1537 C1512 0.950 . S
H1538 C1514 0.950 . S
H1539 C1515 0.949 . S
H1540 C1517 0.950 . S
H1541 C1519 0.950 . S
C1542 C1543 1.349 . S
C1542 C1544 1.327 . S
C1542 H1567 0.950 . S
C1543 C1542 1.349 . S
C1543 C1559 1.349 . S
C1544 C1542 1.327 . S
C1544 C1563 1.429 . S
C1544 H1568 0.950 . S
C1545 C1562 1.574 . S
C1545 C1564 1.368 . S
C1545 H1569 0.949 . S
H1546 C1550 0.949 . S
C1547 C1548 1.349 . S
C1547 C1549 1.327 . S
C1547 H1570 0.950 . S
C1548 C1547 1.349 . S
C1548 C1560 1.349 . S
C1549 C1547 1.327 . S
C1549 C1565 1.429 . S
C1549 H1571 0.950 . S
C1550 H1546 0.949 . S
C1550 C1558 1.574 . S
C1550 C1566 1.368 . S
H1551 C1559 0.950 . S
H1552 C1557 0.950 . S
H1553 C1558 0.949 . S
H1554 C1560 0.950 . S
H1555 C1561 0.950 . S
H1556 C1562 0.949 . S
C1557 H1552 0.950 . S
C1557 C1559 1.327 . S
C1557 C1563 1.429 . S
C1558 C1550 1.574 . S
C1558 H1553 0.949 . S
C1558 C1564 1.368 . S
C1559 C1543 1.349 . S
C1559 H1551 0.950 . S
C1559 C1557 1.327 . S
C1560 C1548 1.349 . S
C1560 H1554 0.950 . S
C1560 C1561 1.327 . S
C1561 H1555 0.950 . S
C1561 C1560 1.327 . S
C1561 C1565 1.429 . S
C1562 C1545 1.574 . S
C1562 H1556 0.949 . S
C1562 C1566 1.368 . S
C1563 C1544 1.429 . S
C1563 C1557 1.429 . S
C1563 C1564 1.523 . S
C1564 C1545 1.368 . S
C1564 C1558 1.368 . S
C1564 C1563 1.523 . S
C1565 C1549 1.429 . S
C1565 C1561 1.429 . S
C1565 C1566 1.523 . S
C1566 C1550 1.368 . S
C1566 C1562 1.368 . S
C1566 C1565 1.523 . S
H1567 C1542 0.950 . S
H1568 C1544 0.950 . S
H1569 C1545 0.949 . S
H1570 C1547 0.950 . S
H1571 C1549 0.950 . S
C1572 C1573 1.349 . S
C1572 C1574 1.327 . S
C1572 H1597 0.950 . S
C1573 C1572 1.349 . S
C1573 C1589 1.349 . S
C1574 C1572 1.327 . S
C1574 C1593 1.429 . S
C1574 H1598 0.950 . S
C1575 C1592 1.574 . S
C1575 C1594 1.368 . S
C1575 H1599 0.949 . S
H1576 C1580 0.949 . S
C1577 C1578 1.349 . S
C1577 C1579 1.327 . S
C1577 H1600 0.950 . S
C1578 C1577 1.349 . S
C1578 C1590 1.349 . S
C1579 C1577 1.327 . S
C1579 C1595 1.429 . S
C1579 H1601 0.950 . S
C1580 H1576 0.949 . S
C1580 C1588 1.574 . S
C1580 C1596 1.368 . S
H1581 C1589 0.950 . S
H1582 C1587 0.950 . S
H1583 C1588 0.949 . S
H1584 C1590 0.950 . S
H1585 C1591 0.950 . S
H1586 C1592 0.949 . S
C1587 H1582 0.950 . S
C1587 C1589 1.327 . S
C1587 C1593 1.429 . S
C1588 C1580 1.574 . S
C1588 H1583 0.949 . S
C1588 C1594 1.368 . S
C1589 C1573 1.349 . S
C1589 H1581 0.950 . S
C1589 C1587 1.327 . S
C1590 C1578 1.349 . S
C1590 H1584 0.950 . S
C1590 C1591 1.327 . S
C1591 H1585 0.950 . S
C1591 C1590 1.327 . S
C1591 C1595 1.429 . S
C1592 C1575 1.574 . S
C1592 H1586 0.949 . S
C1592 C1596 1.368 . S
C1593 C1574 1.429 . S
C1593 C1587 1.429 . S
C1593 C1594 1.523 . S
C1594 C1575 1.368 . S
C1594 C1588 1.368 . S
C1594 C1593 1.523 . S
C1595 C1579 1.429 . S
C1595 C1591 1.429 . S
C1595 C1596 1.523 . S
C1596 C1580 1.368 . S
C1596 C1592 1.368 . S
C1596 C1595 1.523 . S
H1597 C1572 0.950 . S
H1598 C1574 0.950 . S
H1599 C1575 0.949 . S
H1600 C1577 0.950 . S
H1601 C1579 0.950 . S
C1602 C1603 1.349 . S
C1602 C1604 1.327 . S
C1602 H1627 0.950 . S
C1603 C1602 1.349 . S
C1603 C1619 1.349 . S
C1604 C1602 1.327 . S
C1604 C1623 1.429 1_545 S
C1604 H1628 0.950 1_545 S
C1605 C1622 1.574 . S
C1605 C1624 1.368 . S
C1605 H1629 0.949 . S
H1606 C1610 0.949 . S
C1607 C1608 1.349 . S
C1607 C1609 1.327 . S
C1607 H1630 0.950 . S
C1608 C1607 1.349 . S
C1608 C1620 1.349 . S
C1609 C1607 1.327 . S
C1609 C1625 1.429 . S
C1609 H1631 0.950 . S
C1610 H1606 0.949 . S
C1610 C1618 1.574 . S
C1610 C1626 1.368 . S
H1611 C1619 0.950 . S
H1612 C1617 0.950 . S
H1613 C1618 0.949 . S
H1614 C1620 0.950 . S
H1615 C1621 0.950 . S
H1616 C1622 0.949 . S
C1617 H1612 0.950 . S
C1617 C1619 1.327 . S
C1617 C1623 1.429 1_545 S
C1618 C1610 1.574 . S
C1618 H1613 0.949 . S
C1618 C1624 1.368 . S
C1619 C1603 1.349 . S
C1619 H1611 0.950 . S
C1619 C1617 1.327 . S
C1620 C1608 1.349 . S
C1620 H1614 0.950 . S
C1620 C1621 1.327 . S
C1621 H1615 0.950 . S
C1621 C1620 1.327 . S
C1621 C1625 1.429 . S
C1622 C1605 1.574 . S
C1622 H1616 0.949 . S
C1622 C1626 1.368 . S
C1623 C1604 1.429 1_565 S
C1623 C1617 1.429 1_565 S
C1623 C1624 1.523 . S
C1624 C1605 1.368 . S
C1624 C1618 1.368 . S
C1624 C1623 1.523 . S
C1625 C1609 1.429 . S
C1625 C1621 1.429 . S
C1625 C1626 1.523 . S
C1626 C1610 1.368 . S
C1626 C1622 1.368 . S
C1626 C1625 1.523 . S
H1627 C1602 0.950 . S
H1628 C1604 0.950 1_565 S
H1629 C1605 0.949 . S
H1630 C1607 0.950 . S
H1631 C1609 0.950 . S
C1632 C1633 1.349 . S
C1632 C1634 1.327 1_655 S
C1632 H1657 0.950 . S
C1633 C1632 1.349 . S
C1633 C1649 1.349 . S
C1634 C1632 1.327 1_455 S
C1634 C1653 1.429 . S
C1634 H1658 0.950 . S
C1635 C1652 1.574 . S
C1635 C1654 1.368 . S
C1635 H1659 0.949 . S
H1636 C1640 0.949 . S
C1637 C1638 1.349 . S
C1637 C1639 1.327 . S
C1637 H1660 0.950 . S
C1638 C1637 1.349 . S
C1638 C1650 1.349 . S
C1639 C1637 1.327 . S
C1639 C1655 1.429 . S
C1639 H1661 0.950 . S
C1640 H1636 0.949 . S
C1640 C1648 1.574 . S
C1640 C1656 1.368 . S
H1641 C1649 0.950 . S
H1642 C1647 0.950 . S
H1643 C1648 0.949 . S
H1644 C1650 0.950 . S
H1645 C1651 0.950 . S
H1646 C1652 0.949 . S
C1647 H1642 0.950 . S
C1647 C1649 1.327 1_455 S
C1647 C1653 1.429 . S
C1648 C1640 1.574 . S
C1648 H1643 0.949 . S
C1648 C1654 1.368 . S
C1649 C1633 1.349 . S
C1649 H1641 0.950 . S
C1649 C1647 1.327 1_655 S
C1650 C1638 1.349 . S
C1650 H1644 0.950 . S
C1650 C1651 1.327 . S
C1651 H1645 0.950 . S
C1651 C1650 1.327 . S
C1651 C1655 1.429 . S
C1652 C1635 1.574 . S
C1652 H1646 0.949 . S
C1652 C1656 1.368 . S
C1653 C1634 1.429 . S
C1653 C1647 1.429 . S
C1653 C1654 1.523 . S
C1654 C1635 1.368 . S
C1654 C1648 1.368 . S
C1654 C1653 1.523 . S
C1655 C1639 1.429 . S
C1655 C1651 1.429 . S
C1655 C1656 1.523 . S
C1656 C1640 1.368 . S
C1656 C1652 1.368 . S
C1656 C1655 1.523 . S
H1657 C1632 0.950 . S
H1658 C1634 0.950 . S
H1659 C1635 0.949 . S
H1660 C1637 0.950 . S
H1661 C1639 0.950 . S
C1662 C1663 1.349 . S
C1662 C1664 1.327 . S
C1662 H1687 0.950 . S
C1663 C1662 1.349 . S
C1663 C1679 1.349 . S
C1664 C1662 1.327 . S
C1664 C1683 1.429 . S
C1664 H1688 0.950 . S
C1665 C1682 1.574 . S
C1665 C1684 1.368 . S
C1665 H1689 0.949 . S
H1666 C1670 0.949 . S
C1667 C1668 1.349 . S
C1667 C1669 1.327 . S
C1667 H1690 0.950 . S
C1668 C1667 1.349 . S
C1668 C1680 1.349 . S
C1669 C1667 1.327 . S
C1669 C1685 1.429 . S
C1669 H1691 0.950 . S
C1670 H1666 0.949 . S
C1670 C1678 1.574 . S
C1670 C1686 1.368 . S
H1671 C1679 0.950 . S
H1672 C1677 0.950 . S
H1673 C1678 0.949 . S
H1674 C1680 0.950 . S
H1675 C1681 0.950 . S
H1676 C1682 0.949 . S
C1677 H1672 0.950 . S
C1677 C1679 1.327 . S
C1677 C1683 1.429 . S
C1678 C1670 1.574 . S
C1678 H1673 0.949 . S
C1678 C1684 1.368 . S
C1679 C1663 1.349 . S
C1679 H1671 0.950 . S
C1679 C1677 1.327 . S
C1680 C1668 1.349 . S
C1680 H1674 0.950 . S
C1680 C1681 1.327 . S
C1681 H1675 0.950 . S
C1681 C1680 1.327 . S
C1681 C1685 1.429 . S
C1682 C1665 1.574 . S
C1682 H1676 0.949 . S
C1682 C1686 1.368 . S
C1683 C1664 1.429 . S
C1683 C1677 1.429 . S
C1683 C1684 1.523 . S
C1684 C1665 1.368 . S
C1684 C1678 1.368 . S
C1684 C1683 1.523 . S
C1685 C1669 1.429 . S
C1685 C1681 1.429 . S
C1685 C1686 1.523 . S
C1686 C1670 1.368 . S
C1686 C1682 1.368 . S
C1686 C1685 1.523 . S
H1687 C1662 0.950 . S
H1688 C1664 0.950 . S
H1689 C1665 0.949 . S
H1690 C1667 0.950 . S
H1691 C1669 0.950 . S
C1692 C1693 1.349 . S
C1692 C1694 1.327 . S
C1692 H1717 0.950 . S
C1693 C1692 1.349 . S
C1693 C1709 1.349 . S
C1694 C1692 1.327 . S
C1694 C1713 1.429 . S
C1694 H1718 0.950 . S
C1695 C1712 1.574 . S
C1695 C1714 1.368 . S
C1695 H1719 0.949 . S
H1696 C1700 0.949 . S
C1697 C1698 1.349 . S
C1697 C1699 1.327 . S
C1697 H1720 0.950 . S
C1698 C1697 1.349 . S
C1698 C1710 1.349 . S
C1699 C1697 1.327 . S
C1699 C1715 1.429 . S
C1699 H1721 0.950 . S
C1700 H1696 0.949 . S
C1700 C1708 1.574 . S
C1700 C1716 1.368 . S
H1701 C1709 0.950 . S
H1702 C1707 0.950 . S
H1703 C1708 0.949 . S
H1704 C1710 0.950 . S
H1705 C1711 0.950 . S
H1706 C1712 0.949 . S
C1707 H1702 0.950 . S
C1707 C1709 1.327 . S
C1707 C1713 1.429 . S
C1708 C1700 1.574 . S
C1708 H1703 0.949 . S
C1708 C1714 1.368 . S
C1709 C1693 1.349 . S
C1709 H1701 0.950 . S
C1709 C1707 1.327 . S
C1710 C1698 1.349 . S
C1710 H1704 0.950 . S
C1710 C1711 1.327 . S
C1711 H1705 0.950 . S
C1711 C1710 1.327 . S
C1711 C1715 1.429 . S
C1712 C1695 1.574 . S
C1712 H1706 0.949 . S
C1712 C1716 1.368 . S
C1713 C1694 1.429 . S
C1713 C1707 1.429 . S
C1713 C1714 1.523 . S
C1714 C1695 1.368 . S
C1714 C1708 1.368 . S
C1714 C1713 1.523 . S
C1715 C1699 1.429 . S
C1715 C1711 1.429 . S
C1715 C1716 1.523 . S
C1716 C1700 1.368 . S
C1716 C1712 1.368 . S
C1716 C1715 1.523 . S
H1717 C1692 0.950 . S
H1718 C1694 0.950 . S
H1719 C1695 0.949 . S
H1720 C1697 0.950 . S
H1721 C1699 0.950 . S
C1722 C1723 1.349 . S
C1722 C1724 1.327 . S
C1722 H1747 0.950 . S
C1723 C1722 1.349 . S
C1723 C1739 1.349 . S
C1724 C1722 1.327 . S
C1724 C1743 1.429 . S
C1724 H1748 0.950 . S
C1725 C1742 1.574 . S
C1725 C1744 1.368 . S
C1725 H1749 0.949 . S
H1726 C1730 0.949 . S
C1727 C1728 1.349 . S
C1727 C1729 1.327 . S
C1727 H1750 0.950 . S
C1728 C1727 1.349 . S
C1728 C1740 1.349 . S
C1729 C1727 1.327 . S
C1729 C1745 1.429 . S
C1729 H1751 0.950 . S
C1730 H1726 0.949 . S
C1730 C1738 1.574 . S
C1730 C1746 1.368 . S
H1731 C1739 0.950 . S
H1732 C1737 0.950 . S
H1733 C1738 0.949 . S
H1734 C1740 0.950 . S
H1735 C1741 0.950 . S
H1736 C1742 0.949 . S
C1737 H1732 0.950 . S
C1737 C1739 1.327 . S
C1737 C1743 1.429 . S
C1738 C1730 1.574 . S
C1738 H1733 0.949 . S
C1738 C1744 1.368 . S
C1739 C1723 1.349 . S
C1739 H1731 0.950 . S
C1739 C1737 1.327 . S
C1740 C1728 1.349 . S
C1740 H1734 0.950 . S
C1740 C1741 1.327 . S
C1741 H1735 0.950 . S
C1741 C1740 1.327 . S
C1741 C1745 1.429 . S
C1742 C1725 1.574 . S
C1742 H1736 0.949 . S
C1742 C1746 1.368 . S
C1743 C1724 1.429 . S
C1743 C1737 1.429 . S
C1743 C1744 1.523 . S
C1744 C1725 1.368 . S
C1744 C1738 1.368 . S
C1744 C1743 1.523 . S
C1745 C1729 1.429 . S
C1745 C1741 1.429 . S
C1745 C1746 1.523 . S
C1746 C1730 1.368 . S
C1746 C1742 1.368 . S
C1746 C1745 1.523 . S
H1747 C1722 0.950 . S
H1748 C1724 0.950 . S
H1749 C1725 0.949 . S
H1750 C1727 0.950 . S
H1751 C1729 0.950 . S
C1752 C1753 1.349 . S
C1752 C1754 1.327 . S
C1752 H1777 0.950 . S
C1753 C1752 1.349 . S
C1753 C1769 1.349 . S
C1754 C1752 1.327 . S
C1754 C1773 1.429 . S
C1754 H1778 0.950 . S
C1755 C1772 1.574 . S
C1755 C1774 1.368 . S
C1755 H1779 0.949 . S
H1756 C1760 0.949 . S
C1757 C1758 1.349 . S
C1757 C1759 1.327 . S
C1757 H1780 0.950 . S
C1758 C1757 1.349 . S
C1758 C1770 1.349 . S
C1759 C1757 1.327 . S
C1759 C1775 1.429 . S
C1759 H1781 0.950 . S
C1760 H1756 0.949 . S
C1760 C1768 1.574 . S
C1760 C1776 1.368 . S
H1761 C1769 0.950 . S
H1762 C1767 0.950 . S
H1763 C1768 0.949 . S
H1764 C1770 0.950 . S
H1765 C1771 0.950 . S
H1766 C1772 0.949 . S
C1767 H1762 0.950 . S
C1767 C1769 1.327 . S
C1767 C1773 1.429 . S
C1768 C1760 1.574 . S
C1768 H1763 0.949 . S
C1768 C1774 1.368 . S
C1769 C1753 1.349 . S
C1769 H1761 0.950 . S
C1769 C1767 1.327 . S
C1770 C1758 1.349 . S
C1770 H1764 0.950 . S
C1770 C1771 1.327 . S
C1771 H1765 0.950 . S
C1771 C1770 1.327 . S
C1771 C1775 1.429 . S
C1772 C1755 1.574 . S
C1772 H1766 0.949 . S
C1772 C1776 1.368 . S
C1773 C1754 1.429 . S
C1773 C1767 1.429 . S
C1773 C1774 1.523 . S
C1774 C1755 1.368 . S
C1774 C1768 1.368 . S
C1774 C1773 1.523 . S
C1775 C1759 1.429 . S
C1775 C1771 1.429 . S
C1775 C1776 1.523 . S
C1776 C1760 1.368 . S
C1776 C1772 1.368 . S
C1776 C1775 1.523 . S
H1777 C1752 0.950 . S
H1778 C1754 0.950 . S
H1779 C1755 0.949 . S
H1780 C1757 0.950 . S
H1781 C1759 0.950 . S
C1782 C1783 1.349 . S
C1782 C1784 1.327 . S
C1782 H1807 0.950 . S
C1783 C1782 1.349 . S
C1783 C1799 1.349 . S
C1784 C1782 1.327 . S
C1784 C1803 1.429 . S
C1784 H1808 0.950 . S
C1785 C1802 1.574 1_565 S
C1785 C1804 1.368 . S
C1785 H1809 0.949 . S
H1786 C1790 0.949 . S
C1787 C1788 1.349 . S
C1787 C1789 1.327 . S
C1787 H1810 0.950 . S
C1788 C1787 1.349 . S
C1788 C1800 1.349 . S
C1789 C1787 1.327 . S
C1789 C1805 1.429 . S
C1789 H1811 0.950 . S
C1790 H1786 0.949 . S
C1790 C1798 1.574 . S
C1790 C1806 1.368 . S
H1791 C1799 0.950 . S
H1792 C1797 0.950 . S
H1793 C1798 0.949 . S
H1794 C1800 0.950 . S
H1795 C1801 0.950 . S
H1796 C1802 0.949 . S
C1797 H1792 0.950 . S
C1797 C1799 1.327 . S
C1797 C1803 1.429 . S
C1798 C1790 1.574 . S
C1798 H1793 0.949 . S
C1798 C1804 1.368 1_545 S
C1799 C1783 1.349 . S
C1799 H1791 0.950 . S
C1799 C1797 1.327 . S
C1800 C1788 1.349 . S
C1800 H1794 0.950 . S
C1800 C1801 1.327 . S
C1801 H1795 0.950 . S
C1801 C1800 1.327 . S
C1801 C1805 1.429 . S
C1802 C1785 1.574 1_545 S
C1802 H1796 0.949 . S
C1802 C1806 1.368 . S
C1803 C1784 1.429 . S
C1803 C1797 1.429 . S
C1803 C1804 1.523 . S
C1804 C1785 1.368 . S
C1804 C1798 1.368 1_565 S
C1804 C1803 1.523 . S
C1805 C1789 1.429 . S
C1805 C1801 1.429 . S
C1805 C1806 1.523 . S
C1806 C1790 1.368 . S
C1806 C1802 1.368 . S
C1806 C1805 1.523 . S
H1807 C1782 0.950 . S
H1808 C1784 0.950 . S
H1809 C1785 0.949 . S
H1810 C1787 0.950 . S
H1811 C1789 0.950 . S
C1812 C1813 1.349 . S
C1812 C1814 1.327 . S
C1812 H1837 0.950 . S
C1813 C1812 1.349 . S
C1813 C1829 1.349 . S
C1814 C1812 1.327 . S
C1814 C1833 1.429 . S
C1814 H1838 0.950 . S
C1815 C1832 1.574 1_455 S
C1815 C1834 1.368 . S
C1815 H1839 0.949 . S
H1816 C1820 0.949 . S
C1817 C1818 1.349 . S
C1817 C1819 1.327 . S
C1817 H1840 0.950 . S
C1818 C1817 1.349 . S
C1818 C1830 1.349 . S
C1819 C1817 1.327 . S
C1819 C1835 1.429 . S
C1819 H1841 0.950 . S
C1820 H1816 0.949 . S
C1820 C1828 1.574 1_655 S
C1820 C1836 1.368 . S
H1821 C1829 0.950 . S
H1822 C1827 0.950 . S
H1823 C1828 0.949 . S
H1824 C1830 0.950 . S
H1825 C1831 0.950 . S
H1826 C1832 0.949 . S
C1827 H1822 0.950 . S
C1827 C1829 1.327 . S
C1827 C1833 1.429 . S
C1828 C1820 1.574 1_455 S
C1828 H1823 0.949 . S
C1828 C1834 1.368 . S
C1829 C1813 1.349 . S
C1829 H1821 0.950 . S
C1829 C1827 1.327 . S
C1830 C1818 1.349 . S
C1830 H1824 0.950 . S
C1830 C1831 1.327 . S
C1831 H1825 0.950 . S
C1831 C1830 1.327 . S
C1831 C1835 1.429 . S
C1832 C1815 1.574 1_655 S
C1832 H1826 0.949 . S
C1832 C1836 1.368 . S
C1833 C1814 1.429 . S
C1833 C1827 1.429 . S
C1833 C1834 1.523 . S
C1834 C1815 1.368 . S
C1834 C1828 1.368 . S
C1834 C1833 1.523 . S
C1835 C1819 1.429 . S
C1835 C1831 1.429 . S
C1835 C1836 1.523 . S
C1836 C1820 1.368 . S
C1836 C1832 1.368 . S
C1836 C1835 1.523 . S
H1837 C1812 0.950 . S
H1838 C1814 0.950 . S
H1839 C1815 0.949 . S
H1840 C1817 0.950 . S
H1841 C1819 0.950 . S
C1842 C1843 1.349 . S
C1842 C1844 1.327 . S
C1842 H1867 0.950 . S
C1843 C1842 1.349 . S
C1843 C1859 1.349 . S
C1844 C1842 1.327 . S
C1844 C1863 1.429 . S
C1844 H1868 0.950 . S
C1845 C1862 1.574 . S
C1845 C1864 1.368 . S
C1845 H1869 0.949 . S
H1846 C1850 0.949 . S
C1847 C1848 1.349 . S
C1847 C1849 1.327 . S
C1847 H1870 0.950 . S
C1848 C1847 1.349 . S
C1848 C1860 1.349 . S
C1849 C1847 1.327 . S
C1849 C1865 1.429 . S
C1849 H1871 0.950 . S
C1850 H1846 0.949 . S
C1850 C1858 1.574 . S
C1850 C1866 1.368 . S
H1851 C1859 0.950 . S
H1852 C1857 0.950 . S
H1853 C1858 0.949 . S
H1854 C1860 0.950 . S
H1855 C1861 0.950 . S
H1856 C1862 0.949 . S
C1857 H1852 0.950 . S
C1857 C1859 1.327 . S
C1857 C1863 1.429 . S
C1858 C1850 1.574 . S
C1858 H1853 0.949 . S
C1858 C1864 1.368 . S
C1859 C1843 1.349 . S
C1859 H1851 0.950 . S
C1859 C1857 1.327 . S
C1860 C1848 1.349 . S
C1860 H1854 0.950 . S
C1860 C1861 1.327 . S
C1861 H1855 0.950 . S
C1861 C1860 1.327 . S
C1861 C1865 1.429 . S
C1862 C1845 1.574 . S
C1862 H1856 0.949 . S
C1862 C1866 1.368 . S
C1863 C1844 1.429 . S
C1863 C1857 1.429 . S
C1863 C1864 1.523 . S
C1864 C1845 1.368 . S
C1864 C1858 1.368 . S
C1864 C1863 1.523 . S
C1865 C1849 1.429 . S
C1865 C1861 1.429 . S
C1865 C1866 1.523 . S
C1866 C1850 1.368 . S
C1866 C1862 1.368 . S
C1866 C1865 1.523 . S
H1867 C1842 0.950 . S
H1868 C1844 0.950 . S
H1869 C1845 0.949 . S
H1870 C1847 0.950 . S
H1871 C1849 0.950 . S
C1872 C1873 1.349 . S
C1872 C1874 1.327 . S
C1872 H1897 0.950 . S
C1873 C1872 1.349 . S
C1873 C1889 1.349 . S
C1874 C1872 1.327 . S
C1874 C1893 1.429 1_455 S
C1874 H1898 0.950 . S
C1875 C1892 1.574 . S
C1875 C1894 1.368 . S
C1875 H1899 0.949 . S
H1876 C1880 0.949 . S
C1877 C1878 1.349 . S
C1877 C1879 1.327 . S
C1877 H1900 0.950 . S
C1878 C1877 1.349 . S
C1878 C1890 1.349 . S
C1879 C1877 1.327 . S
C1879 C1895 1.429 . S
C1879 H1901 0.950 . S
C1880 H1876 0.949 . S
C1880 C1888 1.574 . S
C1880 C1896 1.368 . S
H1881 C1889 0.950 . S
H1882 C1887 0.950 . S
H1883 C1888 0.949 . S
H1884 C1890 0.950 . S
H1885 C1891 0.950 . S
H1886 C1892 0.949 . S
C1887 H1882 0.950 . S
C1887 C1889 1.327 1_655 S
C1887 C1893 1.429 . S
C1888 C1880 1.574 . S
C1888 H1883 0.949 . S
C1888 C1894 1.368 . S
C1889 C1873 1.349 . S
C1889 H1881 0.950 . S
C1889 C1887 1.327 1_455 S
C1890 C1878 1.349 . S
C1890 H1884 0.950 . S
C1890 C1891 1.327 . S
C1891 H1885 0.950 . S
C1891 C1890 1.327 . S
C1891 C1895 1.429 . S
C1892 C1875 1.574 . S
C1892 H1886 0.949 . S
C1892 C1896 1.368 . S
C1893 C1874 1.429 1_655 S
C1893 C1887 1.429 . S
C1893 C1894 1.523 . S
C1894 C1875 1.368 . S
C1894 C1888 1.368 . S
C1894 C1893 1.523 . S
C1895 C1879 1.429 . S
C1895 C1891 1.429 . S
C1895 C1896 1.523 . S
C1896 C1880 1.368 . S
C1896 C1892 1.368 . S
C1896 C1895 1.523 . S
H1897 C1872 0.950 . S
H1898 C1874 0.950 . S
H1899 C1875 0.949 . S
H1900 C1877 0.950 . S
H1901 C1879 0.950 . S
C1902 C1903 1.349 . S
C1902 C1904 1.327 . S
C1902 H1927 0.950 . S
C1903 C1902 1.349 . S
C1903 C1919 1.349 . S
C1904 C1902 1.327 . S
C1904 C1923 1.429 . S
C1904 H1928 0.950 . S
C1905 C1922 1.574 . S
C1905 C1924 1.368 . S
C1905 H1929 0.949 . S
H1906 C1910 0.949 . S
C1907 C1908 1.349 . S
C1907 C1909 1.327 . S
C1907 H1930 0.950 . S
C1908 C1907 1.349 . S
C1908 C1920 1.349 . S
C1909 C1907 1.327 . S
C1909 C1925 1.429 . S
C1909 H1931 0.950 . S
C1910 H1906 0.949 . S
C1910 C1918 1.574 . S
C1910 C1926 1.368 . S
H1911 C1919 0.950 . S
H1912 C1917 0.950 . S
H1913 C1918 0.949 . S
H1914 C1920 0.950 . S
H1915 C1921 0.950 . S
H1916 C1922 0.949 . S
C1917 H1912 0.950 . S
C1917 C1919 1.327 . S
C1917 C1923 1.429 . S
C1918 C1910 1.574 . S
C1918 H1913 0.949 . S
C1918 C1924 1.368 . S
C1919 C1903 1.349 . S
C1919 H1911 0.950 . S
C1919 C1917 1.327 . S
C1920 C1908 1.349 . S
C1920 H1914 0.950 . S
C1920 C1921 1.327 . S
C1921 H1915 0.950 . S
C1921 C1920 1.327 . S
C1921 C1925 1.429 . S
C1922 C1905 1.574 . S
C1922 H1916 0.949 . S
C1922 C1926 1.368 . S
C1923 C1904 1.429 . S
C1923 C1917 1.429 . S
C1923 C1924 1.523 . S
C1924 C1905 1.368 . S
C1924 C1918 1.368 . S
C1924 C1923 1.523 . S
C1925 C1909 1.429 . S
C1925 C1921 1.429 . S
C1925 C1926 1.523 . S
C1926 C1910 1.368 . S
C1926 C1922 1.368 . S
C1926 C1925 1.523 . S
H1927 C1902 0.950 . S
H1928 C1904 0.950 . S
H1929 C1905 0.949 . S
H1930 C1907 0.950 . S
H1931 C1909 0.950 . S
C1932 C1933 1.349 . S
C1932 C1934 1.357 . S
C1932 H1957 0.950 . S
C1933 C1932 1.349 . S
C1933 C1949 1.349 . S
C1934 C1932 1.357 . S
C1934 C1953 1.402 1_565 S
C1934 H1958 0.946 1_565 S
C1935 C1952 1.574 . S
C1935 C1954 1.368 . S
C1935 H1959 0.949 . S
H1936 C1940 0.949 . S
C1937 C1938 1.349 . S
C1937 C1939 1.327 . S
C1937 H1960 0.950 . S
C1938 C1937 1.349 . S
C1938 C1950 1.349 . S
C1939 C1937 1.327 . S
C1939 C1955 1.429 . S
C1939 H1961 0.950 . S
C1940 H1936 0.949 . S
C1940 C1948 1.574 . S
C1940 C1956 1.368 . S
H1941 C1949 0.950 . S
H1942 C1947 0.950 . S
H1943 C1948 0.949 . S
H1944 C1950 0.950 . S
H1945 C1951 0.950 . S
H1946 C1952 0.949 . S
C1947 H1942 0.950 . S
C1947 C1949 1.327 1_545 S
C1947 C1953 1.429 . S
C1948 C1940 1.574 . S
C1948 H1943 0.949 . S
C1948 C1954 1.368 . S
C1949 C1933 1.349 . S
C1949 H1941 0.950 . S
C1949 C1947 1.327 1_565 S
C1950 C1938 1.349 . S
C1950 H1944 0.950 . S
C1950 C1951 1.327 . S
C1951 H1945 0.950 . S
C1951 C1950 1.327 . S
C1951 C1955 1.429 . S
C1952 C1935 1.574 . S
C1952 H1946 0.949 . S
C1952 C1956 1.368 . S
C1953 C1934 1.402 1_545 S
C1953 C1947 1.429 . S
C1953 C1954 1.523 . S
C1954 C1935 1.368 . S
C1954 C1948 1.368 . S
C1954 C1953 1.523 . S
C1955 C1939 1.429 . S
C1955 C1951 1.429 . S
C1955 C1956 1.523 . S
C1956 C1940 1.368 . S
C1956 C1952 1.368 . S
C1956 C1955 1.523 . S
H1957 C1932 0.950 . S
H1958 C1934 0.946 1_545 S
H1959 C1935 0.949 . S
H1960 C1937 0.950 . S
H1961 C1939 0.950 . S
C1962 C1963 1.349 . S
C1962 C1964 1.327 . S
C1962 H1987 0.950 . S
C1963 C1962 1.349 . S
C1963 C1979 1.349 . S
C1964 C1962 1.327 . S
C1964 C1983 1.429 . S
C1964 H1988 0.950 . S
C1965 C1982 1.574 . S
C1965 C1984 1.368 . S
C1965 H1989 0.949 . S
H1966 C1970 0.949 . S
C1967 C1968 1.349 . S
C1967 C1969 1.327 . S
C1967 H1990 0.950 . S
C1968 C1967 1.349 . S
C1968 C1980 1.349 . S
C1969 C1967 1.327 . S
C1969 C1985 1.429 . S
C1969 H1991 0.950 . S
C1970 H1966 0.949 . S
C1970 C1978 1.574 . S
C1970 C1986 1.368 . S
H1971 C1979 0.950 . S
H1972 C1977 0.950 . S
H1973 C1978 0.949 . S
H1974 C1980 0.950 . S
H1975 C1981 0.950 . S
H1976 C1982 0.949 . S
C1977 H1972 0.950 . S
C1977 C1979 1.327 . S
C1977 C1983 1.429 . S
C1978 C1970 1.574 . S
C1978 H1973 0.949 . S
C1978 C1984 1.368 . S
C1979 C1963 1.349 . S
C1979 H1971 0.950 . S
C1979 C1977 1.327 . S
C1980 C1968 1.349 . S
C1980 H1974 0.950 . S
C1980 C1981 1.327 . S
C1981 H1975 0.950 . S
C1981 C1980 1.327 . S
C1981 C1985 1.429 . S
C1982 C1965 1.574 . S
C1982 H1976 0.949 . S
C1982 C1986 1.368 . S
C1983 C1964 1.429 . S
C1983 C1977 1.429 . S
C1983 C1984 1.523 . S
C1984 C1965 1.368 . S
C1984 C1978 1.368 . S
C1984 C1983 1.523 . S
C1985 C1969 1.429 . S
C1985 C1981 1.429 . S
C1985 C1986 1.523 . S
C1986 C1970 1.368 . S
C1986 C1982 1.368 . S
C1986 C1985 1.523 . S
H1987 C1962 0.950 . S
H1988 C1964 0.950 . S
H1989 C1965 0.949 . S
H1990 C1967 0.950 . S
H1991 C1969 0.950 . S
C1992 C1993 1.349 . S
C1992 C1994 1.327 . S
C1992 H2017 0.950 . S
C1993 C1992 1.349 . S
C1993 C2009 1.349 . S
C1994 C1992 1.327 . S
C1994 C2013 1.429 . S
C1994 H2018 0.950 . S
C1995 C2012 1.574 . S
C1995 C2014 1.368 . S
C1995 H2019 0.949 . S
H1996 C2000 0.949 . S
C1997 C1998 1.349 . S
C1997 C1999 1.327 . S
C1997 H2020 0.950 . S
C1998 C1997 1.349 . S
C1998 C2010 1.349 . S
C1999 C1997 1.327 . S
C1999 C2015 1.429 . S
C1999 H2021 0.950 . S
C2000 H1996 0.949 . S
C2000 C2008 1.574 . S
C2000 C2016 1.368 . S
H2001 C2009 0.950 . S
H2002 C2007 0.950 . S
H2003 C2008 0.949 . S
H2004 C2010 0.950 . S
H2005 C2011 0.950 . S
H2006 C2012 0.949 . S
C2007 H2002 0.950 . S
C2007 C2009 1.327 . S
C2007 C2013 1.429 . S
C2008 C2000 1.574 . S
C2008 H2003 0.949 . S
C2008 C2014 1.368 . S
C2009 C1993 1.349 . S
C2009 H2001 0.950 . S
C2009 C2007 1.327 . S
C2010 C1998 1.349 . S
C2010 H2004 0.950 . S
C2010 C2011 1.327 . S
C2011 H2005 0.950 . S
C2011 C2010 1.327 . S
C2011 C2015 1.429 . S
C2012 C1995 1.574 . S
C2012 H2006 0.949 . S
C2012 C2016 1.368 . S
C2013 C1994 1.429 . S
C2013 C2007 1.429 . S
C2013 C2014 1.523 . S
C2014 C1995 1.368 . S
C2014 C2008 1.368 . S
C2014 C2013 1.523 . S
C2015 C1999 1.429 . S
C2015 C2011 1.429 . S
C2015 C2016 1.523 . S
C2016 C2000 1.368 . S
C2016 C2012 1.368 . S
C2016 C2015 1.523 . S
H2017 C1992 0.950 . S
H2018 C1994 0.950 . S
H2019 C1995 0.949 . S
H2020 C1997 0.950 . S
H2021 C1999 0.950 . S
C2022 C2023 1.349 . S
C2022 C2024 1.327 . S
C2022 H2047 0.950 . S
C2023 C2022 1.349 . S
C2023 C2039 1.349 . S
C2024 C2022 1.327 . S
C2024 C2043 1.429 . S
C2024 H2048 0.950 . S
C2025 C2042 1.574 . S
C2025 C2044 1.368 . S
C2025 H2049 0.949 . S
H2026 C2030 0.949 . S
C2027 C2028 1.349 . S
C2027 C2029 1.327 . S
C2027 H2050 0.950 . S
C2028 C2027 1.349 . S
C2028 C2040 1.349 . S
C2029 C2027 1.327 . S
C2029 C2045 1.429 . S
C2029 H2051 0.950 . S
C2030 H2026 0.949 . S
C2030 C2038 1.574 . S
C2030 C2046 1.368 . S
H2031 C2039 0.950 . S
H2032 C2037 0.950 . S
H2033 C2038 0.949 . S
H2034 C2040 0.950 . S
H2035 C2041 0.950 . S
H2036 C2042 0.949 . S
C2037 H2032 0.950 . S
C2037 C2039 1.327 . S
C2037 C2043 1.429 . S
C2038 C2030 1.574 . S
C2038 H2033 0.949 . S
C2038 C2044 1.368 . S
C2039 C2023 1.349 . S
C2039 H2031 0.950 . S
C2039 C2037 1.327 . S
C2040 C2028 1.349 . S
C2040 H2034 0.950 . S
C2040 C2041 1.327 . S
C2041 H2035 0.950 . S
C2041 C2040 1.327 . S
C2041 C2045 1.429 . S
C2042 C2025 1.574 . S
C2042 H2036 0.949 . S
C2042 C2046 1.368 . S
C2043 C2024 1.429 . S
C2043 C2037 1.429 . S
C2043 C2044 1.523 . S
C2044 C2025 1.368 . S
C2044 C2038 1.368 . S
C2044 C2043 1.523 . S
C2045 C2029 1.429 . S
C2045 C2041 1.429 . S
C2045 C2046 1.523 . S
C2046 C2030 1.368 . S
C2046 C2042 1.368 . S
C2046 C2045 1.523 . S
H2047 C2022 0.950 . S
H2048 C2024 0.950 . S
H2049 C2025 0.949 . S
H2050 C2027 0.950 . S
H2051 C2029 0.950 . S
C2052 C2053 1.349 . S
C2052 C2054 1.327 . S
C2052 H2077 0.950 . S
C2053 C2052 1.349 . S
C2053 C2069 1.349 . S
C2054 C2052 1.327 . S
C2054 C2073 1.429 . S
C2054 H2078 0.950 . S
C2055 C2072 1.574 . S
C2055 C2074 1.368 . S
C2055 H2079 0.949 . S
H2056 C2060 0.949 . S
C2057 C2058 1.349 . S
C2057 C2059 1.327 . S
C2057 H2080 0.950 . S
C2058 C2057 1.349 . S
C2058 C2070 1.349 . S
C2059 C2057 1.327 . S
C2059 C2075 1.429 . S
C2059 H2081 0.950 . S
C2060 H2056 0.949 . S
C2060 C2068 1.574 . S
C2060 C2076 1.368 . S
H2061 C2069 0.950 . S
H2062 C2067 0.950 . S
H2063 C2068 0.949 . S
H2064 C2070 0.950 . S
H2065 C2071 0.950 . S
H2066 C2072 0.949 . S
C2067 H2062 0.950 . S
C2067 C2069 1.327 . S
C2067 C2073 1.429 . S
C2068 C2060 1.574 . S
C2068 H2063 0.949 . S
C2068 C2074 1.368 . S
C2069 C2053 1.349 . S
C2069 H2061 0.950 . S
C2069 C2067 1.327 . S
C2070 C2058 1.349 . S
C2070 H2064 0.950 . S
C2070 C2071 1.327 . S
C2071 H2065 0.950 . S
C2071 C2070 1.327 . S
C2071 C2075 1.429 . S
C2072 C2055 1.574 . S
C2072 H2066 0.949 . S
C2072 C2076 1.368 . S
C2073 C2054 1.429 . S
C2073 C2067 1.429 . S
C2073 C2074 1.523 . S
C2074 C2055 1.368 . S
C2074 C2068 1.368 . S
C2074 C2073 1.523 . S
C2075 C2059 1.429 . S
C2075 C2071 1.429 . S
C2075 C2076 1.523 . S
C2076 C2060 1.368 . S
C2076 C2072 1.368 . S
C2076 C2075 1.523 . S
H2077 C2052 0.950 . S
H2078 C2054 0.950 . S
H2079 C2055 0.949 . S
H2080 C2057 0.950 . S
H2081 C2059 0.950 . S
C2082 C2083 1.349 . S
C2082 C2084 1.327 . S
C2082 H2107 0.950 . S
C2083 C2082 1.349 . S
C2083 C2099 1.349 . S
C2084 C2082 1.327 . S
C2084 C2103 1.429 . S
C2084 H2108 0.950 . S
C2085 C2102 1.574 . S
C2085 C2104 1.368 . S
C2085 H2109 0.949 . S
H2086 C2090 0.949 . S
C2087 C2088 1.349 . S
C2087 C2089 1.327 . S
C2087 H2110 0.950 . S
C2088 C2087 1.349 . S
C2088 C2100 1.349 . S
C2089 C2087 1.327 . S
C2089 C2105 1.429 . S
C2089 H2111 0.950 . S
C2090 H2086 0.949 . S
C2090 C2098 1.574 . S
C2090 C2106 1.368 . S
H2091 C2099 0.950 . S
H2092 C2097 0.950 . S
H2093 C2098 0.949 . S
H2094 C2100 0.950 . S
H2095 C2101 0.950 . S
H2096 C2102 0.949 . S
C2097 H2092 0.950 . S
C2097 C2099 1.327 . S
C2097 C2103 1.429 . S
C2098 C2090 1.574 . S
C2098 H2093 0.949 . S
C2098 C2104 1.368 . S
C2099 C2083 1.349 . S
C2099 H2091 0.950 . S
C2099 C2097 1.327 . S
C2100 C2088 1.349 . S
C2100 H2094 0.950 . S
C2100 C2101 1.327 . S
C2101 H2095 0.950 . S
C2101 C2100 1.327 . S
C2101 C2105 1.429 . S
C2102 C2085 1.574 . S
C2102 H2096 0.949 . S
C2102 C2106 1.368 . S
C2103 C2084 1.429 . S
C2103 C2097 1.429 . S
C2103 C2104 1.523 . S
C2104 C2085 1.368 . S
C2104 C2098 1.368 . S
C2104 C2103 1.523 . S
C2105 C2089 1.429 . S
C2105 C2101 1.429 . S
C2105 C2106 1.523 . S
C2106 C2090 1.368 . S
C2106 C2102 1.368 . S
C2106 C2105 1.523 . S
H2107 C2082 0.950 . S
H2108 C2084 0.950 . S
H2109 C2085 0.949 . S
H2110 C2087 0.950 . S
H2111 C2089 0.950 . S
C2112 C2113 1.349 . S
C2112 C2114 1.327 . S
C2112 H2137 0.950 . S
C2113 C2112 1.349 . S
C2113 C2129 1.349 . S
C2114 C2112 1.327 . S
C2114 C2133 1.429 . S
C2114 H2138 0.950 . S
C2115 C2132 1.574 . S
C2115 C2134 1.368 . S
C2115 H2139 0.949 . S
H2116 C2120 0.949 . S
C2117 C2118 1.349 . S
C2117 C2119 1.327 . S
C2117 H2140 0.950 . S
C2118 C2117 1.349 . S
C2118 C2130 1.349 . S
C2119 C2117 1.327 . S
C2119 C2135 1.429 . S
C2119 H2141 0.950 . S
C2120 H2116 0.949 . S
C2120 C2128 1.574 . S
C2120 C2136 1.368 . S
H2121 C2129 0.950 . S
H2122 C2127 0.950 . S
H2123 C2128 0.949 . S
H2124 C2130 0.950 . S
H2125 C2131 0.950 . S
H2126 C2132 0.949 . S
C2127 H2122 0.950 . S
C2127 C2129 1.327 . S
C2127 C2133 1.429 . S
C2128 C2120 1.574 . S
C2128 H2123 0.949 . S
C2128 C2134 1.368 . S
C2129 C2113 1.349 . S
C2129 H2121 0.950 . S
C2129 C2127 1.327 . S
C2130 C2118 1.349 . S
C2130 H2124 0.950 . S
C2130 C2131 1.327 . S
C2131 H2125 0.950 . S
C2131 C2130 1.327 . S
C2131 C2135 1.429 . S
C2132 C2115 1.574 . S
C2132 H2126 0.949 . S
C2132 C2136 1.368 . S
C2133 C2114 1.429 . S
C2133 C2127 1.429 . S
C2133 C2134 1.523 . S
C2134 C2115 1.368 . S
C2134 C2128 1.368 . S
C2134 C2133 1.523 . S
C2135 C2119 1.429 . S
C2135 C2131 1.429 . S
C2135 C2136 1.523 . S
C2136 C2120 1.368 . S
C2136 C2132 1.368 . S
C2136 C2135 1.523 . S
H2137 C2112 0.950 . S
H2138 C2114 0.950 . S
H2139 C2115 0.949 . S
H2140 C2117 0.950 . S
H2141 C2119 0.950 . S
C2142 C2143 1.349 . S
C2142 C2144 1.327 . S
C2142 H2167 0.950 . S
C2143 C2142 1.349 . S
C2143 C2159 1.349 . S
C2144 C2142 1.327 . S
C2144 C2163 1.429 . S
C2144 H2168 0.950 . S
C2145 C2162 1.574 . S
C2145 C2164 1.368 . S
C2145 H2169 0.949 . S
H2146 C2150 0.949 . S
C2147 C2148 1.349 . S
C2147 C2149 1.327 . S
C2147 H2170 0.950 . S
C2148 C2147 1.349 . S
C2148 C2160 1.349 . S
C2149 C2147 1.327 . S
C2149 C2165 1.429 . S
C2149 H2171 0.950 . S
C2150 H2146 0.949 . S
C2150 C2158 1.574 . S
C2150 C2166 1.368 . S
H2151 C2159 0.950 . S
H2152 C2157 0.950 . S
H2153 C2158 0.949 . S
H2154 C2160 0.950 . S
H2155 C2161 0.950 . S
H2156 C2162 0.949 . S
C2157 H2152 0.950 . S
C2157 C2159 1.327 . S
C2157 C2163 1.429 . S
C2158 C2150 1.574 . S
C2158 H2153 0.949 . S
C2158 C2164 1.368 . S
C2159 C2143 1.349 . S
C2159 H2151 0.950 . S
C2159 C2157 1.327 . S
C2160 C2148 1.349 . S
C2160 H2154 0.950 . S
C2160 C2161 1.327 . S
C2161 H2155 0.950 . S
C2161 C2160 1.327 . S
C2161 C2165 1.429 . S
C2162 C2145 1.574 . S
C2162 H2156 0.949 . S
C2162 C2166 1.368 . S
C2163 C2144 1.429 . S
C2163 C2157 1.429 . S
C2163 C2164 1.523 . S
C2164 C2145 1.368 . S
C2164 C2158 1.368 . S
C2164 C2163 1.523 . S
C2165 C2149 1.429 . S
C2165 C2161 1.429 . S
C2165 C2166 1.523 . S
C2166 C2150 1.368 . S
C2166 C2162 1.368 . S
C2166 C2165 1.523 . S
H2167 C2142 0.950 . S
H2168 C2144 0.950 . S
H2169 C2145 0.949 . S
H2170 C2147 0.950 . S
H2171 C2149 0.950 . S
C2172 C2173 1.349 . S
C2172 C2174 1.327 . S
C2172 H2197 0.950 . S
C2173 C2172 1.349 . S
C2173 C2189 1.349 . S
C2174 C2172 1.327 . S
C2174 C2193 1.429 . S
C2174 H2198 0.950 . S
C2175 C2192 1.574 . S
C2175 C2194 1.368 . S
C2175 H2199 0.949 . S
H2176 C2180 0.949 . S
C2177 C2178 1.349 . S
C2177 C2179 1.327 . S
C2177 H2200 0.950 . S
C2178 C2177 1.349 . S
C2178 C2190 1.349 . S
C2179 C2177 1.327 . S
C2179 C2195 1.429 . S
C2179 H2201 0.950 . S
C2180 H2176 0.949 . S
C2180 C2188 1.574 . S
C2180 C2196 1.368 . S
H2181 C2189 0.950 . S
H2182 C2187 0.950 . S
H2183 C2188 0.949 . S
H2184 C2190 0.950 . S
H2185 C2191 0.950 . S
H2186 C2192 0.949 . S
C2187 H2182 0.950 . S
C2187 C2189 1.327 . S
C2187 C2193 1.429 . S
C2188 C2180 1.574 . S
C2188 H2183 0.949 . S
C2188 C2194 1.368 . S
C2189 C2173 1.349 . S
C2189 H2181 0.950 . S
C2189 C2187 1.327 . S
C2190 C2178 1.349 . S
C2190 H2184 0.950 . S
C2190 C2191 1.327 . S
C2191 H2185 0.950 . S
C2191 C2190 1.327 . S
C2191 C2195 1.429 . S
C2192 C2175 1.574 . S
C2192 H2186 0.949 . S
C2192 C2196 1.368 . S
C2193 C2174 1.429 . S
C2193 C2187 1.429 . S
C2193 C2194 1.523 . S
C2194 C2175 1.368 . S
C2194 C2188 1.368 . S
C2194 C2193 1.523 . S
C2195 C2179 1.429 . S
C2195 C2191 1.429 . S
C2195 C2196 1.523 . S
C2196 C2180 1.368 . S
C2196 C2192 1.368 . S
C2196 C2195 1.523 . S
H2197 C2172 0.950 . S
H2198 C2174 0.950 . S
H2199 C2175 0.949 . S
H2200 C2177 0.950 . S
H2201 C2179 0.950 . S
C2202 C2203 1.349 . S
C2202 C2204 1.327 . S
C2202 H2227 0.950 . S
C2203 C2202 1.349 . S
C2203 C2219 1.349 . S
C2204 C2202 1.327 . S
C2204 C2223 1.429 . S
C2204 H2228 0.950 . S
C2205 C2222 1.574 . S
C2205 C2224 1.368 . S
C2205 H2229 0.949 . S
H2206 C2210 0.949 . S
C2207 C2208 1.349 . S
C2207 C2209 1.327 . S
C2207 H2230 0.950 . S
C2208 C2207 1.349 . S
C2208 C2220 1.349 . S
C2209 C2207 1.327 . S
C2209 C2225 1.429 . S
C2209 H2231 0.950 . S
C2210 H2206 0.949 . S
C2210 C2218 1.574 . S
C2210 C2226 1.368 . S
H2211 C2219 0.950 . S
H2212 C2217 0.950 . S
H2213 C2218 0.949 . S
H2214 C2220 0.950 . S
H2215 C2221 0.950 . S
H2216 C2222 0.949 . S
C2217 H2212 0.950 . S
C2217 C2219 1.327 . S
C2217 C2223 1.429 . S
C2218 C2210 1.574 . S
C2218 H2213 0.949 . S
C2218 C2224 1.368 . S
C2219 C2203 1.349 . S
C2219 H2211 0.950 . S
C2219 C2217 1.327 . S
C2220 C2208 1.349 . S
C2220 H2214 0.950 . S
C2220 C2221 1.327 . S
C2221 H2215 0.950 . S
C2221 C2220 1.327 . S
C2221 C2225 1.429 . S
C2222 C2205 1.574 . S
C2222 H2216 0.949 . S
C2222 C2226 1.368 . S
C2223 C2204 1.429 . S
C2223 C2217 1.429 . S
C2223 C2224 1.523 . S
C2224 C2205 1.368 . S
C2224 C2218 1.368 . S
C2224 C2223 1.523 . S
C2225 C2209 1.429 . S
C2225 C2221 1.429 . S
C2225 C2226 1.523 . S
C2226 C2210 1.368 . S
C2226 C2222 1.368 . S
C2226 C2225 1.523 . S
H2227 C2202 0.950 . S
H2228 C2204 0.950 . S
H2229 C2205 0.949 . S
H2230 C2207 0.950 . S
H2231 C2209 0.950 . S
C2232 C2233 1.349 . S
C2232 C2234 1.327 . S
C2232 H2257 0.950 . S
C2233 C2232 1.349 . S
C2233 C2249 1.349 . S
C2234 C2232 1.327 . S
C2234 C2253 1.429 . S
C2234 H2258 0.950 . S
C2235 C2252 1.574 . S
C2235 C2254 1.368 . S
C2235 H2259 0.949 . S
H2236 C2240 0.949 . S
C2237 C2238 1.349 . S
C2237 C2239 1.327 . S
C2237 H2260 0.950 . S
C2238 C2237 1.349 . S
C2238 C2250 1.349 . S
C2239 C2237 1.327 . S
C2239 C2255 1.429 . S
C2239 H2261 0.950 . S
C2240 H2236 0.949 . S
C2240 C2248 1.574 . S
C2240 C2256 1.368 . S
H2241 C2249 0.950 . S
H2242 C2247 0.950 . S
H2243 C2248 0.949 . S
H2244 C2250 0.950 . S
H2245 C2251 0.950 . S
H2246 C2252 0.949 . S
C2247 H2242 0.950 . S
C2247 C2249 1.327 . S
C2247 C2253 1.429 . S
C2248 C2240 1.574 . S
C2248 H2243 0.949 . S
C2248 C2254 1.368 . S
C2249 C2233 1.349 . S
C2249 H2241 0.950 . S
C2249 C2247 1.327 . S
C2250 C2238 1.349 . S
C2250 H2244 0.950 . S
C2250 C2251 1.327 . S
C2251 H2245 0.950 . S
C2251 C2250 1.327 . S
C2251 C2255 1.429 . S
C2252 C2235 1.574 . S
C2252 H2246 0.949 . S
C2252 C2256 1.368 . S
C2253 C2234 1.429 . S
C2253 C2247 1.429 . S
C2253 C2254 1.523 . S
C2254 C2235 1.368 . S
C2254 C2248 1.368 . S
C2254 C2253 1.523 . S
C2255 C2239 1.429 . S
C2255 C2251 1.429 . S
C2255 C2256 1.523 . S
C2256 C2240 1.368 . S
C2256 C2252 1.368 . S
C2256 C2255 1.523 . S
H2257 C2232 0.950 . S
H2258 C2234 0.950 . S
H2259 C2235 0.949 . S
H2260 C2237 0.950 . S
H2261 C2239 0.950 . S
C2262 C2263 1.349 . S
C2262 C2264 1.327 . S
C2262 H2287 0.950 . S
C2263 C2262 1.349 . S
C2263 C2279 1.349 . S
C2264 C2262 1.327 . S
C2264 C2283 1.429 . S
C2264 H2288 0.950 . S
C2265 C2282 1.574 . S
C2265 C2284 1.368 . S
C2265 H2289 0.949 . S
H2266 C2270 0.949 . S
C2267 C2268 1.349 . S
C2267 C2269 1.327 . S
C2267 H2290 0.950 . S
C2268 C2267 1.349 . S
C2268 C2280 1.349 . S
C2269 C2267 1.327 . S
C2269 C2285 1.429 . S
C2269 H2291 0.950 . S
C2270 H2266 0.949 . S
C2270 C2278 1.574 . S
C2270 C2286 1.368 . S
H2271 C2279 0.950 . S
H2272 C2277 0.950 . S
H2273 C2278 0.949 . S
H2274 C2280 0.950 . S
H2275 C2281 0.950 . S
H2276 C2282 0.949 . S
C2277 H2272 0.950 . S
C2277 C2279 1.327 . S
C2277 C2283 1.429 . S
C2278 C2270 1.574 . S
C2278 H2273 0.949 . S
C2278 C2284 1.368 . S
C2279 C2263 1.349 . S
C2279 H2271 0.950 . S
C2279 C2277 1.327 . S
C2280 C2268 1.349 . S
C2280 H2274 0.950 . S
C2280 C2281 1.327 . S
C2281 H2275 0.950 . S
C2281 C2280 1.327 . S
C2281 C2285 1.429 . S
C2282 C2265 1.574 . S
C2282 H2276 0.949 . S
C2282 C2286 1.368 . S
C2283 C2264 1.429 . S
C2283 C2277 1.429 . S
C2283 C2284 1.523 . S
C2284 C2265 1.368 . S
C2284 C2278 1.368 . S
C2284 C2283 1.523 . S
C2285 C2269 1.429 . S
C2285 C2281 1.429 . S
C2285 C2286 1.523 . S
C2286 C2270 1.368 . S
C2286 C2282 1.368 . S
C2286 C2285 1.523 . S
H2287 C2262 0.950 . S
H2288 C2264 0.950 . S
H2289 C2265 0.949 . S
H2290 C2267 0.950 . S
H2291 C2269 0.950 . S
C2292 C2293 1.349 . S
C2292 C2294 1.327 . S
C2292 H2317 0.950 . S
C2293 C2292 1.349 . S
C2293 C2309 1.349 . S
C2294 C2292 1.327 . S
C2294 C2313 1.429 . S
C2294 H2318 0.950 . S
C2295 C2312 1.574 . S
C2295 C2314 1.368 . S
C2295 H2319 0.949 . S
H2296 C2300 0.949 . S
C2297 C2298 1.349 . S
C2297 C2299 1.327 . S
C2297 H2320 0.950 . S
C2298 C2297 1.349 . S
C2298 C2310 1.349 . S
C2299 C2297 1.327 . S
C2299 C2315 1.429 . S
C2299 H2321 0.950 . S
C2300 H2296 0.949 . S
C2300 C2308 1.574 . S
C2300 C2316 1.368 . S
H2301 C2309 0.950 . S
H2302 C2307 0.950 . S
H2303 C2308 0.949 . S
H2304 C2310 0.950 . S
H2305 C2311 0.950 . S
H2306 C2312 0.949 . S
C2307 H2302 0.950 . S
C2307 C2309 1.327 . S
C2307 C2313 1.429 . S
C2308 C2300 1.574 . S
C2308 H2303 0.949 . S
C2308 C2314 1.368 . S
C2309 C2293 1.349 . S
C2309 H2301 0.950 . S
C2309 C2307 1.327 . S
C2310 C2298 1.349 . S
C2310 H2304 0.950 . S
C2310 C2311 1.327 . S
C2311 H2305 0.950 . S
C2311 C2310 1.327 . S
C2311 C2315 1.429 . S
C2312 C2295 1.574 . S
C2312 H2306 0.949 . S
C2312 C2316 1.368 . S
C2313 C2294 1.429 . S
C2313 C2307 1.429 . S
C2313 C2314 1.523 . S
C2314 C2295 1.368 . S
C2314 C2308 1.368 . S
C2314 C2313 1.523 . S
C2315 C2299 1.429 . S
C2315 C2311 1.429 . S
C2315 C2316 1.523 . S
C2316 C2300 1.368 . S
C2316 C2312 1.368 . S
C2316 C2315 1.523 . S
H2317 C2292 0.950 . S
H2318 C2294 0.950 . S
H2319 C2295 0.949 . S
H2320 C2297 0.950 . S
H2321 C2299 0.950 . S
C2322 C2323 1.349 . S
C2322 C2324 1.327 . S
C2322 H2347 0.950 . S
C2323 C2322 1.349 . S
C2323 C2339 1.349 . S
C2324 C2322 1.327 . S
C2324 C2343 1.429 . S
C2324 H2348 0.950 . S
C2325 C2342 1.574 . S
C2325 C2344 1.368 . S
C2325 H2349 0.949 . S
H2326 C2330 0.949 . S
C2327 C2328 1.349 . S
C2327 C2329 1.327 . S
C2327 H2350 0.950 . S
C2328 C2327 1.349 . S
C2328 C2340 1.349 . S
C2329 C2327 1.327 . S
C2329 C2345 1.429 . S
C2329 H2351 0.950 . S
C2330 H2326 0.949 . S
C2330 C2338 1.574 . S
C2330 C2346 1.368 . S
H2331 C2339 0.950 . S
H2332 C2337 0.950 . S
H2333 C2338 0.949 . S
H2334 C2340 0.950 . S
H2335 C2341 0.950 . S
H2336 C2342 0.949 . S
C2337 H2332 0.950 . S
C2337 C2339 1.327 . S
C2337 C2343 1.429 . S
C2338 C2330 1.574 . S
C2338 H2333 0.949 . S
C2338 C2344 1.368 . S
C2339 C2323 1.349 . S
C2339 H2331 0.950 . S
C2339 C2337 1.327 . S
C2340 C2328 1.349 . S
C2340 H2334 0.950 . S
C2340 C2341 1.327 . S
C2341 H2335 0.950 . S
C2341 C2340 1.327 . S
C2341 C2345 1.429 . S
C2342 C2325 1.574 . S
C2342 H2336 0.949 . S
C2342 C2346 1.368 . S
C2343 C2324 1.429 . S
C2343 C2337 1.429 . S
C2343 C2344 1.523 . S
C2344 C2325 1.368 . S
C2344 C2338 1.368 . S
C2344 C2343 1.523 . S
C2345 C2329 1.429 . S
C2345 C2341 1.429 . S
C2345 C2346 1.523 . S
C2346 C2330 1.368 . S
C2346 C2342 1.368 . S
C2346 C2345 1.523 . S
H2347 C2322 0.950 . S
H2348 C2324 0.950 . S
H2349 C2325 0.949 . S
H2350 C2327 0.950 . S
H2351 C2329 0.950 . S
C2352 C2353 1.349 . S
C2352 C2354 1.327 . S
C2352 H2377 0.950 . S
C2353 C2352 1.349 . S
C2353 C2369 1.349 . S
C2354 C2352 1.327 . S
C2354 C2373 1.429 . S
C2354 H2378 0.950 . S
C2355 C2372 1.574 . S
C2355 C2374 1.368 . S
C2355 H2379 0.949 . S
H2356 C2360 0.949 . S
C2357 C2358 1.349 . S
C2357 C2359 1.327 . S
C2357 H2380 0.950 . S
C2358 C2357 1.349 . S
C2358 C2370 1.349 . S
C2359 C2357 1.327 . S
C2359 C2375 1.429 . S
C2359 H2381 0.950 . S
C2360 H2356 0.949 . S
C2360 C2368 1.574 . S
C2360 C2376 1.368 . S
H2361 C2369 0.950 . S
H2362 C2367 0.950 . S
H2363 C2368 0.949 . S
H2364 C2370 0.950 . S
H2365 C2371 0.950 . S
H2366 C2372 0.949 . S
C2367 H2362 0.950 . S
C2367 C2369 1.327 . S
C2367 C2373 1.429 . S
C2368 C2360 1.574 . S
C2368 H2363 0.949 . S
C2368 C2374 1.368 . S
C2369 C2353 1.349 . S
C2369 H2361 0.950 . S
C2369 C2367 1.327 . S
C2370 C2358 1.349 . S
C2370 H2364 0.950 . S
C2370 C2371 1.327 . S
C2371 H2365 0.950 . S
C2371 C2370 1.327 . S
C2371 C2375 1.429 . S
C2372 C2355 1.574 . S
C2372 H2366 0.949 . S
C2372 C2376 1.368 . S
C2373 C2354 1.429 . S
C2373 C2367 1.429 . S
C2373 C2374 1.523 . S
C2374 C2355 1.368 . S
C2374 C2368 1.368 . S
C2374 C2373 1.523 . S
C2375 C2359 1.429 . S
C2375 C2371 1.429 . S
C2375 C2376 1.523 . S
C2376 C2360 1.368 . S
C2376 C2372 1.368 . S
C2376 C2375 1.523 . S
H2377 C2352 0.950 . S
H2378 C2354 0.950 . S
H2379 C2355 0.949 . S
H2380 C2357 0.950 . S
H2381 C2359 0.950 . S
C2382 C2383 1.349 . S
C2382 C2384 1.327 . S
C2382 H2407 0.950 . S
C2383 C2382 1.349 . S
C2383 C2399 1.349 . S
C2384 C2382 1.327 . S
C2384 C2403 1.429 . S
C2384 H2408 0.950 . S
C2385 C2402 1.574 . S
C2385 C2404 1.368 . S
C2385 H2409 0.949 . S
H2386 C2390 0.949 . S
C2387 C2388 1.349 . S
C2387 C2389 1.327 . S
C2387 H2410 0.950 . S
C2388 C2387 1.349 . S
C2388 C2400 1.349 . S
C2389 C2387 1.327 . S
C2389 C2405 1.429 . S
C2389 H2411 0.950 . S
C2390 H2386 0.949 . S
C2390 C2398 1.574 . S
C2390 C2406 1.368 . S
H2391 C2399 0.950 . S
H2392 C2397 0.950 . S
H2393 C2398 0.949 . S
H2394 C2400 0.950 . S
H2395 C2401 0.950 . S
H2396 C2402 0.949 . S
C2397 H2392 0.950 . S
C2397 C2399 1.327 . S
C2397 C2403 1.429 . S
C2398 C2390 1.574 . S
C2398 H2393 0.949 . S
C2398 C2404 1.368 . S
C2399 C2383 1.349 . S
C2399 H2391 0.950 . S
C2399 C2397 1.327 . S
C2400 C2388 1.349 . S
C2400 H2394 0.950 . S
C2400 C2401 1.327 . S
C2401 H2395 0.950 . S
C2401 C2400 1.327 . S
C2401 C2405 1.429 . S
C2402 C2385 1.574 . S
C2402 H2396 0.949 . S
C2402 C2406 1.368 . S
C2403 C2384 1.429 . S
C2403 C2397 1.429 . S
C2403 C2404 1.523 . S
C2404 C2385 1.368 . S
C2404 C2398 1.368 . S
C2404 C2403 1.523 . S
C2405 C2389 1.429 . S
C2405 C2401 1.429 . S
C2405 C2406 1.523 . S
C2406 C2390 1.368 . S
C2406 C2402 1.368 . S
C2406 C2405 1.523 . S
H2407 C2382 0.950 . S
H2408 C2384 0.950 . S
H2409 C2385 0.949 . S
H2410 C2387 0.950 . S
H2411 C2389 0.950 . S
C2412 C2413 1.349 . S
C2412 C2414 1.327 . S
C2412 H2437 0.950 . S
C2413 C2412 1.349 . S
C2413 C2429 1.349 . S
C2414 C2412 1.327 . S
C2414 C2433 1.429 . S
C2414 H2438 0.950 . S
C2415 C2432 1.574 . S
C2415 C2434 1.368 . S
C2415 H2439 0.949 . S
H2416 C2420 0.949 . S
C2417 C2418 1.349 . S
C2417 C2419 1.327 . S
C2417 H2440 0.950 . S
C2418 C2417 1.349 . S
C2418 C2430 1.349 . S
C2419 C2417 1.327 . S
C2419 C2435 1.429 . S
C2419 H2441 0.950 . S
C2420 H2416 0.949 . S
C2420 C2428 1.574 . S
C2420 C2436 1.368 . S
H2421 C2429 0.950 . S
H2422 C2427 0.950 . S
H2423 C2428 0.949 . S
H2424 C2430 0.950 . S
H2425 C2431 0.950 . S
H2426 C2432 0.949 . S
C2427 H2422 0.950 . S
C2427 C2429 1.327 . S
C2427 C2433 1.429 . S
C2428 C2420 1.574 . S
C2428 H2423 0.949 . S
C2428 C2434 1.368 . S
C2429 C2413 1.349 . S
C2429 H2421 0.950 . S
C2429 C2427 1.327 . S
C2430 C2418 1.349 . S
C2430 H2424 0.950 . S
C2430 C2431 1.327 . S
C2431 H2425 0.950 . S
C2431 C2430 1.327 . S
C2431 C2435 1.429 . S
C2432 C2415 1.574 . S
C2432 H2426 0.949 . S
C2432 C2436 1.368 . S
C2433 C2414 1.429 . S
C2433 C2427 1.429 . S
C2433 C2434 1.523 . S
C2434 C2415 1.368 . S
C2434 C2428 1.368 . S
C2434 C2433 1.523 . S
C2435 C2419 1.429 . S
C2435 C2431 1.429 . S
C2435 C2436 1.523 . S
C2436 C2420 1.368 . S
C2436 C2432 1.368 . S
C2436 C2435 1.523 . S
H2437 C2412 0.950 . S
H2438 C2414 0.950 . S
H2439 C2415 0.949 . S
H2440 C2417 0.950 . S
H2441 C2419 0.950 . S
C2442 C2443 1.349 . S
C2442 C2444 1.327 . S
C2442 H2467 0.950 . S
C2443 C2442 1.349 . S
C2443 C2459 1.349 . S
C2444 C2442 1.327 . S
C2444 C2463 1.429 . S
C2444 H2468 0.950 . S
C2445 C2462 1.574 . S
C2445 C2464 1.368 . S
C2445 H2469 0.949 . S
H2446 C2450 0.949 . S
C2447 C2448 1.349 . S
C2447 C2449 1.327 . S
C2447 H2470 0.950 . S
C2448 C2447 1.349 . S
C2448 C2460 1.349 . S
C2449 C2447 1.327 . S
C2449 C2465 1.429 . S
C2449 H2471 0.950 . S
C2450 H2446 0.949 . S
C2450 C2458 1.574 . S
C2450 C2466 1.368 . S
H2451 C2459 0.950 . S
H2452 C2457 0.950 . S
H2453 C2458 0.949 . S
H2454 C2460 0.950 . S
H2455 C2461 0.950 . S
H2456 C2462 0.949 . S
C2457 H2452 0.950 . S
C2457 C2459 1.327 . S
C2457 C2463 1.429 . S
C2458 C2450 1.574 . S
C2458 H2453 0.949 . S
C2458 C2464 1.368 . S
C2459 C2443 1.349 . S
C2459 H2451 0.950 . S
C2459 C2457 1.327 . S
C2460 C2448 1.349 . S
C2460 H2454 0.950 . S
C2460 C2461 1.327 . S
C2461 H2455 0.950 . S
C2461 C2460 1.327 . S
C2461 C2465 1.429 . S
C2462 C2445 1.574 . S
C2462 H2456 0.949 . S
C2462 C2466 1.368 . S
C2463 C2444 1.429 . S
C2463 C2457 1.429 . S
C2463 C2464 1.523 . S
C2464 C2445 1.368 . S
C2464 C2458 1.368 . S
C2464 C2463 1.523 . S
C2465 C2449 1.429 . S
C2465 C2461 1.429 . S
C2465 C2466 1.523 . S
C2466 C2450 1.368 . S
C2466 C2462 1.368 . S
C2466 C2465 1.523 . S
H2467 C2442 0.950 . S
H2468 C2444 0.950 . S
H2469 C2445 0.949 . S
H2470 C2447 0.950 . S
H2471 C2449 0.950 . S
C2472 C2473 1.349 . S
C2472 C2474 1.327 . S
C2472 H2497 0.950 . S
C2473 C2472 1.349 . S
C2473 C2489 1.349 . S
C2474 C2472 1.327 . S
C2474 C2493 1.429 . S
C2474 H2498 0.950 . S
C2475 C2492 1.574 . S
C2475 C2494 1.368 . S
C2475 H2499 0.949 . S
H2476 C2480 0.949 . S
C2477 C2478 1.349 . S
C2477 C2479 1.327 . S
C2477 H2500 0.950 . S
C2478 C2477 1.349 . S
C2478 C2490 1.349 . S
C2479 C2477 1.327 . S
C2479 C2495 1.429 . S
C2479 H2501 0.950 . S
C2480 H2476 0.949 . S
C2480 C2488 1.574 . S
C2480 C2496 1.368 . S
H2481 C2489 0.950 . S
H2482 C2487 0.950 . S
H2483 C2488 0.949 . S
H2484 C2490 0.950 . S
H2485 C2491 0.950 . S
H2486 C2492 0.949 . S
C2487 H2482 0.950 . S
C2487 C2489 1.327 . S
C2487 C2493 1.429 . S
C2488 C2480 1.574 . S
C2488 H2483 0.949 . S
C2488 C2494 1.368 . S
C2489 C2473 1.349 . S
C2489 H2481 0.950 . S
C2489 C2487 1.327 . S
C2490 C2478 1.349 . S
C2490 H2484 0.950 . S
C2490 C2491 1.327 . S
C2491 H2485 0.950 . S
C2491 C2490 1.327 . S
C2491 C2495 1.429 . S
C2492 C2475 1.574 . S
C2492 H2486 0.949 . S
C2492 C2496 1.368 . S
C2493 C2474 1.429 . S
C2493 C2487 1.429 . S
C2493 C2494 1.523 . S
C2494 C2475 1.368 . S
C2494 C2488 1.368 . S
C2494 C2493 1.523 . S
C2495 C2479 1.429 . S
C2495 C2491 1.429 . S
C2495 C2496 1.523 . S
C2496 C2480 1.368 . S
C2496 C2492 1.368 . S
C2496 C2495 1.523 . S
H2497 C2472 0.950 . S
H2498 C2474 0.950 . S
H2499 C2475 0.949 . S
H2500 C2477 0.950 . S
H2501 C2479 0.950 . S
C2502 C2503 1.349 . S
C2502 C2504 1.327 . S
C2502 H2527 0.950 . S
C2503 C2502 1.349 . S
C2503 C2519 1.349 . S
C2504 C2502 1.327 . S
C2504 C2523 1.429 . S
C2504 H2528 0.950 . S
C2505 C2522 1.574 . S
C2505 C2524 1.368 . S
C2505 H2529 0.949 . S
H2506 C2510 0.949 . S
C2507 C2508 1.349 . S
C2507 C2509 1.327 . S
C2507 H2530 0.950 . S
C2508 C2507 1.349 . S
C2508 C2520 1.349 . S
C2509 C2507 1.327 . S
C2509 C2525 1.429 . S
C2509 H2531 0.950 . S
C2510 H2506 0.949 . S
C2510 C2518 1.574 . S
C2510 C2526 1.368 . S
H2511 C2519 0.950 . S
H2512 C2517 0.950 . S
H2513 C2518 0.949 . S
H2514 C2520 0.950 . S
H2515 C2521 0.950 . S
H2516 C2522 0.949 . S
C2517 H2512 0.950 . S
C2517 C2519 1.327 . S
C2517 C2523 1.429 . S
C2518 C2510 1.574 . S
C2518 H2513 0.949 . S
C2518 C2524 1.368 . S
C2519 C2503 1.349 . S
C2519 H2511 0.950 . S
C2519 C2517 1.327 . S
C2520 C2508 1.349 . S
C2520 H2514 0.950 . S
C2520 C2521 1.327 . S
C2521 H2515 0.950 . S
C2521 C2520 1.327 . S
C2521 C2525 1.429 . S
C2522 C2505 1.574 . S
C2522 H2516 0.949 . S
C2522 C2526 1.368 . S
C2523 C2504 1.429 . S
C2523 C2517 1.429 . S
C2523 C2524 1.523 . S
C2524 C2505 1.368 . S
C2524 C2518 1.368 . S
C2524 C2523 1.523 . S
C2525 C2509 1.429 . S
C2525 C2521 1.429 . S
C2525 C2526 1.523 . S
C2526 C2510 1.368 . S
C2526 C2522 1.368 . S
C2526 C2525 1.523 . S
H2527 C2502 0.950 . S
H2528 C2504 0.950 . S
H2529 C2505 0.949 . S
H2530 C2507 0.950 . S
H2531 C2509 0.950 . S
C2532 C2533 1.349 . S
C2532 C2534 1.327 . S
C2532 H2557 0.950 . S
C2533 C2532 1.349 . S
C2533 C2549 1.349 . S
C2534 C2532 1.327 . S
C2534 C2553 1.429 . S
C2534 H2558 0.950 . S
C2535 C2552 1.574 . S
C2535 C2554 1.368 . S
C2535 H2559 0.949 . S
H2536 C2540 0.949 . S
C2537 C2538 1.349 . S
C2537 C2539 1.327 . S
C2537 H2560 0.950 . S
C2538 C2537 1.349 . S
C2538 C2550 1.349 . S
C2539 C2537 1.327 . S
C2539 C2555 1.429 . S
C2539 H2561 0.950 . S
C2540 H2536 0.949 . S
C2540 C2548 1.574 . S
C2540 C2556 1.368 . S
H2541 C2549 0.950 . S
H2542 C2547 0.950 . S
H2543 C2548 0.949 . S
H2544 C2550 0.950 . S
H2545 C2551 0.950 . S
H2546 C2552 0.949 . S
C2547 H2542 0.950 . S
C2547 C2549 1.327 . S
C2547 C2553 1.429 . S
C2548 C2540 1.574 . S
C2548 H2543 0.949 . S
C2548 C2554 1.368 . S
C2549 C2533 1.349 . S
C2549 H2541 0.950 . S
C2549 C2547 1.327 . S
C2550 C2538 1.349 . S
C2550 H2544 0.950 . S
C2550 C2551 1.327 . S
C2551 H2545 0.950 . S
C2551 C2550 1.327 . S
C2551 C2555 1.429 . S
C2552 C2535 1.574 . S
C2552 H2546 0.949 . S
C2552 C2556 1.368 . S
C2553 C2534 1.429 . S
C2553 C2547 1.429 . S
C2553 C2554 1.523 . S
C2554 C2535 1.368 . S
C2554 C2548 1.368 . S
C2554 C2553 1.523 . S
C2555 C2539 1.429 . S
C2555 C2551 1.429 . S
C2555 C2556 1.523 . S
C2556 C2540 1.368 . S
C2556 C2552 1.368 . S
C2556 C2555 1.523 . S
H2557 C2532 0.950 . S
H2558 C2534 0.950 . S
H2559 C2535 0.949 . S
H2560 C2537 0.950 . S
H2561 C2539 0.950 . S
C2562 C2563 1.349 . S
C2562 C2564 1.327 . S
C2562 H2587 0.950 . S
C2563 C2562 1.349 . S
C2563 C2579 1.349 . S
C2564 C2562 1.327 . S
C2564 C2583 1.429 . S
C2564 H2588 0.950 . S
C2565 C2582 1.574 . S
C2565 C2584 1.368 . S
C2565 H2589 0.949 . S
H2566 C2570 0.949 . S
C2567 C2568 1.349 . S
C2567 C2569 1.327 . S
C2567 H2590 0.950 . S
C2568 C2567 1.349 . S
C2568 C2580 1.349 . S
C2569 C2567 1.327 . S
C2569 C2585 1.429 . S
C2569 H2591 0.950 . S
C2570 H2566 0.949 . S
C2570 C2578 1.574 . S
C2570 C2586 1.368 . S
H2571 C2579 0.950 . S
H2572 C2577 0.950 . S
H2573 C2578 0.949 . S
H2574 C2580 0.950 . S
H2575 C2581 0.950 . S
H2576 C2582 0.949 . S
C2577 H2572 0.950 . S
C2577 C2579 1.327 . S
C2577 C2583 1.429 . S
C2578 C2570 1.574 . S
C2578 H2573 0.949 . S
C2578 C2584 1.368 . S
C2579 C2563 1.349 . S
C2579 H2571 0.950 . S
C2579 C2577 1.327 . S
C2580 C2568 1.349 . S
C2580 H2574 0.950 . S
C2580 C2581 1.327 . S
C2581 H2575 0.950 . S
C2581 C2580 1.327 . S
C2581 C2585 1.429 . S
C2582 C2565 1.574 . S
C2582 H2576 0.949 . S
C2582 C2586 1.368 . S
C2583 C2564 1.429 . S
C2583 C2577 1.429 . S
C2583 C2584 1.523 . S
C2584 C2565 1.368 . S
C2584 C2578 1.368 . S
C2584 C2583 1.523 . S
C2585 C2569 1.429 . S
C2585 C2581 1.429 . S
C2585 C2586 1.523 . S
C2586 C2570 1.368 . S
C2586 C2582 1.368 . S
C2586 C2585 1.523 . S
H2587 C2562 0.950 . S
H2588 C2564 0.950 . S
H2589 C2565 0.949 . S
H2590 C2567 0.950 . S
H2591 C2569 0.950 . S
C973 C162 1.432 . S
C978 C283 1.374 . S
C1003 C174 1.459 . S
C1008 C367 1.405 . S
C1033 C150 1.426 . S
C1038 C447 1.418 . S
C1063 C138 1.400 . S
C1068 C363 1.394 1_556 S
C1098 C451 1.354 . S
C1093 C114 1.409 . S
C1123 C126 1.376 . S
C1128 C279 1.369 1_556 S
C1158 C272 1.432 . S
C1153 C136 1.487 . S
C1188 C356 1.459 . S
C1183 C112 1.512 . S
C1213 C124 1.505 . S
C1218 C458 1.486 . S
C1243 C160 1.471 . S
C1248 C374 1.445 . S
C1273 C172 1.455 . S
C1278 C440 1.399 . S
C1308 C290 1.422 . S
C1303 C148 1.448 . S
C1338 C535 1.374 . S
C1333 C18 1.432 . S
C1363 C30 1.459 . S
C1368 C619 1.405 . S
C1393 C6 1.426 . S
C1398 C699 1.418 . S
C1423 C210 1.400 . S
C1428 C615 1.394 . S
C1453 C186 1.409 . S
C1458 C703 1.351 . S
C1483 C198 1.376 . S
C1488 C531 1.368 . S
C1513 C208 1.487 . S
C1518 C524 1.432 . S
C1543 C184 1.512 . S
C1548 C608 1.459 . S
C1578 C710 1.479 . S
C1573 C196 1.505 . S
C1603 C16 1.471 . S
C1608 C626 1.445 . S
C1638 C692 1.399 . S
C1633 C28 1.455 . S
C1663 C4 1.448 . S
C1668 C542 1.422 . S
C1698 C787 1.374 . S
C1693 C90 1.432 . S
C1723 C102 1.459 . S
C1728 C871 1.405 . S
C1758 C951 1.418 . S
C1753 C78 1.426 . S
C1788 C867 1.394 . S
C1783 C66 1.400 . S
C1818 C955 1.351 . S
C1813 C42 1.409 . S
C1843 C54 1.376 . S
C1848 C783 1.368 . S
C1873 C64 1.487 . S
C1878 C776 1.432 . S
C1903 C40 1.512 . S
C1908 C860 1.459 . S
C1938 C962 1.479 . S
C1933 C52 1.505 . S
C1963 C88 1.471 . S
C1968 C878 1.445 . S
C1993 C100 1.455 . S
C1998 C944 1.399 . S
C2023 C76 1.448 . S
C2028 C794 1.422 . S
C2053 C189 1.557 . S
C2058 C286 1.430 . S
C2088 C370 1.486 . S
C2083 C201 1.637 . S
C2113 C213 1.573 . S
C2118 C442 1.390 . S
C2143 C81 1.607 . S
C2148 C358 1.413 . S
C2173 C93 1.589 . S
C2178 C454 1.447 . S
C2208 C274 1.359 . S
C2203 C105 1.527 . S
C2233 C45 1.557 . S
C2238 C538 1.430 . S
C2263 C57 1.637 . S
C2268 C622 1.486 . S
C2293 C69 1.573 . S
C2298 C694 1.390 . S
C2323 C153 1.607 . S
C2328 C610 1.413 . S
C2358 C706 1.447 . S
C2353 C165 1.589 . S
C2383 C177 1.527 . S
C2388 C526 1.359 . S
C2413 C117 1.557 . S
C2418 C790 1.430 . S
C2443 C129 1.637 . S
C2448 C874 1.486 . S
C2478 C946 1.391 . S
C2473 C141 1.573 . S
C2503 C9 1.607 . S
C2508 C862 1.413 . S
C2533 C21 1.589 . S
C2538 C958 1.447 . S
C2563 C33 1.527 . S
C2568 C778 1.359 . S
