# Generated by pormake.
# Topology anh, (6,3)-cn, num edge types: 1
# Building blocks:
#     Node 0, Type 0, BuildingBlock: PAMTOO_clean_sbu_0, # of connection points: 6
#     Node 1, Type 0, BuildingBlock: PAMTOO_clean_sbu_0, # of connection points: 6
#     Node 2, Type 0, BuildingBlock: PAMTOO_clean_sbu_0, # of connection points: 6
#     Node 3, Type 1, BuildingBlock: ESEHIV_clean_linker_0, # of connection points: 3
#     Node 4, Type 1, BuildingBlock: ESEHIV_clean_linker_0, # of connection points: 3
#     Node 5, Type 1, BuildingBlock: ESEHIV_clean_linker_0, # of connection points: 3
#     Node 6, Type 1, BuildingBlock: ESEHIV_clean_linker_0, # of connection points: 3
#     Node 7, Type 1, BuildingBlock: ESEHIV_clean_linker_0, # of connection points: 3
#     Node 8, Type 1, BuildingBlock: ESEHIV_clean_linker_0, # of connection points: 3
#     Edge 9, Type (0, 1), BuildingBlock: XUDNAN_clean_linker_2, # of connection points: 2
#     Edge 10, Type (0, 1), BuildingBlock: XUDNAN_clean_linker_2, # of connection points: 2
#     Edge 11, Type (0, 1), BuildingBlock: XUDNAN_clean_linker_2, # of connection points: 2
#     Edge 12, Type (0, 1), BuildingBlock: XUDNAN_clean_linker_2, # of connection points: 2
#     Edge 13, Type (0, 1), BuildingBlock: XUDNAN_clean_linker_2, # of connection points: 2
#     Edge 14, Type (0, 1), BuildingBlock: XUDNAN_clean_linker_2, # of connection points: 2
#     Edge 15, Type (0, 1), BuildingBlock: XUDNAN_clean_linker_2, # of connection points: 2
#     Edge 16, Type (0, 1), BuildingBlock: XUDNAN_clean_linker_2, # of connection points: 2
#     Edge 17, Type (0, 1), BuildingBlock: XUDNAN_clean_linker_2, # of connection points: 2
#     Edge 18, Type (0, 1), BuildingBlock: XUDNAN_clean_linker_2, # of connection points: 2
#     Edge 19, Type (0, 1), BuildingBlock: XUDNAN_clean_linker_2, # of connection points: 2
#     Edge 20, Type (0, 1), BuildingBlock: XUDNAN_clean_linker_2, # of connection points: 2
#     Edge 21, Type (0, 1), BuildingBlock: XUDNAN_clean_linker_2, # of connection points: 2
#     Edge 22, Type (0, 1), BuildingBlock: XUDNAN_clean_linker_2, # of connection points: 2
#     Edge 23, Type (0, 1), BuildingBlock: XUDNAN_clean_linker_2, # of connection points: 2
#     Edge 24, Type (0, 1), BuildingBlock: XUDNAN_clean_linker_2, # of connection points: 2
#     Edge 25, Type (0, 1), BuildingBlock: XUDNAN_clean_linker_2, # of connection points: 2
#     Edge 26, Type (0, 1), BuildingBlock: XUDNAN_clean_linker_2, # of connection points: 2
# Relax obj value: 0.215
# Max RMSD: 0.210
# Mean RMSD: 0.165
data_MOF--net-anh--node1-PAMTOO_clean_sbu_0--node2-ESEHIV_clean_linker_0--edge1-XUDNAN_clean_linker_2
_symmetry_space_group_name_H-M    P1
_symmetry_Int_Tables_number       1
_symmetry_cell_setting            triclinic
loop_
_symmetry_equiv_pos_as_xyz
'x, y, z'
_cell_length_a     27.852884
_cell_length_b     27.083336
_cell_length_c     51.783352
_cell_angle_alpha  90.815096
_cell_angle_beta   95.668011
_cell_angle_gamma 101.31341
loop_
_atom_site_label
_atom_site_type_symbol
_atom_site_fract_x
_atom_site_fract_y
_atom_site_fract_z
_atom_type_partial_charge
Dy0 Dy 0.13084 0.55554 0.1441 0.0
Dy1 Dy 0.11037 0.43507 0.15776 0.0
C2 C 0.10072 0.47034 0.1006 0.0
O3 O 1.04919 0.53917 0.1495 0.0
O4 O 1.03405 0.45246 0.15125 0.0
O5 O 0.16282 0.61568 0.12011 0.0
O6 O 0.12505 0.63203 0.15292 0.0
O7 O 0.10337 0.47686 0.19405 0.0
O8 O 0.15397 0.55124 0.18623 0.0
O9 O 0.19336 0.45793 0.16258 0.0
O10 O 0.20318 0.53063 0.13963 0.0
O11 O 0.1155 0.3736 0.18353 0.0
O12 O 1.08068 0.35854 0.1442 0.0
C13 C 1.01833 0.49545 0.15038 0.0
O14 O 0.09016 0.51227 0.10906 0.0
O15 O 0.12363 0.44285 0.1161 0.0
C16 C 0.19596 0.69191 0.14447 0.0
C17 C 0.27686 0.77064 0.16096 0.0
C18 C 0.26718 0.75398 0.13472 0.0
C19 C 0.22711 0.71525 0.12658 0.0
C20 C 0.20565 0.70833 0.17072 0.0
C21 C 0.24553 0.74724 0.17883 0.0
C22 C 0.15387 0.65064 0.13554 0.0
C23 C 0.13059 0.52042 0.20215 0.0
C24 C 0.22166 0.49411 0.15104 0.0
C25 C 1.04703 0.30614 0.17618 0.0
C26 C 0.96226 0.2396 0.18949 0.0
C27 C 1.00478 0.22157 0.18463 0.0
C28 C 1.04666 0.25453 0.17793 0.0
C29 C 1.00545 0.32466 0.18177 0.0
C30 C 0.96339 0.29174 0.18829 0.0
C31 C 0.08942 0.33984 0.16684 0.0
H32 H 0.29088 0.7705 0.12045 0.0
H33 H 0.22059 0.70335 0.10626 0.0
H34 H 0.1824 0.69127 0.18508 0.0
H35 H 0.25132 0.75947 0.1991 0.0
H36 H 1.00567 0.18188 0.18586 0.0
H37 H 1.07848 0.2396 0.1737 0.0
H38 H 1.00521 0.36447 0.18052 0.0
H39 H 0.93133 0.30704 0.19162 0.0
Dy40 Dy 0.57286 0.0619 0.5282 0.0
Dy41 Dy 0.69228 0.08313 0.52566 0.0
C42 C 0.64638 0.07595 0.57898 0.0
O43 O 0.59156 0.14588 0.52564 0.0
O44 O 0.67653 0.16006 0.53283 0.0
O45 O 0.51055 0.03561 0.54946 0.0
O46 O 0.499 0.05859 0.50985 0.0
O47 O 0.6586 0.10763 0.48864 0.0
O48 O 0.58791 0.04849 0.48705 0.0
O49 O 0.66466 1.00107 0.51478 0.0
O50 O 0.59641 0.98903 0.53686 0.0
O51 O 0.75441 0.07179 0.50623 0.0
O52 O 0.76607 0.11323 0.54322 0.0
C53 C 0.63482 0.17649 0.52998 0.0
O54 O 0.60856 0.09174 0.56726 0.0
O55 O 0.67728 0.05858 0.56549 0.0
C56 C 0.44305 0.98934 0.52329 0.0
C57 C 0.37532 0.89761 0.51288 0.0
C58 C 0.42596 0.90007 0.51157 0.0
C59 C 0.45948 0.94553 0.51668 0.0
C60 C 0.39275 0.98728 0.52467 0.0
C61 C 0.35909 0.94177 0.51949 0.0
C62 C 0.47859 0.03667 0.52943 0.0
C63 C 0.6199 0.0803 0.47534 0.0
C64 C 0.62989 0.97119 0.52565 0.0
C65 C 0.82439 0.13865 0.51296 0.0
C66 C 0.89954 0.21028 0.49392 0.0
C67 C 0.87102 0.17145 0.47747 0.0
C68 C 0.83398 0.13597 0.48688 0.0
C69 C 0.85283 0.17756 0.52942 0.0
C70 C 0.88986 0.21316 0.51996 0.0
C71 C 0.78633 0.09999 0.5232 0.0
H72 H 0.43981 0.8667 0.50689 0.0
H73 H 0.49831 0.94645 0.51566 0.0
H74 H 0.37954 0.02082 0.52978 0.0
H75 H 0.32031 0.94134 0.52031 0.0
H76 H 0.87714 0.16858 0.45722 0.0
H77 H 0.81307 0.10631 0.47369 0.0
H78 H 0.8468 0.18027 0.54969 0.0
H79 H 0.91159 0.24232 0.53317 0.0
Dy80 Dy 0.62685 0.57606 0.83482 0.0
Dy81 Dy 0.51268 0.56034 0.84782 0.0
C82 C 0.54019 0.56028 0.79063 0.0
O83 O 0.60736 0.6524 0.83051 0.0
O84 O 0.5432 0.64183 0.85564 0.0
O85 O 0.67921 0.60359 0.80775 0.0
O86 O 0.70249 0.56797 0.84278 0.0
O87 O 0.55786 0.54202 0.88299 0.0
O88 O 0.62909 0.59648 0.87704 0.0
O89 O 0.52091 0.48162 0.83944 0.0
O90 O 0.60565 0.49355 0.84228 0.0
O91 O 0.46229 0.56784 0.87594 0.0
O92 O 0.43448 0.53919 0.83677 0.0
C93 C 0.5762 0.67097 0.84342 0.0
O94 O 0.57763 0.54159 0.80025 0.0
O95 O 0.51526 0.58156 0.80619 0.0
C96 C 0.73415 0.54873 0.80441 0.0
C97 C 0.77247 0.47086 0.7825 0.0
C98 C 0.72166 0.47027 0.779 0.0
C99 C 0.70262 0.50877 0.78999 0.0
C100 C 0.78506 0.5517 0.80609 0.0
C101 C 0.80415 0.51313 0.79516 0.0
C102 C 0.71365 0.58374 0.81999 0.0
C103 C 0.59959 0.57068 0.89252 0.0
C104 C 0.56174 0.46391 0.84069 0.0
C105 C 0.38998 0.59152 0.85781 0.0
C106 C 0.31722 0.65059 0.8559 0.0
C107 C 0.33189 0.62916 0.87925 0.0
C108 C 0.36774 0.59975 0.88012 0.0
C109 C 0.37867 0.61637 0.83502 0.0
C110 C 0.34239 0.64562 0.83406 0.0
C111 C 0.42396 0.5562 0.85883 0.0
H112 H 0.69641 0.43834 0.76932 0.0
H113 H 0.66309 0.50584 0.78849 0.0
H114 H 0.80986 0.58221 0.81718 0.0
H115 H 0.84338 0.51444 0.79863 0.0
H116 H 0.31277 0.63137 0.89632 0.0
H117 H 0.37648 0.58149 0.89798 0.0
H118 H 0.39625 0.61152 0.81766 0.0
H119 H 0.33178 0.66163 0.81583 0.0
H120 H 0.53171 1.00619 0.2803 0.0
H121 H 0.68179 0.08678 0.28561 0.0
H122 H 0.61094 0.01882 0.21261 0.0
C123 C 0.56534 0.01894 0.27134 0.0
C124 C 0.56665 1.00834 0.24475 0.0
C125 C 0.60643 0.04839 0.28602 0.0
C126 C 0.64956 0.06556 0.27408 0.0
C127 C 0.65179 0.05515 0.24764 0.0
C128 C 0.60999 0.02658 0.23312 0.0
H129 H 0.55613 0.63893 0.59922 0.0
H130 H 0.56565 0.48338 0.60155 0.0
H131 H 0.62223 0.57213 0.539 0.0
C132 C 0.56735 0.60703 0.59054 0.0
C133 C 0.59083 0.61243 0.56752 0.0
C134 C 0.55938 0.56118 0.60321 0.0
C135 C 0.57191 0.51888 0.59179 0.0
C136 C 0.59357 0.52209 0.56834 0.0
C137 C 0.60387 0.56927 0.55655 0.0
H138 H 0.98033 0.33829 0.90203 0.0
H139 H 1.06648 0.48474 0.92489 0.0
H140 H 0.99817 0.45677 0.84703 0.0
C141 C 0.99601 0.37633 0.89701 0.0
C142 C 0.98877 0.392 0.87136 0.0
C143 C 1.0232 0.41027 0.91641 0.0
C144 C 1.04435 0.45937 0.90997 0.0
C145 C 1.03634 0.4761 0.88474 0.0
C146 C 1.00727 0.44262 0.86596 0.0
H147 H 0.09304 0.47789 0.38918 0.0
H148 H 0.184 0.62578 0.40161 0.0
H149 H 0.14311 0.53598 0.46678 0.0
C150 C 0.11425 0.50789 0.40208 0.0
C151 C 0.11622 0.50144 0.42897 0.0
C152 C 0.13861 0.55255 0.39184 0.0
C153 C 0.16455 0.59129 0.40915 0.0
C154 C 0.16593 0.58608 0.43619 0.0
C155 C 0.14131 0.541 0.446 0.0
H156 H 0.61072 0.1523 0.76724 0.0
H157 H 0.62041 0.99669 0.76998 0.0
H158 H 0.57573 0.06956 0.83562 0.0
C159 C 0.60739 0.1177 0.7778 0.0
C160 C 0.59186 0.11618 0.80285 0.0
C161 C 0.61854 0.07495 0.76615 0.0
C162 C 0.61373 0.0301 0.77962 0.0
C163 C 0.59842 0.02732 0.80472 0.0
C164 C 0.58713 0.07072 0.8162 0.0
H165 H 0.54504 0.54577 0.08268 0.0
H166 H 0.69943 0.54766 0.08748 0.0
H167 H 0.62041 0.50321 0.15358 0.0
C168 C 0.57827 0.54081 0.0942 0.0
C169 C 0.57612 0.52479 0.11997 0.0
C170 C 0.62258 0.5497 0.08267 0.0
C171 C 0.66585 0.5425 0.09695 0.0
C172 C 0.66638 0.52592 0.12249 0.0
C173 C 0.62081 0.51627 0.13393 0.0
H174 H 0.29461 0.55886 0.12719 0.0
H175 H 0.273 0.4261 0.17389 0.0
H176 H 0.36052 0.42173 0.17315 0.0
H177 H 0.37791 0.51809 0.08649 0.0
H178 H 0.41592 0.57977 0.08479 0.0
H179 H 0.35192 0.57354 0.08968 0.0
H180 H 0.37613 0.63032 0.13139 0.0
H181 H 0.44025 0.63666 0.12664 0.0
H182 H 0.41866 0.61375 0.15677 0.0
H183 H 0.45276 0.43065 0.16639 0.0
H184 H 0.53717 0.45045 0.15293 0.0
H185 H 0.5 0.57828 0.11153 0.0
C186 C 0.30819 0.52894 0.1374 0.0
C187 C 0.27592 0.49284 0.15066 0.0
C188 C 0.29609 0.45439 0.16357 0.0
C189 C 0.34619 0.45157 0.1633 0.0
C190 C 0.37678 0.4875 0.15005 0.0
C191 C 0.35842 0.52551 0.13731 0.0
C192 C 0.3989 0.55885 0.12406 0.0
C193 C 0.38534 0.55747 0.0945 0.0
C194 C 0.40908 0.61311 0.13539 0.0
C195 C 0.44261 0.53349 0.13108 0.0
C196 C 0.42926 0.49251 0.1462 0.0
C197 C 0.4634 0.46287 0.15461 0.0
C198 C 0.51175 0.47469 0.14701 0.0
C199 C 0.52631 0.51584 0.13093 0.0
C200 C 0.49079 0.54596 0.12344 0.0
H201 H 0.92248 0.31299 0.5029 0.0
H202 H 0.96681 0.19086 0.4621 0.0
H203 H 1.03076 0.25213 0.44347 0.0
H204 H 0.93615 0.3998 0.45297 0.0
H205 H 0.95987 0.45438 0.47412 0.0
H206 H 0.91979 0.4008 0.48578 0.0
H207 H 0.98557 0.39513 0.52408 0.0
H208 H 1.0259 0.44881 0.51254 0.0
H209 H 1.04691 0.39047 0.51749 0.0
H210 H 1.0857 0.32605 0.42707 0.0
H211 H 0.12882 0.40884 0.41377 0.0
H212 H 1.05078 0.48363 0.46579 0.0
C213 C 0.94625 0.29909 0.49043 0.0
C214 C 0.93958 0.24714 0.48389 0.0
C215 C 0.97084 0.23052 0.46711 0.0
C216 C 1.00751 0.26498 0.4566 0.0
C217 C 1.01271 0.3159 0.46319 0.0
C218 C 0.98314 0.33301 0.47977 0.0
C219 C 0.99504 0.39002 0.4827 0.0
C220 C 0.95004 0.41255 0.47333 0.0
C221 C 1.01452 0.4071 0.51088 0.0
C222 C 1.03523 0.40227 0.46475 0.0
C223 C 1.04499 0.35886 0.45385 0.0
C224 C 1.07879 0.3603 0.43566 0.0
C225 C 0.10291 0.4074 0.42816 0.0
C226 C 0.09312 0.45238 0.43884 0.0
C227 C 1.0594 0.44973 0.45766 0.0
H228 H 0.64128 0.74711 0.82293 0.0
H229 H 0.51057 0.71919 0.86411 0.0
H230 H 0.5067 0.80904 0.86248 0.0
H231 H 0.69413 0.87267 0.8536 0.0
H232 H 0.71695 0.89746 0.82406 0.0
H233 H 0.71199 0.83144 0.83029 0.0
H234 H 0.65796 0.80847 0.78648 0.0
H235 H 0.66272 0.8743 0.78014 0.0
H236 H 0.60298 0.83387 0.7799 0.0
H237 H 0.51199 0.90044 0.85274 0.0
H238 H 0.52672 0.9861 0.83559 0.0
H239 H 0.65676 0.95629 0.80332 0.0
C240 C 0.61226 0.75998 0.83192 0.0
C241 C 0.57636 0.72586 0.84368 0.0
C242 C 0.53875 0.74439 0.85507 0.0
C243 C 0.53619 0.79552 0.8543 0.0
C244 C 0.57178 0.82802 0.84233 0.0
C245 C 0.60933 0.81111 0.83152 0.0
C246 C 0.6416 0.85354 0.81881 0.0
C247 C 0.69429 0.86442 0.83252 0.0
C248 C 0.64126 0.84183 0.78961 0.0
C249 C 0.61541 0.89642 0.82349 0.0
C250 C 0.57542 0.88107 0.83723 0.0
C251 C 0.54374 0.91321 0.84234 0.0
C252 C 0.5526 0.96201 0.83265 0.0
C253 C 0.59285 0.97827 0.81802 0.0
C254 C 0.62528 0.94514 0.81414 0.0
H255 H 0.96289 0.5693 0.13703 0.0
H256 H 0.94805 0.41656 0.16379 0.0
H257 H 0.85869 0.41062 0.16394 0.0
H258 H 0.86763 0.60614 0.17302 0.0
H259 H 0.84527 0.64172 0.14693 0.0
H260 H 0.90884 0.63552 0.15045 0.0
H261 H 0.89952 0.59932 0.10328 0.0
H262 H 0.83612 0.60582 0.09959 0.0
H263 H 0.85157 0.54542 0.09351 0.0
H264 H 0.76785 0.42023 0.16001 0.0
H265 H 0.68614 0.44219 0.1484 0.0
H266 H 0.7586 0.58773 0.12369 0.0
C267 C 0.94101 0.53476 0.14318 0.0
C268 C 0.96354 0.49352 0.1506 0.0
C269 C 0.93261 0.44889 0.15806 0.0
C270 C 0.88139 0.44515 0.1583 0.0
C271 C 0.86043 0.48622 0.15088 0.0
C272 C 0.88931 0.53011 0.14325 0.0
C273 C 0.85713 0.5677 0.13475 0.0
C274 C 0.87053 0.61561 0.15234 0.0
C275 C 0.86134 0.58029 0.10608 0.0
C276 C 0.80587 0.53808 0.13858 0.0
C277 C 0.8085 0.49133 0.1482 0.0
C278 C 0.76563 0.45695 0.15259 0.0
C279 C 0.71911 0.46992 0.1462 0.0
C280 C 0.71521 0.51681 0.13524 0.0
C281 C 0.75977 0.55158 0.13213 0.0
H282 H 0.37555 0.82741 0.47429 0.0
H283 H 0.29412 0.85879 0.53781 0.0
H284 H 0.23385 0.77948 0.52692 0.0
H285 H 0.27338 0.77677 0.42996 0.0
H286 H 0.30157 0.72923 0.41639 0.0
H287 H 0.33935 0.78703 0.4301 0.0
H288 H 0.389 0.73634 0.46098 0.0
H289 H 0.35136 0.6783 0.44732 0.0
H290 H 0.35698 0.69131 0.48183 0.0
H291 H 0.18041 0.69803 0.50758 0.0
H292 H 0.13744 0.62308 0.48069 0.0
H293 H 0.25649 0.64445 0.43131 0.0
C294 C 0.34558 0.81727 0.48624 0.0
C295 C 0.33966 0.84933 0.50695 0.0
C296 C 0.29916 0.83511 0.52168 0.0
C297 C 0.26497 0.78994 0.51578 0.0
C298 C 0.27194 0.7593 0.49518 0.0
C299 C 0.31133 0.7724 0.48069 0.0
C300 C 0.30965 0.73407 0.45894 0.0
C301 C 0.30574 0.75823 0.43228 0.0
C302 C 0.3544 0.70849 0.46249 0.0
C303 C 0.26266 0.69775 0.46313 0.0
C304 C 0.24153 0.71262 0.48422 0.0
C305 C 0.19688 0.68579 0.49118 0.0
C306 C 0.17287 0.64315 0.47588 0.0
C307 C 0.1935 0.62802 0.45386 0.0
C308 C 0.23946 0.65532 0.44784 0.0
H309 H 0.62984 0.41249 0.82543 0.0
H310 H 0.48514 0.39012 0.85277 0.0
H311 H 0.47893 0.29765 0.84958 0.0
H312 H 0.5992 0.30773 0.77793 0.0
H313 H 0.66172 0.29846 0.78303 0.0
H314 H 0.64787 0.35994 0.78835 0.0
H315 H 0.6955 0.35671 0.83606 0.0
H316 H 0.70174 0.29268 0.82959 0.0
H317 H 0.67087 0.30732 0.85675 0.0
H318 H 0.48852 0.20607 0.84169 0.0
H319 H 0.51053 0.12639 0.82712 0.0
H320 H 0.64777 0.2111 0.80437 0.0
C321 C 0.59709 0.38823 0.83112 0.0
C322 C 0.55822 0.40855 0.83961 0.0
C323 C 0.5155 0.37537 0.84627 0.0
C324 C 0.51171 0.32279 0.84461 0.0
C325 C 0.55076 0.30398 0.83602 0.0
C326 C 0.59235 0.33588 0.82919 0.0
C327 C 0.62781 0.30677 0.81892 0.0
C328 C 0.63468 0.31894 0.7904 0.0
C329 C 0.67695 0.31652 0.83632 0.0
C330 C 0.60013 0.25344 0.82107 0.0
C331 C 0.55579 0.25224 0.83111 0.0
C332 C 0.52332 0.20675 0.83393 0.0
C333 C 0.53618 0.16167 0.82574 0.0
C334 C 0.58081 0.1626 0.8146 0.0
C335 C 0.61334 0.20915 0.81275 0.0
H336 H 0.6242 0.91268 0.56788 0.0
H337 H 0.6337 0.90674 0.48497 0.0
H338 H 0.62685 0.81389 0.48609 0.0
H339 H 0.69937 0.81802 0.58277 0.0
H340 H 0.66444 0.79321 0.60883 0.0
H341 H 0.66981 0.85852 0.60099 0.0
H342 H 0.5747 0.84676 0.59519 0.0
H343 H 0.56903 0.78137 0.60281 0.0
H344 H 0.53928 0.79862 0.57273 0.0
H345 H 0.61111 0.71953 0.49658 0.0
H346 H 0.59653 0.63544 0.51553 0.0
H347 H 0.61049 0.70677 0.59241 0.0
C348 C 0.62507 0.89173 0.55 0.0
C349 C 0.62908 0.91647 0.52629 0.0
C350 C 0.63072 0.88822 0.50331 0.0
C351 C 0.6267 0.83556 0.50379 0.0
C352 C 0.62243 0.81208 0.52755 0.0
C353 C 0.62271 0.83959 0.5503 0.0
C354 C 0.61928 0.806 0.57342 0.0
C355 C 0.66601 0.81975 0.59263 0.0
C356 C 0.57281 0.80834 0.58681 0.0
C357 C 0.61567 0.75504 0.56014 0.0
C358 C 0.61701 0.75899 0.53367 0.0
C359 C 0.61099 0.71622 0.51738 0.0
C360 C 0.60307 0.66837 0.52842 0.0
C361 C 0.60192 0.66338 0.55565 0.0
C362 C 0.60958 0.70799 0.57152 0.0
H363 H 0.85713 0.45881 0.76251 0.0
H364 H 0.73174 0.37838 0.79725 0.0
H365 H 0.77651 0.31256 0.81014 0.0
H366 H 0.91563 0.32812 0.75425 0.0
H367 H 0.97578 0.36792 0.76046 0.0
H368 H 0.92789 0.38922 0.74019 0.0
H369 H 0.94103 0.46974 0.76926 0.0
H370 H 0.98807 0.44897 0.78948 0.0
H371 H 0.93597 0.46438 0.80367 0.0
H372 H 0.83893 0.29444 0.8406 0.0
H373 H 0.90555 0.31898 0.87534 0.0
H374 H 1.00041 0.39091 0.81974 0.0
C375 C 0.83856 0.42534 0.77129 0.0
C376 C 0.79118 0.42371 0.77907 0.0
C377 C 0.76746 0.38003 0.79066 0.0
C378 C 0.79304 0.34235 0.79823 0.0
C379 C 0.84237 0.3485 0.79388 0.0
C380 C 0.86428 0.38733 0.77906 0.0
C381 C 0.91969 0.39171 0.78175 0.0
C382 C 0.93566 0.36779 0.75774 0.0
C383 C 0.9477 0.44691 0.7864 0.0
C384 C 0.92572 0.35955 0.80518 0.0
C385 C 0.8806 0.3325 0.81097 0.0
C386 C 0.87464 0.3134 0.83571 0.0
C387 C 0.91306 0.32749 0.8556 0.0
C388 C 0.95761 0.3588 0.85036 0.0
C389 C 0.96582 0.36849 0.82426 0.0
H390 H 0.33906 0.78022 0.20652 0.0
H391 H 0.31037 0.85636 0.13504 0.0
H392 H 0.38073 0.92515 0.14885 0.0
H393 H 0.37236 0.89322 0.24799 0.0
H394 H 0.41947 0.8702 0.26795 0.0
H395 H 0.36701 0.82651 0.25238 0.0
H396 H 0.4252 0.77879 0.23058 0.0
H397 H 0.47782 0.82231 0.24606 0.0
H398 H 0.4703 0.81286 0.21126 0.0
H399 H 0.45492 0.98514 0.16999 0.0
H400 H 0.52716 0.03288 0.19742 0.0
H401 H 0.50622 0.91964 0.25589 0.0
C402 C 0.34713 0.81157 0.19385 0.0
C403 C 0.3191 0.81252 0.16956 0.0
C404 C 0.33165 0.85409 0.15349 0.0
C405 C 0.37138 0.89363 0.16126 0.0
C406 C 0.39817 0.89136 0.18524 0.0
C407 C 0.38651 0.85154 0.20137 0.0
C408 C 0.42134 0.85832 0.22617 0.0
C409 C 0.39337 0.86231 0.25003 0.0
C410 C 0.45039 0.81553 0.22865 0.0
C411 C 0.45452 0.9081 0.22141 0.0
C412 C 0.44053 0.92642 0.19765 0.0
C413 C 0.46615 0.97122 0.18866 0.0
C414 C 0.50725 0.99794 0.20431 0.0
C415 C 0.52233 0.97993 0.22875 0.0
C416 C 0.49527 0.93455 0.23742 0.0
H417 H 0.56116 0.22549 0.54113 0.0
H418 H 0.71338 0.25275 0.52411 0.0
H419 H 0.7177 0.34452 0.52872 0.0
H420 H 0.52655 0.33402 0.50878 0.0
H421 H 0.4886 0.34614 0.53346 0.0
H422 H 0.49644 0.28282 0.52698 0.0
H423 H 0.52714 0.27554 0.5754 0.0
H424 H 0.51927 0.33872 0.58204 0.0
H425 H 0.57822 0.32186 0.59033 0.0
H426 H 0.70588 0.43422 0.53643 0.0
H427 H 0.68071 0.51283 0.54975 0.0
H428 H 0.53713 0.4266 0.5627 0.0
C429 C 0.59523 0.25074 0.53803 0.0
C430 C 0.63683 0.23176 0.53205 0.0
C431 C 0.68098 0.26624 0.52868 0.0
C432 C 0.68374 0.31853 0.53114 0.0
C433 C 0.64214 0.33597 0.53718 0.0
C434 C 0.59881 0.30304 0.54075 0.0
C435 C 0.56035 0.33124 0.54869 0.0
C436 C 0.51532 0.32306 0.52825 0.0
C437 C 0.54539 0.31593 0.57572 0.0
C438 C 0.58885 0.38511 0.54922 0.0
C439 C 0.63577 0.38721 0.54223 0.0
C440 C 0.66911 0.43297 0.54182 0.0
C441 C 0.65441 0.47751 0.54925 0.0
C442 C 0.60698 0.476 0.55726 0.0
C443 C 0.57372 0.42907 0.55678 0.0
H444 H 0.24442 0.61955 0.81786 0.0
H445 H 0.27973 0.71022 0.88901 0.0
H446 H 0.19211 0.69507 0.89585 0.0
H447 H 0.10165 0.63489 0.8055 0.0
H448 H 1.08679 0.56999 0.79404 0.0
H449 H 0.14299 0.61026 0.78647 0.0
H450 H 0.19199 0.54547 0.80587 0.0
H451 H 0.13698 0.50601 0.81398 0.0
H452 H 0.18668 0.52766 0.8391 0.0
H453 H 0.11502 0.64256 0.90527 0.0
H454 H 1.05719 0.56526 0.91425 0.0
H455 H 1.07287 0.50208 0.8389 0.0
C456 C 0.23305 0.63931 0.83376 0.0
C457 C 0.26852 0.66526 0.85309 0.0
C458 C 0.25293 0.68992 0.87403 0.0
C459 C 0.20302 0.68143 0.87802 0.0
C460 C 0.16933 0.64879 0.86071 0.0
C461 C 0.18349 0.62944 0.83831 0.0
C462 C 0.1447 0.58555 0.82652 0.0
C463 C 0.1174 0.60113 0.80167 0.0
C464 C 0.16643 0.53849 0.82116 0.0
C465 C 0.11133 0.57773 0.84804 0.0
C466 C 0.12407 0.61637 0.86672 0.0
C467 C 0.10376 0.61296 0.89038 0.0
C468 C 1.07156 0.56838 0.89555 0.0
C469 C 1.06091 0.52713 0.87739 0.0
C470 C 1.07926 0.5332 0.85293 0.0
H471 H 0.8956 0.25341 0.2237 0.0
H472 H 0.92473 0.1453 0.16747 0.0
H473 H 0.8491 0.08646 0.17626 0.0
H474 H 0.84581 0.16455 0.26942 0.0
H475 H 0.79935 0.1986 0.2772 0.0
H476 H 0.85628 0.23204 0.26681 0.0
H477 H 0.80775 0.27075 0.22971 0.0
H478 H 0.75066 0.23753 0.24003 0.0
H479 H 0.76397 0.22973 0.20702 0.0
H480 H 0.77005 0.03902 0.19126 0.0
H481 H 0.6937 1.00688 0.21135 0.0
H482 H 0.71403 0.14772 0.256 0.0
C483 C 0.886 0.21755 0.21306 0.0
C484 C 0.91657 0.20403 0.19499 0.0
C485 C 0.90266 0.15633 0.18178 0.0
C486 C 0.85948 0.12272 0.18648 0.0
C487 C 0.8303 0.13731 0.20437 0.0
C488 C 0.84289 0.18364 0.2174 0.0
C489 C 0.80494 0.19028 0.23553 0.0
C490 C 0.82798 0.19674 0.26392 0.0
C491 C 0.78038 0.2347 0.22759 0.0
C492 C 0.76916 0.14037 0.23072 0.0
C493 C 0.78443 0.11033 0.21269 0.0
C494 C 0.75759 0.06234 0.2053 0.0
C495 C 0.71405 0.04453 0.2167 0.0
C496 C 0.69762 0.07466 0.23527 0.0
C497 C 0.72572 0.12334 0.24217 0.0
H498 H 0.15154 0.45762 0.05949 0.0
H499 H 1.00467 0.43911 0.0835 0.0
H500 H 0.96926 0.40541 0.03951 0.0
H501 H 0.12142 0.50565 -0.0008 0.0
H502 H 0.16261 0.47673 0.98208 0.0
H503 H 0.17612 0.4909 0.01635 0.0
H504 H 0.18065 0.39739 0.024 0.0
H505 H 0.16637 0.38289 0.98968 0.0
H506 H 0.12888 0.34844 0.01249 0.0
H507 H 0.94977 0.38019 0.99254 0.0
H508 H 0.94661 0.37826 0.94464 0.0
H509 H 0.10582 0.41788 0.95043 0.0
C510 C 0.11203 0.4455 0.05544 0.0
C511 C 1.08054 0.45014 0.07459 0.0
C512 C 1.02903 0.43539 0.06882 0.0
C513 C 1.00876 0.41584 0.04406 0.0
C514 C 1.04067 0.41181 0.02537 0.0
C515 C 0.09118 0.42694 0.03064 0.0
C516 C 0.1168 0.42521 0.00629 0.0
C517 C 0.14592 0.47773 0.00065 0.0
C518 C 0.15015 0.38615 0.00824 0.0
C519 C 1.07276 0.40836 0.98639 0.0
C520 C 1.02929 0.3993 -0.00209 0.0
C521 C 0.98354 0.38647 0.9833 0.0
C522 C 0.98207 0.38508 0.95616 0.0
C523 C 1.02599 0.39743 0.94405 0.0
C524 C 1.07185 0.40749 0.95936 0.0
H525 H 0.57748 1.00819 0.43725 0.0
H526 H 0.64951 0.16517 0.44951 0.0
H527 H 0.64632 0.17521 0.40222 0.0
H528 H 0.64305 0.98408 0.38542 0.0
H529 H 0.59251 0.94213 0.36711 0.0
H530 H 0.59423 0.94823 0.40186 0.0
H531 H 0.50818 0.97192 0.39696 0.0
H532 H 0.50614 0.96577 0.36213 0.0
H533 H 0.498 0.02371 0.37704 0.0
H534 H 0.64148 0.16765 0.3545 0.0
H535 H 0.63759 0.14215 0.30839 0.0
H536 H 0.57129 0.98906 0.32577 0.0
C537 C 0.59144 0.04487 0.42987 0.0
C538 C 0.61337 0.08607 0.44697 0.0
C539 C 0.63252 0.13319 0.43672 0.0
C540 C 0.63067 0.13933 0.40989 0.0
C541 C 0.6098 0.09791 0.39351 0.0
C542 C 0.59056 0.05151 0.40298 0.0
C543 C 0.57414 0.01229 0.38097 0.0
C544 C 0.6027 0.96915 0.38403 0.0
C545 C 0.51829 0.99224 0.37917 0.0
C546 C 0.58815 0.04376 0.35781 0.0
C547 C 0.60805 0.09316 0.36559 0.0
C548 C 0.62571 0.12916 0.34811 0.0
C549 C 0.62363 0.11423 0.32199 0.0
C550 C 0.60442 0.06361 0.31352 0.0
C551 C 0.58568 0.02812 0.33165 0.0
H552 H 0.58543 0.51718 0.75452 0.0
H553 H 0.47013 0.60192 0.76204 0.0
H554 H 0.45699 0.6052 0.7141 0.0
H555 H 0.63783 0.58519 0.70436 0.0
H556 H 0.65262 0.53162 0.68813 0.0
H557 H 0.64892 0.53159 0.7226 0.0
H558 H 0.58442 0.4481 0.71724 0.0
H559 H 0.58784 0.44776 0.68267 0.0
H560 H 0.52929 0.44437 0.69529 0.0
H561 H 0.46179 0.60487 0.66524 0.0
H562 H 0.48399 0.60121 0.62022 0.0
H563 H 0.59675 0.51753 0.64584 0.0
C564 C 0.55681 0.53583 0.7462 0.0
C565 C 0.52868 0.55922 0.76207 0.0
C566 C 0.49195 0.58353 0.75027 0.0
C567 C 0.48423 0.58552 0.72307 0.0
C568 C 0.51332 0.56274 0.70804 0.0
C569 C 0.54871 0.53816 0.71926 0.0
C570 C 0.57727 0.51928 0.69914 0.0
C571 C 0.6324 0.54338 0.70384 0.0
C572 C 0.5692 0.46144 0.69856 0.0
C573 C 0.55319 0.53796 0.67476 0.0
C574 C 0.5161 0.56258 0.68018 0.0
C575 C 0.49041 0.58523 0.66078 0.0
C576 C 0.50341 0.58316 0.6353 0.0
C577 C 0.54187 0.55878 0.62948 0.0
C578 C 0.56644 0.5354 0.64952 0.0
H579 H 0.59069 0.11088 0.61334 0.0
H580 H 0.71725 0.04044 0.60953 0.0
H581 H 0.72676 0.03719 0.65729 0.0
H582 H 0.63751 0.187 0.67262 0.0
H583 H 0.57788 0.17839 0.68455 0.0
H584 H 0.58261 0.17777 0.6501 0.0
H585 H 0.5249 0.08986 0.64505 0.0
H586 H 0.51996 0.09021 0.67944 0.0
H587 H 0.54042 0.03896 0.66412 0.0
H588 H 0.71956 0.03677 0.70509 0.0
H589 H 0.69643 0.04011 0.74987 0.0
H590 H 0.57536 0.11165 0.72265 0.0
C591 C 0.6207 0.09518 0.62253 0.0
C592 C 0.65326 0.07596 0.60766 0.0
C593 C 0.6919 0.05552 0.62048 0.0
C594 C 0.69767 0.05355 0.64761 0.0
C595 C 0.66471 0.07246 0.66165 0.0
C596 C 0.62711 0.09308 0.64959 0.0
C597 C 0.59569 0.10921 0.66914 0.0
C598 C 0.59862 0.1665 0.66909 0.0
C599 C 0.54208 0.08032 0.66413 0.0
C600 C 0.62102 0.09366 0.69404 0.0
C601 C 0.66086 0.07271 0.6893 0.0
C602 C 0.68872 0.0535 0.70909 0.0
C603 C 0.67523 0.05537 0.73439 0.0
C604 C 0.63432 0.07634 0.73965 0.0
C605 C 0.6073 0.09621 0.71922 0.0
H606 H 0.54845 0.51881 0.92959 0.0
H607 H 0.67793 0.6333 0.9202 0.0
H608 H 0.69553 0.6434 0.96794 0.0
H609 H 0.51168 0.57666 0.98532 0.0
H610 H 0.4918 0.51779 0.00058 0.0
H611 H 0.48914 0.51977 0.96571 0.0
H612 H 0.54239 0.45138 0.96503 0.0
H613 H 0.54478 0.44881 -0.00016 0.0
H614 H 0.60104 0.46124 0.98448 0.0
H615 H 0.69879 0.64094 0.01676 0.0
H616 H 0.69036 0.62272 0.06289 0.0
H617 H 0.55922 0.50913 0.04017 0.0
C618 C 0.58061 0.546 0.9375 0.0
C619 C 0.61183 0.57531 0.92109 0.0
C620 C 0.65354 0.61033 0.93233 0.0
C621 C 0.66371 0.61649 0.95943 0.0
C622 C 0.63184 0.58734 0.975 0.0
C623 C 0.59132 0.55256 0.96443 0.0
C624 C 0.56342 0.52514 0.9854 0.0
C625 C 0.5109 0.53548 0.98417 0.0
C626 C 0.56291 0.46828 0.98358 0.0
C627 C 0.59473 0.54971 0.00948 0.0
C628 C 0.63385 0.58571 0.00306 0.0
C629 C 0.66833 0.61281 0.02199 0.0
C630 C 0.66328 0.60212 0.04812 0.0
C631 C 0.62416 0.56448 0.05514 0.0
C632 C 0.58908 0.53859 0.03548 0.0
H633 H 0.12671 0.45943 0.24373 0.0
H634 H 0.14253 0.61582 0.22266 0.0
H635 H 0.14502 0.64137 0.26892 0.0
H636 H 1.05113 0.46315 0.2953 0.0
H637 H 1.08115 0.42256 0.31576 0.0
H638 H 1.07953 0.41652 0.28099 0.0
H639 H 0.17472 0.42929 0.28496 0.0
H640 H 0.1766 0.43498 0.31975 0.0
H641 H 0.21135 0.48437 0.30223 0.0
H642 H 0.14053 0.64876 0.31715 0.0
H643 H 0.1387 0.63916 0.36425 0.0
H644 H 0.13586 0.47889 0.35397 0.0
C645 C 0.13063 0.49902 0.2489 0.0
C646 C 0.13406 0.53571 0.22976 0.0
C647 C 0.13993 0.58723 0.23716 0.0
C648 C 0.14115 0.60203 0.26331 0.0
C649 C 0.13739 0.56487 0.28176 0.0
C650 C 0.13311 0.51454 0.27494 0.0
C651 C 0.13183 0.48236 0.29859 0.0
C652 C 1.083 0.44388 0.29759 0.0
C653 C 0.17628 0.45623 0.30155 0.0
C654 C 0.13543 0.52238 0.31976 0.0
C655 C 0.13799 0.56959 0.30965 0.0
C656 C 0.13948 0.61209 0.32537 0.0
C657 C 0.13886 0.60623 0.3522 0.0
C658 C 0.13775 0.55832 0.36318 0.0
C659 C 0.13608 0.51602 0.3465 0.0
loop_
_geom_bond_atom_site_label_1
_geom_bond_atom_site_label_2
_geom_bond_distance
_geom_bond_site_symmetry_2
_ccdc_geom_bond_type
Dy0 O3 2.307 1_455 S
Dy0 O5 2.395 . S
Dy0 O6 2.379 . S
Dy0 O8 2.339 . S
Dy0 O10 2.298 . S
Dy0 O14 2.275 . S
Dy0 C22 2.738 . S
Dy1 O4 2.298 . S
Dy1 O7 2.274 1_655 S
Dy1 O9 2.307 1_655 S
Dy1 O11 2.395 . S
Dy1 O12 2.379 . S
Dy1 O15 2.339 . S
Dy1 C31 2.738 . S
C2 O14 1.254 . S
C2 O15 1.257 1_455 S
O3 Dy0 2.307 1_655 S
O3 C13 1.266 . S
O4 Dy1 2.298 . S
O4 C13 1.236 . S
O5 Dy0 2.395 . S
O5 C22 1.255 . S
O6 Dy0 2.379 . S
O6 C22 1.249 . S
O7 Dy1 2.274 1_455 S
O7 C23 1.254 . S
O8 Dy0 2.339 . S
O8 C23 1.257 . S
O9 Dy1 2.307 1_455 S
O9 C24 1.266 . S
O10 Dy0 2.298 . S
O10 C24 1.236 . S
O11 Dy1 2.395 . S
O11 C31 1.255 . S
O12 Dy1 2.379 . S
O12 C31 1.249 . S
C13 O3 1.266 . S
C13 O4 1.236 . S
O14 Dy0 2.275 . S
O14 C2 1.254 . S
O15 Dy1 2.339 . S
O15 C2 1.257 1_655 S
C16 C19 1.344 . S
C16 C20 1.328 . S
C16 C22 1.516 . S
C17 C18 1.304 . S
C17 C21 1.323 . S
C18 C17 1.304 . S
C18 C19 1.371 . S
C18 H32 0.930 . S
C19 C16 1.344 . S
C19 C18 1.371 . S
C19 H33 0.931 . S
C20 C16 1.328 . S
C20 C21 1.433 . S
C20 H34 0.931 . S
C21 C17 1.323 . S
C21 C20 1.433 . S
C21 H35 0.933 . S
C22 Dy0 2.738 . S
C22 O5 1.255 . S
C22 O6 1.249 . S
C22 C16 1.516 . S
C23 O7 1.254 . S
C23 O8 1.257 . S
C24 O9 1.266 . S
C24 O10 1.236 . S
C25 C28 1.344 . S
C25 C29 1.328 . S
C25 C31 1.516 . S
C26 C27 1.304 . S
C26 C30 1.323 . S
C27 C26 1.304 . S
C27 C28 1.371 . S
C27 H36 0.930 . S
C28 C25 1.344 . S
C28 C27 1.371 . S
C28 H37 0.931 . S
C29 C25 1.328 . S
C29 C30 1.433 . S
C29 H38 0.931 . S
C30 C26 1.323 . S
C30 C29 1.433 . S
C30 H39 0.933 . S
C31 Dy1 2.738 . S
C31 O11 1.255 . S
C31 O12 1.249 . S
C31 C25 1.516 . S
H32 C18 0.930 . S
H33 C19 0.931 . S
H34 C20 0.931 . S
H35 C21 0.933 . S
H36 C27 0.930 . S
H37 C28 0.931 . S
H38 C29 0.931 . S
H39 C30 0.933 . S
Dy40 O43 2.307 1_565 S
Dy40 O45 2.395 . S
Dy40 O46 2.379 . S
Dy40 O48 2.339 1_565 S
Dy40 O50 2.298 . S
Dy40 O54 2.275 1_565 S
Dy40 C62 2.738 . S
Dy41 O44 2.298 . S
Dy41 O47 2.275 . S
Dy41 O49 2.307 1_545 S
Dy41 O51 2.395 . S
Dy41 O52 2.379 . S
Dy41 O55 2.339 . S
Dy41 C71 2.738 . S
C42 O54 1.254 . S
C42 O55 1.257 . S
O43 Dy40 2.307 1_545 S
O43 C53 1.266 . S
O44 Dy41 2.298 . S
O44 C53 1.236 . S
O45 Dy40 2.395 . S
O45 C62 1.255 . S
O46 Dy40 2.379 . S
O46 C62 1.249 . S
O47 Dy41 2.275 . S
O47 C63 1.254 . S
O48 Dy40 2.339 1_545 S
O48 C63 1.257 . S
O49 Dy41 2.307 1_565 S
O49 C64 1.266 . S
O50 Dy40 2.298 . S
O50 C64 1.236 . S
O51 Dy41 2.395 . S
O51 C71 1.255 . S
O52 Dy41 2.379 . S
O52 C71 1.249 . S
C53 O43 1.266 . S
C53 O44 1.236 . S
O54 Dy40 2.275 1_545 S
O54 C42 1.254 . S
O55 Dy41 2.339 . S
O55 C42 1.257 . S
C56 C59 1.344 . S
C56 C60 1.328 . S
C56 C62 1.516 . S
C57 C58 1.304 . S
C57 C61 1.323 . S
C58 C57 1.304 . S
C58 C59 1.371 . S
C58 H72 0.930 . S
C59 C56 1.344 . S
C59 C58 1.371 . S
C59 H73 0.931 . S
C60 C56 1.328 . S
C60 C61 1.433 . S
C60 H74 0.931 . S
C61 C57 1.323 . S
C61 C60 1.433 . S
C61 H75 0.933 . S
C62 Dy40 2.738 . S
C62 O45 1.255 . S
C62 O46 1.249 . S
C62 C56 1.516 . S
C63 O47 1.254 . S
C63 O48 1.257 . S
C64 O49 1.266 . S
C64 O50 1.236 . S
C65 C68 1.344 . S
C65 C69 1.328 . S
C65 C71 1.516 . S
C66 C67 1.304 . S
C66 C70 1.323 . S
C67 C66 1.304 . S
C67 C68 1.371 . S
C67 H76 0.930 . S
C68 C65 1.344 . S
C68 C67 1.371 . S
C68 H77 0.931 . S
C69 C65 1.328 . S
C69 C70 1.433 . S
C69 H78 0.931 . S
C70 C66 1.323 . S
C70 C69 1.433 . S
C70 H79 0.933 . S
C71 Dy41 2.738 . S
C71 O51 1.255 . S
C71 O52 1.249 . S
C71 C65 1.516 . S
H72 C58 0.930 . S
H73 C59 0.931 . S
H74 C60 0.931 . S
H75 C61 0.933 . S
H76 C67 0.930 . S
H77 C68 0.931 . S
H78 C69 0.931 . S
H79 C70 0.933 . S
Dy80 O83 2.307 . S
Dy80 O85 2.395 . S
Dy80 O86 2.379 . S
Dy80 O88 2.339 . S
Dy80 O90 2.298 . S
Dy80 O94 2.275 . S
Dy80 C102 2.738 . S
Dy81 O84 2.298 . S
Dy81 O87 2.275 . S
Dy81 O89 2.307 . S
Dy81 O91 2.395 . S
Dy81 O92 2.379 . S
Dy81 O95 2.339 . S
Dy81 C111 2.738 . S
C82 O94 1.254 . S
C82 O95 1.257 . S
O83 Dy80 2.307 . S
O83 C93 1.266 . S
O84 Dy81 2.298 . S
O84 C93 1.236 . S
O85 Dy80 2.395 . S
O85 C102 1.255 . S
O86 Dy80 2.379 . S
O86 C102 1.249 . S
O87 Dy81 2.275 . S
O87 C103 1.254 . S
O88 Dy80 2.339 . S
O88 C103 1.257 . S
O89 Dy81 2.307 . S
O89 C104 1.266 . S
O90 Dy80 2.298 . S
O90 C104 1.236 . S
O91 Dy81 2.395 . S
O91 C111 1.255 . S
O92 Dy81 2.379 . S
O92 C111 1.249 . S
C93 O83 1.266 . S
C93 O84 1.236 . S
O94 Dy80 2.275 . S
O94 C82 1.254 . S
O95 Dy81 2.339 . S
O95 C82 1.257 . S
C96 C99 1.344 . S
C96 C100 1.328 . S
C96 C102 1.516 . S
C97 C98 1.304 . S
C97 C101 1.323 . S
C98 C97 1.304 . S
C98 C99 1.371 . S
C98 H112 0.930 . S
C99 C96 1.344 . S
C99 C98 1.371 . S
C99 H113 0.931 . S
C100 C96 1.328 . S
C100 C101 1.433 . S
C100 H114 0.931 . S
C101 C97 1.323 . S
C101 C100 1.433 . S
C101 H115 0.933 . S
C102 Dy80 2.738 . S
C102 O85 1.255 . S
C102 O86 1.249 . S
C102 C96 1.516 . S
C103 O87 1.254 . S
C103 O88 1.257 . S
C104 O89 1.266 . S
C104 O90 1.236 . S
C105 C108 1.344 . S
C105 C109 1.328 . S
C105 C111 1.516 . S
C106 C107 1.304 . S
C106 C110 1.323 . S
C107 C106 1.304 . S
C107 C108 1.371 . S
C107 H116 0.930 . S
C108 C105 1.344 . S
C108 C107 1.371 . S
C108 H117 0.931 . S
C109 C105 1.328 . S
C109 C110 1.433 . S
C109 H118 0.931 . S
C110 C106 1.323 . S
C110 C109 1.433 . S
C110 H119 0.933 . S
C111 Dy81 2.738 . S
C111 O91 1.255 . S
C111 O92 1.249 . S
C111 C105 1.516 . S
H112 C98 0.930 . S
H113 C99 0.931 . S
H114 C100 0.931 . S
H115 C101 0.933 . S
H116 C107 0.930 . S
H117 C108 0.931 . S
H118 C109 0.931 . S
H119 C110 0.933 . S
H120 C123 0.931 1_565 S
H121 C126 0.928 . S
H122 C128 0.930 . S
C123 H120 0.931 1_545 S
C123 C124 1.413 . S
C123 C125 1.360 . S
C124 C123 1.413 . S
C124 C128 1.429 . S
C125 C123 1.360 . S
C125 C126 1.372 . S
C126 H121 0.928 . S
C126 C125 1.372 . S
C126 C127 1.404 . S
C127 C126 1.404 . S
C127 C128 1.391 . S
C128 H122 0.930 . S
C128 C124 1.429 . S
C128 C127 1.391 . S
H129 C132 0.931 . S
H130 C135 0.928 . S
H131 C137 0.930 . S
C132 H129 0.931 . S
C132 C133 1.413 . S
C132 C134 1.360 . S
C133 C132 1.413 . S
C133 C137 1.429 . S
C134 C132 1.360 . S
C134 C135 1.372 . S
C135 H130 0.928 . S
C135 C134 1.372 . S
C135 C136 1.404 . S
C136 C135 1.404 . S
C136 C137 1.391 . S
C137 H131 0.930 . S
C137 C133 1.429 . S
C137 C136 1.391 . S
H138 C141 0.931 . S
H139 C144 0.928 . S
H140 C146 0.930 . S
C141 H138 0.931 . S
C141 C142 1.413 . S
C141 C143 1.360 1_655 S
C142 C141 1.413 . S
C142 C146 1.429 1_655 S
C143 C141 1.360 1_455 S
C143 C144 1.372 . S
C144 H139 0.928 . S
C144 C143 1.372 . S
C144 C145 1.404 . S
C145 C144 1.404 . S
C145 C146 1.391 . S
C146 H140 0.930 . S
C146 C142 1.429 1_455 S
C146 C145 1.391 . S
H147 C150 0.931 . S
H148 C153 0.928 . S
H149 C155 0.930 . S
C150 H147 0.931 . S
C150 C151 1.413 . S
C150 C152 1.360 1_655 S
C151 C150 1.413 . S
C151 C155 1.429 1_655 S
C152 C150 1.360 1_455 S
C152 C153 1.372 . S
C153 H148 0.928 . S
C153 C152 1.372 . S
C153 C154 1.404 . S
C154 C153 1.404 . S
C154 C155 1.391 . S
C155 H149 0.930 . S
C155 C151 1.429 1_455 S
C155 C154 1.391 . S
H156 C159 0.931 . S
H157 C162 0.928 . S
H158 C164 0.930 . S
C159 H156 0.931 . S
C159 C160 1.413 . S
C159 C161 1.360 . S
C160 C159 1.413 . S
C160 C164 1.429 . S
C161 C159 1.360 . S
C161 C162 1.372 1_545 S
C162 H157 0.928 . S
C162 C161 1.372 1_565 S
C162 C163 1.404 . S
C163 C162 1.404 . S
C163 C164 1.391 1_565 S
C164 H158 0.930 . S
C164 C160 1.429 . S
C164 C163 1.391 1_545 S
H165 C168 0.931 . S
H166 C171 0.928 . S
H167 C173 0.930 . S
C168 H165 0.931 . S
C168 C169 1.413 . S
C168 C170 1.360 . S
C169 C168 1.413 . S
C169 C173 1.429 . S
C170 C168 1.360 . S
C170 C171 1.372 . S
C171 H166 0.928 . S
C171 C170 1.372 . S
C171 C172 1.404 . S
C172 C171 1.404 . S
C172 C173 1.391 . S
C173 H167 0.930 . S
C173 C169 1.429 . S
C173 C172 1.391 . S
H174 C186 0.930 . S
H175 C188 0.930 . S
H176 C189 0.930 . S
H177 C193 0.959 . S
H178 C193 0.959 . S
H179 C193 0.961 . S
H180 C194 0.960 . S
H181 C194 0.961 . S
H182 C194 0.959 . S
H183 C197 0.929 . S
H184 C198 0.931 . S
H185 C200 0.930 . S
C186 H174 0.930 . S
C186 C187 1.399 . S
C186 C191 1.399 . S
C187 C186 1.399 . S
C187 C188 1.376 . S
C188 H175 0.930 . S
C188 C187 1.376 . S
C188 C189 1.388 . S
C189 H176 0.930 . S
C189 C188 1.388 . S
C189 C190 1.390 . S
C190 C189 1.390 . S
C190 C191 1.394 . S
C190 C196 1.465 . S
C191 C186 1.399 . S
C191 C190 1.394 . S
C191 C192 1.516 . S
C192 C191 1.516 . S
C192 C193 1.502 . S
C192 C194 1.561 . S
C192 C195 1.526 . S
C193 H177 0.959 . S
C193 H178 0.959 . S
C193 H179 0.961 . S
C193 C192 1.502 . S
C194 H180 0.960 . S
C194 H181 0.961 . S
C194 H182 0.959 . S
C194 C192 1.561 . S
C195 C192 1.526 . S
C195 C196 1.396 . S
C195 C200 1.390 . S
C196 C190 1.465 . S
C196 C195 1.396 . S
C196 C197 1.399 . S
C197 H183 0.929 . S
C197 C196 1.399 . S
C197 C198 1.385 . S
C198 H184 0.931 . S
C198 C197 1.385 . S
C198 C199 1.389 . S
C199 C198 1.389 . S
C199 C200 1.387 . S
C200 H185 0.930 . S
C200 C195 1.390 . S
C200 C199 1.387 . S
H201 C213 0.930 . S
H202 C215 0.930 . S
H203 C216 0.930 . S
H204 C220 0.959 . S
H205 C220 0.959 . S
H206 C220 0.961 . S
H207 C221 0.960 . S
H208 C221 0.961 . S
H209 C221 0.959 . S
H210 C224 0.929 . S
H211 C225 0.931 . S
H212 C227 0.930 . S
C213 H201 0.930 . S
C213 C214 1.399 . S
C213 C218 1.399 . S
C214 C213 1.399 . S
C214 C215 1.376 . S
C215 H202 0.930 . S
C215 C214 1.376 . S
C215 C216 1.388 . S
C216 H203 0.930 . S
C216 C215 1.388 . S
C216 C217 1.390 . S
C217 C216 1.390 . S
C217 C218 1.394 . S
C217 C223 1.465 . S
C218 C213 1.399 . S
C218 C217 1.394 . S
C218 C219 1.516 . S
C219 C218 1.516 . S
C219 C220 1.502 . S
C219 C221 1.561 . S
C219 C222 1.526 . S
C220 H204 0.959 . S
C220 H205 0.959 . S
C220 H206 0.961 . S
C220 C219 1.502 . S
C221 H207 0.960 . S
C221 H208 0.961 . S
C221 H209 0.959 . S
C221 C219 1.561 . S
C222 C219 1.526 . S
C222 C223 1.396 . S
C222 C227 1.390 . S
C223 C217 1.465 . S
C223 C222 1.396 . S
C223 C224 1.399 . S
C224 H210 0.929 . S
C224 C223 1.399 . S
C224 C225 1.385 . S
C225 H211 0.931 . S
C225 C224 1.385 . S
C225 C226 1.389 . S
C226 C225 1.389 . S
C226 C227 1.387 . S
C227 H212 0.930 . S
C227 C222 1.390 . S
C227 C226 1.387 . S
H228 C240 0.930 . S
H229 C242 0.930 . S
H230 C243 0.930 . S
H231 C247 0.959 . S
H232 C247 0.959 . S
H233 C247 0.961 . S
H234 C248 0.960 . S
H235 C248 0.961 . S
H236 C248 0.959 . S
H237 C251 0.929 . S
H238 C252 0.931 . S
H239 C254 0.930 . S
C240 H228 0.930 . S
C240 C241 1.399 . S
C240 C245 1.399 . S
C241 C240 1.399 . S
C241 C242 1.376 . S
C242 H229 0.930 . S
C242 C241 1.376 . S
C242 C243 1.388 . S
C243 H230 0.930 . S
C243 C242 1.388 . S
C243 C244 1.390 . S
C244 C243 1.390 . S
C244 C245 1.394 . S
C244 C250 1.465 . S
C245 C240 1.399 . S
C245 C244 1.394 . S
C245 C246 1.516 . S
C246 C245 1.516 . S
C246 C247 1.502 . S
C246 C248 1.561 . S
C246 C249 1.526 . S
C247 H231 0.959 . S
C247 H232 0.959 . S
C247 H233 0.961 . S
C247 C246 1.502 . S
C248 H234 0.960 . S
C248 H235 0.961 . S
C248 H236 0.959 . S
C248 C246 1.561 . S
C249 C246 1.526 . S
C249 C250 1.396 . S
C249 C254 1.390 . S
C250 C244 1.465 . S
C250 C249 1.396 . S
C250 C251 1.399 . S
C251 H237 0.929 . S
C251 C250 1.399 . S
C251 C252 1.385 . S
C252 H238 0.931 . S
C252 C251 1.385 . S
C252 C253 1.389 . S
C253 C252 1.389 . S
C253 C254 1.387 . S
C254 H239 0.930 . S
C254 C249 1.390 . S
C254 C253 1.387 . S
H255 C267 0.930 . S
H256 C269 0.930 . S
H257 C270 0.930 . S
H258 C274 0.959 . S
H259 C274 0.959 . S
H260 C274 0.961 . S
H261 C275 0.960 . S
H262 C275 0.961 . S
H263 C275 0.959 . S
H264 C278 0.929 . S
H265 C279 0.931 . S
H266 C281 0.930 . S
C267 H255 0.930 . S
C267 C268 1.399 . S
C267 C272 1.399 . S
C268 C267 1.399 . S
C268 C269 1.376 . S
C269 H256 0.930 . S
C269 C268 1.376 . S
C269 C270 1.388 . S
C270 H257 0.930 . S
C270 C269 1.388 . S
C270 C271 1.390 . S
C271 C270 1.390 . S
C271 C272 1.394 . S
C271 C277 1.465 . S
C272 C267 1.399 . S
C272 C271 1.394 . S
C272 C273 1.516 . S
C273 C272 1.516 . S
C273 C274 1.502 . S
C273 C275 1.561 . S
C273 C276 1.526 . S
C274 H258 0.959 . S
C274 H259 0.959 . S
C274 H260 0.961 . S
C274 C273 1.502 . S
C275 H261 0.960 . S
C275 H262 0.961 . S
C275 H263 0.959 . S
C275 C273 1.561 . S
C276 C273 1.526 . S
C276 C277 1.396 . S
C276 C281 1.390 . S
C277 C271 1.465 . S
C277 C276 1.396 . S
C277 C278 1.399 . S
C278 H264 0.929 . S
C278 C277 1.399 . S
C278 C279 1.385 . S
C279 H265 0.931 . S
C279 C278 1.385 . S
C279 C280 1.389 . S
C280 C279 1.389 . S
C280 C281 1.387 . S
C281 H266 0.930 . S
C281 C276 1.390 . S
C281 C280 1.387 . S
H282 C294 0.930 . S
H283 C296 0.930 . S
H284 C297 0.930 . S
H285 C301 0.959 . S
H286 C301 0.959 . S
H287 C301 0.961 . S
H288 C302 0.960 . S
H289 C302 0.961 . S
H290 C302 0.959 . S
H291 C305 0.929 . S
H292 C306 0.931 . S
H293 C308 0.930 . S
C294 H282 0.930 . S
C294 C295 1.399 . S
C294 C299 1.399 . S
C295 C294 1.399 . S
C295 C296 1.376 . S
C296 H283 0.930 . S
C296 C295 1.376 . S
C296 C297 1.388 . S
C297 H284 0.930 . S
C297 C296 1.388 . S
C297 C298 1.390 . S
C298 C297 1.390 . S
C298 C299 1.394 . S
C298 C304 1.465 . S
C299 C294 1.399 . S
C299 C298 1.394 . S
C299 C300 1.516 . S
C300 C299 1.516 . S
C300 C301 1.502 . S
C300 C302 1.561 . S
C300 C303 1.526 . S
C301 H285 0.959 . S
C301 H286 0.959 . S
C301 H287 0.961 . S
C301 C300 1.502 . S
C302 H288 0.960 . S
C302 H289 0.961 . S
C302 H290 0.959 . S
C302 C300 1.561 . S
C303 C300 1.526 . S
C303 C304 1.396 . S
C303 C308 1.390 . S
C304 C298 1.465 . S
C304 C303 1.396 . S
C304 C305 1.399 . S
C305 H291 0.929 . S
C305 C304 1.399 . S
C305 C306 1.385 . S
C306 H292 0.931 . S
C306 C305 1.385 . S
C306 C307 1.389 . S
C307 C306 1.389 . S
C307 C308 1.387 . S
C308 H293 0.930 . S
C308 C303 1.390 . S
C308 C307 1.387 . S
H309 C321 0.930 . S
H310 C323 0.930 . S
H311 C324 0.930 . S
H312 C328 0.959 . S
H313 C328 0.959 . S
H314 C328 0.961 . S
H315 C329 0.960 . S
H316 C329 0.961 . S
H317 C329 0.959 . S
H318 C332 0.929 . S
H319 C333 0.931 . S
H320 C335 0.930 . S
C321 H309 0.930 . S
C321 C322 1.399 . S
C321 C326 1.399 . S
C322 C321 1.399 . S
C322 C323 1.376 . S
C323 H310 0.930 . S
C323 C322 1.376 . S
C323 C324 1.388 . S
C324 H311 0.930 . S
C324 C323 1.388 . S
C324 C325 1.390 . S
C325 C324 1.390 . S
C325 C326 1.394 . S
C325 C331 1.465 . S
C326 C321 1.399 . S
C326 C325 1.394 . S
C326 C327 1.516 . S
C327 C326 1.516 . S
C327 C328 1.502 . S
C327 C329 1.561 . S
C327 C330 1.526 . S
C328 H312 0.959 . S
C328 H313 0.959 . S
C328 H314 0.961 . S
C328 C327 1.502 . S
C329 H315 0.960 . S
C329 H316 0.961 . S
C329 H317 0.959 . S
C329 C327 1.561 . S
C330 C327 1.526 . S
C330 C331 1.396 . S
C330 C335 1.390 . S
C331 C325 1.465 . S
C331 C330 1.396 . S
C331 C332 1.399 . S
C332 H318 0.929 . S
C332 C331 1.399 . S
C332 C333 1.385 . S
C333 H319 0.931 . S
C333 C332 1.385 . S
C333 C334 1.389 . S
C334 C333 1.389 . S
C334 C335 1.387 . S
C335 H320 0.930 . S
C335 C330 1.390 . S
C335 C334 1.387 . S
H336 C348 0.930 . S
H337 C350 0.930 . S
H338 C351 0.930 . S
H339 C355 0.959 . S
H340 C355 0.959 . S
H341 C355 0.961 . S
H342 C356 0.960 . S
H343 C356 0.961 . S
H344 C356 0.959 . S
H345 C359 0.929 . S
H346 C360 0.931 . S
H347 C362 0.930 . S
C348 H336 0.930 . S
C348 C349 1.399 . S
C348 C353 1.399 . S
C349 C348 1.399 . S
C349 C350 1.376 . S
C350 H337 0.930 . S
C350 C349 1.376 . S
C350 C351 1.388 . S
C351 H338 0.930 . S
C351 C350 1.388 . S
C351 C352 1.390 . S
C352 C351 1.390 . S
C352 C353 1.394 . S
C352 C358 1.465 . S
C353 C348 1.399 . S
C353 C352 1.394 . S
C353 C354 1.516 . S
C354 C353 1.516 . S
C354 C355 1.502 . S
C354 C356 1.561 . S
C354 C357 1.526 . S
C355 H339 0.959 . S
C355 H340 0.959 . S
C355 H341 0.961 . S
C355 C354 1.502 . S
C356 H342 0.960 . S
C356 H343 0.961 . S
C356 H344 0.959 . S
C356 C354 1.561 . S
C357 C354 1.526 . S
C357 C358 1.396 . S
C357 C362 1.390 . S
C358 C352 1.465 . S
C358 C357 1.396 . S
C358 C359 1.399 . S
C359 H345 0.929 . S
C359 C358 1.399 . S
C359 C360 1.385 . S
C360 H346 0.931 . S
C360 C359 1.385 . S
C360 C361 1.389 . S
C361 C360 1.389 . S
C361 C362 1.387 . S
C362 H347 0.930 . S
C362 C357 1.390 . S
C362 C361 1.387 . S
H363 C375 0.930 . S
H364 C377 0.930 . S
H365 C378 0.930 . S
H366 C382 0.959 . S
H367 C382 0.959 . S
H368 C382 0.961 . S
H369 C383 0.960 . S
H370 C383 0.961 . S
H371 C383 0.959 . S
H372 C386 0.929 . S
H373 C387 0.931 . S
H374 C389 0.930 . S
C375 H363 0.930 . S
C375 C376 1.399 . S
C375 C380 1.399 . S
C376 C375 1.399 . S
C376 C377 1.376 . S
C377 H364 0.930 . S
C377 C376 1.376 . S
C377 C378 1.388 . S
C378 H365 0.930 . S
C378 C377 1.388 . S
C378 C379 1.390 . S
C379 C378 1.390 . S
C379 C380 1.394 . S
C379 C385 1.465 . S
C380 C375 1.399 . S
C380 C379 1.394 . S
C380 C381 1.516 . S
C381 C380 1.516 . S
C381 C382 1.502 . S
C381 C383 1.561 . S
C381 C384 1.526 . S
C382 H366 0.959 . S
C382 H367 0.959 . S
C382 H368 0.961 . S
C382 C381 1.502 . S
C383 H369 0.960 . S
C383 H370 0.961 . S
C383 H371 0.959 . S
C383 C381 1.561 . S
C384 C381 1.526 . S
C384 C385 1.396 . S
C384 C389 1.390 . S
C385 C379 1.465 . S
C385 C384 1.396 . S
C385 C386 1.399 . S
C386 H372 0.929 . S
C386 C385 1.399 . S
C386 C387 1.385 . S
C387 H373 0.931 . S
C387 C386 1.385 . S
C387 C388 1.389 . S
C388 C387 1.389 . S
C388 C389 1.387 . S
C389 H374 0.930 . S
C389 C384 1.390 . S
C389 C388 1.387 . S
H390 C402 0.930 . S
H391 C404 0.930 . S
H392 C405 0.930 . S
H393 C409 0.959 . S
H394 C409 0.959 . S
H395 C409 0.961 . S
H396 C410 0.960 . S
H397 C410 0.961 . S
H398 C410 0.959 . S
H399 C413 0.929 . S
H400 C414 0.931 1_545 S
H401 C416 0.930 . S
C402 H390 0.930 . S
C402 C403 1.399 . S
C402 C407 1.399 . S
C403 C402 1.399 . S
C403 C404 1.376 . S
C404 H391 0.930 . S
C404 C403 1.376 . S
C404 C405 1.388 . S
C405 H392 0.930 . S
C405 C404 1.388 . S
C405 C406 1.390 . S
C406 C405 1.390 . S
C406 C407 1.394 . S
C406 C412 1.465 . S
C407 C402 1.399 . S
C407 C406 1.394 . S
C407 C408 1.516 . S
C408 C407 1.516 . S
C408 C409 1.502 . S
C408 C410 1.561 . S
C408 C411 1.526 . S
C409 H393 0.959 . S
C409 H394 0.959 . S
C409 H395 0.961 . S
C409 C408 1.502 . S
C410 H396 0.960 . S
C410 H397 0.961 . S
C410 H398 0.959 . S
C410 C408 1.561 . S
C411 C408 1.526 . S
C411 C412 1.396 . S
C411 C416 1.390 . S
C412 C406 1.465 . S
C412 C411 1.396 . S
C412 C413 1.399 . S
C413 H399 0.929 . S
C413 C412 1.399 . S
C413 C414 1.385 . S
C414 H400 0.931 1_565 S
C414 C413 1.385 . S
C414 C415 1.389 . S
C415 C414 1.389 . S
C415 C416 1.387 . S
C416 H401 0.930 . S
C416 C411 1.390 . S
C416 C415 1.387 . S
H417 C429 0.930 . S
H418 C431 0.930 . S
H419 C432 0.930 . S
H420 C436 0.959 . S
H421 C436 0.959 . S
H422 C436 0.961 . S
H423 C437 0.960 . S
H424 C437 0.961 . S
H425 C437 0.959 . S
H426 C440 0.929 . S
H427 C441 0.931 . S
H428 C443 0.930 . S
C429 H417 0.930 . S
C429 C430 1.399 . S
C429 C434 1.399 . S
C430 C429 1.399 . S
C430 C431 1.376 . S
C431 H418 0.930 . S
C431 C430 1.376 . S
C431 C432 1.388 . S
C432 H419 0.930 . S
C432 C431 1.388 . S
C432 C433 1.390 . S
C433 C432 1.390 . S
C433 C434 1.394 . S
C433 C439 1.465 . S
C434 C429 1.399 . S
C434 C433 1.394 . S
C434 C435 1.516 . S
C435 C434 1.516 . S
C435 C436 1.502 . S
C435 C437 1.561 . S
C435 C438 1.526 . S
C436 H420 0.959 . S
C436 H421 0.959 . S
C436 H422 0.961 . S
C436 C435 1.502 . S
C437 H423 0.960 . S
C437 H424 0.961 . S
C437 H425 0.959 . S
C437 C435 1.561 . S
C438 C435 1.526 . S
C438 C439 1.396 . S
C438 C443 1.390 . S
C439 C433 1.465 . S
C439 C438 1.396 . S
C439 C440 1.399 . S
C440 H426 0.929 . S
C440 C439 1.399 . S
C440 C441 1.385 . S
C441 H427 0.931 . S
C441 C440 1.385 . S
C441 C442 1.389 . S
C442 C441 1.389 . S
C442 C443 1.387 . S
C443 H428 0.930 . S
C443 C438 1.390 . S
C443 C442 1.387 . S
H444 C456 0.930 . S
H445 C458 0.930 . S
H446 C459 0.930 . S
H447 C463 0.959 . S
H448 C463 0.959 . S
H449 C463 0.961 . S
H450 C464 0.960 . S
H451 C464 0.961 . S
H452 C464 0.959 . S
H453 C467 0.929 . S
H454 C468 0.931 . S
H455 C470 0.930 . S
C456 H444 0.930 . S
C456 C457 1.399 . S
C456 C461 1.399 . S
C457 C456 1.399 . S
C457 C458 1.376 . S
C458 H445 0.930 . S
C458 C457 1.376 . S
C458 C459 1.388 . S
C459 H446 0.930 . S
C459 C458 1.388 . S
C459 C460 1.390 . S
C460 C459 1.390 . S
C460 C461 1.394 . S
C460 C466 1.465 . S
C461 C456 1.399 . S
C461 C460 1.394 . S
C461 C462 1.516 . S
C462 C461 1.516 . S
C462 C463 1.502 . S
C462 C464 1.561 . S
C462 C465 1.526 . S
C463 H447 0.959 . S
C463 H448 0.959 . S
C463 H449 0.961 . S
C463 C462 1.502 . S
C464 H450 0.960 . S
C464 H451 0.961 . S
C464 H452 0.959 . S
C464 C462 1.561 . S
C465 C462 1.526 . S
C465 C466 1.396 . S
C465 C470 1.390 . S
C466 C460 1.465 . S
C466 C465 1.396 . S
C466 C467 1.399 . S
C467 H453 0.929 . S
C467 C466 1.399 . S
C467 C468 1.385 . S
C468 H454 0.931 . S
C468 C467 1.385 . S
C468 C469 1.389 . S
C469 C468 1.389 . S
C469 C470 1.387 . S
C470 H455 0.930 . S
C470 C465 1.390 . S
C470 C469 1.387 . S
H471 C483 0.930 . S
H472 C485 0.930 . S
H473 C486 0.930 . S
H474 C490 0.959 . S
H475 C490 0.959 . S
H476 C490 0.961 . S
H477 C491 0.960 . S
H478 C491 0.961 . S
H479 C491 0.959 . S
H480 C494 0.929 . S
H481 C495 0.931 . S
H482 C497 0.930 . S
C483 H471 0.930 . S
C483 C484 1.399 . S
C483 C488 1.399 . S
C484 C483 1.399 . S
C484 C485 1.376 . S
C485 H472 0.930 . S
C485 C484 1.376 . S
C485 C486 1.388 . S
C486 H473 0.930 . S
C486 C485 1.388 . S
C486 C487 1.390 . S
C487 C486 1.390 . S
C487 C488 1.394 . S
C487 C493 1.465 . S
C488 C483 1.399 . S
C488 C487 1.394 . S
C488 C489 1.516 . S
C489 C488 1.516 . S
C489 C490 1.502 . S
C489 C491 1.561 . S
C489 C492 1.526 . S
C490 H474 0.959 . S
C490 H475 0.959 . S
C490 H476 0.961 . S
C490 C489 1.502 . S
C491 H477 0.960 . S
C491 H478 0.961 . S
C491 H479 0.959 . S
C491 C489 1.561 . S
C492 C489 1.526 . S
C492 C493 1.396 . S
C492 C497 1.390 . S
C493 C487 1.465 . S
C493 C492 1.396 . S
C493 C494 1.399 . S
C494 H480 0.929 . S
C494 C493 1.399 . S
C494 C495 1.385 . S
C495 H481 0.931 . S
C495 C494 1.385 . S
C495 C496 1.389 . S
C496 C495 1.389 . S
C496 C497 1.387 . S
C497 H482 0.930 . S
C497 C492 1.390 . S
C497 C496 1.387 . S
H498 C510 0.930 . S
H499 C512 0.930 . S
H500 C513 0.930 . S
H501 C517 0.959 . S
H502 C517 0.959 . S
H503 C517 0.961 . S
H504 C518 0.960 . S
H505 C518 0.961 . S
H506 C518 0.959 . S
H507 C521 0.929 1_554 S
H508 C522 0.931 . S
H509 C524 0.930 . S
C510 H498 0.930 . S
C510 C511 1.399 . S
C510 C515 1.399 . S
C511 C510 1.399 . S
C511 C512 1.376 . S
C512 H499 0.930 . S
C512 C511 1.376 . S
C512 C513 1.388 . S
C513 H500 0.930 . S
C513 C512 1.388 . S
C513 C514 1.390 . S
C514 C513 1.390 . S
C514 C515 1.394 . S
C514 C520 1.465 . S
C515 C510 1.399 . S
C515 C514 1.394 . S
C515 C516 1.516 . S
C516 C515 1.516 . S
C516 C517 1.502 . S
C516 C518 1.561 1_455 S
C516 C519 1.526 . S
C517 H501 0.959 . S
C517 H502 0.959 . S
C517 H503 0.961 . S
C517 C516 1.502 . S
C518 H504 0.960 . S
C518 H505 0.961 . S
C518 H506 0.959 . S
C518 C516 1.561 1_655 S
C519 C516 1.526 . S
C519 C520 1.396 . S
C519 C524 1.390 1_554 S
C520 C514 1.465 . S
C520 C519 1.396 . S
C520 C521 1.399 1_554 S
C521 H507 0.929 1_556 S
C521 C520 1.399 1_556 S
C521 C522 1.385 . S
C522 H508 0.931 . S
C522 C521 1.385 . S
C522 C523 1.389 . S
C523 C522 1.389 . S
C523 C524 1.387 . S
C524 H509 0.930 . S
C524 C519 1.390 1_556 S
C524 C523 1.387 . S
H525 C537 0.930 1_565 S
H526 C539 0.930 . S
H527 C540 0.930 . S
H528 C544 0.959 . S
H529 C544 0.959 . S
H530 C544 0.961 . S
H531 C545 0.960 . S
H532 C545 0.961 . S
H533 C545 0.959 . S
H534 C548 0.929 . S
H535 C549 0.931 . S
H536 C551 0.930 1_565 S
C537 H525 0.930 1_545 S
C537 C538 1.399 . S
C537 C542 1.399 . S
C538 C537 1.399 . S
C538 C539 1.376 . S
C539 H526 0.930 . S
C539 C538 1.376 . S
C539 C540 1.388 . S
C540 H527 0.930 . S
C540 C539 1.388 . S
C540 C541 1.390 . S
C541 C540 1.390 . S
C541 C542 1.394 . S
C541 C547 1.465 . S
C542 C537 1.399 . S
C542 C541 1.394 . S
C542 C543 1.516 1_545 S
C543 C542 1.516 1_565 S
C543 C544 1.502 . S
C543 C545 1.561 . S
C543 C546 1.526 1_565 S
C544 H528 0.959 . S
C544 H529 0.959 . S
C544 H530 0.961 . S
C544 C543 1.502 . S
C545 H531 0.960 . S
C545 H532 0.961 . S
C545 H533 0.959 . S
C545 C543 1.561 . S
C546 C543 1.526 1_545 S
C546 C547 1.396 . S
C546 C551 1.390 . S
C547 C541 1.465 . S
C547 C546 1.396 . S
C547 C548 1.399 . S
C548 H534 0.929 . S
C548 C547 1.399 . S
C548 C549 1.385 . S
C549 H535 0.931 . S
C549 C548 1.385 . S
C549 C550 1.389 . S
C550 C549 1.389 . S
C550 C551 1.387 . S
C551 H536 0.930 1_545 S
C551 C546 1.390 . S
C551 C550 1.387 . S
H552 C564 0.930 . S
H553 C566 0.930 . S
H554 C567 0.930 . S
H555 C571 0.959 . S
H556 C571 0.959 . S
H557 C571 0.961 . S
H558 C572 0.960 . S
H559 C572 0.961 . S
H560 C572 0.959 . S
H561 C575 0.929 . S
H562 C576 0.931 . S
H563 C578 0.930 . S
C564 H552 0.930 . S
C564 C565 1.399 . S
C564 C569 1.399 . S
C565 C564 1.399 . S
C565 C566 1.376 . S
C566 H553 0.930 . S
C566 C565 1.376 . S
C566 C567 1.388 . S
C567 H554 0.930 . S
C567 C566 1.388 . S
C567 C568 1.390 . S
C568 C567 1.390 . S
C568 C569 1.394 . S
C568 C574 1.465 . S
C569 C564 1.399 . S
C569 C568 1.394 . S
C569 C570 1.516 . S
C570 C569 1.516 . S
C570 C571 1.502 . S
C570 C572 1.561 . S
C570 C573 1.526 . S
C571 H555 0.959 . S
C571 H556 0.959 . S
C571 H557 0.961 . S
C571 C570 1.502 . S
C572 H558 0.960 . S
C572 H559 0.961 . S
C572 H560 0.959 . S
C572 C570 1.561 . S
C573 C570 1.526 . S
C573 C574 1.396 . S
C573 C578 1.390 . S
C574 C568 1.465 . S
C574 C573 1.396 . S
C574 C575 1.399 . S
C575 H561 0.929 . S
C575 C574 1.399 . S
C575 C576 1.385 . S
C576 H562 0.931 . S
C576 C575 1.385 . S
C576 C577 1.389 . S
C577 C576 1.389 . S
C577 C578 1.387 . S
C578 H563 0.930 . S
C578 C573 1.390 . S
C578 C577 1.387 . S
H579 C591 0.930 . S
H580 C593 0.930 . S
H581 C594 0.930 . S
H582 C598 0.959 . S
H583 C598 0.959 . S
H584 C598 0.961 . S
H585 C599 0.960 . S
H586 C599 0.961 . S
H587 C599 0.959 . S
H588 C602 0.929 . S
H589 C603 0.931 . S
H590 C605 0.930 . S
C591 H579 0.930 . S
C591 C592 1.399 1_565 S
C591 C596 1.399 . S
C592 C591 1.399 1_545 S
C592 C593 1.376 . S
C593 H580 0.930 . S
C593 C592 1.376 . S
C593 C594 1.388 . S
C594 H581 0.930 . S
C594 C593 1.388 . S
C594 C595 1.390 . S
C595 C594 1.390 . S
C595 C596 1.394 1_545 S
C595 C601 1.465 . S
C596 C591 1.399 . S
C596 C595 1.394 1_565 S
C596 C597 1.516 . S
C597 C596 1.516 . S
C597 C598 1.502 . S
C597 C599 1.561 . S
C597 C600 1.526 . S
C598 H582 0.959 . S
C598 H583 0.959 . S
C598 H584 0.961 . S
C598 C597 1.502 . S
C599 H585 0.960 . S
C599 H586 0.961 . S
C599 H587 0.959 . S
C599 C597 1.561 . S
C600 C597 1.526 . S
C600 C601 1.396 1_565 S
C600 C605 1.390 . S
C601 C595 1.465 . S
C601 C600 1.396 1_545 S
C601 C602 1.399 . S
C602 H588 0.929 . S
C602 C601 1.399 . S
C602 C603 1.385 . S
C603 H589 0.931 . S
C603 C602 1.385 . S
C603 C604 1.389 . S
C604 C603 1.389 . S
C604 C605 1.387 1_545 S
C605 H590 0.930 . S
C605 C600 1.390 . S
C605 C604 1.387 1_565 S
H606 C618 0.930 . S
H607 C620 0.930 . S
H608 C621 0.930 . S
H609 C625 0.959 . S
H610 C625 0.959 . S
H611 C625 0.961 . S
H612 C626 0.960 . S
H613 C626 0.961 . S
H614 C626 0.959 . S
H615 C629 0.929 . S
H616 C630 0.931 . S
H617 C632 0.930 . S
C618 H606 0.930 . S
C618 C619 1.399 . S
C618 C623 1.399 . S
C619 C618 1.399 . S
C619 C620 1.376 . S
C620 H607 0.930 . S
C620 C619 1.376 . S
C620 C621 1.388 . S
C621 H608 0.930 . S
C621 C620 1.388 . S
C621 C622 1.390 . S
C622 C621 1.390 . S
C622 C623 1.394 . S
C622 C628 1.465 . S
C623 C618 1.399 . S
C623 C622 1.394 . S
C623 C624 1.516 . S
C624 C623 1.516 . S
C624 C625 1.502 . S
C624 C626 1.561 . S
C624 C627 1.526 . S
C625 H609 0.959 . S
C625 H610 0.959 . S
C625 H611 0.961 . S
C625 C624 1.502 . S
C626 H612 0.960 . S
C626 H613 0.961 . S
C626 H614 0.959 . S
C626 C624 1.561 . S
C627 C624 1.526 . S
C627 C628 1.396 . S
C627 C632 1.390 1_556 S
C628 C622 1.465 . S
C628 C627 1.396 . S
C628 C629 1.399 1_556 S
C629 H615 0.929 . S
C629 C628 1.399 1_554 S
C629 C630 1.385 . S
C630 H616 0.931 . S
C630 C629 1.385 . S
C630 C631 1.389 . S
C631 C630 1.389 . S
C631 C632 1.387 . S
C632 H617 0.930 . S
C632 C627 1.390 1_554 S
C632 C631 1.387 . S
H633 C645 0.930 . S
H634 C647 0.930 . S
H635 C648 0.930 . S
H636 C652 0.959 . S
H637 C652 0.959 . S
H638 C652 0.961 . S
H639 C653 0.960 . S
H640 C653 0.961 . S
H641 C653 0.959 1_455 S
H642 C656 0.929 . S
H643 C657 0.931 . S
H644 C659 0.930 . S
C645 H633 0.930 . S
C645 C646 1.399 1_655 S
C645 C650 1.399 . S
C646 C645 1.399 1_455 S
C646 C647 1.376 . S
C647 H634 0.930 . S
C647 C646 1.376 . S
C647 C648 1.388 . S
C648 H635 0.930 . S
C648 C647 1.388 . S
C648 C649 1.390 . S
C649 C648 1.390 . S
C649 C650 1.394 1_455 S
C649 C655 1.465 . S
C650 C645 1.399 . S
C650 C649 1.394 1_655 S
C650 C651 1.516 . S
C651 C650 1.516 . S
C651 C652 1.502 . S
C651 C653 1.561 . S
C651 C654 1.526 . S
C652 H636 0.959 . S
C652 H637 0.959 . S
C652 H638 0.961 . S
C652 C651 1.502 . S
C653 H639 0.960 . S
C653 H640 0.961 . S
C653 H641 0.959 1_655 S
C653 C651 1.561 . S
C654 C651 1.526 . S
C654 C655 1.396 1_655 S
C654 C659 1.390 . S
C655 C649 1.465 . S
C655 C654 1.396 1_455 S
C655 C656 1.399 . S
C656 H642 0.929 . S
C656 C655 1.399 . S
C656 C657 1.385 . S
C657 H643 0.931 . S
C657 C656 1.385 . S
C657 C658 1.389 . S
C658 C657 1.389 . S
C658 C659 1.387 1_455 S
C659 H644 0.930 . S
C659 C654 1.390 . S
C659 C658 1.387 1_655 S
C187 C24 2.892 . S
C199 C169 2.865 . S
C214 C66 1.216 . S
C226 C151 1.306 . S
C241 C93 1.695 . S
C253 C163 1.691 . S
C268 C13 2.924 . S
C280 C172 2.918 . S
C307 C154 1.350 . S
C295 C57 1.325 . S
C334 C160 1.797 . S
C322 C104 1.810 . S
C349 C64 1.803 . S
C361 C133 1.791 . S
C376 C97 0.592 . S
C388 C142 0.703 . S
C403 C17 1.413 . S
C415 C124 1.437 1_565 S
C442 C136 1.726 . S
C430 C53 1.723 . S
C469 C145 0.413 . S
C457 C106 0.511 . S
C484 C26 1.242 . S
C496 C127 1.296 . S
C523 C143 1.014 . S
C511 C2 1.009 . S
C538 C63 1.421 . S
C550 C125 1.483 . S
C565 C82 1.366 . S
C577 C134 1.361 . S
C604 C161 1.385 . S
C592 C42 1.339 . S
C631 C170 1.794 . S
C619 C103 1.712 . S
C646 C23 1.424 . S
C658 C152 1.481 . S
