# Generated by pormake.
# Topology ptr, (4,4)-cn, num edge types: 1
# Building blocks:
#     Node 0, Type 0, BuildingBlock: UXUYUI_clean_sbu_0, # of connection points: 4
#     Node 1, Type 0, BuildingBlock: UXUYUI_clean_sbu_0, # of connection points: 4
#     Node 2, Type 0, BuildingBlock: UXUYUI_clean_sbu_0, # of connection points: 4
#     Node 3, Type 0, BuildingBlock: UXUYUI_clean_sbu_0, # of connection points: 4
#     Node 4, Type 0, BuildingBlock: UXUYUI_clean_sbu_0, # of connection points: 4
#     Node 5, Type 0, BuildingBlock: UXUYUI_clean_sbu_0, # of connection points: 4
#     Node 6, Type 0, BuildingBlock: UXUYUI_clean_sbu_0, # of connection points: 4
#     Node 7, Type 0, BuildingBlock: UXUYUI_clean_sbu_0, # of connection points: 4
#     Node 8, Type 0, BuildingBlock: UXUYUI_clean_sbu_0, # of connection points: 4
#     Node 9, Type 0, BuildingBlock: UXUYUI_clean_sbu_0, # of connection points: 4
#     Node 10, Type 0, BuildingBlock: UXUYUI_clean_sbu_0, # of connection points: 4
#     Node 11, Type 0, BuildingBlock: UXUYUI_clean_sbu_0, # of connection points: 4
#     Node 12, Type 0, BuildingBlock: UXUYUI_clean_sbu_0, # of connection points: 4
#     Node 13, Type 0, BuildingBlock: UXUYUI_clean_sbu_0, # of connection points: 4
#     Node 14, Type 0, BuildingBlock: UXUYUI_clean_sbu_0, # of connection points: 4
#     Node 15, Type 0, BuildingBlock: UXUYUI_clean_sbu_0, # of connection points: 4
#     Node 16, Type 0, BuildingBlock: UXUYUI_clean_sbu_0, # of connection points: 4
#     Node 17, Type 0, BuildingBlock: UXUYUI_clean_sbu_0, # of connection points: 4
#     Node 18, Type 1, BuildingBlock: MUDLON_clean_linker_0, # of connection points: 4
#     Node 19, Type 1, BuildingBlock: MUDLON_clean_linker_0, # of connection points: 4
#     Node 20, Type 1, BuildingBlock: MUDLON_clean_linker_0, # of connection points: 4
#     Node 21, Type 1, BuildingBlock: MUDLON_clean_linker_0, # of connection points: 4
#     Node 22, Type 1, BuildingBlock: MUDLON_clean_linker_0, # of connection points: 4
#     Node 23, Type 1, BuildingBlock: MUDLON_clean_linker_0, # of connection points: 4
#     Node 24, Type 1, BuildingBlock: MUDLON_clean_linker_0, # of connection points: 4
#     Node 25, Type 1, BuildingBlock: MUDLON_clean_linker_0, # of connection points: 4
#     Node 26, Type 1, BuildingBlock: MUDLON_clean_linker_0, # of connection points: 4
#     Node 27, Type 1, BuildingBlock: MUDLON_clean_linker_0, # of connection points: 4
#     Node 28, Type 1, BuildingBlock: MUDLON_clean_linker_0, # of connection points: 4
#     Node 29, Type 1, BuildingBlock: MUDLON_clean_linker_0, # of connection points: 4
#     Node 30, Type 1, BuildingBlock: MUDLON_clean_linker_0, # of connection points: 4
#     Node 31, Type 1, BuildingBlock: MUDLON_clean_linker_0, # of connection points: 4
#     Node 32, Type 1, BuildingBlock: MUDLON_clean_linker_0, # of connection points: 4
#     Node 33, Type 1, BuildingBlock: MUDLON_clean_linker_0, # of connection points: 4
#     Node 34, Type 1, BuildingBlock: MUDLON_clean_linker_0, # of connection points: 4
#     Node 35, Type 1, BuildingBlock: MUDLON_clean_linker_0, # of connection points: 4
#     Edge 36, Type (0, 1), BuildingBlock: EZIPEK_clean_linker_0, # of connection points: 2
#     Edge 37, Type (0, 1), BuildingBlock: EZIPEK_clean_linker_0, # of connection points: 2
#     Edge 38, Type (0, 1), BuildingBlock: EZIPEK_clean_linker_0, # of connection points: 2
#     Edge 39, Type (0, 1), BuildingBlock: EZIPEK_clean_linker_0, # of connection points: 2
#     Edge 40, Type (0, 1), BuildingBlock: EZIPEK_clean_linker_0, # of connection points: 2
#     Edge 41, Type (0, 1), BuildingBlock: EZIPEK_clean_linker_0, # of connection points: 2
#     Edge 42, Type (0, 1), BuildingBlock: EZIPEK_clean_linker_0, # of connection points: 2
#     Edge 43, Type (0, 1), BuildingBlock: EZIPEK_clean_linker_0, # of connection points: 2
#     Edge 44, Type (0, 1), BuildingBlock: EZIPEK_clean_linker_0, # of connection points: 2
#     Edge 45, Type (0, 1), BuildingBlock: EZIPEK_clean_linker_0, # of connection points: 2
#     Edge 46, Type (0, 1), BuildingBlock: EZIPEK_clean_linker_0, # of connection points: 2
#     Edge 47, Type (0, 1), BuildingBlock: EZIPEK_clean_linker_0, # of connection points: 2
#     Edge 48, Type (0, 1), BuildingBlock: EZIPEK_clean_linker_0, # of connection points: 2
#     Edge 49, Type (0, 1), BuildingBlock: EZIPEK_clean_linker_0, # of connection points: 2
#     Edge 50, Type (0, 1), BuildingBlock: EZIPEK_clean_linker_0, # of connection points: 2
#     Edge 51, Type (0, 1), BuildingBlock: EZIPEK_clean_linker_0, # of connection points: 2
#     Edge 52, Type (0, 1), BuildingBlock: EZIPEK_clean_linker_0, # of connection points: 2
#     Edge 53, Type (0, 1), BuildingBlock: EZIPEK_clean_linker_0, # of connection points: 2
#     Edge 54, Type (0, 1), BuildingBlock: EZIPEK_clean_linker_0, # of connection points: 2
#     Edge 55, Type (0, 1), BuildingBlock: EZIPEK_clean_linker_0, # of connection points: 2
#     Edge 56, Type (0, 1), BuildingBlock: EZIPEK_clean_linker_0, # of connection points: 2
#     Edge 57, Type (0, 1), BuildingBlock: EZIPEK_clean_linker_0, # of connection points: 2
#     Edge 58, Type (0, 1), BuildingBlock: EZIPEK_clean_linker_0, # of connection points: 2
#     Edge 59, Type (0, 1), BuildingBlock: EZIPEK_clean_linker_0, # of connection points: 2
#     Edge 60, Type (0, 1), BuildingBlock: EZIPEK_clean_linker_0, # of connection points: 2
#     Edge 61, Type (0, 1), BuildingBlock: EZIPEK_clean_linker_0, # of connection points: 2
#     Edge 62, Type (0, 1), BuildingBlock: EZIPEK_clean_linker_0, # of connection points: 2
#     Edge 63, Type (0, 1), BuildingBlock: EZIPEK_clean_linker_0, # of connection points: 2
#     Edge 64, Type (0, 1), BuildingBlock: EZIPEK_clean_linker_0, # of connection points: 2
#     Edge 65, Type (0, 1), BuildingBlock: EZIPEK_clean_linker_0, # of connection points: 2
#     Edge 66, Type (0, 1), BuildingBlock: EZIPEK_clean_linker_0, # of connection points: 2
#     Edge 67, Type (0, 1), BuildingBlock: EZIPEK_clean_linker_0, # of connection points: 2
#     Edge 68, Type (0, 1), BuildingBlock: EZIPEK_clean_linker_0, # of connection points: 2
#     Edge 69, Type (0, 1), BuildingBlock: EZIPEK_clean_linker_0, # of connection points: 2
#     Edge 70, Type (0, 1), BuildingBlock: EZIPEK_clean_linker_0, # of connection points: 2
#     Edge 71, Type (0, 1), BuildingBlock: EZIPEK_clean_linker_0, # of connection points: 2
#     Edge 72, Type (0, 1), BuildingBlock: EZIPEK_clean_linker_0, # of connection points: 2
#     Edge 73, Type (0, 1), BuildingBlock: EZIPEK_clean_linker_0, # of connection points: 2
#     Edge 74, Type (0, 1), BuildingBlock: EZIPEK_clean_linker_0, # of connection points: 2
#     Edge 75, Type (0, 1), BuildingBlock: EZIPEK_clean_linker_0, # of connection points: 2
#     Edge 76, Type (0, 1), BuildingBlock: EZIPEK_clean_linker_0, # of connection points: 2
#     Edge 77, Type (0, 1), BuildingBlock: EZIPEK_clean_linker_0, # of connection points: 2
#     Edge 78, Type (0, 1), BuildingBlock: EZIPEK_clean_linker_0, # of connection points: 2
#     Edge 79, Type (0, 1), BuildingBlock: EZIPEK_clean_linker_0, # of connection points: 2
#     Edge 80, Type (0, 1), BuildingBlock: EZIPEK_clean_linker_0, # of connection points: 2
#     Edge 81, Type (0, 1), BuildingBlock: EZIPEK_clean_linker_0, # of connection points: 2
#     Edge 82, Type (0, 1), BuildingBlock: EZIPEK_clean_linker_0, # of connection points: 2
#     Edge 83, Type (0, 1), BuildingBlock: EZIPEK_clean_linker_0, # of connection points: 2
#     Edge 84, Type (0, 1), BuildingBlock: EZIPEK_clean_linker_0, # of connection points: 2
#     Edge 85, Type (0, 1), BuildingBlock: EZIPEK_clean_linker_0, # of connection points: 2
#     Edge 86, Type (0, 1), BuildingBlock: EZIPEK_clean_linker_0, # of connection points: 2
#     Edge 87, Type (0, 1), BuildingBlock: EZIPEK_clean_linker_0, # of connection points: 2
#     Edge 88, Type (0, 1), BuildingBlock: EZIPEK_clean_linker_0, # of connection points: 2
#     Edge 89, Type (0, 1), BuildingBlock: EZIPEK_clean_linker_0, # of connection points: 2
#     Edge 90, Type (0, 1), BuildingBlock: EZIPEK_clean_linker_0, # of connection points: 2
#     Edge 91, Type (0, 1), BuildingBlock: EZIPEK_clean_linker_0, # of connection points: 2
#     Edge 92, Type (0, 1), BuildingBlock: EZIPEK_clean_linker_0, # of connection points: 2
#     Edge 93, Type (0, 1), BuildingBlock: EZIPEK_clean_linker_0, # of connection points: 2
#     Edge 94, Type (0, 1), BuildingBlock: EZIPEK_clean_linker_0, # of connection points: 2
#     Edge 95, Type (0, 1), BuildingBlock: EZIPEK_clean_linker_0, # of connection points: 2
#     Edge 96, Type (0, 1), BuildingBlock: EZIPEK_clean_linker_0, # of connection points: 2
#     Edge 97, Type (0, 1), BuildingBlock: EZIPEK_clean_linker_0, # of connection points: 2
#     Edge 98, Type (0, 1), BuildingBlock: EZIPEK_clean_linker_0, # of connection points: 2
#     Edge 99, Type (0, 1), BuildingBlock: EZIPEK_clean_linker_0, # of connection points: 2
#     Edge 100, Type (0, 1), BuildingBlock: EZIPEK_clean_linker_0, # of connection points: 2
#     Edge 101, Type (0, 1), BuildingBlock: EZIPEK_clean_linker_0, # of connection points: 2
#     Edge 102, Type (0, 1), BuildingBlock: EZIPEK_clean_linker_0, # of connection points: 2
#     Edge 103, Type (0, 1), BuildingBlock: EZIPEK_clean_linker_0, # of connection points: 2
#     Edge 104, Type (0, 1), BuildingBlock: EZIPEK_clean_linker_0, # of connection points: 2
#     Edge 105, Type (0, 1), BuildingBlock: EZIPEK_clean_linker_0, # of connection points: 2
#     Edge 106, Type (0, 1), BuildingBlock: EZIPEK_clean_linker_0, # of connection points: 2
#     Edge 107, Type (0, 1), BuildingBlock: EZIPEK_clean_linker_0, # of connection points: 2
# Relax obj value: 0.079
# Max RMSD: 0.223
# Mean RMSD: 0.106
data_MOF--net-ptr--node1-UXUYUI_clean_sbu_0--node2-MUDLON_clean_linker_0--edge1-EZIPEK_clean_linker_0
_symmetry_space_group_name_H-M    P1
_symmetry_Int_Tables_number       1
_symmetry_cell_setting            triclinic
loop_
_symmetry_equiv_pos_as_xyz
'x, y, z'
_cell_length_a     103.46958
_cell_length_b     103.47453
_cell_length_c     58.258574
_cell_angle_alpha  89.998162
_cell_angle_beta   90.01405
_cell_angle_gamma 120.01161
loop_
_atom_site_label
_atom_site_type_symbol
_atom_site_fract_x
_atom_site_fract_y
_atom_site_fract_z
_atom_type_partial_charge
Li0 Li 0.98885 0.34952 0.00634 0.0
Li1 Li 0.01405 0.3624 0.0148 0.0
Li2 Li 0.99779 0.37071 0.03212 0.0
Li3 Li 0.00468 0.37415 0.98885 0.0
C4 C 0.9879 0.33892 0.04764 0.0
N5 N 0.96752 0.31231 0.06807 0.0
C6 C 0.98793 0.32576 0.04233 0.0
C7 C 0.97759 0.33858 0.06349 0.0
C8 C 0.9775 0.31241 0.05277 0.0
C9 C 0.96737 0.32501 0.07362 0.0
C10 C 0.01522 0.3527 0.97359 0.0
C11 C 0.03576 0.35957 0.94754 0.0
N12 N 0.0359 0.34689 0.95325 0.0
C13 C 0.01549 0.33968 0.97907 0.0
C14 C 0.02538 0.3627 0.95762 0.0
C15 C 0.02607 0.33697 0.96866 0.0
C16 C 0.97404 0.32313 0.98089 0.0
N17 N 0.97214 0.33014 0.99922 0.0
C18 C 0.94767 0.30933 0.00573 0.0
C19 C 0.95921 0.32359 0.01154 0.0
C20 C 0.94958 0.30183 0.98717 0.0
C21 C 0.96288 0.30888 0.9746 0.0
H22 H 0.98423 0.3286 0.97106 0.0
H23 H 0.95785 0.32937 0.02594 0.0
C24 C 0.0294 0.35138 0.04017 0.0
N25 N 0.03106 0.36024 0.02189 0.0
C26 C 0.04074 0.34852 0.04625 0.0
C27 C 0.05566 0.36435 0.01504 0.0
C28 C 0.04394 0.36685 0.00946 0.0
C29 C 0.05397 0.35494 0.03349 0.0
H30 H 0.01922 0.34647 0.05007 0.0
H31 H 0.04511 0.37394 0.99511 0.0
C32 C 0.97007 0.35955 -0.00035 0.0
N33 N 0.93996 0.34452 0.98954 0.0
C34 C 0.96523 0.35468 0.97727 0.0
C35 C 0.95963 0.35689 0.01687 0.0
C36 C 0.94995 0.34704 0.97252 0.0
C37 C 0.94444 0.34927 0.01141 0.0
C38 C 0.03228 0.39131 0.02155 0.0
C39 C 0.03702 0.39134 0.04402 0.0
C40 C 0.04278 0.39933 0.00451 0.0
C41 C 0.05226 0.39929 0.04904 0.0
C42 C 0.05792 0.40719 0.01024 0.0
N43 N 0.06231 0.40699 0.03219 0.0
C44 C 1.00007 0.37947 0.07833 0.0
C45 C 0.98802 0.38861 0.05403 0.0
C46 C 0.99904 0.38742 0.0969 0.0
N47 N 0.99469 0.38029 0.05743 0.0
C48 C 0.98663 0.39664 0.07218 0.0
C49 C 0.99235 0.39621 0.09381 0.0
H50 H 0.00538 0.37281 0.08045 0.0
H51 H 0.98401 0.38917 0.03712 0.0
C52 C 0.00214 0.38024 0.94259 0.0
N53 N 0.00754 0.38664 0.96338 0.0
C54 C 0.00312 0.38906 0.92381 0.0
C55 C 0.01546 0.41091 0.94812 0.0
C56 C 0.01413 0.40164 0.9665 0.0
C57 C 0.00975 0.40455 0.92658 0.0
H58 H 0.99691 0.36826 0.9407 0.0
H59 H 0.01815 0.40637 0.98333 0.0
O60 O 0.99797 0.35209 0.03751 0.0
O61 O 0.00499 0.35559 0.98367 0.0
O62 O 0.98496 0.36677 0.00474 0.0
O63 O 0.01744 0.38335 0.0162 0.0
H64 H 0.99583 0.32583 0.03009 0.0
H65 H 0.97736 0.34864 0.06774 0.0
H66 H 0.97732 0.30212 0.04868 0.0
H67 H 0.95928 0.32456 0.08582 0.0
H68 H 0.04374 0.36724 0.93525 0.0
H69 H 0.00771 0.33183 0.9914 0.0
H70 H 0.02537 0.37286 0.95325 0.0
H71 H 0.02649 0.32701 0.97288 0.0
H72 H 0.93743 0.30418 0.01559 0.0
H73 H 0.96458 0.30341 0.96001 0.0
H74 H 0.03921 0.34133 0.06075 0.0
H75 H 0.06584 0.36957 0.00503 0.0
H76 H 0.97318 0.35658 0.9638 0.0
H77 H 0.96319 0.36049 0.03432 0.0
H78 H 0.94602 0.34309 0.95532 0.0
H79 H 0.93622 0.34705 0.02458 0.0
H80 H 0.02903 0.38511 0.05735 0.0
H81 H 0.0393 0.39932 0.98699 0.0
H82 H 0.05611 0.39932 0.06631 0.0
H83 H 0.06619 0.41338 0.99722 0.0
H84 H 0.00354 0.38689 0.11343 0.0
H85 H 0.98141 0.40335 0.06934 0.0
H86 H 0.99863 0.38387 0.90735 0.0
H87 H 0.02063 0.42284 0.95072 0.0
Li88 Li 0.65441 0.63881 0.0052 0.0
Li89 Li 0.64098 0.652 0.01588 0.0
Li90 Li 0.63248 0.62596 0.03054 0.0
Li91 Li 0.62824 0.63009 0.99079 0.0
C92 C 0.6646 0.65081 0.04849 0.0
N93 N 0.6911 0.66285 0.07271 0.0
C94 C 0.67654 0.66481 0.04254 0.0
C95 C 0.66609 0.64302 0.06695 0.0
C96 C 0.68986 0.67068 0.05493 0.0
C97 C 0.67959 0.64928 0.07894 0.0
C98 C 0.65275 0.66239 0.97335 0.0
C99 C 0.65003 0.67861 0.94649 0.0
N100 N 0.66437 0.68939 0.95071 0.0
C101 C 0.66751 0.67355 0.97718 0.0
C102 C 0.64398 0.66485 0.95769 0.0
C103 C 0.67316 0.68715 0.96566 0.0
C104 C 0.67677 0.64457 0.97362 0.0
N105 N 0.67346 0.6417 0.99629 0.0
C106 C 0.69778 0.64533 0.00396 0.0
C107 C 0.68344 0.64151 0.01132 0.0
C108 C 0.70163 0.64889 0.98082 0.0
C109 C 0.69084 0.64813 0.96544 0.0
H110 H 0.66857 0.64444 0.96197 0.0
H111 H 0.68044 0.63868 0.02909 0.0
C112 C 0.65096 0.67753 0.04336 0.0
N113 N 0.64365 0.67119 0.02348 0.0
C114 C 0.65409 0.69184 0.04942 0.0
C115 C 0.64133 0.6926 0.01513 0.0
C116 C 0.63859 0.67829 0.00958 0.0
C117 C 0.64939 0.69957 0.0351 0.0
H118 H 0.65442 0.67151 0.05454 0.0
H119 H 0.63242 0.67286 0.9942 0.0
C120 C 0.63458 0.60421 0.00745 0.0
N121 N 0.62927 0.57595 0.01811 0.0
C122 C 0.62001 0.59211 0.0074 0.0
C123 C 0.64648 0.60191 0.01257 0.0
C124 C 0.61754 0.57792 0.01296 0.0
C125 C 0.64355 0.58754 0.01799 0.0
C126 C 0.60573 0.63006 0.01456 0.0
C127 C 0.59536 0.61483 0.01298 0.0
C128 C 0.60102 0.64048 0.01172 0.0
C129 C 0.58046 0.61026 0.00816 0.0
C130 C 0.58601 0.63546 0.00696 0.0
N131 N 0.57613 0.62059 0.00526 0.0
C132 C 0.61161 0.61208 0.06592 0.0
C133 C 0.63001 0.60483 0.06463 0.0
C134 C 0.60471 0.6027 0.08461 0.0
N135 N 0.62394 0.61288 0.0562 0.0
C136 C 0.62344 0.59526 0.08331 0.0
C137 C 0.61064 0.59416 0.09338 0.0
H138 H 0.60718 0.61882 0.05927 0.0
H139 H 0.64004 0.60595 0.05707 0.0
C140 C 0.61595 0.61012 0.95418 0.0
N141 N 0.61538 0.62148 0.96499 0.0
C142 C 0.60696 0.60323 0.9351 0.0
C143 C 0.59687 0.61978 0.93863 0.0
C144 C 0.60623 0.6265 0.95747 0.0
C145 C 0.59728 0.60806 0.92724 0.0
H146 H 0.62347 0.60648 0.9603 0.0
H147 H 0.60623 0.63578 0.96598 0.0
O148 O 0.65148 0.64481 0.03651 0.0
O149 O 0.64695 0.64904 0.98465 0.0
O150 O 0.63723 0.61821 0.0022 0.0
O151 O 0.62041 0.63477 0.01906 0.0
H152 H 0.67552 0.67109 0.02854 0.0
H153 H 0.65694 0.63226 0.07196 0.0
H154 H 0.6992 0.68147 0.05043 0.0
H155 H 0.68091 0.64334 0.0932 0.0
H156 H 0.64333 0.68072 0.93447 0.0
H157 H 0.67456 0.67171 0.98883 0.0
H158 H 0.63257 0.65629 0.95438 0.0
H159 H 0.68455 0.69592 0.96856 0.0
H160 H 0.70585 0.64575 0.01622 0.0
H161 H 0.69347 0.65079 0.94745 0.0
H162 H 0.66013 0.69684 0.06515 0.0
H163 H 0.63735 0.69823 0.00393 0.0
H164 H 0.6107 0.59365 0.0031 0.0
H165 H 0.65783 0.61114 0.01256 0.0
H166 H 0.60631 0.56847 0.01312 0.0
H167 H 0.65264 0.58561 0.02214 0.0
H168 H 0.5988 0.60663 0.0154 0.0
H169 H 0.60886 0.6523 0.01312 0.0
H170 H 0.57233 0.5985 0.00675 0.0
H171 H 0.58221 0.6434 0.00462 0.0
H172 H 0.59491 0.60217 0.09227 0.0
H173 H 0.62835 0.58892 0.08996 0.0
H174 H 0.60752 0.59423 0.92654 0.0
H175 H 0.58956 0.62378 0.93278 0.0
Li176 Li 0.36952 0.99712 0.98735 0.0
Li177 Li 0.37371 0.00344 0.02778 0.0
Li178 Li 0.34778 0.98781 0.01134 0.0
Li179 Li 0.3621 0.01473 0.00381 0.0
C180 C 0.36942 0.97416 0.00622 0.0
N181 N 0.38053 0.95665 0.9895 0.0
C182 C 0.38365 0.97709 0.01263 0.0
C183 C 0.36075 0.9622 0.99157 0.0
C184 C 0.38908 0.96813 0.00394 0.0
C185 C 0.3666 0.95353 0.98321 0.0
C186 C 0.39461 0.03077 0.00654 0.0
C187 C 0.40545 0.05428 0.02666 0.0
N188 N 0.41898 0.05818 0.01739 0.0
C189 C 0.40859 0.0351 0.99697 0.0
C190 C 0.393 0.04051 0.0213 0.0
C191 C 0.42078 0.04896 0.00277 0.0
C192 C 0.37043 0.98727 0.94201 0.0
N193 N 0.37834 0.99322 0.96161 0.0
C194 C 0.40005 0.99445 0.94504 0.0
C195 C 0.39285 0.99676 0.96348 0.0
C196 C 0.39217 0.98842 0.9246 0.0
C197 C 0.37717 0.9847 0.92315 0.0
H198 H 0.35896 0.98466 0.94093 0.0
H199 H 0.39882 0.00141 0.97933 0.0
C200 C 0.37884 0.99884 0.07338 0.0
N201 N 0.38593 0.00564 0.05356 0.0
C202 C 0.38707 0.99941 0.09272 0.0
C203 C 0.40975 0.01387 0.07086 0.0
C204 C 0.40107 0.01299 0.05192 0.0
C205 C 0.40269 0.00697 0.09147 0.0
H206 H 0.36678 0.99289 0.07406 0.0
H207 H 0.40643 0.0179 0.03582 0.0
C208 C 0.33775 0.99127 0.97063 0.0
N209 N 0.31004 0.97694 0.94978 0.0
C210 C 0.33009 0.99897 0.9664 0.0
C211 C 0.33139 0.97634 0.96396 0.0
C212 C 0.31608 0.99152 0.95589 0.0
C213 C 0.31735 0.96927 0.95355 0.0
C214 C 0.35232 0.0113 0.0515 0.0
C215 C 0.33759 0.00741 0.05646 0.0
C216 C 0.36387 0.02176 0.06534 0.0
C217 C 0.3347 0.01434 0.07473 0.0
C218 C 0.36053 0.02843 0.08348 0.0
N219 N 0.34614 0.02463 0.08775 0.0
C220 C 0.32598 0.95857 0.02523 0.0
C221 C 0.31661 0.97475 0.01639 0.0
C222 C 0.31178 0.94737 0.03199 0.0
N223 N 0.32813 0.97199 0.0179 0.0
C224 C 0.30226 0.96388 0.02292 0.0
C225 C 0.29983 0.95014 0.03117 0.0
H226 H 0.33537 0.95674 0.02646 0.0
H227 H 0.31865 0.98555 0.01071 0.0
C228 C 0.36957 0.04216 0.98267 0.0
N229 N 0.35996 0.03165 0.99764 0.0
C230 C 0.36711 0.0536 0.97534 0.0
C231 C 0.34504 0.04331 0.9992 0.0
C232 C 0.34797 0.03213 0.00617 0.0
C233 C 0.35452 0.05401 0.98328 0.0
H234 H 0.37881 0.04132 0.97573 0.0
H235 H 0.34021 0.02337 0.01736 0.0
O236 O 0.36409 0.98308 0.01401 0.0
O237 O 0.38257 0.01721 0.00104 0.0
O238 O 0.35141 0.99835 0.98114 0.0
O239 O 0.3553 0.0044 0.03386 0.0
H240 H 0.39051 0.98629 0.02395 0.0
H241 H 0.34967 0.95971 0.9866 0.0
H242 H 0.40013 0.97034 0.00861 0.0
H243 H 0.36006 0.94431 0.97171 0.0
H244 H 0.40433 0.06191 0.03809 0.0
H245 H 0.41004 0.02782 0.98526 0.0
H246 H 0.38222 0.0376 0.02824 0.0
H247 H 0.43168 0.0524 0.9956 0.0
H248 H 0.41165 0.99743 0.94659 0.0
H249 H 0.37086 0.98008 0.90751 0.0
H250 H 0.38135 0.99394 0.10843 0.0
H251 H 0.4218 0.0197 0.06942 0.0
H252 H 0.3349 0.01058 0.97113 0.0
H253 H 0.33716 0.97023 0.96705 0.0
H254 H 0.31002 0.99733 0.9526 0.0
H255 H 0.31225 0.95768 0.9485 0.0
H256 H 0.32846 0.9992 0.04624 0.0
H257 H 0.3753 0.02463 0.06234 0.0
H258 H 0.32336 0.01151 0.0786 0.0
H259 H 0.36939 0.03658 0.09425 0.0
H260 H 0.3102 0.93686 0.03846 0.0
H261 H 0.29324 0.96634 0.02228 0.0
H262 H 0.37452 0.06164 0.96282 0.0
H263 H 0.33512 0.04324 0.00533 0.0
Li264 Li 0.01441 0.65357 0.01292 0.0
Li265 Li 0.99763 0.62943 0.03045 0.0
Li266 Li 0.00218 0.63092 0.9889 0.0
Li267 Li 0.98719 0.64047 0.00542 0.0
C268 C 0.03017 0.63835 0.00548 0.0
N269 N 0.05695 0.64338 0.98728 0.0
C270 C 0.03686 0.63043 0.01375 0.0
C271 C 0.03708 0.64883 0.98797 0.0
C272 C 0.05041 0.63313 0.00432 0.0
C273 C 0.05062 0.65122 0.97899 0.0
C274 C 0.99626 0.65047 0.05725 0.0
C275 C 0.98079 0.64805 0.08977 0.0
N276 N 0.99311 0.65434 0.10342 0.0
C277 C 0.00879 0.6571 0.07153 0.0
C278 C 0.98216 0.64607 0.06635 0.0
C279 C 0.00696 0.65889 0.09485 0.0
C280 C 0.03019 0.68475 0.01319 0.0
N281 N 0.03124 0.67257 0.01888 0.0
C282 C 0.05423 0.68778 0.03861 0.0
C283 C 0.04304 0.67381 0.03102 0.0
C284 C 0.05306 0.70043 0.03379 0.0
C285 C 0.04109 0.69892 0.02049 0.0
H286 H 0.02051 0.68335 0.00393 0.0
H287 H 0.04339 0.6639 0.0358 0.0
C288 C 0.98418 0.60404 0.06055 0.0
N289 N 0.99592 0.61803 0.05703 0.0
C290 C 0.98426 0.59555 0.07916 0.0
C291 C 0.00848 0.61599 0.09003 0.0
C292 C 0.00796 0.62404 0.07123 0.0
C293 C 0.9966 0.60154 0.09393 0.0
H294 H 0.975 0.59926 0.04856 0.0
H295 H 0.01737 0.63494 0.06751 0.0
C296 C 0.99835 0.65205 0.96247 0.0
N297 N 0.98638 0.65499 0.92174 0.0
C298 C 0.98733 0.63941 0.95115 0.0
C299 C 0.00326 0.66619 0.95311 0.0
C300 C 0.98143 0.64112 0.93057 0.0
C301 C 0.99707 0.66744 0.93249 0.0
C302 C 0.96788 0.61033 0.00618 0.0
C303 C 0.96035 0.60081 0.98779 0.0
C304 C 0.95981 0.61061 0.0252 0.0
C305 C 0.94484 0.59177 0.98875 0.0
C306 C 0.94431 0.60141 0.02551 0.0
N307 N 0.93721 0.59226 0.00742 0.0
C308 C 0.99659 0.60547 0.96477 0.0
C309 C 0.01283 0.62789 0.94502 0.0
C310 C 0.99641 0.59696 0.9461 0.0
N311 N 0.00444 0.62061 0.9637 0.0
C312 C 0.01319 0.6198 0.92607 0.0
C313 C 0.0046 0.60416 0.92636 0.0
H314 H 0.99014 0.60001 0.97996 0.0
H315 H 0.01892 0.63996 0.94462 0.0
C316 C 0.97331 0.65764 0.0081 0.0
N317 N 0.97146 0.64461 0.99946 0.0
C318 C 0.96359 0.66272 0.00175 0.0
C319 C 0.94991 0.64059 0.97845 0.0
C320 C 0.95997 0.63603 0.98502 0.0
C321 C 0.95191 0.65423 0.98648 0.0
H322 H 0.98272 0.66441 0.01913 0.0
H323 H 0.959 0.62603 0.97765 0.0
O324 O 0.01687 0.63573 0.01449 0.0
O325 O 0.99784 0.64867 0.03435 0.0
O326 O 0.00406 0.65069 0.98293 0.0
O327 O 0.98304 0.6194 0.00543 0.0
H328 H 0.03163 0.62227 0.0273 0.0
H329 H 0.03206 0.65507 0.98135 0.0
H330 H 0.05572 0.62708 0.01055 0.0
H331 H 0.05609 0.65929 0.96542 0.0
H332 H 0.96994 0.64464 0.09706 0.0
H333 H 0.0198 0.66073 0.06472 0.0
H334 H 0.9724 0.64131 0.05543 0.0
H335 H 0.01655 0.6639 0.10612 0.0
H336 H 0.06327 0.68863 0.04908 0.0
H337 H 0.03986 0.70851 0.01673 0.0
H338 H 0.97502 0.58433 0.08168 0.0
H339 H 0.01822 0.62079 0.10105 0.0
H340 H 0.98322 0.6284 0.95833 0.0
H341 H 0.01173 0.67609 0.96172 0.0
H342 H 0.97287 0.63143 0.92167 0.0
H343 H 0.00074 0.67831 0.92505 0.0
H344 H 0.96639 0.60053 0.97283 0.0
H345 H 0.96548 0.61781 0.03961 0.0
H346 H 0.93887 0.5844 0.97461 0.0
H347 H 0.93793 0.60153 0.04014 0.0
H348 H 0.98972 0.5849 0.94684 0.0
H349 H 0.01964 0.62564 0.91105 0.0
H350 H 0.96549 0.6734 0.00797 0.0
H351 H 0.94112 0.63395 0.96631 0.0
Li352 Li 0.35096 0.36621 0.02005 0.0
Li353 Li 0.37521 0.37146 0.03581 0.0
Li354 Li 0.37241 0.37638 0.99456 0.0
Li355 Li 0.36263 0.35078 0.00802 0.0
C356 C 0.36649 0.39645 0.0295 0.0
N357 N 0.35956 0.41773 0.04377 0.0
C358 C 0.37008 0.40226 0.05174 0.0
C359 C 0.35951 0.40157 0.01445 0.0
C360 C 0.36645 0.41299 0.05864 0.0
C361 C 0.35605 0.4123 0.02201 0.0
C362 C 0.35245 0.34663 0.06006 0.0
C363 C 0.35411 0.33059 0.08853 0.0
N364 N 0.34601 0.33391 0.1033 0.0
C365 C 0.34398 0.34973 0.07544 0.0
C366 C 0.35741 0.33684 0.06656 0.0
C367 C 0.3409 0.34325 0.09724 0.0
C368 C 0.32016 0.35283 0.01613 0.0
N369 N 0.33203 0.36425 0.02695 0.0
C370 C 0.31579 0.3691 0.04996 0.0
C371 C 0.33013 0.37249 0.04341 0.0
C372 C 0.30339 0.35695 0.03975 0.0
C373 C 0.30563 0.34896 0.02232 0.0
H374 H 0.32198 0.34632 0.00338 0.0
H375 H 0.33963 0.38113 0.0524 0.0
C376 C 0.40307 0.38445 0.0583 0.0
N377 N 0.38817 0.37824 0.06183 0.0
C378 C 0.41289 0.38868 0.07689 0.0
C379 C 0.39208 0.38124 0.10231 0.0
C380 C 0.38267 0.37721 0.08328 0.0
C381 C 0.40741 0.38589 0.09969 0.0
H382 H 0.40737 0.3862 0.04097 0.0
H383 H 0.37098 0.37347 0.08566 0.0
C384 C 0.34866 0.36065 0.96732 0.0
N385 N 0.34187 0.36474 0.92302 0.0
C386 C 0.35098 0.35329 0.94905 0.0
C387 C 0.34265 0.36987 0.96312 0.0
C388 C 0.34755 0.35556 0.92675 0.0
C389 C 0.33935 0.37185 0.94059 0.0
C390 C 0.393 0.36145 0.00807 0.0
C391 C 0.40212 0.36338 0.98918 0.0
C392 C 0.39347 0.35356 0.02721 0.0
C393 C 0.41141 0.35718 0.98965 0.0
C394 C 0.40291 0.34754 0.02704 0.0
N395 N 0.4116 0.34945 0.0084 0.0
C396 C 0.3861 0.40358 0.96897 0.0
C397 C 0.38575 0.38273 0.95138 0.0
C398 C 0.39404 0.41269 0.95044 0.0
N399 N 0.38217 0.38892 0.96907 0.0
C400 C 0.3937 0.3914 0.9326 0.0
C401 C 0.39804 0.40657 0.93218 0.0
H402 H 0.38336 0.40829 0.98344 0.0
H403 H 0.38265 0.37109 0.95208 0.0
C404 C 0.34753 0.3193 0.01049 0.0
N405 N 0.35852 0.33137 0.9994 0.0
C406 C 0.34358 0.30489 0.00339 0.0
C407 C 0.36235 0.31563 0.97364 0.0
C408 C 0.36595 0.32982 0.98132 0.0
C409 C 0.35096 0.30302 0.98462 0.0
H410 H 0.34158 0.32086 0.02447 0.0
H411 H 0.37436 0.3396 0.97245 0.0
O412 O 0.36997 0.38595 0.02248 0.0
O413 O 0.35547 0.35282 0.03857 0.0
O414 O 0.35217 0.35875 0.98922 0.0
O415 O 0.38368 0.36727 0.00779 0.0
H416 H 0.37558 0.39851 0.06355 0.0
H417 H 0.35679 0.39732 0.99713 0.0
H418 H 0.36911 0.41754 0.07583 0.0
H419 H 0.3506 0.41632 0.01057 0.0
H420 H 0.35794 0.32304 0.0938 0.0
H421 H 0.33997 0.3572 0.07072 0.0
H422 H 0.36361 0.33395 0.05473 0.0
H423 H 0.33446 0.34565 0.10935 0.0
H424 H 0.31437 0.37533 0.06369 0.0
H425 H 0.29625 0.33944 0.0143 0.0
H426 H 0.42461 0.3944 0.07283 0.0
H427 H 0.38718 0.38091 0.11881 0.0
H428 H 0.35552 0.34602 0.95203 0.0
H429 H 0.3405 0.37539 0.97713 0.0
H430 H 0.3494 0.35004 0.91242 0.0
H431 H 0.33476 0.37902 0.93708 0.0
H432 H 0.40202 0.36956 0.97429 0.0
H433 H 0.38669 0.3522 0.0421 0.0
H434 H 0.41848 0.35853 0.9751 0.0
H435 H 0.40335 0.34139 0.04174 0.0
H436 H 0.39732 0.4244 0.95055 0.0
H437 H 0.39669 0.38642 0.91874 0.0
H438 H 0.33461 0.29532 0.01197 0.0
H439 H 0.36809 0.31449 0.9589 0.0
Li440 Li 0.63783 0.98499 0.01352 0.0
Li441 Li 0.62869 0.00064 0.03121 0.0
Li442 Li 0.627 0.99618 0.98952 0.0
Li443 Li 0.65121 0.01287 0.00622 0.0
C444 C 0.60738 0.96674 0.01774 0.0
N445 N 0.58794 0.93667 0.02481 0.0
C446 C 0.59804 0.96196 0.03696 0.0
C447 C 0.60678 0.95623 0.00207 0.0
C448 C 0.5883 0.94671 0.04024 0.0
C449 C 0.5969 0.94107 0.00596 0.0
C450 C 0.65528 0.00394 0.05604 0.0
C451 C 0.67403 0.01991 0.08341 0.0
N452 N 0.67 0.00795 0.09736 0.0
C453 C 0.65141 0.99181 0.07061 0.0
C454 C 0.66677 0.0181 0.06243 0.0
C455 C 0.65894 0.99406 0.09144 0.0
C456 C 0.65385 0.96993 0.00894 0.0
N457 N 0.64162 0.96902 0.01924 0.0
C458 C 0.63784 0.94783 0.04105 0.0
C459 C 0.63352 0.95815 0.03487 0.0
C460 C 0.65074 0.94892 0.03134 0.0
C461 C 0.65868 0.95994 0.01483 0.0
H462 H 0.66022 0.97884 0.99687 0.0
H463 H 0.62416 0.95791 0.04344 0.0
C464 C 0.61018 0.00907 0.05492 0.0
N465 N 0.61834 0.00213 0.05723 0.0
C466 C 0.60115 0.00886 0.07289 0.0
C467 C 0.60897 0.99426 0.0952 0.0
C468 C 0.61796 0.99489 0.0769 0.0
C469 C 0.60031 0.00114 0.09311 0.0
H470 H 0.61029 0.01436 0.03886 0.0
H471 H 0.62409 0.98901 0.07802 0.0
C472 C 0.64559 0.99476 0.96114 0.0
N473 N 0.6436 0.99193 0.91394 0.0
C474 C 0.65118 0.00746 0.94728 0.0
C475 C 0.63916 0.98064 0.95103 0.0
C476 C 0.65002 0.00579 0.92344 0.0
C477 C 0.63821 0.97944 0.92713 0.0
C478 C 0.63698 0.0293 0.0139 0.0
C479 C 0.63332 0.03853 0.00132 0.0
C480 C 0.64433 0.03425 0.03493 0.0
C481 C 0.63719 0.05261 0.00993 0.0
C482 C 0.648 0.04839 0.04298 0.0
N483 N 0.6444 0.05722 0.03041 0.0
C484 C 0.60363 0.98025 0.95684 0.0
C485 C 0.61832 0.0064 0.95124 0.0
C486 C 0.59484 0.97894 0.93783 0.0
N487 N 0.6151 0.99384 0.96314 0.0
C488 C 0.60979 0.00562 0.93217 0.0
C489 C 0.59788 0.99176 0.9254 0.0
H490 H 0.60123 0.97046 0.96662 0.0
H491 H 0.62754 0.01704 0.9566 0.0
C492 C 0.68252 0.02831 0.00601 0.0
N493 N 0.67042 0.02965 0.00085 0.0
C494 C 0.69683 0.03959 -7e-05 0.0
C495 C 0.68595 0.05351 0.98372 0.0
C496 C 0.67186 0.04196 0.99005 0.0
C497 C 0.69855 0.05223 0.98836 0.0
H498 H 0.68099 0.01826 0.0142 0.0
H499 H 0.66206 0.04255 0.98547 0.0
O500 O 0.61706 0.98163 0.0144 0.0
O501 O 0.6483 0.00188 0.03527 0.0
O502 O 0.64617 0.99615 0.9845 0.0
O503 O 0.63338 0.01554 0.00555 0.0
H504 H 0.59826 0.96994 0.04918 0.0
H505 H 0.61401 0.95971 0.98723 0.0
H506 H 0.58103 0.94286 0.05505 0.0
H507 H 0.59638 0.93282 0.99404 0.0
H508 H 0.6829 0.03082 0.08856 0.0
H509 H 0.64257 0.98079 0.06605 0.0
H510 H 0.6701 0.02762 0.0513 0.0
H511 H 0.65598 0.98476 0.10289 0.0
H512 H 0.63165 0.93956 0.05412 0.0
H513 H 0.66877 0.96112 0.00727 0.0
H514 H 0.59449 0.01418 0.07077 0.0
H515 H 0.60842 0.9881 0.11056 0.0
H516 H 0.65615 0.01847 0.95485 0.0
H517 H 0.63492 0.97072 0.96153 0.0
H518 H 0.65418 0.01551 0.91249 0.0
H519 H 0.63319 0.96858 0.91906 0.0
H520 H 0.62757 0.03486 0.98505 0.0
H521 H 0.647 0.02718 0.04506 0.0
H522 H 0.63446 0.05989 0.00034 0.0
H523 H 0.65368 0.05234 0.05925 0.0
H524 H 0.5857 0.96809 0.93295 0.0
H525 H 0.6124 0.01569 0.92283 0.0
H526 H 0.70638 0.03826 0.00344 0.0
H527 H 0.68697 0.06306 0.97448 0.0
Li528 Li 0.65302 0.68293 0.33793 0.0
Li529 Li 0.67877 0.69652 0.34782 0.0
Li530 Li 0.66184 0.70377 0.36472 0.0
Li531 Li 0.6691 0.70814 0.32221 0.0
C532 C 0.6614 0.67217 0.3764 0.0
N533 N 0.6615 0.64693 0.39158 0.0
C534 C 0.66433 0.66357 0.36108 0.0
C535 C 0.65855 0.66797 0.39946 0.0
C536 C 0.66432 0.65084 0.36907 0.0
C537 C 0.65864 0.65516 0.40679 0.0
C538 C 0.67698 0.68713 0.29952 0.0
C539 C 0.69545 0.69577 0.26942 0.0
N540 N 0.69105 0.68137 0.26396 0.0
C541 C 0.67255 0.67242 0.29346 0.0
C542 C 0.68844 0.69891 0.28729 0.0
C543 C 0.67985 0.66974 0.2755 0.0
C544 C 0.63392 0.66146 0.30671 0.0
N545 N 0.63674 0.6639 0.32955 0.0
C546 C 0.61793 0.63883 0.33809 0.0
C547 C 0.62877 0.65308 0.3453 0.0
C548 C 0.61519 0.6359 0.31455 0.0
C549 C 0.62306 0.64747 0.29878 0.0
H550 H 0.6404 0.67031 0.29462 0.0
H551 H 0.63108 0.65538 0.3634 0.0
C552 C 0.69865 0.69524 0.37876 0.0
N553 N 0.6956 0.69432 0.3559 0.0
C554 C 0.70952 0.69224 0.38704 0.0
C555 C 0.71418 0.68758 0.34811 0.0
C556 C 0.7033 0.69083 0.34053 0.0
C557 C 0.71717 0.68804 0.37164 0.0
H558 H 0.69226 0.69786 0.39065 0.0
H559 H 0.70076 0.69009 0.3225 0.0
C560 C 0.63388 0.69211 0.33461 0.0
N561 N 0.60333 0.67499 0.32928 0.0
C562 C 0.62744 0.69066 0.313 0.0
C563 C 0.62481 0.68493 0.35355 0.0
C564 C 0.61196 0.68193 0.31065 0.0
C565 C 0.60938 0.67631 0.35049 0.0
C566 C 0.69633 0.72483 0.35666 0.0
C567 C 0.70008 0.72866 0.37968 0.0
C568 C 0.70762 0.72866 0.34043 0.0
C569 C 0.7151 0.73604 0.38617 0.0
C570 C 0.7225 0.73602 0.3476 0.0
N571 N 0.7259 0.73952 0.37013 0.0
C572 C 0.66201 0.71063 0.41157 0.0
C573 C 0.64951 0.71916 0.38706 0.0
C574 C 0.65948 0.71736 0.43048 0.0
N575 N 0.65719 0.71183 0.3904 0.0
C576 C 0.6466 0.72593 0.40553 0.0
C577 C 0.65183 0.72523 0.42743 0.0
H578 H 0.66809 0.70471 0.41364 0.0
H579 H 0.64583 0.71992 0.36998 0.0
C580 C 0.66538 0.71499 0.27691 0.0
N581 N 0.67268 0.72095 0.29695 0.0
C582 C 0.66768 0.72419 0.25801 0.0
C583 C 0.68511 0.74542 0.28068 0.0
C584 C 0.6824 0.73582 0.2992 0.0
C585 C 0.67763 0.73957 0.25987 0.0
H586 H 0.65781 0.7031 0.27564 0.0
H587 H 0.68804 0.74021 0.31538 0.0
O588 O 0.66169 0.68489 0.36912 0.0
O589 O 0.66983 0.68994 0.31691 0.0
O590 O 0.64904 0.70012 0.33715 0.0
O591 O 0.68167 0.71724 0.35009 0.0
H592 H 0.66669 0.66674 0.34327 0.0
H593 H 0.65635 0.67458 0.41156 0.0
H594 H 0.66661 0.6441 0.3574 0.0
H595 H 0.65646 0.65177 0.42459 0.0
H596 H 0.70437 0.70478 0.25987 0.0
H597 H 0.66356 0.66314 0.30249 0.0
H598 H 0.69191 0.71036 0.29151 0.0
H599 H 0.67657 0.65841 0.2707 0.0
H600 H 0.61202 0.63009 0.35065 0.0
H601 H 0.6212 0.64552 0.28049 0.0
H602 H 0.71154 0.69259 0.40534 0.0
H603 H 0.71986 0.68429 0.33584 0.0
H604 H 0.63433 0.6961 0.29817 0.0
H605 H 0.62966 0.68584 0.37035 0.0
H606 H 0.60682 0.68064 0.29401 0.0
H607 H 0.60221 0.67061 0.36495 0.0
H608 H 0.6915 0.72583 0.39245 0.0
H609 H 0.70492 0.72587 0.32254 0.0
H610 H 0.71816 0.73897 0.40396 0.0
H611 H 0.73134 0.73895 0.33525 0.0
H612 H 0.66363 0.71664 0.44723 0.0
H613 H 0.64063 0.73192 0.40272 0.0
H614 H 0.66182 0.71938 0.24209 0.0
H615 H 0.6929 0.75726 0.28254 0.0
Li616 Li 0.2897 0.96243 0.32287 0.0
Li617 Li 0.2924 0.9586 0.36456 0.0
Li618 Li 0.30026 0.98391 0.34869 0.0
Li619 Li 0.31386 0.97133 0.33961 0.0
C620 C 0.26973 0.97024 0.34311 0.0
N621 N 0.24938 0.97864 0.32971 0.0
C622 C 0.25681 0.96584 0.356 0.0
C623 C 0.27234 0.97895 0.32343 0.0
C624 C 0.24664 0.97019 0.34893 0.0
C625 C 0.26191 0.98307 0.31694 0.0
C626 C 0.30545 0.94367 0.33189 0.0
C627 C 0.32043 0.93281 0.34284 0.0
N628 N 0.32333 0.93186 0.32033 0.0
C629 C 0.30848 0.94248 0.30885 0.0
C630 C 0.31139 0.93873 0.34904 0.0
C631 C 0.31758 0.93652 0.30336 0.0
C632 C 0.28381 0.95558 0.27594 0.0
N633 N 0.27738 0.95333 0.29699 0.0
C634 C 0.25326 0.93711 0.28113 0.0
C635 C 0.26243 0.94431 0.29994 0.0
C636 C 0.25965 0.93901 0.25928 0.0
C637 C 0.2751 0.94839 0.25672 0.0
H638 H 0.29575 0.9628 0.27418 0.0
H639 H 0.25765 0.94261 0.31694 0.0
C640 C 0.28141 0.95209 0.40945 0.0
N641 N 0.28342 0.94599 0.39008 0.0
C642 C 0.27481 0.94322 0.42876 0.0
C643 C 0.27248 0.92196 0.40775 0.0
C644 C 0.27906 0.93124 0.3888 0.0
C645 C 0.2703 0.928 0.42795 0.0
H646 H 0.28498 0.96386 0.40986 0.0
H647 H 0.28071 0.9267 0.37307 0.0
C648 C 0.31912 0.99565 0.31107 0.0
N649 N 0.34226 0.02307 0.29731 0.0
C650 C 0.33078 0.00431 0.32618 0.0
C651 C 0.31924 0.00091 0.28894 0.0
C652 C 0.34238 0.01815 0.31892 0.0
C653 C 0.33103 0.01481 0.28231 0.0
C654 C 0.32095 0.98106 0.38728 0.0
C655 C 0.33099 0.99598 0.39263 0.0
C656 C 0.32101 0.96971 0.40022 0.0
C657 C 0.34118 0.99929 0.41051 0.0
C658 C 0.33137 0.97348 0.41797 0.0
N659 N 0.34117 0.98806 0.42268 0.0
C660 C 0.30144 0.00493 0.37958 0.0
C661 C 0.30464 0.01326 0.34096 0.0
C662 C 0.3047 0.01897 0.38746 0.0
N663 N 0.30188 0.00248 0.35675 0.0
C664 C 0.30826 0.02757 0.34812 0.0
C665 C 0.30867 0.03058 0.37164 0.0
H666 H 0.29916 0.99612 0.3917 0.0
H667 H 0.30463 0.01096 0.32288 0.0
C668 C 0.33794 0.97769 0.3105 0.0
N669 N 0.33345 0.97437 0.33272 0.0
C670 C 0.35211 0.98067 0.3039 0.0
C671 C 0.35653 0.97572 0.34278 0.0
C672 C 0.34235 0.97314 0.34876 0.0
C673 C 0.36161 0.97981 0.32018 0.0
H674 H 0.3305 0.97803 0.29781 0.0
H675 H 0.33844 0.96999 0.3661 0.0
O676 O 0.27981 0.96612 0.34991 0.0
O677 O 0.29703 0.95 0.33763 0.0
O678 O 0.30756 0.98209 0.31779 0.0
O679 O 0.31065 0.97762 0.37019 0.0
H680 H 0.25467 0.95913 0.37131 0.0
H681 H 0.28229 0.98248 0.31325 0.0
H682 H 0.23658 0.96686 0.35873 0.0
H683 H 0.26377 0.98979 0.30174 0.0
H684 H 0.32519 0.92904 0.35594 0.0
H685 H 0.30403 0.94632 0.29538 0.0
H686 H 0.30922 0.93962 0.36695 0.0
H687 H 0.32013 0.93566 0.28561 0.0
H688 H 0.24135 0.92996 0.2836 0.0
H689 H 0.28033 0.95007 0.24004 0.0
H690 H 0.27327 0.94815 0.44417 0.0
H691 H 0.2691 0.91024 0.40671 0.0
H692 H 0.33091 1.00036 0.34326 0.0
H693 H 0.31027 0.99432 0.27705 0.0
H694 H 0.35147 0.02497 0.33045 0.0
H695 H 0.33126 0.01904 0.26524 0.0
H696 H 0.33088 0.00493 0.38321 0.0
H697 H 0.31326 0.95812 0.39649 0.0
H698 H 0.34905 0.01078 0.41477 0.0
H699 H 0.33161 0.96481 0.428 0.0
H700 H 0.30492 0.021 0.40574 0.0
H701 H 0.31122 0.03632 0.33553 0.0
H702 H 0.35561 0.98355 0.28621 0.0
H703 H 0.36353 0.97469 0.35564 0.0
Li704 Li 0.03825 0.32986 0.32066 0.0
Li705 Li 0.04215 0.3369 0.36269 0.0
Li706 Li 0.01745 0.32114 0.34714 0.0
Li707 Li 0.02981 0.34694 0.33842 0.0
C708 C 0.02729 0.30259 0.35477 0.0
N709 N 0.0117 0.27316 0.36882 0.0
C710 C 0.02371 0.29913 0.37793 0.0
C711 C 0.02302 0.2911 0.33877 0.0
C712 C 0.01578 0.28418 0.38469 0.0
C713 C 0.01515 0.27629 0.34622 0.0
C714 C 0.0651 0.36035 0.33729 0.0
C715 C 0.08488 0.38319 0.35343 0.0
N716 N 0.0951 0.38095 0.34212 0.0
C717 C 0.07579 0.35834 0.32567 0.0
C718 C 0.06967 0.37293 0.35114 0.0
C719 C 0.0909 0.36887 0.32839 0.0
C720 C 0.04866 0.33452 0.2753 0.0
N721 N 0.04732 0.3267 0.29477 0.0
C722 C 0.06049 0.31569 0.27763 0.0
C723 C 0.05308 0.31745 0.29634 0.0
C724 C 0.06209 0.32368 0.25739 0.0
C725 C 0.05607 0.33317 0.25624 0.0
H726 H 0.04411 0.34192 0.27473 0.0
H727 H 0.05211 0.31164 0.31223 0.0
C728 C 0.04896 0.33695 0.40943 0.0
N729 N 0.05505 0.33987 0.38804 0.0
C730 C 0.05765 0.33816 0.42854 0.0
C731 C 0.07876 0.3455 0.40333 0.0
C732 C 0.06958 0.34383 0.38467 0.0
C733 C 0.07275 0.34255 0.42554 0.0
H734 H 0.0373 0.3335 0.4116 0.0
H735 H 0.07403 0.34547 0.36752 0.0
C736 C 0.00653 0.32026 0.30522 0.0
N737 N 0.98051 0.30008 0.28313 0.0
C738 C 0.99305 0.31963 0.31057 0.0
C739 C 0.00678 0.31069 0.2885 0.0
C740 C 0.98001 0.30932 0.29928 0.0
C741 C 0.99351 0.30057 0.27753 0.0
C742 C 0.02264 0.34829 0.38172 0.0
C743 C 0.0088 0.34744 0.38419 0.0
C744 C 0.03529 0.36013 0.39179 0.0
C745 C 0.00787 0.35855 0.39643 0.0
C746 C 0.0339 0.37102 0.40393 0.0
N747 N 0.02034 0.37002 0.40596 0.0
C748 C 0.992 0.30576 0.37453 0.0
C749 C 0.99108 0.29193 0.34154 0.0
C750 C 0.97781 0.29463 0.38113 0.0
N751 N 0.99823 0.30441 0.3548 0.0
C752 C 0.97687 0.28041 0.34763 0.0
C753 C 0.97005 0.28187 0.36747 0.0
H754 H 0.99806 0.3155 0.38521 0.0
H755 H 0.99633 0.29092 0.32617 0.0
C756 C 0.03905 0.37679 0.32458 0.0
N757 N 0.02729 0.36361 0.33168 0.0
C758 C 0.03686 0.38852 0.31784 0.0
C759 C 0.01055 0.37296 0.32605 0.0
C760 C 0.01324 0.36154 0.33256 0.0
C761 C 0.02243 0.38653 0.31833 0.0
H762 H 0.05003 0.37804 0.32343 0.0
H763 H 0.00404 0.35091 0.33782 0.0
O764 O 0.03469 0.31715 0.34777 0.0
O765 O 0.05025 0.35013 0.33486 0.0
O766 O 0.01943 0.33025 0.31609 0.0
O767 O 0.02382 0.33763 0.36943 0.0
H768 H 0.02682 0.3079 0.39049 0.0
H769 H 0.02552 0.29358 0.32073 0.0
H770 H 0.01283 0.28134 0.40252 0.0
H771 H 0.01169 0.26727 0.33401 0.0
H772 H 0.08857 0.39295 0.36415 0.0
H773 H 0.0725 0.34872 0.31484 0.0
H774 H 0.06156 0.37483 0.35992 0.0
H775 H 0.09929 0.36741 0.3196 0.0
H776 H 0.06507 0.30832 0.27898 0.0
H777 H 0.05718 0.33949 0.24082 0.0
H778 H 0.05267 0.33571 0.44548 0.0
H779 H 0.09035 0.3488 0.40047 0.0
H780 H 0.9926 0.32681 0.32362 0.0
H781 H 0.01708 0.31099 0.28415 0.0
H782 H 0.96949 0.30861 0.30342 0.0
H783 H 0.99353 0.29307 0.26463 0.0
H784 H 0.99888 0.33842 0.37642 0.0
H785 H 0.04606 0.36094 0.39025 0.0
H786 H 0.99724 0.35809 0.3983 0.0
H787 H 0.04362 0.38026 0.41174 0.0
H788 H 0.9729 0.29595 0.39675 0.0
H789 H 0.97121 0.27056 0.33693 0.0
H790 H 0.0462 0.39885 0.31164 0.0
H791 H 0.99927 0.37107 0.32633 0.0
Li792 Li 0.68011 0.98427 0.34305 0.0
Li793 Li 0.66539 0.95848 0.3595 0.0
Li794 Li 0.67121 0.96265 0.31788 0.0
Li795 Li 0.65402 0.96888 0.33496 0.0
C796 C 0.69931 0.97244 0.33619 0.0
N797 N 0.72759 0.981 0.32015 0.0
C798 C 0.70717 0.96581 0.34499 0.0
C799 C 0.70581 0.9834 0.31922 0.0
C800 C 0.72146 0.9703 0.33666 0.0
C801 C 0.72012 0.98758 0.31134 0.0
C802 C 0.65512 0.98204 0.37402 0.0
C803 C 0.63274 0.97862 0.39243 0.0
N804 N 0.63756 0.99339 0.38954 0.0
C805 C 0.65991 0.99721 0.37142 0.0
C806 C 0.6415 0.97268 0.3848 0.0
C807 C 0.65085 0.00272 0.37933 0.0
C808 C 0.69897 0.01567 0.3372 0.0
N809 N 0.69606 0.00355 0.35009 0.0
C810 C 0.71572 0.01866 0.37609 0.0
C811 C 0.70418 0.00475 0.36912 0.0
C812 C 0.71885 0.03137 0.3633 0.0
C813 C 0.71044 0.02985 0.34357 0.0
H814 H 0.69223 0.01435 0.32224 0.0
H815 H 0.70152 0.99488 0.37902 0.0
C816 C 0.65956 0.93181 0.38204 0.0
N817 N 0.66443 0.94659 0.38484 0.0
C818 C 0.65978 0.92331 0.40051 0.0
C819 C 0.67039 0.94553 0.42412 0.0
C820 C 0.66973 0.95353 0.40532 0.0
C821 C 0.66544 0.93026 0.42174 0.0
H822 H 0.6557 0.92667 0.3654 0.0
H823 H 0.67372 0.96536 0.40687 0.0
C824 C 0.66464 0.98078 0.29144 0.0
N825 N 0.65292 0.97995 0.24847 0.0
C826 C 0.65253 0.96756 0.28326 0.0
C827 C 0.6708 0.99357 0.27773 0.0
C828 C 0.64675 0.96736 0.26152 0.0
C829 C 0.66472 0.99293 0.25605 0.0
C830 C 0.63837 0.93649 0.33489 0.0
C831 C 0.63161 0.92753 0.31567 0.0
C832 C 0.63099 0.93259 0.35603 0.0
C833 C 0.61747 0.9149 0.31786 0.0
C834 C 0.61687 0.91985 0.35752 0.0
N835 N 0.61046 0.91136 0.33856 0.0
C836 C 0.67094 0.93939 0.29337 0.0
C837 C 0.68338 0.96264 0.2739 0.0
C838 C 0.67354 0.9323 0.27505 0.0
N839 N 0.67576 0.95424 0.29237 0.0
C840 C 0.68624 0.95599 0.25518 0.0
C841 C 0.6812 0.94065 0.2557 0.0
H842 H 0.66497 0.93304 0.30836 0.0
H843 H 0.68717 0.97445 0.27363 0.0
C844 C 0.63947 0.98452 0.32314 0.0
N845 N 0.6366 0.97057 0.32884 0.0
C846 C 0.62792 0.98695 0.31635 0.0
C847 C 0.61056 0.96066 0.32169 0.0
C848 C 0.62242 0.95876 0.32858 0.0
C849 C 0.61334 0.97484 0.31519 0.0
H850 H 0.65084 0.99372 0.32325 0.0
H851 H 0.62023 0.94777 0.33305 0.0
O852 O 0.68528 0.96809 0.34408 0.0
O853 O 0.66365 0.97637 0.36583 0.0
O854 O 0.67041 0.98135 0.31281 0.0
O855 O 0.65228 0.94879 0.33304 0.0
H856 H 0.70226 0.95728 0.35811 0.0
H857 H 0.69985 0.98859 0.31213 0.0
H858 H 0.72769 0.96527 0.34331 0.0
H859 H 0.72529 0.99604 0.2982 0.0
H860 H 0.62212 0.97149 0.40064 0.0
H861 H 0.67041 0.00461 0.36312 0.0
H862 H 0.63767 0.96095 0.38711 0.0
H863 H 0.65436 0.01441 0.37727 0.0
H864 H 0.72201 0.01955 0.39146 0.0
H865 H 0.71259 0.03952 0.3335 0.0
H866 H 0.65591 0.91155 0.39817 0.0
H867 H 0.67486 0.95119 0.4403 0.0
H868 H 0.64757 0.95757 0.2936 0.0
H869 H 0.68018 0.0039 0.28378 0.0
H870 H 0.63735 0.95721 0.25502 0.0
H871 H 0.66938 0.00275 0.24527 0.0
H872 H 0.63722 0.93029 0.29922 0.0
H873 H 0.63606 0.93933 0.37109 0.0
H874 H 0.61209 0.90789 0.30311 0.0
H875 H 0.61102 0.91673 0.37376 0.0
H876 H 0.66952 0.92042 0.27585 0.0
H877 H 0.69217 0.96269 0.2404 0.0
H878 H 0.63039 0.99802 0.31123 0.0
H879 H 0.59938 0.9511 0.32082 0.0
Li880 Li 0.04152 0.70829 0.3677 0.0
Li881 Li 0.01638 0.69902 0.35242 0.0
Li882 Li 0.03097 0.68713 0.34233 0.0
Li883 Li 0.03753 0.7118 0.32747 0.0
C884 C 0.01764 0.67447 0.38089 0.0
N885 N 0.00555 0.64512 0.39472 0.0
C886 C 0.00216 0.665 0.38106 0.0
C887 C 0.02696 0.66903 0.38788 0.0
C888 C 0.99627 0.6502 0.38811 0.0
C889 C 0.02063 0.65415 0.39474 0.0
C890 C 0.02572 0.7269 0.36336 0.0
C891 C 0.00842 0.73594 0.35896 0.0
N892 N 0.01001 0.73959 0.38162 0.0
C893 C 0.02721 0.73077 0.38659 0.0
C894 C 0.0163 0.72955 0.34939 0.0
C895 C 0.01917 0.73718 0.39549 0.0
C896 C 0.06433 0.73248 0.39188 0.0
N897 N 0.05444 0.71759 0.39313 0.0
C898 C 0.06349 0.71624 0.43026 0.0
C899 C 0.05378 0.70942 0.41183 0.0
C900 C 0.07385 0.73155 0.42929 0.0
C901 C 0.07426 0.73975 0.4099 0.0
H902 H 0.06451 0.73869 0.37684 0.0
H903 H 0.04573 0.69763 0.41244 0.0
C904 C 0.98583 0.68918 0.34354 0.0
N905 N 0.99676 0.69495 0.35974 0.0
C906 C 0.9711 0.68473 0.3495 0.0
C907 C 0.97929 0.69265 0.38849 0.0
C908 C 0.9938 0.69678 0.38185 0.0
C909 C 0.96774 0.68633 0.37227 0.0
H910 H 0.98845 0.68757 0.3262 0.0
H911 H 0.00264 0.70103 0.39448 0.0
C912 C 0.06539 0.71187 0.3468 0.0
N913 N 0.09458 0.72652 0.36211 0.0
C914 C 0.07524 0.72645 0.3396 0.0
C915 C 0.0704 0.70471 0.3617 0.0
C916 C 0.08996 0.73367 0.34753 0.0
C917 C 0.08519 0.71232 0.36929 0.0
C918 C 0.01762 0.69302 0.29887 0.0
C919 C 0.0224 0.68547 0.28439 0.0
C920 C 0.01209 0.70171 0.28941 0.0
C921 C 0.02169 0.68685 0.26064 0.0
C922 C 0.01161 0.70285 0.26556 0.0
N923 N 0.01639 0.69546 0.25179 0.0
C924 C 0.01578 0.65651 0.33127 0.0
C925 C 0.04219 0.66804 0.33021 0.0
C926 C 0.0143 0.64303 0.32373 0.0
N927 N 0.02956 0.66864 0.33431 0.0
C928 C 0.04123 0.65482 0.32245 0.0
C929 C 0.02715 0.64222 0.31896 0.0
H930 H 0.00595 0.65742 0.33416 0.0
H931 H 0.05299 0.67794 0.3323 0.0
C932 C 0.0452 0.73733 0.29959 0.0
N933 N 0.04595 0.72463 0.30174 0.0
C934 C 0.05172 0.7467 0.28069 0.0
C935 C 0.05968 0.72975 0.26675 0.0
C936 C 0.05306 0.72076 0.2859 0.0
C937 C 0.05905 0.74288 0.26411 0.0
H938 H 0.03964 0.74022 0.31259 0.0
H939 H 0.05362 0.71068 0.28826 0.0
O940 O 0.02365 0.68894 0.37369 0.0
O941 O 0.03331 0.7204 0.35439 0.0
O942 O 0.05083 0.70475 0.33972 0.0
O943 O 0.01861 0.69215 0.32217 0.0
H944 H 0.99477 0.66896 0.37562 0.0
H945 H 0.03896 0.67616 0.38765 0.0
H946 H 0.98432 0.64273 0.38825 0.0
H947 H 0.02772 0.64976 0.4 0.0
H948 H 0.00101 0.73795 0.34839 0.0
H949 H 0.03438 0.72872 0.39769 0.0
H950 H 0.01493 0.72652 0.33142 0.0
H951 H 0.02017 0.74018 0.41346 0.0
H952 H 0.0629 0.70968 0.44513 0.0
H953 H 0.0821 0.75161 0.4088 0.0
H954 H 0.96236 0.67973 0.3367 0.0
H955 H 0.97698 0.69385 0.40626 0.0
H956 H 0.07153 0.73222 0.32824 0.0
H957 H 0.06289 0.69348 0.36761 0.0
H958 H 0.09769 0.74498 0.34219 0.0
H959 H 0.08918 0.70697 0.38098 0.0
H960 H 0.02678 0.67875 0.2914 0.0
H961 H 0.00841 0.70769 0.30037 0.0
H962 H 0.02543 0.68113 0.24923 0.0
H963 H 0.00749 0.70965 0.258 0.0
H964 H 0.0033 0.6335 0.32087 0.0
H965 H 0.05131 0.65452 0.31861 0.0
H966 H 0.05112 0.75681 0.27904 0.0
H967 H 0.0653 0.72658 0.25419 0.0
Li968 Li 0.29709 0.33702 0.36328 0.0
Li969 Li 0.30501 0.31966 0.34892 0.0
Li970 Li 0.31851 0.34672 0.33625 0.0
Li971 Li 0.2934 0.32882 0.32255 0.0
C972 C 0.3237 0.34283 0.38797 0.0
N973 N 0.3383 0.35226 0.42961 0.0
C974 C 0.32098 0.33252 0.40545 0.0
C975 C 0.33409 0.35791 0.39154 0.0
C976 C 0.32839 0.33751 0.42642 0.0
C977 C 0.34129 0.36246 0.41274 0.0
C978 C 0.27532 0.30218 0.35695 0.0
C979 C 0.2644 0.27579 0.34978 0.0
N980 N 0.25721 0.27285 0.37031 0.0
C981 C 0.26774 0.2989 0.3779 0.0
C982 C 0.27357 0.29054 0.3427 0.0
C983 C 0.25866 0.284 0.38437 0.0
C984 C 0.28158 0.34973 0.38535 0.0
N985 N 0.28838 0.34152 0.38876 0.0
C986 C 0.28136 0.33818 0.42834 0.0
C987 C 0.2883 0.33568 0.4097 0.0
C988 C 0.27448 0.34678 0.42532 0.0
C989 C 0.2747 0.3527 0.40359 0.0
H990 H 0.28129 0.35381 0.3684 0.0
H991 H 0.29322 0.3287 0.4118 0.0
C992 C 0.31927 0.30282 0.34498 0.0
N993 N 0.30864 0.30389 0.35718 0.0
C994 C 0.32372 0.29263 0.3515 0.0
C995 C 0.30577 0.28443 0.38247 0.0
C996 C 0.30184 0.29493 0.37559 0.0
C997 C 0.31703 0.28344 0.37059 0.0
H998 H 0.32464 0.31023 0.33063 0.0
H999 H 0.29374 0.29626 0.38544 0.0
C1000 C 0.3045 0.36395 0.33676 0.0
N1001 N 0.3124 0.39363 0.34056 0.0
C1002 C 0.30062 0.37076 0.31948 0.0
C1003 C 0.31231 0.37221 0.35603 0.0
C1004 C 0.30474 0.38578 0.3217 0.0
C1005 C 0.31622 0.3872 0.35763 0.0
C1006 C 0.31169 0.32539 0.29496 0.0
C1007 C 0.31878 0.33715 0.27935 0.0
C1008 C 0.30389 0.3107 0.28693 0.0
C1009 C 0.31773 0.33402 0.25588 0.0
C1010 C 0.30307 0.30804 0.26332 0.0
N1011 N 0.30994 0.31965 0.24841 0.0
C1012 C 0.34956 0.36137 0.33482 0.0
C1013 C 0.33956 0.37459 0.31547 0.0
C1014 C 0.36399 0.37193 0.328 0.0
N1015 N 0.33772 0.36281 0.32835 0.0
C1016 C 0.35381 0.38548 0.30842 0.0
C1017 C 0.36614 0.38403 0.31446 0.0
H1018 H 0.34772 0.35177 0.34479 0.0
H1019 H 0.32997 0.37529 0.30995 0.0
C1020 C 0.26708 0.31135 0.29623 0.0
N1021 N 0.28047 0.32423 0.29686 0.0
C1022 C 0.25746 0.3083 0.27763 0.0
C1023 C 0.27556 0.33187 0.26076 0.0
C1024 C 0.28481 0.33446 0.27968 0.0
C1025 C 0.2617 0.31869 0.25975 0.0
H1026 H 0.26376 0.30353 0.31027 0.0
H1027 H 0.29544 0.34469 0.28078 0.0
O1028 O 0.31669 0.3381 0.36719 0.0
O1029 O 0.28434 0.31671 0.35043 0.0
O1030 O 0.30072 0.3493 0.33469 0.0
O1031 O 0.31231 0.32825 0.31797 0.0
H1032 H 0.3131 0.3208 0.40295 0.0
H1033 H 0.33669 0.36602 0.37804 0.0
H1034 H 0.32628 0.32966 0.44014 0.0
H1035 H 0.3493 0.37411 0.41575 0.0
H1036 H 0.26303 0.26669 0.33898 0.0
H1037 H 0.26883 0.30774 0.38904 0.0
H1038 H 0.27932 0.29288 0.32643 0.0
H1039 H 0.25277 0.2813 0.40056 0.0
H1040 H 0.28122 0.33334 0.44489 0.0
H1041 H 0.26936 0.35928 0.40072 0.0
H1042 H 0.33254 0.29219 0.34216 0.0
H1043 H 0.30057 0.2776 0.39748 0.0
H1044 H 0.29452 0.36451 0.30449 0.0
H1045 H 0.31514 0.36704 0.36972 0.0
H1046 H 0.30185 0.39121 0.30842 0.0
H1047 H 0.32225 0.39371 0.37247 0.0
H1048 H 0.32487 0.34858 0.28528 0.0
H1049 H 0.29852 0.30147 0.2988 0.0
H1050 H 0.32307 0.34302 0.24359 0.0
H1051 H 0.29699 0.29673 0.25685 0.0
H1052 H 0.37332 0.37048 0.33271 0.0
H1053 H 0.35517 0.39463 0.29769 0.0
H1054 H 0.24677 0.29806 0.27728 0.0
H1055 H 0.27908 0.34009 0.24718 0.0
Li1056 Li 0.3182 0.01594 0.67128 0.0
Li1057 Li 0.34554 0.02958 0.68118 0.0
Li1058 Li 0.32944 0.03864 0.69455 0.0
Li1059 Li 0.3367 0.04139 0.65552 0.0
C1060 C 0.32651 0.01819 0.7246 0.0
N1061 N 0.3238 0.01772 0.77179 0.0
C1062 C 0.33921 0.02585 0.73834 0.0
C1063 C 0.31244 0.01024 0.73483 0.0
C1064 C 0.3376 0.02549 0.76218 0.0
C1065 C 0.31131 0.01015 0.75873 0.0
C1066 C 0.34276 0.01418 0.64402 0.0
C1067 C 0.36471 0.01369 0.63133 0.0
N1068 N 0.35703 0.99853 0.63254 0.0
C1069 C 0.33507 0.99859 0.64502 0.0
C1070 C 0.35768 0.0218 0.63697 0.0
C1071 C 0.34248 0.99089 0.63916 0.0
C1072 C 0.29353 0.99529 0.64545 0.0
N1073 N 0.30108 0.9971 0.66529 0.0
C1074 C 0.28428 0.97177 0.67576 0.0
C1075 C 0.29696 0.9856 0.68011 0.0
C1076 C 0.27516 0.96972 0.65638 0.0
C1077 C 0.28079 0.98168 0.64046 0.0
H1078 H 0.29751 0.00444 0.63337 0.0
H1079 H 0.30371 0.98706 0.69513 0.0
C1080 C 0.37551 0.03721 0.69214 0.0
N1081 N 0.36117 0.02589 0.68993 0.0
C1082 C 0.38663 0.03425 0.69947 0.0
C1083 C 0.36798 0.00809 0.7023 0.0
C1084 C 0.35724 0.01155 0.69493 0.0
C1085 C 0.38283 0.01955 0.7047 0.0
H1086 H 0.37827 0.04856 0.68868 0.0
H1087 H 0.3457 0.00283 0.69344 0.0
C1088 C 0.30532 0.03705 0.67429 0.0
N1089 N 0.28351 0.04335 0.68821 0.0
C1090 C 0.30895 0.05179 0.67861 0.0
C1091 C 0.29057 0.02553 0.677 0.0
C1092 C 0.29777 0.05474 0.68568 0.0
C1093 C 0.27971 0.02894 0.68404 0.0
C1094 C 0.3589 0.06419 0.67307 0.0
C1095 C 0.35602 0.07583 0.67715 0.0
C1096 C 0.37061 0.06655 0.65845 0.0
C1097 C 0.36488 0.08962 0.66653 0.0
C1098 C 0.37919 0.0805 0.64811 0.0
N1099 N 0.37618 0.09165 0.65234 0.0
C1100 C 0.33761 0.05914 0.73107 0.0
C1101 C 0.31166 0.04174 0.7298 0.0
C1102 C 0.33568 0.0661 0.75022 0.0
N1103 N 0.32564 0.0474 0.72096 0.0
C1104 C 0.30919 0.04844 0.7488 0.0
C1105 C 0.32131 0.06081 0.75903 0.0
H1106 H 0.34869 0.06306 0.72433 0.0
H1107 H 0.3024 0.03201 0.72214 0.0
C1108 C 0.34838 0.0515 0.61056 0.0
N1109 N 0.34117 0.05351 0.62854 0.0
C1110 C 0.35185 0.06047 0.59101 0.0
C1111 C 0.34034 0.07333 0.60877 0.0
C1112 C 0.33707 0.06411 0.6279 0.0
C1113 C 0.34778 0.0715 0.5901 0.0
H1114 H 0.35142 0.04293 0.61138 0.0
H1115 H 0.33135 0.06549 0.64229 0.0
O1116 O 0.32783 0.0188 0.70122 0.0
O1117 O 0.3358 0.02193 0.65026 0.0
O1118 O 0.31607 0.03389 0.66725 0.0
O1119 O 0.3501 0.05047 0.68284 0.0
H1120 H 0.35017 0.03217 0.73067 0.0
H1121 H 0.30249 0.00441 0.7244 0.0
H1122 H 0.34732 0.03143 0.77304 0.0
H1123 H 0.30049 0.00413 0.76689 0.0
H1124 H 0.37629 0.01945 0.62608 0.0
H1125 H 0.32354 0.99249 0.65042 0.0
H1126 H 0.36385 0.03385 0.63625 0.0
H1127 H 0.33668 0.97883 0.63996 0.0
H1128 H 0.28223 0.96283 0.68735 0.0
H1129 H 0.2759 0.98071 0.62376 0.0
H1130 H 0.39799 0.04333 0.7015 0.0
H1131 H 0.36473 0.99666 0.70649 0.0
H1132 H 0.32032 0.06082 0.6772 0.0
H1133 H 0.28752 0.01406 0.67384 0.0
H1134 H 0.30047 0.06607 0.6893 0.0
H1135 H 0.26827 0.02012 0.68624 0.0
H1136 H 0.3469 0.0742 0.6881 0.0
H1137 H 0.37288 0.05765 0.65476 0.0
H1138 H 0.36272 0.09869 0.66946 0.0
H1139 H 0.3882 0.08243 0.63663 0.0
H1140 H 0.34525 0.07552 0.75804 0.0
H1141 H 0.298 0.044 0.75553 0.0
H1142 H 0.35755 0.05879 0.57673 0.0
H1143 H 0.33702 0.08173 0.60846 0.0
Li1144 Li 0.98424 0.30367 0.67203 0.0
Li1145 Li 0.97133 0.31568 0.68224 0.0
Li1146 Li 0.96364 0.29093 0.69859 0.0
Li1147 Li 0.95924 0.29486 0.65586 0.0
C1148 C 0.99566 0.31324 0.71312 0.0
N1149 N 0.02286 0.32007 0.73196 0.0
C1150 C 0.00851 0.32666 0.70753 0.0
C1151 C 0.99661 0.30336 0.72845 0.0
C1152 C 0.02217 0.32988 0.71717 0.0
C1153 C 0.01047 0.30702 0.73778 0.0
C1154 C 0.98034 0.32711 0.64108 0.0
C1155 C 0.97298 0.34108 0.61652 0.0
N1156 N 0.98574 0.35385 0.62216 0.0
C1157 C 0.99344 0.34035 0.64647 0.0
C1158 C 0.97005 0.32745 0.62589 0.0
C1159 C 0.99594 0.35376 0.6368 0.0
C1160 C 0.01043 0.3157 0.64577 0.0
N1161 N 0.00356 0.30656 0.66393 0.0
C1162 C 0.02451 0.30302 0.66961 0.0
C1163 C 0.01023 0.30009 0.67571 0.0
C1164 C 0.0319 0.31271 0.65128 0.0
C1165 C 0.0247 0.31898 0.63916 0.0
H1166 H 0.00486 0.32051 0.63639 0.0
H1167 H 0.00454 0.29274 0.68994 0.0
C1168 C 0.98242 0.34192 0.70824 0.0
N1169 N 0.97329 0.33464 0.69023 0.0
C1170 C 0.98494 0.35593 0.71486 0.0
C1171 C 0.96827 0.35464 0.68473 0.0
C1172 C 0.96613 0.34065 0.67859 0.0
C1173 C 0.97788 0.36244 0.70295 0.0
H1174 H 0.98778 0.33686 0.71752 0.0
H1175 H 0.95882 0.33465 0.66447 0.0
C1176 C 0.97431 0.27507 0.6635 0.0
N1177 N 0.98935 0.26056 0.65006 0.0
C1178 C 0.97876 0.27578 0.64068 0.0
C1179 C 0.9774 0.2669 0.67947 0.0
C1180 C 0.98641 0.26841 0.63423 0.0
C1181 C 0.98502 0.25964 0.67233 0.0
C1182 C 0.94254 0.3045 0.69114 0.0
C1183 C 0.94319 0.30894 0.71396 0.0
C1184 C 0.93385 0.30699 0.67533 0.0
C1185 C 0.93523 0.31595 0.72057 0.0
C1186 C 0.92601 0.31399 0.68264 0.0
N1187 N 0.92687 0.31831 0.70491 0.0
C1188 C 0.95625 0.28384 0.74511 0.0
C1189 C 0.94691 0.2629 0.72024 0.0
C1190 C 0.94922 0.27457 0.76388 0.0
N1191 N 0.9549 0.27789 0.72384 0.0
C1192 C 0.9398 0.2532 0.73858 0.0
C1193 C 0.94081 0.25908 0.76061 0.0
H1194 H 0.96268 0.29581 0.74741 0.0
H1195 H 0.94594 0.25852 0.70307 0.0
C1196 C 0.95216 0.28717 0.60942 0.0
N1197 N 0.94622 0.28565 0.63073 0.0
C1198 C 0.94292 0.27998 0.59069 0.0
C1199 C 0.92159 0.26999 0.61612 0.0
C1200 C 0.93127 0.27727 0.63442 0.0
C1201 C 0.92747 0.27123 0.59402 0.0
H1202 H 0.9641 0.29391 0.60704 0.0
H1203 H 0.92689 0.27616 0.65162 0.0
O1204 O 0.98219 0.30985 0.70376 0.0
O1205 O 0.97765 0.31387 0.65049 0.0
O1206 O 0.9671 0.28247 0.67024 0.0
O1207 O 0.9505 0.29791 0.68424 0.0
H1208 H 0.00797 0.33443 0.69571 0.0
H1209 H 0.9868 0.29291 0.73289 0.0
H1210 H 0.03222 0.34016 0.71285 0.0
H1211 H 0.0114 0.29944 0.74956 0.0
H1212 H 0.96508 0.34152 0.60486 0.0
H1213 H 0.00153 0.34028 0.65816 0.0
H1214 H 0.95982 0.31733 0.62161 0.0
H1215 H 0.00597 0.3641 0.64097 0.0
H1216 H 0.02978 0.29791 0.67912 0.0
H1217 H 0.0301 0.32638 0.62476 0.0
H1218 H 0.9923 0.36164 0.72917 0.0
H1219 H 0.96255 0.35936 0.67538 0.0
H1220 H 0.97654 0.28214 0.62816 0.0
H1221 H 0.97414 0.26634 0.69725 0.0
H1222 H 0.99004 0.26897 0.61667 0.0
H1223 H 0.98757 0.25334 0.68452 0.0
H1224 H 0.94995 0.30719 0.72635 0.0
H1225 H 0.93333 0.30374 0.65755 0.0
H1226 H 0.93573 0.31957 0.73814 0.0
H1227 H 0.9193 0.31606 0.67058 0.0
H1228 H 0.9502 0.27941 0.78072 0.0
H1229 H 0.93338 0.24128 0.73559 0.0
H1230 H 0.94776 0.28114 0.57379 0.0
H1231 H 0.90969 0.2633 0.61917 0.0
Li1232 Li 0.69513 0.67896 0.67349 0.0
Li1233 Li 0.68235 0.65227 0.68215 0.0
Li1234 Li 0.70789 0.67033 0.69795 0.0
Li1235 Li 0.70498 0.66295 0.65767 0.0
C1236 C 0.6814 0.67633 0.71276 0.0
N1237 N 0.66726 0.69116 0.72904 0.0
C1238 C 0.66583 0.66936 0.71249 0.0
C1239 C 0.68976 0.69076 0.72165 0.0
C1240 C 0.65889 0.67705 0.72074 0.0
C1241 C 0.68241 0.6981 0.72968 0.0
C1242 C 0.67542 0.65317 0.63518 0.0
C1243 C 0.66474 0.63139 0.6108 0.0
N1244 N 0.65502 0.63537 0.60219 0.0
C1245 C 0.66546 0.65715 0.62581 0.0
C1246 C 0.67517 0.64027 0.62739 0.0
C1247 C 0.65518 0.64797 0.60926 0.0
C1248 C 0.70284 0.709 0.66392 0.0
N1249 N 0.6914 0.69478 0.66669 0.0
C1250 C 0.67353 0.70217 0.65746 0.0
C1251 C 0.67695 0.69125 0.66391 0.0
C1252 C 0.68513 0.71683 0.65401 0.0
C1253 C 0.69992 0.72034 0.65766 0.0
H1254 H 0.71423 0.71149 0.66605 0.0
H1255 H 0.66808 0.67987 0.66631 0.0
C1256 C 0.66291 0.62521 0.70426 0.0
N1257 N 0.66353 0.63497 0.68817 0.0
C1258 C 0.64945 0.61222 0.709 0.0
C1259 C 0.63732 0.61995 0.68151 0.0
C1260 C 0.65099 0.6328 0.67735 0.0
C1261 C 0.63634 0.60871 0.69647 0.0
H1262 H 0.6729 0.62761 0.71361 0.0
H1263 H 0.6515 0.64124 0.66589 0.0
C1264 C 0.73038 0.69355 0.67702 0.0
N1265 N 0.7592 0.71329 0.69107 0.0
C1266 C 0.74243 0.69308 0.66707 0.0
C1267 C 0.73302 0.70423 0.69384 0.0
C1268 C 0.75691 0.70312 0.67446 0.0
C1269 C 0.74766 0.71405 0.70081 0.0
C1270 C 0.70165 0.63755 0.68193 0.0
C1271 C 0.71437 0.63739 0.68966 0.0
C1272 C 0.69012 0.62476 0.67163 0.0
C1273 C 0.71555 0.62466 0.68628 0.0
C1274 C 0.69171 0.61223 0.66859 0.0
N1275 N 0.7043 0.61245 0.67587 0.0
C1276 C 0.71693 0.67809 0.74427 0.0
C1277 C 0.73403 0.67515 0.72084 0.0
C1278 C 0.72637 0.68151 0.76321 0.0
N1279 N 0.72089 0.67498 0.72363 0.0
C1280 C 0.74376 0.67843 0.73932 0.0
C1281 C 0.7399 0.6816 0.76077 0.0
H1282 H 0.7064 0.67783 0.74603 0.0
H1283 H 0.73697 0.67276 0.70421 0.0
C1284 C 0.71024 0.66092 0.61055 0.0
N1285 N 0.71436 0.65944 0.63212 0.0
C1286 C 0.71685 0.65842 0.59148 0.0
C1287 C 0.73243 0.65371 0.61709 0.0
C1288 C 0.72532 0.65604 0.63569 0.0
C1289 C 0.7281 0.65481 0.5947 0.0
H1290 H 0.70187 0.66413 0.60812 0.0
H1291 H 0.72879 0.65548 0.65295 0.0
O1292 O 0.6884 0.66909 0.70428 0.0
O1293 O 0.68548 0.66198 0.65159 0.0
O1294 O 0.71609 0.6836 0.67032 0.0
O1295 O 0.70029 0.64994 0.68526 0.0
H1296 H 0.65916 0.65818 0.70581 0.0
H1297 H 0.7018 0.69629 0.72219 0.0
H1298 H 0.64685 0.67182 0.72048 0.0
H1299 H 0.68876 0.70932 0.73642 0.0
H1300 H 0.66445 0.62137 0.60467 0.0
H1301 H 0.66562 0.66721 0.63123 0.0
H1302 H 0.68316 0.63732 0.63369 0.0
H1303 H 0.64734 0.65088 0.60201 0.0
H1304 H 0.66201 0.69918 0.65469 0.0
H1305 H 0.70908 0.73158 0.65495 0.0
H1306 H 0.64963 0.60553 0.72298 0.0
H1307 H 0.62763 0.6193 0.67343 0.0
H1308 H 0.74063 0.68503 0.65385 0.0
H1309 H 0.72386 0.70482 0.70162 0.0
H1310 H 0.76633 0.70282 0.667 0.0
H1311 H 0.74984 0.72226 0.71399 0.0
H1312 H 0.7233 0.64702 0.69805 0.0
H1313 H 0.67995 0.62436 0.66628 0.0
H1314 H 0.72541 0.62448 0.69199 0.0
H1315 H 0.68288 0.6023 0.66055 0.0
H1316 H 0.7231 0.68388 0.77964 0.0
H1317 H 0.75414 0.67841 0.73697 0.0
H1318 H 0.71342 0.65954 0.57437 0.0
H1319 H 0.74125 0.65117 0.62009 0.0
Li1320 Li 0.34766 0.31832 0.6799 0.0
Li1321 Li 0.33099 0.29343 0.69444 0.0
Li1322 Li 0.33786 0.29633 0.65356 0.0
Li1323 Li 0.32111 0.30413 0.66885 0.0
C1324 C 0.36516 0.30481 0.67368 0.0
N1325 N 0.39328 0.31206 0.65847 0.0
C1326 C 0.37232 0.29755 0.68278 0.0
C1327 C 0.37228 0.31574 0.65679 0.0
C1328 C 0.38654 0.30138 0.67489 0.0
C1329 C 0.3865 0.31924 0.64935 0.0
C1330 C 0.32672 0.31033 0.7222 0.0
C1331 C 0.30896 0.30102 0.75326 0.0
N1332 N 0.32041 0.3061 0.76856 0.0
C1333 C 0.33832 0.31559 0.73821 0.0
C1334 C 0.31192 0.30309 0.72974 0.0
C1335 C 0.33489 0.31329 0.76158 0.0
C1336 C 0.36378 0.34993 0.68185 0.0
N1337 N 0.36399 0.33737 0.68808 0.0
C1338 C 0.38653 0.35178 0.7093 0.0
C1339 C 0.37506 0.33804 0.70152 0.0
C1340 C 0.38649 0.36487 0.70327 0.0
C1341 C 0.37505 0.36393 0.68924 0.0
H1342 H 0.35462 0.34904 0.67174 0.0
H1343 H 0.37476 0.32787 0.70677 0.0
C1344 C 0.31413 0.26964 0.72592 0.0
N1345 N 0.32791 0.28112 0.7205 0.0
C1346 C 0.31221 0.2607 0.74501 0.0
C1347 C 0.33872 0.27551 0.75248 0.0
C1348 C 0.34011 0.28417 0.73327 0.0
C1349 C 0.32463 0.26364 0.75843 0.0
H1350 H 0.30464 0.26738 0.71543 0.0
H1351 H 0.35093 0.29337 0.72853 0.0
C1352 C 0.33343 0.3187 0.62897 0.0
N1353 N 0.32182 0.32447 0.59009 0.0
C1354 C 0.32515 0.3073 0.61322 0.0
C1355 C 0.33575 0.33302 0.62495 0.0
C1356 C 0.31939 0.31044 0.59367 0.0
C1357 C 0.32981 0.33572 0.60518 0.0
C1358 C 0.30361 0.27445 0.66118 0.0
C1359 C 0.30033 0.26706 0.64005 0.0
C1360 C 0.29196 0.27249 0.67558 0.0
C1361 C 0.28543 0.25788 0.63365 0.0
C1362 C 0.27721 0.26322 0.66856 0.0
N1363 N 0.27428 0.25617 0.64792 0.0
C1364 C 0.33852 0.27293 0.63056 0.0
C1365 C 0.35057 0.29594 0.6104 0.0
C1366 C 0.34126 0.26574 0.61253 0.0
N1367 N 0.34293 0.28767 0.62896 0.0
C1368 C 0.35353 0.2892 0.59196 0.0
C1369 C 0.34867 0.27391 0.5929 0.0
H1370 H 0.3326 0.26671 0.64567 0.0
H1371 H 0.35411 0.3077 0.60975 0.0
C1372 C 0.30409 0.31825 0.67312 0.0
N1373 N 0.30484 0.30731 0.66129 0.0
C1374 C 0.29377 0.32259 0.66683 0.0
C1375 C 0.28483 0.30396 0.63683 0.0
C1376 C 0.29543 0.30013 0.64348 0.0
C1377 C 0.28416 0.31551 0.64828 0.0
H1378 H 0.31188 0.324 0.68692 0.0
H1379 H 0.29645 0.2918 0.63382 0.0
O1380 O 0.35117 0.30105 0.68113 0.0
O1381 O 0.32984 0.31201 0.69923 0.0
O1382 O 0.33901 0.31579 0.64838 0.0
O1383 O 0.31814 0.28343 0.66775 0.0
H1384 H 0.36692 0.28903 0.6958 0.0
H1385 H 0.36691 0.32146 0.64949 0.0
H1386 H 0.39222 0.29586 0.68179 0.0
H1387 H 0.39214 0.32767 0.6363 0.0
H1388 H 0.29755 0.29535 0.75935 0.0
H1389 H 0.34983 0.32118 0.73264 0.0
H1390 H 0.30283 0.29907 0.71756 0.0
H1391 H 0.34375 0.31718 0.77417 0.0
H1392 H 0.39513 0.35219 0.72039 0.0
H1393 H 0.37464 0.37386 0.68464 0.0
H1394 H 0.30121 0.2516 0.74928 0.0
H1395 H 0.34848 0.27802 0.76261 0.0
H1396 H 0.32293 0.29608 0.61625 0.0
H1397 H 0.34204 0.34198 0.63694 0.0
H1398 H 0.3129 0.3017 0.58143 0.0
H1399 H 0.33152 0.34676 0.60188 0.0
H1400 H 0.30916 0.26845 0.62862 0.0
H1401 H 0.29427 0.27826 0.69183 0.0
H1402 H 0.28274 0.25213 0.61733 0.0
H1403 H 0.2681 0.26169 0.67948 0.0
H1404 H 0.3374 0.25391 0.61365 0.0
H1405 H 0.3593 0.29575 0.57698 0.0
H1406 H 0.29361 0.33167 0.67583 0.0
H1407 H 0.27767 0.29843 0.62225 0.0
Li1408 Li 0.68411 0.03138 0.68299 0.0
Li1409 Li 0.70772 0.03845 0.6978 0.0
Li1410 Li 0.70539 0.04275 0.65721 0.0
Li1411 Li 0.69572 0.01629 0.67378 0.0
C1412 C 0.69651 0.06174 0.68493 0.0
N1413 N 0.6865 0.08196 0.68725 0.0
C1414 C 0.69244 0.06506 0.70605 0.0
C1415 C 0.69566 0.06883 0.66503 0.0
C1416 C 0.68735 0.07527 0.70685 0.0
C1417 C 0.69053 0.079 0.66656 0.0
C1418 C 0.68901 0.01738 0.72663 0.0
C1419 C 0.69202 0.00482 0.75928 0.0
N1420 N 0.68945 0.01372 0.77352 0.0
C1421 C 0.68623 0.02629 0.74155 0.0
C1422 C 0.69181 0.00647 0.7355 0.0
C1423 C 0.68658 0.02432 0.76521 0.0
C1424 C 0.65581 0.01547 0.70173 0.0
N1425 N 0.66461 0.02834 0.69007 0.0
C1426 C 0.64527 0.03463 0.69097 0.0
C1427 C 0.65949 0.03771 0.68411 0.0
C1428 C 0.63622 0.02163 0.70354 0.0
C1429 C 0.64151 0.01187 0.70864 0.0
H1430 H 0.65991 0.00797 0.70572 0.0
H1431 H 0.66634 0.04755 0.67405 0.0
C1432 C 0.72517 0.06217 0.72714 0.0
N1433 N 0.72075 0.04756 0.7235 0.0
C1434 C 0.73402 0.06969 0.746 0.0
C1435 C 0.73426 0.04722 0.75662 0.0
C1436 C 0.72527 0.04007 0.73758 0.0
C1437 C 0.73848 0.06213 0.76106 0.0
H1438 H 0.72171 0.06798 0.7155 0.0
H1439 H 0.7218 0.02852 0.73422 0.0
C1440 C 0.67219 0.01988 0.64375 0.0
N1441 N 0.64375 0.0118 0.62907 0.0
C1442 C 0.66044 0.00534 0.64725 0.0
C1443 C 0.66951 0.03029 0.63266 0.0
C1444 C 0.64613 0.00148 0.63974 0.0
C1445 C 0.65504 0.02598 0.62538 0.0
C1446 C 0.72935 0.03504 0.6807 0.0
C1447 C 0.74213 0.04916 0.68152 0.0
C1448 C 0.7297 0.0228 0.69014 0.0
C1449 C 0.75505 0.05082 0.69193 0.0
C1450 C 0.74284 0.0249 0.70032 0.0
N1451 N 0.75513 0.03876 0.70102 0.0
C1452 C 0.72831 0.06774 0.63501 0.0
C1453 C 0.70976 0.05009 0.61002 0.0
C1454 C 0.73693 0.07604 0.61635 0.0
N1455 N 0.7152 0.05489 0.63149 0.0
C1456 C 0.71788 0.0582 0.59087 0.0
C1457 C 0.73181 0.07112 0.594 0.0
H1458 H 0.73227 0.0713 0.65231 0.0
H1459 H 0.69936 0.03974 0.60777 0.0
C1460 C 0.68039 0.98473 0.67583 0.0
N1461 N 0.69224 0.99701 0.66657 0.0
C1462 C 0.67707 0.97047 0.66886 0.0
C1463 C 0.69845 0.98185 0.64349 0.0
C1464 C 0.70128 0.99586 0.65079 0.0
C1465 C 0.68613 0.969 0.65237 0.0
H1466 H 0.67332 0.98605 0.68817 0.0
H1467 H 0.71051 0.00586 0.64358 0.0
O1468 O 0.70176 0.05198 0.68387 0.0
O1469 O 0.68892 0.01928 0.70343 0.0
O1470 O 0.68614 0.02403 0.65178 0.0
O1471 O 0.7165 0.03323 0.67101 0.0
H1472 H 0.69321 0.05983 0.72165 0.0
H1473 H 0.69883 0.06647 0.64856 0.0
H1474 H 0.68409 0.0779 0.72305 0.0
H1475 H 0.68975 0.08451 0.65129 0.0
H1476 H 0.69427 0.99649 0.76642 0.0
H1477 H 0.6839 0.03467 0.73489 0.0
H1478 H 0.69395 0.99947 0.72414 0.0
H1479 H 0.68457 0.03121 0.77697 0.0
H1480 H 0.64142 0.04232 0.68666 0.0
H1481 H 0.63473 0.0017 0.71823 0.0
H1482 H 0.73721 0.08125 0.749 0.0
H1483 H 0.73761 0.04114 0.768 0.0
H1484 H 0.66233 0.99719 0.65594 0.0
H1485 H 0.67846 0.04162 0.63001 0.0
H1486 H 0.6369 0.9903 0.64248 0.0
H1487 H 0.65277 0.03395 0.61691 0.0
H1488 H 0.74204 0.05877 0.67447 0.0
H1489 H 0.71986 0.01182 0.68996 0.0
H1490 H 0.76499 0.0617 0.69282 0.0
H1491 H 0.74325 0.01554 0.70779 0.0
H1492 H 0.74764 0.08597 0.61929 0.0
H1493 H 0.71367 0.05413 0.57379 0.0
H1494 H 0.66741 0.96072 0.67582 0.0
H1495 H 0.70556 0.98103 0.6306 0.0
Li1496 Li 0.96481 0.67454 0.69376 0.0
Li1497 Li 0.97128 0.6565 0.67915 0.0
Li1498 Li 0.98551 0.68311 0.66862 0.0
Li1499 Li 0.96081 0.66805 0.65264 0.0
C1500 C 0.98515 0.67706 0.72184 0.0
N1501 N 0.98738 0.68357 0.76815 0.0
C1502 C 0.97806 0.66557 0.73789 0.0
C1503 C 0.99352 0.69183 0.72933 0.0
C1504 C 0.97927 0.6691 0.76123 0.0
C1505 C 0.99448 0.6949 0.75282 0.0
C1506 C 0.94009 0.64132 0.67221 0.0
C1507 C 0.93141 0.6197 0.64783 0.0
N1508 N 0.91736 0.61433 0.65615 0.0
C1509 C 0.92557 0.63562 0.68048 0.0
C1510 C 0.94306 0.63332 0.65572 0.0
C1511 C 0.91423 0.62194 0.67216 0.0
C1512 C 0.95952 0.69237 0.72572 0.0
N1513 N 0.95602 0.67828 0.71975 0.0
C1514 C 0.93898 0.66806 0.75115 0.0
C1515 C 0.94595 0.66621 0.73196 0.0
C1516 C 0.94243 0.68247 0.75769 0.0
C1517 C 0.95283 0.69475 0.74484 0.0
H1518 H 0.96748 0.70176 0.7157 0.0
H1519 H 0.94341 0.65514 0.72681 0.0
C1520 C 0.98389 0.63764 0.68095 0.0
N1521 N 0.97202 0.63905 0.68737 0.0
C1522 C 0.98509 0.62544 0.68839 0.0
C1523 C 0.96179 0.61635 0.70884 0.0
C1524 C 0.96105 0.62871 0.70101 0.0
C1525 C 0.974 0.61474 0.70266 0.0
H1526 H 0.99263 0.64619 0.67061 0.0
H1527 H 0.95191 0.63027 0.70633 0.0
C1528 C 0.97554 0.70245 0.66044 0.0
N1529 N 0.98874 0.73192 0.6467 0.0
C1530 C 0.9722 0.70607 0.63896 0.0
C1531 C 0.98555 0.71383 0.67496 0.0
C1532 C 0.979 0.72104 0.63233 0.0
C1533 C 0.99213 0.72865 0.66769 0.0
C1534 C 0.98736 0.67065 0.62906 0.0
C1535 C 0.9851 0.67916 0.61262 0.0
C1536 C 0.99927 0.668 0.62649 0.0
C1537 C 0.99471 0.68479 0.59381 0.0
C1538 C 0.00863 0.6738 0.60741 0.0
N1539 N 0.00618 0.68201 0.59161 0.0
C1540 C 0.0167 0.69834 0.67412 0.0
C1541 C 0.00878 0.70815 0.64395 0.0
C1542 C 0.03166 0.70807 0.66858 0.0
N1543 N 0.00561 0.69847 0.66173 0.0
C1544 C 0.02355 0.71819 0.63805 0.0
C1545 C 0.03513 0.71803 0.65024 0.0
H1546 H 0.01391 0.69035 0.68785 0.0
H1547 H 0.9999 0.70779 0.6338 0.0
C1548 C 0.93766 0.66917 0.62935 0.0
N1549 N 0.94735 0.66394 0.6279 0.0
C1550 C 0.92768 0.66666 0.61148 0.0
C1551 C 0.93757 0.65305 0.59127 0.0
C1552 C 0.94734 0.65581 0.60955 0.0
C1553 C 0.92771 0.65862 0.59215 0.0
H1554 H 0.93783 0.67545 0.64431 0.0
H1555 H 0.95502 0.65158 0.60904 0.0
O1556 O 0.98364 0.67388 0.69889 0.0
O1557 O 0.95125 0.6548 0.67995 0.0
O1558 O 0.96891 0.68786 0.66725 0.0
O1559 O 0.97813 0.66516 0.64774 0.0
H1560 H 0.97149 0.65409 0.73237 0.0
H1561 H 0.99915 0.70083 0.71712 0.0
H1562 H 0.97373 0.66034 0.77384 0.0
H1563 H 0.00084 0.70629 0.75886 0.0
H1564 H 0.93355 0.6134 0.63507 0.0
H1565 H 0.92309 0.64172 0.69315 0.0
H1566 H 0.95421 0.6376 0.649 0.0
H1567 H 0.90293 0.61739 0.67841 0.0
H1568 H 0.931 0.6584 0.76082 0.0
H1569 H 0.9557 0.706 0.74957 0.0
H1570 H 0.99474 0.62455 0.68363 0.0
H1571 H 0.95316 0.60834 0.72009 0.0
H1572 H 0.9645 0.69744 0.62747 0.0
H1573 H 0.98841 0.71124 0.69149 0.0
H1574 H 0.97654 0.72399 0.61574 0.0
H1575 H 0.99997 0.73755 0.67869 0.0
H1576 H 0.97619 0.68166 0.61455 0.0
H1577 H 0.00134 0.6616 0.63909 0.0
H1578 H 0.99311 0.69145 0.58103 0.0
H1579 H 0.01789 0.67183 0.60523 0.0
H1580 H 0.0404 0.70758 0.67809 0.0
H1581 H 0.02592 0.72559 0.62354 0.0
H1582 H 0.92016 0.67107 0.61255 0.0
H1583 H 0.93778 0.64678 0.57653 0.0
H1584 H 0.22387 0.33654 0.14286 0.0
N1585 N 0.20509 0.312 0.11712 0.0
H1586 H 0.2361 0.33646 0.17867 0.0
H1587 H 0.19986 0.28838 0.14231 0.0
H1588 H 0.2122 0.28836 0.17851 0.0
H1589 H 0.2167 0.29851 0.09319 0.0
H1590 H 0.24004 0.31054 0.07115 0.0
H1591 H 0.21995 0.34128 0.1036 0.0
H1592 H 0.24353 0.3534 0.08195 0.0
H1593 H 0.19776 0.32959 0.14391 0.0
H1594 H 0.18413 0.30035 0.08508 0.0
H1595 H 0.17527 0.33111 0.14113 0.0
H1596 H 0.1619 0.30266 0.08116 0.0
H1597 H 0.11592 0.34081 0.13538 0.0
H1598 H 0.10499 0.34267 0.17166 0.0
H1599 H 0.08327 0.2949 0.17978 0.0
H1600 H 0.09406 0.29301 0.14315 0.0
H1601 H 0.08321 0.30137 0.0948 0.0
H1602 H 0.07198 0.31279 0.07117 0.0
H1603 H 0.11417 0.35389 0.0692 0.0
H1604 H 0.12533 0.34262 0.09312 0.0
H1605 H 0.13743 0.33893 0.12434 0.0
H1606 H 0.16138 0.33982 0.12224 0.0
H1607 H 0.1389 0.29401 0.09869 0.0
N1608 N 0.11002 0.31492 0.11375 0.0
H1609 H 0.11517 0.29368 0.09939 0.0
C1610 C 0.21084 0.31239 0.13987 0.0
C1611 C 0.22103 0.32594 0.15056 0.0
C1612 C 0.22803 0.32593 0.17101 0.0
C1613 C 0.22506 0.31242 0.18106 0.0
C1614 C 0.21458 0.29888 0.17092 0.0
C1615 C 0.20752 0.29889 0.15043 0.0
C1616 C 0.2167 0.31898 0.10014 0.0
C1617 C 0.22223 0.31042 0.0901 0.0
C1618 C 0.2355 0.31726 0.07763 0.0
C1619 C 0.24348 0.33282 0.07511 0.0
C1620 C 0.23746 0.34136 0.08371 0.0
C1621 C 0.22406 0.33446 0.09607 0.0
C1622 C 0.19262 0.31455 0.11487 0.0
C1623 C 0.19011 0.32362 0.13013 0.0
C1624 C 0.17717 0.32464 0.12836 0.0
C1625 C 0.16657 0.3169 0.11104 0.0
C1626 C 0.16954 0.30847 0.09512 0.0
C1627 C 0.18233 0.30724 0.09717 0.0
C1628 C 0.10571 0.31669 0.13653 0.0
C1629 C 0.10905 0.33076 0.14509 0.0
C1630 C 0.1028 0.33183 0.16576 0.0
C1631 C 0.09328 0.31891 0.17823 0.0
C1632 C 0.09058 0.30497 0.17032 0.0
C1633 C 0.09674 0.30389 0.14956 0.0
C1634 C 0.10506 0.32104 0.09582 0.0
C1635 C 0.09014 0.3127 0.08873 0.0
C1636 C 0.08375 0.31922 0.07537 0.0
C1637 C 0.09223 0.33421 0.06872 0.0
C1638 C 0.10747 0.34231 0.07428 0.0
C1639 C 0.11384 0.33582 0.08792 0.0
C1640 C 0.1245 0.31625 0.11164 0.0
C1641 C 0.1377 0.32921 0.1182 0.0
C1642 C 0.15141 0.32962 0.11729 0.0
C1643 C 0.15219 0.31698 0.11032 0.0
C1644 C 0.13891 0.3041 0.10365 0.0
C1645 C 0.12528 0.30381 0.10419 0.0
H1646 H 0.7119 0.80243 0.14496 0.0
N1647 N 0.69032 0.79622 0.11466 0.0
H1648 H 0.70956 0.79006 0.18209 0.0
H1649 H 0.66419 0.77633 0.1359 0.0
H1650 H 0.6619 0.7639 0.17265 0.0
H1651 H 0.70342 0.78219 0.09683 0.0
H1652 H 0.69174 0.75941 0.07351 0.0
H1653 H 0.66283 0.78421 0.09388 0.0
H1654 H 0.65124 0.76159 0.07005 0.0
H1655 H 0.70953 0.82077 0.09258 0.0
H1656 H 0.66805 0.80126 0.12994 0.0
H1657 H 0.70934 0.84424 0.08947 0.0
H1658 H 0.66808 0.8248 0.12791 0.0
H1659 H 0.71206 0.92056 0.12984 0.0
H1660 H 0.71003 0.93156 0.16613 0.0
H1661 H 0.67042 0.89018 0.18333 0.0
H1662 H 0.67245 0.87918 0.14718 0.0
H1663 H 0.6635 0.88746 0.11368 0.0
H1664 H 0.65304 0.89974 0.09057 0.0
H1665 H 0.69391 0.92237 0.05175 0.0
H1666 H 0.70459 0.91026 0.0753 0.0
H1667 H 0.71487 0.88832 0.11543 0.0
H1668 H 0.71354 0.86411 0.11425 0.0
H1669 H 0.66578 0.8425 0.10443 0.0
N1670 N 0.69269 0.89399 0.11285 0.0
H1671 H 0.66719 0.86673 0.10653 0.0
C1672 C 0.6883 0.79032 0.13764 0.0
C1673 C 0.70094 0.79426 0.15117 0.0
C1674 C 0.69961 0.7872 0.17221 0.0
C1675 C 0.68557 0.77602 0.17991 0.0
C1676 C 0.67282 0.7725 0.16691 0.0
C1677 C 0.67414 0.77962 0.14596 0.0
C1678 C 0.68407 0.78491 0.09708 0.0
C1679 C 0.69216 0.77798 0.09054 0.0
C1680 C 0.68549 0.76499 0.07735 0.0
C1681 C 0.67059 0.75877 0.07032 0.0
C1682 C 0.66274 0.76623 0.07543 0.0
C1683 C 0.66938 0.77917 0.08893 0.0
C1684 C 0.68899 0.80934 0.11171 0.0
C1685 C 0.70037 0.82157 0.10006 0.0
C1686 C 0.70029 0.835 0.0985 0.0
C1687 C 0.68882 0.83653 0.10877 0.0
C1688 C 0.67706 0.82404 0.11969 0.0
C1689 C 0.67709 0.81054 0.12105 0.0
C1690 C 0.69249 0.89909 0.13581 0.0
C1691 C 0.70317 0.91377 0.14172 0.0
C1692 C 0.70199 0.92002 0.16229 0.0
C1693 C 0.69006 0.91166 0.17725 0.0
C1694 C 0.67971 0.89676 0.17194 0.0
C1695 C 0.68091 0.89049 0.15135 0.0
C1696 C 0.68495 0.89803 0.09629 0.0
C1697 C 0.67012 0.8947 0.09983 0.0
C1698 C 0.66412 0.90171 0.08665 0.0
C1699 C 0.67275 0.91198 0.06961 0.0
C1700 C 0.68709 0.91442 0.06482 0.0
C1701 C 0.69315 0.90751 0.07815 0.0
C1702 C 0.69124 0.87943 0.11089 0.0
C1703 C 0.70414 0.87834 0.11289 0.0
C1704 C 0.70335 0.86449 0.11204 0.0
C1705 C 0.68955 0.8513 0.10904 0.0
C1706 C 0.67657 0.85239 0.10694 0.0
C1707 C 0.67738 0.86631 0.10795 0.0
H1708 H 0.11292 0.77754 0.14435 0.0
N1709 N 0.10726 0.7963 0.11852 0.0
H1710 H 0.10119 0.76608 0.18095 0.0
H1711 H 0.08959 0.80233 0.14404 0.0
H1712 H 0.07776 0.79075 0.18089 0.0
H1713 H 0.08172 0.78448 0.09572 0.0
H1714 H 0.07042 0.76153 0.07268 0.0
H1715 H 0.12144 0.78135 0.10431 0.0
H1716 H 0.11007 0.75826 0.08135 0.0
H1717 H 0.13265 0.80373 0.14405 0.0
H1718 H 0.11591 0.81716 0.08641 0.0
H1719 H 0.15653 0.82642 0.14073 0.0
H1720 H 0.14028 0.83954 0.08186 0.0
H1721 H 0.22543 0.88789 0.13448 0.0
H1722 H 0.23798 0.89871 0.1709 0.0
H1723 H 0.20881 0.91667 0.18198 0.0
H1724 H 0.19658 0.9063 0.14491 0.0
H1725 H 0.2158 0.91904 0.09488 0.0
H1726 H 0.2385 0.93149 0.07138 0.0
H1727 H 0.24055 0.89092 0.06988 0.0
H1728 H 0.21793 0.87847 0.09335 0.0
H1729 H 0.20165 0.86522 0.12357 0.0
H1730 H 0.17893 0.84091 0.12149 0.0
H1731 H 0.15441 0.86249 0.0994 0.0
N1732 N 0.20411 0.89233 0.11399 0.0
H1733 H 0.17743 0.88653 0.10008 0.0
C1734 C 0.10216 0.7909 0.14148 0.0
C1735 C 0.10547 0.78071 0.15229 0.0
C1736 C 0.09879 0.77416 0.17316 0.0
C1737 C 0.08863 0.77758 0.18347 0.0
C1738 C 0.08562 0.78804 0.17313 0.0
C1739 C 0.09238 0.79466 0.15226 0.0
C1740 C 0.10233 0.78456 0.10171 0.0
C1741 C 0.08812 0.77904 0.09209 0.0
C1742 C 0.0817 0.766 0.07904 0.0
C1743 C 0.08943 0.75827 0.07542 0.0
C1744 C 0.104 0.76417 0.08393 0.0
C1745 C 0.11046 0.77729 0.097 0.0
C1746 C 0.12221 0.8088 0.11572 0.0
C1747 C 0.13408 0.8114 0.13042 0.0
C1748 C 0.14795 0.82444 0.12832 0.0
C1749 C 0.15041 0.83503 0.11118 0.0
C1750 C 0.13876 0.83192 0.0957 0.0
C1751 C 0.12483 0.81905 0.09811 0.0
C1752 C 0.21017 0.8965 0.13682 0.0
C1753 C 0.22161 0.89403 0.14474 0.0
C1754 C 0.22877 0.90018 0.16554 0.0
C1755 C 0.22441 0.9086 0.17896 0.0
C1756 C 0.21238 0.91028 0.17176 0.0
C1757 C 0.20539 0.90435 0.15075 0.0
C1758 C 0.21513 0.89787 0.09594 0.0
C1759 C 0.22085 0.91268 0.08882 0.0
C1760 C 0.23378 0.91978 0.07553 0.0
C1761 C 0.24115 0.91209 0.06904 0.0
C1762 C 0.23492 0.89696 0.07469 0.0
C1763 C 0.22198 0.88986 0.08809 0.0
C1764 C 0.19124 0.87768 0.11158 0.0
C1765 C 0.19147 0.86465 0.11769 0.0
C1766 C 0.17836 0.85074 0.11681 0.0
C1767 C 0.1647 0.84961 0.11029 0.0
C1768 C 0.16467 0.86274 0.10399 0.0
C1769 C 0.17781 0.87655 0.10451 0.0
H1770 H 0.33607 0.21471 0.87084 0.0
N1771 N 0.31399 0.20693 0.90283 0.0
H1772 H 0.33842 0.22783 0.83459 0.0
H1773 H 0.29379 0.21212 0.88364 0.0
H1774 H 0.29604 0.22507 0.84718 0.0
H1775 H 0.29989 0.2117 0.93688 0.0
H1776 H 0.30948 0.23448 0.96019 0.0
H1777 H 0.34341 0.2288 0.90636 0.0
H1778 H 0.35293 0.25137 0.92968 0.0
H1779 H 0.33918 0.20469 0.90966 0.0
H1780 H 0.29152 0.17926 0.90021 0.0
H1781 H 0.34015 0.18164 0.9118 0.0
H1782 H 0.29239 0.15614 0.90141 0.0
H1783 H 0.33948 0.11798 0.87533 0.0
H1784 H 0.3398 0.1061 0.8393 0.0
H1785 H 0.29185 0.07907 0.84125 0.0
H1786 H 0.29145 0.09129 0.87732 0.0
H1787 H 0.30036 0.08607 0.92637 0.0
H1788 H 0.31142 0.07409 0.94912 0.0
H1789 H 0.35521 0.11203 0.93778 0.0
H1790 H 0.34409 0.12415 0.91534 0.0
H1791 H 0.33738 0.13796 0.8865 0.0
H1792 H 0.33766 0.1616 0.88836 0.0
H1793 H 0.2961 0.14014 0.92604 0.0
N1794 N 0.31483 0.11074 0.90177 0.0
H1795 H 0.29558 0.11633 0.92304 0.0
C1796 C 0.31471 0.21246 0.87992 0.0
C1797 C 0.32717 0.2167 0.86567 0.0
C1798 C 0.32853 0.22418 0.84503 0.0
C1799 C 0.31742 0.22743 0.83838 0.0
C1800 C 0.30469 0.22263 0.8521 0.0
C1801 C 0.30339 0.21523 0.87274 0.0
C1802 C 0.32087 0.21844 0.91999 0.0
C1803 C 0.31161 0.22006 0.93587 0.0
C1804 C 0.31704 0.23304 0.94906 0.0
C1805 C 0.33188 0.24454 0.94655 0.0
C1806 C 0.34148 0.24253 0.93191 0.0
C1807 C 0.33602 0.22958 0.91867 0.0
C1808 C 0.31518 0.19369 0.90503 0.0
C1809 C 0.3289 0.19418 0.90814 0.0
C1810 C 0.32945 0.18093 0.90916 0.0
C1811 C 0.31634 0.16697 0.90689 0.0
C1812 C 0.30268 0.16662 0.90375 0.0
C1813 C 0.30214 0.17982 0.90291 0.0
C1814 C 0.31534 0.10569 0.87891 0.0
C1815 C 0.32897 0.10991 0.86778 0.0
C1816 C 0.32919 0.10304 0.84727 0.0
C1817 C 0.31586 0.09175 0.83774 0.0
C1818 C 0.30223 0.08783 0.84838 0.0
C1819 C 0.302 0.09481 0.8688 0.0
C1820 C 0.32137 0.1059 0.9191 0.0
C1821 C 0.31228 0.09202 0.92949 0.0
C1822 C 0.31858 0.0852 0.94235 0.0
C1823 C 0.3341 0.09218 0.94497 0.0
C1824 C 0.34319 0.10654 0.93595 0.0
C1825 C 0.33685 0.11342 0.92314 0.0
C1826 C 0.31625 0.12525 0.9043 0.0
C1827 C 0.32831 0.13827 0.89513 0.0
C1828 C 0.32854 0.1519 0.89642 0.0
C1829 C 0.31681 0.1528 0.90712 0.0
C1830 C 0.30514 0.13984 0.91717 0.0
C1831 C 0.30486 0.12624 0.91567 0.0
H1832 H 0.78409 0.10045 0.89189 0.0
N1833 N 0.78392 0.1267 0.89721 0.0
H1834 H 0.77473 0.0839 0.85845 0.0
H1835 H 0.77674 0.13283 0.85651 0.0
H1836 H 0.76753 0.11628 0.82285 0.0
H1837 H 0.78849 0.1114 0.93176 0.0
H1838 H 0.76919 0.09374 0.9582 0.0
H1839 H 0.75728 0.12355 0.90452 0.0
H1840 H 0.738 0.10586 0.93079 0.0
H1841 H 0.79436 0.15531 0.90604 0.0
H1842 H 0.80801 0.12238 0.89951 0.0
H1843 H 0.8204 0.17484 0.91104 0.0
H1844 H 0.8341 0.14185 0.90352 0.0
H1845 H 0.8921 0.23006 0.88554 0.0
H1846 H 0.90386 0.24125 0.84895 0.0
H1847 H 0.91506 0.20673 0.83882 0.0
H1848 H 0.90345 0.19556 0.87599 0.0
H1849 H 0.91799 0.21778 0.92581 0.0
H1850 H 0.93013 0.24045 0.9494 0.0
H1851 H 0.88932 0.24209 0.95016 0.0
H1852 H 0.87729 0.21975 0.92617 0.0
H1853 H 0.86774 0.20703 0.88674 0.0
H1854 H 0.84176 0.18744 0.88698 0.0
H1855 H 0.85315 0.15992 0.92846 0.0
N1856 N 0.89135 0.20582 0.90617 0.0
H1857 H 0.87946 0.17957 0.92738 0.0
C1858 C 0.78103 0.1179 0.87668 0.0
C1859 C 0.78083 0.10418 0.87678 0.0
C1860 C 0.7755 0.09472 0.85773 0.0
C1861 C 0.77046 0.09892 0.83833 0.0
C1862 C 0.77146 0.11294 0.8377 0.0
C1863 C 0.7767 0.12235 0.85679 0.0
C1864 C 0.77426 0.1188 0.91618 0.0
C1865 C 0.77767 0.11062 0.93194 0.0
C1866 C 0.76668 0.10054 0.94697 0.0
C1867 C 0.75222 0.09852 0.94627 0.0
C1868 C 0.74912 0.10734 0.93156 0.0
C1869 C 0.76009 0.11742 0.91669 0.0
C1870 C 0.79925 0.13748 0.90214 0.0
C1871 C 0.80301 0.15232 0.9058 0.0
C1872 C 0.81789 0.16346 0.90844 0.0
C1873 C 0.82939 0.15997 0.90732 0.0
C1874 C 0.82554 0.14494 0.9046 0.0
C1875 C 0.8106 0.13377 0.90213 0.0
C1876 C 0.89701 0.21196 0.88368 0.0
C1877 C 0.89699 0.22479 0.87555 0.0
C1878 C 0.90369 0.2312 0.85463 0.0
C1879 C 0.9104 0.22487 0.84135 0.0
C1880 C 0.90998 0.21179 0.84896 0.0
C1881 C 0.90336 0.20542 0.87003 0.0
C1882 C 0.89678 0.21699 0.92409 0.0
C1883 C 0.91154 0.22278 0.93158 0.0
C1884 C 0.91846 0.23571 0.94494 0.0
C1885 C 0.91064 0.24298 0.95125 0.0
C1886 C 0.89551 0.23662 0.94535 0.0
C1887 C 0.88864 0.22379 0.93169 0.0
C1888 C 0.87567 0.19472 0.90689 0.0
C1889 C 0.86476 0.19681 0.89584 0.0
C1890 C 0.84979 0.1856 0.89622 0.0
C1891 C 0.84531 0.17207 0.90778 0.0
C1892 C 0.85621 0.17011 0.91914 0.0
C1893 C 0.87122 0.18134 0.91868 0.0
H1894 H 0.78948 0.71113 0.88904 0.0
N1895 N 0.79924 0.69291 0.90205 0.0
H1896 H 0.77609 0.70977 0.85343 0.0
H1897 H 0.79667 0.67598 0.86396 0.0
H1898 H 0.78355 0.67482 0.82856 0.0
H1899 H 0.77625 0.6642 0.89641 0.0
H1900 H 0.7531 0.65259 0.91868 0.0
H1901 H 0.79531 0.70149 0.9432 0.0
H1902 H 0.77238 0.68943 0.96631 0.0
H1903 H 0.82615 0.7159 0.90969 0.0
H1904 H 0.80272 0.66836 0.89903 0.0
H1905 H 0.84978 0.71609 0.91155 0.0
H1906 H 0.8264 0.66848 0.89905 0.0
H1907 H 0.92382 0.71427 0.88385 0.0
H1908 H 0.9344 0.71152 0.84762 0.0
H1909 H 0.89306 0.67118 0.83289 0.0
H1910 H 0.88243 0.67403 0.86901 0.0
H1911 H 0.88976 0.66592 0.9039 0.0
H1912 H 0.90209 0.65579 0.92771 0.0
H1913 H 0.92698 0.69817 0.96209 0.0
H1914 H 0.91482 0.70848 0.93783 0.0
H1915 H 0.89087 0.71574 0.88771 0.0
H1916 H 0.8668 0.71456 0.88795 0.0
H1917 H 0.84686 0.67097 0.91971 0.0
N1918 N 0.89737 0.69537 0.90175 0.0
H1919 H 0.87076 0.67185 0.91792 0.0
C1920 C 0.79419 0.69378 0.87928 0.0
C1921 C 0.78859 0.70348 0.87563 0.0
C1922 C 0.78094 0.70267 0.85543 0.0
C1923 C 0.77885 0.69217 0.8385 0.0
C1924 C 0.78513 0.68302 0.84147 0.0
C1925 C 0.7927 0.68375 0.86172 0.0
C1926 C 0.7874 0.68394 0.9179 0.0
C1927 C 0.77567 0.66967 0.91186 0.0
C1928 C 0.76245 0.66301 0.9246 0.0
C1929 C 0.76096 0.67029 0.94389 0.0
C1930 C 0.77329 0.68371 0.95135 0.0
C1931 C 0.78636 0.69055 0.93828 0.0
C1932 C 0.81277 0.69223 0.90384 0.0
C1933 C 0.82618 0.70551 0.90755 0.0
C1934 C 0.83969 0.70559 0.90834 0.0
C1935 C 0.84015 0.69234 0.90497 0.0
C1936 C 0.82656 0.6789 0.90185 0.0
C1937 C 0.81298 0.67882 0.90155 0.0
C1938 C 0.9024 0.69441 0.87907 0.0
C1939 C 0.91696 0.70502 0.87257 0.0
C1940 C 0.92298 0.70342 0.85204 0.0
C1941 C 0.9145 0.69112 0.83775 0.0
C1942 C 0.89973 0.68073 0.84377 0.0
C1943 C 0.89369 0.68237 0.8643 0.0
C1944 C 0.90146 0.68806 0.91902 0.0
C1945 C 0.89755 0.67296 0.91692 0.0
C1946 C 0.90456 0.66716 0.93051 0.0
C1947 C 0.91545 0.67628 0.9465 0.0
C1948 C 0.91854 0.69098 0.94986 0.0
C1949 C 0.9116 0.69682 0.93613 0.0
C1950 C 0.8828 0.69404 0.90293 0.0
C1951 C 0.88128 0.70592 0.89469 0.0
C1952 C 0.86748 0.70526 0.89507 0.0
C1953 C 0.85479 0.69274 0.90418 0.0
C1954 C 0.85629 0.68074 0.91236 0.0
C1955 C 0.8701 0.6813 0.91155 0.0
H1956 H 0.74531 0.62856 0.46241 0.0
N1957 N 0.77321 0.64566 0.44816 0.0
H1958 H 0.7346 0.62998 0.49931 0.0
H1959 H 0.789 0.66192 0.48611 0.0
H1960 H 0.77839 0.66286 0.52298 0.0
H1961 H 0.77958 0.67457 0.45316 0.0
H1962 H 0.7675 0.68611 0.43189 0.0
H1963 H 0.75842 0.63608 0.40887 0.0
H1964 H 0.74665 0.64782 0.38715 0.0
H1965 H 0.77721 0.62279 0.43974 0.0
H1966 H 0.80121 0.6704 0.44961 0.0
H1967 H 0.80071 0.62276 0.43708 0.0
H1968 H 0.82483 0.67046 0.44888 0.0
H1969 H 0.87746 0.62594 0.46712 0.0
H1970 H 0.89048 0.62913 0.50382 0.0
H1971 H 0.88723 0.66829 0.51816 0.0
H1972 H 0.87417 0.66507 0.48151 0.0
H1973 H 0.89099 0.6738 0.44767 0.0
H1974 H 0.91416 0.68429 0.42556 0.0
H1975 H 0.89772 0.64243 0.38996 0.0
H1976 H 0.87461 0.63174 0.41267 0.0
H1977 H 0.84232 0.62356 0.46164 0.0
H1978 H 0.81929 0.62443 0.46052 0.0
H1979 H 0.84293 0.66806 0.42882 0.0
N1980 N 0.86932 0.64424 0.44861 0.0
H1981 H 0.86609 0.66749 0.43157 0.0
C1982 C 0.76794 0.64499 0.47134 0.0
C1983 C 0.75264 0.63584 0.47573 0.0
C1984 C 0.74655 0.63668 0.49669 0.0
C1985 C 0.75573 0.64656 0.51377 0.0
C1986 C 0.77116 0.65517 0.50996 0.0
C1987 C 0.77721 0.65454 0.48883 0.0
C1988 C 0.76973 0.65435 0.43268 0.0
C1989 C 0.77279 0.66884 0.43837 0.0
C1990 C 0.76589 0.67542 0.42627 0.0
C1991 C 0.75609 0.66773 0.40814 0.0
C1992 C 0.75417 0.6539 0.40113 0.0
C1993 C 0.7609 0.64724 0.41341 0.0
C1994 C 0.78744 0.64648 0.44527 0.0
C1995 C 0.78761 0.63324 0.44146 0.0
C1996 C 0.80109 0.63326 0.44023 0.0
C1997 C 0.8148 0.64657 0.44331 0.0
C1998 C 0.81459 0.65999 0.44631 0.0
C1999 C 0.80105 0.65997 0.44698 0.0
C2000 C 0.87485 0.64521 0.47164 0.0
C2001 C 0.87926 0.635 0.47844 0.0
C2002 C 0.88668 0.63683 0.49924 0.0
C2003 C 0.8898 0.64895 0.51353 0.0
C2004 C 0.88486 0.65886 0.50729 0.0
C2005 C 0.87741 0.65701 0.48645 0.0
C2006 C 0.88109 0.65186 0.43196 0.0
C2007 C 0.89215 0.66695 0.43475 0.0
C2008 C 0.90538 0.67296 0.42211 0.0
C2009 C 0.90767 0.66407 0.40635 0.0
C2010 C 0.89613 0.64944 0.4021 0.0
C2011 C 0.88296 0.64337 0.41493 0.0
C2012 C 0.85596 0.6453 0.44659 0.0
C2013 C 0.84251 0.6333 0.45445 0.0
C2014 C 0.82929 0.63379 0.45355 0.0
C2015 C 0.82907 0.64625 0.44426 0.0
C2016 C 0.84261 0.65833 0.43631 0.0
C2017 C 0.85594 0.65795 0.43767 0.0
H2018 H 0.37532 0.12097 0.46065 0.0
N2019 N 0.35561 0.12901 0.44853 0.0
H2020 H 0.37533 0.10802 0.49608 0.0
H2021 H 0.33876 0.12536 0.48712 0.0
H2022 H 0.33878 0.11247 0.52219 0.0
H2023 H 0.32661 0.10679 0.45492 0.0
H2024 H 0.31415 0.08334 0.43342 0.0
H2025 H 0.36363 0.124 0.40769 0.0
H2026 H 0.35078 0.10074 0.38544 0.0
H2027 H 0.37837 0.15555 0.43827 0.0
H2028 H 0.33147 0.13299 0.45418 0.0
H2029 H 0.37881 0.17928 0.43614 0.0
H2030 H 0.33193 0.15681 0.45403 0.0
H2031 H 0.37815 0.25449 0.46553 0.0
H2032 H 0.37626 0.26523 0.50218 0.0
H2033 H 0.33752 0.22329 0.52009 0.0
H2034 H 0.33943 0.21254 0.48351 0.0
H2035 H 0.32986 0.22065 0.45044 0.0
H2036 H 0.31909 0.23311 0.42843 0.0
H2037 H 0.35947 0.25608 0.38854 0.0
H2038 H 0.37052 0.24395 0.41117 0.0
H2039 H 0.38014 0.22127 0.4598 0.0
H2040 H 0.37872 0.1971 0.45951 0.0
H2041 H 0.33362 0.17681 0.43322 0.0
N2042 N 0.35917 0.22764 0.44888 0.0
H2043 H 0.33483 0.20088 0.43517 0.0
C2044 C 0.35714 0.12422 0.47113 0.0
C2045 C 0.36762 0.11955 0.47431 0.0
C2046 C 0.36759 0.11214 0.4944 0.0
C2047 C 0.35703 0.10932 0.5116 0.0
C2048 C 0.34704 0.11464 0.50906 0.0
C2049 C 0.34708 0.12206 0.489 0.0
C2050 C 0.34626 0.11704 0.43314 0.0
C2051 C 0.33186 0.10575 0.43954 0.0
C2052 C 0.32471 0.09236 0.42725 0.0
C2053 C 0.33168 0.09026 0.4081 0.0
C2054 C 0.34529 0.10215 0.40028 0.0
C2055 C 0.35258 0.1154 0.41287 0.0
C2056 C 0.35504 0.1426 0.44683 0.0
C2057 C 0.3682 0.1558 0.44156 0.0
C2058 C 0.36842 0.16938 0.4406 0.0
C2059 C 0.35547 0.17014 0.4454 0.0
C2060 C 0.34212 0.15675 0.45012 0.0
C2061 C 0.34187 0.14308 0.45056 0.0
C2062 C 0.359 0.23277 0.47184 0.0
C2063 C 0.36948 0.24753 0.47761 0.0
C2064 C 0.36838 0.25364 0.49839 0.0
C2065 C 0.35675 0.24502 0.51368 0.0
C2066 C 0.34659 0.23005 0.50845 0.0
C2067 C 0.3477 0.22394 0.48764 0.0
C2068 C 0.35114 0.23154 0.4326 0.0
C2069 C 0.33631 0.22807 0.43664 0.0
C2070 C 0.33013 0.23515 0.42407 0.0
C2071 C 0.33855 0.24557 0.40706 0.0
C2072 C 0.35282 0.24803 0.40161 0.0
C2073 C 0.35909 0.24111 0.41442 0.0
C2074 C 0.35775 0.21305 0.44732 0.0
C2075 C 0.36996 0.21159 0.45395 0.0
C2076 C 0.36914 0.19772 0.45356 0.0
C2077 C 0.35611 0.18489 0.44603 0.0
C2078 C 0.3438 0.18635 0.43935 0.0
C2079 C 0.34454 0.20024 0.44021 0.0
H2080 H 0.76892 0.11351 0.46265 0.0
N2081 N 0.79562 0.11465 0.45468 0.0
H2082 H 0.75374 0.10404 0.4974 0.0
H2083 H 0.8037 0.10836 0.49455 0.0
H2084 H 0.78866 0.09935 0.52977 0.0
H2085 H 0.77948 0.12009 0.42258 0.0
H2086 H 0.76126 0.10158 0.39582 0.0
H2087 H 0.79216 0.08818 0.44451 0.0
H2088 H 0.77397 0.06969 0.41779 0.0
H2089 H 0.82405 0.12548 0.444 0.0
H2090 H 0.79106 0.13859 0.45531 0.0
H2091 H 0.84335 0.15167 0.4397 0.0
H2092 H 0.81032 0.16483 0.4518 0.0
H2093 H 0.89831 0.22307 0.46838 0.0
H2094 H 0.90959 0.23453 0.5051 0.0
H2095 H 0.87486 0.24528 0.51649 0.0
H2096 H 0.8636 0.23397 0.47921 0.0
H2097 H 0.88596 0.24945 0.43005 0.0
H2098 H 0.90866 0.26208 0.40663 0.0
H2099 H 0.91026 0.2213 0.40301 0.0
H2100 H 0.88791 0.20877 0.42688 0.0
H2101 H 0.87563 0.19863 0.46595 0.0
H2102 H 0.85616 0.17258 0.46507 0.0
H2103 H 0.82787 0.18434 0.4264 0.0
N2104 N 0.87397 0.22241 0.44829 0.0
H2105 H 0.84745 0.21069 0.42799 0.0
C2106 C 0.78741 0.11141 0.47591 0.0
C2107 C 0.77343 0.11061 0.47721 0.0
C2108 C 0.76477 0.10526 0.49707 0.0
C2109 C 0.77006 0.10092 0.51603 0.0
C2110 C 0.7844 0.10262 0.51526 0.0
C2111 C 0.79296 0.10776 0.49527 0.0
C2112 C 0.78717 0.10545 0.43558 0.0
C2113 C 0.77867 0.10929 0.42119 0.0
C2114 C 0.76826 0.09874 0.40597 0.0
C2115 C 0.76625 0.08429 0.40504 0.0
C2116 C 0.77539 0.0808 0.41831 0.0
C2117 C 0.78576 0.09132 0.43345 0.0
C2118 C 0.80621 0.13009 0.45017 0.0
C2119 C 0.82099 0.13404 0.4454 0.0
C2120 C 0.832 0.14901 0.44315 0.0
C2121 C 0.82843 0.16038 0.44573 0.0
C2122 C 0.81345 0.15636 0.44958 0.0
C2123 C 0.80241 0.14134 0.45173 0.0
C2124 C 0.8801 0.22777 0.47089 0.0
C2125 C 0.893 0.22777 0.47871 0.0
C2126 C 0.89946 0.23431 0.49969 0.0
C2127 C 0.8931 0.24083 0.51334 0.0
C2128 C 0.87993 0.24034 0.50607 0.0
C2129 C 0.87352 0.23389 0.48494 0.0
C2130 C 0.88515 0.2282 0.43038 0.0
C2131 C 0.89096 0.24312 0.4237 0.0
C2132 C 0.90391 0.25032 0.41044 0.0
C2133 C 0.91118 0.24264 0.40337 0.0
C2134 C 0.9048 0.2274 0.40844 0.0
C2135 C 0.89196 0.22024 0.42203 0.0
C2136 C 0.86296 0.20672 0.44714 0.0
C2137 C 0.86528 0.1957 0.4573 0.0
C2138 C 0.85414 0.18071 0.45657 0.0
C2139 C 0.84043 0.17633 0.44562 0.0
C2140 C 0.83822 0.18734 0.4352 0.0
C2141 C 0.8494 0.20237 0.43596 0.0
H2142 H 0.03988 0.58121 0.19845 0.0
N2143 N 0.02316 0.55961 0.22778 0.0
H2144 H 0.03141 0.58948 0.16501 0.0
H2145 H 0.99471 0.54601 0.21067 0.0
H2146 H 0.9862 0.55437 0.17731 0.0
H2147 H 0.99871 0.55895 0.24723 0.0
H2148 H 0.9994 0.57807 0.2728 0.0
H2149 H 0.04663 0.57981 0.25123 0.0
H2150 H 0.04728 0.59887 0.2772 0.0
H2151 H 0.03196 0.54452 0.20168 0.0
H2152 H 0.0044 0.53935 0.26047 0.0
H2153 H 0.02471 0.5183 0.20398 0.0
H2154 H 0.99792 0.51342 0.26388 0.0
H2155 H 0.01619 0.45015 0.21523 0.0
H2156 H 0.01528 0.43739 0.17946 0.0
H2157 H 0.96957 0.42622 0.16926 0.0
H2158 H 0.97038 0.43889 0.2055 0.0
H2159 H 0.97527 0.42503 0.25523 0.0
H2160 H 0.98316 0.41055 0.27885 0.0
H2161 H 0.02807 0.44788 0.28008 0.0
H2162 H 0.02035 0.46231 0.25653 0.0
H2163 H 0.02015 0.47451 0.223 0.0
H2164 H 0.0278 0.50081 0.22364 0.0
H2165 H 0.98395 0.48974 0.24806 0.0
N2166 N 0.99276 0.45114 0.2355 0.0
H2167 H 0.97683 0.46339 0.24903 0.0
C2168 C 0.01797 0.56305 0.20695 0.0
C2169 C 0.0282 0.57517 0.19369 0.0
C2170 C 0.02337 0.57989 0.17477 0.0
C2171 C 0.00821 0.57254 0.16889 0.0
C2172 C 0.99795 0.56015 0.18171 0.0
C2173 C 0.0028 0.55539 0.20065 0.0
C2174 C 0.0227 0.568 0.24723 0.0
C2175 C 0.00932 0.56732 0.25418 0.0
C2176 C 0.00969 0.57821 0.26879 0.0
C2177 C 0.02339 0.58984 0.27674 0.0
C2178 C 0.03661 0.58989 0.27129 0.0
C2179 C 0.03624 0.57903 0.2566 0.0
C2180 C 0.0188 0.54407 0.23072 0.0
C2181 C 0.02448 0.53776 0.21527 0.0
C2182 C 0.02043 0.52275 0.2168 0.0
C2183 C 0.01078 0.51362 0.23426 0.0
C2184 C 0.00518 0.51998 0.24997 0.0
C2185 C 0.00901 0.53498 0.24812 0.0
C2186 C 0.99326 0.44542 0.21312 0.0
C2187 C 0.00602 0.44519 0.20525 0.0
C2188 C 0.00551 0.43787 0.18486 0.0
C2189 C 0.99234 0.4308 0.1719 0.0
C2190 C 0.97981 0.43159 0.17914 0.0
C2191 C 0.98028 0.43882 0.19967 0.0
C2192 C 0.9971 0.44473 0.2539 0.0
C2193 C 0.9867 0.43028 0.26126 0.0
C2194 C 0.99119 0.42203 0.27463 0.0
C2195 C 0.00618 0.42818 0.28103 0.0
C2196 C 0.01643 0.44302 0.2753 0.0
C2197 C 0.01196 0.45125 0.26179 0.0
C2198 C 0.99793 0.46693 0.23637 0.0
C2199 C 0.01227 0.47771 0.22898 0.0
C2200 C 0.01656 0.49283 0.22901 0.0
C2201 C 0.00649 0.49755 0.23574 0.0
C2202 C 0.99215 0.48668 0.24316 0.0
C2203 C 0.98799 0.47158 0.24359 0.0
H2204 H 0.58662 0.54453 0.22239 0.0
N2205 N 0.55962 0.53843 0.23575 0.0
H2206 H 0.59948 0.55681 0.18655 0.0
H2207 H 0.54692 0.54402 0.19843 0.0
H2208 H 0.55973 0.55623 0.16284 0.0
H2209 H 0.55311 0.56096 0.23207 0.0
H2210 H 0.56506 0.58418 0.25428 0.0
H2211 H 0.57416 0.54292 0.27511 0.0
H2212 H 0.58571 0.56599 0.29792 0.0
H2213 H 0.55545 0.51162 0.24479 0.0
H2214 H 0.53169 0.53508 0.23114 0.0
H2215 H 0.53193 0.48805 0.24637 0.0
H2216 H 0.50805 0.51143 0.23105 0.0
H2217 H 0.4597 0.41325 0.22686 0.0
H2218 H 0.44716 0.39873 0.19232 0.0
H2219 H 0.44373 0.43585 0.16599 0.0
H2220 H 0.45658 0.4505 0.20043 0.0
H2221 H 0.44266 0.44786 0.23504 0.0
H2222 H 0.41903 0.43593 0.25621 0.0
H2223 H 0.43486 0.41215 0.29758 0.0
H2224 H 0.45848 0.42394 0.27611 0.0
H2225 H 0.49103 0.44682 0.22275 0.0
H2226 H 0.5137 0.47105 0.22185 0.0
H2227 H 0.48991 0.49109 0.25268 0.0
N2228 N 0.4643 0.44007 0.23809 0.0
H2229 H 0.46706 0.46699 0.25221 0.0
C2230 C 0.56583 0.54328 0.21313 0.0
C2231 C 0.58058 0.54671 0.2092 0.0
C2232 C 0.5879 0.55373 0.18888 0.0
C2233 C 0.58051 0.55741 0.1722 0.0
C2234 C 0.56554 0.55339 0.17556 0.0
C2235 C 0.55823 0.54639 0.19589 0.0
C2236 C 0.56297 0.55029 0.25178 0.0
C2237 C 0.55987 0.56177 0.24674 0.0
C2238 C 0.56667 0.57502 0.25942 0.0
C2239 C 0.57638 0.57682 0.27753 0.0
C2240 C 0.57827 0.56479 0.28396 0.0
C2241 C 0.57167 0.55166 0.27104 0.0
C2242 C 0.54535 0.525 0.23749 0.0
C2243 C 0.5451 0.51161 0.24195 0.0
C2244 C 0.53162 0.49814 0.24258 0.0
C2245 C 0.51801 0.4977 0.23833 0.0
C2246 C 0.51826 0.51128 0.23446 0.0
C2247 C 0.53181 0.52483 0.23423 0.0
C2248 C 0.45899 0.43285 0.2162 0.0
C2249 C 0.45654 0.41835 0.2134 0.0
C2250 C 0.44939 0.4101 0.19382 0.0
C2251 C 0.44449 0.41624 0.17681 0.0
C2252 C 0.44745 0.43098 0.17904 0.0
C2253 C 0.45473 0.43929 0.19862 0.0
C2254 C 0.45235 0.43673 0.254 0.0
C2255 C 0.44128 0.44046 0.2491 0.0
C2256 C 0.4278 0.43368 0.26117 0.0
C2257 C 0.42526 0.42316 0.27832 0.0
C2258 C 0.43671 0.42032 0.28446 0.0
C2259 C 0.45016 0.42707 0.27233 0.0
C2260 C 0.47725 0.45489 0.23747 0.0
C2261 C 0.49066 0.45647 0.2291 0.0
C2262 C 0.50368 0.47035 0.22888 0.0
C2263 C 0.50378 0.48309 0.23755 0.0
C2264 C 0.49027 0.48159 0.24568 0.0
C2265 C 0.47712 0.46767 0.24554 0.0
H2266 H 0.53806 0.96014 0.2018 0.0
N2267 N 0.53296 0.97796 0.22834 0.0
H2268 H 0.55416 0.96713 0.16774 0.0
H2269 H 0.54626 0.0052 0.207 0.0
H2270 H 0.56223 0.01216 0.17268 0.0
H2271 H 0.55791 0.00303 0.24379 0.0
H2272 H 0.57717 0.00315 0.26843 0.0
H2273 H 0.52992 0.95571 0.25482 0.0
H2274 H 0.54914 0.9559 0.27987 0.0
H2275 H 0.50799 0.96797 0.20449 0.0
H2276 H 0.53317 0.99868 0.25883 0.0
H2277 H 0.48925 0.97553 0.20711 0.0
H2278 H 0.51399 0.00552 0.26269 0.0
H2279 H 0.43106 0.98563 0.2181 0.0
H2280 H 0.41919 0.98523 0.18149 0.0
H2281 H 0.45415 0.03027 0.1677 0.0
H2282 H 0.46608 0.03071 0.2045 0.0
H2283 H 0.44385 0.02577 0.24957 0.0
H2284 H 0.42169 0.01782 0.27352 0.0
H2285 H 0.42108 0.97681 0.28913 0.0
H2286 H 0.44279 0.98436 0.26472 0.0
H2287 H 0.45107 0.98143 0.22777 0.0
H2288 H 0.46966 0.97367 0.22819 0.0
H2289 H 0.50357 0.01864 0.24623 0.0
N2290 N 0.45582 0.00954 0.23655 0.0
H2291 H 0.48449 0.02595 0.2474 0.0
C2292 C 0.54089 0.98208 0.20679 0.0
C2293 C 0.54311 0.97145 0.1953 0.0
C2294 C 0.5523 0.97544 0.17602 0.0
C2295 C 0.5594 0.99016 0.16788 0.0
C2296 C 0.55684 0.00076 0.17883 0.0
C2297 C 0.5477 0.99677 0.19828 0.0
C2298 C 0.54246 0.97928 0.24739 0.0
C2299 C 0.55567 0.99278 0.25215 0.0
C2300 C 0.56666 0.99287 0.26621 0.0
C2301 C 0.56453 0.97952 0.27581 0.0
C2302 C 0.55088 0.9663 0.27266 0.0
C2303 C 0.53994 0.9662 0.25849 0.0
C2304 C 0.52203 0.98264 0.23133 0.0
C2305 C 0.50937 0.97621 0.2172 0.0
C2306 C 0.49856 0.98046 0.21893 0.0
C2307 C 0.49993 0.99107 0.2353 0.0
C2308 C 0.5126 0.99747 0.24964 0.0
C2309 C 0.52361 0.99343 0.24756 0.0
C2310 C 0.44951 0.00826 0.214 0.0
C2311 C 0.43637 0.99532 0.20705 0.0
C2312 C 0.42955 0.99509 0.18624 0.0
C2313 C 0.43579 0.00774 0.17206 0.0
C2314 C 0.4492 0.02043 0.1785 0.0
C2315 C 0.456 0.02067 0.19936 0.0
C2316 C 0.44502 0.00572 0.25485 0.0
C2317 C 0.43915 0.0152 0.25853 0.0
C2318 C 0.42649 0.01065 0.2721 0.0
C2319 C 0.41962 0.99662 0.28275 0.0
C2320 C 0.42615 0.98761 0.2808 0.0
C2321 C 0.43863 0.992 0.26673 0.0
C2322 C 0.46635 0.00428 0.23796 0.0
C2323 C 0.46243 0.98956 0.23226 0.0
C2324 C 0.4732 0.98518 0.2322 0.0
C2325 C 0.48827 0.99552 0.23705 0.0
C2326 C 0.49211 0.01024 0.24281 0.0
C2327 C 0.48123 0.0145 0.24338 0.0
H2328 H 0.41628 0.96069 0.79841 0.0
N2329 N 0.44236 0.98184 0.78238 0.0
H2330 H 0.40407 0.96119 0.83436 0.0
H2331 H 0.45542 0.00204 0.81746 0.0
H2332 H 0.4433 0.00247 0.85321 0.0
H2333 H 0.45077 0.01153 0.78162 0.0
H2334 H 0.43835 0.0224 0.7598 0.0
H2335 H 0.42376 0.96939 0.74746 0.0
H2336 H 0.41117 0.98028 0.72574 0.0
H2337 H 0.44697 0.95931 0.77463 0.0
H2338 H 0.47026 0.00691 0.78507 0.0
H2339 H 0.47076 0.95973 0.77317 0.0
H2340 H 0.49401 0.00738 0.78512 0.0
H2341 H 0.54609 0.96272 0.80098 0.0
H2342 H 0.55963 0.96509 0.83684 0.0
H2343 H 0.56046 0.0063 0.85185 0.0
H2344 H 0.54669 0.00378 0.8161 0.0
H2345 H 0.55947 0.01232 0.77972 0.0
H2346 H 0.58239 0.02354 0.75693 0.0
H2347 H 0.56955 0.98052 0.72757 0.0
H2348 H 0.54632 0.96933 0.74995 0.0
H2349 H 0.513 0.96189 0.79864 0.0
H2350 H 0.48965 0.96225 0.79788 0.0
H2351 H 0.51198 0.00501 0.7635 0.0
N2352 N 0.53951 0.98235 0.78329 0.0
H2353 H 0.53534 0.00493 0.76536 0.0
C2354 C 0.43675 0.98122 0.80522 0.0
C2355 C 0.42236 0.96963 0.81059 0.0
C2356 C 0.41542 0.96994 0.83097 0.0
C2357 C 0.42282 0.98188 0.8463 0.0
C2358 C 0.43747 0.99315 0.84154 0.0
C2359 C 0.4444 0.99286 0.82112 0.0
C2360 C 0.43823 0.98959 0.76605 0.0
C2361 C 0.44263 0.00476 0.76881 0.0
C2362 C 0.43547 0.01097 0.75646 0.0
C2363 C 0.4238 0.00209 0.74133 0.0
C2364 C 0.42018 0.98729 0.73731 0.0
C2365 C 0.42738 0.98111 0.74959 0.0
C2366 C 0.45675 0.98296 0.78022 0.0
C2367 C 0.45725 0.96985 0.77668 0.0
C2368 C 0.47087 0.97012 0.77611 0.0
C2369 C 0.48438 0.98356 0.77943 0.0
C2370 C 0.48388 0.99682 0.78236 0.0
C2371 C 0.47022 0.99655 0.78258 0.0
C2372 C 0.54542 0.98303 0.80594 0.0
C2373 C 0.54891 0.97207 0.81228 0.0
C2374 C 0.55666 0.97346 0.83258 0.0
C2375 C 0.56108 0.9859 0.84682 0.0
C2376 C 0.55713 0.99664 0.841 0.0
C2377 C 0.54929 0.9952 0.82069 0.0
C2378 C 0.55105 0.98993 0.76633 0.0
C2379 C 0.56122 0.00537 0.76771 0.0
C2380 C 0.57435 0.01179 0.75479 0.0
C2381 C 0.57768 0.00281 0.74076 0.0
C2382 C 0.56714 0.98761 0.73828 0.0
C2383 C 0.5539 0.98125 0.75093 0.0
C2384 C 0.52604 0.98329 0.78217 0.0
C2385 C 0.51286 0.97138 0.79103 0.0
C2386 C 0.49947 0.97155 0.79036 0.0
C2387 C 0.49882 0.9836 0.78041 0.0
C2388 C 0.51205 0.99561 0.77155 0.0
C2389 C 0.52553 0.99552 0.77252 0.0
H2390 H 0.96199 0.53859 0.823 0.0
N2391 N 0.97917 0.53599 0.79174 0.0
H2392 H 0.97005 0.55555 0.85612 0.0
H2393 H 0.00791 0.55316 0.80684 0.0
H2394 H 0.01605 0.57061 0.83946 0.0
H2395 H 0.0032 0.55872 0.76957 0.0
H2396 H 0.00224 0.57717 0.74444 0.0
H2397 H 0.95511 0.53352 0.77134 0.0
H2398 H 0.95416 0.55205 0.74606 0.0
H2399 H 0.97198 0.51311 0.81947 0.0
H2400 H 0.99647 0.53352 0.75731 0.0
H2401 H 0.97916 0.49409 0.81684 0.0
H2402 H 0.00298 0.5141 0.75392 0.0
H2403 H 0.98586 0.43322 0.80378 0.0
H2404 H 0.98686 0.42174 0.83992 0.0
H2405 H 0.03247 0.45663 0.84979 0.0
H2406 H 0.03157 0.4681 0.8132 0.0
H2407 H 0.02571 0.44766 0.76424 0.0
H2408 H 0.01699 0.42508 0.74086 0.0
H2409 H 0.97299 0.41983 0.73841 0.0
H2410 H 0.9815 0.44211 0.76194 0.0
H2411 H 0.98212 0.45399 0.7971 0.0
H2412 H 0.97471 0.47284 0.79694 0.0
H2413 H 0.01787 0.50494 0.76938 0.0
N2414 N 0.00913 0.45764 0.78324 0.0
H2415 H 0.02482 0.48556 0.7683 0.0
C2416 C 0.98431 0.54472 0.81246 0.0
C2417 C 0.97378 0.54533 0.82681 0.0
C2418 C 0.97837 0.555 0.84556 0.0
C2419 C 0.99362 0.56434 0.8501 0.0
C2420 C 0.00423 0.56346 0.83618 0.0
C2421 C 0.9996 0.55359 0.81758 0.0
C2422 C 0.97915 0.54465 0.77234 0.0
C2423 C 0.99244 0.55686 0.76398 0.0
C2424 C 0.99191 0.56742 0.74964 0.0
C2425 C 0.97813 0.56596 0.74357 0.0
C2426 C 0.96489 0.55328 0.75052 0.0
C2427 C 0.96542 0.54271 0.7648 0.0
C2428 C 0.98372 0.52494 0.78889 0.0
C2429 C 0.97885 0.51346 0.80517 0.0
C2430 C 0.98284 0.50246 0.80348 0.0
C2431 C 0.9916 0.50242 0.78506 0.0
C2432 C 0.99642 0.51387 0.76855 0.0
C2433 C 0.9926 0.52505 0.77046 0.0
C2434 C 0.00874 0.45155 0.8057 0.0
C2435 C 0.99603 0.43857 0.81375 0.0
C2436 C 0.99659 0.43198 0.83436 0.0
C2437 C 0.00976 0.4383 0.84735 0.0
C2438 C 0.02223 0.45159 0.83989 0.0
C2439 C 0.02171 0.45813 0.81916 0.0
C2440 C 0.00438 0.44666 0.76508 0.0
C2441 C 0.01431 0.44191 0.75808 0.0
C2442 C 0.00933 0.42903 0.74486 0.0
C2443 C 0.99433 0.42075 0.73821 0.0
C2444 C 0.9846 0.42608 0.74352 0.0
C2445 C 0.98954 0.43889 0.75699 0.0
C2446 C 0.00404 0.46832 0.78244 0.0
C2447 C 0.98993 0.46498 0.79065 0.0
C2448 C 0.98576 0.47591 0.79082 0.0
C2449 C 0.99572 0.49054 0.78335 0.0
C2450 C 0.00979 0.49378 0.77496 0.0
C2451 C 0.01384 0.48275 0.77444 0.0
H2452 H 0.45827 0.42817 0.82333 0.0
N2453 N 0.46219 0.44957 0.79429 0.0
H2454 H 0.44232 0.41979 0.85763 0.0
H2455 H 0.44653 0.46217 0.81178 0.0
H2456 H 0.43051 0.45377 0.84617 0.0
H2457 H 0.43865 0.45019 0.77392 0.0
H2458 H 0.4205 0.43099 0.74801 0.0
H2459 H 0.46564 0.42923 0.77177 0.0
H2460 H 0.44746 0.40999 0.74582 0.0
H2461 H 0.48522 0.46491 0.82191 0.0
H2462 H 0.46437 0.46971 0.76083 0.0
H2463 H 0.50433 0.49105 0.81965 0.0
H2464 H 0.48403 0.49562 0.75754 0.0
H2465 H 0.56598 0.55611 0.80506 0.0
H2466 H 0.57753 0.56829 0.84139 0.0
H2467 H 0.54693 0.58498 0.8468 0.0
H2468 H 0.53494 0.57231 0.8106 0.0
H2469 H 0.55917 0.58462 0.76694 0.0
H2470 H 0.58114 0.59447 0.74186 0.0
H2471 H 0.57408 0.55006 0.73302 0.0
H2472 H 0.55257 0.54019 0.75822 0.0
H2473 H 0.54517 0.53302 0.79841 0.0
H2474 H 0.52543 0.50724 0.79964 0.0
H2475 H 0.49446 0.51991 0.77231 0.0
N2476 N 0.54303 0.55701 0.78308 0.0
H2477 H 0.5148 0.54584 0.76982 0.0
C2478 C 0.45357 0.44574 0.81515 0.0
C2479 C 0.45235 0.43388 0.82836 0.0
C2480 C 0.44327 0.42911 0.84778 0.0
C2481 C 0.43524 0.43614 0.85423 0.0
C2482 C 0.43662 0.44822 0.84131 0.0
C2483 C 0.44572 0.45299 0.8218 0.0
C2484 C 0.45354 0.44111 0.77475 0.0
C2485 C 0.44093 0.44177 0.76728 0.0
C2486 C 0.43057 0.43083 0.75254 0.0
C2487 C 0.43264 0.41907 0.74521 0.0
C2488 C 0.44573 0.41902 0.75128 0.0
C2489 C 0.4561 0.42999 0.76595 0.0
C2490 C 0.47326 0.46518 0.79172 0.0
C2491 C 0.48483 0.47158 0.80789 0.0
C2492 C 0.49587 0.48655 0.80639 0.0
C2493 C 0.49593 0.49553 0.78822 0.0
C2494 C 0.4843 0.48915 0.77195 0.0
C2495 C 0.47302 0.47417 0.77374 0.0
C2496 C 0.5494 0.56312 0.80527 0.0
C2497 C 0.56143 0.562 0.8143 0.0
C2498 C 0.56811 0.56903 0.83493 0.0
C2499 C 0.56302 0.57745 0.8467 0.0
C2500 C 0.55091 0.57845 0.83794 0.0
C2501 C 0.5441 0.57124 0.81741 0.0
C2502 C 0.55419 0.56171 0.76508 0.0
C2503 C 0.56221 0.57695 0.75936 0.0
C2504 C 0.57474 0.58258 0.74515 0.0
C2505 C 0.57931 0.57299 0.73597 0.0
C2506 C 0.57078 0.55763 0.74024 0.0
C2507 C 0.55842 0.55202 0.75482 0.0
C2508 C 0.53153 0.54146 0.78381 0.0
C2509 C 0.5342 0.53034 0.79259 0.0
C2510 C 0.52276 0.5155 0.79345 0.0
C2511 C 0.5082 0.51137 0.78629 0.0
C2512 C 0.50554 0.52254 0.77766 0.0
C2513 C 0.51711 0.5374 0.77635 0.0
H2514 H 0.70028 0.90691 0.53845 0.0
N2515 N 0.68009 0.88483 0.56396 0.0
H2516 H 0.69605 0.91689 0.50275 0.0
H2517 H 0.65388 0.87258 0.53933 0.0
H2518 H 0.64981 0.88222 0.50339 0.0
H2519 H 0.65486 0.88477 0.5783 0.0
H2520 H 0.65425 0.90325 0.60389 0.0
H2521 H 0.70213 0.90442 0.5901 0.0
H2522 H 0.70162 0.92323 0.61519 0.0
H2523 H 0.69812 0.87363 0.56285 0.0
H2524 H 0.65227 0.86136 0.57446 0.0
H2525 H 0.6916 0.8476 0.5673 0.0
H2526 H 0.64538 0.83526 0.57723 0.0
H2527 H 0.67256 0.7752 0.55035 0.0
H2528 H 0.67118 0.76264 0.51436 0.0
H2529 H 0.62526 0.7512 0.50614 0.0
H2530 H 0.62649 0.76363 0.54287 0.0
H2531 H 0.63371 0.75159 0.59544 0.0
H2532 H 0.64345 0.73883 0.61938 0.0
H2533 H 0.68798 0.77625 0.61178 0.0
H2534 H 0.67829 0.78908 0.58807 0.0
H2535 H 0.67288 0.79918 0.54759 0.0
H2536 H 0.67999 0.82526 0.54741 0.0
H2537 H 0.64609 0.81646 0.59827 0.0
N2538 N 0.64957 0.77657 0.57176 0.0
H2539 H 0.63832 0.78993 0.5971 0.0
C2540 C 0.67752 0.88893 0.54149 0.0
C2541 C 0.6893 0.90133 0.53067 0.0
C2542 C 0.68688 0.90703 0.51044 0.0
C2543 C 0.67261 0.9003 0.50054 0.0
C2544 C 0.66089 0.88755 0.51082 0.0
C2545 C 0.66327 0.88199 0.5313 0.0
C2546 C 0.67859 0.89316 0.58249 0.0
C2547 C 0.66499 0.89267 0.58704 0.0
C2548 C 0.66465 0.90328 0.6015 0.0
C2549 C 0.67792 0.91465 0.6112 0.0
C2550 C 0.69128 0.91453 0.60784 0.0
C2551 C 0.69157 0.90382 0.59364 0.0
C2552 C 0.67572 0.86945 0.56793 0.0
C2553 C 0.68662 0.86527 0.56624 0.0
C2554 C 0.68281 0.85035 0.56856 0.0
C2555 C 0.66789 0.83917 0.57226 0.0
C2556 C 0.65701 0.84349 0.57459 0.0
C2557 C 0.66091 0.85848 0.57269 0.0
C2558 C 0.64951 0.77027 0.54955 0.0
C2559 C 0.66214 0.77003 0.54103 0.0
C2560 C 0.6614 0.76288 0.5204 0.0
C2561 C 0.6481 0.75592 0.50777 0.0
C2562 C 0.63559 0.75646 0.51579 0.0
C2563 C 0.6363 0.76356 0.5366 0.0
C2564 C 0.6552 0.7712 0.58987 0.0
C2565 C 0.64548 0.75726 0.59963 0.0
C2566 C 0.65102 0.75 0.61321 0.0
C2567 C 0.6664 0.75663 0.61718 0.0
C2568 C 0.67607 0.77105 0.60893 0.0
C2569 C 0.67051 0.77835 0.59543 0.0
C2570 C 0.65476 0.7924 0.57208 0.0
C2571 C 0.66682 0.80271 0.55858 0.0
C2572 C 0.67106 0.81781 0.55875 0.0
C2573 C 0.66363 0.8231 0.5728 0.0
C2574 C 0.65189 0.81283 0.58684 0.0
C2575 C 0.64749 0.79766 0.58635 0.0
H2576 H 0.2436 0.86831 0.54712 0.0
N2577 N 0.22721 0.87428 0.57575 0.0
H2578 H 0.25367 0.87995 0.50955 0.0
H2579 H 0.22088 0.89358 0.55276 0.0
H2580 H 0.23104 0.90525 0.51558 0.0
H2581 H 0.25389 0.89092 0.59453 0.0
H2582 H 0.26235 0.91349 0.61792 0.0
H2583 H 0.20916 0.88401 0.59471 0.0
H2584 H 0.21756 0.90629 0.61856 0.0
H2585 H 0.22203 0.84967 0.59765 0.0
H2586 H 0.20009 0.86841 0.55827 0.0
H2587 H 0.19866 0.82576 0.59937 0.0
H2588 H 0.17691 0.84453 0.55921 0.0
H2589 H 0.12565 0.74919 0.55332 0.0
H2590 H 0.11256 0.73917 0.51673 0.0
H2591 H 0.11507 0.78123 0.50241 0.0
H2592 H 0.12811 0.79125 0.53884 0.0
H2593 H 0.10989 0.78123 0.57162 0.0
H2594 H 0.08698 0.76806 0.59414 0.0
H2595 H 0.10578 0.74564 0.63213 0.0
H2596 H 0.12872 0.75857 0.60903 0.0
H2597 H 0.16106 0.7815 0.57059 0.0
H2598 H 0.18371 0.8059 0.57322 0.0
H2599 H 0.15674 0.82662 0.58291 0.0
N2600 N 0.13301 0.77536 0.5721 0.0
H2601 H 0.13419 0.80223 0.57963 0.0
C2602 C 0.23158 0.88009 0.55279 0.0
C2603 C 0.24063 0.87618 0.54013 0.0
C2604 C 0.24637 0.88281 0.51883 0.0
C2605 C 0.24314 0.8935 0.51 0.0
C2606 C 0.23365 0.89704 0.52221 0.0
C2607 C 0.22786 0.89036 0.54341 0.0
C2608 C 0.23093 0.88569 0.5929 0.0
C2609 C 0.24584 0.89402 0.60014 0.0
C2610 C 0.25066 0.90689 0.61335 0.0
C2611 C 0.24059 0.91157 0.61973 0.0
C2612 C 0.22548 0.90283 0.61369 0.0
C2613 C 0.22069 0.89005 0.60017 0.0
C2614 C 0.21292 0.86079 0.57771 0.0
C2615 C 0.21215 0.84863 0.58946 0.0
C2616 C 0.19882 0.83496 0.59026 0.0
C2617 C 0.18592 0.83315 0.57921 0.0
C2618 C 0.18657 0.84553 0.56806 0.0
C2619 C 0.19991 0.85922 0.56734 0.0
C2620 C 0.12791 0.77094 0.54884 0.0
C2621 C 0.12374 0.75637 0.54199 0.0
C2622 C 0.11626 0.75066 0.52124 0.0
C2623 C 0.11286 0.75948 0.50703 0.0
C2624 C 0.11767 0.77431 0.5132 0.0
C2625 C 0.12515 0.78002 0.53397 0.0
C2626 C 0.12104 0.77075 0.5885 0.0
C2627 C 0.10933 0.7738 0.58513 0.0
C2628 C 0.09622 0.76629 0.59797 0.0
C2629 C 0.0947 0.75582 0.61459 0.0
C2630 C 0.10681 0.75371 0.61935 0.0
C2631 C 0.11986 0.76108 0.60627 0.0
C2632 C 0.14595 0.78996 0.57501 0.0
C2633 C 0.16008 0.79132 0.57345 0.0
C2634 C 0.173 0.80527 0.5751 0.0
C2635 C 0.17208 0.81825 0.5784 0.0
C2636 C 0.15787 0.81688 0.58017 0.0
C2637 C 0.14492 0.80288 0.57846 0.0
H2638 H 0.22155 0.32979 0.54589 0.0
N2639 N 0.22609 0.35484 0.56901 0.0
H2640 H 0.23324 0.32925 0.5098 0.0
H2641 H 0.24189 0.37764 0.54069 0.0
H2642 H 0.2533 0.37701 0.50388 0.0
H2643 H 0.25163 0.37048 0.59141 0.0
H2644 H 0.26462 0.36054 0.61432 0.0
H2645 H 0.21353 0.32623 0.58526 0.0
H2646 H 0.22672 0.31618 0.60757 0.0
H2647 H 0.20102 0.33621 0.54326 0.0
H2648 H 0.21655 0.36615 0.60129 0.0
H2649 H 0.17681 0.33431 0.54604 0.0
H2650 H 0.19184 0.36339 0.60531 0.0
H2651 H 0.10625 0.32577 0.55139 0.0
H2652 H 0.09371 0.32385 0.51488 0.0
H2653 H 0.12447 0.3704 0.5015 0.0
H2654 H 0.13659 0.37252 0.53875 0.0
H2655 H 0.11499 0.36573 0.58817 0.0
H2656 H 0.09229 0.35497 0.61167 0.0
H2657 H 0.09311 0.31383 0.61693 0.0
H2658 H 0.11564 0.32446 0.59324 0.0
H2659 H 0.13118 0.32729 0.56138 0.0
H2660 H 0.15407 0.32604 0.56433 0.0
H2661 H 0.17772 0.37198 0.58727 0.0
N2662 N 0.12817 0.3516 0.57093 0.0
H2663 H 0.15453 0.37265 0.58571 0.0
C2664 C 0.23098 0.35385 0.54618 0.0
C2665 C 0.22839 0.34018 0.53693 0.0
C2666 C 0.23502 0.33983 0.51627 0.0
C2667 C 0.24422 0.35309 0.50436 0.0
C2668 C 0.24627 0.36667 0.51294 0.0
C2669 C 0.23974 0.36703 0.53379 0.0
C2670 C 0.23175 0.3491 0.58647 0.0
C2671 C 0.24593 0.3587 0.59558 0.0
C2672 C 0.25332 0.35304 0.60854 0.0
C2673 C 0.24665 0.33763 0.61238 0.0
C2674 C 0.23201 0.3281 0.60473 0.0
C2675 C 0.22453 0.33382 0.592 0.0
C2676 C 0.21089 0.35166 0.57185 0.0
C2677 C 0.19924 0.34221 0.55691 0.0
C2678 C 0.18519 0.34098 0.55868 0.0
C2679 C 0.1823 0.34887 0.57572 0.0
C2680 C 0.19369 0.3575 0.59152 0.0
C2681 C 0.20782 0.35897 0.58943 0.0
C2682 C 0.12221 0.34943 0.54799 0.0
C2683 C 0.1104 0.33556 0.54062 0.0
C2684 C 0.10325 0.33444 0.51975 0.0
C2685 C 0.10806 0.34703 0.50567 0.0
C2686 C 0.12054 0.3606 0.51225 0.0
C2687 C 0.12746 0.3618 0.53336 0.0
C2688 C 0.11706 0.34599 0.58886 0.0
C2689 C 0.11053 0.35455 0.59496 0.0
C2690 C 0.09759 0.34841 0.60824 0.0
C2691 C 0.091 0.33359 0.61577 0.0
C2692 C 0.09807 0.3253 0.61118 0.0
C2693 C 0.11098 0.33142 0.59769 0.0
C2694 C 0.14116 0.35005 0.5737 0.0
C2695 C 0.14122 0.33694 0.56759 0.0
C2696 C 0.15442 0.33633 0.569 0.0
C2697 C 0.16787 0.34891 0.57606 0.0
C2698 C 0.16761 0.36193 0.5823 0.0
C2699 C 0.15439 0.36241 0.58127 0.0
C2700 C 0.98213 0.39783 0.13208 0.0
C2701 C 0.99166 0.40517 0.11319 0.0
C2702 C 0.99967 0.42942 0.13128 0.0
C2703 C 0.99154 0.42198 0.15129 0.0
N2704 N 0.97692 0.39903 0.17229 0.0
N2705 N 0.01127 0.42778 0.09614 0.0
C2706 C 0.98322 0.40615 0.15211 0.0
C2707 C 0.00089 0.42094 0.11309 0.0
N2708 N 0.97178 0.38298 0.13066 0.0
N2709 N 0.00595 0.44456 0.12948 0.0
H2710 H 0.01263 0.42197 0.0826 0.0
H2711 H 0.0194 0.43904 0.09655 0.0
H2712 H 0.00522 0.45111 0.14247 0.0
H2713 H 0.01068 0.45043 0.11439 0.0
H2714 H 0.96349 0.37737 0.14292 0.0
H2715 H 0.97059 0.37654 0.11619 0.0
H2716 H 0.97217 0.38755 0.17453 0.0
H2717 H 0.97756 0.40468 0.18745 0.0
C2718 C 0.60656 0.59102 0.13582 0.0
C2719 C 0.60365 0.58449 0.11366 0.0
C2720 C 0.58706 0.55982 0.1303 0.0
C2721 C 0.5888 0.56662 0.15209 0.0
N2722 N 0.59855 0.58884 0.17541 0.0
N2723 N 0.59012 0.56312 0.08902 0.0
C2724 C 0.59815 0.58227 0.15484 0.0
C2725 C 0.59366 0.56898 0.11067 0.0
N2726 N 0.6176 0.60552 0.13873 0.0
N2727 N 0.57936 0.54461 0.12852 0.0
H2728 H 0.59497 0.56943 0.07428 0.0
H2729 H 0.58167 0.55228 0.08551 0.0
H2730 H 0.57426 0.5376 0.14254 0.0
H2731 H 0.57899 0.53888 0.11362 0.0
H2732 H 0.62139 0.61046 0.15474 0.0
H2733 H 0.62391 0.61232 0.12514 0.0
H2734 H 0.60376 0.60034 0.17774 0.0
H2735 H 0.59266 0.58282 0.18986 0.0
C2736 C 0.41297 0.01681 0.13062 0.0
C2737 C 0.41163 0.00754 0.11177 0.0
C2738 C 0.4277 0.99987 0.13135 0.0
C2739 C 0.42777 0.00794 0.15107 0.0
N2740 N 0.41859 0.02219 0.17104 0.0
N2741 N 0.41578 0.98855 0.09521 0.0
C2742 C 0.41991 0.01592 0.15114 0.0
C2743 C 0.4185 0.99862 0.11237 0.0
N2744 N 0.40797 0.02675 0.12868 0.0
N2745 N 0.43671 0.99372 0.13057 0.0
H2746 H 0.40911 0.98731 0.08101 0.0
H2747 H 0.41912 0.98059 0.09592 0.0
H2748 H 0.44354 0.99438 0.14421 0.0
H2749 H 0.43837 0.98908 0.11579 0.0
H2750 H 0.41008 0.03492 0.1409 0.0
H2751 H 0.40282 0.02771 0.11391 0.0
H2752 H 0.41161 0.02667 0.17277 0.0
H2753 H 0.4235 0.02179 0.18646 0.0
C2754 C 0.40348 0.975 0.90435 0.0
C2755 C 0.39982 0.98652 0.90444 0.0
C2756 C 0.40975 0.99378 0.8655 0.0
C2757 C 0.41477 0.9833 0.86632 0.0
N2758 N 0.41831 0.96527 0.88743 0.0
N2759 N 0.4017 0.00854 0.88695 0.0
C2760 C 0.41215 0.97425 0.88601 0.0
C2761 C 0.40356 0.99638 0.88551 0.0
N2762 N 0.39829 0.96455 0.92145 0.0
N2763 N 0.41047 0.00093 0.84538 0.0
H2764 H 0.39726 0.0109 0.90136 0.0
H2765 H 0.40577 0.01701 0.87471 0.0
H2766 H 0.41489 0.99932 0.83027 0.0
H2767 H 0.40548 0.00744 0.84308 0.0
H2768 H 0.39925 0.955 0.9211 0.0
H2769 H 0.3919 0.96475 0.93514 0.0
H2770 H 0.41817 0.95963 0.90231 0.0
H2771 H 0.42462 0.96436 0.87422 0.0
C2772 C 0.00121 0.42053 0.90662 0.0
C2773 C 0.01048 0.41403 0.90693 0.0
C2774 C 0.01897 0.42308 0.86788 0.0
C2775 C 0.01059 0.43054 0.86826 0.0
N2776 N 0.9961 0.43886 0.88948 0.0
N2777 N 0.03044 0.41164 0.88997 0.0
C2778 C 0.00242 0.43003 0.88812 0.0
C2779 C 0.02006 0.41608 0.88817 0.0
N2780 N 0.9908 0.41713 0.92348 0.0
N2781 N 0.02535 0.42212 0.84788 0.0
H2782 H 0.03162 0.40655 0.90465 0.0
H2783 H 0.03876 0.41424 0.87781 0.0
H2784 H 0.02473 0.42698 0.83254 0.0
H2785 H 0.03014 0.41541 0.84596 0.0
H2786 H 0.98265 0.42021 0.9228 0.0
H2787 H 0.98946 0.41012 0.93725 0.0
H2788 H 0.99133 0.44014 0.90442 0.0
H2789 H 0.99682 0.44599 0.87625 0.0
C2790 C 0.59253 0.60765 0.88497 0.0
C2791 C 0.58775 0.60087 0.90685 0.0
C2792 C 0.56558 0.57976 0.88958 0.0
C2793 C 0.57103 0.58593 0.86754 0.0
N2794 N 0.58965 0.60525 0.84354 0.0
N2795 N 0.57028 0.58052 0.93057 0.0
C2796 C 0.58446 0.59981 0.86505 0.0
C2797 C 0.57436 0.58697 0.90933 0.0
N2798 N 0.60473 0.62166 0.88332 0.0
N2799 N 0.55194 0.5671 0.89153 0.0
H2800 H 0.57599 0.58583 0.94556 0.0
H2801 H 0.56167 0.56967 0.93344 0.0
H2802 H 0.54548 0.56126 0.87738 0.0
H2803 H 0.54652 0.56279 0.90705 0.0
H2804 H 0.60791 0.628 0.86837 0.0
H2805 H 0.61133 0.62747 0.89738 0.0
H2806 H 0.6002 0.61429 0.84021 0.0
H2807 H 0.58365 0.60027 0.82861 0.0
C2808 C 0.00892 0.58506 0.90668 0.0
C2809 C 0.00347 0.5952 0.90575 0.0
C2810 C 0.99505 0.58741 0.86629 0.0
C2811 C 0.99828 0.57567 0.86862 0.0
N2812 N 0.00684 0.56218 0.89203 0.0
N2813 N 0.98921 0.60445 0.88584 0.0
C2814 C 0.00494 0.57423 0.88903 0.0
C2815 C 0.99605 0.59605 0.8858 0.0
N2816 N 0.01811 0.58596 0.92423 0.0
N2817 N 0.99125 0.59043 0.84531 0.0
H2818 H 0.98929 0.61069 0.89994 0.0
H2819 H 0.98228 0.60413 0.87262 0.0
H2820 H 0.99064 0.58446 0.83052 0.0
H2821 H 0.9902 0.59978 0.84215 0.0
H2822 H 0.02358 0.57982 0.92467 0.0
H2823 H 0.02139 0.5939 0.93727 0.0
H2824 H 0.01009 0.55969 0.90756 0.0
H2825 H 0.004 0.55396 0.87955 0.0
C2826 C 0.4005 0.41453 0.89109 0.0
C2827 C 0.40723 0.41601 0.91286 0.0
C2828 C 0.43167 0.43375 0.89676 0.0
C2829 C 0.42529 0.43054 0.87451 0.0
N2830 N 0.40388 0.41711 0.84983 0.0
N2831 N 0.42935 0.42593 0.93645 0.0
C2832 C 0.40972 0.42084 0.87147 0.0
C2833 C 0.42285 0.42546 0.9158 0.0
N2834 N 0.38529 0.40723 0.88929 0.0
N2835 N 0.44616 0.44483 0.89964 0.0
H2836 H 0.42329 0.4201 0.95089 0.0
H2837 H 0.44085 0.43121 0.93888 0.0
H2838 H 0.45292 0.45107 0.88596 0.0
H2839 H 0.45105 0.44874 0.91564 0.0
H2840 H 0.37968 0.40701 0.87433 0.0
H2841 H 0.37824 0.40246 0.90338 0.0
H2842 H 0.39298 0.40875 0.84644 0.0
H2843 H 0.41023 0.42168 0.83503 0.0
C2844 C 0.57386 0.98808 0.9088 0.0
C2845 C 0.58855 0.99065 0.90532 0.0
C2846 C 0.58581 0.9922 0.86381 0.0
C2847 C 0.57062 0.98803 0.86712 0.0
N2848 N 0.54947 0.98 0.8923 0.0
N2849 N 0.60786 0.99297 0.87959 0.0
C2850 C 0.56444 0.98545 0.88951 0.0
C2851 C 0.59437 0.99214 0.88283 0.0
N2852 N 0.56909 0.98858 0.93049 0.0
N2853 N 0.59216 0.99662 0.84257 0.0
H2854 H 0.61447 0.99295 0.8931 0.0
H2855 H 0.61193 0.9924 0.8635 0.0
H2856 H 0.58627 0.99689 0.82821 0.0
H2857 H 0.60356 0.00129 0.83958 0.0
H2858 H 0.55911 0.98839 0.93392 0.0
H2859 H 0.57568 0.99048 0.94504 0.0
H2860 H 0.54401 0.97631 0.90798 0.0
H2861 H 0.54224 0.97806 0.87858 0.0
C2862 C 0.57416 0.99007 0.10834 0.0
C2863 C 0.58975 0.99949 0.11167 0.0
C2864 C 0.5855 0.00304 0.15196 0.0
C2865 C 0.56987 0.9944 0.14821 0.0
N2866 N 0.54922 0.98247 0.12186 0.0
N2867 N 0.61008 0.01746 0.13497 0.0
C2868 C 0.56417 0.9888 0.12605 0.0
C2869 C 0.59537 0.00678 0.13299 0.0
N2870 N 0.56893 0.98175 0.08875 0.0
N2871 N 0.59096 0.00709 0.17376 0.0
H2872 H 0.61761 0.0205 0.12136 0.0
H2873 H 0.6145 0.02424 0.14938 0.0
H2874 H 0.58414 0.00452 0.18817 0.0
H2875 H 0.60225 0.01191 0.17779 0.0
H2876 H 0.55784 0.97347 0.08652 0.0
H2877 H 0.57586 0.98216 0.07544 0.0
H2878 H 0.54459 0.97955 0.10549 0.0
H2879 H 0.54159 0.98143 0.13445 0.0
C2880 C 0.99427 0.59484 0.1356 0.0
C2881 C 0.99759 0.59253 0.11289 0.0
C2882 C 0.00464 0.57455 0.12683 0.0
C2883 C 0.00317 0.57834 0.14968 0.0
N2884 N 0.99758 0.59268 0.17638 0.0
N2885 N 0.00691 0.58114 0.0865 0.0
C2886 C 0.99811 0.58855 0.15425 0.0
C2887 C 0.00291 0.58252 0.10835 0.0
N2888 N 0.98728 0.60291 0.13924 0.0
N2889 N 0.00754 0.56322 0.12288 0.0
H2890 H 0.0055 0.58654 0.07242 0.0
H2891 H 0.01252 0.57543 0.08246 0.0
H2892 H 0.00902 0.55727 0.1361 0.0
H2893 H 0.00726 0.55886 0.10667 0.0
H2894 H 0.98318 0.60378 0.15513 0.0
H2895 H 0.98446 0.60779 0.12592 0.0
H2896 H 0.99571 0.60137 0.18073 0.0
H2897 H 0.99994 0.58803 0.19053 0.0
C2898 C 0.41166 0.3864 0.14311 0.0
C2899 C 0.41756 0.38948 0.12054 0.0
C2900 C 0.44216 0.40695 0.1363 0.0
C2901 C 0.43534 0.40673 0.15752 0.0
N2902 N 0.41339 0.39571 0.18168 0.0
N2903 N 0.43982 0.39235 0.10271 0.0
C2904 C 0.42005 0.39617 0.16121 0.0
C2905 C 0.43334 0.39692 0.11869 0.0
N2906 N 0.39913 0.37312 0.14772 0.0
N2907 N 0.457 0.41667 0.13288 0.0
H2908 H 0.43345 0.38275 0.09293 0.0
H2909 H 0.45129 0.3965 0.10182 0.0
H2910 H 0.46396 0.42386 0.14565 0.0
H2911 H 0.46206 0.41818 0.11687 0.0
H2912 H 0.39505 0.36963 0.16427 0.0
H2913 H 0.39408 0.36486 0.13517 0.0
H2914 H 0.4019 0.38919 0.18422 0.0
H2915 H 0.41913 0.40264 0.19549 0.0
C2916 C 0.63989 0.72474 0.46517 0.0
C2917 C 0.64974 0.73312 0.44712 0.0
C2918 C 0.65568 0.75636 0.46685 0.0
C2919 C 0.64749 0.74798 0.48622 0.0
N2920 N 0.63323 0.72417 0.50517 0.0
N2921 N 0.66867 0.75686 0.43202 0.0
C2922 C 0.63988 0.73214 0.48572 0.0
C2923 C 0.65803 0.74894 0.4482 0.0
N2924 N 0.63034 0.70978 0.46247 0.0
N2925 N 0.66102 0.7714 0.46617 0.0
H2926 H 0.67089 0.75187 0.4182 0.0
H2927 H 0.67618 0.76826 0.43335 0.0
H2928 H 0.65941 0.77717 0.47953 0.0
H2929 H 0.66577 0.77789 0.45158 0.0
H2930 H 0.62185 0.70336 0.47405 0.0
H2931 H 0.63 0.70402 0.44757 0.0
H2932 H 0.62903 0.71271 0.50655 0.0
H2933 H 0.63295 0.72913 0.52059 0.0
C2934 C 0.2725 0.92016 0.46778 0.0
C2935 C 0.26346 0.91846 0.44844 0.0
C2936 C 0.2416 0.89868 0.46829 0.0
C2937 C 0.25029 0.90163 0.48849 0.0
N2938 N 0.27347 0.91672 0.50872 0.0
N2939 N 0.23906 0.90762 0.43105 0.0
C2940 C 0.26563 0.91276 0.48858 0.0
C2941 C 0.2479 0.90808 0.44884 0.0
N2942 N 0.28769 0.92856 0.46609 0.0
N2943 N 0.22745 0.88669 0.46756 0.0
H2944 H 0.24325 0.91433 0.4165 0.0
H2945 H 0.22745 0.90148 0.4315 0.0
H2946 H 0.2225 0.87956 0.48151 0.0
H2947 H 0.22111 0.88303 0.4526 0.0
H2948 H 0.29494 0.92892 0.47882 0.0
H2949 H 0.29314 0.93412 0.45108 0.0
H2950 H 0.28418 0.9259 0.51027 0.0
H2951 H 0.26886 0.91164 0.52439 0.0
C2952 C 0.08492 0.35478 0.46283 0.0
C2953 C 0.0822 0.34397 0.44569 0.0
C2954 C 0.09831 0.33677 0.46626 0.0
C2955 C 0.09943 0.3462 0.48474 0.0
N2956 N 0.09098 0.36175 0.50264 0.0
N2957 N 0.08397 0.32262 0.43331 0.0
C2958 C 0.09196 0.35456 0.48361 0.0
C2959 C 0.08827 0.33439 0.44798 0.0
N2960 N 0.08118 0.36554 0.45904 0.0
N2961 N 0.10714 0.33042 0.46583 0.0
H2962 H 0.07632 0.32023 0.42006 0.0
H2963 H 0.08687 0.31442 0.43566 0.0
H2964 H 0.11484 0.33214 0.47872 0.0
H2965 H 0.10786 0.32466 0.45167 0.0
H2966 H 0.08429 0.37456 0.47004 0.0
H2967 H 0.07632 0.36631 0.44379 0.0
H2968 H 0.08435 0.36671 0.5033 0.0
H2969 H 0.09552 0.36148 0.51849 0.0
C2970 C 0.08584 0.32855 0.23808 0.0
C2971 C 0.0701 0.32217 0.23736 0.0
C2972 C 0.06979 0.31478 0.19734 0.0
C2973 C 0.08531 0.3199 0.19875 0.0
N2974 N 0.10772 0.32937 0.22144 0.0
N2975 N 0.04668 0.30678 0.21797 0.0
C2976 C 0.09324 0.32613 0.21942 0.0
C2977 C 0.06194 0.31457 0.21745 0.0
N2978 N 0.09378 0.33736 0.25619 0.0
N2979 N 0.06264 0.31067 0.17662 0.0
H2980 H 0.04052 0.30628 0.23245 0.0
H2981 H 0.04017 0.29971 0.2048 0.0
H2982 H 0.068 0.31081 0.16138 0.0
H2983 H 0.05174 0.30842 0.17413 0.0
H2984 H 0.10539 0.34361 0.25651 0.0
H2985 H 0.08877 0.33947 0.27012 0.0
H2986 H 0.1136 0.33245 0.23686 0.0
H2987 H 0.11349 0.32775 0.20811 0.0
C2988 C 0.67446 0.75933 0.23978 0.0
C2989 C 0.6803 0.7495 0.23988 0.0
C2990 C 0.68905 0.75661 0.20035 0.0
C2991 C 0.68424 0.76728 0.20087 0.0
N2992 N 0.67485 0.78079 0.22226 0.0
N2993 N 0.69576 0.74093 0.22225 0.0
C2994 C 0.67768 0.76924 0.22097 0.0
C2995 C 0.68839 0.74878 0.22074 0.0
N2996 N 0.66534 0.75878 0.25719 0.0
N2997 N 0.69366 0.75349 0.18016 0.0
H2998 H 0.69559 0.7351 0.23696 0.0
H2999 H 0.70312 0.7413 0.20974 0.0
H3000 H 0.69422 0.75888 0.16475 0.0
H3001 H 0.69569 0.74465 0.17821 0.0
H3002 H 0.65943 0.76448 0.25682 0.0
H3003 H 0.66267 0.75164 0.27124 0.0
H3004 H 0.67153 0.78375 0.2373 0.0
H3005 H 0.67709 0.78826 0.20879 0.0
C3006 C 0.24298 0.91534 0.23758 0.0
C3007 C 0.25019 0.93115 0.23906 0.0
C3008 C 0.24149 0.93219 0.20039 0.0
C3009 C 0.233 0.91635 0.19991 0.0
N3010 N 0.22331 0.8929 0.2199 0.0
N3011 N 0.25362 0.95439 0.22397 0.0
C3012 C 0.23304 0.90793 0.21908 0.0
C3013 C 0.24865 0.93952 0.22107 0.0
N3014 N 0.24608 0.90745 0.25329 0.0
N3015 N 0.24328 0.94024 0.18085 0.0
H3016 H 0.25868 0.96012 0.23907 0.0
H3017 H 0.25141 0.96067 0.21232 0.0
H3018 H 0.23857 0.93532 0.16513 0.0
H3019 H 0.25063 0.95169 0.17971 0.0
H3020 H 0.24234 0.89609 0.25164 0.0
H3021 H 0.25354 0.91248 0.26683 0.0
H3022 H 0.2218 0.88645 0.23447 0.0
H3023 H 0.21572 0.88711 0.2068 0.0
C3024 C 0.69491 0.92938 0.23627 0.0
C3025 C 0.68352 0.93321 0.23565 0.0
C3026 C 0.67719 0.92386 0.19624 0.0
C3027 C 0.68774 0.91893 0.19753 0.0
N3028 N 0.70525 0.91504 0.21946 0.0
N3029 N 0.66221 0.93206 0.21679 0.0
C3030 C 0.69623 0.92114 0.21776 0.0
C3031 C 0.6742 0.92988 0.2161 0.0
N3032 N 0.70473 0.93401 0.25424 0.0
N3033 N 0.67038 0.92322 0.1758 0.0
H3034 H 0.65972 0.93658 0.23097 0.0
H3035 H 0.65403 0.92829 0.20411 0.0
H3036 H 0.67214 0.91875 0.16088 0.0
H3037 H 0.66391 0.9282 0.1731 0.0
H3038 H 0.71424 0.933 0.25457 0.0
H3039 H 0.70402 0.93997 0.26817 0.0
H3040 H 0.7105 0.91485 0.23459 0.0
H3041 H 0.7066 0.9091 0.2061 0.0
C3042 C 0.05851 0.74874 0.22255 0.0
C3043 C 0.06614 0.75258 0.24388 0.0
C3044 C 0.08749 0.77424 0.2262 0.0
C3045 C 0.08052 0.76948 0.20446 0.0
N3046 N 0.06017 0.75149 0.18115 0.0
N3047 N 0.0883 0.76796 0.2661 0.0
C3048 C 0.06619 0.75657 0.20242 0.0
C3049 C 0.08072 0.76512 0.24578 0.0
N3050 N 0.04384 0.73778 0.22168 0.0
N3051 N 0.10046 0.78762 0.2281 0.0
H3052 H 0.08359 0.76169 0.28093 0.0
H3053 H 0.09955 0.77585 0.26795 0.0
H3054 H 0.10579 0.79446 0.21401 0.0
H3055 H 0.10532 0.79251 0.24373 0.0
H3056 H 0.03716 0.7355 0.20717 0.0
H3057 H 0.03792 0.73169 0.23607 0.0
H3058 H 0.05061 0.74122 0.17831 0.0
H3059 H 0.06529 0.75709 0.166 0.0
C3060 C 0.23939 0.31848 0.24239 0.0
C3061 C 0.25159 0.31594 0.24002 0.0
C3062 C 0.24626 0.31082 0.19901 0.0
C3063 C 0.23361 0.31263 0.20162 0.0
N3064 N 0.21646 0.3155 0.2261 0.0
N3065 N 0.26511 0.30704 0.21755 0.0
C3066 C 0.22966 0.31563 0.22345 0.0
C3067 C 0.25455 0.31128 0.21874 0.0
N3068 N 0.23747 0.32419 0.26244 0.0
N3069 N 0.25068 0.30925 0.17756 0.0
H3070 H 0.27148 0.30735 0.23165 0.0
H3071 H 0.26671 0.30204 0.20315 0.0
H3072 H 0.24478 0.30863 0.16269 0.0
H3073 H 0.26076 0.30965 0.17428 0.0
H3074 H 0.22985 0.32789 0.26438 0.0
H3075 H 0.24428 0.32629 0.27677 0.0
H3076 H 0.21216 0.31607 0.24198 0.0
H3077 H 0.20914 0.31357 0.21251 0.0
C3078 C 0.2753 0.35811 0.46377 0.0
C3079 C 0.2668 0.34931 0.44488 0.0
C3080 C 0.24389 0.34558 0.46332 0.0
C3081 C 0.25217 0.35266 0.4834 0.0
N3082 N 0.27549 0.36356 0.5042 0.0
N3083 N 0.24273 0.33264 0.42809 0.0
C3084 C 0.26783 0.35842 0.48402 0.0
C3085 C 0.251 0.34253 0.44496 0.0
N3086 N 0.2905 0.36643 0.46216 0.0
N3087 N 0.2293 0.34203 0.46164 0.0
H3088 H 0.24747 0.32988 0.41453 0.0
H3089 H 0.23114 0.32616 0.42864 0.0
H3090 H 0.22377 0.34423 0.47471 0.0
H3091 H 0.22313 0.33823 0.44654 0.0
H3092 H 0.29715 0.37423 0.47449 0.0
H3093 H 0.29635 0.36661 0.44748 0.0
H3094 H 0.28658 0.36632 0.50618 0.0
H3095 H 0.27044 0.36381 0.51955 0.0
C3096 C 0.6766 0.91613 0.44041 0.0
C3097 C 0.66655 0.92171 0.44139 0.0
C3098 C 0.66092 0.91381 0.48152 0.0
C3099 C 0.66993 0.90705 0.47988 0.0
N3100 N 0.68369 0.89894 0.4563 0.0
N3101 N 0.64665 0.92288 0.4611 0.0
C3102 C 0.67696 0.90734 0.45884 0.0
C3103 C 0.65794 0.91963 0.46143 0.0
N3104 N 0.68629 0.91979 0.42242 0.0
N3105 N 0.6558 0.91532 0.50241 0.0
H3106 H 0.64397 0.92694 0.44655 0.0
H3107 H 0.63905 0.92017 0.47449 0.0
H3108 H 0.658 0.91153 0.51769 0.0
H3109 H 0.65055 0.92157 0.50487 0.0
H3110 H 0.69491 0.91734 0.42208 0.0
H3111 H 0.68667 0.9265 0.40879 0.0
H3112 H 0.68768 0.89754 0.44062 0.0
H3113 H 0.68399 0.89219 0.46936 0.0
C3114 C 0.09913 0.74258 0.44775 0.0
C3115 C 0.08402 0.73908 0.44891 0.0
C3116 C 0.08767 0.7482 0.48851 0.0
C3117 C 0.10304 0.75272 0.48679 0.0
N3118 N 0.12403 0.7563 0.46406 0.0
N3119 N 0.06442 0.74079 0.46858 0.0
C3120 C 0.10897 0.75051 0.46617 0.0
C3121 C 0.07843 0.74254 0.46879 0.0
N3122 N 0.10394 0.73791 0.42935 0.0
N3123 N 0.08178 0.74883 0.50923 0.0
H3124 H 0.05727 0.73656 0.45449 0.0
H3125 H 0.06033 0.74467 0.48158 0.0
H3126 H 0.08817 0.75301 0.52409 0.0
H3127 H 0.07037 0.74411 0.51218 0.0
H3128 H 0.11435 0.73866 0.42859 0.0
H3129 H 0.09709 0.73222 0.41545 0.0
H3130 H 0.12925 0.75647 0.4487 0.0
H3131 H 0.13151 0.76202 0.47733 0.0
C3132 C 0.31706 0.08071 0.77577 0.0
C3133 C 0.31904 0.06822 0.77915 0.0
C3134 C 0.31878 0.07108 0.82089 0.0
C3135 C 0.31635 0.08329 0.81752 0.0
N3136 N 0.31113 0.09864 0.79247 0.0
N3137 N 0.31975 0.05006 0.80423 0.0
C3138 C 0.31486 0.08777 0.79513 0.0
C3139 C 0.31928 0.06296 0.80154 0.0
N3140 N 0.31766 0.086 0.75404 0.0
N3141 N 0.32099 0.0675 0.84261 0.0
H3142 H 0.32062 0.04409 0.79046 0.0
H3143 H 0.31829 0.04466 0.81988 0.0
H3144 H 0.32005 0.07273 0.8573 0.0
H3145 H 0.32459 0.05996 0.84616 0.0
H3146 H 0.31802 0.09603 0.75044 0.0
H3147 H 0.31864 0.08075 0.7394 0.0
H3148 H 0.30831 0.10139 0.77681 0.0
H3149 H 0.30989 0.10435 0.80628 0.0
C3150 C 0.91711 0.24205 0.78188 0.0
C3151 C 0.9329 0.24914 0.78034 0.0
C3152 C 0.93401 0.24016 0.8188 0.0
C3153 C 0.91817 0.23232 0.81974 0.0
N3154 N 0.89457 0.22309 0.8004 0.0
N3155 N 0.95611 0.25227 0.7949 0.0
C3156 C 0.90969 0.23241 0.80068 0.0
C3157 C 0.94127 0.24735 0.79807 0.0
N3158 N 0.90925 0.24507 0.76599 0.0
N3159 N 0.94213 0.24135 0.838 0.0
H3160 H 0.96177 0.25751 0.77984 0.0
H3161 H 0.96245 0.24993 0.80623 0.0
H3162 H 0.93727 0.23632 0.8536 0.0
H3163 H 0.95365 0.24833 0.83904 0.0
H3164 H 0.89794 0.24155 0.76768 0.0
H3165 H 0.91425 0.25218 0.75205 0.0
H3166 H 0.88797 0.22155 0.78603 0.0
H3167 H 0.8888 0.21581 0.81386 0.0
C3168 C 0.74553 0.67354 0.79825 0.0
C3169 C 0.74982 0.68452 0.78085 0.0
C3170 C 0.77371 0.70016 0.80038 0.0
C3171 C 0.76885 0.68974 0.81869 0.0
N3172 N 0.74903 0.66802 0.83738 0.0
N3173 N 0.76677 0.70933 0.76696 0.0
C3174 C 0.75443 0.67685 0.8183 0.0
C3175 C 0.76359 0.69816 0.78236 0.0
N3176 N 0.73325 0.65973 0.79526 0.0
N3177 N 0.78811 0.71172 0.7999 0.0
H3178 H 0.75961 0.70826 0.75356 0.0
H3179 H 0.77588 0.72007 0.76855 0.0
H3180 H 0.79578 0.71357 0.81289 0.0
H3181 H 0.79279 0.71876 0.78583 0.0
H3182 H 0.73055 0.65076 0.80618 0.0
H3183 H 0.72646 0.6568 0.78073 0.0
H3184 H 0.73801 0.65944 0.83895 0.0
H3185 H 0.75515 0.6701 0.85251 0.0
C3186 C 0.74436 0.665 0.55986 0.0
C3187 C 0.73568 0.65273 0.57455 0.0
C3188 C 0.74194 0.63694 0.55112 0.0
C3189 C 0.74903 0.64871 0.53496 0.0
N3190 N 0.75425 0.67298 0.52165 0.0
N3191 N 0.72406 0.6263 0.58216 0.0
C3192 C 0.74951 0.6625 0.53869 0.0
C3193 C 0.73389 0.63848 0.56968 0.0
N3194 N 0.74809 0.67914 0.56642 0.0
N3195 N 0.74324 0.62448 0.54909 0.0
H3196 H 0.71778 0.62692 0.59567 0.0
H3197 H 0.72115 0.61541 0.57781 0.0
H3198 H 0.74919 0.62305 0.53585 0.0
H3199 H 0.7396 0.61623 0.56165 0.0
H3200 H 0.75565 0.68864 0.55741 0.0
H3201 H 0.74482 0.68149 0.58207 0.0
H3202 H 0.75333 0.68254 0.52265 0.0
H3203 H 0.75773 0.67146 0.50557 0.0
C3204 C 0.36303 0.09578 0.56938 0.0
C3205 C 0.35086 0.08092 0.56937 0.0
C3206 C 0.34423 0.08419 0.53028 0.0
C3207 C 0.35539 0.09949 0.53123 0.0
N3208 N 0.37459 0.12042 0.55204 0.0
N3209 N 0.32874 0.06131 0.55128 0.0
C3210 C 0.36462 0.10545 0.55086 0.0
C3211 C 0.34118 0.07517 0.55017 0.0
N3212 N 0.3732 0.10052 0.58687 0.0
N3213 N 0.33676 0.07821 0.51019 0.0
H3214 H 0.32623 0.05425 0.56541 0.0
H3215 H 0.32031 0.0572 0.53898 0.0
H3216 H 0.33854 0.08449 0.4953 0.0
H3217 H 0.32971 0.06681 0.50763 0.0
H3218 H 0.38313 0.1107 0.58682 0.0
H3219 H 0.37228 0.09374 0.60075 0.0
H3220 H 0.38048 0.12577 0.56683 0.0
H3221 H 0.37625 0.12774 0.53858 0.0
C3222 C 0.91071 0.24753 0.57253 0.0
C3223 C 0.91754 0.26329 0.57429 0.0
C3224 C 0.90829 0.26439 0.53604 0.0
C3225 C 0.90066 0.24856 0.53492 0.0
N3226 N 0.89192 0.22493 0.55391 0.0
N3227 N 0.92016 0.28639 0.56019 0.0
C3228 C 0.90103 0.24008 0.55377 0.0
C3229 C 0.91549 0.27162 0.55679 0.0
N3230 N 0.914 0.23974 0.58817 0.0
N3231 N 0.90928 0.27255 0.51699 0.0
H3232 H 0.92539 0.29203 0.57527 0.0
H3233 H 0.91761 0.29266 0.54904 0.0
H3234 H 0.90427 0.26772 0.50137 0.0
H3235 H 0.91612 0.28409 0.51607 0.0
H3236 H 0.91066 0.22849 0.58631 0.0
H3237 H 0.92114 0.24477 0.60207 0.0
H3238 H 0.89057 0.2183 0.56816 0.0
H3239 H 0.88462 0.21913 0.54048 0.0
C3240 C 0.36233 0.26284 0.57274 0.0
C3241 C 0.35067 0.26628 0.57283 0.0
C3242 C 0.3436 0.25656 0.53373 0.0
C3243 C 0.35452 0.25208 0.53428 0.0
N3244 N 0.37288 0.24893 0.55506 0.0
N3245 N 0.32861 0.26428 0.55534 0.0
C3246 C 0.36351 0.25465 0.55403 0.0
C3247 C 0.34083 0.26252 0.55386 0.0
N3248 N 0.37252 0.26779 0.59021 0.0
N3249 N 0.33623 0.25557 0.51373 0.0
H3250 H 0.32626 0.26876 0.56973 0.0
H3251 H 0.32012 0.26019 0.54314 0.0
H3252 H 0.33782 0.25114 0.49862 0.0
H3253 H 0.32943 0.26024 0.51153 0.0
H3254 H 0.3822 0.26707 0.58998 0.0
H3255 H 0.37189 0.27366 0.60431 0.0
H3256 H 0.37858 0.24903 0.56986 0.0
H3257 H 0.37411 0.24301 0.54155 0.0
C3258 C 0.74722 0.07138 0.56056 0.0
C3259 C 0.74151 0.07886 0.57395 0.0
C3260 C 0.75575 0.10143 0.5507 0.0
C3261 C 0.76012 0.09339 0.53593 0.0
N3262 N 0.75713 0.06971 0.52383 0.0
N3263 N 0.73815 0.10012 0.57938 0.0
C3264 C 0.75502 0.07806 0.53999 0.0
C3265 C 0.74515 0.09366 0.56835 0.0
N3266 N 0.74575 0.05817 0.56794 0.0
N3267 N 0.76205 0.11653 0.54834 0.0
H3268 H 0.73018 0.09469 0.59218 0.0
H3269 H 0.73923 0.11028 0.57443 0.0
H3270 H 0.76993 0.12261 0.53573 0.0
H3271 H 0.76046 0.1232 0.5601 0.0
H3272 H 0.75107 0.05306 0.56002 0.0
H3273 H 0.7405 0.05305 0.58328 0.0
H3274 H 0.75225 0.05815 0.52492 0.0
H3275 H 0.76247 0.07407 0.5082 0.0
C3276 C 0.90259 0.64501 0.57309 0.0
C3277 C 0.91778 0.65647 0.57242 0.0
C3278 C 0.91471 0.66266 0.53296 0.0
C3279 C 0.89929 0.65186 0.53414 0.0
N3280 N 0.87792 0.63432 0.55607 0.0
N3281 N 0.9378 0.67791 0.55363 0.0
C3282 C 0.89303 0.64348 0.55446 0.0
C3283 C 0.9237 0.66581 0.55289 0.0
N3284 N 0.89745 0.63531 0.59121 0.0
N3285 N 0.92088 0.6695 0.51254 0.0
H3286 H 0.9448 0.68049 0.56785 0.0
H3287 H 0.94215 0.68609 0.54094 0.0
H3288 H 0.91466 0.66764 0.49756 0.0
H3289 H 0.93232 0.67614 0.50992 0.0
H3290 H 0.88697 0.62574 0.5916 0.0
H3291 H 0.90408 0.63624 0.6053 0.0
H3292 H 0.87247 0.62908 0.5712 0.0
H3293 H 0.87064 0.63285 0.54263 0.0
C3294 C 0.93978 0.68305 0.8004 0.0
C3295 C 0.93523 0.68469 0.77814 0.0
C3296 C 0.91778 0.69158 0.79495 0.0
C3297 C 0.92143 0.68871 0.81712 0.0
N3298 N 0.93389 0.67921 0.84095 0.0
N3299 N 0.91832 0.68816 0.75386 0.0
C3300 C 0.93188 0.68373 0.81985 0.0
C3301 C 0.92377 0.68831 0.77529 0.0
N3302 N 0.95196 0.68131 0.80296 0.0
N3303 N 0.90894 0.69786 0.79273 0.0
H3304 H 0.92247 0.68586 0.73904 0.0
H3305 H 0.90889 0.68909 0.75089 0.0
H3306 H 0.90426 0.70031 0.80675 0.0
H3307 H 0.9072 0.70175 0.7772 0.0
H3308 H 0.95683 0.6817 0.81878 0.0
H3309 H 0.95804 0.68073 0.7891 0.0
H3310 H 0.94012 0.67395 0.84357 0.0
H3311 H 0.92828 0.6795 0.85565 0.0
C3312 C 0.32072 0.23978 0.77599 0.0
C3313 C 0.32287 0.25435 0.77886 0.0
C3314 C 0.3231 0.25178 0.82063 0.0
C3315 C 0.31952 0.23672 0.81778 0.0
N3316 N 0.31278 0.21558 0.79311 0.0
N3317 N 0.32374 0.27346 0.8036 0.0
C3318 C 0.31775 0.23048 0.79554 0.0
C3319 C 0.32341 0.26015 0.80112 0.0
N3320 N 0.32197 0.23501 0.75465 0.0
N3321 N 0.32669 0.25823 0.84191 0.0
H3322 H 0.32402 0.27995 0.7897 0.0
H3323 H 0.32247 0.27748 0.81933 0.0
H3324 H 0.32666 0.25249 0.85664 0.0
H3325 H 0.33094 0.26959 0.84469 0.0
H3326 H 0.32214 0.22516 0.75176 0.0
H3327 H 0.32408 0.24149 0.73991 0.0
H3328 H 0.3097 0.21004 0.77741 0.0
H3329 H 0.31058 0.20844 0.80705 0.0
C3330 C 0.73919 0.0688 0.80243 0.0
C3331 C 0.74705 0.06985 0.78193 0.0
C3332 C 0.77071 0.08781 0.80015 0.0
C3333 C 0.76261 0.08807 0.81961 0.0
N3334 N 0.73928 0.07952 0.8395 0.0
N3335 N 0.76998 0.08027 0.76044 0.0
C3336 C 0.74689 0.07863 0.82092 0.0
C3337 C 0.76277 0.07924 0.78062 0.0
N3338 N 0.72438 0.05833 0.80419 0.0
N3339 N 0.78597 0.09564 0.80055 0.0
H3340 H 0.7646 0.07363 0.74619 0.0
H3341 H 0.78111 0.08812 0.75734 0.0
H3342 H 0.79205 0.10221 0.81448 0.0
H3343 H 0.79265 0.09486 0.78792 0.0
H3344 H 0.71833 0.05584 0.81941 0.0
H3345 H 0.71826 0.05124 0.79074 0.0
H3346 H 0.7277 0.07437 0.84034 0.0
H3347 H 0.74454 0.08615 0.85381 0.0
C3348 C 0.07381 0.35787 0.06086 0.0
C3349 C 0.066 0.35183 0.04008 0.0
C3350 C 0.07883 0.3375 0.03533 0.0
C3351 C 0.08464 0.34161 0.05787 0.0
N3352 N 0.08626 0.35442 0.09342 0.0
N3353 N 0.0601 0.33507 0.00794 0.0
C3354 C 0.08193 0.35161 0.07094 0.0
C3355 C 0.06837 0.34154 0.02722 0.0
N3356 N 0.07349 0.36965 0.0709 0.0
N3357 N 0.08343 0.32982 0.02168 0.0
H3358 H 0.05243 0.33785 0.00133 0.0
H3359 H 0.06007 0.32623 0.99937 0.0
H3360 H 0.09112 0.32676 0.02719 0.0
H3361 H 0.08071 0.3277 0.00435 0.0
H3362 H 0.08014 0.37549 0.08488 0.0
H3363 H 0.06766 0.37452 0.06384 0.0
H3364 H 0.08303 0.36021 0.10446 0.0
H3365 H 0.09203 0.34991 0.10173 0.0
C3366 C 0.66384 0.72748 0.02943 0.0
C3367 C 0.65284 0.71487 0.0416 0.0
C3368 C 0.65246 0.73113 0.07179 0.0
C3369 C 0.6631 0.7438 0.05928 0.0
N3370 N 0.67611 0.75429 0.02382 0.0
N3371 N 0.63379 0.70486 0.07076 0.0
C3372 C 0.66785 0.74204 0.03726 0.0
C3373 C 0.64618 0.71678 0.0616 0.0
N3374 N 0.67106 0.72561 0.01119 0.0
N3375 N 0.64903 0.73262 0.09395 0.0
H3376 H 0.62885 0.69421 0.06353 0.0
H3377 H 0.62759 0.70584 0.08403 0.0
H3378 H 0.65354 0.74285 0.10238 0.0
H3379 H 0.64269 0.72356 0.10467 0.0
H3380 H 0.68034 0.7344 0.00334 0.0
H3381 H 0.66852 0.71516 0.00493 0.0
H3382 H 0.67873 0.75363 0.00676 0.0
H3383 H 0.67913 0.76508 0.02909 0.0
C3384 C 0.27306 0.93017 0.02582 0.0
C3385 C 0.28504 0.93924 0.04078 0.0
C3386 C 0.26868 0.92833 0.07412 0.0
C3387 C 0.25635 0.92053 0.05909 0.0
N3388 N 0.24624 0.91455 0.02083 0.0
N3389 N 0.29413 0.94846 0.0789 0.0
C3390 C 0.25839 0.92152 0.03495 0.0
C3391 C 0.28285 0.93865 0.06489 0.0
N3392 N 0.2758 0.92966 0.00297 0.0
N3393 N 0.26684 0.9257 0.09724 0.0
H3394 H 0.30476 0.95611 0.07291 0.0
H3395 H 0.29269 0.94983 0.09623 0.0
H3396 H 0.25657 0.91844 0.10475 0.0
H3397 H 0.27568 0.92974 0.10882 0.0
H3398 H 0.26789 0.92222 0.99145 0.0
H3399 H 0.2864 0.93597 0.99578 0.0
H3400 H 0.24671 0.91615 0.00315 0.0
H3401 H 0.23543 0.90779 0.02701 0.0
C3402 C 0.35196 0.07689 0.98611 0.0
C3403 C 0.35035 0.06457 0.97312 0.0
C3404 C 0.34085 0.07229 0.94052 0.0
C3405 C 0.34075 0.0835 0.95441 0.0
N3406 N 0.3449 0.09586 0.99094 0.0
N3407 N 0.34111 0.04905 0.9393 0.0
C3408 C 0.34602 0.0857 0.97735 0.0
C3409 C 0.34427 0.06189 0.95062 0.0
N3410 N 0.35941 0.08031 0.00658 0.0
N3411 N 0.33793 0.07176 0.91752 0.0
H3412 H 0.34332 0.04103 0.9461 0.0
H3413 H 0.33509 0.04569 0.92402 0.0
H3414 H 0.33536 0.07919 0.90943 0.0
H3415 H 0.3394 0.06486 0.90608 0.0
H3416 H 0.36228 0.08999 0.01582 0.0
H3417 H 0.36382 0.07402 0.01348 0.0
H3418 H 0.34698 0.09686 0.00852 0.0
H3419 H 0.34089 0.10269 0.98489 0.0
C3420 C 0.93504 0.27396 0.9929 0.0
C3421 C 0.93765 0.28673 0.98013 0.0
C3422 C 0.92194 0.27082 0.94891 0.0
C3423 C 0.91882 0.25799 0.96201 0.0
N3424 N 0.91958 0.24721 0.99827 0.0
N3425 N 0.93063 0.29734 0.94908 0.0
C3426 C 0.92447 0.25953 0.98464 0.0
C3427 C 0.93009 0.28514 0.95915 0.0
N3428 N 0.94317 0.27558 0.01228 0.0
N3429 N 0.91794 0.26945 0.92628 0.0
H3430 H 0.93646 0.308 0.95626 0.0
H3431 H 0.92415 0.29665 0.93495 0.0
H3432 H 0.91225 0.25922 0.9178 0.0
H3433 H 0.92144 0.27854 0.91531 0.0
H3434 H 0.94301 0.26666 0.02082 0.0
H3435 H 0.95093 0.28596 0.01898 0.0
H3436 H 0.92218 0.24774 0.01564 0.0
H3437 H 0.9118 0.2365 0.99269 0.0
C3438 C 0.72556 0.66927 0.96443 0.0
C3439 C 0.71718 0.65446 0.9728 0.0
C3440 C 0.73851 0.65081 0.96562 0.0
C3441 C 0.74602 0.66487 0.95443 0.0
N3442 N 0.74498 0.68594 0.93855 0.0
N3443 N 0.71477 0.63021 0.9782 0.0
C3444 C 0.73909 0.67371 0.95257 0.0
C3445 C 0.72341 0.64495 0.97262 0.0
N3446 N 0.72082 0.67926 0.96832 0.0
N3447 N 0.74591 0.64323 0.97005 0.0
H3448 H 0.70362 0.62546 0.98308 0.0
H3449 H 0.71827 0.62244 0.97605 0.0
H3450 H 0.75701 0.64729 0.96537 0.0
H3451 H 0.74148 0.63365 0.98015 0.0
H3452 H 0.72729 0.69059 0.96452 0.0
H3453 H 0.71115 0.67659 0.97753 0.0
H3454 H 0.73948 0.69182 0.93485 0.0
H3455 H 0.75453 0.6893 0.92865 0.0
C3456 C 0.94697 0.66797 0.95553 0.0
C3457 C 0.94278 0.66033 0.97688 0.0
C3458 C 0.92045 0.6629 0.97827 0.0
C3459 C 0.92497 0.67105 0.95741 0.0
N3460 N 0.94317 0.68297 0.92728 0.0
N3461 N 0.92679 0.65188 0.01009 0.0
C3462 C 0.93844 0.67406 0.94636 0.0
C3463 C 0.92987 0.6582 0.98872 0.0
N3464 N 0.95895 0.66907 0.94378 0.0
N3465 N 0.90698 0.65937 0.98771 0.0
H3466 H 0.93321 0.64791 0.01788 0.0
H3467 H 0.91849 0.65137 0.02076 0.0
H3468 H 0.90007 0.66306 0.98087 0.0
H3469 H 0.90218 0.65212 0.0015 0.0
H3470 H 0.96152 0.67276 0.9269 0.0
H3471 H 0.96598 0.66548 0.95042 0.0
H3472 H 0.95368 0.6871 0.91997 0.0
H3473 H 0.93694 0.68712 0.91938 0.0
C3474 C 0.33665 0.28306 0.95558 0.0
C3475 C 0.34596 0.28791 0.97528 0.0
C3476 C 0.34502 0.26376 0.97741 0.0
C3477 C 0.33675 0.25943 0.95666 0.0
N3478 N 0.32665 0.26566 0.92386 0.0
N3479 N 0.36061 0.28391 0.00354 0.0
C3480 C 0.33311 0.26929 0.94514 0.0
C3481 C 0.35059 0.27853 0.98586 0.0
N3482 N 0.33083 0.29145 0.94726 0.0
N3483 N 0.34726 0.25364 0.98924 0.0
H3484 H 0.36474 0.2946 0.01032 0.0
H3485 H 0.36567 0.27826 0.01043 0.0
H3486 H 0.34356 0.24284 0.98326 0.0
H3487 H 0.35182 0.25552 0.00566 0.0
H3488 H 0.32263 0.28772 0.93461 0.0
H3489 H 0.33326 0.30169 0.9543 0.0
H3490 H 0.32535 0.27311 0.91344 0.0
H3491 H 0.32366 0.25558 0.91568 0.0
C3492 C 0.71762 0.06106 0.957 0.0
C3493 C 0.71328 0.06345 0.97898 0.0
C3494 C 0.73531 0.08852 0.9806 0.0
C3495 C 0.73973 0.08603 0.95876 0.0
N3496 N 0.73691 0.06926 0.92791 0.0
N3497 N 0.71889 0.07802 0.01358 0.0
C3498 C 0.73146 0.07204 0.94756 0.0
C3499 C 0.72244 0.07676 0.9914 0.0
N3500 N 0.70818 0.04856 0.94473 0.0
N3501 N 0.74317 0.10228 0.9906 0.0
H3502 H 0.70943 0.06966 0.02179 0.0
H3503 H 0.7258 0.08677 0.02441 0.0
H3504 H 0.75297 0.11091 0.98355 0.0
H3505 H 0.73965 0.10544 0.00521 0.0
H3506 H 0.70977 0.047 0.92754 0.0
H3507 H 0.69812 0.04003 0.95126 0.0
H3508 H 0.73232 0.05879 0.92029 0.0
H3509 H 0.74678 0.07718 0.92005 0.0
C3510 C 0.66567 0.94432 0.06062 0.0
C3511 C 0.65681 0.93964 0.04042 0.0
C3512 C 0.65819 0.91663 0.03937 0.0
C3513 C 0.66753 0.9216 0.05903 0.0
N3514 N 0.68168 0.9407 0.0871 0.0
N3515 N 0.64592 0.9225 0.00884 0.0
C3516 C 0.67172 0.93562 0.06928 0.0
C3517 C 0.65345 0.92612 0.02926 0.0
N3518 N 0.66799 0.95693 0.07185 0.0
N3519 N 0.6536 0.9027 0.03076 0.0
H3520 H 0.64191 0.92898 0.00137 0.0
H3521 H 0.6444 0.91365 0.99851 0.0
H3522 H 0.65729 0.89572 0.0373 0.0
H3523 H 0.64554 0.89766 0.01804 0.0
H3524 H 0.67267 0.95998 0.08814 0.0
H3525 H 0.66443 0.96406 0.06548 0.0
H3526 H 0.68664 0.95151 0.09354 0.0
H3527 H 0.68583 0.93439 0.09472 0.0
C3528 C 0.06129 0.7172 0.06818 0.0
C3529 C 0.06337 0.71497 0.04474 0.0
C3530 C 0.08313 0.74116 0.04136 0.0
C3531 C 0.08145 0.74317 0.06503 0.0
N3532 N 0.07134 0.73259 0.10212 0.0
N3533 N 0.07774 0.72375 0.00992 0.0
C3534 C 0.07128 0.731 0.0788 0.0
C3535 C 0.07477 0.72664 0.03158 0.0
N3536 N 0.04934 0.70639 0.08003 0.0
N3537 N 0.09234 0.75321 0.02813 0.0
H3538 H 0.07173 0.71326 0.00227 0.0
H3539 H 0.08685 0.73134 0.00023 0.0
H3540 H 0.09889 0.7639 0.0349 0.0
H3541 H 0.09282 0.75285 0.01031 0.0
H3542 H 0.04623 0.70806 0.09626 0.0
H3543 H 0.04172 0.69607 0.07297 0.0
H3544 H 0.06535 0.72371 0.11331 0.0
H3545 H 0.07843 0.74258 0.11054 0.0
C3546 C 0.28443 0.34458 0.0709 0.0
C3547 C 0.28818 0.35157 0.04905 0.0
C3548 C 0.26242 0.34619 0.04386 0.0
C3549 C 0.25901 0.34016 0.06635 0.0
N3550 N 0.2675 0.33672 0.10324 0.0
N3551 N 0.28169 0.36136 0.01625 0.0
C3552 C 0.27026 0.34033 0.08048 0.0
C3553 C 0.27744 0.35307 0.03594 0.0
N3554 N 0.29411 0.34136 0.08208 0.0
N3555 N 0.25124 0.34491 0.02986 0.0
H3556 H 0.2926 0.36653 0.01001 0.0
H3557 H 0.27476 0.36414 0.00713 0.0
H3558 H 0.24017 0.34013 0.03526 0.0
H3559 H 0.2527 0.34759 0.01247 0.0
H3560 H 0.29125 0.33479 0.09681 0.0
H3561 H 0.30454 0.34404 0.07556 0.0
H3562 H 0.27576 0.33817 0.11489 0.0
H3563 H 0.25727 0.33362 0.111 0.0
C3564 C 0.74296 0.6916 0.37695 0.0
C3565 C 0.72731 0.68288 0.38043 0.0
C3566 C 0.73086 0.66528 0.40392 0.0
C3567 C 0.74631 0.67313 0.39855 0.0
N3568 N 0.76686 0.69249 0.37728 0.0
N3569 N 0.70606 0.65977 0.39303 0.0
C3570 C 0.75233 0.68596 0.38429 0.0
C3571 C 0.72116 0.66923 0.3927 0.0
N3572 N 0.74891 0.70547 0.36734 0.0
N3573 N 0.72549 0.65443 0.42043 0.0
H3574 H 0.69853 0.6621 0.38469 0.0
H3575 H 0.70109 0.64898 0.39964 0.0
H3576 H 0.73224 0.65137 0.42951 0.0
H3577 H 0.71463 0.64949 0.42674 0.0
H3578 H 0.76032 0.71299 0.36655 0.0
H3579 H 0.74238 0.70996 0.36181 0.0
H3580 H 0.77147 0.7009 0.36498 0.0
H3581 H 0.77401 0.68865 0.3824 0.0
C3582 C 0.30612 0.05336 0.37765 0.0
C3583 C 0.31466 0.04612 0.3799 0.0
C3584 C 0.33371 0.06742 0.40164 0.0
C3585 C 0.32573 0.07511 0.39814 0.0
N3586 N 0.30564 0.07656 0.37973 0.0
N3587 N 0.33784 0.04746 0.3919 0.0
C3588 C 0.31227 0.0684 0.38528 0.0
C3589 C 0.32875 0.05347 0.39105 0.0
N3590 N 0.29194 0.04566 0.36908 0.0
N3591 N 0.34611 0.07331 0.41532 0.0
H3592 H 0.33554 0.03749 0.38395 0.0
H3593 H 0.33554 0.03749 0.38395 0.0
H3594 H 0.3499 0.08314 0.42467 0.0
H3595 H 0.35221 0.06791 0.41815 0.0
H3596 H 0.28454 0.04972 0.36932 0.0
H3597 H 0.2871 0.03467 0.36329 0.0
H3598 H 0.29671 0.07289 0.36839 0.0
H3599 H 0.30987 0.08759 0.38503 0.0
C3600 C 0.95329 0.26185 0.3948 0.0
C3601 C 0.95489 0.27006 0.37451 0.0
C3602 C 0.92768 0.25736 0.37045 0.0
C3603 C 0.92617 0.25103 0.39256 0.0
N3604 N 0.93773 0.24906 0.42748 0.0
N3605 N 0.94371 0.27691 0.34395 0.0
C3606 C 0.93902 0.25363 0.40516 0.0
C3607 C 0.94211 0.26807 0.3624 0.0
N3608 N 0.96542 0.26182 0.40406 0.0
N3609 N 0.91532 0.25298 0.35706 0.0
H3610 H 0.95407 0.28491 0.33751 0.0
H3611 H 0.93478 0.27713 0.33608 0.0
H3612 H 0.90461 0.24509 0.36245 0.0
H3613 H 0.91584 0.2561 0.33994 0.0
H3614 H 0.96466 0.25488 0.41757 0.0
H3615 H 0.97603 0.26764 0.39674 0.0
H3616 H 0.94689 0.25215 0.43818 0.0
H3617 H 0.92755 0.24333 0.43608 0.0
C3618 C 0.018 0.39895 0.28479 0.0
C3619 C 0.01942 0.39807 0.30889 0.0
C3620 C 0.0122 0.41709 0.31498 0.0
C3621 C 0.01144 0.41841 0.29086 0.0
N3622 N 0.0161 0.41274 0.2526 0.0
N3623 N 0.02019 0.40761 0.34688 0.0
C3624 C 0.01513 0.41 0.2757 0.0
C3625 C 0.01721 0.40756 0.324 0.0
N3626 N 0.01876 0.38879 0.27066 0.0
N3627 N 0.00774 0.42464 0.32918 0.0
H3628 H 0.02374 0.40066 0.354 0.0
H3629 H 0.02025 0.41526 0.35854 0.0
H3630 H 0.00443 0.43202 0.32309 0.0
H3631 H 0.00642 0.42294 0.34684 0.0
H3632 H 0.01601 0.38766 0.2533 0.0
H3633 H 0.02106 0.38063 0.27655 0.0
H3634 H 0.02041 0.40825 0.24095 0.0
H3635 H 0.01369 0.42045 0.24514 0.0
C3636 C 0.5894 0.61362 0.30925 0.0
C3637 C 0.60508 0.6205 0.30614 0.0
C3638 C 0.60166 0.5994 0.28267 0.0
C3639 C 0.58614 0.59184 0.28761 0.0
N3640 N 0.56547 0.59065 0.3085 0.0
N3641 N 0.62636 0.61842 0.29445 0.0
C3642 C 0.58005 0.59864 0.30177 0.0
C3643 C 0.61128 0.61292 0.29421 0.0
N3644 N 0.5834 0.62158 0.31857 0.0
N3645 N 0.60716 0.59404 0.2662 0.0
H3646 H 0.63381 0.62817 0.30312 0.0
H3647 H 0.63131 0.61253 0.28804 0.0
H3648 H 0.60048 0.58438 0.25677 0.0
H3649 H 0.61811 0.59997 0.26024 0.0
H3650 H 0.57198 0.61771 0.31905 0.0
H3651 H 0.5899 0.63258 0.32417 0.0
H3652 H 0.56079 0.59445 0.32069 0.0
H3653 H 0.55835 0.57967 0.30332 0.0
C3654 C 0.3897 0.99578 0.32154 0.0
C3655 C 0.37673 0.98298 0.31311 0.0
C3656 C 0.39189 0.97887 0.28502 0.0
C3657 C 0.40499 0.99108 0.29442 0.0
N3658 N 0.41664 0.00878 0.32519 0.0
N3659 N 0.36605 0.96011 0.29133 0.0
C3660 C 0.40397 0.99877 0.31388 0.0
C3661 C 0.37803 0.97378 0.29632 0.0
N3662 N 0.3884 0.00554 0.33585 0.0
N3663 N 0.39245 0.97269 0.26456 0.0
H3664 H 0.35578 0.95591 0.29962 0.0
H3665 H 0.36678 0.95236 0.28079 0.0
H3666 H 0.40223 0.97638 0.25511 0.0
H3667 H 0.38294 0.96485 0.25584 0.0
H3668 H 0.39742 0.01585 0.34046 0.0
H3669 H 0.37817 0.00397 0.34154 0.0
H3670 H 0.4165 0.01367 0.34074 0.0
H3671 H 0.42726 0.01106 0.32017 0.0
C3672 C 0.59914 0.97575 0.28109 0.0
C3673 C 0.60119 0.97671 0.30525 0.0
C3674 C 0.58007 0.98103 0.31002 0.0
C3675 C 0.57734 0.97892 0.28608 0.0
N3676 N 0.58312 0.97292 0.24882 0.0
N3677 N 0.59332 0.97912 0.34314 0.0
C3678 C 0.5866 0.97596 0.27159 0.0
C3679 C 0.59158 0.97907 0.31986 0.0
N3680 N 0.60935 0.97486 0.26722 0.0
N3681 N 0.57181 0.98518 0.32318 0.0
H3682 H 0.60197 0.97827 0.35084 0.0
H3683 H 0.58579 0.97916 0.35493 0.0
H3684 H 0.5631 0.98637 0.31653 0.0
H3685 H 0.57413 0.9884 0.3403 0.0
H3686 H 0.60957 0.97595 0.24945 0.0
H3687 H 0.61833 0.97401 0.27351 0.0
H3688 H 0.58824 0.96886 0.23791 0.0
H3689 H 0.5744 0.97353 0.24092 0.0
C3690 C 0.02511 0.62719 0.28413 0.0
C3691 C 0.02588 0.6286 0.30839 0.0
C3692 C 0.02376 0.60398 0.31211 0.0
C3693 C 0.02409 0.60308 0.28784 0.0
N3694 N 0.02676 0.61428 0.25051 0.0
N3695 N 0.02732 0.61936 0.34569 0.0
C3696 C 0.0252 0.61481 0.27378 0.0
C3697 C 0.02557 0.61726 0.32247 0.0
N3698 N 0.02398 0.63756 0.27102 0.0
N3699 N 0.0214 0.59199 0.32513 0.0
H3700 H 0.02819 0.62874 0.35386 0.0
H3701 H 0.02881 0.61233 0.35678 0.0
H3702 H 0.02037 0.58226 0.31803 0.0
H3703 H 0.01949 0.59123 0.34274 0.0
H3704 H 0.02156 0.63628 0.25355 0.0
H3705 H 0.02443 0.6471 0.27785 0.0
H3706 H 0.02944 0.62322 0.23957 0.0
H3707 H 0.02639 0.6052 0.24211 0.0
C3708 C 0.39136 0.40715 0.31787 0.0
C3709 C 0.38114 0.39445 0.305 0.0
C3710 C 0.39998 0.40041 0.27513 0.0
C3711 C 0.40997 0.41352 0.28743 0.0
N3712 N 0.41493 0.43058 0.31869 0.0
N3713 N 0.37469 0.37989 0.2702 0.0
C3714 C 0.40558 0.41724 0.30831 0.0
C3715 C 0.38515 0.39136 0.28325 0.0
N3716 N 0.38754 0.40933 0.3394 0.0
N3717 N 0.40485 0.39638 0.25603 0.0
H3718 H 0.36386 0.37261 0.2759 0.0
H3719 H 0.37632 0.37814 0.25312 0.0
H3720 H 0.41548 0.4029 0.24907 0.0
H3721 H 0.39878 0.38611 0.24788 0.0
H3722 H 0.39497 0.41739 0.35075 0.0
H3723 H 0.37704 0.40243 0.34656 0.0
H3724 H 0.41189 0.43476 0.33265 0.0
H3725 H 0.42552 0.43805 0.31232 0.0
C3726 C 0.318 0.25964 0.36923 0.0
C3727 C 0.32273 0.27377 0.37945 0.0
C3728 C 0.33846 0.26973 0.40671 0.0
C3729 C 0.33321 0.2553 0.39718 0.0
N3730 N 0.31731 0.2358 0.37093 0.0
N3731 N 0.33662 0.2922 0.40847 0.0
C3732 C 0.3228 0.25006 0.37881 0.0
C3733 C 0.33277 0.27881 0.39832 0.0
N3734 N 0.30908 0.25551 0.35018 0.0
N3735 N 0.34907 0.27479 0.42365 0.0
H3736 H 0.33351 0.29964 0.40196 0.0
H3737 H 0.34233 0.29579 0.42396 0.0
H3738 H 0.35282 0.26818 0.43138 0.0
H3739 H 0.35478 0.28575 0.42948 0.0
H3740 H 0.30642 0.24612 0.34033 0.0
H3741 H 0.30486 0.26197 0.34333 0.0
H3742 H 0.30855 0.2306 0.35931 0.0
H3743 H 0.32105 0.22874 0.37695 0.0
C3744 C 0.72723 0.05289 0.39021 0.0
C3745 C 0.73052 0.04627 0.37149 0.0
C3746 C 0.75644 0.06685 0.37141 0.0
C3747 C 0.75362 0.07221 0.39212 0.0
N3748 N 0.73675 0.06967 0.42272 0.0
N3749 N 0.74822 0.0462 0.34468 0.0
C3750 C 0.73908 0.06516 0.40181 0.0
C3751 C 0.74509 0.05313 0.362 0.0
N3752 N 0.71272 0.0475 0.39674 0.0
N3753 N 0.76991 0.07498 0.3607 0.0
H3754 H 0.74011 0.03632 0.33706 0.0
H3755 H 0.75897 0.0497 0.33879 0.0
H3756 H 0.77842 0.08504 0.36728 0.0
H3757 H 0.77223 0.07246 0.34446 0.0
H3758 H 0.70945 0.05278 0.4087 0.0
H3759 H 0.70377 0.03845 0.38866 0.0
H3760 H 0.72685 0.06382 0.43193 0.0
H3761 H 0.74508 0.07869 0.43178 0.0
C3762 C 0.94536 0.66746 0.39404 0.0
C3763 C 0.95202 0.68025 0.37972 0.0
C3764 C 0.92874 0.68111 0.38009 0.0
C3765 C 0.92279 0.66944 0.39657 0.0
N3766 N 0.92662 0.65353 0.42274 0.0
N3767 N 0.95092 0.70057 0.36138 0.0
C3768 C 0.93141 0.66314 0.40449 0.0
C3769 C 0.94393 0.68743 0.37327 0.0
N3770 N 0.95219 0.65918 0.39719 0.0
N3771 N 0.91978 0.68588 0.37061 0.0
H3772 H 0.96202 0.70553 0.35612 0.0
H3773 H 0.9461 0.70716 0.35832 0.0
H3774 H 0.90861 0.68146 0.37524 0.0
H3775 H 0.92301 0.69328 0.35685 0.0
H3776 H 0.94708 0.64889 0.40549 0.0
H3777 H 0.96234 0.66185 0.38956 0.0
H3778 H 0.93325 0.64992 0.43078 0.0
H3779 H 0.91662 0.65029 0.43135 0.0
C3780 C 0.40413 0.01467 0.69913 0.0
C3781 C 0.39414 0.01617 0.7141 0.0
C3782 C 0.40343 0.00822 0.74669 0.0
C3783 C 0.41406 0.00758 0.73202 0.0
N3784 N 0.42631 0.01243 0.6953 0.0
N3785 N 0.38618 0.01731 0.75256 0.0
C3786 C 0.41495 0.01148 0.7085 0.0
C3787 C 0.39439 0.01385 0.73804 0.0
N3788 N 0.40294 0.01581 0.67594 0.0
N3789 N 0.40149 0.00281 0.76862 0.0
H3790 H 0.37931 0.02136 0.74684 0.0
H3791 H 0.38716 0.01744 0.77036 0.0
H3792 H 0.40783 0.99854 0.77572 0.0
H3793 H 0.39277 0.00139 0.77921 0.0
H3794 H 0.40876 0.01321 0.66395 0.0
H3795 H 0.39532 0.01837 0.66852 0.0
H3796 H 0.42851 0.01667 0.67867 0.0
H3797 H 0.43434 0.01007 0.70166 0.0
C3798 C 0.98986 0.3902 0.69716 0.0
C3799 C 0.98041 0.37727 0.71021 0.0
C3800 C 0.97971 0.3928 0.74129 0.0
C3801 C 0.98858 0.40574 0.72784 0.0
N3802 N 0.9995 0.4167 0.69136 0.0
N3803 N 0.9634 0.36597 0.74185 0.0
C3804 C 0.99283 0.40441 0.70521 0.0
C3805 C 0.97437 0.3785 0.73137 0.0
N3806 N 0.99652 0.38898 0.67766 0.0
N3807 N 0.97706 0.39414 0.76392 0.0
H3808 H 0.95918 0.3553 0.73495 0.0
H3809 H 0.9575 0.36629 0.75611 0.0
H3810 H 0.98094 0.40439 0.77211 0.0
H3811 H 0.97212 0.38511 0.77515 0.0
H3812 H 0.00482 0.39814 0.66886 0.0
H3813 H 0.99454 0.37877 0.67111 0.0
H3814 H 0.00155 0.41622 0.67397 0.0
H3815 H 0.0018 0.42725 0.69679 0.0
C3816 C 0.60838 0.59146 0.68867 0.0
C3817 C 0.62142 0.59469 0.70118 0.0
C3818 C 0.60602 0.57915 0.73267 0.0
C3819 C 0.59346 0.57916 0.72284 0.0
N3820 N 0.58206 0.58369 0.68993 0.0
N3821 N 0.62912 0.58008 0.72325 0.0
C3822 C 0.59439 0.58467 0.7002 0.0
C3823 C 0.61944 0.58521 0.71994 0.0
N3824 N 0.60917 0.59307 0.66539 0.0
N3825 N 0.60546 0.57393 0.75438 0.0
H3826 H 0.63751 0.58225 0.71133 0.0
H3827 H 0.62743 0.57209 0.7356 0.0
H3828 H 0.59597 0.56964 0.7647 0.0
H3829 H 0.6149 0.57503 0.76266 0.0
H3830 H 0.59987 0.58966 0.6549 0.0
H3831 H 0.61908 0.59615 0.65654 0.0
H3832 H 0.58253 0.58907 0.67458 0.0
H3833 H 0.57148 0.57806 0.69737 0.0
C3834 C 0.68189 0.73024 0.62079 0.0
C3835 C 0.68171 0.72816 0.64488 0.0
C3836 C 0.67369 0.74657 0.65098 0.0
C3837 C 0.67248 0.74752 0.62687 0.0
N3838 N 0.67408 0.73952 0.58857 0.0
N3839 N 0.67675 0.73338 0.68316 0.0
C3840 C 0.67632 0.73923 0.61168 0.0
C3841 C 0.67748 0.73612 0.66009 0.0
N3842 N 0.68751 0.72368 0.60663 0.0
N3843 N 0.67141 0.75582 0.66504 0.0
H3844 H 0.68003 0.72625 0.69044 0.0
H3845 H 0.67219 0.73749 0.69501 0.0
H3846 H 0.6684 0.76341 0.65882 0.0
H3847 H 0.6735 0.7568 0.6826 0.0
H3848 H 0.68962 0.72615 0.58925 0.0
H3849 H 0.69112 0.7165 0.61251 0.0
H3850 H 0.67483 0.73233 0.57685 0.0
H3851 H 0.67048 0.74632 0.58105 0.0
C3852 C 0.25311 0.95245 0.63057 0.0
C3853 C 0.26124 0.95478 0.65117 0.0
C3854 C 0.25027 0.92774 0.65502 0.0
C3855 C 0.24613 0.92613 0.6315 0.0
N3856 N 0.24317 0.93723 0.5967 0.0
N3857 N 0.25603 0.94347 0.68855 0.0
C3858 C 0.24716 0.9385 0.61929 0.0
C3859 C 0.2566 0.94208 0.66536 0.0
N3860 N 0.24933 0.96269 0.6236 0.0
N3861 N 0.24835 0.9157 0.66738 0.0
H3862 H 0.25819 0.95354 0.69599 0.0
H3863 H 0.25149 0.9344 0.69976 0.0
H3864 H 0.24302 0.90488 0.66073 0.0
H3865 H 0.25273 0.91665 0.68382 0.0
H3866 H 0.24224 0.96092 0.60976 0.0
H3867 H 0.25176 0.97199 0.63369 0.0
H3868 H 0.24518 0.94644 0.58675 0.0
H3869 H 0.23896 0.92729 0.5875 0.0
C3870 C 0.04887 0.31021 0.62342 0.0
C3871 C 0.04709 0.31623 0.64423 0.0
C3872 C 0.07427 0.33075 0.64889 0.0
C3873 C 0.07597 0.32647 0.62647 0.0
N3874 N 0.06484 0.31351 0.59101 0.0
N3875 N 0.0579 0.33313 0.67621 0.0
C3876 C 0.06326 0.31644 0.61341 0.0
C3877 C 0.05974 0.32664 0.65699 0.0
N3878 N 0.03677 0.29843 0.61335 0.0
N3879 N 0.08655 0.3386 0.66248 0.0
H3880 H 0.04744 0.33029 0.68282 0.0
H3881 H 0.06668 0.34204 0.68474 0.0
H3882 H 0.09733 0.34174 0.65698 0.0
H3883 H 0.08596 0.34083 0.67975 0.0
H3884 H 0.03758 0.29257 0.59941 0.0
H3885 H 0.02605 0.29359 0.62032 0.0
H3886 H 0.05585 0.30769 0.57993 0.0
H3887 H 0.07515 0.31792 0.58282 0.0
C3888 C 0.26173 0.31886 0.65214 0.0
C3889 C 0.27438 0.32109 0.63941 0.0
C3890 C 0.26745 0.33211 0.60798 0.0
C3891 C 0.25579 0.33143 0.62168 0.0
N3892 N 0.24291 0.32602 0.65796 0.0
N3893 N 0.29105 0.33261 0.60733 0.0
C3894 C 0.2532 0.32529 0.64412 0.0
C3895 C 0.27775 0.3285 0.6179 0.0
N3896 N 0.25762 0.31024 0.67149 0.0
N3897 N 0.26843 0.33576 0.58523 0.0
H3898 H 0.29909 0.33048 0.61427 0.0
H3899 H 0.29475 0.33941 0.59284 0.0
H3900 H 0.26093 0.33823 0.5771 0.0
H3901 H 0.27575 0.3349 0.5739 0.0
H3902 H 0.24765 0.30693 0.68018 0.0
H3903 H 0.26359 0.30534 0.67782 0.0
H3904 H 0.24164 0.32319 0.67529 0.0
H3905 H 0.23642 0.33056 0.65255 0.0
C3906 C 0.68478 0.94407 0.65617 0.0
C3907 C 0.68226 0.95415 0.64301 0.0
C3908 C 0.67658 0.93818 0.60918 0.0
C3909 C 0.6783 0.92768 0.62259 0.0
N3910 N 0.681 0.91904 0.65971 0.0
N3911 N 0.67209 0.95901 0.609 0.0
C3912 C 0.68144 0.93013 0.64641 0.0
C3913 C 0.67696 0.95061 0.62014 0.0
N3914 N 0.69094 0.94808 0.67757 0.0
N3915 N 0.67541 0.9368 0.58581 0.0
H3916 H 0.6721 0.96815 0.61658 0.0
H3917 H 0.66669 0.95604 0.59316 0.0
H3918 H 0.6754 0.92807 0.57687 0.0
H3919 H 0.67583 0.94505 0.57507 0.0
H3920 H 0.69459 0.94194 0.68695 0.0
H3921 H 0.69345 0.95816 0.68532 0.0
H3922 H 0.68176 0.91958 0.67754 0.0
H3923 H 0.67854 0.90869 0.65304 0.0
C3924 C 0.05578 0.72245 0.62324 0.0
C3925 C 0.0508 0.72734 0.6423 0.0
C3926 C 0.07477 0.75082 0.64371 0.0
C3927 C 0.07982 0.74583 0.62489 0.0
N3928 N 0.07611 0.72656 0.5979 0.0
N3929 N 0.05564 0.74505 0.67257 0.0
C3930 C 0.0706 0.73151 0.61503 0.0
C3931 C 0.06035 0.7412 0.65314 0.0
N3932 N 0.04615 0.70925 0.61268 0.0
N3933 N 0.08366 0.76491 0.65214 0.0
H3934 H 0.04498 0.73851 0.67942 0.0
H3935 H 0.06246 0.75422 0.68277 0.0
H3936 H 0.0945 0.77197 0.64625 0.0
H3937 H 0.08019 0.76999 0.66412 0.0
H3938 H 0.04824 0.70581 0.59703 0.0
H3939 H 0.03556 0.70185 0.61908 0.0
H3940 H 0.07076 0.71566 0.59176 0.0
H3941 H 0.08655 0.73316 0.5904 0.0
C3942 C 0.97205 0.58957 0.69931 0.0
C3943 C 0.97566 0.60244 0.71259 0.0
C3944 C 0.98017 0.59107 0.74626 0.0
C3945 C 0.97756 0.57862 0.73261 0.0
N3946 N 0.97318 0.56677 0.69562 0.0
N3947 N 0.98583 0.61678 0.74723 0.0
C3948 C 0.97412 0.57808 0.70894 0.0
C3949 C 0.98052 0.60358 0.73565 0.0
N3950 N 0.96621 0.58814 0.67779 0.0
N3951 N 0.98176 0.5907 0.76954 0.0
H3952 H 0.98619 0.62621 0.74009 0.0
H3953 H 0.99108 0.61884 0.76314 0.0
H3954 H 0.98163 0.58178 0.77807 0.0
H3955 H 0.98195 0.59866 0.78068 0.0
H3956 H 0.96183 0.57837 0.66817 0.0
H3957 H 0.96475 0.59643 0.67011 0.0
H3958 H 0.97225 0.56652 0.67781 0.0
H3959 H 0.97448 0.55811 0.70223 0.0
C3960 C 0.41036 0.38953 0.70007 0.0
C3961 C 0.3978 0.37937 0.71324 0.0
C3962 C 0.40814 0.39521 0.74723 0.0
C3963 C 0.42031 0.40578 0.73381 0.0
N3964 N 0.43196 0.41442 0.69691 0.0
N3965 N 0.3831 0.37384 0.74775 0.0
C3966 C 0.4211 0.40336 0.71001 0.0
C3967 C 0.39619 0.38263 0.73635 0.0
N3968 N 0.41224 0.38571 0.67837 0.0
N3969 N 0.40829 0.39682 0.77056 0.0
H3970 H 0.37411 0.36445 0.74039 0.0
H3971 H 0.38063 0.37657 0.76373 0.0
H3972 H 0.4168 0.40586 0.77933 0.0
H3973 H 0.40062 0.38859 0.78149 0.0
H3974 H 0.42193 0.39184 0.6688 0.0
H3975 H 0.40446 0.37579 0.67044 0.0
H3976 H 0.43229 0.414 0.67908 0.0
H3977 H 0.44003 0.42462 0.70375 0.0
C3978 C 0.61967 0.01889 0.73659 0.0
C3979 C 0.62148 0.01839 0.71256 0.0
C3980 C 0.59503 0.01032 0.70683 0.0
C3981 C 0.59287 0.00884 0.73095 0.0
N3982 N 0.60271 0.00914 0.76874 0.0
N3983 N 0.61066 0.01196 0.67467 0.0
C3984 C 0.60508 0.01249 0.74587 0.0
C3985 C 0.60911 0.01374 0.69757 0.0
N3986 N 0.63192 0.0257 0.75055 0.0
N3987 N 0.5837 0.00871 0.69287 0.0
H3988 H 0.62078 0.01434 0.66725 0.0
H3989 H 0.60168 0.00705 0.66333 0.0
H3990 H 0.57327 0.00624 0.69916 0.0
H3991 H 0.58505 0.01111 0.67538 0.0
H3992 H 0.63129 0.02771 0.76792 0.0
H3993 H 0.64282 0.0307 0.74431 0.0
H3994 H 0.61102 0.01006 0.77986 0.0
H3995 H 0.59216 0.00405 0.7763 0.0
loop_
_geom_bond_atom_site_label_1
_geom_bond_atom_site_label_2
_geom_bond_distance
_geom_bond_site_symmetry_2
_ccdc_geom_bond_type
Li0 N17 1.990 . S
Li0 O60 1.956 . S
Li0 O61 1.970 1_654 S
Li0 O62 1.961 . S
Li1 N25 1.990 . S
Li1 O60 1.970 1_455 S
Li1 O61 1.956 1_554 S
Li1 O63 1.961 . S
Li2 N47 1.990 . S
Li2 O60 1.961 . S
Li2 O62 1.956 . S
Li2 O63 1.970 1_655 S
Li3 N53 1.990 . S
Li3 O61 1.961 . S
Li3 O62 1.970 1_456 S
Li3 O63 1.956 1_556 S
C4 C6 1.348 1_655 S
C4 C7 1.356 . S
C4 O60 1.325 . S
N5 C8 1.314 . S
N5 C9 1.279 . S
C6 C4 1.348 1_455 S
C6 C8 1.353 1_455 S
C6 H64 0.929 . S
C7 C4 1.356 . S
C7 C9 1.358 . S
C7 H65 0.930 . S
C8 N5 1.314 . S
C8 C6 1.353 1_655 S
C8 H66 0.930 1_655 S
C9 N5 1.279 . S
C9 C7 1.358 . S
C9 H67 0.930 . S
C10 C13 1.349 1_455 S
C10 C14 1.356 . S
C10 O61 1.325 . S
C11 N12 1.279 . S
C11 C14 1.358 . S
C11 H68 0.930 . S
N12 C11 1.279 . S
N12 C15 1.314 . S
C13 C10 1.349 1_655 S
C13 C15 1.320 1_655 S
C13 H69 0.966 . S
C14 C10 1.356 . S
C14 C11 1.358 . S
C14 H70 0.930 . S
C15 N12 1.314 . S
C15 C13 1.320 1_455 S
C15 H71 0.930 1_455 S
C16 N17 1.314 1_556 S
C16 C21 1.353 . S
C16 H22 0.930 . S
N17 Li0 1.990 . S
N17 C16 1.314 1_554 S
N17 C19 1.279 . S
C18 C19 1.358 . S
C18 C20 1.356 1_554 S
C18 H72 0.930 . S
C19 N17 1.279 . S
C19 C18 1.358 . S
C19 H23 0.930 . S
C20 C18 1.356 1_556 S
C20 C21 1.348 . S
C21 C16 1.353 . S
C21 C20 1.348 . S
C21 H73 0.929 . S
H22 C16 0.930 . S
H23 C19 0.930 . S
C24 N25 1.314 . S
C24 C26 1.353 . S
C24 H30 0.930 . S
N25 Li1 1.990 . S
N25 C24 1.314 . S
N25 C28 1.279 . S
C26 C24 1.353 . S
C26 C29 1.348 . S
C26 H74 0.929 . S
C27 C28 1.358 . S
C27 C29 1.356 . S
C27 H75 0.930 . S
C28 N25 1.279 . S
C28 C27 1.358 . S
C28 H31 0.930 1_554 S
C29 C26 1.348 . S
C29 C27 1.356 . S
H30 C24 0.930 . S
H31 C28 0.930 1_556 S
C32 C34 1.348 1_554 S
C32 C35 1.356 . S
C32 O62 1.325 . S
N33 C36 1.314 . S
N33 C37 1.279 1_556 S
C34 C32 1.348 1_556 S
C34 C36 1.353 . S
C34 H76 0.929 . S
C35 C32 1.356 . S
C35 C37 1.358 . S
C35 H77 0.930 . S
C36 N33 1.314 . S
C36 C34 1.353 . S
C36 H78 0.930 . S
C37 N33 1.279 1_554 S
C37 C35 1.358 . S
C37 H79 0.930 . S
C38 C39 1.348 . S
C38 C40 1.356 . S
C38 O63 1.325 . S
C39 C38 1.348 . S
C39 C41 1.353 . S
C39 H80 0.929 . S
C40 C38 1.356 . S
C40 C42 1.358 . S
C40 H81 0.921 1_554 S
C41 C39 1.353 . S
C41 N43 1.314 . S
C41 H82 0.930 . S
C42 C40 1.358 . S
C42 N43 1.279 . S
C42 H83 0.930 . S
N43 C41 1.314 . S
N43 C42 1.279 . S
C44 C46 1.353 . S
C44 N47 1.314 . S
C44 H50 0.930 1_655 S
C45 N47 1.279 . S
C45 C48 1.358 . S
C45 H51 0.930 . S
C46 C44 1.353 . S
C46 C49 1.348 . S
C46 H84 0.934 . S
N47 Li2 1.990 . S
N47 C44 1.314 . S
N47 C45 1.279 . S
C48 C45 1.358 . S
C48 C49 1.356 . S
C48 H85 0.930 . S
C49 C46 1.348 . S
C49 C48 1.356 . S
H50 C44 0.930 1_455 S
H51 C45 0.930 . S
C52 N53 1.314 . S
C52 C54 1.353 . S
C52 H58 0.930 1_455 S
N53 Li3 1.990 . S
N53 C52 1.314 . S
N53 C56 1.279 . S
C54 C52 1.353 . S
C54 C57 1.348 . S
C54 H86 0.948 . S
C55 C56 1.358 . S
C55 C57 1.356 . S
C55 H87 0.930 . S
C56 N53 1.279 . S
C56 C55 1.358 . S
C56 H59 0.930 . S
C57 C54 1.348 . S
C57 C55 1.356 . S
H58 C52 0.930 1_655 S
H59 C56 0.930 . S
O60 Li0 1.956 . S
O60 Li1 1.970 1_655 S
O60 Li2 1.961 . S
O60 C4 1.325 . S
O61 Li0 1.970 1_456 S
O61 Li1 1.956 1_556 S
O61 Li3 1.961 . S
O61 C10 1.325 . S
O62 Li0 1.961 . S
O62 Li2 1.956 . S
O62 Li3 1.970 1_654 S
O62 C32 1.325 . S
O63 Li1 1.961 . S
O63 Li2 1.970 1_455 S
O63 Li3 1.956 1_554 S
O63 C38 1.325 . S
H64 C6 0.929 . S
H65 C7 0.930 . S
H66 C8 0.930 1_455 S
H67 C9 0.930 . S
H68 C11 0.930 . S
H69 C13 0.966 . S
H70 C14 0.930 . S
H71 C15 0.930 1_655 S
H72 C18 0.930 . S
H73 C21 0.929 . S
H74 C26 0.929 . S
H75 C27 0.930 . S
H76 C34 0.929 . S
H77 C35 0.930 . S
H78 C36 0.930 . S
H79 C37 0.930 . S
H80 C39 0.929 . S
H81 C40 0.921 1_556 S
H82 C41 0.930 . S
H83 C42 0.930 . S
H84 C46 0.934 . S
H85 C48 0.930 . S
H86 C54 0.948 . S
H87 C55 0.930 . S
Li88 N105 1.985 1_554 S
Li88 O148 1.956 . S
Li88 O149 1.970 1_554 S
Li88 O150 1.961 . S
Li89 N113 1.990 . S
Li89 O148 1.970 . S
Li89 O149 1.956 1_554 S
Li89 O151 1.961 . S
Li90 N135 1.990 . S
Li90 O148 1.961 . S
Li90 O150 1.956 . S
Li90 O151 1.970 . S
Li91 N141 1.990 . S
Li91 O149 1.961 . S
Li91 O150 1.970 1_556 S
Li91 O151 1.956 1_556 S
C92 C94 1.348 . S
C92 C95 1.356 . S
C92 O148 1.325 . S
N93 C96 1.314 . S
N93 C97 1.279 . S
C94 C92 1.348 . S
C94 C96 1.353 . S
C94 H152 0.929 . S
C95 C92 1.356 . S
C95 C97 1.358 . S
C95 H153 0.930 . S
C96 N93 1.314 . S
C96 C94 1.353 . S
C96 H154 0.930 . S
C97 N93 1.279 . S
C97 C95 1.358 . S
C97 H155 0.930 . S
C98 C101 1.348 . S
C98 C102 1.356 . S
C98 O149 1.325 . S
C99 N100 1.279 . S
C99 C102 1.358 . S
C99 H156 0.930 . S
N100 C99 1.279 . S
N100 C103 1.314 . S
C101 C98 1.348 . S
C101 C103 1.353 . S
C101 H157 0.929 . S
C102 C98 1.356 . S
C102 C99 1.358 . S
C102 H158 0.930 . S
C103 N100 1.314 . S
C103 C101 1.353 . S
C103 H159 0.930 . S
C104 N105 1.338 . S
C104 C109 1.353 . S
C104 H110 0.930 . S
N105 Li88 1.985 1_556 S
N105 C104 1.338 . S
N105 C107 1.265 1_556 S
C106 C107 1.358 . S
C106 C108 1.356 1_554 S
C106 H160 0.930 . S
C107 N105 1.265 1_554 S
C107 C106 1.358 . S
C107 H111 0.930 . S
C108 C106 1.356 1_556 S
C108 C109 1.348 . S
C109 C104 1.353 . S
C109 C108 1.348 . S
C109 H161 0.929 . S
H110 C104 0.930 . S
H111 C107 0.930 . S
C112 N113 1.314 . S
C112 C114 1.353 . S
C112 H118 0.930 . S
N113 Li89 1.990 . S
N113 C112 1.314 . S
N113 C116 1.279 . S
C114 C112 1.353 . S
C114 C117 1.348 . S
C114 H162 0.929 . S
C115 C116 1.358 . S
C115 C117 1.356 . S
C115 H163 0.930 . S
C116 N113 1.279 . S
C116 C115 1.358 . S
C116 H119 0.930 1_554 S
C117 C114 1.348 . S
C117 C115 1.356 . S
H118 C112 0.930 . S
H119 C116 0.930 1_556 S
C120 C122 1.348 . S
C120 C123 1.356 1_556 S
C120 O150 1.325 1_556 S
N121 C124 1.314 . S
N121 C125 1.279 1_556 S
C122 C120 1.348 . S
C122 C124 1.353 . S
C122 H164 0.929 . S
C123 C120 1.356 1_554 S
C123 C125 1.358 . S
C123 H165 0.930 . S
C124 N121 1.314 . S
C124 C122 1.353 . S
C124 H166 0.930 . S
C125 N121 1.279 1_554 S
C125 C123 1.358 . S
C125 H167 0.930 . S
C126 C127 1.348 . S
C126 C128 1.356 . S
C126 O151 1.325 . S
C127 C126 1.348 . S
C127 C129 1.353 . S
C127 H168 0.929 . S
C128 C126 1.356 . S
C128 C130 1.358 . S
C128 H169 0.930 . S
C129 C127 1.353 . S
C129 N131 1.314 . S
C129 H170 0.930 . S
C130 C128 1.358 . S
C130 N131 1.279 . S
C130 H171 0.930 . S
N131 C129 1.314 . S
N131 C130 1.279 . S
C132 C134 1.353 . S
C132 N135 1.314 . S
C132 H138 0.930 . S
C133 N135 1.279 . S
C133 C136 1.358 . S
C133 H139 0.930 . S
C134 C132 1.353 . S
C134 C137 1.348 . S
C134 H172 0.929 . S
N135 Li90 1.990 . S
N135 C132 1.314 . S
N135 C133 1.279 . S
C136 C133 1.358 . S
C136 C137 1.356 . S
C136 H173 0.930 . S
C137 C134 1.348 . S
C137 C136 1.356 . S
H138 C132 0.930 . S
H139 C133 0.930 . S
C140 N141 1.314 . S
C140 C142 1.353 . S
C140 H146 0.930 . S
N141 Li91 1.990 . S
N141 C140 1.314 . S
N141 C144 1.279 . S
C142 C140 1.353 . S
C142 C145 1.348 . S
C142 H174 0.929 . S
C143 C144 1.358 . S
C143 C145 1.356 . S
C143 H175 0.930 . S
C144 N141 1.279 . S
C144 C143 1.358 . S
C144 H147 0.930 . S
C145 C142 1.348 . S
C145 C143 1.356 . S
H146 C140 0.930 . S
H147 C144 0.930 . S
O148 Li88 1.956 . S
O148 Li89 1.970 . S
O148 Li90 1.961 . S
O148 C92 1.325 . S
O149 Li88 1.970 1_556 S
O149 Li89 1.956 1_556 S
O149 Li91 1.961 . S
O149 C98 1.325 . S
O150 Li88 1.961 . S
O150 Li90 1.956 . S
O150 Li91 1.970 1_554 S
O150 C120 1.325 1_554 S
O151 Li89 1.961 . S
O151 Li90 1.970 . S
O151 Li91 1.956 1_554 S
O151 C126 1.325 . S
H152 C94 0.929 . S
H153 C95 0.930 . S
H154 C96 0.930 . S
H155 C97 0.930 . S
H156 C99 0.930 . S
H157 C101 0.929 . S
H158 C102 0.930 . S
H159 C103 0.930 . S
H160 C106 0.930 . S
H161 C109 0.929 . S
H162 C114 0.929 . S
H163 C115 0.930 . S
H164 C122 0.929 . S
H165 C123 0.930 . S
H166 C124 0.930 . S
H167 C125 0.930 . S
H168 C127 0.929 . S
H169 C128 0.930 . S
H170 C129 0.930 . S
H171 C130 0.930 . S
H172 C134 0.929 . S
H173 C136 0.930 . S
H174 C142 0.929 . S
H175 C143 0.930 . S
Li176 N193 1.990 . S
Li176 O236 1.956 1_556 S
Li176 O237 1.970 1_566 S
Li176 O238 1.961 . S
Li177 N201 1.990 . S
Li177 O236 1.970 1_545 S
Li177 O237 1.956 . S
Li177 O239 1.961 . S
Li178 N223 1.990 . S
Li178 O236 1.961 . S
Li178 O238 1.956 1_554 S
Li178 O239 1.970 1_565 S
Li179 N229 1.990 . S
Li179 O237 1.961 . S
Li179 O238 1.970 1_544 S
Li179 O239 1.956 . S
C180 C182 1.348 . S
C180 C183 1.356 . S
C180 O236 1.325 . S
N181 C184 1.314 . S
N181 C185 1.279 . S
C182 C180 1.348 . S
C182 C184 1.353 . S
C182 H240 0.929 . S
C183 C180 1.356 . S
C183 C185 1.358 . S
C183 H241 0.930 1_554 S
C184 N181 1.314 . S
C184 C182 1.353 . S
C184 H242 0.930 . S
C185 N181 1.279 . S
C185 C183 1.358 . S
C185 H243 0.930 . S
C186 C189 1.336 1_554 S
C186 C190 1.366 . S
C186 O237 1.328 . S
C187 N188 1.279 1_554 S
C187 C190 1.358 . S
C187 H244 0.930 . S
N188 C187 1.279 1_556 S
N188 C191 1.314 . S
C189 C186 1.336 1_556 S
C189 C191 1.353 . S
C189 H245 0.929 . S
C190 C186 1.366 . S
C190 C187 1.358 . S
C190 H246 0.930 . S
C191 N188 1.314 . S
C191 C189 1.353 . S
C191 H247 0.930 . S
C192 N193 1.314 . S
C192 C197 1.353 . S
C192 H198 0.930 1_565 S
N193 Li176 1.990 . S
N193 C192 1.314 . S
N193 C195 1.279 . S
C194 C195 1.358 . S
C194 C196 1.356 . S
C194 H248 0.930 . S
C195 N193 1.279 . S
C195 C194 1.358 . S
C195 H199 0.930 . S
C196 C194 1.356 . S
C196 C197 1.348 . S
C197 C192 1.353 . S
C197 C196 1.348 . S
C197 H249 0.934 . S
H198 C192 0.930 1_545 S
H199 C195 0.930 . S
C200 N201 1.314 . S
C200 C202 1.353 . S
C200 H206 0.930 1_545 S
N201 Li177 1.990 . S
N201 C200 1.314 . S
N201 C204 1.279 . S
C202 C200 1.353 . S
C202 C205 1.348 . S
C202 H250 0.948 . S
C203 C204 1.358 . S
C203 C205 1.356 . S
C203 H251 0.930 . S
C204 N201 1.279 . S
C204 C203 1.358 . S
C204 H207 0.930 . S
C205 C202 1.348 . S
C205 C203 1.356 . S
H206 C200 0.930 1_565 S
H207 C204 0.930 . S
C208 C210 1.348 1_565 S
C208 C211 1.356 . S
C208 O238 1.325 . S
N209 C212 1.314 . S
N209 C213 1.279 . S
C210 C208 1.348 1_545 S
C210 C212 1.353 1_545 S
C210 H252 0.929 . S
C211 C208 1.356 . S
C211 C213 1.358 . S
C211 H253 0.930 . S
C212 N209 1.314 . S
C212 C210 1.353 1_565 S
C212 H254 0.930 1_565 S
C213 N209 1.279 . S
C213 C211 1.358 . S
C213 H255 0.930 . S
C214 C215 1.349 1_545 S
C214 C216 1.356 . S
C214 O239 1.325 . S
C215 C214 1.349 1_565 S
C215 C217 1.319 1_565 S
C215 H256 0.967 . S
C216 C214 1.356 . S
C216 C218 1.358 . S
C216 H257 0.930 . S
C217 C215 1.319 1_545 S
C217 N219 1.314 . S
C217 H258 0.930 1_545 S
C218 C216 1.358 . S
C218 N219 1.279 . S
C218 H259 0.930 . S
N219 C217 1.314 . S
N219 C218 1.279 . S
C220 C222 1.353 . S
C220 N223 1.314 . S
C220 H226 0.930 . S
C221 N223 1.279 . S
C221 C224 1.358 . S
C221 H227 0.930 1_554 S
C222 C220 1.353 . S
C222 C225 1.348 . S
C222 H260 0.929 . S
N223 Li178 1.990 . S
N223 C220 1.314 . S
N223 C221 1.279 . S
C224 C221 1.358 . S
C224 C225 1.356 . S
C224 H261 0.930 . S
C225 C222 1.348 . S
C225 C224 1.356 . S
H226 C220 0.930 . S
H227 C221 0.930 1_556 S
C228 N229 1.314 1_556 S
C228 C230 1.353 . S
C228 H234 0.930 . S
N229 Li179 1.990 . S
N229 C228 1.314 1_554 S
N229 C232 1.279 . S
C230 C228 1.353 . S
C230 C233 1.348 . S
C230 H262 0.929 . S
C231 C232 1.358 . S
C231 C233 1.356 1_554 S
C231 H263 0.930 . S
C232 N229 1.279 . S
C232 C231 1.358 . S
C232 H235 0.930 . S
C233 C230 1.348 . S
C233 C231 1.356 1_556 S
H234 C228 0.930 . S
H235 C232 0.930 . S
O236 Li176 1.956 1_554 S
O236 Li177 1.970 1_565 S
O236 Li178 1.961 . S
O236 C180 1.325 . S
O237 Li176 1.970 1_544 S
O237 Li177 1.956 . S
O237 Li179 1.961 . S
O237 C186 1.328 . S
O238 Li176 1.961 . S
O238 Li178 1.956 1_556 S
O238 Li179 1.970 1_566 S
O238 C208 1.325 . S
O239 Li177 1.961 . S
O239 Li178 1.970 1_545 S
O239 Li179 1.956 . S
O239 C214 1.325 . S
H240 C182 0.929 . S
H241 C183 0.930 1_556 S
H242 C184 0.930 . S
H243 C185 0.930 . S
H244 C187 0.930 . S
H245 C189 0.929 . S
H246 C190 0.930 . S
H247 C191 0.930 . S
H248 C194 0.930 . S
H249 C197 0.934 . S
H250 C202 0.948 . S
H251 C203 0.930 . S
H252 C210 0.929 . S
H253 C211 0.930 . S
H254 C212 0.930 1_545 S
H255 C213 0.930 . S
H256 C215 0.967 . S
H257 C216 0.930 . S
H258 C217 0.930 1_565 S
H259 C218 0.930 . S
H260 C222 0.929 . S
H261 C224 0.930 . S
H262 C230 0.929 . S
H263 C231 0.930 . S
Li264 N281 1.990 . S
Li264 O324 1.956 . S
Li264 O325 1.970 1_455 S
Li264 O326 1.961 1_554 S
Li265 N289 1.990 . S
Li265 O324 1.970 1_655 S
Li265 O325 1.956 . S
Li265 O327 1.961 . S
Li266 N311 1.990 . S
Li266 O324 1.961 1_556 S
Li266 O326 1.956 . S
Li266 O327 1.970 1_456 S
Li267 N317 1.990 1_554 S
Li267 O325 1.961 . S
Li267 O326 1.970 1_654 S
Li267 O327 1.956 . S
C268 C270 1.348 . S
C268 C271 1.356 . S
C268 O324 1.325 . S
N269 C272 1.314 . S
N269 C273 1.279 . S
C270 C268 1.348 . S
C270 C272 1.353 . S
C270 H328 0.929 . S
C271 C268 1.356 . S
C271 C273 1.358 . S
C271 H329 0.930 1_554 S
C272 N269 1.314 . S
C272 C270 1.353 . S
C272 H330 0.930 . S
C273 N269 1.279 . S
C273 C271 1.358 . S
C273 H331 0.930 1_554 S
C274 C277 1.348 1_655 S
C274 C278 1.356 . S
C274 O325 1.325 . S
C275 N276 1.279 . S
C275 C278 1.358 . S
C275 H332 0.930 . S
N276 C275 1.279 . S
N276 C279 1.260 1_655 S
C277 C274 1.348 1_455 S
C277 C279 1.386 . S
C277 H333 0.929 . S
C278 C274 1.356 . S
C278 C275 1.358 . S
C278 H334 0.930 . S
C279 N276 1.260 1_455 S
C279 C277 1.386 . S
C279 H335 0.958 . S
C280 N281 1.314 . S
C280 C285 1.353 . S
C280 H286 0.930 . S
N281 Li264 1.990 . S
N281 C280 1.314 . S
N281 C283 1.279 . S
C282 C283 1.358 . S
C282 C284 1.356 . S
C282 H336 0.930 . S
C283 N281 1.279 . S
C283 C282 1.358 . S
C283 H287 0.930 . S
C284 C282 1.356 . S
C284 C285 1.348 . S
C285 C280 1.353 . S
C285 C284 1.348 . S
C285 H337 0.929 . S
H286 C280 0.930 . S
H287 C283 0.930 . S
C288 N289 1.314 . S
C288 C290 1.353 . S
C288 H294 0.930 . S
N289 Li265 1.990 . S
N289 C288 1.314 . S
N289 C292 1.279 . S
C290 C288 1.353 . S
C290 C293 1.348 . S
C290 H338 0.929 . S
C291 C292 1.358 . S
C291 C293 1.356 . S
C291 H339 0.930 . S
C292 N289 1.279 . S
C292 C291 1.358 . S
C292 H295 0.930 . S
C293 C290 1.348 . S
C293 C291 1.356 . S
H294 C288 0.930 . S
H295 C292 0.930 . S
C296 C298 1.348 1_455 S
C296 C299 1.356 . S
C296 O326 1.325 . S
N297 C300 1.269 1_455 S
N297 C301 1.279 . S
C298 C296 1.348 1_655 S
C298 C300 1.351 . S
C298 H340 0.929 . S
C299 C296 1.356 . S
C299 C301 1.358 . S
C299 H341 0.930 . S
C300 N297 1.269 1_655 S
C300 C298 1.351 . S
C300 H342 0.986 . S
C301 N297 1.279 . S
C301 C299 1.358 . S
C301 H343 0.930 . S
C302 C303 1.335 1_554 S
C302 C304 1.366 . S
C302 O327 1.327 . S
C303 C302 1.335 1_556 S
C303 C305 1.353 . S
C303 H344 0.929 . S
C304 C302 1.366 . S
C304 C306 1.358 . S
C304 H345 0.930 . S
C305 C303 1.353 . S
C305 N307 1.314 . S
C305 H346 0.930 . S
C306 C304 1.358 . S
C306 N307 1.279 1_554 S
C306 H347 0.930 . S
N307 C305 1.314 . S
N307 C306 1.279 1_556 S
C308 C310 1.353 . S
C308 N311 1.314 . S
C308 H314 0.930 . S
C309 N311 1.279 . S
C309 C312 1.358 . S
C309 H315 0.930 . S
C310 C308 1.353 . S
C310 C313 1.348 . S
C310 H348 0.929 . S
N311 Li266 1.990 . S
N311 C308 1.314 . S
N311 C309 1.279 . S
C312 C309 1.358 . S
C312 C313 1.356 . S
C312 H349 0.930 . S
C313 C310 1.348 . S
C313 C312 1.356 . S
H314 C308 0.930 . S
H315 C309 0.930 . S
C316 N317 1.315 1_554 S
C316 C318 1.361 . S
C316 H322 0.930 . S
N317 Li267 1.990 1_556 S
N317 C316 1.315 1_556 S
N317 C320 1.279 . S
C318 C316 1.361 . S
C318 C321 1.328 1_554 S
C318 H350 0.943 . S
C319 C320 1.358 . S
C319 C321 1.356 . S
C319 H351 0.930 . S
C320 N317 1.279 . S
C320 C319 1.358 . S
C320 H323 0.930 . S
C321 C318 1.328 1_556 S
C321 C319 1.356 . S
H322 C316 0.930 . S
H323 C320 0.930 . S
O324 Li264 1.956 . S
O324 Li265 1.970 1_455 S
O324 Li266 1.961 1_554 S
O324 C268 1.325 . S
O325 Li264 1.970 1_655 S
O325 Li265 1.956 . S
O325 Li267 1.961 . S
O325 C274 1.325 . S
O326 Li264 1.961 1_556 S
O326 Li266 1.956 . S
O326 Li267 1.970 1_456 S
O326 C296 1.325 . S
O327 Li265 1.961 . S
O327 Li266 1.970 1_654 S
O327 Li267 1.956 . S
O327 C302 1.327 . S
H328 C270 0.929 . S
H329 C271 0.930 1_556 S
H330 C272 0.930 . S
H331 C273 0.930 1_556 S
H332 C275 0.930 . S
H333 C277 0.929 . S
H334 C278 0.930 . S
H335 C279 0.958 . S
H336 C282 0.930 . S
H337 C285 0.929 . S
H338 C290 0.929 . S
H339 C291 0.930 . S
H340 C298 0.929 . S
H341 C299 0.930 . S
H342 C300 0.986 . S
H343 C301 0.930 . S
H344 C303 0.929 . S
H345 C304 0.930 . S
H346 C305 0.930 . S
H347 C306 0.930 . S
H348 C310 0.929 . S
H349 C312 0.930 . S
H350 C318 0.943 . S
H351 C319 0.930 . S
Li352 N369 1.990 . S
Li352 O412 1.956 . S
Li352 O413 1.970 . S
Li352 O414 1.961 1_554 S
Li353 N377 1.990 . S
Li353 O412 1.970 . S
Li353 O413 1.956 . S
Li353 O415 1.961 . S
Li354 N399 1.990 . S
Li354 O412 1.961 1_556 S
Li354 O414 1.956 . S
Li354 O415 1.970 1_556 S
Li355 N405 1.990 1_554 S
Li355 O413 1.961 . S
Li355 O414 1.970 1_554 S
Li355 O415 1.956 . S
C356 C358 1.348 . S
C356 C359 1.356 . S
C356 O412 1.325 . S
N357 C360 1.314 . S
N357 C361 1.279 . S
C358 C356 1.348 . S
C358 C360 1.353 . S
C358 H416 0.929 . S
C359 C356 1.356 . S
C359 C361 1.358 . S
C359 H417 0.930 1_554 S
C360 N357 1.314 . S
C360 C358 1.353 . S
C360 H418 0.930 . S
C361 N357 1.279 . S
C361 C359 1.358 . S
C361 H419 0.930 . S
C362 C365 1.348 . S
C362 C366 1.356 . S
C362 O413 1.325 . S
C363 N364 1.279 . S
C363 C366 1.358 . S
C363 H420 0.930 . S
N364 C363 1.279 . S
N364 C367 1.314 . S
C365 C362 1.348 . S
C365 C367 1.353 . S
C365 H421 0.929 . S
C366 C362 1.356 . S
C366 C363 1.358 . S
C366 H422 0.930 . S
C367 N364 1.314 . S
C367 C365 1.353 . S
C367 H423 0.930 . S
C368 N369 1.314 . S
C368 C373 1.353 . S
C368 H374 0.930 . S
N369 Li352 1.990 . S
N369 C368 1.314 . S
N369 C371 1.279 . S
C370 C371 1.358 . S
C370 C372 1.356 . S
C370 H424 0.930 . S
C371 N369 1.279 . S
C371 C370 1.358 . S
C371 H375 0.930 . S
C372 C370 1.356 . S
C372 C373 1.348 . S
C373 C368 1.353 . S
C373 C372 1.348 . S
C373 H425 0.929 . S
H374 C368 0.930 . S
H375 C371 0.930 . S
C376 N377 1.314 . S
C376 C378 1.353 . S
C376 H382 0.930 . S
N377 Li353 1.990 . S
N377 C376 1.314 . S
N377 C380 1.279 . S
C378 C376 1.353 . S
C378 C381 1.348 . S
C378 H426 0.929 . S
C379 C380 1.358 . S
C379 C381 1.356 . S
C379 H427 0.930 . S
C380 N377 1.279 . S
C380 C379 1.358 . S
C380 H383 0.930 . S
C381 C378 1.348 . S
C381 C379 1.356 . S
H382 C376 0.930 . S
H383 C380 0.930 . S
C384 C386 1.348 . S
C384 C387 1.356 . S
C384 O414 1.325 . S
N385 C388 1.314 . S
N385 C389 1.279 . S
C386 C384 1.348 . S
C386 C388 1.353 . S
C386 H428 0.929 . S
C387 C384 1.356 . S
C387 C389 1.358 . S
C387 H429 0.930 . S
C388 N385 1.314 . S
C388 C386 1.353 . S
C388 H430 0.930 . S
C389 N385 1.279 . S
C389 C387 1.358 . S
C389 H431 0.930 . S
C390 C391 1.348 . S
C390 C392 1.356 1_556 S
C390 O415 1.325 1_556 S
C391 C390 1.348 . S
C391 C393 1.353 . S
C391 H432 0.929 . S
C392 C390 1.356 1_554 S
C392 C394 1.358 . S
C392 H433 0.930 . S
C393 C391 1.353 . S
C393 N395 1.314 . S
C393 H434 0.930 . S
C394 C392 1.358 . S
C394 N395 1.279 1_554 S
C394 H435 0.930 . S
N395 C393 1.314 . S
N395 C394 1.279 1_556 S
C396 C398 1.353 . S
C396 N399 1.314 . S
C396 H402 0.930 . S
C397 N399 1.279 . S
C397 C400 1.358 . S
C397 H403 0.930 . S
C398 C396 1.353 . S
C398 C401 1.348 . S
C398 H436 0.929 . S
N399 Li354 1.990 . S
N399 C396 1.314 . S
N399 C397 1.279 . S
C400 C397 1.358 . S
C400 C401 1.356 . S
C400 H437 0.930 . S
C401 C398 1.348 . S
C401 C400 1.356 . S
H402 C396 0.930 . S
H403 C397 0.930 . S
C404 N405 1.314 1_554 S
C404 C406 1.353 1_554 S
C404 H410 0.930 . S
N405 Li355 1.990 1_556 S
N405 C404 1.314 1_556 S
N405 C408 1.279 . S
C406 C404 1.353 1_556 S
C406 C409 1.348 . S
C406 H438 0.929 1_556 S
C407 C408 1.358 . S
C407 C409 1.356 . S
C407 H439 0.930 . S
C408 N405 1.279 . S
C408 C407 1.358 . S
C408 H411 0.930 . S
C409 C406 1.348 . S
C409 C407 1.356 . S
H410 C404 0.930 . S
H411 C408 0.930 . S
O412 Li352 1.956 . S
O412 Li353 1.970 . S
O412 Li354 1.961 1_554 S
O412 C356 1.325 . S
O413 Li352 1.970 . S
O413 Li353 1.956 . S
O413 Li355 1.961 . S
O413 C362 1.325 . S
O414 Li352 1.961 1_556 S
O414 Li354 1.956 . S
O414 Li355 1.970 1_556 S
O414 C384 1.325 . S
O415 Li353 1.961 . S
O415 Li354 1.970 1_554 S
O415 Li355 1.956 . S
O415 C390 1.325 1_554 S
H416 C358 0.929 . S
H417 C359 0.930 1_556 S
H418 C360 0.930 . S
H419 C361 0.930 . S
H420 C363 0.930 . S
H421 C365 0.929 . S
H422 C366 0.930 . S
H423 C367 0.930 . S
H424 C370 0.930 . S
H425 C373 0.929 . S
H426 C378 0.929 . S
H427 C379 0.930 . S
H428 C386 0.929 . S
H429 C387 0.930 . S
H430 C388 0.930 . S
H431 C389 0.930 . S
H432 C391 0.929 . S
H433 C392 0.930 . S
H434 C393 0.930 . S
H435 C394 0.930 . S
H436 C398 0.929 . S
H437 C400 0.930 . S
H438 C406 0.929 1_554 S
H439 C407 0.930 . S
Li440 N457 1.990 . S
Li440 O500 1.956 . S
Li440 O501 1.970 1_565 S
Li440 O502 1.961 1_554 S
Li441 N465 1.990 . S
Li441 O500 1.970 1_545 S
Li441 O501 1.956 . S
Li441 O503 1.961 . S
Li442 N487 1.990 . S
Li442 O500 1.961 1_556 S
Li442 O502 1.956 . S
Li442 O503 1.970 1_566 S
Li443 N493 1.990 . S
Li443 O501 1.961 . S
Li443 O502 1.970 1_544 S
Li443 O503 1.956 . S
C444 C446 1.348 . S
C444 C447 1.356 . S
C444 O500 1.325 . S
N445 C448 1.314 . S
N445 C449 1.279 . S
C446 C444 1.348 . S
C446 C448 1.353 . S
C446 H504 0.929 . S
C447 C444 1.356 . S
C447 C449 1.358 . S
C447 H505 0.930 1_554 S
C448 N445 1.314 . S
C448 C446 1.353 . S
C448 H506 0.930 . S
C449 N445 1.279 . S
C449 C447 1.358 . S
C449 H507 0.930 1_554 S
C450 C453 1.348 1_545 S
C450 C454 1.356 . S
C450 O501 1.325 . S
C451 N452 1.279 . S
C451 C454 1.358 . S
C451 H508 0.930 . S
N452 C451 1.279 . S
N452 C455 1.269 1_545 S
C453 C450 1.348 1_565 S
C453 C455 1.351 . S
C453 H509 0.929 . S
C454 C450 1.356 . S
C454 C451 1.358 . S
C454 H510 0.930 . S
C455 N452 1.269 1_565 S
C455 C453 1.351 . S
C455 H511 0.986 . S
C456 N457 1.314 . S
C456 C461 1.353 . S
C456 H462 0.930 . S
N457 Li440 1.990 . S
N457 C456 1.314 . S
N457 C459 1.279 . S
C458 C459 1.358 . S
C458 C460 1.356 . S
C458 H512 0.930 . S
C459 N457 1.279 . S
C459 C458 1.358 . S
C459 H463 0.930 . S
C460 C458 1.356 . S
C460 C461 1.348 . S
C461 C456 1.353 . S
C461 C460 1.348 . S
C461 H513 0.929 . S
H462 C456 0.930 . S
H463 C459 0.930 . S
C464 N465 1.314 . S
C464 C466 1.353 . S
C464 H470 0.930 . S
N465 Li441 1.990 . S
N465 C464 1.314 . S
N465 C468 1.279 . S
C466 C464 1.353 . S
C466 C469 1.348 . S
C466 H514 0.929 . S
C467 C468 1.358 . S
C467 C469 1.356 . S
C467 H515 0.930 . S
C468 N465 1.279 . S
C468 C467 1.358 . S
C468 H471 0.930 . S
C469 C466 1.348 . S
C469 C467 1.356 . S
H470 C464 0.930 . S
H471 C468 0.930 . S
C472 C474 1.348 1_565 S
C472 C475 1.356 . S
C472 O502 1.325 . S
N473 C476 1.260 1_565 S
N473 C477 1.279 . S
C474 C472 1.348 1_545 S
C474 C476 1.386 . S
C474 H516 0.929 . S
C475 C472 1.356 . S
C475 C477 1.358 . S
C475 H517 0.930 . S
C476 N473 1.260 1_545 S
C476 C474 1.386 . S
C476 H518 0.958 . S
C477 N473 1.279 . S
C477 C475 1.358 . S
C477 H519 0.930 . S
C478 C479 1.348 1_554 S
C478 C480 1.356 . S
C478 O503 1.325 . S
C479 C478 1.348 1_556 S
C479 C481 1.353 . S
C479 H520 0.929 . S
C480 C478 1.356 . S
C480 C482 1.358 . S
C480 H521 0.930 . S
C481 C479 1.353 . S
C481 N483 1.314 . S
C481 H522 0.930 . S
C482 C480 1.358 . S
C482 N483 1.279 1_554 S
C482 H523 0.930 . S
N483 C481 1.314 . S
N483 C482 1.279 1_556 S
C484 C486 1.353 . S
C484 N487 1.314 . S
C484 H490 0.930 . S
C485 N487 1.279 . S
C485 C488 1.358 . S
C485 H491 0.930 . S
C486 C484 1.353 . S
C486 C489 1.348 . S
C486 H524 0.929 . S
N487 Li442 1.990 . S
N487 C484 1.314 . S
N487 C485 1.279 . S
C488 C485 1.358 . S
C488 C489 1.356 . S
C488 H525 0.930 . S
C489 C486 1.348 . S
C489 C488 1.356 . S
H490 C484 0.930 . S
H491 C485 0.930 . S
C492 N493 1.314 . S
C492 C494 1.353 . S
C492 H498 0.930 . S
N493 Li443 1.990 . S
N493 C492 1.314 . S
N493 C496 1.279 1_554 S
C494 C492 1.353 . S
C494 C497 1.348 1_554 S
C494 H526 0.929 . S
C495 C496 1.358 . S
C495 C497 1.356 . S
C495 H527 0.930 . S
C496 N493 1.279 1_556 S
C496 C495 1.358 . S
C496 H499 0.930 . S
C497 C494 1.348 1_556 S
C497 C495 1.356 . S
H498 C492 0.930 . S
H499 C496 0.930 . S
O500 Li440 1.956 . S
O500 Li441 1.970 1_565 S
O500 Li442 1.961 1_554 S
O500 C444 1.325 . S
O501 Li440 1.970 1_545 S
O501 Li441 1.956 . S
O501 Li443 1.961 . S
O501 C450 1.325 . S
O502 Li440 1.961 1_556 S
O502 Li442 1.956 . S
O502 Li443 1.970 1_566 S
O502 C472 1.325 . S
O503 Li441 1.961 . S
O503 Li442 1.970 1_544 S
O503 Li443 1.956 . S
O503 C478 1.325 . S
H504 C446 0.929 . S
H505 C447 0.930 1_556 S
H506 C448 0.930 . S
H507 C449 0.930 1_556 S
H508 C451 0.930 . S
H509 C453 0.929 . S
H510 C454 0.930 . S
H511 C455 0.986 . S
H512 C458 0.930 . S
H513 C461 0.929 . S
H514 C466 0.929 . S
H515 C467 0.930 . S
H516 C474 0.929 . S
H517 C475 0.930 . S
H518 C476 0.958 . S
H519 C477 0.930 . S
H520 C479 0.929 . S
H521 C480 0.930 . S
H522 C481 0.930 . S
H523 C482 0.930 . S
H524 C486 0.929 . S
H525 C488 0.930 . S
H526 C494 0.929 . S
H527 C495 0.930 . S
Li528 N545 1.990 . S
Li528 O588 1.956 . S
Li528 O589 1.970 . S
Li528 O590 1.961 . S
Li529 N553 1.990 . S
Li529 O588 1.970 . S
Li529 O589 1.956 . S
Li529 O591 1.961 . S
Li530 N575 1.990 . S
Li530 O588 1.961 . S
Li530 O590 1.956 . S
Li530 O591 1.970 . S
Li531 N581 1.990 . S
Li531 O589 1.961 . S
Li531 O590 1.970 . S
Li531 O591 1.956 . S
C532 C534 1.348 . S
C532 C535 1.356 . S
C532 O588 1.325 . S
N533 C536 1.314 . S
N533 C537 1.279 . S
C534 C532 1.348 . S
C534 C536 1.353 . S
C534 H592 0.929 . S
C535 C532 1.356 . S
C535 C537 1.358 . S
C535 H593 0.930 . S
C536 N533 1.314 . S
C536 C534 1.353 . S
C536 H594 0.930 . S
C537 N533 1.279 . S
C537 C535 1.358 . S
C537 H595 0.930 . S
C538 C541 1.348 . S
C538 C542 1.356 . S
C538 O589 1.325 . S
C539 N540 1.279 . S
C539 C542 1.358 . S
C539 H596 0.930 . S
N540 C539 1.279 . S
N540 C543 1.314 . S
C541 C538 1.348 . S
C541 C543 1.353 . S
C541 H597 0.929 . S
C542 C538 1.356 . S
C542 C539 1.358 . S
C542 H598 0.930 . S
C543 N540 1.314 . S
C543 C541 1.353 . S
C543 H599 0.930 . S
C544 N545 1.314 . S
C544 C549 1.353 . S
C544 H550 0.930 . S
N545 Li528 1.990 . S
N545 C544 1.314 . S
N545 C547 1.279 . S
C546 C547 1.358 . S
C546 C548 1.356 . S
C546 H600 0.930 . S
C547 N545 1.279 . S
C547 C546 1.358 . S
C547 H551 0.930 . S
C548 C546 1.356 . S
C548 C549 1.348 . S
C549 C544 1.353 . S
C549 C548 1.348 . S
C549 H601 0.929 . S
H550 C544 0.930 . S
H551 C547 0.930 . S
C552 N553 1.314 . S
C552 C554 1.353 . S
C552 H558 0.930 . S
N553 Li529 1.990 . S
N553 C552 1.314 . S
N553 C556 1.279 . S
C554 C552 1.353 . S
C554 C557 1.348 . S
C554 H602 0.929 . S
C555 C556 1.358 . S
C555 C557 1.356 . S
C555 H603 0.930 . S
C556 N553 1.279 . S
C556 C555 1.358 . S
C556 H559 0.930 . S
C557 C554 1.348 . S
C557 C555 1.356 . S
H558 C552 0.930 . S
H559 C556 0.930 . S
C560 C562 1.348 . S
C560 C563 1.356 . S
C560 O590 1.325 . S
N561 C564 1.314 . S
N561 C565 1.279 . S
C562 C560 1.348 . S
C562 C564 1.353 . S
C562 H604 0.929 . S
C563 C560 1.356 . S
C563 C565 1.358 . S
C563 H605 0.930 . S
C564 N561 1.314 . S
C564 C562 1.353 . S
C564 H606 0.930 . S
C565 N561 1.279 . S
C565 C563 1.358 . S
C565 H607 0.930 . S
C566 C567 1.348 . S
C566 C568 1.356 . S
C566 O591 1.325 . S
C567 C566 1.348 . S
C567 C569 1.353 . S
C567 H608 0.929 . S
C568 C566 1.356 . S
C568 C570 1.358 . S
C568 H609 0.930 . S
C569 C567 1.353 . S
C569 N571 1.314 . S
C569 H610 0.930 . S
C570 C568 1.358 . S
C570 N571 1.279 . S
C570 H611 0.930 . S
N571 C569 1.314 . S
N571 C570 1.279 . S
C572 C574 1.353 . S
C572 N575 1.314 . S
C572 H578 0.930 . S
C573 N575 1.279 . S
C573 C576 1.358 . S
C573 H579 0.930 . S
C574 C572 1.353 . S
C574 C577 1.348 . S
C574 H612 0.929 . S
N575 Li530 1.990 . S
N575 C572 1.314 . S
N575 C573 1.279 . S
C576 C573 1.358 . S
C576 C577 1.356 . S
C576 H613 0.930 . S
C577 C574 1.348 . S
C577 C576 1.356 . S
H578 C572 0.930 . S
H579 C573 0.930 . S
C580 N581 1.314 . S
C580 C582 1.353 . S
C580 H586 0.930 . S
N581 Li531 1.990 . S
N581 C580 1.314 . S
N581 C584 1.279 . S
C582 C580 1.353 . S
C582 C585 1.348 . S
C582 H614 0.929 . S
C583 C584 1.358 . S
C583 C585 1.356 . S
C583 H615 0.930 . S
C584 N581 1.279 . S
C584 C583 1.358 . S
C584 H587 0.930 . S
C585 C582 1.348 . S
C585 C583 1.356 . S
H586 C580 0.930 . S
H587 C584 0.930 . S
O588 Li528 1.956 . S
O588 Li529 1.970 . S
O588 Li530 1.961 . S
O588 C532 1.325 . S
O589 Li528 1.970 . S
O589 Li529 1.956 . S
O589 Li531 1.961 . S
O589 C538 1.325 . S
O590 Li528 1.961 . S
O590 Li530 1.956 . S
O590 Li531 1.970 . S
O590 C560 1.325 . S
O591 Li529 1.961 . S
O591 Li530 1.970 . S
O591 Li531 1.956 . S
O591 C566 1.325 . S
H592 C534 0.929 . S
H593 C535 0.930 . S
H594 C536 0.930 . S
H595 C537 0.930 . S
H596 C539 0.930 . S
H597 C541 0.929 . S
H598 C542 0.930 . S
H599 C543 0.930 . S
H600 C546 0.930 . S
H601 C549 0.929 . S
H602 C554 0.929 . S
H603 C555 0.930 . S
H604 C562 0.929 . S
H605 C563 0.930 . S
H606 C564 0.930 . S
H607 C565 0.930 . S
H608 C567 0.929 . S
H609 C568 0.930 . S
H610 C569 0.930 . S
H611 C570 0.930 . S
H612 C574 0.929 . S
H613 C576 0.930 . S
H614 C582 0.929 . S
H615 C583 0.930 . S
Li616 N633 1.990 . S
Li616 O676 1.956 . S
Li616 O677 1.970 . S
Li616 O678 1.961 . S
Li617 N641 1.990 . S
Li617 O676 1.970 . S
Li617 O677 1.956 . S
Li617 O679 1.961 . S
Li618 N663 1.990 1_565 S
Li618 O676 1.961 . S
Li618 O678 1.956 . S
Li618 O679 1.970 . S
Li619 N669 1.990 . S
Li619 O677 1.961 . S
Li619 O678 1.970 . S
Li619 O679 1.956 . S
C620 C622 1.348 . S
C620 C623 1.356 . S
C620 O676 1.325 . S
N621 C624 1.314 . S
N621 C625 1.279 . S
C622 C620 1.348 . S
C622 C624 1.353 . S
C622 H680 0.929 . S
C623 C620 1.356 . S
C623 C625 1.358 . S
C623 H681 0.930 . S
C624 N621 1.314 . S
C624 C622 1.353 . S
C624 H682 0.930 . S
C625 N621 1.279 . S
C625 C623 1.358 . S
C625 H683 0.930 . S
C626 C629 1.348 . S
C626 C630 1.356 . S
C626 O677 1.325 . S
C627 N628 1.279 . S
C627 C630 1.358 . S
C627 H684 0.930 . S
N628 C627 1.279 . S
N628 C631 1.314 . S
C629 C626 1.348 . S
C629 C631 1.353 . S
C629 H685 0.929 . S
C630 C626 1.356 . S
C630 C627 1.358 . S
C630 H686 0.930 . S
C631 N628 1.314 . S
C631 C629 1.353 . S
C631 H687 0.930 . S
C632 N633 1.314 . S
C632 C637 1.353 . S
C632 H638 0.930 . S
N633 Li616 1.990 . S
N633 C632 1.314 . S
N633 C635 1.279 . S
C634 C635 1.358 . S
C634 C636 1.356 . S
C634 H688 0.930 . S
C635 N633 1.279 . S
C635 C634 1.358 . S
C635 H639 0.930 . S
C636 C634 1.356 . S
C636 C637 1.348 . S
C637 C632 1.353 . S
C637 C636 1.348 . S
C637 H689 0.929 . S
H638 C632 0.930 . S
H639 C635 0.930 . S
C640 N641 1.314 . S
C640 C642 1.353 . S
C640 H646 0.930 . S
N641 Li617 1.990 . S
N641 C640 1.314 . S
N641 C644 1.279 . S
C642 C640 1.353 . S
C642 C645 1.348 . S
C642 H690 0.929 . S
C643 C644 1.358 . S
C643 C645 1.356 . S
C643 H691 0.930 . S
C644 N641 1.279 . S
C644 C643 1.358 . S
C644 H647 0.930 . S
C645 C642 1.348 . S
C645 C643 1.356 . S
H646 C640 0.930 . S
H647 C644 0.930 . S
C648 C650 1.349 1_565 S
C648 C651 1.356 . S
C648 O678 1.325 . S
N649 C652 1.314 . S
N649 C653 1.279 . S
C650 C648 1.349 1_545 S
C650 C652 1.374 . S
C650 H692 0.909 1_545 S
C651 C648 1.356 . S
C651 C653 1.358 1_565 S
C651 H693 0.930 . S
C652 N649 1.314 . S
C652 C650 1.374 . S
C652 H694 0.930 . S
C653 N649 1.279 . S
C653 C651 1.358 1_545 S
C653 H695 0.930 . S
C654 C655 1.325 1_565 S
C654 C656 1.356 . S
C654 O679 1.325 . S
C655 C654 1.325 1_545 S
C655 C657 1.353 . S
C655 H696 0.952 . S
C656 C654 1.356 . S
C656 C658 1.358 . S
C656 H697 0.930 . S
C657 C655 1.353 . S
C657 N659 1.314 1_545 S
C657 H698 0.930 . S
C658 C656 1.358 . S
C658 N659 1.279 . S
C658 H699 0.930 . S
N659 C657 1.314 1_565 S
N659 C658 1.279 . S
C660 C662 1.353 . S
C660 N663 1.314 . S
C660 H666 0.930 . S
C661 N663 1.279 . S
C661 C664 1.358 . S
C661 H667 0.930 . S
C662 C660 1.353 . S
C662 C665 1.348 . S
C662 H700 0.929 . S
N663 Li618 1.990 1_545 S
N663 C660 1.314 . S
N663 C661 1.279 . S
C664 C661 1.358 . S
C664 C665 1.356 . S
C664 H701 0.930 . S
C665 C662 1.348 . S
C665 C664 1.356 . S
H666 C660 0.930 . S
H667 C661 0.930 . S
C668 N669 1.314 . S
C668 C670 1.353 . S
C668 H674 0.930 . S
N669 Li619 1.990 . S
N669 C668 1.314 . S
N669 C672 1.279 . S
C670 C668 1.353 . S
C670 C673 1.348 . S
C670 H702 0.929 . S
C671 C672 1.358 . S
C671 C673 1.356 . S
C671 H703 0.930 . S
C672 N669 1.279 . S
C672 C671 1.358 . S
C672 H675 0.930 . S
C673 C670 1.348 . S
C673 C671 1.356 . S
H674 C668 0.930 . S
H675 C672 0.930 . S
O676 Li616 1.956 . S
O676 Li617 1.970 . S
O676 Li618 1.961 . S
O676 C620 1.325 . S
O677 Li616 1.970 . S
O677 Li617 1.956 . S
O677 Li619 1.961 . S
O677 C626 1.325 . S
O678 Li616 1.961 . S
O678 Li618 1.956 . S
O678 Li619 1.970 . S
O678 C648 1.325 . S
O679 Li617 1.961 . S
O679 Li618 1.970 . S
O679 Li619 1.956 . S
O679 C654 1.325 . S
H680 C622 0.929 . S
H681 C623 0.930 . S
H682 C624 0.930 . S
H683 C625 0.930 . S
H684 C627 0.930 . S
H685 C629 0.929 . S
H686 C630 0.930 . S
H687 C631 0.930 . S
H688 C634 0.930 . S
H689 C637 0.929 . S
H690 C642 0.929 . S
H691 C643 0.930 . S
H692 C650 0.909 1_565 S
H693 C651 0.930 . S
H694 C652 0.930 . S
H695 C653 0.930 . S
H696 C655 0.952 . S
H697 C656 0.930 . S
H698 C657 0.930 . S
H699 C658 0.930 . S
H700 C662 0.929 . S
H701 C664 0.930 . S
H702 C670 0.929 . S
H703 C671 0.930 . S
Li704 N721 1.990 . S
Li704 O764 1.956 . S
Li704 O765 1.970 . S
Li704 O766 1.961 . S
Li705 N729 1.990 . S
Li705 O764 1.970 . S
Li705 O765 1.956 . S
Li705 O767 1.961 . S
Li706 N751 1.990 1_455 S
Li706 O764 1.961 . S
Li706 O766 1.956 . S
Li706 O767 1.970 . S
Li707 N757 1.990 . S
Li707 O765 1.961 . S
Li707 O766 1.970 . S
Li707 O767 1.956 . S
C708 C710 1.348 . S
C708 C711 1.356 . S
C708 O764 1.325 . S
N709 C712 1.314 . S
N709 C713 1.279 . S
C710 C708 1.348 . S
C710 C712 1.353 . S
C710 H768 0.929 . S
C711 C708 1.356 . S
C711 C713 1.358 . S
C711 H769 0.930 . S
C712 N709 1.314 . S
C712 C710 1.353 . S
C712 H770 0.930 . S
C713 N709 1.279 . S
C713 C711 1.358 . S
C713 H771 0.930 . S
C714 C717 1.348 . S
C714 C718 1.356 . S
C714 O765 1.325 . S
C715 N716 1.279 . S
C715 C718 1.358 . S
C715 H772 0.930 . S
N716 C715 1.279 . S
N716 C719 1.314 . S
C717 C714 1.348 . S
C717 C719 1.353 . S
C717 H773 0.929 . S
C718 C714 1.356 . S
C718 C715 1.358 . S
C718 H774 0.930 . S
C719 N716 1.314 . S
C719 C717 1.353 . S
C719 H775 0.930 . S
C720 N721 1.314 . S
C720 C725 1.353 . S
C720 H726 0.930 . S
N721 Li704 1.990 . S
N721 C720 1.314 . S
N721 C723 1.279 . S
C722 C723 1.358 . S
C722 C724 1.356 . S
C722 H776 0.930 . S
C723 N721 1.279 . S
C723 C722 1.358 . S
C723 H727 0.930 . S
C724 C722 1.356 . S
C724 C725 1.348 . S
C725 C720 1.353 . S
C725 C724 1.348 . S
C725 H777 0.929 . S
H726 C720 0.930 . S
H727 C723 0.930 . S
C728 N729 1.314 . S
C728 C730 1.353 . S
C728 H734 0.930 . S
N729 Li705 1.990 . S
N729 C728 1.314 . S
N729 C732 1.279 . S
C730 C728 1.353 . S
C730 C733 1.348 . S
C730 H778 0.929 . S
C731 C732 1.358 . S
C731 C733 1.356 . S
C731 H779 0.930 . S
C732 N729 1.279 . S
C732 C731 1.358 . S
C732 H735 0.930 . S
C733 C730 1.348 . S
C733 C731 1.356 . S
H734 C728 0.930 . S
H735 C732 0.930 . S
C736 C738 1.347 . S
C736 C739 1.356 . S
C736 O766 1.325 . S
N737 C740 1.314 . S
N737 C741 1.279 . S
C738 C736 1.347 . S
C738 C740 1.353 1_455 S
C738 H780 0.930 . S
C739 C736 1.356 . S
C739 C741 1.358 1_455 S
C739 H781 0.930 . S
C740 N737 1.314 . S
C740 C738 1.353 1_655 S
C740 H782 0.930 . S
C741 N737 1.279 . S
C741 C739 1.358 1_655 S
C741 H783 0.930 . S
C742 C743 1.355 1_455 S
C742 C744 1.356 . S
C742 O767 1.325 . S
C743 C742 1.355 1_655 S
C743 C745 1.349 . S
C743 H784 0.927 . S
C744 C742 1.356 . S
C744 C746 1.358 . S
C744 H785 0.930 . S
C745 C743 1.349 . S
C745 N747 1.314 1_655 S
C745 H786 0.930 . S
C746 C744 1.358 . S
C746 N747 1.279 . S
C746 H787 0.930 . S
N747 C745 1.314 1_455 S
N747 C746 1.279 . S
C748 C750 1.353 . S
C748 N751 1.314 . S
C748 H754 0.930 . S
C749 N751 1.279 . S
C749 C752 1.358 . S
C749 H755 0.930 . S
C750 C748 1.353 . S
C750 C753 1.348 . S
C750 H788 0.929 . S
N751 Li706 1.990 1_655 S
N751 C748 1.314 . S
N751 C749 1.279 . S
C752 C749 1.358 . S
C752 C753 1.356 . S
C752 H789 0.930 . S
C753 C750 1.348 . S
C753 C752 1.356 . S
H754 C748 0.930 . S
H755 C749 0.930 . S
C756 N757 1.314 . S
C756 C758 1.353 . S
C756 H762 0.930 . S
N757 Li707 1.990 . S
N757 C756 1.314 . S
N757 C760 1.279 . S
C758 C756 1.353 . S
C758 C761 1.348 . S
C758 H790 0.929 . S
C759 C760 1.358 . S
C759 C761 1.356 . S
C759 H791 0.930 . S
C760 N757 1.279 . S
C760 C759 1.358 . S
C760 H763 0.930 . S
C761 C758 1.348 . S
C761 C759 1.356 . S
H762 C756 0.930 . S
H763 C760 0.930 . S
O764 Li704 1.956 . S
O764 Li705 1.970 . S
O764 Li706 1.961 . S
O764 C708 1.325 . S
O765 Li704 1.970 . S
O765 Li705 1.956 . S
O765 Li707 1.961 . S
O765 C714 1.325 . S
O766 Li704 1.961 . S
O766 Li706 1.956 . S
O766 Li707 1.970 . S
O766 C736 1.325 . S
O767 Li705 1.961 . S
O767 Li706 1.970 . S
O767 Li707 1.956 . S
O767 C742 1.325 . S
H768 C710 0.929 . S
H769 C711 0.930 . S
H770 C712 0.930 . S
H771 C713 0.930 . S
H772 C715 0.930 . S
H773 C717 0.929 . S
H774 C718 0.930 . S
H775 C719 0.930 . S
H776 C722 0.930 . S
H777 C725 0.929 . S
H778 C730 0.929 . S
H779 C731 0.930 . S
H780 C738 0.930 . S
H781 C739 0.930 . S
H782 C740 0.930 . S
H783 C741 0.930 . S
H784 C743 0.927 . S
H785 C744 0.930 . S
H786 C745 0.930 . S
H787 C746 0.930 . S
H788 C750 0.929 . S
H789 C752 0.930 . S
H790 C758 0.929 . S
H791 C759 0.930 . S
Li792 N809 1.990 1_565 S
Li792 O852 1.956 . S
Li792 O853 1.970 . S
Li792 O854 1.961 . S
Li793 N817 1.990 . S
Li793 O852 1.970 . S
Li793 O853 1.956 . S
Li793 O855 1.961 . S
Li794 N839 1.990 . S
Li794 O852 1.961 . S
Li794 O854 1.956 . S
Li794 O855 1.970 . S
Li795 N845 1.990 . S
Li795 O853 1.961 . S
Li795 O854 1.970 . S
Li795 O855 1.956 . S
C796 C798 1.348 . S
C796 C799 1.356 . S
C796 O852 1.325 . S
N797 C800 1.314 . S
N797 C801 1.279 . S
C798 C796 1.348 . S
C798 C800 1.353 . S
C798 H856 0.929 . S
C799 C796 1.356 . S
C799 C801 1.358 . S
C799 H857 0.930 . S
C800 N797 1.314 . S
C800 C798 1.353 . S
C800 H858 0.930 . S
C801 N797 1.279 . S
C801 C799 1.358 . S
C801 H859 0.930 . S
C802 C805 1.348 . S
C802 C806 1.356 . S
C802 O853 1.325 . S
C803 N804 1.279 . S
C803 C806 1.358 . S
C803 H860 0.930 . S
N804 C803 1.279 . S
N804 C807 1.314 1_565 S
C805 C802 1.348 . S
C805 C807 1.353 1_565 S
C805 H861 0.940 1_565 S
C806 C802 1.356 . S
C806 C803 1.358 . S
C806 H862 0.930 . S
C807 N804 1.314 1_545 S
C807 C805 1.353 1_545 S
C807 H863 0.930 . S
C808 N809 1.314 . S
C808 C813 1.353 . S
C808 H814 0.930 . S
N809 Li792 1.990 1_545 S
N809 C808 1.314 . S
N809 C811 1.279 . S
C810 C811 1.358 . S
C810 C812 1.356 . S
C810 H864 0.930 . S
C811 N809 1.279 . S
C811 C810 1.358 . S
C811 H815 0.930 . S
C812 C810 1.356 . S
C812 C813 1.348 . S
C813 C808 1.353 . S
C813 C812 1.348 . S
C813 H865 0.929 . S
H814 C808 0.930 . S
H815 C811 0.930 . S
C816 N817 1.314 . S
C816 C818 1.353 . S
C816 H822 0.930 . S
N817 Li793 1.990 . S
N817 C816 1.314 . S
N817 C820 1.279 . S
C818 C816 1.353 . S
C818 C821 1.348 . S
C818 H866 0.929 . S
C819 C820 1.358 . S
C819 C821 1.356 . S
C819 H867 0.930 . S
C820 N817 1.279 . S
C820 C819 1.358 . S
C820 H823 0.930 . S
C821 C818 1.348 . S
C821 C819 1.356 . S
H822 C816 0.930 . S
H823 C820 0.930 . S
C824 C826 1.348 . S
C824 C827 1.356 1_565 S
C824 O854 1.325 . S
N825 C828 1.314 . S
N825 C829 1.279 . S
C826 C824 1.348 . S
C826 C828 1.353 1_565 S
C826 H868 0.929 . S
C827 C824 1.356 1_545 S
C827 C829 1.358 . S
C827 H869 0.930 . S
C828 N825 1.314 . S
C828 C826 1.353 1_545 S
C828 H870 0.930 . S
C829 N825 1.279 . S
C829 C827 1.358 . S
C829 H871 0.930 . S
C830 C831 1.348 . S
C830 C832 1.356 . S
C830 O855 1.325 . S
C831 C830 1.348 . S
C831 C833 1.353 . S
C831 H872 0.929 . S
C832 C830 1.356 . S
C832 C834 1.358 . S
C832 H873 0.930 . S
C833 C831 1.353 . S
C833 N835 1.314 . S
C833 H874 0.930 . S
C834 C832 1.358 . S
C834 N835 1.279 . S
C834 H875 0.930 . S
N835 C833 1.314 . S
N835 C834 1.279 . S
C836 C838 1.353 . S
C836 N839 1.314 . S
C836 H842 0.930 . S
C837 N839 1.279 . S
C837 C840 1.358 . S
C837 H843 0.930 . S
C838 C836 1.353 . S
C838 C841 1.348 . S
C838 H876 0.929 . S
N839 Li794 1.990 . S
N839 C836 1.314 . S
N839 C837 1.279 . S
C840 C837 1.358 . S
C840 C841 1.356 . S
C840 H877 0.930 . S
C841 C838 1.348 . S
C841 C840 1.356 . S
H842 C836 0.930 . S
H843 C837 0.930 . S
C844 N845 1.314 . S
C844 C846 1.353 . S
C844 H850 0.930 . S
N845 Li795 1.990 . S
N845 C844 1.314 . S
N845 C848 1.279 . S
C846 C844 1.353 . S
C846 C849 1.348 . S
C846 H878 0.929 . S
C847 C848 1.358 . S
C847 C849 1.356 . S
C847 H879 0.930 . S
C848 N845 1.279 . S
C848 C847 1.358 . S
C848 H851 0.930 . S
C849 C846 1.348 . S
C849 C847 1.356 . S
H850 C844 0.930 . S
H851 C848 0.930 . S
O852 Li792 1.956 . S
O852 Li793 1.970 . S
O852 Li794 1.961 . S
O852 C796 1.325 . S
O853 Li792 1.970 . S
O853 Li793 1.956 . S
O853 Li795 1.961 . S
O853 C802 1.325 . S
O854 Li792 1.961 . S
O854 Li794 1.956 . S
O854 Li795 1.970 . S
O854 C824 1.325 . S
O855 Li793 1.961 . S
O855 Li794 1.970 . S
O855 Li795 1.956 . S
O855 C830 1.325 . S
H856 C798 0.929 . S
H857 C799 0.930 . S
H858 C800 0.930 . S
H859 C801 0.930 . S
H860 C803 0.930 . S
H861 C805 0.940 1_545 S
H862 C806 0.930 . S
H863 C807 0.930 . S
H864 C810 0.930 . S
H865 C813 0.929 . S
H866 C818 0.929 . S
H867 C819 0.930 . S
H868 C826 0.929 . S
H869 C827 0.930 . S
H870 C828 0.930 . S
H871 C829 0.930 . S
H872 C831 0.929 . S
H873 C832 0.930 . S
H874 C833 0.930 . S
H875 C834 0.930 . S
H876 C838 0.929 . S
H877 C840 0.930 . S
H878 C846 0.929 . S
H879 C847 0.930 . S
Li880 N897 1.990 . S
Li880 O940 1.956 . S
Li880 O941 1.970 . S
Li880 O942 1.961 . S
Li881 N905 1.990 1_455 S
Li881 O940 1.970 . S
Li881 O941 1.956 . S
Li881 O943 1.961 . S
Li882 N927 1.990 . S
Li882 O940 1.961 . S
Li882 O942 1.956 . S
Li882 O943 1.970 . S
Li883 N933 1.990 . S
Li883 O941 1.961 . S
Li883 O942 1.970 . S
Li883 O943 1.956 . S
C884 C886 1.348 . S
C884 C887 1.356 . S
C884 O940 1.325 . S
N885 C888 1.314 1_455 S
N885 C889 1.279 . S
C886 C884 1.348 . S
C886 C888 1.353 1_455 S
C886 H944 0.868 1_455 S
C887 C884 1.356 . S
C887 C889 1.358 . S
C887 H945 0.930 . S
C888 N885 1.314 1_655 S
C888 C886 1.353 1_655 S
C888 H946 0.930 . S
C889 N885 1.279 . S
C889 C887 1.358 . S
C889 H947 0.930 . S
C890 C893 1.348 . S
C890 C894 1.356 . S
C890 O941 1.325 . S
C891 N892 1.279 . S
C891 C894 1.358 . S
C891 H948 0.930 . S
N892 C891 1.279 . S
N892 C895 1.314 . S
C893 C890 1.348 . S
C893 C895 1.353 . S
C893 H949 0.929 . S
C894 C890 1.356 . S
C894 C891 1.358 . S
C894 H950 0.930 . S
C895 N892 1.314 . S
C895 C893 1.353 . S
C895 H951 0.930 . S
C896 N897 1.314 . S
C896 C901 1.353 . S
C896 H902 0.930 . S
N897 Li880 1.990 . S
N897 C896 1.314 . S
N897 C899 1.279 . S
C898 C899 1.358 . S
C898 C900 1.356 . S
C898 H952 0.930 . S
C899 N897 1.279 . S
C899 C898 1.358 . S
C899 H903 0.930 . S
C900 C898 1.356 . S
C900 C901 1.348 . S
C901 C896 1.353 . S
C901 C900 1.348 . S
C901 H953 0.929 . S
H902 C896 0.930 . S
H903 C899 0.930 . S
C904 N905 1.314 . S
C904 C906 1.353 . S
C904 H910 0.930 . S
N905 Li881 1.990 1_655 S
N905 C904 1.314 . S
N905 C908 1.279 . S
C906 C904 1.353 . S
C906 C909 1.348 . S
C906 H954 0.929 . S
C907 C908 1.358 . S
C907 C909 1.356 . S
C907 H955 0.930 . S
C908 N905 1.279 . S
C908 C907 1.358 . S
C908 H911 0.930 . S
C909 C906 1.348 . S
C909 C907 1.356 . S
H910 C904 0.930 . S
H911 C908 0.930 . S
C912 C914 1.348 . S
C912 C915 1.356 . S
C912 O942 1.325 . S
N913 C916 1.314 . S
N913 C917 1.279 . S
C914 C912 1.348 . S
C914 C916 1.353 . S
C914 H956 0.929 . S
C915 C912 1.356 . S
C915 C917 1.358 . S
C915 H957 0.930 . S
C916 N913 1.314 . S
C916 C914 1.353 . S
C916 H958 0.930 . S
C917 N913 1.279 . S
C917 C915 1.358 . S
C917 H959 0.930 . S
C918 C919 1.348 . S
C918 C920 1.356 1_455 S
C918 O943 1.325 . S
C919 C918 1.348 . S
C919 C921 1.353 1_455 S
C919 H960 0.929 . S
C920 C918 1.356 1_655 S
C920 C922 1.358 . S
C920 H961 0.930 . S
C921 C919 1.353 1_655 S
C921 N923 1.314 . S
C921 H962 0.930 . S
C922 C920 1.358 . S
C922 N923 1.279 . S
C922 H963 0.930 . S
N923 C921 1.314 . S
N923 C922 1.279 . S
C924 C926 1.353 . S
C924 N927 1.314 . S
C924 H930 0.930 . S
C925 N927 1.279 . S
C925 C928 1.358 . S
C925 H931 0.930 . S
C926 C924 1.353 . S
C926 C929 1.348 . S
C926 H964 0.929 . S
N927 Li882 1.990 . S
N927 C924 1.314 . S
N927 C925 1.279 . S
C928 C925 1.358 . S
C928 C929 1.356 . S
C928 H965 0.930 . S
C929 C926 1.348 . S
C929 C928 1.356 . S
H930 C924 0.930 . S
H931 C925 0.930 . S
C932 N933 1.314 . S
C932 C934 1.353 . S
C932 H938 0.930 . S
N933 Li883 1.990 . S
N933 C932 1.314 . S
N933 C936 1.279 . S
C934 C932 1.353 . S
C934 C937 1.348 . S
C934 H966 0.929 . S
C935 C936 1.358 . S
C935 C937 1.356 . S
C935 H967 0.930 . S
C936 N933 1.279 . S
C936 C935 1.358 . S
C936 H939 0.930 . S
C937 C934 1.348 . S
C937 C935 1.356 . S
H938 C932 0.930 . S
H939 C936 0.930 . S
O940 Li880 1.956 . S
O940 Li881 1.970 . S
O940 Li882 1.961 . S
O940 C884 1.325 . S
O941 Li880 1.970 . S
O941 Li881 1.956 . S
O941 Li883 1.961 . S
O941 C890 1.325 . S
O942 Li880 1.961 . S
O942 Li882 1.956 . S
O942 Li883 1.970 . S
O942 C912 1.325 . S
O943 Li881 1.961 . S
O943 Li882 1.970 . S
O943 Li883 1.956 . S
O943 C918 1.325 . S
H944 C886 0.868 1_655 S
H945 C887 0.930 . S
H946 C888 0.930 . S
H947 C889 0.930 . S
H948 C891 0.930 . S
H949 C893 0.929 . S
H950 C894 0.930 . S
H951 C895 0.930 . S
H952 C898 0.930 . S
H953 C901 0.929 . S
H954 C906 0.929 . S
H955 C907 0.930 . S
H956 C914 0.929 . S
H957 C915 0.930 . S
H958 C916 0.930 . S
H959 C917 0.930 . S
H960 C919 0.929 . S
H961 C920 0.930 . S
H962 C921 0.930 . S
H963 C922 0.930 . S
H964 C926 0.929 . S
H965 C928 0.930 . S
H966 C934 0.929 . S
H967 C935 0.930 . S
Li968 N985 1.990 . S
Li968 O1028 1.956 . S
Li968 O1029 1.970 . S
Li968 O1030 1.961 . S
Li969 N993 1.990 . S
Li969 O1028 1.970 . S
Li969 O1029 1.956 . S
Li969 O1031 1.961 . S
Li970 N1015 1.990 . S
Li970 O1028 1.961 . S
Li970 O1030 1.956 . S
Li970 O1031 1.970 . S
Li971 N1021 1.990 . S
Li971 O1029 1.961 . S
Li971 O1030 1.970 . S
Li971 O1031 1.956 . S
C972 C974 1.348 . S
C972 C975 1.356 . S
C972 O1028 1.325 . S
N973 C976 1.314 . S
N973 C977 1.279 . S
C974 C972 1.348 . S
C974 C976 1.353 . S
C974 H1032 0.929 . S
C975 C972 1.356 . S
C975 C977 1.358 . S
C975 H1033 0.930 . S
C976 N973 1.314 . S
C976 C974 1.353 . S
C976 H1034 0.930 . S
C977 N973 1.279 . S
C977 C975 1.358 . S
C977 H1035 0.930 . S
C978 C981 1.348 . S
C978 C982 1.356 . S
C978 O1029 1.325 . S
C979 N980 1.279 . S
C979 C982 1.358 . S
C979 H1036 0.930 . S
N980 C979 1.279 . S
N980 C983 1.314 . S
C981 C978 1.348 . S
C981 C983 1.353 . S
C981 H1037 0.929 . S
C982 C978 1.356 . S
C982 C979 1.358 . S
C982 H1038 0.930 . S
C983 N980 1.314 . S
C983 C981 1.353 . S
C983 H1039 0.930 . S
C984 N985 1.314 . S
C984 C989 1.353 . S
C984 H990 0.930 . S
N985 Li968 1.990 . S
N985 C984 1.314 . S
N985 C987 1.279 . S
C986 C987 1.358 . S
C986 C988 1.356 . S
C986 H1040 0.930 . S
C987 N985 1.279 . S
C987 C986 1.358 . S
C987 H991 0.930 . S
C988 C986 1.356 . S
C988 C989 1.348 . S
C989 C984 1.353 . S
C989 C988 1.348 . S
C989 H1041 0.929 . S
H990 C984 0.930 . S
H991 C987 0.930 . S
C992 N993 1.314 . S
C992 C994 1.353 . S
C992 H998 0.930 . S
N993 Li969 1.990 . S
N993 C992 1.314 . S
N993 C996 1.279 . S
C994 C992 1.353 . S
C994 C997 1.348 . S
C994 H1042 0.929 . S
C995 C996 1.358 . S
C995 C997 1.356 . S
C995 H1043 0.930 . S
C996 N993 1.279 . S
C996 C995 1.358 . S
C996 H999 0.930 . S
C997 C994 1.348 . S
C997 C995 1.356 . S
H998 C992 0.930 . S
H999 C996 0.930 . S
C1000 C1002 1.348 . S
C1000 C1003 1.356 . S
C1000 O1030 1.325 . S
N1001 C1004 1.314 . S
N1001 C1005 1.279 . S
C1002 C1000 1.348 . S
C1002 C1004 1.353 . S
C1002 H1044 0.929 . S
C1003 C1000 1.356 . S
C1003 C1005 1.358 . S
C1003 H1045 0.930 . S
C1004 N1001 1.314 . S
C1004 C1002 1.353 . S
C1004 H1046 0.930 . S
C1005 N1001 1.279 . S
C1005 C1003 1.358 . S
C1005 H1047 0.930 . S
C1006 C1007 1.348 . S
C1006 C1008 1.356 . S
C1006 O1031 1.325 . S
C1007 C1006 1.348 . S
C1007 C1009 1.353 . S
C1007 H1048 0.929 . S
C1008 C1006 1.356 . S
C1008 C1010 1.358 . S
C1008 H1049 0.930 . S
C1009 C1007 1.353 . S
C1009 N1011 1.314 . S
C1009 H1050 0.930 . S
C1010 C1008 1.358 . S
C1010 N1011 1.279 . S
C1010 H1051 0.930 . S
N1011 C1009 1.314 . S
N1011 C1010 1.279 . S
C1012 C1014 1.353 . S
C1012 N1015 1.314 . S
C1012 H1018 0.930 . S
C1013 N1015 1.279 . S
C1013 C1016 1.358 . S
C1013 H1019 0.930 . S
C1014 C1012 1.353 . S
C1014 C1017 1.348 . S
C1014 H1052 0.929 . S
N1015 Li970 1.990 . S
N1015 C1012 1.314 . S
N1015 C1013 1.279 . S
C1016 C1013 1.358 . S
C1016 C1017 1.356 . S
C1016 H1053 0.930 . S
C1017 C1014 1.348 . S
C1017 C1016 1.356 . S
H1018 C1012 0.930 . S
H1019 C1013 0.930 . S
C1020 N1021 1.314 . S
C1020 C1022 1.353 . S
C1020 H1026 0.930 . S
N1021 Li971 1.990 . S
N1021 C1020 1.314 . S
N1021 C1024 1.279 . S
C1022 C1020 1.353 . S
C1022 C1025 1.348 . S
C1022 H1054 0.929 . S
C1023 C1024 1.358 . S
C1023 C1025 1.356 . S
C1023 H1055 0.930 . S
C1024 N1021 1.279 . S
C1024 C1023 1.358 . S
C1024 H1027 0.930 . S
C1025 C1022 1.348 . S
C1025 C1023 1.356 . S
H1026 C1020 0.930 . S
H1027 C1024 0.930 . S
O1028 Li968 1.956 . S
O1028 Li969 1.970 . S
O1028 Li970 1.961 . S
O1028 C972 1.325 . S
O1029 Li968 1.970 . S
O1029 Li969 1.956 . S
O1029 Li971 1.961 . S
O1029 C978 1.325 . S
O1030 Li968 1.961 . S
O1030 Li970 1.956 . S
O1030 Li971 1.970 . S
O1030 C1000 1.325 . S
O1031 Li969 1.961 . S
O1031 Li970 1.970 . S
O1031 Li971 1.956 . S
O1031 C1006 1.325 . S
H1032 C974 0.929 . S
H1033 C975 0.930 . S
H1034 C976 0.930 . S
H1035 C977 0.930 . S
H1036 C979 0.930 . S
H1037 C981 0.929 . S
H1038 C982 0.930 . S
H1039 C983 0.930 . S
H1040 C986 0.930 . S
H1041 C989 0.929 . S
H1042 C994 0.929 . S
H1043 C995 0.930 . S
H1044 C1002 0.929 . S
H1045 C1003 0.930 . S
H1046 C1004 0.930 . S
H1047 C1005 0.930 . S
H1048 C1007 0.929 . S
H1049 C1008 0.930 . S
H1050 C1009 0.930 . S
H1051 C1010 0.930 . S
H1052 C1014 0.929 . S
H1053 C1016 0.930 . S
H1054 C1022 0.929 . S
H1055 C1023 0.930 . S
Li1056 N1073 1.990 1_545 S
Li1056 O1116 1.956 . S
Li1056 O1117 1.970 . S
Li1056 O1118 1.961 . S
Li1057 N1081 1.990 . S
Li1057 O1116 1.970 . S
Li1057 O1117 1.956 . S
Li1057 O1119 1.961 . S
Li1058 N1103 1.990 . S
Li1058 O1116 1.961 . S
Li1058 O1118 1.956 . S
Li1058 O1119 1.970 . S
Li1059 N1109 1.990 . S
Li1059 O1117 1.961 . S
Li1059 O1118 1.970 . S
Li1059 O1119 1.956 . S
C1060 C1062 1.346 . S
C1060 C1063 1.356 . S
C1060 O1116 1.325 . S
N1061 C1064 1.314 . S
N1061 C1065 1.279 . S
C1062 C1060 1.346 . S
C1062 C1064 1.354 1_545 S
C1062 H1120 0.930 . S
C1063 C1060 1.356 . S
C1063 C1065 1.358 1_545 S
C1063 H1121 0.930 . S
C1064 N1061 1.314 . S
C1064 C1062 1.354 1_565 S
C1064 H1122 0.930 . S
C1065 N1061 1.279 . S
C1065 C1063 1.358 1_565 S
C1065 H1123 0.930 . S
C1066 C1069 1.353 1_545 S
C1066 C1070 1.356 . S
C1066 O1117 1.325 . S
C1067 N1068 1.279 . S
C1067 C1070 1.358 . S
C1067 H1124 0.930 . S
N1068 C1067 1.279 . S
N1068 C1071 1.314 1_545 S
C1069 C1066 1.353 1_565 S
C1069 C1071 1.349 . S
C1069 H1125 0.927 . S
C1070 C1066 1.356 . S
C1070 C1067 1.358 . S
C1070 H1126 0.930 . S
C1071 N1068 1.314 1_565 S
C1071 C1069 1.349 . S
C1071 H1127 0.930 . S
C1072 N1073 1.314 . S
C1072 C1077 1.353 . S
C1072 H1078 0.930 . S
N1073 Li1056 1.990 1_565 S
N1073 C1072 1.314 . S
N1073 C1075 1.279 . S
C1074 C1075 1.358 . S
C1074 C1076 1.356 . S
C1074 H1128 0.930 . S
C1075 N1073 1.279 . S
C1075 C1074 1.358 . S
C1075 H1079 0.930 . S
C1076 C1074 1.356 . S
C1076 C1077 1.348 . S
C1077 C1072 1.353 . S
C1077 C1076 1.348 . S
C1077 H1129 0.929 . S
H1078 C1072 0.930 . S
H1079 C1075 0.930 . S
C1080 N1081 1.314 . S
C1080 C1082 1.353 . S
C1080 H1086 0.930 . S
N1081 Li1057 1.990 . S
N1081 C1080 1.314 . S
N1081 C1084 1.279 . S
C1082 C1080 1.353 . S
C1082 C1085 1.348 . S
C1082 H1130 0.929 . S
C1083 C1084 1.358 . S
C1083 C1085 1.356 . S
C1083 H1131 0.930 . S
C1084 N1081 1.279 . S
C1084 C1083 1.358 . S
C1084 H1087 0.930 . S
C1085 C1082 1.348 . S
C1085 C1083 1.356 . S
H1086 C1080 0.930 . S
H1087 C1084 0.930 . S
C1088 C1090 1.348 . S
C1088 C1091 1.356 . S
C1088 O1118 1.325 . S
N1089 C1092 1.314 . S
N1089 C1093 1.279 . S
C1090 C1088 1.348 . S
C1090 C1092 1.353 . S
C1090 H1132 0.929 . S
C1091 C1088 1.356 . S
C1091 C1093 1.358 . S
C1091 H1133 0.930 . S
C1092 N1089 1.314 . S
C1092 C1090 1.353 . S
C1092 H1134 0.930 . S
C1093 N1089 1.279 . S
C1093 C1091 1.358 . S
C1093 H1135 0.930 . S
C1094 C1095 1.348 . S
C1094 C1096 1.356 . S
C1094 O1119 1.325 . S
C1095 C1094 1.348 . S
C1095 C1097 1.353 . S
C1095 H1136 0.929 . S
C1096 C1094 1.356 . S
C1096 C1098 1.358 . S
C1096 H1137 0.930 . S
C1097 C1095 1.353 . S
C1097 N1099 1.314 . S
C1097 H1138 0.930 . S
C1098 C1096 1.358 . S
C1098 N1099 1.279 . S
C1098 H1139 0.930 . S
N1099 C1097 1.314 . S
N1099 C1098 1.279 . S
C1100 C1102 1.353 . S
C1100 N1103 1.314 . S
C1100 H1106 0.930 . S
C1101 N1103 1.279 . S
C1101 C1104 1.358 . S
C1101 H1107 0.930 . S
C1102 C1100 1.353 . S
C1102 C1105 1.348 . S
C1102 H1140 0.929 . S
N1103 Li1058 1.990 . S
N1103 C1100 1.314 . S
N1103 C1101 1.279 . S
C1104 C1101 1.358 . S
C1104 C1105 1.356 . S
C1104 H1141 0.930 . S
C1105 C1102 1.348 . S
C1105 C1104 1.356 . S
H1106 C1100 0.930 . S
H1107 C1101 0.930 . S
C1108 N1109 1.314 . S
C1108 C1110 1.353 . S
C1108 H1114 0.930 . S
N1109 Li1059 1.990 . S
N1109 C1108 1.314 . S
N1109 C1112 1.279 . S
C1110 C1108 1.353 . S
C1110 C1113 1.348 . S
C1110 H1142 0.929 . S
C1111 C1112 1.358 . S
C1111 C1113 1.356 . S
C1111 H1143 0.930 . S
C1112 N1109 1.279 . S
C1112 C1111 1.358 . S
C1112 H1115 0.930 . S
C1113 C1110 1.348 . S
C1113 C1111 1.356 . S
H1114 C1108 0.930 . S
H1115 C1112 0.930 . S
O1116 Li1056 1.956 . S
O1116 Li1057 1.970 . S
O1116 Li1058 1.961 . S
O1116 C1060 1.325 . S
O1117 Li1056 1.970 . S
O1117 Li1057 1.956 . S
O1117 Li1059 1.961 . S
O1117 C1066 1.325 . S
O1118 Li1056 1.961 . S
O1118 Li1058 1.956 . S
O1118 Li1059 1.970 . S
O1118 C1088 1.325 . S
O1119 Li1057 1.961 . S
O1119 Li1058 1.970 . S
O1119 Li1059 1.956 . S
O1119 C1094 1.325 . S
H1120 C1062 0.930 . S
H1121 C1063 0.930 . S
H1122 C1064 0.930 . S
H1123 C1065 0.930 . S
H1124 C1067 0.930 . S
H1125 C1069 0.927 . S
H1126 C1070 0.930 . S
H1127 C1071 0.930 . S
H1128 C1074 0.930 . S
H1129 C1077 0.929 . S
H1130 C1082 0.929 . S
H1131 C1083 0.930 . S
H1132 C1090 0.929 . S
H1133 C1091 0.930 . S
H1134 C1092 0.930 . S
H1135 C1093 0.930 . S
H1136 C1095 0.929 . S
H1137 C1096 0.930 . S
H1138 C1097 0.930 . S
H1139 C1098 0.930 . S
H1140 C1102 0.929 . S
H1141 C1104 0.930 . S
H1142 C1110 0.929 . S
H1143 C1111 0.930 . S
Li1144 N1161 1.990 1_655 S
Li1144 O1204 1.956 . S
Li1144 O1205 1.970 . S
Li1144 O1206 1.961 . S
Li1145 N1169 1.990 . S
Li1145 O1204 1.970 . S
Li1145 O1205 1.956 . S
Li1145 O1207 1.961 . S
Li1146 N1191 1.990 . S
Li1146 O1204 1.961 . S
Li1146 O1206 1.956 . S
Li1146 O1207 1.970 . S
Li1147 N1197 1.990 . S
Li1147 O1205 1.961 . S
Li1147 O1206 1.970 . S
Li1147 O1207 1.956 . S
C1148 C1150 1.349 1_655 S
C1148 C1151 1.356 . S
C1148 O1204 1.325 . S
N1149 C1152 1.314 . S
N1149 C1153 1.279 . S
C1150 C1148 1.349 1_455 S
C1150 C1152 1.375 . S
C1150 H1208 0.908 1_455 S
C1151 C1148 1.356 . S
C1151 C1153 1.358 1_655 S
C1151 H1209 0.930 . S
C1152 N1149 1.314 . S
C1152 C1150 1.375 . S
C1152 H1210 0.930 . S
C1153 N1149 1.279 . S
C1153 C1151 1.358 1_455 S
C1153 H1211 0.930 . S
C1154 C1157 1.324 1_655 S
C1154 C1158 1.356 . S
C1154 O1205 1.325 . S
C1155 N1156 1.279 . S
C1155 C1158 1.358 . S
C1155 H1212 0.930 . S
N1156 C1155 1.279 . S
N1156 C1159 1.314 1_655 S
C1157 C1154 1.324 1_455 S
C1157 C1159 1.353 . S
C1157 H1213 0.953 . S
C1158 C1154 1.356 . S
C1158 C1155 1.358 . S
C1158 H1214 0.930 . S
C1159 N1156 1.314 1_455 S
C1159 C1157 1.353 . S
C1159 H1215 0.930 . S
C1160 N1161 1.314 . S
C1160 C1165 1.353 . S
C1160 H1166 0.930 . S
N1161 Li1144 1.990 1_455 S
N1161 C1160 1.314 . S
N1161 C1163 1.279 . S
C1162 C1163 1.358 . S
C1162 C1164 1.356 . S
C1162 H1216 0.930 . S
C1163 N1161 1.279 . S
C1163 C1162 1.358 . S
C1163 H1167 0.930 . S
C1164 C1162 1.356 . S
C1164 C1165 1.348 . S
C1165 C1160 1.353 . S
C1165 C1164 1.348 . S
C1165 H1217 0.929 . S
H1166 C1160 0.930 . S
H1167 C1163 0.930 . S
C1168 N1169 1.314 . S
C1168 C1170 1.353 . S
C1168 H1174 0.930 . S
N1169 Li1145 1.990 . S
N1169 C1168 1.314 . S
N1169 C1172 1.279 . S
C1170 C1168 1.353 . S
C1170 C1173 1.348 . S
C1170 H1218 0.929 . S
C1171 C1172 1.358 . S
C1171 C1173 1.356 . S
C1171 H1219 0.930 . S
C1172 N1169 1.279 . S
C1172 C1171 1.358 . S
C1172 H1175 0.930 . S
C1173 C1170 1.348 . S
C1173 C1171 1.356 . S
H1174 C1168 0.930 . S
H1175 C1172 0.930 . S
C1176 C1178 1.348 . S
C1176 C1179 1.356 . S
C1176 O1206 1.325 . S
N1177 C1180 1.314 . S
N1177 C1181 1.279 . S
C1178 C1176 1.348 . S
C1178 C1180 1.353 . S
C1178 H1220 0.929 . S
C1179 C1176 1.356 . S
C1179 C1181 1.358 . S
C1179 H1221 0.930 . S
C1180 N1177 1.314 . S
C1180 C1178 1.353 . S
C1180 H1222 0.930 . S
C1181 N1177 1.279 . S
C1181 C1179 1.358 . S
C1181 H1223 0.930 . S
C1182 C1183 1.348 . S
C1182 C1184 1.356 . S
C1182 O1207 1.325 . S
C1183 C1182 1.348 . S
C1183 C1185 1.353 . S
C1183 H1224 0.929 . S
C1184 C1182 1.356 . S
C1184 C1186 1.358 . S
C1184 H1225 0.930 . S
C1185 C1183 1.353 . S
C1185 N1187 1.314 . S
C1185 H1226 0.930 . S
C1186 C1184 1.358 . S
C1186 N1187 1.279 . S
C1186 H1227 0.930 . S
N1187 C1185 1.314 . S
N1187 C1186 1.279 . S
C1188 C1190 1.353 . S
C1188 N1191 1.314 . S
C1188 H1194 0.930 . S
C1189 N1191 1.279 . S
C1189 C1192 1.358 . S
C1189 H1195 0.930 . S
C1190 C1188 1.353 . S
C1190 C1193 1.348 . S
C1190 H1228 0.929 . S
N1191 Li1146 1.990 . S
N1191 C1188 1.314 . S
N1191 C1189 1.279 . S
C1192 C1189 1.358 . S
C1192 C1193 1.356 . S
C1192 H1229 0.930 . S
C1193 C1190 1.348 . S
C1193 C1192 1.356 . S
H1194 C1188 0.930 . S
H1195 C1189 0.930 . S
C1196 N1197 1.314 . S
C1196 C1198 1.353 . S
C1196 H1202 0.930 . S
N1197 Li1147 1.990 . S
N1197 C1196 1.314 . S
N1197 C1200 1.279 . S
C1198 C1196 1.353 . S
C1198 C1201 1.348 . S
C1198 H1230 0.929 . S
C1199 C1200 1.358 . S
C1199 C1201 1.356 . S
C1199 H1231 0.930 . S
C1200 N1197 1.279 . S
C1200 C1199 1.358 . S
C1200 H1203 0.930 . S
C1201 C1198 1.348 . S
C1201 C1199 1.356 . S
H1202 C1196 0.930 . S
H1203 C1200 0.930 . S
O1204 Li1144 1.956 . S
O1204 Li1145 1.970 . S
O1204 Li1146 1.961 . S
O1204 C1148 1.325 . S
O1205 Li1144 1.970 . S
O1205 Li1145 1.956 . S
O1205 Li1147 1.961 . S
O1205 C1154 1.325 . S
O1206 Li1144 1.961 . S
O1206 Li1146 1.956 . S
O1206 Li1147 1.970 . S
O1206 C1176 1.325 . S
O1207 Li1145 1.961 . S
O1207 Li1146 1.970 . S
O1207 Li1147 1.956 . S
O1207 C1182 1.325 . S
H1208 C1150 0.908 1_655 S
H1209 C1151 0.930 . S
H1210 C1152 0.930 . S
H1211 C1153 0.930 . S
H1212 C1155 0.930 . S
H1213 C1157 0.953 . S
H1214 C1158 0.930 . S
H1215 C1159 0.930 . S
H1216 C1162 0.930 . S
H1217 C1165 0.929 . S
H1218 C1170 0.929 . S
H1219 C1171 0.930 . S
H1220 C1178 0.929 . S
H1221 C1179 0.930 . S
H1222 C1180 0.930 . S
H1223 C1181 0.930 . S
H1224 C1183 0.929 . S
H1225 C1184 0.930 . S
H1226 C1185 0.930 . S
H1227 C1186 0.930 . S
H1228 C1190 0.929 . S
H1229 C1192 0.930 . S
H1230 C1198 0.929 . S
H1231 C1199 0.930 . S
Li1232 N1249 1.990 . S
Li1232 O1292 1.956 . S
Li1232 O1293 1.970 . S
Li1232 O1294 1.961 . S
Li1233 N1257 1.990 . S
Li1233 O1292 1.970 . S
Li1233 O1293 1.956 . S
Li1233 O1295 1.961 . S
Li1234 N1279 1.990 . S
Li1234 O1292 1.961 . S
Li1234 O1294 1.956 . S
Li1234 O1295 1.970 . S
Li1235 N1285 1.990 . S
Li1235 O1293 1.961 . S
Li1235 O1294 1.970 . S
Li1235 O1295 1.956 . S
C1236 C1238 1.348 . S
C1236 C1239 1.356 . S
C1236 O1292 1.325 . S
N1237 C1240 1.314 . S
N1237 C1241 1.279 . S
C1238 C1236 1.348 . S
C1238 C1240 1.353 . S
C1238 H1296 0.929 . S
C1239 C1236 1.356 . S
C1239 C1241 1.358 . S
C1239 H1297 0.930 . S
C1240 N1237 1.314 . S
C1240 C1238 1.353 . S
C1240 H1298 0.930 . S
C1241 N1237 1.279 . S
C1241 C1239 1.358 . S
C1241 H1299 0.930 . S
C1242 C1245 1.348 . S
C1242 C1246 1.356 . S
C1242 O1293 1.325 . S
C1243 N1244 1.279 . S
C1243 C1246 1.358 . S
C1243 H1300 0.930 . S
N1244 C1243 1.279 . S
N1244 C1247 1.314 . S
C1245 C1242 1.348 . S
C1245 C1247 1.353 . S
C1245 H1301 0.929 . S
C1246 C1242 1.356 . S
C1246 C1243 1.358 . S
C1246 H1302 0.930 . S
C1247 N1244 1.314 . S
C1247 C1245 1.353 . S
C1247 H1303 0.930 . S
C1248 N1249 1.314 . S
C1248 C1253 1.353 . S
C1248 H1254 0.930 . S
N1249 Li1232 1.990 . S
N1249 C1248 1.314 . S
N1249 C1251 1.279 . S
C1250 C1251 1.358 . S
C1250 C1252 1.356 . S
C1250 H1304 0.930 . S
C1251 N1249 1.279 . S
C1251 C1250 1.358 . S
C1251 H1255 0.930 . S
C1252 C1250 1.356 . S
C1252 C1253 1.348 . S
C1253 C1248 1.353 . S
C1253 C1252 1.348 . S
C1253 H1305 0.929 . S
H1254 C1248 0.930 . S
H1255 C1251 0.930 . S
C1256 N1257 1.314 . S
C1256 C1258 1.353 . S
C1256 H1262 0.930 . S
N1257 Li1233 1.990 . S
N1257 C1256 1.314 . S
N1257 C1260 1.279 . S
C1258 C1256 1.353 . S
C1258 C1261 1.348 . S
C1258 H1306 0.929 . S
C1259 C1260 1.358 . S
C1259 C1261 1.356 . S
C1259 H1307 0.930 . S
C1260 N1257 1.279 . S
C1260 C1259 1.358 . S
C1260 H1263 0.930 . S
C1261 C1258 1.348 . S
C1261 C1259 1.356 . S
H1262 C1256 0.930 . S
H1263 C1260 0.930 . S
C1264 C1266 1.348 . S
C1264 C1267 1.356 . S
C1264 O1294 1.325 . S
N1265 C1268 1.314 . S
N1265 C1269 1.279 . S
C1266 C1264 1.348 . S
C1266 C1268 1.353 . S
C1266 H1308 0.929 . S
C1267 C1264 1.356 . S
C1267 C1269 1.358 . S
C1267 H1309 0.930 . S
C1268 N1265 1.314 . S
C1268 C1266 1.353 . S
C1268 H1310 0.930 . S
C1269 N1265 1.279 . S
C1269 C1267 1.358 . S
C1269 H1311 0.930 . S
C1270 C1271 1.348 . S
C1270 C1272 1.356 . S
C1270 O1295 1.325 . S
C1271 C1270 1.348 . S
C1271 C1273 1.353 . S
C1271 H1312 0.929 . S
C1272 C1270 1.356 . S
C1272 C1274 1.358 . S
C1272 H1313 0.930 . S
C1273 C1271 1.353 . S
C1273 N1275 1.314 . S
C1273 H1314 0.930 . S
C1274 C1272 1.358 . S
C1274 N1275 1.279 . S
C1274 H1315 0.930 . S
N1275 C1273 1.314 . S
N1275 C1274 1.279 . S
C1276 C1278 1.353 . S
C1276 N1279 1.314 . S
C1276 H1282 0.930 . S
C1277 N1279 1.279 . S
C1277 C1280 1.358 . S
C1277 H1283 0.930 . S
C1278 C1276 1.353 . S
C1278 C1281 1.348 . S
C1278 H1316 0.929 . S
N1279 Li1234 1.990 . S
N1279 C1276 1.314 . S
N1279 C1277 1.279 . S
C1280 C1277 1.358 . S
C1280 C1281 1.356 . S
C1280 H1317 0.930 . S
C1281 C1278 1.348 . S
C1281 C1280 1.356 . S
H1282 C1276 0.930 . S
H1283 C1277 0.930 . S
C1284 N1285 1.314 . S
C1284 C1286 1.353 . S
C1284 H1290 0.930 . S
N1285 Li1235 1.990 . S
N1285 C1284 1.314 . S
N1285 C1288 1.279 . S
C1286 C1284 1.353 . S
C1286 C1289 1.348 . S
C1286 H1318 0.929 . S
C1287 C1288 1.358 . S
C1287 C1289 1.356 . S
C1287 H1319 0.930 . S
C1288 N1285 1.279 . S
C1288 C1287 1.358 . S
C1288 H1291 0.930 . S
C1289 C1286 1.348 . S
C1289 C1287 1.356 . S
H1290 C1284 0.930 . S
H1291 C1288 0.930 . S
O1292 Li1232 1.956 . S
O1292 Li1233 1.970 . S
O1292 Li1234 1.961 . S
O1292 C1236 1.325 . S
O1293 Li1232 1.970 . S
O1293 Li1233 1.956 . S
O1293 Li1235 1.961 . S
O1293 C1242 1.325 . S
O1294 Li1232 1.961 . S
O1294 Li1234 1.956 . S
O1294 Li1235 1.970 . S
O1294 C1264 1.325 . S
O1295 Li1233 1.961 . S
O1295 Li1234 1.970 . S
O1295 Li1235 1.956 . S
O1295 C1270 1.325 . S
H1296 C1238 0.929 . S
H1297 C1239 0.930 . S
H1298 C1240 0.930 . S
H1299 C1241 0.930 . S
H1300 C1243 0.930 . S
H1301 C1245 0.929 . S
H1302 C1246 0.930 . S
H1303 C1247 0.930 . S
H1304 C1250 0.930 . S
H1305 C1253 0.929 . S
H1306 C1258 0.929 . S
H1307 C1259 0.930 . S
H1308 C1266 0.929 . S
H1309 C1267 0.930 . S
H1310 C1268 0.930 . S
H1311 C1269 0.930 . S
H1312 C1271 0.929 . S
H1313 C1272 0.930 . S
H1314 C1273 0.930 . S
H1315 C1274 0.930 . S
H1316 C1278 0.929 . S
H1317 C1280 0.930 . S
H1318 C1286 0.929 . S
H1319 C1287 0.930 . S
Li1320 N1337 1.990 . S
Li1320 O1380 1.956 . S
Li1320 O1381 1.970 . S
Li1320 O1382 1.961 . S
Li1321 N1345 1.990 . S
Li1321 O1380 1.970 . S
Li1321 O1381 1.956 . S
Li1321 O1383 1.961 . S
Li1322 N1367 1.990 . S
Li1322 O1380 1.961 . S
Li1322 O1382 1.956 . S
Li1322 O1383 1.970 . S
Li1323 N1373 1.990 . S
Li1323 O1381 1.961 . S
Li1323 O1382 1.970 . S
Li1323 O1383 1.956 . S
C1324 C1326 1.348 . S
C1324 C1327 1.356 . S
C1324 O1380 1.325 . S
N1325 C1328 1.314 . S
N1325 C1329 1.279 . S
C1326 C1324 1.348 . S
C1326 C1328 1.353 . S
C1326 H1384 0.929 . S
C1327 C1324 1.356 . S
C1327 C1329 1.358 . S
C1327 H1385 0.930 . S
C1328 N1325 1.314 . S
C1328 C1326 1.353 . S
C1328 H1386 0.930 . S
C1329 N1325 1.279 . S
C1329 C1327 1.358 . S
C1329 H1387 0.930 . S
C1330 C1333 1.348 . S
C1330 C1334 1.356 . S
C1330 O1381 1.325 . S
C1331 N1332 1.279 . S
C1331 C1334 1.358 . S
C1331 H1388 0.930 . S
N1332 C1331 1.279 . S
N1332 C1335 1.314 . S
C1333 C1330 1.348 . S
C1333 C1335 1.353 . S
C1333 H1389 0.929 . S
C1334 C1330 1.356 . S
C1334 C1331 1.358 . S
C1334 H1390 0.930 . S
C1335 N1332 1.314 . S
C1335 C1333 1.353 . S
C1335 H1391 0.930 . S
C1336 N1337 1.314 . S
C1336 C1341 1.353 . S
C1336 H1342 0.930 . S
N1337 Li1320 1.990 . S
N1337 C1336 1.314 . S
N1337 C1339 1.279 . S
C1338 C1339 1.358 . S
C1338 C1340 1.356 . S
C1338 H1392 0.930 . S
C1339 N1337 1.279 . S
C1339 C1338 1.358 . S
C1339 H1343 0.930 . S
C1340 C1338 1.356 . S
C1340 C1341 1.348 . S
C1341 C1336 1.353 . S
C1341 C1340 1.348 . S
C1341 H1393 0.929 . S
H1342 C1336 0.930 . S
H1343 C1339 0.930 . S
C1344 N1345 1.314 . S
C1344 C1346 1.353 . S
C1344 H1350 0.930 . S
N1345 Li1321 1.990 . S
N1345 C1344 1.314 . S
N1345 C1348 1.279 . S
C1346 C1344 1.353 . S
C1346 C1349 1.348 . S
C1346 H1394 0.929 . S
C1347 C1348 1.358 . S
C1347 C1349 1.356 . S
C1347 H1395 0.930 . S
C1348 N1345 1.279 . S
C1348 C1347 1.358 . S
C1348 H1351 0.930 . S
C1349 C1346 1.348 . S
C1349 C1347 1.356 . S
H1350 C1344 0.930 . S
H1351 C1348 0.930 . S
C1352 C1354 1.348 . S
C1352 C1355 1.356 . S
C1352 O1382 1.325 . S
N1353 C1356 1.314 . S
N1353 C1357 1.279 . S
C1354 C1352 1.348 . S
C1354 C1356 1.353 . S
C1354 H1396 0.929 . S
C1355 C1352 1.356 . S
C1355 C1357 1.358 . S
C1355 H1397 0.930 . S
C1356 N1353 1.314 . S
C1356 C1354 1.353 . S
C1356 H1398 0.930 . S
C1357 N1353 1.279 . S
C1357 C1355 1.358 . S
C1357 H1399 0.930 . S
C1358 C1359 1.348 . S
C1358 C1360 1.356 . S
C1358 O1383 1.325 . S
C1359 C1358 1.348 . S
C1359 C1361 1.353 . S
C1359 H1400 0.929 . S
C1360 C1358 1.356 . S
C1360 C1362 1.358 . S
C1360 H1401 0.930 . S
C1361 C1359 1.353 . S
C1361 N1363 1.314 . S
C1361 H1402 0.930 . S
C1362 C1360 1.358 . S
C1362 N1363 1.279 . S
C1362 H1403 0.930 . S
N1363 C1361 1.314 . S
N1363 C1362 1.279 . S
C1364 C1366 1.353 . S
C1364 N1367 1.314 . S
C1364 H1370 0.930 . S
C1365 N1367 1.279 . S
C1365 C1368 1.358 . S
C1365 H1371 0.930 . S
C1366 C1364 1.353 . S
C1366 C1369 1.348 . S
C1366 H1404 0.929 . S
N1367 Li1322 1.990 . S
N1367 C1364 1.314 . S
N1367 C1365 1.279 . S
C1368 C1365 1.358 . S
C1368 C1369 1.356 . S
C1368 H1405 0.930 . S
C1369 C1366 1.348 . S
C1369 C1368 1.356 . S
H1370 C1364 0.930 . S
H1371 C1365 0.930 . S
C1372 N1373 1.314 . S
C1372 C1374 1.353 . S
C1372 H1378 0.930 . S
N1373 Li1323 1.990 . S
N1373 C1372 1.314 . S
N1373 C1376 1.279 . S
C1374 C1372 1.353 . S
C1374 C1377 1.348 . S
C1374 H1406 0.929 . S
C1375 C1376 1.358 . S
C1375 C1377 1.356 . S
C1375 H1407 0.930 . S
C1376 N1373 1.279 . S
C1376 C1375 1.358 . S
C1376 H1379 0.930 . S
C1377 C1374 1.348 . S
C1377 C1375 1.356 . S
H1378 C1372 0.930 . S
H1379 C1376 0.930 . S
O1380 Li1320 1.956 . S
O1380 Li1321 1.970 . S
O1380 Li1322 1.961 . S
O1380 C1324 1.325 . S
O1381 Li1320 1.970 . S
O1381 Li1321 1.956 . S
O1381 Li1323 1.961 . S
O1381 C1330 1.325 . S
O1382 Li1320 1.961 . S
O1382 Li1322 1.956 . S
O1382 Li1323 1.970 . S
O1382 C1352 1.325 . S
O1383 Li1321 1.961 . S
O1383 Li1322 1.970 . S
O1383 Li1323 1.956 . S
O1383 C1358 1.325 . S
H1384 C1326 0.929 . S
H1385 C1327 0.930 . S
H1386 C1328 0.930 . S
H1387 C1329 0.930 . S
H1388 C1331 0.930 . S
H1389 C1333 0.929 . S
H1390 C1334 0.930 . S
H1391 C1335 0.930 . S
H1392 C1338 0.930 . S
H1393 C1341 0.929 . S
H1394 C1346 0.929 . S
H1395 C1347 0.930 . S
H1396 C1354 0.929 . S
H1397 C1355 0.930 . S
H1398 C1356 0.930 . S
H1399 C1357 0.930 . S
H1400 C1359 0.929 . S
H1401 C1360 0.930 . S
H1402 C1361 0.930 . S
H1403 C1362 0.930 . S
H1404 C1366 0.929 . S
H1405 C1368 0.930 . S
H1406 C1374 0.929 . S
H1407 C1375 0.930 . S
Li1408 N1425 1.990 . S
Li1408 O1468 1.956 . S
Li1408 O1469 1.970 . S
Li1408 O1470 1.961 . S
Li1409 N1433 1.990 . S
Li1409 O1468 1.970 . S
Li1409 O1469 1.956 . S
Li1409 O1471 1.961 . S
Li1410 N1455 1.990 . S
Li1410 O1468 1.961 . S
Li1410 O1470 1.956 . S
Li1410 O1471 1.970 . S
Li1411 N1461 1.990 1_545 S
Li1411 O1469 1.961 . S
Li1411 O1470 1.970 . S
Li1411 O1471 1.956 . S
C1412 C1414 1.348 . S
C1412 C1415 1.356 . S
C1412 O1468 1.325 . S
N1413 C1416 1.314 . S
N1413 C1417 1.279 . S
C1414 C1412 1.348 . S
C1414 C1416 1.353 . S
C1414 H1472 0.929 . S
C1415 C1412 1.356 . S
C1415 C1417 1.358 . S
C1415 H1473 0.930 . S
C1416 N1413 1.314 . S
C1416 C1414 1.353 . S
C1416 H1474 0.930 . S
C1417 N1413 1.279 . S
C1417 C1415 1.358 . S
C1417 H1475 0.930 . S
C1418 C1421 1.348 . S
C1418 C1422 1.356 1_545 S
C1418 O1469 1.325 . S
C1419 N1420 1.279 . S
C1419 C1422 1.358 . S
C1419 H1476 0.930 . S
N1420 C1419 1.279 . S
N1420 C1423 1.314 . S
C1421 C1418 1.348 . S
C1421 C1423 1.353 1_545 S
C1421 H1477 0.929 . S
C1422 C1418 1.356 1_565 S
C1422 C1419 1.358 . S
C1422 H1478 0.930 . S
C1423 N1420 1.314 . S
C1423 C1421 1.353 1_565 S
C1423 H1479 0.930 . S
C1424 N1425 1.314 . S
C1424 C1429 1.353 . S
C1424 H1430 0.930 . S
N1425 Li1408 1.990 . S
N1425 C1424 1.314 . S
N1425 C1427 1.279 . S
C1426 C1427 1.358 . S
C1426 C1428 1.356 . S
C1426 H1480 0.930 . S
C1427 N1425 1.279 . S
C1427 C1426 1.358 . S
C1427 H1431 0.930 . S
C1428 C1426 1.356 . S
C1428 C1429 1.348 . S
C1429 C1424 1.353 . S
C1429 C1428 1.348 . S
C1429 H1481 0.929 . S
H1430 C1424 0.930 . S
H1431 C1427 0.930 . S
C1432 N1433 1.314 . S
C1432 C1434 1.353 . S
C1432 H1438 0.930 . S
N1433 Li1409 1.990 . S
N1433 C1432 1.314 . S
N1433 C1436 1.279 . S
C1434 C1432 1.353 . S
C1434 C1437 1.348 . S
C1434 H1482 0.929 . S
C1435 C1436 1.358 . S
C1435 C1437 1.356 . S
C1435 H1483 0.930 . S
C1436 N1433 1.279 . S
C1436 C1435 1.358 . S
C1436 H1439 0.930 . S
C1437 C1434 1.348 . S
C1437 C1435 1.356 . S
H1438 C1432 0.930 . S
H1439 C1436 0.930 . S
C1440 C1442 1.348 . S
C1440 C1443 1.356 . S
C1440 O1470 1.325 . S
N1441 C1444 1.314 1_545 S
N1441 C1445 1.279 . S
C1442 C1440 1.348 . S
C1442 C1444 1.353 1_545 S
C1442 H1484 0.867 1_545 S
C1443 C1440 1.356 . S
C1443 C1445 1.358 . S
C1443 H1485 0.930 . S
C1444 N1441 1.314 1_565 S
C1444 C1442 1.353 1_565 S
C1444 H1486 0.930 . S
C1445 N1441 1.279 . S
C1445 C1443 1.358 . S
C1445 H1487 0.930 . S
C1446 C1447 1.348 . S
C1446 C1448 1.356 . S
C1446 O1471 1.325 . S
C1447 C1446 1.348 . S
C1447 C1449 1.353 . S
C1447 H1488 0.929 . S
C1448 C1446 1.356 . S
C1448 C1450 1.358 . S
C1448 H1489 0.930 . S
C1449 C1447 1.353 . S
C1449 N1451 1.314 . S
C1449 H1490 0.930 . S
C1450 C1448 1.358 . S
C1450 N1451 1.279 . S
C1450 H1491 0.930 . S
N1451 C1449 1.314 . S
N1451 C1450 1.279 . S
C1452 C1454 1.353 . S
C1452 N1455 1.314 . S
C1452 H1458 0.930 . S
C1453 N1455 1.279 . S
C1453 C1456 1.358 . S
C1453 H1459 0.930 . S
C1454 C1452 1.353 . S
C1454 C1457 1.348 . S
C1454 H1492 0.929 . S
N1455 Li1410 1.990 . S
N1455 C1452 1.314 . S
N1455 C1453 1.279 . S
C1456 C1453 1.358 . S
C1456 C1457 1.356 . S
C1456 H1493 0.930 . S
C1457 C1454 1.348 . S
C1457 C1456 1.356 . S
H1458 C1452 0.930 . S
H1459 C1453 0.930 . S
C1460 N1461 1.314 . S
C1460 C1462 1.353 . S
C1460 H1466 0.930 . S
N1461 Li1411 1.990 1_565 S
N1461 C1460 1.314 . S
N1461 C1464 1.279 . S
C1462 C1460 1.353 . S
C1462 C1465 1.348 . S
C1462 H1494 0.929 . S
C1463 C1464 1.358 . S
C1463 C1465 1.356 . S
C1463 H1495 0.930 . S
C1464 N1461 1.279 . S
C1464 C1463 1.358 . S
C1464 H1467 0.930 . S
C1465 C1462 1.348 . S
C1465 C1463 1.356 . S
H1466 C1460 0.930 . S
H1467 C1464 0.930 . S
O1468 Li1408 1.956 . S
O1468 Li1409 1.970 . S
O1468 Li1410 1.961 . S
O1468 C1412 1.325 . S
O1469 Li1408 1.970 . S
O1469 Li1409 1.956 . S
O1469 Li1411 1.961 . S
O1469 C1418 1.325 . S
O1470 Li1408 1.961 . S
O1470 Li1410 1.956 . S
O1470 Li1411 1.970 . S
O1470 C1440 1.325 . S
O1471 Li1409 1.961 . S
O1471 Li1410 1.970 . S
O1471 Li1411 1.956 . S
O1471 C1446 1.325 . S
H1472 C1414 0.929 . S
H1473 C1415 0.930 . S
H1474 C1416 0.930 . S
H1475 C1417 0.930 . S
H1476 C1419 0.930 . S
H1477 C1421 0.929 . S
H1478 C1422 0.930 . S
H1479 C1423 0.930 . S
H1480 C1426 0.930 . S
H1481 C1429 0.929 . S
H1482 C1434 0.929 . S
H1483 C1435 0.930 . S
H1484 C1442 0.867 1_565 S
H1485 C1443 0.930 . S
H1486 C1444 0.930 . S
H1487 C1445 0.930 . S
H1488 C1447 0.929 . S
H1489 C1448 0.930 . S
H1490 C1449 0.930 . S
H1491 C1450 0.930 . S
H1492 C1454 0.929 . S
H1493 C1456 0.930 . S
H1494 C1462 0.929 . S
H1495 C1463 0.930 . S
Li1496 N1513 1.990 . S
Li1496 O1556 1.956 . S
Li1496 O1557 1.970 . S
Li1496 O1558 1.961 . S
Li1497 N1521 1.990 . S
Li1497 O1556 1.970 . S
Li1497 O1557 1.956 . S
Li1497 O1559 1.961 . S
Li1498 N1543 1.990 1_655 S
Li1498 O1556 1.961 . S
Li1498 O1558 1.956 . S
Li1498 O1559 1.970 . S
Li1499 N1549 1.990 . S
Li1499 O1557 1.961 . S
Li1499 O1558 1.970 . S
Li1499 O1559 1.956 . S
C1500 C1502 1.348 . S
C1500 C1503 1.356 1_655 S
C1500 O1556 1.325 . S
N1501 C1504 1.314 . S
N1501 C1505 1.279 . S
C1502 C1500 1.348 . S
C1502 C1504 1.353 1_655 S
C1502 H1560 0.929 . S
C1503 C1500 1.356 1_455 S
C1503 C1505 1.358 . S
C1503 H1561 0.930 . S
C1504 N1501 1.314 . S
C1504 C1502 1.353 1_455 S
C1504 H1562 0.930 . S
C1505 N1501 1.279 . S
C1505 C1503 1.358 . S
C1505 H1563 0.930 . S
C1506 C1509 1.348 . S
C1506 C1510 1.356 . S
C1506 O1557 1.325 . S
C1507 N1508 1.279 . S
C1507 C1510 1.358 . S
C1507 H1564 0.930 . S
N1508 C1507 1.279 . S
N1508 C1511 1.314 . S
C1509 C1506 1.348 . S
C1509 C1511 1.353 . S
C1509 H1565 0.929 . S
C1510 C1506 1.356 . S
C1510 C1507 1.358 . S
C1510 H1566 0.930 . S
C1511 N1508 1.314 . S
C1511 C1509 1.353 . S
C1511 H1567 0.930 . S
C1512 N1513 1.314 . S
C1512 C1517 1.353 . S
C1512 H1518 0.930 . S
N1513 Li1496 1.990 . S
N1513 C1512 1.314 . S
N1513 C1515 1.279 . S
C1514 C1515 1.358 . S
C1514 C1516 1.356 . S
C1514 H1568 0.930 . S
C1515 N1513 1.279 . S
C1515 C1514 1.358 . S
C1515 H1519 0.930 . S
C1516 C1514 1.356 . S
C1516 C1517 1.348 . S
C1517 C1512 1.353 . S
C1517 C1516 1.348 . S
C1517 H1569 0.929 . S
H1518 C1512 0.930 . S
H1519 C1515 0.930 . S
C1520 N1521 1.314 . S
C1520 C1522 1.353 . S
C1520 H1526 0.930 . S
N1521 Li1497 1.990 . S
N1521 C1520 1.314 . S
N1521 C1524 1.279 . S
C1522 C1520 1.353 . S
C1522 C1525 1.348 . S
C1522 H1570 0.929 . S
C1523 C1524 1.358 . S
C1523 C1525 1.356 . S
C1523 H1571 0.930 . S
C1524 N1521 1.279 . S
C1524 C1523 1.358 . S
C1524 H1527 0.930 . S
C1525 C1522 1.348 . S
C1525 C1523 1.356 . S
H1526 C1520 0.930 . S
H1527 C1524 0.930 . S
C1528 C1530 1.348 . S
C1528 C1531 1.356 . S
C1528 O1558 1.325 . S
N1529 C1532 1.314 . S
N1529 C1533 1.279 . S
C1530 C1528 1.348 . S
C1530 C1532 1.353 . S
C1530 H1572 0.929 . S
C1531 C1528 1.356 . S
C1531 C1533 1.358 . S
C1531 H1573 0.930 . S
C1532 N1529 1.314 . S
C1532 C1530 1.353 . S
C1532 H1574 0.930 . S
C1533 N1529 1.279 . S
C1533 C1531 1.358 . S
C1533 H1575 0.930 . S
C1534 C1535 1.348 . S
C1534 C1536 1.356 . S
C1534 O1559 1.325 . S
C1535 C1534 1.348 . S
C1535 C1537 1.353 1_655 S
C1535 H1576 0.940 1_655 S
C1536 C1534 1.356 . S
C1536 C1538 1.358 . S
C1536 H1577 0.930 . S
C1537 C1535 1.353 1_455 S
C1537 N1539 1.314 1_455 S
C1537 H1578 0.930 . S
C1538 C1536 1.358 . S
C1538 N1539 1.279 . S
C1538 H1579 0.930 . S
N1539 C1537 1.314 1_655 S
N1539 C1538 1.279 . S
C1540 C1542 1.353 . S
C1540 N1543 1.314 . S
C1540 H1546 0.930 . S
C1541 N1543 1.279 . S
C1541 C1544 1.358 . S
C1541 H1547 0.930 . S
C1542 C1540 1.353 . S
C1542 C1545 1.348 . S
C1542 H1580 0.929 . S
N1543 Li1498 1.990 1_455 S
N1543 C1540 1.314 . S
N1543 C1541 1.279 . S
C1544 C1541 1.358 . S
C1544 C1545 1.356 . S
C1544 H1581 0.930 . S
C1545 C1542 1.348 . S
C1545 C1544 1.356 . S
H1546 C1540 0.930 . S
H1547 C1541 0.930 . S
C1548 N1549 1.314 . S
C1548 C1550 1.353 . S
C1548 H1554 0.930 . S
N1549 Li1499 1.990 . S
N1549 C1548 1.314 . S
N1549 C1552 1.279 . S
C1550 C1548 1.353 . S
C1550 C1553 1.348 . S
C1550 H1582 0.929 . S
C1551 C1552 1.358 . S
C1551 C1553 1.356 . S
C1551 H1583 0.930 . S
C1552 N1549 1.279 . S
C1552 C1551 1.358 . S
C1552 H1555 0.930 . S
C1553 C1550 1.348 . S
C1553 C1551 1.356 . S
H1554 C1548 0.930 . S
H1555 C1552 0.930 . S
O1556 Li1496 1.956 . S
O1556 Li1497 1.970 . S
O1556 Li1498 1.961 . S
O1556 C1500 1.325 . S
O1557 Li1496 1.970 . S
O1557 Li1497 1.956 . S
O1557 Li1499 1.961 . S
O1557 C1506 1.325 . S
O1558 Li1496 1.961 . S
O1558 Li1498 1.956 . S
O1558 Li1499 1.970 . S
O1558 C1528 1.325 . S
O1559 Li1497 1.961 . S
O1559 Li1498 1.970 . S
O1559 Li1499 1.956 . S
O1559 C1534 1.325 . S
H1560 C1502 0.929 . S
H1561 C1503 0.930 . S
H1562 C1504 0.930 . S
H1563 C1505 0.930 . S
H1564 C1507 0.930 . S
H1565 C1509 0.929 . S
H1566 C1510 0.930 . S
H1567 C1511 0.930 . S
H1568 C1514 0.930 . S
H1569 C1517 0.929 . S
H1570 C1522 0.929 . S
H1571 C1523 0.930 . S
H1572 C1530 0.929 . S
H1573 C1531 0.930 . S
H1574 C1532 0.930 . S
H1575 C1533 0.930 . S
H1576 C1535 0.940 1_455 S
H1577 C1536 0.930 . S
H1578 C1537 0.930 . S
H1579 C1538 0.930 . S
H1580 C1542 0.929 . S
H1581 C1544 0.930 . S
H1582 C1550 0.929 . S
H1583 C1551 0.930 . S
H1584 C1611 0.929 . S
N1585 C1610 1.433 . S
N1585 C1616 1.435 . S
N1585 C1622 1.423 . S
H1586 C1612 0.930 . S
H1587 C1615 0.931 . S
H1588 C1614 0.929 . S
H1589 C1617 0.930 . S
H1590 C1618 0.932 . S
H1591 C1621 0.929 . S
H1592 C1620 0.931 . S
H1593 C1623 0.929 . S
H1594 C1627 0.932 . S
H1595 C1624 0.931 . S
H1596 C1626 0.929 . S
H1597 C1629 0.929 . S
H1598 C1630 0.930 . S
H1599 C1632 0.929 . S
H1600 C1633 0.931 . S
H1601 C1635 0.930 . S
H1602 C1636 0.932 . S
H1603 C1638 0.931 . S
H1604 C1639 0.929 . S
H1605 C1641 0.929 . S
H1606 C1642 0.931 . S
H1607 C1644 0.929 . S
N1608 C1628 1.433 . S
N1608 C1634 1.435 . S
N1608 C1640 1.423 . S
H1609 C1645 0.932 . S
C1610 N1585 1.433 . S
C1610 C1611 1.363 . S
C1610 C1615 1.370 . S
C1611 H1584 0.929 . S
C1611 C1610 1.363 . S
C1611 C1612 1.385 . S
C1612 H1586 0.930 . S
C1612 C1611 1.385 . S
C1612 C1613 1.357 . S
C1613 C1612 1.357 . S
C1613 C1614 1.406 . S
C1614 H1588 0.929 . S
C1614 C1613 1.406 . S
C1614 C1615 1.391 . S
C1615 H1587 0.931 . S
C1615 C1610 1.370 . S
C1615 C1614 1.391 . S
C1616 N1585 1.435 . S
C1616 C1617 1.358 . S
C1616 C1621 1.371 . S
C1617 H1589 0.930 . S
C1617 C1616 1.358 . S
C1617 C1618 1.405 . S
C1618 H1590 0.932 . S
C1618 C1617 1.405 . S
C1618 C1619 1.383 . S
C1619 C1618 1.383 . S
C1619 C1620 1.393 . S
C1620 H1592 0.931 . S
C1620 C1619 1.393 . S
C1620 C1621 1.382 . S
C1621 H1591 0.929 . S
C1621 C1616 1.371 . S
C1621 C1620 1.382 . S
C1622 N1585 1.423 . S
C1622 C1623 1.362 . S
C1622 C1627 1.388 . S
C1623 H1593 0.929 . S
C1623 C1622 1.362 . S
C1623 C1624 1.376 . S
C1624 H1595 0.931 . S
C1624 C1623 1.376 . S
C1624 C1625 1.396 . S
C1625 C1624 1.396 . S
C1625 C1626 1.348 . S
C1625 C1643 1.472 . S
C1626 H1596 0.929 . S
C1626 C1625 1.348 . S
C1626 C1627 1.443 . S
C1627 H1594 0.932 . S
C1627 C1622 1.388 . S
C1627 C1626 1.443 . S
C1628 N1608 1.433 . S
C1628 C1629 1.363 . S
C1628 C1633 1.370 . S
C1629 H1597 0.929 . S
C1629 C1628 1.363 . S
C1629 C1630 1.385 . S
C1630 H1598 0.930 . S
C1630 C1629 1.385 . S
C1630 C1631 1.357 . S
C1631 C1630 1.357 . S
C1631 C1632 1.406 . S
C1632 H1599 0.929 . S
C1632 C1631 1.406 . S
C1632 C1633 1.391 . S
C1633 H1600 0.931 . S
C1633 C1628 1.370 . S
C1633 C1632 1.391 . S
C1634 N1608 1.435 . S
C1634 C1635 1.358 . S
C1634 C1639 1.371 . S
C1635 H1601 0.930 . S
C1635 C1634 1.358 . S
C1635 C1636 1.405 . S
C1636 H1602 0.932 . S
C1636 C1635 1.405 . S
C1636 C1637 1.383 . S
C1637 C1636 1.383 . S
C1637 C1638 1.393 . S
C1638 H1603 0.931 . S
C1638 C1637 1.393 . S
C1638 C1639 1.382 . S
C1639 H1604 0.929 . S
C1639 C1634 1.371 . S
C1639 C1638 1.382 . S
C1640 N1608 1.423 . S
C1640 C1641 1.362 . S
C1640 C1645 1.388 . S
C1641 H1605 0.929 . S
C1641 C1640 1.362 . S
C1641 C1642 1.376 . S
C1642 H1606 0.931 . S
C1642 C1641 1.376 . S
C1642 C1643 1.396 . S
C1643 C1625 1.472 . S
C1643 C1642 1.396 . S
C1643 C1644 1.348 . S
C1644 H1607 0.929 . S
C1644 C1643 1.348 . S
C1644 C1645 1.443 . S
C1645 H1609 0.932 . S
C1645 C1640 1.388 . S
C1645 C1644 1.443 . S
H1646 C1673 0.929 . S
N1647 C1672 1.433 . S
N1647 C1678 1.435 . S
N1647 C1684 1.423 . S
H1648 C1674 0.930 . S
H1649 C1677 0.931 . S
H1650 C1676 0.929 . S
H1651 C1679 0.930 . S
H1652 C1680 0.932 . S
H1653 C1683 0.929 . S
H1654 C1682 0.931 . S
H1655 C1685 0.929 . S
H1656 C1689 0.932 . S
H1657 C1686 0.931 . S
H1658 C1688 0.929 . S
H1659 C1691 0.929 . S
H1660 C1692 0.930 . S
H1661 C1694 0.929 . S
H1662 C1695 0.931 . S
H1663 C1697 0.930 . S
H1664 C1698 0.932 . S
H1665 C1700 0.931 . S
H1666 C1701 0.929 . S
H1667 C1703 0.929 . S
H1668 C1704 0.931 . S
H1669 C1706 0.929 . S
N1670 C1690 1.433 . S
N1670 C1696 1.435 . S
N1670 C1702 1.423 . S
H1671 C1707 0.932 . S
C1672 N1647 1.433 . S
C1672 C1673 1.363 . S
C1672 C1677 1.370 . S
C1673 H1646 0.929 . S
C1673 C1672 1.363 . S
C1673 C1674 1.385 . S
C1674 H1648 0.930 . S
C1674 C1673 1.385 . S
C1674 C1675 1.357 . S
C1675 C1674 1.357 . S
C1675 C1676 1.406 . S
C1676 H1650 0.929 . S
C1676 C1675 1.406 . S
C1676 C1677 1.391 . S
C1677 H1649 0.931 . S
C1677 C1672 1.370 . S
C1677 C1676 1.391 . S
C1678 N1647 1.435 . S
C1678 C1679 1.358 . S
C1678 C1683 1.371 . S
C1679 H1651 0.930 . S
C1679 C1678 1.358 . S
C1679 C1680 1.405 . S
C1680 H1652 0.932 . S
C1680 C1679 1.405 . S
C1680 C1681 1.383 . S
C1681 C1680 1.383 . S
C1681 C1682 1.393 . S
C1682 H1654 0.931 . S
C1682 C1681 1.393 . S
C1682 C1683 1.382 . S
C1683 H1653 0.929 . S
C1683 C1678 1.371 . S
C1683 C1682 1.382 . S
C1684 N1647 1.423 . S
C1684 C1685 1.362 . S
C1684 C1689 1.388 . S
C1685 H1655 0.929 . S
C1685 C1684 1.362 . S
C1685 C1686 1.376 . S
C1686 H1657 0.931 . S
C1686 C1685 1.376 . S
C1686 C1687 1.396 . S
C1687 C1686 1.396 . S
C1687 C1688 1.348 . S
C1687 C1705 1.472 . S
C1688 H1658 0.929 . S
C1688 C1687 1.348 . S
C1688 C1689 1.443 . S
C1689 H1656 0.932 . S
C1689 C1684 1.388 . S
C1689 C1688 1.443 . S
C1690 N1670 1.433 . S
C1690 C1691 1.363 . S
C1690 C1695 1.370 . S
C1691 H1659 0.929 . S
C1691 C1690 1.363 . S
C1691 C1692 1.385 . S
C1692 H1660 0.930 . S
C1692 C1691 1.385 . S
C1692 C1693 1.357 . S
C1693 C1692 1.357 . S
C1693 C1694 1.406 . S
C1694 H1661 0.929 . S
C1694 C1693 1.406 . S
C1694 C1695 1.391 . S
C1695 H1662 0.931 . S
C1695 C1690 1.370 . S
C1695 C1694 1.391 . S
C1696 N1670 1.435 . S
C1696 C1697 1.358 . S
C1696 C1701 1.371 . S
C1697 H1663 0.930 . S
C1697 C1696 1.358 . S
C1697 C1698 1.405 . S
C1698 H1664 0.932 . S
C1698 C1697 1.405 . S
C1698 C1699 1.383 . S
C1699 C1698 1.383 . S
C1699 C1700 1.393 . S
C1700 H1665 0.931 . S
C1700 C1699 1.393 . S
C1700 C1701 1.382 . S
C1701 H1666 0.929 . S
C1701 C1696 1.371 . S
C1701 C1700 1.382 . S
C1702 N1670 1.423 . S
C1702 C1703 1.362 . S
C1702 C1707 1.388 . S
C1703 H1667 0.929 . S
C1703 C1702 1.362 . S
C1703 C1704 1.376 . S
C1704 H1668 0.931 . S
C1704 C1703 1.376 . S
C1704 C1705 1.396 . S
C1705 C1687 1.472 . S
C1705 C1704 1.396 . S
C1705 C1706 1.348 . S
C1706 H1669 0.929 . S
C1706 C1705 1.348 . S
C1706 C1707 1.443 . S
C1707 H1671 0.932 . S
C1707 C1702 1.388 . S
C1707 C1706 1.443 . S
H1708 C1735 0.929 . S
N1709 C1734 1.433 . S
N1709 C1740 1.435 . S
N1709 C1746 1.423 . S
H1710 C1736 0.930 . S
H1711 C1739 0.931 . S
H1712 C1738 0.929 . S
H1713 C1741 0.930 . S
H1714 C1742 0.932 . S
H1715 C1745 0.929 . S
H1716 C1744 0.931 . S
H1717 C1747 0.929 . S
H1718 C1751 0.932 . S
H1719 C1748 0.931 . S
H1720 C1750 0.929 . S
H1721 C1753 0.929 . S
H1722 C1754 0.930 . S
H1723 C1756 0.929 . S
H1724 C1757 0.931 . S
H1725 C1759 0.930 . S
H1726 C1760 0.932 . S
H1727 C1762 0.931 . S
H1728 C1763 0.929 . S
H1729 C1765 0.929 . S
H1730 C1766 0.931 . S
H1731 C1768 0.929 . S
N1732 C1752 1.433 . S
N1732 C1758 1.435 . S
N1732 C1764 1.423 . S
H1733 C1769 0.932 . S
C1734 N1709 1.433 . S
C1734 C1735 1.363 . S
C1734 C1739 1.370 . S
C1735 H1708 0.929 . S
C1735 C1734 1.363 . S
C1735 C1736 1.385 . S
C1736 H1710 0.930 . S
C1736 C1735 1.385 . S
C1736 C1737 1.357 . S
C1737 C1736 1.357 . S
C1737 C1738 1.406 . S
C1738 H1712 0.929 . S
C1738 C1737 1.406 . S
C1738 C1739 1.391 . S
C1739 H1711 0.931 . S
C1739 C1734 1.370 . S
C1739 C1738 1.391 . S
C1740 N1709 1.435 . S
C1740 C1741 1.358 . S
C1740 C1745 1.371 . S
C1741 H1713 0.930 . S
C1741 C1740 1.358 . S
C1741 C1742 1.405 . S
C1742 H1714 0.932 . S
C1742 C1741 1.405 . S
C1742 C1743 1.383 . S
C1743 C1742 1.383 . S
C1743 C1744 1.393 . S
C1744 H1716 0.931 . S
C1744 C1743 1.393 . S
C1744 C1745 1.382 . S
C1745 H1715 0.929 . S
C1745 C1740 1.371 . S
C1745 C1744 1.382 . S
C1746 N1709 1.423 . S
C1746 C1747 1.362 . S
C1746 C1751 1.388 . S
C1747 H1717 0.929 . S
C1747 C1746 1.362 . S
C1747 C1748 1.376 . S
C1748 H1719 0.931 . S
C1748 C1747 1.376 . S
C1748 C1749 1.396 . S
C1749 C1748 1.396 . S
C1749 C1750 1.348 . S
C1749 C1767 1.472 . S
C1750 H1720 0.929 . S
C1750 C1749 1.348 . S
C1750 C1751 1.443 . S
C1751 H1718 0.932 . S
C1751 C1746 1.388 . S
C1751 C1750 1.443 . S
C1752 N1732 1.433 . S
C1752 C1753 1.363 . S
C1752 C1757 1.370 . S
C1753 H1721 0.929 . S
C1753 C1752 1.363 . S
C1753 C1754 1.385 . S
C1754 H1722 0.930 . S
C1754 C1753 1.385 . S
C1754 C1755 1.357 . S
C1755 C1754 1.357 . S
C1755 C1756 1.406 . S
C1756 H1723 0.929 . S
C1756 C1755 1.406 . S
C1756 C1757 1.391 . S
C1757 H1724 0.931 . S
C1757 C1752 1.370 . S
C1757 C1756 1.391 . S
C1758 N1732 1.435 . S
C1758 C1759 1.358 . S
C1758 C1763 1.371 . S
C1759 H1725 0.930 . S
C1759 C1758 1.358 . S
C1759 C1760 1.405 . S
C1760 H1726 0.932 . S
C1760 C1759 1.405 . S
C1760 C1761 1.383 . S
C1761 C1760 1.383 . S
C1761 C1762 1.393 . S
C1762 H1727 0.931 . S
C1762 C1761 1.393 . S
C1762 C1763 1.382 . S
C1763 H1728 0.929 . S
C1763 C1758 1.371 . S
C1763 C1762 1.382 . S
C1764 N1732 1.423 . S
C1764 C1765 1.362 . S
C1764 C1769 1.388 . S
C1765 H1729 0.929 . S
C1765 C1764 1.362 . S
C1765 C1766 1.376 . S
C1766 H1730 0.931 . S
C1766 C1765 1.376 . S
C1766 C1767 1.396 . S
C1767 C1749 1.472 . S
C1767 C1766 1.396 . S
C1767 C1768 1.348 . S
C1768 H1731 0.929 . S
C1768 C1767 1.348 . S
C1768 C1769 1.443 . S
C1769 H1733 0.932 . S
C1769 C1764 1.388 . S
C1769 C1768 1.443 . S
H1770 C1797 0.929 . S
N1771 C1796 1.433 . S
N1771 C1802 1.435 . S
N1771 C1808 1.423 . S
H1772 C1798 0.930 . S
H1773 C1801 0.931 . S
H1774 C1800 0.929 . S
H1775 C1803 0.930 . S
H1776 C1804 0.932 . S
H1777 C1807 0.929 . S
H1778 C1806 0.931 . S
H1779 C1809 0.929 . S
H1780 C1813 0.932 . S
H1781 C1810 0.931 . S
H1782 C1812 0.929 . S
H1783 C1815 0.929 . S
H1784 C1816 0.930 . S
H1785 C1818 0.929 . S
H1786 C1819 0.931 . S
H1787 C1821 0.930 . S
H1788 C1822 0.932 . S
H1789 C1824 0.931 . S
H1790 C1825 0.929 . S
H1791 C1827 0.929 . S
H1792 C1828 0.931 . S
H1793 C1830 0.929 . S
N1794 C1814 1.433 . S
N1794 C1820 1.435 . S
N1794 C1826 1.423 . S
H1795 C1831 0.932 . S
C1796 N1771 1.433 . S
C1796 C1797 1.363 . S
C1796 C1801 1.370 . S
C1797 H1770 0.929 . S
C1797 C1796 1.363 . S
C1797 C1798 1.385 . S
C1798 H1772 0.930 . S
C1798 C1797 1.385 . S
C1798 C1799 1.357 . S
C1799 C1798 1.357 . S
C1799 C1800 1.406 . S
C1800 H1774 0.929 . S
C1800 C1799 1.406 . S
C1800 C1801 1.391 . S
C1801 H1773 0.931 . S
C1801 C1796 1.370 . S
C1801 C1800 1.391 . S
C1802 N1771 1.435 . S
C1802 C1803 1.358 . S
C1802 C1807 1.371 . S
C1803 H1775 0.930 . S
C1803 C1802 1.358 . S
C1803 C1804 1.405 . S
C1804 H1776 0.932 . S
C1804 C1803 1.405 . S
C1804 C1805 1.383 . S
C1805 C1804 1.383 . S
C1805 C1806 1.393 . S
C1806 H1778 0.931 . S
C1806 C1805 1.393 . S
C1806 C1807 1.382 . S
C1807 H1777 0.929 . S
C1807 C1802 1.371 . S
C1807 C1806 1.382 . S
C1808 N1771 1.423 . S
C1808 C1809 1.362 . S
C1808 C1813 1.388 . S
C1809 H1779 0.929 . S
C1809 C1808 1.362 . S
C1809 C1810 1.376 . S
C1810 H1781 0.931 . S
C1810 C1809 1.376 . S
C1810 C1811 1.396 . S
C1811 C1810 1.396 . S
C1811 C1812 1.348 . S
C1811 C1829 1.472 . S
C1812 H1782 0.929 . S
C1812 C1811 1.348 . S
C1812 C1813 1.443 . S
C1813 H1780 0.932 . S
C1813 C1808 1.388 . S
C1813 C1812 1.443 . S
C1814 N1794 1.433 . S
C1814 C1815 1.363 . S
C1814 C1819 1.370 . S
C1815 H1783 0.929 . S
C1815 C1814 1.363 . S
C1815 C1816 1.385 . S
C1816 H1784 0.930 . S
C1816 C1815 1.385 . S
C1816 C1817 1.357 . S
C1817 C1816 1.357 . S
C1817 C1818 1.406 . S
C1818 H1785 0.929 . S
C1818 C1817 1.406 . S
C1818 C1819 1.391 . S
C1819 H1786 0.931 . S
C1819 C1814 1.370 . S
C1819 C1818 1.391 . S
C1820 N1794 1.435 . S
C1820 C1821 1.358 . S
C1820 C1825 1.371 . S
C1821 H1787 0.930 . S
C1821 C1820 1.358 . S
C1821 C1822 1.405 . S
C1822 H1788 0.932 . S
C1822 C1821 1.405 . S
C1822 C1823 1.383 . S
C1823 C1822 1.383 . S
C1823 C1824 1.393 . S
C1824 H1789 0.931 . S
C1824 C1823 1.393 . S
C1824 C1825 1.382 . S
C1825 H1790 0.929 . S
C1825 C1820 1.371 . S
C1825 C1824 1.382 . S
C1826 N1794 1.423 . S
C1826 C1827 1.362 . S
C1826 C1831 1.388 . S
C1827 H1791 0.929 . S
C1827 C1826 1.362 . S
C1827 C1828 1.376 . S
C1828 H1792 0.931 . S
C1828 C1827 1.376 . S
C1828 C1829 1.396 . S
C1829 C1811 1.472 . S
C1829 C1828 1.396 . S
C1829 C1830 1.348 . S
C1830 H1793 0.929 . S
C1830 C1829 1.348 . S
C1830 C1831 1.443 . S
C1831 H1795 0.932 . S
C1831 C1826 1.388 . S
C1831 C1830 1.443 . S
H1832 C1859 0.929 . S
N1833 C1858 1.433 . S
N1833 C1864 1.435 . S
N1833 C1870 1.423 . S
H1834 C1860 0.930 . S
H1835 C1863 0.931 . S
H1836 C1862 0.929 . S
H1837 C1865 0.930 . S
H1838 C1866 0.932 . S
H1839 C1869 0.929 . S
H1840 C1868 0.931 . S
H1841 C1871 0.929 . S
H1842 C1875 0.932 . S
H1843 C1872 0.931 . S
H1844 C1874 0.929 . S
H1845 C1877 0.929 . S
H1846 C1878 0.930 . S
H1847 C1880 0.929 . S
H1848 C1881 0.931 . S
H1849 C1883 0.930 . S
H1850 C1884 0.932 . S
H1851 C1886 0.931 . S
H1852 C1887 0.929 . S
H1853 C1889 0.929 . S
H1854 C1890 0.931 . S
H1855 C1892 0.929 . S
N1856 C1876 1.433 . S
N1856 C1882 1.435 . S
N1856 C1888 1.423 . S
H1857 C1893 0.932 . S
C1858 N1833 1.433 . S
C1858 C1859 1.363 . S
C1858 C1863 1.370 . S
C1859 H1832 0.929 . S
C1859 C1858 1.363 . S
C1859 C1860 1.385 . S
C1860 H1834 0.930 . S
C1860 C1859 1.385 . S
C1860 C1861 1.357 . S
C1861 C1860 1.357 . S
C1861 C1862 1.406 . S
C1862 H1836 0.929 . S
C1862 C1861 1.406 . S
C1862 C1863 1.391 . S
C1863 H1835 0.931 . S
C1863 C1858 1.370 . S
C1863 C1862 1.391 . S
C1864 N1833 1.435 . S
C1864 C1865 1.358 . S
C1864 C1869 1.371 . S
C1865 H1837 0.930 . S
C1865 C1864 1.358 . S
C1865 C1866 1.405 . S
C1866 H1838 0.932 . S
C1866 C1865 1.405 . S
C1866 C1867 1.383 . S
C1867 C1866 1.383 . S
C1867 C1868 1.393 . S
C1868 H1840 0.931 . S
C1868 C1867 1.393 . S
C1868 C1869 1.382 . S
C1869 H1839 0.929 . S
C1869 C1864 1.371 . S
C1869 C1868 1.382 . S
C1870 N1833 1.423 . S
C1870 C1871 1.362 . S
C1870 C1875 1.388 . S
C1871 H1841 0.929 . S
C1871 C1870 1.362 . S
C1871 C1872 1.376 . S
C1872 H1843 0.931 . S
C1872 C1871 1.376 . S
C1872 C1873 1.396 . S
C1873 C1872 1.396 . S
C1873 C1874 1.348 . S
C1873 C1891 1.472 . S
C1874 H1844 0.929 . S
C1874 C1873 1.348 . S
C1874 C1875 1.443 . S
C1875 H1842 0.932 . S
C1875 C1870 1.388 . S
C1875 C1874 1.443 . S
C1876 N1856 1.433 . S
C1876 C1877 1.363 . S
C1876 C1881 1.370 . S
C1877 H1845 0.929 . S
C1877 C1876 1.363 . S
C1877 C1878 1.385 . S
C1878 H1846 0.930 . S
C1878 C1877 1.385 . S
C1878 C1879 1.357 . S
C1879 C1878 1.357 . S
C1879 C1880 1.406 . S
C1880 H1847 0.929 . S
C1880 C1879 1.406 . S
C1880 C1881 1.391 . S
C1881 H1848 0.931 . S
C1881 C1876 1.370 . S
C1881 C1880 1.391 . S
C1882 N1856 1.435 . S
C1882 C1883 1.358 . S
C1882 C1887 1.371 . S
C1883 H1849 0.930 . S
C1883 C1882 1.358 . S
C1883 C1884 1.405 . S
C1884 H1850 0.932 . S
C1884 C1883 1.405 . S
C1884 C1885 1.383 . S
C1885 C1884 1.383 . S
C1885 C1886 1.393 . S
C1886 H1851 0.931 . S
C1886 C1885 1.393 . S
C1886 C1887 1.382 . S
C1887 H1852 0.929 . S
C1887 C1882 1.371 . S
C1887 C1886 1.382 . S
C1888 N1856 1.423 . S
C1888 C1889 1.362 . S
C1888 C1893 1.388 . S
C1889 H1853 0.929 . S
C1889 C1888 1.362 . S
C1889 C1890 1.376 . S
C1890 H1854 0.931 . S
C1890 C1889 1.376 . S
C1890 C1891 1.396 . S
C1891 C1873 1.472 . S
C1891 C1890 1.396 . S
C1891 C1892 1.348 . S
C1892 H1855 0.929 . S
C1892 C1891 1.348 . S
C1892 C1893 1.443 . S
C1893 H1857 0.932 . S
C1893 C1888 1.388 . S
C1893 C1892 1.443 . S
H1894 C1921 0.929 . S
N1895 C1920 1.433 . S
N1895 C1926 1.435 . S
N1895 C1932 1.423 . S
H1896 C1922 0.930 . S
H1897 C1925 0.931 . S
H1898 C1924 0.929 . S
H1899 C1927 0.930 . S
H1900 C1928 0.932 . S
H1901 C1931 0.929 . S
H1902 C1930 0.931 . S
H1903 C1933 0.929 . S
H1904 C1937 0.932 . S
H1905 C1934 0.931 . S
H1906 C1936 0.929 . S
H1907 C1939 0.929 . S
H1908 C1940 0.930 . S
H1909 C1942 0.929 . S
H1910 C1943 0.931 . S
H1911 C1945 0.930 . S
H1912 C1946 0.932 . S
H1913 C1948 0.931 . S
H1914 C1949 0.929 . S
H1915 C1951 0.929 . S
H1916 C1952 0.931 . S
H1917 C1954 0.929 . S
N1918 C1938 1.433 . S
N1918 C1944 1.435 . S
N1918 C1950 1.423 . S
H1919 C1955 0.932 . S
C1920 N1895 1.433 . S
C1920 C1921 1.363 . S
C1920 C1925 1.370 . S
C1921 H1894 0.929 . S
C1921 C1920 1.363 . S
C1921 C1922 1.385 . S
C1922 H1896 0.930 . S
C1922 C1921 1.385 . S
C1922 C1923 1.357 . S
C1923 C1922 1.357 . S
C1923 C1924 1.406 . S
C1924 H1898 0.929 . S
C1924 C1923 1.406 . S
C1924 C1925 1.391 . S
C1925 H1897 0.931 . S
C1925 C1920 1.370 . S
C1925 C1924 1.391 . S
C1926 N1895 1.435 . S
C1926 C1927 1.358 . S
C1926 C1931 1.371 . S
C1927 H1899 0.930 . S
C1927 C1926 1.358 . S
C1927 C1928 1.405 . S
C1928 H1900 0.932 . S
C1928 C1927 1.405 . S
C1928 C1929 1.383 . S
C1929 C1928 1.383 . S
C1929 C1930 1.393 . S
C1930 H1902 0.931 . S
C1930 C1929 1.393 . S
C1930 C1931 1.382 . S
C1931 H1901 0.929 . S
C1931 C1926 1.371 . S
C1931 C1930 1.382 . S
C1932 N1895 1.423 . S
C1932 C1933 1.362 . S
C1932 C1937 1.388 . S
C1933 H1903 0.929 . S
C1933 C1932 1.362 . S
C1933 C1934 1.376 . S
C1934 H1905 0.931 . S
C1934 C1933 1.376 . S
C1934 C1935 1.396 . S
C1935 C1934 1.396 . S
C1935 C1936 1.348 . S
C1935 C1953 1.472 . S
C1936 H1906 0.929 . S
C1936 C1935 1.348 . S
C1936 C1937 1.443 . S
C1937 H1904 0.932 . S
C1937 C1932 1.388 . S
C1937 C1936 1.443 . S
C1938 N1918 1.433 . S
C1938 C1939 1.363 . S
C1938 C1943 1.370 . S
C1939 H1907 0.929 . S
C1939 C1938 1.363 . S
C1939 C1940 1.385 . S
C1940 H1908 0.930 . S
C1940 C1939 1.385 . S
C1940 C1941 1.357 . S
C1941 C1940 1.357 . S
C1941 C1942 1.406 . S
C1942 H1909 0.929 . S
C1942 C1941 1.406 . S
C1942 C1943 1.391 . S
C1943 H1910 0.931 . S
C1943 C1938 1.370 . S
C1943 C1942 1.391 . S
C1944 N1918 1.435 . S
C1944 C1945 1.358 . S
C1944 C1949 1.371 . S
C1945 H1911 0.930 . S
C1945 C1944 1.358 . S
C1945 C1946 1.405 . S
C1946 H1912 0.932 . S
C1946 C1945 1.405 . S
C1946 C1947 1.383 . S
C1947 C1946 1.383 . S
C1947 C1948 1.393 . S
C1948 H1913 0.931 . S
C1948 C1947 1.393 . S
C1948 C1949 1.382 . S
C1949 H1914 0.929 . S
C1949 C1944 1.371 . S
C1949 C1948 1.382 . S
C1950 N1918 1.423 . S
C1950 C1951 1.362 . S
C1950 C1955 1.388 . S
C1951 H1915 0.929 . S
C1951 C1950 1.362 . S
C1951 C1952 1.376 . S
C1952 H1916 0.931 . S
C1952 C1951 1.376 . S
C1952 C1953 1.396 . S
C1953 C1935 1.472 . S
C1953 C1952 1.396 . S
C1953 C1954 1.348 . S
C1954 H1917 0.929 . S
C1954 C1953 1.348 . S
C1954 C1955 1.443 . S
C1955 H1919 0.932 . S
C1955 C1950 1.388 . S
C1955 C1954 1.443 . S
H1956 C1983 0.929 . S
N1957 C1982 1.433 . S
N1957 C1988 1.435 . S
N1957 C1994 1.423 . S
H1958 C1984 0.930 . S
H1959 C1987 0.931 . S
H1960 C1986 0.929 . S
H1961 C1989 0.930 . S
H1962 C1990 0.932 . S
H1963 C1993 0.929 . S
H1964 C1992 0.931 . S
H1965 C1995 0.929 . S
H1966 C1999 0.932 . S
H1967 C1996 0.931 . S
H1968 C1998 0.929 . S
H1969 C2001 0.929 . S
H1970 C2002 0.930 . S
H1971 C2004 0.929 . S
H1972 C2005 0.931 . S
H1973 C2007 0.930 . S
H1974 C2008 0.932 . S
H1975 C2010 0.931 . S
H1976 C2011 0.929 . S
H1977 C2013 0.929 . S
H1978 C2014 0.931 . S
H1979 C2016 0.929 . S
N1980 C2000 1.433 . S
N1980 C2006 1.435 . S
N1980 C2012 1.423 . S
H1981 C2017 0.932 . S
C1982 N1957 1.433 . S
C1982 C1983 1.363 . S
C1982 C1987 1.370 . S
C1983 H1956 0.929 . S
C1983 C1982 1.363 . S
C1983 C1984 1.385 . S
C1984 H1958 0.930 . S
C1984 C1983 1.385 . S
C1984 C1985 1.357 . S
C1985 C1984 1.357 . S
C1985 C1986 1.406 . S
C1986 H1960 0.929 . S
C1986 C1985 1.406 . S
C1986 C1987 1.391 . S
C1987 H1959 0.931 . S
C1987 C1982 1.370 . S
C1987 C1986 1.391 . S
C1988 N1957 1.435 . S
C1988 C1989 1.358 . S
C1988 C1993 1.371 . S
C1989 H1961 0.930 . S
C1989 C1988 1.358 . S
C1989 C1990 1.405 . S
C1990 H1962 0.932 . S
C1990 C1989 1.405 . S
C1990 C1991 1.383 . S
C1991 C1990 1.383 . S
C1991 C1992 1.393 . S
C1992 H1964 0.931 . S
C1992 C1991 1.393 . S
C1992 C1993 1.382 . S
C1993 H1963 0.929 . S
C1993 C1988 1.371 . S
C1993 C1992 1.382 . S
C1994 N1957 1.423 . S
C1994 C1995 1.362 . S
C1994 C1999 1.388 . S
C1995 H1965 0.929 . S
C1995 C1994 1.362 . S
C1995 C1996 1.376 . S
C1996 H1967 0.931 . S
C1996 C1995 1.376 . S
C1996 C1997 1.396 . S
C1997 C1996 1.396 . S
C1997 C1998 1.348 . S
C1997 C2015 1.472 . S
C1998 H1968 0.929 . S
C1998 C1997 1.348 . S
C1998 C1999 1.443 . S
C1999 H1966 0.932 . S
C1999 C1994 1.388 . S
C1999 C1998 1.443 . S
C2000 N1980 1.433 . S
C2000 C2001 1.363 . S
C2000 C2005 1.370 . S
C2001 H1969 0.929 . S
C2001 C2000 1.363 . S
C2001 C2002 1.385 . S
C2002 H1970 0.930 . S
C2002 C2001 1.385 . S
C2002 C2003 1.357 . S
C2003 C2002 1.357 . S
C2003 C2004 1.406 . S
C2004 H1971 0.929 . S
C2004 C2003 1.406 . S
C2004 C2005 1.391 . S
C2005 H1972 0.931 . S
C2005 C2000 1.370 . S
C2005 C2004 1.391 . S
C2006 N1980 1.435 . S
C2006 C2007 1.358 . S
C2006 C2011 1.371 . S
C2007 H1973 0.930 . S
C2007 C2006 1.358 . S
C2007 C2008 1.405 . S
C2008 H1974 0.932 . S
C2008 C2007 1.405 . S
C2008 C2009 1.383 . S
C2009 C2008 1.383 . S
C2009 C2010 1.393 . S
C2010 H1975 0.931 . S
C2010 C2009 1.393 . S
C2010 C2011 1.382 . S
C2011 H1976 0.929 . S
C2011 C2006 1.371 . S
C2011 C2010 1.382 . S
C2012 N1980 1.423 . S
C2012 C2013 1.362 . S
C2012 C2017 1.388 . S
C2013 H1977 0.929 . S
C2013 C2012 1.362 . S
C2013 C2014 1.376 . S
C2014 H1978 0.931 . S
C2014 C2013 1.376 . S
C2014 C2015 1.396 . S
C2015 C1997 1.472 . S
C2015 C2014 1.396 . S
C2015 C2016 1.348 . S
C2016 H1979 0.929 . S
C2016 C2015 1.348 . S
C2016 C2017 1.443 . S
C2017 H1981 0.932 . S
C2017 C2012 1.388 . S
C2017 C2016 1.443 . S
H2018 C2045 0.929 . S
N2019 C2044 1.433 . S
N2019 C2050 1.435 . S
N2019 C2056 1.423 . S
H2020 C2046 0.930 . S
H2021 C2049 0.931 . S
H2022 C2048 0.929 . S
H2023 C2051 0.930 . S
H2024 C2052 0.932 . S
H2025 C2055 0.929 . S
H2026 C2054 0.931 . S
H2027 C2057 0.929 . S
H2028 C2061 0.932 . S
H2029 C2058 0.931 . S
H2030 C2060 0.929 . S
H2031 C2063 0.929 . S
H2032 C2064 0.930 . S
H2033 C2066 0.929 . S
H2034 C2067 0.931 . S
H2035 C2069 0.930 . S
H2036 C2070 0.932 . S
H2037 C2072 0.931 . S
H2038 C2073 0.929 . S
H2039 C2075 0.929 . S
H2040 C2076 0.931 . S
H2041 C2078 0.929 . S
N2042 C2062 1.433 . S
N2042 C2068 1.435 . S
N2042 C2074 1.423 . S
H2043 C2079 0.932 . S
C2044 N2019 1.433 . S
C2044 C2045 1.363 . S
C2044 C2049 1.370 . S
C2045 H2018 0.929 . S
C2045 C2044 1.363 . S
C2045 C2046 1.385 . S
C2046 H2020 0.930 . S
C2046 C2045 1.385 . S
C2046 C2047 1.357 . S
C2047 C2046 1.357 . S
C2047 C2048 1.406 . S
C2048 H2022 0.929 . S
C2048 C2047 1.406 . S
C2048 C2049 1.391 . S
C2049 H2021 0.931 . S
C2049 C2044 1.370 . S
C2049 C2048 1.391 . S
C2050 N2019 1.435 . S
C2050 C2051 1.358 . S
C2050 C2055 1.371 . S
C2051 H2023 0.930 . S
C2051 C2050 1.358 . S
C2051 C2052 1.405 . S
C2052 H2024 0.932 . S
C2052 C2051 1.405 . S
C2052 C2053 1.383 . S
C2053 C2052 1.383 . S
C2053 C2054 1.393 . S
C2054 H2026 0.931 . S
C2054 C2053 1.393 . S
C2054 C2055 1.382 . S
C2055 H2025 0.929 . S
C2055 C2050 1.371 . S
C2055 C2054 1.382 . S
C2056 N2019 1.423 . S
C2056 C2057 1.362 . S
C2056 C2061 1.388 . S
C2057 H2027 0.929 . S
C2057 C2056 1.362 . S
C2057 C2058 1.376 . S
C2058 H2029 0.931 . S
C2058 C2057 1.376 . S
C2058 C2059 1.396 . S
C2059 C2058 1.396 . S
C2059 C2060 1.348 . S
C2059 C2077 1.472 . S
C2060 H2030 0.929 . S
C2060 C2059 1.348 . S
C2060 C2061 1.443 . S
C2061 H2028 0.932 . S
C2061 C2056 1.388 . S
C2061 C2060 1.443 . S
C2062 N2042 1.433 . S
C2062 C2063 1.363 . S
C2062 C2067 1.370 . S
C2063 H2031 0.929 . S
C2063 C2062 1.363 . S
C2063 C2064 1.385 . S
C2064 H2032 0.930 . S
C2064 C2063 1.385 . S
C2064 C2065 1.357 . S
C2065 C2064 1.357 . S
C2065 C2066 1.406 . S
C2066 H2033 0.929 . S
C2066 C2065 1.406 . S
C2066 C2067 1.391 . S
C2067 H2034 0.931 . S
C2067 C2062 1.370 . S
C2067 C2066 1.391 . S
C2068 N2042 1.435 . S
C2068 C2069 1.358 . S
C2068 C2073 1.371 . S
C2069 H2035 0.930 . S
C2069 C2068 1.358 . S
C2069 C2070 1.405 . S
C2070 H2036 0.932 . S
C2070 C2069 1.405 . S
C2070 C2071 1.383 . S
C2071 C2070 1.383 . S
C2071 C2072 1.393 . S
C2072 H2037 0.931 . S
C2072 C2071 1.393 . S
C2072 C2073 1.382 . S
C2073 H2038 0.929 . S
C2073 C2068 1.371 . S
C2073 C2072 1.382 . S
C2074 N2042 1.423 . S
C2074 C2075 1.362 . S
C2074 C2079 1.388 . S
C2075 H2039 0.929 . S
C2075 C2074 1.362 . S
C2075 C2076 1.376 . S
C2076 H2040 0.931 . S
C2076 C2075 1.376 . S
C2076 C2077 1.396 . S
C2077 C2059 1.472 . S
C2077 C2076 1.396 . S
C2077 C2078 1.348 . S
C2078 H2041 0.929 . S
C2078 C2077 1.348 . S
C2078 C2079 1.443 . S
C2079 H2043 0.932 . S
C2079 C2074 1.388 . S
C2079 C2078 1.443 . S
H2080 C2107 0.929 . S
N2081 C2106 1.433 . S
N2081 C2112 1.435 . S
N2081 C2118 1.423 . S
H2082 C2108 0.930 . S
H2083 C2111 0.931 . S
H2084 C2110 0.929 . S
H2085 C2113 0.930 . S
H2086 C2114 0.932 . S
H2087 C2117 0.929 . S
H2088 C2116 0.931 . S
H2089 C2119 0.929 . S
H2090 C2123 0.932 . S
H2091 C2120 0.931 . S
H2092 C2122 0.929 . S
H2093 C2125 0.929 . S
H2094 C2126 0.930 . S
H2095 C2128 0.929 . S
H2096 C2129 0.931 . S
H2097 C2131 0.930 . S
H2098 C2132 0.932 . S
H2099 C2134 0.931 . S
H2100 C2135 0.929 . S
H2101 C2137 0.929 . S
H2102 C2138 0.931 . S
H2103 C2140 0.929 . S
N2104 C2124 1.433 . S
N2104 C2130 1.435 . S
N2104 C2136 1.423 . S
H2105 C2141 0.932 . S
C2106 N2081 1.433 . S
C2106 C2107 1.363 . S
C2106 C2111 1.370 . S
C2107 H2080 0.929 . S
C2107 C2106 1.363 . S
C2107 C2108 1.385 . S
C2108 H2082 0.930 . S
C2108 C2107 1.385 . S
C2108 C2109 1.357 . S
C2109 C2108 1.357 . S
C2109 C2110 1.406 . S
C2110 H2084 0.929 . S
C2110 C2109 1.406 . S
C2110 C2111 1.391 . S
C2111 H2083 0.931 . S
C2111 C2106 1.370 . S
C2111 C2110 1.391 . S
C2112 N2081 1.435 . S
C2112 C2113 1.358 . S
C2112 C2117 1.371 . S
C2113 H2085 0.930 . S
C2113 C2112 1.358 . S
C2113 C2114 1.405 . S
C2114 H2086 0.932 . S
C2114 C2113 1.405 . S
C2114 C2115 1.383 . S
C2115 C2114 1.383 . S
C2115 C2116 1.393 . S
C2116 H2088 0.931 . S
C2116 C2115 1.393 . S
C2116 C2117 1.382 . S
C2117 H2087 0.929 . S
C2117 C2112 1.371 . S
C2117 C2116 1.382 . S
C2118 N2081 1.423 . S
C2118 C2119 1.362 . S
C2118 C2123 1.388 . S
C2119 H2089 0.929 . S
C2119 C2118 1.362 . S
C2119 C2120 1.376 . S
C2120 H2091 0.931 . S
C2120 C2119 1.376 . S
C2120 C2121 1.396 . S
C2121 C2120 1.396 . S
C2121 C2122 1.348 . S
C2121 C2139 1.472 . S
C2122 H2092 0.929 . S
C2122 C2121 1.348 . S
C2122 C2123 1.443 . S
C2123 H2090 0.932 . S
C2123 C2118 1.388 . S
C2123 C2122 1.443 . S
C2124 N2104 1.433 . S
C2124 C2125 1.363 . S
C2124 C2129 1.370 . S
C2125 H2093 0.929 . S
C2125 C2124 1.363 . S
C2125 C2126 1.385 . S
C2126 H2094 0.930 . S
C2126 C2125 1.385 . S
C2126 C2127 1.357 . S
C2127 C2126 1.357 . S
C2127 C2128 1.406 . S
C2128 H2095 0.929 . S
C2128 C2127 1.406 . S
C2128 C2129 1.391 . S
C2129 H2096 0.931 . S
C2129 C2124 1.370 . S
C2129 C2128 1.391 . S
C2130 N2104 1.435 . S
C2130 C2131 1.358 . S
C2130 C2135 1.371 . S
C2131 H2097 0.930 . S
C2131 C2130 1.358 . S
C2131 C2132 1.405 . S
C2132 H2098 0.932 . S
C2132 C2131 1.405 . S
C2132 C2133 1.383 . S
C2133 C2132 1.383 . S
C2133 C2134 1.393 . S
C2134 H2099 0.931 . S
C2134 C2133 1.393 . S
C2134 C2135 1.382 . S
C2135 H2100 0.929 . S
C2135 C2130 1.371 . S
C2135 C2134 1.382 . S
C2136 N2104 1.423 . S
C2136 C2137 1.362 . S
C2136 C2141 1.388 . S
C2137 H2101 0.929 . S
C2137 C2136 1.362 . S
C2137 C2138 1.376 . S
C2138 H2102 0.931 . S
C2138 C2137 1.376 . S
C2138 C2139 1.396 . S
C2139 C2121 1.472 . S
C2139 C2138 1.396 . S
C2139 C2140 1.348 . S
C2140 H2103 0.929 . S
C2140 C2139 1.348 . S
C2140 C2141 1.443 . S
C2141 H2105 0.932 . S
C2141 C2136 1.388 . S
C2141 C2140 1.443 . S
H2142 C2169 0.929 . S
N2143 C2168 1.433 . S
N2143 C2174 1.435 . S
N2143 C2180 1.423 . S
H2144 C2170 0.930 . S
H2145 C2173 0.931 . S
H2146 C2172 0.929 . S
H2147 C2175 0.930 . S
H2148 C2176 0.932 . S
H2149 C2179 0.929 . S
H2150 C2178 0.931 . S
H2151 C2181 0.929 . S
H2152 C2185 0.932 1_655 S
H2153 C2182 0.931 . S
H2154 C2184 0.929 . S
H2155 C2187 0.929 . S
H2156 C2188 0.930 . S
H2157 C2190 0.929 . S
H2158 C2191 0.931 . S
H2159 C2193 0.930 . S
H2160 C2194 0.932 . S
H2161 C2196 0.931 . S
H2162 C2197 0.929 . S
H2163 C2199 0.929 . S
H2164 C2200 0.931 . S
H2165 C2202 0.929 . S
N2166 C2186 1.433 . S
N2166 C2192 1.435 . S
N2166 C2198 1.423 . S
H2167 C2203 0.932 1_655 S
C2168 N2143 1.433 . S
C2168 C2169 1.363 . S
C2168 C2173 1.370 1_455 S
C2169 H2142 0.929 . S
C2169 C2168 1.363 . S
C2169 C2170 1.385 . S
C2170 H2144 0.930 . S
C2170 C2169 1.385 . S
C2170 C2171 1.357 1_455 S
C2171 C2170 1.357 1_655 S
C2171 C2172 1.406 . S
C2172 H2146 0.929 . S
C2172 C2171 1.406 . S
C2172 C2173 1.391 . S
C2173 H2145 0.931 . S
C2173 C2168 1.370 1_655 S
C2173 C2172 1.391 . S
C2174 N2143 1.435 . S
C2174 C2175 1.358 1_455 S
C2174 C2179 1.371 . S
C2175 H2147 0.930 . S
C2175 C2174 1.358 1_655 S
C2175 C2176 1.405 . S
C2176 H2148 0.932 . S
C2176 C2175 1.405 . S
C2176 C2177 1.383 1_655 S
C2177 C2176 1.383 1_455 S
C2177 C2178 1.393 . S
C2178 H2150 0.931 . S
C2178 C2177 1.393 . S
C2178 C2179 1.382 . S
C2179 H2149 0.929 . S
C2179 C2174 1.371 . S
C2179 C2178 1.382 . S
C2180 N2143 1.423 . S
C2180 C2181 1.362 . S
C2180 C2185 1.388 . S
C2181 H2151 0.929 . S
C2181 C2180 1.362 . S
C2181 C2182 1.376 . S
C2182 H2153 0.931 . S
C2182 C2181 1.376 . S
C2182 C2183 1.396 . S
C2183 C2182 1.396 . S
C2183 C2184 1.348 . S
C2183 C2201 1.472 . S
C2184 H2154 0.929 . S
C2184 C2183 1.348 . S
C2184 C2185 1.443 . S
C2185 H2152 0.932 1_455 S
C2185 C2180 1.388 . S
C2185 C2184 1.443 . S
C2186 N2166 1.433 . S
C2186 C2187 1.363 . S
C2186 C2191 1.370 1_455 S
C2187 H2155 0.929 . S
C2187 C2186 1.363 . S
C2187 C2188 1.385 . S
C2188 H2156 0.930 . S
C2188 C2187 1.385 . S
C2188 C2189 1.357 1_455 S
C2189 C2188 1.357 1_655 S
C2189 C2190 1.406 . S
C2190 H2157 0.929 . S
C2190 C2189 1.406 . S
C2190 C2191 1.391 . S
C2191 H2158 0.931 . S
C2191 C2186 1.370 1_655 S
C2191 C2190 1.391 . S
C2192 N2166 1.435 . S
C2192 C2193 1.358 1_455 S
C2192 C2197 1.371 . S
C2193 H2159 0.930 . S
C2193 C2192 1.358 1_655 S
C2193 C2194 1.405 . S
C2194 H2160 0.932 . S
C2194 C2193 1.405 . S
C2194 C2195 1.383 1_655 S
C2195 C2194 1.383 1_455 S
C2195 C2196 1.393 . S
C2196 H2161 0.931 . S
C2196 C2195 1.393 . S
C2196 C2197 1.382 . S
C2197 H2162 0.929 . S
C2197 C2192 1.371 . S
C2197 C2196 1.382 . S
C2198 N2166 1.423 . S
C2198 C2199 1.362 . S
C2198 C2203 1.388 . S
C2199 H2163 0.929 . S
C2199 C2198 1.362 . S
C2199 C2200 1.376 . S
C2200 H2164 0.931 . S
C2200 C2199 1.376 . S
C2200 C2201 1.396 . S
C2201 C2183 1.472 . S
C2201 C2200 1.396 . S
C2201 C2202 1.348 . S
C2202 H2165 0.929 . S
C2202 C2201 1.348 . S
C2202 C2203 1.443 . S
C2203 H2167 0.932 1_455 S
C2203 C2198 1.388 . S
C2203 C2202 1.443 . S
H2204 C2231 0.929 . S
N2205 C2230 1.433 . S
N2205 C2236 1.435 . S
N2205 C2242 1.423 . S
H2206 C2232 0.930 . S
H2207 C2235 0.931 . S
H2208 C2234 0.929 . S
H2209 C2237 0.930 . S
H2210 C2238 0.932 . S
H2211 C2241 0.929 . S
H2212 C2240 0.931 . S
H2213 C2243 0.929 . S
H2214 C2247 0.932 . S
H2215 C2244 0.931 . S
H2216 C2246 0.929 . S
H2217 C2249 0.929 . S
H2218 C2250 0.930 . S
H2219 C2252 0.929 . S
H2220 C2253 0.931 . S
H2221 C2255 0.930 . S
H2222 C2256 0.932 . S
H2223 C2258 0.931 . S
H2224 C2259 0.929 . S
H2225 C2261 0.929 . S
H2226 C2262 0.931 . S
H2227 C2264 0.929 . S
N2228 C2248 1.433 . S
N2228 C2254 1.435 . S
N2228 C2260 1.423 . S
H2229 C2265 0.932 . S
C2230 N2205 1.433 . S
C2230 C2231 1.363 . S
C2230 C2235 1.370 . S
C2231 H2204 0.929 . S
C2231 C2230 1.363 . S
C2231 C2232 1.385 . S
C2232 H2206 0.930 . S
C2232 C2231 1.385 . S
C2232 C2233 1.357 . S
C2233 C2232 1.357 . S
C2233 C2234 1.406 . S
C2234 H2208 0.929 . S
C2234 C2233 1.406 . S
C2234 C2235 1.391 . S
C2235 H2207 0.931 . S
C2235 C2230 1.370 . S
C2235 C2234 1.391 . S
C2236 N2205 1.435 . S
C2236 C2237 1.358 . S
C2236 C2241 1.371 . S
C2237 H2209 0.930 . S
C2237 C2236 1.358 . S
C2237 C2238 1.405 . S
C2238 H2210 0.932 . S
C2238 C2237 1.405 . S
C2238 C2239 1.383 . S
C2239 C2238 1.383 . S
C2239 C2240 1.393 . S
C2240 H2212 0.931 . S
C2240 C2239 1.393 . S
C2240 C2241 1.382 . S
C2241 H2211 0.929 . S
C2241 C2236 1.371 . S
C2241 C2240 1.382 . S
C2242 N2205 1.423 . S
C2242 C2243 1.362 . S
C2242 C2247 1.388 . S
C2243 H2213 0.929 . S
C2243 C2242 1.362 . S
C2243 C2244 1.376 . S
C2244 H2215 0.931 . S
C2244 C2243 1.376 . S
C2244 C2245 1.396 . S
C2245 C2244 1.396 . S
C2245 C2246 1.348 . S
C2245 C2263 1.472 . S
C2246 H2216 0.929 . S
C2246 C2245 1.348 . S
C2246 C2247 1.443 . S
C2247 H2214 0.932 . S
C2247 C2242 1.388 . S
C2247 C2246 1.443 . S
C2248 N2228 1.433 . S
C2248 C2249 1.363 . S
C2248 C2253 1.370 . S
C2249 H2217 0.929 . S
C2249 C2248 1.363 . S
C2249 C2250 1.385 . S
C2250 H2218 0.930 . S
C2250 C2249 1.385 . S
C2250 C2251 1.357 . S
C2251 C2250 1.357 . S
C2251 C2252 1.406 . S
C2252 H2219 0.929 . S
C2252 C2251 1.406 . S
C2252 C2253 1.391 . S
C2253 H2220 0.931 . S
C2253 C2248 1.370 . S
C2253 C2252 1.391 . S
C2254 N2228 1.435 . S
C2254 C2255 1.358 . S
C2254 C2259 1.371 . S
C2255 H2221 0.930 . S
C2255 C2254 1.358 . S
C2255 C2256 1.405 . S
C2256 H2222 0.932 . S
C2256 C2255 1.405 . S
C2256 C2257 1.383 . S
C2257 C2256 1.383 . S
C2257 C2258 1.393 . S
C2258 H2223 0.931 . S
C2258 C2257 1.393 . S
C2258 C2259 1.382 . S
C2259 H2224 0.929 . S
C2259 C2254 1.371 . S
C2259 C2258 1.382 . S
C2260 N2228 1.423 . S
C2260 C2261 1.362 . S
C2260 C2265 1.388 . S
C2261 H2225 0.929 . S
C2261 C2260 1.362 . S
C2261 C2262 1.376 . S
C2262 H2226 0.931 . S
C2262 C2261 1.376 . S
C2262 C2263 1.396 . S
C2263 C2245 1.472 . S
C2263 C2262 1.396 . S
C2263 C2264 1.348 . S
C2264 H2227 0.929 . S
C2264 C2263 1.348 . S
C2264 C2265 1.443 . S
C2265 H2229 0.932 . S
C2265 C2260 1.388 . S
C2265 C2264 1.443 . S
H2266 C2293 0.929 . S
N2267 C2292 1.433 . S
N2267 C2298 1.435 . S
N2267 C2304 1.423 . S
H2268 C2294 0.930 . S
H2269 C2297 0.931 . S
H2270 C2296 0.929 . S
H2271 C2299 0.930 . S
H2272 C2300 0.932 . S
H2273 C2303 0.929 . S
H2274 C2302 0.931 . S
H2275 C2305 0.929 . S
H2276 C2309 0.932 1_545 S
H2277 C2306 0.931 . S
H2278 C2308 0.929 . S
H2279 C2311 0.929 . S
H2280 C2312 0.930 . S
H2281 C2314 0.929 . S
H2282 C2315 0.931 . S
H2283 C2317 0.930 . S
H2284 C2318 0.932 . S
H2285 C2320 0.931 . S
H2286 C2321 0.929 . S
H2287 C2323 0.929 . S
H2288 C2324 0.931 . S
H2289 C2326 0.929 . S
N2290 C2310 1.433 . S
N2290 C2316 1.435 . S
N2290 C2322 1.423 . S
H2291 C2327 0.932 1_545 S
C2292 N2267 1.433 . S
C2292 C2293 1.363 . S
C2292 C2297 1.370 1_565 S
C2293 H2266 0.929 . S
C2293 C2292 1.363 . S
C2293 C2294 1.385 . S
C2294 H2268 0.930 . S
C2294 C2293 1.385 . S
C2294 C2295 1.357 1_565 S
C2295 C2294 1.357 1_545 S
C2295 C2296 1.406 . S
C2296 H2270 0.929 . S
C2296 C2295 1.406 . S
C2296 C2297 1.391 . S
C2297 H2269 0.931 . S
C2297 C2292 1.370 1_545 S
C2297 C2296 1.391 . S
C2298 N2267 1.435 . S
C2298 C2299 1.358 1_565 S
C2298 C2303 1.371 . S
C2299 H2271 0.930 . S
C2299 C2298 1.358 1_545 S
C2299 C2300 1.405 . S
C2300 H2272 0.932 . S
C2300 C2299 1.405 . S
C2300 C2301 1.383 1_545 S
C2301 C2300 1.383 1_565 S
C2301 C2302 1.393 . S
C2302 H2274 0.931 . S
C2302 C2301 1.393 . S
C2302 C2303 1.382 . S
C2303 H2273 0.929 . S
C2303 C2298 1.371 . S
C2303 C2302 1.382 . S
C2304 N2267 1.423 . S
C2304 C2305 1.362 . S
C2304 C2309 1.388 . S
C2305 H2275 0.929 . S
C2305 C2304 1.362 . S
C2305 C2306 1.376 . S
C2306 H2277 0.931 . S
C2306 C2305 1.376 . S
C2306 C2307 1.396 . S
C2307 C2306 1.396 . S
C2307 C2308 1.348 . S
C2307 C2325 1.472 . S
C2308 H2278 0.929 . S
C2308 C2307 1.348 . S
C2308 C2309 1.443 . S
C2309 H2276 0.932 1_565 S
C2309 C2304 1.388 . S
C2309 C2308 1.443 . S
C2310 N2290 1.433 . S
C2310 C2311 1.363 . S
C2310 C2315 1.370 1_565 S
C2311 H2279 0.929 . S
C2311 C2310 1.363 . S
C2311 C2312 1.385 . S
C2312 H2280 0.930 . S
C2312 C2311 1.385 . S
C2312 C2313 1.357 1_565 S
C2313 C2312 1.357 1_545 S
C2313 C2314 1.406 . S
C2314 H2281 0.929 . S
C2314 C2313 1.406 . S
C2314 C2315 1.391 . S
C2315 H2282 0.931 . S
C2315 C2310 1.370 1_545 S
C2315 C2314 1.391 . S
C2316 N2290 1.435 . S
C2316 C2317 1.358 1_565 S
C2316 C2321 1.371 . S
C2317 H2283 0.930 . S
C2317 C2316 1.358 1_545 S
C2317 C2318 1.405 . S
C2318 H2284 0.932 . S
C2318 C2317 1.405 . S
C2318 C2319 1.383 1_545 S
C2319 C2318 1.383 1_565 S
C2319 C2320 1.393 . S
C2320 H2285 0.931 . S
C2320 C2319 1.393 . S
C2320 C2321 1.382 . S
C2321 H2286 0.929 . S
C2321 C2316 1.371 . S
C2321 C2320 1.382 . S
C2322 N2290 1.423 . S
C2322 C2323 1.362 . S
C2322 C2327 1.388 . S
C2323 H2287 0.929 . S
C2323 C2322 1.362 . S
C2323 C2324 1.376 . S
C2324 H2288 0.931 . S
C2324 C2323 1.376 . S
C2324 C2325 1.396 . S
C2325 C2307 1.472 . S
C2325 C2324 1.396 . S
C2325 C2326 1.348 . S
C2326 H2289 0.929 . S
C2326 C2325 1.348 . S
C2326 C2327 1.443 . S
C2327 H2291 0.932 1_565 S
C2327 C2322 1.388 . S
C2327 C2326 1.443 . S
H2328 C2355 0.929 . S
N2329 C2354 1.433 . S
N2329 C2360 1.435 . S
N2329 C2366 1.423 . S
H2330 C2356 0.930 . S
H2331 C2359 0.930 . S
H2332 C2358 0.943 . S
H2333 C2361 0.930 . S
H2334 C2362 0.932 . S
H2335 C2365 0.929 . S
H2336 C2364 0.931 . S
H2337 C2367 0.929 . S
H2338 C2371 0.932 . S
H2339 C2368 0.931 . S
H2340 C2370 0.922 1_545 S
H2341 C2373 0.929 . S
H2342 C2374 0.930 . S
H2343 C2376 0.972 . S
H2344 C2377 0.970 . S
H2345 C2379 0.930 . S
H2346 C2380 0.932 . S
H2347 C2382 0.931 . S
H2348 C2383 0.929 . S
H2349 C2385 0.929 . S
H2350 C2386 0.931 . S
H2351 C2388 0.905 1_545 S
N2352 C2372 1.433 . S
N2352 C2378 1.435 . S
N2352 C2384 1.423 . S
H2353 C2389 0.932 . S
C2354 N2329 1.433 . S
C2354 C2355 1.363 . S
C2354 C2359 1.364 1_565 S
C2355 H2328 0.929 . S
C2355 C2354 1.363 . S
C2355 C2356 1.385 . S
C2356 H2330 0.930 . S
C2356 C2355 1.385 . S
C2356 C2357 1.357 . S
C2357 C2356 1.357 . S
C2357 C2358 1.412 1_565 S
C2358 H2332 0.943 . S
C2358 C2357 1.412 1_545 S
C2358 C2359 1.388 . S
C2359 H2331 0.930 . S
C2359 C2354 1.364 1_545 S
C2359 C2358 1.388 . S
C2360 N2329 1.435 . S
C2360 C2361 1.358 1_565 S
C2360 C2365 1.371 . S
C2361 H2333 0.930 . S
C2361 C2360 1.358 1_545 S
C2361 C2362 1.405 . S
C2362 H2334 0.932 . S
C2362 C2361 1.405 . S
C2362 C2363 1.383 . S
C2363 C2362 1.383 . S
C2363 C2364 1.393 1_545 S
C2364 H2336 0.931 . S
C2364 C2363 1.393 1_565 S
C2364 C2365 1.382 . S
C2365 H2335 0.929 . S
C2365 C2360 1.371 . S
C2365 C2364 1.382 . S
C2366 N2329 1.423 . S
C2366 C2367 1.362 . S
C2366 C2371 1.388 1_565 S
C2367 H2337 0.929 . S
C2367 C2366 1.362 . S
C2367 C2368 1.376 . S
C2368 H2339 0.931 . S
C2368 C2367 1.376 . S
C2368 C2369 1.396 . S
C2369 C2368 1.396 . S
C2369 C2370 1.373 . S
C2369 C2387 1.472 . S
C2370 H2340 0.922 1_565 S
C2370 C2369 1.373 . S
C2370 C2371 1.425 1_565 S
C2371 H2338 0.932 . S
C2371 C2366 1.388 1_545 S
C2371 C2370 1.425 1_545 S
C2372 N2352 1.433 . S
C2372 C2373 1.363 . S
C2372 C2377 1.340 1_565 S
C2373 H2341 0.929 . S
C2373 C2372 1.363 . S
C2373 C2374 1.385 . S
C2374 H2342 0.930 . S
C2374 C2373 1.385 . S
C2374 C2375 1.357 . S
C2375 C2374 1.357 . S
C2375 C2376 1.355 1_565 S
C2376 H2343 0.972 . S
C2376 C2375 1.355 1_545 S
C2376 C2377 1.394 . S
C2377 H2344 0.970 . S
C2377 C2372 1.340 1_545 S
C2377 C2376 1.394 . S
C2378 N2352 1.435 . S
C2378 C2379 1.358 1_565 S
C2378 C2383 1.371 . S
C2379 H2345 0.930 . S
C2379 C2378 1.358 1_545 S
C2379 C2380 1.405 . S
C2380 H2346 0.932 . S
C2380 C2379 1.405 . S
C2380 C2381 1.383 . S
C2381 C2380 1.383 . S
C2381 C2382 1.393 1_545 S
C2382 H2347 0.931 . S
C2382 C2381 1.393 1_565 S
C2382 C2383 1.382 . S
C2383 H2348 0.929 . S
C2383 C2378 1.371 . S
C2383 C2382 1.382 . S
C2384 N2352 1.423 . S
C2384 C2385 1.362 . S
C2384 C2389 1.388 1_565 S
C2385 H2349 0.929 . S
C2385 C2384 1.362 . S
C2385 C2386 1.376 . S
C2386 H2350 0.931 . S
C2386 C2385 1.376 . S
C2386 C2387 1.396 . S
C2387 C2369 1.472 . S
C2387 C2386 1.396 . S
C2387 C2388 1.358 . S
C2388 H2351 0.905 1_565 S
C2388 C2387 1.358 . S
C2388 C2389 1.457 1_565 S
C2389 H2353 0.932 . S
C2389 C2384 1.388 1_545 S
C2389 C2388 1.457 1_545 S
H2390 C2417 0.929 . S
N2391 C2416 1.433 . S
N2391 C2422 1.435 . S
N2391 C2428 1.423 . S
H2392 C2418 0.930 . S
H2393 C2421 0.931 . S
H2394 C2420 0.929 . S
H2395 C2423 0.930 . S
H2396 C2424 0.932 . S
H2397 C2427 0.929 . S
H2398 C2426 0.931 . S
H2399 C2429 0.929 . S
H2400 C2433 0.932 1_455 S
H2401 C2430 0.931 . S
H2402 C2432 0.929 . S
H2403 C2435 0.929 . S
H2404 C2436 0.930 . S
H2405 C2438 0.929 . S
H2406 C2439 0.931 . S
H2407 C2441 0.930 . S
H2408 C2442 0.932 . S
H2409 C2444 0.931 . S
H2410 C2445 0.929 . S
H2411 C2447 0.929 . S
H2412 C2448 0.931 . S
H2413 C2450 0.929 . S
N2414 C2434 1.433 . S
N2414 C2440 1.435 . S
N2414 C2446 1.423 . S
H2415 C2451 0.932 1_455 S
C2416 N2391 1.433 . S
C2416 C2417 1.363 . S
C2416 C2421 1.370 1_655 S
C2417 H2390 0.929 . S
C2417 C2416 1.363 . S
C2417 C2418 1.385 . S
C2418 H2392 0.930 . S
C2418 C2417 1.385 . S
C2418 C2419 1.357 1_655 S
C2419 C2418 1.357 1_455 S
C2419 C2420 1.406 . S
C2420 H2394 0.929 . S
C2420 C2419 1.406 . S
C2420 C2421 1.391 . S
C2421 H2393 0.931 . S
C2421 C2416 1.370 1_455 S
C2421 C2420 1.391 . S
C2422 N2391 1.435 . S
C2422 C2423 1.358 1_655 S
C2422 C2427 1.371 . S
C2423 H2395 0.930 . S
C2423 C2422 1.358 1_455 S
C2423 C2424 1.405 . S
C2424 H2396 0.932 . S
C2424 C2423 1.405 . S
C2424 C2425 1.383 1_455 S
C2425 C2424 1.383 1_655 S
C2425 C2426 1.393 . S
C2426 H2398 0.931 . S
C2426 C2425 1.393 . S
C2426 C2427 1.382 . S
C2427 H2397 0.929 . S
C2427 C2422 1.371 . S
C2427 C2426 1.382 . S
C2428 N2391 1.423 . S
C2428 C2429 1.362 . S
C2428 C2433 1.388 . S
C2429 H2399 0.929 . S
C2429 C2428 1.362 . S
C2429 C2430 1.376 . S
C2430 H2401 0.931 . S
C2430 C2429 1.376 . S
C2430 C2431 1.396 . S
C2431 C2430 1.396 . S
C2431 C2432 1.348 . S
C2431 C2449 1.472 . S
C2432 H2402 0.929 . S
C2432 C2431 1.348 . S
C2432 C2433 1.443 . S
C2433 H2400 0.932 1_655 S
C2433 C2428 1.388 . S
C2433 C2432 1.443 . S
C2434 N2414 1.433 . S
C2434 C2435 1.363 . S
C2434 C2439 1.370 1_655 S
C2435 H2403 0.929 . S
C2435 C2434 1.363 . S
C2435 C2436 1.385 . S
C2436 H2404 0.930 . S
C2436 C2435 1.385 . S
C2436 C2437 1.357 1_655 S
C2437 C2436 1.357 1_455 S
C2437 C2438 1.406 . S
C2438 H2405 0.929 . S
C2438 C2437 1.406 . S
C2438 C2439 1.391 . S
C2439 H2406 0.931 . S
C2439 C2434 1.370 1_455 S
C2439 C2438 1.391 . S
C2440 N2414 1.435 . S
C2440 C2441 1.358 1_655 S
C2440 C2445 1.371 . S
C2441 H2407 0.930 . S
C2441 C2440 1.358 1_455 S
C2441 C2442 1.405 . S
C2442 H2408 0.932 . S
C2442 C2441 1.405 . S
C2442 C2443 1.383 1_455 S
C2443 C2442 1.383 1_655 S
C2443 C2444 1.393 . S
C2444 H2409 0.931 . S
C2444 C2443 1.393 . S
C2444 C2445 1.382 . S
C2445 H2410 0.929 . S
C2445 C2440 1.371 . S
C2445 C2444 1.382 . S
C2446 N2414 1.423 . S
C2446 C2447 1.362 . S
C2446 C2451 1.388 . S
C2447 H2411 0.929 . S
C2447 C2446 1.362 . S
C2447 C2448 1.376 . S
C2448 H2412 0.931 . S
C2448 C2447 1.376 . S
C2448 C2449 1.396 . S
C2449 C2431 1.472 . S
C2449 C2448 1.396 . S
C2449 C2450 1.348 . S
C2450 H2413 0.929 . S
C2450 C2449 1.348 . S
C2450 C2451 1.443 . S
C2451 H2415 0.932 1_655 S
C2451 C2446 1.388 . S
C2451 C2450 1.443 . S
H2452 C2479 0.929 . S
N2453 C2478 1.433 . S
N2453 C2484 1.435 . S
N2453 C2490 1.423 . S
H2454 C2480 0.930 . S
H2455 C2483 0.931 . S
H2456 C2482 0.929 . S
H2457 C2485 0.930 . S
H2458 C2486 0.932 . S
H2459 C2489 0.929 . S
H2460 C2488 0.931 . S
H2461 C2491 0.929 . S
H2462 C2495 0.932 . S
H2463 C2492 0.931 . S
H2464 C2494 0.929 . S
H2465 C2497 0.929 . S
H2466 C2498 0.930 . S
H2467 C2500 0.929 . S
H2468 C2501 0.931 . S
H2469 C2503 0.930 . S
H2470 C2504 0.932 . S
H2471 C2506 0.931 . S
H2472 C2507 0.929 . S
H2473 C2509 0.929 . S
H2474 C2510 0.931 . S
H2475 C2512 0.929 . S
N2476 C2496 1.433 . S
N2476 C2502 1.435 . S
N2476 C2508 1.423 . S
H2477 C2513 0.932 . S
C2478 N2453 1.433 . S
C2478 C2479 1.363 . S
C2478 C2483 1.370 . S
C2479 H2452 0.929 . S
C2479 C2478 1.363 . S
C2479 C2480 1.385 . S
C2480 H2454 0.930 . S
C2480 C2479 1.385 . S
C2480 C2481 1.357 . S
C2481 C2480 1.357 . S
C2481 C2482 1.406 . S
C2482 H2456 0.929 . S
C2482 C2481 1.406 . S
C2482 C2483 1.391 . S
C2483 H2455 0.931 . S
C2483 C2478 1.370 . S
C2483 C2482 1.391 . S
C2484 N2453 1.435 . S
C2484 C2485 1.358 . S
C2484 C2489 1.371 . S
C2485 H2457 0.930 . S
C2485 C2484 1.358 . S
C2485 C2486 1.405 . S
C2486 H2458 0.932 . S
C2486 C2485 1.405 . S
C2486 C2487 1.383 . S
C2487 C2486 1.383 . S
C2487 C2488 1.393 . S
C2488 H2460 0.931 . S
C2488 C2487 1.393 . S
C2488 C2489 1.382 . S
C2489 H2459 0.929 . S
C2489 C2484 1.371 . S
C2489 C2488 1.382 . S
C2490 N2453 1.423 . S
C2490 C2491 1.362 . S
C2490 C2495 1.388 . S
C2491 H2461 0.929 . S
C2491 C2490 1.362 . S
C2491 C2492 1.376 . S
C2492 H2463 0.931 . S
C2492 C2491 1.376 . S
C2492 C2493 1.396 . S
C2493 C2492 1.396 . S
C2493 C2494 1.348 . S
C2493 C2511 1.472 . S
C2494 H2464 0.929 . S
C2494 C2493 1.348 . S
C2494 C2495 1.443 . S
C2495 H2462 0.932 . S
C2495 C2490 1.388 . S
C2495 C2494 1.443 . S
C2496 N2476 1.433 . S
C2496 C2497 1.363 . S
C2496 C2501 1.370 . S
C2497 H2465 0.929 . S
C2497 C2496 1.363 . S
C2497 C2498 1.385 . S
C2498 H2466 0.930 . S
C2498 C2497 1.385 . S
C2498 C2499 1.357 . S
C2499 C2498 1.357 . S
C2499 C2500 1.406 . S
C2500 H2467 0.929 . S
C2500 C2499 1.406 . S
C2500 C2501 1.391 . S
C2501 H2468 0.931 . S
C2501 C2496 1.370 . S
C2501 C2500 1.391 . S
C2502 N2476 1.435 . S
C2502 C2503 1.358 . S
C2502 C2507 1.371 . S
C2503 H2469 0.930 . S
C2503 C2502 1.358 . S
C2503 C2504 1.405 . S
C2504 H2470 0.932 . S
C2504 C2503 1.405 . S
C2504 C2505 1.383 . S
C2505 C2504 1.383 . S
C2505 C2506 1.393 . S
C2506 H2471 0.931 . S
C2506 C2505 1.393 . S
C2506 C2507 1.382 . S
C2507 H2472 0.929 . S
C2507 C2502 1.371 . S
C2507 C2506 1.382 . S
C2508 N2476 1.423 . S
C2508 C2509 1.362 . S
C2508 C2513 1.388 . S
C2509 H2473 0.929 . S
C2509 C2508 1.362 . S
C2509 C2510 1.376 . S
C2510 H2474 0.931 . S
C2510 C2509 1.376 . S
C2510 C2511 1.396 . S
C2511 C2493 1.472 . S
C2511 C2510 1.396 . S
C2511 C2512 1.348 . S
C2512 H2475 0.929 . S
C2512 C2511 1.348 . S
C2512 C2513 1.443 . S
C2513 H2477 0.932 . S
C2513 C2508 1.388 . S
C2513 C2512 1.443 . S
H2514 C2541 0.929 . S
N2515 C2540 1.433 . S
N2515 C2546 1.435 . S
N2515 C2552 1.423 . S
H2516 C2542 0.930 . S
H2517 C2545 0.931 . S
H2518 C2544 0.929 . S
H2519 C2547 0.930 . S
H2520 C2548 0.932 . S
H2521 C2551 0.929 . S
H2522 C2550 0.931 . S
H2523 C2553 0.929 . S
H2524 C2557 0.932 . S
H2525 C2554 0.931 . S
H2526 C2556 0.929 . S
H2527 C2559 0.929 . S
H2528 C2560 0.930 . S
H2529 C2562 0.929 . S
H2530 C2563 0.931 . S
H2531 C2565 0.930 . S
H2532 C2566 0.932 . S
H2533 C2568 0.931 . S
H2534 C2569 0.929 . S
H2535 C2571 0.929 . S
H2536 C2572 0.931 . S
H2537 C2574 0.929 . S
N2538 C2558 1.433 . S
N2538 C2564 1.435 . S
N2538 C2570 1.423 . S
H2539 C2575 0.932 . S
C2540 N2515 1.433 . S
C2540 C2541 1.363 . S
C2540 C2545 1.370 . S
C2541 H2514 0.929 . S
C2541 C2540 1.363 . S
C2541 C2542 1.385 . S
C2542 H2516 0.930 . S
C2542 C2541 1.385 . S
C2542 C2543 1.357 . S
C2543 C2542 1.357 . S
C2543 C2544 1.406 . S
C2544 H2518 0.929 . S
C2544 C2543 1.406 . S
C2544 C2545 1.391 . S
C2545 H2517 0.931 . S
C2545 C2540 1.370 . S
C2545 C2544 1.391 . S
C2546 N2515 1.435 . S
C2546 C2547 1.358 . S
C2546 C2551 1.371 . S
C2547 H2519 0.930 . S
C2547 C2546 1.358 . S
C2547 C2548 1.405 . S
C2548 H2520 0.932 . S
C2548 C2547 1.405 . S
C2548 C2549 1.383 . S
C2549 C2548 1.383 . S
C2549 C2550 1.393 . S
C2550 H2522 0.931 . S
C2550 C2549 1.393 . S
C2550 C2551 1.382 . S
C2551 H2521 0.929 . S
C2551 C2546 1.371 . S
C2551 C2550 1.382 . S
C2552 N2515 1.423 . S
C2552 C2553 1.362 . S
C2552 C2557 1.388 . S
C2553 H2523 0.929 . S
C2553 C2552 1.362 . S
C2553 C2554 1.376 . S
C2554 H2525 0.931 . S
C2554 C2553 1.376 . S
C2554 C2555 1.396 . S
C2555 C2554 1.396 . S
C2555 C2556 1.348 . S
C2555 C2573 1.472 . S
C2556 H2526 0.929 . S
C2556 C2555 1.348 . S
C2556 C2557 1.443 . S
C2557 H2524 0.932 . S
C2557 C2552 1.388 . S
C2557 C2556 1.443 . S
C2558 N2538 1.433 . S
C2558 C2559 1.363 . S
C2558 C2563 1.370 . S
C2559 H2527 0.929 . S
C2559 C2558 1.363 . S
C2559 C2560 1.385 . S
C2560 H2528 0.930 . S
C2560 C2559 1.385 . S
C2560 C2561 1.357 . S
C2561 C2560 1.357 . S
C2561 C2562 1.406 . S
C2562 H2529 0.929 . S
C2562 C2561 1.406 . S
C2562 C2563 1.391 . S
C2563 H2530 0.931 . S
C2563 C2558 1.370 . S
C2563 C2562 1.391 . S
C2564 N2538 1.435 . S
C2564 C2565 1.358 . S
C2564 C2569 1.371 . S
C2565 H2531 0.930 . S
C2565 C2564 1.358 . S
C2565 C2566 1.405 . S
C2566 H2532 0.932 . S
C2566 C2565 1.405 . S
C2566 C2567 1.383 . S
C2567 C2566 1.383 . S
C2567 C2568 1.393 . S
C2568 H2533 0.931 . S
C2568 C2567 1.393 . S
C2568 C2569 1.382 . S
C2569 H2534 0.929 . S
C2569 C2564 1.371 . S
C2569 C2568 1.382 . S
C2570 N2538 1.423 . S
C2570 C2571 1.362 . S
C2570 C2575 1.388 . S
C2571 H2535 0.929 . S
C2571 C2570 1.362 . S
C2571 C2572 1.376 . S
C2572 H2536 0.931 . S
C2572 C2571 1.376 . S
C2572 C2573 1.396 . S
C2573 C2555 1.472 . S
C2573 C2572 1.396 . S
C2573 C2574 1.348 . S
C2574 H2537 0.929 . S
C2574 C2573 1.348 . S
C2574 C2575 1.443 . S
C2575 H2539 0.932 . S
C2575 C2570 1.388 . S
C2575 C2574 1.443 . S
H2576 C2603 0.929 . S
N2577 C2602 1.433 . S
N2577 C2608 1.435 . S
N2577 C2614 1.423 . S
H2578 C2604 0.930 . S
H2579 C2607 0.931 . S
H2580 C2606 0.929 . S
H2581 C2609 0.930 . S
H2582 C2610 0.932 . S
H2583 C2613 0.929 . S
H2584 C2612 0.931 . S
H2585 C2615 0.929 . S
H2586 C2619 0.932 . S
H2587 C2616 0.931 . S
H2588 C2618 0.929 . S
H2589 C2621 0.929 . S
H2590 C2622 0.930 . S
H2591 C2624 0.929 . S
H2592 C2625 0.931 . S
H2593 C2627 0.930 . S
H2594 C2628 0.932 . S
H2595 C2630 0.931 . S
H2596 C2631 0.929 . S
H2597 C2633 0.929 . S
H2598 C2634 0.931 . S
H2599 C2636 0.929 . S
N2600 C2620 1.433 . S
N2600 C2626 1.435 . S
N2600 C2632 1.423 . S
H2601 C2637 0.932 . S
C2602 N2577 1.433 . S
C2602 C2603 1.363 . S
C2602 C2607 1.370 . S
C2603 H2576 0.929 . S
C2603 C2602 1.363 . S
C2603 C2604 1.385 . S
C2604 H2578 0.930 . S
C2604 C2603 1.385 . S
C2604 C2605 1.357 . S
C2605 C2604 1.357 . S
C2605 C2606 1.406 . S
C2606 H2580 0.929 . S
C2606 C2605 1.406 . S
C2606 C2607 1.391 . S
C2607 H2579 0.931 . S
C2607 C2602 1.370 . S
C2607 C2606 1.391 . S
C2608 N2577 1.435 . S
C2608 C2609 1.358 . S
C2608 C2613 1.371 . S
C2609 H2581 0.930 . S
C2609 C2608 1.358 . S
C2609 C2610 1.405 . S
C2610 H2582 0.932 . S
C2610 C2609 1.405 . S
C2610 C2611 1.383 . S
C2611 C2610 1.383 . S
C2611 C2612 1.393 . S
C2612 H2584 0.931 . S
C2612 C2611 1.393 . S
C2612 C2613 1.382 . S
C2613 H2583 0.929 . S
C2613 C2608 1.371 . S
C2613 C2612 1.382 . S
C2614 N2577 1.423 . S
C2614 C2615 1.362 . S
C2614 C2619 1.388 . S
C2615 H2585 0.929 . S
C2615 C2614 1.362 . S
C2615 C2616 1.376 . S
C2616 H2587 0.931 . S
C2616 C2615 1.376 . S
C2616 C2617 1.396 . S
C2617 C2616 1.396 . S
C2617 C2618 1.348 . S
C2617 C2635 1.472 . S
C2618 H2588 0.929 . S
C2618 C2617 1.348 . S
C2618 C2619 1.443 . S
C2619 H2586 0.932 . S
C2619 C2614 1.388 . S
C2619 C2618 1.443 . S
C2620 N2600 1.433 . S
C2620 C2621 1.363 . S
C2620 C2625 1.370 . S
C2621 H2589 0.929 . S
C2621 C2620 1.363 . S
C2621 C2622 1.385 . S
C2622 H2590 0.930 . S
C2622 C2621 1.385 . S
C2622 C2623 1.357 . S
C2623 C2622 1.357 . S
C2623 C2624 1.406 . S
C2624 H2591 0.929 . S
C2624 C2623 1.406 . S
C2624 C2625 1.391 . S
C2625 H2592 0.931 . S
C2625 C2620 1.370 . S
C2625 C2624 1.391 . S
C2626 N2600 1.435 . S
C2626 C2627 1.358 . S
C2626 C2631 1.371 . S
C2627 H2593 0.930 . S
C2627 C2626 1.358 . S
C2627 C2628 1.405 . S
C2628 H2594 0.932 . S
C2628 C2627 1.405 . S
C2628 C2629 1.383 . S
C2629 C2628 1.383 . S
C2629 C2630 1.393 . S
C2630 H2595 0.931 . S
C2630 C2629 1.393 . S
C2630 C2631 1.382 . S
C2631 H2596 0.929 . S
C2631 C2626 1.371 . S
C2631 C2630 1.382 . S
C2632 N2600 1.423 . S
C2632 C2633 1.362 . S
C2632 C2637 1.388 . S
C2633 H2597 0.929 . S
C2633 C2632 1.362 . S
C2633 C2634 1.376 . S
C2634 H2598 0.931 . S
C2634 C2633 1.376 . S
C2634 C2635 1.396 . S
C2635 C2617 1.472 . S
C2635 C2634 1.396 . S
C2635 C2636 1.348 . S
C2636 H2599 0.929 . S
C2636 C2635 1.348 . S
C2636 C2637 1.443 . S
C2637 H2601 0.932 . S
C2637 C2632 1.388 . S
C2637 C2636 1.443 . S
H2638 C2665 0.929 . S
N2639 C2664 1.433 . S
N2639 C2670 1.435 . S
N2639 C2676 1.423 . S
H2640 C2666 0.930 . S
H2641 C2669 0.931 . S
H2642 C2668 0.929 . S
H2643 C2671 0.930 . S
H2644 C2672 0.932 . S
H2645 C2675 0.929 . S
H2646 C2674 0.931 . S
H2647 C2677 0.929 . S
H2648 C2681 0.932 . S
H2649 C2678 0.931 . S
H2650 C2680 0.929 . S
H2651 C2683 0.929 . S
H2652 C2684 0.930 . S
H2653 C2686 0.929 . S
H2654 C2687 0.931 . S
H2655 C2689 0.930 . S
H2656 C2690 0.932 . S
H2657 C2692 0.931 . S
H2658 C2693 0.929 . S
H2659 C2695 0.929 . S
H2660 C2696 0.931 . S
H2661 C2698 0.929 . S
N2662 C2682 1.433 . S
N2662 C2688 1.435 . S
N2662 C2694 1.423 . S
H2663 C2699 0.932 . S
C2664 N2639 1.433 . S
C2664 C2665 1.363 . S
C2664 C2669 1.370 . S
C2665 H2638 0.929 . S
C2665 C2664 1.363 . S
C2665 C2666 1.385 . S
C2666 H2640 0.930 . S
C2666 C2665 1.385 . S
C2666 C2667 1.357 . S
C2667 C2666 1.357 . S
C2667 C2668 1.406 . S
C2668 H2642 0.929 . S
C2668 C2667 1.406 . S
C2668 C2669 1.391 . S
C2669 H2641 0.931 . S
C2669 C2664 1.370 . S
C2669 C2668 1.391 . S
C2670 N2639 1.435 . S
C2670 C2671 1.358 . S
C2670 C2675 1.371 . S
C2671 H2643 0.930 . S
C2671 C2670 1.358 . S
C2671 C2672 1.405 . S
C2672 H2644 0.932 . S
C2672 C2671 1.405 . S
C2672 C2673 1.383 . S
C2673 C2672 1.383 . S
C2673 C2674 1.393 . S
C2674 H2646 0.931 . S
C2674 C2673 1.393 . S
C2674 C2675 1.382 . S
C2675 H2645 0.929 . S
C2675 C2670 1.371 . S
C2675 C2674 1.382 . S
C2676 N2639 1.423 . S
C2676 C2677 1.362 . S
C2676 C2681 1.388 . S
C2677 H2647 0.929 . S
C2677 C2676 1.362 . S
C2677 C2678 1.376 . S
C2678 H2649 0.931 . S
C2678 C2677 1.376 . S
C2678 C2679 1.396 . S
C2679 C2678 1.396 . S
C2679 C2680 1.348 . S
C2679 C2697 1.472 . S
C2680 H2650 0.929 . S
C2680 C2679 1.348 . S
C2680 C2681 1.443 . S
C2681 H2648 0.932 . S
C2681 C2676 1.388 . S
C2681 C2680 1.443 . S
C2682 N2662 1.433 . S
C2682 C2683 1.363 . S
C2682 C2687 1.370 . S
C2683 H2651 0.929 . S
C2683 C2682 1.363 . S
C2683 C2684 1.385 . S
C2684 H2652 0.930 . S
C2684 C2683 1.385 . S
C2684 C2685 1.357 . S
C2685 C2684 1.357 . S
C2685 C2686 1.406 . S
C2686 H2653 0.929 . S
C2686 C2685 1.406 . S
C2686 C2687 1.391 . S
C2687 H2654 0.931 . S
C2687 C2682 1.370 . S
C2687 C2686 1.391 . S
C2688 N2662 1.435 . S
C2688 C2689 1.358 . S
C2688 C2693 1.371 . S
C2689 H2655 0.930 . S
C2689 C2688 1.358 . S
C2689 C2690 1.405 . S
C2690 H2656 0.932 . S
C2690 C2689 1.405 . S
C2690 C2691 1.383 . S
C2691 C2690 1.383 . S
C2691 C2692 1.393 . S
C2692 H2657 0.931 . S
C2692 C2691 1.393 . S
C2692 C2693 1.382 . S
C2693 H2658 0.929 . S
C2693 C2688 1.371 . S
C2693 C2692 1.382 . S
C2694 N2662 1.423 . S
C2694 C2695 1.362 . S
C2694 C2699 1.388 . S
C2695 H2659 0.929 . S
C2695 C2694 1.362 . S
C2695 C2696 1.376 . S
C2696 H2660 0.931 . S
C2696 C2695 1.376 . S
C2696 C2697 1.396 . S
C2697 C2679 1.472 . S
C2697 C2696 1.396 . S
C2697 C2698 1.348 . S
C2698 H2661 0.929 . S
C2698 C2697 1.348 . S
C2698 C2699 1.443 . S
C2699 H2663 0.932 . S
C2699 C2694 1.388 . S
C2699 C2698 1.443 . S
C2700 C2701 1.363 . S
C2700 C2706 1.379 . S
C2700 N2708 1.356 . S
C2701 C2700 1.363 . S
C2701 C2707 1.363 1_655 S
C2702 C2703 1.363 1_455 S
C2702 C2707 1.379 . S
C2702 N2709 1.356 . S
C2703 C2702 1.363 1_655 S
C2703 C2706 1.363 . S
N2704 C2706 1.356 . S
N2704 H2716 0.984 . S
N2704 H2717 0.985 . S
N2705 C2707 1.356 . S
N2705 H2710 0.984 . S
N2705 H2711 0.985 . S
C2706 C2700 1.379 . S
C2706 C2703 1.363 . S
C2706 N2704 1.356 . S
C2707 C2701 1.363 1_455 S
C2707 C2702 1.379 . S
C2707 N2705 1.356 . S
N2708 C2700 1.356 . S
N2708 H2714 0.984 . S
N2708 H2715 0.984 . S
N2709 C2702 1.356 . S
N2709 H2712 0.984 . S
N2709 H2713 0.985 . S
H2710 N2705 0.984 . S
H2711 N2705 0.985 . S
H2712 N2709 0.984 . S
H2713 N2709 0.985 . S
H2714 N2708 0.984 . S
H2715 N2708 0.984 . S
H2716 N2704 0.984 . S
H2717 N2704 0.985 . S
C2718 C2719 1.363 . S
C2718 C2724 1.379 . S
C2718 N2726 1.356 . S
C2719 C2718 1.363 . S
C2719 C2725 1.363 . S
C2720 C2721 1.363 . S
C2720 C2725 1.379 . S
C2720 N2727 1.356 . S
C2721 C2720 1.363 . S
C2721 C2724 1.363 . S
N2722 C2724 1.356 . S
N2722 H2734 0.984 . S
N2722 H2735 0.985 . S
N2723 C2725 1.356 . S
N2723 H2728 0.984 . S
N2723 H2729 0.985 . S
C2724 C2718 1.379 . S
C2724 C2721 1.363 . S
C2724 N2722 1.356 . S
C2725 C2719 1.363 . S
C2725 C2720 1.379 . S
C2725 N2723 1.356 . S
N2726 C2718 1.356 . S
N2726 H2732 0.984 . S
N2726 H2733 0.984 . S
N2727 C2720 1.356 . S
N2727 H2730 0.984 . S
N2727 H2731 0.985 . S
H2728 N2723 0.984 . S
H2729 N2723 0.985 . S
H2730 N2727 0.984 . S
H2731 N2727 0.985 . S
H2732 N2726 0.984 . S
H2733 N2726 0.984 . S
H2734 N2722 0.984 . S
H2735 N2722 0.985 . S
C2736 C2737 1.363 . S
C2736 C2742 1.379 . S
C2736 N2744 1.356 . S
C2737 C2736 1.363 . S
C2737 C2743 1.363 . S
C2738 C2739 1.363 . S
C2738 C2743 1.379 . S
C2738 N2745 1.356 . S
C2739 C2738 1.363 . S
C2739 C2742 1.363 . S
N2740 C2742 1.361 . S
N2740 H2752 0.987 1_545 S
N2740 H2753 0.962 1_545 S
N2741 C2743 1.356 . S
N2741 H2746 0.984 . S
N2741 H2747 0.985 . S
C2742 C2736 1.379 . S
C2742 C2739 1.363 . S
C2742 N2740 1.361 . S
C2743 C2737 1.363 . S
C2743 C2738 1.379 . S
C2743 N2741 1.356 . S
N2744 C2736 1.356 . S
N2744 H2750 0.984 . S
N2744 H2751 0.984 . S
N2745 C2738 1.356 . S
N2745 H2748 0.984 . S
N2745 H2749 0.985 . S
H2746 N2741 0.984 . S
H2747 N2741 0.985 . S
H2748 N2745 0.984 . S
H2749 N2745 0.985 . S
H2750 N2744 0.984 . S
H2751 N2744 0.984 . S
H2752 N2740 0.987 1_565 S
H2753 N2740 0.962 1_565 S
C2754 C2755 1.363 . S
C2754 C2760 1.379 . S
C2754 N2762 1.356 . S
C2755 C2754 1.363 . S
C2755 C2761 1.363 . S
C2756 C2757 1.288 1_545 S
C2756 C2761 1.403 1_545 S
C2756 N2763 1.392 . S
C2757 C2756 1.288 1_565 S
C2757 C2760 1.363 . S
N2758 C2760 1.356 . S
N2758 H2770 0.984 . S
N2758 H2771 0.985 . S
N2759 C2761 1.356 1_545 S
N2759 H2764 0.986 . S
N2759 H2765 0.985 . S
C2760 C2754 1.379 . S
C2760 C2757 1.363 . S
C2760 N2758 1.356 . S
C2761 C2755 1.363 . S
C2761 C2756 1.403 1_565 S
C2761 N2759 1.356 1_565 S
N2762 C2754 1.356 . S
N2762 H2768 0.984 . S
N2762 H2769 0.984 . S
N2763 C2756 1.392 . S
N2763 H2766 0.984 . S
N2763 H2767 0.985 . S
H2764 N2759 0.986 . S
H2765 N2759 0.985 . S
H2766 N2763 0.984 . S
H2767 N2763 0.985 . S
H2768 N2762 0.984 . S
H2769 N2762 0.984 . S
H2770 N2758 0.984 . S
H2771 N2758 0.985 . S
C2772 C2773 1.363 . S
C2772 C2778 1.379 . S
C2772 N2780 1.356 . S
C2773 C2772 1.363 . S
C2773 C2779 1.363 . S
C2774 C2775 1.363 . S
C2774 C2779 1.379 . S
C2774 N2781 1.356 . S
C2775 C2774 1.363 . S
C2775 C2778 1.363 . S
N2776 C2778 1.356 . S
N2776 H2788 0.984 . S
N2776 H2789 0.985 . S
N2777 C2779 1.356 . S
N2777 H2782 0.984 . S
N2777 H2783 0.985 . S
C2778 C2772 1.379 . S
C2778 C2775 1.363 . S
C2778 N2776 1.356 . S
C2779 C2773 1.363 . S
C2779 C2774 1.379 . S
C2779 N2777 1.356 . S
N2780 C2772 1.356 . S
N2780 H2786 0.984 . S
N2780 H2787 0.984 . S
N2781 C2774 1.356 . S
N2781 H2784 0.984 . S
N2781 H2785 0.985 . S
H2782 N2777 0.984 . S
H2783 N2777 0.985 . S
H2784 N2781 0.984 . S
H2785 N2781 0.985 . S
H2786 N2780 0.984 . S
H2787 N2780 0.984 . S
H2788 N2776 0.984 . S
H2789 N2776 0.985 . S
C2790 C2791 1.363 . S
C2790 C2796 1.379 . S
C2790 N2798 1.356 . S
C2791 C2790 1.363 . S
C2791 C2797 1.363 . S
C2792 C2793 1.363 . S
C2792 C2797 1.379 . S
C2792 N2799 1.356 . S
C2793 C2792 1.363 . S
C2793 C2796 1.363 . S
N2794 C2796 1.356 . S
N2794 H2806 0.984 . S
N2794 H2807 0.985 . S
N2795 C2797 1.356 . S
N2795 H2800 0.984 . S
N2795 H2801 0.985 . S
C2796 C2790 1.379 . S
C2796 C2793 1.363 . S
C2796 N2794 1.356 . S
C2797 C2791 1.363 . S
C2797 C2792 1.379 . S
C2797 N2795 1.356 . S
N2798 C2790 1.356 . S
N2798 H2804 0.984 . S
N2798 H2805 0.984 . S
N2799 C2792 1.356 . S
N2799 H2802 0.984 . S
N2799 H2803 0.985 . S
H2800 N2795 0.984 . S
H2801 N2795 0.985 . S
H2802 N2799 0.984 . S
H2803 N2799 0.985 . S
H2804 N2798 0.984 . S
H2805 N2798 0.984 . S
H2806 N2794 0.984 . S
H2807 N2794 0.985 . S
C2808 C2809 1.363 . S
C2808 C2814 1.379 . S
C2808 N2816 1.356 . S
C2809 C2808 1.363 . S
C2809 C2815 1.363 . S
C2810 C2811 1.363 . S
C2810 C2815 1.379 . S
C2810 N2817 1.339 1_455 S
C2811 C2810 1.363 . S
C2811 C2814 1.363 . S
N2812 C2814 1.356 . S
N2812 H2824 0.984 . S
N2812 H2825 0.985 . S
N2813 C2815 1.356 . S
N2813 H2818 0.984 . S
N2813 H2819 1.022 . S
C2814 C2808 1.379 . S
C2814 C2811 1.363 . S
C2814 N2812 1.356 . S
C2815 C2809 1.363 . S
C2815 C2810 1.379 . S
C2815 N2813 1.356 . S
N2816 C2808 1.356 . S
N2816 H2822 0.984 . S
N2816 H2823 0.984 . S
N2817 C2810 1.339 1_655 S
N2817 H2820 0.948 . S
N2817 H2821 1.048 . S
H2818 N2813 0.984 . S
H2819 N2813 1.022 . S
H2820 N2817 0.948 . S
H2821 N2817 1.048 . S
H2822 N2816 0.984 . S
H2823 N2816 0.984 . S
H2824 N2812 0.984 . S
H2825 N2812 0.985 . S
C2826 C2827 1.363 . S
C2826 C2832 1.379 . S
C2826 N2834 1.356 . S
C2827 C2826 1.363 . S
C2827 C2833 1.363 . S
C2828 C2829 1.363 . S
C2828 C2833 1.379 . S
C2828 N2835 1.356 . S
C2829 C2828 1.363 . S
C2829 C2832 1.363 . S
N2830 C2832 1.356 . S
N2830 H2842 0.984 . S
N2830 H2843 0.985 . S
N2831 C2833 1.356 . S
N2831 H2836 0.984 . S
N2831 H2837 0.985 . S
C2832 C2826 1.379 . S
C2832 C2829 1.363 . S
C2832 N2830 1.356 . S
C2833 C2827 1.363 . S
C2833 C2828 1.379 . S
C2833 N2831 1.356 . S
N2834 C2826 1.356 . S
N2834 H2840 0.984 . S
N2834 H2841 0.984 . S
N2835 C2828 1.356 . S
N2835 H2838 0.984 . S
N2835 H2839 0.985 . S
H2836 N2831 0.984 . S
H2837 N2831 0.985 . S
H2838 N2835 0.984 . S
H2839 N2835 0.985 . S
H2840 N2834 0.984 . S
H2841 N2834 0.984 . S
H2842 N2830 0.984 . S
H2843 N2830 0.985 . S
C2844 C2845 1.363 . S
C2844 C2850 1.379 . S
C2844 N2852 1.356 . S
C2845 C2844 1.363 . S
C2845 C2851 1.363 . S
C2846 C2847 1.363 . S
C2846 C2851 1.379 . S
C2846 N2853 1.356 . S
C2847 C2846 1.363 . S
C2847 C2850 1.363 . S
N2848 C2850 1.397 . S
N2848 H2860 0.964 1_565 S
N2848 H2861 0.970 1_565 S
N2849 C2851 1.356 . S
N2849 H2854 0.984 . S
N2849 H2855 0.985 . S
C2850 C2844 1.379 . S
C2850 C2847 1.363 . S
C2850 N2848 1.397 . S
C2851 C2845 1.363 . S
C2851 C2846 1.379 . S
C2851 N2849 1.356 . S
N2852 C2844 1.356 . S
N2852 H2858 0.984 . S
N2852 H2859 0.984 . S
N2853 C2846 1.356 . S
N2853 H2856 0.984 . S
N2853 H2857 0.985 . S
H2854 N2849 0.984 . S
H2855 N2849 0.985 . S
H2856 N2853 0.984 . S
H2857 N2853 0.985 . S
H2858 N2852 0.984 . S
H2859 N2852 0.984 . S
H2860 N2848 0.964 1_545 S
H2861 N2848 0.970 1_545 S
C2862 C2863 1.363 . S
C2862 C2868 1.366 . S
C2862 N2870 1.356 1_545 S
C2863 C2862 1.363 . S
C2863 C2869 1.363 . S
C2864 C2865 1.363 . S
C2864 C2869 1.379 . S
C2864 N2871 1.356 . S
C2865 C2864 1.363 . S
C2865 C2868 1.389 . S
N2866 C2868 1.354 1_565 S
N2866 H2878 0.984 . S
N2866 H2879 0.985 . S
N2867 C2869 1.356 . S
N2867 H2872 0.984 . S
N2867 H2873 0.985 . S
C2868 C2862 1.366 . S
C2868 C2865 1.389 . S
C2868 N2866 1.354 1_545 S
C2869 C2863 1.363 . S
C2869 C2864 1.379 . S
C2869 N2867 1.356 . S
N2870 C2862 1.356 1_565 S
N2870 H2876 0.984 . S
N2870 H2877 0.984 1_565 S
N2871 C2864 1.356 . S
N2871 H2874 0.984 . S
N2871 H2875 0.985 . S
H2872 N2867 0.984 . S
H2873 N2867 0.985 . S
H2874 N2871 0.984 . S
H2875 N2871 0.985 . S
H2876 N2870 0.984 . S
H2877 N2870 0.984 1_545 S
H2878 N2866 0.984 . S
H2879 N2866 0.985 . S
C2880 C2881 1.363 . S
C2880 C2886 1.379 . S
C2880 N2888 1.356 . S
C2881 C2880 1.363 . S
C2881 C2887 1.363 . S
C2882 C2883 1.363 . S
C2882 C2887 1.379 . S
C2882 N2889 1.356 . S
C2883 C2882 1.363 . S
C2883 C2886 1.363 . S
N2884 C2886 1.356 . S
N2884 H2896 0.984 . S
N2884 H2897 0.985 . S
N2885 C2887 1.356 . S
N2885 H2890 0.984 . S
N2885 H2891 0.985 . S
C2886 C2880 1.379 . S
C2886 C2883 1.363 . S
C2886 N2884 1.356 . S
C2887 C2881 1.363 . S
C2887 C2882 1.379 . S
C2887 N2885 1.356 . S
N2888 C2880 1.356 . S
N2888 H2894 0.984 . S
N2888 H2895 0.984 . S
N2889 C2882 1.356 . S
N2889 H2892 0.984 . S
N2889 H2893 0.985 . S
H2890 N2885 0.984 . S
H2891 N2885 0.985 . S
H2892 N2889 0.984 . S
H2893 N2889 0.985 . S
H2894 N2888 0.984 . S
H2895 N2888 0.984 . S
H2896 N2884 0.984 . S
H2897 N2884 0.985 . S
C2898 C2899 1.363 . S
C2898 C2904 1.379 . S
C2898 N2906 1.356 . S
C2899 C2898 1.363 . S
C2899 C2905 1.363 . S
C2900 C2901 1.363 . S
C2900 C2905 1.379 . S
C2900 N2907 1.356 . S
C2901 C2900 1.363 . S
C2901 C2904 1.363 . S
N2902 C2904 1.356 . S
N2902 H2914 0.984 . S
N2902 H2915 0.985 . S
N2903 C2905 1.356 . S
N2903 H2908 0.984 . S
N2903 H2909 0.985 . S
C2904 C2898 1.379 . S
C2904 C2901 1.363 . S
C2904 N2902 1.356 . S
C2905 C2899 1.363 . S
C2905 C2900 1.379 . S
C2905 N2903 1.356 . S
N2906 C2898 1.356 . S
N2906 H2912 0.984 . S
N2906 H2913 0.984 . S
N2907 C2900 1.356 . S
N2907 H2910 0.984 . S
N2907 H2911 0.985 . S
H2908 N2903 0.984 . S
H2909 N2903 0.985 . S
H2910 N2907 0.984 . S
H2911 N2907 0.985 . S
H2912 N2906 0.984 . S
H2913 N2906 0.984 . S
H2914 N2902 0.984 . S
H2915 N2902 0.985 . S
C2916 C2917 1.363 . S
C2916 C2922 1.379 . S
C2916 N2924 1.356 . S
C2917 C2916 1.363 . S
C2917 C2923 1.363 . S
C2918 C2919 1.363 . S
C2918 C2923 1.379 . S
C2918 N2925 1.356 . S
C2919 C2918 1.363 . S
C2919 C2922 1.363 . S
N2920 C2922 1.356 . S
N2920 H2932 0.984 . S
N2920 H2933 0.985 . S
N2921 C2923 1.356 . S
N2921 H2926 0.984 . S
N2921 H2927 0.985 . S
C2922 C2916 1.379 . S
C2922 C2919 1.363 . S
C2922 N2920 1.356 . S
C2923 C2917 1.363 . S
C2923 C2918 1.379 . S
C2923 N2921 1.356 . S
N2924 C2916 1.356 . S
N2924 H2930 0.984 . S
N2924 H2931 0.984 . S
N2925 C2918 1.356 . S
N2925 H2928 0.984 . S
N2925 H2929 0.985 . S
H2926 N2921 0.984 . S
H2927 N2921 0.985 . S
H2928 N2925 0.984 . S
H2929 N2925 0.985 . S
H2930 N2924 0.984 . S
H2931 N2924 0.984 . S
H2932 N2920 0.984 . S
H2933 N2920 0.985 . S
C2934 C2935 1.363 . S
C2934 C2940 1.379 . S
C2934 N2942 1.356 . S
C2935 C2934 1.363 . S
C2935 C2941 1.363 . S
C2936 C2937 1.363 . S
C2936 C2941 1.379 . S
C2936 N2943 1.356 . S
C2937 C2936 1.363 . S
C2937 C2940 1.363 . S
N2938 C2940 1.356 . S
N2938 H2950 0.984 . S
N2938 H2951 0.985 . S
N2939 C2941 1.356 . S
N2939 H2944 0.984 . S
N2939 H2945 0.985 . S
C2940 C2934 1.379 . S
C2940 C2937 1.363 . S
C2940 N2938 1.356 . S
C2941 C2935 1.363 . S
C2941 C2936 1.379 . S
C2941 N2939 1.356 . S
N2942 C2934 1.356 . S
N2942 H2948 0.984 . S
N2942 H2949 0.984 . S
N2943 C2936 1.356 . S
N2943 H2946 0.984 . S
N2943 H2947 0.985 . S
H2944 N2939 0.984 . S
H2945 N2939 0.985 . S
H2946 N2943 0.984 . S
H2947 N2943 0.985 . S
H2948 N2942 0.984 . S
H2949 N2942 0.984 . S
H2950 N2938 0.984 . S
H2951 N2938 0.985 . S
C2952 C2953 1.363 . S
C2952 C2958 1.379 . S
C2952 N2960 1.356 . S
C2953 C2952 1.363 . S
C2953 C2959 1.363 . S
C2954 C2955 1.363 . S
C2954 C2959 1.379 . S
C2954 N2961 1.356 . S
C2955 C2954 1.363 . S
C2955 C2958 1.363 . S
N2956 C2958 1.356 . S
N2956 H2968 0.984 . S
N2956 H2969 0.985 . S
N2957 C2959 1.356 . S
N2957 H2962 0.984 . S
N2957 H2963 0.985 . S
C2958 C2952 1.379 . S
C2958 C2955 1.363 . S
C2958 N2956 1.356 . S
C2959 C2953 1.363 . S
C2959 C2954 1.379 . S
C2959 N2957 1.356 . S
N2960 C2952 1.356 . S
N2960 H2966 0.984 . S
N2960 H2967 0.984 . S
N2961 C2954 1.356 . S
N2961 H2964 0.984 . S
N2961 H2965 0.985 . S
H2962 N2957 0.984 . S
H2963 N2957 0.985 . S
H2964 N2961 0.984 . S
H2965 N2961 0.985 . S
H2966 N2960 0.984 . S
H2967 N2960 0.984 . S
H2968 N2956 0.984 . S
H2969 N2956 0.985 . S
C2970 C2971 1.363 . S
C2970 C2976 1.379 . S
C2970 N2978 1.356 . S
C2971 C2970 1.363 . S
C2971 C2977 1.363 . S
C2972 C2973 1.363 . S
C2972 C2977 1.379 . S
C2972 N2979 1.356 . S
C2973 C2972 1.363 . S
C2973 C2976 1.363 . S
N2974 C2976 1.356 . S
N2974 H2986 0.984 . S
N2974 H2987 0.985 . S
N2975 C2977 1.356 . S
N2975 H2980 0.984 . S
N2975 H2981 0.985 . S
C2976 C2970 1.379 . S
C2976 C2973 1.363 . S
C2976 N2974 1.356 . S
C2977 C2971 1.363 . S
C2977 C2972 1.379 . S
C2977 N2975 1.356 . S
N2978 C2970 1.356 . S
N2978 H2984 0.984 . S
N2978 H2985 0.984 . S
N2979 C2972 1.356 . S
N2979 H2982 0.984 . S
N2979 H2983 0.985 . S
H2980 N2975 0.984 . S
H2981 N2975 0.985 . S
H2982 N2979 0.984 . S
H2983 N2979 0.985 . S
H2984 N2978 0.984 . S
H2985 N2978 0.984 . S
H2986 N2974 0.984 . S
H2987 N2974 0.985 . S
C2988 C2989 1.363 . S
C2988 C2994 1.379 . S
C2988 N2996 1.356 . S
C2989 C2988 1.363 . S
C2989 C2995 1.363 . S
C2990 C2991 1.363 . S
C2990 C2995 1.379 . S
C2990 N2997 1.356 . S
C2991 C2990 1.363 . S
C2991 C2994 1.363 . S
N2992 C2994 1.356 . S
N2992 H3004 0.984 . S
N2992 H3005 0.985 . S
N2993 C2995 1.356 . S
N2993 H2998 0.984 . S
N2993 H2999 0.985 . S
C2994 C2988 1.379 . S
C2994 C2991 1.363 . S
C2994 N2992 1.356 . S
C2995 C2989 1.363 . S
C2995 C2990 1.379 . S
C2995 N2993 1.356 . S
N2996 C2988 1.356 . S
N2996 H3002 0.984 . S
N2996 H3003 0.984 . S
N2997 C2990 1.356 . S
N2997 H3000 0.984 . S
N2997 H3001 0.985 . S
H2998 N2993 0.984 . S
H2999 N2993 0.985 . S
H3000 N2997 0.984 . S
H3001 N2997 0.985 . S
H3002 N2996 0.984 . S
H3003 N2996 0.984 . S
H3004 N2992 0.984 . S
H3005 N2992 0.985 . S
C3006 C3007 1.363 . S
C3006 C3012 1.379 . S
C3006 N3014 1.356 . S
C3007 C3006 1.363 . S
C3007 C3013 1.363 . S
C3008 C3009 1.363 . S
C3008 C3013 1.379 . S
C3008 N3015 1.356 . S
C3009 C3008 1.363 . S
C3009 C3012 1.363 . S
N3010 C3012 1.356 . S
N3010 H3022 0.984 . S
N3010 H3023 0.985 . S
N3011 C3013 1.356 . S
N3011 H3016 0.984 . S
N3011 H3017 0.985 . S
C3012 C3006 1.379 . S
C3012 C3009 1.363 . S
C3012 N3010 1.356 . S
C3013 C3007 1.363 . S
C3013 C3008 1.379 . S
C3013 N3011 1.356 . S
N3014 C3006 1.356 . S
N3014 H3020 0.984 . S
N3014 H3021 0.984 . S
N3015 C3008 1.356 . S
N3015 H3018 0.984 . S
N3015 H3019 0.985 . S
H3016 N3011 0.984 . S
H3017 N3011 0.985 . S
H3018 N3015 0.984 . S
H3019 N3015 0.985 . S
H3020 N3014 0.984 . S
H3021 N3014 0.984 . S
H3022 N3010 0.984 . S
H3023 N3010 0.985 . S
C3024 C3025 1.363 . S
C3024 C3030 1.379 . S
C3024 N3032 1.356 . S
C3025 C3024 1.363 . S
C3025 C3031 1.363 . S
C3026 C3027 1.363 . S
C3026 C3031 1.379 . S
C3026 N3033 1.356 . S
C3027 C3026 1.363 . S
C3027 C3030 1.363 . S
N3028 C3030 1.356 . S
N3028 H3040 0.984 . S
N3028 H3041 0.985 . S
N3029 C3031 1.356 . S
N3029 H3034 0.984 . S
N3029 H3035 0.985 . S
C3030 C3024 1.379 . S
C3030 C3027 1.363 . S
C3030 N3028 1.356 . S
C3031 C3025 1.363 . S
C3031 C3026 1.379 . S
C3031 N3029 1.356 . S
N3032 C3024 1.356 . S
N3032 H3038 0.984 . S
N3032 H3039 0.984 . S
N3033 C3026 1.356 . S
N3033 H3036 0.984 . S
N3033 H3037 0.985 . S
H3034 N3029 0.984 . S
H3035 N3029 0.985 . S
H3036 N3033 0.984 . S
H3037 N3033 0.985 . S
H3038 N3032 0.984 . S
H3039 N3032 0.984 . S
H3040 N3028 0.984 . S
H3041 N3028 0.985 . S
C3042 C3043 1.363 . S
C3042 C3048 1.379 . S
C3042 N3050 1.356 . S
C3043 C3042 1.363 . S
C3043 C3049 1.363 . S
C3044 C3045 1.363 . S
C3044 C3049 1.379 . S
C3044 N3051 1.356 . S
C3045 C3044 1.363 . S
C3045 C3048 1.363 . S
N3046 C3048 1.356 . S
N3046 H3058 0.984 . S
N3046 H3059 0.985 . S
N3047 C3049 1.356 . S
N3047 H3052 0.984 . S
N3047 H3053 0.985 . S
C3048 C3042 1.379 . S
C3048 C3045 1.363 . S
C3048 N3046 1.356 . S
C3049 C3043 1.363 . S
C3049 C3044 1.379 . S
C3049 N3047 1.356 . S
N3050 C3042 1.356 . S
N3050 H3056 0.984 . S
N3050 H3057 0.984 . S
N3051 C3044 1.356 . S
N3051 H3054 0.984 . S
N3051 H3055 0.985 . S
H3052 N3047 0.984 . S
H3053 N3047 0.985 . S
H3054 N3051 0.984 . S
H3055 N3051 0.985 . S
H3056 N3050 0.984 . S
H3057 N3050 0.984 . S
H3058 N3046 0.984 . S
H3059 N3046 0.985 . S
C3060 C3061 1.363 . S
C3060 C3066 1.379 . S
C3060 N3068 1.356 . S
C3061 C3060 1.363 . S
C3061 C3067 1.363 . S
C3062 C3063 1.363 . S
C3062 C3067 1.379 . S
C3062 N3069 1.356 . S
C3063 C3062 1.363 . S
C3063 C3066 1.363 . S
N3064 C3066 1.356 . S
N3064 H3076 0.984 . S
N3064 H3077 0.985 . S
N3065 C3067 1.356 . S
N3065 H3070 0.984 . S
N3065 H3071 0.985 . S
C3066 C3060 1.379 . S
C3066 C3063 1.363 . S
C3066 N3064 1.356 . S
C3067 C3061 1.363 . S
C3067 C3062 1.379 . S
C3067 N3065 1.356 . S
N3068 C3060 1.356 . S
N3068 H3074 0.984 . S
N3068 H3075 0.984 . S
N3069 C3062 1.356 . S
N3069 H3072 0.984 . S
N3069 H3073 0.985 . S
H3070 N3065 0.984 . S
H3071 N3065 0.985 . S
H3072 N3069 0.984 . S
H3073 N3069 0.985 . S
H3074 N3068 0.984 . S
H3075 N3068 0.984 . S
H3076 N3064 0.984 . S
H3077 N3064 0.985 . S
C3078 C3079 1.363 . S
C3078 C3084 1.379 . S
C3078 N3086 1.356 . S
C3079 C3078 1.363 . S
C3079 C3085 1.363 . S
C3080 C3081 1.363 . S
C3080 C3085 1.379 . S
C3080 N3087 1.356 . S
C3081 C3080 1.363 . S
C3081 C3084 1.363 . S
N3082 C3084 1.356 . S
N3082 H3094 0.984 . S
N3082 H3095 0.985 . S
N3083 C3085 1.356 . S
N3083 H3088 0.984 . S
N3083 H3089 0.985 . S
C3084 C3078 1.379 . S
C3084 C3081 1.363 . S
C3084 N3082 1.356 . S
C3085 C3079 1.363 . S
C3085 C3080 1.379 . S
C3085 N3083 1.356 . S
N3086 C3078 1.356 . S
N3086 H3092 0.984 . S
N3086 H3093 0.984 . S
N3087 C3080 1.356 . S
N3087 H3090 0.984 . S
N3087 H3091 0.985 . S
H3088 N3083 0.984 . S
H3089 N3083 0.985 . S
H3090 N3087 0.984 . S
H3091 N3087 0.985 . S
H3092 N3086 0.984 . S
H3093 N3086 0.984 . S
H3094 N3082 0.984 . S
H3095 N3082 0.985 . S
C3096 C3097 1.363 . S
C3096 C3102 1.379 . S
C3096 N3104 1.356 . S
C3097 C3096 1.363 . S
C3097 C3103 1.363 . S
C3098 C3099 1.363 . S
C3098 C3103 1.379 . S
C3098 N3105 1.356 . S
C3099 C3098 1.363 . S
C3099 C3102 1.363 . S
N3100 C3102 1.356 . S
N3100 H3112 0.984 . S
N3100 H3113 0.985 . S
N3101 C3103 1.356 . S
N3101 H3106 0.984 . S
N3101 H3107 0.985 . S
C3102 C3096 1.379 . S
C3102 C3099 1.363 . S
C3102 N3100 1.356 . S
C3103 C3097 1.363 . S
C3103 C3098 1.379 . S
C3103 N3101 1.356 . S
N3104 C3096 1.356 . S
N3104 H3110 0.984 . S
N3104 H3111 0.984 . S
N3105 C3098 1.356 . S
N3105 H3108 0.984 . S
N3105 H3109 0.985 . S
H3106 N3101 0.984 . S
H3107 N3101 0.985 . S
H3108 N3105 0.984 . S
H3109 N3105 0.985 . S
H3110 N3104 0.984 . S
H3111 N3104 0.984 . S
H3112 N3100 0.984 . S
H3113 N3100 0.985 . S
C3114 C3115 1.363 . S
C3114 C3120 1.379 . S
C3114 N3122 1.356 . S
C3115 C3114 1.363 . S
C3115 C3121 1.363 . S
C3116 C3117 1.363 . S
C3116 C3121 1.379 . S
C3116 N3123 1.356 . S
C3117 C3116 1.363 . S
C3117 C3120 1.363 . S
N3118 C3120 1.356 . S
N3118 H3130 0.984 . S
N3118 H3131 0.985 . S
N3119 C3121 1.356 . S
N3119 H3124 0.984 . S
N3119 H3125 0.985 . S
C3120 C3114 1.379 . S
C3120 C3117 1.363 . S
C3120 N3118 1.356 . S
C3121 C3115 1.363 . S
C3121 C3116 1.379 . S
C3121 N3119 1.356 . S
N3122 C3114 1.356 . S
N3122 H3128 0.984 . S
N3122 H3129 0.984 . S
N3123 C3116 1.356 . S
N3123 H3126 0.984 . S
N3123 H3127 0.985 . S
H3124 N3119 0.984 . S
H3125 N3119 0.985 . S
H3126 N3123 0.984 . S
H3127 N3123 0.985 . S
H3128 N3122 0.984 . S
H3129 N3122 0.984 . S
H3130 N3118 0.984 . S
H3131 N3118 0.985 . S
C3132 C3133 1.363 . S
C3132 C3138 1.379 . S
C3132 N3140 1.356 . S
C3133 C3132 1.363 . S
C3133 C3139 1.363 . S
C3134 C3135 1.363 . S
C3134 C3139 1.379 . S
C3134 N3141 1.356 . S
C3135 C3134 1.363 . S
C3135 C3138 1.363 . S
N3136 C3138 1.356 . S
N3136 H3148 0.984 . S
N3136 H3149 0.985 . S
N3137 C3139 1.356 . S
N3137 H3142 0.984 . S
N3137 H3143 0.985 . S
C3138 C3132 1.379 . S
C3138 C3135 1.363 . S
C3138 N3136 1.356 . S
C3139 C3133 1.363 . S
C3139 C3134 1.379 . S
C3139 N3137 1.356 . S
N3140 C3132 1.356 . S
N3140 H3146 0.984 . S
N3140 H3147 0.984 . S
N3141 C3134 1.356 . S
N3141 H3144 0.984 . S
N3141 H3145 0.985 . S
H3142 N3137 0.984 . S
H3143 N3137 0.985 . S
H3144 N3141 0.984 . S
H3145 N3141 0.985 . S
H3146 N3140 0.984 . S
H3147 N3140 0.984 . S
H3148 N3136 0.984 . S
H3149 N3136 0.985 . S
C3150 C3151 1.363 . S
C3150 C3156 1.379 . S
C3150 N3158 1.356 . S
C3151 C3150 1.363 . S
C3151 C3157 1.363 . S
C3152 C3153 1.363 . S
C3152 C3157 1.379 . S
C3152 N3159 1.356 . S
C3153 C3152 1.363 . S
C3153 C3156 1.363 . S
N3154 C3156 1.356 . S
N3154 H3166 0.984 . S
N3154 H3167 0.985 . S
N3155 C3157 1.356 . S
N3155 H3160 0.984 . S
N3155 H3161 0.985 . S
C3156 C3150 1.379 . S
C3156 C3153 1.363 . S
C3156 N3154 1.356 . S
C3157 C3151 1.363 . S
C3157 C3152 1.379 . S
C3157 N3155 1.356 . S
N3158 C3150 1.356 . S
N3158 H3164 0.984 . S
N3158 H3165 0.984 . S
N3159 C3152 1.356 . S
N3159 H3162 0.984 . S
N3159 H3163 0.985 . S
H3160 N3155 0.984 . S
H3161 N3155 0.985 . S
H3162 N3159 0.984 . S
H3163 N3159 0.985 . S
H3164 N3158 0.984 . S
H3165 N3158 0.984 . S
H3166 N3154 0.984 . S
H3167 N3154 0.985 . S
C3168 C3169 1.363 . S
C3168 C3174 1.379 . S
C3168 N3176 1.356 . S
C3169 C3168 1.363 . S
C3169 C3175 1.363 . S
C3170 C3171 1.363 . S
C3170 C3175 1.379 . S
C3170 N3177 1.356 . S
C3171 C3170 1.363 . S
C3171 C3174 1.363 . S
N3172 C3174 1.356 . S
N3172 H3184 0.984 . S
N3172 H3185 0.985 . S
N3173 C3175 1.356 . S
N3173 H3178 0.984 . S
N3173 H3179 0.985 . S
C3174 C3168 1.379 . S
C3174 C3171 1.363 . S
C3174 N3172 1.356 . S
C3175 C3169 1.363 . S
C3175 C3170 1.379 . S
C3175 N3173 1.356 . S
N3176 C3168 1.356 . S
N3176 H3182 0.984 . S
N3176 H3183 0.984 . S
N3177 C3170 1.356 . S
N3177 H3180 0.984 . S
N3177 H3181 0.985 . S
H3178 N3173 0.984 . S
H3179 N3173 0.985 . S
H3180 N3177 0.984 . S
H3181 N3177 0.985 . S
H3182 N3176 0.984 . S
H3183 N3176 0.984 . S
H3184 N3172 0.984 . S
H3185 N3172 0.985 . S
C3186 C3187 1.363 . S
C3186 C3192 1.379 . S
C3186 N3194 1.356 . S
C3187 C3186 1.363 . S
C3187 C3193 1.363 . S
C3188 C3189 1.363 . S
C3188 C3193 1.379 . S
C3188 N3195 1.356 . S
C3189 C3188 1.363 . S
C3189 C3192 1.363 . S
N3190 C3192 1.356 . S
N3190 H3202 0.984 . S
N3190 H3203 0.985 . S
N3191 C3193 1.356 . S
N3191 H3196 0.984 . S
N3191 H3197 0.985 . S
C3192 C3186 1.379 . S
C3192 C3189 1.363 . S
C3192 N3190 1.356 . S
C3193 C3187 1.363 . S
C3193 C3188 1.379 . S
C3193 N3191 1.356 . S
N3194 C3186 1.356 . S
N3194 H3200 0.984 . S
N3194 H3201 0.984 . S
N3195 C3188 1.356 . S
N3195 H3198 0.984 . S
N3195 H3199 0.985 . S
H3196 N3191 0.984 . S
H3197 N3191 0.985 . S
H3198 N3195 0.984 . S
H3199 N3195 0.985 . S
H3200 N3194 0.984 . S
H3201 N3194 0.984 . S
H3202 N3190 0.984 . S
H3203 N3190 0.985 . S
C3204 C3205 1.363 . S
C3204 C3210 1.379 . S
C3204 N3212 1.356 . S
C3205 C3204 1.363 . S
C3205 C3211 1.363 . S
C3206 C3207 1.363 . S
C3206 C3211 1.379 . S
C3206 N3213 1.356 . S
C3207 C3206 1.363 . S
C3207 C3210 1.363 . S
N3208 C3210 1.356 . S
N3208 H3220 0.984 . S
N3208 H3221 0.985 . S
N3209 C3211 1.356 . S
N3209 H3214 0.984 . S
N3209 H3215 0.985 . S
C3210 C3204 1.379 . S
C3210 C3207 1.363 . S
C3210 N3208 1.356 . S
C3211 C3205 1.363 . S
C3211 C3206 1.379 . S
C3211 N3209 1.356 . S
N3212 C3204 1.356 . S
N3212 H3218 0.984 . S
N3212 H3219 0.984 . S
N3213 C3206 1.356 . S
N3213 H3216 0.984 . S
N3213 H3217 0.985 . S
H3214 N3209 0.984 . S
H3215 N3209 0.985 . S
H3216 N3213 0.984 . S
H3217 N3213 0.985 . S
H3218 N3212 0.984 . S
H3219 N3212 0.984 . S
H3220 N3208 0.984 . S
H3221 N3208 0.985 . S
C3222 C3223 1.363 . S
C3222 C3228 1.379 . S
C3222 N3230 1.356 . S
C3223 C3222 1.363 . S
C3223 C3229 1.363 . S
C3224 C3225 1.363 . S
C3224 C3229 1.379 . S
C3224 N3231 1.356 . S
C3225 C3224 1.363 . S
C3225 C3228 1.363 . S
N3226 C3228 1.356 . S
N3226 H3238 0.984 . S
N3226 H3239 0.985 . S
N3227 C3229 1.356 . S
N3227 H3232 0.984 . S
N3227 H3233 0.985 . S
C3228 C3222 1.379 . S
C3228 C3225 1.363 . S
C3228 N3226 1.356 . S
C3229 C3223 1.363 . S
C3229 C3224 1.379 . S
C3229 N3227 1.356 . S
N3230 C3222 1.356 . S
N3230 H3236 0.984 . S
N3230 H3237 0.984 . S
N3231 C3224 1.356 . S
N3231 H3234 0.984 . S
N3231 H3235 0.985 . S
H3232 N3227 0.984 . S
H3233 N3227 0.985 . S
H3234 N3231 0.984 . S
H3235 N3231 0.985 . S
H3236 N3230 0.984 . S
H3237 N3230 0.984 . S
H3238 N3226 0.984 . S
H3239 N3226 0.985 . S
C3240 C3241 1.363 . S
C3240 C3246 1.379 . S
C3240 N3248 1.356 . S
C3241 C3240 1.363 . S
C3241 C3247 1.363 . S
C3242 C3243 1.363 . S
C3242 C3247 1.379 . S
C3242 N3249 1.356 . S
C3243 C3242 1.363 . S
C3243 C3246 1.363 . S
N3244 C3246 1.356 . S
N3244 H3256 0.984 . S
N3244 H3257 0.985 . S
N3245 C3247 1.356 . S
N3245 H3250 0.984 . S
N3245 H3251 0.985 . S
C3246 C3240 1.379 . S
C3246 C3243 1.363 . S
C3246 N3244 1.356 . S
C3247 C3241 1.363 . S
C3247 C3242 1.379 . S
C3247 N3245 1.356 . S
N3248 C3240 1.356 . S
N3248 H3254 0.984 . S
N3248 H3255 0.984 . S
N3249 C3242 1.356 . S
N3249 H3252 0.984 . S
N3249 H3253 0.985 . S
H3250 N3245 0.984 . S
H3251 N3245 0.985 . S
H3252 N3249 0.984 . S
H3253 N3249 0.985 . S
H3254 N3248 0.984 . S
H3255 N3248 0.984 . S
H3256 N3244 0.984 . S
H3257 N3244 0.985 . S
C3258 C3259 1.363 . S
C3258 C3264 1.379 . S
C3258 N3266 1.356 . S
C3259 C3258 1.363 . S
C3259 C3265 1.363 . S
C3260 C3261 1.363 . S
C3260 C3265 1.379 . S
C3260 N3267 1.356 . S
C3261 C3260 1.363 . S
C3261 C3264 1.363 . S
N3262 C3264 1.356 . S
N3262 H3274 0.984 . S
N3262 H3275 0.985 . S
N3263 C3265 1.356 . S
N3263 H3268 0.984 . S
N3263 H3269 0.985 . S
C3264 C3258 1.379 . S
C3264 C3261 1.363 . S
C3264 N3262 1.356 . S
C3265 C3259 1.363 . S
C3265 C3260 1.379 . S
C3265 N3263 1.356 . S
N3266 C3258 1.356 . S
N3266 H3272 0.984 . S
N3266 H3273 0.984 . S
N3267 C3260 1.356 . S
N3267 H3270 0.984 . S
N3267 H3271 0.985 . S
H3268 N3263 0.984 . S
H3269 N3263 0.985 . S
H3270 N3267 0.984 . S
H3271 N3267 0.985 . S
H3272 N3266 0.984 . S
H3273 N3266 0.984 . S
H3274 N3262 0.984 . S
H3275 N3262 0.985 . S
C3276 C3277 1.363 . S
C3276 C3282 1.379 . S
C3276 N3284 1.356 . S
C3277 C3276 1.363 . S
C3277 C3283 1.363 . S
C3278 C3279 1.363 . S
C3278 C3283 1.379 . S
C3278 N3285 1.356 . S
C3279 C3278 1.363 . S
C3279 C3282 1.363 . S
N3280 C3282 1.356 . S
N3280 H3292 0.984 . S
N3280 H3293 0.985 . S
N3281 C3283 1.356 . S
N3281 H3286 0.984 . S
N3281 H3287 0.985 . S
C3282 C3276 1.379 . S
C3282 C3279 1.363 . S
C3282 N3280 1.356 . S
C3283 C3277 1.363 . S
C3283 C3278 1.379 . S
C3283 N3281 1.356 . S
N3284 C3276 1.356 . S
N3284 H3290 0.984 . S
N3284 H3291 0.984 . S
N3285 C3278 1.356 . S
N3285 H3288 0.984 . S
N3285 H3289 0.985 . S
H3286 N3281 0.984 . S
H3287 N3281 0.985 . S
H3288 N3285 0.984 . S
H3289 N3285 0.985 . S
H3290 N3284 0.984 . S
H3291 N3284 0.984 . S
H3292 N3280 0.984 . S
H3293 N3280 0.985 . S
C3294 C3295 1.363 . S
C3294 C3300 1.379 . S
C3294 N3302 1.356 . S
C3295 C3294 1.363 . S
C3295 C3301 1.363 . S
C3296 C3297 1.363 . S
C3296 C3301 1.379 . S
C3296 N3303 1.356 . S
C3297 C3296 1.363 . S
C3297 C3300 1.363 . S
N3298 C3300 1.356 . S
N3298 H3310 0.984 . S
N3298 H3311 0.985 . S
N3299 C3301 1.356 . S
N3299 H3304 0.984 . S
N3299 H3305 0.985 . S
C3300 C3294 1.379 . S
C3300 C3297 1.363 . S
C3300 N3298 1.356 . S
C3301 C3295 1.363 . S
C3301 C3296 1.379 . S
C3301 N3299 1.356 . S
N3302 C3294 1.356 . S
N3302 H3308 0.984 . S
N3302 H3309 0.984 . S
N3303 C3296 1.356 . S
N3303 H3306 0.984 . S
N3303 H3307 0.985 . S
H3304 N3299 0.984 . S
H3305 N3299 0.985 . S
H3306 N3303 0.984 . S
H3307 N3303 0.985 . S
H3308 N3302 0.984 . S
H3309 N3302 0.984 . S
H3310 N3298 0.984 . S
H3311 N3298 0.985 . S
C3312 C3313 1.363 . S
C3312 C3318 1.379 . S
C3312 N3320 1.356 . S
C3313 C3312 1.363 . S
C3313 C3319 1.363 . S
C3314 C3315 1.363 . S
C3314 C3319 1.379 . S
C3314 N3321 1.356 . S
C3315 C3314 1.363 . S
C3315 C3318 1.363 . S
N3316 C3318 1.356 . S
N3316 H3328 0.984 . S
N3316 H3329 0.985 . S
N3317 C3319 1.356 . S
N3317 H3322 0.984 . S
N3317 H3323 0.985 . S
C3318 C3312 1.379 . S
C3318 C3315 1.363 . S
C3318 N3316 1.356 . S
C3319 C3313 1.363 . S
C3319 C3314 1.379 . S
C3319 N3317 1.356 . S
N3320 C3312 1.356 . S
N3320 H3326 0.984 . S
N3320 H3327 0.984 . S
N3321 C3314 1.356 . S
N3321 H3324 0.984 . S
N3321 H3325 0.985 . S
H3322 N3317 0.984 . S
H3323 N3317 0.985 . S
H3324 N3321 0.984 . S
H3325 N3321 0.985 . S
H3326 N3320 0.984 . S
H3327 N3320 0.984 . S
H3328 N3316 0.984 . S
H3329 N3316 0.985 . S
C3330 C3331 1.363 . S
C3330 C3336 1.379 . S
C3330 N3338 1.356 . S
C3331 C3330 1.363 . S
C3331 C3337 1.363 . S
C3332 C3333 1.363 . S
C3332 C3337 1.379 . S
C3332 N3339 1.356 . S
C3333 C3332 1.363 . S
C3333 C3336 1.363 . S
N3334 C3336 1.356 . S
N3334 H3346 0.984 . S
N3334 H3347 0.985 . S
N3335 C3337 1.356 . S
N3335 H3340 0.984 . S
N3335 H3341 0.985 . S
C3336 C3330 1.379 . S
C3336 C3333 1.363 . S
C3336 N3334 1.356 . S
C3337 C3331 1.363 . S
C3337 C3332 1.379 . S
C3337 N3335 1.356 . S
N3338 C3330 1.356 . S
N3338 H3344 0.984 . S
N3338 H3345 0.984 . S
N3339 C3332 1.356 . S
N3339 H3342 0.984 . S
N3339 H3343 0.985 . S
H3340 N3335 0.984 . S
H3341 N3335 0.985 . S
H3342 N3339 0.984 . S
H3343 N3339 0.985 . S
H3344 N3338 0.984 . S
H3345 N3338 0.984 . S
H3346 N3334 0.984 . S
H3347 N3334 0.985 . S
C3348 C3349 1.363 . S
C3348 C3354 1.379 . S
C3348 N3356 1.356 . S
C3349 C3348 1.363 . S
C3349 C3355 1.363 . S
C3350 C3351 1.363 . S
C3350 C3355 1.379 . S
C3350 N3357 1.356 . S
C3351 C3350 1.363 . S
C3351 C3354 1.363 . S
N3352 C3354 1.356 . S
N3352 H3364 0.984 . S
N3352 H3365 0.985 . S
N3353 C3355 1.356 . S
N3353 H3358 0.984 . S
N3353 H3359 0.985 . S
C3354 C3348 1.379 . S
C3354 C3351 1.363 . S
C3354 N3352 1.356 . S
C3355 C3349 1.363 . S
C3355 C3350 1.379 . S
C3355 N3353 1.356 . S
N3356 C3348 1.356 . S
N3356 H3362 0.984 . S
N3356 H3363 0.984 . S
N3357 C3350 1.356 . S
N3357 H3360 0.984 . S
N3357 H3361 0.985 . S
H3358 N3353 0.984 . S
H3359 N3353 0.985 . S
H3360 N3357 0.984 . S
H3361 N3357 0.985 . S
H3362 N3356 0.984 . S
H3363 N3356 0.984 . S
H3364 N3352 0.984 . S
H3365 N3352 0.985 . S
C3366 C3367 1.363 . S
C3366 C3372 1.379 . S
C3366 N3374 1.356 . S
C3367 C3366 1.363 . S
C3367 C3373 1.363 . S
C3368 C3369 1.363 . S
C3368 C3373 1.379 . S
C3368 N3375 1.356 . S
C3369 C3368 1.363 . S
C3369 C3372 1.363 . S
N3370 C3372 1.356 . S
N3370 H3382 0.984 . S
N3370 H3383 0.985 . S
N3371 C3373 1.356 . S
N3371 H3376 0.984 . S
N3371 H3377 0.985 . S
C3372 C3366 1.379 . S
C3372 C3369 1.363 . S
C3372 N3370 1.356 . S
C3373 C3367 1.363 . S
C3373 C3368 1.379 . S
C3373 N3371 1.356 . S
N3374 C3366 1.356 . S
N3374 H3380 0.963 1_554 S
N3374 H3381 0.984 . S
N3375 C3368 1.356 . S
N3375 H3378 0.984 . S
N3375 H3379 0.985 . S
H3376 N3371 0.984 . S
H3377 N3371 0.985 . S
H3378 N3375 0.984 . S
H3379 N3375 0.985 . S
H3380 N3374 0.963 1_556 S
H3381 N3374 0.984 . S
H3382 N3370 0.984 . S
H3383 N3370 0.985 . S
C3384 C3385 1.363 . S
C3384 C3390 1.379 . S
C3384 N3392 1.367 . S
C3385 C3384 1.363 . S
C3385 C3391 1.363 . S
C3386 C3387 1.363 . S
C3386 C3391 1.379 . S
C3386 N3393 1.356 . S
C3387 C3386 1.363 . S
C3387 C3390 1.363 . S
N3388 C3390 1.356 . S
N3388 H3400 0.984 1_554 S
N3388 H3401 0.985 . S
N3389 C3391 1.356 . S
N3389 H3394 0.984 . S
N3389 H3395 0.985 . S
C3390 C3384 1.379 . S
C3390 C3387 1.363 . S
C3390 N3388 1.356 . S
C3391 C3385 1.363 . S
C3391 C3386 1.379 . S
C3391 N3389 1.356 . S
N3392 C3384 1.367 . S
N3392 H3398 0.972 1_554 S
N3392 H3399 0.986 . S
N3393 C3386 1.356 . S
N3393 H3396 0.984 . S
N3393 H3397 0.985 . S
H3394 N3389 0.984 . S
H3395 N3389 0.985 . S
H3396 N3393 0.984 . S
H3397 N3393 0.985 . S
H3398 N3392 0.972 1_556 S
H3399 N3392 0.986 . S
H3400 N3388 0.984 1_556 S
H3401 N3388 0.985 . S
C3402 C3403 1.338 1_554 S
C3402 C3408 1.372 1_554 S
C3402 N3410 1.385 . S
C3403 C3402 1.338 1_556 S
C3403 C3409 1.363 . S
C3404 C3405 1.363 . S
C3404 C3409 1.379 . S
C3404 N3411 1.356 . S
C3405 C3404 1.363 . S
C3405 C3408 1.363 . S
N3406 C3408 1.356 1_554 S
N3406 H3418 0.984 . S
N3406 H3419 0.971 1_554 S
N3407 C3409 1.356 . S
N3407 H3412 0.984 . S
N3407 H3413 0.985 . S
C3408 C3402 1.372 1_556 S
C3408 C3405 1.363 . S
C3408 N3406 1.356 1_556 S
C3409 C3403 1.363 . S
C3409 C3404 1.379 . S
C3409 N3407 1.356 . S
N3410 C3402 1.385 . S
N3410 H3416 0.984 . S
N3410 H3417 0.984 . S
N3411 C3404 1.356 . S
N3411 H3414 0.984 . S
N3411 H3415 0.985 . S
H3412 N3407 0.984 . S
H3413 N3407 0.985 . S
H3414 N3411 0.984 . S
H3415 N3411 0.985 . S
H3416 N3410 0.984 . S
H3417 N3410 0.984 . S
H3418 N3406 0.984 . S
H3419 N3406 0.971 1_556 S
C3420 C3421 1.363 . S
C3420 C3426 1.379 . S
C3420 N3428 1.356 1_556 S
C3421 C3420 1.363 . S
C3421 C3427 1.363 . S
C3422 C3423 1.363 . S
C3422 C3427 1.379 . S
C3422 N3429 1.356 . S
C3423 C3422 1.363 . S
C3423 C3426 1.363 . S
N3424 C3426 1.356 1_554 S
N3424 H3436 0.984 . S
N3424 H3437 0.985 1_554 S
N3425 C3427 1.356 . S
N3425 H3430 0.984 . S
N3425 H3431 0.985 . S
C3426 C3420 1.379 . S
C3426 C3423 1.363 . S
C3426 N3424 1.356 1_556 S
C3427 C3421 1.363 . S
C3427 C3422 1.379 . S
C3427 N3425 1.356 . S
N3428 C3420 1.356 1_554 S
N3428 H3434 0.984 . S
N3428 H3435 0.984 . S
N3429 C3422 1.356 . S
N3429 H3432 0.984 . S
N3429 H3433 0.985 . S
H3430 N3425 0.984 . S
H3431 N3425 0.985 . S
H3432 N3429 0.984 . S
H3433 N3429 0.985 . S
H3434 N3428 0.984 . S
H3435 N3428 0.984 . S
H3436 N3424 0.984 . S
H3437 N3424 0.985 1_556 S
C3438 C3439 1.363 . S
C3438 C3444 1.379 . S
C3438 N3446 1.356 1_556 S
C3439 C3438 1.363 . S
C3439 C3445 1.363 . S
C3440 C3441 1.363 . S
C3440 C3445 1.379 . S
C3440 N3447 1.356 . S
C3441 C3440 1.363 . S
C3441 C3444 1.363 . S
N3442 C3444 1.356 . S
N3442 H3454 0.984 1_556 S
N3442 H3455 0.985 . S
N3443 C3445 1.356 . S
N3443 H3448 0.984 . S
N3443 H3449 0.985 . S
C3444 C3438 1.379 . S
C3444 C3441 1.363 . S
C3444 N3442 1.356 . S
C3445 C3439 1.363 . S
C3445 C3440 1.379 . S
C3445 N3443 1.356 . S
N3446 C3438 1.356 1_554 S
N3446 H3452 0.984 . S
N3446 H3453 0.984 . S
N3447 C3440 1.356 . S
N3447 H3450 0.984 . S
N3447 H3451 0.985 . S
H3448 N3443 0.984 . S
H3449 N3443 0.985 . S
H3450 N3447 0.984 . S
H3451 N3447 0.985 . S
H3452 N3446 0.984 . S
H3453 N3446 0.984 . S
H3454 N3442 0.984 1_554 S
H3455 N3442 0.985 . S
C3456 C3457 1.363 . S
C3456 C3462 1.379 . S
C3456 N3464 1.356 . S
C3457 C3456 1.363 . S
C3457 C3463 1.363 . S
C3458 C3459 1.363 . S
C3458 C3463 1.379 . S
C3458 N3465 1.356 1_556 S
C3459 C3458 1.363 . S
C3459 C3462 1.363 . S
N3460 C3462 1.356 . S
N3460 H3472 0.984 . S
N3460 H3473 0.985 . S
N3461 C3463 1.356 1_554 S
N3461 H3466 0.984 . S
N3461 H3467 0.985 . S
C3462 C3456 1.379 . S
C3462 C3459 1.363 . S
C3462 N3460 1.356 . S
C3463 C3457 1.363 . S
C3463 C3458 1.379 . S
C3463 N3461 1.356 1_556 S
N3464 C3456 1.356 . S
N3464 H3470 0.984 . S
N3464 H3471 0.984 . S
N3465 C3458 1.356 1_554 S
N3465 H3468 0.984 1_554 S
N3465 H3469 0.985 . S
H3466 N3461 0.984 . S
H3467 N3461 0.985 . S
H3468 N3465 0.984 1_556 S
H3469 N3465 0.985 . S
H3470 N3464 0.984 . S
H3471 N3464 0.984 . S
H3472 N3460 0.984 . S
H3473 N3460 0.985 . S
C3474 C3475 1.363 . S
C3474 C3480 1.379 . S
C3474 N3482 1.356 . S
C3475 C3474 1.363 . S
C3475 C3481 1.363 . S
C3476 C3477 1.363 . S
C3476 C3481 1.379 . S
C3476 N3483 1.345 1_556 S
C3477 C3476 1.363 . S
C3477 C3480 1.363 . S
N3478 C3480 1.356 . S
N3478 H3490 0.984 . S
N3478 H3491 0.985 . S
N3479 C3481 1.356 1_554 S
N3479 H3484 0.984 . S
N3479 H3485 0.985 . S
C3480 C3474 1.379 . S
C3480 C3477 1.363 . S
C3480 N3478 1.356 . S
C3481 C3475 1.363 . S
C3481 C3476 1.379 . S
C3481 N3479 1.356 1_556 S
N3482 C3474 1.356 . S
N3482 H3488 0.984 . S
N3482 H3489 0.984 . S
N3483 C3476 1.345 1_554 S
N3483 H3486 0.974 1_554 S
N3483 H3487 1.007 . S
H3484 N3479 0.984 . S
H3485 N3479 0.985 . S
H3486 N3483 0.974 1_556 S
H3487 N3483 1.007 . S
H3488 N3482 0.984 . S
H3489 N3482 0.984 . S
H3490 N3478 0.984 . S
H3491 N3478 0.985 . S
C3492 C3493 1.363 . S
C3492 C3498 1.379 . S
C3492 N3500 1.356 . S
C3493 C3492 1.363 . S
C3493 C3499 1.363 . S
C3494 C3495 1.363 . S
C3494 C3499 1.379 . S
C3494 N3501 1.356 . S
C3495 C3494 1.363 . S
C3495 C3498 1.363 . S
N3496 C3498 1.356 . S
N3496 H3508 0.984 . S
N3496 H3509 0.985 . S
N3497 C3499 1.356 1_554 S
N3497 H3502 0.984 . S
N3497 H3503 0.985 . S
C3498 C3492 1.379 . S
C3498 C3495 1.363 . S
C3498 N3496 1.356 . S
C3499 C3493 1.363 . S
C3499 C3494 1.379 . S
C3499 N3497 1.356 1_556 S
N3500 C3492 1.356 . S
N3500 H3506 0.984 . S
N3500 H3507 0.984 . S
N3501 C3494 1.356 . S
N3501 H3504 0.984 . S
N3501 H3505 0.985 1_556 S
H3502 N3497 0.984 . S
H3503 N3497 0.985 . S
H3504 N3501 0.984 . S
H3505 N3501 0.985 1_554 S
H3506 N3500 0.984 . S
H3507 N3500 0.984 . S
H3508 N3496 0.984 . S
H3509 N3496 0.985 . S
C3510 C3511 1.363 . S
C3510 C3516 1.379 . S
C3510 N3518 1.356 . S
C3511 C3510 1.363 . S
C3511 C3517 1.363 . S
C3512 C3513 1.363 . S
C3512 C3517 1.379 . S
C3512 N3519 1.356 . S
C3513 C3512 1.363 . S
C3513 C3516 1.363 . S
N3514 C3516 1.356 . S
N3514 H3526 0.984 . S
N3514 H3527 0.985 . S
N3515 C3517 1.356 . S
N3515 H3520 0.984 . S
N3515 H3521 0.985 . S
C3516 C3510 1.379 . S
C3516 C3513 1.363 . S
C3516 N3514 1.356 . S
C3517 C3511 1.363 . S
C3517 C3512 1.379 . S
C3517 N3515 1.356 . S
N3518 C3510 1.356 . S
N3518 H3524 0.984 . S
N3518 H3525 0.984 . S
N3519 C3512 1.356 . S
N3519 H3522 0.984 . S
N3519 H3523 0.985 . S
H3520 N3515 0.984 . S
H3521 N3515 0.985 . S
H3522 N3519 0.984 . S
H3523 N3519 0.985 . S
H3524 N3518 0.984 . S
H3525 N3518 0.984 . S
H3526 N3514 0.984 . S
H3527 N3514 0.985 . S
C3528 C3529 1.363 . S
C3528 C3534 1.379 . S
C3528 N3536 1.356 . S
C3529 C3528 1.363 . S
C3529 C3535 1.363 . S
C3530 C3531 1.363 . S
C3530 C3535 1.379 . S
C3530 N3537 1.356 . S
C3531 C3530 1.363 . S
C3531 C3534 1.363 . S
N3532 C3534 1.356 . S
N3532 H3544 0.984 . S
N3532 H3545 0.985 . S
N3533 C3535 1.356 . S
N3533 H3538 0.984 . S
N3533 H3539 0.985 1_554 S
C3534 C3528 1.379 . S
C3534 C3531 1.363 . S
C3534 N3532 1.356 . S
C3535 C3529 1.363 . S
C3535 C3530 1.379 . S
C3535 N3533 1.356 . S
N3536 C3528 1.356 . S
N3536 H3542 0.984 . S
N3536 H3543 0.984 . S
N3537 C3530 1.356 . S
N3537 H3540 0.984 . S
N3537 H3541 0.985 . S
H3538 N3533 0.984 . S
H3539 N3533 0.985 1_556 S
H3540 N3537 0.984 . S
H3541 N3537 0.985 . S
H3542 N3536 0.984 . S
H3543 N3536 0.984 . S
H3544 N3532 0.984 . S
H3545 N3532 0.985 . S
C3546 C3547 1.363 . S
C3546 C3552 1.379 . S
C3546 N3554 1.356 . S
C3547 C3546 1.363 . S
C3547 C3553 1.363 . S
C3548 C3549 1.363 . S
C3548 C3553 1.379 . S
C3548 N3555 1.356 . S
C3549 C3548 1.363 . S
C3549 C3552 1.363 . S
N3550 C3552 1.356 . S
N3550 H3562 0.984 . S
N3550 H3563 0.985 . S
N3551 C3553 1.356 . S
N3551 H3556 0.984 . S
N3551 H3557 0.985 1_554 S
C3552 C3546 1.379 . S
C3552 C3549 1.363 . S
C3552 N3550 1.356 . S
C3553 C3547 1.363 . S
C3553 C3548 1.379 . S
C3553 N3551 1.356 . S
N3554 C3546 1.356 . S
N3554 H3560 0.984 . S
N3554 H3561 0.984 . S
N3555 C3548 1.356 . S
N3555 H3558 0.984 . S
N3555 H3559 0.985 1_554 S
H3556 N3551 0.984 . S
H3557 N3551 0.985 1_556 S
H3558 N3555 0.984 . S
H3559 N3555 0.985 1_556 S
H3560 N3554 0.984 . S
H3561 N3554 0.984 . S
H3562 N3550 0.984 . S
H3563 N3550 0.985 . S
C3564 C3565 1.363 . S
C3564 C3570 1.379 . S
C3564 N3572 1.356 . S
C3565 C3564 1.363 . S
C3565 C3571 1.363 . S
C3566 C3567 1.363 . S
C3566 C3571 1.379 . S
C3566 N3573 1.356 . S
C3567 C3566 1.363 . S
C3567 C3570 1.363 . S
N3568 C3570 1.356 . S
N3568 H3580 0.984 . S
N3568 H3581 0.985 . S
N3569 C3571 1.356 . S
N3569 H3574 0.984 . S
N3569 H3575 0.985 . S
C3570 C3564 1.379 . S
C3570 C3567 1.363 . S
C3570 N3568 1.356 . S
C3571 C3565 1.363 . S
C3571 C3566 1.379 . S
C3571 N3569 1.356 . S
N3572 C3564 1.356 . S
N3572 H3578 0.984 . S
N3572 H3579 0.984 . S
N3573 C3566 1.356 . S
N3573 H3576 0.984 . S
N3573 H3577 0.985 . S
H3574 N3569 0.984 . S
H3575 N3569 0.985 . S
H3576 N3573 0.984 . S
H3577 N3573 0.985 . S
H3578 N3572 0.984 . S
H3579 N3572 0.984 . S
H3580 N3568 0.984 . S
H3581 N3568 0.985 . S
C3582 C3583 1.363 . S
C3582 C3588 1.379 . S
C3582 N3590 1.356 . S
C3583 C3582 1.363 . S
C3583 C3589 1.363 . S
C3584 C3585 1.363 . S
C3584 C3589 1.379 . S
C3584 N3591 1.356 . S
C3585 C3584 1.363 . S
C3585 C3588 1.363 . S
N3586 C3588 1.356 . S
N3586 H3598 0.984 . S
N3586 H3599 0.985 . S
N3587 C3589 1.356 . S
N3587 H3592 0.984 . S
N3587 H3593 0.985 . S
C3588 C3582 1.379 . S
C3588 C3585 1.363 . S
C3588 N3586 1.356 . S
C3589 C3583 1.363 . S
C3589 C3584 1.379 . S
C3589 N3587 1.356 . S
N3590 C3582 1.356 . S
N3590 H3596 0.984 . S
N3590 H3597 0.984 . S
N3591 C3584 1.356 . S
N3591 H3594 0.984 . S
N3591 H3595 0.985 . S
H3592 N3587 0.984 . S
H3593 N3587 0.985 . S
H3594 N3591 0.984 . S
H3595 N3591 0.985 . S
H3596 N3590 0.984 . S
H3597 N3590 0.984 . S
H3598 N3586 0.984 . S
H3599 N3586 0.985 . S
C3600 C3601 1.363 . S
C3600 C3606 1.379 . S
C3600 N3608 1.356 . S
C3601 C3600 1.363 . S
C3601 C3607 1.363 . S
C3602 C3603 1.363 . S
C3602 C3607 1.379 . S
C3602 N3609 1.356 . S
C3603 C3602 1.363 . S
C3603 C3606 1.363 . S
N3604 C3606 1.356 . S
N3604 H3616 0.984 . S
N3604 H3617 0.985 . S
N3605 C3607 1.356 . S
N3605 H3610 0.984 . S
N3605 H3611 0.985 . S
C3606 C3600 1.379 . S
C3606 C3603 1.363 . S
C3606 N3604 1.356 . S
C3607 C3601 1.363 . S
C3607 C3602 1.379 . S
C3607 N3605 1.356 . S
N3608 C3600 1.356 . S
N3608 H3614 0.984 . S
N3608 H3615 0.984 . S
N3609 C3602 1.356 . S
N3609 H3612 0.984 . S
N3609 H3613 0.985 . S
H3610 N3605 0.984 . S
H3611 N3605 0.985 . S
H3612 N3609 0.984 . S
H3613 N3609 0.985 . S
H3614 N3608 0.984 . S
H3615 N3608 0.984 . S
H3616 N3604 0.984 . S
H3617 N3604 0.985 . S
C3618 C3619 1.363 . S
C3618 C3624 1.379 . S
C3618 N3626 1.356 . S
C3619 C3618 1.363 . S
C3619 C3625 1.363 . S
C3620 C3621 1.363 . S
C3620 C3625 1.379 . S
C3620 N3627 1.356 . S
C3621 C3620 1.363 . S
C3621 C3624 1.363 . S
N3622 C3624 1.356 . S
N3622 H3634 0.984 . S
N3622 H3635 0.985 . S
N3623 C3625 1.356 . S
N3623 H3628 0.984 . S
N3623 H3629 0.985 . S
C3624 C3618 1.379 . S
C3624 C3621 1.363 . S
C3624 N3622 1.356 . S
C3625 C3619 1.363 . S
C3625 C3620 1.379 . S
C3625 N3623 1.356 . S
N3626 C3618 1.356 . S
N3626 H3632 0.984 . S
N3626 H3633 0.984 . S
N3627 C3620 1.356 . S
N3627 H3630 1.003 . S
N3627 H3631 0.985 . S
H3628 N3623 0.984 . S
H3629 N3623 0.985 . S
H3630 N3627 1.003 . S
H3631 N3627 0.985 . S
H3632 N3626 0.984 . S
H3633 N3626 0.984 . S
H3634 N3622 0.984 . S
H3635 N3622 0.985 . S
C3636 C3637 1.363 . S
C3636 C3642 1.379 . S
C3636 N3644 1.356 . S
C3637 C3636 1.363 . S
C3637 C3643 1.363 . S
C3638 C3639 1.363 . S
C3638 C3643 1.379 . S
C3638 N3645 1.356 . S
C3639 C3638 1.363 . S
C3639 C3642 1.363 . S
N3640 C3642 1.356 . S
N3640 H3652 0.984 . S
N3640 H3653 0.985 . S
N3641 C3643 1.356 . S
N3641 H3646 0.984 . S
N3641 H3647 0.985 . S
C3642 C3636 1.379 . S
C3642 C3639 1.363 . S
C3642 N3640 1.356 . S
C3643 C3637 1.363 . S
C3643 C3638 1.379 . S
C3643 N3641 1.356 . S
N3644 C3636 1.356 . S
N3644 H3650 0.984 . S
N3644 H3651 0.984 . S
N3645 C3638 1.356 . S
N3645 H3648 0.984 . S
N3645 H3649 0.985 . S
H3646 N3641 0.984 . S
H3647 N3641 0.985 . S
H3648 N3645 0.984 . S
H3649 N3645 0.985 . S
H3650 N3644 0.984 . S
H3651 N3644 0.984 . S
H3652 N3640 0.984 . S
H3653 N3640 0.985 . S
C3654 C3655 1.363 . S
C3654 C3660 1.385 1_565 S
C3654 N3662 1.323 1_565 S
C3655 C3654 1.363 . S
C3655 C3661 1.363 . S
C3656 C3657 1.363 . S
C3656 C3661 1.379 . S
C3656 N3663 1.356 . S
C3657 C3656 1.363 . S
C3657 C3660 1.336 1_565 S
N3658 C3660 1.371 . S
N3658 H3670 0.984 . S
N3658 H3671 0.985 . S
N3659 C3661 1.356 . S
N3659 H3664 0.984 . S
N3659 H3665 0.985 . S
C3660 C3654 1.385 1_545 S
C3660 C3657 1.336 1_545 S
C3660 N3658 1.371 . S
C3661 C3655 1.363 . S
C3661 C3656 1.379 . S
C3661 N3659 1.356 . S
N3662 C3654 1.323 1_545 S
N3662 H3668 1.023 . S
N3662 H3669 0.982 1_545 S
N3663 C3656 1.356 . S
N3663 H3666 0.984 . S
N3663 H3667 0.985 . S
H3664 N3659 0.984 . S
H3665 N3659 0.985 . S
H3666 N3663 0.984 . S
H3667 N3663 0.985 . S
H3668 N3662 1.023 . S
H3669 N3662 0.982 1_565 S
H3670 N3658 0.984 . S
H3671 N3658 0.985 . S
C3672 C3673 1.363 . S
C3672 C3678 1.379 . S
C3672 N3680 1.356 . S
C3673 C3672 1.363 . S
C3673 C3679 1.363 . S
C3674 C3675 1.363 . S
C3674 C3679 1.379 . S
C3674 N3681 1.356 . S
C3675 C3674 1.363 . S
C3675 C3678 1.363 . S
N3676 C3678 1.356 . S
N3676 H3688 0.984 . S
N3676 H3689 0.985 . S
N3677 C3679 1.356 . S
N3677 H3682 0.984 . S
N3677 H3683 0.985 . S
C3678 C3672 1.379 . S
C3678 C3675 1.363 . S
C3678 N3676 1.356 . S
C3679 C3673 1.363 . S
C3679 C3674 1.379 . S
C3679 N3677 1.356 . S
N3680 C3672 1.356 . S
N3680 H3686 0.984 . S
N3680 H3687 0.984 . S
N3681 C3674 1.356 . S
N3681 H3684 0.938 1_565 S
N3681 H3685 0.984 . S
H3682 N3677 0.984 . S
H3683 N3677 0.985 . S
H3684 N3681 0.938 1_545 S
H3685 N3681 0.984 . S
H3686 N3680 0.984 . S
H3687 N3680 0.984 . S
H3688 N3676 0.984 . S
H3689 N3676 0.985 . S
C3690 C3691 1.363 . S
C3690 C3696 1.379 . S
C3690 N3698 1.356 . S
C3691 C3690 1.363 . S
C3691 C3697 1.363 . S
C3692 C3693 1.363 . S
C3692 C3697 1.379 . S
C3692 N3699 1.356 . S
C3693 C3692 1.363 . S
C3693 C3696 1.363 . S
N3694 C3696 1.356 1_655 S
N3694 H3706 0.984 . S
N3694 H3707 0.985 . S
N3695 C3697 1.356 . S
N3695 H3700 0.984 . S
N3695 H3701 0.985 . S
C3696 C3690 1.379 . S
C3696 C3693 1.363 . S
C3696 N3694 1.356 1_455 S
C3697 C3691 1.363 . S
C3697 C3692 1.379 . S
C3697 N3695 1.356 . S
N3698 C3690 1.356 . S
N3698 H3704 0.984 . S
N3698 H3705 0.984 . S
N3699 C3692 1.356 . S
N3699 H3702 0.984 . S
N3699 H3703 0.985 . S
H3700 N3695 0.984 . S
H3701 N3695 0.985 . S
H3702 N3699 0.984 . S
H3703 N3699 0.985 . S
H3704 N3698 0.984 . S
H3705 N3698 0.984 . S
H3706 N3694 0.984 . S
H3707 N3694 0.985 . S
C3708 C3709 1.363 . S
C3708 C3714 1.379 . S
C3708 N3716 1.356 . S
C3709 C3708 1.363 . S
C3709 C3715 1.363 . S
C3710 C3711 1.363 . S
C3710 C3715 1.379 . S
C3710 N3717 1.356 . S
C3711 C3710 1.363 . S
C3711 C3714 1.363 . S
N3712 C3714 1.356 . S
N3712 H3724 0.984 . S
N3712 H3725 0.985 . S
N3713 C3715 1.356 . S
N3713 H3718 0.984 . S
N3713 H3719 0.985 . S
C3714 C3708 1.379 . S
C3714 C3711 1.363 . S
C3714 N3712 1.356 . S
C3715 C3709 1.363 . S
C3715 C3710 1.379 . S
C3715 N3713 1.356 . S
N3716 C3708 1.356 . S
N3716 H3722 0.984 . S
N3716 H3723 0.984 . S
N3717 C3710 1.356 . S
N3717 H3720 0.984 . S
N3717 H3721 0.985 . S
H3718 N3713 0.984 . S
H3719 N3713 0.985 . S
H3720 N3717 0.984 . S
H3721 N3717 0.985 . S
H3722 N3716 0.984 . S
H3723 N3716 0.984 . S
H3724 N3712 0.984 . S
H3725 N3712 0.985 . S
C3726 C3727 1.363 . S
C3726 C3732 1.379 . S
C3726 N3734 1.356 . S
C3727 C3726 1.363 . S
C3727 C3733 1.363 . S
C3728 C3729 1.363 . S
C3728 C3733 1.379 . S
C3728 N3735 1.356 . S
C3729 C3728 1.363 . S
C3729 C3732 1.363 . S
N3730 C3732 1.356 . S
N3730 H3742 0.984 . S
N3730 H3743 0.985 . S
N3731 C3733 1.356 . S
N3731 H3736 0.984 . S
N3731 H3737 0.985 . S
C3732 C3726 1.379 . S
C3732 C3729 1.363 . S
C3732 N3730 1.356 . S
C3733 C3727 1.363 . S
C3733 C3728 1.379 . S
C3733 N3731 1.356 . S
N3734 C3726 1.356 . S
N3734 H3740 0.984 . S
N3734 H3741 0.984 . S
N3735 C3728 1.356 . S
N3735 H3738 0.984 . S
N3735 H3739 0.985 . S
H3736 N3731 0.984 . S
H3737 N3731 0.985 . S
H3738 N3735 0.984 . S
H3739 N3735 0.985 . S
H3740 N3734 0.984 . S
H3741 N3734 0.984 . S
H3742 N3730 0.984 . S
H3743 N3730 0.985 . S
C3744 C3745 1.363 . S
C3744 C3750 1.379 . S
C3744 N3752 1.356 . S
C3745 C3744 1.363 . S
C3745 C3751 1.363 . S
C3746 C3747 1.363 . S
C3746 C3751 1.379 . S
C3746 N3753 1.356 . S
C3747 C3746 1.363 . S
C3747 C3750 1.363 . S
N3748 C3750 1.356 . S
N3748 H3760 0.984 . S
N3748 H3761 0.985 . S
N3749 C3751 1.356 . S
N3749 H3754 0.984 . S
N3749 H3755 0.985 . S
C3750 C3744 1.379 . S
C3750 C3747 1.363 . S
C3750 N3748 1.356 . S
C3751 C3745 1.363 . S
C3751 C3746 1.379 . S
C3751 N3749 1.356 . S
N3752 C3744 1.356 . S
N3752 H3758 0.984 . S
N3752 H3759 0.984 . S
N3753 C3746 1.356 . S
N3753 H3756 0.984 . S
N3753 H3757 0.985 . S
H3754 N3749 0.984 . S
H3755 N3749 0.985 . S
H3756 N3753 0.984 . S
H3757 N3753 0.985 . S
H3758 N3752 0.984 . S
H3759 N3752 0.984 . S
H3760 N3748 0.984 . S
H3761 N3748 0.985 . S
C3762 C3763 1.363 . S
C3762 C3768 1.379 . S
C3762 N3770 1.356 . S
C3763 C3762 1.363 . S
C3763 C3769 1.363 . S
C3764 C3765 1.363 . S
C3764 C3769 1.379 . S
C3764 N3771 1.356 . S
C3765 C3764 1.363 . S
C3765 C3768 1.363 . S
N3766 C3768 1.356 . S
N3766 H3778 0.984 . S
N3766 H3779 0.985 . S
N3767 C3769 1.356 . S
N3767 H3772 0.984 . S
N3767 H3773 0.985 . S
C3768 C3762 1.379 . S
C3768 C3765 1.363 . S
C3768 N3766 1.356 . S
C3769 C3763 1.363 . S
C3769 C3764 1.379 . S
C3769 N3767 1.356 . S
N3770 C3762 1.356 . S
N3770 H3776 0.984 . S
N3770 H3777 0.984 . S
N3771 C3764 1.356 . S
N3771 H3774 0.984 . S
N3771 H3775 0.985 . S
H3772 N3767 0.984 . S
H3773 N3767 0.985 . S
H3774 N3771 0.984 . S
H3775 N3771 0.985 . S
H3776 N3770 0.984 . S
H3777 N3770 0.984 . S
H3778 N3766 0.984 . S
H3779 N3766 0.985 . S
C3780 C3781 1.363 . S
C3780 C3786 1.379 . S
C3780 N3788 1.356 . S
C3781 C3780 1.363 . S
C3781 C3787 1.363 . S
C3782 C3783 1.363 . S
C3782 C3787 1.379 . S
C3782 N3789 1.356 . S
C3783 C3782 1.363 . S
C3783 C3786 1.363 . S
N3784 C3786 1.386 . S
N3784 H3796 0.980 1_545 S
N3784 H3797 0.960 1_545 S
N3785 C3787 1.356 . S
N3785 H3790 0.984 . S
N3785 H3791 0.985 . S
C3786 C3780 1.379 . S
C3786 C3783 1.363 . S
C3786 N3784 1.386 . S
C3787 C3781 1.363 . S
C3787 C3782 1.379 . S
C3787 N3785 1.356 . S
N3788 C3780 1.356 . S
N3788 H3794 0.984 . S
N3788 H3795 0.984 . S
N3789 C3782 1.356 . S
N3789 H3792 0.984 . S
N3789 H3793 0.985 . S
H3790 N3785 0.984 . S
H3791 N3785 0.985 . S
H3792 N3789 0.984 . S
H3793 N3789 0.985 . S
H3794 N3788 0.984 . S
H3795 N3788 0.984 . S
H3796 N3784 0.980 1_565 S
H3797 N3784 0.960 1_565 S
C3798 C3799 1.363 . S
C3798 C3804 1.399 1_655 S
C3798 N3806 1.356 1_655 S
C3799 C3798 1.363 . S
C3799 C3805 1.363 . S
C3800 C3801 1.363 . S
C3800 C3805 1.379 . S
C3800 N3807 1.356 . S
C3801 C3800 1.363 . S
C3801 C3804 1.283 1_655 S
N3802 C3804 1.403 . S
N3802 H3814 0.984 . S
N3802 H3815 0.985 . S
N3803 C3805 1.356 . S
N3803 H3808 0.984 . S
N3803 H3809 0.985 . S
C3804 C3798 1.399 1_455 S
C3804 C3801 1.283 1_455 S
C3804 N3802 1.403 . S
C3805 C3799 1.363 . S
C3805 C3800 1.379 . S
C3805 N3803 1.356 . S
N3806 C3798 1.356 1_455 S
N3806 H3812 0.984 . S
N3806 H3813 0.984 1_455 S
N3807 C3800 1.356 . S
N3807 H3810 0.984 . S
N3807 H3811 0.985 . S
H3808 N3803 0.984 . S
H3809 N3803 0.985 . S
H3810 N3807 0.984 . S
H3811 N3807 0.985 . S
H3812 N3806 0.984 . S
H3813 N3806 0.984 1_655 S
H3814 N3802 0.984 . S
H3815 N3802 0.985 . S
C3816 C3817 1.363 . S
C3816 C3822 1.379 . S
C3816 N3824 1.356 . S
C3817 C3816 1.363 . S
C3817 C3823 1.363 . S
C3818 C3819 1.363 . S
C3818 C3823 1.379 . S
C3818 N3825 1.356 . S
C3819 C3818 1.363 . S
C3819 C3822 1.363 . S
N3820 C3822 1.356 . S
N3820 H3832 0.984 . S
N3820 H3833 0.985 . S
N3821 C3823 1.356 . S
N3821 H3826 0.984 . S
N3821 H3827 0.985 . S
C3822 C3816 1.379 . S
C3822 C3819 1.363 . S
C3822 N3820 1.356 . S
C3823 C3817 1.363 . S
C3823 C3818 1.379 . S
C3823 N3821 1.356 . S
N3824 C3816 1.356 . S
N3824 H3830 0.984 . S
N3824 H3831 0.984 . S
N3825 C3818 1.356 . S
N3825 H3828 0.984 . S
N3825 H3829 0.985 . S
H3826 N3821 0.984 . S
H3827 N3821 0.985 . S
H3828 N3825 0.984 . S
H3829 N3825 0.985 . S
H3830 N3824 0.984 . S
H3831 N3824 0.984 . S
H3832 N3820 0.984 . S
H3833 N3820 0.985 . S
C3834 C3835 1.363 . S
C3834 C3840 1.379 . S
C3834 N3842 1.356 . S
C3835 C3834 1.363 . S
C3835 C3841 1.363 . S
C3836 C3837 1.363 . S
C3836 C3841 1.379 . S
C3836 N3843 1.356 . S
C3837 C3836 1.363 . S
C3837 C3840 1.363 . S
N3838 C3840 1.356 . S
N3838 H3850 0.984 . S
N3838 H3851 0.985 . S
N3839 C3841 1.356 . S
N3839 H3844 0.984 . S
N3839 H3845 0.985 . S
C3840 C3834 1.379 . S
C3840 C3837 1.363 . S
C3840 N3838 1.356 . S
C3841 C3835 1.363 . S
C3841 C3836 1.379 . S
C3841 N3839 1.356 . S
N3842 C3834 1.356 . S
N3842 H3848 0.984 . S
N3842 H3849 0.984 . S
N3843 C3836 1.356 . S
N3843 H3846 0.984 . S
N3843 H3847 0.985 . S
H3844 N3839 0.984 . S
H3845 N3839 0.985 . S
H3846 N3843 0.984 . S
H3847 N3843 0.985 . S
H3848 N3842 0.984 . S
H3849 N3842 0.984 . S
H3850 N3838 0.984 . S
H3851 N3838 0.985 . S
C3852 C3853 1.363 . S
C3852 C3858 1.379 . S
C3852 N3860 1.356 . S
C3853 C3852 1.363 . S
C3853 C3859 1.363 . S
C3854 C3855 1.363 . S
C3854 C3859 1.379 . S
C3854 N3861 1.356 . S
C3855 C3854 1.363 . S
C3855 C3858 1.363 . S
N3856 C3858 1.356 . S
N3856 H3868 0.984 . S
N3856 H3869 0.985 . S
N3857 C3859 1.356 . S
N3857 H3862 0.984 . S
N3857 H3863 0.985 . S
C3858 C3852 1.379 . S
C3858 C3855 1.363 . S
C3858 N3856 1.356 . S
C3859 C3853 1.363 . S
C3859 C3854 1.379 . S
C3859 N3857 1.356 . S
N3860 C3852 1.356 . S
N3860 H3866 0.984 . S
N3860 H3867 0.984 . S
N3861 C3854 1.356 . S
N3861 H3864 0.984 . S
N3861 H3865 0.985 . S
H3862 N3857 0.984 . S
H3863 N3857 0.985 . S
H3864 N3861 0.984 . S
H3865 N3861 0.985 . S
H3866 N3860 0.984 . S
H3867 N3860 0.984 . S
H3868 N3856 0.984 . S
H3869 N3856 0.985 . S
C3870 C3871 1.363 . S
C3870 C3876 1.379 . S
C3870 N3878 1.356 . S
C3871 C3870 1.363 . S
C3871 C3877 1.363 . S
C3872 C3873 1.363 . S
C3872 C3877 1.379 . S
C3872 N3879 1.356 . S
C3873 C3872 1.363 . S
C3873 C3876 1.363 . S
N3874 C3876 1.356 . S
N3874 H3886 0.984 . S
N3874 H3887 0.985 . S
N3875 C3877 1.356 . S
N3875 H3880 0.984 . S
N3875 H3881 0.985 . S
C3876 C3870 1.379 . S
C3876 C3873 1.363 . S
C3876 N3874 1.356 . S
C3877 C3871 1.363 . S
C3877 C3872 1.379 . S
C3877 N3875 1.356 . S
N3878 C3870 1.356 . S
N3878 H3884 0.984 . S
N3878 H3885 0.984 . S
N3879 C3872 1.356 . S
N3879 H3882 0.984 . S
N3879 H3883 0.985 . S
H3880 N3875 0.984 . S
H3881 N3875 0.985 . S
H3882 N3879 0.984 . S
H3883 N3879 0.985 . S
H3884 N3878 0.984 . S
H3885 N3878 0.984 . S
H3886 N3874 0.984 . S
H3887 N3874 0.985 . S
C3888 C3889 1.363 . S
C3888 C3894 1.379 . S
C3888 N3896 1.356 . S
C3889 C3888 1.363 . S
C3889 C3895 1.363 . S
C3890 C3891 1.363 . S
C3890 C3895 1.379 . S
C3890 N3897 1.356 . S
C3891 C3890 1.363 . S
C3891 C3894 1.363 . S
N3892 C3894 1.356 . S
N3892 H3904 0.984 . S
N3892 H3905 0.985 . S
N3893 C3895 1.356 . S
N3893 H3898 0.984 . S
N3893 H3899 0.985 . S
C3894 C3888 1.379 . S
C3894 C3891 1.363 . S
C3894 N3892 1.356 . S
C3895 C3889 1.363 . S
C3895 C3890 1.379 . S
C3895 N3893 1.356 . S
N3896 C3888 1.356 . S
N3896 H3902 0.984 . S
N3896 H3903 0.984 . S
N3897 C3890 1.356 . S
N3897 H3900 0.984 . S
N3897 H3901 0.985 . S
H3898 N3893 0.984 . S
H3899 N3893 0.985 . S
H3900 N3897 0.984 . S
H3901 N3897 0.985 . S
H3902 N3896 0.984 . S
H3903 N3896 0.984 . S
H3904 N3892 0.984 . S
H3905 N3892 0.985 . S
C3906 C3907 1.363 . S
C3906 C3912 1.379 . S
C3906 N3914 1.356 . S
C3907 C3906 1.363 . S
C3907 C3913 1.363 . S
C3908 C3909 1.363 . S
C3908 C3913 1.379 . S
C3908 N3915 1.356 . S
C3909 C3908 1.363 . S
C3909 C3912 1.363 . S
N3910 C3912 1.356 . S
N3910 H3922 0.984 . S
N3910 H3923 0.985 . S
N3911 C3913 1.356 . S
N3911 H3916 0.984 . S
N3911 H3917 0.985 . S
C3912 C3906 1.379 . S
C3912 C3909 1.363 . S
C3912 N3910 1.356 . S
C3913 C3907 1.363 . S
C3913 C3908 1.379 . S
C3913 N3911 1.356 . S
N3914 C3906 1.356 . S
N3914 H3920 0.984 . S
N3914 H3921 0.984 . S
N3915 C3908 1.356 . S
N3915 H3918 0.984 . S
N3915 H3919 0.985 . S
H3916 N3911 0.984 . S
H3917 N3911 0.985 . S
H3918 N3915 0.984 . S
H3919 N3915 0.985 . S
H3920 N3914 0.984 . S
H3921 N3914 0.984 . S
H3922 N3910 0.984 . S
H3923 N3910 0.985 . S
C3924 C3925 1.363 . S
C3924 C3930 1.379 . S
C3924 N3932 1.356 . S
C3925 C3924 1.363 . S
C3925 C3931 1.363 . S
C3926 C3927 1.363 . S
C3926 C3931 1.379 . S
C3926 N3933 1.356 . S
C3927 C3926 1.363 . S
C3927 C3930 1.363 . S
N3928 C3930 1.356 . S
N3928 H3940 0.984 . S
N3928 H3941 0.985 . S
N3929 C3931 1.356 . S
N3929 H3934 0.984 . S
N3929 H3935 0.985 . S
C3930 C3924 1.379 . S
C3930 C3927 1.363 . S
C3930 N3928 1.356 . S
C3931 C3925 1.363 . S
C3931 C3926 1.379 . S
C3931 N3929 1.356 . S
N3932 C3924 1.356 . S
N3932 H3938 0.984 . S
N3932 H3939 0.984 . S
N3933 C3926 1.356 . S
N3933 H3936 0.984 . S
N3933 H3937 0.985 . S
H3934 N3929 0.984 . S
H3935 N3929 0.985 . S
H3936 N3933 0.984 . S
H3937 N3933 0.985 . S
H3938 N3932 0.984 . S
H3939 N3932 0.984 . S
H3940 N3928 0.984 . S
H3941 N3928 0.985 . S
C3942 C3943 1.363 . S
C3942 C3948 1.379 . S
C3942 N3950 1.356 . S
C3943 C3942 1.363 . S
C3943 C3949 1.363 . S
C3944 C3945 1.363 . S
C3944 C3949 1.379 . S
C3944 N3951 1.356 1_655 S
C3945 C3944 1.363 . S
C3945 C3948 1.363 . S
N3946 C3948 1.356 . S
N3946 H3958 0.984 . S
N3946 H3959 0.985 . S
N3947 C3949 1.356 . S
N3947 H3952 0.984 . S
N3947 H3953 0.985 1_655 S
C3948 C3942 1.379 . S
C3948 C3945 1.363 . S
C3948 N3946 1.356 . S
C3949 C3943 1.363 . S
C3949 C3944 1.379 . S
C3949 N3947 1.356 . S
N3950 C3942 1.356 . S
N3950 H3956 0.984 . S
N3950 H3957 0.984 . S
N3951 C3944 1.356 1_455 S
N3951 H3954 0.984 . S
N3951 H3955 0.985 . S
H3952 N3947 0.984 . S
H3953 N3947 0.985 1_455 S
H3954 N3951 0.984 . S
H3955 N3951 0.985 . S
H3956 N3950 0.984 . S
H3957 N3950 0.984 . S
H3958 N3946 0.984 . S
H3959 N3946 0.985 . S
C3960 C3961 1.363 . S
C3960 C3966 1.379 . S
C3960 N3968 1.356 . S
C3961 C3960 1.363 . S
C3961 C3967 1.363 . S
C3962 C3963 1.363 . S
C3962 C3967 1.379 . S
C3962 N3969 1.356 . S
C3963 C3962 1.363 . S
C3963 C3966 1.363 . S
N3964 C3966 1.356 . S
N3964 H3976 0.984 . S
N3964 H3977 0.985 . S
N3965 C3967 1.356 . S
N3965 H3970 0.984 . S
N3965 H3971 0.985 . S
C3966 C3960 1.379 . S
C3966 C3963 1.363 . S
C3966 N3964 1.356 . S
C3967 C3961 1.363 . S
C3967 C3962 1.379 . S
C3967 N3965 1.356 . S
N3968 C3960 1.356 . S
N3968 H3974 0.984 . S
N3968 H3975 0.984 . S
N3969 C3962 1.356 . S
N3969 H3972 0.984 . S
N3969 H3973 0.985 . S
H3970 N3965 0.984 . S
H3971 N3965 0.985 . S
H3972 N3969 0.984 . S
H3973 N3969 0.985 . S
H3974 N3968 0.984 . S
H3975 N3968 0.984 . S
H3976 N3964 0.984 . S
H3977 N3964 0.985 . S
C3978 C3979 1.363 . S
C3978 C3984 1.379 . S
C3978 N3986 1.356 . S
C3979 C3978 1.363 . S
C3979 C3985 1.363 . S
C3980 C3981 1.363 . S
C3980 C3985 1.379 . S
C3980 N3987 1.356 . S
C3981 C3980 1.363 . S
C3981 C3984 1.363 . S
N3982 C3984 1.356 . S
N3982 H3994 0.984 . S
N3982 H3995 0.970 . S
N3983 C3985 1.356 . S
N3983 H3988 0.984 . S
N3983 H3989 0.985 . S
C3984 C3978 1.379 . S
C3984 C3981 1.363 . S
C3984 N3982 1.356 . S
C3985 C3979 1.363 . S
C3985 C3980 1.379 . S
C3985 N3983 1.356 . S
N3986 C3978 1.356 . S
N3986 H3992 0.984 . S
N3986 H3993 0.984 . S
N3987 C3980 1.356 . S
N3987 H3990 0.984 . S
N3987 H3991 0.985 . S
H3988 N3983 0.984 . S
H3989 N3983 0.985 . S
H3990 N3987 0.984 . S
H3991 N3987 0.985 . S
H3992 N3986 0.984 . S
H3993 N3986 0.984 . S
H3994 N3982 0.984 . S
H3995 N3982 0.970 . S
C2701 C49 1.676 . S
C2703 C2189 1.632 . S
C2719 C137 1.693 . S
C2721 C2233 1.637 . S
C2739 C2313 1.640 . S
C2737 C205 1.685 . S
C2755 C196 1.676 . S
C2757 C2357 1.619 . S
C2773 C57 1.681 . S
C2775 C2437 1.645 . S
C2791 C145 1.693 . S
C2793 C2499 1.618 . S
C2809 C313 1.678 . S
C2811 C2419 1.634 . S
C2829 C2481 1.619 . S
C2827 C401 1.695 . S
C2847 C2375 1.629 . S
C2845 C489 1.684 . S
C2863 C469 1.678 . S
C2865 C2295 1.634 . S
C2883 C2171 1.640 . S
C2881 C293 1.684 . S
C2899 C381 1.695 . S
C2901 C2251 1.637 . S
C2917 C577 1.724 . S
C2919 C2561 1.644 . S
C2935 C645 1.721 . S
C2937 C2605 1.667 . S
C2955 C2685 1.618 . S
C2953 C733 1.700 . S
C2971 C724 1.699 . S
C2973 C1631 1.624 . S
C2989 C585 1.716 . S
C2991 C1675 1.661 . S
C3007 C636 1.728 . S
C3009 C1755 1.650 . S
C3025 C841 1.700 . S
C3027 C1693 1.645 . S
C3043 C937 1.731 . S
C3045 C1737 1.652 . S
C3063 C1613 1.640 . S
C3061 C1025 1.718 . S
C3081 C2667 1.646 . S
C3079 C988 1.727 . S
C3099 C2543 1.618 . S
C3097 C821 1.701 . S
C3117 C2623 1.668 . S
C3115 C900 1.724 . S
C3133 C1105 1.699 . S
C3135 C1817 1.624 . S
C3151 C1193 1.728 . S
C3153 C1879 1.651 . S
C3169 C1281 1.716 . S
C3171 C1923 1.662 . S
C3187 C1289 1.724 . S
C3189 C1985 1.668 . S
C3207 C2047 1.644 . S
C3205 C1113 1.700 . S
C3225 C2127 1.637 . S
C3223 C1201 1.721 . S
C3243 C2065 1.669 . S
C3241 C1369 1.726 . S
C3261 C2109 1.639 . S
C3259 C1457 1.723 . S
C3277 C1553 1.701 . S
C3279 C2003 1.644 . S
C3297 C1941 1.645 . S
C3295 C1516 1.700 . S
C3313 C1349 1.718 . S
C3315 C1799 1.640 . S
C3333 C1861 1.653 . S
C3331 C1437 1.731 . S
C3351 C1637 1.437 . S
C3349 C29 1.541 . S
C3367 C117 1.522 . S
C3369 C1681 1.443 . S
C3387 C1761 1.459 . S
C3385 C225 1.569 . S
C3405 C1823 1.436 . S
C3403 C233 1.541 . S
C3423 C1885 1.459 . S
C3421 C20 1.569 . S
C3441 C1929 1.443 . S
C3439 C108 1.523 . S
C3457 C321 1.547 . S
C3459 C1947 1.487 . S
C3475 C409 1.526 . S
C3477 C1805 1.403 . S
C3493 C497 1.573 . S
C3495 C1867 1.459 . S
C3511 C460 1.547 . S
C3513 C1699 1.487 . S
C3531 C1743 1.460 . S
C3529 C284 1.572 . S
C3547 C372 1.526 . S
C3549 C1619 1.403 . S
C3567 C1991 1.447 . S
C3565 C557 1.527 . S
C3583 C665 1.561 . S
C3585 C2053 1.476 . S
C3601 C753 1.576 . S
C3603 C2133 1.449 . S
C3621 C2195 1.244 . S
C3619 C761 1.332 . S
C3637 C548 1.507 . S
C3639 C2239 1.429 . S
C3655 C673 1.338 . S
C3657 C2319 1.246 . S
C3673 C849 1.340 . S
C3675 C2301 1.237 . S
C3691 C929 1.345 . S
C3693 C2177 1.251 . S
C3711 C2257 1.431 . S
C3709 C1017 1.512 . S
C3727 C997 1.534 . S
C3729 C2071 1.450 . S
C3745 C812 1.579 . S
C3747 C2115 1.449 . S
C3765 C2009 1.477 . S
C3763 C909 1.565 . S
C3783 C2363 1.263 . S
C3781 C1085 1.333 . S
C3799 C1173 1.338 . S
C3801 C2443 1.246 . S
C3817 C1261 1.507 . S
C3819 C2505 1.391 . S
C3837 C2567 1.408 . S
C3835 C1252 1.527 . S
C3855 C2611 1.489 . S
C3853 C1076 1.576 . S
C3871 C1164 1.561 . S
C3873 C2691 1.438 . S
C3889 C1377 1.534 . S
C3891 C2673 1.410 . S
C3907 C1465 1.566 . S
C3909 C2549 1.440 . S
C3927 C2629 1.488 . S
C3925 C1545 1.579 . S
C3945 C2425 1.243 . S
C3943 C1525 1.333 . S
C3963 C2487 1.393 . S
C3961 C1340 1.512 . S
C3979 C1428 1.345 . S
C3981 C2381 1.269 . S
