# Generated by pormake.
# Topology nom, (4,4)-cn, num edge types: 1
# Building blocks:
#     Node 0, Type 0, BuildingBlock: NAWXER_clean_linker_0, # of connection points: 4
#     Node 1, Type 0, BuildingBlock: NAWXER_clean_linker_0, # of connection points: 4
#     Node 2, Type 0, BuildingBlock: NAWXER_clean_linker_0, # of connection points: 4
#     Node 3, Type 0, BuildingBlock: NAWXER_clean_linker_0, # of connection points: 4
#     Node 4, Type 0, BuildingBlock: NAWXER_clean_linker_0, # of connection points: 4
#     Node 5, Type 0, BuildingBlock: NAWXER_clean_linker_0, # of connection points: 4
#     Node 6, Type 1, BuildingBlock: CEKHIL_clean_sbu_0, # of connection points: 4
#     Node 7, Type 1, BuildingBlock: CEKHIL_clean_sbu_0, # of connection points: 4
#     Node 8, Type 1, BuildingBlock: CEKHIL_clean_sbu_0, # of connection points: 4
#     Node 9, Type 1, BuildingBlock: CEKHIL_clean_sbu_0, # of connection points: 4
#     Node 10, Type 1, BuildingBlock: CEKHIL_clean_sbu_0, # of connection points: 4
#     Node 11, Type 1, BuildingBlock: CEKHIL_clean_sbu_0, # of connection points: 4
#     Edge 12, Type (0, 1), BuildingBlock: CIFDUS_clean_linker_0, # of connection points: 2
#     Edge 13, Type (0, 1), BuildingBlock: CIFDUS_clean_linker_0, # of connection points: 2
#     Edge 14, Type (0, 1), BuildingBlock: CIFDUS_clean_linker_0, # of connection points: 2
#     Edge 15, Type (0, 1), BuildingBlock: CIFDUS_clean_linker_0, # of connection points: 2
#     Edge 16, Type (0, 1), BuildingBlock: CIFDUS_clean_linker_0, # of connection points: 2
#     Edge 17, Type (0, 1), BuildingBlock: CIFDUS_clean_linker_0, # of connection points: 2
#     Edge 18, Type (0, 1), BuildingBlock: CIFDUS_clean_linker_0, # of connection points: 2
#     Edge 19, Type (0, 1), BuildingBlock: CIFDUS_clean_linker_0, # of connection points: 2
#     Edge 20, Type (0, 1), BuildingBlock: CIFDUS_clean_linker_0, # of connection points: 2
#     Edge 21, Type (0, 1), BuildingBlock: CIFDUS_clean_linker_0, # of connection points: 2
#     Edge 22, Type (0, 1), BuildingBlock: CIFDUS_clean_linker_0, # of connection points: 2
#     Edge 23, Type (0, 1), BuildingBlock: CIFDUS_clean_linker_0, # of connection points: 2
#     Edge 24, Type (0, 1), BuildingBlock: CIFDUS_clean_linker_0, # of connection points: 2
#     Edge 25, Type (0, 1), BuildingBlock: CIFDUS_clean_linker_0, # of connection points: 2
#     Edge 26, Type (0, 1), BuildingBlock: CIFDUS_clean_linker_0, # of connection points: 2
#     Edge 27, Type (0, 1), BuildingBlock: CIFDUS_clean_linker_0, # of connection points: 2
#     Edge 28, Type (0, 1), BuildingBlock: CIFDUS_clean_linker_0, # of connection points: 2
#     Edge 29, Type (0, 1), BuildingBlock: CIFDUS_clean_linker_0, # of connection points: 2
#     Edge 30, Type (0, 1), BuildingBlock: CIFDUS_clean_linker_0, # of connection points: 2
#     Edge 31, Type (0, 1), BuildingBlock: CIFDUS_clean_linker_0, # of connection points: 2
#     Edge 32, Type (0, 1), BuildingBlock: CIFDUS_clean_linker_0, # of connection points: 2
#     Edge 33, Type (0, 1), BuildingBlock: CIFDUS_clean_linker_0, # of connection points: 2
#     Edge 34, Type (0, 1), BuildingBlock: CIFDUS_clean_linker_0, # of connection points: 2
#     Edge 35, Type (0, 1), BuildingBlock: CIFDUS_clean_linker_0, # of connection points: 2
# Relax obj value: 0.006
# Max RMSD: 0.110
# Mean RMSD: 0.075
data_MOF--net-nom--node1-CEKHIL_clean_sbu_0--node2-NAWXER_clean_linker_0--edge1-CIFDUS_clean_linker_0
_symmetry_space_group_name_H-M    P1
_symmetry_Int_Tables_number       1
_symmetry_cell_setting            triclinic
loop_
_symmetry_equiv_pos_as_xyz
'x, y, z'
_cell_length_a     47.281031
_cell_length_b     46.737754
_cell_length_c     51.636877
_cell_angle_alpha  89.895909
_cell_angle_beta   90.001684
_cell_angle_gamma 121.12181
loop_
_atom_site_label
_atom_site_type_symbol
_atom_site_fract_x
_atom_site_fract_y
_atom_site_fract_z
_atom_type_partial_charge
C0 C 0.89556 0.50652 0.339 0.0
C1 C 0.88025 0.48597 0.36057 0.0
C2 C 0.92926 0.52008 0.33451 0.0
C3 C 0.94809 0.51227 0.35095 0.0
C4 C 0.89935 0.47979 0.37795 0.0
C5 C 0.93301 0.49277 0.37313 0.0
C6 C 0.98334 0.52442 0.34504 0.0
C7 C 0.9257 0.45618 0.27967 0.0
C8 C 0.93031 0.47211 0.25559 0.0
C9 C 0.94646 0.47318 0.30049 0.0
C10 C 0.97209 0.50661 0.29779 0.0
C11 C 0.95597 0.5056 0.25288 0.0
C12 C 0.97688 0.5226 0.27376 0.0
C13 C 0.99465 0.52432 0.31972 0.0
C14 C 0.1415 0.57955 0.33347 0.0
C15 C 0.15306 0.60222 0.31254 0.0
C16 C 0.10806 0.5626 0.34057 0.0
C17 C 0.08572 0.56888 0.32749 0.0
C18 C 0.13007 0.60676 0.2986 0.0
C19 C 0.09698 0.59051 0.30609 0.0
C20 C 0.05035 0.55262 0.33494 0.0
C21 C 0.11132 0.60402 0.40544 0.0
C22 C 0.10398 0.58218 0.42652 0.0
C23 C 0.08966 0.59463 0.3844 0.0
C24 C 0.06092 0.56272 0.38362 0.0
C25 C 0.0743 0.55112 0.4264 0.0
C26 C 0.05303 0.54146 0.40513 0.0
C27 C 0.03891 0.55083 0.36064 0.0
H28 H 0.88142 0.51211 0.3256 0.0
H29 H 0.94046 0.53635 0.31794 0.0
H30 H 0.88802 0.46408 0.39479 0.0
H31 H 0.94704 0.48681 0.38636 0.0
H32 H 0.90605 0.43046 0.28241 0.0
H33 H 0.94267 0.46006 0.31867 0.0
H34 H 0.96037 0.51837 0.23447 0.0
H35 H 0.99672 0.54828 0.27117 0.0
H36 H 0.15827 0.57521 0.34469 0.0
H37 H 0.09982 0.54493 0.35646 0.0
H38 H 0.13749 0.62286 0.28175 0.0
H39 H 0.08016 0.59518 0.29521 0.0
H40 H 0.13378 0.62836 0.40531 0.0
H41 H 0.09573 0.61203 0.36851 0.0
H42 H 0.06804 0.53389 0.44245 0.0
H43 H 0.03079 0.51692 0.40518 0.0
N44 N 0.00584 0.53696 0.3646 0.0
N45 N 0.02764 0.53904 0.31561 0.0
C46 C 0.39137 0.87696 0.50675 0.0
C47 C 0.40345 0.86539 0.52643 0.0
C48 C 0.41059 0.90971 0.49744 0.0
C49 C 0.44273 0.9311 0.50702 0.0
C50 C 0.43538 0.88668 0.53612 0.0
C51 C 0.45486 0.91913 0.52643 0.0
C52 C 0.4626 0.96683 0.4991 0.0
C53 C 0.44442 0.90963 0.42498 0.0
C54 C 0.42628 0.9152 0.40614 0.0
C55 C 0.45657 0.93003 0.44691 0.0
C56 C 0.45046 0.95616 0.45068 0.0
C57 C 0.4209 0.94188 0.4097 0.0
C58 C 0.43295 0.96216 0.43166 0.0
C59 C 0.46379 0.97849 0.47354 0.0
C60 C 0.56172 0.12618 0.48003 0.0
C61 C 0.5433 0.13967 0.47011 0.0
C62 C 0.54639 0.09209 0.4858 0.0
C63 C 0.51234 0.0708 0.48181 0.0
C64 C 0.50925 0.11802 0.46575 0.0
C65 C 0.49402 0.08391 0.47134 0.0
C66 C 0.49556 0.0349 0.48852 0.0
C67 C 0.53 0.09418 0.56267 0.0
C68 C 0.55195 0.08828 0.5768 0.0
C69 C 0.51136 0.07295 0.54234 0.0
C70 C 0.51463 0.04566 0.53559 0.0
C71 C 0.55415 0.06021 0.57056 0.0
C72 C 0.53565 0.03913 0.55026 0.0
C73 C 0.49614 0.02328 0.51366 0.0
H74 H 0.36659 0.86109 0.4993 0.0
H75 H 0.39982 0.9185 0.48337 0.0
H76 H 0.44517 0.87825 0.55133 0.0
H77 H 0.47932 0.93508 0.53443 0.0
H78 H 0.44896 0.88928 0.42294 0.0
H79 H 0.47092 0.92546 0.46085 0.0
H80 H 0.40765 0.94736 0.39535 0.0
H81 H 0.4284 0.9825 0.43385 0.0
H82 H 0.58808 0.14188 0.48313 0.0
H83 H 0.56111 0.08235 0.49342 0.0
H84 H 0.49415 0.12748 0.45848 0.0
H85 H 0.46772 0.06786 0.46807 0.0
H86 H 0.52769 0.11555 0.56697 0.0
H87 H 0.49455 0.07797 0.53185 0.0
H88 H 0.57022 0.05448 0.58141 0.0
H89 H 0.53822 0.01796 0.54571 0.0
N90 N 0.47943 0.98977 0.51794 0.0
N91 N 0.4796 0.01209 0.46943 0.0
C92 C 0.52782 0.43306 0.58872 0.0
C93 C 0.50395 0.40919 0.57174 0.0
C94 C 0.51837 0.4412 0.61195 0.0
C95 C 0.48486 0.42615 0.6185 0.0
C96 C 0.47039 0.39343 0.57901 0.0
C97 C 0.46096 0.40231 0.60185 0.0
C98 C 0.47466 0.43733 0.64154 0.0
C99 C 0.50584 0.36708 0.67167 0.0
C100 C 0.5285 0.37891 0.69223 0.0
C101 C 0.49166 0.38532 0.66309 0.0
C102 C 0.50076 0.41636 0.67432 0.0
C103 C 0.53737 0.40965 0.70365 0.0
C104 C 0.52379 0.42822 0.69472 0.0
C105 C 0.48427 0.43511 0.66704 0.0
C106 C 0.42576 0.50086 0.73151 0.0
C107 C 0.45431 0.52316 0.74554 0.0
C108 C 0.4275 0.48178 0.71133 0.0
C109 C 0.45787 0.48497 0.70474 0.0
C110 C 0.48417 0.52483 0.73973 0.0
C111 C 0.48589 0.50591 0.71963 0.0
C112 C 0.46146 0.46734 0.68231 0.0
C113 C 0.42905 0.53615 0.65155 0.0
C114 C 0.40127 0.52104 0.6351 0.0
C115 C 0.44556 0.51958 0.65827 0.0
C116 C 0.43387 0.48679 0.64977 0.0
C117 C 0.39049 0.48868 0.62575 0.0
C118 C 0.40652 0.47178 0.63308 0.0
C119 C 0.45082 0.46852 0.6569 0.0
H120 H 0.55381 0.44634 0.58382 0.0
H121 H 0.53717 0.46012 0.62439 0.0
H122 H 0.45117 0.37426 0.56705 0.0
H123 H 0.43496 0.39045 0.60659 0.0
H124 H 0.49827 0.34318 0.6628 0.0
H125 H 0.47278 0.37441 0.64833 0.0
H126 H 0.55492 0.41936 0.71947 0.0
H127 H 0.53109 0.45182 0.704 0.0
H128 H 0.40237 0.49894 0.73558 0.0
H129 H 0.40535 0.46515 0.70052 0.0
H130 H 0.50643 0.54114 0.75056 0.0
H131 H 0.50948 0.50843 0.7152 0.0
H132 H 0.43813 0.56082 0.65947 0.0
H133 H 0.46751 0.53255 0.67015 0.0
H134 H 0.36991 0.47641 0.61247 0.0
H135 H 0.39745 0.44682 0.6257 0.0
N136 N 0.45793 0.45344 0.63757 0.0
N137 N 0.47758 0.45062 0.68626 0.0
C138 C 0.89292 0.40136 0.83884 0.0
C139 C 0.88259 0.41163 0.81713 0.0
C140 C 0.92608 0.41885 0.84631 0.0
C141 C 0.94941 0.44781 0.83285 0.0
C142 C 0.9058 0.44004 0.80328 0.0
C143 C 0.93886 0.45806 0.81115 0.0
C144 C 0.98513 0.46561 0.83971 0.0
C145 C 0.93466 0.4717 0.91091 0.0
C146 C 0.9338 0.45143 0.93138 0.0
C147 C 0.95535 0.47796 0.88957 0.0
C148 C 0.97563 0.46414 0.88834 0.0
C149 C 0.95482 0.43846 0.93045 0.0
C150 C 0.97576 0.44503 0.90925 0.0
C151 C 0.99689 0.46988 0.86544 0.0
C152 C 0.14572 0.54253 0.85275 0.0
C153 C 0.15267 0.5228 0.86921 0.0
C154 C 0.11314 0.53303 0.84686 0.0
C155 C 0.08666 0.50279 0.85628 0.0
C156 C 0.12591 0.49323 0.8795 0.0
C157 C 0.09338 0.48334 0.87304 0.0
C158 C 0.05182 0.49134 0.8496 0.0
C159 C 0.10808 0.5126 0.77382 0.0
C160 C 0.10678 0.53769 0.75968 0.0
C161 C 0.08605 0.49618 0.79439 0.0
C162 C 0.06264 0.50484 0.80123 0.0
C163 C 0.08212 0.54486 0.76581 0.0
C164 C 0.06031 0.5286 0.78626 0.0
C165 C 0.04051 0.49021 0.82398 0.0
H166 H 0.87551 0.3791 0.84947 0.0
H167 H 0.93348 0.40905 0.86221 0.0
H168 H 0.89833 0.44825 0.78637 0.0
H169 H 0.95628 0.4799 0.80011 0.0
H170 H 0.91874 0.482 0.91109 0.0
H171 H 0.95535 0.49341 0.87391 0.0
H172 H 0.955 0.42312 0.94612 0.0
H173 H 0.99147 0.43448 0.9089 0.0
H174 H 0.1654 0.56528 0.84411 0.0
H175 H 0.10878 0.5493 0.83476 0.0
H176 H 0.12995 0.47775 0.89277 0.0
H177 H 0.07336 0.46024 0.88104 0.0
H178 H 0.12669 0.5064 0.76951 0.0
H179 H 0.08781 0.47734 0.8053 0.0
H180 H 0.07985 0.56341 0.75491 0.0
H181 H 0.04213 0.53533 0.79088 0.0
N182 N 0.00759 0.47692 0.82011 0.0
N183 N 0.02955 0.48152 0.86932 0.0
C184 C 0.50488 0.89136 0.97903 0.0
C185 C 0.47713 0.87481 0.96288 0.0
C186 C 0.51806 0.92499 0.98516 0.0
C187 C 0.50396 0.94265 0.97494 0.0
C188 C 0.46316 0.89254 0.95251 0.0
C189 C 0.4768 0.92641 0.95822 0.0
C190 C 0.51766 0.97801 0.98186 0.0
C191 C 0.45608 0.91855 0.04953 0.0
C192 C 0.47337 0.92255 0.07269 0.0
C193 C 0.4717 0.93958 0.0284 0.0
C194 C 0.50515 0.96492 0.02975 0.0
C195 C 0.50699 0.94761 0.07399 0.0
C196 C 0.52265 0.9688 0.05276 0.0
C197 C 0.52101 0.9886 0.00782 0.0
C198 C 0.58235 0.13872 0.9969 0.0
C199 C 0.60521 0.14869 0.01738 0.0
C200 C 0.56367 0.10517 0.98949 0.0
C201 C 0.56844 0.08105 1.00165 0.0
C202 C 0.6084 0.12403 0.03044 0.0
C203 C 0.59045 0.09076 0.02255 0.0
C204 C 0.55019 0.04547 0.99366 0.0
C205 C 0.6022 0.10539 0.92191 0.0
C206 C 0.58022 0.10187 0.90203 0.0
C207 C 0.59122 0.08345 0.94308 0.0
C208 C 0.55792 0.05785 0.94503 0.0
C209 C 0.54706 0.07569 0.90381 0.0
C210 C 0.5361 0.05386 0.92501 0.0
C211 C 0.54554 0.03471 0.96752 0.0
H212 H 0.51597 0.87811 0.98725 0.0
H213 H 0.53928 0.93725 0.99788 0.0
H214 H 0.44185 0.88023 0.93987 0.0
H215 H 0.46573 0.93973 0.9501 0.0
H216 H 0.43022 0.89937 0.04784 0.0
H217 H 0.45728 0.93655 0.01123 0.0
H218 H 0.52086 0.95154 0.09166 0.0
H219 H 0.54838 0.98839 0.05438 0.0
H220 H 0.57907 0.1568 0.98632 0.0
H221 H 0.54571 0.09824 0.97413 0.0
H222 H 0.62469 0.13027 0.04693 0.0
H223 H 0.59405 0.07257 0.03271 0.0
H224 H 0.62786 0.12532 0.92128 0.0
H225 H 0.60871 0.08662 0.958 0.0
H226 H 0.5296 0.07176 0.88865 0.0
H227 H 0.5104 0.03401 0.92592 0.0
N228 N 0.52951 0.00132 0.96268 0.0
N229 N 0.53756 0.02192 0.01272 0.0
C230 C 0.50807 0.62591 0.16604 0.0
C231 C 0.47951 0.61084 0.18152 0.0
C232 C 0.52412 0.60869 0.15995 0.0
C233 C 0.5121 0.57618 0.16941 0.0
C234 C 0.46741 0.57825 0.19089 0.0
C235 C 0.48382 0.56124 0.18516 0.0
C236 C 0.53005 0.55861 0.16388 0.0
C237 C 0.47928 0.5562 0.09052 0.0
C238 C 0.50022 0.57535 0.07009 0.0
C239 C 0.49215 0.54986 0.11271 0.0
C240 C 0.52629 0.56269 0.1151 0.0
C241 C 0.5343 0.58751 0.07225 0.0
C242 C 0.54715 0.58105 0.09445 0.0
C243 C 0.53988 0.5558 0.13867 0.0
C244 C 0.61467 0.48355 0.15602 0.0
C245 C 0.64053 0.50168 0.13816 0.0
C246 C 0.59204 0.49342 0.16183 0.0
C247 C 0.5954 0.52256 0.15085 0.0
C248 C 0.64332 0.5304 0.12672 0.0
C249 C 0.62117 0.54073 0.13307 0.0
C250 C 0.57156 0.53368 0.1563 0.0
C251 C 0.60044 0.52016 0.23934 0.0
C252 C 0.57332 0.49207 0.25106 0.0
C253 C 0.59638 0.53356 0.21622 0.0
C254 C 0.56512 0.51919 0.20458 0.0
C255 C 0.54237 0.4774 0.23868 0.0
C256 C 0.53827 0.49109 0.21601 0.0
C257 C 0.55914 0.53373 0.18129 0.0
H258 H 0.51785 0.65095 0.15851 0.0
H259 H 0.54625 0.62099 0.14816 0.0
H260 H 0.44559 0.56619 0.20305 0.0
H261 H 0.4743 0.53632 0.19285 0.0
H262 H 0.45297 0.54653 0.08955 0.0
H263 H 0.47529 0.53471 0.12798 0.0
H264 H 0.55105 0.60186 0.05668 0.0
H265 H 0.57346 0.59076 0.09562 0.0
H266 H 0.61164 0.46151 0.16558 0.0
H267 H 0.5716 0.47767 0.17451 0.0
H268 H 0.66222 0.54471 0.11243 0.0
H269 H 0.62415 0.56299 0.12389 0.0
H270 H 0.62459 0.53232 0.24832 0.0
H271 H 0.61738 0.55547 0.20775 0.0
H272 H 0.52107 0.45518 0.24646 0.0
H273 H 0.51398 0.47954 0.20724 0.0
N274 N 0.53928 0.54661 0.1841 0.0
N275 N 0.56097 0.54434 0.13592 0.0
Co276 Co 0.63716 0.38174 0.4104 0.0
O277 O 0.67177 0.38492 0.38844 0.0
O278 O 0.679 0.42065 0.41952 0.0
C279 C 0.61374 0.32682 0.41978 0.0
O280 O 0.60902 0.3864 0.43824 0.0
Co281 Co 0.56293 0.33706 0.39759 0.0
O282 O 0.55524 0.34795 0.43292 0.0
C283 C 0.60326 0.40046 0.36913 0.0
C284 C 0.69192 0.41149 0.40155 0.0
C285 C 0.57872 0.37128 0.44587 0.0
O286 O 0.62808 0.40833 0.38406 0.0
O287 O 0.5759 0.37251 0.37054 0.0
O288 O 0.63963 0.34909 0.43235 0.0
O289 O 0.60437 0.33806 0.40079 0.0
Co290 Co 0.26177 0.62308 0.58676 0.0
O291 O 0.29686 0.6228 0.60542 0.0
O292 O 0.25891 0.58047 0.58225 0.0
C293 C 0.29351 0.67401 0.56865 0.0
O294 O 0.2234 0.61507 0.56349 0.0
Co295 Co 0.24206 0.67516 0.59947 0.0
O296 O 0.21353 0.65705 0.56842 0.0
C297 C 0.22201 0.61846 0.63495 0.0
C298 C 0.28516 0.59273 0.59673 0.0
C299 C 0.2084 0.63053 0.55721 0.0
O300 O 0.23203 0.60511 0.61831 0.0
O301 O 0.22646 0.64772 0.632 0.0
O302 O 0.29195 0.64787 0.55838 0.0
O303 O 0.27849 0.66909 0.59058 0.0
Co304 Co 0.65393 0.26155 0.73824 0.0
O305 O 0.65212 0.29162 0.71377 0.0
O306 O 0.61345 0.2621 0.74298 0.0
C307 C 0.70666 0.29658 0.75074 0.0
O308 O 0.64804 0.2288 0.76717 0.0
Co309 Co 0.70246 0.23669 0.72921 0.0
O310 O 0.69031 0.21976 0.76518 0.0
C311 C 0.64274 0.21037 0.69688 0.0
C312 C 0.62388 0.28351 0.72396 0.0
C313 C 0.66488 0.21655 0.77655 0.0
O314 O 0.63168 0.22424 0.71205 0.0
O315 O 0.67164 0.21464 0.69924 0.0
O316 O 0.68275 0.29869 0.76107 0.0
O317 O 0.69831 0.27564 0.73187 0.0
Co318 Co 0.40094 0.63633 0.90809 0.0
O319 O 0.36905 0.63762 0.88603 0.0
O320 O 0.35723 0.59713 0.91413 0.0
C321 C 0.4241 0.68994 0.92086 0.0
O322 O 0.42815 0.62867 0.9353 0.0
Co323 Co 0.47544 0.6825 0.89544 0.0
O324 O 0.4804 0.67204 0.9317 0.0
C325 C 0.43496 0.6218 0.86427 0.0
C326 C 0.34685 0.61028 0.89713 0.0
C327 C 0.45802 0.64661 0.94389 0.0
O328 O 0.41084 0.61213 0.88036 0.0
O329 O 0.46178 0.65025 0.86588 0.0
O330 O 0.39752 0.66661 0.93205 0.0
O331 O 0.43416 0.68061 0.90114 0.0
Co332 Co 0.76437 0.38184 0.08961 0.0
O333 O 0.73186 0.37973 0.11299 0.0
O334 O 0.76229 0.42239 0.08689 0.0
C335 C 0.73172 0.32979 0.07392 0.0
O336 O 0.79901 0.39085 0.0616 0.0
Co337 Co 0.78916 0.33225 0.09769 0.0
O338 O 0.80506 0.34608 0.0618 0.0
C339 C 0.81309 0.39056 0.13216 0.0
C340 C 0.73858 0.40842 0.10393 0.0
C341 C 0.80963 0.37289 0.05136 0.0
O342 O 0.79934 0.40244 0.11763 0.0
O343 O 0.80963 0.36183 0.12849 0.0
O344 O 0.72941 0.3544 0.06482 0.0
O345 O 0.75119 0.33685 0.09349 0.0
Co346 Co 0.38623 0.75492 0.23966 0.0
O347 O 0.38547 0.72212 0.2165 0.0
O348 O 0.42661 0.75427 0.243 0.0
C349 C 0.33444 0.7221 0.25519 0.0
O350 O 0.39546 0.78979 0.26752 0.0
Co351 Co 0.33863 0.78161 0.23327 0.0
O352 O 0.35369 0.79959 0.26859 0.0
C353 C 0.39528 0.80497 0.19759 0.0
C354 C 0.41431 0.73062 0.22577 0.0
C355 C 0.37997 0.80273 0.27819 0.0
O356 O 0.40682 0.79043 0.21161 0.0
O357 O 0.36729 0.80214 0.20199 0.0
O358 O 0.35853 0.71938 0.26439 0.0
O359 O 0.34182 0.74206 0.23569 0.0
H360 H 0.1887 0.66571 0.2934 0.0
H361 H 0.19841 0.58183 0.31496 0.0
H362 H 0.25618 0.61267 0.30136 0.0
H363 H 0.30335 0.66251 0.28085 0.0
H364 H 0.29046 0.74284 0.25495 0.0
H365 H 0.23443 0.71404 0.27219 0.0
C366 C 0.2031 0.65375 0.29481 0.0
C367 C 0.18877 0.62121 0.30507 0.0
C368 C 0.23589 0.67104 0.28601 0.0
C369 C 0.20859 0.60692 0.30746 0.0
C370 C 0.24167 0.62446 0.29945 0.0
C371 C 0.28827 0.67371 0.2792 0.0
C372 C 0.30105 0.7048 0.26674 0.0
C373 C 0.2555 0.65641 0.28842 0.0
C374 C 0.2812 0.71893 0.2644 0.0
C375 C 0.24912 0.70247 0.27427 0.0
H376 H 0.53104 0.16965 0.42975 0.0
H377 H 0.59201 0.19203 0.4978 0.0
H378 H 0.61912 0.25163 0.48825 0.0
H379 H 0.62567 0.29758 0.46055 0.0
H380 H 0.5631 0.27519 0.39358 0.0
H381 H 0.53598 0.21552 0.40313 0.0
C382 C 0.54993 0.1875 0.44273 0.0
C383 C 0.55948 0.17614 0.46441 0.0
C384 C 0.56509 0.22184 0.43738 0.0
C385 C 0.5845 0.19984 0.48069 0.0
C386 C 0.59988 0.23403 0.47538 0.0
C387 C 0.60603 0.27964 0.4481 0.0
C388 C 0.59651 0.29082 0.42634 0.0
C389 C 0.59044 0.24532 0.45374 0.0
C390 C 0.57093 0.26727 0.41045 0.0
C391 C 0.55543 0.23311 0.41586 0.0
H392 H 0.33523 0.49466 0.62456 0.0
H393 H 0.42831 0.58862 0.628 0.0
H394 H 0.40033 0.61852 0.6177 0.0
H395 H 0.34971 0.61849 0.6075 0.0
H396 H 0.25764 0.52493 0.59929 0.0
H397 H 0.2852 0.49438 0.61093 0.0
C398 C 0.34966 0.52162 0.62266 0.0
C399 C 0.384 0.53913 0.62755 0.0
C400 C 0.33359 0.53882 0.61573 0.0
C401 C 0.40182 0.57423 0.62524 0.0
C402 C 0.38588 0.59149 0.61904 0.0
C403 C 0.33568 0.59139 0.60828 0.0
C404 C 0.30167 0.57395 0.60279 0.0
C405 C 0.3518 0.57408 0.61437 0.0
C406 C 0.28387 0.53887 0.60344 0.0
C407 C 0.29961 0.52144 0.61016 0.0
H408 H 0.86042 0.38077 0.77104 0.0
H409 H 0.82741 0.39767 0.84403 0.0
H410 H 0.76974 0.36399 0.82982 0.0
H411 H 0.72879 0.32939 0.79656 0.0
H412 H 0.76203 0.30947 0.72476 0.0
H413 H 0.81947 0.34447 0.73852 0.0
C414 C 0.8405 0.37715 0.78369 0.0
C415 C 0.8479 0.39181 0.80837 0.0
C416 C 0.80753 0.35712 0.77564 0.0
C417 C 0.82208 0.38661 0.82489 0.0
C418 C 0.78921 0.36739 0.81678 0.0
C419 C 0.74865 0.33277 0.78396 0.0
C420 C 0.74123 0.31705 0.75963 0.0
C421 C 0.78163 0.35246 0.7922 0.0
C422 C 0.76714 0.3213 0.74359 0.0
C423 C 0.79999 0.34137 0.75141 0.0
H424 H 0.50803 0.84502 0.94216 0.0
H425 H 0.41377 0.82478 0.97076 0.0
H426 H 0.38949 0.76515 0.96178 0.0
H427 H 0.39494 0.71912 0.94503 0.0
H428 H 0.488 0.73974 0.91325 0.0
H429 H 0.51314 0.79892 0.9244 0.0
C430 C 0.48221 0.82741 0.94645 0.0
C431 C 0.46261 0.83898 0.95711 0.0
C432 C 0.46835 0.79338 0.94074 0.0
C433 C 0.42914 0.81624 0.9624 0.0
C434 C 0.41535 0.78224 0.95737 0.0
C435 C 0.4208 0.73657 0.94077 0.0
C436 C 0.43974 0.72523 0.92856 0.0
C437 C 0.4347 0.77057 0.94648 0.0
C438 C 0.47303 0.74804 0.92269 0.0
C439 C 0.48736 0.78181 0.92903 0.0
H440 H 0.62732 0.43746 0.13537 0.0
H441 H 0.70651 0.53968 0.1244 0.0
H442 H 0.74348 0.52032 0.11155 0.0
H443 H 0.75378 0.47387 0.10399 0.0
H444 H 0.67525 0.37274 0.11969 0.0
H445 H 0.63816 0.39234 0.13078 0.0
C446 C 0.6528 0.45578 0.13076 0.0
C447 C 0.66374 0.4901 0.13096 0.0
C448 C 0.67433 0.44461 0.12426 0.0
C449 C 0.69685 0.51304 0.12404 0.0
C450 C 0.71825 0.50201 0.11687 0.0
C451 C 0.72857 0.45626 0.10987 0.0
C452 C 0.71735 0.42191 0.111 0.0
C453 C 0.70729 0.4678 0.1169 0.0
C454 C 0.68466 0.39935 0.11883 0.0
C455 C 0.6633 0.41049 0.12511 0.0
H456 H 0.37403 0.80555 0.50167 0.0
H457 H 0.38581 0.85037 0.57679 0.0
H458 H 0.35122 0.7951 0.59634 0.0
H459 H 0.3187 0.73399 0.59221 0.0
H460 H 0.31016 0.68861 0.51775 0.0
H461 H 0.34223 0.74396 0.49771 0.0
C462 C 0.36882 0.80304 0.52228 0.0
C463 C 0.38228 0.83178 0.53784 0.0
C464 C 0.34956 0.77114 0.53345 0.0
C465 C 0.37576 0.82845 0.56455 0.0
C466 C 0.35597 0.79692 0.57568 0.0
C467 C 0.32371 0.73627 0.57157 0.0
C468 C 0.31203 0.70736 0.55643 0.0
C469 C 0.34287 0.76809 0.56036 0.0
C470 C 0.319 0.71057 0.52978 0.0
C471 C 0.3373 0.74219 0.51833 0.0
H472 H 0.56089 0.35529 0.66471 0.0
H473 H 0.52781 0.35852 0.74179 0.0
H474 H 0.55206 0.32674 0.75835 0.0
H475 H 0.58465 0.29974 0.75104 0.0
H476 H 0.62162 0.3011 0.67445 0.0
H477 H 0.59373 0.32894 0.65749 0.0
C478 C 0.55885 0.34877 0.68508 0.0
C479 C 0.54259 0.35906 0.70202 0.0
C480 C 0.57355 0.33128 0.69453 0.0
C481 C 0.54039 0.35092 0.72845 0.0
C482 C 0.55416 0.33271 0.73789 0.0
C483 C 0.58622 0.30586 0.73062 0.0
C484 C 0.60496 0.29828 0.71397 0.0
C485 C 0.57104 0.32295 0.72115 0.0
C486 C 0.60734 0.30677 0.68762 0.0
C487 C 0.59143 0.3227 0.67791 0.0
H488 H 0.2056 0.58625 0.87466 0.0
H489 H 0.17889 0.4829 0.87877 0.0
H490 H 0.23577 0.5003 0.88963 0.0
H491 H 0.29427 0.54541 0.89659 0.0
H492 H 0.32045 0.64802 0.88733 0.0
H493 H 0.26301 0.63029 0.87923 0.0
C494 C 0.21207 0.56733 0.8774 0.0
C495 C 0.18757 0.53323 0.87579 0.0
C496 C 0.24505 0.57743 0.88265 0.0
C497 C 0.1968 0.50937 0.88028 0.0
C498 C 0.22953 0.51929 0.88629 0.0
C499 C 0.28722 0.56373 0.89285 0.0
C500 C 0.31153 0.59793 0.89254 0.0
C501 C 0.25398 0.5533 0.88742 0.0
C502 C 0.30222 0.6215 0.88746 0.0
C503 C 0.26934 0.61143 0.8829 0.0
H504 H 0.66838 0.18144 0.03592 0.0
H505 H 0.58835 0.197 0.01658 0.0
H506 H 0.62171 0.25513 0.0301 0.0
H507 H 0.6726 0.30096 0.04961 0.0
H508 H 0.7492 0.28279 0.07399 0.0
H509 H 0.71782 0.226 0.05687 0.0
C510 C 0.65782 0.1972 0.03501 0.0
C511 C 0.62566 0.18446 0.02524 0.0
C512 C 0.67654 0.23022 0.04386 0.0
C513 C 0.61313 0.20596 0.02356 0.0
C514 C 0.6321 0.23925 0.03154 0.0
C515 C 0.68244 0.28455 0.05097 0.0
C516 C 0.71318 0.29597 0.06284 0.0
C517 C 0.66371 0.25155 0.04193 0.0
C518 C 0.72556 0.27448 0.0649 0.0
C519 C 0.70764 0.24204 0.05512 0.0
H520 H 0.50693 0.67357 0.20113 0.0
H521 H 0.41405 0.58904 0.17659 0.0
H522 H 0.38587 0.61918 0.18706 0.0
H523 H 0.38759 0.66938 0.20365 0.0
H524 H 0.47992 0.7527 0.2306 0.0
H525 H 0.50845 0.72342 0.21858 0.0
C526 C 0.48055 0.66189 0.19797 0.0
C527 C 0.46257 0.62921 0.18802 0.0
C528 C 0.46447 0.67918 0.20443 0.0
C529 C 0.42834 0.61412 0.18435 0.0
C530 C 0.41227 0.63138 0.19025 0.0
C531 C 0.414 0.6812 0.20673 0.0
C532 C 0.43168 0.71325 0.21784 0.0
C533 C 0.43007 0.66389 0.20034 0.0
C534 C 0.46578 0.72806 0.22207 0.0
C535 C 0.48209 0.71133 0.2152 0.0
H536 H 0.84815 0.49125 0.40224 0.0
H537 H 0.83187 0.4456 0.32702 0.0
H538 H 0.77203 0.41861 0.33282 0.0
H539 H 0.72434 0.40741 0.3596 0.0
H540 H 0.74056 0.45555 0.43388 0.0
H541 H 0.80029 0.48235 0.42812 0.0
C542 C 0.83137 0.47534 0.38721 0.0
C543 C 0.84417 0.47016 0.36433 0.0
C544 C 0.79705 0.46048 0.39048 0.0
C545 C 0.8224 0.44989 0.34477 0.0
C546 C 0.78826 0.43446 0.3481 0.0
C547 C 0.74097 0.42387 0.37447 0.0
C548 C 0.72804 0.42936 0.39717 0.0
C549 C 0.7753 0.43952 0.37089 0.0
C550 C 0.74989 0.45098 0.41618 0.0
C551 C 0.78406 0.46621 0.41296 0.0
H552 H 0.09115 0.58171 0.4778 0.0
H553 H 0.1694 0.60328 0.42395 0.0
H554 H 0.20829 0.61763 0.45988 0.0
H555 H 0.22028 0.62525 0.5068 0.0
H556 H 0.14311 0.60829 0.56018 0.0
H557 H 0.10336 0.59048 0.52448 0.0
C558 C 0.11671 0.58945 0.47403 0.0
C559 C 0.12747 0.59143 0.44836 0.0
C560 C 0.139 0.59827 0.49473 0.0
C561 C 0.16069 0.60184 0.44359 0.0
C562 C 0.18285 0.60987 0.46411 0.0
C563 C 0.19463 0.61722 0.5105 0.0
C564 C 0.18428 0.61747 0.53593 0.0
C565 C 0.17231 0.60827 0.48976 0.0
C566 C 0.15132 0.60789 0.54067 0.0
C567 C 0.12871 0.59787 0.52029 0.0
H568 H 0.5349 0.11837 0.61404 0.0
H569 H 0.61683 0.11067 0.58622 0.0
H570 H 0.65164 0.14719 0.62088 0.0
H571 H 0.659 0.181 0.65903 0.0
H572 H 0.57795 0.19026 0.68685 0.0
H573 H 0.54284 0.15377 0.65206 0.0
C574 C 0.56046 0.12494 0.61543 0.0
C575 C 0.57309 0.1115 0.59763 0.0
C576 C 0.58054 0.14623 0.6354 0.0
C577 C 0.60622 0.12009 0.59989 0.0
C578 C 0.62625 0.14116 0.61963 0.0
C579 C 0.63365 0.17509 0.65761 0.0
C580 C 0.62121 0.18835 0.67571 0.0
C581 C 0.61364 0.15422 0.63755 0.0
C582 C 0.58828 0.18043 0.67329 0.0
C583 C 0.56814 0.15954 0.65337 0.0
H584 H 0.40803 0.50832 0.78348 0.0
H585 H 0.49928 0.58918 0.75215 0.0
H586 H 0.50093 0.62648 0.78573 0.0
H587 H 0.47759 0.63607 0.82434 0.0
H588 H 0.38607 0.55624 0.85623 0.0
H589 H 0.38325 0.51881 0.82189 0.0
C590 C 0.42808 0.53418 0.7839 0.0
C591 C 0.45372 0.54578 0.76549 0.0
C592 C 0.42889 0.5557 0.80335 0.0
C593 C 0.47959 0.57937 0.76637 0.0
C594 C 0.48049 0.60081 0.78549 0.0
C595 C 0.45693 0.6105 0.8239 0.0
C596 C 0.43222 0.59904 0.84305 0.0
C597 C 0.45548 0.58917 0.80421 0.0
C598 C 0.40554 0.56582 0.84183 0.0
C599 C 0.40391 0.54435 0.82219 0.0
H600 H 0.89285 0.39003 0.95114 0.0
H601 H 0.9215 0.49317 0.96029 0.0
H602 H 0.88392 0.47821 0.9974 0.0
H603 H 0.84479 0.43554 0.02884 0.0
H604 H 0.81709 0.33258 0.01818 0.0
H605 H 0.85218 0.34775 0.98024 0.0
C606 C 0.89097 0.40926 0.96133 0.0
C607 C 0.91022 0.44266 0.95324 0.0
C608 C 0.8694 0.40049 0.98247 0.0
C609 C 0.90693 0.46723 0.96621 0.0
C610 C 0.88551 0.45869 0.98746 0.0
C611 C 0.84619 0.41645 0.01802 0.0
C612 C 0.8286 0.38304 0.02669 0.0
C613 C 0.86681 0.42536 0.99598 0.0
C614 C 0.83069 0.3586 0.01233 0.0
C615 C 0.85077 0.36718 0.99052 0.0
H616 H 0.49328 0.89101 0.10657 0.0
H617 H 0.41342 0.90794 0.09075 0.0
H618 H 0.38268 0.87326 0.12765 0.0
H619 H 0.37798 0.83806 0.16401 0.0
H620 H 0.45696 0.82007 0.18085 0.0
H621 H 0.48853 0.85535 0.14404 0.0
C622 C 0.46924 0.88722 0.11134 0.0
C623 C 0.45557 0.90184 0.09574 0.0
C624 C 0.4515 0.86706 0.13273 0.0
C625 C 0.4243 0.89654 0.10211 0.0
C626 C 0.40674 0.87684 0.12331 0.0
C627 C 0.40211 0.84174 0.15978 0.0
C628 C 0.41496 0.8263 0.17532 0.0
C629 C 0.42001 0.86188 0.13865 0.0
C630 C 0.44634 0.83155 0.1693 0.0
C631 C 0.46445 0.85176 0.14823 0.0
H632 H 0.62595 0.48773 0.26923 0.0
H633 H 0.52813 0.46546 0.29037 0.0
H634 H 0.52952 0.43654 0.32896 0.0
H635 H 0.55654 0.41408 0.35537 0.0
H636 H 0.65573 0.43925 0.33715 0.0
H637 H 0.65616 0.47133 0.29925 0.0
C638 C 0.60516 0.47711 0.28246 0.0
C639 C 0.57654 0.47801 0.27621 0.0
C640 C 0.60635 0.46103 0.30524 0.0
C641 C 0.54998 0.46411 0.29389 0.0
C642 C 0.55083 0.44778 0.31622 0.0
C643 C 0.57841 0.42696 0.34326 0.0
C644 C 0.60592 0.4241 0.34882 0.0
C645 C 0.57853 0.44545 0.32178 0.0
C646 C 0.63428 0.44122 0.33324 0.0
C647 C 0.63441 0.45934 0.31149 0.0
H648 H 0.45599 0.88943 0.37657 0.0
H649 H 0.366 0.89142 0.3835 0.0
H650 H 0.3441 0.85711 0.34479 0.0
H651 H 0.35038 0.82696 0.30886 0.0
H652 H 0.43953 0.82339 0.30195 0.0
H653 H 0.46154 0.8574 0.34103 0.0
C654 C 0.43144 0.88206 0.36979 0.0
C655 C 0.41283 0.8933 0.38291 0.0
C656 C 0.41878 0.862 0.34753 0.0
C657 C 0.38119 0.88374 0.37359 0.0
C658 C 0.36852 0.86391 0.35151 0.0
C659 C 0.37467 0.83357 0.31581 0.0
C660 C 0.39329 0.82269 0.30229 0.0
C661 C 0.38715 0.85306 0.33826 0.0
C662 C 0.42459 0.83137 0.31187 0.0
C663 C 0.43724 0.85089 0.33422 0.0
H664 H 0.56121 0.41024 0.55926 0.0
H665 H 0.46915 0.3914 0.52601 0.0
H666 H 0.48371 0.37714 0.48499 0.0
H667 H 0.5224 0.37005 0.45811 0.0
H668 H 0.61686 0.39456 0.48939 0.0
H669 H 0.60193 0.40765 0.53128 0.0
C670 C 0.54443 0.40357 0.54304 0.0
C671 C 0.51372 0.40145 0.54627 0.0
C672 C 0.55349 0.39661 0.51894 0.0
C673 C 0.49242 0.39226 0.52475 0.0
C674 C 0.50088 0.38444 0.50102 0.0
C675 C 0.53973 0.37831 0.4741 0.0
C676 C 0.57058 0.3811 0.47074 0.0
C677 C 0.53125 0.3864 0.49791 0.0
C678 C 0.59299 0.39231 0.49149 0.0
C679 C 0.5844 0.39964 0.51547 0.0
H680 H 0.1307 0.51516 0.72134 0.0
H681 H 0.13869 0.60487 0.75211 0.0
H682 H 0.17583 0.63762 0.71701 0.0
H683 H 0.20399 0.64072 0.67669 0.0
H684 H 0.19708 0.5518 0.64525 0.0
H685 H 0.16213 0.51905 0.68169 0.0
C686 C 0.14091 0.54192 0.7205 0.0
C687 C 0.13145 0.5574 0.73915 0.0
C688 C 0.16243 0.5608 0.70013 0.0
C689 C 0.1449 0.59214 0.73773 0.0
C690 C 0.16632 0.61098 0.71772 0.0
C691 C 0.19502 0.6142 0.67775 0.0
C692 C 0.20301 0.5988 0.65803 0.0
C693 C 0.17484 0.59552 0.69862 0.0
C694 C 0.19134 0.5644 0.66007 0.0
C695 C 0.17124 0.5456 0.68089 0.0
H696 H 0.63828 0.12665 0.87574 0.0
H697 H 0.54828 0.12903 0.87699 0.0
H698 H 0.56652 0.1652 0.83879 0.0
H699 H 0.60778 0.19541 0.80434 0.0
H700 H 0.69789 0.19296 0.80403 0.0
H701 H 0.68005 0.15824 0.84267 0.0
C702 C 0.6228 0.13542 0.86793 0.0
C703 C 0.59189 0.12496 0.87928 0.0
C704 C 0.63348 0.15633 0.84602 0.0
C705 C 0.57199 0.13622 0.86849 0.0
C706 C 0.58249 0.1571 0.84669 0.0
C707 C 0.62361 0.18747 0.81279 0.0
C708 C 0.6541 0.1968 0.80103 0.0
C709 C 0.61313 0.16717 0.83516 0.0
C710 C 0.6742 0.18613 0.8124 0.0
C711 C 0.66405 0.1662 0.8346 0.0
H712 H 0.52622 0.63473 0.04499 0.0
H713 H 0.44348 0.53342 0.04305 0.0
H714 H 0.42178 0.5465 0.00467 0.0
H715 H 0.42748 0.58671 0.97053 0.0
H716 H 0.51142 0.68762 0.97319 0.0
H717 H 0.53131 0.67458 0.0121 0.0
C718 C 0.50359 0.61539 0.03606 0.0
C719 C 0.48671 0.58311 0.04681 0.0
C720 C 0.49136 0.62301 0.01399 0.0
C721 C 0.45695 0.55858 0.03528 0.0
C722 C 0.44457 0.566 0.01325 0.0
C723 C 0.44996 0.60585 0.97975 0.0
C724 C 0.46797 0.63801 0.96866 0.0
C725 C 0.46166 0.59815 1.0023 0.0
C726 C 0.49714 0.66251 0.98096 0.0
C727 C 0.50862 0.65514 0.00333 0.0
H728 H 0.90085 0.49232 0.22038 0.0
H729 H 0.91261 0.40937 0.24049 0.0
H730 H 0.87736 0.37715 0.20439 0.0
H731 H 0.8434 0.37229 0.16743 0.0
H732 H 0.83075 0.4545 0.14645 0.0
H733 H 0.8663 0.48729 0.18255 0.0
C734 C 0.89582 0.46727 0.21671 0.0
C735 C 0.90919 0.45319 0.2332 0.0
C736 C 0.87539 0.44875 0.19583 0.0
C737 C 0.90224 0.4206 0.22835 0.0
C738 C 0.88222 0.40221 0.20763 0.0
C739 C 0.84831 0.39739 0.17061 0.0
C740 C 0.83434 0.41082 0.15411 0.0
C741 C 0.86861 0.41598 0.19133 0.0
C742 C 0.8411 0.44342 0.15878 0.0
C743 C 0.86147 0.46222 0.17943 0.0
loop_
_geom_bond_atom_site_label_1
_geom_bond_atom_site_label_2
_geom_bond_distance
_geom_bond_site_symmetry_2
_ccdc_geom_bond_type
C0 C1 1.384 . S
C0 C2 1.384 . S
C0 H28 0.931 . S
C1 C0 1.384 . S
C1 C4 1.382 . S
C2 C0 1.384 . S
C2 C3 1.381 . S
C2 H29 0.930 . S
C3 C2 1.381 . S
C3 C5 1.381 . S
C3 C6 1.487 . S
C4 C1 1.382 . S
C4 C5 1.387 . S
C4 H30 0.930 . S
C5 C3 1.381 . S
C5 C4 1.387 . S
C5 H31 0.931 . S
C6 C3 1.487 . S
C6 C13 1.399 . S
C6 N44 1.325 1_655 S
C7 C8 1.384 . S
C7 C9 1.384 . S
C7 H32 0.931 . S
C8 C7 1.384 . S
C8 C11 1.382 . S
C9 C7 1.384 . S
C9 C10 1.381 . S
C9 H33 0.930 . S
C10 C9 1.381 . S
C10 C12 1.381 . S
C10 C13 1.487 . S
C11 C8 1.382 . S
C11 C12 1.387 . S
C11 H34 0.930 . S
C12 C10 1.381 . S
C12 C11 1.387 . S
C12 H35 0.931 . S
C13 C6 1.399 . S
C13 C10 1.487 . S
C13 N45 1.343 1_655 S
C14 C15 1.384 . S
C14 C16 1.384 . S
C14 H36 0.931 . S
C15 C14 1.384 . S
C15 C18 1.382 . S
C16 C14 1.384 . S
C16 C17 1.381 . S
C16 H37 0.930 . S
C17 C16 1.381 . S
C17 C19 1.381 . S
C17 C20 1.487 . S
C18 C15 1.382 . S
C18 C19 1.387 . S
C18 H38 0.930 . S
C19 C17 1.381 . S
C19 C18 1.387 . S
C19 H39 0.931 . S
C20 C17 1.487 . S
C20 C27 1.399 . S
C20 N45 1.343 . S
C21 C22 1.384 . S
C21 C23 1.384 . S
C21 H40 0.931 . S
C22 C21 1.384 . S
C22 C25 1.382 . S
C23 C21 1.384 . S
C23 C24 1.381 . S
C23 H41 0.930 . S
C24 C23 1.381 . S
C24 C26 1.381 . S
C24 C27 1.487 . S
C25 C22 1.382 . S
C25 C26 1.387 . S
C25 H42 0.930 . S
C26 C24 1.381 . S
C26 C25 1.387 . S
C26 H43 0.931 . S
C27 C20 1.399 . S
C27 C24 1.487 . S
C27 N44 1.368 . S
H28 C0 0.931 . S
H29 C2 0.930 . S
H30 C4 0.930 . S
H31 C5 0.931 . S
H32 C7 0.931 . S
H33 C9 0.930 . S
H34 C11 0.930 . S
H35 C12 0.931 . S
H36 C14 0.931 . S
H37 C16 0.930 . S
H38 C18 0.930 . S
H39 C19 0.931 . S
H40 C21 0.931 . S
H41 C23 0.930 . S
H42 C25 0.930 . S
H43 C26 0.931 . S
N44 C6 1.325 1_455 S
N44 C27 1.368 . S
N45 C13 1.343 1_455 S
N45 C20 1.343 . S
C46 C47 1.384 . S
C46 C48 1.384 . S
C46 H74 0.931 . S
C47 C46 1.384 . S
C47 C50 1.382 . S
C48 C46 1.384 . S
C48 C49 1.381 . S
C48 H75 0.930 . S
C49 C48 1.381 . S
C49 C51 1.381 . S
C49 C52 1.487 . S
C50 C47 1.382 . S
C50 C51 1.387 . S
C50 H76 0.930 . S
C51 C49 1.381 . S
C51 C50 1.387 . S
C51 H77 0.931 . S
C52 C49 1.487 . S
C52 C59 1.399 . S
C52 N90 1.343 . S
C53 C54 1.384 . S
C53 C55 1.384 . S
C53 H78 0.931 . S
C54 C53 1.384 . S
C54 C57 1.382 . S
C55 C53 1.384 . S
C55 C56 1.381 . S
C55 H79 0.930 . S
C56 C55 1.381 . S
C56 C58 1.381 . S
C56 C59 1.487 . S
C57 C54 1.382 . S
C57 C58 1.387 . S
C57 H80 0.930 . S
C58 C56 1.381 . S
C58 C57 1.387 . S
C58 H81 0.931 . S
C59 C52 1.399 . S
C59 C56 1.487 . S
C59 N91 1.343 1_565 S
C60 C61 1.384 . S
C60 C62 1.384 . S
C60 H82 0.931 . S
C61 C60 1.384 . S
C61 C64 1.382 . S
C62 C60 1.384 . S
C62 C63 1.381 . S
C62 H83 0.930 . S
C63 C62 1.381 . S
C63 C65 1.381 . S
C63 C66 1.487 . S
C64 C61 1.382 . S
C64 C65 1.387 . S
C64 H84 0.930 . S
C65 C63 1.381 . S
C65 C64 1.387 . S
C65 H85 0.931 . S
C66 C63 1.487 . S
C66 C73 1.399 . S
C66 N91 1.343 . S
C67 C68 1.384 . S
C67 C69 1.384 . S
C67 H86 0.931 . S
C68 C67 1.384 . S
C68 C71 1.382 . S
C69 C67 1.384 . S
C69 C70 1.381 . S
C69 H87 0.930 . S
C70 C69 1.381 . S
C70 C72 1.381 . S
C70 C73 1.487 . S
C71 C68 1.382 . S
C71 C72 1.387 . S
C71 H88 0.930 . S
C72 C70 1.381 . S
C72 C71 1.387 . S
C72 H89 0.931 . S
C73 C66 1.399 . S
C73 C70 1.487 . S
C73 N90 1.343 1_545 S
H74 C46 0.931 . S
H75 C48 0.930 . S
H76 C50 0.930 . S
H77 C51 0.931 . S
H78 C53 0.931 . S
H79 C55 0.930 . S
H80 C57 0.930 . S
H81 C58 0.931 . S
H82 C60 0.931 . S
H83 C62 0.930 . S
H84 C64 0.930 . S
H85 C65 0.931 . S
H86 C67 0.931 . S
H87 C69 0.930 . S
H88 C71 0.930 . S
H89 C72 0.931 . S
N90 C52 1.343 . S
N90 C73 1.343 1_565 S
N91 C59 1.343 1_545 S
N91 C66 1.343 . S
C92 C93 1.384 . S
C92 C94 1.384 . S
C92 H120 0.931 . S
C93 C92 1.384 . S
C93 C96 1.382 . S
C94 C92 1.384 . S
C94 C95 1.381 . S
C94 H121 0.930 . S
C95 C94 1.381 . S
C95 C97 1.381 . S
C95 C98 1.487 . S
C96 C93 1.382 . S
C96 C97 1.387 . S
C96 H122 0.930 . S
C97 C95 1.381 . S
C97 C96 1.387 . S
C97 H123 0.931 . S
C98 C95 1.487 . S
C98 C105 1.399 . S
C98 N136 1.343 . S
C99 C100 1.384 . S
C99 C101 1.384 . S
C99 H124 0.931 . S
C100 C99 1.384 . S
C100 C103 1.382 . S
C101 C99 1.384 . S
C101 C102 1.381 . S
C101 H125 0.930 . S
C102 C101 1.381 . S
C102 C104 1.381 . S
C102 C105 1.487 . S
C103 C100 1.382 . S
C103 C104 1.387 . S
C103 H126 0.930 . S
C104 C102 1.381 . S
C104 C103 1.387 . S
C104 H127 0.931 . S
C105 C98 1.399 . S
C105 C102 1.487 . S
C105 N137 1.343 . S
C106 C107 1.384 . S
C106 C108 1.384 . S
C106 H128 0.931 . S
C107 C106 1.384 . S
C107 C110 1.382 . S
C108 C106 1.384 . S
C108 C109 1.381 . S
C108 H129 0.930 . S
C109 C108 1.381 . S
C109 C111 1.381 . S
C109 C112 1.487 . S
C110 C107 1.382 . S
C110 C111 1.387 . S
C110 H130 0.930 . S
C111 C109 1.381 . S
C111 C110 1.387 . S
C111 H131 0.931 . S
C112 C109 1.487 . S
C112 C119 1.399 . S
C112 N137 1.343 . S
C113 C114 1.384 . S
C113 C115 1.384 . S
C113 H132 0.931 . S
C114 C113 1.384 . S
C114 C117 1.382 . S
C115 C113 1.384 . S
C115 C116 1.381 . S
C115 H133 0.930 . S
C116 C115 1.381 . S
C116 C118 1.381 . S
C116 C119 1.487 . S
C117 C114 1.382 . S
C117 C118 1.387 . S
C117 H134 0.930 . S
C118 C116 1.381 . S
C118 C117 1.387 . S
C118 H135 0.931 . S
C119 C112 1.399 . S
C119 C116 1.487 . S
C119 N136 1.343 . S
H120 C92 0.931 . S
H121 C94 0.930 . S
H122 C96 0.930 . S
H123 C97 0.931 . S
H124 C99 0.931 . S
H125 C101 0.930 . S
H126 C103 0.930 . S
H127 C104 0.931 . S
H128 C106 0.931 . S
H129 C108 0.930 . S
H130 C110 0.930 . S
H131 C111 0.931 . S
H132 C113 0.931 . S
H133 C115 0.930 . S
H134 C117 0.930 . S
H135 C118 0.931 . S
N136 C98 1.343 . S
N136 C119 1.343 . S
N137 C105 1.343 . S
N137 C112 1.343 . S
C138 C139 1.384 . S
C138 C140 1.384 . S
C138 H166 0.931 . S
C139 C138 1.384 . S
C139 C142 1.382 . S
C140 C138 1.384 . S
C140 C141 1.381 . S
C140 H167 0.930 . S
C141 C140 1.381 . S
C141 C143 1.381 . S
C141 C144 1.487 . S
C142 C139 1.382 . S
C142 C143 1.387 . S
C142 H168 0.930 . S
C143 C141 1.381 . S
C143 C142 1.387 . S
C143 H169 0.931 . S
C144 C141 1.487 . S
C144 C151 1.399 . S
C144 N182 1.362 . S
C145 C146 1.384 . S
C145 C147 1.384 . S
C145 H170 0.931 . S
C146 C145 1.384 . S
C146 C149 1.382 . S
C147 C145 1.384 . S
C147 C148 1.381 . S
C147 H171 0.930 . S
C148 C147 1.381 . S
C148 C150 1.381 . S
C148 C151 1.487 . S
C149 C146 1.382 . S
C149 C150 1.387 . S
C149 H172 0.930 . S
C150 C148 1.381 . S
C150 C149 1.387 . S
C150 H173 0.931 . S
C151 C144 1.399 . S
C151 C148 1.487 . S
C151 N183 1.343 1_655 S
C152 C153 1.384 . S
C152 C154 1.384 . S
C152 H174 0.931 . S
C153 C152 1.384 . S
C153 C156 1.382 . S
C154 C152 1.384 . S
C154 C155 1.381 . S
C154 H175 0.930 . S
C155 C154 1.381 . S
C155 C157 1.381 . S
C155 C158 1.487 . S
C156 C153 1.382 . S
C156 C157 1.387 . S
C156 H176 0.930 . S
C157 C155 1.381 . S
C157 C156 1.387 . S
C157 H177 0.931 . S
C158 C155 1.487 . S
C158 C165 1.399 . S
C158 N183 1.343 . S
C159 C160 1.384 . S
C159 C161 1.384 . S
C159 H178 0.931 . S
C160 C159 1.384 . S
C160 C163 1.382 . S
C161 C159 1.384 . S
C161 C162 1.381 . S
C161 H179 0.930 . S
C162 C161 1.381 . S
C162 C164 1.381 . S
C162 C165 1.487 . S
C163 C160 1.382 . S
C163 C164 1.387 . S
C163 H180 0.930 . S
C164 C162 1.381 . S
C164 C163 1.387 . S
C164 H181 0.931 . S
C165 C158 1.399 . S
C165 C162 1.487 . S
C165 N182 1.313 1_455 S
H166 C138 0.931 . S
H167 C140 0.930 . S
H168 C142 0.930 . S
H169 C143 0.931 . S
H170 C145 0.931 . S
H171 C147 0.930 . S
H172 C149 0.930 . S
H173 C150 0.931 . S
H174 C152 0.931 . S
H175 C154 0.930 . S
H176 C156 0.930 . S
H177 C157 0.931 . S
H178 C159 0.931 . S
H179 C161 0.930 . S
H180 C163 0.930 . S
H181 C164 0.931 . S
N182 C144 1.362 . S
N182 C165 1.313 1_655 S
N183 C151 1.343 1_455 S
N183 C158 1.343 . S
C184 C185 1.384 . S
C184 C186 1.384 . S
C184 H212 0.931 . S
C185 C184 1.384 . S
C185 C188 1.382 . S
C186 C184 1.384 . S
C186 C187 1.381 . S
C186 H213 0.930 1_556 S
C187 C186 1.381 . S
C187 C189 1.381 . S
C187 C190 1.487 . S
C188 C185 1.382 . S
C188 C189 1.387 . S
C188 H214 0.930 . S
C189 C187 1.381 . S
C189 C188 1.387 . S
C189 H215 0.931 . S
C190 C187 1.487 . S
C190 C197 1.399 1_556 S
C190 N228 1.343 . S
C191 C192 1.384 . S
C191 C193 1.384 . S
C191 H216 0.931 . S
C192 C191 1.384 . S
C192 C195 1.382 . S
C193 C191 1.384 . S
C193 C194 1.381 . S
C193 H217 0.930 . S
C194 C193 1.381 . S
C194 C196 1.381 . S
C194 C197 1.487 . S
C195 C192 1.382 . S
C195 C196 1.387 . S
C195 H218 0.930 . S
C196 C194 1.381 . S
C196 C195 1.387 . S
C196 H219 0.931 . S
C197 C190 1.399 1_554 S
C197 C194 1.487 . S
C197 N229 1.343 1_565 S
C198 C199 1.384 . S
C198 C200 1.384 1_554 S
C198 H220 0.931 . S
C199 C198 1.384 . S
C199 C202 1.382 . S
C200 C198 1.384 1_556 S
C200 C201 1.382 1_556 S
C200 H221 0.929 . S
C201 C200 1.382 1_554 S
C201 C203 1.381 . S
C201 C204 1.487 . S
C202 C199 1.382 . S
C202 C203 1.387 . S
C202 H222 0.930 . S
C203 C201 1.381 . S
C203 C202 1.387 . S
C203 H223 0.931 . S
C204 C201 1.487 . S
C204 C211 1.399 1_554 S
C204 N229 1.343 . S
C205 C206 1.384 . S
C205 C207 1.384 . S
C205 H224 0.931 . S
C206 C205 1.384 . S
C206 C209 1.382 . S
C207 C205 1.384 . S
C207 C208 1.381 . S
C207 H225 0.930 . S
C208 C207 1.381 . S
C208 C210 1.381 . S
C208 C211 1.487 . S
C209 C206 1.382 . S
C209 C210 1.387 . S
C209 H226 0.930 . S
C210 C208 1.381 . S
C210 C209 1.387 . S
C210 H227 0.931 . S
C211 C204 1.399 1_556 S
C211 C208 1.487 . S
C211 N228 1.343 1_545 S
H212 C184 0.931 . S
H213 C186 0.930 1_554 S
H214 C188 0.930 . S
H215 C189 0.931 . S
H216 C191 0.931 . S
H217 C193 0.930 . S
H218 C195 0.930 . S
H219 C196 0.931 . S
H220 C198 0.931 . S
H221 C200 0.929 . S
H222 C202 0.930 . S
H223 C203 0.931 . S
H224 C205 0.931 . S
H225 C207 0.930 . S
H226 C209 0.930 . S
H227 C210 0.931 . S
N228 C190 1.343 . S
N228 C211 1.343 1_565 S
N229 C197 1.343 1_545 S
N229 C204 1.343 . S
C230 C231 1.384 . S
C230 C232 1.384 . S
C230 H258 0.931 . S
C231 C230 1.384 . S
C231 C234 1.382 . S
C232 C230 1.384 . S
C232 C233 1.381 . S
C232 H259 0.930 . S
C233 C232 1.381 . S
C233 C235 1.381 . S
C233 C236 1.487 . S
C234 C231 1.382 . S
C234 C235 1.387 . S
C234 H260 0.930 . S
C235 C233 1.381 . S
C235 C234 1.387 . S
C235 H261 0.931 . S
C236 C233 1.487 . S
C236 C243 1.399 . S
C236 N274 1.343 . S
C237 C238 1.384 . S
C237 C239 1.384 . S
C237 H262 0.931 . S
C238 C237 1.384 . S
C238 C241 1.382 . S
C239 C237 1.384 . S
C239 C240 1.381 . S
C239 H263 0.930 . S
C240 C239 1.381 . S
C240 C242 1.381 . S
C240 C243 1.487 . S
C241 C238 1.382 . S
C241 C242 1.387 . S
C241 H264 0.930 . S
C242 C240 1.381 . S
C242 C241 1.387 . S
C242 H265 0.931 . S
C243 C236 1.399 . S
C243 C240 1.487 . S
C243 N275 1.343 . S
C244 C245 1.384 . S
C244 C246 1.384 . S
C244 H266 0.931 . S
C245 C244 1.384 . S
C245 C248 1.382 . S
C246 C244 1.384 . S
C246 C247 1.381 . S
C246 H267 0.930 . S
C247 C246 1.381 . S
C247 C249 1.381 . S
C247 C250 1.487 . S
C248 C245 1.382 . S
C248 C249 1.387 . S
C248 H268 0.930 . S
C249 C247 1.381 . S
C249 C248 1.387 . S
C249 H269 0.931 . S
C250 C247 1.487 . S
C250 C257 1.399 . S
C250 N275 1.343 . S
C251 C252 1.384 . S
C251 C253 1.384 . S
C251 H270 0.931 . S
C252 C251 1.384 . S
C252 C255 1.382 . S
C253 C251 1.384 . S
C253 C254 1.381 . S
C253 H271 0.930 . S
C254 C253 1.381 . S
C254 C256 1.381 . S
C254 C257 1.487 . S
C255 C252 1.382 . S
C255 C256 1.387 . S
C255 H272 0.930 . S
C256 C254 1.381 . S
C256 C255 1.387 . S
C256 H273 0.931 . S
C257 C250 1.399 . S
C257 C254 1.487 . S
C257 N274 1.343 . S
H258 C230 0.931 . S
H259 C232 0.930 . S
H260 C234 0.930 . S
H261 C235 0.931 . S
H262 C237 0.931 . S
H263 C239 0.930 . S
H264 C241 0.930 . S
H265 C242 0.931 . S
H266 C244 0.931 . S
H267 C246 0.930 . S
H268 C248 0.930 . S
H269 C249 0.931 . S
H270 C251 0.931 . S
H271 C253 0.930 . S
H272 C255 0.930 . S
H273 C256 0.931 . S
N274 C236 1.343 . S
N274 C257 1.343 . S
N275 C243 1.343 . S
N275 C250 1.343 . S
Co276 O277 2.216 . S
Co276 O278 2.091 . S
Co276 O280 2.004 . S
Co276 O286 2.021 . S
Co276 O288 2.137 . S
Co276 O289 2.244 . S
O277 Co276 2.216 . S
O277 C284 1.247 . S
O278 Co276 2.091 . S
O278 C284 1.261 . S
C279 O288 1.247 . S
C279 O289 1.272 . S
O280 Co276 2.004 . S
O280 C285 1.259 . S
Co281 O282 2.061 . S
Co281 O287 2.052 . S
Co281 O289 2.135 . S
O282 Co281 2.061 . S
O282 C285 1.235 . S
C283 O286 1.238 . S
C283 O287 1.241 . S
C284 O277 1.247 . S
C284 O278 1.261 . S
C285 O280 1.259 . S
C285 O282 1.235 . S
O286 Co276 2.021 . S
O286 C283 1.238 . S
O287 Co281 2.052 . S
O287 C283 1.241 . S
O288 Co276 2.137 . S
O288 C279 1.247 . S
O289 Co276 2.244 . S
O289 C279 1.272 . S
O289 Co281 2.135 . S
Co290 O291 2.216 . S
Co290 O292 2.091 . S
Co290 O294 2.004 . S
Co290 O300 2.021 . S
Co290 O302 2.137 . S
Co290 O303 2.244 . S
O291 Co290 2.216 . S
O291 C298 1.247 . S
O292 Co290 2.091 . S
O292 C298 1.261 . S
C293 O302 1.247 . S
C293 O303 1.272 . S
O294 Co290 2.004 . S
O294 C299 1.259 . S
Co295 O296 2.061 . S
Co295 O301 2.052 . S
Co295 O303 2.135 . S
O296 Co295 2.061 . S
O296 C299 1.235 . S
C297 O300 1.238 . S
C297 O301 1.241 . S
C298 O291 1.247 . S
C298 O292 1.261 . S
C299 O294 1.259 . S
C299 O296 1.235 . S
O300 Co290 2.021 . S
O300 C297 1.238 . S
O301 Co295 2.052 . S
O301 C297 1.241 . S
O302 Co290 2.137 . S
O302 C293 1.247 . S
O303 Co290 2.244 . S
O303 C293 1.272 . S
O303 Co295 2.135 . S
Co304 O305 2.216 . S
Co304 O306 2.091 . S
Co304 O308 2.004 . S
Co304 O314 2.021 . S
Co304 O316 2.137 . S
Co304 O317 2.244 . S
O305 Co304 2.216 . S
O305 C312 1.247 . S
O306 Co304 2.091 . S
O306 C312 1.261 . S
C307 O316 1.247 . S
C307 O317 1.272 . S
O308 Co304 2.004 . S
O308 C313 1.259 . S
Co309 O310 2.061 . S
Co309 O315 2.052 . S
Co309 O317 2.135 . S
O310 Co309 2.061 . S
O310 C313 1.235 . S
C311 O314 1.238 . S
C311 O315 1.241 . S
C312 O305 1.247 . S
C312 O306 1.261 . S
C313 O308 1.259 . S
C313 O310 1.235 . S
O314 Co304 2.021 . S
O314 C311 1.238 . S
O315 Co309 2.052 . S
O315 C311 1.241 . S
O316 Co304 2.137 . S
O316 C307 1.247 . S
O317 Co304 2.244 . S
O317 C307 1.272 . S
O317 Co309 2.135 . S
Co318 O319 2.216 . S
Co318 O320 2.091 . S
Co318 O322 2.004 . S
Co318 O328 2.021 . S
Co318 O330 2.137 . S
Co318 O331 2.244 . S
O319 Co318 2.216 . S
O319 C326 1.247 . S
O320 Co318 2.091 . S
O320 C326 1.261 . S
C321 O330 1.247 . S
C321 O331 1.272 . S
O322 Co318 2.004 . S
O322 C327 1.259 . S
Co323 O324 2.061 . S
Co323 O329 2.052 . S
Co323 O331 2.135 . S
O324 Co323 2.061 . S
O324 C327 1.235 . S
C325 O328 1.238 . S
C325 O329 1.241 . S
C326 O319 1.247 . S
C326 O320 1.261 . S
C327 O322 1.259 . S
C327 O324 1.235 . S
O328 Co318 2.021 . S
O328 C325 1.238 . S
O329 Co323 2.052 . S
O329 C325 1.241 . S
O330 Co318 2.137 . S
O330 C321 1.247 . S
O331 Co318 2.244 . S
O331 C321 1.272 . S
O331 Co323 2.135 . S
Co332 O333 2.216 . S
Co332 O334 2.091 . S
Co332 O336 2.004 . S
Co332 O342 2.021 . S
Co332 O344 2.137 . S
Co332 O345 2.244 . S
O333 Co332 2.216 . S
O333 C340 1.247 . S
O334 Co332 2.091 . S
O334 C340 1.261 . S
C335 O344 1.247 . S
C335 O345 1.272 . S
O336 Co332 2.004 . S
O336 C341 1.259 . S
Co337 O338 2.061 . S
Co337 O343 2.052 . S
Co337 O345 2.135 . S
O338 Co337 2.061 . S
O338 C341 1.235 . S
C339 O342 1.238 . S
C339 O343 1.241 . S
C340 O333 1.247 . S
C340 O334 1.261 . S
C341 O336 1.259 . S
C341 O338 1.235 . S
O342 Co332 2.021 . S
O342 C339 1.238 . S
O343 Co337 2.052 . S
O343 C339 1.241 . S
O344 Co332 2.137 . S
O344 C335 1.247 . S
O345 Co332 2.244 . S
O345 C335 1.272 . S
O345 Co337 2.135 . S
Co346 O347 2.216 . S
Co346 O348 2.091 . S
Co346 O350 2.004 . S
Co346 O356 2.021 . S
Co346 O358 2.137 . S
Co346 O359 2.244 . S
O347 Co346 2.216 . S
O347 C354 1.247 . S
O348 Co346 2.091 . S
O348 C354 1.261 . S
C349 O358 1.247 . S
C349 O359 1.272 . S
O350 Co346 2.004 . S
O350 C355 1.259 . S
Co351 O352 2.061 . S
Co351 O357 2.052 . S
Co351 O359 2.135 . S
O352 Co351 2.061 . S
O352 C355 1.235 . S
C353 O356 1.238 . S
C353 O357 1.241 . S
C354 O347 1.247 . S
C354 O348 1.261 . S
C355 O350 1.259 . S
C355 O352 1.235 . S
O356 Co346 2.021 . S
O356 C353 1.238 . S
O357 Co351 2.052 . S
O357 C353 1.241 . S
O358 Co346 2.137 . S
O358 C349 1.247 . S
O359 Co346 2.244 . S
O359 C349 1.272 . S
O359 Co351 2.135 . S
H360 C366 0.930 . S
H361 C369 0.930 . S
H362 C370 0.930 . S
H363 C371 0.930 . S
H364 C374 0.930 . S
H365 C375 0.930 . S
C366 H360 0.930 . S
C366 C367 1.355 . S
C366 C368 1.415 . S
C367 C366 1.355 . S
C367 C369 1.419 . S
C368 C366 1.415 . S
C368 C373 1.425 . S
C368 C375 1.409 . S
C369 H361 0.930 . S
C369 C367 1.419 . S
C369 C370 1.362 . S
C370 H362 0.930 . S
C370 C369 1.362 . S
C370 C373 1.409 . S
C371 H363 0.930 . S
C371 C372 1.355 . S
C371 C373 1.415 . S
C372 C371 1.355 . S
C372 C374 1.419 . S
C373 C368 1.425 . S
C373 C370 1.409 . S
C373 C371 1.415 . S
C374 H364 0.930 . S
C374 C372 1.419 . S
C374 C375 1.362 . S
C375 H365 0.930 . S
C375 C368 1.409 . S
C375 C374 1.362 . S
H376 C382 0.930 . S
H377 C385 0.930 . S
H378 C386 0.930 . S
H379 C387 0.930 . S
H380 C390 0.930 . S
H381 C391 0.930 . S
C382 H376 0.930 . S
C382 C383 1.355 . S
C382 C384 1.415 . S
C383 C382 1.355 . S
C383 C385 1.419 . S
C384 C382 1.415 . S
C384 C389 1.425 . S
C384 C391 1.409 . S
C385 H377 0.930 . S
C385 C383 1.419 . S
C385 C386 1.362 . S
C386 H378 0.930 . S
C386 C385 1.362 . S
C386 C389 1.409 . S
C387 H379 0.930 . S
C387 C388 1.355 . S
C387 C389 1.415 . S
C388 C387 1.355 . S
C388 C390 1.419 . S
C389 C384 1.425 . S
C389 C386 1.409 . S
C389 C387 1.415 . S
C390 H380 0.930 . S
C390 C388 1.419 . S
C390 C391 1.362 . S
C391 H381 0.930 . S
C391 C384 1.409 . S
C391 C390 1.362 . S
H392 C398 0.930 . S
H393 C401 0.930 . S
H394 C402 0.930 . S
H395 C403 0.930 . S
H396 C406 0.930 . S
H397 C407 0.930 . S
C398 H392 0.930 . S
C398 C399 1.355 . S
C398 C400 1.415 . S
C399 C398 1.355 . S
C399 C401 1.419 . S
C400 C398 1.415 . S
C400 C405 1.425 . S
C400 C407 1.409 . S
C401 H393 0.930 . S
C401 C399 1.419 . S
C401 C402 1.362 . S
C402 H394 0.930 . S
C402 C401 1.362 . S
C402 C405 1.409 . S
C403 H395 0.930 . S
C403 C404 1.355 . S
C403 C405 1.415 . S
C404 C403 1.355 . S
C404 C406 1.419 . S
C405 C400 1.425 . S
C405 C402 1.409 . S
C405 C403 1.415 . S
C406 H396 0.930 . S
C406 C404 1.419 . S
C406 C407 1.362 . S
C407 H397 0.930 . S
C407 C400 1.409 . S
C407 C406 1.362 . S
H408 C414 0.930 . S
H409 C417 0.930 . S
H410 C418 0.930 . S
H411 C419 0.930 . S
H412 C422 0.930 . S
H413 C423 0.930 . S
C414 H408 0.930 . S
C414 C415 1.355 . S
C414 C416 1.415 . S
C415 C414 1.355 . S
C415 C417 1.419 . S
C416 C414 1.415 . S
C416 C421 1.425 . S
C416 C423 1.409 . S
C417 H409 0.930 . S
C417 C415 1.419 . S
C417 C418 1.362 . S
C418 H410 0.930 . S
C418 C417 1.362 . S
C418 C421 1.409 . S
C419 H411 0.930 . S
C419 C420 1.355 . S
C419 C421 1.415 . S
C420 C419 1.355 . S
C420 C422 1.419 . S
C421 C416 1.425 . S
C421 C418 1.409 . S
C421 C419 1.415 . S
C422 H412 0.930 . S
C422 C420 1.419 . S
C422 C423 1.362 . S
C423 H413 0.930 . S
C423 C416 1.409 . S
C423 C422 1.362 . S
H424 C430 0.930 . S
H425 C433 0.930 . S
H426 C434 0.930 . S
H427 C435 0.930 . S
H428 C438 0.930 . S
H429 C439 0.930 . S
C430 H424 0.930 . S
C430 C431 1.355 . S
C430 C432 1.415 . S
C431 C430 1.355 . S
C431 C433 1.419 . S
C432 C430 1.415 . S
C432 C437 1.425 . S
C432 C439 1.409 . S
C433 H425 0.930 . S
C433 C431 1.419 . S
C433 C434 1.362 . S
C434 H426 0.930 . S
C434 C433 1.362 . S
C434 C437 1.409 . S
C435 H427 0.930 . S
C435 C436 1.355 . S
C435 C437 1.415 . S
C436 C435 1.355 . S
C436 C438 1.419 . S
C437 C432 1.425 . S
C437 C434 1.409 . S
C437 C435 1.415 . S
C438 H428 0.930 . S
C438 C436 1.419 . S
C438 C439 1.362 . S
C439 H429 0.930 . S
C439 C432 1.409 . S
C439 C438 1.362 . S
H440 C446 0.930 . S
H441 C449 0.930 . S
H442 C450 0.930 . S
H443 C451 0.930 . S
H444 C454 0.930 . S
H445 C455 0.930 . S
C446 H440 0.930 . S
C446 C447 1.355 . S
C446 C448 1.415 . S
C447 C446 1.355 . S
C447 C449 1.419 . S
C448 C446 1.415 . S
C448 C453 1.425 . S
C448 C455 1.409 . S
C449 H441 0.930 . S
C449 C447 1.419 . S
C449 C450 1.362 . S
C450 H442 0.930 . S
C450 C449 1.362 . S
C450 C453 1.409 . S
C451 H443 0.930 . S
C451 C452 1.355 . S
C451 C453 1.415 . S
C452 C451 1.355 . S
C452 C454 1.419 . S
C453 C448 1.425 . S
C453 C450 1.409 . S
C453 C451 1.415 . S
C454 H444 0.930 . S
C454 C452 1.419 . S
C454 C455 1.362 . S
C455 H445 0.930 . S
C455 C448 1.409 . S
C455 C454 1.362 . S
H456 C462 0.930 . S
H457 C465 0.930 . S
H458 C466 0.930 . S
H459 C467 0.930 . S
H460 C470 0.930 . S
H461 C471 0.930 . S
C462 H456 0.930 . S
C462 C463 1.355 . S
C462 C464 1.415 . S
C463 C462 1.355 . S
C463 C465 1.419 . S
C464 C462 1.415 . S
C464 C469 1.425 . S
C464 C471 1.409 . S
C465 H457 0.930 . S
C465 C463 1.419 . S
C465 C466 1.362 . S
C466 H458 0.930 . S
C466 C465 1.362 . S
C466 C469 1.409 . S
C467 H459 0.930 . S
C467 C468 1.355 . S
C467 C469 1.415 . S
C468 C467 1.355 . S
C468 C470 1.419 . S
C469 C464 1.425 . S
C469 C466 1.409 . S
C469 C467 1.415 . S
C470 H460 0.930 . S
C470 C468 1.419 . S
C470 C471 1.362 . S
C471 H461 0.930 . S
C471 C464 1.409 . S
C471 C470 1.362 . S
H472 C478 0.930 . S
H473 C481 0.930 . S
H474 C482 0.930 . S
H475 C483 0.930 . S
H476 C486 0.930 . S
H477 C487 0.930 . S
C478 H472 0.930 . S
C478 C479 1.355 . S
C478 C480 1.415 . S
C479 C478 1.355 . S
C479 C481 1.419 . S
C480 C478 1.415 . S
C480 C485 1.425 . S
C480 C487 1.409 . S
C481 H473 0.930 . S
C481 C479 1.419 . S
C481 C482 1.362 . S
C482 H474 0.930 . S
C482 C481 1.362 . S
C482 C485 1.409 . S
C483 H475 0.930 . S
C483 C484 1.355 . S
C483 C485 1.415 . S
C484 C483 1.355 . S
C484 C486 1.419 . S
C485 C480 1.425 . S
C485 C482 1.409 . S
C485 C483 1.415 . S
C486 H476 0.930 . S
C486 C484 1.419 . S
C486 C487 1.362 . S
C487 H477 0.930 . S
C487 C480 1.409 . S
C487 C486 1.362 . S
H488 C494 0.930 . S
H489 C497 0.930 . S
H490 C498 0.930 . S
H491 C499 0.930 . S
H492 C502 0.930 . S
H493 C503 0.930 . S
C494 H488 0.930 . S
C494 C495 1.355 . S
C494 C496 1.415 . S
C495 C494 1.355 . S
C495 C497 1.419 . S
C496 C494 1.415 . S
C496 C501 1.425 . S
C496 C503 1.409 . S
C497 H489 0.930 . S
C497 C495 1.419 . S
C497 C498 1.362 . S
C498 H490 0.930 . S
C498 C497 1.362 . S
C498 C501 1.409 . S
C499 H491 0.930 . S
C499 C500 1.355 . S
C499 C501 1.415 . S
C500 C499 1.355 . S
C500 C502 1.419 . S
C501 C496 1.425 . S
C501 C498 1.409 . S
C501 C499 1.415 . S
C502 H492 0.930 . S
C502 C500 1.419 . S
C502 C503 1.362 . S
C503 H493 0.930 . S
C503 C496 1.409 . S
C503 C502 1.362 . S
H504 C510 0.930 . S
H505 C513 0.930 . S
H506 C514 0.930 . S
H507 C515 0.930 . S
H508 C518 0.930 . S
H509 C519 0.930 . S
C510 H504 0.930 . S
C510 C511 1.355 . S
C510 C512 1.415 . S
C511 C510 1.355 . S
C511 C513 1.419 . S
C512 C510 1.415 . S
C512 C517 1.425 . S
C512 C519 1.409 . S
C513 H505 0.930 . S
C513 C511 1.419 . S
C513 C514 1.362 . S
C514 H506 0.930 . S
C514 C513 1.362 . S
C514 C517 1.409 . S
C515 H507 0.930 . S
C515 C516 1.355 . S
C515 C517 1.415 . S
C516 C515 1.355 . S
C516 C518 1.419 . S
C517 C512 1.425 . S
C517 C514 1.409 . S
C517 C515 1.415 . S
C518 H508 0.930 . S
C518 C516 1.419 . S
C518 C519 1.362 . S
C519 H509 0.930 . S
C519 C512 1.409 . S
C519 C518 1.362 . S
H520 C526 0.930 . S
H521 C529 0.930 . S
H522 C530 0.930 . S
H523 C531 0.930 . S
H524 C534 0.930 . S
H525 C535 0.930 . S
C526 H520 0.930 . S
C526 C527 1.355 . S
C526 C528 1.415 . S
C527 C526 1.355 . S
C527 C529 1.419 . S
C528 C526 1.415 . S
C528 C533 1.425 . S
C528 C535 1.409 . S
C529 H521 0.930 . S
C529 C527 1.419 . S
C529 C530 1.362 . S
C530 H522 0.930 . S
C530 C529 1.362 . S
C530 C533 1.409 . S
C531 H523 0.930 . S
C531 C532 1.355 . S
C531 C533 1.415 . S
C532 C531 1.355 . S
C532 C534 1.419 . S
C533 C528 1.425 . S
C533 C530 1.409 . S
C533 C531 1.415 . S
C534 H524 0.930 . S
C534 C532 1.419 . S
C534 C535 1.362 . S
C535 H525 0.930 . S
C535 C528 1.409 . S
C535 C534 1.362 . S
H536 C542 0.930 . S
H537 C545 0.930 . S
H538 C546 0.930 . S
H539 C547 0.930 . S
H540 C550 0.930 . S
H541 C551 0.930 . S
C542 H536 0.930 . S
C542 C543 1.355 . S
C542 C544 1.415 . S
C543 C542 1.355 . S
C543 C545 1.419 . S
C544 C542 1.415 . S
C544 C549 1.425 . S
C544 C551 1.409 . S
C545 H537 0.930 . S
C545 C543 1.419 . S
C545 C546 1.362 . S
C546 H538 0.930 . S
C546 C545 1.362 . S
C546 C549 1.409 . S
C547 H539 0.930 . S
C547 C548 1.355 . S
C547 C549 1.415 . S
C548 C547 1.355 . S
C548 C550 1.419 . S
C549 C544 1.425 . S
C549 C546 1.409 . S
C549 C547 1.415 . S
C550 H540 0.930 . S
C550 C548 1.419 . S
C550 C551 1.362 . S
C551 H541 0.930 . S
C551 C544 1.409 . S
C551 C550 1.362 . S
H552 C558 0.930 . S
H553 C561 0.930 . S
H554 C562 0.930 . S
H555 C563 0.930 . S
H556 C566 0.930 . S
H557 C567 0.930 . S
C558 H552 0.930 . S
C558 C559 1.355 . S
C558 C560 1.415 . S
C559 C558 1.355 . S
C559 C561 1.419 . S
C560 C558 1.415 . S
C560 C565 1.425 . S
C560 C567 1.409 . S
C561 H553 0.930 . S
C561 C559 1.419 . S
C561 C562 1.362 . S
C562 H554 0.930 . S
C562 C561 1.362 . S
C562 C565 1.409 . S
C563 H555 0.930 . S
C563 C564 1.355 . S
C563 C565 1.415 . S
C564 C563 1.355 . S
C564 C566 1.419 . S
C565 C560 1.425 . S
C565 C562 1.409 . S
C565 C563 1.415 . S
C566 H556 0.930 . S
C566 C564 1.419 . S
C566 C567 1.362 . S
C567 H557 0.930 . S
C567 C560 1.409 . S
C567 C566 1.362 . S
H568 C574 0.930 . S
H569 C577 0.930 . S
H570 C578 0.930 . S
H571 C579 0.930 . S
H572 C582 0.930 . S
H573 C583 0.930 . S
C574 H568 0.930 . S
C574 C575 1.355 . S
C574 C576 1.415 . S
C575 C574 1.355 . S
C575 C577 1.419 . S
C576 C574 1.415 . S
C576 C581 1.425 . S
C576 C583 1.409 . S
C577 H569 0.930 . S
C577 C575 1.419 . S
C577 C578 1.362 . S
C578 H570 0.930 . S
C578 C577 1.362 . S
C578 C581 1.409 . S
C579 H571 0.930 . S
C579 C580 1.355 . S
C579 C581 1.415 . S
C580 C579 1.355 . S
C580 C582 1.419 . S
C581 C576 1.425 . S
C581 C578 1.409 . S
C581 C579 1.415 . S
C582 H572 0.930 . S
C582 C580 1.419 . S
C582 C583 1.362 . S
C583 H573 0.930 . S
C583 C576 1.409 . S
C583 C582 1.362 . S
H584 C590 0.930 . S
H585 C593 0.930 . S
H586 C594 0.930 . S
H587 C595 0.930 . S
H588 C598 0.930 . S
H589 C599 0.930 . S
C590 H584 0.930 . S
C590 C591 1.355 . S
C590 C592 1.415 . S
C591 C590 1.355 . S
C591 C593 1.419 . S
C592 C590 1.415 . S
C592 C597 1.425 . S
C592 C599 1.409 . S
C593 H585 0.930 . S
C593 C591 1.419 . S
C593 C594 1.362 . S
C594 H586 0.930 . S
C594 C593 1.362 . S
C594 C597 1.409 . S
C595 H587 0.930 . S
C595 C596 1.355 . S
C595 C597 1.415 . S
C596 C595 1.355 . S
C596 C598 1.419 . S
C597 C592 1.425 . S
C597 C594 1.409 . S
C597 C595 1.415 . S
C598 H588 0.930 . S
C598 C596 1.419 . S
C598 C599 1.362 . S
C599 H589 0.930 . S
C599 C592 1.409 . S
C599 C598 1.362 . S
H600 C606 0.930 . S
H601 C609 0.930 . S
H602 C610 0.930 . S
H603 C611 0.930 . S
H604 C614 0.930 . S
H605 C615 0.930 . S
C606 H600 0.930 . S
C606 C607 1.355 . S
C606 C608 1.415 . S
C607 C606 1.355 . S
C607 C609 1.419 . S
C608 C606 1.415 . S
C608 C613 1.425 . S
C608 C615 1.409 . S
C609 H601 0.930 . S
C609 C607 1.419 . S
C609 C610 1.362 . S
C610 H602 0.930 . S
C610 C609 1.362 . S
C610 C613 1.409 . S
C611 H603 0.930 . S
C611 C612 1.355 1_556 S
C611 C613 1.415 . S
C612 C611 1.355 1_554 S
C612 C614 1.419 . S
C613 C608 1.425 . S
C613 C610 1.409 . S
C613 C611 1.415 . S
C614 H604 0.930 . S
C614 C612 1.419 . S
C614 C615 1.362 1_554 S
C615 H605 0.930 . S
C615 C608 1.409 . S
C615 C614 1.362 1_556 S
H616 C622 0.930 . S
H617 C625 0.930 . S
H618 C626 0.930 . S
H619 C627 0.930 . S
H620 C630 0.930 . S
H621 C631 0.930 . S
C622 H616 0.930 . S
C622 C623 1.355 . S
C622 C624 1.415 . S
C623 C622 1.355 . S
C623 C625 1.419 . S
C624 C622 1.415 . S
C624 C629 1.425 . S
C624 C631 1.409 . S
C625 H617 0.930 . S
C625 C623 1.419 . S
C625 C626 1.362 . S
C626 H618 0.930 . S
C626 C625 1.362 . S
C626 C629 1.409 . S
C627 H619 0.930 . S
C627 C628 1.355 . S
C627 C629 1.415 . S
C628 C627 1.355 . S
C628 C630 1.419 . S
C629 C624 1.425 . S
C629 C626 1.409 . S
C629 C627 1.415 . S
C630 H620 0.930 . S
C630 C628 1.419 . S
C630 C631 1.362 . S
C631 H621 0.930 . S
C631 C624 1.409 . S
C631 C630 1.362 . S
H632 C638 0.930 . S
H633 C641 0.930 . S
H634 C642 0.930 . S
H635 C643 0.930 . S
H636 C646 0.930 . S
H637 C647 0.930 . S
C638 H632 0.930 . S
C638 C639 1.355 . S
C638 C640 1.415 . S
C639 C638 1.355 . S
C639 C641 1.419 . S
C640 C638 1.415 . S
C640 C645 1.425 . S
C640 C647 1.409 . S
C641 H633 0.930 . S
C641 C639 1.419 . S
C641 C642 1.362 . S
C642 H634 0.930 . S
C642 C641 1.362 . S
C642 C645 1.409 . S
C643 H635 0.930 . S
C643 C644 1.355 . S
C643 C645 1.415 . S
C644 C643 1.355 . S
C644 C646 1.419 . S
C645 C640 1.425 . S
C645 C642 1.409 . S
C645 C643 1.415 . S
C646 H636 0.930 . S
C646 C644 1.419 . S
C646 C647 1.362 . S
C647 H637 0.930 . S
C647 C640 1.409 . S
C647 C646 1.362 . S
H648 C654 0.930 . S
H649 C657 0.930 . S
H650 C658 0.930 . S
H651 C659 0.930 . S
H652 C662 0.930 . S
H653 C663 0.930 . S
C654 H648 0.930 . S
C654 C655 1.355 . S
C654 C656 1.415 . S
C655 C654 1.355 . S
C655 C657 1.419 . S
C656 C654 1.415 . S
C656 C661 1.425 . S
C656 C663 1.409 . S
C657 H649 0.930 . S
C657 C655 1.419 . S
C657 C658 1.362 . S
C658 H650 0.930 . S
C658 C657 1.362 . S
C658 C661 1.409 . S
C659 H651 0.930 . S
C659 C660 1.355 . S
C659 C661 1.415 . S
C660 C659 1.355 . S
C660 C662 1.419 . S
C661 C656 1.425 . S
C661 C658 1.409 . S
C661 C659 1.415 . S
C662 H652 0.930 . S
C662 C660 1.419 . S
C662 C663 1.362 . S
C663 H653 0.930 . S
C663 C656 1.409 . S
C663 C662 1.362 . S
H664 C670 0.930 . S
H665 C673 0.930 . S
H666 C674 0.930 . S
H667 C675 0.930 . S
H668 C678 0.930 . S
H669 C679 0.930 . S
C670 H664 0.930 . S
C670 C671 1.355 . S
C670 C672 1.415 . S
C671 C670 1.355 . S
C671 C673 1.419 . S
C672 C670 1.415 . S
C672 C677 1.425 . S
C672 C679 1.409 . S
C673 H665 0.930 . S
C673 C671 1.419 . S
C673 C674 1.362 . S
C674 H666 0.930 . S
C674 C673 1.362 . S
C674 C677 1.409 . S
C675 H667 0.930 . S
C675 C676 1.355 . S
C675 C677 1.415 . S
C676 C675 1.355 . S
C676 C678 1.419 . S
C677 C672 1.425 . S
C677 C674 1.409 . S
C677 C675 1.415 . S
C678 H668 0.930 . S
C678 C676 1.419 . S
C678 C679 1.362 . S
C679 H669 0.930 . S
C679 C672 1.409 . S
C679 C678 1.362 . S
H680 C686 0.930 . S
H681 C689 0.930 . S
H682 C690 0.930 . S
H683 C691 0.930 . S
H684 C694 0.930 . S
H685 C695 0.930 . S
C686 H680 0.930 . S
C686 C687 1.355 . S
C686 C688 1.415 . S
C687 C686 1.355 . S
C687 C689 1.419 . S
C688 C686 1.415 . S
C688 C693 1.425 . S
C688 C695 1.409 . S
C689 H681 0.930 . S
C689 C687 1.419 . S
C689 C690 1.362 . S
C690 H682 0.930 . S
C690 C689 1.362 . S
C690 C693 1.409 . S
C691 H683 0.930 . S
C691 C692 1.355 . S
C691 C693 1.415 . S
C692 C691 1.355 . S
C692 C694 1.419 . S
C693 C688 1.425 . S
C693 C690 1.409 . S
C693 C691 1.415 . S
C694 H684 0.930 . S
C694 C692 1.419 . S
C694 C695 1.362 . S
C695 H685 0.930 . S
C695 C688 1.409 . S
C695 C694 1.362 . S
H696 C702 0.930 . S
H697 C705 0.930 . S
H698 C706 0.930 . S
H699 C707 0.930 . S
H700 C710 0.930 . S
H701 C711 0.930 . S
C702 H696 0.930 . S
C702 C703 1.355 . S
C702 C704 1.415 . S
C703 C702 1.355 . S
C703 C705 1.419 . S
C704 C702 1.415 . S
C704 C709 1.425 . S
C704 C711 1.409 . S
C705 H697 0.930 . S
C705 C703 1.419 . S
C705 C706 1.362 . S
C706 H698 0.930 . S
C706 C705 1.362 . S
C706 C709 1.409 . S
C707 H699 0.930 . S
C707 C708 1.355 . S
C707 C709 1.415 . S
C708 C707 1.355 . S
C708 C710 1.419 . S
C709 C704 1.425 . S
C709 C706 1.409 . S
C709 C707 1.415 . S
C710 H700 0.930 . S
C710 C708 1.419 . S
C710 C711 1.362 . S
C711 H701 0.930 . S
C711 C704 1.409 . S
C711 C710 1.362 . S
H712 C718 0.930 . S
H713 C721 0.930 . S
H714 C722 0.930 . S
H715 C723 0.930 . S
H716 C726 0.930 . S
H717 C727 0.930 . S
C718 H712 0.930 . S
C718 C719 1.355 . S
C718 C720 1.415 . S
C719 C718 1.355 . S
C719 C721 1.419 . S
C720 C718 1.415 . S
C720 C725 1.425 . S
C720 C727 1.409 . S
C721 H713 0.930 . S
C721 C719 1.419 . S
C721 C722 1.362 . S
C722 H714 0.930 . S
C722 C721 1.362 . S
C722 C725 1.409 . S
C723 H715 0.930 . S
C723 C724 1.355 . S
C723 C725 1.415 1_556 S
C724 C723 1.355 . S
C724 C726 1.419 . S
C725 C720 1.425 . S
C725 C722 1.409 . S
C725 C723 1.415 1_554 S
C726 H716 0.930 . S
C726 C724 1.419 . S
C726 C727 1.362 1_556 S
C727 H717 0.930 . S
C727 C720 1.409 . S
C727 C726 1.362 1_554 S
H728 C734 0.930 . S
H729 C737 0.930 . S
H730 C738 0.930 . S
H731 C739 0.930 . S
H732 C742 0.930 . S
H733 C743 0.930 . S
C734 H728 0.930 . S
C734 C735 1.355 . S
C734 C736 1.415 . S
C735 C734 1.355 . S
C735 C737 1.419 . S
C736 C734 1.415 . S
C736 C741 1.425 . S
C736 C743 1.409 . S
C737 H729 0.930 . S
C737 C735 1.419 . S
C737 C738 1.362 . S
C738 H730 0.930 . S
C738 C737 1.362 . S
C738 C741 1.409 . S
C739 H731 0.930 . S
C739 C740 1.355 . S
C739 C741 1.415 . S
C740 C739 1.355 . S
C740 C742 1.419 . S
C741 C736 1.425 . S
C741 C738 1.409 . S
C741 C739 1.415 . S
C742 H732 0.930 . S
C742 C740 1.419 . S
C742 C743 1.362 . S
C743 H733 0.930 . S
C743 C736 1.409 . S
C743 C742 1.362 . S
C372 C349 1.615 . S
C367 C15 1.606 . S
C383 C61 1.568 . S
C388 C279 1.596 . S
C399 C114 1.619 . S
C404 C298 1.640 . S
C415 C139 1.601 . S
C420 C307 1.618 . S
C436 C321 1.610 . S
C431 C185 1.612 . S
C447 C245 1.579 . S
C452 C340 1.613 . S
C463 C47 1.580 . S
C468 C293 1.577 . S
C479 C100 1.592 . S
C484 C312 1.608 . S
C495 C153 1.558 . S
C500 C326 1.587 . S
C516 C335 1.593 . S
C511 C199 1.585 . S
C532 C354 1.618 . S
C527 C231 1.614 . S
C548 C284 1.592 . S
C543 C1 1.585 . S
C559 C22 1.477 . S
C564 C299 1.467 . S
C575 C68 1.470 . S
C580 C311 1.478 . S
C596 C325 1.486 . S
C591 C107 1.481 . S
C607 C146 1.482 . S
C612 C341 1.460 . S
C628 C353 1.487 . S
C623 C192 1.481 . S
C644 C283 1.486 . S
C639 C252 1.486 . S
C660 C355 1.501 . S
C655 C54 1.497 . S
C671 C93 1.503 . S
C676 C285 1.495 . S
C692 C297 1.465 . S
C687 C160 1.482 . S
C703 C206 1.482 . S
C708 C313 1.462 . S
C719 C238 1.499 . S
C724 C327 1.472 . S
C735 C8 1.488 . S
C740 C339 1.486 . S
