# Generated by pormake.
# Topology anh, (6,3)-cn, num edge types: 1
# Building blocks:
#     Node 0, Type 0, BuildingBlock: BETDEL_clean_sbu_0, # of connection points: 6
#     Node 1, Type 0, BuildingBlock: BETDEL_clean_sbu_0, # of connection points: 6
#     Node 2, Type 0, BuildingBlock: BETDEL_clean_sbu_0, # of connection points: 6
#     Node 3, Type 1, BuildingBlock: QEWDON_clean_linker_0, # of connection points: 3
#     Node 4, Type 1, BuildingBlock: QEWDON_clean_linker_0, # of connection points: 3
#     Node 5, Type 1, BuildingBlock: QEWDON_clean_linker_0, # of connection points: 3
#     Node 6, Type 1, BuildingBlock: QEWDON_clean_linker_0, # of connection points: 3
#     Node 7, Type 1, BuildingBlock: QEWDON_clean_linker_0, # of connection points: 3
#     Node 8, Type 1, BuildingBlock: QEWDON_clean_linker_0, # of connection points: 3
#     Edge 9, Type (0, 1), BuildingBlock: TEMPAE_clean_linker_10, # of connection points: 2
#     Edge 10, Type (0, 1), BuildingBlock: TEMPAE_clean_linker_10, # of connection points: 2
#     Edge 11, Type (0, 1), BuildingBlock: TEMPAE_clean_linker_10, # of connection points: 2
#     Edge 12, Type (0, 1), BuildingBlock: TEMPAE_clean_linker_10, # of connection points: 2
#     Edge 13, Type (0, 1), BuildingBlock: TEMPAE_clean_linker_10, # of connection points: 2
#     Edge 14, Type (0, 1), BuildingBlock: TEMPAE_clean_linker_10, # of connection points: 2
#     Edge 15, Type (0, 1), BuildingBlock: TEMPAE_clean_linker_10, # of connection points: 2
#     Edge 16, Type (0, 1), BuildingBlock: TEMPAE_clean_linker_10, # of connection points: 2
#     Edge 17, Type (0, 1), BuildingBlock: TEMPAE_clean_linker_10, # of connection points: 2
#     Edge 18, Type (0, 1), BuildingBlock: TEMPAE_clean_linker_10, # of connection points: 2
#     Edge 19, Type (0, 1), BuildingBlock: TEMPAE_clean_linker_10, # of connection points: 2
#     Edge 20, Type (0, 1), BuildingBlock: TEMPAE_clean_linker_10, # of connection points: 2
#     Edge 21, Type (0, 1), BuildingBlock: TEMPAE_clean_linker_10, # of connection points: 2
#     Edge 22, Type (0, 1), BuildingBlock: TEMPAE_clean_linker_10, # of connection points: 2
#     Edge 23, Type (0, 1), BuildingBlock: TEMPAE_clean_linker_10, # of connection points: 2
#     Edge 24, Type (0, 1), BuildingBlock: TEMPAE_clean_linker_10, # of connection points: 2
#     Edge 25, Type (0, 1), BuildingBlock: TEMPAE_clean_linker_10, # of connection points: 2
#     Edge 26, Type (0, 1), BuildingBlock: TEMPAE_clean_linker_10, # of connection points: 2
# Relax obj value: 0.093
# Max RMSD: 0.136
# Mean RMSD: 0.126
data_MOF--net-anh--node1-BETDEL_clean_sbu_0--node2-QEWDON_clean_linker_0--edge1-TEMPAE_clean_linker_10
_symmetry_space_group_name_H-M    P1
_symmetry_Int_Tables_number       1
_symmetry_cell_setting            triclinic
loop_
_symmetry_equiv_pos_as_xyz
'x, y, z'
_cell_length_a     31.751924
_cell_length_b     31.800946
_cell_length_c     47.34772
_cell_angle_alpha  93.624429
_cell_angle_beta   94.023311
_cell_angle_gamma 120.20567
loop_
_atom_site_label
_atom_site_type_symbol
_atom_site_fract_x
_atom_site_fract_y
_atom_site_fract_z
_atom_type_partial_charge
Dy0 Dy 0.05615 0.4701 0.1602 0.0
C1 C 0.94367 0.55477 0.19056 0.0
C2 C 0.11978 0.4414 0.14418 0.0
Dy3 Dy 1.00362 0.52446 0.17034 0.0
O4 O 0.1009 0.43459 0.16806 0.0
O5 O 0.1019 0.46202 0.12842 0.0
O6 O 0.04147 0.44412 0.20369 0.0
O7 O 0.05434 0.51385 0.197 0.0
C8 C 0.04272 0.48319 0.2147 0.0
C9 C 1.01566 0.51403 0.11539 0.0
O10 O 0.08086 0.58687 0.18277 0.0
O11 O 0.1157 0.54898 0.15875 0.0
O12 O 0.98069 0.58059 0.17683 0.0
O13 O 0.93987 0.51281 0.19339 0.0
O14 O 1.01212 0.5498 0.12721 0.0
O15 O 1.00604 0.48209 0.13238 0.0
O16 O 0.97969 0.40541 0.15062 0.0
O17 O 0.9457 0.44568 0.17345 0.0
C18 C 0.11889 0.58903 0.17148 0.0
C19 C 0.94236 0.40475 0.16199 0.0
Dy20 Dy 0.51953 0.03761 0.49341 0.0
C21 C 0.72929 0.17201 0.52952 0.0
C22 C 0.42283 0.98228 0.47274 0.0
Dy23 Dy 0.63636 0.10375 0.5057 0.0
O24 O 0.44023 1.014 0.4954 0.0
O25 O 0.4585 0.98196 0.46099 0.0
O26 O 0.51719 1.01096 0.53628 0.0
O27 O 0.57374 0.08085 0.53009 0.0
C28 C 0.55832 0.04918 0.5474 0.0
C29 C 0.60568 0.08263 0.44911 0.0
O30 O 0.62336 0.02846 0.51247 0.0
O31 O 0.54455 0.98296 0.48775 0.0
O32 O 0.71835 0.1402 0.50754 0.0
O33 O 0.68913 0.1642 0.53942 0.0
O34 O 0.65162 0.10818 0.45947 0.0
O35 O 0.5809 0.07065 0.46973 0.0
O36 O 0.53032 0.11323 0.49044 0.0
O37 O 0.61564 0.1614 0.5021 0.0
C38 C 0.58497 0.986 0.50044 0.0
C39 C 0.57188 0.15656 0.49558 0.0
Dy40 Dy 0.59543 0.5887 0.8277 0.0
C41 C 0.51573 0.38959 0.85454 0.0
C42 C 0.6267 0.68227 0.81706 0.0
Dy43 Dy 0.53853 0.47444 0.8325 0.0
O44 O 0.60272 0.66161 0.83804 0.0
O45 O 0.63384 0.65169 0.80152 0.0
O46 O 0.63475 0.60079 0.87121 0.0
O47 O 0.56297 0.54129 0.86086 0.0
C48 C 0.59956 0.56157 0.87967 0.0
C49 C 0.54494 0.49297 0.77748 0.0
O50 O 0.47731 0.48888 0.83808 0.0
O51 O 0.51472 0.56638 0.82207 0.0
O52 O 0.48971 0.39346 0.83342 0.0
O53 O 0.55242 0.43267 0.86436 0.0
O54 O 0.52267 0.44883 0.78488 0.0
O55 O 0.56123 0.52217 0.79982 0.0
O56 O 0.65568 0.57289 0.82012 0.0
O57 O 0.61802 0.49526 0.83546 0.0
C58 C 0.47574 0.52754 0.83012 0.0
C59 C 0.65695 0.53388 0.82766 0.0
H60 H 0.55122 0.04708 0.22457 0.0
C61 C 0.52135 1.01022 0.21768 0.0
C62 C 0.49635 0.98016 0.23851 0.0
C63 C 0.50776 0.99296 0.18838 0.0
H64 H 0.43549 0.91109 0.24611 0.0
C65 C 0.4561 0.93304 0.23 0.0
C66 C 0.44114 0.91448 0.20115 0.0
C67 C 0.46779 0.94428 0.18055 0.0
C68 C 0.5337 0.02582 0.16597 0.0
H69 H 0.45735 0.92886 0.15844 0.0
C70 C 0.58302 0.06604 0.17131 0.0
C71 C 0.60555 0.09689 0.14991 0.0
C72 C 0.50806 0.01774 0.13877 0.0
H73 H 0.4699 0.98952 0.13375 0.0
C74 C 0.5307 0.04649 0.11741 0.0
H75 H 0.60379 0.07386 0.19198 0.0
C76 C 0.57886 0.08525 0.12275 0.0
H77 H 0.59511 0.10636 0.1054 0.0
H78 H 0.51049 0.03898 0.09654 0.0
H79 H 0.56523 0.58909 0.56015 0.0
C80 C 0.56989 0.55935 0.55187 0.0
C81 C 0.57542 0.53003 0.57101 0.0
C82 C 0.56931 0.54972 0.52231 0.0
H83 H 0.57954 0.46565 0.57556 0.0
C84 C 0.57866 0.48964 0.56057 0.0
C85 C 0.57872 0.47866 0.53138 0.0
C86 C 0.57469 0.50952 0.51242 0.0
C87 C 0.56025 0.57962 0.50176 0.0
H88 H 0.57611 0.5023 0.48998 0.0
C89 C 0.57486 0.62978 0.50902 0.0
C90 C 0.56475 0.6562 0.48919 0.0
C91 C 0.53463 0.55689 0.47458 0.0
H92 H 0.52089 0.51847 0.46834 0.0
C93 C 0.52486 0.58279 0.4551 0.0
H94 H 0.59476 0.64863 0.52965 0.0
C95 C 0.53975 0.63179 0.46223 0.0
H96 H 0.53071 0.65048 0.44669 0.0
H97 H 0.50497 0.56449 0.43436 0.0
H98 H 0.08991 0.52504 0.89591 0.0
C99 C 0.05722 0.52473 0.8874 0.0
C100 C 1.01935 0.51301 0.90476 0.0
C101 C 0.05365 0.53731 0.85962 0.0
H102 H 0.94931 0.50726 0.90784 0.0
C103 C 0.97785 0.51487 0.89427 0.0
C104 C 0.97295 0.52763 0.8669 0.0
C105 C 1.01035 0.5373 0.84942 0.0
C106 C 0.09622 0.55384 0.84211 0.0
H107 H 1.00602 0.54609 0.82811 0.0
C108 C 0.13047 0.53734 0.8449 0.0
C109 C 0.17021 0.55433 0.82822 0.0
C110 C 0.10393 0.58843 0.82284 0.0
H111 H 0.08072 0.60415 0.82078 0.0
C112 C 0.14265 0.60469 0.8063 0.0
H113 H 0.12605 0.51085 0.85944 0.0
C114 C 0.17531 0.58774 0.80883 0.0
H115 H 0.2055 0.60173 0.79597 0.0
H116 H 0.14775 0.6312 0.79163 0.0
H117 H 0.98354 0.54444 0.43241 0.0
C118 C 1.0145 0.58155 0.43666 0.0
C119 C 0.04682 0.60125 0.41597 0.0
C120 C 1.02185 0.60981 0.46267 0.0
H121 H 0.11065 0.66571 0.40527 0.0
C122 C 0.08597 0.64981 0.42127 0.0
C123 C 0.09402 0.67815 0.44708 0.0
C124 C 0.06228 0.65794 0.46784 0.0
C125 C 0.98651 0.58986 0.48404 0.0
H126 H 0.06895 0.67989 0.48792 0.0
C127 C 0.96759 0.5414 0.49054 0.0
C128 C 0.9324 0.52227 0.50975 0.0
C129 C 0.97042 0.61908 0.49754 0.0
H130 H 0.98384 0.65629 0.49276 0.0
C131 C 0.93576 0.60015 0.51679 0.0
H132 H 0.97962 0.51835 0.48043 0.0
C133 C 0.91651 0.55187 0.52273 0.0
H134 H 0.88917 0.53754 0.53746 0.0
H135 H 0.92334 0.62281 0.52687 0.0
H136 H 0.64406 0.05859 0.76813 0.0
C137 C 0.64026 0.0876 0.7784 0.0
C138 C 0.62481 0.11277 0.76103 0.0
C139 C 0.64861 0.09841 0.80841 0.0
H140 H 0.6014 0.1658 0.76087 0.0
C141 C 0.61475 0.14719 0.77392 0.0
C142 C 0.62078 0.15711 0.80362 0.0
C143 C 0.63975 0.13451 0.82051 0.0
C144 C 0.66426 0.07091 0.82712 0.0
H145 H 0.64719 0.14563 0.84319 0.0
C146 C 0.68493 0.04393 0.816 0.0
C147 C 0.69503 1.01452 0.83288 0.0
C148 C 0.65644 0.06924 0.85619 0.0
H149 H 0.63873 0.08685 0.86595 0.0
C150 C 0.66975 0.0429 0.87342 0.0
H151 H 0.69236 0.04428 0.79408 0.0
C152 C 0.68855 1.0154 0.86188 0.0
H153 H 0.69532 0.9926 0.87534 0.0
H154 H 0.6634 0.04208 0.8956 0.0
H155 H 0.54948 0.59242 0.0951 0.0
C156 C 0.58092 0.59312 0.10616 0.0
C157 C 0.60859 0.57856 0.09086 0.0
C158 C 0.59351 0.6085 0.13557 0.0
H159 H 0.66971 0.56714 0.09352 0.0
C160 C 0.64908 0.57931 0.10532 0.0
C161 C 0.66363 0.59635 0.13451 0.0
C162 C 0.63542 0.61086 0.14942 0.0
C163 C 0.56195 0.62037 0.15207 0.0
H164 H 0.64572 0.62362 0.17192 0.0
C165 C 0.51053 0.59162 0.1463 0.0
C166 C 0.47992 0.6003 0.16279 0.0
C167 C 0.58269 0.65904 0.17428 0.0
H168 H 0.62211 0.68246 0.17894 0.0
C169 C 0.55268 0.66796 0.19075 0.0
H170 H 0.49435 0.5621 0.12905 0.0
C171 C 0.50173 0.63866 0.18528 0.0
H172 H 0.47955 0.64581 0.19892 0.0
H173 H 0.569 0.69752 0.20798 0.0
C174 C 0.19011 0.46118 0.11654 0.0
C175 C 0.16678 0.44409 0.14084 0.0
C176 C 0.24049 0.47867 0.11676 0.0
C177 C 0.26788 0.47993 0.14206 0.0
C178 C 0.24338 0.45813 0.16558 0.0
C179 C 0.19285 0.4398 0.16451 0.0
C180 C 0.26505 0.49986 0.09085 0.0
C181 C 0.2712 0.45916 0.19309 0.0
C182 C 0.40281 0.51914 0.14693 0.0
C183 C 0.42548 0.56932 0.1566 0.0
C184 C 0.3516 0.48985 0.14092 0.0
C185 C 0.32223 0.51074 0.14571 0.0
C186 C 0.34469 0.5612 0.15547 0.0
C187 C 0.39595 0.58997 0.16031 0.0
C188 C 0.32895 0.43647 0.12983 0.0
C189 C 0.31456 0.58478 0.16129 0.0
H190 H 0.16987 0.46414 0.09811 0.0
H191 H 0.1748 0.42634 0.1833 0.0
H192 H 0.28392 0.54041 0.0944 0.0
H193 H 0.29316 0.48986 0.08703 0.0
H194 H 0.23809 0.48709 0.07144 0.0
H195 H 0.24631 0.43509 0.20784 0.0
H196 H 0.29806 0.44767 0.18894 0.0
H197 H 0.29209 0.4972 0.20392 0.0
H198 H 0.42491 0.50235 0.14443 0.0
H199 H 0.41285 0.62879 0.16703 0.0
H200 H 0.30196 0.42687 0.11082 0.0
H201 H 0.30883 0.41323 0.14629 0.0
H202 H 0.35694 0.42733 0.12402 0.0
H203 H 0.29165 0.5813 0.1415 0.0
H204 H 0.33774 0.62422 0.16946 0.0
H205 H 0.28931 0.56574 0.17721 0.0
C206 C 0.78118 0.2549 0.55633 0.0
C207 C 0.77499 0.22015 0.53422 0.0
C208 C 0.81497 0.30488 0.55577 0.0
C209 C 0.84225 0.32021 0.53226 0.0
C210 C 0.83969 0.28472 0.51147 0.0
C211 C 0.80643 0.23493 0.51292 0.0
C212 C 0.81784 0.34145 0.57889 0.0
C213 C 0.86768 0.29936 0.48589 0.0
C214 C 0.86024 0.43828 0.50691 0.0
C215 C 0.91024 0.47066 0.51532 0.0
C216 C 0.83796 0.38916 0.51212 0.0
C217 C 0.86625 0.37241 0.52676 0.0
C218 C 0.9168 0.40528 0.53561 0.0
C219 C 0.93843 0.45408 0.52943 0.0
C220 C 0.78411 0.3552 0.50184 0.0
C221 C 0.94771 0.38909 0.55192 0.0
H222 H 0.7571 0.24351 0.57295 0.0
H223 H 0.8018 0.20814 0.49578 0.0
H224 H 0.85633 0.37154 0.58494 0.0
H225 H 0.7964 0.35796 0.5709 0.0
H226 H 0.80265 0.32395 0.59821 0.0
H227 H 0.86788 0.268 0.47427 0.0
H228 H 0.85021 0.3133 0.47101 0.0
H229 H 0.90613 0.32921 0.49225 0.0
H230 H 0.8387 0.45141 0.49595 0.0
H231 H 0.97709 0.47955 0.53609 0.0
H232 H 0.76323 0.34167 0.5203 0.0
H233 H 0.7788 0.3228 0.48822 0.0
H234 H 0.76821 0.37347 0.48943 0.0
H235 H 0.93224 0.37579 0.572 0.0
H236 H 0.98647 0.41915 0.55724 0.0
H237 H 0.947 0.35808 0.53934 0.0
C238 C 0.67736 0.75738 0.79326 0.0
C239 C 0.6437 0.73346 0.81257 0.0
C240 C 0.69503 0.80716 0.79045 0.0
C241 C 0.67828 0.83294 0.80731 0.0
C242 C 0.64341 0.80828 0.82633 0.0
C243 C 0.62679 0.75899 0.82877 0.0
C244 C 0.73249 0.83228 0.77018 0.0
C245 C 0.62388 0.83403 0.84447 0.0
C246 C 0.7369 0.96566 0.83389 0.0
C247 C 0.70399 0.97662 0.81967 0.0
C248 C 0.73379 0.92054 0.82714 0.0
C249 C 0.69662 0.8858 0.80593 0.0
C250 C 0.66839 0.89969 0.78876 0.0
C251 C 0.67239 0.9451 0.79586 0.0
C252 C 0.7658 0.90773 0.84528 0.0
C253 C 0.62911 0.86412 0.76551 0.0
H254 H 0.69055 0.73753 0.7808 0.0
H255 H 0.60052 0.7404 0.84359 0.0
H256 H 0.72436 0.85675 0.7582 0.0
H257 H 0.76925 0.85534 0.78252 0.0
H258 H 0.73416 0.8055 0.75474 0.0
H259 H 0.59598 0.80906 0.85761 0.0
H260 H 0.65442 0.86462 0.85897 0.0
H261 H 0.60694 0.84987 0.83074 0.0
H262 H 0.76226 0.99057 0.85185 0.0
H263 H 0.64702 0.95345 0.78461 0.0
H264 H 0.77718 0.88578 0.83223 0.0
H265 H 0.74469 0.88532 0.8618 0.0
H266 H 0.79911 0.94104 0.85619 0.0
H267 H 0.64147 0.84195 0.75357 0.0
H268 H 0.61848 0.88332 0.75029 0.0
H269 H 0.59602 0.83859 0.77525 0.0
C270 C 0.9134 0.61278 0.19812 0.0
C271 C 0.90381 0.56469 0.19383 0.0
C272 C 0.87489 0.62248 0.19528 0.0
C273 C 0.82654 0.58338 0.18624 0.0
C274 C 0.81653 0.5345 0.18374 0.0
C275 C 0.85532 0.52573 0.18828 0.0
C276 C 0.88633 0.67469 0.20025 0.0
C277 C 0.76576 0.49178 0.17352 0.0
C278 C 0.71057 0.59022 0.17793 0.0
C279 C 0.70799 0.59844 0.14917 0.0
C280 C 0.75101 0.58921 0.19112 0.0
C281 C 0.78829 0.59354 0.17474 0.0
C282 C 0.78665 0.60309 0.14602 0.0
C283 C 0.74752 0.60711 0.13397 0.0
C284 C 0.75256 0.58167 0.22225 0.0
C285 C 0.82492 0.60665 0.12744 0.0
H286 H 0.95102 0.6428 0.20278 0.0
H287 H 0.84808 0.48851 0.18492 0.0
H288 H 0.88796 0.68956 0.17954 0.0
H289 H 0.85719 0.67654 0.21095 0.0
H290 H 0.92221 0.69848 0.21346 0.0
H291 H 0.764 0.45599 0.1735 0.0
H292 H 0.73883 0.49167 0.18722 0.0
H293 H 0.75435 0.49534 0.15152 0.0
H294 H 0.68052 0.58317 0.19012 0.0
H295 H 0.74752 0.6159 0.11225 0.0
H296 H 0.79082 0.59981 0.23282 0.0
H297 H 0.73469 0.54194 0.22428 0.0
H298 H 0.73231 0.59608 0.23375 0.0
H299 H 0.86156 0.63781 0.1362 0.0
H300 H 0.81685 0.61179 0.10513 0.0
H301 H 0.82705 0.57283 0.12714 0.0
C302 C 0.35745 0.90344 0.44625 0.0
C303 C 0.3706 0.94477 0.46529 0.0
C304 C 0.30952 0.86304 0.44282 0.0
C305 C 0.27372 0.86453 0.45841 0.0
C306 C 0.28602 0.90758 0.47618 0.0
C307 C 0.33459 0.94713 0.47964 0.0
C308 C 0.29802 0.81768 0.42383 0.0
C309 C 0.24852 0.91101 0.49252 0.0
C310 C 0.14332 0.76257 0.43326 0.0
C311 C 0.13689 0.72839 0.45231 0.0
C312 C 0.18668 0.80841 0.43595 0.0
C313 C 0.22482 0.81956 0.45775 0.0
C314 C 0.21767 0.78568 0.47763 0.0
C315 C 0.17346 0.7406 0.47482 0.0
C316 C 0.19241 0.84403 0.41483 0.0
C317 C 0.25771 0.79589 0.50092 0.0
H318 H 0.38529 0.90154 0.43515 0.0
H319 H 0.34471 0.97921 0.49431 0.0
H320 H 0.289 0.78713 0.43694 0.0
H321 H 0.26547 0.80614 0.40817 0.0
H322 H 0.32922 0.8234 0.41206 0.0
H323 H 0.26208 0.94896 0.5023 0.0
H324 H 0.21404 0.89834 0.47833 0.0
H325 H 0.23944 0.88678 0.50974 0.0
H326 H 0.11473 0.75298 0.41593 0.0
H327 H 0.16844 0.71385 0.48936 0.0
H328 H 0.21968 0.84691 0.40048 0.0
H329 H 0.20638 0.88111 0.42607 0.0
H330 H 0.15727 0.8325 0.40157 0.0
H331 H 0.28974 0.79861 0.49127 0.0
H332 H 0.24544 0.76682 0.51543 0.0
H333 H 0.27038 0.83146 0.51371 0.0
C334 C 0.55574 0.34759 0.87606 0.0
C335 C 0.51694 0.34458 0.85822 0.0
C336 C 0.56958 0.31235 0.87217 0.0
C337 C 0.54358 0.27323 0.85012 0.0
C338 C 0.50046 0.26668 0.83467 0.0
C339 C 0.48755 0.30257 0.83895 0.0
C340 C 0.61529 0.32023 0.88944 0.0
C341 C 0.47121 0.22489 0.81132 0.0
C342 C 0.61651 0.23362 0.80727 0.0
C343 C 0.60425 0.18874 0.81713 0.0
C344 C 0.5979 0.26198 0.81845 0.0
C345 C 0.56596 0.24475 0.83986 0.0
C346 C 0.55449 0.20008 0.85045 0.0
C347 C 0.57384 0.17255 0.83894 0.0
C348 C 0.61166 0.30995 0.80692 0.0
C349 C 0.5207 0.18067 0.87326 0.0
H350 H 0.57826 0.37986 0.89123 0.0
H351 H 0.45725 0.29995 0.8253 0.0
H352 H 0.61035 0.28511 0.89564 0.0
H353 H 0.64625 0.33562 0.87632 0.0
H354 H 0.62552 0.34616 0.909 0.0
H355 H 0.43467 0.22024 0.8048 0.0
H356 H 0.49163 0.23224 0.79241 0.0
H357 H 0.46593 0.19003 0.81822 0.0
H358 H 0.64044 0.24636 0.79065 0.0
H359 H 0.5639 0.13753 0.84638 0.0
H360 H 0.62832 0.3403 0.82456 0.0
H361 H 0.57826 0.30843 0.79679 0.0
H362 H 0.63804 0.31871 0.79091 0.0
H363 H 0.53259 0.2093 0.89155 0.0
H364 H 0.51936 0.14789 0.88113 0.0
H365 H 0.48302 0.17059 0.86461 0.0
C366 C 0.62697 0.93922 0.51496 0.0
C367 C 0.58621 0.93947 0.50144 0.0
C368 C 0.62787 0.89528 0.51589 0.0
C369 C 0.5871 0.85016 0.503 0.0
C370 C 0.54574 0.85019 0.48963 0.0
C371 C 0.5458 0.89449 0.48901 0.0
C372 C 0.67275 0.8972 0.53039 0.0
C373 C 0.50138 0.8033 0.47555 0.0
C374 C 0.59972 0.74179 0.47562 0.0
C375 C 0.57841 0.70869 0.49578 0.0
C376 C 0.60484 0.78856 0.47845 0.0
C377 C 0.58822 0.8032 0.50205 0.0
C378 C 0.5691 0.77102 0.52332 0.0
C379 C 0.56454 0.72429 0.51998 0.0
C380 C 0.6258 0.82134 0.4553 0.0
C381 C 0.55102 0.7849 0.54889 0.0
H382 H 0.65838 0.97343 0.52479 0.0
H383 H 0.51389 0.8937 0.47857 0.0
H384 H 0.66221 0.87172 0.54699 0.0
H385 H 0.68981 0.88502 0.51464 0.0
H386 H 0.70057 0.9346 0.54046 0.0
H387 H 0.47143 0.80904 0.46692 0.0
H388 H 0.51197 0.7874 0.4578 0.0
H389 H 0.48702 0.77597 0.49105 0.0
H390 H 0.61096 0.73034 0.45695 0.0
H391 H 0.54768 0.69899 0.53555 0.0
H392 H 0.65531 0.85843 0.46469 0.0
H393 H 0.59666 0.82542 0.44374 0.0
H394 H 0.64095 0.80656 0.43965 0.0
H395 H 0.5789 0.8221 0.5591 0.0
H396 H 0.54228 0.75861 0.56499 0.0
H397 H 0.51741 0.78581 0.54195 0.0
C398 C 0.74768 0.57316 0.82215 0.0
C399 C 0.7041 0.53341 0.82905 0.0
C400 C 0.79258 0.57369 0.82535 0.0
C401 C 0.79433 0.53372 0.83592 0.0
C402 C 0.75021 0.49297 0.84215 0.0
C403 C 0.70594 0.49325 0.83859 0.0
C404 C 0.83846 0.61766 0.8181 0.0
C405 C 0.74992 0.44955 0.85357 0.0
C406 C 0.90363 0.51425 0.83014 0.0
C407 C 0.92938 0.53251 0.85762 0.0
C408 C 0.86056 0.51572 0.82241 0.0
C409 C 0.84248 0.53578 0.84259 0.0
C410 C 0.86924 0.55563 0.87 0.0
C411 C 0.9122 0.55407 0.87705 0.0
C412 C 0.83361 0.49453 0.79287 0.0
C413 C 0.8517 0.57737 0.89231 0.0
H414 H 0.74698 0.60433 0.81466 0.0
H415 H 0.67279 0.46208 0.84395 0.0
H416 H 0.86411 0.63722 0.8378 0.0
H417 H 0.85755 0.60587 0.80365 0.0
H418 H 0.83049 0.64372 0.80778 0.0
H419 H 0.71227 0.41962 0.85594 0.0
H420 H 0.76672 0.4348 0.83921 0.0
H421 H 0.77229 0.46128 0.87471 0.0
H422 H 0.91626 0.49742 0.81492 0.0
H423 H 0.93227 0.5695 0.8981 0.0
H424 H 0.8264 0.52125 0.78285 0.0
H425 H 0.7975 0.46141 0.79418 0.0
H426 H 0.85443 0.48426 0.77887 0.0
H427 H 0.84705 0.6068 0.88401 0.0
H428 H 0.87747 0.59282 0.9123 0.0
H429 H 0.81532 0.54878 0.89747 0.0
C430 C 0.20497 0.64074 0.15895 0.0
C431 C 0.16652 0.6365 0.17391 0.0
C432 C 0.25023 0.68512 0.16111 0.0
C433 C 0.25779 0.72639 0.17895 0.0
C434 C 0.21908 0.7224 0.19402 0.0
C435 C 0.17398 0.67775 0.1912 0.0
C436 C 0.29009 0.68774 0.14439 0.0
C437 C 0.22555 0.7652 0.2135 0.0
C438 C 0.38777 0.82605 0.2094 0.0
C439 C 0.39655 0.86457 0.19311 0.0
C440 C 0.3434 0.7808 0.20461 0.0
C441 C 0.30663 0.77321 0.18276 0.0
C442 C 0.31605 0.81107 0.16538 0.0
C443 C 0.36074 0.85622 0.17078 0.0
C444 C 0.33531 0.74157 0.22358 0.0
C445 C 0.27825 0.80444 0.14162 0.0
H446 H 0.19974 0.60932 0.14539 0.0
H447 H 0.14474 0.67504 0.20291 0.0
H448 H 0.30229 0.71819 0.1309 0.0
H449 H 0.32248 0.6956 0.1592 0.0
H450 H 0.27781 0.65319 0.13049 0.0
H451 H 0.19177 0.75656 0.22336 0.0
H452 H 0.25592 0.77621 0.23074 0.0
H453 H 0.2358 0.79717 0.20147 0.0
H454 H 0.41544 0.8316 0.22635 0.0
H455 H 0.36681 0.88564 0.15817 0.0
H456 H 0.32615 0.70723 0.2105 0.0
H457 H 0.30371 0.73331 0.23557 0.0
H458 H 0.368 0.7526 0.23909 0.0
H459 H 0.26605 0.77027 0.12742 0.0
H460 H 0.29248 0.8357 0.12864 0.0
H461 H 0.24546 0.80084 0.15071 0.0
C462 C 0.53168 0.20589 0.50637 0.0
C463 C 0.56993 0.20252 0.49539 0.0
C464 C 0.53289 0.25096 0.50972 0.0
C465 C 0.57242 0.2936 0.50094 0.0
C466 C 0.60974 0.28963 0.48838 0.0
C467 C 0.60856 0.24458 0.48632 0.0
C468 C 0.49312 0.25347 0.52407 0.0
C469 C 0.65174 0.33329 0.47777 0.0
C470 C 0.55495 0.40428 0.49583 0.0
C471 C 0.58121 0.43385 0.52151 0.0
C472 C 0.55314 0.35954 0.48831 0.0
C473 C 0.57692 0.34289 0.5072 0.0
C474 C 0.60453 0.37314 0.53268 0.0
C475 C 0.60726 0.41834 0.53911 0.0
C476 C 0.52501 0.32964 0.46035 0.0
C477 C 0.63009 0.35709 0.55377 0.0
H478 H 0.50201 0.17378 0.51374 0.0
H479 H 0.6382 0.24233 0.47769 0.0
H480 H 0.50946 0.27811 0.54437 0.0
H481 H 0.47592 0.26916 0.51045 0.0
H482 H 0.46405 0.21695 0.52879 0.0
H483 H 0.67303 0.32256 0.46447 0.0
H484 H 0.63795 0.35296 0.46506 0.0
H485 H 0.67702 0.35933 0.49615 0.0
H486 H 0.53452 0.41525 0.48192 0.0
H487 H 0.62934 0.44122 0.55846 0.0
H488 H 0.49194 0.29536 0.46437 0.0
H489 H 0.54789 0.31906 0.44855 0.0
H490 H 0.51319 0.34983 0.44666 0.0
H491 H 0.60315 0.32115 0.56031 0.0
H492 H 0.6484 0.38384 0.57317 0.0
H493 H 0.6581 0.35225 0.54372 0.0
C494 C 0.4268 0.5701 0.8261 0.0
C495 C 0.42876 0.52791 0.83088 0.0
C496 C 0.38307 0.57121 0.82718 0.0
C497 C 0.33968 0.52903 0.833 0.0
C498 C 0.34138 0.48636 0.83791 0.0
C499 C 0.38571 0.48635 0.83689 0.0
C500 C 0.38328 0.61764 0.82192 0.0
C501 C 0.29614 0.44042 0.84394 0.0
C502 C 0.23711 0.54876 0.85676 0.0
C503 C 0.20803 0.53942 0.83081 0.0
C504 C 0.27919 0.54409 0.85803 0.0
C505 C 0.29232 0.52924 0.83281 0.0
C506 C 0.2614 0.5172 0.80689 0.0
C507 C 0.22003 0.52271 0.8062 0.0
C508 C 0.31098 0.55749 0.88611 0.0
C509 C 0.27318 0.5005 0.77955 0.0
H510 H 0.45962 0.6026 0.82161 0.0
H511 H 0.38645 0.45346 0.84066 0.0
H512 H 0.35742 0.61061 0.80278 0.0
H513 H 0.3705 0.62985 0.84023 0.0
H514 H 0.42027 0.64784 0.81868 0.0
H515 H 0.3036 0.41061 0.84797 0.0
H516 H 0.28133 0.44841 0.86277 0.0
H517 H 0.26715 0.42719 0.82559 0.0
H518 H 0.2285 0.56231 0.87577 0.0
H519 H 0.19775 0.51544 0.78606 0.0
H520 H 0.34692 0.59095 0.88497 0.0
H521 H 0.31835 0.52782 0.89059 0.0
H522 H 0.29388 0.56447 0.90412 0.0
H523 H 0.30756 0.53087 0.77333 0.0
H524 H 0.24345 0.48866 0.76174 0.0
H525 H 0.27936 0.46964 0.78263 0.0
C526 C 0.882 0.31635 0.1431 0.0
C527 C 0.89547 0.3575 0.16251 0.0
C528 C 0.83635 0.2727 0.14267 0.0
C529 C 0.80366 0.26955 0.16254 0.0
C530 C 0.81805 0.3104 0.18291 0.0
C531 C 0.8633 0.35383 0.18243 0.0
C532 C 0.82229 0.23058 0.12021 0.0
C533 C 0.78511 0.30869 0.20486 0.0
C534 C 0.66605 0.18376 0.14185 0.0
C535 C 0.65612 0.14184 0.15515 0.0
C536 C 0.71361 0.22487 0.1439 0.0
C537 C 0.75282 0.22544 0.16045 0.0
C538 C 0.74301 0.18426 0.17498 0.0
C539 C 0.69498 0.1429 0.17201 0.0
C540 C 0.72195 0.26758 0.12792 0.0
C541 C 0.7834 0.18374 0.19344 0.0
H542 H 0.90647 0.31876 0.1276 0.0
H543 H 0.87348 0.38511 0.1978 0.0
H544 H 0.81156 0.19657 0.13027 0.0
H545 H 0.78998 0.22395 0.10574 0.0
H546 H 0.8526 0.23765 0.10727 0.0
H547 H 0.80362 0.34144 0.221 0.0
H548 H 0.75175 0.30656 0.1942 0.0
H549 H 0.77292 0.27544 0.21597 0.0
H550 H 0.63642 0.18449 0.12951 0.0
H551 H 0.6882 0.11101 0.18237 0.0
H552 H 0.7502 0.27509 0.11332 0.0
H553 H 0.73593 0.30105 0.1431 0.0
H554 H 0.68794 0.26084 0.11521 0.0
H555 H 0.81174 0.18585 0.18021 0.0
H556 H 0.76956 0.15023 0.20449 0.0
H557 H 0.80164 0.2163 0.20967 0.0
C558 C 0.02776 0.47204 0.07243 0.0
C559 C 1.01833 0.50745 0.08447 0.0
C560 C 0.03189 0.46776 0.04306 0.0
C561 C 1.02492 0.49865 0.02535 0.0
C562 C 1.0148 0.53398 0.03751 0.0
C563 C 1.01229 0.53831 0.06688 0.0
C564 C 0.04395 0.43053 0.03101 0.0
C565 C 1.00614 0.56708 0.01947 0.0
C566 C 0.068 0.53012 0.95281 0.0
C567 C 1.02379 0.50222 0.93474 0.0
C568 C 0.07005 0.526 0.98223 0.0
C569 C 0.02669 0.49397 0.99395 0.0
C570 C 0.98293 0.46315 0.97554 0.0
C571 C 0.9822 0.46723 0.94619 0.0
C572 C 0.11781 0.55862 0.001 0.0
C573 C 0.93569 0.42881 0.98704 0.0
H574 H 0.03252 0.4482 0.08599 0.0
H575 H 1.00492 0.56574 0.07603 0.0
H576 H 1.01301 0.40272 0.01549 0.0
H577 H 0.07658 0.44864 0.01933 0.0
H578 H 0.05139 0.41155 0.04786 0.0
H579 H 0.9975 0.59179 0.03216 0.0
H580 H 0.03917 0.58988 0.00891 0.0
H581 H 0.97526 0.54474 0.00244 0.0
H582 H 0.10043 0.55731 0.94434 0.0
H583 H 0.9482 0.44446 0.93232 0.0
H584 H 0.12391 0.53811 0.01734 0.0
H585 H 0.11637 0.58939 0.01236 0.0
H586 H 0.1496 0.57418 0.98847 0.0
H587 H 0.94182 0.4073 0.00265 0.0
H588 H 0.90664 0.40304 0.96986 0.0
H589 H 0.92218 0.45051 -0.00162 0.0
C590 C 0.62147 0.08085 0.3986 0.0
C591 C 0.58759 0.06946 0.41844 0.0
C592 C 0.60595 0.06817 0.3693 0.0
C593 C 0.55522 0.04365 0.35954 0.0
C594 C 0.5208 0.03289 0.37947 0.0
C595 C 0.53747 0.04598 0.40877 0.0
C596 C 0.64386 0.08009 0.34883 0.0
C597 C 0.46643 1.00702 0.36987 0.0
C598 C 0.52127 0.04337 0.28072 0.0
C599 C 0.51186 0.99722 0.26943 0.0
C600 C 0.53433 0.05864 0.31014 0.0
C601 C 0.53846 0.02716 0.32859 0.0
C602 C 0.52908 0.9806 0.31724 0.0
C603 C 0.51587 0.96622 0.28786 0.0
C604 C 0.54388 0.10848 0.32149 0.0
C605 C 0.53366 0.94617 0.33609 0.0
H606 H 0.66034 0.09923 0.40603 0.0
H607 H 0.51137 0.03795 0.42407 0.0
H608 H 0.63794 0.04574 0.33728 0.0
H609 H 0.64 0.10206 0.33265 0.0
H610 H 0.68196 0.10079 0.35981 0.0
H611 H 0.44462 1.00284 0.38795 0.0
H612 H 0.45865 0.02763 0.35432 0.0
H613 H 0.45393 0.97012 0.35887 0.0
H614 H 0.51766 0.06719 0.2666 0.0
H615 H 0.50913 0.93071 0.27918 0.0
H616 H 0.5824 0.13144 0.33152 0.0
H617 H 0.51988 0.10482 0.33825 0.0
H618 H 0.53738 0.12782 0.30452 0.0
H619 H 0.57194 0.96339 0.34648 0.0
H620 H 0.52369 0.91066 0.32403 0.0
H621 H 0.50964 0.93884 0.35327 0.0
C622 C 0.52899 0.46785 0.72528 0.0
C623 C 0.54924 0.50546 0.7479 0.0
C624 C 0.5339 0.47831 0.69696 0.0
C625 C 0.5598 0.5277 0.69111 0.0
C626 C 0.57942 0.56594 0.71388 0.0
C627 C 0.57388 0.5543 0.74207 0.0
C628 C 0.51241 0.43637 0.67335 0.0
C629 C 0.60718 0.61901 0.70853 0.0
C630 C 0.61257 0.53979 0.62088 0.0
C631 C 0.57609 0.5394 0.60219 0.0
C632 C 0.60943 0.53944 0.65025 0.0
C633 C 0.56865 0.53849 0.66122 0.0
C634 C 0.53347 0.54159 0.6427 0.0
C635 C 0.53766 0.54209 0.61332 0.0
C636 C 0.64799 0.53657 0.6692 0.0
C637 C 0.48963 0.54091 0.65359 0.0
H638 H 0.50974 0.43001 0.72972 0.0
H639 H 0.58927 0.58335 0.75954 0.0
H640 H 0.48758 0.44025 0.65743 0.0
H641 H 0.54225 0.43708 0.66213 0.0
H642 H 0.49148 0.40016 0.6814 0.0
H643 H 0.61719 0.64432 0.72835 0.0
H644 H 0.64131 0.62711 0.69931 0.0
H645 H 0.58489 0.62647 0.69278 0.0
H646 H 0.64261 0.53826 0.61229 0.0
H647 H 0.50933 0.54162 0.59888 0.0
H648 H 0.63183 0.49958 0.67641 0.0
H649 H 0.6609 0.56347 0.6885 0.0
H650 H 0.68014 0.54349 0.65804 0.0
H651 H 0.46378 0.50367 0.65899 0.0
H652 H 0.46981 0.55079 0.63753 0.0
H653 H 0.501 0.5666 0.67333 0.0
C654 C 0.55839 0.01927 0.59457 0.0
C655 C 0.57619 0.0584 0.578 0.0
C656 C 0.57006 0.02742 0.62426 0.0
C657 C 0.59985 0.07596 0.63768 0.0
C658 C 0.6197 0.11548 0.62088 0.0
C659 C 0.60774 0.10618 0.59115 0.0
C660 C 0.54875 0.98423 0.64135 0.0
C661 C 0.65144 0.16776 0.6344 0.0
C662 C 0.57793 0.09978 0.71322 0.0
C663 C 0.6181 0.1024 0.72941 0.0
C664 C 0.572 0.09178 0.68338 0.0
C665 C 0.60668 0.08551 0.6693 0.0
C666 C 0.64697 0.08744 0.68545 0.0
C667 C 0.65233 0.09608 0.71531 0.0
C668 C 0.52849 0.08997 0.66692 0.0
C669 C 0.6844 0.08043 0.67117 0.0
H670 H 0.53425 0.98224 0.58435 0.0
H671 H 0.6213 0.13649 0.57835 0.0
H672 H 0.57795 0.9857 0.65643 0.0
H673 H 0.52148 0.98563 0.65419 0.0
H674 H 0.53034 0.94868 0.62756 0.0
H675 H 0.66784 0.19373 0.61832 0.0
H676 H 0.629 0.17851 0.64652 0.0
H677 H 0.68143 0.17137 0.64974 0.0
H678 H 0.55077 0.10364 0.7239 0.0
H679 H 0.68376 0.09859 0.72763 0.0
H680 H 0.50511 0.05353 0.6544 0.0
H681 H 0.54124 0.11766 0.65157 0.0
H682 H 0.50562 0.09689 0.68105 0.0
H683 H 0.66603 0.04433 0.65802 0.0
H684 H 0.71333 0.08246 0.68679 0.0
H685 H 0.70214 0.10884 0.6566 0.0
C686 C 0.6402 0.578 0.92907 0.0
C687 C 0.59765 0.55189 0.90969 0.0
C688 C 0.63818 0.57506 0.95838 0.0
C689 C 0.59239 0.5455 0.96848 0.0
C690 C 0.54973 0.51676 0.94884 0.0
C691 C 0.55291 0.52017 0.91955 0.0
C692 C 0.68467 0.60569 0.97861 0.0
C693 C 0.50034 0.48468 0.95879 0.0
C694 C 0.60074 0.52634 0.04645 0.0
C695 C 0.5973 0.56524 0.05948 0.0
C696 C 0.59681 0.51777 0.01667 0.0
C697 C 0.58895 0.54866 -0.00042 0.0
C698 C 0.58254 0.58611 0.01255 0.0
C699 C 0.58697 0.59405 0.04234 0.0
C700 C 0.60362 0.47735 0.00361 0.0
C701 C 0.57373 0.61962 0.99503 0.0
H702 H 0.67491 0.60213 0.9214 0.0
H703 H 0.51998 0.49975 0.90451 0.0
H704 H 0.68227 0.63491 0.9912 0.0
H705 H 0.68927 0.58285 0.99389 0.0
H706 H 0.71781 0.62319 0.96725 0.0
H707 H 0.47226 0.45988 0.94093 0.0
H708 H 0.50303 0.46227 0.97506 0.0
H709 H 0.48763 0.50808 0.96894 0.0
H710 H 0.60779 0.50332 0.05957 0.0
H711 H 0.58469 0.62443 0.05221 0.0
H712 H 0.63924 0.49362 0.99469 0.0
H713 H 0.57439 0.45498 0.98577 0.0
H714 H 0.60332 0.45289 0.01944 0.0
H715 H 0.60702 0.643 0.98479 0.0
H716 H 0.56491 0.64378 0.00813 0.0
H717 H 0.54313 0.5979 0.97777 0.0
C718 C 1.02542 0.45802 0.26357 0.0
C719 C 0.03612 0.49297 0.24443 0.0
C720 C 1.02167 0.46855 0.29226 0.0
C721 C 0.02915 0.51517 0.30188 0.0
C722 C 0.0384 0.54991 0.28232 0.0
C723 C 0.04159 0.53829 0.25383 0.0
C724 C 1.01117 0.43044 0.31244 0.0
C725 C 0.04672 0.60009 0.29168 0.0
C726 C 0.99414 0.54626 0.37195 0.0
C727 C 0.04006 0.57225 0.38846 0.0
C728 C 0.98928 0.52476 0.34413 0.0
C729 C 0.03136 0.52963 0.33268 0.0
C730 C 0.07716 0.55327 0.34994 0.0
C731 C 0.08087 0.57409 0.37762 0.0
C732 C 0.93974 0.49938 0.32646 0.0
C733 C 0.12294 0.55923 0.3386 0.0
H734 H 1.02075 0.42277 0.25623 0.0
H735 H 0.04943 0.56524 0.239 0.0
H736 H 0.04391 0.443 0.32816 0.0
H737 H 0.98058 0.42535 0.32456 0.0
H738 H 1.00156 0.39451 0.30112 0.0
H739 H 0.05097 0.62187 0.27352 0.0
H740 H 1.01558 0.59678 0.30261 0.0
H741 H 0.08032 0.62057 0.30718 0.0
H742 H 0.96251 0.54482 0.38021 0.0
H743 H 0.11625 0.59333 0.39056 0.0
H744 H 0.93189 0.46394 0.3154 0.0
H745 H 0.93977 0.52246 0.30984 0.0
H746 H 0.90972 0.49256 0.33959 0.0
H747 H 0.11637 0.52345 0.32892 0.0
H748 H 0.15468 0.57477 0.35548 0.0
H749 H 0.1328 0.58399 0.32162 0.0
loop_
_geom_bond_atom_site_label_1
_geom_bond_atom_site_label_2
_geom_bond_distance
_geom_bond_site_symmetry_2
_ccdc_geom_bond_type
Dy0 O4 2.398 . S
Dy0 O5 2.491 . S
Dy0 O6 2.403 . S
Dy0 O7 2.664 . S
Dy0 O11 2.326 . S
Dy0 O15 2.310 . S
Dy0 O16 2.351 1_455 S
C1 O12 1.185 . S
C1 O13 1.355 . S
C2 O4 1.185 . S
C2 O5 1.355 . S
Dy3 O7 2.324 . S
Dy3 O10 2.372 . S
Dy3 O12 2.373 1_455 S
Dy3 O13 2.470 1_455 S
Dy3 O14 2.409 . S
Dy3 O15 2.687 . S
Dy3 O17 2.324 1_455 S
O4 Dy0 2.398 . S
O4 C2 1.185 . S
O5 Dy0 2.491 . S
O5 C2 1.355 . S
O6 Dy0 2.403 . S
O6 C8 1.254 . S
O7 Dy0 2.664 . S
O7 Dy3 2.324 . S
O7 C8 1.268 . S
C8 O6 1.254 . S
C8 O7 1.268 . S
C9 O14 1.254 . S
C9 O15 1.268 . S
O10 Dy3 2.372 . S
O10 C18 1.249 . S
O11 Dy0 2.326 . S
O11 C18 1.267 . S
O12 C1 1.185 . S
O12 Dy3 2.373 1_655 S
O13 C1 1.355 . S
O13 Dy3 2.470 1_655 S
O14 Dy3 2.409 . S
O14 C9 1.254 . S
O15 Dy0 2.310 . S
O15 Dy3 2.687 . S
O15 C9 1.268 . S
O16 Dy0 2.351 1_655 S
O16 C19 1.249 . S
O17 Dy3 2.324 1_655 S
O17 C19 1.267 . S
C18 O10 1.249 . S
C18 O11 1.267 . S
C19 O16 1.249 . S
C19 O17 1.267 . S
Dy20 O24 2.383 1_545 S
Dy20 O25 2.475 1_545 S
Dy20 O26 2.401 . S
Dy20 O27 2.666 . S
Dy20 O31 2.304 1_545 S
Dy20 O35 2.308 . S
Dy20 O36 2.375 . S
C21 O32 1.185 . S
C21 O33 1.355 . S
C22 O24 1.185 . S
C22 O25 1.355 . S
Dy23 O27 2.310 . S
Dy23 O30 2.351 1_545 S
Dy23 O32 2.398 . S
Dy23 O33 2.491 . S
Dy23 O34 2.403 . S
Dy23 O35 2.664 . S
Dy23 O37 2.326 . S
O24 Dy20 2.383 1_565 S
O24 C22 1.185 . S
O25 Dy20 2.475 1_565 S
O25 C22 1.355 . S
O26 Dy20 2.401 . S
O26 C28 1.254 . S
O27 Dy20 2.666 . S
O27 Dy23 2.310 . S
O27 C28 1.268 . S
C28 O26 1.254 . S
C28 O27 1.268 . S
C29 O34 1.254 . S
C29 O35 1.268 . S
O30 Dy23 2.351 1_565 S
O30 C38 1.249 . S
O31 Dy20 2.304 1_565 S
O31 C38 1.267 . S
O32 C21 1.185 . S
O32 Dy23 2.398 . S
O33 C21 1.355 . S
O33 Dy23 2.491 . S
O34 Dy23 2.403 . S
O34 C29 1.254 . S
O35 Dy20 2.308 . S
O35 Dy23 2.664 . S
O35 C29 1.268 . S
O36 Dy20 2.375 . S
O36 C39 1.249 . S
O37 Dy23 2.326 . S
O37 C39 1.267 . S
C38 O30 1.249 . S
C38 O31 1.267 . S
C39 O36 1.249 . S
C39 O37 1.267 . S
Dy40 O44 2.398 . S
Dy40 O45 2.491 . S
Dy40 O46 2.403 . S
Dy40 O47 2.664 . S
Dy40 O51 2.326 . S
Dy40 O55 2.310 . S
Dy40 O56 2.351 . S
C41 O52 1.185 . S
C41 O53 1.355 . S
C42 O44 1.185 . S
C42 O45 1.355 . S
Dy43 O47 2.310 . S
Dy43 O50 2.351 . S
Dy43 O52 2.398 . S
Dy43 O53 2.491 . S
Dy43 O54 2.403 . S
Dy43 O55 2.664 . S
Dy43 O57 2.326 . S
O44 Dy40 2.398 . S
O44 C42 1.185 . S
O45 Dy40 2.491 . S
O45 C42 1.355 . S
O46 Dy40 2.403 . S
O46 C48 1.254 . S
O47 Dy40 2.664 . S
O47 Dy43 2.310 . S
O47 C48 1.268 . S
C48 O46 1.254 . S
C48 O47 1.268 . S
C49 O54 1.254 . S
C49 O55 1.268 . S
O50 Dy43 2.351 . S
O50 C58 1.249 . S
O51 Dy40 2.326 . S
O51 C58 1.267 . S
O52 C41 1.185 . S
O52 Dy43 2.398 . S
O53 C41 1.355 . S
O53 Dy43 2.491 . S
O54 Dy43 2.403 . S
O54 C49 1.254 . S
O55 Dy40 2.310 . S
O55 Dy43 2.664 . S
O55 C49 1.268 . S
O56 Dy40 2.351 . S
O56 C59 1.249 . S
O57 Dy43 2.326 . S
O57 C59 1.267 . S
C58 O50 1.249 . S
C58 O51 1.267 . S
C59 O56 1.249 . S
C59 O57 1.267 . S
H60 C61 0.949 . S
C61 H60 0.949 . S
C61 C62 1.395 . S
C61 C63 1.391 . S
C62 C61 1.395 . S
C62 C65 1.390 1_545 S
C63 C61 1.391 . S
C63 C67 1.387 1_545 S
C63 C68 1.491 . S
H64 C65 0.950 . S
C65 C62 1.390 1_565 S
C65 H64 0.950 . S
C65 C66 1.378 . S
C66 C65 1.378 . S
C66 C67 1.409 . S
C67 C63 1.387 1_565 S
C67 C66 1.409 . S
C67 H69 0.951 . S
C68 C63 1.491 . S
C68 C70 1.382 . S
C68 C72 1.404 . S
H69 C67 0.951 . S
C70 C68 1.382 . S
C70 C71 1.390 . S
C70 H75 0.949 . S
C71 C70 1.390 . S
C71 C76 1.399 . S
C72 C68 1.404 . S
C72 H73 0.950 . S
C72 C74 1.375 . S
H73 C72 0.950 . S
C74 C72 1.375 . S
C74 C76 1.382 . S
C74 H78 0.950 . S
H75 C70 0.949 . S
C76 C71 1.399 . S
C76 C74 1.382 . S
C76 H77 0.952 . S
H77 C76 0.952 . S
H78 C74 0.950 . S
H79 C80 0.949 . S
C80 H79 0.949 . S
C80 C81 1.395 . S
C80 C82 1.391 . S
C81 C80 1.395 . S
C81 C84 1.390 . S
C82 C80 1.391 . S
C82 C86 1.387 . S
C82 C87 1.491 . S
H83 C84 0.950 . S
C84 C81 1.390 . S
C84 H83 0.950 . S
C84 C85 1.378 . S
C85 C84 1.378 . S
C85 C86 1.409 . S
C86 C82 1.387 . S
C86 C85 1.409 . S
C86 H88 0.951 . S
C87 C82 1.491 . S
C87 C89 1.382 . S
C87 C91 1.404 . S
H88 C86 0.951 . S
C89 C87 1.382 . S
C89 C90 1.390 . S
C89 H94 0.949 . S
C90 C89 1.390 . S
C90 C95 1.399 . S
C91 C87 1.404 . S
C91 H92 0.950 . S
C91 C93 1.375 . S
H92 C91 0.950 . S
C93 C91 1.375 . S
C93 C95 1.382 . S
C93 H97 0.950 . S
H94 C89 0.949 . S
C95 C90 1.399 . S
C95 C93 1.382 . S
C95 H96 0.952 . S
H96 C95 0.952 . S
H97 C93 0.950 . S
H98 C99 0.949 . S
C99 H98 0.949 . S
C99 C100 1.395 . S
C99 C101 1.391 . S
C100 C99 1.395 . S
C100 C103 1.390 . S
C101 C99 1.391 . S
C101 C105 1.387 . S
C101 C106 1.491 . S
H102 C103 0.950 1_655 S
C103 C100 1.390 . S
C103 H102 0.950 1_455 S
C103 C104 1.378 1_455 S
C104 C103 1.378 1_655 S
C104 C105 1.409 1_655 S
C105 C101 1.387 . S
C105 C104 1.409 1_455 S
C105 H107 0.951 . S
C106 C101 1.491 . S
C106 C108 1.382 . S
C106 C110 1.404 . S
H107 C105 0.951 . S
C108 C106 1.382 . S
C108 C109 1.390 . S
C108 H113 0.949 . S
C109 C108 1.390 . S
C109 C114 1.399 . S
C110 C106 1.404 . S
C110 H111 0.950 . S
C110 C112 1.375 . S
H111 C110 0.950 . S
C112 C110 1.375 . S
C112 C114 1.382 . S
C112 H116 0.950 . S
H113 C108 0.949 . S
C114 C109 1.399 . S
C114 C112 1.382 . S
C114 H115 0.952 . S
H115 C114 0.952 . S
H116 C112 0.950 . S
H117 C118 0.949 . S
C118 H117 0.949 . S
C118 C119 1.395 1_655 S
C118 C120 1.391 . S
C119 C118 1.395 1_455 S
C119 C122 1.390 . S
C120 C118 1.391 . S
C120 C124 1.386 1_655 S
C120 C125 1.493 . S
H121 C122 0.950 . S
C122 C119 1.390 . S
C122 H121 0.950 . S
C122 C123 1.378 . S
C123 C122 1.378 . S
C123 C124 1.409 . S
C124 C120 1.386 1_455 S
C124 C123 1.409 . S
C124 H126 0.951 . S
C125 C120 1.493 . S
C125 C127 1.382 . S
C125 C129 1.404 . S
H126 C124 0.951 . S
C127 C125 1.382 . S
C127 C128 1.390 . S
C127 H132 0.949 . S
C128 C127 1.390 . S
C128 C133 1.399 . S
C129 C125 1.404 . S
C129 H130 0.950 . S
C129 C131 1.375 . S
H130 C129 0.950 . S
C131 C129 1.375 . S
C131 C133 1.382 . S
C131 H135 0.950 . S
H132 C127 0.949 . S
C133 C128 1.399 . S
C133 C131 1.382 . S
C133 H134 0.952 . S
H134 C133 0.952 . S
H135 C131 0.950 . S
H136 C137 0.949 1_565 S
C137 H136 0.949 1_545 S
C137 C138 1.395 . S
C137 C139 1.391 . S
C138 C137 1.395 . S
C138 C141 1.390 . S
C139 C137 1.391 . S
C139 C143 1.387 . S
C139 C144 1.491 1_545 S
H140 C141 0.950 . S
C141 C138 1.390 . S
C141 H140 0.950 . S
C141 C142 1.378 . S
C142 C141 1.378 . S
C142 C143 1.409 . S
C143 C139 1.387 . S
C143 C142 1.409 . S
C143 H145 0.951 . S
C144 C139 1.491 1_565 S
C144 C146 1.382 . S
C144 C148 1.404 . S
H145 C143 0.951 . S
C146 C144 1.382 . S
C146 C147 1.390 . S
C146 H151 0.949 . S
C147 C146 1.390 . S
C147 C152 1.399 . S
C148 C144 1.404 . S
C148 H149 0.950 1_565 S
C148 C150 1.375 . S
H149 C148 0.950 1_545 S
C150 C148 1.375 . S
C150 C152 1.382 . S
C150 H154 0.950 . S
H151 C146 0.949 . S
C152 C147 1.399 . S
C152 C150 1.382 . S
C152 H153 0.952 . S
H153 C152 0.952 . S
H154 C150 0.950 . S
H155 C156 0.949 . S
C156 H155 0.949 . S
C156 C157 1.395 . S
C156 C158 1.391 . S
C157 C156 1.395 . S
C157 C160 1.390 . S
C158 C156 1.391 . S
C158 C162 1.387 . S
C158 C163 1.491 . S
H159 C160 0.950 . S
C160 C157 1.390 . S
C160 H159 0.950 . S
C160 C161 1.378 . S
C161 C160 1.378 . S
C161 C162 1.409 . S
C162 C158 1.387 . S
C162 C161 1.409 . S
C162 H164 0.951 . S
C163 C158 1.491 . S
C163 C165 1.382 . S
C163 C167 1.404 . S
H164 C162 0.951 . S
C165 C163 1.382 . S
C165 C166 1.390 . S
C165 H170 0.949 . S
C166 C165 1.390 . S
C166 C171 1.399 . S
C167 C163 1.404 . S
C167 H168 0.950 . S
C167 C169 1.375 . S
H168 C167 0.950 . S
C169 C167 1.375 . S
C169 C171 1.382 . S
C169 H173 0.950 . S
H170 C165 0.949 . S
C171 C166 1.399 . S
C171 C169 1.382 . S
C171 H172 0.952 . S
H172 C171 0.952 . S
H173 C169 0.950 . S
C174 C175 1.391 . S
C174 C176 1.394 . S
C174 H190 0.931 . S
C175 C174 1.391 . S
C175 C179 1.376 . S
C176 C174 1.394 . S
C176 C177 1.369 . S
C176 C180 1.531 . S
C177 C176 1.369 . S
C177 C178 1.410 . S
C177 C185 1.503 . S
C178 C177 1.410 . S
C178 C179 1.392 . S
C178 C181 1.511 . S
C179 C175 1.376 . S
C179 C178 1.392 . S
C179 H191 0.929 . S
C180 C176 1.531 . S
C180 H192 0.960 . S
C180 H193 0.962 . S
C180 H194 0.960 . S
C181 C178 1.511 . S
C181 H195 0.961 . S
C181 H196 0.961 . S
C181 H197 0.961 . S
C182 C183 1.370 . S
C182 C184 1.363 . S
C182 H198 0.931 . S
C183 C182 1.370 . S
C183 C187 1.408 . S
C184 C182 1.363 . S
C184 C185 1.370 . S
C184 C188 1.524 . S
C185 C177 1.503 . S
C185 C184 1.370 . S
C185 C186 1.403 . S
C186 C185 1.403 . S
C186 C187 1.404 . S
C186 C189 1.539 . S
C187 C183 1.408 . S
C187 C186 1.404 . S
C187 H199 0.930 . S
C188 C184 1.524 . S
C188 H200 0.956 . S
C188 H201 0.961 . S
C188 H202 0.961 . S
C189 C186 1.539 . S
C189 H203 0.958 . S
C189 H204 0.961 . S
C189 H205 0.960 . S
H190 C174 0.931 . S
H191 C179 0.929 . S
H192 C180 0.960 . S
H193 C180 0.962 . S
H194 C180 0.960 . S
H195 C181 0.961 . S
H196 C181 0.961 . S
H197 C181 0.961 . S
H198 C182 0.931 . S
H199 C187 0.930 . S
H200 C188 0.956 . S
H201 C188 0.961 . S
H202 C188 0.961 . S
H203 C189 0.958 . S
H204 C189 0.961 . S
H205 C189 0.960 . S
C206 C207 1.391 . S
C206 C208 1.394 . S
C206 H222 0.931 . S
C207 C206 1.391 . S
C207 C211 1.376 . S
C208 C206 1.394 . S
C208 C209 1.369 . S
C208 C212 1.531 . S
C209 C208 1.369 . S
C209 C210 1.410 . S
C209 C217 1.503 . S
C210 C209 1.410 . S
C210 C211 1.392 . S
C210 C213 1.511 . S
C211 C207 1.376 . S
C211 C210 1.392 . S
C211 H223 0.929 . S
C212 C208 1.531 . S
C212 H224 0.960 . S
C212 H225 0.962 . S
C212 H226 0.960 . S
C213 C210 1.511 . S
C213 H227 0.961 . S
C213 H228 0.961 . S
C213 H229 0.961 . S
C214 C215 1.370 . S
C214 C216 1.363 . S
C214 H230 0.931 . S
C215 C214 1.370 . S
C215 C219 1.408 . S
C216 C214 1.363 . S
C216 C217 1.370 . S
C216 C220 1.524 . S
C217 C209 1.503 . S
C217 C216 1.370 . S
C217 C218 1.403 . S
C218 C217 1.403 . S
C218 C219 1.404 . S
C218 C221 1.539 . S
C219 C215 1.408 . S
C219 C218 1.404 . S
C219 H231 0.930 . S
C220 C216 1.524 . S
C220 H232 0.956 . S
C220 H233 0.961 . S
C220 H234 0.961 . S
C221 C218 1.539 . S
C221 H235 0.958 . S
C221 H236 0.961 . S
C221 H237 0.960 . S
H222 C206 0.931 . S
H223 C211 0.929 . S
H224 C212 0.960 . S
H225 C212 0.962 . S
H226 C212 0.960 . S
H227 C213 0.961 . S
H228 C213 0.961 . S
H229 C213 0.961 . S
H230 C214 0.931 . S
H231 C219 0.930 . S
H232 C220 0.956 . S
H233 C220 0.961 . S
H234 C220 0.961 . S
H235 C221 0.958 . S
H236 C221 0.961 . S
H237 C221 0.960 . S
C238 C239 1.391 . S
C238 C240 1.394 . S
C238 H254 0.931 . S
C239 C238 1.391 . S
C239 C243 1.376 . S
C240 C238 1.394 . S
C240 C241 1.369 . S
C240 C244 1.531 . S
C241 C240 1.369 . S
C241 C242 1.410 . S
C241 C249 1.503 . S
C242 C241 1.410 . S
C242 C243 1.392 . S
C242 C245 1.511 . S
C243 C239 1.376 . S
C243 C242 1.392 . S
C243 H255 0.929 . S
C244 C240 1.531 . S
C244 H256 0.960 . S
C244 H257 0.962 . S
C244 H258 0.960 . S
C245 C242 1.511 . S
C245 H259 0.961 . S
C245 H260 0.961 . S
C245 H261 0.961 . S
C246 C247 1.370 . S
C246 C248 1.363 . S
C246 H262 0.931 . S
C247 C246 1.370 . S
C247 C251 1.408 . S
C248 C246 1.363 . S
C248 C249 1.370 . S
C248 C252 1.524 . S
C249 C241 1.503 . S
C249 C248 1.370 . S
C249 C250 1.403 . S
C250 C249 1.403 . S
C250 C251 1.404 . S
C250 C253 1.539 . S
C251 C247 1.408 . S
C251 C250 1.404 . S
C251 H263 0.930 . S
C252 C248 1.524 . S
C252 H264 0.956 . S
C252 H265 0.961 . S
C252 H266 0.961 . S
C253 C250 1.539 . S
C253 H267 0.958 . S
C253 H268 0.961 . S
C253 H269 0.960 . S
H254 C238 0.931 . S
H255 C243 0.929 . S
H256 C244 0.960 . S
H257 C244 0.962 . S
H258 C244 0.960 . S
H259 C245 0.961 . S
H260 C245 0.961 . S
H261 C245 0.961 . S
H262 C246 0.931 . S
H263 C251 0.930 . S
H264 C252 0.956 . S
H265 C252 0.961 . S
H266 C252 0.961 . S
H267 C253 0.958 . S
H268 C253 0.961 . S
H269 C253 0.960 . S
C270 C271 1.391 . S
C270 C272 1.394 . S
C270 H286 0.931 . S
C271 C270 1.391 . S
C271 C275 1.376 . S
C272 C270 1.394 . S
C272 C273 1.369 . S
C272 C276 1.531 . S
C273 C272 1.369 . S
C273 C274 1.410 . S
C273 C281 1.503 . S
C274 C273 1.410 . S
C274 C275 1.392 . S
C274 C277 1.511 . S
C275 C271 1.376 . S
C275 C274 1.392 . S
C275 H287 0.929 . S
C276 C272 1.531 . S
C276 H288 0.960 . S
C276 H289 0.962 . S
C276 H290 0.960 . S
C277 C274 1.511 . S
C277 H291 0.961 . S
C277 H292 0.961 . S
C277 H293 0.961 . S
C278 C279 1.370 . S
C278 C280 1.363 . S
C278 H294 0.931 . S
C279 C278 1.370 . S
C279 C283 1.408 . S
C280 C278 1.363 . S
C280 C281 1.370 . S
C280 C284 1.524 . S
C281 C273 1.503 . S
C281 C280 1.370 . S
C281 C282 1.403 . S
C282 C281 1.403 . S
C282 C283 1.404 . S
C282 C285 1.539 . S
C283 C279 1.408 . S
C283 C282 1.404 . S
C283 H295 0.930 . S
C284 C280 1.524 . S
C284 H296 0.956 . S
C284 H297 0.961 . S
C284 H298 0.961 . S
C285 C282 1.539 . S
C285 H299 0.958 . S
C285 H300 0.961 . S
C285 H301 0.960 . S
H286 C270 0.931 . S
H287 C275 0.929 . S
H288 C276 0.960 . S
H289 C276 0.962 . S
H290 C276 0.960 . S
H291 C277 0.961 . S
H292 C277 0.961 . S
H293 C277 0.961 . S
H294 C278 0.931 . S
H295 C283 0.930 . S
H296 C284 0.956 . S
H297 C284 0.961 . S
H298 C284 0.961 . S
H299 C285 0.958 . S
H300 C285 0.961 . S
H301 C285 0.960 . S
C302 C303 1.391 . S
C302 C304 1.394 . S
C302 H318 0.931 . S
C303 C302 1.391 . S
C303 C307 1.376 . S
C304 C302 1.394 . S
C304 C305 1.369 . S
C304 C308 1.531 . S
C305 C304 1.369 . S
C305 C306 1.410 . S
C305 C313 1.503 . S
C306 C305 1.410 . S
C306 C307 1.392 . S
C306 C309 1.511 . S
C307 C303 1.376 . S
C307 C306 1.392 . S
C307 H319 0.929 . S
C308 C304 1.531 . S
C308 H320 0.960 . S
C308 H321 0.962 . S
C308 H322 0.960 . S
C309 C306 1.511 . S
C309 H323 0.961 . S
C309 H324 0.961 . S
C309 H325 0.961 . S
C310 C311 1.370 . S
C310 C312 1.363 . S
C310 H326 0.931 . S
C311 C310 1.370 . S
C311 C315 1.408 . S
C312 C310 1.363 . S
C312 C313 1.370 . S
C312 C316 1.524 . S
C313 C305 1.503 . S
C313 C312 1.370 . S
C313 C314 1.403 . S
C314 C313 1.403 . S
C314 C315 1.404 . S
C314 C317 1.539 . S
C315 C311 1.408 . S
C315 C314 1.404 . S
C315 H327 0.930 . S
C316 C312 1.524 . S
C316 H328 0.956 . S
C316 H329 0.961 . S
C316 H330 0.961 . S
C317 C314 1.539 . S
C317 H331 0.958 . S
C317 H332 0.961 . S
C317 H333 0.960 . S
H318 C302 0.931 . S
H319 C307 0.929 . S
H320 C308 0.960 . S
H321 C308 0.962 . S
H322 C308 0.960 . S
H323 C309 0.961 . S
H324 C309 0.961 . S
H325 C309 0.961 . S
H326 C310 0.931 . S
H327 C315 0.930 . S
H328 C316 0.956 . S
H329 C316 0.961 . S
H330 C316 0.961 . S
H331 C317 0.958 . S
H332 C317 0.961 . S
H333 C317 0.960 . S
C334 C335 1.391 . S
C334 C336 1.394 . S
C334 H350 0.931 . S
C335 C334 1.391 . S
C335 C339 1.376 . S
C336 C334 1.394 . S
C336 C337 1.369 . S
C336 C340 1.531 . S
C337 C336 1.369 . S
C337 C338 1.410 . S
C337 C345 1.503 . S
C338 C337 1.410 . S
C338 C339 1.392 . S
C338 C341 1.511 . S
C339 C335 1.376 . S
C339 C338 1.392 . S
C339 H351 0.929 . S
C340 C336 1.531 . S
C340 H352 0.960 . S
C340 H353 0.962 . S
C340 H354 0.960 . S
C341 C338 1.511 . S
C341 H355 0.961 . S
C341 H356 0.961 . S
C341 H357 0.961 . S
C342 C343 1.370 . S
C342 C344 1.363 . S
C342 H358 0.931 . S
C343 C342 1.370 . S
C343 C347 1.408 . S
C344 C342 1.363 . S
C344 C345 1.370 . S
C344 C348 1.524 . S
C345 C337 1.503 . S
C345 C344 1.370 . S
C345 C346 1.403 . S
C346 C345 1.403 . S
C346 C347 1.404 . S
C346 C349 1.539 . S
C347 C343 1.408 . S
C347 C346 1.404 . S
C347 H359 0.930 . S
C348 C344 1.524 . S
C348 H360 0.956 . S
C348 H361 0.961 . S
C348 H362 0.961 . S
C349 C346 1.539 . S
C349 H363 0.958 . S
C349 H364 0.961 . S
C349 H365 0.960 . S
H350 C334 0.931 . S
H351 C339 0.929 . S
H352 C340 0.960 . S
H353 C340 0.962 . S
H354 C340 0.960 . S
H355 C341 0.961 . S
H356 C341 0.961 . S
H357 C341 0.961 . S
H358 C342 0.931 . S
H359 C347 0.930 . S
H360 C348 0.956 . S
H361 C348 0.961 . S
H362 C348 0.961 . S
H363 C349 0.958 . S
H364 C349 0.961 . S
H365 C349 0.960 . S
C366 C367 1.391 . S
C366 C368 1.394 . S
C366 H382 0.931 . S
C367 C366 1.391 . S
C367 C371 1.376 . S
C368 C366 1.394 . S
C368 C369 1.369 . S
C368 C372 1.531 . S
C369 C368 1.369 . S
C369 C370 1.410 . S
C369 C377 1.503 . S
C370 C369 1.410 . S
C370 C371 1.392 . S
C370 C373 1.511 . S
C371 C367 1.376 . S
C371 C370 1.392 . S
C371 H383 0.929 . S
C372 C368 1.531 . S
C372 H384 0.960 . S
C372 H385 0.962 . S
C372 H386 0.960 . S
C373 C370 1.511 . S
C373 H387 0.961 . S
C373 H388 0.961 . S
C373 H389 0.961 . S
C374 C375 1.370 . S
C374 C376 1.363 . S
C374 H390 0.931 . S
C375 C374 1.370 . S
C375 C379 1.408 . S
C376 C374 1.363 . S
C376 C377 1.370 . S
C376 C380 1.524 . S
C377 C369 1.503 . S
C377 C376 1.370 . S
C377 C378 1.403 . S
C378 C377 1.403 . S
C378 C379 1.404 . S
C378 C381 1.539 . S
C379 C375 1.408 . S
C379 C378 1.404 . S
C379 H391 0.930 . S
C380 C376 1.524 . S
C380 H392 0.956 . S
C380 H393 0.961 . S
C380 H394 0.961 . S
C381 C378 1.539 . S
C381 H395 0.958 . S
C381 H396 0.961 . S
C381 H397 0.960 . S
H382 C366 0.931 . S
H383 C371 0.929 . S
H384 C372 0.960 . S
H385 C372 0.962 . S
H386 C372 0.960 . S
H387 C373 0.961 . S
H388 C373 0.961 . S
H389 C373 0.961 . S
H390 C374 0.931 . S
H391 C379 0.930 . S
H392 C380 0.956 . S
H393 C380 0.961 . S
H394 C380 0.961 . S
H395 C381 0.958 . S
H396 C381 0.961 . S
H397 C381 0.960 . S
C398 C399 1.391 . S
C398 C400 1.394 . S
C398 H414 0.931 . S
C399 C398 1.391 . S
C399 C403 1.376 . S
C400 C398 1.394 . S
C400 C401 1.369 . S
C400 C404 1.531 . S
C401 C400 1.369 . S
C401 C402 1.410 . S
C401 C409 1.503 . S
C402 C401 1.410 . S
C402 C403 1.392 . S
C402 C405 1.511 . S
C403 C399 1.376 . S
C403 C402 1.392 . S
C403 H415 0.929 . S
C404 C400 1.531 . S
C404 H416 0.960 . S
C404 H417 0.962 . S
C404 H418 0.960 . S
C405 C402 1.511 . S
C405 H419 0.961 . S
C405 H420 0.961 . S
C405 H421 0.961 . S
C406 C407 1.370 . S
C406 C408 1.363 . S
C406 H422 0.931 . S
C407 C406 1.370 . S
C407 C411 1.408 . S
C408 C406 1.363 . S
C408 C409 1.370 . S
C408 C412 1.524 . S
C409 C401 1.503 . S
C409 C408 1.370 . S
C409 C410 1.403 . S
C410 C409 1.403 . S
C410 C411 1.404 . S
C410 C413 1.539 . S
C411 C407 1.408 . S
C411 C410 1.404 . S
C411 H423 0.930 . S
C412 C408 1.524 . S
C412 H424 0.956 . S
C412 H425 0.961 . S
C412 H426 0.961 . S
C413 C410 1.539 . S
C413 H427 0.958 . S
C413 H428 0.961 . S
C413 H429 0.960 . S
H414 C398 0.931 . S
H415 C403 0.929 . S
H416 C404 0.960 . S
H417 C404 0.962 . S
H418 C404 0.960 . S
H419 C405 0.961 . S
H420 C405 0.961 . S
H421 C405 0.961 . S
H422 C406 0.931 . S
H423 C411 0.930 . S
H424 C412 0.956 . S
H425 C412 0.961 . S
H426 C412 0.961 . S
H427 C413 0.958 . S
H428 C413 0.961 . S
H429 C413 0.960 . S
C430 C431 1.391 . S
C430 C432 1.394 . S
C430 H446 0.931 . S
C431 C430 1.391 . S
C431 C435 1.376 . S
C432 C430 1.394 . S
C432 C433 1.369 . S
C432 C436 1.531 . S
C433 C432 1.369 . S
C433 C434 1.410 . S
C433 C441 1.503 . S
C434 C433 1.410 . S
C434 C435 1.392 . S
C434 C437 1.511 . S
C435 C431 1.376 . S
C435 C434 1.392 . S
C435 H447 0.929 . S
C436 C432 1.531 . S
C436 H448 0.960 . S
C436 H449 0.962 . S
C436 H450 0.960 . S
C437 C434 1.511 . S
C437 H451 0.961 . S
C437 H452 0.961 . S
C437 H453 0.961 . S
C438 C439 1.370 . S
C438 C440 1.363 . S
C438 H454 0.931 . S
C439 C438 1.370 . S
C439 C443 1.408 . S
C440 C438 1.363 . S
C440 C441 1.370 . S
C440 C444 1.524 . S
C441 C433 1.503 . S
C441 C440 1.370 . S
C441 C442 1.403 . S
C442 C441 1.403 . S
C442 C443 1.404 . S
C442 C445 1.539 . S
C443 C439 1.408 . S
C443 C442 1.404 . S
C443 H455 0.930 . S
C444 C440 1.524 . S
C444 H456 0.956 . S
C444 H457 0.961 . S
C444 H458 0.961 . S
C445 C442 1.539 . S
C445 H459 0.958 . S
C445 H460 0.961 . S
C445 H461 0.960 . S
H446 C430 0.931 . S
H447 C435 0.929 . S
H448 C436 0.960 . S
H449 C436 0.962 . S
H450 C436 0.960 . S
H451 C437 0.961 . S
H452 C437 0.961 . S
H453 C437 0.961 . S
H454 C438 0.931 . S
H455 C443 0.930 . S
H456 C444 0.956 . S
H457 C444 0.961 . S
H458 C444 0.961 . S
H459 C445 0.958 . S
H460 C445 0.961 . S
H461 C445 0.960 . S
C462 C463 1.391 . S
C462 C464 1.394 . S
C462 H478 0.931 . S
C463 C462 1.391 . S
C463 C467 1.376 . S
C464 C462 1.394 . S
C464 C465 1.369 . S
C464 C468 1.531 . S
C465 C464 1.369 . S
C465 C466 1.410 . S
C465 C473 1.503 . S
C466 C465 1.410 . S
C466 C467 1.392 . S
C466 C469 1.511 . S
C467 C463 1.376 . S
C467 C466 1.392 . S
C467 H479 0.929 . S
C468 C464 1.531 . S
C468 H480 0.960 . S
C468 H481 0.962 . S
C468 H482 0.960 . S
C469 C466 1.511 . S
C469 H483 0.961 . S
C469 H484 0.961 . S
C469 H485 0.961 . S
C470 C471 1.370 . S
C470 C472 1.363 . S
C470 H486 0.931 . S
C471 C470 1.370 . S
C471 C475 1.408 . S
C472 C470 1.363 . S
C472 C473 1.370 . S
C472 C476 1.524 . S
C473 C465 1.503 . S
C473 C472 1.370 . S
C473 C474 1.403 . S
C474 C473 1.403 . S
C474 C475 1.404 . S
C474 C477 1.539 . S
C475 C471 1.408 . S
C475 C474 1.404 . S
C475 H487 0.930 . S
C476 C472 1.524 . S
C476 H488 0.956 . S
C476 H489 0.961 . S
C476 H490 0.961 . S
C477 C474 1.539 . S
C477 H491 0.958 . S
C477 H492 0.961 . S
C477 H493 0.960 . S
H478 C462 0.931 . S
H479 C467 0.929 . S
H480 C468 0.960 . S
H481 C468 0.962 . S
H482 C468 0.960 . S
H483 C469 0.961 . S
H484 C469 0.961 . S
H485 C469 0.961 . S
H486 C470 0.931 . S
H487 C475 0.930 . S
H488 C476 0.956 . S
H489 C476 0.961 . S
H490 C476 0.961 . S
H491 C477 0.958 . S
H492 C477 0.961 . S
H493 C477 0.960 . S
C494 C495 1.391 . S
C494 C496 1.394 . S
C494 H510 0.931 . S
C495 C494 1.391 . S
C495 C499 1.376 . S
C496 C494 1.394 . S
C496 C497 1.369 . S
C496 C500 1.531 . S
C497 C496 1.369 . S
C497 C498 1.410 . S
C497 C505 1.503 . S
C498 C497 1.410 . S
C498 C499 1.392 . S
C498 C501 1.511 . S
C499 C495 1.376 . S
C499 C498 1.392 . S
C499 H511 0.929 . S
C500 C496 1.531 . S
C500 H512 0.960 . S
C500 H513 0.962 . S
C500 H514 0.960 . S
C501 C498 1.511 . S
C501 H515 0.961 . S
C501 H516 0.961 . S
C501 H517 0.961 . S
C502 C503 1.370 . S
C502 C504 1.363 . S
C502 H518 0.931 . S
C503 C502 1.370 . S
C503 C507 1.408 . S
C504 C502 1.363 . S
C504 C505 1.370 . S
C504 C508 1.524 . S
C505 C497 1.503 . S
C505 C504 1.370 . S
C505 C506 1.403 . S
C506 C505 1.403 . S
C506 C507 1.404 . S
C506 C509 1.539 . S
C507 C503 1.408 . S
C507 C506 1.404 . S
C507 H519 0.930 . S
C508 C504 1.524 . S
C508 H520 0.956 . S
C508 H521 0.961 . S
C508 H522 0.961 . S
C509 C506 1.539 . S
C509 H523 0.958 . S
C509 H524 0.961 . S
C509 H525 0.960 . S
H510 C494 0.931 . S
H511 C499 0.929 . S
H512 C500 0.960 . S
H513 C500 0.962 . S
H514 C500 0.960 . S
H515 C501 0.961 . S
H516 C501 0.961 . S
H517 C501 0.961 . S
H518 C502 0.931 . S
H519 C507 0.930 . S
H520 C508 0.956 . S
H521 C508 0.961 . S
H522 C508 0.961 . S
H523 C509 0.958 . S
H524 C509 0.961 . S
H525 C509 0.960 . S
C526 C527 1.391 . S
C526 C528 1.394 . S
C526 H542 0.931 . S
C527 C526 1.391 . S
C527 C531 1.376 . S
C528 C526 1.394 . S
C528 C529 1.369 . S
C528 C532 1.531 . S
C529 C528 1.369 . S
C529 C530 1.410 . S
C529 C537 1.503 . S
C530 C529 1.410 . S
C530 C531 1.392 . S
C530 C533 1.511 . S
C531 C527 1.376 . S
C531 C530 1.392 . S
C531 H543 0.929 . S
C532 C528 1.531 . S
C532 H544 0.960 . S
C532 H545 0.962 . S
C532 H546 0.960 . S
C533 C530 1.511 . S
C533 H547 0.961 . S
C533 H548 0.961 . S
C533 H549 0.961 . S
C534 C535 1.370 . S
C534 C536 1.363 . S
C534 H550 0.931 . S
C535 C534 1.370 . S
C535 C539 1.408 . S
C536 C534 1.363 . S
C536 C537 1.370 . S
C536 C540 1.524 . S
C537 C529 1.503 . S
C537 C536 1.370 . S
C537 C538 1.403 . S
C538 C537 1.403 . S
C538 C539 1.404 . S
C538 C541 1.539 . S
C539 C535 1.408 . S
C539 C538 1.404 . S
C539 H551 0.930 . S
C540 C536 1.524 . S
C540 H552 0.956 . S
C540 H553 0.961 . S
C540 H554 0.961 . S
C541 C538 1.539 . S
C541 H555 0.958 . S
C541 H556 0.961 . S
C541 H557 0.960 . S
H542 C526 0.931 . S
H543 C531 0.929 . S
H544 C532 0.960 . S
H545 C532 0.962 . S
H546 C532 0.960 . S
H547 C533 0.961 . S
H548 C533 0.961 . S
H549 C533 0.961 . S
H550 C534 0.931 . S
H551 C539 0.930 . S
H552 C540 0.956 . S
H553 C540 0.961 . S
H554 C540 0.961 . S
H555 C541 0.958 . S
H556 C541 0.961 . S
H557 C541 0.960 . S
C558 C559 1.391 . S
C558 C560 1.394 . S
C558 H574 0.931 . S
C559 C558 1.391 . S
C559 C563 1.376 . S
C560 C558 1.394 . S
C560 C561 1.369 . S
C560 C564 1.531 . S
C561 C560 1.369 . S
C561 C562 1.410 . S
C561 C569 1.503 1_554 S
C562 C561 1.410 . S
C562 C563 1.392 . S
C562 C565 1.511 1_455 S
C563 C559 1.376 . S
C563 C562 1.392 . S
C563 H575 0.929 1_455 S
C564 C560 1.531 . S
C564 H576 0.960 . S
C564 H577 0.962 . S
C564 H578 0.960 . S
C565 C562 1.511 1_655 S
C565 H579 0.961 . S
C565 H580 0.961 1_554 S
C565 H581 0.961 . S
C566 C567 1.370 . S
C566 C568 1.363 . S
C566 H582 0.931 . S
C567 C566 1.370 . S
C567 C571 1.408 . S
C568 C566 1.363 . S
C568 C569 1.370 . S
C568 C572 1.511 1_556 S
C569 C561 1.503 1_556 S
C569 C568 1.370 . S
C569 C570 1.403 . S
C570 C569 1.403 . S
C570 C571 1.404 . S
C570 C573 1.539 1_455 S
C571 C567 1.408 . S
C571 C570 1.404 . S
C571 H583 0.930 1_455 S
C572 C568 1.511 1_554 S
C572 H584 0.974 . S
C572 H585 0.976 . S
C572 H586 0.941 1_554 S
C573 C570 1.539 1_655 S
C573 H587 0.958 . S
C573 H588 0.961 . S
C573 H589 0.960 1_556 S
H574 C558 0.931 . S
H575 C563 0.929 1_655 S
H576 C564 0.960 . S
H577 C564 0.962 . S
H578 C564 0.960 . S
H579 C565 0.961 . S
H580 C565 0.961 1_556 S
H581 C565 0.961 . S
H582 C566 0.931 . S
H583 C571 0.930 1_655 S
H584 C572 0.974 . S
H585 C572 0.976 . S
H586 C572 0.941 1_556 S
H587 C573 0.958 . S
H588 C573 0.961 . S
H589 C573 0.960 1_554 S
C590 C591 1.391 . S
C590 C592 1.394 1_545 S
C590 H606 0.931 1_545 S
C591 C590 1.391 . S
C591 C595 1.376 . S
C592 C590 1.394 1_565 S
C592 C593 1.369 1_565 S
C592 C596 1.531 . S
C593 C592 1.369 1_545 S
C593 C594 1.410 . S
C593 C601 1.503 . S
C594 C593 1.410 . S
C594 C595 1.392 . S
C594 C597 1.511 . S
C595 C591 1.376 . S
C595 C594 1.392 . S
C595 H607 0.929 . S
C596 C592 1.531 . S
C596 H608 0.960 . S
C596 H609 0.962 1_565 S
C596 H610 0.960 . S
C597 C594 1.511 . S
C597 H611 0.961 . S
C597 H612 0.961 . S
C597 H613 0.961 . S
C598 C599 1.370 . S
C598 C600 1.363 . S
C598 H614 0.931 . S
C599 C598 1.370 . S
C599 C603 1.408 1_545 S
C600 C598 1.363 . S
C600 C601 1.370 . S
C600 C604 1.524 . S
C601 C593 1.503 . S
C601 C600 1.370 . S
C601 C602 1.403 1_545 S
C602 C601 1.403 1_565 S
C602 C603 1.404 . S
C602 C605 1.539 . S
C603 C599 1.408 1_565 S
C603 C602 1.404 . S
C603 H615 0.930 . S
C604 C600 1.524 . S
C604 H616 0.956 . S
C604 H617 0.961 . S
C604 H618 0.961 . S
C605 C602 1.539 . S
C605 H619 0.958 . S
C605 H620 0.961 . S
C605 H621 0.960 . S
H606 C590 0.931 1_565 S
H607 C595 0.929 . S
H608 C596 0.960 . S
H609 C596 0.962 1_545 S
H610 C596 0.960 . S
H611 C597 0.961 . S
H612 C597 0.961 . S
H613 C597 0.961 . S
H614 C598 0.931 . S
H615 C603 0.930 . S
H616 C604 0.956 . S
H617 C604 0.961 . S
H618 C604 0.961 . S
H619 C605 0.958 . S
H620 C605 0.961 . S
H621 C605 0.960 . S
C622 C623 1.391 . S
C622 C624 1.394 . S
C622 H638 0.931 . S
C623 C622 1.391 . S
C623 C627 1.376 . S
C624 C622 1.394 . S
C624 C625 1.369 . S
C624 C628 1.531 . S
C625 C624 1.369 . S
C625 C626 1.410 . S
C625 C633 1.503 . S
C626 C625 1.410 . S
C626 C627 1.392 . S
C626 C629 1.511 . S
C627 C623 1.376 . S
C627 C626 1.392 . S
C627 H639 0.929 . S
C628 C624 1.531 . S
C628 H640 0.960 . S
C628 H641 0.962 . S
C628 H642 0.960 . S
C629 C626 1.511 . S
C629 H643 0.961 . S
C629 H644 0.961 . S
C629 H645 0.961 . S
C630 C631 1.370 . S
C630 C632 1.363 . S
C630 H646 0.931 . S
C631 C630 1.370 . S
C631 C635 1.408 . S
C632 C630 1.363 . S
C632 C633 1.370 . S
C632 C636 1.524 . S
C633 C625 1.503 . S
C633 C632 1.370 . S
C633 C634 1.403 . S
C634 C633 1.403 . S
C634 C635 1.404 . S
C634 C637 1.539 . S
C635 C631 1.408 . S
C635 C634 1.404 . S
C635 H647 0.930 . S
C636 C632 1.524 . S
C636 H648 0.956 . S
C636 H649 0.961 . S
C636 H650 0.961 . S
C637 C634 1.539 . S
C637 H651 0.958 . S
C637 H652 0.961 . S
C637 H653 0.960 . S
H638 C622 0.931 . S
H639 C627 0.929 . S
H640 C628 0.960 . S
H641 C628 0.962 . S
H642 C628 0.960 . S
H643 C629 0.961 . S
H644 C629 0.961 . S
H645 C629 0.961 . S
H646 C630 0.931 . S
H647 C635 0.930 . S
H648 C636 0.956 . S
H649 C636 0.961 . S
H650 C636 0.961 . S
H651 C637 0.958 . S
H652 C637 0.961 . S
H653 C637 0.960 . S
C654 C655 1.391 . S
C654 C656 1.394 . S
C654 H670 0.931 . S
C655 C654 1.391 . S
C655 C659 1.376 . S
C656 C654 1.394 . S
C656 C657 1.369 . S
C656 C660 1.531 1_545 S
C657 C656 1.369 . S
C657 C658 1.410 . S
C657 C665 1.503 . S
C658 C657 1.410 . S
C658 C659 1.392 . S
C658 C661 1.511 . S
C659 C655 1.376 . S
C659 C658 1.392 . S
C659 H671 0.929 . S
C660 C656 1.531 1_565 S
C660 H672 0.960 . S
C660 H673 0.962 1_565 S
C660 H674 0.960 . S
C661 C658 1.511 . S
C661 H675 0.961 . S
C661 H676 0.961 . S
C661 H677 0.961 . S
C662 C663 1.370 . S
C662 C664 1.363 . S
C662 H678 0.931 . S
C663 C662 1.370 . S
C663 C667 1.408 . S
C664 C662 1.363 . S
C664 C665 1.370 . S
C664 C668 1.524 . S
C665 C657 1.503 . S
C665 C664 1.370 . S
C665 C666 1.403 . S
C666 C665 1.403 . S
C666 C667 1.404 . S
C666 C669 1.539 1_545 S
C667 C663 1.408 . S
C667 C666 1.404 . S
C667 H679 0.930 1_545 S
C668 C664 1.524 . S
C668 H680 0.956 . S
C668 H681 0.961 . S
C668 H682 0.961 . S
C669 C666 1.539 1_565 S
C669 H683 0.958 . S
C669 H684 0.961 . S
C669 H685 0.960 . S
H670 C654 0.931 . S
H671 C659 0.929 . S
H672 C660 0.960 . S
H673 C660 0.962 1_545 S
H674 C660 0.960 . S
H675 C661 0.961 . S
H676 C661 0.961 . S
H677 C661 0.961 . S
H678 C662 0.931 . S
H679 C667 0.930 1_565 S
H680 C668 0.956 . S
H681 C668 0.961 . S
H682 C668 0.961 . S
H683 C669 0.958 . S
H684 C669 0.961 . S
H685 C669 0.960 . S
C686 C687 1.391 . S
C686 C688 1.394 . S
C686 H702 0.931 . S
C687 C686 1.391 . S
C687 C691 1.376 . S
C688 C686 1.394 . S
C688 C689 1.369 . S
C688 C692 1.531 . S
C689 C688 1.369 . S
C689 C690 1.410 . S
C689 C697 1.503 1_556 S
C690 C689 1.410 . S
C690 C691 1.392 . S
C690 C693 1.511 . S
C691 C687 1.376 . S
C691 C690 1.392 . S
C691 H703 0.929 . S
C692 C688 1.531 . S
C692 H704 0.960 1_556 S
C692 H705 0.962 . S
C692 H706 0.960 . S
C693 C690 1.511 . S
C693 H707 0.961 . S
C693 H708 0.961 . S
C693 H709 0.961 . S
C694 C695 1.370 . S
C694 C696 1.363 . S
C694 H710 0.931 . S
C695 C694 1.370 . S
C695 C699 1.408 . S
C696 C694 1.363 . S
C696 C697 1.370 . S
C696 C700 1.524 1_554 S
C697 C689 1.503 1_554 S
C697 C696 1.370 . S
C697 C698 1.403 . S
C698 C697 1.403 . S
C698 C699 1.404 . S
C698 C701 1.539 . S
C699 C695 1.408 . S
C699 C698 1.404 . S
C699 H711 0.930 . S
C700 C696 1.524 1_556 S
C700 H712 0.956 . S
C700 H713 0.961 . S
C700 H714 0.961 1_556 S
C701 C698 1.539 . S
C701 H715 0.958 . S
C701 H716 0.961 . S
C701 H717 0.960 1_554 S
H702 C686 0.931 . S
H703 C691 0.929 . S
H704 C692 0.960 1_554 S
H705 C692 0.962 . S
H706 C692 0.960 . S
H707 C693 0.961 . S
H708 C693 0.961 . S
H709 C693 0.961 . S
H710 C694 0.931 . S
H711 C699 0.930 . S
H712 C700 0.956 . S
H713 C700 0.961 . S
H714 C700 0.961 1_554 S
H715 C701 0.958 . S
H716 C701 0.961 . S
H717 C701 0.960 1_556 S
C718 C719 1.391 1_655 S
C718 C720 1.394 . S
C718 H734 0.931 . S
C719 C718 1.391 1_455 S
C719 C723 1.376 . S
C720 C718 1.394 . S
C720 C721 1.369 1_655 S
C720 C724 1.531 . S
C721 C720 1.369 1_455 S
C721 C722 1.410 . S
C721 C729 1.503 . S
C722 C721 1.410 . S
C722 C723 1.392 . S
C722 C725 1.511 . S
C723 C719 1.376 . S
C723 C722 1.392 . S
C723 H735 0.929 . S
C724 C720 1.531 . S
C724 H736 0.960 . S
C724 H737 0.962 . S
C724 H738 0.960 . S
C725 C722 1.511 . S
C725 H739 0.961 . S
C725 H740 0.961 . S
C725 H741 0.961 . S
C726 C727 1.370 . S
C726 C728 1.363 . S
C726 H742 0.931 . S
C727 C726 1.370 . S
C727 C731 1.408 . S
C728 C726 1.363 . S
C728 C729 1.370 . S
C728 C732 1.524 . S
C729 C721 1.503 . S
C729 C728 1.370 . S
C729 C730 1.403 . S
C730 C729 1.403 . S
C730 C731 1.404 . S
C730 C733 1.539 . S
C731 C727 1.408 . S
C731 C730 1.404 . S
C731 H743 0.930 . S
C732 C728 1.524 . S
C732 H744 0.956 . S
C732 H745 0.961 . S
C732 H746 0.961 . S
C733 C730 1.539 . S
C733 H747 0.942 1_455 S
C733 H748 0.961 . S
C733 H749 0.960 . S
H734 C718 0.931 . S
H735 C723 0.929 . S
H736 C724 0.960 . S
H737 C724 0.962 . S
H738 C724 0.960 . S
H739 C725 0.961 . S
H740 C725 0.961 . S
H741 C725 0.961 . S
H742 C726 0.931 . S
H743 C731 0.930 . S
H744 C732 0.956 . S
H745 C732 0.961 . S
H746 C732 0.961 . S
H747 C733 0.942 1_655 S
H748 C733 0.961 . S
H749 C733 0.960 . S
C175 C2 1.236 . S
C183 C166 1.150 . S
C207 C21 1.070 . S
C215 C128 1.094 . S
C239 C42 1.186 . S
C247 C147 1.147 . S
C271 C1 0.901 . S
C279 C161 0.898 . S
C311 C123 1.004 . S
C303 C22 0.990 . S
C343 C142 0.915 . S
C335 C41 0.917 . S
C367 C38 1.964 . S
C375 C90 1.929 . S
C399 C59 1.875 . S
C407 C104 1.835 . S
C431 C18 1.798 . S
C439 C66 1.772 . S
C471 C85 1.841 . S
C463 C39 1.868 . S
C503 C109 1.921 . S
C495 C58 1.961 . S
C527 C19 2.057 . S
C535 C71 2.005 . S
C567 C100 1.589 . S
C559 C9 1.580 . S
C591 C29 1.583 . S
C599 C62 1.652 . S
C623 C49 1.558 . S
C631 C81 1.615 . S
C663 C138 1.575 . S
C655 C28 1.549 . S
C695 C157 1.530 . S
C687 C48 1.469 . S
C719 C8 1.410 . S
C727 C119 1.496 . S
