# Generated by pormake.
# Topology zzz, (3,6)-cn, num edge types: 1
# Building blocks:
#     Node 0, Type 0, BuildingBlock: VETTIZ_charged_linker_0, # of connection points: 3
#     Node 1, Type 0, BuildingBlock: VETTIZ_charged_linker_0, # of connection points: 3
#     Node 2, Type 0, BuildingBlock: VETTIZ_charged_linker_0, # of connection points: 3
#     Node 3, Type 0, BuildingBlock: VETTIZ_charged_linker_0, # of connection points: 3
#     Node 4, Type 0, BuildingBlock: VETTIZ_charged_linker_0, # of connection points: 3
#     Node 5, Type 0, BuildingBlock: VETTIZ_charged_linker_0, # of connection points: 3
#     Node 6, Type 0, BuildingBlock: VETTIZ_charged_linker_0, # of connection points: 3
#     Node 7, Type 0, BuildingBlock: VETTIZ_charged_linker_0, # of connection points: 3
#     Node 8, Type 1, BuildingBlock: MIFKUJ_clean_sbu_0, # of connection points: 6
#     Node 9, Type 1, BuildingBlock: MIFKUJ_clean_sbu_0, # of connection points: 6
#     Node 10, Type 1, BuildingBlock: MIFKUJ_clean_sbu_0, # of connection points: 6
#     Node 11, Type 1, BuildingBlock: MIFKUJ_clean_sbu_0, # of connection points: 6
#     Edge 12, Type (0, 1), BuildingBlock: MIFKUJ_clean_linker_0, # of connection points: 2
#     Edge 13, Type (0, 1), BuildingBlock: MIFKUJ_clean_linker_0, # of connection points: 2
#     Edge 14, Type (0, 1), BuildingBlock: MIFKUJ_clean_linker_0, # of connection points: 2
#     Edge 15, Type (0, 1), BuildingBlock: MIFKUJ_clean_linker_0, # of connection points: 2
#     Edge 16, Type (0, 1), BuildingBlock: MIFKUJ_clean_linker_0, # of connection points: 2
#     Edge 17, Type (0, 1), BuildingBlock: MIFKUJ_clean_linker_0, # of connection points: 2
#     Edge 18, Type (0, 1), BuildingBlock: MIFKUJ_clean_linker_0, # of connection points: 2
#     Edge 19, Type (0, 1), BuildingBlock: MIFKUJ_clean_linker_0, # of connection points: 2
#     Edge 20, Type (0, 1), BuildingBlock: MIFKUJ_clean_linker_0, # of connection points: 2
#     Edge 21, Type (0, 1), BuildingBlock: MIFKUJ_clean_linker_0, # of connection points: 2
#     Edge 22, Type (0, 1), BuildingBlock: MIFKUJ_clean_linker_0, # of connection points: 2
#     Edge 23, Type (0, 1), BuildingBlock: MIFKUJ_clean_linker_0, # of connection points: 2
#     Edge 24, Type (0, 1), BuildingBlock: MIFKUJ_clean_linker_0, # of connection points: 2
#     Edge 25, Type (0, 1), BuildingBlock: MIFKUJ_clean_linker_0, # of connection points: 2
#     Edge 26, Type (0, 1), BuildingBlock: MIFKUJ_clean_linker_0, # of connection points: 2
#     Edge 27, Type (0, 1), BuildingBlock: MIFKUJ_clean_linker_0, # of connection points: 2
#     Edge 28, Type (0, 1), BuildingBlock: MIFKUJ_clean_linker_0, # of connection points: 2
#     Edge 29, Type (0, 1), BuildingBlock: MIFKUJ_clean_linker_0, # of connection points: 2
#     Edge 30, Type (0, 1), BuildingBlock: MIFKUJ_clean_linker_0, # of connection points: 2
#     Edge 31, Type (0, 1), BuildingBlock: MIFKUJ_clean_linker_0, # of connection points: 2
#     Edge 32, Type (0, 1), BuildingBlock: MIFKUJ_clean_linker_0, # of connection points: 2
#     Edge 33, Type (0, 1), BuildingBlock: MIFKUJ_clean_linker_0, # of connection points: 2
#     Edge 34, Type (0, 1), BuildingBlock: MIFKUJ_clean_linker_0, # of connection points: 2
#     Edge 35, Type (0, 1), BuildingBlock: MIFKUJ_clean_linker_0, # of connection points: 2
# Relax obj value: 0.312
# Max RMSD: 0.219
# Mean RMSD: 0.199
data_MOF--net-zzz--node1-MIFKUJ_clean_sbu_0--node2-VETTIZ_charged_linker_0--edge1-MIFKUJ_clean_linker_0
_symmetry_space_group_name_H-M    P1
_symmetry_Int_Tables_number       1
_symmetry_cell_setting            triclinic
loop_
_symmetry_equiv_pos_as_xyz
'x, y, z'
_cell_length_a     71.798163
_cell_length_b     72.123521
_cell_length_c     26.270501
_cell_angle_alpha  89.927569
_cell_angle_beta   89.848305
_cell_angle_gamma 89.863521
loop_
_atom_site_label
_atom_site_type_symbol
_atom_site_fract_x
_atom_site_fract_y
_atom_site_fract_z
_atom_type_partial_charge
C0 C 0.76574 0.53418 0.22904 0.0
C1 C 0.78497 0.53079 0.23772 0.0
C2 C 0.79616 0.52428 0.1977 0.0
C3 C 0.77093 0.52861 0.13915 0.0
C4 C 0.75885 0.53247 0.17867 0.0
C5 C 0.73897 0.53443 0.15877 0.0
H6 H 0.68543 0.53188 0.94129 0.0
C7 C 0.76104 0.53031 0.09101 0.0
C8 C 0.74195 0.53277 0.10107 0.0
H9 H 0.6635 0.53993 0.09269 0.0
H10 H 0.6954 0.53816 0.12734 0.0
H11 H 0.71129 0.56311 0.95744 0.0
H12 H 0.7184 0.50417 0.95705 0.0
H13 H 0.73718 0.51339 0.92213 0.0
H14 H 0.71373 0.51795 0.90153 0.0
H15 H 0.71591 0.55082 0.89968 0.0
H16 H 0.73445 0.56028 0.93813 0.0
C17 C 0.73113 0.55357 0.17352 0.0
C18 C 0.72726 0.51832 0.18002 0.0
C19 C 0.79941 0.53961 0.93181 0.0
C20 C 0.79469 0.54083 0.88026 0.0
C21 C 0.77591 0.54118 0.86567 0.0
C22 C 0.76193 0.53959 0.90242 0.0
C23 C 0.76691 0.53758 0.95397 0.0
C24 C 0.78537 0.53772 0.9678 0.0
C25 C 0.7883 0.53321 0.02285 0.0
C26 C 0.76822 0.53208 0.04108 0.0
C27 C 0.756 0.53442 0.00057 0.0
C28 C 0.79908 0.54951 0.04715 0.0
C29 C 0.79857 0.51418 0.02596 0.0
C30 C 0.68723 0.53307 0.98214 0.0
C31 C 0.67206 0.53623 0.01408 0.0
C32 C 0.67512 0.53752 0.06717 0.0
C33 C 0.69351 0.53647 0.08706 0.0
C34 C 0.70867 0.53428 0.05323 0.0
C35 C 0.70505 0.53303 0.00165 0.0
C36 C 0.72188 0.53427 0.96907 0.0
C37 C 0.7367 0.53439 0.00908 0.0
C38 C 0.72935 0.53412 0.05894 0.0
C39 C 0.72091 0.55295 0.93921 0.0
C40 C 0.72292 0.51663 0.93531 0.0
H41 H 0.79866 0.51858 0.12005 0.0
H42 H 0.75666 0.53842 0.25986 0.0
H43 H 0.73423 0.50482 0.17224 0.0
H44 H 0.71333 0.51768 0.16262 0.0
H45 H 0.72551 0.5197 0.22189 0.0
H46 H 0.74094 0.56472 0.16183 0.0
H47 H 0.72901 0.55452 0.21535 0.0
H48 H 0.7177 0.55642 0.15467 0.0
H49 H 0.81381 0.5384 0.94363 0.0
H50 H 0.77214 0.5418 0.82579 0.0
H51 H 0.74791 0.53912 0.88876 0.0
H52 H 0.7917 0.56284 0.04009 0.0
H53 H 0.8133 0.5506 0.03062 0.0
H54 H 0.80072 0.54819 0.08864 0.0
H55 H 0.79973 0.50713 0.98843 0.0
H56 H 0.79095 0.50416 0.05041 0.0
H57 H 0.813 0.51582 0.04044 0.0
H58 H 0.8107 0.52085 0.20401 0.0
C59 C 0.78923 0.52312 0.14878 0.0
C60 C 0.97454 0.77692 0.89722 0.0
C61 C 0.97166 0.79605 0.89934 0.0
C62 C 0.96807 0.80471 0.94631 0.0
C63 C 0.97206 0.77541 0.98912 0.0
C64 C 0.97466 0.7669 0.94261 0.0
C65 C 0.97889 0.7467 0.94766 0.0
H66 H 0.98334 0.6694 0.08902 0.0
C67 C 0.9747 0.7613 0.02892 0.0
C68 C 0.97854 0.74449 0.00519 0.0
H69 H 0.99107 0.67744 0.92696 0.0
H70 H 0.98897 0.7099 0.937 0.0
H71 H 0.01288 0.70764 0.11385 0.0
H72 H 0.95239 0.7043 0.11601 0.0
H73 H 0.96242 0.71309 0.17319 0.0
H74 H 0.96644 0.68939 0.15541 0.0
H75 H 0.00097 0.69299 0.15873 0.0
H76 H 0.00282 0.71758 0.16886 0.0
C77 C 0.99864 0.7432 0.9249 0.0
C78 C 0.96281 0.73604 0.92133 0.0
C79 C 0.97507 0.78285 0.20952 0.0
C80 C 0.9801 0.77484 0.25577 0.0
C81 C 0.98237 0.7554 0.25856 0.0
C82 C 0.98066 0.74437 0.2141 0.0
C83 C 0.97724 0.75307 0.16684 0.0
C84 C 0.97432 0.77205 0.16598 0.0
C85 C 0.97246 0.77985 0.1138 0.0
C86 C 0.97452 0.76252 0.08248 0.0
C87 C 0.9774 0.74663 0.11288 0.0
C88 C 0.98898 0.79341 0.10479 0.0
C89 C 0.9528 0.78873 0.10896 0.0
C90 C 0.98455 0.6784 0.0562 0.0
C91 C 0.98664 0.67095 0.00667 0.0
C92 C 0.98893 0.68291 0.96502 0.0
C93 C 0.9877 0.70187 0.97095 0.0
C94 C 0.9844 0.70928 0.01925 0.0
C95 C 0.98368 0.69793 0.06162 0.0
C96 C 0.98238 0.70945 0.11005 0.0
C97 C 0.98054 0.72912 0.08851 0.0
C98 C 0.98155 0.72847 0.03508 0.0
C99 C 0.00066 0.70679 0.13987 0.0
C100 C 0.96497 0.70375 0.1406 0.0
H101 H 0.96628 0.80204 0.02595 0.0
H102 H 0.97758 0.7701 0.86139 0.0
H103 H 0.94919 0.74301 0.92826 0.0
H104 H 0.96086 0.72183 0.93594 0.0
H105 H 0.96499 0.73543 0.87949 0.0
H106 H 0.00713 0.75608 0.92349 0.0
H107 H 0.99781 0.73776 0.88544 0.0
H108 H 0.00703 0.73355 0.94844 0.0
H109 H 0.97317 0.79774 0.20643 0.0
H110 H 0.98613 0.74892 0.29429 0.0
H111 H 0.98248 0.72965 0.2177 0.0
H112 H 0.00194 0.78809 0.12289 0.0
H113 H 0.986 0.80728 0.12131 0.0
H114 H 0.99268 0.79516 0.06427 0.0
H115 H 0.94279 0.78279 0.13698 0.0
H116 H 0.94634 0.78604 0.07145 0.0
H117 H 0.95329 0.80392 0.11561 0.0
H118 H 0.96626 0.81962 0.94855 0.0
C119 C 0.96827 0.79448 0.99129 0.0
C120 C 0.82678 0.972 0.04615 0.0
C121 C 0.83358 0.97551 0.9962 0.0
C122 C 0.82127 0.98244 0.95925 0.0
C123 C 0.79543 0.97647 0.01458 0.0
C124 C 0.80728 0.97327 0.05486 0.0
C125 C 0.79611 0.97146 0.10418 0.0
H126 H 0.70632 0.97118 0.20043 0.0
C127 C 0.77633 0.97323 0.03088 0.0
C128 C 0.77601 0.97127 0.08413 0.0
H129 H 0.75591 0.97147 0.29237 0.0
H130 H 0.77525 0.96972 0.21458 0.0
H131 H 0.71828 0.99549 0.10029 0.0
H132 H 0.71921 0.93855 0.14743 0.0
H133 H 0.71985 0.93721 0.08083 0.0
H134 H 0.69993 0.94761 0.11248 0.0
H135 H 0.69839 0.98147 0.11596 0.0
H136 H 0.70786 0.9815 0.05295 0.0
C137 C 0.80005 0.98869 0.13694 0.0
C138 C 0.80113 0.95325 0.13147 0.0
C139 C 0.72835 0.96072 0.89424 0.0
C140 C 0.70922 0.95737 0.89739 0.0
C141 C 0.70105 0.95299 0.94449 0.0
C142 C 0.71145 0.95419 0.98904 0.0
C143 C 0.73021 0.95953 0.98612 0.0
C144 C 0.73859 0.96182 0.93922 0.0
C145 C 0.75828 0.96847 0.94348 0.0
C146 C 0.76048 0.96912 0.00116 0.0
C147 C 0.7439 0.96439 0.02535 0.0
C148 C 0.75951 0.98805 0.91865 0.0
C149 C 0.77091 0.95371 0.91814 0.0
C150 C 0.72137 0.97148 0.20412 0.0
C151 C 0.72959 0.97179 0.25202 0.0
C152 C 0.74926 0.9716 0.25543 0.0
C153 C 0.7604 0.97078 0.21057 0.0
C154 C 0.75163 0.9702 0.16256 0.0
C155 C 0.73236 0.97008 0.16085 0.0
C156 C 0.72476 0.9658 0.10966 0.0
C157 C 0.74244 0.9656 0.07875 0.0
C158 C 0.7584 0.96852 0.10896 0.0
C159 C 0.71155 0.98182 0.09366 0.0
C160 C 0.71537 0.94638 0.11246 0.0
H161 H 0.79369 0.98718 0.93735 0.0
H162 H 0.83613 0.96774 0.07625 0.0
H163 H 0.7996 0.9413 0.10514 0.0
H164 H 0.79192 0.95077 0.16459 0.0
H165 H 0.81576 0.95356 0.14513 0.0
H166 H 0.79735 0.00158 0.11484 0.0
H167 H 0.81485 0.98882 0.14926 0.0
H168 H 0.79121 0.98929 0.1712 0.0
H169 H 0.7347 0.96455 0.85826 0.0
H170 H 0.68616 0.95075 0.94746 0.0
H171 H 0.70399 0.95241 0.02388 0.0
H172 H 0.74563 0.99401 0.9093 0.0
H173 H 0.76762 0.98766 0.88258 0.0
H174 H 0.7658 -0.00165 0.94479 0.0
H175 H 0.76863 0.93988 0.93591 0.0
H176 H 0.78587 0.95679 0.92131 0.0
H177 H 0.76772 0.95253 0.8769 0.0
H178 H 0.82627 0.98633 0.92172 0.0
C179 C 0.8023 0.98275 0.96803 0.0
C180 C 0.52661 0.74356 0.23541 0.0
C181 C 0.52753 0.72423 0.24542 0.0
C182 C 0.52894 0.71179 0.20469 0.0
C183 C 0.52805 0.73706 0.14465 0.0
C184 C 0.527 0.74972 0.18402 0.0
C185 C 0.52648 0.7695 0.16328 0.0
H186 H 0.52298 0.82319 0.9459 0.0
C187 C 0.52771 0.74707 0.09599 0.0
C188 C 0.52664 0.76623 0.10556 0.0
H189 H 0.52736 0.84442 0.09868 0.0
H190 H 0.52633 0.81255 0.13241 0.0
H191 H 0.55358 0.79572 0.95937 0.0
H192 H 0.49411 0.79056 0.96578 0.0
H193 H 0.50218 0.77098 0.93267 0.0
H194 H 0.50681 0.7938 0.90756 0.0
H195 H 0.53968 0.7943 0.90295 0.0
H196 H 0.54901 0.77387 0.93347 0.0
C197 C 0.54418 0.77964 0.181 0.0
C198 C 0.50841 0.77906 0.1811 0.0
C199 C 0.53069 0.70908 0.93496 0.0
C200 C 0.53032 0.71358 0.88308 0.0
C201 C 0.52869 0.73224 0.86815 0.0
C202 C 0.52762 0.74626 0.90497 0.0
C203 C 0.52807 0.74146 0.95703 0.0
C204 C 0.52955 0.72311 0.97091 0.0
C205 C 0.52932 0.72029 0.02731 0.0
C206 C 0.52807 0.74016 0.0456 0.0
C207 C 0.52716 0.75236 0.00453 0.0
C208 C 0.54801 0.71085 0.04258 0.0
C209 C 0.51145 0.70914 0.04067 0.0
C210 C 0.52363 0.82111 0.98677 0.0
C211 C 0.52553 0.83615 0.01953 0.0
C212 C 0.52607 0.83289 0.0726 0.0
C213 C 0.5256 0.81447 0.09192 0.0
C214 C 0.52472 0.79943 0.05761 0.0
C215 C 0.52372 0.80322 0.00599 0.0
C216 C 0.52452 0.78644 0.97334 0.0
C217 C 0.52582 0.77157 0.01321 0.0
C218 C 0.52574 0.77882 0.06319 0.0
C219 C 0.54249 0.78755 0.94018 0.0
C220 C 0.50606 0.78532 0.94283 0.0
H221 H 0.53001 0.70754 0.12628 0.0
H222 H 0.52554 0.75341 0.26634 0.0
H223 H 0.49615 0.77025 0.17232 0.0
H224 H 0.50618 0.79251 0.16196 0.0
H225 H 0.50869 0.78148 0.22286 0.0
H226 H 0.55674 0.77098 0.17366 0.0
H227 H 0.54351 0.78258 0.22248 0.0
H228 H 0.54636 0.79282 0.16056 0.0
H229 H 0.53132 0.69478 0.94761 0.0
H230 H 0.52817 0.73592 0.82818 0.0
H231 H 0.52634 0.76023 0.89137 0.0
H232 H 0.55924 0.71368 0.01435 0.0
H233 H 0.54648 0.69557 0.04534 0.0
H234 H 0.55364 0.7162 0.07889 0.0
H235 H 0.49985 0.71262 0.01427 0.0
H236 H 0.50582 0.71239 0.07884 0.0
H237 H 0.51396 0.69398 0.03785 0.0
H238 H 0.52959 0.69697 0.21159 0.0
C239 C 0.52913 0.71803 0.15486 0.0
C240 C 0.32618 0.47241 0.14562 0.0
C241 C 0.33298 0.47431 0.19593 0.0
C242 C 0.32073 0.47941 0.23517 0.0
C243 C 0.2949 0.47747 0.1778 0.0
C244 C 0.30679 0.4744 0.13727 0.0
C245 C 0.29593 0.47329 0.0876 0.0
H246 H 0.20864 0.48339 0.98176 0.0
C247 C 0.27575 0.47736 0.15981 0.0
C248 C 0.27585 0.47595 0.10631 0.0
H249 H 0.2576 0.46676 0.89823 0.0
H250 H 0.27635 0.46945 0.97657 0.0
H251 H 0.2166 0.45196 0.04856 0.0
H252 H 0.22233 0.51054 0.06581 0.0
H253 H 0.21372 0.50263 0.12471 0.0
H254 H 0.20046 0.49855 0.0676 0.0
H255 H 0.19759 0.46601 0.07003 0.0
H256 H 0.21352 0.45494 0.11378 0.0
C257 C 0.29892 0.45398 0.06397 0.0
C258 C 0.30219 0.48911 0.05217 0.0
C259 C 0.22378 0.46775 0.28821 0.0
C260 C 0.20437 0.46703 0.28245 0.0
C261 C 0.19643 0.47091 0.23464 0.0
C262 C 0.2076 0.47505 0.19298 0.0
C263 C 0.22699 0.47498 0.19858 0.0
C264 C 0.2348 0.47182 0.24567 0.0
C265 C 0.25554 0.47441 0.24491 0.0
C266 C 0.25891 0.47708 0.18787 0.0
C267 C 0.24213 0.47762 0.16174 0.0
C268 C 0.26467 0.45649 0.26582 0.0
C269 C 0.26005 0.49213 0.27629 0.0
C270 C 0.22353 0.48086 0.97952 0.0
C271 C 0.23162 0.47501 0.93412 0.0
C272 C 0.25102 0.4714 0.9331 0.0
C273 C 0.26177 0.4728 0.97845 0.0
C274 C 0.25279 0.47721 0.02484 0.0
C275 C 0.23382 0.48069 0.02399 0.0
C276 C 0.22499 0.48017 0.07508 0.0
C277 C 0.24188 0.47827 0.10817 0.0
C278 C 0.25847 0.4768 0.07962 0.0
C279 C 0.21242 0.46253 0.07731 0.0
C280 C 0.2147 0.49885 0.08399 0.0
H281 H 0.29334 0.48466 0.25802 0.0
H282 H 0.33553 0.46913 0.11449 0.0
H283 H 0.30089 0.5027 0.07182 0.0
H284 H 0.29368 0.48982 0.0173 0.0
H285 H 0.31699 0.48721 0.04071 0.0
H286 H 0.29633 0.44295 0.09276 0.0
H287 H 0.31344 0.45243 0.04984 0.0
H288 H 0.28933 0.45139 0.03204 0.0
H289 H 0.23016 0.46562 0.32507 0.0
H290 H 0.18146 0.47149 0.22974 0.0
H291 H 0.20058 0.47836 0.15826 0.0
H292 H 0.25926 0.44413 0.24543 0.0
H293 H 0.26157 0.45477 0.307 0.0
H294 H 0.27993 0.45624 0.26149 0.0
H295 H 0.24735 0.49993 0.28799 0.0
H296 H 0.26838 0.50221 0.25385 0.0
H297 H 0.26765 0.48867 0.31185 0.0
H298 H 0.32579 0.48166 0.27354 0.0
C299 C 0.30185 0.48108 0.22628 0.0
C300 C 0.0361 0.23017 0.29571 0.0
C301 C 0.0391 0.21109 0.29445 0.0
C302 C 0.04157 0.20195 0.24762 0.0
C303 C 0.03609 0.23074 0.2035 0.0
C304 C 0.0347 0.23968 0.24977 0.0
C305 C 0.03039 0.25981 0.24425 0.0
H306 H 0.02678 0.33632 0.10116 0.0
C307 C 0.03257 0.24451 0.16337 0.0
C308 C 0.02964 0.26156 0.18672 0.0
H309 H 0.02294 0.32921 0.26453 0.0
H310 H 0.02227 0.29666 0.25509 0.0
H311 H 0.05569 0.29988 0.07241 0.0
H312 H 0.99514 0.29911 0.08005 0.0
H313 H 0.0043 0.28924 0.02359 0.0
H314 H 0.00709 0.31365 0.03493 0.0
H315 H 0.0419 0.31526 0.03368 0.0
H316 H 0.04461 0.29132 0.01654 0.0
C317 C 0.04685 0.27077 0.26814 0.0
C318 C 0.01096 0.26336 0.26895 0.0
C319 C 0.02856 0.22208 0.98374 0.0
C320 C 0.02498 0.23031 0.93681 0.0
C321 C 0.02343 0.24981 0.9337 0.0
C322 C 0.02485 0.26081 0.97824 0.0
C323 C 0.0277 0.25206 0.02571 0.0
C324 C 0.02966 0.23296 0.02708 0.0
C325 C 0.03253 0.22539 0.07916 0.0
C326 C 0.03153 0.24294 0.10996 0.0
C327 C 0.02864 0.25877 0.07928 0.0
C328 C 0.05212 0.21618 0.08105 0.0
C329 C 0.01608 0.21214 0.0915 0.0
C330 C 0.026 0.32747 0.1344 0.0
C331 C 0.0256 0.33514 0.18398 0.0
C332 C 0.0238 0.3235 0.22638 0.0
C333 C 0.0234 0.30451 0.22077 0.0
C334 C 0.02502 0.2968 0.17218 0.0
C335 C 0.02559 0.30793 0.12942 0.0
C336 C 0.02557 0.2962 0.08122 0.0
C337 C 0.02666 0.27653 0.10321 0.0
C338 C 0.02657 0.27747 0.15662 0.0
C339 C 0.04286 0.30091 0.04892 0.0
C340 C 0.00709 0.29972 0.05305 0.0
H341 H 0.04095 0.20378 0.16759 0.0
H342 H 0.03368 0.23728 0.33146 0.0
H343 H 0.00196 0.25083 0.26697 0.0
H344 H 0.00285 0.2742 0.24888 0.0
H345 H 0.01226 0.26717 0.30973 0.0
H346 H 0.05992 0.26244 0.26889 0.0
H347 H 0.04373 0.27487 0.30799 0.0
H348 H 0.05066 0.28326 0.24604 0.0
H349 H 0.03007 0.20715 0.98691 0.0
H350 H 0.02081 0.2564 0.89736 0.0
H351 H 0.02364 0.27557 0.97435 0.0
H352 H 0.06151 0.22158 0.05072 0.0
H353 H 0.0512 0.20092 0.07588 0.0
H354 H 0.05958 0.21918 0.11693 0.0
H355 H 0.00272 0.2179 0.07691 0.0
H356 H 0.0138 0.21012 0.13269 0.0
H357 H 0.0182 0.19836 0.07356 0.0
H358 H 0.04325 0.18701 0.2463 0.0
C359 C 0.03997 0.21168 0.20198 0.0
C360 C 0.26493 0.03416 0.96406 0.0
C361 C 0.28397 0.03727 0.95261 0.0
C362 C 0.29549 0.04541 0.98926 0.0
C363 C 0.27043 0.04499 0.05025 0.0
C364 C 0.25833 0.03844 0.01364 0.0
C365 C 0.23866 0.03696 0.03521 0.0
H366 H 0.1883 0.02821 0.25722 0.0
C367 C 0.26077 0.04544 0.09947 0.0
C368 C 0.24201 0.04052 0.09201 0.0
H369 H 0.16412 0.03473 0.10827 0.0
H370 H 0.19553 0.03632 0.0706 0.0
H371 H 0.22342 0.00395 0.23173 0.0
H372 H 0.21206 0.06216 0.24334 0.0
H373 H 0.23375 0.0589 0.27228 0.0
H374 H 0.2137 0.04708 0.29753 0.0
H375 H 0.22259 0.01559 0.2919 0.0
H376 H 0.24402 0.01346 0.2561 0.0
C377 C 0.23067 0.01753 0.02506 0.0
C378 C 0.22688 0.05254 0.01105 0.0
C379 C 0.30038 0.05303 0.25665 0.0
C380 C 0.29802 0.04631 0.30645 0.0
C381 C 0.27999 0.04146 0.32307 0.0
C382 C 0.26504 0.04161 0.28902 0.0
C383 C 0.26827 0.04611 0.23761 0.0
C384 C 0.28574 0.05167 0.22235 0.0
C385 C 0.28783 0.052 0.16557 0.0
C386 C 0.26813 0.04744 0.14912 0.0
C387 C 0.25688 0.04402 0.19135 0.0
C388 C 0.3018 0.03627 0.15127 0.0
C389 C 0.29383 0.0718 0.14918 0.0
C390 C 0.18964 0.02977 0.21629 0.0
C391 C 0.1739 0.03154 0.18584 0.0
C392 C 0.1762 0.03342 0.13261 0.0
C393 C 0.19432 0.03453 0.11102 0.0
C394 C 0.21001 0.03405 0.14328 0.0
C395 C 0.20719 0.03189 0.1951 0.0
C396 C 0.22427 0.03465 0.22595 0.0
C397 C 0.23808 0.03912 0.18471 0.0
C398 C 0.23021 0.03804 0.13563 0.0
C399 C 0.22886 0.01607 0.25322 0.0
C400 C 0.2209 0.05145 0.26203 0.0
H401 H 0.29863 0.05512 0.06374 0.0
H402 H 0.2557 0.02834 0.93578 0.0
H403 H 0.23434 0.06602 0.01308 0.0
H404 H 0.21348 0.0546 0.03077 0.0
H405 H 0.22408 0.0495 0.97032 0.0
H406 H 0.24014 0.00668 0.0404 0.0
H407 H 0.22898 0.01515 0.98355 0.0
H408 H 0.2169 0.01568 0.0432 0.0
H409 H 0.31392 0.05728 0.2427 0.0
H410 H 0.27761 0.03619 0.36112 0.0
H411 H 0.25183 0.03713 0.30356 0.0
H412 H 0.30037 0.0242 0.17748 0.0
H413 H 0.31643 0.04114 0.15377 0.0
H414 H 0.29947 0.03026 0.11328 0.0
H415 H 0.28947 0.08239 0.17759 0.0
H416 H 0.28714 0.07625 0.11319 0.0
H417 H 0.30919 0.07277 0.14492 0.0
H418 H 0.31004 0.04807 0.98093 0.0
C419 C 0.28885 0.04938 0.03758 0.0
C420 C 0.48171 0.26416 0.96568 0.0
C421 C 0.48368 0.2834 0.95545 0.0
C422 C 0.48706 0.29562 0.99576 0.0
C423 C 0.4841 0.27067 0.0562 0.0
C424 C 0.48225 0.25803 0.01711 0.0
C425 C 0.48111 0.23834 0.03834 0.0
H426 H 0.4744 0.18523 0.25638 0.0
C427 C 0.48232 0.26097 0.10505 0.0
C428 C 0.4808 0.24185 0.09601 0.0
H429 H 0.48174 0.16412 0.10426 0.0
H430 H 0.48072 0.19587 0.07027 0.0
H431 H 0.50497 0.21674 0.24374 0.0
H432 H 0.44531 0.21498 0.23547 0.0
H433 H 0.4504 0.23715 0.25901 0.0
H434 H 0.45716 0.21691 0.29515 0.0
H435 H 0.49 0.21274 0.29747 0.0
H436 H 0.49637 0.23583 0.27821 0.0
C437 C 0.49883 0.22781 0.02172 0.0
C438 C 0.46304 0.2291 0.01989 0.0
C439 C 0.47634 0.30045 0.26231 0.0
C440 C 0.47347 0.29658 0.31395 0.0
C441 C 0.47185 0.27801 0.32998 0.0
C442 C 0.47293 0.26353 0.29437 0.0
C443 C 0.47583 0.26777 0.24253 0.0
C444 C 0.47745 0.286 0.22769 0.0
C445 C 0.48082 0.28825 0.17193 0.0
C446 C 0.48053 0.26823 0.15481 0.0
C447 C 0.47775 0.25637 0.19608 0.0
C448 C 0.5004 0.29715 0.16487 0.0
C449 C 0.46428 0.29966 0.15 0.0
C450 C 0.47556 0.1874 0.21561 0.0
C451 C 0.47785 0.17241 0.18284 0.0
C452 C 0.4798 0.17566 0.13008 0.0
C453 C 0.47945 0.194 0.11066 0.0
C454 C 0.47776 0.20902 0.14473 0.0
C455 C 0.47586 0.20532 0.19628 0.0
C456 C 0.47525 0.22229 0.22842 0.0
C457 C 0.47703 0.23706 0.18819 0.0
C458 C 0.47854 0.22956 0.13865 0.0
C459 C 0.49243 0.22196 0.26422 0.0
C460 C 0.45615 0.22293 0.25631 0.0
H461 H 0.48928 0.2998 0.07397 0.0
H462 H 0.47955 0.25441 0.935 0.0
H463 H 0.45085 0.23818 0.02798 0.0
H464 H 0.46047 0.21574 0.03919 0.0
H465 H 0.46359 0.22656 0.97821 0.0
H466 H 0.5114 0.23651 0.02775 0.0
H467 H 0.49817 0.22419 0.98066 0.0
H468 H 0.50112 0.21503 0.04384 0.0
H469 H 0.47835 0.31452 0.24891 0.0
H470 H 0.46986 0.27473 0.36987 0.0
H471 H 0.47169 0.24965 0.30869 0.0
H472 H 0.50948 0.29485 0.19858 0.0
H473 H 0.49935 0.31237 0.15895 0.0
H474 H 0.5083 0.29091 0.13287 0.0
H475 H 0.45103 0.29618 0.1699 0.0
H476 H 0.46139 0.29678 0.10958 0.0
H477 H 0.46663 0.31478 0.15472 0.0
H478 H 0.48893 0.31033 0.98865 0.0
C479 C 0.48725 0.28943 0.04561 0.0
Zn480 Zn 0.00336 0.03047 0.62074 0.0
Zn481 Zn 0.00165 0.97522 0.57562 0.0
C482 C 0.00637 0.0555 0.7029 0.0
O483 O 0.98887 0.0505 0.70743 0.0
C484 C 0.99665 0.95106 0.49106 0.0
O485 O 0.01219 0.9593 0.47754 0.0
O486 O 0.99466 0.04703 0.56873 0.0
O487 O 0.01953 0.01288 0.57655 0.0
O488 O 0.02402 0.98552 0.54216 0.0
C489 C 0.00894 0.05322 0.54638 0.0
O490 O 0.02555 0.04914 0.56414 0.0
O491 O 0.01662 0.04734 0.67024 0.0
C492 C 0.99813 0.9569 0.66129 0.0
O493 O 0.981 0.95928 0.64508 0.0
O494 O 0.01147 0.96181 0.63309 0.0
O495 O 0.9879 0.99596 0.60921 0.0
O496 O 0.97978 0.02032 0.65051 0.0
O497 O 0.98815 0.95668 0.53077 0.0
C498 C 0.02946 0.002 0.54938 0.0
C499 C 0.9763 0.00378 0.63868 0.0
Zn500 Zn 0.48517 0.00991 0.62775 0.0
Zn501 Zn 0.52441 0.99545 0.56587 0.0
C502 C 0.45405 0.00693 0.69828 0.0
O503 O 0.45941 0.98953 0.7 0.0
C504 C 0.55605 -0.00222 0.50561 0.0
O505 O 0.55469 0.01388 0.52873 0.0
O506 O 0.47132 0.99643 0.57395 0.0
O507 O 0.49721 0.03281 0.60063 0.0
O508 O 0.5156 0.02052 0.54178 0.0
C509 C 0.46846 0.00198 0.52887 0.0
O510 O 0.47806 0.01595 0.51076 0.0
O511 O 0.46359 0.01848 0.67252 0.0
C512 C 0.54388 0.00984 0.66083 0.0
O513 O 0.53124 0.02222 0.67347 0.0
O514 O 0.54177 -0.0002 0.62185 0.0
O515 O 0.50779 0.97516 0.59511 0.0
O516 O 0.50085 0.99139 0.66401 0.0
O517 O 0.54297 0.98604 0.51214 0.0
C518 C 0.50736 0.03443 0.56128 0.0
C519 C 0.50445 0.97592 0.64283 0.0
Zn520 Zn 0.4957 0.48629 0.6304 0.0
Zn521 Zn 0.51056 0.52275 0.57177 0.0
C522 C 0.49965 0.45272 0.68577 0.0
O523 O 0.5168 0.45663 0.6719 0.0
C524 C 0.50711 0.55463 0.50756 0.0
O525 O 0.48965 0.54956 0.51296 0.0
O526 O 0.50956 0.47355 0.575 0.0
O527 O 0.4741 0.50022 0.59712 0.0
O528 O 0.49163 0.50901 0.5323 0.0
C529 C 0.49956 0.46469 0.54386 0.0
O530 O 0.48137 0.46527 0.54859 0.0
O531 O 0.48681 0.46432 0.6748 0.0
C532 C 0.50937 0.54375 0.65682 0.0
O533 O 0.52704 0.54361 0.64375 0.0
O534 O 0.49771 0.53516 0.62959 0.0
O535 O 0.53192 0.50799 0.60201 0.0
O536 O 0.51499 0.50026 0.66905 0.0
O537 O 0.51973 0.54465 0.52811 0.0
C538 C 0.47575 0.5048 0.55039 0.0
C539 C 0.53079 0.50365 0.64899 0.0
Zn540 Zn 0.02414 0.49605 0.62458 0.0
Zn541 Zn 0.98652 0.51043 0.56465 0.0
C542 C 0.05823 0.49875 0.67914 0.0
O543 O 0.05616 0.51577 0.66222 0.0
C544 C 0.95206 0.51004 0.51046 0.0
O545 O 0.95277 0.49306 0.5284 0.0
O546 O 0.03762 0.51019 0.5699 0.0
O547 O 0.01043 0.47412 0.59485 0.0
O548 O 0.99825 0.48893 0.52882 0.0
C549 C 0.04277 0.50272 0.52857 0.0
O550 O 0.03758 0.48574 0.51844 0.0
O551 O 0.04544 0.48695 0.67036 0.0
C552 C 0.96421 0.50904 0.65079 0.0
O553 O 0.96662 0.52701 0.6465 0.0
O554 O 0.97236 0.49829 0.62005 0.0
O555 O 0.002 0.53141 0.59674 0.0
O556 O 0.00955 0.51456 0.66371 0.0
O557 O 0.96574 0.5209 0.51859 0.0
C558 C 0.00304 0.47391 0.55084 0.0
C559 C 0.00719 0.53034 0.64313 0.0
H560 H 0.14303 0.00915 0.17791 0.0
H561 H 0.11796 0.00661 0.24209 0.0
H562 H 0.14064 0.05336 0.32272 0.0
H563 H 0.1649 0.05652 0.25803 0.0
H564 H 0.13195 0.00902 0.37206 0.0
H565 H 0.10954 0.07082 0.30862 0.0
H566 H 0.10205 0.09083 0.2351 0.0
H567 H 0.06533 0.04902 0.17685 0.0
H568 H 0.07285 0.02872 0.24985 0.0
H569 H 0.06251 0.01955 0.5727 0.0
H570 H 0.08778 0.02727 0.51214 0.0
H571 H 0.05399 0.00737 0.38817 0.0
H572 H 0.02919 -0.00038 0.44789 0.0
H573 H 0.07017 0.0399 0.36432 0.0
H574 H 0.08778 0.98084 0.43856 0.0
H575 H 0.09682 0.95918 0.50691 0.0
H576 H 0.14409 0.99312 0.54222 0.0
H577 H 0.13518 0.01514 0.4745 0.0
C578 C 0.14215 0.01929 0.20819 0.0
C579 C 0.15584 0.03303 0.213 0.0
C580 C 0.1281 0.01764 0.24526 0.0
C581 C 0.1278 0.02957 0.28757 0.0
C582 C 0.14077 0.04394 0.29062 0.0
C583 C 0.15445 0.04584 0.25331 0.0
C584 C 0.11404 0.02712 0.32904 0.0
C585 C 0.11848 0.01586 0.37089 0.0
C586 C 0.09663 0.03606 0.3273 0.0
C587 C 0.09172 0.04834 0.2844 0.0
C588 C 0.09993 0.06591 0.27995 0.0
C589 C 0.09571 0.07728 0.23841 0.0
C590 C 0.08322 0.0712 0.20131 0.0
C591 C 0.07501 0.05371 0.20558 0.0
C592 C 0.07923 0.04228 0.24702 0.0
C593 C 0.06051 0.01717 0.53239 0.0
C594 C 0.04395 0.00912 0.51469 0.0
C595 C 0.07494 0.02139 0.49796 0.0
C596 C 0.07279 0.01779 0.4456 0.0
C597 C 0.05598 0.0103 0.42824 0.0
C598 C 0.04181 0.00589 0.46238 0.0
C599 C 0.08781 0.02153 0.40794 0.0
C600 C 0.08366 0.03313 0.36639 0.0
C601 C 0.10553 0.01282 0.41038 0.0
C602 C 0.11062 -0.00019 0.45196 0.0
C603 C 0.09995 0.98383 0.46133 0.0
C604 C 0.1051 0.97145 0.49985 0.0
C605 C 0.12098 0.97481 0.52904 0.0
C606 C 0.13176 0.99056 0.5197 0.0
C607 C 0.12666 0.003 0.48126 0.0
H608 H 0.12496 0.96519 0.55875 0.0
H609 H 0.0799 0.08004 0.16927 0.0
H610 H 0.45099 0.15152 0.2276 0.0
H611 H 0.45626 0.12815 0.29398 0.0
H612 H 0.5154 0.13083 0.26526 0.0
H613 H 0.51002 0.15379 0.19813 0.0
H614 H 0.50575 0.09663 0.28486 0.0
H615 H 0.49291 0.15622 0.36729 0.0
H616 H 0.47481 0.18382 0.39308 0.0
H617 H 0.43049 0.14892 0.44655 0.0
H618 H 0.44828 0.12115 0.42087 0.0
H619 H 0.53488 0.05098 0.50594 0.0
H620 H 0.53105 0.07601 0.44375 0.0
H621 H 0.47264 0.07974 0.48266 0.0
H622 H 0.47692 0.05608 0.54779 0.0
H623 H 0.48228 0.11116 0.45799 0.0
H624 H 0.49249 0.052 0.37532 0.0
H625 H 0.50995 0.02328 0.35649 0.0
H626 H 0.55657 0.05542 0.30458 0.0
H627 H 0.53942 0.08432 0.32343 0.0
C628 C 0.465 0.14642 0.23401 0.0
C629 C 0.48008 0.15408 0.20706 0.0
C630 C 0.46806 0.13343 0.27273 0.0
C631 C 0.48628 0.12813 0.28566 0.0
C632 C 0.50122 0.13478 0.2562 0.0
C633 C 0.49815 0.14765 0.21725 0.0
C634 C 0.48995 0.11594 0.33024 0.0
C635 C 0.50074 0.09991 0.3228 0.0
C636 C 0.48302 0.11988 0.37967 0.0
C637 C 0.47182 0.13664 0.39151 0.0
C638 C 0.47919 0.15446 0.38382 0.0
C639 C 0.46902 0.17013 0.39869 0.0
C640 C 0.45149 0.16813 0.42131 0.0
C641 C 0.44405 0.15046 0.42893 0.0
C642 C 0.45416 0.13477 0.41424 0.0
C643 C 0.52138 0.05757 0.50196 0.0
C644 C 0.50616 0.05157 0.53115 0.0
C645 C 0.51911 0.07167 0.46596 0.0
C646 C 0.50135 0.07925 0.45673 0.0
C647 C 0.48645 0.07405 0.48844 0.0
C648 C 0.4889 0.06051 0.52579 0.0
C649 C 0.49792 0.09175 0.41254 0.0
C650 C 0.48722 0.10782 0.42001 0.0
C651 C 0.50453 0.08763 0.36292 0.0
C652 C 0.51473 0.07028 0.35102 0.0
C653 C 0.50648 0.05292 0.35999 0.0
C654 C 0.51632 0.03662 0.34932 0.0
C655 C 0.53437 0.03753 0.32942 0.0
C656 C 0.54259 0.05474 0.31999 0.0
C657 C 0.53281 0.07107 0.33056 0.0
H658 H 0.54197 0.0249 0.32124 0.0
H659 H 0.44371 0.18026 0.43307 0.0
H660 H 0.36323 0.49627 0.17912 0.0
H661 H 0.38931 0.49864 0.23916 0.0
H662 H 0.37023 0.44932 0.31576 0.0
H663 H 0.34515 0.44625 0.25424 0.0
H664 H 0.377 0.50049 0.35222 0.0
H665 H 0.39738 0.43244 0.33415 0.0
H666 H 0.40656 0.40673 0.27746 0.0
H667 H 0.44666 0.44194 0.20404 0.0
H668 H 0.43717 0.46804 0.25927 0.0
H669 H 0.4395 0.49475 0.57152 0.0
H670 H 0.41513 0.48719 0.50932 0.0
H671 H 0.45285 0.50038 0.38661 0.0
H672 H 0.47695 0.50815 0.44753 0.0
H673 H 0.43556 0.4651 0.37819 0.0
H674 H 0.42089 0.52987 0.41275 0.0
H675 H 0.41313 0.55521 0.47209 0.0
H676 H 0.36336 0.52665 0.51745 0.0
H677 H 0.371 0.50097 0.45887 0.0
C678 C 0.36547 0.48523 0.20647 0.0
C679 C 0.3524 0.47092 0.21159 0.0
C680 C 0.3801 0.48679 0.2414 0.0
C681 C 0.38172 0.47411 0.28181 0.0
C682 C 0.36964 0.45893 0.28412 0.0
C683 C 0.35536 0.45711 0.2486 0.0
C684 C 0.3943 0.47806 0.32497 0.0
C685 C 0.38974 0.49268 0.35822 0.0
C686 C 0.41073 0.46776 0.33314 0.0
C687 C 0.4162 0.45226 0.29964 0.0
C688 C 0.40785 0.43478 0.30515 0.0
C689 C 0.41316 0.42014 0.27344 0.0
C690 C 0.42708 0.42274 0.23687 0.0
C691 C 0.43575 0.43999 0.23204 0.0
C692 C 0.43035 0.45473 0.26333 0.0
C693 C 0.4425 0.4962 0.53129 0.0
C694 C 0.46021 0.5019 0.5145 0.0
C695 C 0.42861 0.49185 0.49592 0.0
C696 C 0.43236 0.49304 0.44352 0.0
C697 C 0.44981 0.49919 0.42691 0.0
C698 C 0.46353 0.50371 0.46193 0.0
C699 C 0.41842 0.48764 0.40513 0.0
C700 C 0.4227 0.47277 0.37274 0.0
C701 C 0.40165 0.4976 0.39833 0.0
C702 C 0.39659 0.51342 0.43174 0.0
C703 C 0.40833 0.52896 0.4355 0.0
C704 C 0.40395 0.54338 0.46901 0.0
C705 C 0.38778 0.54252 0.49862 0.0
C706 C 0.37589 0.52729 0.49451 0.0
C707 C 0.38022 0.5128 0.46112 0.0
H708 H 0.38446 0.55367 0.52467 0.0
H709 H 0.43124 0.41136 0.2125 0.0
H710 H 0.99698 0.35935 0.18537 0.0
H711 H 0.99446 0.38374 0.24946 0.0
H712 H 0.05312 0.37845 0.28155 0.0
H713 H 0.05559 0.35397 0.21729 0.0
H714 H 0.03075 0.37414 0.36865 0.0
H715 H 0.03759 0.41764 0.23075 0.0
H716 H 0.03008 0.42933 0.14495 0.0
H717 H 0.97321 0.43797 0.19031 0.0
H718 H 0.98034 0.42608 0.27621 0.0
H719 H 0.03159 0.44902 0.54717 0.0
H720 H 0.03658 0.42539 0.48215 0.0
H721 H 0.98164 0.43618 0.42207 0.0
H722 H 0.97741 0.46103 0.48432 0.0
H723 H 0.0042 0.43729 0.34943 0.0
H724 H 0.99638 0.39382 0.48709 0.0
H725 H 0.00304 0.38187 0.57315 0.0
H726 H 0.06006 0.37234 0.53091 0.0
H727 H 0.05381 0.38447 0.44474 0.0
C728 C 0.00955 0.36428 0.20361 0.0
C729 C 0.02651 0.35502 0.19584 0.0
C730 C 0.00805 0.3779 0.24116 0.0
C731 C 0.02355 0.38264 0.27093 0.0
C732 C 0.04095 0.37483 0.25941 0.0
C733 C 0.04246 0.36125 0.22166 0.0
C734 C 0.02122 0.39497 0.31569 0.0
C735 C 0.02518 0.38806 0.36463 0.0
C736 C 0.01356 0.41288 0.31047 0.0
C737 C 0.00948 0.42092 0.25976 0.0
C738 C 0.02348 0.42204 0.22238 0.0
C739 C 0.01929 0.42867 0.17373 0.0
C740 C 0.00118 0.43437 0.16217 0.0
C741 C 0.98724 0.43356 0.19934 0.0
C742 C 0.99135 0.42692 0.24804 0.0
C743 C 0.02046 0.44606 0.52064 0.0
C744 C 0.0042 0.45692 0.52012 0.0
C745 C 0.02327 0.43245 0.48361 0.0
C746 C 0.00948 0.4289 0.447 0.0
C747 C 0.99259 0.43879 0.4494 0.0
C748 C 0.9901 0.45288 0.4851 0.0
C749 C 0.01328 0.41646 0.40307 0.0
C750 C 0.00971 0.42337 0.354 0.0
C751 C 0.0211 0.39849 0.40855 0.0
C752 C 0.02464 0.39017 0.45946 0.0
C753 C 0.01034 0.38918 0.49612 0.0
C754 C 0.01405 0.3824 0.54496 0.0
C755 C 0.03197 0.37639 0.55752 0.0
C756 C 0.04619 0.377 0.52112 0.0
C757 C 0.04256 0.38379 0.47222 0.0
H758 H 0.03484 0.37123 0.59542 0.0
H759 H 0.99794 0.43943 0.1244 0.0
H760 H 0.86834 0.9888 0.02463 0.0
H761 H 0.89614 0.98802 0.97003 0.0
H762 H 0.86636 0.95344 0.86317 0.0
H763 H 0.84085 0.9513 0.92192 0.0
H764 H 0.89522 0.94735 0.83781 0.0
H765 H 0.87244 0.00973 0.86984 0.0
H766 H 0.86494 0.03792 0.91915 0.0
H767 H 0.92193 0.04197 0.96698 0.0
H768 H 0.92971 0.01374 0.91835 0.0
H769 H 0.94033 0.99366 0.6195 0.0
H770 H 0.91713 0.98448 0.68418 0.0
H771 H 0.96008 0.98407 0.79863 0.0
H772 H 0.98312 0.99303 0.73436 0.0
H773 H 0.92634 0.00807 0.81657 0.0
H774 H 0.94397 0.94254 0.77059 0.0
H775 H 0.94757 0.91988 0.70055 0.0
H776 H 0.89079 0.92929 0.6561 0.0
H777 H 0.88709 0.95216 0.72531 0.0
C778 C 0.86836 0.98019 0.99089 0.0
C779 C 0.85235 0.97034 0.97708 0.0
C780 C 0.884 0.98029 0.95838 0.0
C781 C 0.88325 0.97175 0.90989 0.0
C782 C 0.86782 0.96042 0.89935 0.0
C783 C 0.85299 0.95919 0.93329 0.0
C784 C 0.89755 0.97519 0.86877 0.0
C785 C 0.90151 0.96089 0.83346 0.0
C786 C 0.90635 0.99269 0.86122 0.0
C787 C 0.90158 0.00948 0.89111 0.0
C788 C 0.88332 0.01657 0.89118 0.0
C789 C 0.87903 0.03256 0.91895 0.0
C790 C 0.89293 0.04168 0.94635 0.0
C791 C 0.91116 0.03486 0.94591 0.0
C792 C 0.91552 0.01887 0.91827 0.0
C793 C 0.94482 0.9909 0.65811 0.0
C794 C 0.96347 0.99364 0.67208 0.0
C795 C 0.9316 0.98587 0.69502 0.0
C796 C 0.93694 0.98375 0.74618 0.0
C797 C 0.95571 0.98573 0.75944 0.0
C798 C 0.96885 0.99063 0.72272 0.0
C799 C 0.92299 0.98057 0.78689 0.0
C800 C 0.91942 0.99483 0.82172 0.0
C801 C 0.91347 0.96366 0.79183 0.0
C802 C 0.91533 0.94901 0.7528 0.0
C803 C 0.93234 0.93973 0.74569 0.0
C804 C 0.93438 0.92689 0.70619 0.0
C805 C 0.91942 0.92316 0.67385 0.0
C806 C 0.90236 0.93217 0.68118 0.0
C807 C 0.90028 0.94503 0.72058 0.0
H808 H 0.92104 0.91329 0.64316 0.0
H809 H 0.88959 0.05405 0.9678 0.0
H810 H 0.50259 0.86667 0.02534 0.0
H811 H 0.50049 0.89097 0.96007 0.0
H812 H 0.54977 0.86891 0.8871 0.0
H813 H 0.55283 0.84619 0.95477 0.0
H814 H 0.5498 0.90081 0.86266 0.0
H815 H 0.49901 0.85679 0.85299 0.0
H816 H 0.47097 0.83942 0.8792 0.0
H817 H 0.44207 0.89057 0.9078 0.0
H818 H 0.46992 0.90821 0.88186 0.0
H819 H 0.52268 0.94293 0.62348 0.0
H820 H 0.52736 0.91714 0.68376 0.0
H821 H 0.49364 0.94571 0.79502 0.0
H822 H 0.48918 0.97127 0.73619 0.0
H823 H 0.48654 0.90759 0.78958 0.0
H824 H 0.53906 0.9506 0.79082 0.0
H825 H 0.56503 0.96561 0.74587 0.0
H826 H 0.59106 0.91264 0.72217 0.0
H827 H 0.56462 0.89716 0.76475 0.0
C828 C 0.51346 0.86773 0.99683 0.0
C829 C 0.5278 0.85451 0.99491 0.0
C830 C 0.51199 0.88125 0.95851 0.0
C831 C 0.52438 0.88124 0.91666 0.0
C832 C 0.53979 0.86924 0.91808 0.0
C833 C 0.54163 0.85626 0.95716 0.0
C834 C 0.52089 0.8928 0.87019 0.0
C835 C 0.53595 0.90199 0.84659 0.0
C836 C 0.50295 0.89441 0.84793 0.0
C837 C 0.48659 0.88378 0.86607 0.0
C838 C 0.48673 0.8643 0.86541 0.0
C839 C 0.47085 0.85442 0.88001 0.0
C840 C 0.45477 0.86388 0.89528 0.0
C841 C 0.45453 0.88325 0.89605 0.0
C842 C 0.47034 0.89319 0.88135 0.0
C843 C 0.51605 0.9435 0.66052 0.0
C844 C 0.50567 0.95919 0.67526 0.0
C845 C 0.51875 0.92881 0.69485 0.0
C846 C 0.51094 0.92963 0.74395 0.0
C847 C 0.49977 0.9448 0.75736 0.0
C848 C 0.4973 0.95946 0.72364 0.0
C849 C 0.51522 0.91567 0.78367 0.0
C850 C 0.50036 0.90604 0.80573 0.0
C851 C 0.53336 0.9133 0.80349 0.0
C852 C 0.54972 0.92269 0.78041 0.0
C853 C 0.55021 0.94211 0.7756 0.0
C854 C 0.56499 0.9507 0.75029 0.0
C855 C 0.57973 0.94011 0.73112 0.0
C856 C 0.57963 0.92084 0.73699 0.0
C857 C 0.56468 0.91213 0.76144 0.0
H858 H 0.59123 0.94682 0.71185 0.0
H859 H 0.44247 0.85621 0.90639 0.0
H860 H 0.66494 0.55996 0.93735 0.0
H861 H 0.64273 0.55465 0.87063 0.0
H862 H 0.6142 0.51477 0.96576 0.0
H863 H 0.63894 0.51776 0.02952 0.0
H864 H 0.6171 0.50008 0.88333 0.0
H865 H 0.599 0.56491 0.91716 0.0
H866 H 0.60481 0.59852 0.92487 0.0
H867 H 0.62581 0.59999 0.77175 0.0
H868 H 0.62044 0.56639 0.7634 0.0
H869 H 0.53345 0.494 0.74869 0.0
H870 H 0.55885 0.50058 0.80696 0.0
H871 H 0.59058 0.52483 0.68421 0.0
H872 H 0.56497 0.51842 0.6252 0.0
H873 H 0.58873 0.54712 0.76951 0.0
H874 H 0.60487 0.48515 0.73054 0.0
H875 H 0.59774 0.45223 0.71514 0.0
H876 H 0.58056 0.44588 0.87082 0.0
H877 H 0.58728 0.47887 0.88701 0.0
C878 C 0.65362 0.55039 0.94473 0.0
C879 C 0.65389 0.53901 0.98832 0.0
C880 C 0.64065 0.54749 0.90636 0.0
C881 C 0.62635 0.53444 0.91257 0.0
C882 C 0.62518 0.52479 0.95933 0.0
C883 C 0.63904 0.5268 0.99656 0.0
C884 C 0.61397 0.52947 0.86889 0.0
C885 C 0.61064 0.51051 0.85941 0.0
C886 C 0.60641 0.54283 0.83464 0.0
C887 C 0.60943 0.56309 0.83987 0.0
C888 C 0.60493 0.57239 0.88525 0.0
C889 C 0.60817 0.59144 0.88972 0.0
C890 C 0.61571 0.60137 0.84887 0.0
C891 C 0.62 0.59229 0.8034 0.0
C892 C 0.61686 0.57325 0.79879 0.0
C893 C 0.54588 0.50056 0.73381 0.0
C894 C 0.54715 0.50579 0.68239 0.0
C895 C 0.56043 0.50424 0.76717 0.0
C896 C 0.57659 0.51311 0.74981 0.0
C897 C 0.57817 0.51796 0.69824 0.0
C898 C 0.56359 0.51421 0.66462 0.0
C899 C 0.59124 0.51812 0.78675 0.0
C900 C 0.5952 0.53689 0.79416 0.0
C901 C 0.5995 0.50469 0.81866 0.0
C902 C 0.59652 0.48454 0.80997 0.0
C903 C 0.59956 0.47675 0.76153 0.0
C904 C 0.59557 0.45807 0.75262 0.0
C905 C 0.58868 0.44697 0.79196 0.0
C906 C 0.58591 0.4545 0.84039 0.0
C907 C 0.58985 0.47318 0.8495 0.0
H908 H 0.5855 0.43254 0.78493 0.0
H909 H 0.61819 0.61611 0.85242 0.0
H910 H 0.01334 0.64421 0.02039 0.0
H911 H 0.01805 0.61886 0.95973 0.0
H912 H 0.96434 0.63108 0.89327 0.0
H913 H 0.95873 0.65398 0.95837 0.0
H914 H 0.96888 0.60105 0.86847 0.0
H915 H 0.01548 0.65041 0.85192 0.0
H916 H 0.04214 0.67001 0.8766 0.0
H917 H 0.07503 0.62135 0.90586 0.0
H918 H 0.04859 0.60151 0.88127 0.0
H919 H 0.99582 0.56611 0.62183 0.0
H920 H 0.99531 0.59246 0.681 0.0
H921 H 0.02105 0.55859 0.79643 0.0
H922 H 0.02247 0.53263 0.73736 0.0
H923 H 0.0314 0.60109 0.78775 0.0
H924 H 0.97064 0.55998 0.84357 0.0
H925 H 0.94715 0.5403 0.80264 0.0
H926 H 0.94394 0.57848 0.67707 0.0
H927 H 0.96573 0.59934 0.72054 0.0
C928 C 0.00209 0.64046 0.99502 0.0
C929 C 0.98572 0.65109 0.99379 0.0
C930 C 0.00508 0.6265 0.95872 0.0
C931 C 0.99218 0.62375 0.91901 0.0
C932 C 0.97483 0.63282 0.92238 0.0
C933 C 0.97144 0.64587 0.96035 0.0
C934 C 0.99674 0.6124 0.87274 0.0
C935 C 0.98251 0.60172 0.85071 0.0
C936 C 0.01452 0.6126 0.84837 0.0
C937 C 0.03004 0.62452 0.86531 0.0
C938 C 0.02836 0.64393 0.86404 0.0
C939 C 0.04344 0.65507 0.87784 0.0
C940 C 0.06025 0.64693 0.8929 0.0
C941 C 0.06201 0.62764 0.89424 0.0
C942 C 0.04701 0.61645 0.8803 0.0
C943 C 0.00173 0.56442 0.65944 0.0
C944 C 0.00876 0.54713 0.67531 0.0
C945 C 0.00138 0.57946 0.69325 0.0
C946 C 0.00771 0.57728 0.7435 0.0
C947 C 0.01596 0.5605 0.75798 0.0
C948 C 0.01655 0.54561 0.72424 0.0
C949 C 0.00335 0.59107 0.78363 0.0
C950 C 0.01767 0.60152 0.80512 0.0
C951 C 0.9855 0.59165 0.80598 0.0
C952 C 0.97007 0.58086 0.78444 0.0
C953 C 0.96452 0.56431 0.80782 0.0
C954 C 0.95142 0.55299 0.78422 0.0
C955 C 0.94432 0.55783 0.73653 0.0
C956 C 0.94939 0.57462 0.7139 0.0
C957 C 0.96187 0.58637 0.73843 0.0
H958 H 0.93496 0.54857 0.71708 0.0
H959 H 0.07192 0.65558 0.90342 0.0
H960 H 0.00565 0.20903 0.33821 0.0
H961 H 0.99382 0.18099 0.3778 0.0
H962 H 0.04993 0.15954 0.38878 0.0
H963 H 0.06164 0.18724 0.34547 0.0
H964 H 0.02922 0.1385 0.33004 0.0
H965 H 0.02031 0.17003 0.49125 0.0
H966 H 0.00782 0.19432 0.54772 0.0
H967 H 0.95201 0.17791 0.51104 0.0
H968 H 0.96416 0.1537 0.4536 0.0
H969 H 0.03685 0.06975 0.49544 0.0
H970 H 0.034 0.09569 0.43849 0.0
H971 H 0.97399 0.09096 0.44181 0.0
H972 H 0.97674 0.06522 0.50219 0.0
H973 H 0.98587 0.12414 0.47182 0.0
H974 H 0.99625 0.08838 0.32312 0.0
H975 H 0.01042 0.06065 0.28407 0.0
H976 H 0.06494 0.08295 0.30975 0.0
H977 H 0.05117 0.11086 0.34838 0.0
C978 C 0.01553 0.19874 0.35165 0.0
C979 C 0.03443 0.19991 0.33864 0.0
C980 C 0.00875 0.1827 0.37399 0.0
C981 C 0.02101 0.16815 0.38509 0.0
C982 C 0.0403 0.17062 0.37946 0.0
C983 C 0.04702 0.18645 0.35559 0.0
C984 C 0.01367 0.14952 0.39394 0.0
C985 C 0.01975 0.13535 0.36111 0.0
C986 C 0.0004 0.14574 0.43232 0.0
C987 C 0.99316 0.16022 0.46742 0.0
C988 C 0.00537 0.17173 0.4947 0.0
C989 C 0.99835 0.18546 0.52702 0.0
C990 C 0.97913 0.18772 0.53278 0.0
C991 C 0.9669 0.17618 0.50645 0.0
C992 C 0.97385 0.16244 0.47402 0.0
C993 C 0.02304 0.0739 0.48327 0.0
C994 C 0.00701 0.06594 0.50401 0.0
C995 C 0.02141 0.08853 0.44984 0.0
C996 C 0.00376 0.09495 0.43528 0.0
C997 C 0.98768 0.08598 0.45249 0.0
C998 C 0.9893 0.07143 0.48694 0.0
C999 C 0.00268 0.11309 0.41086 0.0
C1000 C 0.99477 0.12744 0.43963 0.0
C1001 C 0.01433 0.11706 0.36906 0.0
C1002 C 0.02262 0.10185 0.33816 0.0
C1003 C 0.01126 0.08755 0.31942 0.0
C1004 C 0.01923 0.07175 0.29756 0.0
C1005 C 0.03856 0.07006 0.29425 0.0
C1006 C 0.04997 0.08435 0.31174 0.0
C1007 C 0.04208 0.10027 0.33321 0.0
H1008 H 0.04465 0.0576 0.2785 0.0
H1009 H 0.97372 0.19838 0.55775 0.0
H1010 H 0.30259 0.04553 0.41106 0.0
H1011 H 0.32901 0.03231 0.45755 0.0
H1012 H 0.35749 0.02222 0.31523 0.0
H1013 H 0.3309 0.03317 0.26904 0.0
H1014 H 0.36142 0.99401 0.36937 0.0
H1015 H 0.36575 0.05926 0.39405 0.0
H1016 H 0.35428 0.08998 0.4206 0.0
H1017 H 0.35305 0.07199 0.57641 0.0
H1018 H 0.36448 0.04116 0.55068 0.0
H1019 H 0.45825 0.00717 0.43016 0.0
H1020 H 0.42618 0.00869 0.39899 0.0
H1021 H 0.40598 0.98995 0.54492 0.0
H1022 H 0.43784 0.98786 0.57606 0.0
H1023 H 0.3951 0.02879 0.50316 0.0
H1024 H 0.39636 0.96226 0.46179 0.0
H1025 H 0.41114 0.93528 0.42025 0.0
H1026 H 0.40847 0.96298 0.27566 0.0
H1027 H 0.3938 0.99015 0.31638 0.0
C1028 C 0.31443 0.04036 0.38976 0.0
C1029 C 0.31462 0.04077 0.33619 0.0
C1030 C 0.32954 0.03292 0.41637 0.0
C1031 C 0.34518 0.0263 0.38974 0.0
C1032 C 0.34551 0.02711 0.33658 0.0
C1033 C 0.33035 0.03393 0.31015 0.0
C1034 C 0.36155 0.01864 0.41615 0.0
C1035 C 0.36871 0.00163 0.3988 0.0
C1036 C 0.37109 0.02864 0.45433 0.0
C1037 C 0.36529 0.04759 0.47024 0.0
C1038 C 0.36284 0.06176 0.43393 0.0
C1039 C 0.35642 0.07925 0.44883 0.0
C1040 C 0.35272 0.08287 0.50009 0.0
C1041 C 0.35573 0.06911 0.53663 0.0
C1042 C 0.36215 0.0516 0.52188 0.0
C1043 C 0.44702 0.00269 0.45488 0.0
C1044 C 0.45049 -0.00243 0.5055 0.0
C1045 C 0.42878 0.00363 0.43718 0.0
C1046 C 0.41394 -0.00037 0.47014 0.0
C1047 C 0.41739 0.99309 0.51929 0.0
C1048 C 0.43561 0.9918 0.53672 0.0
C1049 C 0.39497 0.00458 0.45517 0.0
C1050 C 0.3874 0.02105 0.47477 0.0
C1051 C 0.38565 0.99478 0.4167 0.0
C1052 C 0.39399 0.97821 0.39215 0.0
C1053 C 0.39896 0.96259 0.42117 0.0
C1054 C 0.40731 0.94727 0.39775 0.0
C1055 C 0.41074 0.94741 0.34536 0.0
C1056 C 0.40577 0.96286 0.31621 0.0
C1057 C 0.39739 0.97819 0.33941 0.0
H1058 H 0.41725 0.93556 0.32734 0.0
H1059 H 0.34766 0.09639 0.51154 0.0
H1060 H 0.49271 0.2985 0.40329 0.0
H1061 H 0.50107 0.32714 0.44798 0.0
H1062 H 0.46574 0.35854 0.34704 0.0
H1063 H 0.45632 0.33001 0.3046 0.0
H1064 H 0.51276 0.36388 0.3623 0.0
H1065 H 0.44843 0.36825 0.42513 0.0
H1066 H 0.42103 0.35352 0.46476 0.0
H1067 H 0.45322 0.34099 0.59807 0.0
H1068 H 0.48098 0.35524 0.55842 0.0
H1069 H 0.49467 0.45758 0.44399 0.0
H1070 H 0.49769 0.42679 0.40555 0.0
H1071 H 0.52318 0.40631 0.5432 0.0
H1072 H 0.52097 0.43723 0.58073 0.0
H1073 H 0.48459 0.39358 0.51453 0.0
H1074 H 0.54737 0.39839 0.45217 0.0
H1075 H 0.57302 0.41388 0.40648 0.0
H1076 H 0.54195 0.41135 0.26724 0.0
H1077 H 0.51599 0.39601 0.31226 0.0
C1078 C 0.48609 0.31139 0.39222 0.0
C1079 C 0.47412 0.31215 0.35007 0.0
C1080 C 0.49107 0.3277 0.41718 0.0
C1081 C 0.48422 0.34476 0.39985 0.0
C1082 C 0.47119 0.3454 0.36048 0.0
C1083 C 0.46584 0.32913 0.33647 0.0
C1084 C 0.49157 0.36208 0.42041 0.0
C1085 C 0.50671 0.37044 0.39563 0.0
C1086 C 0.48355 0.37035 0.46368 0.0
C1087 C 0.46682 0.36245 0.48849 0.0
C1088 C 0.44971 0.36214 0.46263 0.0
C1089 C 0.43412 0.35392 0.4851 0.0
C1090 C 0.43542 0.34621 0.53379 0.0
C1091 C 0.45228 0.34687 0.56023 0.0
C1092 C 0.46795 0.355 0.53776 0.0
C1093 C 0.50189 0.44672 0.46465 0.0
C1094 C 0.50761 0.44953 0.51491 0.0
C1095 C 0.50357 0.42921 0.44289 0.0
C1096 C 0.51051 0.41444 0.47198 0.0
C1097 C 0.51794 0.41769 0.52033 0.0
C1098 C 0.51675 0.43532 0.54153 0.0
C1099 C 0.50595 0.39549 0.45668 0.0
C1100 C 0.49107 0.38685 0.48204 0.0
C1101 C 0.51398 0.38725 0.41322 0.0
C1102 C 0.52969 0.39612 0.38567 0.0
C1103 C 0.54596 0.40122 0.41186 0.0
C1104 C 0.56056 0.40995 0.38607 0.0
C1105 C 0.55911 0.41362 0.334 0.0
C1106 C 0.54306 0.40848 0.30758 0.0
C1107 C 0.52841 0.39972 0.33319 0.0
H1108 H 0.57042 0.42041 0.31412 0.0
H1109 H 0.42334 0.33981 0.55111 0.0
H1110 H 0.20778 0.4838 0.37466 0.0
H1111 H 0.18174 0.49077 0.43141 0.0
H1112 H 0.14631 0.45487 0.34344 0.0
H1113 H 0.17251 0.44683 0.28865 0.0
H1114 H 0.14788 0.50543 0.36109 0.0
H1115 H 0.12948 0.43995 0.41208 0.0
H1116 H 0.14185 0.40997 0.44253 0.0
H1117 H 0.16687 0.4372 0.57049 0.0
H1118 H 0.15502 0.46742 0.53984 0.0
H1119 H 0.05082 0.50032 0.42827 0.0
H1120 H 0.08252 0.49836 0.3944 0.0
H1121 H 0.10429 0.5161 0.53921 0.0
H1122 H 0.07265 0.51893 0.57243 0.0
H1123 H 0.11186 0.47649 0.50164 0.0
H1124 H 0.117 0.54131 0.45612 0.0
H1125 H 0.10558 0.57005 0.41586 0.0
H1126 H 0.10557 0.54327 0.26997 0.0
H1127 H 0.11679 0.51428 0.30949 0.0
C1128 C 0.19477 0.4765 0.36932 0.0
C1129 C 0.19192 0.46518 0.32659 0.0
C1130 C 0.1799 0.48063 0.40143 0.0
C1131 C 0.16226 0.47344 0.39091 0.0
C1132 C 0.15995 0.46034 0.35226 0.0
C1133 C 0.17488 0.45589 0.32086 0.0
C1134 C 0.14584 0.48232 0.41298 0.0
C1135 C 0.14 0.49925 0.39205 0.0
C1136 C 0.13577 0.47403 0.45279 0.0
C1137 C 0.14145 0.45585 0.4737 0.0
C1138 C 0.13761 0.4395 0.44674 0.0
C1139 C 0.14457 0.42249 0.46389 0.0
C1140 C 0.15516 0.42168 0.5084 0.0
C1141 C 0.15868 0.43786 0.536 0.0
C1142 C 0.15187 0.45492 0.51873 0.0
C1143 C 0.06233 0.50482 0.45178 0.0
C1144 C 0.05946 0.50949 0.50297 0.0
C1145 C 0.08036 0.50357 0.43266 0.0
C1146 C 0.09552 0.50673 0.46493 0.0
C1147 C 0.09262 0.51354 0.51414 0.0
C1148 C 0.07456 0.51529 0.53283 0.0
C1149 C 0.11388 0.49981 0.45004 0.0
C1150 C 0.11997 0.48302 0.47169 0.0
C1151 C 0.12395 0.50808 0.40999 0.0
C1152 C 0.11766 0.52561 0.38582 0.0
C1153 C 0.11448 0.54153 0.41549 0.0
C1154 C 0.10806 0.55787 0.3928 0.0
C1155 C 0.10483 0.55848 0.3404 0.0
C1156 C 0.10809 0.54278 0.31055 0.0
C1157 C 0.11453 0.5264 0.33306 0.0
H1158 H 0.09982 0.57114 0.32292 0.0
H1159 H 0.16062 0.40852 0.52152 0.0
H1160 H 0.94934 0.8222 0.85809 0.0
H1161 H 0.96028 0.84844 0.80801 0.0
H1162 H 0.0145 0.82285 0.79402 0.0
H1163 H 0.00354 0.7965 0.84474 0.0
H1164 H 0.01485 0.85708 0.84334 0.0
H1165 H 0.99225 0.83244 0.68727 0.0
H1166 H 0.96938 0.81576 0.63471 0.0
H1167 H 0.92898 0.85864 0.66178 0.0
H1168 H 0.95151 0.87548 0.71501 0.0
H1169 H 0.03062 0.9398 0.68663 0.0
H1170 H 0.03204 0.91107 0.73528 0.0
H1171 H 0.97506 0.91904 0.78341 0.0
H1172 H 0.97358 0.94782 0.73483 0.0
H1173 H 0.98315 0.89115 0.70406 0.0
H1174 H 0.00279 0.91275 0.86918 0.0
H1175 H 0.02442 0.93064 0.92254 0.0
H1176 H 0.06934 0.89449 0.87928 0.0
H1177 H 0.04801 0.87659 0.82464 0.0
C1178 C 0.96329 0.82183 0.84224 0.0
C1179 C 0.97569 0.80763 0.85518 0.0
C1180 C 0.96956 0.83675 0.81377 0.0
C1181 C 0.98821 0.83747 0.79785 0.0
C1182 C 8e-05 0.82238 0.80623 0.0
C1183 C 0.99376 0.80736 0.8346 0.0
C1184 C 0.9956 0.85523 0.78027 0.0
C1185 C 0.00838 0.86444 0.81194 0.0
C1186 C 0.98687 0.86469 0.73989 0.0
C1187 C 0.97362 0.85523 0.70519 0.0
C1188 C 0.9785 0.83834 0.68195 0.0
C1189 C 0.96558 0.82883 0.65209 0.0
C1190 C 0.94773 0.83613 0.64493 0.0
C1191 C 0.94282 0.85302 0.66727 0.0
C1192 C 0.95569 0.86259 0.69715 0.0
C1193 C 0.01871 0.93589 0.7096 0.0
C1194 C 0.0016 0.94521 0.70523 0.0
C1195 C 0.0196 0.91957 0.73749 0.0
C1196 C 0.00346 0.91293 0.76108 0.0
C1197 C 0.98751 0.92404 0.76446 0.0
C1198 C 0.98662 0.94031 0.73657 0.0
C1199 C 0.00149 0.89308 0.76878 0.0
C1200 C 0.98997 0.88362 0.73461 0.0
C1201 C 0.01129 0.88351 0.80685 0.0
C1202 C 0.02383 0.89339 0.84249 0.0
C1203 C 0.01729 0.90862 0.87091 0.0
C1204 C 0.0295 0.91879 0.90134 0.0
C1205 C 0.04826 0.91373 0.90421 0.0
C1206 C 0.0548 0.8984 0.87697 0.0
C1207 C 0.04265 0.88822 0.84629 0.0
H1208 H 0.05771 0.92167 0.9276 0.0
H1209 H 0.93771 0.82868 0.62209 0.0
H1210 H 0.68345 0.93848 0.84211 0.0
H1211 H 0.65695 0.95294 0.79794 0.0
H1212 H 0.68026 0.00707 0.82545 0.0
H1213 H 0.70678 0.99277 0.86859 0.0
H1214 H 0.63614 0.98601 0.86435 0.0
H1215 H 0.67204 0.0229 0.7136 0.0
H1216 H 0.69996 0.01973 0.65901 0.0
H1217 H 0.68791 0.962 0.63675 0.0
H1218 H 0.66016 0.96484 0.69198 0.0
H1219 H 0.55683 0.03015 0.74245 0.0
H1220 H 0.58768 0.02715 0.78253 0.0
H1221 H 0.601 0.982 0.68106 0.0
H1222 H 0.57105 0.98492 0.64107 0.0
H1223 H 0.62922 0.00615 0.68467 0.0
H1224 H 0.59029 0.97067 0.8085 0.0
H1225 H 0.56372 0.96793 0.86817 0.0
H1226 H 0.58262 0.01622 0.9483 0.0
H1227 H 0.60903 0.01927 0.88832 0.0
C1228 C 0.68318 0.95337 0.83671 0.0
C1229 C 0.69703 0.96459 0.8578 0.0
C1230 C 0.66808 0.96158 0.81231 0.0
C1231 C 0.6668 0.98095 0.80966 0.0
C1232 C 0.68124 0.99209 0.82744 0.0
C1233 C 0.6964 0.98391 0.85127 0.0
C1234 C 0.64966 0.98956 0.79176 0.0
C1235 C 0.63459 0.99077 0.82537 0.0
C1236 C 0.648 0.99566 0.74132 0.0
C1237 C 0.66392 0.99418 0.70586 0.0
C1238 C 0.67527 0.00962 0.69647 0.0
C1239 C 0.69112 0.00784 0.66579 0.0
C1240 C 0.69565 0.9907 0.64417 0.0
C1241 C 0.68438 0.97528 0.6534 0.0
C1242 C 0.66864 0.97694 0.68449 0.0
C1243 C 0.56641 0.01962 0.72895 0.0
C1244 C 0.56156 0.00792 0.68842 0.0
C1245 C 0.58395 0.01794 0.75169 0.0
C1246 C 0.59665 0.00455 0.73401 0.0
C1247 C 0.59159 0.9927 0.69441 0.0
C1248 C 0.5743 0.99435 0.67186 0.0
C1249 C 0.61517 0.00206 0.75677 0.0
C1250 C 0.63077 0.0021 0.7242 0.0
C1251 C 0.61722 0.9968 0.80825 0.0
C1252 C 0.60123 0.99539 0.84344 0.0
C1253 C 0.58847 0.98083 0.83834 0.0
C1254 C 0.57354 0.97918 0.87229 0.0
C1255 C 0.57141 0.99197 0.91183 0.0
C1256 C 0.58422 0.00639 0.91749 0.0
C1257 C 0.59915 0.00809 0.8835 0.0
H1258 H 0.55989 0.99065 0.93823 0.0
H1259 H 0.70793 0.98935 0.62047 0.0
H1260 H 0.55315 0.68373 0.88067 0.0
H1261 H 0.54626 0.65429 0.84047 0.0
H1262 H 0.50005 0.67939 0.76082 0.0
H1263 H 0.50619 0.70881 0.8043 0.0
H1264 H 0.48911 0.64943 0.81008 0.0
H1265 H 0.54017 0.66317 0.69796 0.0
H1266 H 0.57208 0.67384 0.67933 0.0
H1267 H 0.59451 0.62849 0.76594 0.0
H1268 H 0.56275 0.6177 0.78575 0.0
H1269 H 0.48075 0.56816 0.65127 0.0
H1270 H 0.47988 0.59751 0.69766 0.0
H1271 H 0.52408 0.57808 0.79541 0.0
H1272 H 0.52535 0.54901 0.74803 0.0
H1273 H 0.53446 0.60603 0.73175 0.0
H1274 H 0.48398 0.59213 0.84443 0.0
H1275 H 0.45235 0.58197 0.86773 0.0
H1276 H 0.42893 0.62725 0.78289 0.0
H1277 H 0.46042 0.63746 0.75804 0.0
C1278 C 0.54182 0.68308 0.85356 0.0
C1279 C 0.53 0.69835 0.84607 0.0
C1280 C 0.53794 0.66628 0.83036 0.0
C1281 C 0.52263 0.66467 0.79764 0.0
C1282 C 0.51186 0.68039 0.78623 0.0
C1283 C 0.51553 0.69721 0.8104 0.0
C1284 C 0.51693 0.64616 0.77998 0.0
C1285 C 0.49886 0.64001 0.79188 0.0
C1286 C 0.52989 0.63381 0.75779 0.0
C1287 C 0.54904 0.63967 0.74347 0.0
C1288 C 0.55191 0.65547 0.71302 0.0
C1289 C 0.56997 0.66155 0.70233 0.0
C1290 C 0.58531 0.65187 0.7215 0.0
C1291 C 0.58261 0.63598 0.75109 0.0
C1292 C 0.56458 0.62984 0.76195 0.0
C1293 C 0.48953 0.56982 0.68443 0.0
C1294 C 0.50334 0.55671 0.69592 0.0
C1295 C 0.48904 0.58657 0.71086 0.0
C1296 C 0.50217 0.58997 0.74917 0.0
C1297 C 0.51399 0.57567 0.76554 0.0
C1298 C 0.51469 0.55911 0.73866 0.0
C1299 C 0.50676 0.60917 0.76274 0.0
C1300 C 0.52462 0.61546 0.7496 0.0
C1301 C 0.49359 0.62155 0.78371 0.0
C1302 C 0.47461 0.61545 0.79882 0.0
C1303 C 0.4721 0.59982 0.8302 0.0
C1304 C 0.45418 0.59406 0.84378 0.0
C1305 C 0.43864 0.60392 0.82667 0.0
C1306 C 0.44099 0.61959 0.79603 0.0
C1307 C 0.45887 0.62537 0.78217 0.0
H1308 H 0.42478 0.59945 0.83725 0.0
H1309 H 0.59928 0.65666 0.7134 0.0
H1310 H 0.79533 0.51506 0.8056 0.0
H1311 H 0.82328 0.50381 0.76174 0.0
H1312 H 0.85549 0.54719 0.8325 0.0
H1313 H 0.82754 0.55892 0.87438 0.0
H1314 H 0.86276 0.54353 0.7353 0.0
H1315 H 0.85462 0.50168 0.88028 0.0
H1316 H 0.83755 0.47823 0.9304 0.0
H1317 H 0.83643 0.44203 0.80078 0.0
H1318 H 0.85339 0.46532 0.74986 0.0
H1319 H 0.95621 0.51608 0.74871 0.0
H1320 H 0.92436 0.5165 0.78387 0.0
H1321 H 0.90461 0.4876 0.65113 0.0
H1322 H 0.9362 0.48747 0.61594 0.0
H1323 H 0.88848 0.4807 0.76728 0.0
H1324 H 0.89977 0.52365 0.6263 0.0
H1325 H 0.91262 0.54942 0.57569 0.0
H1326 H 0.90465 0.5865 0.70159 0.0
H1327 H 0.89286 0.56075 0.754 0.0
C1328 C 0.80827 0.52259 0.81 0.0
C1329 C 0.80947 0.53784 0.84299 0.0
C1330 C 0.82421 0.51588 0.78609 0.0
C1331 C 0.84136 0.52436 0.79536 0.0
C1332 C 0.8423 0.54035 0.8256 0.0
C1333 C 0.8264 0.54717 0.84889 0.0
C1334 C 0.85846 0.51733 0.77208 0.0
C1335 C 0.86855 0.52987 0.74269 0.0
C1336 C 0.86533 0.4992 0.78036 0.0
C1337 C 0.85508 0.48531 0.81112 0.0
C1338 C 0.8506 0.48878 0.86238 0.0
C1339 C 0.84099 0.4755 0.89097 0.0
C1340 C 0.83586 0.45867 0.86875 0.0
C1341 C 0.84039 0.45507 0.81795 0.0
C1342 C 0.85002 0.46829 0.78924 0.0
C1343 C 0.94504 0.50945 0.72813 0.0
C1344 C 0.9482 0.50243 0.67938 0.0
C1345 C 0.92705 0.50967 0.74789 0.0
C1346 C 0.91235 0.50271 0.71884 0.0
C1347 C 0.91593 0.49327 0.67339 0.0
C1348 C 0.93393 0.49312 0.65358 0.0
C1349 C 0.89327 0.50742 0.73299 0.0
C1350 C 0.88273 0.49438 0.76004 0.0
C1351 C 0.88603 0.52537 0.72362 0.0
C1352 C 0.89594 0.54003 0.69461 0.0
C1353 C 0.90153 0.53706 0.64398 0.0
C1354 C 0.90849 0.55173 0.61482 0.0
C1355 C 0.90956 0.56953 0.63552 0.0
C1356 C 0.90386 0.57269 0.68561 0.0
C1357 C 0.89727 0.55802 0.71523 0.0
H1358 H 0.91472 0.58091 0.61265 0.0
H1359 H 0.82841 0.44841 0.89091 0.0
H1360 H 0.99588 0.20755 0.92326 0.0
H1361 H 0.99688 0.1781 0.87733 0.0
H1362 H 0.04956 0.19338 0.81056 0.0
H1363 H 0.04892 0.22277 0.85836 0.0
H1364 H 0.01722 0.17313 0.74559 0.0
H1365 H 0.05736 0.1697 0.89272 0.0
H1366 H 0.06669 0.17202 0.9827 0.0
H1367 H 0.02275 0.13479 0.02537 0.0
H1368 H 0.0128 0.13269 0.93586 0.0
H1369 H 0.03413 0.07899 0.67238 0.0
H1370 H 0.04044 0.11012 0.70546 0.0
H1371 H 0.99851 0.10233 0.82136 0.0
H1372 H 0.99202 0.07135 0.78829 0.0
H1373 H 0.0303 0.11929 0.85794 0.0
H1374 H 0.98667 0.12631 0.72034 0.0
H1375 H 0.97528 0.12246 0.63246 0.0
H1376 H 0.02338 0.15107 0.57531 0.0
H1377 H 0.03496 0.15519 0.66285 0.0
C1378 C 0.00726 0.20499 0.89697 0.0
C1379 C 0.02219 0.21751 0.8937 0.0
C1380 C 0.00797 0.18806 0.87147 0.0
C1381 C 0.02346 0.18348 0.84149 0.0
C1382 C 0.03755 0.19669 0.83394 0.0
C1383 C 0.03703 0.21357 0.86044 0.0
C1384 C 0.02514 0.16446 0.82091 0.0
C1385 C 0.02051 0.16138 0.76981 0.0
C1386 C 0.02886 0.14911 0.85313 0.0
C1387 C 0.03411 0.15133 0.90748 0.0
C1388 C 0.0494 0.16236 0.92135 0.0
C1389 C 0.05487 0.16355 0.97231 0.0
C1390 C 0.04527 0.15363 0.00976 0.0
C1391 C 0.03013 0.14255 0.99637 0.0
C1392 C 0.02454 0.14139 0.94554 0.0
C1393 C 0.02656 0.08376 0.7056 0.0
C1394 C 0.01259 0.07275 0.72783 0.0
C1395 C 0.03005 0.1016 0.72413 0.0
C1396 C 0.01979 0.10858 0.76547 0.0
C1397 C 0.00655 0.09721 0.78934 0.0
C1398 C 0.00288 0.07952 0.77045 0.0
C1399 C 0.02221 0.12797 0.7829 0.0
C1400 C 0.02742 0.13108 0.83349 0.0
C1401 C 0.0187 0.1433 0.75062 0.0
C1402 C 0.01178 0.14086 0.698 0.0
C1403 C 0.99485 0.13169 0.68896 0.0
C1404 C 0.98832 0.12954 0.63924 0.0
C1405 C 0.99858 0.13654 0.5983 0.0
C1406 C 0.01538 0.14575 0.60701 0.0
C1407 C 0.02192 0.14803 0.65667 0.0
H1408 H 0.99351 0.13484 0.55987 0.0
H1409 H 0.04962 0.15445 0.04911 0.0
H1410 H 0.30177 0.00488 0.9371 0.0
H1411 H 0.32954 0.00158 0.88356 0.0
H1412 H 0.31724 0.05385 0.81139 0.0
H1413 H 0.28975 0.0575 0.86647 0.0
H1414 H 0.33441 0.01754 0.74929 0.0
H1415 H 0.34216 0.0628 0.88447 0.0
H1416 H 0.34058 0.07439 0.97257 0.0
H1417 H 0.3753 0.02941 0.02252 0.0
H1418 H 0.37665 0.01724 0.93488 0.0
H1419 H 0.42921 0.0329 0.6638 0.0
H1420 H 0.39778 0.03926 0.69699 0.0
H1421 H 0.40671 -0.00046 0.81734 0.0
H1422 H 0.43782 0.99276 0.78351 0.0
H1423 H 0.39049 0.03277 0.85083 0.0
H1424 H 0.3845 0.98808 0.71864 0.0
H1425 H 0.38596 0.97458 0.6328 0.0
H1426 H 0.34704 0.01525 0.57882 0.0
H1427 H 0.34645 0.03001 0.66342 0.0
C1428 C 0.30439 0.01515 0.90781 0.0
C1429 C 0.29342 0.0313 0.90532 0.0
C1430 C 0.32045 0.01342 0.87788 0.0
C1431 C 0.3256 0.02763 0.84427 0.0
C1432 C 0.31352 0.04275 0.8373 0.0
C1433 C 0.29762 0.04468 0.86808 0.0
C1434 C 0.34449 0.0275 0.82105 0.0
C1435 C 0.3467 0.02125 0.77089 0.0
C1436 C 0.36049 0.03189 0.85007 0.0
C1437 C 0.35915 0.03886 0.90316 0.0
C1438 C 0.34912 0.05514 0.91435 0.0
C1439 C 0.34836 0.06188 0.9642 0.0
C1440 C 0.35774 0.05258 0.00318 0.0
C1441 C 0.36794 0.03654 0.99236 0.0
C1442 C 0.36867 0.02969 0.94261 0.0
C1443 C 0.42452 0.02572 0.69772 0.0
C1444 C 0.43596 0.01236 0.72122 0.0
C1445 C 0.40654 0.02927 0.7164 0.0
C1446 C 0.39984 0.01978 0.75945 0.0
C1447 C 0.41156 0.00699 0.78402 0.0
C1448 C 0.42932 0.00312 0.76468 0.0
C1449 C 0.38055 0.02278 0.77872 0.0
C1450 C 0.37825 0.02943 0.82853 0.0
C1451 C 0.36452 0.01864 0.74931 0.0
C1452 C 0.3658 0.01048 0.69741 0.0
C1453 C 0.37673 0.99459 0.6882 0.0
C1454 C 0.37742 0.98671 0.63964 0.0
C1455 C 0.36684 0.99425 0.60015 0.0
C1456 C 0.35555 0.00969 0.60918 0.0
C1457 C 0.35515 0.01792 0.65735 0.0
H1458 H 0.36724 0.98802 0.56269 0.0
H1459 H 0.35718 0.05786 0.04171 0.0
H1460 H 0.50997 0.28849 0.88142 0.0
H1461 H 0.51061 0.31561 0.82519 0.0
H1462 H 0.45396 0.32847 0.86808 0.0
H1463 H 0.45297 0.30066 0.92061 0.0
H1464 H 0.45794 0.34265 0.78417 0.0
H1465 H 0.49635 0.34534 0.93241 0.0
H1466 H 0.52139 0.33629 0.99161 0.0
H1467 H 0.56218 0.34506 0.87425 0.0
H1468 H 0.53735 0.35387 0.81408 0.0
H1469 H 0.46843 0.44132 0.73978 0.0
H1470 H 0.4632 0.4109 0.77985 0.0
H1471 H 0.51666 0.39221 0.72447 0.0
H1472 H 0.52214 0.42243 0.68642 0.0
H1473 H 0.5131 0.38188 0.81795 0.0
H1474 H 0.47088 0.37874 0.66996 0.0
H1475 H 0.44394 0.38909 0.61899 0.0
H1476 H 0.40835 0.38398 0.74993 0.0
H1477 H 0.43508 0.37363 0.80159 0.0
C1478 C 0.4973 0.29644 0.87607 0.0
C1479 C 0.48136 0.29233 0.90504 0.0
C1480 C 0.49782 0.31233 0.84512 0.0
C1481 C 0.48265 0.3248 0.84417 0.0
C1482 C 0.46601 0.31941 0.86834 0.0
C1483 C 0.46533 0.30327 0.89796 0.0
C1484 C 0.48447 0.34398 0.82219 0.0
C1485 C 0.47 0.3512 0.792 0.0
C1486 C 0.50002 0.35553 0.83249 0.0
C1487 C 0.51496 0.35007 0.86856 0.0
C1488 C 0.51064 0.3452 0.91911 0.0
C1489 C 0.5248 0.34013 0.95285 0.0
C1490 C 0.54336 0.34006 0.93667 0.0
C1491 C 0.5478 0.34508 0.88671 0.0
C1492 C 0.53369 0.35011 0.85276 0.0
C1493 C 0.47901 0.43068 0.73616 0.0
C1494 C 0.49573 0.4344 0.70998 0.0
C1495 C 0.47598 0.41321 0.75882 0.0
C1496 C 0.48944 0.399 0.75486 0.0
C1497 C 0.50603 0.40281 0.72846 0.0
C1498 C 0.50915 0.4202 0.70658 0.0
C1499 C 0.48685 0.38027 0.77881 0.0
C1500 C 0.50113 0.37322 0.80993 0.0
C1501 C 0.47089 0.36914 0.7707 0.0
C1502 C 0.45498 0.37559 0.73965 0.0
C1503 C 0.45732 0.37995 0.68789 0.0
C1504 C 0.44209 0.38578 0.65888 0.0
C1505 C 0.42445 0.38725 0.68125 0.0
C1506 C 0.42201 0.38286 0.73265 0.0
C1507 C 0.43718 0.37698 0.76177 0.0
H1508 H 0.41268 0.39176 0.65873 0.0
H1509 H 0.5543 0.33616 0.96287 0.0
H1510 H 0.20417 0.44993 0.93894 0.0
H1511 H 0.17497 0.45181 0.89431 0.0
H1512 H 0.19903 0.49106 0.78868 0.0
H1513 H 0.22775 0.49123 0.8394 0.0
H1514 H 0.16895 0.50397 0.81231 0.0
H1515 H 0.18178 0.43917 0.76561 0.0
H1516 H 0.18989 0.4068 0.78702 0.0
H1517 H 0.14238 0.40342 0.88619 0.0
H1518 H 0.13407 0.43576 0.86565 0.0
H1519 H 0.09252 0.50955 0.64918 0.0
H1520 H 0.12249 0.50195 0.68715 0.0
H1521 H 0.09477 0.46893 0.80152 0.0
H1522 H 0.06457 0.47568 0.76104 0.0
H1523 H 0.1255 0.45237 0.77594 0.0
H1524 H 0.11185 0.51457 0.82544 0.0
H1525 H 0.10241 0.54707 0.81128 0.0
H1526 H 0.15015 0.55552 0.7153 0.0
H1527 H 0.15977 0.523 0.72842 0.0
C1528 C 0.20349 0.45848 0.90501 0.0
C1529 C 0.21832 0.47042 0.89269 0.0
C1530 C 0.18663 0.45946 0.87892 0.0
C1531 C 0.18447 0.47131 0.83681 0.0
C1532 C 0.20008 0.48182 0.82107 0.0
C1533 C 0.21674 0.48163 0.84925 0.0
C1534 C 0.16561 0.47424 0.81308 0.0
C1535 C 0.15976 0.49255 0.80322 0.0
C1536 C 0.15277 0.4596 0.80384 0.0
C1537 C 0.15735 0.43989 0.81413 0.0
C1538 C 0.17305 0.43149 0.79185 0.0
C1539 C 0.17769 0.41317 0.80392 0.0
C1540 C 0.16667 0.40307 0.83797 0.0
C1541 C 0.15089 0.41123 0.85977 0.0
C1542 C 0.14618 0.42954 0.8478 0.0
C1543 C 0.0928 0.50061 0.68233 0.0
C1544 C 0.07621 0.49331 0.7024 0.0
C1545 C 0.10997 0.49636 0.70431 0.0
C1546 C 0.111 0.48528 0.74826 0.0
C1547 C 0.09442 0.4776 0.76784 0.0
C1548 C 0.07717 0.48146 0.74481 0.0
C1549 C 0.12941 0.48191 0.77337 0.0
C1550 C 0.13497 0.46366 0.78421 0.0
C1551 C 0.1419 0.49657 0.78425 0.0
C1552 C 0.13646 0.51631 0.77767 0.0
C1553 C 0.12031 0.52335 0.80123 0.0
C1554 C 0.11493 0.54177 0.79337 0.0
C1555 C 0.12565 0.55334 0.76234 0.0
C1556 C 0.14185 0.54654 0.73933 0.0
C1557 C 0.1473 0.52813 0.74704 0.0
H1558 H 0.12143 0.56758 0.75617 0.0
H1559 H 0.17034 0.38892 0.84744 0.0
H1560 H 0.00821 0.799 0.253 0.0
H1561 H 0.00983 0.82796 0.29871 0.0
H1562 H 0.96523 0.81003 0.39774 0.0
H1563 H 0.9622 0.7815 0.34696 0.0
H1564 H 0.95793 0.84265 0.37162 0.0
H1565 H 0.01641 0.81712 0.43321 0.0
H1566 H 0.04711 0.80213 0.42262 0.0
H1567 H 0.06522 0.84704 0.32726 0.0
H1568 H 0.03461 0.86218 0.3368 0.0
H1569 H 0.97189 0.92468 0.52432 0.0
H1570 H 0.96816 0.89325 0.49069 0.0
H1571 H 0.00623 0.90602 0.36831 0.0
H1572 H 0.01022 0.93725 0.40197 0.0
H1573 H 0.01642 0.8752 0.41579 0.0
H1574 H 0.95969 0.89992 0.34794 0.0
H1575 H 0.92962 0.91635 0.35382 0.0
H1576 H 0.90884 0.8745 0.45538 0.0
H1577 H 0.93893 0.85796 0.45081 0.0
C1578 C -0.0008 0.80091 0.28578 0.0
C1579 C 0.98523 0.7879 0.29683 0.0
C1580 C 0.00018 0.81756 0.3123 0.0
C1581 C 0.98798 0.82128 0.35293 0.0
C1582 C 0.97489 0.80758 0.36673 0.0
C1583 C 0.97338 0.79109 0.3385 0.0
C1584 C 0.98785 0.84008 0.37712 0.0
C1585 C 0.97073 0.84953 0.38242 0.0
C1586 C 0.00453 0.84957 0.38968 0.0
C1587 C 0.02318 0.84076 0.3857 0.0
C1588 C 0.02695 0.82379 0.41002 0.0
C1589 C 0.04433 0.81526 0.40413 0.0
C1590 C 0.0581 0.82362 0.37426 0.0
C1591 C 0.05456 0.84058 0.35044 0.0
C1592 C 0.03722 0.84917 0.3562 0.0
C1593 C 0.97914 0.92092 0.48962 0.0
C1594 C 0.99146 0.93342 0.46605 0.0
C1595 C 0.97701 0.90293 0.47045 0.0
C1596 C 0.98701 0.89722 0.42712 0.0
C1597 C 0.99851 0.91004 0.40205 0.0
C1598 C 0.0007 0.92794 0.42125 0.0
C1599 C 0.98665 0.87759 0.40978 0.0
C1600 C 0.00364 0.86809 0.40578 0.0
C1601 C 0.96995 0.8682 0.39799 0.0
C1602 C 0.95164 0.87779 0.39945 0.0
C1603 C 0.94875 0.89426 0.37176 0.0
C1604 C 0.9317 0.9036 0.37484 0.0
C1605 C 0.91735 0.89651 0.40507 0.0
C1606 C 0.91998 0.88 0.43204 0.0
C1607 C 0.93703 0.87062 0.42919 0.0
H1608 H 0.90417 0.90378 0.40751 0.0
H1609 H 0.07151 0.81695 0.3696 0.0
H1610 H 0.70603 0.94385 0.27374 0.0
H1611 H 0.67641 0.94696 0.31897 0.0
H1612 H 0.69291 0.00088 0.37268 0.0
H1613 H 0.72237 -0.00176 0.32471 0.0
H1614 H 0.67151 0.97166 0.44552 0.0
H1615 H 0.67037 0.00644 0.28874 0.0
H1616 H 0.6737 0.01215 0.19674 0.0
H1617 H 0.63323 0.96998 0.16556 0.0
H1618 H 0.63013 0.96355 0.25744 0.0
H1619 H 0.58844 0.01693 0.50856 0.0
H1620 H 0.61791 0.0097 0.46757 0.0
H1621 H 0.59362 0.9613 0.39861 0.0
H1622 H 0.56358 0.96846 0.44032 0.0
H1623 H 0.61819 0.98591 0.33169 0.0
H1624 H 0.62308 0.94845 0.4882 0.0
H1625 H 0.61688 0.94534 0.58041 0.0
H1626 H 0.6469 0.99578 0.60814 0.0
H1627 H 0.6538 -0.00129 0.51677 0.0
C1628 C 0.70369 0.95607 0.2969 0.0
C1629 C 0.71657 0.97078 0.29592 0.0
C1630 C 0.68663 0.95793 0.32208 0.0
C1631 C 0.68232 0.97429 0.34819 0.0
C1632 C 0.69596 0.9882 0.35221 0.0
C1633 C 0.71291 0.98657 0.3256 0.0
C1634 C 0.66316 0.97715 0.36826 0.0
C1635 C 0.65993 0.97486 0.42052 0.0
C1636 C 0.64788 0.98093 0.33557 0.0
C1637 C 0.65038 0.98418 0.2801 0.0
C1638 C 0.66254 -0.00197 0.26232 0.0
C1639 C 0.66431 0.00148 0.21013 0.0
C1640 C 0.65378 0.99135 0.17529 0.0
C1641 C 0.64148 0.97773 0.19257 0.0
C1642 C 0.63976 0.97414 0.2447 0.0
C1643 C 0.58916 0.00479 0.4844 0.0
C1644 C 0.57356 0.99326 0.47781 0.0
C1645 C 0.60612 0.00066 0.46106 0.0
C1646 C 0.60803 0.98493 0.43029 0.0
C1647 C 0.59243 0.97353 0.42231 0.0
C1648 C 0.57533 0.97758 0.44626 0.0
C1649 C 0.62667 0.98039 0.40864 0.0
C1650 C 0.6298 0.98238 0.35624 0.0
C1651 C 0.64187 0.97631 0.44082 0.0
C1652 C 0.63906 0.97372 0.49603 0.0
C1653 C 0.62856 0.95869 0.51429 0.0
C1654 C 0.62496 0.95693 0.5664 0.0
C1655 C 0.63163 0.97025 0.60033 0.0
C1656 C 0.64198 0.98528 0.5822 0.0
C1657 C 0.6459 0.98691 0.53033 0.0
H1658 H 0.62875 0.96893 0.6406 0.0
H1659 H 0.65507 0.99413 0.13494 0.0
H1660 H 0.55601 0.71386 0.30748 0.0
H1661 H 0.55477 0.68684 0.36404 0.0
H1662 H 0.49502 0.68521 0.34714 0.0
H1663 H 0.4963 0.71266 0.29297 0.0
H1664 H 0.50197 0.67154 0.43262 0.0
H1665 H 0.528 0.66102 0.26696 0.0
H1666 H 0.55006 0.66468 0.19556 0.0
H1667 H 0.59494 0.64617 0.29077 0.0
H1668 H 0.57319 0.64269 0.36303 0.0
H1669 H 0.48358 0.57607 0.45122 0.0
H1670 H 0.48921 0.60675 0.41543 0.0
H1671 H 0.54583 0.60495 0.46942 0.0
H1672 H 0.54034 0.57389 0.5051 0.0
H1673 H 0.5428 0.62053 0.37183 0.0
H1674 H 0.51294 0.62942 0.5366 0.0
H1675 H 0.4881 0.62381 0.59989 0.0
H1676 H 0.44706 0.64327 0.49372 0.0
H1677 H 0.47163 0.64886 0.42974 0.0
C1678 C 0.54254 0.70842 0.31859 0.0
C1679 C 0.52622 0.71555 0.29642 0.0
C1680 C 0.54185 0.69262 0.34982 0.0
C1681 C 0.52487 0.68338 0.35837 0.0
C1682 C 0.50837 0.69182 0.34094 0.0
C1683 C 0.50905 0.70776 0.3105 0.0
C1684 C 0.52423 0.66429 0.38117 0.0
C1685 C 0.5109 0.66045 0.419 0.0
C1686 C 0.53587 0.64957 0.36391 0.0
C1687 C 0.54901 0.65184 0.32063 0.0
C1688 C 0.5426 0.65789 0.27282 0.0
C1689 C 0.55505 0.65992 0.23217 0.0
C1690 C 0.5739 0.65572 0.23867 0.0
C1691 C 0.58035 0.64947 0.28583 0.0
C1692 C 0.56797 0.64748 0.32666 0.0
C1693 C 0.49731 0.58208 0.45533 0.0
C1694 C 0.51145 0.57252 0.48162 0.0
C1695 C 0.50048 0.59972 0.4349 0.0
C1696 C 0.51783 0.60842 0.44062 0.0
C1697 C 0.53228 0.59861 0.46482 0.0
C1698 C 0.52913 0.58084 0.4852 0.0
C1699 C 0.52051 0.62794 0.42275 0.0
C1700 C 0.53413 0.63178 0.3858 0.0
C1701 C 0.50881 0.64256 0.4396 0.0
C1702 C 0.4941 0.63951 0.47842 0.0
C1703 C 0.49861 0.63245 0.52677 0.0
C1704 C 0.48458 0.62928 0.56275 0.0
C1705 C 0.46602 0.63317 0.55082 0.0
C1706 C 0.46144 0.64029 0.50294 0.0
C1707 C 0.47541 0.6435 0.46687 0.0
H1708 H 0.45518 0.63069 0.5787 0.0
H1709 H 0.58351 0.65726 0.20714 0.0
H1710 H 0.80806 0.55934 0.25446 0.0
H1711 H 0.83568 0.55751 0.30843 0.0
H1712 H 0.81355 0.50875 0.38133 0.0
H1713 H 0.78633 0.50982 0.32458 0.0
H1714 H 0.83937 0.54975 0.43016 0.0
H1715 H 0.83509 0.48933 0.33663 0.0
H1716 H 0.82934 0.47189 0.25766 0.0
H1717 H 0.8713 0.50369 0.18053 0.0
H1718 H 0.87667 0.52192 0.25861 0.0
H1719 H 0.91773 0.50824 0.55193 0.0
H1720 H 0.88785 0.51582 0.5124 0.0
H1721 H 0.91647 0.53289 0.37567 0.0
H1722 H 0.94664 0.52587 0.4163 0.0
H1723 H 0.88756 0.50829 0.35614 0.0
H1724 H 0.89493 0.56586 0.43996 0.0
H1725 H 0.89959 0.58963 0.50609 0.0
H1726 H 0.85402 0.56728 0.59251 0.0
H1727 H 0.8491 0.54334 0.52691 0.0
C1728 C 0.80865 0.54873 0.28367 0.0
C1729 C 0.79499 0.53477 0.28556 0.0
C1730 C 0.82462 0.5475 0.3138 0.0
C1731 C 0.82698 0.53257 0.34734 0.0
C1732 C 0.81223 0.52003 0.35434 0.0
C1733 C 0.79644 0.52092 0.32297 0.0
C1734 C 0.84535 0.52967 0.37211 0.0
C1735 C 0.84977 0.54033 0.41488 0.0
C1736 C 0.85926 0.5182 0.35014 0.0
C1737 C 0.85584 0.50739 0.30308 0.0
C1738 C 0.84271 0.49298 0.3025 0.0
C1739 C 0.83958 0.48288 0.25794 0.0
C1740 C 0.84983 0.48679 0.21395 0.0
C1741 C 0.86324 0.50079 0.21449 0.0
C1742 C 0.86626 0.51107 0.25883 0.0
C1743 C 0.91765 0.51394 0.51378 0.0
C1744 C 0.93446 0.51664 0.48732 0.0
C1745 C 0.90057 0.51829 0.49121 0.0
C1746 C 0.89984 0.52499 0.44105 0.0
C1747 C 0.91667 0.52783 0.4145 0.0
C1748 C 0.93388 0.52393 0.43774 0.0
C1749 C 0.88142 0.52783 0.41593 0.0
C1750 C 0.87708 0.5174 0.3724 0.0
C1751 C 0.86762 0.53969 0.43679 0.0
C1752 C 0.87175 0.55273 0.47875 0.0
C1753 C 0.8861 0.56582 0.47347 0.0
C1754 C 0.88867 0.57943 0.5106 0.0
C1755 C 0.87699 0.58007 0.5532 0.0
C1756 C 0.86296 0.56686 0.55929 0.0
C1757 C 0.86027 0.55328 0.52216 0.0
H1758 H 0.87888 0.59072 0.58166 0.0
H1759 H 0.84747 0.47888 0.17959 0.0
loop_
_geom_bond_atom_site_label_1
_geom_bond_atom_site_label_2
_geom_bond_distance
_geom_bond_site_symmetry_2
_ccdc_geom_bond_type
C0 C1 1.391 . S
C0 C4 1.391 . S
C0 H42 0.948 . S
C1 C0 1.391 . S
C1 C2 1.391 . S
C2 C1 1.391 . S
C2 H58 0.947 . S
C2 C59 1.392 . S
C3 C4 1.391 . S
C3 C7 1.397 . S
C3 C59 1.419 . S
C4 C0 1.391 . S
C4 C3 1.391 . S
C4 C5 1.399 . S
C5 C4 1.399 . S
C5 C8 1.396 . S
C5 C17 1.453 . S
C5 C18 1.684 . S
H6 C30 0.948 . S
C7 C3 1.397 . S
C7 C8 1.394 . S
C7 C26 1.723 . S
C8 C5 1.396 . S
C8 C7 1.394 . S
C8 C38 1.723 . S
H9 C32 0.947 . S
H10 C33 0.948 . S
H11 C39 0.982 . S
H12 C40 0.979 . S
H13 C40 0.980 . S
H14 C40 0.983 . S
H15 C39 0.979 . S
H16 C39 0.977 . S
C17 C5 1.453 . S
C17 H46 0.982 . S
C17 H47 0.979 . S
C17 H48 0.977 . S
C18 C5 1.684 . S
C18 H43 0.979 . S
C18 H44 0.980 . S
C18 H45 0.983 . S
C19 C20 1.391 . S
C19 C24 1.391 . S
C19 H49 0.948 . S
C20 C19 1.391 . S
C20 C21 1.391 . S
C21 C20 1.391 . S
C21 C22 1.392 . S
C21 H50 0.947 . S
C22 C21 1.392 . S
C22 C23 1.419 . S
C22 H51 0.948 . S
C23 C22 1.419 . S
C23 C24 1.391 . S
C23 C27 1.397 . S
C24 C19 1.391 . S
C24 C23 1.391 . S
C24 C25 1.399 1_556 S
C25 C24 1.399 1_554 S
C25 C26 1.396 . S
C25 C28 1.453 . S
C25 C29 1.684 . S
C26 C7 1.723 . S
C26 C25 1.396 . S
C26 C27 1.394 1_554 S
C27 C23 1.397 . S
C27 C26 1.394 1_556 S
C27 C37 1.723 . S
C28 C25 1.453 . S
C28 H52 0.982 . S
C28 H53 0.979 . S
C28 H54 0.977 . S
C29 C25 1.684 . S
C29 H55 0.979 . S
C29 H56 0.980 . S
C29 H57 0.983 . S
C30 H6 0.948 . S
C30 C31 1.391 . S
C30 C35 1.391 . S
C31 C30 1.391 . S
C31 C32 1.391 1_556 S
C32 H9 0.947 . S
C32 C31 1.391 1_554 S
C32 C33 1.392 . S
C33 H10 0.948 . S
C33 C32 1.392 . S
C33 C34 1.419 . S
C34 C33 1.419 . S
C34 C35 1.391 1_554 S
C34 C38 1.397 . S
C35 C30 1.391 . S
C35 C34 1.391 1_556 S
C35 C36 1.399 . S
C36 C35 1.399 . S
C36 C37 1.396 . S
C36 C39 1.453 . S
C36 C40 1.684 . S
C37 C27 1.723 . S
C37 C36 1.396 . S
C37 C38 1.394 1_556 S
C38 C8 1.723 . S
C38 C34 1.397 . S
C38 C37 1.394 1_554 S
C39 H11 0.982 . S
C39 H15 0.979 . S
C39 H16 0.977 . S
C39 C36 1.453 . S
C40 H12 0.979 . S
C40 H13 0.980 . S
C40 H14 0.983 . S
C40 C36 1.684 . S
H41 C59 0.948 . S
H42 C0 0.948 . S
H43 C18 0.979 . S
H44 C18 0.980 . S
H45 C18 0.983 . S
H46 C17 0.982 . S
H47 C17 0.979 . S
H48 C17 0.977 . S
H49 C19 0.948 . S
H50 C21 0.947 . S
H51 C22 0.948 . S
H52 C28 0.982 . S
H53 C28 0.979 . S
H54 C28 0.977 . S
H55 C29 0.979 . S
H56 C29 0.980 . S
H57 C29 0.983 . S
H58 C2 0.947 . S
C59 C2 1.392 . S
C59 C3 1.419 . S
C59 H41 0.948 . S
C60 C61 1.391 . S
C60 C64 1.391 . S
C60 H102 0.948 . S
C61 C60 1.391 . S
C61 C62 1.391 . S
C62 C61 1.391 . S
C62 H118 0.947 . S
C62 C119 1.392 . S
C63 C64 1.391 . S
C63 C67 1.397 1_556 S
C63 C119 1.419 . S
C64 C60 1.391 . S
C64 C63 1.391 . S
C64 C65 1.399 . S
C65 C64 1.399 . S
C65 C68 1.396 . S
C65 C77 1.453 . S
C65 C78 1.684 . S
H66 C90 0.948 . S
C67 C63 1.397 1_554 S
C67 C68 1.394 1_554 S
C67 C86 1.723 . S
C68 C65 1.396 . S
C68 C67 1.394 1_556 S
C68 C98 1.723 1_556 S
H69 C92 0.947 . S
H70 C93 0.948 . S
H71 C99 0.982 1_455 S
H72 C100 0.979 . S
H73 C100 0.980 . S
H74 C100 0.983 . S
H75 C99 0.979 . S
H76 C99 0.977 . S
C77 C65 1.453 . S
C77 H106 0.982 1_655 S
C77 H107 0.979 . S
C77 H108 0.977 . S
C78 C65 1.684 . S
C78 H103 0.979 . S
C78 H104 0.980 . S
C78 H105 0.983 . S
C79 C80 1.391 . S
C79 C84 1.391 . S
C79 H109 0.948 . S
C80 C79 1.391 . S
C80 C81 1.391 . S
C81 C80 1.391 . S
C81 C82 1.392 . S
C81 H110 0.947 . S
C82 C81 1.392 . S
C82 C83 1.419 . S
C82 H111 0.948 . S
C83 C82 1.419 . S
C83 C84 1.391 . S
C83 C87 1.397 . S
C84 C79 1.391 . S
C84 C83 1.391 . S
C84 C85 1.399 . S
C85 C84 1.399 . S
C85 C86 1.396 . S
C85 C88 1.453 . S
C85 C89 1.684 . S
C86 C67 1.723 . S
C86 C85 1.396 . S
C86 C87 1.394 . S
C87 C83 1.397 . S
C87 C86 1.394 . S
C87 C97 1.723 . S
C88 C85 1.453 . S
C88 H112 0.982 1_655 S
C88 H113 0.979 . S
C88 H114 0.977 . S
C89 C85 1.684 . S
C89 H115 0.979 . S
C89 H116 0.980 . S
C89 H117 0.983 . S
C90 H66 0.948 . S
C90 C91 1.391 1_554 S
C90 C95 1.391 . S
C91 C90 1.391 1_556 S
C91 C92 1.391 . S
C92 H69 0.947 . S
C92 C91 1.391 . S
C92 C93 1.392 . S
C93 H70 0.948 . S
C93 C92 1.392 . S
C93 C94 1.419 1_556 S
C94 C93 1.419 1_554 S
C94 C95 1.391 . S
C94 C98 1.397 . S
C95 C90 1.391 . S
C95 C94 1.391 . S
C95 C96 1.399 . S
C96 C95 1.399 . S
C96 C97 1.396 . S
C96 C99 1.453 . S
C96 C100 1.684 . S
C97 C87 1.723 . S
C97 C96 1.396 . S
C97 C98 1.394 . S
C98 C68 1.723 1_554 S
C98 C94 1.397 . S
C98 C97 1.394 . S
C99 H71 0.982 1_655 S
C99 H75 0.979 . S
C99 H76 0.977 . S
C99 C96 1.453 . S
C100 H72 0.979 . S
C100 H73 0.980 . S
C100 H74 0.983 . S
C100 C96 1.684 . S
H101 C119 0.948 1_554 S
H102 C60 0.948 . S
H103 C78 0.979 . S
H104 C78 0.980 . S
H105 C78 0.983 . S
H106 C77 0.982 1_455 S
H107 C77 0.979 . S
H108 C77 0.977 . S
H109 C79 0.948 . S
H110 C81 0.947 . S
H111 C82 0.948 . S
H112 C88 0.982 1_455 S
H113 C88 0.979 . S
H114 C88 0.977 . S
H115 C89 0.979 . S
H116 C89 0.980 . S
H117 C89 0.983 . S
H118 C62 0.947 . S
C119 C62 1.392 . S
C119 C63 1.419 . S
C119 H101 0.948 1_556 S
C120 C121 1.391 1_554 S
C120 C124 1.391 . S
C120 H162 0.948 . S
C121 C120 1.391 1_556 S
C121 C122 1.391 . S
C122 C121 1.391 . S
C122 H178 0.947 . S
C122 C179 1.392 . S
C123 C124 1.389 . S
C123 C127 1.396 . S
C123 C179 1.421 1_554 S
C124 C120 1.391 . S
C124 C123 1.389 . S
C124 C125 1.399 . S
C125 C124 1.399 . S
C125 C128 1.396 . S
C125 C137 1.453 . S
C125 C138 1.684 . S
H126 C150 0.948 . S
C127 C123 1.396 . S
C127 C128 1.394 . S
C127 C146 1.723 1_554 S
C128 C125 1.396 . S
C128 C127 1.394 . S
C128 C158 1.723 . S
H129 C152 0.947 . S
H130 C153 0.948 . S
H131 C159 1.030 . S
H132 C160 0.979 . S
H133 C160 0.980 . S
H134 C160 0.983 . S
H135 C159 0.979 . S
H136 C159 0.977 . S
C137 C125 1.453 . S
C137 H166 1.037 . S
C137 H167 0.979 . S
C137 H168 0.977 . S
C138 C125 1.684 . S
C138 H163 0.979 . S
C138 H164 0.980 . S
C138 H165 0.983 . S
C139 C140 1.391 . S
C139 C144 1.391 . S
C139 H169 0.948 . S
C140 C139 1.391 . S
C140 C141 1.391 . S
C141 C140 1.391 . S
C141 C142 1.392 . S
C141 H170 0.947 . S
C142 C141 1.392 . S
C142 C143 1.419 . S
C142 H171 0.948 1_556 S
C143 C142 1.419 . S
C143 C144 1.391 . S
C143 C147 1.397 1_556 S
C144 C139 1.391 . S
C144 C143 1.391 . S
C144 C145 1.399 . S
C145 C144 1.399 . S
C145 C146 1.396 . S
C145 C148 1.453 . S
C145 C149 1.684 . S
C146 C127 1.723 1_556 S
C146 C145 1.396 . S
C146 C147 1.394 1_556 S
C147 C143 1.397 1_554 S
C147 C146 1.394 1_554 S
C147 C157 1.723 . S
C148 C145 1.453 . S
C148 H172 1.034 . S
C148 H173 0.979 . S
C148 H174 0.977 . S
C149 C145 1.684 . S
C149 H175 0.979 . S
C149 H176 0.980 . S
C149 H177 0.983 . S
C150 H126 0.948 . S
C150 C151 1.391 . S
C150 C155 1.391 . S
C151 C150 1.391 . S
C151 C152 1.391 . S
C152 H129 0.947 . S
C152 C151 1.391 . S
C152 C153 1.392 . S
C153 H130 0.948 . S
C153 C152 1.392 . S
C153 C154 1.419 . S
C154 C153 1.419 . S
C154 C155 1.391 . S
C154 C158 1.397 . S
C155 C150 1.391 . S
C155 C154 1.391 . S
C155 C156 1.399 . S
C156 C155 1.399 . S
C156 C157 1.396 . S
C156 C159 1.453 . S
C156 C160 1.684 . S
C157 C147 1.723 . S
C157 C156 1.396 . S
C157 C158 1.394 . S
C158 C128 1.723 . S
C158 C154 1.397 . S
C158 C157 1.394 . S
C159 H131 1.030 . S
C159 H135 0.979 . S
C159 H136 0.977 . S
C159 C156 1.453 . S
C160 H132 0.979 . S
C160 H133 0.980 . S
C160 H134 0.983 . S
C160 C156 1.684 . S
H161 C179 0.948 . S
H162 C120 0.948 . S
H163 C138 0.979 . S
H164 C138 0.980 . S
H165 C138 0.983 . S
H166 C137 1.037 . S
H167 C137 0.979 . S
H168 C137 0.977 . S
H169 C139 0.948 . S
H170 C141 0.947 . S
H171 C142 0.948 1_554 S
H172 C148 1.034 . S
H173 C148 0.979 . S
H174 C148 0.977 . S
H175 C149 0.979 . S
H176 C149 0.980 . S
H177 C149 0.983 . S
H178 C122 0.947 . S
C179 C122 1.392 . S
C179 C123 1.421 1_556 S
C179 H161 0.948 . S
C180 C181 1.391 . S
C180 C184 1.391 . S
C180 H222 0.948 . S
C181 C180 1.391 . S
C181 C182 1.391 . S
C182 C181 1.391 . S
C182 H238 0.947 . S
C182 C239 1.392 . S
C183 C184 1.391 . S
C183 C187 1.397 . S
C183 C239 1.419 . S
C184 C180 1.391 . S
C184 C183 1.391 . S
C184 C185 1.399 . S
C185 C184 1.399 . S
C185 C188 1.396 . S
C185 C197 1.453 . S
C185 C198 1.684 . S
H186 C210 0.948 . S
C187 C183 1.397 . S
C187 C188 1.394 . S
C187 C206 1.723 . S
C188 C185 1.396 . S
C188 C187 1.394 . S
C188 C218 1.723 . S
H189 C212 0.947 . S
H190 C213 0.948 . S
H191 C219 0.982 . S
H192 C220 0.979 . S
H193 C220 0.980 . S
H194 C220 0.983 . S
H195 C219 0.979 . S
H196 C219 0.977 . S
C197 C185 1.453 . S
C197 H226 0.982 . S
C197 H227 0.979 . S
C197 H228 0.977 . S
C198 C185 1.684 . S
C198 H223 0.979 . S
C198 H224 0.980 . S
C198 H225 0.983 . S
C199 C200 1.391 . S
C199 C204 1.391 . S
C199 H229 0.948 . S
C200 C199 1.391 . S
C200 C201 1.391 . S
C201 C200 1.391 . S
C201 C202 1.392 . S
C201 H230 0.947 . S
C202 C201 1.392 . S
C202 C203 1.419 . S
C202 H231 0.948 . S
C203 C202 1.419 . S
C203 C204 1.391 . S
C203 C207 1.397 . S
C204 C199 1.391 . S
C204 C203 1.391 . S
C204 C205 1.399 1_556 S
C205 C204 1.399 1_554 S
C205 C206 1.396 . S
C205 C208 1.453 . S
C205 C209 1.684 . S
C206 C187 1.723 . S
C206 C205 1.396 . S
C206 C207 1.394 1_554 S
C207 C203 1.397 . S
C207 C206 1.394 1_556 S
C207 C217 1.723 . S
C208 C205 1.453 . S
C208 H232 0.982 . S
C208 H233 0.979 . S
C208 H234 0.977 . S
C209 C205 1.684 . S
C209 H235 0.979 . S
C209 H236 0.980 . S
C209 H237 0.983 . S
C210 H186 0.948 . S
C210 C211 1.391 1_556 S
C210 C215 1.391 . S
C211 C210 1.391 1_554 S
C211 C212 1.391 . S
C212 H189 0.947 . S
C212 C211 1.391 . S
C212 C213 1.392 . S
C213 H190 0.948 . S
C213 C212 1.392 . S
C213 C214 1.419 . S
C214 C213 1.419 . S
C214 C215 1.391 1_554 S
C214 C218 1.397 . S
C215 C210 1.391 . S
C215 C214 1.391 1_556 S
C215 C216 1.399 . S
C216 C215 1.399 . S
C216 C217 1.396 . S
C216 C219 1.453 . S
C216 C220 1.684 . S
C217 C207 1.723 . S
C217 C216 1.396 . S
C217 C218 1.394 1_556 S
C218 C188 1.723 . S
C218 C214 1.397 . S
C218 C217 1.394 1_554 S
C219 H191 0.982 . S
C219 H195 0.979 . S
C219 H196 0.977 . S
C219 C216 1.453 . S
C220 H192 0.979 . S
C220 H193 0.980 . S
C220 H194 0.983 . S
C220 C216 1.684 . S
H221 C239 0.948 . S
H222 C180 0.948 . S
H223 C198 0.979 . S
H224 C198 0.980 . S
H225 C198 0.983 . S
H226 C197 0.982 . S
H227 C197 0.979 . S
H228 C197 0.977 . S
H229 C199 0.948 . S
H230 C201 0.947 . S
H231 C202 0.948 . S
H232 C208 0.982 . S
H233 C208 0.979 . S
H234 C208 0.977 . S
H235 C209 0.979 . S
H236 C209 0.980 . S
H237 C209 0.983 . S
H238 C182 0.947 . S
C239 C182 1.392 . S
C239 C183 1.419 . S
C239 H221 0.948 . S
C240 C241 1.391 . S
C240 C244 1.391 . S
C240 H282 0.948 . S
C241 C240 1.391 . S
C241 C242 1.391 . S
C242 C241 1.391 . S
C242 H298 0.947 . S
C242 C299 1.392 . S
C243 C244 1.391 . S
C243 C247 1.397 . S
C243 C299 1.419 . S
C244 C240 1.391 . S
C244 C243 1.391 . S
C244 C245 1.399 . S
C245 C244 1.399 . S
C245 C248 1.396 . S
C245 C257 1.453 . S
C245 C258 1.684 . S
H246 C270 0.948 . S
C247 C243 1.397 . S
C247 C248 1.394 . S
C247 C266 1.723 . S
C248 C245 1.396 . S
C248 C247 1.394 . S
C248 C278 1.723 . S
H249 C272 0.947 . S
H250 C273 0.948 . S
H251 C279 0.982 . S
H252 C280 0.979 . S
H253 C280 0.980 . S
H254 C280 0.983 . S
H255 C279 0.979 . S
H256 C279 0.977 . S
C257 C245 1.453 . S
C257 H286 0.982 . S
C257 H287 0.979 . S
C257 H288 0.977 . S
C258 C245 1.684 . S
C258 H283 0.979 . S
C258 H284 0.980 . S
C258 H285 0.983 . S
C259 C260 1.391 . S
C259 C264 1.391 . S
C259 H289 0.948 . S
C260 C259 1.391 . S
C260 C261 1.391 . S
C261 C260 1.391 . S
C261 C262 1.392 . S
C261 H290 0.947 . S
C262 C261 1.392 . S
C262 C263 1.419 . S
C262 H291 0.948 . S
C263 C262 1.419 . S
C263 C264 1.391 . S
C263 C267 1.397 . S
C264 C259 1.391 . S
C264 C263 1.391 . S
C264 C265 1.399 . S
C265 C264 1.399 . S
C265 C266 1.396 . S
C265 C268 1.453 . S
C265 C269 1.684 . S
C266 C247 1.723 . S
C266 C265 1.396 . S
C266 C267 1.394 . S
C267 C263 1.397 . S
C267 C266 1.394 . S
C267 C277 1.723 . S
C268 C265 1.453 . S
C268 H292 0.982 . S
C268 H293 0.979 . S
C268 H294 0.977 . S
C269 C265 1.684 . S
C269 H295 0.979 . S
C269 H296 0.980 . S
C269 H297 0.983 . S
C270 H246 0.948 . S
C270 C271 1.391 . S
C270 C275 1.391 1_556 S
C271 C270 1.391 . S
C271 C272 1.391 . S
C272 H249 0.947 . S
C272 C271 1.391 . S
C272 C273 1.392 1_556 S
C273 H250 0.948 . S
C273 C272 1.392 1_554 S
C273 C274 1.419 . S
C274 C273 1.419 . S
C274 C275 1.391 . S
C274 C278 1.397 . S
C275 C270 1.391 1_554 S
C275 C274 1.391 . S
C275 C276 1.399 . S
C276 C275 1.399 . S
C276 C277 1.396 . S
C276 C279 1.453 . S
C276 C280 1.684 . S
C277 C267 1.723 . S
C277 C276 1.396 . S
C277 C278 1.394 . S
C278 C248 1.723 . S
C278 C274 1.397 . S
C278 C277 1.394 . S
C279 H251 0.982 . S
C279 H255 0.979 . S
C279 H256 0.977 . S
C279 C276 1.453 . S
C280 H252 0.979 . S
C280 H253 0.980 . S
C280 H254 0.983 . S
C280 C276 1.684 . S
H281 C299 0.948 . S
H282 C240 0.948 . S
H283 C258 0.979 . S
H284 C258 0.980 . S
H285 C258 0.983 . S
H286 C257 0.982 . S
H287 C257 0.979 . S
H288 C257 0.977 . S
H289 C259 0.948 . S
H290 C261 0.947 . S
H291 C262 0.948 . S
H292 C268 0.982 . S
H293 C268 0.979 . S
H294 C268 0.977 . S
H295 C269 0.979 . S
H296 C269 0.980 . S
H297 C269 0.983 . S
H298 C242 0.947 . S
C299 C242 1.392 . S
C299 C243 1.419 . S
C299 H281 0.948 . S
C300 C301 1.391 . S
C300 C304 1.391 . S
C300 H342 0.948 . S
C301 C300 1.391 . S
C301 C302 1.391 . S
C302 C301 1.391 . S
C302 H358 0.947 . S
C302 C359 1.392 . S
C303 C304 1.391 . S
C303 C307 1.397 . S
C303 C359 1.419 . S
C304 C300 1.391 . S
C304 C303 1.391 . S
C304 C305 1.399 . S
C305 C304 1.399 . S
C305 C308 1.396 . S
C305 C317 1.453 . S
C305 C318 1.684 . S
H306 C330 0.948 . S
C307 C303 1.397 . S
C307 C308 1.394 . S
C307 C326 1.723 . S
C308 C305 1.396 . S
C308 C307 1.394 . S
C308 C338 1.723 . S
H309 C332 0.947 . S
H310 C333 0.948 . S
H311 C339 0.982 . S
H312 C340 0.937 1_655 S
H313 C340 0.980 . S
H314 C340 0.983 . S
H315 C339 0.979 . S
H316 C339 0.977 . S
C317 C305 1.453 . S
C317 H346 0.982 . S
C317 H347 0.979 . S
C317 H348 0.977 . S
C318 C305 1.684 . S
C318 H343 0.933 1_455 S
C318 H344 0.980 . S
C318 H345 0.983 . S
C319 C320 1.391 . S
C319 C324 1.391 1_556 S
C319 H349 0.948 . S
C320 C319 1.391 . S
C320 C321 1.391 . S
C321 C320 1.391 . S
C321 C322 1.401 . S
C321 H350 0.947 . S
C322 C321 1.401 . S
C322 C323 1.411 1_556 S
C322 H351 0.947 1_556 S
C323 C322 1.411 1_554 S
C323 C324 1.391 . S
C323 C327 1.397 . S
C324 C319 1.391 1_554 S
C324 C323 1.391 . S
C324 C325 1.399 . S
C325 C324 1.399 . S
C325 C326 1.396 . S
C325 C328 1.453 . S
C325 C329 1.684 . S
C326 C307 1.723 . S
C326 C325 1.396 . S
C326 C327 1.394 . S
C327 C323 1.397 . S
C327 C326 1.394 . S
C327 C337 1.723 . S
C328 C325 1.453 . S
C328 H352 0.982 . S
C328 H353 0.979 . S
C328 H354 0.977 . S
C329 C325 1.684 . S
C329 H355 0.928 1_455 S
C329 H356 0.980 . S
C329 H357 0.983 . S
C330 H306 0.948 . S
C330 C331 1.391 . S
C330 C335 1.391 . S
C331 C330 1.391 . S
C331 C332 1.391 . S
C332 H309 0.947 . S
C332 C331 1.391 . S
C332 C333 1.392 . S
C333 H310 0.948 . S
C333 C332 1.392 . S
C333 C334 1.419 . S
C334 C333 1.419 . S
C334 C335 1.391 . S
C334 C338 1.397 . S
C335 C330 1.391 . S
C335 C334 1.391 . S
C335 C336 1.399 . S
C336 C335 1.399 . S
C336 C337 1.396 . S
C336 C339 1.453 . S
C336 C340 1.684 . S
C337 C327 1.723 . S
C337 C336 1.396 . S
C337 C338 1.394 . S
C338 C308 1.723 . S
C338 C334 1.397 . S
C338 C337 1.394 . S
C339 H311 0.982 . S
C339 H315 0.979 . S
C339 H316 0.977 . S
C339 C336 1.453 . S
C340 H312 0.937 1_455 S
C340 H313 0.980 . S
C340 H314 0.983 . S
C340 C336 1.684 . S
H341 C359 0.948 . S
H342 C300 0.948 . S
H343 C318 0.933 1_655 S
H344 C318 0.980 . S
H345 C318 0.983 . S
H346 C317 0.982 . S
H347 C317 0.979 . S
H348 C317 0.977 . S
H349 C319 0.948 . S
H350 C321 0.947 . S
H351 C322 0.947 1_554 S
H352 C328 0.982 . S
H353 C328 0.979 . S
H354 C328 0.977 . S
H355 C329 0.928 1_655 S
H356 C329 0.980 . S
H357 C329 0.983 . S
H358 C302 0.947 . S
C359 C302 1.392 . S
C359 C303 1.419 . S
C359 H341 0.948 . S
C360 C361 1.391 . S
C360 C364 1.391 1_556 S
C360 H402 0.948 . S
C361 C360 1.391 . S
C361 C362 1.391 . S
C362 C361 1.391 . S
C362 H418 0.947 . S
C362 C419 1.392 1_556 S
C363 C364 1.391 . S
C363 C367 1.397 . S
C363 C419 1.419 . S
C364 C360 1.391 1_554 S
C364 C363 1.391 . S
C364 C365 1.399 . S
C365 C364 1.399 . S
C365 C368 1.396 . S
C365 C377 1.453 . S
C365 C378 1.684 . S
H366 C390 0.948 . S
C367 C363 1.397 . S
C367 C368 1.394 . S
C367 C386 1.723 . S
C368 C365 1.396 . S
C368 C367 1.394 . S
C368 C398 1.723 . S
H369 C392 0.947 . S
H370 C393 0.948 . S
H371 C399 0.982 . S
H372 C400 0.979 . S
H373 C400 0.980 . S
H374 C400 0.983 . S
H375 C399 0.979 . S
H376 C399 0.977 . S
C377 C365 1.453 . S
C377 H406 0.982 . S
C377 H407 0.979 . S
C377 H408 0.977 . S
C378 C365 1.684 . S
C378 H403 0.979 . S
C378 H404 0.980 . S
C378 H405 0.983 1_554 S
C379 C380 1.391 . S
C379 C384 1.391 . S
C379 H409 0.948 . S
C380 C379 1.391 . S
C380 C381 1.391 . S
C381 C380 1.391 . S
C381 C382 1.392 . S
C381 H410 0.947 . S
C382 C381 1.392 . S
C382 C383 1.419 . S
C382 H411 0.948 . S
C383 C382 1.419 . S
C383 C384 1.391 . S
C383 C387 1.397 . S
C384 C379 1.391 . S
C384 C383 1.391 . S
C384 C385 1.399 . S
C385 C384 1.399 . S
C385 C386 1.396 . S
C385 C388 1.453 . S
C385 C389 1.684 . S
C386 C367 1.723 . S
C386 C385 1.396 . S
C386 C387 1.394 . S
C387 C383 1.397 . S
C387 C386 1.394 . S
C387 C397 1.723 . S
C388 C385 1.453 . S
C388 H412 0.982 . S
C388 H413 0.979 . S
C388 H414 0.977 . S
C389 C385 1.684 . S
C389 H415 0.979 . S
C389 H416 0.980 . S
C389 H417 0.983 . S
C390 H366 0.948 . S
C390 C391 1.391 . S
C390 C395 1.391 . S
C391 C390 1.391 . S
C391 C392 1.391 . S
C392 H369 0.947 . S
C392 C391 1.391 . S
C392 C393 1.392 . S
C393 H370 0.948 . S
C393 C392 1.392 . S
C393 C394 1.419 . S
C394 C393 1.419 . S
C394 C395 1.391 . S
C394 C398 1.397 . S
C395 C390 1.391 . S
C395 C394 1.391 . S
C395 C396 1.399 . S
C396 C395 1.399 . S
C396 C397 1.396 . S
C396 C399 1.453 . S
C396 C400 1.684 . S
C397 C387 1.723 . S
C397 C396 1.396 . S
C397 C398 1.394 . S
C398 C368 1.723 . S
C398 C394 1.397 . S
C398 C397 1.394 . S
C399 H371 0.982 . S
C399 H375 0.979 . S
C399 H376 0.977 . S
C399 C396 1.453 . S
C400 H372 0.979 . S
C400 H373 0.980 . S
C400 H374 0.983 . S
C400 C396 1.684 . S
H401 C419 0.948 . S
H402 C360 0.948 . S
H403 C378 0.979 . S
H404 C378 0.980 . S
H405 C378 0.983 1_556 S
H406 C377 0.982 . S
H407 C377 0.979 . S
H408 C377 0.977 . S
H409 C379 0.948 . S
H410 C381 0.947 . S
H411 C382 0.948 . S
H412 C388 0.982 . S
H413 C388 0.979 . S
H414 C388 0.977 . S
H415 C389 0.979 . S
H416 C389 0.980 . S
H417 C389 0.983 . S
H418 C362 0.947 . S
C419 C362 1.392 1_554 S
C419 C363 1.419 . S
C419 H401 0.948 . S
C420 C421 1.391 . S
C420 C424 1.391 1_556 S
C420 H462 0.948 . S
C421 C420 1.391 . S
C421 C422 1.391 . S
C422 C421 1.391 . S
C422 H478 0.947 . S
C422 C479 1.392 1_556 S
C423 C424 1.391 . S
C423 C427 1.397 . S
C423 C479 1.419 . S
C424 C420 1.391 1_554 S
C424 C423 1.391 . S
C424 C425 1.399 . S
C425 C424 1.399 . S
C425 C428 1.396 . S
C425 C437 1.453 . S
C425 C438 1.684 . S
H426 C450 0.948 . S
C427 C423 1.397 . S
C427 C428 1.394 . S
C427 C446 1.723 . S
C428 C425 1.396 . S
C428 C427 1.394 . S
C428 C458 1.723 . S
H429 C452 0.947 . S
H430 C453 0.948 . S
H431 C459 0.982 . S
H432 C460 0.979 . S
H433 C460 0.980 . S
H434 C460 0.983 . S
H435 C459 0.979 . S
H436 C459 0.977 . S
C437 C425 1.453 . S
C437 H466 0.982 . S
C437 H467 0.979 . S
C437 H468 0.977 . S
C438 C425 1.684 . S
C438 H463 0.979 . S
C438 H464 0.980 . S
C438 H465 0.983 1_554 S
C439 C440 1.391 . S
C439 C444 1.391 . S
C439 H469 0.948 . S
C440 C439 1.391 . S
C440 C441 1.391 . S
C441 C440 1.391 . S
C441 C442 1.392 . S
C441 H470 0.947 . S
C442 C441 1.392 . S
C442 C443 1.419 . S
C442 H471 0.948 . S
C443 C442 1.419 . S
C443 C444 1.391 . S
C443 C447 1.397 . S
C444 C439 1.391 . S
C444 C443 1.391 . S
C444 C445 1.399 . S
C445 C444 1.399 . S
C445 C446 1.396 . S
C445 C448 1.453 . S
C445 C449 1.684 . S
C446 C427 1.723 . S
C446 C445 1.396 . S
C446 C447 1.394 . S
C447 C443 1.397 . S
C447 C446 1.394 . S
C447 C457 1.723 . S
C448 C445 1.453 . S
C448 H472 0.982 . S
C448 H473 0.979 . S
C448 H474 0.977 . S
C449 C445 1.684 . S
C449 H475 0.979 . S
C449 H476 0.980 . S
C449 H477 0.983 . S
C450 H426 0.948 . S
C450 C451 1.391 . S
C450 C455 1.391 . S
C451 C450 1.391 . S
C451 C452 1.391 . S
C452 H429 0.947 . S
C452 C451 1.391 . S
C452 C453 1.392 . S
C453 H430 0.948 . S
C453 C452 1.392 . S
C453 C454 1.419 . S
C454 C453 1.419 . S
C454 C455 1.391 . S
C454 C458 1.397 . S
C455 C450 1.391 . S
C455 C454 1.391 . S
C455 C456 1.399 . S
C456 C455 1.399 . S
C456 C457 1.396 . S
C456 C459 1.453 . S
C456 C460 1.684 . S
C457 C447 1.723 . S
C457 C456 1.396 . S
C457 C458 1.394 . S
C458 C428 1.723 . S
C458 C454 1.397 . S
C458 C457 1.394 . S
C459 H431 0.982 . S
C459 H435 0.979 . S
C459 H436 0.977 . S
C459 C456 1.453 . S
C460 H432 0.979 . S
C460 H433 0.980 . S
C460 H434 0.983 . S
C460 C456 1.684 . S
H461 C479 0.948 . S
H462 C420 0.948 . S
H463 C438 0.979 . S
H464 C438 0.980 . S
H465 C438 0.983 1_556 S
H466 C437 0.982 . S
H467 C437 0.979 . S
H468 C437 0.977 . S
H469 C439 0.948 . S
H470 C441 0.947 . S
H471 C442 0.948 . S
H472 C448 0.982 . S
H473 C448 0.979 . S
H474 C448 0.977 . S
H475 C449 0.979 . S
H476 C449 0.980 . S
H477 C449 0.983 . S
H478 C422 0.947 . S
C479 C422 1.392 1_554 S
C479 C423 1.419 . S
C479 H461 0.948 . S
Zn480 O486 1.969 1_455 S
Zn480 O487 1.965 . S
Zn480 O491 2.024 . S
Zn480 O496 1.969 1_455 S
Zn481 O488 1.969 . S
Zn481 O494 1.969 . S
Zn481 O495 1.965 1_455 S
Zn481 O497 2.024 1_455 S
C482 O483 1.229 1_455 S
C482 O491 1.058 . S
O483 C482 1.229 1_655 S
C484 O485 1.229 1_655 S
C484 O497 1.058 . S
O485 C484 1.229 1_455 S
O486 Zn480 1.969 1_655 S
O486 C489 1.267 1_655 S
O487 Zn480 1.965 . S
O487 C498 1.260 . S
O488 Zn481 1.969 . S
O488 C498 1.258 1_565 S
C489 O486 1.267 1_455 S
C489 O490 1.228 . S
O490 C489 1.228 . S
O491 Zn480 2.024 . S
O491 C482 1.058 . S
C492 O493 1.228 1_455 S
C492 O494 1.267 . S
O493 C492 1.228 1_655 S
O494 Zn481 1.969 . S
O494 C492 1.267 . S
O495 Zn481 1.965 1_655 S
O495 C499 1.260 1_565 S
O496 Zn480 1.969 1_655 S
O496 C499 1.258 . S
O497 Zn481 2.024 1_655 S
O497 C484 1.058 . S
C498 O487 1.260 . S
C498 O488 1.258 1_545 S
C499 O495 1.260 1_545 S
C499 O496 1.258 . S
Zn500 O506 1.969 1_545 S
Zn500 O507 1.965 . S
Zn500 O511 2.024 . S
Zn500 O516 1.969 1_545 S
Zn501 O508 1.969 . S
Zn501 O514 1.969 . S
Zn501 O515 1.965 1_545 S
Zn501 O517 2.024 1_545 S
C502 O503 1.229 . S
C502 O511 1.058 . S
O503 C502 1.229 . S
C504 O505 1.229 1_565 S
C504 O517 1.058 . S
O505 C504 1.229 1_545 S
O506 Zn500 1.969 1_565 S
O506 C509 1.267 1_565 S
O507 Zn500 1.965 . S
O507 C518 1.260 . S
O508 Zn501 1.969 . S
O508 C518 1.258 . S
C509 O506 1.267 1_545 S
C509 O510 1.228 . S
O510 C509 1.228 . S
O511 Zn500 2.024 . S
O511 C502 1.058 . S
C512 O513 1.228 1_545 S
C512 O514 1.267 . S
O513 C512 1.228 1_565 S
O514 Zn501 1.969 . S
O514 C512 1.267 . S
O515 Zn501 1.965 1_565 S
O515 C519 1.260 . S
O516 Zn500 1.969 1_565 S
O516 C519 1.258 . S
O517 Zn501 2.024 1_565 S
O517 C504 1.058 . S
C518 O507 1.260 . S
C518 O508 1.258 . S
C519 O515 1.260 . S
C519 O516 1.258 . S
Zn520 O526 1.969 . S
Zn520 O527 1.965 . S
Zn520 O531 2.024 . S
Zn520 O536 1.969 . S
Zn521 O528 1.969 . S
Zn521 O534 1.969 . S
Zn521 O535 1.965 . S
Zn521 O537 2.024 . S
C522 O523 1.229 . S
C522 O531 1.058 . S
O523 C522 1.229 . S
C524 O525 1.229 . S
C524 O537 1.058 . S
O525 C524 1.229 . S
O526 Zn520 1.969 . S
O526 C529 1.267 . S
O527 Zn520 1.965 . S
O527 C538 1.260 . S
O528 Zn521 1.969 . S
O528 C538 1.258 . S
C529 O526 1.267 . S
C529 O530 1.228 . S
O530 C529 1.228 . S
O531 Zn520 2.024 . S
O531 C522 1.058 . S
C532 O533 1.228 . S
C532 O534 1.267 . S
O533 C532 1.228 . S
O534 Zn521 1.969 . S
O534 C532 1.267 . S
O535 Zn521 1.965 . S
O535 C539 1.260 . S
O536 Zn520 1.969 . S
O536 C539 1.258 . S
O537 Zn521 2.024 . S
O537 C524 1.058 . S
C538 O527 1.260 . S
C538 O528 1.258 . S
C539 O535 1.260 . S
C539 O536 1.258 . S
Zn540 O546 1.969 . S
Zn540 O547 1.965 . S
Zn540 O551 2.024 . S
Zn540 O556 1.969 . S
Zn541 O548 1.969 . S
Zn541 O554 1.969 . S
Zn541 O555 1.965 . S
Zn541 O557 2.024 . S
C542 O543 1.229 . S
C542 O551 1.058 . S
O543 C542 1.229 . S
C544 O545 1.229 . S
C544 O557 1.058 . S
O545 C544 1.229 . S
O546 Zn540 1.969 . S
O546 C549 1.267 . S
O547 Zn540 1.965 . S
O547 C558 1.260 . S
O548 Zn541 1.969 . S
O548 C558 1.258 1_655 S
C549 O546 1.267 . S
C549 O550 1.228 . S
O550 C549 1.228 . S
O551 Zn540 2.024 . S
O551 C542 1.058 . S
C552 O553 1.228 . S
C552 O554 1.267 . S
O553 C552 1.228 . S
O554 Zn541 1.969 . S
O554 C552 1.267 . S
O555 Zn541 1.965 . S
O555 C559 1.260 1_655 S
O556 Zn540 1.969 . S
O556 C559 1.258 . S
O557 Zn541 2.024 . S
O557 C544 1.058 . S
C558 O547 1.260 . S
C558 O548 1.258 1_455 S
C559 O555 1.260 1_455 S
C559 O556 1.258 . S
H560 C578 0.951 . S
H561 C580 0.951 . S
H562 C582 0.950 . S
H563 C583 0.950 . S
H564 C585 0.950 . S
H565 C588 0.950 . S
H566 C589 0.950 . S
H567 C591 0.950 . S
H568 C592 0.950 . S
H569 C593 0.951 . S
H570 C595 0.951 . S
H571 C597 0.950 . S
H572 C598 0.950 . S
H573 C600 0.950 . S
H574 C603 0.950 . S
H575 C604 0.950 . S
H576 C606 0.950 . S
H577 C607 0.950 . S
C578 H560 0.951 . S
C578 C579 1.366 . S
C578 C580 1.388 . S
C579 C578 1.366 . S
C579 C583 1.385 . S
C580 H561 0.951 . S
C580 C578 1.388 . S
C580 C581 1.366 . S
C581 C580 1.366 . S
C581 C582 1.414 . S
C581 C584 1.499 . S
C582 H562 0.950 . S
C582 C581 1.414 . S
C582 C583 1.374 . S
C583 H563 0.950 . S
C583 C579 1.385 . S
C583 C582 1.374 . S
C584 C581 1.499 . S
C584 C585 1.373 . S
C584 C586 1.389 . S
C585 H564 0.950 . S
C585 C584 1.373 . S
C585 C601 1.377 . S
C586 C584 1.389 . S
C586 C587 1.524 . S
C586 C600 1.377 . S
C587 C586 1.524 . S
C587 C588 1.397 . S
C587 C592 1.363 . S
C588 H565 0.950 . S
C588 C587 1.397 . S
C588 C589 1.334 . S
C589 H566 0.950 . S
C589 C588 1.334 . S
C589 C590 1.287 . S
C590 C589 1.287 . S
C590 C591 1.524 . S
C590 H609 0.913 . S
C591 H567 0.950 . S
C591 C590 1.524 . S
C591 C592 1.415 . S
C592 H568 0.950 . S
C592 C587 1.363 . S
C592 C591 1.415 . S
C593 H569 0.951 . S
C593 C594 1.366 . S
C593 C595 1.388 . S
C594 C593 1.366 . S
C594 C598 1.385 . S
C595 H570 0.951 . S
C595 C593 1.388 . S
C595 C596 1.366 . S
C596 C595 1.366 . S
C596 C597 1.414 . S
C596 C599 1.499 . S
C597 H571 0.950 . S
C597 C596 1.414 . S
C597 C598 1.374 . S
C598 H572 0.950 . S
C598 C594 1.385 . S
C598 C597 1.374 . S
C599 C596 1.499 . S
C599 C600 1.373 . S
C599 C601 1.389 . S
C600 H573 0.950 . S
C600 C586 1.377 . S
C600 C599 1.373 . S
C601 C585 1.377 . S
C601 C599 1.389 . S
C601 C602 1.512 1_545 S
C602 C601 1.512 1_565 S
C602 C603 1.413 . S
C602 C607 1.359 1_565 S
C603 H574 0.950 . S
C603 C602 1.413 . S
C603 C604 1.334 . S
C604 H575 0.950 . S
C604 C603 1.334 . S
C604 C605 1.287 . S
C605 C604 1.287 . S
C605 C606 1.524 . S
C605 H608 0.999 . S
C606 H576 0.950 . S
C606 C605 1.524 . S
C606 C607 1.415 1_565 S
C607 H577 0.950 . S
C607 C602 1.359 1_545 S
C607 C606 1.415 1_545 S
H608 C605 0.999 . S
H609 C590 0.913 . S
H610 C628 0.951 . S
H611 C630 0.951 . S
H612 C632 0.950 . S
H613 C633 0.950 . S
H614 C635 0.950 . S
H615 C638 0.950 . S
H616 C639 0.950 . S
H617 C641 0.950 . S
H618 C642 0.950 . S
H619 C643 0.951 . S
H620 C645 0.951 . S
H621 C647 0.950 . S
H622 C648 0.950 . S
H623 C650 0.950 . S
H624 C653 0.950 . S
H625 C654 0.950 . S
H626 C656 0.950 . S
H627 C657 0.950 . S
C628 H610 0.951 . S
C628 C629 1.366 . S
C628 C630 1.388 . S
C629 C628 1.366 . S
C629 C633 1.385 . S
C630 H611 0.951 . S
C630 C628 1.388 . S
C630 C631 1.366 . S
C631 C630 1.366 . S
C631 C632 1.414 . S
C631 C634 1.499 . S
C632 H612 0.950 . S
C632 C631 1.414 . S
C632 C633 1.374 . S
C633 H613 0.950 . S
C633 C629 1.385 . S
C633 C632 1.374 . S
C634 C631 1.499 . S
C634 C635 1.373 . S
C634 C636 1.389 . S
C635 H614 0.950 . S
C635 C634 1.373 . S
C635 C651 1.377 . S
C636 C634 1.389 . S
C636 C637 1.524 . S
C636 C650 1.377 . S
C637 C636 1.524 . S
C637 C638 1.397 . S
C637 C642 1.363 . S
C638 H615 0.950 . S
C638 C637 1.397 . S
C638 C639 1.334 . S
C639 H616 0.950 . S
C639 C638 1.334 . S
C639 C640 1.287 . S
C640 C639 1.287 . S
C640 C641 1.524 . S
C640 H659 0.913 . S
C641 H617 0.950 . S
C641 C640 1.524 . S
C641 C642 1.415 . S
C642 H618 0.950 . S
C642 C637 1.363 . S
C642 C641 1.415 . S
C643 H619 0.951 . S
C643 C644 1.366 . S
C643 C645 1.388 . S
C644 C643 1.366 . S
C644 C648 1.385 . S
C645 H620 0.951 . S
C645 C643 1.388 . S
C645 C646 1.366 . S
C646 C645 1.366 . S
C646 C647 1.414 . S
C646 C649 1.499 . S
C647 H621 0.950 . S
C647 C646 1.414 . S
C647 C648 1.374 . S
C648 H622 0.950 . S
C648 C644 1.385 . S
C648 C647 1.374 . S
C649 C646 1.499 . S
C649 C650 1.373 . S
C649 C651 1.389 . S
C650 H623 0.950 . S
C650 C636 1.377 . S
C650 C649 1.373 . S
C651 C635 1.377 . S
C651 C649 1.389 . S
C651 C652 1.524 . S
C652 C651 1.524 . S
C652 C653 1.397 . S
C652 C657 1.363 . S
C653 H624 0.950 . S
C653 C652 1.397 . S
C653 C654 1.334 . S
C654 H625 0.950 . S
C654 C653 1.334 . S
C654 C655 1.287 . S
C655 C654 1.287 . S
C655 C656 1.524 . S
C655 H658 0.999 . S
C656 H626 0.950 . S
C656 C655 1.524 . S
C656 C657 1.415 . S
C657 H627 0.950 . S
C657 C652 1.363 . S
C657 C656 1.415 . S
H658 C655 0.999 . S
H659 C640 0.913 . S
H660 C678 0.951 . S
H661 C680 0.951 . S
H662 C682 0.950 . S
H663 C683 0.950 . S
H664 C685 0.950 . S
H665 C688 0.950 . S
H666 C689 0.950 . S
H667 C691 0.950 . S
H668 C692 0.950 . S
H669 C693 0.951 . S
H670 C695 0.951 . S
H671 C697 0.950 . S
H672 C698 0.950 . S
H673 C700 0.950 . S
H674 C703 0.950 . S
H675 C704 0.950 . S
H676 C706 0.950 . S
H677 C707 0.950 . S
C678 H660 0.951 . S
C678 C679 1.366 . S
C678 C680 1.388 . S
C679 C678 1.366 . S
C679 C683 1.385 . S
C680 H661 0.951 . S
C680 C678 1.388 . S
C680 C681 1.366 . S
C681 C680 1.366 . S
C681 C682 1.414 . S
C681 C684 1.499 . S
C682 H662 0.950 . S
C682 C681 1.414 . S
C682 C683 1.374 . S
C683 H663 0.950 . S
C683 C679 1.385 . S
C683 C682 1.374 . S
C684 C681 1.499 . S
C684 C685 1.373 . S
C684 C686 1.389 . S
C685 H664 0.950 . S
C685 C684 1.373 . S
C685 C701 1.377 . S
C686 C684 1.389 . S
C686 C687 1.524 . S
C686 C700 1.377 . S
C687 C686 1.524 . S
C687 C688 1.397 . S
C687 C692 1.363 . S
C688 H665 0.950 . S
C688 C687 1.397 . S
C688 C689 1.334 . S
C689 H666 0.950 . S
C689 C688 1.334 . S
C689 C690 1.287 . S
C690 C689 1.287 . S
C690 C691 1.524 . S
C690 H709 0.913 . S
C691 H667 0.950 . S
C691 C690 1.524 . S
C691 C692 1.415 . S
C692 H668 0.950 . S
C692 C687 1.363 . S
C692 C691 1.415 . S
C693 H669 0.951 . S
C693 C694 1.366 . S
C693 C695 1.388 . S
C694 C693 1.366 . S
C694 C698 1.385 . S
C695 H670 0.951 . S
C695 C693 1.388 . S
C695 C696 1.366 . S
C696 C695 1.366 . S
C696 C697 1.414 . S
C696 C699 1.499 . S
C697 H671 0.950 . S
C697 C696 1.414 . S
C697 C698 1.374 . S
C698 H672 0.950 . S
C698 C694 1.385 . S
C698 C697 1.374 . S
C699 C696 1.499 . S
C699 C700 1.373 . S
C699 C701 1.389 . S
C700 H673 0.950 . S
C700 C686 1.377 . S
C700 C699 1.373 . S
C701 C685 1.377 . S
C701 C699 1.389 . S
C701 C702 1.524 . S
C702 C701 1.524 . S
C702 C703 1.397 . S
C702 C707 1.363 . S
C703 H674 0.950 . S
C703 C702 1.397 . S
C703 C704 1.334 . S
C704 H675 0.950 . S
C704 C703 1.334 . S
C704 C705 1.287 . S
C705 C704 1.287 . S
C705 C706 1.524 . S
C705 H708 0.999 . S
C706 H676 0.950 . S
C706 C705 1.524 . S
C706 C707 1.415 . S
C707 H677 0.950 . S
C707 C702 1.363 . S
C707 C706 1.415 . S
H708 C705 0.999 . S
H709 C690 0.913 . S
H710 C728 0.987 . S
H711 C730 0.951 1_655 S
H712 C732 0.950 . S
H713 C733 0.950 . S
H714 C735 0.950 . S
H715 C738 0.950 . S
H716 C739 0.950 . S
H717 C741 0.950 . S
H718 C742 0.950 . S
H719 C743 0.951 . S
H720 C745 0.951 . S
H721 C747 0.950 . S
H722 C748 0.950 . S
H723 C750 0.950 . S
H724 C753 0.950 . S
H725 C754 0.950 . S
H726 C756 0.950 . S
H727 C757 0.950 . S
C728 H710 0.987 . S
C728 C729 1.366 . S
C728 C730 1.388 . S
C729 C728 1.366 . S
C729 C733 1.385 . S
C730 H711 0.951 1_455 S
C730 C728 1.388 . S
C730 C731 1.366 . S
C731 C730 1.366 . S
C731 C732 1.414 . S
C731 C734 1.499 . S
C732 H712 0.950 . S
C732 C731 1.414 . S
C732 C733 1.374 . S
C733 H713 0.950 . S
C733 C729 1.385 . S
C733 C732 1.374 . S
C734 C731 1.499 . S
C734 C735 1.373 . S
C734 C736 1.389 . S
C735 H714 0.950 . S
C735 C734 1.373 . S
C735 C751 1.377 . S
C736 C734 1.389 . S
C736 C737 1.524 . S
C736 C750 1.377 . S
C737 C736 1.524 . S
C737 C738 1.397 . S
C737 C742 1.363 1_455 S
C738 H715 0.950 . S
C738 C737 1.397 . S
C738 C739 1.334 . S
C739 H716 0.950 . S
C739 C738 1.334 . S
C739 C740 1.287 . S
C740 C739 1.287 . S
C740 C741 1.524 1_455 S
C740 H759 0.913 . S
C741 H717 0.950 . S
C741 C740 1.524 1_655 S
C741 C742 1.415 . S
C742 H718 0.950 . S
C742 C737 1.363 1_655 S
C742 C741 1.415 . S
C743 H719 0.951 . S
C743 C744 1.366 . S
C743 C745 1.388 . S
C744 C743 1.366 . S
C744 C748 1.385 1_455 S
C745 H720 0.951 . S
C745 C743 1.388 . S
C745 C746 1.366 . S
C746 C745 1.366 . S
C746 C747 1.414 1_455 S
C746 C749 1.499 . S
C747 H721 0.950 . S
C747 C746 1.414 1_655 S
C747 C748 1.374 . S
C748 H722 0.950 . S
C748 C744 1.385 1_655 S
C748 C747 1.374 . S
C749 C746 1.499 . S
C749 C750 1.373 . S
C749 C751 1.389 . S
C750 H723 0.950 . S
C750 C736 1.377 . S
C750 C749 1.373 . S
C751 C735 1.377 . S
C751 C749 1.389 . S
C751 C752 1.524 . S
C752 C751 1.524 . S
C752 C753 1.397 . S
C752 C757 1.363 . S
C753 H724 0.950 . S
C753 C752 1.397 . S
C753 C754 1.334 . S
C754 H725 0.950 . S
C754 C753 1.334 . S
C754 C755 1.287 . S
C755 C754 1.287 . S
C755 C756 1.524 . S
C755 H758 0.999 . S
C756 H726 0.950 . S
C756 C755 1.524 . S
C756 C757 1.415 . S
C757 H727 0.950 . S
C757 C752 1.363 . S
C757 C756 1.415 . S
H758 C755 0.999 . S
H759 C740 0.913 . S
H760 C778 0.951 1_554 S
H761 C780 0.951 . S
H762 C782 0.950 . S
H763 C783 0.950 . S
H764 C785 0.950 . S
H765 C788 0.950 . S
H766 C789 0.950 . S
H767 C791 0.950 . S
H768 C792 0.950 . S
H769 C793 0.951 . S
H770 C795 0.951 . S
H771 C797 0.948 1_545 S
H772 C798 0.950 . S
H773 C800 0.950 . S
H774 C803 0.950 . S
H775 C804 0.950 . S
H776 C806 0.950 . S
H777 C807 0.950 . S
C778 H760 0.951 1_556 S
C778 C779 1.366 . S
C778 C780 1.388 . S
C779 C778 1.366 . S
C779 C783 1.385 . S
C780 H761 0.951 . S
C780 C778 1.388 . S
C780 C781 1.366 . S
C781 C780 1.366 . S
C781 C782 1.414 . S
C781 C784 1.499 . S
C782 H762 0.950 . S
C782 C781 1.414 . S
C782 C783 1.374 . S
C783 H763 0.950 . S
C783 C779 1.385 . S
C783 C782 1.374 . S
C784 C781 1.499 . S
C784 C785 1.373 . S
C784 C786 1.389 1_565 S
C785 H764 0.950 . S
C785 C784 1.373 . S
C785 C801 1.377 . S
C786 C784 1.389 1_545 S
C786 C787 1.524 . S
C786 C800 1.377 . S
C787 C786 1.524 . S
C787 C788 1.397 . S
C787 C792 1.363 . S
C788 H765 0.950 . S
C788 C787 1.397 . S
C788 C789 1.334 . S
C789 H766 0.950 . S
C789 C788 1.334 . S
C789 C790 1.287 . S
C790 C789 1.287 . S
C790 C791 1.524 . S
C790 H809 0.913 . S
C791 H767 0.950 . S
C791 C790 1.524 . S
C791 C792 1.415 . S
C792 H768 0.950 . S
C792 C787 1.363 . S
C792 C791 1.415 . S
C793 H769 0.951 . S
C793 C794 1.366 1_565 S
C793 C795 1.388 . S
C794 C793 1.366 1_545 S
C794 C798 1.385 . S
C795 H770 0.951 . S
C795 C793 1.388 . S
C795 C796 1.366 . S
C796 C795 1.366 . S
C796 C797 1.429 . S
C796 C799 1.499 . S
C797 H771 0.948 1_565 S
C797 C796 1.429 . S
C797 C798 1.365 1_565 S
C798 H772 0.950 . S
C798 C794 1.385 . S
C798 C797 1.365 1_545 S
C799 C796 1.499 . S
C799 C800 1.373 1_565 S
C799 C801 1.389 . S
C800 H773 0.950 . S
C800 C786 1.377 . S
C800 C799 1.373 1_545 S
C801 C785 1.377 . S
C801 C799 1.389 . S
C801 C802 1.524 . S
C802 C801 1.524 . S
C802 C803 1.397 . S
C802 C807 1.363 . S
C803 H774 0.950 . S
C803 C802 1.397 . S
C803 C804 1.334 . S
C804 H775 0.950 . S
C804 C803 1.334 . S
C804 C805 1.287 . S
C805 C804 1.287 . S
C805 C806 1.524 . S
C805 H808 0.999 . S
C806 H776 0.950 . S
C806 C805 1.524 . S
C806 C807 1.415 . S
C807 H777 0.950 . S
C807 C802 1.363 . S
C807 C806 1.415 . S
H808 C805 0.999 . S
H809 C790 0.913 . S
H810 C828 0.951 1_554 S
H811 C830 0.951 . S
H812 C832 0.950 . S
H813 C833 0.950 . S
H814 C835 0.950 . S
H815 C838 0.950 . S
H816 C839 0.950 . S
H817 C841 0.950 . S
H818 C842 0.950 . S
H819 C843 0.951 . S
H820 C845 0.951 . S
H821 C847 0.950 . S
H822 C848 0.950 . S
H823 C850 0.950 . S
H824 C853 0.950 . S
H825 C854 0.950 . S
H826 C856 0.950 . S
H827 C857 0.950 . S
C828 H810 0.951 1_556 S
C828 C829 1.366 . S
C828 C830 1.388 . S
C829 C828 1.366 . S
C829 C833 1.385 . S
C830 H811 0.951 . S
C830 C828 1.388 . S
C830 C831 1.366 . S
C831 C830 1.366 . S
C831 C832 1.414 . S
C831 C834 1.499 . S
C832 H812 0.950 . S
C832 C831 1.414 . S
C832 C833 1.374 . S
C833 H813 0.950 . S
C833 C829 1.385 . S
C833 C832 1.374 . S
C834 C831 1.499 . S
C834 C835 1.373 . S
C834 C836 1.389 . S
C835 H814 0.950 . S
C835 C834 1.373 . S
C835 C851 1.377 . S
C836 C834 1.389 . S
C836 C837 1.524 . S
C836 C850 1.377 . S
C837 C836 1.524 . S
C837 C838 1.397 . S
C837 C842 1.363 . S
C838 H815 0.950 . S
C838 C837 1.397 . S
C838 C839 1.334 . S
C839 H816 0.950 . S
C839 C838 1.334 . S
C839 C840 1.287 . S
C840 C839 1.287 . S
C840 C841 1.524 . S
C840 H859 0.913 . S
C841 H817 0.950 . S
C841 C840 1.524 . S
C841 C842 1.415 . S
C842 H818 0.950 . S
C842 C837 1.363 . S
C842 C841 1.415 . S
C843 H819 0.951 . S
C843 C844 1.366 . S
C843 C845 1.388 . S
C844 C843 1.366 . S
C844 C848 1.385 . S
C845 H820 0.951 . S
C845 C843 1.388 . S
C845 C846 1.366 . S
C846 C845 1.366 . S
C846 C847 1.414 . S
C846 C849 1.499 . S
C847 H821 0.950 . S
C847 C846 1.414 . S
C847 C848 1.374 . S
C848 H822 0.950 . S
C848 C844 1.385 . S
C848 C847 1.374 . S
C849 C846 1.499 . S
C849 C850 1.373 . S
C849 C851 1.389 . S
C850 H823 0.950 . S
C850 C836 1.377 . S
C850 C849 1.373 . S
C851 C835 1.377 . S
C851 C849 1.389 . S
C851 C852 1.524 . S
C852 C851 1.524 . S
C852 C853 1.397 . S
C852 C857 1.363 . S
C853 H824 0.950 . S
C853 C852 1.397 . S
C853 C854 1.334 . S
C854 H825 0.950 . S
C854 C853 1.334 . S
C854 C855 1.287 . S
C855 C854 1.287 . S
C855 C856 1.524 . S
C855 H858 0.999 . S
C856 H826 0.950 . S
C856 C855 1.524 . S
C856 C857 1.415 . S
C857 H827 0.950 . S
C857 C852 1.363 . S
C857 C856 1.415 . S
H858 C855 0.999 . S
H859 C840 0.913 . S
H860 C878 0.951 . S
H861 C880 0.951 . S
H862 C882 0.950 . S
H863 C883 0.950 1_554 S
H864 C885 0.950 . S
H865 C888 0.950 . S
H866 C889 0.950 . S
H867 C891 0.950 . S
H868 C892 0.950 . S
H869 C893 0.951 . S
H870 C895 0.951 . S
H871 C897 0.950 . S
H872 C898 0.950 . S
H873 C900 0.950 . S
H874 C903 0.950 . S
H875 C904 0.950 . S
H876 C906 0.950 . S
H877 C907 0.950 . S
C878 H860 0.951 . S
C878 C879 1.366 . S
C878 C880 1.388 . S
C879 C878 1.366 . S
C879 C883 1.385 . S
C880 H861 0.951 . S
C880 C878 1.388 . S
C880 C881 1.366 . S
C881 C880 1.366 . S
C881 C882 1.414 . S
C881 C884 1.499 . S
C882 H862 0.950 . S
C882 C881 1.414 . S
C882 C883 1.374 . S
C883 H863 0.950 1_556 S
C883 C879 1.385 . S
C883 C882 1.374 . S
C884 C881 1.499 . S
C884 C885 1.373 . S
C884 C886 1.389 . S
C885 H864 0.950 . S
C885 C884 1.373 . S
C885 C901 1.377 . S
C886 C884 1.389 . S
C886 C887 1.524 . S
C886 C900 1.377 . S
C887 C886 1.524 . S
C887 C888 1.397 . S
C887 C892 1.363 . S
C888 H865 0.950 . S
C888 C887 1.397 . S
C888 C889 1.334 . S
C889 H866 0.950 . S
C889 C888 1.334 . S
C889 C890 1.287 . S
C890 C889 1.287 . S
C890 C891 1.524 . S
C890 H909 0.913 . S
C891 H867 0.950 . S
C891 C890 1.524 . S
C891 C892 1.415 . S
C892 H868 0.950 . S
C892 C887 1.363 . S
C892 C891 1.415 . S
C893 H869 0.951 . S
C893 C894 1.366 . S
C893 C895 1.388 . S
C894 C893 1.366 . S
C894 C898 1.385 . S
C895 H870 0.951 . S
C895 C893 1.388 . S
C895 C896 1.366 . S
C896 C895 1.366 . S
C896 C897 1.414 . S
C896 C899 1.499 . S
C897 H871 0.950 . S
C897 C896 1.414 . S
C897 C898 1.374 . S
C898 H872 0.950 . S
C898 C894 1.385 . S
C898 C897 1.374 . S
C899 C896 1.499 . S
C899 C900 1.373 . S
C899 C901 1.389 . S
C900 H873 0.950 . S
C900 C886 1.377 . S
C900 C899 1.373 . S
C901 C885 1.377 . S
C901 C899 1.389 . S
C901 C902 1.524 . S
C902 C901 1.524 . S
C902 C903 1.397 . S
C902 C907 1.363 . S
C903 H874 0.950 . S
C903 C902 1.397 . S
C903 C904 1.334 . S
C904 H875 0.950 . S
C904 C903 1.334 . S
C904 C905 1.287 . S
C905 C904 1.287 . S
C905 C906 1.524 . S
C905 H908 0.999 . S
C906 H876 0.950 . S
C906 C905 1.524 . S
C906 C907 1.415 . S
C907 H877 0.950 . S
C907 C902 1.363 . S
C907 C906 1.415 . S
H908 C905 0.999 . S
H909 C890 0.913 . S
H910 C928 0.951 1_454 S
H911 C930 0.918 1_455 S
H912 C932 0.950 . S
H913 C933 0.950 . S
H914 C935 0.950 . S
H915 C938 0.950 . S
H916 C939 0.950 . S
H917 C941 0.950 . S
H918 C942 0.950 . S
H919 C943 0.951 . S
H920 C945 0.951 . S
H921 C947 0.950 . S
H922 C948 0.950 . S
H923 C950 0.950 . S
H924 C953 0.950 . S
H925 C954 0.950 . S
H926 C956 0.950 . S
H927 C957 0.950 . S
C928 H910 0.951 1_656 S
C928 C929 1.366 . S
C928 C930 1.396 . S
C929 C928 1.366 . S
C929 C933 1.385 . S
C930 H911 0.918 1_655 S
C930 C928 1.396 . S
C930 C931 1.392 . S
C931 C930 1.392 . S
C931 C932 1.414 . S
C931 C934 1.499 . S
C932 H912 0.950 . S
C932 C931 1.414 . S
C932 C933 1.374 . S
C933 H913 0.950 . S
C933 C929 1.385 . S
C933 C932 1.374 . S
C934 C931 1.499 . S
C934 C935 1.373 . S
C934 C936 1.389 1_655 S
C935 H914 0.950 . S
C935 C934 1.373 . S
C935 C951 1.377 . S
C936 C934 1.389 1_455 S
C936 C937 1.524 . S
C936 C950 1.377 . S
C937 C936 1.524 . S
C937 C938 1.397 . S
C937 C942 1.363 . S
C938 H915 0.950 . S
C938 C937 1.397 . S
C938 C939 1.334 . S
C939 H916 0.950 . S
C939 C938 1.334 . S
C939 C940 1.287 . S
C940 C939 1.287 . S
C940 C941 1.524 . S
C940 H959 0.913 . S
C941 H917 0.950 . S
C941 C940 1.524 . S
C941 C942 1.415 . S
C942 H918 0.950 . S
C942 C937 1.363 . S
C942 C941 1.415 . S
C943 H919 0.951 . S
C943 C944 1.366 1_655 S
C943 C945 1.388 . S
C944 C943 1.366 1_455 S
C944 C948 1.385 . S
C945 H920 0.951 . S
C945 C943 1.388 . S
C945 C946 1.366 . S
C946 C945 1.366 . S
C946 C947 1.414 1_655 S
C946 C949 1.499 . S
C947 H921 0.950 . S
C947 C946 1.414 1_455 S
C947 C948 1.374 . S
C948 H922 0.950 . S
C948 C944 1.385 . S
C948 C947 1.374 . S
C949 C946 1.499 . S
C949 C950 1.373 1_655 S
C949 C951 1.389 . S
C950 H923 0.950 . S
C950 C936 1.377 . S
C950 C949 1.373 1_455 S
C951 C935 1.377 . S
C951 C949 1.389 . S
C951 C952 1.524 . S
C952 C951 1.524 . S
C952 C953 1.397 . S
C952 C957 1.363 . S
C953 H924 0.950 . S
C953 C952 1.397 . S
C953 C954 1.334 . S
C954 H925 0.950 . S
C954 C953 1.334 . S
C954 C955 1.287 . S
C955 C954 1.287 . S
C955 C956 1.524 . S
C955 H958 0.999 . S
C956 H926 0.950 . S
C956 C955 1.524 . S
C956 C957 1.415 . S
C957 H927 0.950 . S
C957 C952 1.363 . S
C957 C956 1.415 . S
H958 C955 0.999 . S
H959 C940 0.913 . S
H960 C978 0.951 . S
H961 C980 0.951 1_655 S
H962 C982 0.950 . S
H963 C983 0.950 . S
H964 C985 0.950 . S
H965 C988 0.950 . S
H966 C989 0.950 . S
H967 C991 0.950 . S
H968 C992 0.950 . S
H969 C993 0.951 . S
H970 C995 0.951 . S
H971 C997 0.950 . S
H972 C998 0.950 . S
H973 C1000 0.950 1_655 S
H974 C1003 0.950 . S
H975 C1004 0.950 . S
H976 C1006 0.950 . S
H977 C1007 0.950 . S
C978 H960 0.951 . S
C978 C979 1.366 . S
C978 C980 1.388 . S
C979 C978 1.366 . S
C979 C983 1.385 . S
C980 H961 0.951 1_455 S
C980 C978 1.388 . S
C980 C981 1.366 . S
C981 C980 1.366 . S
C981 C982 1.414 . S
C981 C984 1.499 . S
C982 H962 0.950 . S
C982 C981 1.414 . S
C982 C983 1.374 . S
C983 H963 0.950 . S
C983 C979 1.385 . S
C983 C982 1.374 . S
C984 C981 1.499 . S
C984 C985 1.373 . S
C984 C986 1.389 . S
C985 H964 0.950 . S
C985 C984 1.373 . S
C985 C1001 1.377 . S
C986 C984 1.389 . S
C986 C987 1.524 1_455 S
C986 C1000 1.377 . S
C987 C986 1.524 1_655 S
C987 C988 1.397 1_655 S
C987 C992 1.363 . S
C988 H965 0.950 . S
C988 C987 1.397 1_455 S
C988 C989 1.334 . S
C989 H966 0.950 . S
C989 C988 1.334 . S
C989 C990 1.287 1_455 S
C990 C989 1.287 1_655 S
C990 C991 1.524 . S
C990 H1009 0.913 . S
C991 H967 0.950 . S
C991 C990 1.524 . S
C991 C992 1.415 . S
C992 H968 0.950 . S
C992 C987 1.363 . S
C992 C991 1.415 . S
C993 H969 0.951 . S
C993 C994 1.366 1_455 S
C993 C995 1.388 . S
C994 C993 1.366 1_655 S
C994 C998 1.385 . S
C995 H970 0.951 . S
C995 C993 1.388 . S
C995 C996 1.366 . S
C996 C995 1.366 . S
C996 C997 1.414 1_455 S
C996 C999 1.499 . S
C997 H971 0.950 . S
C997 C996 1.414 1_655 S
C997 C998 1.374 . S
C998 H972 0.950 . S
C998 C994 1.385 . S
C998 C997 1.374 . S
C999 C996 1.499 . S
C999 C1000 1.373 . S
C999 C1001 1.389 . S
C1000 H973 0.950 1_455 S
C1000 C986 1.377 . S
C1000 C999 1.373 . S
C1001 C985 1.377 . S
C1001 C999 1.389 . S
C1001 C1002 1.524 . S
C1002 C1001 1.524 . S
C1002 C1003 1.397 . S
C1002 C1007 1.363 . S
C1003 H974 0.950 . S
C1003 C1002 1.397 . S
C1003 C1004 1.334 . S
C1004 H975 0.950 . S
C1004 C1003 1.334 . S
C1004 C1005 1.287 . S
C1005 C1004 1.287 . S
C1005 C1006 1.524 . S
C1005 H1008 0.999 . S
C1006 H976 0.950 . S
C1006 C1005 1.524 . S
C1006 C1007 1.415 . S
C1007 H977 0.950 . S
C1007 C1002 1.363 . S
C1007 C1006 1.415 . S
H1008 C1005 0.999 . S
H1009 C990 0.913 . S
H1010 C1028 0.951 . S
H1011 C1030 0.951 . S
H1012 C1032 0.950 . S
H1013 C1033 0.950 . S
H1014 C1035 0.950 . S
H1015 C1038 0.950 . S
H1016 C1039 0.950 . S
H1017 C1041 0.950 . S
H1018 C1042 0.950 . S
H1019 C1043 0.951 . S
H1020 C1045 0.951 . S
H1021 C1047 0.950 . S
H1022 C1048 0.950 . S
H1023 C1050 0.950 . S
H1024 C1053 0.950 . S
H1025 C1054 0.950 . S
H1026 C1056 0.950 . S
H1027 C1057 0.950 . S
C1028 H1010 0.951 . S
C1028 C1029 1.366 . S
C1028 C1030 1.388 . S
C1029 C1028 1.366 . S
C1029 C1033 1.385 . S
C1030 H1011 0.951 . S
C1030 C1028 1.388 . S
C1030 C1031 1.366 . S
C1031 C1030 1.366 . S
C1031 C1032 1.414 . S
C1031 C1034 1.499 . S
C1032 H1012 0.950 . S
C1032 C1031 1.414 . S
C1032 C1033 1.374 . S
C1033 H1013 0.950 . S
C1033 C1029 1.385 . S
C1033 C1032 1.374 . S
C1034 C1031 1.499 . S
C1034 C1035 1.373 . S
C1034 C1036 1.389 . S
C1035 H1014 0.950 . S
C1035 C1034 1.373 . S
C1035 C1051 1.377 . S
C1036 C1034 1.389 . S
C1036 C1037 1.524 . S
C1036 C1050 1.377 . S
C1037 C1036 1.524 . S
C1037 C1038 1.397 . S
C1037 C1042 1.363 . S
C1038 H1015 0.950 . S
C1038 C1037 1.397 . S
C1038 C1039 1.334 . S
C1039 H1016 0.950 . S
C1039 C1038 1.334 . S
C1039 C1040 1.287 . S
C1040 C1039 1.287 . S
C1040 C1041 1.524 . S
C1040 H1059 0.913 . S
C1041 H1017 0.950 . S
C1041 C1040 1.524 . S
C1041 C1042 1.415 . S
C1042 H1018 0.950 . S
C1042 C1037 1.363 . S
C1042 C1041 1.415 . S
C1043 H1019 0.951 . S
C1043 C1044 1.366 . S
C1043 C1045 1.388 . S
C1044 C1043 1.366 . S
C1044 C1048 1.385 . S
C1045 H1020 0.951 . S
C1045 C1043 1.388 . S
C1045 C1046 1.366 . S
C1046 C1045 1.366 . S
C1046 C1047 1.414 . S
C1046 C1049 1.499 . S
C1047 H1021 0.950 . S
C1047 C1046 1.414 . S
C1047 C1048 1.374 . S
C1048 H1022 0.950 . S
C1048 C1044 1.385 . S
C1048 C1047 1.374 . S
C1049 C1046 1.499 . S
C1049 C1050 1.373 . S
C1049 C1051 1.389 . S
C1050 H1023 0.950 . S
C1050 C1036 1.377 . S
C1050 C1049 1.373 . S
C1051 C1035 1.377 . S
C1051 C1049 1.389 . S
C1051 C1052 1.524 1_545 S
C1052 C1051 1.524 1_565 S
C1052 C1053 1.397 . S
C1052 C1057 1.363 . S
C1053 H1024 0.950 . S
C1053 C1052 1.397 . S
C1053 C1054 1.334 . S
C1054 H1025 0.950 . S
C1054 C1053 1.334 . S
C1054 C1055 1.287 . S
C1055 C1054 1.287 . S
C1055 C1056 1.524 . S
C1055 H1058 0.999 . S
C1056 H1026 0.950 . S
C1056 C1055 1.524 . S
C1056 C1057 1.415 . S
C1057 H1027 0.950 . S
C1057 C1052 1.363 . S
C1057 C1056 1.415 . S
H1058 C1055 0.999 . S
H1059 C1040 0.913 . S
H1060 C1078 0.951 . S
H1061 C1080 0.951 . S
H1062 C1082 0.950 . S
H1063 C1083 0.950 . S
H1064 C1085 0.950 . S
H1065 C1088 0.950 . S
H1066 C1089 0.950 . S
H1067 C1091 0.950 . S
H1068 C1092 0.950 . S
H1069 C1093 0.951 . S
H1070 C1095 0.951 . S
H1071 C1097 0.950 . S
H1072 C1098 0.950 . S
H1073 C1100 0.950 . S
H1074 C1103 0.950 . S
H1075 C1104 0.950 . S
H1076 C1106 0.950 . S
H1077 C1107 0.950 . S
C1078 H1060 0.951 . S
C1078 C1079 1.366 . S
C1078 C1080 1.388 . S
C1079 C1078 1.366 . S
C1079 C1083 1.385 . S
C1080 H1061 0.951 . S
C1080 C1078 1.388 . S
C1080 C1081 1.366 . S
C1081 C1080 1.366 . S
C1081 C1082 1.414 . S
C1081 C1084 1.499 . S
C1082 H1062 0.950 . S
C1082 C1081 1.414 . S
C1082 C1083 1.374 . S
C1083 H1063 0.950 . S
C1083 C1079 1.385 . S
C1083 C1082 1.374 . S
C1084 C1081 1.499 . S
C1084 C1085 1.373 . S
C1084 C1086 1.389 . S
C1085 H1064 0.950 . S
C1085 C1084 1.373 . S
C1085 C1101 1.377 . S
C1086 C1084 1.389 . S
C1086 C1087 1.524 . S
C1086 C1100 1.377 . S
C1087 C1086 1.524 . S
C1087 C1088 1.397 . S
C1087 C1092 1.363 . S
C1088 H1065 0.950 . S
C1088 C1087 1.397 . S
C1088 C1089 1.334 . S
C1089 H1066 0.950 . S
C1089 C1088 1.334 . S
C1089 C1090 1.287 . S
C1090 C1089 1.287 . S
C1090 C1091 1.524 . S
C1090 H1109 0.913 . S
C1091 H1067 0.950 . S
C1091 C1090 1.524 . S
C1091 C1092 1.415 . S
C1092 H1068 0.950 . S
C1092 C1087 1.363 . S
C1092 C1091 1.415 . S
C1093 H1069 0.951 . S
C1093 C1094 1.366 . S
C1093 C1095 1.388 . S
C1094 C1093 1.366 . S
C1094 C1098 1.385 . S
C1095 H1070 0.951 . S
C1095 C1093 1.388 . S
C1095 C1096 1.366 . S
C1096 C1095 1.366 . S
C1096 C1097 1.414 . S
C1096 C1099 1.499 . S
C1097 H1071 0.950 . S
C1097 C1096 1.414 . S
C1097 C1098 1.374 . S
C1098 H1072 0.950 . S
C1098 C1094 1.385 . S
C1098 C1097 1.374 . S
C1099 C1096 1.499 . S
C1099 C1100 1.373 . S
C1099 C1101 1.389 . S
C1100 H1073 0.950 . S
C1100 C1086 1.377 . S
C1100 C1099 1.373 . S
C1101 C1085 1.377 . S
C1101 C1099 1.389 . S
C1101 C1102 1.524 . S
C1102 C1101 1.524 . S
C1102 C1103 1.397 . S
C1102 C1107 1.363 . S
C1103 H1074 0.950 . S
C1103 C1102 1.397 . S
C1103 C1104 1.334 . S
C1104 H1075 0.950 . S
C1104 C1103 1.334 . S
C1104 C1105 1.287 . S
C1105 C1104 1.287 . S
C1105 C1106 1.524 . S
C1105 H1108 0.999 . S
C1106 H1076 0.950 . S
C1106 C1105 1.524 . S
C1106 C1107 1.415 . S
C1107 H1077 0.950 . S
C1107 C1102 1.363 . S
C1107 C1106 1.415 . S
H1108 C1105 0.999 . S
H1109 C1090 0.913 . S
H1110 C1128 0.951 . S
H1111 C1130 0.951 . S
H1112 C1132 0.950 . S
H1113 C1133 0.950 . S
H1114 C1135 0.950 . S
H1115 C1138 0.950 . S
H1116 C1139 0.950 . S
H1117 C1141 0.950 . S
H1118 C1142 0.950 . S
H1119 C1143 0.951 . S
H1120 C1145 0.951 . S
H1121 C1147 0.950 . S
H1122 C1148 0.950 . S
H1123 C1150 0.950 . S
H1124 C1153 0.950 . S
H1125 C1154 0.950 . S
H1126 C1156 0.950 . S
H1127 C1157 0.950 . S
C1128 H1110 0.951 . S
C1128 C1129 1.366 . S
C1128 C1130 1.388 . S
C1129 C1128 1.366 . S
C1129 C1133 1.385 . S
C1130 H1111 0.951 . S
C1130 C1128 1.388 . S
C1130 C1131 1.366 . S
C1131 C1130 1.366 . S
C1131 C1132 1.414 . S
C1131 C1134 1.499 . S
C1132 H1112 0.950 . S
C1132 C1131 1.414 . S
C1132 C1133 1.374 . S
C1133 H1113 0.950 . S
C1133 C1129 1.385 . S
C1133 C1132 1.374 . S
C1134 C1131 1.499 . S
C1134 C1135 1.373 . S
C1134 C1136 1.389 . S
C1135 H1114 0.950 . S
C1135 C1134 1.373 . S
C1135 C1151 1.377 . S
C1136 C1134 1.389 . S
C1136 C1137 1.524 . S
C1136 C1150 1.377 . S
C1137 C1136 1.524 . S
C1137 C1138 1.397 . S
C1137 C1142 1.363 . S
C1138 H1115 0.950 . S
C1138 C1137 1.397 . S
C1138 C1139 1.334 . S
C1139 H1116 0.950 . S
C1139 C1138 1.334 . S
C1139 C1140 1.287 . S
C1140 C1139 1.287 . S
C1140 C1141 1.524 . S
C1140 H1159 0.913 . S
C1141 H1117 0.950 . S
C1141 C1140 1.524 . S
C1141 C1142 1.415 . S
C1142 H1118 0.950 . S
C1142 C1137 1.363 . S
C1142 C1141 1.415 . S
C1143 H1119 0.951 . S
C1143 C1144 1.366 . S
C1143 C1145 1.388 . S
C1144 C1143 1.366 . S
C1144 C1148 1.385 . S
C1145 H1120 0.951 . S
C1145 C1143 1.388 . S
C1145 C1146 1.366 . S
C1146 C1145 1.366 . S
C1146 C1147 1.414 . S
C1146 C1149 1.499 . S
C1147 H1121 0.950 . S
C1147 C1146 1.414 . S
C1147 C1148 1.374 . S
C1148 H1122 0.950 . S
C1148 C1144 1.385 . S
C1148 C1147 1.374 . S
C1149 C1146 1.499 . S
C1149 C1150 1.373 . S
C1149 C1151 1.389 . S
C1150 H1123 0.950 . S
C1150 C1136 1.377 . S
C1150 C1149 1.373 . S
C1151 C1135 1.377 . S
C1151 C1149 1.389 . S
C1151 C1152 1.524 . S
C1152 C1151 1.524 . S
C1152 C1153 1.397 . S
C1152 C1157 1.363 . S
C1153 H1124 0.950 . S
C1153 C1152 1.397 . S
C1153 C1154 1.334 . S
C1154 H1125 0.950 . S
C1154 C1153 1.334 . S
C1154 C1155 1.287 . S
C1155 C1154 1.287 . S
C1155 C1156 1.524 . S
C1155 H1158 0.999 . S
C1156 H1126 0.950 . S
C1156 C1155 1.524 . S
C1156 C1157 1.415 . S
C1157 H1127 0.950 . S
C1157 C1152 1.363 . S
C1157 C1156 1.415 . S
H1158 C1155 0.999 . S
H1159 C1140 0.913 . S
H1160 C1178 0.951 . S
H1161 C1180 0.951 . S
H1162 C1182 0.950 . S
H1163 C1183 0.946 . S
H1164 C1185 0.950 . S
H1165 C1188 0.950 . S
H1166 C1189 0.950 . S
H1167 C1191 0.950 . S
H1168 C1192 0.950 . S
H1169 C1193 0.951 . S
H1170 C1195 0.951 . S
H1171 C1197 0.950 . S
H1172 C1198 0.950 . S
H1173 C1200 0.950 . S
H1174 C1203 0.950 . S
H1175 C1204 0.950 . S
H1176 C1206 0.950 . S
H1177 C1207 0.950 . S
C1178 H1160 0.951 . S
C1178 C1179 1.366 . S
C1178 C1180 1.388 . S
C1179 C1178 1.366 . S
C1179 C1183 1.390 1_655 S
C1180 H1161 0.951 . S
C1180 C1178 1.388 . S
C1180 C1181 1.366 . S
C1181 C1180 1.366 . S
C1181 C1182 1.414 1_655 S
C1181 C1184 1.499 . S
C1182 H1162 0.950 . S
C1182 C1181 1.414 1_455 S
C1182 C1183 1.373 . S
C1183 H1163 0.946 . S
C1183 C1179 1.390 1_455 S
C1183 C1182 1.373 . S
C1184 C1181 1.499 . S
C1184 C1185 1.373 1_655 S
C1184 C1186 1.389 . S
C1185 H1164 0.950 . S
C1185 C1184 1.373 1_455 S
C1185 C1201 1.377 . S
C1186 C1184 1.389 . S
C1186 C1187 1.524 . S
C1186 C1200 1.377 . S
C1187 C1186 1.524 . S
C1187 C1188 1.397 . S
C1187 C1192 1.363 . S
C1188 H1165 0.950 . S
C1188 C1187 1.397 . S
C1188 C1189 1.334 . S
C1189 H1166 0.950 . S
C1189 C1188 1.334 . S
C1189 C1190 1.287 . S
C1190 C1189 1.287 . S
C1190 C1191 1.524 . S
C1190 H1209 0.913 . S
C1191 H1167 0.950 . S
C1191 C1190 1.524 . S
C1191 C1192 1.415 . S
C1192 H1168 0.950 . S
C1192 C1187 1.363 . S
C1192 C1191 1.415 . S
C1193 H1169 0.951 . S
C1193 C1194 1.366 . S
C1193 C1195 1.388 . S
C1194 C1193 1.366 . S
C1194 C1198 1.385 1_455 S
C1195 H1170 0.951 . S
C1195 C1193 1.388 . S
C1195 C1196 1.366 . S
C1196 C1195 1.366 . S
C1196 C1197 1.414 1_455 S
C1196 C1199 1.503 . S
C1197 H1171 0.950 . S
C1197 C1196 1.414 1_655 S
C1197 C1198 1.374 . S
C1198 H1172 0.950 . S
C1198 C1194 1.385 1_655 S
C1198 C1197 1.374 . S
C1199 C1196 1.503 . S
C1199 C1200 1.360 1_455 S
C1199 C1201 1.399 . S
C1200 H1173 0.950 . S
C1200 C1186 1.377 . S
C1200 C1199 1.360 1_655 S
C1201 C1185 1.377 . S
C1201 C1199 1.399 . S
C1201 C1202 1.524 . S
C1202 C1201 1.524 . S
C1202 C1203 1.397 . S
C1202 C1207 1.363 . S
C1203 H1174 0.950 . S
C1203 C1202 1.397 . S
C1203 C1204 1.334 . S
C1204 H1175 0.950 . S
C1204 C1203 1.334 . S
C1204 C1205 1.287 . S
C1205 C1204 1.287 . S
C1205 C1206 1.524 . S
C1205 H1208 0.999 . S
C1206 H1176 0.950 . S
C1206 C1205 1.524 . S
C1206 C1207 1.415 . S
C1207 H1177 0.950 . S
C1207 C1202 1.363 . S
C1207 C1206 1.415 . S
H1208 C1205 0.999 . S
H1209 C1190 0.913 . S
H1210 C1228 0.951 . S
H1211 C1230 0.951 . S
H1212 C1232 0.950 1_545 S
H1213 C1233 0.950 . S
H1214 C1235 0.950 . S
H1215 C1238 0.950 . S
H1216 C1239 0.950 . S
H1217 C1241 0.950 . S
H1218 C1242 0.950 . S
H1219 C1243 0.951 . S
H1220 C1245 0.951 . S
H1221 C1247 0.950 . S
H1222 C1248 0.950 . S
H1223 C1250 0.950 . S
H1224 C1253 0.950 . S
H1225 C1254 0.950 . S
H1226 C1256 0.950 . S
H1227 C1257 0.950 . S
C1228 H1210 0.951 . S
C1228 C1229 1.366 . S
C1228 C1230 1.388 . S
C1229 C1228 1.366 . S
C1229 C1233 1.385 . S
C1230 H1211 0.951 . S
C1230 C1228 1.388 . S
C1230 C1231 1.366 . S
C1231 C1230 1.366 . S
C1231 C1232 1.414 . S
C1231 C1234 1.499 . S
C1232 H1212 0.950 1_565 S
C1232 C1231 1.414 . S
C1232 C1233 1.374 . S
C1233 H1213 0.950 . S
C1233 C1229 1.385 . S
C1233 C1232 1.374 . S
C1234 C1231 1.499 . S
C1234 C1235 1.373 . S
C1234 C1236 1.389 . S
C1235 H1214 0.950 . S
C1235 C1234 1.373 . S
C1235 C1251 1.377 . S
C1236 C1234 1.389 . S
C1236 C1237 1.524 . S
C1236 C1250 1.377 . S
C1237 C1236 1.524 . S
C1237 C1238 1.397 1_565 S
C1237 C1242 1.363 . S
C1238 H1215 0.950 . S
C1238 C1237 1.397 1_545 S
C1238 C1239 1.334 . S
C1239 H1216 0.950 . S
C1239 C1238 1.334 . S
C1239 C1240 1.287 1_545 S
C1240 C1239 1.287 1_565 S
C1240 C1241 1.524 . S
C1240 H1259 0.913 . S
C1241 H1217 0.950 . S
C1241 C1240 1.524 . S
C1241 C1242 1.415 . S
C1242 H1218 0.950 . S
C1242 C1237 1.363 . S
C1242 C1241 1.415 . S
C1243 H1219 0.951 . S
C1243 C1244 1.366 . S
C1243 C1245 1.388 . S
C1244 C1243 1.366 . S
C1244 C1248 1.385 1_545 S
C1245 H1220 0.951 . S
C1245 C1243 1.388 . S
C1245 C1246 1.366 . S
C1246 C1245 1.366 . S
C1246 C1247 1.414 1_545 S
C1246 C1249 1.499 1_545 S
C1247 H1221 0.950 . S
C1247 C1246 1.414 1_565 S
C1247 C1248 1.374 . S
C1248 H1222 0.950 . S
C1248 C1244 1.385 1_565 S
C1248 C1247 1.374 . S
C1249 C1246 1.499 1_565 S
C1249 C1250 1.373 . S
C1249 C1251 1.389 . S
C1250 H1223 0.950 . S
C1250 C1236 1.377 . S
C1250 C1249 1.373 . S
C1251 C1235 1.377 . S
C1251 C1249 1.389 . S
C1251 C1252 1.524 . S
C1252 C1251 1.524 . S
C1252 C1253 1.397 . S
C1252 C1257 1.363 1_565 S
C1253 H1224 0.950 . S
C1253 C1252 1.397 . S
C1253 C1254 1.334 . S
C1254 H1225 0.950 . S
C1254 C1253 1.334 . S
C1254 C1255 1.287 . S
C1255 C1254 1.287 . S
C1255 C1256 1.524 1_565 S
C1255 H1258 0.999 . S
C1256 H1226 0.950 . S
C1256 C1255 1.524 1_545 S
C1256 C1257 1.415 . S
C1257 H1227 0.950 . S
C1257 C1252 1.363 1_545 S
C1257 C1256 1.415 . S
H1258 C1255 0.999 . S
H1259 C1240 0.913 . S
H1260 C1278 0.951 . S
H1261 C1280 0.951 . S
H1262 C1282 0.950 . S
H1263 C1283 0.950 . S
H1264 C1285 0.950 . S
H1265 C1288 0.950 . S
H1266 C1289 0.950 . S
H1267 C1291 0.950 . S
H1268 C1292 0.950 . S
H1269 C1293 0.951 . S
H1270 C1295 0.951 . S
H1271 C1297 0.950 . S
H1272 C1298 0.950 . S
H1273 C1300 0.950 . S
H1274 C1303 0.950 . S
H1275 C1304 0.950 . S
H1276 C1306 0.950 . S
H1277 C1307 0.950 . S
C1278 H1260 0.951 . S
C1278 C1279 1.366 . S
C1278 C1280 1.388 . S
C1279 C1278 1.366 . S
C1279 C1283 1.385 . S
C1280 H1261 0.951 . S
C1280 C1278 1.388 . S
C1280 C1281 1.366 . S
C1281 C1280 1.366 . S
C1281 C1282 1.414 . S
C1281 C1284 1.499 . S
C1282 H1262 0.950 . S
C1282 C1281 1.414 . S
C1282 C1283 1.374 . S
C1283 H1263 0.950 . S
C1283 C1279 1.385 . S
C1283 C1282 1.374 . S
C1284 C1281 1.499 . S
C1284 C1285 1.373 . S
C1284 C1286 1.389 . S
C1285 H1264 0.950 . S
C1285 C1284 1.373 . S
C1285 C1301 1.377 . S
C1286 C1284 1.389 . S
C1286 C1287 1.524 . S
C1286 C1300 1.377 . S
C1287 C1286 1.524 . S
C1287 C1288 1.397 . S
C1287 C1292 1.363 . S
C1288 H1265 0.950 . S
C1288 C1287 1.397 . S
C1288 C1289 1.334 . S
C1289 H1266 0.950 . S
C1289 C1288 1.334 . S
C1289 C1290 1.287 . S
C1290 C1289 1.287 . S
C1290 C1291 1.524 . S
C1290 H1309 0.913 . S
C1291 H1267 0.950 . S
C1291 C1290 1.524 . S
C1291 C1292 1.415 . S
C1292 H1268 0.950 . S
C1292 C1287 1.363 . S
C1292 C1291 1.415 . S
C1293 H1269 0.951 . S
C1293 C1294 1.366 . S
C1293 C1295 1.388 . S
C1294 C1293 1.366 . S
C1294 C1298 1.385 . S
C1295 H1270 0.951 . S
C1295 C1293 1.388 . S
C1295 C1296 1.366 . S
C1296 C1295 1.366 . S
C1296 C1297 1.414 . S
C1296 C1299 1.499 . S
C1297 H1271 0.950 . S
C1297 C1296 1.414 . S
C1297 C1298 1.374 . S
C1298 H1272 0.950 . S
C1298 C1294 1.385 . S
C1298 C1297 1.374 . S
C1299 C1296 1.499 . S
C1299 C1300 1.373 . S
C1299 C1301 1.389 . S
C1300 H1273 0.950 . S
C1300 C1286 1.377 . S
C1300 C1299 1.373 . S
C1301 C1285 1.377 . S
C1301 C1299 1.389 . S
C1301 C1302 1.524 . S
C1302 C1301 1.524 . S
C1302 C1303 1.397 . S
C1302 C1307 1.363 . S
C1303 H1274 0.950 . S
C1303 C1302 1.397 . S
C1303 C1304 1.334 . S
C1304 H1275 0.950 . S
C1304 C1303 1.334 . S
C1304 C1305 1.287 . S
C1305 C1304 1.287 . S
C1305 C1306 1.524 . S
C1305 H1308 0.999 . S
C1306 H1276 0.950 . S
C1306 C1305 1.524 . S
C1306 C1307 1.415 . S
C1307 H1277 0.950 . S
C1307 C1302 1.363 . S
C1307 C1306 1.415 . S
H1308 C1305 0.999 . S
H1309 C1290 0.913 . S
H1310 C1328 0.951 . S
H1311 C1330 0.951 . S
H1312 C1332 0.950 . S
H1313 C1333 0.950 . S
H1314 C1335 0.950 . S
H1315 C1338 0.950 . S
H1316 C1339 0.950 . S
H1317 C1341 0.950 . S
H1318 C1342 0.950 . S
H1319 C1343 0.951 . S
H1320 C1345 0.951 . S
H1321 C1347 0.950 . S
H1322 C1348 0.950 . S
H1323 C1350 0.950 . S
H1324 C1353 0.950 . S
H1325 C1354 0.950 . S
H1326 C1356 0.950 . S
H1327 C1357 0.950 . S
C1328 H1310 0.951 . S
C1328 C1329 1.366 . S
C1328 C1330 1.388 . S
C1329 C1328 1.366 . S
C1329 C1333 1.385 . S
C1330 H1311 0.951 . S
C1330 C1328 1.388 . S
C1330 C1331 1.366 . S
C1331 C1330 1.366 . S
C1331 C1332 1.414 . S
C1331 C1334 1.499 . S
C1332 H1312 0.950 . S
C1332 C1331 1.414 . S
C1332 C1333 1.374 . S
C1333 H1313 0.950 . S
C1333 C1329 1.385 . S
C1333 C1332 1.374 . S
C1334 C1331 1.499 . S
C1334 C1335 1.373 . S
C1334 C1336 1.389 . S
C1335 H1314 0.950 . S
C1335 C1334 1.373 . S
C1335 C1351 1.377 . S
C1336 C1334 1.389 . S
C1336 C1337 1.524 . S
C1336 C1350 1.377 . S
C1337 C1336 1.524 . S
C1337 C1338 1.397 . S
C1337 C1342 1.363 . S
C1338 H1315 0.950 . S
C1338 C1337 1.397 . S
C1338 C1339 1.334 . S
C1339 H1316 0.950 . S
C1339 C1338 1.334 . S
C1339 C1340 1.287 . S
C1340 C1339 1.287 . S
C1340 C1341 1.524 . S
C1340 H1359 0.913 . S
C1341 H1317 0.950 . S
C1341 C1340 1.524 . S
C1341 C1342 1.415 . S
C1342 H1318 0.950 . S
C1342 C1337 1.363 . S
C1342 C1341 1.415 . S
C1343 H1319 0.951 . S
C1343 C1344 1.366 . S
C1343 C1345 1.388 . S
C1344 C1343 1.366 . S
C1344 C1348 1.385 . S
C1345 H1320 0.951 . S
C1345 C1343 1.388 . S
C1345 C1346 1.366 . S
C1346 C1345 1.366 . S
C1346 C1347 1.414 . S
C1346 C1349 1.499 . S
C1347 H1321 0.950 . S
C1347 C1346 1.414 . S
C1347 C1348 1.374 . S
C1348 H1322 0.950 . S
C1348 C1344 1.385 . S
C1348 C1347 1.374 . S
C1349 C1346 1.499 . S
C1349 C1350 1.373 . S
C1349 C1351 1.389 . S
C1350 H1323 0.950 . S
C1350 C1336 1.377 . S
C1350 C1349 1.373 . S
C1351 C1335 1.377 . S
C1351 C1349 1.389 . S
C1351 C1352 1.524 . S
C1352 C1351 1.524 . S
C1352 C1353 1.397 . S
C1352 C1357 1.363 . S
C1353 H1324 0.950 . S
C1353 C1352 1.397 . S
C1353 C1354 1.334 . S
C1354 H1325 0.950 . S
C1354 C1353 1.334 . S
C1354 C1355 1.287 . S
C1355 C1354 1.287 . S
C1355 C1356 1.524 . S
C1355 H1358 0.999 . S
C1356 H1326 0.950 . S
C1356 C1355 1.524 . S
C1356 C1357 1.415 . S
C1357 H1327 0.950 . S
C1357 C1352 1.363 . S
C1357 C1356 1.415 . S
H1358 C1355 0.999 . S
H1359 C1340 0.913 . S
H1360 C1378 0.951 . S
H1361 C1380 0.951 . S
H1362 C1382 0.950 . S
H1363 C1383 0.950 . S
H1364 C1385 0.950 . S
H1365 C1388 0.950 . S
H1366 C1389 0.950 . S
H1367 C1391 0.954 . S
H1368 C1392 0.950 . S
H1369 C1393 0.951 . S
H1370 C1395 0.951 . S
H1371 C1397 0.950 . S
H1372 C1398 0.950 . S
H1373 C1400 0.950 . S
H1374 C1403 0.950 . S
H1375 C1404 0.950 . S
H1376 C1406 0.950 . S
H1377 C1407 0.950 . S
C1378 H1360 0.951 . S
C1378 C1379 1.366 . S
C1378 C1380 1.388 . S
C1379 C1378 1.366 . S
C1379 C1383 1.385 . S
C1380 H1361 0.951 . S
C1380 C1378 1.388 . S
C1380 C1381 1.366 . S
C1381 C1380 1.366 . S
C1381 C1382 1.414 . S
C1381 C1384 1.499 . S
C1382 H1362 0.950 . S
C1382 C1381 1.414 . S
C1382 C1383 1.374 . S
C1383 H1363 0.950 . S
C1383 C1379 1.385 . S
C1383 C1382 1.374 . S
C1384 C1381 1.499 . S
C1384 C1385 1.373 . S
C1384 C1386 1.389 . S
C1385 H1364 0.950 . S
C1385 C1384 1.373 . S
C1385 C1401 1.377 . S
C1386 C1384 1.389 . S
C1386 C1387 1.524 . S
C1386 C1400 1.377 . S
C1387 C1386 1.524 . S
C1387 C1388 1.397 . S
C1387 C1392 1.363 . S
C1388 H1365 0.950 . S
C1388 C1387 1.397 . S
C1388 C1389 1.334 . S
C1389 H1366 0.950 . S
C1389 C1388 1.334 . S
C1389 C1390 1.287 1_556 S
C1390 C1389 1.287 1_554 S
C1390 C1391 1.524 . S
C1390 H1409 0.913 . S
C1391 H1367 0.954 . S
C1391 C1390 1.524 . S
C1391 C1392 1.410 1_554 S
C1392 H1368 0.950 . S
C1392 C1387 1.363 . S
C1392 C1391 1.410 1_556 S
C1393 H1369 0.951 . S
C1393 C1394 1.366 . S
C1393 C1395 1.388 . S
C1394 C1393 1.366 . S
C1394 C1398 1.385 . S
C1395 H1370 0.951 . S
C1395 C1393 1.388 . S
C1395 C1396 1.366 . S
C1396 C1395 1.366 . S
C1396 C1397 1.414 . S
C1396 C1399 1.499 . S
C1397 H1371 0.950 . S
C1397 C1396 1.414 . S
C1397 C1398 1.374 . S
C1398 H1372 0.950 . S
C1398 C1394 1.385 . S
C1398 C1397 1.374 . S
C1399 C1396 1.499 . S
C1399 C1400 1.373 . S
C1399 C1401 1.389 . S
C1400 H1373 0.950 . S
C1400 C1386 1.377 . S
C1400 C1399 1.373 . S
C1401 C1385 1.377 . S
C1401 C1399 1.389 . S
C1401 C1402 1.524 . S
C1402 C1401 1.524 . S
C1402 C1403 1.397 1_455 S
C1402 C1407 1.363 . S
C1403 H1374 0.950 . S
C1403 C1402 1.397 1_655 S
C1403 C1404 1.334 . S
C1404 H1375 0.950 . S
C1404 C1403 1.334 . S
C1404 C1405 1.287 . S
C1405 C1404 1.287 . S
C1405 C1406 1.524 1_655 S
C1405 H1408 0.999 . S
C1406 H1376 0.950 . S
C1406 C1405 1.524 1_455 S
C1406 C1407 1.415 . S
C1407 H1377 0.950 . S
C1407 C1402 1.363 . S
C1407 C1406 1.415 . S
H1408 C1405 0.999 . S
H1409 C1390 0.913 . S
H1410 C1428 0.951 . S
H1411 C1430 0.951 . S
H1412 C1432 0.950 . S
H1413 C1433 0.950 . S
H1414 C1435 0.950 . S
H1415 C1438 0.950 . S
H1416 C1439 0.950 . S
H1417 C1441 0.950 . S
H1418 C1442 0.950 . S
H1419 C1443 0.951 . S
H1420 C1445 0.951 . S
H1421 C1447 0.950 . S
H1422 C1448 0.950 . S
H1423 C1450 0.950 . S
H1424 C1453 0.965 . S
H1425 C1454 0.950 . S
H1426 C1456 0.950 . S
H1427 C1457 0.950 . S
C1428 H1410 0.951 . S
C1428 C1429 1.366 . S
C1428 C1430 1.388 . S
C1429 C1428 1.366 . S
C1429 C1433 1.385 . S
C1430 H1411 0.951 . S
C1430 C1428 1.388 . S
C1430 C1431 1.366 . S
C1431 C1430 1.366 . S
C1431 C1432 1.414 . S
C1431 C1434 1.499 . S
C1432 H1412 0.950 . S
C1432 C1431 1.414 . S
C1432 C1433 1.374 . S
C1433 H1413 0.950 . S
C1433 C1429 1.385 . S
C1433 C1432 1.374 . S
C1434 C1431 1.499 . S
C1434 C1435 1.373 . S
C1434 C1436 1.389 . S
C1435 H1414 0.950 . S
C1435 C1434 1.373 . S
C1435 C1451 1.377 . S
C1436 C1434 1.389 . S
C1436 C1437 1.524 . S
C1436 C1450 1.377 . S
C1437 C1436 1.524 . S
C1437 C1438 1.397 . S
C1437 C1442 1.363 . S
C1438 H1415 0.950 . S
C1438 C1437 1.397 . S
C1438 C1439 1.334 . S
C1439 H1416 0.950 . S
C1439 C1438 1.334 . S
C1439 C1440 1.287 1_556 S
C1440 C1439 1.287 1_554 S
C1440 C1441 1.524 . S
C1440 H1459 0.913 . S
C1441 H1417 0.950 . S
C1441 C1440 1.524 . S
C1441 C1442 1.415 1_554 S
C1442 H1418 0.950 . S
C1442 C1437 1.363 . S
C1442 C1441 1.415 1_556 S
C1443 H1419 0.951 . S
C1443 C1444 1.366 . S
C1443 C1445 1.388 . S
C1444 C1443 1.366 . S
C1444 C1448 1.385 . S
C1445 H1420 0.951 . S
C1445 C1443 1.388 . S
C1445 C1446 1.366 . S
C1446 C1445 1.366 . S
C1446 C1447 1.414 . S
C1446 C1449 1.499 . S
C1447 H1421 0.950 . S
C1447 C1446 1.414 . S
C1447 C1448 1.374 . S
C1448 H1422 0.950 . S
C1448 C1444 1.385 . S
C1448 C1447 1.374 . S
C1449 C1446 1.499 . S
C1449 C1450 1.373 . S
C1449 C1451 1.389 . S
C1450 H1423 0.950 . S
C1450 C1436 1.377 . S
C1450 C1449 1.373 . S
C1451 C1435 1.377 . S
C1451 C1449 1.389 . S
C1451 C1452 1.524 . S
C1452 C1451 1.524 . S
C1452 C1453 1.367 1_545 S
C1452 C1457 1.363 . S
C1453 H1424 0.965 . S
C1453 C1452 1.367 1_565 S
C1453 C1454 1.350 . S
C1454 H1425 0.950 . S
C1454 C1453 1.350 . S
C1454 C1455 1.287 . S
C1455 C1454 1.287 . S
C1455 C1456 1.524 1_565 S
C1455 H1458 0.999 . S
C1456 H1426 0.950 . S
C1456 C1455 1.524 1_545 S
C1456 C1457 1.415 . S
C1457 H1427 0.950 . S
C1457 C1452 1.363 . S
C1457 C1456 1.415 . S
H1458 C1455 0.999 . S
H1459 C1440 0.913 . S
H1460 C1478 0.951 . S
H1461 C1480 0.951 . S
H1462 C1482 0.950 . S
H1463 C1483 0.950 . S
H1464 C1485 0.950 . S
H1465 C1488 0.950 . S
H1466 C1489 0.950 . S
H1467 C1491 0.950 . S
H1468 C1492 0.950 . S
H1469 C1493 0.951 . S
H1470 C1495 0.951 . S
H1471 C1497 0.950 . S
H1472 C1498 0.950 . S
H1473 C1500 0.950 . S
H1474 C1503 0.950 . S
H1475 C1504 0.950 . S
H1476 C1506 0.950 . S
H1477 C1507 0.950 . S
C1478 H1460 0.951 . S
C1478 C1479 1.366 . S
C1478 C1480 1.388 . S
C1479 C1478 1.366 . S
C1479 C1483 1.385 . S
C1480 H1461 0.951 . S
C1480 C1478 1.388 . S
C1480 C1481 1.366 . S
C1481 C1480 1.366 . S
C1481 C1482 1.414 . S
C1481 C1484 1.499 . S
C1482 H1462 0.950 . S
C1482 C1481 1.414 . S
C1482 C1483 1.374 . S
C1483 H1463 0.950 . S
C1483 C1479 1.385 . S
C1483 C1482 1.374 . S
C1484 C1481 1.499 . S
C1484 C1485 1.373 . S
C1484 C1486 1.389 . S
C1485 H1464 0.950 . S
C1485 C1484 1.373 . S
C1485 C1501 1.377 . S
C1486 C1484 1.389 . S
C1486 C1487 1.524 . S
C1486 C1500 1.377 . S
C1487 C1486 1.524 . S
C1487 C1488 1.397 . S
C1487 C1492 1.363 . S
C1488 H1465 0.950 . S
C1488 C1487 1.397 . S
C1488 C1489 1.334 . S
C1489 H1466 0.950 . S
C1489 C1488 1.334 . S
C1489 C1490 1.287 . S
C1490 C1489 1.287 . S
C1490 C1491 1.524 . S
C1490 H1509 0.913 . S
C1491 H1467 0.950 . S
C1491 C1490 1.524 . S
C1491 C1492 1.415 . S
C1492 H1468 0.950 . S
C1492 C1487 1.363 . S
C1492 C1491 1.415 . S
C1493 H1469 0.951 . S
C1493 C1494 1.366 . S
C1493 C1495 1.388 . S
C1494 C1493 1.366 . S
C1494 C1498 1.385 . S
C1495 H1470 0.951 . S
C1495 C1493 1.388 . S
C1495 C1496 1.366 . S
C1496 C1495 1.366 . S
C1496 C1497 1.414 . S
C1496 C1499 1.499 . S
C1497 H1471 0.950 . S
C1497 C1496 1.414 . S
C1497 C1498 1.374 . S
C1498 H1472 0.950 . S
C1498 C1494 1.385 . S
C1498 C1497 1.374 . S
C1499 C1496 1.499 . S
C1499 C1500 1.373 . S
C1499 C1501 1.389 . S
C1500 H1473 0.950 . S
C1500 C1486 1.377 . S
C1500 C1499 1.373 . S
C1501 C1485 1.377 . S
C1501 C1499 1.389 . S
C1501 C1502 1.524 . S
C1502 C1501 1.524 . S
C1502 C1503 1.397 . S
C1502 C1507 1.363 . S
C1503 H1474 0.950 . S
C1503 C1502 1.397 . S
C1503 C1504 1.334 . S
C1504 H1475 0.950 . S
C1504 C1503 1.334 . S
C1504 C1505 1.287 . S
C1505 C1504 1.287 . S
C1505 C1506 1.524 . S
C1505 H1508 0.999 . S
C1506 H1476 0.950 . S
C1506 C1505 1.524 . S
C1506 C1507 1.415 . S
C1507 H1477 0.950 . S
C1507 C1502 1.363 . S
C1507 C1506 1.415 . S
H1508 C1505 0.999 . S
H1509 C1490 0.913 . S
H1510 C1528 0.951 . S
H1511 C1530 0.951 . S
H1512 C1532 0.950 . S
H1513 C1533 0.950 . S
H1514 C1535 0.950 . S
H1515 C1538 0.950 . S
H1516 C1539 0.950 . S
H1517 C1541 0.950 . S
H1518 C1542 0.950 . S
H1519 C1543 0.951 . S
H1520 C1545 0.951 . S
H1521 C1547 0.950 . S
H1522 C1548 0.950 . S
H1523 C1550 0.950 . S
H1524 C1553 0.950 . S
H1525 C1554 0.950 . S
H1526 C1556 0.950 . S
H1527 C1557 0.950 . S
C1528 H1510 0.951 . S
C1528 C1529 1.366 . S
C1528 C1530 1.388 . S
C1529 C1528 1.366 . S
C1529 C1533 1.385 . S
C1530 H1511 0.951 . S
C1530 C1528 1.388 . S
C1530 C1531 1.366 . S
C1531 C1530 1.366 . S
C1531 C1532 1.414 . S
C1531 C1534 1.499 . S
C1532 H1512 0.950 . S
C1532 C1531 1.414 . S
C1532 C1533 1.374 . S
C1533 H1513 0.950 . S
C1533 C1529 1.385 . S
C1533 C1532 1.374 . S
C1534 C1531 1.499 . S
C1534 C1535 1.373 . S
C1534 C1536 1.389 . S
C1535 H1514 0.950 . S
C1535 C1534 1.373 . S
C1535 C1551 1.377 . S
C1536 C1534 1.389 . S
C1536 C1537 1.524 . S
C1536 C1550 1.377 . S
C1537 C1536 1.524 . S
C1537 C1538 1.397 . S
C1537 C1542 1.363 . S
C1538 H1515 0.950 . S
C1538 C1537 1.397 . S
C1538 C1539 1.334 . S
C1539 H1516 0.950 . S
C1539 C1538 1.334 . S
C1539 C1540 1.287 . S
C1540 C1539 1.287 . S
C1540 C1541 1.524 . S
C1540 H1559 0.913 . S
C1541 H1517 0.950 . S
C1541 C1540 1.524 . S
C1541 C1542 1.415 . S
C1542 H1518 0.950 . S
C1542 C1537 1.363 . S
C1542 C1541 1.415 . S
C1543 H1519 0.951 . S
C1543 C1544 1.366 . S
C1543 C1545 1.388 . S
C1544 C1543 1.366 . S
C1544 C1548 1.385 . S
C1545 H1520 0.951 . S
C1545 C1543 1.388 . S
C1545 C1546 1.366 . S
C1546 C1545 1.366 . S
C1546 C1547 1.414 . S
C1546 C1549 1.499 . S
C1547 H1521 0.950 . S
C1547 C1546 1.414 . S
C1547 C1548 1.374 . S
C1548 H1522 0.950 . S
C1548 C1544 1.385 . S
C1548 C1547 1.374 . S
C1549 C1546 1.499 . S
C1549 C1550 1.373 . S
C1549 C1551 1.389 . S
C1550 H1523 0.950 . S
C1550 C1536 1.377 . S
C1550 C1549 1.373 . S
C1551 C1535 1.377 . S
C1551 C1549 1.389 . S
C1551 C1552 1.524 . S
C1552 C1551 1.524 . S
C1552 C1553 1.397 . S
C1552 C1557 1.363 . S
C1553 H1524 0.950 . S
C1553 C1552 1.397 . S
C1553 C1554 1.334 . S
C1554 H1525 0.950 . S
C1554 C1553 1.334 . S
C1554 C1555 1.287 . S
C1555 C1554 1.287 . S
C1555 C1556 1.524 . S
C1555 H1558 0.999 . S
C1556 H1526 0.950 . S
C1556 C1555 1.524 . S
C1556 C1557 1.415 . S
C1557 H1527 0.950 . S
C1557 C1552 1.363 . S
C1557 C1556 1.415 . S
H1558 C1555 0.999 . S
H1559 C1540 0.913 . S
H1560 C1578 0.951 1_455 S
H1561 C1580 0.951 1_455 S
H1562 C1582 0.950 . S
H1563 C1583 0.950 . S
H1564 C1585 0.950 . S
H1565 C1588 0.950 . S
H1566 C1589 0.950 . S
H1567 C1591 0.950 . S
H1568 C1592 0.950 . S
H1569 C1593 0.951 . S
H1570 C1595 0.951 . S
H1571 C1597 0.950 . S
H1572 C1598 0.950 . S
H1573 C1600 0.950 . S
H1574 C1603 0.950 . S
H1575 C1604 0.950 . S
H1576 C1606 0.950 . S
H1577 C1607 0.950 . S
C1578 H1560 0.951 1_655 S
C1578 C1579 1.366 . S
C1578 C1580 1.388 . S
C1579 C1578 1.366 . S
C1579 C1583 1.385 . S
C1580 H1561 0.951 1_655 S
C1580 C1578 1.388 . S
C1580 C1581 1.366 . S
C1581 C1580 1.366 . S
C1581 C1582 1.414 . S
C1581 C1584 1.499 . S
C1582 H1562 0.950 . S
C1582 C1581 1.414 . S
C1582 C1583 1.374 . S
C1583 H1563 0.950 . S
C1583 C1579 1.385 . S
C1583 C1582 1.374 . S
C1584 C1581 1.499 . S
C1584 C1585 1.373 . S
C1584 C1586 1.389 1_655 S
C1585 H1564 0.950 . S
C1585 C1584 1.373 . S
C1585 C1601 1.377 . S
C1586 C1584 1.389 1_455 S
C1586 C1587 1.524 . S
C1586 C1600 1.377 . S
C1587 C1586 1.524 . S
C1587 C1588 1.397 . S
C1587 C1592 1.363 . S
C1588 H1565 0.950 . S
C1588 C1587 1.397 . S
C1588 C1589 1.334 . S
C1589 H1566 0.950 . S
C1589 C1588 1.334 . S
C1589 C1590 1.287 . S
C1590 C1589 1.287 . S
C1590 C1591 1.524 . S
C1590 H1609 0.913 . S
C1591 H1567 0.950 . S
C1591 C1590 1.524 . S
C1591 C1592 1.415 . S
C1592 H1568 0.950 . S
C1592 C1587 1.363 . S
C1592 C1591 1.415 . S
C1593 H1569 0.951 . S
C1593 C1594 1.366 . S
C1593 C1595 1.388 . S
C1594 C1593 1.366 . S
C1594 C1598 1.385 1_655 S
C1595 H1570 0.951 . S
C1595 C1593 1.388 . S
C1595 C1596 1.366 . S
C1596 C1595 1.366 . S
C1596 C1597 1.414 1_655 S
C1596 C1599 1.499 . S
C1597 H1571 0.950 . S
C1597 C1596 1.414 1_455 S
C1597 C1598 1.374 . S
C1598 H1572 0.950 . S
C1598 C1594 1.385 1_455 S
C1598 C1597 1.374 . S
C1599 C1596 1.499 . S
C1599 C1600 1.373 1_655 S
C1599 C1601 1.389 . S
C1600 H1573 0.950 . S
C1600 C1586 1.377 . S
C1600 C1599 1.373 1_455 S
C1601 C1585 1.377 . S
C1601 C1599 1.389 . S
C1601 C1602 1.524 . S
C1602 C1601 1.524 . S
C1602 C1603 1.397 . S
C1602 C1607 1.363 . S
C1603 H1574 0.950 . S
C1603 C1602 1.397 . S
C1603 C1604 1.334 . S
C1604 H1575 0.950 . S
C1604 C1603 1.334 . S
C1604 C1605 1.287 . S
C1605 C1604 1.287 . S
C1605 C1606 1.524 . S
C1605 H1608 0.999 . S
C1606 H1576 0.950 . S
C1606 C1605 1.524 . S
C1606 C1607 1.415 . S
C1607 H1577 0.950 . S
C1607 C1602 1.363 . S
C1607 C1606 1.415 . S
H1608 C1605 0.999 . S
H1609 C1590 0.913 . S
H1610 C1628 0.951 . S
H1611 C1630 0.951 . S
H1612 C1632 0.950 . S
H1613 C1633 0.950 . S
H1614 C1635 0.950 . S
H1615 C1638 0.950 . S
H1616 C1639 0.950 . S
H1617 C1641 0.950 . S
H1618 C1642 0.950 . S
H1619 C1643 0.979 . S
H1620 C1645 0.951 1_545 S
H1621 C1647 0.950 . S
H1622 C1648 0.950 . S
H1623 C1650 0.950 . S
H1624 C1653 0.950 . S
H1625 C1654 0.950 . S
H1626 C1656 0.950 . S
H1627 C1657 0.950 . S
C1628 H1610 0.951 . S
C1628 C1629 1.366 . S
C1628 C1630 1.388 . S
C1629 C1628 1.366 . S
C1629 C1633 1.385 . S
C1630 H1611 0.951 . S
C1630 C1628 1.388 . S
C1630 C1631 1.366 . S
C1631 C1630 1.366 . S
C1631 C1632 1.414 . S
C1631 C1634 1.499 . S
C1632 H1612 0.950 . S
C1632 C1631 1.414 . S
C1632 C1633 1.374 . S
C1633 H1613 0.950 . S
C1633 C1629 1.385 . S
C1633 C1632 1.374 . S
C1634 C1631 1.499 . S
C1634 C1635 1.373 . S
C1634 C1636 1.389 . S
C1635 H1614 0.950 . S
C1635 C1634 1.373 . S
C1635 C1651 1.377 . S
C1636 C1634 1.389 . S
C1636 C1637 1.524 . S
C1636 C1650 1.377 . S
C1637 C1636 1.524 . S
C1637 C1638 1.397 1_565 S
C1637 C1642 1.363 . S
C1638 H1615 0.950 . S
C1638 C1637 1.397 1_545 S
C1638 C1639 1.334 . S
C1639 H1616 0.950 . S
C1639 C1638 1.334 . S
C1639 C1640 1.284 1_545 S
C1640 C1639 1.284 1_565 S
C1640 C1641 1.528 . S
C1640 H1659 0.912 1_565 S
C1641 H1617 0.950 . S
C1641 C1640 1.528 . S
C1641 C1642 1.415 . S
C1642 H1618 0.950 . S
C1642 C1637 1.363 . S
C1642 C1641 1.415 . S
C1643 H1619 0.979 . S
C1643 C1644 1.344 1_545 S
C1643 C1645 1.384 1_545 S
C1644 C1643 1.344 1_565 S
C1644 C1648 1.385 . S
C1645 H1620 0.951 1_565 S
C1645 C1643 1.384 1_565 S
C1645 C1646 1.366 . S
C1646 C1645 1.366 . S
C1646 C1647 1.414 . S
C1646 C1649 1.499 . S
C1647 H1621 0.950 . S
C1647 C1646 1.414 . S
C1647 C1648 1.374 . S
C1648 H1622 0.950 . S
C1648 C1644 1.385 . S
C1648 C1647 1.374 . S
C1649 C1646 1.499 . S
C1649 C1650 1.373 . S
C1649 C1651 1.389 . S
C1650 H1623 0.950 . S
C1650 C1636 1.377 . S
C1650 C1649 1.373 . S
C1651 C1635 1.377 . S
C1651 C1649 1.389 . S
C1651 C1652 1.524 . S
C1652 C1651 1.524 . S
C1652 C1653 1.397 . S
C1652 C1657 1.363 . S
C1653 H1624 0.950 . S
C1653 C1652 1.397 . S
C1653 C1654 1.334 . S
C1654 H1625 0.950 . S
C1654 C1653 1.334 . S
C1654 C1655 1.287 . S
C1655 C1654 1.287 . S
C1655 C1656 1.524 . S
C1655 H1658 0.999 . S
C1656 H1626 0.950 . S
C1656 C1655 1.524 . S
C1656 C1657 1.415 . S
C1657 H1627 0.950 . S
C1657 C1652 1.363 . S
C1657 C1656 1.415 . S
H1658 C1655 0.999 . S
H1659 C1640 0.912 1_545 S
H1660 C1678 0.951 . S
H1661 C1680 0.951 . S
H1662 C1682 0.950 . S
H1663 C1683 0.950 . S
H1664 C1685 0.950 . S
H1665 C1688 0.950 . S
H1666 C1689 0.950 . S
H1667 C1691 0.950 . S
H1668 C1692 0.950 . S
H1669 C1693 0.951 . S
H1670 C1695 0.951 . S
H1671 C1697 0.950 . S
H1672 C1698 0.950 . S
H1673 C1700 0.950 . S
H1674 C1703 0.950 . S
H1675 C1704 0.950 . S
H1676 C1706 0.950 . S
H1677 C1707 0.950 . S
C1678 H1660 0.951 . S
C1678 C1679 1.366 . S
C1678 C1680 1.388 . S
C1679 C1678 1.366 . S
C1679 C1683 1.385 . S
C1680 H1661 0.951 . S
C1680 C1678 1.388 . S
C1680 C1681 1.366 . S
C1681 C1680 1.366 . S
C1681 C1682 1.414 . S
C1681 C1684 1.499 . S
C1682 H1662 0.950 . S
C1682 C1681 1.414 . S
C1682 C1683 1.374 . S
C1683 H1663 0.950 . S
C1683 C1679 1.385 . S
C1683 C1682 1.374 . S
C1684 C1681 1.499 . S
C1684 C1685 1.373 . S
C1684 C1686 1.389 . S
C1685 H1664 0.950 . S
C1685 C1684 1.373 . S
C1685 C1701 1.377 . S
C1686 C1684 1.389 . S
C1686 C1687 1.524 . S
C1686 C1700 1.377 . S
C1687 C1686 1.524 . S
C1687 C1688 1.397 . S
C1687 C1692 1.363 . S
C1688 H1665 0.950 . S
C1688 C1687 1.397 . S
C1688 C1689 1.334 . S
C1689 H1666 0.950 . S
C1689 C1688 1.334 . S
C1689 C1690 1.287 . S
C1690 C1689 1.287 . S
C1690 C1691 1.524 . S
C1690 H1709 0.913 . S
C1691 H1667 0.950 . S
C1691 C1690 1.524 . S
C1691 C1692 1.415 . S
C1692 H1668 0.950 . S
C1692 C1687 1.363 . S
C1692 C1691 1.415 . S
C1693 H1669 0.951 . S
C1693 C1694 1.366 . S
C1693 C1695 1.388 . S
C1694 C1693 1.366 . S
C1694 C1698 1.385 . S
C1695 H1670 0.951 . S
C1695 C1693 1.388 . S
C1695 C1696 1.366 . S
C1696 C1695 1.366 . S
C1696 C1697 1.414 . S
C1696 C1699 1.499 . S
C1697 H1671 0.950 . S
C1697 C1696 1.414 . S
C1697 C1698 1.374 . S
C1698 H1672 0.950 . S
C1698 C1694 1.385 . S
C1698 C1697 1.374 . S
C1699 C1696 1.499 . S
C1699 C1700 1.373 . S
C1699 C1701 1.389 . S
C1700 H1673 0.950 . S
C1700 C1686 1.377 . S
C1700 C1699 1.373 . S
C1701 C1685 1.377 . S
C1701 C1699 1.389 . S
C1701 C1702 1.524 . S
C1702 C1701 1.524 . S
C1702 C1703 1.397 . S
C1702 C1707 1.363 . S
C1703 H1674 0.950 . S
C1703 C1702 1.397 . S
C1703 C1704 1.334 . S
C1704 H1675 0.950 . S
C1704 C1703 1.334 . S
C1704 C1705 1.287 . S
C1705 C1704 1.287 . S
C1705 C1706 1.524 . S
C1705 H1708 0.999 . S
C1706 H1676 0.950 . S
C1706 C1705 1.524 . S
C1706 C1707 1.415 . S
C1707 H1677 0.950 . S
C1707 C1702 1.363 . S
C1707 C1706 1.415 . S
H1708 C1705 0.999 . S
H1709 C1690 0.913 . S
H1710 C1728 0.951 . S
H1711 C1730 0.951 . S
H1712 C1732 0.950 . S
H1713 C1733 0.950 . S
H1714 C1735 0.950 . S
H1715 C1738 0.950 . S
H1716 C1739 0.950 . S
H1717 C1741 0.950 . S
H1718 C1742 0.950 . S
H1719 C1743 0.951 . S
H1720 C1745 0.951 . S
H1721 C1747 0.950 . S
H1722 C1748 0.950 . S
H1723 C1750 0.950 . S
H1724 C1753 0.950 . S
H1725 C1754 0.950 . S
H1726 C1756 0.950 . S
H1727 C1757 0.950 . S
C1728 H1710 0.951 . S
C1728 C1729 1.366 . S
C1728 C1730 1.388 . S
C1729 C1728 1.366 . S
C1729 C1733 1.385 . S
C1730 H1711 0.951 . S
C1730 C1728 1.388 . S
C1730 C1731 1.366 . S
C1731 C1730 1.366 . S
C1731 C1732 1.414 . S
C1731 C1734 1.499 . S
C1732 H1712 0.950 . S
C1732 C1731 1.414 . S
C1732 C1733 1.374 . S
C1733 H1713 0.950 . S
C1733 C1729 1.385 . S
C1733 C1732 1.374 . S
C1734 C1731 1.499 . S
C1734 C1735 1.373 . S
C1734 C1736 1.389 . S
C1735 H1714 0.950 . S
C1735 C1734 1.373 . S
C1735 C1751 1.377 . S
C1736 C1734 1.389 . S
C1736 C1737 1.524 . S
C1736 C1750 1.377 . S
C1737 C1736 1.524 . S
C1737 C1738 1.397 . S
C1737 C1742 1.363 . S
C1738 H1715 0.950 . S
C1738 C1737 1.397 . S
C1738 C1739 1.334 . S
C1739 H1716 0.950 . S
C1739 C1738 1.334 . S
C1739 C1740 1.287 . S
C1740 C1739 1.287 . S
C1740 C1741 1.524 . S
C1740 H1759 0.913 . S
C1741 H1717 0.950 . S
C1741 C1740 1.524 . S
C1741 C1742 1.415 . S
C1742 H1718 0.950 . S
C1742 C1737 1.363 . S
C1742 C1741 1.415 . S
C1743 H1719 0.951 . S
C1743 C1744 1.366 . S
C1743 C1745 1.388 . S
C1744 C1743 1.366 . S
C1744 C1748 1.385 . S
C1745 H1720 0.951 . S
C1745 C1743 1.388 . S
C1745 C1746 1.366 . S
C1746 C1745 1.366 . S
C1746 C1747 1.414 . S
C1746 C1749 1.499 . S
C1747 H1721 0.950 . S
C1747 C1746 1.414 . S
C1747 C1748 1.374 . S
C1748 H1722 0.950 . S
C1748 C1744 1.385 . S
C1748 C1747 1.374 . S
C1749 C1746 1.499 . S
C1749 C1750 1.373 . S
C1749 C1751 1.389 . S
C1750 H1723 0.950 . S
C1750 C1736 1.377 . S
C1750 C1749 1.373 . S
C1751 C1735 1.377 . S
C1751 C1749 1.389 . S
C1751 C1752 1.524 . S
C1752 C1751 1.524 . S
C1752 C1753 1.397 . S
C1752 C1757 1.363 . S
C1753 H1724 0.950 . S
C1753 C1752 1.397 . S
C1753 C1754 1.334 . S
C1754 H1725 0.950 . S
C1754 C1753 1.334 . S
C1754 C1755 1.287 . S
C1755 C1754 1.287 . S
C1755 C1756 1.524 . S
C1755 H1758 0.999 . S
C1756 H1726 0.950 . S
C1756 C1755 1.524 . S
C1756 C1757 1.415 . S
C1757 H1727 0.950 . S
C1757 C1752 1.363 . S
C1757 C1756 1.415 . S
H1758 C1755 0.999 . S
H1759 C1740 0.913 . S
C579 C391 1.509 . S
C594 C498 1.456 . S
C644 C518 1.400 . S
C629 C451 1.451 . S
C694 C538 1.530 . S
C679 C241 1.430 . S
C744 C558 1.463 . S
C729 C331 1.373 . S
C794 C499 1.474 . S
C779 C121 1.403 . S
C829 C211 1.456 1_556 S
C844 C519 1.418 . S
C879 C31 1.491 . S
C894 C539 1.464 . S
C929 C91 1.384 . S
C944 C559 1.455 . S
C994 C489 0.525 1_655 S
C979 C301 0.546 . S
C1044 C509 0.532 . S
C1029 C380 0.396 . S
C1094 C529 0.512 . S
C1079 C440 0.348 . S
C1129 C260 0.552 . S
C1144 C549 0.527 . S
C1179 C61 0.507 . S
C1194 C492 0.522 . S
C1244 C512 0.524 . S
C1229 C140 0.502 . S
C1294 C532 0.510 . S
C1279 C200 0.400 . S
C1329 C20 0.460 . S
C1344 C552 0.543 . S
C1379 C320 1.968 . S
C1394 C482 1.861 . S
C1429 C361 1.763 . S
C1444 C502 1.875 . S
C1494 C522 1.878 . S
C1479 C421 1.765 . S
C1544 C542 1.903 . S
C1529 C271 2.006 . S
C1579 C80 2.000 . S
C1594 C484 1.883 . S
C1644 C504 1.887 . S
C1629 C151 2.006 . S
C1694 C524 1.859 . S
C1679 C181 1.733 . S
C1729 C1 1.756 . S
C1744 C544 1.887 . S
