# Generated by pormake.
# Topology cml, (3,6)-cn, num edge types: 1
# Building blocks:
#     Node 0, Type 0, BuildingBlock: PAMTOO_clean_linker_0, # of connection points: 3
#     Node 1, Type 0, BuildingBlock: PAMTOO_clean_linker_0, # of connection points: 3
#     Node 2, Type 0, BuildingBlock: PAMTOO_clean_linker_0, # of connection points: 3
#     Node 3, Type 0, BuildingBlock: PAMTOO_clean_linker_0, # of connection points: 3
#     Node 4, Type 0, BuildingBlock: PAMTOO_clean_linker_0, # of connection points: 3
#     Node 5, Type 0, BuildingBlock: PAMTOO_clean_linker_0, # of connection points: 3
#     Node 6, Type 0, BuildingBlock: PAMTOO_clean_linker_0, # of connection points: 3
#     Node 7, Type 0, BuildingBlock: PAMTOO_clean_linker_0, # of connection points: 3
#     Node 8, Type 1, BuildingBlock: OJICUG_clean_sbu_0, # of connection points: 6
#     Node 9, Type 1, BuildingBlock: OJICUG_clean_sbu_0, # of connection points: 6
#     Node 10, Type 1, BuildingBlock: OJICUG_clean_sbu_0, # of connection points: 6
#     Node 11, Type 1, BuildingBlock: OJICUG_clean_sbu_0, # of connection points: 6
#     Edge 12, Type (0, 1), BuildingBlock: CIFDUS_clean_linker_0, # of connection points: 2
#     Edge 13, Type (0, 1), BuildingBlock: CIFDUS_clean_linker_0, # of connection points: 2
#     Edge 14, Type (0, 1), BuildingBlock: CIFDUS_clean_linker_0, # of connection points: 2
#     Edge 15, Type (0, 1), BuildingBlock: CIFDUS_clean_linker_0, # of connection points: 2
#     Edge 16, Type (0, 1), BuildingBlock: CIFDUS_clean_linker_0, # of connection points: 2
#     Edge 17, Type (0, 1), BuildingBlock: CIFDUS_clean_linker_0, # of connection points: 2
#     Edge 18, Type (0, 1), BuildingBlock: CIFDUS_clean_linker_0, # of connection points: 2
#     Edge 19, Type (0, 1), BuildingBlock: CIFDUS_clean_linker_0, # of connection points: 2
#     Edge 20, Type (0, 1), BuildingBlock: CIFDUS_clean_linker_0, # of connection points: 2
#     Edge 21, Type (0, 1), BuildingBlock: CIFDUS_clean_linker_0, # of connection points: 2
#     Edge 22, Type (0, 1), BuildingBlock: CIFDUS_clean_linker_0, # of connection points: 2
#     Edge 23, Type (0, 1), BuildingBlock: CIFDUS_clean_linker_0, # of connection points: 2
#     Edge 24, Type (0, 1), BuildingBlock: CIFDUS_clean_linker_0, # of connection points: 2
#     Edge 25, Type (0, 1), BuildingBlock: CIFDUS_clean_linker_0, # of connection points: 2
#     Edge 26, Type (0, 1), BuildingBlock: CIFDUS_clean_linker_0, # of connection points: 2
#     Edge 27, Type (0, 1), BuildingBlock: CIFDUS_clean_linker_0, # of connection points: 2
#     Edge 28, Type (0, 1), BuildingBlock: CIFDUS_clean_linker_0, # of connection points: 2
#     Edge 29, Type (0, 1), BuildingBlock: CIFDUS_clean_linker_0, # of connection points: 2
#     Edge 30, Type (0, 1), BuildingBlock: CIFDUS_clean_linker_0, # of connection points: 2
#     Edge 31, Type (0, 1), BuildingBlock: CIFDUS_clean_linker_0, # of connection points: 2
#     Edge 32, Type (0, 1), BuildingBlock: CIFDUS_clean_linker_0, # of connection points: 2
#     Edge 33, Type (0, 1), BuildingBlock: CIFDUS_clean_linker_0, # of connection points: 2
#     Edge 34, Type (0, 1), BuildingBlock: CIFDUS_clean_linker_0, # of connection points: 2
#     Edge 35, Type (0, 1), BuildingBlock: CIFDUS_clean_linker_0, # of connection points: 2
# Relax obj value: 0.007
# Max RMSD: 0.052
# Mean RMSD: 0.044
data_MOF--net-cml--node1-OJICUG_clean_sbu_0--node2-PAMTOO_clean_linker_0--edge1-CIFDUS_clean_linker_0
_symmetry_space_group_name_H-M    P1
_symmetry_Int_Tables_number       1
_symmetry_cell_setting            triclinic
loop_
_symmetry_equiv_pos_as_xyz
'x, y, z'
_cell_length_a     35.455076
_cell_length_b     35.183252
_cell_length_c     30.831483
_cell_angle_alpha  89.54853
_cell_angle_beta   88.27757
_cell_angle_gamma 90.147193
loop_
_atom_site_label
_atom_site_type_symbol
_atom_site_fract_x
_atom_site_fract_y
_atom_site_fract_z
_atom_type_partial_charge
H0 H 0.34678 0.44658 0.05594 0.0
H1 H 0.26459 0.43934 0.95658 0.0
H2 H 0.27027 0.35154 0.05392 0.0
H3 H 0.26537 0.32898 0.96081 0.0
C4 C 0.24234 0.34875 0.95185 0.0
O5 O 0.23565 0.37465 0.98455 0.0
H6 H 0.25162 0.36414 0.9217 0.0
C7 C 0.32281 0.43239 0.0421 0.0
C8 C 0.30996 0.39783 0.06024 0.0
C9 C 0.30683 0.44776 0.00485 0.0
C10 C 0.27719 0.42812 0.98557 0.0
C11 C 0.26403 0.39351 0.00337 0.0
C12 C 0.28048 0.37835 0.04055 0.0
H13 H 0.67366 0.5463 0.53928 0.0
H14 H 0.7534 0.63575 0.56078 0.0
H15 H 0.75721 0.57541 0.44015 0.0
H16 H 0.83341 0.59455 0.47491 0.0
C17 C 0.82508 0.62041 0.49335 0.0
O18 O 0.78812 0.62938 0.48537 0.0
H19 H 0.82837 0.6144 0.52856 0.0
C20 C 0.69833 0.56246 0.52845 0.0
C21 C 0.71401 0.55667 0.48669 0.0
C22 C 0.71226 0.5908 0.55533 0.0
C23 C 0.74261 0.61339 0.54054 0.0
C24 C 0.75913 0.60727 0.49941 0.0
C25 C 0.74471 0.57925 0.47231 0.0
H26 H 0.63678 0.41464 0.01561 0.0
H27 H 0.71533 0.32171 0.01552 0.0
H28 H 0.71888 0.40247 0.91057 0.0
H29 H 0.72875 0.32376 0.88444 0.0
C30 C 0.74419 0.31272 0.9128 0.0
O31 O 0.74933 0.34146 0.94211 0.0
H32 H 0.72721 0.28936 0.92826 0.0
C33 C 0.66047 0.3999 0.00044 0.0
C34 C 0.67583 0.4128 0.96039 0.0
C35 C 0.67449 0.36704 0.02036 0.0
C36 C 0.70422 0.34705 0.00035 0.0
C37 C 0.7201 0.3601 0.96089 0.0
C38 C 0.70609 0.39282 0.94108 0.0
H39 H 0.34604 0.57587 0.54445 0.0
H40 H 0.27465 0.58411 0.43459 0.0
H41 H 0.27316 0.67247 0.53034 0.0
H42 H 0.19875 0.63478 0.49865 0.0
C43 C 0.20586 0.64075 0.4638 0.0
O44 O 0.2438 0.64889 0.4581 0.0
H45 H 0.19905 0.61471 0.44533 0.0
C46 C 0.32408 0.59049 0.52718 0.0
C47 C 0.31075 0.62553 0.54255 0.0
C48 C 0.31144 0.57519 0.48845 0.0
C49 C 0.28461 0.59534 0.46481 0.0
C50 C 0.27032 0.63006 0.48037 0.0
C51 C 0.28377 0.64536 0.51892 0.0
H52 H 0.86031 0.91924 0.03157 0.0
H53 H 0.78569 0.90746 0.92456 0.0
H54 H 0.7747 0.83254 0.03496 0.0
H55 H 0.77295 0.79862 0.94853 0.0
C56 C 0.75276 0.81872 0.93361 0.0
O57 O 0.74767 0.85024 0.95941 0.0
H58 H 0.76504 0.82765 0.90148 0.0
C59 C 0.83648 0.90567 0.01669 0.0
C60 C 0.81852 0.87507 0.03825 0.0
C61 C 0.82526 0.91767 0.97548 0.0
C62 C 0.79514 0.89864 0.95617 0.0
C63 C 0.77688 0.86813 0.97775 0.0
C64 C 0.78875 0.85626 0.01861 0.0
H65 H 0.17004 0.04818 0.55218 0.0
H66 H 0.24481 0.14467 0.54628 0.0
H67 H 0.23723 0.07097 0.43632 0.0
H68 H 0.3128 0.09223 0.45425 0.0
C69 C 0.30862 0.12119 0.46784 0.0
O70 O 0.27091 0.13062 0.46726 0.0
H71 H 0.3183 0.12079 0.50186 0.0
C72 C 0.19154 0.06482 0.53486 0.0
C73 C 0.20208 0.05525 0.49217 0.0
C74 C 0.20647 0.09708 0.55456 0.0
C75 C 0.23302 0.11965 0.53148 0.0
C76 C 0.24454 0.10968 0.48913 0.0
C77 C 0.22864 0.07796 0.46932 0.0
H78 H 0.17141 0.95704 0.03542 0.0
H79 H 0.23314 0.8528 0.05088 0.0
H80 H 0.25102 0.92077 0.9363 0.0
H81 H 0.2443 0.83805 0.92432 0.0
C82 C 0.25832 0.82821 0.95421 0.0
O83 O 0.27036 0.85898 0.97746 0.0
H84 H 0.23742 0.81127 0.97397 0.0
C85 C 0.19259 0.9371 0.02389 0.0
C86 C 0.21027 0.94314 0.98302 0.0
C87 C 0.19986 0.90429 0.04856 0.0
C88 C 0.22738 0.87875 0.03317 0.0
C89 C 0.24587 0.88504 0.99304 0.0
C90 C 0.23733 0.91701 0.96794 0.0
H91 H 0.84376 0.07252 0.5604 0.0
H92 H 0.77417 0.09608 0.45093 0.0
H93 H 0.77079 0.16945 0.56108 0.0
H94 H 0.69667 0.1397 0.52948 0.0
C95 C 0.70278 0.14392 0.49412 0.0
O96 O 0.74018 0.15382 0.48702 0.0
H97 H 0.69702 0.11648 0.47782 0.0
C98 C 0.8233 0.08973 0.54409 0.0
C99 C 0.80991 0.12258 0.56497 0.0
C100 C 0.81192 0.07985 0.50224 0.0
C101 C 0.78389 0.10227 0.48304 0.0
C102 C 0.76827 0.13365 0.50495 0.0
C103 C 0.78201 0.14435 0.54524 0.0
Sc104 Sc 0.99785 0.81223 0.29335 0.0
Sc105 Sc 0.9896 0.91071 0.30785 0.0
Sc106 Sc 0.00468 0.85127 0.39804 0.0
O107 O 0.99732 0.85801 0.33322 0.0
C108 C 0.94848 0.78332 0.37532 0.0
C109 C 0.93249 0.86372 0.25295 0.0
C110 C 0.94491 0.91914 0.39824 0.0
C111 C 0.0432 0.87183 0.23572 0.0
C112 C 0.06011 0.78704 0.36098 0.0
C113 C 0.05577 0.92391 0.37415 0.0
O114 O 0.95775 0.78295 0.3351 0.0
O115 O 0.94133 0.89363 0.27304 0.0
O116 O 0.96168 0.89187 0.41673 0.0
O117 O 0.03852 0.83781 0.24885 0.0
O118 O 0.04935 0.81039 0.38993 0.0
O119 O 0.03757 0.93277 0.3406 0.0
O120 O 0.04415 0.78453 0.32475 0.0
O121 O 0.0259 0.90002 0.25225 0.0
O122 O 0.04721 0.8954 0.39831 0.0
O123 O 0.95136 0.83306 0.25545 0.0
O124 O 0.96297 0.80611 0.40227 0.0
O125 O 0.95172 0.92884 0.35914 0.0
Sc126 Sc 0.00633 0.20262 0.80065 0.0
Sc127 Sc 0.01732 0.10358 0.81318 0.0
Sc128 Sc 0.01265 0.16169 0.90534 0.0
O129 O 0.01215 0.156 0.83971 0.0
C130 C 0.06198 0.23326 0.87255 0.0
C131 C 0.0677 0.15433 0.74717 0.0
C132 C 0.07635 0.09909 0.8892 0.0
C133 C 0.95428 0.14164 0.75476 0.0
C134 C 0.9483 0.21991 0.8793 0.0
C135 C 0.96339 0.08588 0.89571 0.0
O136 O 0.04799 0.23456 0.83501 0.0
O137 O 0.05839 0.12297 0.76529 0.0
O138 O 0.06078 0.12524 0.91153 0.0
O139 O 0.96398 0.17578 0.76206 0.0
O140 O 0.96446 0.19848 0.90634 0.0
O141 O 0.97675 0.07826 0.85809 0.0
O142 O 0.96052 0.22459 0.84043 0.0
O143 O 0.97126 0.11319 0.77062 0.0
O144 O 0.97383 0.11481 0.91687 0.0
O145 O 0.0512 0.18552 0.75599 0.0
O146 O 0.05163 0.20888 0.90122 0.0
O147 O 0.0637 0.08807 0.85323 0.0
Sc148 Sc 0.50201 0.30669 0.30071 0.0
Sc149 Sc 0.51507 0.4057 0.30817 0.0
Sc150 Sc 0.50207 0.35162 0.40319 0.0
O151 O 0.5064 0.35452 0.33738 0.0
C152 C 0.44207 0.28881 0.37839 0.0
C153 C 0.45265 0.36641 0.24976 0.0
C154 C 0.45496 0.42679 0.38299 0.0
C155 C 0.5655 0.35368 0.24664 0.0
C156 C 0.55452 0.28006 0.37759 0.0
C157 C 0.56811 0.41294 0.38895 0.0
O158 O 0.45687 0.28233 0.34109 0.0
O159 O 0.47155 0.39462 0.26298 0.0
O160 O 0.46206 0.39857 0.40763 0.0
O161 O 0.54673 0.32338 0.25444 0.0
O162 O 0.54128 0.30431 0.4046 0.0
O163 O 0.5592 0.42225 0.35073 0.0
O164 O 0.54375 0.27797 0.33856 0.0
O165 O 0.5581 0.38482 0.26528 0.0
O166 O 0.54961 0.38856 0.41157 0.0
O167 O 0.45954 0.33217 0.26065 0.0
O168 O 0.45455 0.31404 0.40341 0.0
O169 O 0.47275 0.43277 0.34733 0.0
Sc170 Sc 0.50243 0.70205 0.78665 0.0
Sc171 Sc 0.50433 0.60265 0.7981 0.0
Sc172 Sc 0.50001 0.65931 0.89136 0.0
O173 O 0.50232 0.65474 0.82547 0.0
C174 C 0.55815 0.72524 0.86199 0.0
C175 C 0.56185 0.64916 0.73653 0.0
C176 C 0.55663 0.58938 0.87893 0.0
C177 C 0.44741 0.64684 0.7371 0.0
C178 C 0.4443 0.72551 0.86229 0.0
C179 C 0.44393 0.58971 0.87578 0.0
O180 O 0.54506 0.72883 0.82419 0.0
O181 O 0.54934 0.61853 0.75366 0.0
O182 O 0.54234 0.61626 0.90127 0.0
O183 O 0.45927 0.68008 0.74532 0.0
O184 O 0.45689 0.70228 0.89008 0.0
O185 O 0.45967 0.58121 0.83964 0.0
O186 O 0.45798 0.72848 0.82392 0.0
O187 O 0.46179 0.61703 0.75305 0.0
O188 O 0.45497 0.61737 0.89874 0.0
O189 O 0.54728 0.68141 0.74445 0.0
O190 O 0.54501 0.70134 0.88992 0.0
O191 O 0.54629 0.58191 0.84086 0.0
H192 H 0.19575 0.35208 0.88274 0.0
H193 H 0.21038 0.29459 0.00495 0.0
H194 H 0.15484 0.25495 0.99244 0.0
H195 H 0.10397 0.23502 0.94532 0.0
H196 H 0.09006 0.29197 0.8222 0.0
H197 H 0.14338 0.33347 0.83656 0.0
C198 C 0.18662 0.33092 0.90661 0.0
C199 C 0.20716 0.32586 0.94451 0.0
C200 C 0.1549 0.30813 0.89899 0.0
C201 C 0.19499 0.29866 0.97544 0.0
C202 C 0.16334 0.27606 0.96826 0.0
C203 C 0.11234 0.25666 0.92169 0.0
C204 C 0.09291 0.26014 0.88263 0.0
C205 C 0.14331 0.28027 0.92993 0.0
C206 C 0.10441 0.28843 0.85249 0.0
C207 C 0.13499 0.31223 0.86063 0.0
H208 H 0.83722 0.64583 0.41135 0.0
H209 H 0.86696 0.66826 0.54317 0.0
H210 H 0.90622 0.72214 0.51864 0.0
H211 H 0.9332 0.7617 0.45925 0.0
H212 H 0.90276 0.73885 0.3273 0.0
H213 H 0.86233 0.68666 0.35238 0.0
C214 C 0.85245 0.66259 0.43452 0.0
C215 C 0.84975 0.65305 0.47874 0.0
C216 C 0.8746 0.69352 0.42023 0.0
C217 C 0.86907 0.67499 0.50884 0.0
C218 C 0.89135 0.7058 0.49485 0.0
C219 C 0.91742 0.74559 0.43602 0.0
C220 C 0.92123 0.75416 0.39144 0.0
C221 C 0.89442 0.71525 0.45057 0.0
C222 C 0.90063 0.7328 0.36179 0.0
C223 C 0.8775 0.70286 0.37605 0.0
H224 H 0.79424 0.27689 0.96305 0.0
H225 H 0.77875 0.31557 0.83187 0.0
H226 H 0.84137 0.29181 0.81032 0.0
H227 H 0.89983 0.25917 0.82879 0.0
H228 H 0.91527 0.2208 0.96057 0.0
H229 H 0.85353 0.24577 0.982 0.0
C230 C 0.80472 0.27994 0.92977 0.0
C231 C 0.78209 0.2975 0.89895 0.0
C232 C 0.84071 0.26656 0.91783 0.0
C233 C 0.79574 0.30179 0.85597 0.0
C234 C 0.8315 0.28836 0.84374 0.0
C235 C 0.88992 0.25653 0.8623 0.0
C236 C 0.91226 0.23804 0.89294 0.0
C237 C 0.8542 0.27065 0.87441 0.0
C238 C 0.89874 0.23482 0.9362 0.0
C239 C 0.86336 0.24899 0.94854 0.0
H240 H 0.1741 0.65092 0.38487 0.0
H241 H 0.18629 0.70459 0.50877 0.0
H242 H 0.14439 0.75615 0.4869 0.0
H243 H 0.10103 0.78335 0.43452 0.0
H244 H 0.08822 0.72917 0.31055 0.0
H245 H 0.13377 0.68065 0.33034 0.0
C246 C 0.16764 0.67407 0.40688 0.0
C247 C 0.18249 0.67374 0.44865 0.0
C248 C 0.14335 0.70339 0.39414 0.0
C249 C 0.17461 0.70412 0.47671 0.0
C250 C 0.15069 0.7335 0.46421 0.0
C251 C 0.10836 0.76115 0.41158 0.0
C252 C 0.09078 0.75988 0.3712 0.0
C253 C 0.13434 0.73305 0.42331 0.0
C254 C 0.10103 0.73092 0.34193 0.0
C255 C 0.12707 0.70302 0.35324 0.0
H256 H 0.70161 0.83157 0.87116 0.0
H257 H 0.72026 0.76294 0.98472 0.0
H258 H 0.66055 0.72931 0.97448 0.0
H259 H 0.60466 0.7174 0.93084 0.0
H260 H 0.58693 0.78617 0.81657 0.0
H261 H 0.6444 0.82172 0.82955 0.0
C262 C 0.69248 0.80922 0.89356 0.0
C263 C 0.71548 0.79904 0.92802 0.0
C264 C 0.6583 0.79001 0.88732 0.0
C265 C 0.70317 0.77066 0.9575 0.0
C266 C 0.66907 0.75154 0.95167 0.0
C267 C 0.61312 0.74041 0.90901 0.0
C268 C 0.59143 0.74881 0.87263 0.0
C269 C 0.64661 0.76064 0.91635 0.0
C270 C 0.60305 0.77875 0.84468 0.0
C271 C 0.63601 0.79919 0.85202 0.0
H272 H 0.32093 0.19483 0.48811 0.0
H273 H 0.34711 0.11167 0.39002 0.0
H274 H 0.38807 0.1575 0.35113 0.0
H275 H 0.42009 0.21966 0.34826 0.0
H276 H 0.39446 0.30231 0.44764 0.0
H277 H 0.34937 0.25854 0.48237 0.0
C278 C 0.33545 0.18702 0.45802 0.0
C279 C 0.33155 0.15001 0.44215 0.0
C280 C 0.35907 0.21338 0.43611 0.0
C281 C 0.35009 0.14001 0.40299 0.0
C282 C 0.37345 0.16617 0.38079 0.0
C283 C 0.40421 0.22835 0.3771 0.0
C284 C 0.41099 0.26413 0.39545 0.0
C285 C 0.37869 0.20275 0.39746 0.0
C286 C 0.39015 0.27481 0.43297 0.0
C287 C 0.36435 0.24978 0.45297 0.0
H288 H 0.30536 0.83612 0.88395 0.0
H289 H 0.28687 0.76848 -0.00027 0.0
H290 H 0.34362 0.73132 0.98233 0.0
H291 H 0.39795 0.71806 0.93381 0.0
H292 H 0.41614 0.78592 0.81759 0.0
H293 H 0.36002 0.8231 0.83557 0.0
C294 C 0.3137 0.81295 0.90499 0.0
C295 C 0.29181 0.80424 0.94238 0.0
C296 C 0.34628 0.792 0.89486 0.0
C297 C 0.3031 0.77495 0.97025 0.0
C298 C 0.33553 0.75392 0.96043 0.0
C299 C 0.38982 0.74112 0.91252 0.0
C300 C 0.41129 0.74915 0.87443 0.0
C301 C 0.35731 0.7622 0.92279 0.0
C302 C 0.40012 0.77902 0.84709 0.0
C303 C 0.368 0.80032 0.85728 0.0
H304 H 0.67073 0.14813 0.41482 0.0
H305 H 0.67876 0.20842 0.53524 0.0
H306 H 0.63432 0.25637 0.50979 0.0
H307 H 0.59125 0.27952 0.45441 0.0
H308 H 0.58347 0.21885 0.3337 0.0
H309 H 0.62957 0.17277 0.35816 0.0
C310 C 0.66275 0.17188 0.43532 0.0
C311 C 0.67735 0.17453 0.47707 0.0
C312 C 0.63708 0.19912 0.42054 0.0
C313 C 0.6674 0.20567 0.50319 0.0
C314 C 0.642 0.23299 0.48866 0.0
C315 C 0.59959 0.25626 0.43337 0.0
C316 C 0.58352 0.25269 0.39232 0.0
C317 C 0.62625 0.22972 0.44761 0.0
C318 C 0.59514 0.22244 0.36548 0.0
C319 C 0.62156 0.19596 0.37943 0.0
H320 H 0.3272 0.45895 0.92024 0.0
H321 H 0.32628 0.51369 0.04486 0.0
H322 H 0.36645 0.56474 0.01509 0.0
H323 H 0.40772 0.58971 0.9557 0.0
H324 H 0.40884 0.53365 0.83146 0.0
H325 H 0.36257 0.48777 0.85892 0.0
C326 C 0.33493 0.4826 0.94055 0.0
C327 C 0.32408 0.48238 0.98471 0.0
C328 C 0.35863 0.51142 0.92346 0.0
C329 C 0.33467 0.51305 0.01079 0.0
C330 C 0.35772 0.54217 0.99384 0.0
C331 C 0.39751 0.56777 0.93447 0.0
C332 C 0.41244 0.56489 0.89182 0.0
C333 C 0.37092 0.541 0.95055 0.0
C334 C 0.39849 0.53635 0.8647 0.0
C335 C 0.37187 0.51001 0.8803 0.0
H336 H 0.69032 0.48535 0.50687 0.0
H337 H 0.69548 0.56712 0.40192 0.0
H338 H 0.65332 0.52748 0.35997 0.0
H339 H 0.60856 0.47397 0.35753 0.0
H340 H 0.60107 0.39454 0.46512 0.0
H341 H 0.65018 0.42916 0.50174 0.0
C342 C 0.68254 0.49425 0.47457 0.0
C343 C 0.69555 0.52929 0.45774 0.0
C344 C 0.65729 0.47211 0.45145 0.0
C345 C 0.68594 0.54018 0.41554 0.0
C346 C 0.66148 0.51774 0.39177 0.0
C347 C 0.61793 0.46396 0.38876 0.0
C348 C 0.60059 0.43203 0.4088 0.0
C349 C 0.64593 0.48433 0.41008 0.0
C350 C 0.6134 0.41935 0.44916 0.0
C351 C 0.6416 0.43906 0.47015 0.0
H352 H 0.65202 0.47989 -0.0045 0.0
H353 H 0.66141 0.41947 0.87433 0.0
H354 H 0.62903 0.47095 0.83764 0.0
H355 H 0.59346 0.53009 0.84106 0.0
H356 H 0.58121 0.58978 0.96257 0.0
H357 H 0.61945 0.54163 -0.00211 0.0
C358 C 0.64698 0.47804 0.96106 0.0
C359 C 0.65894 0.44575 0.93779 0.0
C360 C 0.62772 0.50749 0.94023 0.0
C361 C 0.65284 0.44411 0.89299 0.0
C362 C 0.63408 0.47343 0.872 0.0
C363 C 0.59937 0.53291 0.87519 0.0
C364 C 0.584 0.56337 0.89915 0.0
C365 C 0.62077 0.50486 0.89547 0.0
C366 C 0.59244 0.56658 0.94328 0.0
C367 C 0.6142 0.53896 0.9636 0.0
H368 H 0.3422 0.56375 0.4083 0.0
H369 H 0.32263 0.50857 0.53222 0.0
H370 H 0.36401 0.45618 0.51007 0.0
H371 H 0.41081 0.42937 0.45788 0.0
H372 H 0.43057 0.48644 0.33457 0.0
H373 H 0.38423 0.53429 0.35407 0.0
C374 C 0.34619 0.53974 0.42996 0.0
C375 C 0.32954 0.54003 0.47177 0.0
C376 C 0.37072 0.51026 0.41745 0.0
C377 C 0.33538 0.50899 0.49983 0.0
C378 C 0.35918 0.47915 0.4873 0.0
C379 C 0.40482 0.45212 0.4352 0.0
C380 C 0.42482 0.45438 0.39515 0.0
C381 C 0.37796 0.48004 0.44662 0.0
C382 C 0.41623 0.48401 0.36599 0.0
C383 C 0.38951 0.51151 0.37696 0.0
H384 H 0.85065 0.984 0.00929 0.0
H385 H 0.84816 0.92095 0.88992 0.0
H386 H 0.88918 0.96838 0.85421 0.0
H387 H 0.92921 0.02524 0.8583 0.0
H388 H 0.93298 0.0873 0.97847 0.0
H389 H 0.8884 0.04243 0.01248 0.0
C390 C 0.85907 0.98061 0.97544 0.0
C391 C 0.84654 0.94874 0.95245 0.0
C392 C 0.88324 0.00759 0.95535 0.0
C393 C 0.85708 0.9453 0.90834 0.0
C394 C 0.88085 0.97224 0.88799 0.0
C395 C 0.92029 0.0291 0.89192 0.0
C396 C 0.93488 0.05954 0.91581 0.0
C397 C 0.89466 0.00311 0.91141 0.0
C398 C 0.92249 0.06413 0.95923 0.0
C399 C 0.89695 0.03845 0.97878 0.0
H400 H 0.17015 0.05559 0.41348 0.0
H401 H 0.18975 0.9838 0.52449 0.0
H402 H 0.1482 0.93508 0.49587 0.0
H403 H 0.10154 0.91596 0.44318 0.0
H404 H 0.08084 0.98876 0.33293 0.0
H405 H 0.12793 0.0337 0.35715 0.0
C406 C 0.16604 0.02887 0.43081 0.0
C407 C 0.18271 0.02332 0.4711 0.0
C408 C 0.14155 0.00137 0.41461 0.0
C409 C 0.17684 0.98878 0.49355 0.0
C410 C 0.15307 0.961 0.47727 0.0
C411 C 0.10752 0.94145 0.42416 0.0
C412 C 0.08716 0.9491 0.38662 0.0
C413 C 0.1344 0.96749 0.43848 0.0
C414 C 0.09571 0.98219 0.36222 0.0
C415 C 0.12268 0.008 0.37602 0.0
H416 H 0.19436 0.01629 0.00436 0.0
H417 H 0.19287 0.93775 0.89768 0.0
H418 H 0.15501 0.98212 0.85626 0.0
H419 H 0.11407 0.03816 0.85534 0.0
H420 H 0.11232 0.11471 0.96431 0.0
H421 H 0.15942 0.0761 -0.00021 0.0
C422 C 0.18622 0.0092 0.97175 0.0
C423 C 0.19593 0.97359 0.9544 0.0
C424 C 0.16319 0.03414 0.94884 0.0
C425 C 0.18591 0.96504 0.91178 0.0
C426 C 0.16383 0.99021 0.88826 0.0
C427 C 0.12432 0.04676 0.88657 0.0
C428 C 0.10895 0.07887 0.90747 0.0
C429 C 0.15097 0.02407 0.90725 0.0
C430 C 0.12309 0.0898 0.94769 0.0
C431 C 0.1501 0.06775 0.96808 0.0
H432 H 0.88314 0.05084 0.51319 0.0
H433 H 0.78395 0.03448 0.43683 0.0
H434 H 0.81605 0.98353 0.39764 0.0
H435 H 0.87322 0.94372 0.38447 0.0
H436 H 0.96616 0.95389 0.47069 0.0
H437 H 0.93414 0.00572 0.50878 0.0
C438 C 0.86726 0.03556 0.48949 0.0
C439 C 0.83055 0.04719 0.4788 0.0
C440 C 0.88472 0.00455 0.46908 0.0
C441 C 0.81236 0.02737 0.4457 0.0
C442 C 0.83055 0.99766 0.42346 0.0
C443 C 0.88591 0.95688 0.41221 0.0
C444 C 0.92184 0.94512 0.42503 0.0
C445 C 0.86682 0.98606 0.43482 0.0
C446 C 0.93828 0.96225 0.46078 0.0
C447 C 0.92017 0.99209 0.48222 0.0
H448 H 0.32793 0.43547 0.13253 0.0
H449 H 0.33606 0.3253 0.07294 0.0
H450 H 0.37873 0.304 0.12936 0.0
H451 H 0.41977 0.31978 0.19061 0.0
H452 H 0.41344 0.43216 0.24577 0.0
H453 H 0.36451 0.44958 0.1959 0.0
C454 C 0.33877 0.40665 0.13217 0.0
C455 C 0.32932 0.38216 0.09842 0.0
C456 C 0.36419 0.39522 0.16352 0.0
C457 C 0.34288 0.34466 0.09872 0.0
C458 C 0.36759 0.33264 0.13069 0.0
C459 C 0.40734 0.34789 0.19194 0.0
C460 C 0.42075 0.3748 0.22137 0.0
C461 C 0.37942 0.35811 0.16246 0.0
C462 C 0.40424 0.41111 0.22286 0.0
C463 C 0.37609 0.42111 0.1945 0.0
H464 H 0.68259 0.65751 0.58254 0.0
H465 H 0.69645 0.54024 0.62023 0.0
H466 H 0.65317 0.54911 0.68253 0.0
H467 H 0.60651 0.58807 0.72098 0.0
H468 H 0.59009 0.70487 0.68183 0.0
H469 H 0.6396 0.69845 0.62555 0.0
C470 C 0.67679 0.63427 0.60514 0.0
C471 C 0.69242 0.5983 0.59707 0.0
C472 C 0.65106 0.63933 0.64007 0.0
C473 C 0.68449 0.56813 0.626 0.0
C474 C 0.65968 0.57315 0.66138 0.0
C475 C 0.61382 0.61226 0.70035 0.0
C476 C 0.59412 0.64669 0.70516 0.0
C477 C 0.6419 0.60827 0.66785 0.0
C478 C 0.60454 0.67791 0.67861 0.0
C479 C 0.63284 0.67427 0.64639 0.0
H480 H 0.6788 0.40238 0.09674 0.0
H481 H 0.63267 0.30323 0.03674 0.0
H482 H 0.59768 0.28687 0.10434 0.0
H483 H 0.57491 0.30546 0.17783 0.0
H484 H 0.62234 0.40506 0.23674 0.0
H485 H 0.66269 0.4161 0.17275 0.0
C486 C 0.66151 0.37689 0.09891 0.0
C487 C 0.65781 0.35414 0.06224 0.0
C488 C 0.64167 0.36785 0.1376 0.0
C489 C 0.63568 0.32104 0.06494 0.0
C490 C 0.61567 0.31183 0.10343 0.0
C491 C 0.59472 0.32901 0.17703 0.0
C492 C 0.59506 0.35475 0.21172 0.0
C493 C 0.61769 0.33561 0.13968 0.0
C494 C 0.62099 0.38514 0.2102 0.0
C495 C 0.64409 0.39159 0.17357 0.0
H496 H 0.31822 0.58984 0.61916 0.0
H497 H 0.34234 0.69586 0.55314 0.0
H498 H 0.3846 0.71435 0.61101 0.0
H499 H 0.42178 0.69556 0.67463 0.0
H500 H 0.39967 0.58671 0.7362 0.0
H501 H 0.34996 0.574 0.68574 0.0
C502 C 0.33218 0.61734 0.61797 0.0
C503 C 0.32763 0.64128 0.58192 0.0
C504 C 0.35751 0.62685 0.65008 0.0
C505 C 0.34538 0.67703 0.58078 0.0
C506 C 0.3699 0.68734 0.61354 0.0
C507 C 0.40572 0.66932 0.67725 0.0
C508 C 0.41499 0.64181 0.70856 0.0
C509 C 0.37738 0.66175 0.64743 0.0
C510 C 0.39375 0.60802 0.71179 0.0
C511 C 0.36512 0.60076 0.68311 0.0
H512 H 0.82078 0.91644 0.11106 0.0
H513 H 0.8481 0.80624 0.05936 0.0
H514 H 0.88252 0.79041 0.12495 0.0
H515 H 0.91176 0.81183 0.19221 0.0
H516 H 0.8837 0.92272 0.24296 0.0
H517 H 0.84216 0.93405 0.18301 0.0
C518 C 0.83364 0.88868 0.11475 0.0
C519 C 0.83236 0.8626 0.08069 0.0
C520 C 0.85351 0.88007 0.15215 0.0
C521 C 0.8488 0.82663 0.08548 0.0
C522 C 0.86864 0.81774 0.12277 0.0
C523 C 0.89598 0.83814 0.19068 0.0
C524 C 0.90163 0.86666 0.22166 0.0
C525 C 0.87225 0.84478 0.15568 0.0
C526 C 0.88055 0.90045 0.21928 0.0
C527 C 0.85674 0.90707 0.18491 0.0
H528 H 0.1717 0.16268 0.57793 0.0
H529 H 0.20658 0.0539 0.62763 0.0
H530 H 0.16924 0.06404 0.69443 0.0
H531 H 0.12049 0.09976 0.73393 0.0
H532 H 0.08317 0.2077 0.68369 0.0
H533 H 0.1279 0.20225 0.62212 0.0
C534 C 0.17192 0.14184 0.60404 0.0
C535 C 0.19167 0.1076 0.59812 0.0
C536 C 0.14944 0.14739 0.64181 0.0
C537 C 0.19148 0.08043 0.63172 0.0
C538 C 0.16997 0.08611 0.66969 0.0
C539 C 0.12232 0.12231 0.70975 0.0
C540 C 0.098 0.15374 0.71301 0.0
C541 C 0.14774 0.1188 0.67432 0.0
C542 C 0.10135 0.18304 0.68183 0.0
C543 C 0.12687 0.17991 0.64653 0.0
H544 H 0.12494 0.91769 0.06054 0.0
H545 H 0.22045 0.86882 0.12431 0.0
H546 H 0.17972 0.8518 0.18694 0.0
H547 H 0.11678 0.85232 0.22428 0.0
H548 H 0.02421 0.90812 0.16268 0.0
H549 H 0.06434 0.92186 0.09863 0.0
C550 C 0.13734 0.90423 0.08844 0.0
C551 C 0.17593 0.89501 0.0877 0.0
C552 C 0.1142 0.89575 0.12472 0.0
C553 C 0.1908 0.87607 0.12373 0.0
C554 C 0.16758 0.86649 0.15968 0.0
C555 C 0.10563 0.86735 0.19663 0.0
C556 C 0.06782 0.87909 0.19761 0.0
C557 C 0.12922 0.87626 0.16054 0.0
C558 C 0.05339 0.89896 0.16223 0.0
C559 C 0.07624 0.90676 0.12576 0.0
H560 H 0.82795 0.07929 0.63474 0.0
H561 H 0.83412 0.19409 0.58496 0.0
H562 H 0.87699 0.2114 0.64234 0.0
H563 H 0.91933 0.19151 0.70044 0.0
H564 H 0.91611 0.07498 0.74575 0.0
H565 H 0.86627 0.06068 0.69581 0.0
C566 C 0.83842 0.10821 0.63667 0.0
C567 C 0.82829 0.13518 0.6052 0.0
C568 C 0.86434 0.11746 0.6684 0.0
C569 C 0.84131 0.17277 0.60884 0.0
C570 C 0.86626 0.18256 0.64132 0.0
C571 C 0.90749 0.16308 0.69968 0.0
C572 C 0.922 0.13426 0.7264 0.0
C573 C 0.87906 0.15476 0.67028 0.0
C574 C 0.90606 0.09763 0.72511 0.0
C575 C 0.87737 0.08939 0.69666 0.0
loop_
_geom_bond_atom_site_label_1
_geom_bond_atom_site_label_2
_geom_bond_distance
_geom_bond_site_symmetry_2
_ccdc_geom_bond_type
H0 C7 0.929 . S
H1 C10 0.930 . S
H2 C12 0.929 . S
H3 C4 0.969 . S
C4 H3 0.969 . S
C4 O5 1.550 1_556 S
C4 H6 0.973 . S
O5 C4 1.550 1_554 S
O5 C11 1.412 . S
H6 C4 0.973 . S
C7 H0 0.929 . S
C7 C8 1.400 . S
C7 C9 1.364 1_554 S
C8 C7 1.400 . S
C8 C12 1.377 . S
C9 C7 1.364 1_556 S
C9 C10 1.374 . S
C10 H1 0.930 . S
C10 C9 1.374 . S
C10 C11 1.383 1_556 S
C11 O5 1.412 . S
C11 C10 1.383 1_554 S
C11 C12 1.394 . S
C12 H2 0.929 . S
C12 C8 1.377 . S
C12 C11 1.394 . S
H13 C20 0.929 . S
H14 C23 0.930 . S
H15 C25 0.929 . S
H16 C17 0.969 . S
C17 H16 0.969 . S
C17 O18 1.550 . S
C17 H19 0.973 . S
O18 C17 1.550 . S
O18 C24 1.412 . S
H19 C17 0.973 . S
C20 H13 0.929 . S
C20 C21 1.400 . S
C20 C22 1.364 . S
C21 C20 1.400 . S
C21 C25 1.377 . S
C22 C20 1.364 . S
C22 C23 1.374 . S
C23 H14 0.930 . S
C23 C22 1.374 . S
C23 C24 1.383 . S
C24 O18 1.412 . S
C24 C23 1.383 . S
C24 C25 1.394 . S
C25 H15 0.929 . S
C25 C21 1.377 . S
C25 C24 1.394 . S
H26 C33 0.929 . S
H27 C36 0.930 . S
H28 C38 0.929 . S
H29 C30 0.969 . S
C30 H29 0.969 . S
C30 O31 1.550 . S
C30 H32 0.973 1_556 S
O31 C30 1.550 . S
O31 C37 1.412 . S
H32 C30 0.973 1_554 S
C33 H26 0.929 . S
C33 C34 1.400 1_554 S
C33 C35 1.364 . S
C34 C33 1.400 1_556 S
C34 C38 1.377 . S
C35 C33 1.364 . S
C35 C36 1.374 . S
C36 H27 0.930 . S
C36 C35 1.374 . S
C36 C37 1.383 1_554 S
C37 O31 1.412 . S
C37 C36 1.383 1_556 S
C37 C38 1.394 . S
C38 H28 0.929 . S
C38 C34 1.377 . S
C38 C37 1.394 . S
H39 C46 0.929 . S
H40 C49 0.930 . S
H41 C51 0.929 . S
H42 C43 0.969 . S
C43 H42 0.969 . S
C43 O44 1.550 . S
C43 H45 0.973 . S
O44 C43 1.550 . S
O44 C50 1.412 . S
H45 C43 0.973 . S
C46 H39 0.929 . S
C46 C47 1.400 . S
C46 C48 1.364 . S
C47 C46 1.400 . S
C47 C51 1.377 . S
C48 C46 1.364 . S
C48 C49 1.374 . S
C49 H40 0.930 . S
C49 C48 1.374 . S
C49 C50 1.383 . S
C50 O44 1.412 . S
C50 C49 1.383 . S
C50 C51 1.394 . S
C51 H41 0.929 . S
C51 C47 1.377 . S
C51 C50 1.394 . S
H52 C59 0.929 . S
H53 C62 0.930 . S
H54 C64 0.929 . S
H55 C56 0.969 . S
C56 H55 0.969 . S
C56 O57 1.550 1_556 S
C56 H58 0.973 . S
O57 C56 1.550 1_554 S
O57 C63 1.412 . S
H58 C56 0.973 . S
C59 H52 0.929 . S
C59 C60 1.400 . S
C59 C61 1.364 1_554 S
C60 C59 1.400 . S
C60 C64 1.377 . S
C61 C59 1.364 1_556 S
C61 C62 1.374 . S
C62 H53 0.930 . S
C62 C61 1.374 . S
C62 C63 1.383 1_556 S
C63 O57 1.412 . S
C63 C62 1.383 1_554 S
C63 C64 1.394 . S
C64 H54 0.929 . S
C64 C60 1.377 . S
C64 C63 1.394 . S
H65 C72 0.929 . S
H66 C75 0.930 . S
H67 C77 0.929 . S
H68 C69 0.969 . S
C69 H68 0.969 . S
C69 O70 1.550 . S
C69 H71 0.973 . S
O70 C69 1.550 . S
O70 C76 1.412 . S
H71 C69 0.973 . S
C72 H65 0.929 . S
C72 C73 1.400 . S
C72 C74 1.364 . S
C73 C72 1.400 . S
C73 C77 1.377 . S
C74 C72 1.364 . S
C74 C75 1.374 . S
C75 H66 0.930 . S
C75 C74 1.374 . S
C75 C76 1.383 . S
C76 O70 1.412 . S
C76 C75 1.383 . S
C76 C77 1.394 . S
C77 H67 0.929 . S
C77 C73 1.377 . S
C77 C76 1.394 . S
H78 C85 0.929 . S
H79 C88 0.930 . S
H80 C90 0.929 . S
H81 C82 0.969 . S
C82 H81 0.969 . S
C82 O83 1.550 . S
C82 H84 0.973 1_556 S
O83 C82 1.550 . S
O83 C89 1.412 . S
H84 C82 0.973 1_554 S
C85 H78 0.929 . S
C85 C86 1.400 1_554 S
C85 C87 1.364 . S
C86 C85 1.400 1_556 S
C86 C90 1.377 . S
C87 C85 1.364 . S
C87 C88 1.374 . S
C88 H79 0.930 . S
C88 C87 1.374 . S
C88 C89 1.383 1_554 S
C89 O83 1.412 . S
C89 C88 1.383 1_556 S
C89 C90 1.394 . S
C90 H80 0.929 . S
C90 C86 1.377 . S
C90 C89 1.394 . S
H91 C98 0.929 . S
H92 C101 0.930 . S
H93 C103 0.929 . S
H94 C95 0.969 . S
C95 H94 0.969 . S
C95 O96 1.550 . S
C95 H97 0.973 . S
O96 C95 1.550 . S
O96 C102 1.412 . S
H97 C95 0.973 . S
C98 H91 0.929 . S
C98 C99 1.400 . S
C98 C100 1.364 . S
C99 C98 1.400 . S
C99 C103 1.377 . S
C100 C98 1.364 . S
C100 C101 1.374 . S
C101 H92 0.930 . S
C101 C100 1.374 . S
C101 C102 1.383 . S
C102 O96 1.412 . S
C102 C101 1.383 . S
C102 C103 1.394 . S
C103 H93 0.929 . S
C103 C99 1.377 . S
C103 C102 1.394 . S
Sc104 O107 2.025 . S
Sc104 O114 2.105 1_455 S
Sc104 O117 2.105 . S
Sc104 O120 2.105 . S
Sc104 O123 2.105 1_455 S
Sc105 O107 2.025 . S
Sc105 O115 2.105 1_455 S
Sc105 O119 2.105 . S
Sc105 O121 2.105 . S
Sc105 O125 2.105 1_455 S
Sc106 O107 2.025 . S
Sc106 O116 2.095 1_455 S
Sc106 O118 2.115 . S
Sc106 O122 2.115 . S
Sc106 O124 2.095 1_455 S
O107 Sc104 2.025 . S
O107 Sc105 2.025 . S
O107 Sc106 2.025 . S
C108 O114 1.268 . S
C108 O124 1.268 . S
C109 O115 1.268 . S
C109 O123 1.268 . S
C110 O116 1.268 . S
C110 O125 1.268 . S
C111 O117 1.268 . S
C111 O121 1.268 . S
C112 O118 1.268 . S
C112 O120 1.268 . S
C113 O119 1.268 . S
C113 O122 1.268 . S
O114 Sc104 2.105 1_655 S
O114 C108 1.268 . S
O115 Sc105 2.105 1_655 S
O115 C109 1.268 . S
O116 Sc106 2.095 1_655 S
O116 C110 1.268 . S
O117 Sc104 2.105 . S
O117 C111 1.268 . S
O118 Sc106 2.115 . S
O118 C112 1.268 . S
O119 Sc105 2.105 . S
O119 C113 1.268 . S
O120 Sc104 2.105 . S
O120 C112 1.268 . S
O121 Sc105 2.105 . S
O121 C111 1.268 . S
O122 Sc106 2.115 . S
O122 C113 1.268 . S
O123 Sc104 2.105 1_655 S
O123 C109 1.268 . S
O124 Sc106 2.095 1_655 S
O124 C108 1.268 . S
O125 Sc105 2.105 1_655 S
O125 C110 1.268 . S
Sc126 O129 2.025 . S
Sc126 O136 2.105 . S
Sc126 O139 2.105 1_455 S
Sc126 O142 2.105 1_455 S
Sc126 O145 2.105 . S
Sc127 O129 2.025 . S
Sc127 O137 2.105 . S
Sc127 O141 2.105 1_455 S
Sc127 O143 2.105 1_455 S
Sc127 O147 2.105 . S
Sc128 O129 2.025 . S
Sc128 O138 2.115 . S
Sc128 O140 2.095 1_455 S
Sc128 O144 2.095 1_455 S
Sc128 O146 2.115 . S
O129 Sc126 2.025 . S
O129 Sc127 2.025 . S
O129 Sc128 2.025 . S
C130 O136 1.268 . S
C130 O146 1.268 . S
C131 O137 1.268 . S
C131 O145 1.268 . S
C132 O138 1.268 . S
C132 O147 1.268 . S
C133 O139 1.268 . S
C133 O143 1.268 . S
C134 O140 1.268 . S
C134 O142 1.268 . S
C135 O141 1.268 . S
C135 O144 1.268 . S
O136 Sc126 2.105 . S
O136 C130 1.268 . S
O137 Sc127 2.105 . S
O137 C131 1.268 . S
O138 Sc128 2.115 . S
O138 C132 1.268 . S
O139 Sc126 2.105 1_655 S
O139 C133 1.268 . S
O140 Sc128 2.095 1_655 S
O140 C134 1.268 . S
O141 Sc127 2.105 1_655 S
O141 C135 1.268 . S
O142 Sc126 2.105 1_655 S
O142 C134 1.268 . S
O143 Sc127 2.105 1_655 S
O143 C133 1.268 . S
O144 Sc128 2.095 1_655 S
O144 C135 1.268 . S
O145 Sc126 2.105 . S
O145 C131 1.268 . S
O146 Sc128 2.115 . S
O146 C130 1.268 . S
O147 Sc127 2.105 . S
O147 C132 1.268 . S
Sc148 O151 2.025 . S
Sc148 O158 2.105 . S
Sc148 O161 2.105 . S
Sc148 O164 2.105 . S
Sc148 O167 2.105 . S
Sc149 O151 2.025 . S
Sc149 O159 2.105 . S
Sc149 O163 2.105 . S
Sc149 O165 2.105 . S
Sc149 O169 2.105 . S
Sc150 O151 2.025 . S
Sc150 O160 2.105 . S
Sc150 O162 2.105 . S
Sc150 O166 2.105 . S
Sc150 O168 2.105 . S
O151 Sc148 2.025 . S
O151 Sc149 2.025 . S
O151 Sc150 2.025 . S
C152 O158 1.268 . S
C152 O168 1.268 . S
C153 O159 1.268 . S
C153 O167 1.268 . S
C154 O160 1.268 . S
C154 O169 1.268 . S
C155 O161 1.268 . S
C155 O165 1.268 . S
C156 O162 1.268 . S
C156 O164 1.268 . S
C157 O163 1.268 . S
C157 O166 1.268 . S
O158 Sc148 2.105 . S
O158 C152 1.268 . S
O159 Sc149 2.105 . S
O159 C153 1.268 . S
O160 Sc150 2.105 . S
O160 C154 1.268 . S
O161 Sc148 2.105 . S
O161 C155 1.268 . S
O162 Sc150 2.105 . S
O162 C156 1.268 . S
O163 Sc149 2.105 . S
O163 C157 1.268 . S
O164 Sc148 2.105 . S
O164 C156 1.268 . S
O165 Sc149 2.105 . S
O165 C155 1.268 . S
O166 Sc150 2.105 . S
O166 C157 1.268 . S
O167 Sc148 2.105 . S
O167 C153 1.268 . S
O168 Sc150 2.105 . S
O168 C152 1.268 . S
O169 Sc149 2.105 . S
O169 C154 1.268 . S
Sc170 O173 2.025 . S
Sc170 O180 2.105 . S
Sc170 O183 2.105 . S
Sc170 O186 2.105 . S
Sc170 O189 2.105 . S
Sc171 O173 2.025 . S
Sc171 O181 2.105 . S
Sc171 O185 2.105 . S
Sc171 O187 2.105 . S
Sc171 O191 2.105 . S
Sc172 O173 2.025 . S
Sc172 O182 2.105 . S
Sc172 O184 2.105 . S
Sc172 O188 2.105 . S
Sc172 O190 2.105 . S
O173 Sc170 2.025 . S
O173 Sc171 2.025 . S
O173 Sc172 2.025 . S
C174 O180 1.268 . S
C174 O190 1.268 . S
C175 O181 1.268 . S
C175 O189 1.268 . S
C176 O182 1.268 . S
C176 O191 1.268 . S
C177 O183 1.268 . S
C177 O187 1.268 . S
C178 O184 1.268 . S
C178 O186 1.268 . S
C179 O185 1.268 . S
C179 O188 1.268 . S
O180 Sc170 2.105 . S
O180 C174 1.268 . S
O181 Sc171 2.105 . S
O181 C175 1.268 . S
O182 Sc172 2.105 . S
O182 C176 1.268 . S
O183 Sc170 2.105 . S
O183 C177 1.268 . S
O184 Sc172 2.105 . S
O184 C178 1.268 . S
O185 Sc171 2.105 . S
O185 C179 1.268 . S
O186 Sc170 2.105 . S
O186 C178 1.268 . S
O187 Sc171 2.105 . S
O187 C177 1.268 . S
O188 Sc172 2.105 . S
O188 C179 1.268 . S
O189 Sc170 2.105 . S
O189 C175 1.268 . S
O190 Sc172 2.105 . S
O190 C174 1.268 . S
O191 Sc171 2.105 . S
O191 C176 1.268 . S
H192 C198 0.930 . S
H193 C201 0.930 1_554 S
H194 C202 0.938 . S
H195 C203 0.930 . S
H196 C206 0.930 . S
H197 C207 0.930 . S
C198 H192 0.930 . S
C198 C199 1.355 . S
C198 C200 1.415 . S
C199 C198 1.355 . S
C199 C201 1.419 . S
C200 C198 1.415 . S
C200 C205 1.425 . S
C200 C207 1.409 . S
C201 H193 0.930 1_556 S
C201 C199 1.419 . S
C201 C202 1.362 . S
C202 H194 0.938 . S
C202 C201 1.362 . S
C202 C205 1.409 . S
C203 H195 0.930 . S
C203 C204 1.355 . S
C203 C205 1.415 . S
C204 C203 1.355 . S
C204 C206 1.419 . S
C205 C200 1.425 . S
C205 C202 1.409 . S
C205 C203 1.415 . S
C206 H196 0.930 . S
C206 C204 1.419 . S
C206 C207 1.362 . S
C207 H197 0.930 . S
C207 C200 1.409 . S
C207 C206 1.362 . S
H208 C214 0.930 . S
H209 C217 0.930 . S
H210 C218 0.930 . S
H211 C219 0.930 . S
H212 C222 0.930 . S
H213 C223 0.930 . S
C214 H208 0.930 . S
C214 C215 1.355 . S
C214 C216 1.415 . S
C215 C214 1.355 . S
C215 C217 1.419 . S
C216 C214 1.415 . S
C216 C221 1.425 . S
C216 C223 1.409 . S
C217 H209 0.930 . S
C217 C215 1.419 . S
C217 C218 1.362 . S
C218 H210 0.930 . S
C218 C217 1.362 . S
C218 C221 1.409 . S
C219 H211 0.930 . S
C219 C220 1.355 . S
C219 C221 1.415 . S
C220 C219 1.355 . S
C220 C222 1.419 . S
C221 C216 1.425 . S
C221 C218 1.409 . S
C221 C219 1.415 . S
C222 H212 0.930 . S
C222 C220 1.419 . S
C222 C223 1.362 . S
C223 H213 0.930 . S
C223 C216 1.409 . S
C223 C222 1.362 . S
H224 C230 0.930 . S
H225 C233 0.930 . S
H226 C234 0.930 . S
H227 C235 0.930 . S
H228 C238 0.930 . S
H229 C239 0.930 . S
C230 H224 0.930 . S
C230 C231 1.355 . S
C230 C232 1.415 . S
C231 C230 1.355 . S
C231 C233 1.419 . S
C232 C230 1.415 . S
C232 C237 1.425 . S
C232 C239 1.409 . S
C233 H225 0.930 . S
C233 C231 1.419 . S
C233 C234 1.362 . S
C234 H226 0.930 . S
C234 C233 1.362 . S
C234 C237 1.409 . S
C235 H227 0.930 . S
C235 C236 1.355 . S
C235 C237 1.415 . S
C236 C235 1.355 . S
C236 C238 1.419 . S
C237 C232 1.425 . S
C237 C234 1.409 . S
C237 C235 1.415 . S
C238 H228 0.930 . S
C238 C236 1.419 . S
C238 C239 1.362 . S
C239 H229 0.930 . S
C239 C232 1.409 . S
C239 C238 1.362 . S
H240 C246 0.930 . S
H241 C249 0.930 . S
H242 C250 0.930 . S
H243 C251 0.930 . S
H244 C254 0.930 . S
H245 C255 0.930 . S
C246 H240 0.930 . S
C246 C247 1.355 . S
C246 C248 1.415 . S
C247 C246 1.355 . S
C247 C249 1.419 . S
C248 C246 1.415 . S
C248 C253 1.425 . S
C248 C255 1.409 . S
C249 H241 0.930 . S
C249 C247 1.419 . S
C249 C250 1.362 . S
C250 H242 0.930 . S
C250 C249 1.362 . S
C250 C253 1.409 . S
C251 H243 0.930 . S
C251 C252 1.355 . S
C251 C253 1.415 . S
C252 C251 1.355 . S
C252 C254 1.419 . S
C253 C248 1.425 . S
C253 C250 1.409 . S
C253 C251 1.415 . S
C254 H244 0.930 . S
C254 C252 1.419 . S
C254 C255 1.362 . S
C255 H245 0.930 . S
C255 C248 1.409 . S
C255 C254 1.362 . S
H256 C262 0.930 . S
H257 C265 0.930 1_554 S
H258 C266 0.930 . S
H259 C267 0.930 . S
H260 C270 0.930 . S
H261 C271 0.930 . S
C262 H256 0.930 . S
C262 C263 1.355 . S
C262 C264 1.415 . S
C263 C262 1.355 . S
C263 C265 1.419 . S
C264 C262 1.415 . S
C264 C269 1.425 . S
C264 C271 1.409 . S
C265 H257 0.930 1_556 S
C265 C263 1.419 . S
C265 C266 1.362 . S
C266 H258 0.930 . S
C266 C265 1.362 . S
C266 C269 1.409 . S
C267 H259 0.930 . S
C267 C268 1.355 . S
C267 C269 1.415 . S
C268 C267 1.355 . S
C268 C270 1.419 . S
C269 C264 1.425 . S
C269 C266 1.409 . S
C269 C267 1.415 . S
C270 H260 0.930 . S
C270 C268 1.419 . S
C270 C271 1.362 . S
C271 H261 0.930 . S
C271 C264 1.409 . S
C271 C270 1.362 . S
H272 C278 0.930 . S
H273 C281 0.930 . S
H274 C282 0.930 . S
H275 C283 0.930 . S
H276 C286 0.930 . S
H277 C287 0.930 . S
C278 H272 0.930 . S
C278 C279 1.355 . S
C278 C280 1.415 . S
C279 C278 1.355 . S
C279 C281 1.419 . S
C280 C278 1.415 . S
C280 C285 1.425 . S
C280 C287 1.409 . S
C281 H273 0.930 . S
C281 C279 1.419 . S
C281 C282 1.362 . S
C282 H274 0.930 . S
C282 C281 1.362 . S
C282 C285 1.409 . S
C283 H275 0.930 . S
C283 C284 1.355 . S
C283 C285 1.415 . S
C284 C283 1.355 . S
C284 C286 1.419 . S
C285 C280 1.425 . S
C285 C282 1.409 . S
C285 C283 1.415 . S
C286 H276 0.930 . S
C286 C284 1.419 . S
C286 C287 1.362 . S
C287 H277 0.930 . S
C287 C280 1.409 . S
C287 C286 1.362 . S
H288 C294 0.930 . S
H289 C297 0.930 . S
H290 C298 0.930 . S
H291 C299 0.930 . S
H292 C302 0.930 . S
H293 C303 0.930 . S
C294 H288 0.930 . S
C294 C295 1.355 . S
C294 C296 1.415 . S
C295 C294 1.355 . S
C295 C297 1.419 . S
C296 C294 1.415 . S
C296 C301 1.425 . S
C296 C303 1.409 . S
C297 H289 0.930 . S
C297 C295 1.419 . S
C297 C298 1.362 . S
C298 H290 0.930 . S
C298 C297 1.362 . S
C298 C301 1.409 . S
C299 H291 0.930 . S
C299 C300 1.355 . S
C299 C301 1.415 . S
C300 C299 1.355 . S
C300 C302 1.419 . S
C301 C296 1.425 . S
C301 C298 1.409 . S
C301 C299 1.415 . S
C302 H292 0.930 . S
C302 C300 1.419 . S
C302 C303 1.362 . S
C303 H293 0.930 . S
C303 C296 1.409 . S
C303 C302 1.362 . S
H304 C310 0.930 . S
H305 C313 0.930 . S
H306 C314 0.930 . S
H307 C315 0.930 . S
H308 C318 0.930 . S
H309 C319 0.930 . S
C310 H304 0.930 . S
C310 C311 1.355 . S
C310 C312 1.415 . S
C311 C310 1.355 . S
C311 C313 1.419 . S
C312 C310 1.415 . S
C312 C317 1.425 . S
C312 C319 1.409 . S
C313 H305 0.930 . S
C313 C311 1.419 . S
C313 C314 1.362 . S
C314 H306 0.930 . S
C314 C313 1.362 . S
C314 C317 1.409 . S
C315 H307 0.930 . S
C315 C316 1.355 . S
C315 C317 1.415 . S
C316 C315 1.355 . S
C316 C318 1.419 . S
C317 C312 1.425 . S
C317 C314 1.409 . S
C317 C315 1.415 . S
C318 H308 0.930 . S
C318 C316 1.419 . S
C318 C319 1.362 . S
C319 H309 0.930 . S
C319 C312 1.409 . S
C319 C318 1.362 . S
H320 C326 0.930 . S
H321 C329 0.930 1_554 S
H322 C330 0.930 . S
H323 C331 0.930 . S
H324 C334 0.930 . S
H325 C335 0.930 . S
C326 H320 0.930 . S
C326 C327 1.355 . S
C326 C328 1.415 . S
C327 C326 1.355 . S
C327 C329 1.419 . S
C328 C326 1.415 . S
C328 C333 1.425 . S
C328 C335 1.409 . S
C329 H321 0.930 1_556 S
C329 C327 1.419 . S
C329 C330 1.362 . S
C330 H322 0.930 . S
C330 C329 1.362 . S
C330 C333 1.409 . S
C331 H323 0.930 . S
C331 C332 1.355 . S
C331 C333 1.415 . S
C332 C331 1.355 . S
C332 C334 1.419 . S
C333 C328 1.425 . S
C333 C330 1.409 . S
C333 C331 1.415 . S
C334 H324 0.930 . S
C334 C332 1.419 . S
C334 C335 1.362 . S
C335 H325 0.930 . S
C335 C328 1.409 . S
C335 C334 1.362 . S
H336 C342 0.930 . S
H337 C345 0.930 . S
H338 C346 0.930 . S
H339 C347 0.930 . S
H340 C350 0.930 . S
H341 C351 0.930 . S
C342 H336 0.930 . S
C342 C343 1.355 . S
C342 C344 1.415 . S
C343 C342 1.355 . S
C343 C345 1.419 . S
C344 C342 1.415 . S
C344 C349 1.425 . S
C344 C351 1.409 . S
C345 H337 0.930 . S
C345 C343 1.419 . S
C345 C346 1.362 . S
C346 H338 0.930 . S
C346 C345 1.362 . S
C346 C349 1.409 . S
C347 H339 0.930 . S
C347 C348 1.355 . S
C347 C349 1.415 . S
C348 C347 1.355 . S
C348 C350 1.419 . S
C349 C344 1.425 . S
C349 C346 1.409 . S
C349 C347 1.415 . S
C350 H340 0.930 . S
C350 C348 1.419 . S
C350 C351 1.362 . S
C351 H341 0.930 . S
C351 C344 1.409 . S
C351 C350 1.362 . S
H352 C358 0.930 . S
H353 C361 0.930 . S
H354 C362 0.930 . S
H355 C363 0.930 . S
H356 C366 0.930 . S
H357 C367 0.930 . S
C358 H352 0.930 . S
C358 C359 1.355 . S
C358 C360 1.415 . S
C359 C358 1.355 . S
C359 C361 1.419 . S
C360 C358 1.415 . S
C360 C365 1.425 . S
C360 C367 1.409 . S
C361 H353 0.930 . S
C361 C359 1.419 . S
C361 C362 1.362 . S
C362 H354 0.930 . S
C362 C361 1.362 . S
C362 C365 1.409 . S
C363 H355 0.930 . S
C363 C364 1.355 . S
C363 C365 1.415 . S
C364 C363 1.355 . S
C364 C366 1.419 . S
C365 C360 1.425 . S
C365 C362 1.409 . S
C365 C363 1.415 . S
C366 H356 0.930 . S
C366 C364 1.419 . S
C366 C367 1.362 . S
C367 H357 0.930 . S
C367 C360 1.409 . S
C367 C366 1.362 . S
H368 C374 0.930 . S
H369 C377 0.930 . S
H370 C378 0.930 . S
H371 C379 0.930 . S
H372 C382 0.930 . S
H373 C383 0.930 . S
C374 H368 0.930 . S
C374 C375 1.355 . S
C374 C376 1.415 . S
C375 C374 1.355 . S
C375 C377 1.419 . S
C376 C374 1.415 . S
C376 C381 1.425 . S
C376 C383 1.409 . S
C377 H369 0.930 . S
C377 C375 1.419 . S
C377 C378 1.362 . S
C378 H370 0.930 . S
C378 C377 1.362 . S
C378 C381 1.409 . S
C379 H371 0.930 . S
C379 C380 1.355 . S
C379 C381 1.415 . S
C380 C379 1.355 . S
C380 C382 1.419 . S
C381 C376 1.425 . S
C381 C378 1.409 . S
C381 C379 1.415 . S
C382 H372 0.930 . S
C382 C380 1.419 . S
C382 C383 1.362 . S
C383 H373 0.930 . S
C383 C376 1.409 . S
C383 C382 1.362 . S
H384 C390 0.930 . S
H385 C393 0.927 1_554 S
H386 C394 0.930 1_554 S
H387 C395 0.930 . S
H388 C398 0.930 . S
H389 C399 0.930 . S
C390 H384 0.930 . S
C390 C391 1.355 . S
C390 C392 1.415 . S
C391 C390 1.355 . S
C391 C393 1.421 . S
C392 C390 1.415 . S
C392 C397 1.423 1_565 S
C392 C399 1.409 1_565 S
C393 H385 0.927 1_556 S
C393 C391 1.421 . S
C393 C394 1.363 . S
C394 H386 0.930 1_556 S
C394 C393 1.363 . S
C394 C397 1.400 1_565 S
C395 H387 0.930 . S
C395 C396 1.355 . S
C395 C397 1.427 . S
C396 C395 1.355 . S
C396 C398 1.419 . S
C397 C392 1.423 1_545 S
C397 C394 1.400 1_545 S
C397 C395 1.427 . S
C398 H388 0.930 . S
C398 C396 1.419 . S
C398 C399 1.362 . S
C399 H389 0.930 . S
C399 C392 1.409 1_545 S
C399 C398 1.362 . S
H400 C406 0.930 . S
H401 C409 0.930 1_565 S
H402 C410 0.930 . S
H403 C411 0.930 . S
H404 C414 0.930 . S
H405 C415 0.930 . S
C406 H400 0.930 . S
C406 C407 1.355 . S
C406 C408 1.415 . S
C407 C406 1.355 . S
C407 C409 1.419 . S
C408 C406 1.415 . S
C408 C413 1.425 1_545 S
C408 C415 1.409 . S
C409 H401 0.930 1_545 S
C409 C407 1.419 . S
C409 C410 1.362 1_545 S
C410 H402 0.930 . S
C410 C409 1.362 1_565 S
C410 C413 1.409 . S
C411 H403 0.930 . S
C411 C412 1.355 . S
C411 C413 1.415 . S
C412 C411 1.355 . S
C412 C414 1.419 . S
C413 C408 1.425 1_565 S
C413 C410 1.409 . S
C413 C411 1.415 . S
C414 H404 0.930 . S
C414 C412 1.419 . S
C414 C415 1.362 1_565 S
C415 H405 0.930 . S
C415 C408 1.409 . S
C415 C414 1.362 1_545 S
H416 C422 0.930 . S
H417 C425 0.930 1_554 S
H418 C426 0.930 . S
H419 C427 0.930 . S
H420 C430 0.930 . S
H421 C431 0.930 . S
C422 H416 0.930 . S
C422 C423 1.355 . S
C422 C424 1.415 1_565 S
C423 C422 1.355 . S
C423 C425 1.419 . S
C424 C422 1.415 1_545 S
C424 C429 1.427 . S
C424 C431 1.409 . S
C425 H417 0.930 1_556 S
C425 C423 1.419 . S
C425 C426 1.362 . S
C426 H418 0.930 . S
C426 C425 1.362 . S
C426 C429 1.399 1_565 S
C427 H419 0.930 . S
C427 C428 1.355 . S
C427 C429 1.423 . S
C428 C427 1.355 . S
C428 C430 1.419 . S
C429 C424 1.427 . S
C429 C426 1.399 1_545 S
C429 C427 1.423 . S
C430 H420 0.930 . S
C430 C428 1.419 . S
C430 C431 1.362 . S
C431 H421 0.930 . S
C431 C424 1.409 . S
C431 C430 1.362 . S
H432 C438 0.930 . S
H433 C441 0.930 . S
H434 C442 0.930 . S
H435 C443 0.930 . S
H436 C446 0.930 . S
H437 C447 0.930 . S
C438 H432 0.930 . S
C438 C439 1.355 . S
C438 C440 1.415 . S
C439 C438 1.355 . S
C439 C441 1.419 . S
C440 C438 1.415 . S
C440 C445 1.425 1_545 S
C440 C447 1.409 . S
C441 H433 0.930 . S
C441 C439 1.419 . S
C441 C442 1.362 1_545 S
C442 H434 0.930 . S
C442 C441 1.362 1_565 S
C442 C445 1.409 . S
C443 H435 0.930 . S
C443 C444 1.355 . S
C443 C445 1.415 . S
C444 C443 1.355 . S
C444 C446 1.419 . S
C445 C440 1.425 1_565 S
C445 C442 1.409 . S
C445 C443 1.415 . S
C446 H436 0.930 . S
C446 C444 1.419 . S
C446 C447 1.362 1_565 S
C447 H437 0.930 . S
C447 C440 1.409 . S
C447 C446 1.362 1_545 S
H448 C454 0.930 . S
H449 C457 0.930 . S
H450 C458 0.930 . S
H451 C459 0.930 . S
H452 C462 0.930 . S
H453 C463 0.930 . S
C454 H448 0.930 . S
C454 C455 1.355 . S
C454 C456 1.415 . S
C455 C454 1.355 . S
C455 C457 1.419 . S
C456 C454 1.415 . S
C456 C461 1.425 . S
C456 C463 1.409 . S
C457 H449 0.930 . S
C457 C455 1.419 . S
C457 C458 1.362 . S
C458 H450 0.930 . S
C458 C457 1.362 . S
C458 C461 1.409 . S
C459 H451 0.930 . S
C459 C460 1.355 . S
C459 C461 1.415 . S
C460 C459 1.355 . S
C460 C462 1.419 . S
C461 C456 1.425 . S
C461 C458 1.409 . S
C461 C459 1.415 . S
C462 H452 0.930 . S
C462 C460 1.419 . S
C462 C463 1.362 . S
C463 H453 0.930 . S
C463 C456 1.409 . S
C463 C462 1.362 . S
H464 C470 0.930 . S
H465 C473 0.930 . S
H466 C474 0.930 . S
H467 C475 0.930 . S
H468 C478 0.930 . S
H469 C479 0.930 . S
C470 H464 0.930 . S
C470 C471 1.355 . S
C470 C472 1.415 . S
C471 C470 1.355 . S
C471 C473 1.419 . S
C472 C470 1.415 . S
C472 C477 1.425 . S
C472 C479 1.409 . S
C473 H465 0.930 . S
C473 C471 1.419 . S
C473 C474 1.362 . S
C474 H466 0.930 . S
C474 C473 1.362 . S
C474 C477 1.409 . S
C475 H467 0.930 . S
C475 C476 1.355 . S
C475 C477 1.415 . S
C476 C475 1.355 . S
C476 C478 1.419 . S
C477 C472 1.425 . S
C477 C474 1.409 . S
C477 C475 1.415 . S
C478 H468 0.930 . S
C478 C476 1.419 . S
C478 C479 1.362 . S
C479 H469 0.930 . S
C479 C472 1.409 . S
C479 C478 1.362 . S
H480 C486 0.930 . S
H481 C489 0.930 . S
H482 C490 0.930 . S
H483 C491 0.930 . S
H484 C494 0.930 . S
H485 C495 0.930 . S
C486 H480 0.930 . S
C486 C487 1.355 . S
C486 C488 1.415 . S
C487 C486 1.355 . S
C487 C489 1.419 . S
C488 C486 1.415 . S
C488 C493 1.425 . S
C488 C495 1.409 . S
C489 H481 0.930 . S
C489 C487 1.419 . S
C489 C490 1.362 . S
C490 H482 0.930 . S
C490 C489 1.362 . S
C490 C493 1.409 . S
C491 H483 0.930 . S
C491 C492 1.355 . S
C491 C493 1.415 . S
C492 C491 1.355 . S
C492 C494 1.419 . S
C493 C488 1.425 . S
C493 C490 1.409 . S
C493 C491 1.415 . S
C494 H484 0.930 . S
C494 C492 1.419 . S
C494 C495 1.362 . S
C495 H485 0.930 . S
C495 C488 1.409 . S
C495 C494 1.362 . S
H496 C502 0.930 . S
H497 C505 0.930 . S
H498 C506 0.930 . S
H499 C507 0.930 . S
H500 C510 0.930 . S
H501 C511 0.930 . S
C502 H496 0.930 . S
C502 C503 1.355 . S
C502 C504 1.415 . S
C503 C502 1.355 . S
C503 C505 1.419 . S
C504 C502 1.415 . S
C504 C509 1.425 . S
C504 C511 1.409 . S
C505 H497 0.930 . S
C505 C503 1.419 . S
C505 C506 1.362 . S
C506 H498 0.930 . S
C506 C505 1.362 . S
C506 C509 1.409 . S
C507 H499 0.930 . S
C507 C508 1.355 . S
C507 C509 1.415 . S
C508 C507 1.355 . S
C508 C510 1.419 . S
C509 C504 1.425 . S
C509 C506 1.409 . S
C509 C507 1.415 . S
C510 H500 0.930 . S
C510 C508 1.419 . S
C510 C511 1.362 . S
C511 H501 0.930 . S
C511 C504 1.409 . S
C511 C510 1.362 . S
H512 C518 0.930 . S
H513 C521 0.930 . S
H514 C522 0.930 . S
H515 C523 0.930 . S
H516 C526 0.930 . S
H517 C527 0.930 . S
C518 H512 0.930 . S
C518 C519 1.355 . S
C518 C520 1.415 . S
C519 C518 1.355 . S
C519 C521 1.419 . S
C520 C518 1.415 . S
C520 C525 1.425 . S
C520 C527 1.409 . S
C521 H513 0.930 . S
C521 C519 1.419 . S
C521 C522 1.362 . S
C522 H514 0.930 . S
C522 C521 1.362 . S
C522 C525 1.409 . S
C523 H515 0.930 . S
C523 C524 1.355 . S
C523 C525 1.415 . S
C524 C523 1.355 . S
C524 C526 1.419 . S
C525 C520 1.425 . S
C525 C522 1.409 . S
C525 C523 1.415 . S
C526 H516 0.930 . S
C526 C524 1.419 . S
C526 C527 1.362 . S
C527 H517 0.930 . S
C527 C520 1.409 . S
C527 C526 1.362 . S
H528 C534 0.930 . S
H529 C537 0.930 . S
H530 C538 0.930 . S
H531 C539 0.930 . S
H532 C542 0.930 . S
H533 C543 0.930 . S
C534 H528 0.930 . S
C534 C535 1.355 . S
C534 C536 1.415 . S
C535 C534 1.355 . S
C535 C537 1.419 . S
C536 C534 1.415 . S
C536 C541 1.425 . S
C536 C543 1.409 . S
C537 H529 0.930 . S
C537 C535 1.419 . S
C537 C538 1.362 . S
C538 H530 0.930 . S
C538 C537 1.362 . S
C538 C541 1.409 . S
C539 H531 0.930 . S
C539 C540 1.355 . S
C539 C541 1.415 . S
C540 C539 1.355 . S
C540 C542 1.419 . S
C541 C536 1.425 . S
C541 C538 1.409 . S
C541 C539 1.415 . S
C542 H532 0.930 . S
C542 C540 1.419 . S
C542 C543 1.362 . S
C543 H533 0.930 . S
C543 C536 1.409 . S
C543 C542 1.362 . S
H544 C550 0.930 . S
H545 C553 0.930 . S
H546 C554 0.930 . S
H547 C555 0.930 . S
H548 C558 0.930 . S
H549 C559 0.930 . S
C550 H544 0.930 . S
C550 C551 1.355 . S
C550 C552 1.415 . S
C551 C550 1.355 . S
C551 C553 1.419 . S
C552 C550 1.415 . S
C552 C557 1.425 . S
C552 C559 1.409 . S
C553 H545 0.930 . S
C553 C551 1.419 . S
C553 C554 1.362 . S
C554 H546 0.930 . S
C554 C553 1.362 . S
C554 C557 1.409 . S
C555 H547 0.930 . S
C555 C556 1.355 . S
C555 C557 1.415 . S
C556 C555 1.355 . S
C556 C558 1.419 . S
C557 C552 1.425 . S
C557 C554 1.409 . S
C557 C555 1.415 . S
C558 H548 0.930 . S
C558 C556 1.419 . S
C558 C559 1.362 . S
C559 H549 0.930 . S
C559 C552 1.409 . S
C559 C558 1.362 . S
H560 C566 0.930 . S
H561 C569 0.930 . S
H562 C570 0.930 . S
H563 C571 0.930 . S
H564 C574 0.930 . S
H565 C575 0.930 . S
C566 H560 0.930 . S
C566 C567 1.355 . S
C566 C568 1.415 . S
C567 C566 1.355 . S
C567 C569 1.419 . S
C568 C566 1.415 . S
C568 C573 1.425 . S
C568 C575 1.409 . S
C569 H561 0.930 . S
C569 C567 1.419 . S
C569 C570 1.362 . S
C570 H562 0.930 . S
C570 C569 1.362 . S
C570 C573 1.409 . S
C571 H563 0.930 . S
C571 C572 1.355 . S
C571 C573 1.415 . S
C572 C571 1.355 . S
C572 C574 1.419 . S
C573 C568 1.425 . S
C573 C570 1.409 . S
C573 C571 1.415 . S
C574 H564 0.930 . S
C574 C572 1.419 . S
C574 C575 1.362 . S
C575 H565 0.930 . S
C575 C568 1.409 . S
C575 C574 1.362 . S
C199 C4 1.558 . S
C204 C130 1.595 . S
C220 C108 1.481 . S
C215 C17 1.446 . S
C236 C134 1.436 . S
C231 C30 1.412 . S
C252 C112 1.586 . S
C247 C43 1.585 . S
C268 C174 1.596 . S
C263 C56 1.554 . S
C284 C152 1.426 . S
C279 C69 1.466 . S
C295 C82 1.363 . S
C300 C178 1.430 . S
C316 C156 1.588 . S
C311 C95 1.583 . S
C327 C9 1.528 . S
C332 C179 1.550 . S
C348 C157 1.422 . S
C343 C21 1.445 . S
C359 C34 1.410 . S
C364 C176 1.454 . S
C375 C48 1.554 . S
C380 C154 1.535 . S
C396 C135 1.573 . S
C391 C61 1.504 . S
C407 C73 1.452 . S
C412 C113 1.418 . S
C428 C132 1.451 . S
C423 C86 1.416 . S
C444 C110 1.533 . S
C439 C100 1.561 . S
C460 C153 1.504 . S
C455 C8 1.467 . S
C476 C175 1.478 . S
C471 C22 1.500 . S
C487 C35 1.459 . S
C492 C155 1.507 . S
C508 C177 1.500 . S
C503 C47 1.479 . S
C524 C109 1.508 . S
C519 C60 1.467 . S
C535 C74 1.506 . S
C540 C131 1.470 . S
C551 C87 1.505 . S
C556 C111 1.471 . S
C567 C99 1.500 . S
C572 C133 1.475 . S
