# Generated by pormake.
# Topology pyr, (3,6)-cn, num edge types: 1
# Building blocks:
#     Node 0, Type 0, BuildingBlock: BELTOD_clean_linker_0, # of connection points: 3
#     Node 1, Type 0, BuildingBlock: BELTOD_clean_linker_0, # of connection points: 3
#     Node 2, Type 0, BuildingBlock: BELTOD_clean_linker_0, # of connection points: 3
#     Node 3, Type 0, BuildingBlock: BELTOD_clean_linker_0, # of connection points: 3
#     Node 4, Type 0, BuildingBlock: BELTOD_clean_linker_0, # of connection points: 3
#     Node 5, Type 0, BuildingBlock: BELTOD_clean_linker_0, # of connection points: 3
#     Node 6, Type 0, BuildingBlock: BELTOD_clean_linker_0, # of connection points: 3
#     Node 7, Type 0, BuildingBlock: BELTOD_clean_linker_0, # of connection points: 3
#     Node 8, Type 1, BuildingBlock: MIFKUJ_clean_sbu_0, # of connection points: 6
#     Node 9, Type 1, BuildingBlock: MIFKUJ_clean_sbu_0, # of connection points: 6
#     Node 10, Type 1, BuildingBlock: MIFKUJ_clean_sbu_0, # of connection points: 6
#     Node 11, Type 1, BuildingBlock: MIFKUJ_clean_sbu_0, # of connection points: 6
#     Edge 12, Type (0, 1), BuildingBlock: UVAHIK_clean_linker_0, # of connection points: 2
#     Edge 13, Type (0, 1), BuildingBlock: UVAHIK_clean_linker_0, # of connection points: 2
#     Edge 14, Type (0, 1), BuildingBlock: UVAHIK_clean_linker_0, # of connection points: 2
#     Edge 15, Type (0, 1), BuildingBlock: UVAHIK_clean_linker_0, # of connection points: 2
#     Edge 16, Type (0, 1), BuildingBlock: UVAHIK_clean_linker_0, # of connection points: 2
#     Edge 17, Type (0, 1), BuildingBlock: UVAHIK_clean_linker_0, # of connection points: 2
#     Edge 18, Type (0, 1), BuildingBlock: UVAHIK_clean_linker_0, # of connection points: 2
#     Edge 19, Type (0, 1), BuildingBlock: UVAHIK_clean_linker_0, # of connection points: 2
#     Edge 20, Type (0, 1), BuildingBlock: UVAHIK_clean_linker_0, # of connection points: 2
#     Edge 21, Type (0, 1), BuildingBlock: UVAHIK_clean_linker_0, # of connection points: 2
#     Edge 22, Type (0, 1), BuildingBlock: UVAHIK_clean_linker_0, # of connection points: 2
#     Edge 23, Type (0, 1), BuildingBlock: UVAHIK_clean_linker_0, # of connection points: 2
#     Edge 24, Type (0, 1), BuildingBlock: UVAHIK_clean_linker_0, # of connection points: 2
#     Edge 25, Type (0, 1), BuildingBlock: UVAHIK_clean_linker_0, # of connection points: 2
#     Edge 26, Type (0, 1), BuildingBlock: UVAHIK_clean_linker_0, # of connection points: 2
#     Edge 27, Type (0, 1), BuildingBlock: UVAHIK_clean_linker_0, # of connection points: 2
#     Edge 28, Type (0, 1), BuildingBlock: UVAHIK_clean_linker_0, # of connection points: 2
#     Edge 29, Type (0, 1), BuildingBlock: UVAHIK_clean_linker_0, # of connection points: 2
#     Edge 30, Type (0, 1), BuildingBlock: UVAHIK_clean_linker_0, # of connection points: 2
#     Edge 31, Type (0, 1), BuildingBlock: UVAHIK_clean_linker_0, # of connection points: 2
#     Edge 32, Type (0, 1), BuildingBlock: UVAHIK_clean_linker_0, # of connection points: 2
#     Edge 33, Type (0, 1), BuildingBlock: UVAHIK_clean_linker_0, # of connection points: 2
#     Edge 34, Type (0, 1), BuildingBlock: UVAHIK_clean_linker_0, # of connection points: 2
#     Edge 35, Type (0, 1), BuildingBlock: UVAHIK_clean_linker_0, # of connection points: 2
# Relax obj value: 0.029
# Max RMSD: 0.083
# Mean RMSD: 0.052
data_MOF--net-pyr--node1-MIFKUJ_clean_sbu_0--node2-BELTOD_clean_linker_0--edge1-UVAHIK_clean_linker_0
_symmetry_space_group_name_H-M    P1
_symmetry_Int_Tables_number       1
_symmetry_cell_setting            triclinic
loop_
_symmetry_equiv_pos_as_xyz
'x, y, z'
_cell_length_a     55.739819
_cell_length_b     50.356321
_cell_length_c     54.016674
_cell_angle_alpha  86.446437
_cell_angle_beta   88.641322
_cell_angle_gamma 95.573357
loop_
_atom_site_label
_atom_site_type_symbol
_atom_site_fract_x
_atom_site_fract_y
_atom_site_fract_z
_atom_type_partial_charge
P0 P 0.23656 0.23568 0.24834 0.0
H1 H 0.28885 0.23948 0.23911 0.0
H2 H 0.31443 0.21429 0.21378 0.0
H3 H 0.25138 0.16533 0.19219 0.0
H4 H 0.22587 0.19043 0.21781 0.0
H5 H 0.2002 0.2709 0.26011 0.0
H6 H 0.17193 0.29419 0.23474 0.0
H7 H 0.20316 0.26554 0.16871 0.0
H8 H 0.23131 0.24252 0.19399 0.0
H9 H 0.24468 0.21094 0.29736 0.0
H10 H 0.18781 0.20898 0.24453 0.0
O11 O 0.25349 0.25679 0.26491 0.0
H12 H 0.21903 0.1803 0.32616 0.0
H13 H 0.16215 0.17855 0.27315 0.0
C14 C 0.2555 0.21672 0.23037 0.0
C15 C 0.28053 0.22323 0.22908 0.0
C16 C 0.29513 0.20881 0.21464 0.0
C17 C 0.28485 0.18792 0.20102 0.0
C18 C 0.25973 0.18148 0.20235 0.0
C19 C 0.24519 0.19567 0.21708 0.0
C20 C 0.21769 0.25476 0.22903 0.0
C21 C 0.20108 0.26987 0.24014 0.0
C22 C 0.18497 0.28317 0.22565 0.0
C23 C 0.1852 0.28145 0.19977 0.0
C24 C 0.20228 0.26681 0.18865 0.0
C25 C 0.21847 0.25367 0.20315 0.0
C26 C 0.21788 0.2128 0.26917 0.0
C27 C 0.22666 0.20398 0.29201 0.0
C28 C 0.21208 0.18636 0.30835 0.0
C29 C 0.1885 0.1773 0.30199 0.0
C30 C 0.18007 0.18562 0.27873 0.0
C31 C 0.19472 0.20303 0.26238 0.0
P32 P 0.36366 0.88592 0.65602 0.0
H33 H 0.40461 0.87464 0.68586 0.0
H34 H 0.41349 0.87962 0.72955 0.0
H35 H 0.34366 0.90778 0.74155 0.0
H36 H 0.33469 0.9024 0.69798 0.0
H37 H 0.37948 0.87129 0.60742 0.0
H38 H 0.39178 0.82974 0.5922 0.0
H39 H 0.37791 0.79062 0.66529 0.0
H40 H 0.36543 0.8322 0.68034 0.0
H41 H 0.33729 0.93292 0.65153 0.0
H42 H 0.32214 0.84806 0.64485 0.0
O43 O 0.38121 0.91092 0.64117 0.0
H44 H 0.29573 0.9395 0.64098 0.0
H45 H 0.28062 0.85458 0.63396 0.0
C46 C 0.36889 0.88776 0.68869 0.0
C47 C 0.39106 0.88149 0.69798 0.0
C48 C 0.3961 0.88431 0.72293 0.0
C49 C 0.37921 0.894 0.73894 0.0
C50 C 0.35702 0.90036 0.72958 0.0
C51 C 0.35187 0.89719 0.70466 0.0
C52 C 0.37221 0.855 0.64513 0.0
C53 C 0.37916 0.85378 0.62017 0.0
C54 C 0.38602 0.83 0.61147 0.0
C55 C 0.38601 0.80701 0.62762 0.0
C56 C 0.3785 0.80816 0.65254 0.0
C57 C 0.37139 0.8319 0.66115 0.0
C58 C 0.33287 0.8901 0.64867 0.0
C59 C 0.32502 0.91573 0.64775 0.0
C60 C 0.30126 0.91943 0.64187 0.0
C61 C 0.285 0.89754 0.63659 0.0
C62 C 0.29287 0.87182 0.63771 0.0
C63 C 0.31658 0.86809 0.64395 0.0
P64 P 0.69437 0.31511 0.79651 0.0
H65 H 0.7469 0.31762 0.79282 0.0
H66 H 0.7789 0.34161 0.81495 0.0
H67 H 0.72568 0.37947 0.85607 0.0
H68 H 0.69353 0.3549 0.83392 0.0
H69 H 0.64467 0.29243 0.79107 0.0
H70 H 0.61688 0.26302 0.81855 0.0
H71 H 0.66842 0.26902 0.87698 0.0
H72 H 0.69635 0.29756 0.84917 0.0
H73 H 0.70087 0.32428 0.74285 0.0
H74 H 0.65802 0.35323 0.80101 0.0
O75 O 0.70665 0.29155 0.78148 0.0
H76 H 0.68083 0.35092 0.71188 0.0
H77 H 0.63762 0.37998 0.76993 0.0
C78 C 0.71783 0.33428 0.81193 0.0
C79 C 0.74205 0.33111 0.80654 0.0
C80 C 0.76039 0.34499 0.81913 0.0
C81 C 0.75486 0.36243 0.83733 0.0
C82 C 0.73052 0.36593 0.84238 0.0
C83 C 0.71215 0.35206 0.82965 0.0
C84 C 0.67235 0.29776 0.81823 0.0
C85 C 0.64975 0.28789 0.80998 0.0
C86 C 0.63384 0.27108 0.82575 0.0
C87 C 0.6404 0.26359 0.85 0.0
C88 C 0.66288 0.27411 0.85835 0.0
C89 C 0.67878 0.29078 0.84253 0.0
C90 C 0.68056 0.33638 0.77416 0.0
C91 C 0.68711 0.33637 0.74897 0.0
C92 C 0.67558 0.35157 0.73125 0.0
C93 C 0.65739 0.36727 0.73841 0.0
C94 C 0.65158 0.36812 0.76383 0.0
C95 C 0.66312 0.35277 0.78159 0.0
P96 P 0.80956 0.68776 0.28001 0.0
H97 H 0.83848 0.73726 0.26415 0.0
H98 H 0.86612 0.768 0.28564 0.0
H99 H 0.85543 0.71595 0.35253 0.0
H100 H 0.82846 0.68485 0.33053 0.0
H101 H 0.80387 0.67319 0.22884 0.0
H102 H 0.82559 0.64538 0.20257 0.0
H103 H 0.87116 0.62654 0.26358 0.0
H104 H 0.84956 0.65513 0.28966 0.0
H105 H 0.78067 0.70302 0.32144 0.0
H106 H 0.78984 0.63116 0.28425 0.0
O107 O 0.79412 0.70729 0.26156 0.0
H108 H 0.74828 0.67891 0.34769 0.0
H109 H 0.75771 0.60689 0.31057 0.0
C110 C 0.83093 0.7092 0.29595 0.0
C111 C 0.84215 0.73246 0.28343 0.0
C112 C 0.85786 0.75008 0.2958 0.0
C113 C 0.86271 0.74472 0.32097 0.0
C114 C 0.85217 0.72072 0.33315 0.0
C115 C 0.83653 0.70302 0.32067 0.0
C116 C 0.8254 0.66657 0.26104 0.0
C117 C 0.81858 0.66316 0.23657 0.0
C118 C 0.83089 0.647 0.22161 0.0
C119 C 0.85017 0.63369 0.23092 0.0
C120 C 0.85665 0.6368 0.2557 0.0
C121 C 0.84429 0.65305 0.27065 0.0
C122 C 0.78794 0.66881 0.30118 0.0
C123 C 0.77602 0.68192 0.31926 0.0
C124 C 0.75754 0.6681 0.33428 0.0
C125 C 0.7504 0.64097 0.33123 0.0
C126 C 0.76263 0.62783 0.31324 0.0
C127 C 0.78117 0.64166 0.2983 0.0
P128 P 0.83013 0.86523 0.84312 0.0
H129 H 0.80865 0.86783 0.89207 0.0
H130 H 0.76743 0.87114 0.90697 0.0
H131 H 0.74247 0.8649 0.83218 0.0
H132 H 0.7839 0.86207 0.81738 0.0
H133 H 0.87922 0.85368 0.85275 0.0
H134 H 0.89669 0.81309 0.86732 0.0
H135 H 0.82571 0.76972 0.87072 0.0
H136 H 0.80836 0.8106 0.85654 0.0
H137 H 0.83512 0.9123 0.80865 0.0
H138 H 0.83178 0.82677 0.80449 0.0
O139 O 0.84591 0.89109 0.85495 0.0
H140 H 0.84402 0.91843 0.76405 0.0
H141 H 0.84042 0.8327 0.75979 0.0
C142 C 0.79933 0.86513 0.85365 0.0
C143 C 0.79425 0.86701 0.87894 0.0
C144 C 0.77065 0.86867 0.88744 0.0
C145 C 0.75165 0.86838 0.87074 0.0
C146 C 0.75675 0.86555 0.84545 0.0
C147 C 0.78043 0.86388 0.83697 0.0
C148 C 0.84248 0.83524 0.85422 0.0
C149 C 0.86743 0.83546 0.85683 0.0
C150 C 0.8774 0.81218 0.8649 0.0
C151 C 0.86257 0.7882 0.87028 0.0
C152 C 0.83756 0.78798 0.86714 0.0
C153 C 0.82762 0.81132 0.85905 0.0
C154 C 0.83351 0.86917 0.80991 0.0
C155 C 0.83606 0.89484 0.79806 0.0
C156 C 0.84092 0.89828 0.77252 0.0
C157 C 0.84317 0.87603 0.75843 0.0
C158 C 0.83921 0.85023 0.77023 0.0
C159 C 0.83428 0.84683 0.79577 0.0
P160 P 0.70599 0.21578 0.28929 0.0
H161 H 0.71365 0.26375 0.31656 0.0
H162 H 0.68801 0.28507 0.3451 0.0
H163 H 0.63116 0.22136 0.33853 0.0
H164 H 0.65693 0.20024 0.30979 0.0
H165 H 0.74517 0.18724 0.27161 0.0
H166 H 0.77483 0.16203 0.29275 0.0
H167 H 0.74215 0.1761 0.36356 0.0
H168 H 0.71206 0.20029 0.34224 0.0
H169 H 0.67371 0.23281 0.25167 0.0
H170 H 0.69752 0.15825 0.28027 0.0
O171 O 0.72264 0.24032 0.27279 0.0
H172 H 0.64906 0.20913 0.22176 0.0
H173 H 0.67375 0.13445 0.24965 0.0
C174 C 0.68697 0.2308 0.31067 0.0
C175 C 0.69564 0.25443 0.32122 0.0
C176 C 0.68104 0.26646 0.33769 0.0
C177 C 0.6575 0.25496 0.34399 0.0
C178 C 0.64906 0.23091 0.33374 0.0
C179 C 0.66378 0.21882 0.31734 0.0
C180 C 0.72645 0.19563 0.3053 0.0
C181 C 0.74429 0.18463 0.29168 0.0
C182 C 0.76135 0.17042 0.30383 0.0
C183 C 0.76105 0.1672 0.32991 0.0
C184 C 0.7428 0.1779 0.34347 0.0
C185 C 0.72562 0.19194 0.33126 0.0
C186 C 0.68774 0.19739 0.26786 0.0
C187 C 0.67378 0.21133 0.25133 0.0
C188 C 0.65982 0.19775 0.23412 0.0
C189 C 0.65966 0.16988 0.233 0.0
C190 C 0.67334 0.15588 0.25004 0.0
C191 C 0.68717 0.16952 0.26743 0.0
P192 P 0.34962 0.61911 0.16643 0.0
H193 H 0.32885 0.6234 0.11808 0.0
H194 H 0.28797 0.6153 0.10335 0.0
H195 H 0.26192 0.5939 0.1787 0.0
H196 H 0.30277 0.60352 0.19336 0.0
H197 H 0.39425 0.64431 0.14206 0.0
H198 H 0.40856 0.69071 0.12998 0.0
H199 H 0.34326 0.71615 0.16165 0.0
H200 H 0.32881 0.6694 0.17312 0.0
H201 H 0.33653 0.57047 0.19801 0.0
H202 H 0.37373 0.64854 0.20585 0.0
O203 O 0.36581 0.59955 0.1503 0.0
H204 H 0.34625 0.55687 0.24054 0.0
H205 H 0.38441 0.63486 0.24773 0.0
C206 C 0.31894 0.61358 0.15672 0.0
C207 C 0.31429 0.61704 0.13143 0.0
C208 C 0.29088 0.6122 0.12301 0.0
C209 C 0.27157 0.60352 0.13974 0.0
C210 C 0.27626 0.60068 0.16526 0.0
C211 C 0.29973 0.60586 0.17368 0.0
C212 C 0.36031 0.65345 0.15808 0.0
C213 C 0.38297 0.65985 0.14632 0.0
C214 C 0.39123 0.68646 0.13963 0.0
C215 C 0.37705 0.70721 0.14479 0.0
C216 C 0.35447 0.70066 0.15704 0.0
C217 C 0.34622 0.67399 0.16368 0.0
C218 C 0.35395 0.61066 0.19885 0.0
C219 C 0.34648 0.58482 0.20901 0.0
C220 C 0.35233 0.57697 0.23325 0.0
C221 C 0.36622 0.59471 0.24767 0.0
C222 C 0.37333 0.62077 0.23746 0.0
C223 C 0.36727 0.62864 0.21332 0.0
P224 P 0.18279 0.30406 0.72692 0.0
H225 H 0.19585 0.25559 0.70622 0.0
H226 H 0.17599 0.22493 0.67807 0.0
H227 H 0.11548 0.2724 0.67461 0.0
H228 H 0.1356 0.30317 0.70288 0.0
H229 H 0.22596 0.33568 0.7417 0.0
H230 H 0.2594 0.36157 0.71818 0.0
H231 H 0.22474 0.34352 0.64973 0.0
H232 H 0.19115 0.31808 0.6733 0.0
H233 H 0.13856 0.2886 0.75605 0.0
H234 H 0.18381 0.36148 0.73585 0.0
O235 O 0.19628 0.28564 0.74814 0.0
H236 H 0.11452 0.31265 0.78387 0.0
H237 H 0.16061 0.38538 0.76434 0.0
C238 C 0.16697 0.28128 0.70705 0.0
C239 C 0.17822 0.25929 0.69958 0.0
C240 C 0.16694 0.24191 0.68332 0.0
C241 C 0.14416 0.24624 0.67412 0.0
C242 C 0.1329 0.26838 0.68162 0.0
C243 C 0.14436 0.28595 0.69778 0.0
C244 C 0.2062 0.32475 0.70929 0.0
C245 C 0.22547 0.3375 0.72164 0.0
C246 C 0.2445 0.35235 0.7082 0.0
C247 C 0.2447 0.35441 0.68213 0.0
C248 C 0.22514 0.342 0.6698 0.0
C249 C 0.20592 0.32749 0.68329 0.0
C250 C 0.16288 0.3232 0.74372 0.0
C251 C 0.14312 0.30987 0.75734 0.0
C252 C 0.12956 0.32361 0.77347 0.0
C253 C 0.13575 0.35095 0.77662 0.0
C254 C 0.15512 0.36444 0.76224 0.0
C255 C 0.16855 0.35068 0.74597 0.0
Zn256 Zn 0.02318 0.98649 0.51586 0.0
Zn257 Zn 0.97257 0.00175 0.48404 0.0
C258 C 0.04869 0.03625 0.5249 0.0
O259 O 0.06431 0.02618 0.51045 0.0
C260 C 0.97673 0.94778 0.46572 0.0
O261 O 0.98879 0.94264 0.48575 0.0
O262 O 0.05122 0.96741 0.52814 0.0
O263 O 0.9935 0.96641 0.53221 0.0
O264 O 0.96291 0.98808 0.51904 0.0
C265 C 0.05583 0.96829 0.55103 0.0
O266 O 0.04167 0.98042 0.56546 0.0
O267 O 0.02828 0.02308 0.52962 0.0
C268 C 0.94955 0.0361 0.4506 0.0
O269 O 0.9692 0.03342 0.43745 0.0
O270 O 0.94683 0.02453 0.47222 0.0
O271 O 0.00409 0.02425 0.47671 0.0
O272 O 0.02683 0.99101 0.47864 0.0
O273 O 0.96943 0.97078 0.46178 0.0
C274 C 0.97166 0.97148 0.53416 0.0
C275 C 0.02261 0.0138 0.46936 0.0
Zn276 Zn 0.50756 0.9874 0.0033 0.0
Zn277 Zn 0.47175 0.02147 0.02483 0.0
C278 C 0.47696 0.95467 0.9741 0.0
O279 O 0.48709 0.93637 0.98746 0.0
C280 C 0.50568 0.05418 0.04985 0.0
O281 O 0.49576 0.07183 0.0355 0.0
O282 O 0.53548 0.96797 0.99261 0.0
O283 O 0.51932 0.02639 0.99912 0.0
O284 O 0.48343 0.03871 0.99121 0.0
C285 C 0.54314 0.97277 0.97028 0.0
O286 O 0.53302 0.99036 0.95605 0.0
O287 O 0.48216 0.97913 0.97814 0.0
C288 C 0.44036 0.03732 0.06088 0.0
O289 O 0.45252 0.02043 0.07375 0.0
O290 O 0.44476 0.04119 0.03766 0.0
O291 O 0.45948 0.9823 0.0287 0.0
O292 O 0.49555 0.97077 0.03668 0.0
O293 O 0.49862 0.02951 0.04872 0.0
C294 C 0.50625 0.04266 0.98839 0.0
C295 C 0.4728 0.96615 0.0392 0.0
Zn296 Zn 0.50805 0.47642 0.49504 0.0
Zn297 Zn 0.48976 0.52274 0.52496 0.0
C298 C 0.5389 0.50547 0.45895 0.0
O299 O 0.52401 0.49121 0.4453 0.0
C300 C 0.45961 0.49022 0.56071 0.0
O301 O 0.47644 0.49967 0.57534 0.0
O302 O 0.51549 0.44243 0.47997 0.0
O303 O 0.51011 0.46898 0.53181 0.0
O304 O 0.52037 0.51074 0.53983 0.0
C305 C 0.53567 0.43413 0.48537 0.0
O306 O 0.54949 0.44742 0.50072 0.0
O307 O 0.53543 0.50361 0.48239 0.0
C308 C 0.46488 0.56804 0.532 0.0
O309 O 0.45139 0.55609 0.51555 0.0
O310 O 0.48348 0.55748 0.53938 0.0
O311 O 0.48732 0.52936 0.48775 0.0
O312 O 0.47723 0.48725 0.48073 0.0
O313 O 0.46157 0.49674 0.53757 0.0
C314 C 0.52167 0.4859 0.54468 0.0
C315 C 0.47628 0.51195 0.47492 0.0
Zn316 Zn 0.99028 0.51477 0.98987 0.0
Zn317 Zn 0.00908 0.47185 0.0266 0.0
C318 C 0.96053 0.48576 0.95822 0.0
O319 O 0.97721 0.4984 0.94303 0.0
C320 C 0.03938 0.50733 0.05375 0.0
O321 O 0.02376 0.49731 0.07129 0.0
O322 O 0.98344 0.54896 0.97128 0.0
O323 O 0.98808 0.52352 0.02581 0.0
O324 O 0.97827 0.48261 0.04161 0.0
C325 C 0.96307 0.55637 0.97742 0.0
O326 O 0.94965 0.54178 0.99449 0.0
O327 O 0.96224 0.48853 0.98139 0.0
C328 C 0.03945 0.43337 0.04119 0.0
O329 O 0.05131 0.44593 0.0219 0.0
O330 O 0.01888 0.44032 0.0472 0.0
O331 O 0.00995 0.46131 0.99125 0.0
O332 O 0.02062 0.50208 0.9753 0.0
O333 O 0.03635 0.50047 0.03167 0.0
C334 C 0.97708 0.50759 0.04242 0.0
C335 C 0.02099 0.47694 0.97442 0.0
C336 C 0.18095 0.13765 0.3327 0.0
C337 C 0.17248 0.15977 0.31973 0.0
C338 C 0.16567 0.12123 0.3494 0.0
C339 C 0.11086 0.12138 0.38839 0.0
H340 H 0.10641 0.04424 0.38612 0.0
C341 C 0.03482 0.05372 0.44042 0.0
C342 C 0.04037 0.02943 0.45205 0.0
C343 C 0.0517 0.06905 0.42467 0.0
C344 C 0.10768 0.06572 0.38725 0.0
H345 H 0.14159 0.18229 0.3143 0.0
H346 H 0.11495 0.15366 0.34341 0.0
H347 H 0.1349 0.07222 0.35821 0.0
H348 H 0.06803 0.00212 0.45616 0.0
H349 H 0.09773 0.0292 0.42896 0.0
H350 H 0.08388 0.11507 0.41747 0.0
C351 C 0.13337 0.14901 0.3407 0.0
C352 C 0.12397 0.08172 0.37124 0.0
C353 C 0.14853 0.16524 0.32387 0.0
C354 C 0.06315 0.02069 0.44739 0.0
C355 C 0.08014 0.03616 0.43173 0.0
C356 C 0.09473 0.10542 0.4045 0.0
C357 C 0.14176 0.12684 0.35364 0.0
C358 C 0.12548 0.10972 0.37145 0.0
C359 C 0.07465 0.06061 0.42029 0.0
C360 C 0.0927 0.07741 0.40391 0.0
H361 H 0.1993 0.1329 0.32974 0.0
H362 H 0.17264 0.10435 0.35923 0.0
H363 H 0.11195 0.1429 0.38926 0.0
H364 H 0.01738 0.06096 0.44347 0.0
H365 H 0.04667 0.08749 0.41579 0.0
C366 C 0.39567 0.87865 0.77956 0.0
C367 C 0.3852 0.89831 0.76508 0.0
C368 C 0.40267 0.88333 0.8037 0.0
C369 C 0.39642 0.92897 0.85482 0.0
H370 H 0.45694 0.90343 0.87471 0.0
C371 C 0.45145 0.96637 0.93809 0.0
C372 C 0.46205 0.94701 0.95288 0.0
C373 C 0.43944 0.95936 0.91662 0.0
C374 C 0.43986 0.91042 0.86956 0.0
H375 H 0.37361 0.93817 0.76452 0.0
H376 H 0.38636 0.94668 0.80642 0.0
H377 H 0.44112 0.8932 0.83449 0.0
H378 H 0.46748 0.90489 0.9573 0.0
H379 H 0.44668 0.89278 0.91985 0.0
H380 H 0.39577 0.94693 0.8898 0.0
C381 C 0.38867 0.92737 0.79943 0.0
C382 C 0.43071 0.90449 0.8465 0.0
C383 C 0.38142 0.92255 0.77538 0.0
C384 C 0.45964 0.92034 0.94626 0.0
C385 C 0.44782 0.9134 0.92475 0.0
C386 C 0.40572 0.93513 0.87784 0.0
C387 C 0.39966 0.90793 0.81381 0.0
C388 C 0.40888 0.91369 0.83878 0.0
C389 C 0.43799 0.9329 0.90946 0.0
C390 C 0.42755 0.92591 0.88543 0.0
H391 H 0.39848 0.85963 0.77219 0.0
H392 H 0.41056 0.86765 0.81438 0.0
H393 H 0.37939 0.93608 0.84966 0.0
H394 H 0.45295 0.98708 0.94272 0.0
H395 H 0.43213 0.97484 0.90512 0.0
C396 C 0.63653 0.36911 0.69791 0.0
C397 C 0.64407 0.38181 0.71922 0.0
C398 C 0.62433 0.38257 0.67952 0.0
C399 C 0.58902 0.44042 0.66747 0.0
H400 H 0.60256 0.42682 0.59889 0.0
C401 C 0.54587 0.4936 0.58284 0.0
C402 C 0.53656 0.47633 0.56514 0.0
C403 C 0.55992 0.48414 0.60204 0.0
C404 C 0.59852 0.43075 0.61796 0.0
H405 H 0.64454 0.41863 0.73803 0.0
H406 H 0.62338 0.44239 0.70566 0.0
H407 H 0.62552 0.40679 0.63165 0.0
H408 H 0.53475 0.4356 0.55375 0.0
H409 H 0.55933 0.41933 0.58691 0.0
H410 H 0.56198 0.46451 0.65348 0.0
C411 C 0.62668 0.42184 0.70334 0.0
C412 C 0.61162 0.4192 0.63677 0.0
C413 C 0.63883 0.40826 0.72187 0.0
C414 C 0.54163 0.44948 0.56703 0.0
C415 C 0.55585 0.44016 0.58596 0.0
C416 C 0.57601 0.45218 0.64855 0.0
C417 C 0.61942 0.40919 0.68184 0.0
C418 C 0.60671 0.42339 0.66182 0.0
C419 C 0.56519 0.45735 0.60366 0.0
C420 C 0.58032 0.44701 0.62364 0.0
H421 H 0.63982 0.34855 0.69555 0.0
H422 H 0.61848 0.37192 0.66357 0.0
H423 H 0.58463 0.44395 0.68654 0.0
H424 H 0.54222 0.51437 0.58193 0.0
H425 H 0.56696 0.49784 0.6154 0.0
C426 C 0.85157 0.60133 0.19736 0.0
C427 C 0.86372 0.61724 0.21455 0.0
C428 C 0.86439 0.58736 0.18077 0.0
C429 C 0.92476 0.58855 0.15088 0.0
H430 H 0.89965 0.51931 0.12976 0.0
C431 C 0.96149 0.546 0.06285 0.0
C432 C 0.96418 0.5185 0.06324 0.0
C433 C 0.94976 0.55667 0.0825 0.0
C434 C 0.90706 0.53851 0.13563 0.0
H435 H 0.89897 0.63034 0.22807 0.0
H436 H 0.92128 0.60544 0.19958 0.0
H437 H 0.87864 0.53947 0.16285 0.0
H438 H 0.95652 0.48063 0.08465 0.0
H439 H 0.93621 0.49935 0.11918 0.0
H440 H 0.95332 0.5875 0.12393 0.0
C441 C 0.90182 0.60413 0.19865 0.0
C442 C 0.89486 0.55022 0.15442 0.0
C443 C 0.88899 0.61816 0.21522 0.0
C444 C 0.95469 0.50188 0.08373 0.0
C445 C 0.94297 0.5126 0.10348 0.0
C446 C 0.93696 0.57684 0.13216 0.0
C447 C 0.88971 0.58885 0.18097 0.0
C448 C 0.90342 0.57553 0.1621 0.0
C449 C 0.94046 0.54017 0.10314 0.0
C450 C 0.92812 0.55183 0.12406 0.0
H451 H 0.83209 0.59983 0.19656 0.0
H452 H 0.85445 0.57601 0.16729 0.0
H453 H 0.93177 0.60817 0.15609 0.0
H454 H 0.9684 0.55938 0.04728 0.0
H455 H 0.94775 0.57788 0.08135 0.0
C456 C 0.29444 0.16836 0.16084 0.0
C457 C 0.30031 0.17292 0.18546 0.0
C458 C 0.3093 0.1546 0.14605 0.0
C459 C 0.37129 0.13311 0.14267 0.0
H460 H 0.34333 0.08416 0.09607 0.0
C461 C 0.42382 0.05396 0.09964 0.0
C462 C 0.42328 0.05286 0.07372 0.0
C463 C 0.40855 0.06944 0.11199 0.0
C464 C 0.35134 0.09797 0.10885 0.0
H465 H 0.32591 0.16616 0.21415 0.0
H466 H 0.35146 0.14142 0.18874 0.0
H467 H 0.31707 0.10935 0.1205 0.0
H468 H 0.40595 0.06669 0.04046 0.0
H469 H 0.37871 0.09343 0.06232 0.0
H470 H 0.40547 0.12091 0.13159 0.0
C471 C 0.33584 0.14916 0.18047 0.0
C472 C 0.33635 0.11248 0.1228 0.0
C473 C 0.32115 0.16321 0.19512 0.0
C474 C 0.40679 0.06721 0.06044 0.0
C475 C 0.39119 0.0824 0.07291 0.0
C476 C 0.38618 0.11835 0.129 0.0
C477 C 0.33022 0.14481 0.15568 0.0
C478 C 0.34613 0.13007 0.14007 0.0
C479 C 0.39216 0.08386 0.09877 0.0
C480 C 0.37634 0.10049 0.11213 0.0
H481 H 0.27857 0.1759 0.15288 0.0
H482 H 0.30457 0.152 0.12697 0.0
H483 H 0.37955 0.14694 0.15528 0.0
H484 H 0.43635 0.04321 0.11041 0.0
H485 H 0.40947 0.07003 0.13197 0.0
C486 C 0.25008 0.89028 0.60855 0.0
C487 C 0.26005 0.90176 0.62949 0.0
C488 C 0.22713 0.89566 0.60095 0.0
C489 C 0.18273 0.94528 0.60777 0.0
H490 H 0.13949 0.8922 0.5778 0.0
C491 C 0.08509 0.96338 0.58499 0.0
C492 C 0.07778 0.95774 0.56099 0.0
C493 C 0.10659 0.95502 0.59398 0.0
C494 C 0.15146 0.90724 0.58602 0.0
H495 H 0.25351 0.92691 0.65956 0.0
H496 H 0.21324 0.93575 0.64681 0.0
H497 H 0.17821 0.88014 0.59294 0.0
H498 H 0.08696 0.93818 0.52787 0.0
H499 H 0.12451 0.92331 0.54375 0.0
H500 H 0.15583 0.97223 0.60112 0.0
C501 C 0.22335 0.92325 0.63572 0.0
C502 C 0.17368 0.90039 0.59463 0.0
C503 C 0.24638 0.91811 0.64312 0.0
C504 C 0.09212 0.94288 0.54643 0.0
C505 C 0.11355 0.93427 0.55554 0.0
C506 C 0.16046 0.952 0.59941 0.0
C507 C 0.21355 0.91245 0.61431 0.0
C508 C 0.18963 0.91936 0.60557 0.0
C509 C 0.12116 0.9406 0.57928 0.0
C510 C 0.14462 0.9331 0.5884 0.0
H511 H 0.26034 0.8778 0.59757 0.0
H512 H 0.22037 0.88728 0.5842 0.0
H513 H 0.19471 0.96062 0.61554 0.0
H514 H 0.07447 0.97476 0.59672 0.0
H515 H 0.11189 0.95993 0.61245 0.0
C516 C 0.79597 0.38745 0.8385 0.0
C517 C 0.77454 0.37657 0.85106 0.0
C518 C 0.81498 0.39964 0.85143 0.0
C519 C 0.84049 0.40212 0.91374 0.0
H520 H 0.87762 0.46578 0.88419 0.0
C521 C 0.91891 0.46128 0.96303 0.0
C522 C 0.93923 0.47079 0.94796 0.0
C523 C 0.89809 0.44937 0.95251 0.0
C524 C 0.86758 0.44786 0.89261 0.0
H525 H 0.75627 0.37012 0.88713 0.0
H526 H 0.78943 0.39183 0.90974 0.0
H527 H 0.84228 0.44679 0.86346 0.0
H528 H 0.95398 0.47416 0.91022 0.0
H529 H 0.91802 0.45327 0.89209 0.0
H530 H 0.86602 0.40323 0.94286 0.0
C531 C 0.79155 0.39067 0.88986 0.0
C532 C 0.8473 0.43698 0.88072 0.0
C533 C 0.77246 0.37851 0.87688 0.0
C534 C 0.93858 0.46732 0.92236 0.0
C535 C 0.91788 0.45549 0.91191 0.0
C536 C 0.86083 0.41306 0.92568 0.0
C537 C 0.81308 0.40129 0.87729 0.0
C538 C 0.83369 0.41376 0.89093 0.0
C539 C 0.89722 0.44682 0.92674 0.0
C540 C 0.87482 0.43583 0.91503 0.0
H541 H 0.79808 0.38654 0.81859 0.0
H542 H 0.83138 0.40733 0.84119 0.0
H543 H 0.83052 0.38408 0.922 0.0
H544 H 0.91883 0.46368 0.98282 0.0
H545 H 0.88244 0.44294 0.96444 0.0
C546 C 0.71227 0.60995 0.33434 0.0
C547 C 0.72958 0.62677 0.34591 0.0
C548 C 0.6923 0.59711 0.34782 0.0
C549 C 0.65542 0.6002 0.40534 0.0
H550 H 0.63187 0.52802 0.39076 0.0
C551 C 0.57723 0.53598 0.46136 0.0
C552 C 0.56034 0.52146 0.44717 0.0
C553 C 0.59823 0.54952 0.45008 0.0
C554 C 0.63811 0.54826 0.39492 0.0
H555 H 0.73959 0.64303 0.38086 0.0
H556 H 0.70479 0.62037 0.40453 0.0
H557 H 0.66819 0.5497 0.36943 0.0
H558 H 0.55199 0.51043 0.40989 0.0
H559 H 0.58838 0.53395 0.39037 0.0
H560 H 0.62523 0.59854 0.43098 0.0
C561 C 0.70648 0.61745 0.38489 0.0
C562 C 0.65893 0.56072 0.38266 0.0
C563 C 0.72645 0.63039 0.37135 0.0
C564 C 0.56464 0.52128 0.42143 0.0
C565 C 0.5856 0.53463 0.41023 0.0
C566 C 0.63461 0.58764 0.41774 0.0
C567 C 0.68914 0.60066 0.37327 0.0
C568 C 0.66769 0.58699 0.38744 0.0
C569 C 0.60279 0.54861 0.42443 0.0
C570 C 0.62555 0.56166 0.41239 0.0
H571 H 0.71387 0.60714 0.31467 0.0
H572 H 0.67908 0.58478 0.33812 0.0
H573 H 0.6615 0.62054 0.40931 0.0
H574 H 0.57445 0.53652 0.48123 0.0
H575 H 0.61119 0.56007 0.46151 0.0
C576 C 0.16245 0.32079 0.18824 0.0
C577 C 0.16747 0.29454 0.1844 0.0
C578 C 0.14615 0.33327 0.17332 0.0
C579 C 0.11833 0.32974 0.11211 0.0
H580 H 0.07666 0.37896 0.1389 0.0
C581 C 0.07421 0.40697 0.05028 0.0
C582 C 0.05101 0.41337 0.05679 0.0
C583 C 0.08619 0.38984 0.06584 0.0
C584 C 0.08792 0.36499 0.13116 0.0
H585 H 0.15874 0.26041 0.16255 0.0
H586 H 0.13009 0.28204 0.13668 0.0
H587 H 0.10128 0.35389 0.16676 0.0
H588 H 0.02183 0.40611 0.0844 0.0
H589 H 0.04268 0.37579 0.1115 0.0
H590 H 0.10481 0.3406 0.07657 0.0
C591 C 0.13913 0.29324 0.15083 0.0
C592 C 0.10228 0.3509 0.1471 0.0
C593 C 0.15554 0.28084 0.16564 0.0
C594 C 0.03973 0.40162 0.0789 0.0
C595 C 0.05174 0.3844 0.0945 0.0
C596 C 0.10391 0.34374 0.09621 0.0
C597 C 0.13439 0.31969 0.15433 0.0
C598 C 0.11793 0.33339 0.13771 0.0
C599 C 0.07523 0.37859 0.08827 0.0
C600 C 0.08883 0.36187 0.10548 0.0
H601 H 0.17155 0.33192 0.20241 0.0
H602 H 0.14323 0.3538 0.17627 0.0
H603 H 0.1303 0.31661 0.1042 0.0
H604 H 0.08345 0.4157 0.0334 0.0
H605 H 0.10438 0.38612 0.06063 0.0
C606 C 0.59937 0.24348 0.86624 0.0
C607 C 0.62463 0.24353 0.86594 0.0
C608 C 0.58471 0.22382 0.88054 0.0
C609 C 0.58649 0.17369 0.93344 0.0
H610 H 0.53038 0.13773 0.90421 0.0
C611 C 0.54316 0.07165 0.97299 0.0
C612 C 0.51787 0.067 0.97445 0.0
C613 C 0.55446 0.09477 0.96056 0.0
C614 C 0.54578 0.14784 0.91277 0.0
H615 H 0.65417 0.22258 0.88017 0.0
H616 H 0.62874 0.18865 0.9051 0.0
H617 H 0.55328 0.17571 0.88127 0.0
H618 H 0.48461 0.08301 0.96374 0.0
H619 H 0.50449 0.1236 0.94187 0.0
H620 H 0.57932 0.14563 0.96471 0.0
C621 C 0.62024 0.20405 0.89467 0.0
C622 C 0.55889 0.1696 0.89964 0.0
C623 C 0.63484 0.22358 0.88038 0.0
C624 C 0.50412 0.08598 0.96293 0.0
C625 C 0.5155 0.10917 0.95035 0.0
C626 C 0.57343 0.15199 0.94651 0.0
C627 C 0.595 0.20386 0.89489 0.0
C628 C 0.57968 0.18242 0.90964 0.0
C629 C 0.5408 0.1139 0.94921 0.0
C630 C 0.55321 0.13847 0.93614 0.0
H631 H 0.59092 0.25871 0.85553 0.0
H632 H 0.56534 0.22436 0.88049 0.0
H633 H 0.60211 0.18348 0.94189 0.0
H634 H 0.55435 0.05744 0.98153 0.0
H635 H 0.57398 0.09754 0.95963 0.0
C636 C 0.87593 0.79209 0.33019 0.0
C637 C 0.87795 0.76458 0.33459 0.0
C638 C 0.88971 0.81086 0.34327 0.0
C639 C 0.92183 0.81843 0.4014 0.0
H640 H 0.94908 0.88543 0.36813 0.0
C641 C 0.97558 0.90012 0.45414 0.0
C642 C 0.96977 0.92639 0.44886 0.0
C643 C 0.96733 0.87959 0.4392 0.0
C644 C 0.94147 0.86689 0.37773 0.0
H645 H 0.89642 0.73535 0.35603 0.0
H646 H 0.92034 0.76823 0.37908 0.0
H647 H 0.92905 0.85087 0.34401 0.0
H648 H 0.95129 0.95179 0.42328 0.0
H649 H 0.93677 0.91609 0.3975 0.0
H650 H 0.93376 0.83467 0.4352 0.0
C651 C 0.90792 0.77517 0.36557 0.0
C652 C 0.93 0.84708 0.3639 0.0
C653 C 0.89418 0.75634 0.35239 0.0
C654 C 0.95612 0.9318 0.42791 0.0
C655 C 0.94791 0.91132 0.413 0.0
C656 C 0.93327 0.83828 0.41525 0.0
C657 C 0.9058 0.80266 0.36117 0.0
C658 C 0.9197 0.82279 0.37562 0.0
C659 C 0.95315 0.8849 0.41862 0.0
C660 C 0.94289 0.86292 0.40364 0.0
H661 H 0.86327 0.79916 0.31702 0.0
H662 H 0.88729 0.83183 0.33976 0.0
H663 H 0.91387 0.80006 0.41102 0.0
H664 H 0.98613 0.89528 0.47009 0.0
H665 H 0.97196 0.85953 0.44387 0.0
C666 C 0.38627 0.77288 0.59575 0.0
C667 C 0.3941 0.78205 0.61852 0.0
C668 C 0.39441 0.74979 0.58683 0.0
C669 C 0.4236 0.6889 0.60641 0.0
H670 H 0.43654 0.68711 0.5357 0.0
C671 C 0.46933 0.60343 0.56281 0.0
C672 C 0.45812 0.5931 0.54193 0.0
C673 C 0.46228 0.62674 0.57245 0.0
C674 C 0.43287 0.68727 0.55547 0.0
H675 H 0.41669 0.77431 0.64974 0.0
H676 H 0.43129 0.73426 0.63398 0.0
H677 H 0.42271 0.72714 0.5521 0.0
H678 H 0.43093 0.5993 0.51462 0.0
H679 H 0.41884 0.64 0.5313 0.0
H680 H 0.43412 0.64903 0.60967 0.0
C681 C 0.41845 0.74455 0.62323 0.0
C682 C 0.42484 0.71017 0.56489 0.0
C683 C 0.41013 0.76753 0.63226 0.0
C684 C 0.43993 0.60672 0.53074 0.0
C685 C 0.43308 0.63012 0.5402 0.0
C686 C 0.43185 0.66607 0.59699 0.0
C687 C 0.41077 0.73544 0.60034 0.0
C688 C 0.41988 0.71122 0.59046 0.0
C689 C 0.44409 0.64033 0.56121 0.0
C690 C 0.43637 0.66494 0.5714 0.0
H691 H 0.37366 0.78346 0.58493 0.0
H692 H 0.38769 0.74309 0.56939 0.0
H693 H 0.41967 0.68883 0.62614 0.0
H694 H 0.48337 0.59337 0.57187 0.0
H695 H 0.4712 0.63428 0.58856 0.0
C696 C 0.84353 0.90002 0.7162 0.0
C697 C 0.85181 0.87997 0.73215 0.0
C698 C 0.85416 0.90609 0.69257 0.0
C699 C 0.91229 0.90433 0.66079 0.0
H700 H 0.87839 0.92275 0.60126 0.0
C701 C 0.964 0.93624 0.56895 0.0
C702 C 0.95618 0.95789 0.5547 0.0
C703 C 0.94984 0.92394 0.58888 0.0
C704 C 0.88812 0.91788 0.61778 0.0
H705 H 0.87703 0.8498 0.73542 0.0
H706 H 0.89535 0.8602 0.69413 0.0
H707 H 0.85548 0.90565 0.63903 0.0
H708 H 0.92711 0.98329 0.54997 0.0
H709 H 0.9027 0.96231 0.58518 0.0
H710 H 0.94485 0.91729 0.6401 0.0
C711 C 0.88078 0.87137 0.69998 0.0
C712 C 0.87499 0.90801 0.63935 0.0
C713 C 0.87011 0.86523 0.72353 0.0
C714 C 0.93365 0.96663 0.56055 0.0
C715 C 0.91957 0.95447 0.58065 0.0
C716 C 0.92538 0.91434 0.63936 0.0
C717 C 0.87336 0.89232 0.68453 0.0
C718 C 0.88697 0.90125 0.6611 0.0
C719 C 0.92762 0.93315 0.59522 0.0
C720 C 0.91348 0.92138 0.61761 0.0
H721 H 0.82927 0.91151 0.72224 0.0
H722 H 0.84812 0.9224 0.68109 0.0
H723 H 0.92203 0.8998 0.6774 0.0
H724 H 0.98113 0.92879 0.56477 0.0
H725 H 0.95638 0.90724 0.59938 0.0
C726 C 0.64389 0.16781 0.18994 0.0
C727 C 0.6454 0.15571 0.21396 0.0
C728 C 0.62972 0.15525 0.17229 0.0
C729 C 0.60142 0.09065 0.1547 0.0
H730 H 0.55814 0.13416 0.11916 0.0
C731 C 0.52882 0.0471 0.08864 0.0
C732 C 0.52391 0.06337 0.06766 0.0
C733 C 0.54452 0.05706 0.1065 0.0
C734 C 0.57037 0.12177 0.12859 0.0
H735 H 0.63348 0.12051 0.23798 0.0
H736 H 0.60904 0.09834 0.20683 0.0
H737 H 0.58404 0.15379 0.15015 0.0
H738 H 0.53255 0.1022 0.04818 0.0
H739 H 0.56039 0.1192 0.07871 0.0
H740 H 0.58802 0.0587 0.13279 0.0
C741 C 0.61889 0.11761 0.20182 0.0
C742 C 0.58514 0.13304 0.14644 0.0
C743 C 0.63293 0.13031 0.21962 0.0
C744 C 0.5357 0.08931 0.06435 0.0
C745 C 0.55156 0.09912 0.08197 0.0
C746 C 0.58677 0.07938 0.13659 0.0
C747 C 0.61689 0.13016 0.1781 0.0
C748 C 0.60092 0.11768 0.15958 0.0
C749 C 0.55577 0.08339 0.10357 0.0
C750 C 0.57118 0.09489 0.12317 0.0
H751 H 0.65372 0.18702 0.18469 0.0
H752 H 0.62884 0.16518 0.154 0.0
H753 H 0.61354 0.0784 0.16449 0.0
H754 H 0.51992 0.02703 0.09168 0.0
H755 H 0.5472 0.04443 0.12296 0.0
C756 C 0.38122 0.55971 0.27716 0.0
C757 C 0.37441 0.58574 0.27265 0.0
C758 C 0.39029 0.55176 0.30007 0.0
C759 C 0.42207 0.57878 0.35289 0.0
H760 H 0.40202 0.50942 0.38606 0.0
C761 C 0.45832 0.54721 0.44849 0.0
C762 C 0.46317 0.52046 0.4527 0.0
C763 C 0.44618 0.5553 0.42738 0.0
C764 C 0.40807 0.52873 0.37692 0.0
H765 H 0.3711 0.62344 0.28925 0.0
H766 H 0.38746 0.60966 0.32901 0.0
H767 H 0.38302 0.52311 0.34774 0.0
H768 H 0.4592 0.48125 0.43793 0.0
H769 H 0.43869 0.49544 0.40084 0.0
H770 H 0.44758 0.58422 0.38151 0.0
C771 C 0.38587 0.59553 0.31467 0.0
C772 C 0.39708 0.53659 0.355 0.0
C773 C 0.37656 0.60342 0.29184 0.0
C774 C 0.45559 0.50197 0.43534 0.0
C775 C 0.44367 0.51011 0.41411 0.0
C776 C 0.43323 0.57082 0.37466 0.0
C777 C 0.39301 0.56968 0.31895 0.0
C778 C 0.40402 0.56167 0.34271 0.0
C779 C 0.43881 0.53689 0.40982 0.0
C780 C 0.42645 0.54564 0.38694 0.0
H781 H 0.38028 0.54567 0.26275 0.0
H782 H 0.39592 0.53181 0.30272 0.0
H783 H 0.42803 0.59808 0.34365 0.0
H784 H 0.46378 0.56193 0.46158 0.0
H785 H 0.44242 0.57598 0.42497 0.0
C786 C 0.11639 0.35153 0.81905 0.0
C787 C 0.12311 0.36486 0.79591 0.0
C788 C 0.10562 0.36476 0.8377 0.0
C789 C 0.07362 0.4243 0.84918 0.0
H790 H 0.0919 0.40887 0.917 0.0
C791 C 0.04174 0.48162 0.93227 0.0
C792 C 0.03358 0.46561 0.95364 0.0
C793 C 0.0532 0.47051 0.91258 0.0
C794 C 0.08648 0.41327 0.89817 0.0
H795 H 0.12322 0.40259 0.77419 0.0
H796 H 0.10498 0.4259 0.807 0.0
H797 H 0.11063 0.38738 0.88341 0.0
H798 H 0.03127 0.42543 0.97114 0.0
H799 H 0.05127 0.4062 0.93697 0.0
H800 H 0.04953 0.45038 0.86413 0.0
C801 C 0.1078 0.40505 0.81059 0.0
C802 C 0.09716 0.40088 0.8789 0.0
C803 C 0.11851 0.39176 0.79185 0.0
C804 C 0.0373 0.43835 0.95496 0.0
C805 C 0.04891 0.42733 0.93543 0.0
C806 C 0.06302 0.43684 0.8685 0.0
C807 C 0.10141 0.39177 0.83384 0.0
C808 C 0.09066 0.40595 0.85417 0.0
C809 C 0.05697 0.44324 0.91399 0.0
C810 C 0.06913 0.4312 0.89324 0.0
H811 H 0.11993 0.33097 0.82305 0.0
H812 H 0.1006 0.35373 0.8552 0.0
H813 H 0.06799 0.4285 0.83041 0.0
H814 H 0.0391 0.50268 0.93065 0.0
H815 H 0.05935 0.48331 0.89636 0.0
C816 C 0.71768 0.86123 0.90261 0.0
C817 C 0.72701 0.87279 0.87958 0.0
C818 C 0.69567 0.86782 0.91216 0.0
C819 C 0.64031 0.89929 0.89564 0.0
H820 H 0.64088 0.91868 0.96401 0.0
C821 C 0.57144 0.96445 0.93565 0.0
C822 C 0.56275 0.95845 0.96019 0.0
C823 C 0.58992 0.95099 0.92596 0.0
C824 C 0.64023 0.91293 0.94503 0.0
H825 H 0.72012 0.89971 0.84819 0.0
H826 H 0.68172 0.91109 0.86479 0.0
H827 H 0.67544 0.89952 0.94648 0.0
H828 H 0.56644 0.93334 0.99373 0.0
H829 H 0.59864 0.90968 0.97672 0.0
H830 H 0.60524 0.91314 0.89409 0.0
C831 C 0.6913 0.89673 0.87537 0.0
C832 C 0.66005 0.90193 0.93498 0.0
C833 C 0.71332 0.89018 0.86584 0.0
C834 C 0.57284 0.93855 0.97479 0.0
C835 C 0.59133 0.92504 0.96508 0.0
C836 C 0.62046 0.91026 0.90571 0.0
C837 C 0.68248 0.88606 0.89886 0.0
C838 C 0.66046 0.89536 0.91006 0.0
C839 C 0.60012 0.93116 0.94056 0.0
C840 C 0.62036 0.9176 0.93041 0.0
H841 H 0.72759 0.84739 0.91345 0.0
H842 H 0.68913 0.85893 0.93013 0.0
H843 H 0.63995 0.89408 0.87648 0.0
H844 H 0.5641 0.9797 0.92391 0.0
H845 H 0.59654 0.95651 0.90715 0.0
C846 C 0.80414 0.15723 0.33382 0.0
C847 C 0.7801 0.15346 0.34289 0.0
C848 C 0.82214 0.14457 0.346 0.0
C849 C 0.83753 0.11432 0.40641 0.0
H850 H 0.88374 0.08025 0.36756 0.0
C851 C 0.90738 0.04963 0.45131 0.0
C852 C 0.93035 0.05106 0.43971 0.0
C853 C 0.8889 0.06248 0.4401 0.0
C854 C 0.87122 0.08999 0.37869 0.0
H855 H 0.75621 0.13315 0.37189 0.0
H856 H 0.7878 0.11136 0.39336 0.0
H857 H 0.85175 0.10174 0.34681 0.0
H858 H 0.95218 0.06788 0.40771 0.0
H859 H 0.92022 0.09078 0.38852 0.0
H860 H 0.85719 0.10291 0.43828 0.0
C861 C 0.79264 0.12428 0.37686 0.0
C862 C 0.85283 0.10222 0.36677 0.0
C863 C 0.77457 0.1368 0.36456 0.0
C864 C 0.93462 0.06617 0.41702 0.0
C865 C 0.91623 0.07916 0.40593 0.0
C866 C 0.85606 0.10223 0.41834 0.0
C867 C 0.8166 0.12798 0.36765 0.0
C868 C 0.83583 0.11459 0.38048 0.0
C869 C 0.89303 0.07719 0.41713 0.0
C870 C 0.87319 0.08998 0.40461 0.0
H871 H 0.80919 0.17036 0.31751 0.0
H872 H 0.84051 0.14813 0.33868 0.0
H873 H 0.82483 0.12395 0.41743 0.0
H874 H 0.90349 0.03806 0.46876 0.0
H875 H 0.87121 0.06029 0.44915 0.0
C876 C 0.24359 0.58475 0.10785 0.0
C877 C 0.24683 0.59696 0.13045 0.0
C878 C 0.2205 0.57845 0.09904 0.0
C879 C 0.15763 0.56269 0.11985 0.0
H880 H 0.14375 0.57743 0.05061 0.0
C881 C 0.06293 0.53468 0.0836 0.0
C882 C 0.06164 0.52343 0.06046 0.0
C883 C 0.08471 0.54708 0.09144 0.0
C884 C 0.14736 0.57291 0.06995 0.0
H885 H 0.22802 0.61233 0.16132 0.0
H886 H 0.18766 0.60063 0.14618 0.0
H887 H 0.18344 0.59203 0.06587 0.0
H888 H 0.08198 0.51709 0.02701 0.0
H889 H 0.12015 0.53805 0.04089 0.0
H890 H 0.12203 0.54274 0.12391 0.0
C891 C 0.20313 0.596 0.13534 0.0
C892 C 0.17009 0.58137 0.07869 0.0
C893 C 0.22627 0.60258 0.14405 0.0
C894 C 0.08238 0.52573 0.04489 0.0
C895 C 0.10427 0.53785 0.05286 0.0
C896 C 0.135 0.55398 0.11108 0.0
C897 C 0.20002 0.58389 0.11273 0.0
C898 C 0.17551 0.57618 0.1037 0.0
C899 C 0.10584 0.54821 0.07646 0.0
C900 C 0.12958 0.55882 0.08596 0.0
H901 H 0.25889 0.57955 0.09709 0.0
H902 H 0.21866 0.56872 0.08176 0.0
H903 H 0.16138 0.55809 0.13915 0.0
H904 H 0.04719 0.53346 0.09592 0.0
H905 H 0.08503 0.55541 0.10944 0.0
C906 C 0.27661 0.35673 0.64836 0.0
C907 C 0.26567 0.36873 0.66792 0.0
C908 C 0.29723 0.36952 0.63588 0.0
C909 C 0.34699 0.42301 0.64319 0.0
H910 H 0.3587 0.41506 0.57314 0.0
C911 C 0.43808 0.46208 0.59566 0.0
C912 C 0.43793 0.47387 0.57143 0.0
C913 C 0.41719 0.44819 0.60659 0.0
C914 C 0.35565 0.41774 0.59266 0.0
H915 H 0.26714 0.40388 0.68917 0.0
H916 H 0.3026 0.42668 0.66692 0.0
H917 H 0.32137 0.39453 0.5933 0.0
H918 H 0.41588 0.48 0.53945 0.0
H919 H 0.37919 0.45651 0.55875 0.0
H920 H 0.3807 0.44715 0.64239 0.0
C921 C 0.29581 0.40701 0.66167 0.0
C922 C 0.33433 0.40562 0.60433 0.0
C923 C 0.2754 0.39405 0.67436 0.0
C924 C 0.41658 0.471 0.55813 0.0
C925 C 0.39555 0.45741 0.5692 0.0
C926 C 0.36814 0.43536 0.63147 0.0
C927 C 0.30722 0.39478 0.64246 0.0
C928 C 0.32973 0.40803 0.62979 0.0
C929 C 0.3955 0.44608 0.59371 0.0
C930 C 0.37285 0.43281 0.60607 0.0
H931 H 0.26964 0.33707 0.64321 0.0
H932 H 0.30566 0.35924 0.6215 0.0
H933 H 0.34436 0.42502 0.66288 0.0
H934 H 0.45433 0.4637 0.60629 0.0
H935 H 0.41808 0.43918 0.62523 0.0
C936 C 0.86167 0.74726 0.89929 0.0
C937 C 0.87316 0.76372 0.87969 0.0
C938 C 0.87217 0.72496 0.90901 0.0
C939 C 0.91714 0.67822 0.89546 0.0
H940 H 0.91563 0.66546 0.96705 0.0
C941 C 0.96734 0.59583 0.94619 0.0
C942 C 0.9542 0.58068 0.96563 0.0
C943 C 0.95847 0.61865 0.93514 0.0
C944 C 0.91604 0.66862 0.94701 0.0
H945 H 0.9043 0.76916 0.85438 0.0
H946 H 0.92284 0.73041 0.87166 0.0
H947 H 0.89779 0.70392 0.94852 0.0
H948 H 0.92143 0.57755 0.98862 0.0
H949 H 0.90603 0.61702 0.96933 0.0
H950 H 0.93537 0.64274 0.89406 0.0
C951 C 0.90565 0.73471 0.87941 0.0
C952 C 0.90577 0.69063 0.9364 0.0
C953 C 0.89515 0.75706 0.86969 0.0
C954 C 0.93208 0.5888 0.97376 0.0
C955 C 0.92329 0.61155 0.9628 0.0
C956 C 0.92745 0.65614 0.90611 0.0
C957 C 0.8944 0.7186 0.89937 0.0
C958 C 0.90597 0.69553 0.9105 0.0
C959 C 0.93638 0.62678 0.94342 0.0
C960 C 0.92676 0.65097 0.932 0.0
H961 H 0.84482 0.75195 0.90754 0.0
H962 H 0.86288 0.71272 0.92416 0.0
H963 H 0.91741 0.68135 0.87543 0.0
H964 H 0.98443 0.59006 0.93951 0.0
H965 H 0.96903 0.63011 0.92034 0.0
C966 C 0.41005 0.74497 0.13883 0.0
C967 C 0.38564 0.73544 0.13695 0.0
C968 C 0.4184 0.77106 0.13025 0.0
C969 C 0.40319 0.82596 0.08675 0.0
H970 H 0.45272 0.86774 0.12089 0.0
C971 C 0.43681 0.93473 0.0536 0.0
C972 C 0.46194 0.94124 0.05276 0.0
C973 C 0.42664 0.91063 0.06542 0.0
C974 C 0.43899 0.85624 0.11107 0.0
H975 H 0.3508 0.74612 0.12485 0.0
H976 H 0.36525 0.79183 0.11044 0.0
H977 H 0.43628 0.82396 0.13902 0.0
H978 H 0.49605 0.92771 0.06411 0.0
H979 H 0.47829 0.88567 0.08466 0.0
H980 H 0.406 0.85818 0.05874 0.0
C981 C 0.37802 0.77897 0.11823 0.0
C982 C 0.42959 0.83114 0.12143 0.0
C983 C 0.36968 0.75285 0.12678 0.0
C984 C 0.47662 0.92334 0.06442 0.0
C985 C 0.46644 0.8993 0.07633 0.0
C986 C 0.41253 0.85109 0.07644 0.0
C987 C 0.40254 0.78831 0.11962 0.0
C988 C 0.41172 0.81559 0.10929 0.0
C989 C 0.44136 0.89256 0.07676 0.0
C990 C 0.43068 0.86641 0.08837 0.0
H991 H 0.42278 0.73222 0.14687 0.0
H992 H 0.43743 0.77747 0.1314 0.0
H993 H 0.38975 0.81437 0.07667 0.0
H994 H 0.42497 0.9481 0.04487 0.0
H995 H 0.40723 0.90616 0.06569 0.0
C996 C 0.14603 0.21871 0.63717 0.0
C997 C 0.13245 0.22764 0.65669 0.0
C998 C 0.13564 0.19988 0.62169 0.0
C999 C 0.07722 0.1672 0.60179 0.0
H1000 H 0.11697 0.11177 0.58418 0.0
C1001 C 0.04095 0.07013 0.55575 0.0
C1002 C 0.05595 0.06101 0.53744 0.0
C1003 C 0.04906 0.09201 0.5692 0.0
C1004 C 0.1057 0.12727 0.58865 0.0
H1005 H 0.09714 0.22428 0.67491 0.0
H1006 H 0.07898 0.19103 0.648 0.0
H1007 H 0.13329 0.14684 0.60972 0.0
H1008 H 0.09075 0.06856 0.51811 0.0
H1009 H 0.10473 0.10663 0.54136 0.0
H1010 H 0.04948 0.14713 0.58088 0.0
C1011 C 0.09761 0.19887 0.64448 0.0
C1012 C 0.11508 0.14744 0.6033 0.0
C1013 C 0.10801 0.21789 0.65992 0.0
C1014 C 0.0788 0.07486 0.53223 0.0
C1015 C 0.08689 0.09663 0.54566 0.0
C1016 C 0.06777 0.14687 0.58716 0.0
C1017 C 0.11143 0.18933 0.6254 0.0
C1018 C 0.10106 0.16779 0.60993 0.0
C1019 C 0.07233 0.10514 0.56464 0.0
C1020 C 0.08199 0.12678 0.58029 0.0
H1021 H 0.16478 0.22625 0.6339 0.0
H1022 H 0.14667 0.19351 0.60682 0.0
H1023 H 0.06597 0.18267 0.60637 0.0
H1024 H 0.02323 0.0599 0.56021 0.0
H1025 H 0.03745 0.09801 0.58377 0.0
C1026 C 0.61753 0.27084 0.35514 0.0
C1027 C 0.64175 0.26842 0.36077 0.0
C1028 C 0.60319 0.28512 0.37004 0.0
C1029 C 0.59928 0.31277 0.43185 0.0
H1030 H 0.56214 0.3645 0.39807 0.0
C1031 C 0.56686 0.40243 0.47946 0.0
C1032 C 0.54441 0.41111 0.47334 0.0
C1033 C 0.57606 0.38196 0.46704 0.0
C1034 C 0.57204 0.34983 0.40785 0.0
H1035 H 0.66962 0.27813 0.38699 0.0
H1036 H 0.64473 0.30329 0.41279 0.0
H1037 H 0.58306 0.33398 0.374 0.0
H1038 H 0.51366 0.40453 0.44983 0.0
H1039 H 0.52969 0.36855 0.42822 0.0
H1040 H 0.58863 0.32897 0.46566 0.0
C1041 C 0.63675 0.29406 0.39695 0.0
C1042 C 0.58405 0.33234 0.39403 0.0
C1043 C 0.6511 0.27991 0.38201 0.0
C1044 C 0.53105 0.39836 0.45493 0.0
C1045 C 0.54029 0.37786 0.44246 0.0
C1046 C 0.58723 0.33022 0.44566 0.0
C1047 C 0.61273 0.29713 0.39096 0.0
C1048 C 0.59816 0.31393 0.40584 0.0
C1049 C 0.56304 0.36964 0.44818 0.0
C1050 C 0.57383 0.3493 0.43379 0.0
H1051 H 0.60985 0.26237 0.3388 0.0
H1052 H 0.58468 0.28692 0.36506 0.0
H1053 H 0.60967 0.2985 0.44152 0.0
H1054 H 0.57763 0.41181 0.49355 0.0
H1055 H 0.59378 0.37641 0.47169 0.0
loop_
_geom_bond_atom_site_label_1
_geom_bond_atom_site_label_2
_geom_bond_distance
_geom_bond_site_symmetry_2
_ccdc_geom_bond_type
P0 O11 1.490 . S
P0 C14 1.812 . S
P0 C20 1.803 . S
P0 C26 1.819 . S
H1 C15 0.941 . S
H2 C16 0.939 . S
H3 C18 0.940 . S
H4 C19 0.940 . S
H5 C21 0.939 . S
H6 C22 0.942 . S
H7 C24 0.940 . S
H8 C25 0.939 . S
H9 C27 0.941 . S
H10 C31 0.939 . S
O11 P0 1.490 . S
H12 C28 0.939 . S
H13 C30 0.940 . S
C14 P0 1.812 . S
C14 C15 1.389 . S
C14 C19 1.391 . S
C15 H1 0.941 . S
C15 C14 1.389 . S
C15 C16 1.397 . S
C16 H2 0.939 . S
C16 C15 1.397 . S
C16 C17 1.378 . S
C17 C16 1.378 . S
C17 C18 1.378 . S
C18 H3 0.940 . S
C18 C17 1.378 . S
C18 C19 1.396 . S
C19 H4 0.940 . S
C19 C14 1.391 . S
C19 C18 1.396 . S
C20 P0 1.803 . S
C20 C21 1.378 . S
C20 C25 1.400 . S
C21 H5 0.939 . S
C21 C20 1.378 . S
C21 C22 1.361 . S
C22 H6 0.942 . S
C22 C21 1.361 . S
C22 C23 1.369 . S
C23 C22 1.369 . S
C23 C24 1.404 . S
C24 H7 0.940 . S
C24 C23 1.404 . S
C24 C25 1.389 . S
C25 H8 0.939 . S
C25 C20 1.400 . S
C25 C24 1.389 . S
C26 P0 1.819 . S
C26 C27 1.391 . S
C26 C31 1.391 . S
C27 H9 0.941 . S
C27 C26 1.391 . S
C27 C28 1.396 . S
C28 H12 0.939 . S
C28 C27 1.396 . S
C28 C29 1.397 . S
C29 C28 1.397 . S
C29 C30 1.385 . S
C30 H13 0.940 . S
C30 C29 1.385 . S
C30 C31 1.388 . S
C31 H10 0.939 . S
C31 C26 1.391 . S
C31 C30 1.388 . S
P32 O43 1.490 . S
P32 C46 1.812 . S
P32 C52 1.803 . S
P32 C58 1.819 . S
H33 C47 0.941 . S
H34 C48 0.939 . S
H35 C50 0.940 . S
H36 C51 0.940 . S
H37 C53 0.939 . S
H38 C54 0.942 . S
H39 C56 0.940 . S
H40 C57 0.939 . S
H41 C59 0.941 . S
H42 C63 0.939 . S
O43 P32 1.490 . S
H44 C60 0.939 . S
H45 C62 0.940 . S
C46 P32 1.812 . S
C46 C47 1.389 . S
C46 C51 1.391 . S
C47 H33 0.941 . S
C47 C46 1.389 . S
C47 C48 1.397 . S
C48 H34 0.939 . S
C48 C47 1.397 . S
C48 C49 1.378 . S
C49 C48 1.378 . S
C49 C50 1.378 . S
C50 H35 0.940 . S
C50 C49 1.378 . S
C50 C51 1.396 . S
C51 H36 0.940 . S
C51 C46 1.391 . S
C51 C50 1.396 . S
C52 P32 1.803 . S
C52 C53 1.378 . S
C52 C57 1.400 . S
C53 H37 0.939 . S
C53 C52 1.378 . S
C53 C54 1.361 . S
C54 H38 0.942 . S
C54 C53 1.361 . S
C54 C55 1.369 . S
C55 C54 1.369 . S
C55 C56 1.404 . S
C56 H39 0.940 . S
C56 C55 1.404 . S
C56 C57 1.389 . S
C57 H40 0.939 . S
C57 C52 1.400 . S
C57 C56 1.389 . S
C58 P32 1.819 . S
C58 C59 1.391 . S
C58 C63 1.391 . S
C59 H41 0.941 . S
C59 C58 1.391 . S
C59 C60 1.396 . S
C60 H44 0.939 . S
C60 C59 1.396 . S
C60 C61 1.397 . S
C61 C60 1.397 . S
C61 C62 1.385 . S
C62 H45 0.940 . S
C62 C61 1.385 . S
C62 C63 1.388 . S
C63 H42 0.939 . S
C63 C58 1.391 . S
C63 C62 1.388 . S
P64 O75 1.490 . S
P64 C78 1.812 . S
P64 C84 1.803 . S
P64 C90 1.819 . S
H65 C79 0.941 . S
H66 C80 0.939 . S
H67 C82 0.940 . S
H68 C83 0.940 . S
H69 C85 0.939 . S
H70 C86 0.942 . S
H71 C88 0.940 . S
H72 C89 0.939 . S
H73 C91 0.941 . S
H74 C95 0.939 . S
O75 P64 1.490 . S
H76 C92 0.939 . S
H77 C94 0.940 . S
C78 P64 1.812 . S
C78 C79 1.389 . S
C78 C83 1.391 . S
C79 H65 0.941 . S
C79 C78 1.389 . S
C79 C80 1.397 . S
C80 H66 0.939 . S
C80 C79 1.397 . S
C80 C81 1.378 . S
C81 C80 1.378 . S
C81 C82 1.378 . S
C82 H67 0.940 . S
C82 C81 1.378 . S
C82 C83 1.396 . S
C83 H68 0.940 . S
C83 C78 1.391 . S
C83 C82 1.396 . S
C84 P64 1.803 . S
C84 C85 1.378 . S
C84 C89 1.400 . S
C85 H69 0.939 . S
C85 C84 1.378 . S
C85 C86 1.361 . S
C86 H70 0.942 . S
C86 C85 1.361 . S
C86 C87 1.369 . S
C87 C86 1.369 . S
C87 C88 1.404 . S
C88 H71 0.940 . S
C88 C87 1.404 . S
C88 C89 1.389 . S
C89 H72 0.939 . S
C89 C84 1.400 . S
C89 C88 1.389 . S
C90 P64 1.819 . S
C90 C91 1.391 . S
C90 C95 1.391 . S
C91 H73 0.941 . S
C91 C90 1.391 . S
C91 C92 1.396 . S
C92 H76 0.939 . S
C92 C91 1.396 . S
C92 C93 1.397 . S
C93 C92 1.397 . S
C93 C94 1.385 . S
C94 H77 0.940 . S
C94 C93 1.385 . S
C94 C95 1.388 . S
C95 H74 0.939 . S
C95 C90 1.391 . S
C95 C94 1.388 . S
P96 O107 1.490 . S
P96 C110 1.812 . S
P96 C116 1.803 . S
P96 C122 1.819 . S
H97 C111 0.941 . S
H98 C112 0.939 . S
H99 C114 0.940 . S
H100 C115 0.940 . S
H101 C117 0.939 . S
H102 C118 0.942 . S
H103 C120 0.940 . S
H104 C121 0.939 . S
H105 C123 0.941 . S
H106 C127 0.939 . S
O107 P96 1.490 . S
H108 C124 0.939 . S
H109 C126 0.940 . S
C110 P96 1.812 . S
C110 C111 1.389 . S
C110 C115 1.391 . S
C111 H97 0.941 . S
C111 C110 1.389 . S
C111 C112 1.397 . S
C112 H98 0.939 . S
C112 C111 1.397 . S
C112 C113 1.378 . S
C113 C112 1.378 . S
C113 C114 1.378 . S
C114 H99 0.940 . S
C114 C113 1.378 . S
C114 C115 1.396 . S
C115 H100 0.940 . S
C115 C110 1.391 . S
C115 C114 1.396 . S
C116 P96 1.803 . S
C116 C117 1.378 . S
C116 C121 1.400 . S
C117 H101 0.939 . S
C117 C116 1.378 . S
C117 C118 1.361 . S
C118 H102 0.942 . S
C118 C117 1.361 . S
C118 C119 1.369 . S
C119 C118 1.369 . S
C119 C120 1.404 . S
C120 H103 0.940 . S
C120 C119 1.404 . S
C120 C121 1.389 . S
C121 H104 0.939 . S
C121 C116 1.400 . S
C121 C120 1.389 . S
C122 P96 1.819 . S
C122 C123 1.391 . S
C122 C127 1.391 . S
C123 H105 0.941 . S
C123 C122 1.391 . S
C123 C124 1.396 . S
C124 H108 0.939 . S
C124 C123 1.396 . S
C124 C125 1.397 . S
C125 C124 1.397 . S
C125 C126 1.385 . S
C126 H109 0.940 . S
C126 C125 1.385 . S
C126 C127 1.388 . S
C127 H106 0.939 . S
C127 C122 1.391 . S
C127 C126 1.388 . S
P128 O139 1.490 . S
P128 C142 1.812 . S
P128 C148 1.803 . S
P128 C154 1.819 . S
H129 C143 0.941 . S
H130 C144 0.939 . S
H131 C146 0.940 . S
H132 C147 0.940 . S
H133 C149 0.939 . S
H134 C150 0.942 . S
H135 C152 0.940 . S
H136 C153 0.939 . S
H137 C155 0.941 . S
H138 C159 0.939 . S
O139 P128 1.490 . S
H140 C156 0.939 . S
H141 C158 0.940 . S
C142 P128 1.812 . S
C142 C143 1.389 . S
C142 C147 1.391 . S
C143 H129 0.941 . S
C143 C142 1.389 . S
C143 C144 1.397 . S
C144 H130 0.939 . S
C144 C143 1.397 . S
C144 C145 1.378 . S
C145 C144 1.378 . S
C145 C146 1.378 . S
C146 H131 0.940 . S
C146 C145 1.378 . S
C146 C147 1.396 . S
C147 H132 0.940 . S
C147 C142 1.391 . S
C147 C146 1.396 . S
C148 P128 1.803 . S
C148 C149 1.378 . S
C148 C153 1.400 . S
C149 H133 0.939 . S
C149 C148 1.378 . S
C149 C150 1.361 . S
C150 H134 0.942 . S
C150 C149 1.361 . S
C150 C151 1.369 . S
C151 C150 1.369 . S
C151 C152 1.404 . S
C152 H135 0.940 . S
C152 C151 1.404 . S
C152 C153 1.389 . S
C153 H136 0.939 . S
C153 C148 1.400 . S
C153 C152 1.389 . S
C154 P128 1.819 . S
C154 C155 1.391 . S
C154 C159 1.391 . S
C155 H137 0.941 . S
C155 C154 1.391 . S
C155 C156 1.396 . S
C156 H140 0.939 . S
C156 C155 1.396 . S
C156 C157 1.397 . S
C157 C156 1.397 . S
C157 C158 1.385 . S
C158 H141 0.940 . S
C158 C157 1.385 . S
C158 C159 1.388 . S
C159 H138 0.939 . S
C159 C154 1.391 . S
C159 C158 1.388 . S
P160 O171 1.490 . S
P160 C174 1.812 . S
P160 C180 1.803 . S
P160 C186 1.819 . S
H161 C175 0.941 . S
H162 C176 0.939 . S
H163 C178 0.940 . S
H164 C179 0.940 . S
H165 C181 0.939 . S
H166 C182 0.942 . S
H167 C184 0.940 . S
H168 C185 0.939 . S
H169 C187 0.941 . S
H170 C191 0.939 . S
O171 P160 1.490 . S
H172 C188 0.939 . S
H173 C190 0.940 . S
C174 P160 1.812 . S
C174 C175 1.389 . S
C174 C179 1.391 . S
C175 H161 0.941 . S
C175 C174 1.389 . S
C175 C176 1.397 . S
C176 H162 0.939 . S
C176 C175 1.397 . S
C176 C177 1.378 . S
C177 C176 1.378 . S
C177 C178 1.378 . S
C178 H163 0.940 . S
C178 C177 1.378 . S
C178 C179 1.396 . S
C179 H164 0.940 . S
C179 C174 1.391 . S
C179 C178 1.396 . S
C180 P160 1.803 . S
C180 C181 1.378 . S
C180 C185 1.400 . S
C181 H165 0.939 . S
C181 C180 1.378 . S
C181 C182 1.361 . S
C182 H166 0.942 . S
C182 C181 1.361 . S
C182 C183 1.369 . S
C183 C182 1.369 . S
C183 C184 1.404 . S
C184 H167 0.940 . S
C184 C183 1.404 . S
C184 C185 1.389 . S
C185 H168 0.939 . S
C185 C180 1.400 . S
C185 C184 1.389 . S
C186 P160 1.819 . S
C186 C187 1.391 . S
C186 C191 1.391 . S
C187 H169 0.941 . S
C187 C186 1.391 . S
C187 C188 1.396 . S
C188 H172 0.939 . S
C188 C187 1.396 . S
C188 C189 1.397 . S
C189 C188 1.397 . S
C189 C190 1.385 . S
C190 H173 0.940 . S
C190 C189 1.385 . S
C190 C191 1.388 . S
C191 H170 0.939 . S
C191 C186 1.391 . S
C191 C190 1.388 . S
P192 O203 1.490 . S
P192 C206 1.812 . S
P192 C212 1.803 . S
P192 C218 1.819 . S
H193 C207 0.941 . S
H194 C208 0.939 . S
H195 C210 0.940 . S
H196 C211 0.940 . S
H197 C213 0.939 . S
H198 C214 0.942 . S
H199 C216 0.940 . S
H200 C217 0.939 . S
H201 C219 0.941 . S
H202 C223 0.939 . S
O203 P192 1.490 . S
H204 C220 0.939 . S
H205 C222 0.940 . S
C206 P192 1.812 . S
C206 C207 1.389 . S
C206 C211 1.391 . S
C207 H193 0.941 . S
C207 C206 1.389 . S
C207 C208 1.397 . S
C208 H194 0.939 . S
C208 C207 1.397 . S
C208 C209 1.378 . S
C209 C208 1.378 . S
C209 C210 1.378 . S
C210 H195 0.940 . S
C210 C209 1.378 . S
C210 C211 1.396 . S
C211 H196 0.940 . S
C211 C206 1.391 . S
C211 C210 1.396 . S
C212 P192 1.803 . S
C212 C213 1.378 . S
C212 C217 1.400 . S
C213 H197 0.939 . S
C213 C212 1.378 . S
C213 C214 1.361 . S
C214 H198 0.942 . S
C214 C213 1.361 . S
C214 C215 1.369 . S
C215 C214 1.369 . S
C215 C216 1.404 . S
C216 H199 0.940 . S
C216 C215 1.404 . S
C216 C217 1.389 . S
C217 H200 0.939 . S
C217 C212 1.400 . S
C217 C216 1.389 . S
C218 P192 1.819 . S
C218 C219 1.391 . S
C218 C223 1.391 . S
C219 H201 0.941 . S
C219 C218 1.391 . S
C219 C220 1.396 . S
C220 H204 0.939 . S
C220 C219 1.396 . S
C220 C221 1.397 . S
C221 C220 1.397 . S
C221 C222 1.385 . S
C222 H205 0.940 . S
C222 C221 1.385 . S
C222 C223 1.388 . S
C223 H202 0.939 . S
C223 C218 1.391 . S
C223 C222 1.388 . S
P224 O235 1.490 . S
P224 C238 1.812 . S
P224 C244 1.803 . S
P224 C250 1.819 . S
H225 C239 0.941 . S
H226 C240 0.939 . S
H227 C242 0.940 . S
H228 C243 0.940 . S
H229 C245 0.939 . S
H230 C246 0.942 . S
H231 C248 0.940 . S
H232 C249 0.939 . S
H233 C251 0.941 . S
H234 C255 0.939 . S
O235 P224 1.490 . S
H236 C252 0.939 . S
H237 C254 0.940 . S
C238 P224 1.812 . S
C238 C239 1.389 . S
C238 C243 1.391 . S
C239 H225 0.941 . S
C239 C238 1.389 . S
C239 C240 1.397 . S
C240 H226 0.939 . S
C240 C239 1.397 . S
C240 C241 1.378 . S
C241 C240 1.378 . S
C241 C242 1.378 . S
C242 H227 0.940 . S
C242 C241 1.378 . S
C242 C243 1.396 . S
C243 H228 0.940 . S
C243 C238 1.391 . S
C243 C242 1.396 . S
C244 P224 1.803 . S
C244 C245 1.378 . S
C244 C249 1.400 . S
C245 H229 0.939 . S
C245 C244 1.378 . S
C245 C246 1.361 . S
C246 H230 0.942 . S
C246 C245 1.361 . S
C246 C247 1.369 . S
C247 C246 1.369 . S
C247 C248 1.404 . S
C248 H231 0.940 . S
C248 C247 1.404 . S
C248 C249 1.389 . S
C249 H232 0.939 . S
C249 C244 1.400 . S
C249 C248 1.389 . S
C250 P224 1.819 . S
C250 C251 1.391 . S
C250 C255 1.391 . S
C251 H233 0.941 . S
C251 C250 1.391 . S
C251 C252 1.396 . S
C252 H236 0.939 . S
C252 C251 1.396 . S
C252 C253 1.397 . S
C253 C252 1.397 . S
C253 C254 1.385 . S
C254 H237 0.940 . S
C254 C253 1.385 . S
C254 C255 1.388 . S
C255 H234 0.939 . S
C255 C250 1.391 . S
C255 C254 1.388 . S
Zn256 O262 1.969 1_545 S
Zn256 O263 1.965 1_545 S
Zn256 O267 2.024 . S
Zn256 O272 1.969 . S
Zn257 O264 1.969 . S
Zn257 O270 1.969 1_565 S
Zn257 O271 1.965 1_665 S
Zn257 O273 2.024 . S
C258 O259 1.229 . S
C258 O267 1.058 . S
O259 C258 1.229 . S
C260 O261 1.229 . S
C260 O273 1.058 . S
O261 C260 1.229 . S
O262 Zn256 1.969 1_565 S
O262 C265 1.267 . S
O263 Zn256 1.965 1_565 S
O263 C274 1.260 1_455 S
O264 Zn257 1.969 . S
O264 C274 1.258 . S
C265 O262 1.267 . S
C265 O266 1.228 . S
O266 C265 1.228 . S
O267 Zn256 2.024 . S
O267 C258 1.058 . S
C268 O269 1.228 . S
C268 O270 1.267 . S
O269 C268 1.228 . S
O270 Zn257 1.969 1_545 S
O270 C268 1.267 . S
O271 Zn257 1.965 1_445 S
O271 C275 1.260 . S
O272 Zn256 1.969 . S
O272 C275 1.258 . S
O273 Zn257 2.024 . S
O273 C260 1.058 . S
C274 O263 1.260 1_655 S
C274 O264 1.258 . S
C275 O271 1.260 . S
C275 O272 1.258 . S
Zn276 O282 1.969 . S
Zn276 O283 1.965 1_565 S
Zn276 O287 2.024 . S
Zn276 O292 1.969 1_556 S
Zn277 O284 1.969 . S
Zn277 O290 1.969 . S
Zn277 O291 1.965 1_545 S
Zn277 O293 2.024 . S
C278 O279 1.229 . S
C278 O287 1.058 . S
O279 C278 1.229 . S
C280 O281 1.229 . S
C280 O293 1.058 . S
O281 C280 1.229 . S
O282 Zn276 1.969 . S
O282 C285 1.267 . S
O283 Zn276 1.965 1_545 S
O283 C294 1.260 . S
O284 Zn277 1.969 . S
O284 C294 1.258 1_554 S
C285 O282 1.267 . S
C285 O286 1.228 . S
O286 C285 1.228 . S
O287 Zn276 2.024 . S
O287 C278 1.058 . S
C288 O289 1.228 . S
C288 O290 1.267 . S
O289 C288 1.228 . S
O290 Zn277 1.969 . S
O290 C288 1.267 . S
O291 Zn277 1.965 1_565 S
O291 C295 1.260 . S
O292 Zn276 1.969 1_554 S
O292 C295 1.258 . S
O293 Zn277 2.024 . S
O293 C280 1.058 . S
C294 O283 1.260 . S
C294 O284 1.258 1_556 S
C295 O291 1.260 . S
C295 O292 1.258 . S
Zn296 O302 1.969 . S
Zn296 O303 1.965 . S
Zn296 O307 2.024 . S
Zn296 O312 1.969 . S
Zn297 O304 1.969 . S
Zn297 O310 1.969 . S
Zn297 O311 1.965 . S
Zn297 O313 2.024 . S
C298 O299 1.229 . S
C298 O307 1.058 . S
O299 C298 1.229 . S
C300 O301 1.229 . S
C300 O313 1.058 . S
O301 C300 1.229 . S
O302 Zn296 1.969 . S
O302 C305 1.267 . S
O303 Zn296 1.965 . S
O303 C314 1.260 . S
O304 Zn297 1.969 . S
O304 C314 1.258 . S
C305 O302 1.267 . S
C305 O306 1.228 . S
O306 C305 1.228 . S
O307 Zn296 2.024 . S
O307 C298 1.058 . S
C308 O309 1.228 . S
C308 O310 1.267 . S
O309 C308 1.228 . S
O310 Zn297 1.969 . S
O310 C308 1.267 . S
O311 Zn297 1.965 . S
O311 C315 1.260 . S
O312 Zn296 1.969 . S
O312 C315 1.258 . S
O313 Zn297 2.024 . S
O313 C300 1.058 . S
C314 O303 1.260 . S
C314 O304 1.258 . S
C315 O311 1.260 . S
C315 O312 1.258 . S
Zn316 O322 1.969 . S
Zn316 O323 1.965 1_556 S
Zn316 O327 2.024 . S
Zn316 O332 1.969 1_655 S
Zn317 O324 1.969 . S
Zn317 O330 1.969 . S
Zn317 O331 1.965 1_554 S
Zn317 O333 2.024 . S
C318 O319 1.229 . S
C318 O327 1.058 . S
O319 C318 1.229 . S
C320 O321 1.229 . S
C320 O333 1.058 . S
O321 C320 1.229 . S
O322 Zn316 1.969 . S
O322 C325 1.267 . S
O323 Zn316 1.965 1_554 S
O323 C334 1.260 . S
O324 Zn317 1.969 . S
O324 C334 1.258 1_455 S
C325 O322 1.267 . S
C325 O326 1.228 . S
O326 C325 1.228 . S
O327 Zn316 2.024 . S
O327 C318 1.058 . S
C328 O329 1.228 . S
C328 O330 1.267 . S
O329 C328 1.228 . S
O330 Zn317 1.969 . S
O330 C328 1.267 . S
O331 Zn317 1.965 1_556 S
O331 C335 1.260 . S
O332 Zn316 1.969 1_455 S
O332 C335 1.258 . S
O333 Zn317 2.024 . S
O333 C320 1.058 . S
C334 O323 1.260 . S
C334 O324 1.258 1_655 S
C335 O331 1.260 . S
C335 O332 1.258 . S
C336 C337 1.349 . S
C336 C338 1.327 . S
C336 H361 0.950 . S
C337 C336 1.349 . S
C337 C353 1.349 . S
C338 C336 1.327 . S
C338 C357 1.429 . S
C338 H362 0.950 . S
C339 C356 1.574 . S
C339 C358 1.368 . S
C339 H363 0.949 . S
H340 C344 0.949 . S
C341 C342 1.349 . S
C341 C343 1.327 . S
C341 H364 0.950 . S
C342 C341 1.349 . S
C342 C354 1.349 . S
C343 C341 1.327 . S
C343 C359 1.429 . S
C343 H365 0.950 . S
C344 H340 0.949 . S
C344 C352 1.574 . S
C344 C360 1.368 . S
H345 C353 0.950 . S
H346 C351 0.950 . S
H347 C352 0.949 . S
H348 C354 0.950 . S
H349 C355 0.950 . S
H350 C356 0.949 . S
C351 H346 0.950 . S
C351 C353 1.327 . S
C351 C357 1.429 . S
C352 C344 1.574 . S
C352 H347 0.949 . S
C352 C358 1.368 . S
C353 C337 1.349 . S
C353 H345 0.950 . S
C353 C351 1.327 . S
C354 C342 1.349 . S
C354 H348 0.950 . S
C354 C355 1.327 . S
C355 H349 0.950 . S
C355 C354 1.327 . S
C355 C359 1.429 . S
C356 C339 1.574 . S
C356 H350 0.949 . S
C356 C360 1.368 . S
C357 C338 1.429 . S
C357 C351 1.429 . S
C357 C358 1.523 . S
C358 C339 1.368 . S
C358 C352 1.368 . S
C358 C357 1.523 . S
C359 C343 1.429 . S
C359 C355 1.429 . S
C359 C360 1.523 . S
C360 C344 1.368 . S
C360 C356 1.368 . S
C360 C359 1.523 . S
H361 C336 0.950 . S
H362 C338 0.950 . S
H363 C339 0.949 . S
H364 C341 0.950 . S
H365 C343 0.950 . S
C366 C367 1.349 . S
C366 C368 1.327 . S
C366 H391 0.950 . S
C367 C366 1.349 . S
C367 C383 1.349 . S
C368 C366 1.327 . S
C368 C387 1.429 . S
C368 H392 0.950 . S
C369 C386 1.574 . S
C369 C388 1.368 . S
C369 H393 0.949 . S
H370 C374 0.949 . S
C371 C372 1.349 . S
C371 C373 1.327 . S
C371 H394 0.950 . S
C372 C371 1.349 . S
C372 C384 1.349 . S
C373 C371 1.327 . S
C373 C389 1.429 . S
C373 H395 0.950 . S
C374 H370 0.949 . S
C374 C382 1.574 . S
C374 C390 1.368 . S
H375 C383 0.950 . S
H376 C381 0.950 . S
H377 C382 0.949 . S
H378 C384 0.950 . S
H379 C385 0.950 . S
H380 C386 0.949 . S
C381 H376 0.950 . S
C381 C383 1.327 . S
C381 C387 1.429 . S
C382 C374 1.574 . S
C382 H377 0.949 . S
C382 C388 1.368 . S
C383 C367 1.349 . S
C383 H375 0.950 . S
C383 C381 1.327 . S
C384 C372 1.349 . S
C384 H378 0.950 . S
C384 C385 1.327 . S
C385 H379 0.950 . S
C385 C384 1.327 . S
C385 C389 1.429 . S
C386 C369 1.574 . S
C386 H380 0.949 . S
C386 C390 1.368 . S
C387 C368 1.429 . S
C387 C381 1.429 . S
C387 C388 1.523 . S
C388 C369 1.368 . S
C388 C382 1.368 . S
C388 C387 1.523 . S
C389 C373 1.429 . S
C389 C385 1.429 . S
C389 C390 1.523 . S
C390 C374 1.368 . S
C390 C386 1.368 . S
C390 C389 1.523 . S
H391 C366 0.950 . S
H392 C368 0.950 . S
H393 C369 0.949 . S
H394 C371 0.950 . S
H395 C373 0.950 . S
C396 C397 1.349 . S
C396 C398 1.327 . S
C396 H421 0.950 . S
C397 C396 1.349 . S
C397 C413 1.349 . S
C398 C396 1.327 . S
C398 C417 1.429 . S
C398 H422 0.950 . S
C399 C416 1.574 . S
C399 C418 1.368 . S
C399 H423 0.949 . S
H400 C404 0.949 . S
C401 C402 1.349 . S
C401 C403 1.327 . S
C401 H424 0.950 . S
C402 C401 1.349 . S
C402 C414 1.349 . S
C403 C401 1.327 . S
C403 C419 1.429 . S
C403 H425 0.950 . S
C404 H400 0.949 . S
C404 C412 1.574 . S
C404 C420 1.368 . S
H405 C413 0.950 . S
H406 C411 0.950 . S
H407 C412 0.949 . S
H408 C414 0.950 . S
H409 C415 0.950 . S
H410 C416 0.949 . S
C411 H406 0.950 . S
C411 C413 1.327 . S
C411 C417 1.429 . S
C412 C404 1.574 . S
C412 H407 0.949 . S
C412 C418 1.368 . S
C413 C397 1.349 . S
C413 H405 0.950 . S
C413 C411 1.327 . S
C414 C402 1.349 . S
C414 H408 0.950 . S
C414 C415 1.327 . S
C415 H409 0.950 . S
C415 C414 1.327 . S
C415 C419 1.429 . S
C416 C399 1.574 . S
C416 H410 0.949 . S
C416 C420 1.368 . S
C417 C398 1.429 . S
C417 C411 1.429 . S
C417 C418 1.523 . S
C418 C399 1.368 . S
C418 C412 1.368 . S
C418 C417 1.523 . S
C419 C403 1.429 . S
C419 C415 1.429 . S
C419 C420 1.523 . S
C420 C404 1.368 . S
C420 C416 1.368 . S
C420 C419 1.523 . S
H421 C396 0.950 . S
H422 C398 0.950 . S
H423 C399 0.949 . S
H424 C401 0.950 . S
H425 C403 0.950 . S
C426 C427 1.349 . S
C426 C428 1.327 . S
C426 H451 0.950 . S
C427 C426 1.349 . S
C427 C443 1.349 . S
C428 C426 1.327 . S
C428 C447 1.429 . S
C428 H452 0.950 . S
C429 C446 1.574 . S
C429 C448 1.368 . S
C429 H453 0.949 . S
H430 C434 0.949 . S
C431 C432 1.349 . S
C431 C433 1.327 . S
C431 H454 0.950 . S
C432 C431 1.349 . S
C432 C444 1.349 . S
C433 C431 1.327 . S
C433 C449 1.429 . S
C433 H455 0.950 . S
C434 H430 0.949 . S
C434 C442 1.574 . S
C434 C450 1.368 . S
H435 C443 0.950 . S
H436 C441 0.950 . S
H437 C442 0.949 . S
H438 C444 0.950 . S
H439 C445 0.950 . S
H440 C446 0.949 . S
C441 H436 0.950 . S
C441 C443 1.327 . S
C441 C447 1.429 . S
C442 C434 1.574 . S
C442 H437 0.949 . S
C442 C448 1.368 . S
C443 C427 1.349 . S
C443 H435 0.950 . S
C443 C441 1.327 . S
C444 C432 1.349 . S
C444 H438 0.950 . S
C444 C445 1.327 . S
C445 H439 0.950 . S
C445 C444 1.327 . S
C445 C449 1.429 . S
C446 C429 1.574 . S
C446 H440 0.949 . S
C446 C450 1.368 . S
C447 C428 1.429 . S
C447 C441 1.429 . S
C447 C448 1.523 . S
C448 C429 1.368 . S
C448 C442 1.368 . S
C448 C447 1.523 . S
C449 C433 1.429 . S
C449 C445 1.429 . S
C449 C450 1.523 . S
C450 C434 1.368 . S
C450 C446 1.368 . S
C450 C449 1.523 . S
H451 C426 0.950 . S
H452 C428 0.950 . S
H453 C429 0.949 . S
H454 C431 0.950 . S
H455 C433 0.950 . S
C456 C457 1.349 . S
C456 C458 1.327 . S
C456 H481 0.950 . S
C457 C456 1.349 . S
C457 C473 1.349 . S
C458 C456 1.327 . S
C458 C477 1.429 . S
C458 H482 0.950 . S
C459 C476 1.574 . S
C459 C478 1.368 . S
C459 H483 0.949 . S
H460 C464 0.949 . S
C461 C462 1.349 . S
C461 C463 1.327 . S
C461 H484 0.950 . S
C462 C461 1.349 . S
C462 C474 1.349 . S
C463 C461 1.327 . S
C463 C479 1.429 . S
C463 H485 0.950 . S
C464 H460 0.949 . S
C464 C472 1.574 . S
C464 C480 1.368 . S
H465 C473 0.950 . S
H466 C471 0.950 . S
H467 C472 0.949 . S
H468 C474 0.950 . S
H469 C475 0.950 . S
H470 C476 0.949 . S
C471 H466 0.950 . S
C471 C473 1.327 . S
C471 C477 1.429 . S
C472 C464 1.574 . S
C472 H467 0.949 . S
C472 C478 1.368 . S
C473 C457 1.349 . S
C473 H465 0.950 . S
C473 C471 1.327 . S
C474 C462 1.349 . S
C474 H468 0.950 . S
C474 C475 1.327 . S
C475 H469 0.950 . S
C475 C474 1.327 . S
C475 C479 1.429 . S
C476 C459 1.574 . S
C476 H470 0.949 . S
C476 C480 1.368 . S
C477 C458 1.429 . S
C477 C471 1.429 . S
C477 C478 1.523 . S
C478 C459 1.368 . S
C478 C472 1.368 . S
C478 C477 1.523 . S
C479 C463 1.429 . S
C479 C475 1.429 . S
C479 C480 1.523 . S
C480 C464 1.368 . S
C480 C476 1.368 . S
C480 C479 1.523 . S
H481 C456 0.950 . S
H482 C458 0.950 . S
H483 C459 0.949 . S
H484 C461 0.950 . S
H485 C463 0.950 . S
C486 C487 1.349 . S
C486 C488 1.327 . S
C486 H511 0.950 . S
C487 C486 1.349 . S
C487 C503 1.349 . S
C488 C486 1.327 . S
C488 C507 1.429 . S
C488 H512 0.950 . S
C489 C506 1.574 . S
C489 C508 1.368 . S
C489 H513 0.949 . S
H490 C494 0.949 . S
C491 C492 1.349 . S
C491 C493 1.327 . S
C491 H514 0.950 . S
C492 C491 1.349 . S
C492 C504 1.349 . S
C493 C491 1.327 . S
C493 C509 1.429 . S
C493 H515 0.950 . S
C494 H490 0.949 . S
C494 C502 1.574 . S
C494 C510 1.368 . S
H495 C503 0.950 . S
H496 C501 0.950 . S
H497 C502 0.949 . S
H498 C504 0.950 . S
H499 C505 0.950 . S
H500 C506 0.949 . S
C501 H496 0.950 . S
C501 C503 1.327 . S
C501 C507 1.429 . S
C502 C494 1.574 . S
C502 H497 0.949 . S
C502 C508 1.368 . S
C503 C487 1.349 . S
C503 H495 0.950 . S
C503 C501 1.327 . S
C504 C492 1.349 . S
C504 H498 0.950 . S
C504 C505 1.327 . S
C505 H499 0.950 . S
C505 C504 1.327 . S
C505 C509 1.429 . S
C506 C489 1.574 . S
C506 H500 0.949 . S
C506 C510 1.368 . S
C507 C488 1.429 . S
C507 C501 1.429 . S
C507 C508 1.523 . S
C508 C489 1.368 . S
C508 C502 1.368 . S
C508 C507 1.523 . S
C509 C493 1.429 . S
C509 C505 1.429 . S
C509 C510 1.523 . S
C510 C494 1.368 . S
C510 C506 1.368 . S
C510 C509 1.523 . S
H511 C486 0.950 . S
H512 C488 0.950 . S
H513 C489 0.949 . S
H514 C491 0.950 . S
H515 C493 0.950 . S
C516 C517 1.349 . S
C516 C518 1.327 . S
C516 H541 0.950 . S
C517 C516 1.349 . S
C517 C533 1.349 . S
C518 C516 1.327 . S
C518 C537 1.429 . S
C518 H542 0.950 . S
C519 C536 1.574 . S
C519 C538 1.368 . S
C519 H543 0.949 . S
H520 C524 0.949 . S
C521 C522 1.349 . S
C521 C523 1.327 . S
C521 H544 0.950 . S
C522 C521 1.349 . S
C522 C534 1.349 . S
C523 C521 1.327 . S
C523 C539 1.429 . S
C523 H545 0.950 . S
C524 H520 0.949 . S
C524 C532 1.574 . S
C524 C540 1.368 . S
H525 C533 0.950 . S
H526 C531 0.950 . S
H527 C532 0.949 . S
H528 C534 0.950 . S
H529 C535 0.950 . S
H530 C536 0.949 . S
C531 H526 0.950 . S
C531 C533 1.327 . S
C531 C537 1.429 . S
C532 C524 1.574 . S
C532 H527 0.949 . S
C532 C538 1.368 . S
C533 C517 1.349 . S
C533 H525 0.950 . S
C533 C531 1.327 . S
C534 C522 1.349 . S
C534 H528 0.950 . S
C534 C535 1.327 . S
C535 H529 0.950 . S
C535 C534 1.327 . S
C535 C539 1.429 . S
C536 C519 1.574 . S
C536 H530 0.949 . S
C536 C540 1.368 . S
C537 C518 1.429 . S
C537 C531 1.429 . S
C537 C538 1.523 . S
C538 C519 1.368 . S
C538 C532 1.368 . S
C538 C537 1.523 . S
C539 C523 1.429 . S
C539 C535 1.429 . S
C539 C540 1.523 . S
C540 C524 1.368 . S
C540 C536 1.368 . S
C540 C539 1.523 . S
H541 C516 0.950 . S
H542 C518 0.950 . S
H543 C519 0.949 . S
H544 C521 0.950 . S
H545 C523 0.950 . S
C546 C547 1.349 . S
C546 C548 1.327 . S
C546 H571 0.950 . S
C547 C546 1.349 . S
C547 C563 1.349 . S
C548 C546 1.327 . S
C548 C567 1.429 . S
C548 H572 0.950 . S
C549 C566 1.574 . S
C549 C568 1.368 . S
C549 H573 0.949 . S
H550 C554 0.949 . S
C551 C552 1.349 . S
C551 C553 1.327 . S
C551 H574 0.950 . S
C552 C551 1.349 . S
C552 C564 1.349 . S
C553 C551 1.327 . S
C553 C569 1.429 . S
C553 H575 0.950 . S
C554 H550 0.949 . S
C554 C562 1.574 . S
C554 C570 1.368 . S
H555 C563 0.950 . S
H556 C561 0.950 . S
H557 C562 0.949 . S
H558 C564 0.950 . S
H559 C565 0.950 . S
H560 C566 0.949 . S
C561 H556 0.950 . S
C561 C563 1.327 . S
C561 C567 1.429 . S
C562 C554 1.574 . S
C562 H557 0.949 . S
C562 C568 1.368 . S
C563 C547 1.349 . S
C563 H555 0.950 . S
C563 C561 1.327 . S
C564 C552 1.349 . S
C564 H558 0.950 . S
C564 C565 1.327 . S
C565 H559 0.950 . S
C565 C564 1.327 . S
C565 C569 1.429 . S
C566 C549 1.574 . S
C566 H560 0.949 . S
C566 C570 1.368 . S
C567 C548 1.429 . S
C567 C561 1.429 . S
C567 C568 1.523 . S
C568 C549 1.368 . S
C568 C562 1.368 . S
C568 C567 1.523 . S
C569 C553 1.429 . S
C569 C565 1.429 . S
C569 C570 1.523 . S
C570 C554 1.368 . S
C570 C566 1.368 . S
C570 C569 1.523 . S
H571 C546 0.950 . S
H572 C548 0.950 . S
H573 C549 0.949 . S
H574 C551 0.950 . S
H575 C553 0.950 . S
C576 C577 1.349 . S
C576 C578 1.327 . S
C576 H601 0.950 . S
C577 C576 1.349 . S
C577 C593 1.349 . S
C578 C576 1.327 . S
C578 C597 1.429 . S
C578 H602 0.950 . S
C579 C596 1.574 . S
C579 C598 1.368 . S
C579 H603 0.949 . S
H580 C584 0.949 . S
C581 C582 1.349 . S
C581 C583 1.327 . S
C581 H604 0.950 . S
C582 C581 1.349 . S
C582 C594 1.349 . S
C583 C581 1.327 . S
C583 C599 1.429 . S
C583 H605 0.950 . S
C584 H580 0.949 . S
C584 C592 1.574 . S
C584 C600 1.368 . S
H585 C593 0.950 . S
H586 C591 0.950 . S
H587 C592 0.949 . S
H588 C594 0.950 . S
H589 C595 0.950 . S
H590 C596 0.949 . S
C591 H586 0.950 . S
C591 C593 1.327 . S
C591 C597 1.429 . S
C592 C584 1.574 . S
C592 H587 0.949 . S
C592 C598 1.368 . S
C593 C577 1.349 . S
C593 H585 0.950 . S
C593 C591 1.327 . S
C594 C582 1.349 . S
C594 H588 0.950 . S
C594 C595 1.327 . S
C595 H589 0.950 . S
C595 C594 1.327 . S
C595 C599 1.429 . S
C596 C579 1.574 . S
C596 H590 0.949 . S
C596 C600 1.368 . S
C597 C578 1.429 . S
C597 C591 1.429 . S
C597 C598 1.523 . S
C598 C579 1.368 . S
C598 C592 1.368 . S
C598 C597 1.523 . S
C599 C583 1.429 . S
C599 C595 1.429 . S
C599 C600 1.523 . S
C600 C584 1.368 . S
C600 C596 1.368 . S
C600 C599 1.523 . S
H601 C576 0.950 . S
H602 C578 0.950 . S
H603 C579 0.949 . S
H604 C581 0.950 . S
H605 C583 0.950 . S
C606 C607 1.349 . S
C606 C608 1.327 . S
C606 H631 0.950 . S
C607 C606 1.349 . S
C607 C623 1.349 . S
C608 C606 1.327 . S
C608 C627 1.429 . S
C608 H632 0.950 . S
C609 C626 1.574 . S
C609 C628 1.368 . S
C609 H633 0.949 . S
H610 C614 0.949 . S
C611 C612 1.349 . S
C611 C613 1.327 . S
C611 H634 0.961 . S
C612 C611 1.349 . S
C612 C624 1.349 . S
C613 C611 1.327 . S
C613 C629 1.429 . S
C613 H635 0.950 . S
C614 H610 0.949 . S
C614 C622 1.574 . S
C614 C630 1.368 . S
H615 C623 0.950 . S
H616 C621 0.950 . S
H617 C622 0.949 . S
H618 C624 0.950 . S
H619 C625 0.950 . S
H620 C626 0.949 . S
C621 H616 0.950 . S
C621 C623 1.327 . S
C621 C627 1.429 . S
C622 C614 1.574 . S
C622 H617 0.949 . S
C622 C628 1.368 . S
C623 C607 1.349 . S
C623 H615 0.950 . S
C623 C621 1.327 . S
C624 C612 1.349 . S
C624 H618 0.950 . S
C624 C625 1.327 . S
C625 H619 0.950 . S
C625 C624 1.327 . S
C625 C629 1.429 . S
C626 C609 1.574 . S
C626 H620 0.949 . S
C626 C630 1.368 . S
C627 C608 1.429 . S
C627 C621 1.429 . S
C627 C628 1.523 . S
C628 C609 1.368 . S
C628 C622 1.368 . S
C628 C627 1.523 . S
C629 C613 1.429 . S
C629 C625 1.429 . S
C629 C630 1.523 . S
C630 C614 1.368 . S
C630 C626 1.368 . S
C630 C629 1.523 . S
H631 C606 0.950 . S
H632 C608 0.950 . S
H633 C609 0.949 . S
H634 C611 0.961 . S
H635 C613 0.950 . S
C636 C637 1.349 . S
C636 C638 1.327 . S
C636 H661 0.950 . S
C637 C636 1.349 . S
C637 C653 1.349 . S
C638 C636 1.327 . S
C638 C657 1.429 . S
C638 H662 0.950 . S
C639 C656 1.574 . S
C639 C658 1.368 . S
C639 H663 0.949 . S
H640 C644 0.949 . S
C641 C642 1.349 . S
C641 C643 1.327 . S
C641 H664 0.950 . S
C642 C641 1.349 . S
C642 C654 1.349 . S
C643 C641 1.327 . S
C643 C659 1.429 . S
C643 H665 0.950 . S
C644 H640 0.949 . S
C644 C652 1.574 . S
C644 C660 1.368 . S
H645 C653 0.950 . S
H646 C651 0.950 . S
H647 C652 0.949 . S
H648 C654 0.950 . S
H649 C655 0.950 . S
H650 C656 0.949 . S
C651 H646 0.950 . S
C651 C653 1.327 . S
C651 C657 1.429 . S
C652 C644 1.574 . S
C652 H647 0.949 . S
C652 C658 1.368 . S
C653 C637 1.349 . S
C653 H645 0.950 . S
C653 C651 1.327 . S
C654 C642 1.349 . S
C654 H648 0.950 . S
C654 C655 1.327 . S
C655 H649 0.950 . S
C655 C654 1.327 . S
C655 C659 1.429 . S
C656 C639 1.574 . S
C656 H650 0.949 . S
C656 C660 1.368 . S
C657 C638 1.429 . S
C657 C651 1.429 . S
C657 C658 1.523 . S
C658 C639 1.368 . S
C658 C652 1.368 . S
C658 C657 1.523 . S
C659 C643 1.429 . S
C659 C655 1.429 . S
C659 C660 1.523 . S
C660 C644 1.368 . S
C660 C656 1.368 . S
C660 C659 1.523 . S
H661 C636 0.950 . S
H662 C638 0.950 . S
H663 C639 0.949 . S
H664 C641 0.950 . S
H665 C643 0.950 . S
C666 C667 1.349 . S
C666 C668 1.327 . S
C666 H691 0.950 . S
C667 C666 1.349 . S
C667 C683 1.349 . S
C668 C666 1.327 . S
C668 C687 1.429 . S
C668 H692 0.950 . S
C669 C686 1.574 . S
C669 C688 1.368 . S
C669 H693 0.949 . S
H670 C674 0.949 . S
C671 C672 1.349 . S
C671 C673 1.327 . S
C671 H694 0.950 . S
C672 C671 1.349 . S
C672 C684 1.349 . S
C673 C671 1.327 . S
C673 C689 1.429 . S
C673 H695 0.950 . S
C674 H670 0.949 . S
C674 C682 1.574 . S
C674 C690 1.368 . S
H675 C683 0.950 . S
H676 C681 0.950 . S
H677 C682 0.949 . S
H678 C684 0.950 . S
H679 C685 0.950 . S
H680 C686 0.949 . S
C681 H676 0.950 . S
C681 C683 1.327 . S
C681 C687 1.429 . S
C682 C674 1.574 . S
C682 H677 0.949 . S
C682 C688 1.368 . S
C683 C667 1.349 . S
C683 H675 0.950 . S
C683 C681 1.327 . S
C684 C672 1.349 . S
C684 H678 0.950 . S
C684 C685 1.327 . S
C685 H679 0.950 . S
C685 C684 1.327 . S
C685 C689 1.429 . S
C686 C669 1.574 . S
C686 H680 0.949 . S
C686 C690 1.368 . S
C687 C668 1.429 . S
C687 C681 1.429 . S
C687 C688 1.523 . S
C688 C669 1.368 . S
C688 C682 1.368 . S
C688 C687 1.523 . S
C689 C673 1.429 . S
C689 C685 1.429 . S
C689 C690 1.523 . S
C690 C674 1.368 . S
C690 C686 1.368 . S
C690 C689 1.523 . S
H691 C666 0.950 . S
H692 C668 0.950 . S
H693 C669 0.949 . S
H694 C671 0.950 . S
H695 C673 0.950 . S
C696 C697 1.349 . S
C696 C698 1.327 . S
C696 H721 0.950 . S
C697 C696 1.349 . S
C697 C713 1.349 . S
C698 C696 1.327 . S
C698 C717 1.429 . S
C698 H722 0.950 . S
C699 C716 1.574 . S
C699 C718 1.368 . S
C699 H723 0.949 . S
H700 C704 0.949 . S
C701 C702 1.349 . S
C701 C703 1.327 . S
C701 H724 0.950 . S
C702 C701 1.349 . S
C702 C714 1.349 . S
C703 C701 1.327 . S
C703 C719 1.429 . S
C703 H725 0.950 . S
C704 H700 0.949 . S
C704 C712 1.574 . S
C704 C720 1.368 . S
H705 C713 0.950 . S
H706 C711 0.950 . S
H707 C712 0.949 . S
H708 C714 0.950 . S
H709 C715 0.950 . S
H710 C716 0.949 . S
C711 H706 0.950 . S
C711 C713 1.327 . S
C711 C717 1.429 . S
C712 C704 1.574 . S
C712 H707 0.949 . S
C712 C718 1.368 . S
C713 C697 1.349 . S
C713 H705 0.950 . S
C713 C711 1.327 . S
C714 C702 1.349 . S
C714 H708 0.950 . S
C714 C715 1.327 . S
C715 H709 0.950 . S
C715 C714 1.327 . S
C715 C719 1.429 . S
C716 C699 1.574 . S
C716 H710 0.949 . S
C716 C720 1.368 . S
C717 C698 1.429 . S
C717 C711 1.429 . S
C717 C718 1.523 . S
C718 C699 1.368 . S
C718 C712 1.368 . S
C718 C717 1.523 . S
C719 C703 1.429 . S
C719 C715 1.429 . S
C719 C720 1.523 . S
C720 C704 1.368 . S
C720 C716 1.368 . S
C720 C719 1.523 . S
H721 C696 0.950 . S
H722 C698 0.950 . S
H723 C699 0.949 . S
H724 C701 0.950 . S
H725 C703 0.950 . S
C726 C727 1.349 . S
C726 C728 1.327 . S
C726 H751 0.950 . S
C727 C726 1.349 . S
C727 C743 1.349 . S
C728 C726 1.327 . S
C728 C747 1.429 . S
C728 H752 0.950 . S
C729 C746 1.574 . S
C729 C748 1.368 . S
C729 H753 0.949 . S
H730 C734 0.949 . S
C731 C732 1.349 . S
C731 C733 1.327 . S
C731 H754 0.950 . S
C732 C731 1.349 . S
C732 C744 1.349 . S
C733 C731 1.327 . S
C733 C749 1.429 . S
C733 H755 0.950 . S
C734 H730 0.949 . S
C734 C742 1.574 . S
C734 C750 1.368 . S
H735 C743 0.950 . S
H736 C741 0.950 . S
H737 C742 0.949 . S
H738 C744 0.950 . S
H739 C745 0.950 . S
H740 C746 0.949 . S
C741 H736 0.950 . S
C741 C743 1.327 . S
C741 C747 1.429 . S
C742 C734 1.574 . S
C742 H737 0.949 . S
C742 C748 1.368 . S
C743 C727 1.349 . S
C743 H735 0.950 . S
C743 C741 1.327 . S
C744 C732 1.349 . S
C744 H738 0.950 . S
C744 C745 1.327 . S
C745 H739 0.950 . S
C745 C744 1.327 . S
C745 C749 1.429 . S
C746 C729 1.574 . S
C746 H740 0.949 . S
C746 C750 1.368 . S
C747 C728 1.429 . S
C747 C741 1.429 . S
C747 C748 1.523 . S
C748 C729 1.368 . S
C748 C742 1.368 . S
C748 C747 1.523 . S
C749 C733 1.429 . S
C749 C745 1.429 . S
C749 C750 1.523 . S
C750 C734 1.368 . S
C750 C746 1.368 . S
C750 C749 1.523 . S
H751 C726 0.950 . S
H752 C728 0.950 . S
H753 C729 0.949 . S
H754 C731 0.950 . S
H755 C733 0.950 . S
C756 C757 1.349 . S
C756 C758 1.327 . S
C756 H781 0.950 . S
C757 C756 1.349 . S
C757 C773 1.349 . S
C758 C756 1.327 . S
C758 C777 1.429 . S
C758 H782 0.950 . S
C759 C776 1.574 . S
C759 C778 1.368 . S
C759 H783 0.949 . S
H760 C764 0.949 . S
C761 C762 1.349 . S
C761 C763 1.327 . S
C761 H784 0.950 . S
C762 C761 1.349 . S
C762 C774 1.349 . S
C763 C761 1.327 . S
C763 C779 1.429 . S
C763 H785 0.950 . S
C764 H760 0.949 . S
C764 C772 1.574 . S
C764 C780 1.368 . S
H765 C773 0.950 . S
H766 C771 0.950 . S
H767 C772 0.949 . S
H768 C774 0.950 . S
H769 C775 0.950 . S
H770 C776 0.949 . S
C771 H766 0.950 . S
C771 C773 1.327 . S
C771 C777 1.429 . S
C772 C764 1.574 . S
C772 H767 0.949 . S
C772 C778 1.368 . S
C773 C757 1.349 . S
C773 H765 0.950 . S
C773 C771 1.327 . S
C774 C762 1.349 . S
C774 H768 0.950 . S
C774 C775 1.327 . S
C775 H769 0.950 . S
C775 C774 1.327 . S
C775 C779 1.429 . S
C776 C759 1.574 . S
C776 H770 0.949 . S
C776 C780 1.368 . S
C777 C758 1.429 . S
C777 C771 1.429 . S
C777 C778 1.523 . S
C778 C759 1.368 . S
C778 C772 1.368 . S
C778 C777 1.523 . S
C779 C763 1.429 . S
C779 C775 1.429 . S
C779 C780 1.523 . S
C780 C764 1.368 . S
C780 C776 1.368 . S
C780 C779 1.523 . S
H781 C756 0.950 . S
H782 C758 0.950 . S
H783 C759 0.949 . S
H784 C761 0.950 . S
H785 C763 0.950 . S
C786 C787 1.349 . S
C786 C788 1.327 . S
C786 H811 0.950 . S
C787 C786 1.349 . S
C787 C803 1.349 . S
C788 C786 1.327 . S
C788 C807 1.429 . S
C788 H812 0.950 . S
C789 C806 1.574 . S
C789 C808 1.368 . S
C789 H813 0.949 . S
H790 C794 0.949 . S
C791 C792 1.349 . S
C791 C793 1.327 . S
C791 H814 0.950 . S
C792 C791 1.349 . S
C792 C804 1.349 . S
C793 C791 1.327 . S
C793 C809 1.429 . S
C793 H815 0.950 . S
C794 H790 0.949 . S
C794 C802 1.574 . S
C794 C810 1.368 . S
H795 C803 0.950 . S
H796 C801 0.950 . S
H797 C802 0.949 . S
H798 C804 0.950 . S
H799 C805 0.950 . S
H800 C806 0.949 . S
C801 H796 0.950 . S
C801 C803 1.327 . S
C801 C807 1.429 . S
C802 C794 1.574 . S
C802 H797 0.949 . S
C802 C808 1.368 . S
C803 C787 1.349 . S
C803 H795 0.950 . S
C803 C801 1.327 . S
C804 C792 1.349 . S
C804 H798 0.950 . S
C804 C805 1.327 . S
C805 H799 0.950 . S
C805 C804 1.327 . S
C805 C809 1.429 . S
C806 C789 1.574 . S
C806 H800 0.949 . S
C806 C810 1.368 . S
C807 C788 1.429 . S
C807 C801 1.429 . S
C807 C808 1.523 . S
C808 C789 1.368 . S
C808 C802 1.368 . S
C808 C807 1.523 . S
C809 C793 1.429 . S
C809 C805 1.429 . S
C809 C810 1.523 . S
C810 C794 1.368 . S
C810 C806 1.368 . S
C810 C809 1.523 . S
H811 C786 0.950 . S
H812 C788 0.950 . S
H813 C789 0.949 . S
H814 C791 0.950 . S
H815 C793 0.950 . S
C816 C817 1.349 . S
C816 C818 1.327 . S
C816 H841 0.950 . S
C817 C816 1.349 . S
C817 C833 1.349 . S
C818 C816 1.327 . S
C818 C837 1.429 . S
C818 H842 0.950 . S
C819 C836 1.574 . S
C819 C838 1.368 . S
C819 H843 0.949 . S
H820 C824 0.949 . S
C821 C822 1.349 . S
C821 C823 1.327 . S
C821 H844 0.950 . S
C822 C821 1.349 . S
C822 C834 1.349 . S
C823 C821 1.327 . S
C823 C839 1.429 . S
C823 H845 0.950 . S
C824 H820 0.949 . S
C824 C832 1.574 . S
C824 C840 1.368 . S
H825 C833 0.950 . S
H826 C831 0.950 . S
H827 C832 0.949 . S
H828 C834 0.950 . S
H829 C835 0.950 . S
H830 C836 0.949 . S
C831 H826 0.950 . S
C831 C833 1.327 . S
C831 C837 1.429 . S
C832 C824 1.574 . S
C832 H827 0.949 . S
C832 C838 1.368 . S
C833 C817 1.349 . S
C833 H825 0.950 . S
C833 C831 1.327 . S
C834 C822 1.349 . S
C834 H828 0.950 . S
C834 C835 1.327 . S
C835 H829 0.950 . S
C835 C834 1.327 . S
C835 C839 1.429 . S
C836 C819 1.574 . S
C836 H830 0.949 . S
C836 C840 1.368 . S
C837 C818 1.429 . S
C837 C831 1.429 . S
C837 C838 1.523 . S
C838 C819 1.368 . S
C838 C832 1.368 . S
C838 C837 1.523 . S
C839 C823 1.429 . S
C839 C835 1.429 . S
C839 C840 1.523 . S
C840 C824 1.368 . S
C840 C836 1.368 . S
C840 C839 1.523 . S
H841 C816 0.950 . S
H842 C818 0.950 . S
H843 C819 0.949 . S
H844 C821 0.950 . S
H845 C823 0.950 . S
C846 C847 1.349 . S
C846 C848 1.327 . S
C846 H871 0.950 . S
C847 C846 1.349 . S
C847 C863 1.349 . S
C848 C846 1.327 . S
C848 C867 1.429 . S
C848 H872 0.950 . S
C849 C866 1.574 . S
C849 C868 1.368 . S
C849 H873 0.949 . S
H850 C854 0.949 . S
C851 C852 1.349 . S
C851 C853 1.327 . S
C851 H874 0.950 . S
C852 C851 1.349 . S
C852 C864 1.349 . S
C853 C851 1.327 . S
C853 C869 1.429 . S
C853 H875 0.950 . S
C854 H850 0.949 . S
C854 C862 1.574 . S
C854 C870 1.368 . S
H855 C863 0.950 . S
H856 C861 0.950 . S
H857 C862 0.949 . S
H858 C864 0.950 . S
H859 C865 0.950 . S
H860 C866 0.949 . S
C861 H856 0.950 . S
C861 C863 1.327 . S
C861 C867 1.429 . S
C862 C854 1.574 . S
C862 H857 0.949 . S
C862 C868 1.368 . S
C863 C847 1.349 . S
C863 H855 0.950 . S
C863 C861 1.327 . S
C864 C852 1.349 . S
C864 H858 0.950 . S
C864 C865 1.327 . S
C865 H859 0.950 . S
C865 C864 1.327 . S
C865 C869 1.429 . S
C866 C849 1.574 . S
C866 H860 0.949 . S
C866 C870 1.368 . S
C867 C848 1.429 . S
C867 C861 1.429 . S
C867 C868 1.523 . S
C868 C849 1.368 . S
C868 C862 1.368 . S
C868 C867 1.523 . S
C869 C853 1.429 . S
C869 C865 1.429 . S
C869 C870 1.523 . S
C870 C854 1.368 . S
C870 C866 1.368 . S
C870 C869 1.523 . S
H871 C846 0.950 . S
H872 C848 0.950 . S
H873 C849 0.949 . S
H874 C851 0.950 . S
H875 C853 0.950 . S
C876 C877 1.349 . S
C876 C878 1.327 . S
C876 H901 0.950 . S
C877 C876 1.349 . S
C877 C893 1.349 . S
C878 C876 1.327 . S
C878 C897 1.429 . S
C878 H902 0.950 . S
C879 C896 1.574 . S
C879 C898 1.368 . S
C879 H903 0.949 . S
H880 C884 0.949 . S
C881 C882 1.349 . S
C881 C883 1.327 . S
C881 H904 0.950 . S
C882 C881 1.349 . S
C882 C894 1.349 . S
C883 C881 1.327 . S
C883 C899 1.429 . S
C883 H905 0.950 . S
C884 H880 0.949 . S
C884 C892 1.574 . S
C884 C900 1.368 . S
H885 C893 0.950 . S
H886 C891 0.950 . S
H887 C892 0.949 . S
H888 C894 0.950 . S
H889 C895 0.950 . S
H890 C896 0.949 . S
C891 H886 0.950 . S
C891 C893 1.327 . S
C891 C897 1.429 . S
C892 C884 1.574 . S
C892 H887 0.949 . S
C892 C898 1.368 . S
C893 C877 1.349 . S
C893 H885 0.950 . S
C893 C891 1.327 . S
C894 C882 1.349 . S
C894 H888 0.950 . S
C894 C895 1.327 . S
C895 H889 0.950 . S
C895 C894 1.327 . S
C895 C899 1.429 . S
C896 C879 1.574 . S
C896 H890 0.949 . S
C896 C900 1.368 . S
C897 C878 1.429 . S
C897 C891 1.429 . S
C897 C898 1.523 . S
C898 C879 1.368 . S
C898 C892 1.368 . S
C898 C897 1.523 . S
C899 C883 1.429 . S
C899 C895 1.429 . S
C899 C900 1.523 . S
C900 C884 1.368 . S
C900 C896 1.368 . S
C900 C899 1.523 . S
H901 C876 0.950 . S
H902 C878 0.950 . S
H903 C879 0.949 . S
H904 C881 0.950 . S
H905 C883 0.950 . S
C906 C907 1.349 . S
C906 C908 1.327 . S
C906 H931 0.950 . S
C907 C906 1.349 . S
C907 C923 1.349 . S
C908 C906 1.327 . S
C908 C927 1.429 . S
C908 H932 0.950 . S
C909 C926 1.574 . S
C909 C928 1.368 . S
C909 H933 0.949 . S
H910 C914 0.949 . S
C911 C912 1.349 . S
C911 C913 1.327 . S
C911 H934 0.950 . S
C912 C911 1.349 . S
C912 C924 1.349 . S
C913 C911 1.327 . S
C913 C929 1.429 . S
C913 H935 0.950 . S
C914 H910 0.949 . S
C914 C922 1.574 . S
C914 C930 1.368 . S
H915 C923 0.950 . S
H916 C921 0.950 . S
H917 C922 0.949 . S
H918 C924 0.950 . S
H919 C925 0.950 . S
H920 C926 0.949 . S
C921 H916 0.950 . S
C921 C923 1.327 . S
C921 C927 1.429 . S
C922 C914 1.574 . S
C922 H917 0.949 . S
C922 C928 1.368 . S
C923 C907 1.349 . S
C923 H915 0.950 . S
C923 C921 1.327 . S
C924 C912 1.349 . S
C924 H918 0.950 . S
C924 C925 1.327 . S
C925 H919 0.950 . S
C925 C924 1.327 . S
C925 C929 1.429 . S
C926 C909 1.574 . S
C926 H920 0.949 . S
C926 C930 1.368 . S
C927 C908 1.429 . S
C927 C921 1.429 . S
C927 C928 1.523 . S
C928 C909 1.368 . S
C928 C922 1.368 . S
C928 C927 1.523 . S
C929 C913 1.429 . S
C929 C925 1.429 . S
C929 C930 1.523 . S
C930 C914 1.368 . S
C930 C926 1.368 . S
C930 C929 1.523 . S
H931 C906 0.950 . S
H932 C908 0.950 . S
H933 C909 0.949 . S
H934 C911 0.950 . S
H935 C913 0.950 . S
C936 C937 1.349 . S
C936 C938 1.327 . S
C936 H961 0.950 . S
C937 C936 1.349 . S
C937 C953 1.349 . S
C938 C936 1.327 . S
C938 C957 1.429 . S
C938 H962 0.950 . S
C939 C956 1.574 . S
C939 C958 1.368 . S
C939 H963 0.949 . S
H940 C944 0.949 . S
C941 C942 1.349 . S
C941 C943 1.327 . S
C941 H964 0.950 . S
C942 C941 1.349 . S
C942 C954 1.349 . S
C943 C941 1.327 . S
C943 C959 1.429 . S
C943 H965 0.950 . S
C944 H940 0.949 . S
C944 C952 1.574 . S
C944 C960 1.368 . S
H945 C953 0.950 . S
H946 C951 0.950 . S
H947 C952 0.949 . S
H948 C954 0.950 . S
H949 C955 0.950 . S
H950 C956 0.949 . S
C951 H946 0.950 . S
C951 C953 1.327 . S
C951 C957 1.429 . S
C952 C944 1.574 . S
C952 H947 0.949 . S
C952 C958 1.368 . S
C953 C937 1.349 . S
C953 H945 0.950 . S
C953 C951 1.327 . S
C954 C942 1.349 . S
C954 H948 0.950 . S
C954 C955 1.327 . S
C955 H949 0.950 . S
C955 C954 1.327 . S
C955 C959 1.429 . S
C956 C939 1.574 . S
C956 H950 0.949 . S
C956 C960 1.368 . S
C957 C938 1.429 . S
C957 C951 1.429 . S
C957 C958 1.523 . S
C958 C939 1.368 . S
C958 C952 1.368 . S
C958 C957 1.523 . S
C959 C943 1.429 . S
C959 C955 1.429 . S
C959 C960 1.523 . S
C960 C944 1.368 . S
C960 C956 1.368 . S
C960 C959 1.523 . S
H961 C936 0.950 . S
H962 C938 0.950 . S
H963 C939 0.949 . S
H964 C941 0.950 . S
H965 C943 0.950 . S
C966 C967 1.349 . S
C966 C968 1.327 . S
C966 H991 0.950 . S
C967 C966 1.349 . S
C967 C983 1.349 . S
C968 C966 1.327 . S
C968 C987 1.429 . S
C968 H992 0.950 . S
C969 C986 1.574 . S
C969 C988 1.368 . S
C969 H993 0.949 . S
H970 C974 0.949 . S
C971 C972 1.349 . S
C971 C973 1.327 . S
C971 H994 0.950 . S
C972 C971 1.349 . S
C972 C984 1.349 . S
C973 C971 1.327 . S
C973 C989 1.429 . S
C973 H995 0.950 . S
C974 H970 0.949 . S
C974 C982 1.574 . S
C974 C990 1.368 . S
H975 C983 0.950 . S
H976 C981 0.950 . S
H977 C982 0.949 . S
H978 C984 0.950 . S
H979 C985 0.950 . S
H980 C986 0.949 . S
C981 H976 0.950 . S
C981 C983 1.327 . S
C981 C987 1.429 . S
C982 C974 1.574 . S
C982 H977 0.949 . S
C982 C988 1.368 . S
C983 C967 1.349 . S
C983 H975 0.950 . S
C983 C981 1.327 . S
C984 C972 1.349 . S
C984 H978 0.950 . S
C984 C985 1.327 . S
C985 H979 0.950 . S
C985 C984 1.327 . S
C985 C989 1.429 . S
C986 C969 1.574 . S
C986 H980 0.949 . S
C986 C990 1.368 . S
C987 C968 1.429 . S
C987 C981 1.429 . S
C987 C988 1.523 . S
C988 C969 1.368 . S
C988 C982 1.368 . S
C988 C987 1.523 . S
C989 C973 1.429 . S
C989 C985 1.429 . S
C989 C990 1.523 . S
C990 C974 1.368 . S
C990 C986 1.368 . S
C990 C989 1.523 . S
H991 C966 0.950 . S
H992 C968 0.950 . S
H993 C969 0.949 . S
H994 C971 0.950 . S
H995 C973 0.950 . S
C996 C997 1.349 . S
C996 C998 1.327 . S
C996 H1021 0.950 . S
C997 C996 1.349 . S
C997 C1013 1.349 . S
C998 C996 1.327 . S
C998 C1017 1.429 . S
C998 H1022 0.950 . S
C999 C1016 1.574 . S
C999 C1018 1.368 . S
C999 H1023 0.949 . S
H1000 C1004 0.949 . S
C1001 C1002 1.349 . S
C1001 C1003 1.327 . S
C1001 H1024 0.950 . S
C1002 C1001 1.349 . S
C1002 C1014 1.349 . S
C1003 C1001 1.327 . S
C1003 C1019 1.429 . S
C1003 H1025 0.950 . S
C1004 H1000 0.949 . S
C1004 C1012 1.574 . S
C1004 C1020 1.368 . S
H1005 C1013 0.950 . S
H1006 C1011 0.950 . S
H1007 C1012 0.949 . S
H1008 C1014 0.950 . S
H1009 C1015 0.950 . S
H1010 C1016 0.949 . S
C1011 H1006 0.950 . S
C1011 C1013 1.327 . S
C1011 C1017 1.429 . S
C1012 C1004 1.574 . S
C1012 H1007 0.949 . S
C1012 C1018 1.368 . S
C1013 C997 1.349 . S
C1013 H1005 0.950 . S
C1013 C1011 1.327 . S
C1014 C1002 1.349 . S
C1014 H1008 0.950 . S
C1014 C1015 1.327 . S
C1015 H1009 0.950 . S
C1015 C1014 1.327 . S
C1015 C1019 1.429 . S
C1016 C999 1.574 . S
C1016 H1010 0.949 . S
C1016 C1020 1.368 . S
C1017 C998 1.429 . S
C1017 C1011 1.429 . S
C1017 C1018 1.523 . S
C1018 C999 1.368 . S
C1018 C1012 1.368 . S
C1018 C1017 1.523 . S
C1019 C1003 1.429 . S
C1019 C1015 1.429 . S
C1019 C1020 1.523 . S
C1020 C1004 1.368 . S
C1020 C1016 1.368 . S
C1020 C1019 1.523 . S
H1021 C996 0.950 . S
H1022 C998 0.950 . S
H1023 C999 0.949 . S
H1024 C1001 0.950 . S
H1025 C1003 0.950 . S
C1026 C1027 1.349 . S
C1026 C1028 1.327 . S
C1026 H1051 0.950 . S
C1027 C1026 1.349 . S
C1027 C1043 1.349 . S
C1028 C1026 1.327 . S
C1028 C1047 1.429 . S
C1028 H1052 0.950 . S
C1029 C1046 1.574 . S
C1029 C1048 1.368 . S
C1029 H1053 0.949 . S
H1030 C1034 0.949 . S
C1031 C1032 1.349 . S
C1031 C1033 1.327 . S
C1031 H1054 0.950 . S
C1032 C1031 1.349 . S
C1032 C1044 1.349 . S
C1033 C1031 1.327 . S
C1033 C1049 1.429 . S
C1033 H1055 0.950 . S
C1034 H1030 0.949 . S
C1034 C1042 1.574 . S
C1034 C1050 1.368 . S
H1035 C1043 0.950 . S
H1036 C1041 0.950 . S
H1037 C1042 0.949 . S
H1038 C1044 0.950 . S
H1039 C1045 0.950 . S
H1040 C1046 0.949 . S
C1041 H1036 0.950 . S
C1041 C1043 1.327 . S
C1041 C1047 1.429 . S
C1042 C1034 1.574 . S
C1042 H1037 0.949 . S
C1042 C1048 1.368 . S
C1043 C1027 1.349 . S
C1043 H1035 0.950 . S
C1043 C1041 1.327 . S
C1044 C1032 1.349 . S
C1044 H1038 0.950 . S
C1044 C1045 1.327 . S
C1045 H1039 0.950 . S
C1045 C1044 1.327 . S
C1045 C1049 1.429 . S
C1046 C1029 1.574 . S
C1046 H1040 0.949 . S
C1046 C1050 1.368 . S
C1047 C1028 1.429 . S
C1047 C1041 1.429 . S
C1047 C1048 1.523 . S
C1048 C1029 1.368 . S
C1048 C1042 1.368 . S
C1048 C1047 1.523 . S
C1049 C1033 1.429 . S
C1049 C1045 1.429 . S
C1049 C1050 1.523 . S
C1050 C1034 1.368 . S
C1050 C1046 1.368 . S
C1050 C1049 1.523 . S
H1051 C1026 0.950 . S
H1052 C1028 0.950 . S
H1053 C1029 0.949 . S
H1054 C1031 0.950 . S
H1055 C1033 0.950 . S
C337 C29 1.557 . S
C342 C275 1.530 . S
C367 C49 1.244 . S
C372 C278 1.225 . S
C402 C314 1.756 . S
C397 C93 1.754 . S
C427 C119 1.587 . S
C432 C334 1.569 . S
C462 C288 1.705 . S
C457 C17 1.731 . S
C492 C265 1.597 . S
C487 C61 1.585 . S
C522 C318 1.521 . S
C517 C81 1.609 . S
C552 C298 1.393 . S
C547 C125 1.468 . S
C577 C23 1.316 . S
C582 C328 1.271 . S
C612 C294 1.560 . S
C607 C87 1.559 . S
C637 C113 1.665 . S
C642 C260 1.603 . S
C667 C55 1.312 . S
C672 C308 1.307 . S
C702 C274 1.462 . S
C697 C157 1.420 . S
C727 C189 1.300 . S
C732 C280 1.267 . S
C757 C221 1.703 . S
C762 C315 1.726 . S
C787 C253 1.653 . S
C792 C335 1.639 . S
C817 C145 1.738 . S
C822 C285 1.759 . S
C852 C268 1.516 . S
C847 C183 1.519 . S
C882 C320 1.560 . S
C877 C209 1.625 . S
C912 C300 1.350 . S
C907 C247 1.419 . S
C937 C151 1.271 . S
C942 C325 1.272 . S
C972 C295 1.549 . S
C967 C215 1.534 . S
C1002 C258 1.585 . S
C997 C241 1.630 . S
C1027 C177 1.345 . S
C1032 C305 1.336 . S
