# Generated by pormake.
# Topology pto, (3,4)-cn, num edge types: 1
# Building blocks:
#     Node 0, Type 0, BuildingBlock: QEWDON_clean_linker_0, # of connection points: 3
#     Node 1, Type 0, BuildingBlock: QEWDON_clean_linker_0, # of connection points: 3
#     Node 2, Type 0, BuildingBlock: QEWDON_clean_linker_0, # of connection points: 3
#     Node 3, Type 0, BuildingBlock: QEWDON_clean_linker_0, # of connection points: 3
#     Node 4, Type 0, BuildingBlock: QEWDON_clean_linker_0, # of connection points: 3
#     Node 5, Type 0, BuildingBlock: QEWDON_clean_linker_0, # of connection points: 3
#     Node 6, Type 0, BuildingBlock: QEWDON_clean_linker_0, # of connection points: 3
#     Node 7, Type 0, BuildingBlock: QEWDON_clean_linker_0, # of connection points: 3
#     Node 8, Type 1, BuildingBlock: KOZSID_clean_sbu_0, # of connection points: 4
#     Node 9, Type 1, BuildingBlock: KOZSID_clean_sbu_0, # of connection points: 4
#     Node 10, Type 1, BuildingBlock: KOZSID_clean_sbu_0, # of connection points: 4
#     Node 11, Type 1, BuildingBlock: KOZSID_clean_sbu_0, # of connection points: 4
#     Node 12, Type 1, BuildingBlock: KOZSID_clean_sbu_0, # of connection points: 4
#     Node 13, Type 1, BuildingBlock: KOZSID_clean_sbu_0, # of connection points: 4
#     Edge 14, Type (0, 1), BuildingBlock: MIFKUJ_clean_linker_0, # of connection points: 2
#     Edge 15, Type (0, 1), BuildingBlock: MIFKUJ_clean_linker_0, # of connection points: 2
#     Edge 16, Type (0, 1), BuildingBlock: MIFKUJ_clean_linker_0, # of connection points: 2
#     Edge 17, Type (0, 1), BuildingBlock: MIFKUJ_clean_linker_0, # of connection points: 2
#     Edge 18, Type (0, 1), BuildingBlock: MIFKUJ_clean_linker_0, # of connection points: 2
#     Edge 19, Type (0, 1), BuildingBlock: MIFKUJ_clean_linker_0, # of connection points: 2
#     Edge 20, Type (0, 1), BuildingBlock: MIFKUJ_clean_linker_0, # of connection points: 2
#     Edge 21, Type (0, 1), BuildingBlock: MIFKUJ_clean_linker_0, # of connection points: 2
#     Edge 22, Type (0, 1), BuildingBlock: MIFKUJ_clean_linker_0, # of connection points: 2
#     Edge 23, Type (0, 1), BuildingBlock: MIFKUJ_clean_linker_0, # of connection points: 2
#     Edge 24, Type (0, 1), BuildingBlock: MIFKUJ_clean_linker_0, # of connection points: 2
#     Edge 25, Type (0, 1), BuildingBlock: MIFKUJ_clean_linker_0, # of connection points: 2
#     Edge 26, Type (0, 1), BuildingBlock: MIFKUJ_clean_linker_0, # of connection points: 2
#     Edge 27, Type (0, 1), BuildingBlock: MIFKUJ_clean_linker_0, # of connection points: 2
#     Edge 28, Type (0, 1), BuildingBlock: MIFKUJ_clean_linker_0, # of connection points: 2
#     Edge 29, Type (0, 1), BuildingBlock: MIFKUJ_clean_linker_0, # of connection points: 2
#     Edge 30, Type (0, 1), BuildingBlock: MIFKUJ_clean_linker_0, # of connection points: 2
#     Edge 31, Type (0, 1), BuildingBlock: MIFKUJ_clean_linker_0, # of connection points: 2
#     Edge 32, Type (0, 1), BuildingBlock: MIFKUJ_clean_linker_0, # of connection points: 2
#     Edge 33, Type (0, 1), BuildingBlock: MIFKUJ_clean_linker_0, # of connection points: 2
#     Edge 34, Type (0, 1), BuildingBlock: MIFKUJ_clean_linker_0, # of connection points: 2
#     Edge 35, Type (0, 1), BuildingBlock: MIFKUJ_clean_linker_0, # of connection points: 2
#     Edge 36, Type (0, 1), BuildingBlock: MIFKUJ_clean_linker_0, # of connection points: 2
#     Edge 37, Type (0, 1), BuildingBlock: MIFKUJ_clean_linker_0, # of connection points: 2
# Relax obj value: 0.016
# Max RMSD: 0.202
# Mean RMSD: 0.078
data_MOF--net-pto--node1-KOZSID_clean_sbu_0--node2-QEWDON_clean_linker_0--edge1-MIFKUJ_clean_linker_0
_symmetry_space_group_name_H-M    P1
_symmetry_Int_Tables_number       1
_symmetry_cell_setting            triclinic
loop_
_symmetry_equiv_pos_as_xyz
'x, y, z'
_cell_length_a     43.182623
_cell_length_b     65.812087
_cell_length_c     59.590777
_cell_angle_alpha  93.067569
_cell_angle_beta   110.30119
_cell_angle_gamma 102.62138
loop_
_atom_site_label
_atom_site_type_symbol
_atom_site_fract_x
_atom_site_fract_y
_atom_site_fract_z
_atom_type_partial_charge
H0 H 0.25253 0.30623 0.2995 0.0
C1 C 0.24922 0.29046 0.30432 0.0
C2 C 0.25983 0.27528 0.29323 0.0
C3 C 0.23631 0.28565 0.32261 0.0
H4 H 0.26556 0.24353 0.29207 0.0
C5 C 0.25688 0.25512 0.3003 0.0
C6 C 0.24356 0.24996 0.31823 0.0
C7 C 0.23285 0.26521 0.32893 0.0
C8 C 0.22843 0.30201 0.33648 0.0
H9 H 0.22191 0.26117 0.34245 0.0
C10 C 0.21095 0.31663 0.32502 0.0
C11 C 0.20221 0.33106 0.3386 0.0
C12 C 0.23812 0.30271 0.36172 0.0
H13 H 0.2524 0.29212 0.37121 0.0
C14 C 0.22972 0.31713 0.37512 0.0
H15 H 0.20329 0.31642 0.30564 0.0
C16 C 0.21165 0.33112 0.36364 0.0
H17 H 0.20541 0.34225 0.37438 0.0
H18 H 0.23725 0.31745 0.39448 0.0
H19 H 0.31907 0.7919 0.68553 0.0
C20 C 0.30386 0.77587 0.68276 0.0
C21 C 0.31746 0.76123 0.69698 0.0
C22 C 0.27016 0.77009 0.66579 0.0
H23 H 0.30683 0.72978 0.7059 0.0
C24 C 0.29712 0.74072 0.69402 0.0
C25 C 0.26333 0.73481 0.67748 0.0
C26 C 0.25035 0.74942 0.66309 0.0
C27 C 0.25436 0.7858 0.65209 0.0
H28 H 0.22437 0.74477 0.65007 0.0
C29 C 0.27199 0.80019 0.64121 0.0
C30 C 0.25563 0.81404 0.62721 0.0
C31 C 0.22079 0.78613 0.64949 0.0
H32 H 0.20685 0.77566 0.65813 0.0
C33 C 0.2048 0.80003 0.63584 0.0
H34 H 0.29782 0.80018 0.64295 0.0
C35 C 0.22197 0.8138 0.62459 0.0
H36 H 0.2091 0.82447 0.614 0.0
H37 H 0.17896 0.80009 0.63394 0.0
H38 H 0.91341 0.83512 0.43103 0.0
C39 C 0.90422 0.83546 0.41169 0.0
C40 C 0.91595 0.82414 0.39704 0.0
C41 C 0.87938 0.84636 0.40117 0.0
H42 H 0.91007 0.81387 0.36061 0.0
C43 C 0.9025 0.8237 0.37186 0.0
C44 C 0.87757 0.83438 0.36102 0.0
C45 C 0.86674 0.84605 0.37596 0.0
C46 C 0.86367 0.8563 0.41584 0.0
H47 H 0.84782 0.85464 0.36799 0.0
C48 C 0.88356 0.87129 0.43645 0.0
C49 C 0.86771 0.88119 0.44939 0.0
C50 C 0.82795 0.85096 0.4086 0.0
H51 H 0.81215 0.83934 0.39295 0.0
C52 C 0.81221 0.86053 0.4214 0.0
H53 H 0.91112 0.87538 0.44212 0.0
C54 C 0.83181 0.87562 0.44149 0.0
H55 H 0.81865 0.88324 0.45053 0.0
H56 H 0.78466 0.85642 0.41554 0.0
H57 H 0.85473 0.33953 0.94283 0.0
C58 C 0.85349 0.32553 0.93176 0.0
C59 C 0.86015 0.3273 0.91035 0.0
C60 C 0.84805 0.30586 0.93991 0.0
H61 H 0.86398 0.31023 0.87986 0.0
C62 C 0.85909 0.30905 0.89647 0.0
C63 C 0.85379 0.28944 0.90446 0.0
C64 C 0.84872 0.28793 0.92634 0.0
C65 C 0.84526 0.30423 0.9638 0.0
H66 H 0.8455 0.27284 0.93289 0.0
C67 C 0.81727 0.30839 0.96844 0.0
C68 C 0.81445 0.30596 0.9911 0.0
C69 C 0.87061 0.29788 0.98194 0.0
H70 H 0.8923 0.2946 0.97865 0.0
C71 C 0.86824 0.29578 0.00446 0.0
H72 H 0.79765 0.31323 0.95439 0.0
C73 C 0.84038 0.29971 0.00904 0.0
H74 H 0.83875 0.29734 0.02648 0.0
H75 H 0.88787 0.29085 0.01835 0.0
H76 H 0.99204 0.80808 0.83577 0.0
C77 C 0.97282 0.80932 0.84324 0.0
C78 C 0.95107 0.79098 0.84551 0.0
C79 C 0.97067 0.82928 0.85117 0.0
H80 H 0.91019 0.77862 0.85777 0.0
C81 C 0.92673 0.79275 0.85565 0.0
C82 C 0.92413 0.81258 0.86362 0.0
C83 C 0.94611 0.83083 0.8612 0.0
C84 C 0.99544 0.84833 0.85002 0.0
H85 H 0.94461 0.84619 0.86759 0.0
C86 C 0.98437 0.86509 0.83877 0.0
C87 C 0.00815 0.88249 0.83646 0.0
C88 C 0.03052 0.84942 0.85959 0.0
H89 H 0.03964 0.83678 0.8685 0.0
C90 C 0.05417 0.86684 0.85785 0.0
H91 H 0.9573 0.86418 0.83099 0.0
C92 C 0.04313 0.88323 0.84626 0.0
H93 H 0.06198 0.89655 0.84501 0.0
H94 H 0.08116 0.86757 0.86535 0.0
H95 H 0.85527 0.33617 0.45245 0.0
C96 C 0.82965 0.3339 0.43928 0.0
C97 C 0.81796 0.35141 0.43065 0.0
C98 C 0.80938 0.3134 0.42952 0.0
H99 H 0.77696 0.36142 0.40488 0.0
C100 C 0.78525 0.34812 0.41268 0.0
C101 C 0.76476 0.32772 0.40274 0.0
C102 C 0.7768 0.31048 0.41162 0.0
C103 C 0.82402 0.29504 0.43476 0.0
H104 H 0.76146 0.29464 0.40374 0.0
C105 C 0.83806 0.29054 0.45852 0.0
C106 C 0.85151 0.27277 0.46273 0.0
C107 C 0.82399 0.28188 0.41539 0.0
H108 H 0.81368 0.28518 0.397 0.0
C109 C 0.83746 0.26447 0.41948 0.0
H110 H 0.83819 0.30066 0.47352 0.0
C111 C 0.85097 0.25986 0.44289 0.0
H112 H 0.86035 0.24584 0.44538 0.0
H113 H 0.83716 0.25438 0.40441 0.0
H114 H 0.26087 0.25357 0.72045 0.0
C115 C 0.24176 0.26239 0.71804 0.0
C116 C 0.2305 0.2661 0.737 0.0
C117 C 0.22977 0.27103 0.69655 0.0
H118 H 0.19965 0.28208 0.7494 0.0
C119 C 0.20691 0.27832 0.73428 0.0
C120 C 0.19533 0.28746 0.71321 0.0
C121 C 0.20644 0.28346 0.69429 0.0
C122 C 0.24378 0.2688 0.6773 0.0
H123 H 0.19745 0.29046 0.67795 0.0
C124 C 0.24675 0.24914 0.6689 0.0
C125 C 0.25984 0.24732 0.65044 0.0
C126 C 0.25441 0.28663 0.66725 0.0
H127 H 0.25295 0.30199 0.67361 0.0
C128 C 0.2674 0.28491 0.64905 0.0
H129 H 0.23874 0.23533 0.67661 0.0
C130 C 0.27 0.26544 0.64062 0.0
H131 H 0.27949 0.26454 0.62609 0.0
H132 H 0.27535 0.29873 0.64137 0.0
H133 H 0.30903 0.81094 0.20634 0.0
C134 C 0.29634 0.79738 0.21226 0.0
C135 C 0.29262 0.79942 0.23476 0.0
C136 C 0.28233 0.77805 0.19688 0.0
H137 H 0.27146 0.78328 0.25879 0.0
C138 C 0.27518 0.78179 0.24175 0.0
C139 C 0.26129 0.7624 0.22669 0.0
C140 C 0.26509 0.7606 0.20429 0.0
C141 C 0.28243 0.77652 0.17206 0.0
H142 H 0.25368 0.7458 0.19224 0.0
C143 C 0.31317 0.78062 0.16783 0.0
C144 C 0.31259 0.77911 0.14399 0.0
C145 C 0.2512 0.77093 0.15236 0.0
H146 H 0.22727 0.76776 0.15526 0.0
C147 C 0.25053 0.76965 0.12877 0.0
H148 H 0.33735 0.78485 0.18299 0.0
C149 C 0.28097 0.77372 0.12456 0.0
H150 H 0.27978 0.77226 0.10607 0.0
H151 H 0.22634 0.76539 0.11369 0.0
C152 C 0.10529 0.60191 0.35181 0.0
C153 C 0.13846 0.61376 0.36452 0.0
C154 C 0.14634 0.61015 0.38793 0.0
C155 C 0.11762 0.59647 0.38823 0.0
N156 N 0.09195 0.59093 0.36637 0.0
Co157 Co 0.04484 0.5729 0.35925 0.0
N158 N 0.05741 0.5662 0.39323 0.0
C159 C 0.08825 0.57292 0.41135 0.0
C160 C 0.08979 0.56477 0.43229 0.0
C161 C 0.05819 0.55173 0.42712 0.0
C162 C 0.03917 0.55275 0.40324 0.0
N163 N 0.9972 0.55591 0.35251 0.0
C164 C 0.98409 0.54437 0.3668 0.0
C165 C 0.94947 0.53506 0.35497 0.0
C166 C 0.94047 0.54089 0.33243 0.0
C167 C 0.96994 0.55334 0.33173 0.0
N168 N 0.0329 0.5783 0.32482 0.0
C169 C 0.00249 0.57069 0.30646 0.0
C170 C 0.00218 0.57647 0.28464 0.0
C171 C 0.03435 0.5885 0.28932 0.0
C172 C 0.05237 0.58948 0.31387 0.0
N173 N 0.05815 0.54753 0.35046 0.0
C174 C 0.07754 0.51173 0.33781 0.0
C175 C 0.0445 0.51388 0.32611 0.0
C176 C 0.03545 0.53184 0.33255 0.0
C177 C 0.10064 0.52774 0.35603 0.0
C178 C 0.09044 0.54529 0.36214 0.0
N179 N 0.0316 0.59854 0.36804 0.0
C180 C 0.00157 0.62561 0.35604 0.0
C181 C 0.01713 0.63672 0.37933 0.0
C182 C 0.03911 0.62815 0.39711 0.0
C183 C 0.04616 0.60929 0.3911 0.0
C184 C 0.00864 0.60655 0.35091 0.0
H185 H 0.06385 0.604 0.40546 0.0
H186 H 0.99535 0.59877 0.33286 0.0
H187 H 0.00998 0.53273 0.32277 0.0
H188 H 0.10907 0.55684 0.37646 0.0
C189 C 0.11481 0.58742 0.40829 0.0
C190 C 0.08738 0.60197 0.3261 0.0
C191 C 0.0039 0.54068 0.39092 0.0
C192 C 0.97397 0.55999 0.31085 0.0
H193 H 0.15521 0.62401 0.3576 0.0
H194 H 0.17026 0.61658 0.40291 0.0
H195 H 0.11133 0.56792 0.44927 0.0
H196 H 0.05003 0.54249 0.43949 0.0
H197 H 0.93262 0.52456 0.36158 0.0
H198 H 0.91579 0.53576 0.31788 0.0
H199 H 0.98085 0.57285 0.26752 0.0
H200 H 0.04336 0.59608 0.27627 0.0
H201 H 0.02581 0.50189 0.31179 0.0
H202 H 0.12638 0.52658 0.36585 0.0
H203 H 0.98386 0.63158 0.34182 0.0
H204 H 0.05164 0.6363 0.41545 0.0
C205 C 0.09243 0.55261 0.76222 0.0
C206 C 0.12611 0.56363 0.77497 0.0
C207 C 0.13399 0.55934 0.79812 0.0
C208 C 0.10477 0.54618 0.79828 0.0
N209 N 0.07873 0.54152 0.77654 0.0
Co210 Co 0.03073 0.52471 0.76935 0.0
N211 N 0.04203 0.51919 0.8037 0.0
C212 C 0.07291 0.5253 0.8219 0.0
C213 C 0.07305 0.51875 0.84336 0.0
C214 C 0.04042 0.50749 0.83856 0.0
C215 C 0.02221 0.5078 0.8143 0.0
N216 N 0.98235 0.50875 0.7624 0.0
C217 C 0.96792 0.49891 0.77711 0.0
C218 C 0.93333 0.48973 0.76493 0.0
C219 C 0.92565 0.49388 0.74172 0.0
C220 C 0.95582 0.50529 0.74101 0.0
N221 N 0.01979 0.52948 0.73479 0.0
C222 C 0.98978 0.52166 0.71613 0.0
C223 C 0.99011 0.52737 0.69441 0.0
C224 C 0.0222 0.5397 0.69952 0.0
C225 C 0.03954 0.5409 0.72419 0.0
N226 N 0.04266 0.49834 0.76163 0.0
C227 C 0.06059 0.46164 0.74983 0.0
C228 C 0.02794 0.46421 0.73786 0.0
C229 C 0.01964 0.48261 0.74387 0.0
C230 C 0.08391 0.4775 0.76808 0.0
C231 C 0.0744 0.49545 0.77381 0.0
N232 N 0.01892 0.55109 0.77695 0.0
C233 C 0.98535 0.57641 0.7649 0.0
C234 C 0.00455 0.58965 0.78671 0.0
C235 C 0.03069 0.58311 0.80368 0.0
C236 C 0.03741 0.56397 0.79847 0.0
C237 C 0.99276 0.5573 0.76049 0.0
H238 H 0.05796 0.56007 0.81205 0.0
H239 H 0.97712 0.54786 0.74356 0.0
H240 H 0.99451 0.48374 0.73375 0.0
H241 H 0.09325 0.50677 0.78815 0.0
C242 C 0.10092 0.53798 0.81854 0.0
C243 C 0.07417 0.55382 0.73683 0.0
C244 C 0.9863 0.49676 0.80215 0.0
C245 C 0.96081 0.51106 0.72007 0.0
H246 H 0.14316 0.57402 0.76842 0.0
H247 H 0.15798 0.56539 0.81315 0.0
H248 H 0.09432 0.52186 0.86049 0.0
H249 H 0.03108 0.49987 0.85145 0.0
H250 H 0.91562 0.48048 0.77188 0.0
H251 H 0.90125 0.48858 0.72691 0.0
H252 H 0.96916 0.52363 0.67709 0.0
H253 H 0.03159 0.54738 0.68668 0.0
H254 H 0.00909 0.45228 0.72353 0.0
H255 H 0.10938 0.47598 0.77809 0.0
H256 H 0.96449 0.58068 0.75134 0.0
H257 H 0.04647 0.59293 0.82076 0.0
C258 C 0.32268 0.9951 0.49037 0.0
C259 C 0.35649 0.99474 0.50215 0.0
C260 C 0.3758 0.01019 0.49471 0.0
C261 C 0.35284 0.01894 0.47872 0.0
N262 N 0.32 0.01017 0.47563 0.0
Co263 Co 0.2786 0.01669 0.45198 0.0
N264 N 0.30718 0.04086 0.44306 0.0
C265 C 0.34161 0.04755 0.45204 0.0
C266 C 0.35399 0.06532 0.44364 0.0
C267 C 0.32571 0.07055 0.42875 0.0
C268 C 0.29765 0.05555 0.42891 0.0
N269 N 0.23733 0.02237 0.42727 0.0
C270 C 0.23451 0.03808 0.41347 0.0
C271 C 0.20093 0.036 0.39835 0.0
C272 C 0.18188 0.0184 0.40289 0.0
C273 C 0.20478 0.01077 0.42043 0.0
N274 N 0.24987 0.99366 0.46229 0.0
C275 C 0.21539 0.98754 0.45378 0.0
C276 C 0.20263 0.97227 0.46527 0.0
C277 C 0.23066 0.96836 0.48212 0.0
C278 C 0.25904 0.98131 0.47967 0.0
N279 N 0.27655 0.03678 0.47703 0.0
C280 C 0.27384 0.06733 0.51083 0.0
C281 C 0.24394 0.05426 0.49366 0.0
C282 C 0.24585 0.03915 0.47713 0.0
C283 C 0.3051 0.06437 0.51114 0.0
C284 C 0.30587 0.04915 0.49421 0.0
N285 N 0.28074 0.99644 0.42668 0.0
C286 C 0.25887 0.96262 0.40118 0.0
C287 C 0.28557 0.96691 0.39269 0.0
C288 C 0.3094 0.98633 0.401 0.0
C289 C 0.30669 1.00067 0.41794 0.0
C290 C 0.25669 0.97755 0.41777 0.0
H291 H 0.32624 0.01494 0.42372 0.0
H292 H 0.23527 0.97326 0.42308 0.0
H293 H 0.22218 0.02978 0.46429 0.0
H294 H 0.33049 0.04783 0.49512 0.0
C295 C 0.36143 0.03636 0.46773 0.0
C296 C 0.29404 0.98054 0.49339 0.0
C297 C 0.2625 0.05589 0.41529 0.0
C298 C 0.19594 0.99522 0.4337 0.0
H299 H 0.36627 0.98435 0.51474 0.0
H300 H 0.40334 0.01463 0.50044 0.0
H301 H 0.3804 0.07353 0.4479 0.0
H302 H 0.32569 0.0839 0.41889 0.0
H303 H 0.19103 0.0465 0.38596 0.0
H304 H 0.15438 0.01256 0.39529 0.0
H305 H 0.17614 0.96459 0.4615 0.0
H306 H 0.23019 0.95693 0.49448 0.0
H307 H 0.21908 0.056 0.49248 0.0
H308 H 0.32899 0.07378 0.52435 0.0
H309 H 0.23953 0.94783 0.3949 0.0
H310 H 0.33061 0.99026 0.39491 0.0
C311 C 0.58454 0.81068 0.03735 0.0
C312 C 0.57529 0.82884 0.04231 0.0
C313 C 0.59621 0.84502 0.03708 0.0
C314 C 0.61683 0.83586 0.02914 0.0
N315 N 0.61005 0.81473 0.02863 0.0
Co316 Co 0.63436 0.79522 0.01878 0.0
N317 N 0.66711 0.81929 0.01306 0.0
C318 C 0.66788 0.83996 0.01605 0.0
C319 C 0.69203 0.8527 0.00955 0.0
C320 C 0.70748 0.83941 0.00169 0.0
C321 C 0.69194 0.81921 0.00402 0.0
N322 N 0.65865 0.77571 0.00892 0.0
C323 C 0.68454 0.77979 1.00057 0.0
C324 C 0.69382 0.76162 0.99569 0.0
C325 C 0.67252 0.74541 1.00057 0.0
C326 C 0.65168 0.75457 0.00826 0.0
N327 N 0.60163 0.77117 0.02456 0.0
C328 C 0.6007 0.7505 0.02144 0.0
C329 C 0.57649 0.73778 0.02793 0.0
C330 C 0.56125 0.75111 0.03598 0.0
C331 C 0.57702 0.77129 0.0338 0.0
N332 N 0.60319 0.79224 0.98451 0.0
C333 C 0.5625 0.78843 0.93505 0.0
C334 C 0.56879 0.77069 0.94595 0.0
C335 C 0.58896 0.77295 0.97048 0.0
C336 C 0.57643 0.80803 0.94949 0.0
C337 C 0.59637 0.80956 0.97392 0.0
N338 N 0.66558 0.79821 0.05299 0.0
C339 C 0.69307 0.78269 0.08806 0.0
C340 C 0.70662 0.80238 0.10237 0.0
C341 C 0.69988 0.81997 0.09138 0.0
C342 C 0.67958 0.81757 0.06691 0.0
C343 C 0.67287 0.781 0.06362 0.0
H344 H 0.67515 0.83156 0.05978 0.0
H345 H 0.66315 0.76554 0.05378 0.0
H346 H 0.59288 0.75883 0.97764 0.0
H347 H 0.60629 0.82496 0.98373 0.0
C348 C 0.64399 0.84679 0.02337 0.0
C349 C 0.56904 0.79012 0.04196 0.0
C350 C 0.7004 0.8004 0.99625 0.0
C351 C 0.6245 0.74366 0.01403 0.0
H352 H 0.55583 0.83029 0.04941 0.0
H353 H 0.59688 0.86157 0.03936 0.0
H354 H 0.69704 0.86957 0.00974 0.0
H355 H 0.7273 0.84411 0.99445 0.0
H356 H 0.71362 0.7602 0.98893 0.0
H357 H 0.67188 0.72888 0.99834 0.0
H358 H 0.57132 0.72089 0.02762 0.0
H359 H 0.54141 0.74648 0.04323 0.0
H360 H 0.55804 0.75509 0.93567 0.0
H361 H 0.5726 0.8223 0.94192 0.0
H362 H 0.69801 0.76861 0.09563 0.0
H363 H 0.70945 0.83557 0.10173 0.0
C364 C 0.96177 0.07602 0.71956 0.0
C365 C 0.99404 0.07651 0.73597 0.0
C366 C 0.01574 0.09412 0.7339 0.0
C367 C 0.99558 0.10343 0.71657 0.0
N368 N 0.96221 0.09295 0.70756 0.0
Co369 Co 0.92405 0.10113 0.68227 0.0
N370 N 0.95646 0.12623 0.67796 0.0
C371 C 0.99072 0.13234 0.68973 0.0
C372 C 0.00613 0.1504 0.68339 0.0
C373 C 0.98022 0.15624 0.66654 0.0
C374 C 0.95035 0.14126 0.66347 0.0
N375 N 0.88579 0.10947 0.6572 0.0
C376 C 0.88634 0.12606 0.64462 0.0
C377 C 0.85388 0.12581 0.62869 0.0
C378 C 0.83199 0.10875 0.63164 0.0
C379 C 0.85219 0.09948 0.64897 0.0
N380 N 0.89168 0.07582 0.68632 0.0
C381 C 0.85744 0.0696 0.67444 0.0
C382 C 0.84224 0.05112 0.68014 0.0
C383 C 0.8683 0.04501 0.69649 0.0
C384 C 0.89803 0.06027 0.69997 0.0
N385 N 0.91764 0.11857 0.70784 0.0
C386 C 0.90776 0.14406 0.74316 0.0
C387 C 0.88049 0.12895 0.72621 0.0
C388 C 0.88592 0.1166 0.70886 0.0
C389 C 0.94021 0.14597 0.7423 0.0
C390 C 0.94455 0.13312 0.72474 0.0
N391 N 0.9304 0.08365 0.65677 0.0
C392 C 0.90644 0.05696 0.62169 0.0
C393 C 0.93889 0.05667 0.62205 0.0
C394 C 0.96708 0.07051 0.63994 0.0
C395 C 0.96229 0.08375 0.65698 0.0
C396 C 0.90283 0.07052 0.63886 0.0
H397 H 0.98476 0.09379 0.67029 0.0
H398 H 0.8774 0.06981 0.63747 0.0
H399 H 0.86392 0.10562 0.69642 0.0
H400 H 0.96989 0.1354 0.72513 0.0
C401 C 0.00748 0.12138 0.70753 0.0
C402 C 0.93177 0.0589 0.71572 0.0
C403 C 0.91681 0.1423 0.64697 0.0
C404 C 0.84042 0.08113 0.65746 0.0
H405 H 1.00124 0.06515 0.74799 0.0
H406 H 0.04306 0.09933 0.74358 0.0
H407 H 0.03294 0.15857 0.69051 0.0
H408 H 0.983 0.17014 0.65778 0.0
H409 H 0.84666 0.13677 0.61614 0.0
H410 H 0.80462 0.10364 0.62216 0.0
H411 H 0.81547 0.04287 0.67289 0.0
H412 H 0.86569 0.03072 0.70458 0.0
H413 H 0.85492 0.12649 0.72633 0.0
H414 H 0.9622 0.15757 0.75483 0.0
H415 H 0.88367 0.04636 0.60857 0.0
H416 H 0.99277 0.07117 0.64086 0.0
C417 C 0.40268 0.30874 0.09372 0.0
C418 C 0.39168 0.32668 0.09657 0.0
C419 C 0.41027 0.34224 0.08874 0.0
C420 C 0.43158 0.33302 0.08168 0.0
N421 N 0.42722 0.31238 0.08406 0.0
Co422 Co 0.45441 0.29324 0.07761 0.0
N423 N 0.48731 0.31724 0.072 0.0
C424 C 0.48659 0.33771 0.07329 0.0
C425 C 0.51242 0.3506 0.06853 0.0
C426 C 0.53079 0.3376 0.0639 0.0
C427 C 0.51503 0.31743 0.06614 0.0
N428 N 0.48093 0.27392 0.07046 0.0
C429 C 0.5087 0.27811 0.06409 0.0
C430 C 0.51865 0.25996 0.06022 0.0
C431 C 0.49603 0.24369 0.06383 0.0
C432 C 0.47371 0.25277 0.06977 0.0
N433 N 0.42238 0.26944 0.08426 0.0
C434 C 0.42249 0.24888 0.0827 0.0
C435 C 0.3989 0.23655 0.09012 0.0
C436 C 0.3835 0.25017 0.09754 0.0
C437 C 0.39872 0.27004 0.09422 0.0
N438 N 0.42496 0.28822 0.04258 0.0
C439 C 0.3879 0.28078 0.99224 0.0
C440 C 0.38988 0.26419 0.00583 0.0
C441 C 0.40844 0.26821 0.0307 0.0
C442 C 0.40381 0.3012 0.0043 0.0
C443 C 0.42174 0.30455 0.02928 0.0
N444 N 0.4836 0.29816 0.11236 0.0
C445 C 0.5128 0.28471 0.14857 0.0
C446 C 0.52262 0.30454 0.16224 0.0
C447 C 0.51254 0.32115 0.1505 0.0
C448 C 0.49332 0.31767 0.12569 0.0
C449 C 0.49348 0.28189 0.12389 0.0
H450 H 0.48654 0.33095 0.11764 0.0
H451 H 0.48661 0.26637 0.1145 0.0
H452 H 0.40938 0.25476 0.0397 0.0
H453 H 0.43302 0.3205 0.03726 0.0
C454 C 0.45986 0.34407 0.07723 0.0
C455 C 0.39165 0.28917 0.10241 0.0
C456 C 0.52639 0.29889 0.06138 0.0
C457 C 0.44661 0.24195 0.07574 0.0
H458 H 0.3734 0.32873 0.10454 0.0
H459 H 0.40999 0.35866 0.08973 0.0
H460 H 0.51685 0.36735 0.06789 0.0
H461 H 0.55284 0.3424 0.0589 0.0
H462 H 0.54006 0.25859 0.05528 0.0
H463 H 0.49599 0.22722 0.06244 0.0
H464 H 0.39443 0.21982 0.09095 0.0
H465 H 0.36413 0.24611 0.10534 0.0
H466 H 0.37801 0.24806 0.99723 0.0
H467 H 0.40244 0.31459 0.99452 0.0
H468 H 0.51969 0.2713 0.1569 0.0
H469 H 0.51994 0.33687 0.16028 0.0
H470 H 0.22416 0.36346 0.31677 0.0
H471 H 0.1997 0.39381 0.30751 0.0
H472 H 0.11502 0.36408 0.32698 0.0
H473 H 0.13968 0.33397 0.33655 0.0
H474 H 0.09728 0.38821 0.28704 0.0
H475 H 0.17855 0.39379 0.36903 0.0
H476 H 0.23462 0.3932 0.39881 0.0
H477 H 0.28373 0.44358 0.3702 0.0
H478 H 0.22792 0.4442 0.33993 0.0
H479 H 0.04275 0.47052 0.33134 0.0
H480 H 0.06147 0.43936 0.32328 0.0
H481 H 0.15409 0.4791 0.32133 0.0
H482 H 0.1358 0.5103 0.33005 0.0
H483 H 0.16947 0.4506 0.34766 0.0
H484 H 0.08771 0.44878 0.26915 0.0
H485 H 0.03206 0.44925 0.23872 0.0
H486 H 0.98427 0.39268 0.25901 0.0
H487 H 0.03956 0.39202 0.28981 0.0
C488 C 0.19976 0.36317 0.31824 0.0
C489 C 0.18371 0.34652 0.32735 0.0
C490 C 0.18588 0.38048 0.31304 0.0
C491 C 0.15569 0.38121 0.31674 0.0
C492 C 0.13824 0.36377 0.32391 0.0
C493 C 0.15233 0.34663 0.32941 0.0
C494 C 0.14492 0.40111 0.31666 0.0
C495 C 0.11292 0.40189 0.30026 0.0
C496 C 0.1657 0.41902 0.33365 0.0
C497 C 0.19916 0.41886 0.35205 0.0
C498 C 0.20134 0.40462 0.36896 0.0
C499 C 0.23306 0.40429 0.38595 0.0
C500 C 0.26273 0.41831 0.38635 0.0
C501 C 0.26073 0.43271 0.36982 0.0
C502 C 0.22907 0.43305 0.35275 0.0
C503 C 0.06689 0.47258 0.32886 0.0
C504 C 0.08786 0.49282 0.33137 0.0
C505 C 0.07752 0.45476 0.32414 0.0
C506 C 0.10904 0.45681 0.32135 0.0
C507 C 0.12969 0.47707 0.3234 0.0
C508 C 0.11926 0.49488 0.32843 0.0
C509 C 0.12152 0.43791 0.31801 0.0
C510 C 0.15388 0.4372 0.334 0.0
C511 C 0.10109 0.42017 0.30049 0.0
C512 C 0.06777 0.42045 0.28193 0.0
C513 C 0.06529 0.43652 0.26725 0.0
C514 C 0.03381 0.43681 0.24991 0.0
C515 C 0.00463 0.42103 0.24697 0.0
C516 C 0.00689 0.4049 0.26132 0.0
C517 C 0.03831 0.40455 0.2787 0.0
H518 H 0.98029 0.42128 0.23354 0.0
H519 H 0.28727 0.41804 0.39952 0.0
H520 H 0.27668 0.69589 0.67812 0.0
H521 H 0.24127 0.66314 0.68314 0.0
H522 H 0.16363 0.69495 0.68239 0.0
H523 H 0.1989 0.72767 0.67769 0.0
H524 H 0.18245 0.67394 0.72165 0.0
H525 H 0.14983 0.65995 0.63537 0.0
H526 H 0.15993 0.65598 0.5973 0.0
H527 H 0.20851 0.60647 0.62098 0.0
H528 H 0.19913 0.61034 0.65937 0.0
H529 H 0.05491 0.58941 0.72457 0.0
H530 H 0.08379 0.61827 0.7088 0.0
H531 H 0.15709 0.58356 0.70688 0.0
H532 H 0.1275 0.55442 0.72207 0.0
H533 H 0.14116 0.60538 0.66839 0.0
H534 H 0.17564 0.61919 0.75428 0.0
H535 H 0.16629 0.62229 0.79271 0.0
H536 H 0.11722 0.67198 0.77096 0.0
H537 H 0.12569 0.66889 0.73215 0.0
C538 C 0.25189 0.6958 0.67875 0.0
C539 C 0.24054 0.71433 0.67746 0.0
C540 C 0.23164 0.67709 0.68149 0.0
C541 C 0.19981 0.67664 0.68308 0.0
C542 C 0.18808 0.69497 0.68115 0.0
C543 C 0.20816 0.71361 0.67826 0.0
C544 C 0.17973 0.65755 0.68847 0.0
C545 C 0.17299 0.65903 0.70981 0.0
C546 C 0.16844 0.63795 0.67343 0.0
C547 C 0.17409 0.63559 0.65036 0.0
C548 C 0.16295 0.64835 0.63256 0.0
C549 C 0.16848 0.64609 0.6109 0.0
C550 C 0.18494 0.63102 0.60675 0.0
C551 C 0.19581 0.61815 0.62424 0.0
C552 C 0.19036 0.62036 0.64594 0.0
C553 C 0.07683 0.58789 0.72033 0.0
C554 C 0.08944 0.57001 0.72473 0.0
C555 C 0.09334 0.60432 0.71143 0.0
C556 C 0.12295 0.6032 0.70711 0.0
C557 C 0.13437 0.58476 0.71018 0.0
C558 C 0.11766 0.56823 0.71892 0.0
C559 C 0.14344 0.62191 0.70134 0.0
C560 C 0.15051 0.62033 0.68013 0.0
C561 C 0.15544 0.64142 0.71663 0.0
C562 C 0.15103 0.64368 0.74021 0.0
C563 C 0.16268 0.6307 0.75762 0.0
C564 C 0.15754 0.63245 0.77948 0.0
C565 C 0.14112 0.64731 0.78426 0.0
C566 C 0.12991 0.66047 0.76722 0.0
C567 C 0.13488 0.65873 0.74529 0.0
H568 H 0.13713 0.64864 0.80118 0.0
H569 H 0.18919 0.62929 0.58997 0.0
H570 H 0.97428 0.82283 0.38976 0.0
H571 H 1.001 0.79336 0.39474 0.0
H572 H 0.93475 0.76419 0.43026 0.0
H573 H 0.90799 0.79376 0.42541 0.0
H574 H 0.00547 0.75616 0.44593 0.0
H575 H 0.90299 0.75269 0.37408 0.0
H576 H 0.87341 0.77077 0.34104 0.0
H577 H 0.95483 0.77583 0.31435 0.0
H578 H 0.98514 0.75806 0.34747 0.0
H579 H 0.99466 0.64864 0.41423 0.0
H580 H 0.98365 0.68264 0.42274 0.0
H581 H 0.01683 0.70551 0.36612 0.0
H582 H 0.02593 0.67113 0.35679 0.0
H583 H 0.96504 0.71811 0.36271 0.0
H584 H 0.06644 0.72009 0.4299 0.0
H585 H 0.104 0.70779 0.4651 0.0
H586 H 0.03422 0.70942 0.50146 0.0
H587 H 0.99599 0.72146 0.46633 0.0
C588 C 0.96641 0.81054 0.39951 0.0
C589 C 0.93886 0.81038 0.40696 0.0
C590 C 0.9817 0.79376 0.40237 0.0
C591 C 0.96943 0.7765 0.41251 0.0
C592 C 0.94457 0.77741 0.42243 0.0
C593 C 0.92933 0.7943 0.41966 0.0
C594 C 0.97737 0.7562 0.40829 0.0
C595 C 0.99644 0.74764 0.42784 0.0
C596 C 0.96624 0.74549 0.38456 0.0
C597 C 0.9464 0.75417 0.36331 0.0
C598 C 0.91449 0.75758 0.36109 0.0
C599 C 0.89766 0.76783 0.34241 0.0
C600 C 0.91239 0.77459 0.32574 0.0
C601 C 0.94356 0.77068 0.32737 0.0
C602 C 0.96054 0.76047 0.34604 0.0
C603 C 0.9996 0.661 0.40369 0.0
C604 C 0.01107 0.65735 0.38487 0.0
C605 C 0.99357 0.68048 0.40865 0.0
C606 C 0.99996 0.69689 0.39538 0.0
C607 C 0.01162 0.69318 0.37663 0.0
C608 C 0.01686 0.67356 0.3713 0.0
C609 C 0.99349 0.71769 0.40044 0.0
C610 C 0.97434 0.72641 0.38093 0.0
C611 C 0.00527 0.72871 0.4242 0.0
C612 C 0.02818 0.72148 0.44537 0.0
C613 C 0.05898 0.71767 0.44532 0.0
C614 C 0.08041 0.71077 0.46528 0.0
C615 C 0.07146 0.70778 0.48548 0.0
C616 C 0.04109 0.71172 0.48579 0.0
C617 C 0.01954 0.7186 0.46587 0.0
H618 H 0.08809 0.70244 0.50091 0.0
H619 H 0.89966 0.78289 0.31157 0.0
H620 H 0.8318 0.36118 0.90754 0.0
H621 H 0.85034 0.39466 0.89361 0.0
H622 H 0.93311 0.37336 0.88383 0.0
H623 H 0.91522 0.34043 0.89799 0.0
H624 H 0.95421 0.41371 0.90403 0.0
H625 H 0.85825 0.36955 0.8366 0.0
H626 H 0.79848 0.34904 0.81623 0.0
H627 H 0.76366 0.40396 0.82617 0.0
H628 H 0.82328 0.42474 0.84689 0.0
H629 H 1.00022 0.4597 0.81365 0.0
H630 H 0.9755 0.43516 0.83612 0.0
H631 H 0.91062 0.47521 0.84121 0.0
H632 H 0.93575 0.49996 0.81882 0.0
H633 H 0.87674 0.43145 0.8285 0.0
H634 H 0.97517 0.47688 0.88897 0.0
H635 H 0.03558 0.49667 0.90685 0.0
H636 H 0.06655 0.43886 0.909 0.0
H637 H 0.00632 0.41872 0.89066 0.0
C638 C 0.85413 0.36384 0.90263 0.0
C639 C 0.87176 0.34812 0.90347 0.0
C640 C 0.8646 0.38287 0.8946 0.0
C641 C 0.89294 0.38641 0.88747 0.0
C642 C 0.91118 0.371 0.88921 0.0
C643 C 0.90072 0.35209 0.89708 0.0
C644 C 0.90327 0.40562 0.87714 0.0
C645 C 0.93725 0.41763 0.88755 0.0
C646 C 0.8809 0.41108 0.85599 0.0
C647 C 0.84514 0.39861 0.84357 0.0
C648 C 0.83782 0.3772 0.83462 0.0
C649 C 0.80399 0.36554 0.82298 0.0
C650 C 0.77728 0.37517 0.81999 0.0
C651 C 0.78437 0.39651 0.82857 0.0
C652 C 0.81816 0.40823 0.84026 0.0
C653 C 0.9806 0.46315 0.81953 0.0
C654 C 0.96975 0.48156 0.81463 0.0
C655 C 0.96658 0.44923 0.83236 0.0
C656 C 0.94149 0.45351 0.8405 0.0
C657 C 0.92998 0.47168 0.8351 0.0
C658 C 0.94427 0.48574 0.82238 0.0
C659 C 0.92793 0.43896 0.85494 0.0
C660 C 0.89344 0.42789 0.84533 0.0
C661 C 0.94987 0.43427 0.87677 0.0
C662 C 0.98617 0.44628 0.88831 0.0
C663 C 0.99485 0.46838 0.89312 0.0
C664 C 0.02908 0.47967 0.90334 0.0
C665 C 0.05489 0.46903 0.90904 0.0
C666 C 0.04652 0.44708 0.90458 0.0
C667 C 0.01233 0.43572 0.89429 0.0
H668 H 0.08137 0.4778 0.91694 0.0
H669 H 0.75111 0.36612 0.81096 0.0
H670 H 0.22516 0.21105 0.2912 0.0
H671 H 0.2257 0.17703 0.30591 0.0
H672 H 0.25951 0.20763 0.37921 0.0
H673 H 0.26032 0.24165 0.36478 0.0
H674 H 0.29587 0.18075 0.37649 0.0
H675 H 0.17636 0.17893 0.34827 0.0
H676 H 0.12099 0.18081 0.31858 0.0
H677 H 0.12136 0.12879 0.27208 0.0
H678 H 0.177 0.12678 0.30137 0.0
H679 H 0.26785 0.09418 0.43747 0.0
H680 H 0.26108 0.12616 0.41898 0.0
H681 H 0.23578 0.09163 0.34868 0.0
H682 H 0.24242 0.05957 0.36729 0.0
H683 H 0.195 0.11934 0.34791 0.0
H684 H 0.31389 0.12065 0.37704 0.0
H685 H 0.36826 0.11822 0.40756 0.0
H686 H 0.36849 0.17131 0.4528 0.0
H687 H 0.31377 0.17384 0.42272 0.0
C688 C 0.23285 0.21053 0.31046 0.0
C689 C 0.24255 0.22908 0.3268 0.0
C690 C 0.23283 0.19105 0.31882 0.0
C691 C 0.24232 0.18975 0.34366 0.0
C692 C 0.25199 0.20823 0.35996 0.0
C693 C 0.25211 0.22766 0.35165 0.0
C694 C 0.24314 0.16927 0.35289 0.0
C695 C 0.27366 0.16742 0.37042 0.0
C696 C 0.21446 0.15167 0.34451 0.0
C697 C 0.18103 0.15286 0.32689 0.0
C698 C 0.16478 0.16801 0.33162 0.0
C699 C 0.13332 0.16907 0.31488 0.0
C700 C 0.11771 0.15497 0.29342 0.0
C701 C 0.1335 0.13973 0.28869 0.0
C702 C 0.16499 0.13861 0.30536 0.0
C703 C 0.26047 0.09348 0.41806 0.0
C704 C 0.25555 0.07462 0.40369 0.0
C705 C 0.25668 0.11167 0.40753 0.0
C706 C 0.24825 0.11129 0.38249 0.0
C707 C 0.24224 0.09223 0.36801 0.0
C708 C 0.24608 0.07401 0.37858 0.0
C709 C 0.2475 0.13105 0.37172 0.0
C710 C 0.21715 0.1327 0.35388 0.0
C711 C 0.2763 0.14852 0.37981 0.0
C712 C 0.30959 0.14733 0.3977 0.0
C713 C 0.32543 0.13173 0.39356 0.0
C714 C 0.35632 0.13034 0.41077 0.0
C715 C 0.37179 0.14458 0.43212 0.0
C716 C 0.35646 0.16028 0.43626 0.0
C717 C 0.32552 0.16172 0.41912 0.0
H718 H 0.39569 0.14346 0.44544 0.0
H719 H 0.09335 0.15581 0.28049 0.0
H720 H 0.34126 0.79528 0.73192 0.0
H721 H 0.39086 0.80169 0.76954 0.0
H722 H 0.4188 0.74773 0.74556 0.0
H723 H 0.36864 0.74103 0.70808 0.0
H724 H 0.41669 0.7447 0.788 0.0
H725 H 0.46928 0.79921 0.75406 0.0
H726 H 0.4747 0.83049 0.73335 0.0
H727 H 0.46381 0.86728 0.79056 0.0
H728 H 0.45783 0.83615 0.81148 0.0
H729 H 0.56255 0.76255 0.89741 0.0
H730 H 0.52771 0.75933 0.85447 0.0
H731 H 0.48109 0.80706 0.87043 0.0
H732 H 0.51534 0.81015 0.91337 0.0
H733 H 0.49871 0.81269 0.83035 0.0
H734 H 0.43984 0.75615 0.86121 0.0
H735 H 0.43526 0.72455 0.88152 0.0
H736 H 0.46001 0.69129 0.82876 0.0
H737 H 0.46519 0.7228 0.80832 0.0
C738 C 0.35858 0.78519 0.73436 0.0
C739 C 0.35111 0.76764 0.71712 0.0
C740 C 0.38698 0.78886 0.75589 0.0
C741 C 0.40872 0.77523 0.76042 0.0
C742 C 0.40236 0.75841 0.74254 0.0
C743 C 0.37379 0.75463 0.72112 0.0
C744 C 0.43558 0.77714 0.78475 0.0
C745 C 0.43513 0.75948 0.79699 0.0
C746 C 0.45928 0.79648 0.79676 0.0
C747 C 0.46285 0.81528 0.78426 0.0
C748 C 0.46776 0.81393 0.76214 0.0
C749 C 0.47099 0.83164 0.75038 0.0
C750 C 0.46954 0.85085 0.76061 0.0
C751 C 0.46492 0.85239 0.78265 0.0
C752 C 0.46165 0.83472 0.79449 0.0
C753 C 0.54468 0.77224 0.89182 0.0
C754 C 0.54164 0.78655 0.90888 0.0
C755 C 0.52495 0.77047 0.86725 0.0
C756 C 0.50173 0.78291 0.85928 0.0
C757 C 0.49902 0.79742 0.87618 0.0
C758 C 0.51866 0.79917 0.90073 0.0
C759 C 0.47932 0.78036 0.83347 0.0
C760 C 0.48058 0.79788 0.82106 0.0
C761 C 0.45654 0.76085 0.82118 0.0
C762 C 0.45328 0.7419 0.83341 0.0
C763 C 0.44458 0.74215 0.85406 0.0
C764 C 0.44182 0.72425 0.86557 0.0
C765 C 0.44744 0.70594 0.85648 0.0
C766 C 0.45573 0.70549 0.83581 0.0
C767 C 0.45856 0.72336 0.82425 0.0
H768 H 0.44529 0.6921 0.86542 0.0
H769 H 0.47204 0.86454 0.75147 0.0
H770 H 0.85611 0.88775 0.49116 0.0
H771 H 0.88138 0.91862 0.52177 0.0
H772 H 0.95192 0.94309 0.48733 0.0
H773 H 0.92483 0.9128 0.45541 0.0
H774 H 0.93725 0.93722 0.55488 0.0
H775 H 0.96855 0.99642 0.49369 0.0
H776 H 0.95185 1.00031 0.45041 0.0
H777 H 0.85249 0.9598 0.4359 0.0
H778 H 0.86851 0.95588 0.47911 0.0
H779 H 0.98894 0.03523 0.62937 0.0
H780 H 0.99143 0.00765 0.6014 0.0
H781 H 0.89909 0.0151 0.54737 0.0
H782 H 0.89791 0.04365 0.57441 0.0
H783 H 0.93667 0.00632 0.52558 0.0
H784 H 0.90124 0.97691 0.58824 0.0
H785 H 0.90799 0.97226 0.63034 0.0
H786 H 0.99871 0.95143 0.6398 0.0
H787 H 0.99268 0.9562 0.5978 0.0
C788 C 0.87694 0.8997 0.48998 0.0
C789 C 0.88776 0.89802 0.4704 0.0
C790 C 0.89173 0.91728 0.50775 0.0
C791 C 0.91813 0.93351 0.50666 0.0
C792 C 0.93102 0.93106 0.48828 0.0
C793 C 0.91576 0.91357 0.47017 0.0
C794 C 0.92978 0.95346 0.52371 0.0
C795 C 0.9375 0.95235 0.54847 0.0
C796 C 0.9299 0.97329 0.51549 0.0
C797 C 0.9199 0.97564 0.48953 0.0
C798 C 0.94314 0.98838 0.48124 0.0
C799 C 0.93379 0.99059 0.45674 0.0
C800 C 0.90118 0.98024 0.4404 0.0
C801 C 0.87778 0.96774 0.44855 0.0
C802 C 0.88699 0.96551 0.47304 0.0
C803 C 0.96966 0.03141 0.61132 0.0
C804 C 0.94283 0.04148 0.60437 0.0
C805 C 0.9709 0.01542 0.59541 0.0
C806 C 0.94498 0.00887 0.57243 0.0
C807 C 0.91931 0.0197 0.56503 0.0
C808 C 0.91838 0.03587 0.58071 0.0
C809 C 0.94283 0.98992 0.55656 0.0
C810 C 0.93718 0.99126 0.53208 0.0
C811 C 0.94321 0.97015 0.56486 0.0
C812 C 0.94675 0.96716 0.59002 0.0
C813 C 0.92273 0.97146 0.59936 0.0
C814 C 0.92642 0.96879 0.62319 0.0
C815 C 0.95383 0.96162 0.63776 0.0
C816 C 0.97755 0.95703 0.62851 0.0
C817 C 0.97401 0.95971 0.6047 0.0
H818 H 0.95665 0.95957 0.65621 0.0
H819 H 0.894 0.98195 0.42144 0.0
H820 H 0.74706 0.29286 0.96115 0.0
H821 H 0.69708 0.29402 0.97126 0.0
H822 H 0.76306 0.3263 0.04237 0.0
H823 H 0.81303 0.32542 0.03232 0.0
H824 H 0.71622 0.29239 0.04438 0.0
H825 H 0.71631 0.35171 1.00056 0.0
H826 H 0.71606 0.37021 0.96562 0.0
H827 H 0.62052 0.32754 0.92152 0.0
H828 H 0.62043 0.30859 0.95613 0.0
H829 H 0.59368 0.31646 0.08744 0.0
H830 H 0.6417 0.31967 0.07368 0.0
H831 H 0.57194 0.28909 0.00263 0.0
H832 H 0.52385 0.28635 0.01637 0.0
H833 H 0.61955 0.32164 0.99943 0.0
H834 H 0.61874 0.26217 0.04201 0.0
H835 H 0.61794 0.24291 0.07625 0.0
H836 H 0.71399 0.2844 0.12156 0.0
H837 H 0.7151 0.30414 0.08767 0.0
C838 C 0.75092 0.30063 0.97874 0.0
C839 C 0.78406 0.30891 0.99599 0.0
C840 C 0.72231 0.30122 0.98452 0.0
C841 C 0.72633 0.31021 0.0076 0.0
C842 C 0.75935 0.31915 0.02452 0.0
C843 C 0.78789 0.31859 0.01876 0.0
C844 C 0.69635 0.30915 0.01476 0.0
C845 C 0.69533 0.29907 0.03476 0.0
C846 C 0.66854 0.31722 0.00171 0.0
C847 C 0.66855 0.3286 0.98088 0.0
C848 C 0.6954 0.34616 0.98336 0.0
C849 C 0.69528 0.35675 0.96362 0.0
C850 C 0.66834 0.35002 0.94134 0.0
C851 C 0.6414 0.33271 0.93878 0.0
C852 C 0.6414 0.32205 0.95845 0.0
C853 C 0.58877 0.31053 0.06889 0.0
C854 C 0.55537 0.30108 0.05293 0.0
C855 C 0.6161 0.31229 0.06105 0.0
C856 C 0.61047 0.30438 0.03718 0.0
C857 C 0.5769 0.29528 0.0211 0.0
C858 C 0.54954 0.29362 0.02894 0.0
C859 C 0.63971 0.30514 0.02925 0.0
C860 C 0.64051 0.31502 0.00907 0.0
C861 C 0.66725 0.29673 0.04199 0.0
C862 C 0.66685 0.28476 0.06235 0.0
C863 C 0.63958 0.26728 0.05932 0.0
C864 C 0.63908 0.25627 0.07866 0.0
C865 C 0.66586 0.26246 0.10108 0.0
C866 C 0.69324 0.27964 0.10419 0.0
C867 C 0.69383 0.29074 0.08491 0.0
H868 H 0.66543 0.25391 0.11603 0.0
H869 H 0.6683 0.35824 0.92609 0.0
H870 H 0.31071 0.84747 0.64818 0.0
H871 H 0.33109 0.87631 0.62809 0.0
H872 H 0.25884 0.84311 0.55898 0.0
H873 H 0.23816 0.81456 0.57905 0.0
H874 H 0.3243 0.86571 0.55831 0.0
H875 H 0.23386 0.87522 0.58624 0.0
H876 H 0.20955 0.87788 0.6178 0.0
H877 H 0.29431 0.92992 0.65818 0.0
H878 H 0.3194 0.92731 0.62701 0.0
H879 H 0.27539 0.93832 0.4792 0.0
H880 H 0.28131 0.91047 0.50479 0.0
H881 H 0.33366 0.95738 0.5681 0.0
H882 H 0.32598 0.98523 0.54239 0.0
H883 H 0.28936 0.92972 0.57655 0.0
H884 H 0.37527 0.92484 0.54562 0.0
H885 H 0.40101 0.92243 0.51488 0.0
H886 H 0.32946 0.86294 0.48163 0.0
H887 H 0.30292 0.86512 0.51196 0.0
C888 C 0.30001 0.84614 0.62866 0.0
C889 C 0.27294 0.82895 0.61506 0.0
C890 C 0.31155 0.86257 0.61722 0.0
C891 C 0.2963 0.86184 0.59208 0.0
C892 C 0.27102 0.84391 0.57837 0.0
C893 C 0.25918 0.82767 0.58981 0.0
C894 C 0.30308 0.8807 0.58032 0.0
C895 C 0.31675 0.87976 0.56223 0.0
C896 C 0.294 0.89917 0.58594 0.0
C897 C 0.27869 0.90091 0.60448 0.0
C898 C 0.24744 0.88711 0.60195 0.0
C899 C 0.2335 0.88862 0.61975 0.0
C900 C 0.25043 0.90402 0.64002 0.0
C901 C 0.28127 0.91797 0.6425 0.0
C902 C 0.29536 0.91649 0.62478 0.0
C903 C 0.28832 0.94258 0.49858 0.0
C904 C 0.3002 0.96379 0.50894 0.0
C905 C 0.29205 0.92671 0.5132 0.0
C906 C 0.3085 0.93176 0.53843 0.0
C907 C 0.321 0.95305 0.54871 0.0
C908 C 0.31676 0.96893 0.53408 0.0
C909 C 0.31024 0.91481 0.55406 0.0
C910 C 0.29787 0.91601 0.57287 0.0
C911 C 0.32094 0.8967 0.54923 0.0
C912 C 0.33697 0.89521 0.53101 0.0
C913 C 0.36487 0.9113 0.53167 0.0
C914 C 0.37963 0.90997 0.51432 0.0
C915 C 0.36685 0.89256 0.49629 0.0
C916 C 0.33933 0.87642 0.49561 0.0
C917 C 0.32445 0.87768 0.5129 0.0
H918 H 0.3783 0.89156 0.48287 0.0
H919 H 0.2396 0.90517 0.65378 0.0
H920 H 0.81046 0.83175 0.33377 0.0
H921 H 0.78292 0.82615 0.28987 0.0
H922 H 0.87835 0.824 0.28309 0.0
H923 H 0.9068 0.83078 0.32704 0.0
H924 H 0.79811 0.85013 0.25528 0.0
H925 H 0.85457 0.78232 0.23458 0.0
H926 H 0.87463 0.75266 0.25318 0.0
H927 H 0.81257 0.7516 0.29613 0.0
H928 H 0.79175 0.781 0.27754 0.0
H929 H 0.76395 0.83302 0.1297 0.0
H930 H 0.79427 0.83789 0.17347 0.0
H931 H 0.72533 0.78155 0.17841 0.0
H932 H 0.69458 0.77668 0.1347 0.0
H933 H 0.79109 0.78406 0.20739 0.0
H934 H 0.7131 0.82827 0.19159 0.0
H935 H 0.68673 0.85559 0.17209 0.0
H936 H 0.78341 0.90128 0.20275 0.0
H937 H 0.81047 0.87413 0.22216 0.0
C938 C 0.82595 0.83064 0.32307 0.0
C939 C 0.86104 0.83187 0.33414 0.0
C940 C 0.81 0.82722 0.29793 0.0
C941 C 0.82857 0.82453 0.28331 0.0
C942 C 0.86354 0.82584 0.29412 0.0
C943 C 0.87969 0.82963 0.31928 0.0
C944 C 0.81122 0.82035 0.2567 0.0
C945 C 0.79673 0.83574 0.24479 0.0
C946 C 0.80895 0.80141 0.24313 0.0
C947 C 0.82192 0.78403 0.25484 0.0
C948 C 0.8452 0.77574 0.24799 0.0
C949 C 0.85661 0.75894 0.25847 0.0
C950 C 0.84477 0.7502 0.27575 0.0
C951 C 0.82167 0.75836 0.28271 0.0
C952 C 0.81015 0.77515 0.27226 0.0
C953 C 0.75518 0.82168 0.14009 0.0
C954 C 0.72666 0.80454 0.1287 0.0
C955 C 0.77262 0.82444 0.16509 0.0
C956 C 0.76183 0.8102 0.1792 0.0
C957 C 0.73413 0.7927 0.16783 0.0
C958 C 0.71664 0.78992 0.14283 0.0
C959 C 0.7785 0.814 0.20592 0.0
C960 C 0.79283 0.79855 0.21786 0.0
C961 C 0.78013 0.83273 0.21959 0.0
C962 C 0.76386 0.84913 0.20813 0.0
C963 C 0.72878 0.84411 0.19403 0.0
C964 C 0.71371 0.85957 0.18301 0.0
C965 C 0.7334 0.88015 0.18613 0.0
C966 C 0.7682 0.88532 0.20032 0.0
C967 C 0.78341 0.86991 0.21135 0.0
H968 H 0.72169 0.89209 0.17758 0.0
H969 H 0.85366 0.73721 0.28386 0.0
H970 H 0.814 0.27171 0.8583 0.0
H971 H 0.82298 0.24401 0.83374 0.0
H972 H 0.91032 0.23931 0.89457 0.0
H973 H 0.90078 0.26664 0.91937 0.0
H974 H 0.92094 0.2461 0.84894 0.0
H975 H 0.84925 0.20067 0.88104 0.0
H976 H 0.79843 0.18805 0.89133 0.0
H977 H 0.73435 0.17812 0.81618 0.0
H978 H 0.78479 0.19102 0.80545 0.0
H979 H 0.94963 0.1583 0.79058 0.0
H980 H 0.94052 0.18129 0.82003 0.0
H981 H 0.84402 0.1835 0.76681 0.0
H982 H 0.85329 0.16111 0.73701 0.0
H983 H 0.83977 0.17671 0.81123 0.0
H984 H 0.90927 0.22398 0.77899 0.0
H985 H 0.95891 0.23754 0.76768 0.0
H986 H 0.02586 0.24507 0.84191 0.0
H987 H 0.9766 0.23123 0.85363 0.0
C988 C 0.83464 0.26441 0.86648 0.0
C989 C 0.85656 0.27106 0.89067 0.0
C990 C 0.83978 0.24867 0.85251 0.0
C991 C 0.86729 0.23967 0.86241 0.0
C992 C 0.88892 0.24607 0.88669 0.0
C993 C 0.88335 0.26151 0.90083 0.0
C994 C 0.87444 0.22446 0.84687 0.0
C995 C 0.90359 0.23075 0.84105 0.0
C996 C 0.85122 0.20474 0.83612 0.0
C997 C 0.82079 0.19703 0.84247 0.0
C998 C 0.8243 0.19601 0.86672 0.0
C999 C 0.79556 0.18876 0.87263 0.0
C1000 C 0.76317 0.18234 0.85442 0.0
C1001 C 0.75946 0.18313 0.83026 0.0
C1002 C 0.78812 0.19039 0.82426 0.0
C1003 C 0.92663 0.16385 0.78501 0.0
C1004 C 0.90222 0.15782 0.76134 0.0
C1005 C 0.92139 0.17689 0.80193 0.0
C1006 C 0.89163 0.18411 0.79556 0.0
C1007 C 0.86705 0.17796 0.77212 0.0
C1008 C 0.87237 0.16508 0.75514 0.0
C1009 C 0.88627 0.19836 0.81322 0.0
C1010 C 0.85737 0.19195 0.81934 0.0
C1011 C 0.9096 0.21806 0.82411 0.0
C1012 C 0.93929 0.22631 0.81714 0.0
C1013 C 0.93461 0.22832 0.79287 0.0
C1014 C 0.96267 0.2361 0.78639 0.0
C1015 C 0.99553 0.2421 0.80405 0.0
C1016 C 1.00039 0.24037 0.82824 0.0
C1017 C 0.97241 0.23257 0.83481 0.0
H1018 H 0.01722 0.24814 0.799 0.0
H1019 H 0.74095 0.17672 0.85903 0.0
H1020 H 0.23517 0.29396 0.25307 0.0
H1021 H 0.25817 0.29938 0.22087 0.0
H1022 H 0.34179 0.27353 0.25974 0.0
H1023 H 0.31902 0.26815 0.29189 0.0
H1024 H 0.36215 0.30893 0.23913 0.0
H1025 H 0.27607 0.24279 0.21616 0.0
H1026 H 0.21851 0.2202 0.20776 0.0
H1027 H 0.17568 0.25593 0.15207 0.0
H1028 H 0.23299 0.27894 0.16039 0.0
H1029 H 0.42127 0.2817 0.14824 0.0
H1030 H 0.39871 0.28117 0.1807 0.0
H1031 H 0.30833 0.29644 0.13293 0.0
H1032 H 0.33011 0.29558 0.10002 0.0
H1033 H 0.29053 0.26879 0.15793 0.0
H1034 H 0.37563 0.33409 0.17881 0.0
H1035 H 0.43286 0.35655 0.18593 0.0
H1036 H 0.47705 0.32382 0.24439 0.0
H1037 H 0.42006 0.30095 0.23752 0.0
C1038 C 0.25871 0.28973 0.25485 0.0
C1039 C 0.27514 0.28044 0.27481 0.0
C1040 C 0.27174 0.29275 0.23645 0.0
C1041 C 0.30153 0.28667 0.23785 0.0
C1042 C 0.31877 0.27829 0.2583 0.0
C1043 C 0.30561 0.27509 0.27654 0.0
C1044 C 0.31372 0.28782 0.21742 0.0
C1045 C 0.34661 0.30009 0.2214 0.0
C1046 C 0.29316 0.27661 0.19418 0.0
C1047 C 0.25874 0.26273 0.18909 0.0
C1048 C 0.25434 0.24594 0.20226 0.0
C1049 C 0.22177 0.23304 0.19749 0.0
C1050 C 0.19344 0.23667 0.17944 0.0
C1051 C 0.19764 0.25317 0.16608 0.0
C1052 C 0.23015 0.26613 0.17081 0.0
C1053 C 0.39657 0.28489 0.14477 0.0
C1054 C 0.37765 0.28912 0.12192 0.0
C1055 C 0.3838 0.28478 0.16333 0.0
C1056 C 0.35219 0.28936 0.15952 0.0
C1057 C 0.33292 0.2931 0.13643 0.0
C1058 C 0.34544 0.2928 0.11772 0.0
C1059 C 0.33907 0.28995 0.17952 0.0
C1060 C 0.30601 0.27791 0.17553 0.0
C1061 C 0.35939 0.30155 0.20267 0.0
C1062 C 0.39357 0.31573 0.20755 0.0
C1063 C 0.39755 0.33165 0.19318 0.0
C1064 C 0.42994 0.34443 0.19717 0.0
C1065 C 0.45856 0.34156 0.2156 0.0
C1066 C 0.45482 0.32598 0.23016 0.0
C1067 C 0.42247 0.31314 0.22626 0.0
H1068 H 0.48364 0.35143 0.21862 0.0
H1069 H 0.16825 0.22666 0.17577 0.0
H1070 H 0.95684 0.77673 0.80355 0.0
H1071 H 0.96507 0.74243 0.79242 0.0
H1072 H 0.96264 0.72383 0.86022 0.0
H1073 H 0.95453 0.75808 0.87148 0.0
H1074 H 0.01732 0.71559 0.84912 0.0
H1075 H 0.89523 0.70462 0.81094 0.0
H1076 H 0.84265 0.71278 0.78437 0.0
H1077 H 0.87254 0.70513 0.72345 0.0
H1078 H 0.92557 0.69721 0.74974 0.0
H1079 H 0.00189 0.60682 0.82857 0.0
H1080 H 0.99234 0.64114 0.83724 0.0
H1081 H 0.98233 0.65341 0.76497 0.0
H1082 H 0.99161 0.61895 0.75612 0.0
H1083 H 0.93503 0.66568 0.77715 0.0
H1084 H 0.0555 0.67625 0.81321 0.0
H1085 H 0.10956 0.66898 0.83854 0.0
H1086 H 0.08554 0.67882 0.90178 0.0
H1087 H 0.03105 0.68584 0.87676 0.0
C1088 C 0.95805 0.7653 0.81605 0.0
C1089 C 0.95492 0.77002 0.83833 0.0
C1090 C 0.96259 0.74571 0.80964 0.0
C1091 C 0.9643 0.73059 0.82546 0.0
C1092 C 0.96133 0.73529 0.84775 0.0
C1093 C 0.95645 0.75478 0.85407 0.0
C1094 C 0.96964 0.70992 0.81896 0.0
C1095 C 0.99914 0.70454 0.83357 0.0
C1096 C 0.94648 0.69588 0.79819 0.0
C1097 C 0.91453 0.70054 0.78235 0.0
C1098 C 0.89074 0.70485 0.79192 0.0
C1099 C 0.86082 0.7094 0.7769 0.0
C1100 C 0.8543 0.70953 0.75225 0.0
C1101 C 0.87765 0.70505 0.74256 0.0
C1102 C 0.90762 0.70052 0.7575 0.0
C1103 C 0.99781 0.61687 0.81456 0.0
C1104 C 0.99768 0.61023 0.7917 0.0
C1105 C 0.99237 0.63649 0.81954 0.0
C1106 C 0.98713 0.65 0.80187 0.0
C1107 C 0.98634 0.64326 0.77888 0.0
C1108 C 0.99157 0.62356 0.77384 0.0
C1109 C 0.98257 0.67117 0.80749 0.0
C1110 C 0.95328 0.6767 0.79269 0.0
C1111 C 0.0062 0.6855 0.82791 0.0
C1112 C 0.03902 0.68138 0.84307 0.0
C1113 C 0.06161 0.6767 0.83249 0.0
C1114 C 0.09235 0.67265 0.8468 0.0
C1115 C 0.10094 0.67339 0.87175 0.0
C1116 C 0.07883 0.67823 0.88245 0.0
C1117 C 0.04802 0.68226 0.86821 0.0
H1118 H 0.12476 0.67025 0.8828 0.0
H1119 H 0.83113 0.71305 0.74066 0.0
H1120 H 0.88428 0.36249 0.43396 0.0
H1121 H 0.91893 0.39775 0.43648 0.0
H1122 H 0.83909 0.42424 0.44331 0.0
H1123 H 0.80414 0.38882 0.44077 0.0
H1124 H 0.85693 0.43822 0.40788 0.0
H1125 H 0.91735 0.43338 0.49 0.0
H1126 H 0.94824 0.41746 0.52468 0.0
H1127 H 0.02643 0.41689 0.49582 0.0
H1128 H 0.99576 0.43253 0.46077 0.0
H1129 H 0.95495 0.54053 0.41006 0.0
H1130 H 0.92647 0.51117 0.42558 0.0
H1131 H 0.99081 0.4737 0.41288 0.0
H1132 H 0.01915 0.50306 0.39734 0.0
H1133 H 0.97996 0.46835 0.45621 0.0
H1134 H 0.91465 0.46856 0.37176 0.0
H1135 H 0.88406 0.48481 0.33728 0.0
H1136 H 0.81467 0.49417 0.37153 0.0
H1137 H 0.84524 0.47827 0.40643 0.0
C1138 C 0.87452 0.37582 0.43685 0.0
C1139 C 0.84142 0.37284 0.43714 0.0
C1140 C 0.89438 0.39603 0.43824 0.0
C1141 C 0.88169 0.4137 0.44016 0.0
C1142 C 0.84939 0.41084 0.44178 0.0
C1143 C 0.82946 0.39062 0.44034 0.0
C1144 C 0.90047 0.4347 0.43762 0.0
C1145 C 0.88361 0.44504 0.41889 0.0
C1146 C 0.9355 0.44342 0.45159 0.0
C1147 C 0.95409 0.43401 0.47265 0.0
C1148 C 0.94099 0.42971 0.49094 0.0
C1149 C 0.95849 0.42077 0.51069 0.0
C1150 C 0.98925 0.41613 0.51243 0.0
C1151 C 0.00259 0.42048 0.49444 0.0
C1152 C 0.98518 0.42942 0.47464 0.0
C1153 C 0.9631 0.52606 0.41088 0.0
C1154 C 0.98875 0.52377 0.40231 0.0
C1155 C 0.94695 0.50937 0.41973 0.0
C1156 C 0.95636 0.49021 0.42017 0.0
C1157 C 0.98323 0.48835 0.41273 0.0
C1158 C 0.99925 0.50501 0.40378 0.0
C1159 C 0.93642 0.47155 0.4264 0.0
C1160 C 0.95309 0.46166 0.44565 0.0
C1161 C 0.90118 0.46321 0.41296 0.0
C1162 C 0.88246 0.47245 0.39182 0.0
C1163 C 0.89302 0.47422 0.37202 0.0
C1164 C 0.87566 0.48334 0.35238 0.0
C1165 C 0.8475 0.49057 0.35224 0.0
C1166 C 0.83654 0.48861 0.37169 0.0
C1167 C 0.85386 0.47954 0.39139 0.0
H1168 H 0.83411 0.49765 0.33704 0.0
H1169 H 0.00276 0.40921 0.52773 0.0
H1170 H 0.20709 0.32635 0.69963 0.0
H1171 H 0.17917 0.35426 0.70321 0.0
H1172 H 0.11136 0.31269 0.7293 0.0
H1173 H 0.13933 0.28456 0.72581 0.0
H1174 H 0.08035 0.33982 0.69374 0.0
H1175 H 0.17317 0.3432 0.76974 0.0
H1176 H 0.23285 0.34469 0.79484 0.0
H1177 H 0.26726 0.40168 0.769 0.0
H1178 H 0.20784 0.40042 0.7435 0.0
H1179 H 0.02648 0.42038 0.74458 0.0
H1180 H 0.04487 0.38921 0.73567 0.0
H1181 H 0.13508 0.42925 0.7305 0.0
H1182 H 0.11734 0.46031 0.74028 0.0
H1183 H 0.15299 0.40114 0.75578 0.0
H1184 H 0.06381 0.39931 0.68011 0.0
H1185 H 0.00598 0.39834 0.65184 0.0
H1186 H 0.96606 0.33986 0.67273 0.0
H1187 H 0.02358 0.34067 0.70147 0.0
C1188 C 0.18571 0.32297 0.70559 0.0
C1189 C 0.17533 0.30327 0.71241 0.0
C1190 C 0.16995 0.33897 0.70776 0.0
C1191 C 0.1434 0.33552 0.71664 0.0
C1192 C 0.13182 0.31559 0.72238 0.0
C1193 C 0.14787 0.29962 0.72048 0.0
C1194 C 0.12959 0.35324 0.72152 0.0
C1195 C 0.09591 0.35315 0.70751 0.0
C1196 C 0.15038 0.37077 0.73904 0.0
C1197 C 0.18608 0.37161 0.75454 0.0
C1198 C 0.19348 0.35596 0.76926 0.0
C1199 C 0.22725 0.35677 0.78358 0.0
C1200 C 0.25381 0.37322 0.78346 0.0
C1201 C 0.24666 0.38893 0.76906 0.0
C1202 C 0.21295 0.38819 0.75469 0.0
C1203 C 0.05008 0.42244 0.74134 0.0
C1204 C 0.0706 0.44271 0.74321 0.0
C1205 C 0.06051 0.40465 0.73614 0.0
C1206 C 0.09126 0.40681 0.73217 0.0
C1207 C 0.11136 0.42711 0.73359 0.0
C1208 C 0.10124 0.44486 0.73919 0.0
C1209 C 0.10355 0.3881 0.72774 0.0
C1210 C 0.13709 0.3879 0.74197 0.0
C1211 C 0.08272 0.3705 0.7101 0.0
C1212 C 0.04797 0.37019 0.69319 0.0
C1213 C 0.04265 0.38637 0.6789 0.0
C1214 C 0.00992 0.38582 0.66275 0.0
C1215 C 0.98234 0.36908 0.66055 0.0
C1216 C 0.98743 0.35284 0.6745 0.0
C1217 C 0.02009 0.35335 0.69073 0.0
H1218 H 0.95705 0.36866 0.64799 0.0
H1219 H 0.27993 0.37381 0.79456 0.0
H1220 H 0.26666 0.72171 0.22556 0.0
H1221 H 0.23628 0.69279 0.24038 0.0
H1222 H 0.1807 0.7338 0.25902 0.0
H1223 H 0.21134 0.7627 0.24466 0.0
H1224 H 0.20386 0.71328 0.29494 0.0
H1225 H 0.14369 0.69437 0.20914 0.0
H1226 H 0.13799 0.68604 0.16682 0.0
H1227 H 0.18163 0.63363 0.1849 0.0
H1228 H 0.18802 0.64182 0.22742 0.0
H1229 H 0.07493 0.63955 0.3154 0.0
H1230 H 0.10365 0.66527 0.29599 0.0
H1231 H 0.16461 0.62329 0.28846 0.0
H1232 H 0.13565 0.59751 0.30786 0.0
H1233 H 0.14064 0.64299 0.24724 0.0
H1234 H 0.19852 0.66163 0.33305 0.0
H1235 H 0.20168 0.66956 0.3748 0.0
H1236 H 0.16059 0.72281 0.35605 0.0
H1237 H 0.15653 0.71494 0.31402 0.0
C1238 C 0.24768 0.72442 0.23259 0.0
C1239 C 0.24149 0.74444 0.2341 0.0
C1240 C 0.23031 0.70791 0.24102 0.0
C1241 C 0.20604 0.71108 0.25071 0.0
C1242 C 0.19943 0.73099 0.25176 0.0
C1243 C 0.21696 0.7475 0.24356 0.0
C1244 C 0.18831 0.69397 0.2606 0.0
C1245 C 0.1897 0.69802 0.28435 0.0
C1246 C 0.17058 0.67383 0.24707 0.0
C1247 C 0.16667 0.66884 0.22151 0.0
C1248 C 0.15233 0.68117 0.20413 0.0
C1249 C 0.14892 0.67645 0.1801 0.0
C1250 C 0.15953 0.65935 0.17319 0.0
C1251 C 0.17348 0.64689 0.19029 0.0
C1252 C 0.17697 0.65155 0.21435 0.0
C1253 C 0.09428 0.63585 0.30937 0.0
C1254 C 0.1034 0.61679 0.31308 0.0
C1255 C 0.11064 0.65047 0.29836 0.0
C1256 C 0.13645 0.64623 0.291 0.0
C1257 C 0.14476 0.62682 0.29401 0.0
C1258 C 0.12842 0.61221 0.30511 0.0
C1259 C 0.15581 0.66252 0.2813 0.0
C1260 C 0.15487 0.65828 0.25772 0.0
C1261 C 0.17385 0.68255 0.29492 0.0
C1262 C 0.17696 0.68759 0.32032 0.0
C1263 C 0.18994 0.67495 0.33778 0.0
C1264 C 0.19191 0.67944 0.3615 0.0
C1265 C 0.18129 0.69666 0.36807 0.0
C1266 C 0.16878 0.70946 0.35093 0.0
C1267 C 0.16665 0.705 0.32716 0.0
H1268 H 0.18282 0.70011 0.38644 0.0
H1269 H 0.15687 0.65573 0.15458 0.0
H1270 H 0.96212 0.90365 0.84107 0.0
H1271 H 0.94614 0.93322 0.82055 0.0
H1272 H 0.0123 0.92917 0.78124 0.0
H1273 H 0.0288 0.90003 0.80204 0.0
H1274 H 0.02204 0.96821 0.7977 0.0
H1275 H 0.92304 0.91173 0.75486 0.0
H1276 H 0.8742 0.88212 0.75048 0.0
H1277 H 0.83142 0.9232 0.78249 0.0
H1278 H 0.88027 0.95301 0.78736 0.0
H1279 H 0.96292 0.02978 0.70601 0.0
H1280 H 0.97281 0.99915 0.7266 0.0
H1281 H 0.91995 0.01456 0.77214 0.0
H1282 H 0.91042 0.0454 0.75167 0.0
H1283 H 0.90235 0.9708 0.75394 0.0
H1284 H 0.00167 0.02767 0.79476 0.0
H1285 H 0.04959 0.05693 0.79667 0.0
H1286 H 0.0914 0.01413 0.76621 0.0
H1287 H 0.04333 0.98465 0.76367 0.0
C1288 C 0.97296 0.90899 0.82788 0.0
C1289 C 0.99681 0.89963 0.82323 0.0
C1290 C 0.9638 0.92586 0.81614 0.0
C1291 C 0.97785 0.93338 0.7992 0.0
C1292 C 1.00127 0.92377 0.79432 0.0
C1293 C 0.01068 0.90712 0.80622 0.0
C1294 C 0.96908 0.9516 0.78698 0.0
C1295 C 0.99584 0.96861 0.78791 0.0
C1296 C 0.9349 0.95244 0.77465 0.0
C1297 C 0.9055 0.93455 0.77172 0.0
C1298 C 0.90336 0.91441 0.76114 0.0
C1299 C 0.87565 0.8976 0.75854 0.0
C1300 C 0.84977 0.90076 0.76627 0.0
C1301 C 0.85151 0.92077 0.77656 0.0
C1302 C 0.87919 0.93763 0.77923 0.0
C1303 C 0.95332 0.02648 0.72034 0.0
C1304 C 0.93596 0.03977 0.72736 0.0
C1305 C 0.95894 0.00907 0.73205 0.0
C1306 C 0.94724 0.00469 0.75095 0.0
C1307 C 0.92908 0.01767 0.75756 0.0
C1308 C 0.92372 0.03522 0.74596 0.0
C1309 C 0.95529 0.98706 0.76444 0.0
C1310 C 0.92847 0.9703 0.76381 0.0
C1311 C 0.9894 0.98633 0.77687 0.0
C1312 C 0.01872 0.00397 0.77884 0.0
C1313 C 0.02095 0.02451 0.78831 0.0
C1314 C 0.04815 0.04114 0.78952 0.0
C1315 C 0.07349 0.0374 0.78152 0.0
C1316 C 0.07173 0.01701 0.77237 0.0
C1317 C 0.04451 1.00033 0.77106 0.0
H1318 H 0.09453 0.0503 0.78246 0.0
H1319 H 0.82834 0.88773 0.76423 0.0
H1320 H 0.74622 0.30017 0.36182 0.0
H1321 H 0.6998 0.29791 0.32338 0.0
H1322 H 0.66715 0.3462 0.35417 0.0
H1323 H 0.71368 0.34843 0.39315 0.0
H1324 H 0.61184 0.31079 0.32071 0.0
H1325 H 0.71125 0.36279 0.32479 0.0
H1326 H 0.77266 0.37652 0.33329 0.0
H1327 H 0.7679 0.32813 0.28001 0.0
H1328 H 0.70654 0.31389 0.27149 0.0
H1329 H 0.51646 0.32769 0.19953 0.0
H1330 H 0.55312 0.33346 0.2425 0.0
H1331 H 0.61341 0.29443 0.22672 0.0
H1332 H 0.57762 0.28907 0.18395 0.0
H1333 H 0.65308 0.33026 0.2548 0.0
H1334 H 0.55454 0.27714 0.25204 0.0
H1335 H 0.49364 0.26234 0.24443 0.0
H1336 H 0.49641 0.31197 0.29543 0.0
H1337 H 0.55718 0.32737 0.30293 0.0
C1338 C 0.72866 0.30991 0.36072 0.0
C1339 C 0.73362 0.32448 0.38057 0.0
C1340 C 0.70226 0.30869 0.33866 0.0
C1341 C 0.68029 0.322 0.33594 0.0
C1342 C 0.6839 0.3358 0.35598 0.0
C1343 C 0.71055 0.33713 0.37813 0.0
C1344 C 0.65581 0.32262 0.31154 0.0
C1345 C 0.62066 0.31541 0.30632 0.0
C1346 C 0.66754 0.32847 0.29284 0.0
C1347 C 0.70434 0.33718 0.29764 0.0
C1348 C 0.72335 0.35498 0.31501 0.0
C1349 C 0.75814 0.36287 0.31982 0.0
C1350 C 0.77419 0.35318 0.30723 0.0
C1351 C 0.75544 0.33562 0.28976 0.0
C1352 C 0.72064 0.32764 0.28492 0.0
C1353 C 0.53766 0.32045 0.20527 0.0
C1354 C 0.54414 0.3079 0.18836 0.0
C1355 C 0.55839 0.32361 0.22982 0.0
C1356 C 0.58591 0.31428 0.23783 0.0
C1357 C 0.59232 0.30177 0.22095 0.0
C1358 C 0.57166 0.29859 0.19653 0.0
C1359 C 0.6089 0.3178 0.26361 0.0
C1360 C 0.64399 0.3259 0.26915 0.0
C1361 C 0.59696 0.31275 0.28249 0.0
C1362 C 0.56033 0.30358 0.2778 0.0
C1363 C 0.54209 0.28506 0.26142 0.0
C1364 C 0.50759 0.27653 0.25716 0.0
C1365 C 0.49115 0.28623 0.26941 0.0
C1366 C 0.50919 0.30447 0.28596 0.0
C1367 C 0.54363 0.31314 0.29017 0.0
H1368 H 0.46445 0.27961 0.26609 0.0
H1369 H 0.80113 0.35931 0.31098 0.0
H1370 H 0.31198 0.23891 0.6387 0.0
H1371 H 0.31272 0.20635 0.61751 0.0
H1372 H 0.21451 0.17616 0.61922 0.0
H1373 H 0.21316 0.20896 0.64006 0.0
H1374 H 0.26262 0.15007 0.62821 0.0
H1375 H 0.21347 0.1931 0.57022 0.0
H1376 H 0.2111 0.226 0.55251 0.0
H1377 H 0.30458 0.22707 0.54155 0.0
H1378 H 0.30781 0.19433 0.55958 0.0
H1379 H 0.22835 0.06647 0.53386 0.0
H1380 H 0.22478 0.09527 0.55976 0.0
H1381 H 0.31322 0.13538 0.55247 0.0
H1382 H 0.31599 0.10708 0.52571 0.0
H1383 H 0.26561 0.15554 0.5462 0.0
H1384 H 0.31628 0.11337 0.60498 0.0
H1385 H 0.32022 0.081 0.62361 0.0
H1386 H 0.2257 0.07839 0.63362 0.0
H1387 H 0.22096 0.11061 0.61474 0.0
C1388 C 0.29054 0.22535 0.63466 0.0
C1389 C 0.26224 0.22665 0.64072 0.0
C1390 C 0.29111 0.20672 0.62267 0.0
C1391 C 0.26346 0.18896 0.61652 0.0
C1392 C 0.23607 0.18973 0.6238 0.0
C1393 C 0.23539 0.20846 0.63575 0.0
C1394 C 0.26235 0.17027 0.60095 0.0
C1395 C 0.26276 0.15111 0.61013 0.0
C1396 C 0.26308 0.1718 0.57754 0.0
C1397 C 0.26103 0.19137 0.56645 0.0
C1398 C 0.23367 0.20044 0.56421 0.0
C1399 C 0.23215 0.21904 0.55409 0.0
C1400 C 0.25772 0.22864 0.54596 0.0
C1401 C 0.28481 0.21962 0.54788 0.0
C1402 C 0.28649 0.20104 0.55803 0.0
C1403 C 0.24695 0.08145 0.53766 0.0
C1404 C 0.2725 0.0844 0.52767 0.0
C1405 C 0.2451 0.09785 0.55272 0.0
C1406 C 0.26895 0.11746 0.55829 0.0
C1407 C 0.29458 0.12038 0.5485 0.0
C1408 C 0.29634 0.10407 0.53337 0.0
C1409 C 0.26661 0.13528 0.57355 0.0
C1410 C 0.26537 0.15435 0.56423 0.0
C1411 C 0.26526 0.13362 0.59683 0.0
C1412 C 0.26808 0.11427 0.6082 0.0
C1413 C 0.29619 0.1058 0.61097 0.0
C1414 C 0.29859 0.0875 0.62161 0.0
C1415 C 0.27317 0.07761 0.62973 0.0
C1416 C 0.24534 0.08604 0.62728 0.0
C1417 C 0.24279 0.10433 0.61663 0.0
H1418 H 0.27509 0.06344 0.63797 0.0
H1419 H 0.2565 0.24305 0.53813 0.0
H1420 H 0.3666 0.762 0.16383 0.0
H1421 H 0.41639 0.76453 0.15211 0.0
H1422 H 0.37977 0.80572 0.10079 0.0
H1423 H 0.3302 0.80328 0.11244 0.0
H1424 H 0.4155 0.75211 0.1069 0.0
H1425 H 0.44852 0.84099 0.0977 0.0
H1426 H 0.4482 0.87476 0.11757 0.0
H1427 H 0.45746 0.8483 0.1832 0.0
H1428 H 0.45836 0.81449 0.16385 0.0
H1429 H 0.50021 0.77355 0.02479 0.0
H1430 H 0.46178 0.77176 0.04726 0.0
H1431 H 0.54754 0.80191 0.11213 0.0
H1432 H 0.58592 0.80367 0.08957 0.0
H1433 H 0.4942 0.81913 0.10587 0.0
H1434 H 0.51262 0.75032 0.10579 0.0
H1435 H 0.51537 0.71648 0.08775 0.0
H1436 H 0.40816 0.7022 0.04528 0.0
H1437 H 0.40487 0.73614 0.06275 0.0
C1438 C 0.36957 0.77189 0.15037 0.0
C1439 C 0.34456 0.78243 0.13901 0.0
C1440 C 0.39783 0.7732 0.14358 0.0
C1441 C 0.40182 0.78535 0.12563 0.0
C1442 C 0.37738 0.79639 0.11482 0.0
C1443 C 0.34901 0.79492 0.12141 0.0
C1444 C 0.43041 0.78572 0.11713 0.0
C1445 C 0.43285 0.76674 0.1068 0.0
C1446 C 0.45338 0.80477 0.11736 0.0
C1447 C 0.45321 0.82514 0.12923 0.0
C1448 C 0.45065 0.84241 0.1164 0.0
C1449 C 0.45034 0.86155 0.12757 0.0
C1450 C 0.45271 0.86366 0.15161 0.0
C1451 C 0.4555 0.84663 0.16455 0.0
C1452 C 0.45585 0.82746 0.15348 0.0
C1453 C 0.51071 0.77962 0.04388 0.0
C1454 C 0.54584 0.78856 0.05562 0.0
C1455 C 0.48888 0.77858 0.0567 0.0
C1456 C 0.50187 0.78651 0.08144 0.0
C1457 C 0.53701 0.79566 0.09309 0.0
C1458 C 0.55886 0.79661 0.08028 0.0
C1459 C 0.47859 0.7856 0.09497 0.0
C1460 C 0.47708 0.80447 0.10618 0.0
C1461 C 0.45678 0.76641 0.09582 0.0
C1462 C 0.45856 0.74586 0.08547 0.0
C1463 C 0.48967 0.74004 0.09248 0.0
C1464 C 0.49133 0.72083 0.08237 0.0
C1465 C 0.46197 0.70722 0.06536 0.0
C1466 C 0.43088 0.71277 0.05846 0.0
C1467 C 0.4291 0.73199 0.06848 0.0
H1468 H 0.46331 0.69235 0.05755 0.0
H1469 H 0.45245 0.87849 0.16022 0.0
H1470 H 0.82411 0.273 0.49806 0.0
H1471 H 0.83967 0.25624 0.53484 0.0
H1472 H 0.92273 0.24104 0.51901 0.0
H1473 H 0.90829 0.25834 0.48289 0.0
H1474 H 0.86563 0.20583 0.52135 0.0
H1475 H 0.94696 0.27161 0.56394 0.0
H1476 H 0.96475 0.30941 0.57972 0.0
H1477 H 0.89855 0.29917 0.61989 0.0
H1478 H 0.87991 0.26133 0.60401 0.0
H1479 H 0.94045 0.14857 0.61053 0.0
H1480 H 0.93301 0.17551 0.58369 0.0
H1481 H 0.87771 0.20083 0.62152 0.0
H1482 H 0.88645 0.17428 0.64904 0.0
H1483 H 0.91697 0.23214 0.60919 0.0
H1484 H 0.83544 0.16793 0.56875 0.0
H1485 H 0.81484 0.12995 0.55378 0.0
H1486 H 0.87505 0.13703 0.50918 0.0
H1487 H 0.89653 0.17502 0.52423 0.0
C1488 C 0.84641 0.26675 0.50287 0.0
C1489 C 0.86461 0.26667 0.48732 0.0
C1490 C 0.85518 0.25713 0.52384 0.0
C1491 C 0.88218 0.24732 0.52947 0.0
C1492 C 0.90173 0.24849 0.51489 0.0
C1493 C 0.89328 0.25825 0.49418 0.0
C1494 C 0.88716 0.23329 0.5483 0.0
C1495 C 0.87718 0.21157 0.54056 0.0
C1496 C 0.90091 0.24086 0.5733 0.0
C1497 C 0.91165 0.26367 0.58248 0.0
C1498 C 0.9358 0.27745 0.57585 0.0
C1499 C 0.94615 0.29888 0.58489 0.0
C1500 C 0.9327 0.3067 0.60074 0.0
C1501 C 0.90889 0.2931 0.60757 0.0
C1502 C 0.89843 0.27166 0.59855 0.0
C1503 C 0.9271 0.16008 0.61322 0.0
C1504 C 0.91377 0.15938 0.6316 0.0
C1505 C 0.92271 0.17539 0.59788 0.0
C1506 C 0.90423 0.18997 0.6003 0.0
C1507 C 0.89194 0.18972 0.61926 0.0
C1508 C 0.89673 0.17454 0.63483 0.0
C1509 C 0.89631 0.20462 0.5822 0.0
C1510 C 0.90534 0.22638 0.58999 0.0
C1511 C 0.881 0.19713 0.55714 0.0
C1512 C 0.86781 0.17431 0.54777 0.0
C1513 C 0.84447 0.16137 0.55587 0.0
C1514 C 0.83262 0.13984 0.54736 0.0
C1515 C 0.84367 0.13107 0.53057 0.0
C1516 C 0.86654 0.14384 0.5222 0.0
C1517 C 0.87855 0.16538 0.53071 0.0
H1518 H 0.83447 0.11439 0.524 0.0
H1519 H 0.94082 0.32329 0.60778 0.0
H1520 H 0.1994 0.24306 0.76351 0.0
H1521 H 0.22512 0.23949 0.80633 0.0
H1522 H 0.32333 0.27397 0.80788 0.0
H1523 H 0.29792 0.27658 0.76487 0.0
H1524 H 0.33259 0.24626 0.83732 0.0
H1525 H 0.266 0.29757 0.82265 0.0
H1526 H 0.21358 0.30952 0.80449 0.0
H1527 H 0.16271 0.26711 0.84041 0.0
H1528 H 0.21453 0.25447 0.85829 0.0
H1529 H 0.41091 0.29766 0.95841 0.0
H1530 H 0.38262 0.29017 0.91437 0.0
H1531 H 0.29697 0.24715 0.92186 0.0
H1532 H 0.32519 0.25458 0.96601 0.0
H1533 H 0.27883 0.27562 0.88843 0.0
H1534 H 0.34923 0.2269 0.90586 0.0
H1535 H 0.40301 0.21642 0.92411 0.0
H1536 H 0.44889 0.25676 0.88378 0.0
H1537 H 0.39551 0.26773 0.86555 0.0
C1538 C 0.22665 0.2493 0.77292 0.0
C1539 C 0.24675 0.26011 0.76104 0.0
C1540 C 0.24128 0.24743 0.79738 0.0
C1541 C 0.276 0.25699 0.81053 0.0
C1542 C 0.29649 0.26654 0.7982 0.0
C1543 C 0.28199 0.268 0.77362 0.0
C1544 C 0.29043 0.25874 0.83733 0.0
C1545 C 0.3209 0.25279 0.84846 0.0
C1546 C 0.27499 0.26701 0.85198 0.0
C1547 C 0.24403 0.27491 0.8416 0.0
C1548 C 0.24357 0.2907 0.82657 0.0
C1549 C 0.21397 0.2976 0.81632 0.0
C1550 C 0.18485 0.28909 0.82129 0.0
C1551 C 0.18527 0.27367 0.83655 0.0
C1552 C 0.21473 0.2666 0.84671 0.0
C1553 C 0.38595 0.28673 0.95066 0.0
C1554 C 0.37022 0.27671 0.9656 0.0
C1555 C 0.36996 0.28234 0.92554 0.0
C1556 C 0.33787 0.26797 0.91491 0.0
C1557 C 0.3218 0.25822 0.92975 0.0
C1558 C 0.33797 0.26241 0.95491 0.0
C1559 C 0.32104 0.26335 0.88825 0.0
C1560 C 0.29021 0.26885 0.87722 0.0
C1561 C 0.3364 0.25497 0.87373 0.0
C1562 C 0.36844 0.24827 0.88449 0.0
C1563 C 0.37086 0.23366 0.90102 0.0
C1564 C 0.40126 0.22761 0.91134 0.0
C1565 C 0.42937 0.23596 0.90514 0.0
C1566 C 0.4271 0.25033 0.88857 0.0
C1567 C 0.39677 0.25645 0.87822 0.0
H1568 H 0.45289 0.23126 0.91315 0.0
H1569 H 0.16197 0.29447 0.81334 0.0
H1570 H 0.32378 0.80788 0.28394 0.0
H1571 H 0.3285 0.83944 0.3097 0.0
H1572 H 0.29164 0.86958 0.24676 0.0
H1573 H 0.28551 0.8377 0.22067 0.0
H1574 H 0.35037 0.89589 0.29545 0.0
H1575 H 0.2339 0.85064 0.2595 0.0
H1576 H 0.19383 0.81548 0.24892 0.0
H1577 H 0.22632 0.80713 0.32381 0.0
H1578 H 0.26712 0.84211 0.33476 0.0
H1579 H 0.29494 0.97241 0.35017 0.0
H1580 H 0.30065 0.94612 0.32218 0.0
H1581 H 0.29114 0.89973 0.36959 0.0
H1582 H 0.28391 0.92576 0.39696 0.0
H1583 H 0.25625 0.88216 0.32675 0.0
H1584 H 0.37006 0.92551 0.36465 0.0
H1585 H 0.41568 0.95847 0.37808 0.0
H1586 H 0.3946 0.96892 0.30432 0.0
H1587 H 0.34851 0.93614 0.29047 0.0
C1588 C 0.3172 0.82134 0.27555 0.0
C1589 C 0.30363 0.82013 0.25023 0.0
C1590 C 0.32018 0.8394 0.29032 0.0
C1591 C 0.31013 0.85668 0.28006 0.0
C1592 C 0.29963 0.85636 0.25494 0.0
C1593 C 0.29623 0.83815 0.24008 0.0
C1594 C 0.30581 0.87351 0.29527 0.0
C1595 C 0.32957 0.89313 0.30205 0.0
C1596 C 0.27923 0.86952 0.30438 0.0
C1597 C 0.25375 0.84888 0.29791 0.0
C1598 C 0.23265 0.84124 0.27369 0.0
C1599 C 0.20981 0.82135 0.26762 0.0
C1600 C 0.2076 0.80905 0.28567 0.0
C1601 C 0.2281 0.81667 0.30984 0.0
C1602 C 0.25107 0.83653 0.31599 0.0
C1603 C 0.29412 0.95658 0.35454 0.0
C1604 C 0.289 0.95107 0.37568 0.0
C1605 C 0.29757 0.94159 0.33863 0.0
C1606 C 0.29691 0.92096 0.3439 0.0
C1607 C 0.2917 0.91549 0.36504 0.0
C1608 C 0.28757 0.93035 0.38068 0.0
C1609 C 0.30097 0.9049 0.32726 0.0
C1610 C 0.27705 0.88524 0.32015 0.0
C1611 C 0.32786 0.90879 0.31828 0.0
C1612 C 0.35559 0.92849 0.32654 0.0
C1613 C 0.37498 0.93492 0.35131 0.0
C1614 C 0.40095 0.95355 0.35899 0.0
C1615 C 0.40797 0.96581 0.34207 0.0
C1616 C 0.38909 0.95942 0.31741 0.0
C1617 C 0.36306 0.94081 0.30963 0.0
H1618 H 0.42809 0.98023 0.34806 0.0
H1619 H 0.18995 0.79364 0.28093 0.0
H1620 H 0.93682 0.83612 0.90646 0.0
H1621 H 0.89815 0.83557 0.92848 0.0
H1622 H 0.81816 0.79132 0.87048 0.0
H1623 H 0.8567 0.79183 0.84836 0.0
H1624 H 0.79578 0.82357 0.8893 0.0
H1625 H 0.86082 0.77279 0.91721 0.0
H1626 H 0.91377 0.76113 0.93392 0.0
H1627 H 0.94666 0.80566 0.99808 0.0
H1628 H 0.8941 0.81783 0.98157 0.0
H1629 H 0.68418 0.78511 0.94925 0.0
H1630 H 0.72205 0.788 0.92637 0.0
H1631 H 0.80643 0.82278 0.9897 0.0
H1632 H 0.76873 0.81895 0.01282 0.0
H1633 H 0.82724 0.7964 0.96811 0.0
H1634 H 0.76265 0.84697 0.94159 0.0
H1635 H 0.71039 0.85944 0.92538 0.0
H1636 H 0.67769 0.81713 0.85946 0.0
H1637 H 0.72954 0.80417 0.87542 0.0
C1638 C 0.91081 0.82657 0.89823 0.0
C1639 C 0.89976 0.81396 0.87575 0.0
C1640 C 0.88884 0.82616 0.91088 0.0
C1641 C 0.85543 0.81325 0.90118 0.0
C1642 C 0.84387 0.80135 0.87827 0.0
C1643 C 0.86593 0.80158 0.86574 0.0
C1644 C 0.83308 0.81133 0.91544 0.0
C1645 C 0.80242 0.81745 0.90642 0.0
C1646 C 0.84222 0.80379 0.93802 0.0
C1647 C 0.8737 0.79638 0.94804 0.0
C1648 C 0.87947 0.78022 0.93479 0.0
C1649 C 0.9094 0.7735 0.94424 0.0
C1650 C 0.93361 0.78269 0.96702 0.0
C1651 C 0.92791 0.79858 0.98042 0.0
C1652 C 0.89805 0.80539 0.97103 0.0
C1653 C 0.71087 0.79327 0.9582 0.0
C1654 C 0.72364 0.80203 0.98261 0.0
C1655 C 0.73243 0.79507 0.94513 0.0
C1656 C 0.76699 0.80603 0.95614 0.0
C1657 C 0.77986 0.81438 0.98075 0.0
C1658 C 0.75838 0.8123 0.99391 0.0
C1659 C 0.78974 0.80869 0.94206 0.0
C1660 C 0.82054 0.80266 0.95107 0.0
C1661 C 0.78084 0.81651 0.91957 0.0
C1662 C 0.74985 0.82448 0.90979 0.0
C1663 C 0.74422 0.84024 0.92369 0.0
C1664 C 0.71468 0.8474 0.91455 0.0
C1665 C 0.6907 0.83905 0.89143 0.0
C1666 C 0.69627 0.82357 0.87738 0.0
C1667 C 0.72575 0.81632 0.88646 0.0
H1668 H 0.66784 0.8446 0.88438 0.0
H1669 H 0.95676 0.77745 0.9743 0.0
loop_
_geom_bond_atom_site_label_1
_geom_bond_atom_site_label_2
_geom_bond_distance
_geom_bond_site_symmetry_2
_ccdc_geom_bond_type
H0 C1 0.949 . S
C1 H0 0.949 . S
C1 C2 1.395 . S
C1 C3 1.391 . S
C2 C1 1.395 . S
C2 C5 1.390 . S
C3 C1 1.391 . S
C3 C7 1.387 . S
C3 C8 1.491 . S
H4 C5 0.950 . S
C5 C2 1.390 . S
C5 H4 0.950 . S
C5 C6 1.378 . S
C6 C5 1.378 . S
C6 C7 1.409 . S
C7 C3 1.387 . S
C7 C6 1.409 . S
C7 H9 0.951 . S
C8 C3 1.491 . S
C8 C10 1.382 . S
C8 C12 1.404 . S
H9 C7 0.951 . S
C10 C8 1.382 . S
C10 C11 1.390 . S
C10 H15 0.949 . S
C11 C10 1.390 . S
C11 C16 1.399 . S
C12 C8 1.404 . S
C12 H13 0.950 . S
C12 C14 1.375 . S
H13 C12 0.950 . S
C14 C12 1.375 . S
C14 C16 1.382 . S
C14 H18 0.950 . S
H15 C10 0.949 . S
C16 C11 1.399 . S
C16 C14 1.382 . S
C16 H17 0.952 . S
H17 C16 0.952 . S
H18 C14 0.950 . S
H19 C20 0.949 . S
C20 H19 0.949 . S
C20 C21 1.395 . S
C20 C22 1.391 . S
C21 C20 1.395 . S
C21 C24 1.390 . S
C22 C20 1.391 . S
C22 C26 1.387 . S
C22 C27 1.491 . S
H23 C24 0.950 . S
C24 C21 1.390 . S
C24 H23 0.950 . S
C24 C25 1.378 . S
C25 C24 1.378 . S
C25 C26 1.409 . S
C26 C22 1.387 . S
C26 C25 1.409 . S
C26 H28 0.951 . S
C27 C22 1.491 . S
C27 C29 1.382 . S
C27 C31 1.404 . S
H28 C26 0.951 . S
C29 C27 1.382 . S
C29 C30 1.390 . S
C29 H34 0.949 . S
C30 C29 1.390 . S
C30 C35 1.399 . S
C31 C27 1.404 . S
C31 H32 0.950 . S
C31 C33 1.375 . S
H32 C31 0.950 . S
C33 C31 1.375 . S
C33 C35 1.382 . S
C33 H37 0.950 . S
H34 C29 0.949 . S
C35 C30 1.399 . S
C35 C33 1.382 . S
C35 H36 0.952 . S
H36 C35 0.952 . S
H37 C33 0.950 . S
H38 C39 0.949 . S
C39 H38 0.949 . S
C39 C40 1.395 . S
C39 C41 1.391 . S
C40 C39 1.395 . S
C40 C43 1.390 . S
C41 C39 1.391 . S
C41 C45 1.387 . S
C41 C46 1.491 . S
H42 C43 0.950 . S
C43 C40 1.390 . S
C43 H42 0.950 . S
C43 C44 1.378 . S
C44 C43 1.378 . S
C44 C45 1.409 . S
C45 C41 1.387 . S
C45 C44 1.409 . S
C45 H47 0.951 . S
C46 C41 1.491 . S
C46 C48 1.382 . S
C46 C50 1.404 . S
H47 C45 0.951 . S
C48 C46 1.382 . S
C48 C49 1.390 . S
C48 H53 0.949 . S
C49 C48 1.390 . S
C49 C54 1.399 . S
C50 C46 1.404 . S
C50 H51 0.950 . S
C50 C52 1.375 . S
H51 C50 0.950 . S
C52 C50 1.375 . S
C52 C54 1.382 . S
C52 H56 0.950 . S
H53 C48 0.949 . S
C54 C49 1.399 . S
C54 C52 1.382 . S
C54 H55 0.952 . S
H55 C54 0.952 . S
H56 C52 0.950 . S
H57 C58 0.949 . S
C58 H57 0.949 . S
C58 C59 1.395 . S
C58 C60 1.391 . S
C59 C58 1.395 . S
C59 C62 1.390 . S
C60 C58 1.391 . S
C60 C64 1.387 . S
C60 C65 1.491 . S
H61 C62 0.950 . S
C62 C59 1.390 . S
C62 H61 0.950 . S
C62 C63 1.378 . S
C63 C62 1.378 . S
C63 C64 1.409 . S
C64 C60 1.387 . S
C64 C63 1.409 . S
C64 H66 0.951 . S
C65 C60 1.491 . S
C65 C67 1.382 . S
C65 C69 1.404 . S
H66 C64 0.951 . S
C67 C65 1.382 . S
C67 C68 1.390 . S
C67 H72 0.949 . S
C68 C67 1.390 . S
C68 C73 1.399 . S
C69 C65 1.404 . S
C69 H70 0.950 . S
C69 C71 1.375 . S
H70 C69 0.950 . S
C71 C69 1.375 . S
C71 C73 1.382 . S
C71 H75 0.950 . S
H72 C67 0.949 . S
C73 C68 1.399 . S
C73 C71 1.382 . S
C73 H74 0.952 . S
H74 C73 0.952 . S
H75 C71 0.950 . S
H76 C77 0.949 . S
C77 H76 0.949 . S
C77 C78 1.395 . S
C77 C79 1.391 . S
C78 C77 1.395 . S
C78 C81 1.390 . S
C79 C77 1.391 . S
C79 C83 1.387 . S
C79 C84 1.491 . S
H80 C81 0.950 . S
C81 C78 1.390 . S
C81 H80 0.950 . S
C81 C82 1.378 . S
C82 C81 1.378 . S
C82 C83 1.409 . S
C83 C79 1.387 . S
C83 C82 1.409 . S
C83 H85 0.951 . S
C84 C79 1.491 . S
C84 C86 1.382 . S
C84 C88 1.404 . S
H85 C83 0.951 . S
C86 C84 1.382 . S
C86 C87 1.390 . S
C86 H91 0.949 . S
C87 C86 1.390 . S
C87 C92 1.399 1_655 S
C88 C84 1.404 . S
C88 H89 0.950 . S
C88 C90 1.380 . S
H89 C88 0.950 . S
C90 C88 1.380 . S
C90 C92 1.371 1_655 S
C90 H94 0.957 1_655 S
H91 C86 0.949 . S
C92 C87 1.399 1_455 S
C92 C90 1.371 1_455 S
C92 H93 0.952 . S
H93 C92 0.952 . S
H94 C90 0.957 1_455 S
H95 C96 0.949 . S
C96 H95 0.949 . S
C96 C97 1.395 . S
C96 C98 1.391 . S
C97 C96 1.395 . S
C97 C100 1.390 . S
C98 C96 1.391 . S
C98 C102 1.387 . S
C98 C103 1.491 . S
H99 C100 0.950 . S
C100 C97 1.390 . S
C100 H99 0.950 . S
C100 C101 1.378 . S
C101 C100 1.378 . S
C101 C102 1.409 . S
C102 C98 1.387 . S
C102 C101 1.409 . S
C102 H104 0.951 . S
C103 C98 1.491 . S
C103 C105 1.382 . S
C103 C107 1.404 . S
H104 C102 0.951 . S
C105 C103 1.382 . S
C105 C106 1.390 . S
C105 H110 0.949 . S
C106 C105 1.390 . S
C106 C111 1.399 . S
C107 C103 1.404 . S
C107 H108 0.950 . S
C107 C109 1.375 . S
H108 C107 0.950 . S
C109 C107 1.375 . S
C109 C111 1.382 . S
C109 H113 0.950 . S
H110 C105 0.949 . S
C111 C106 1.399 . S
C111 C109 1.382 . S
C111 H112 0.952 . S
H112 C111 0.952 . S
H113 C109 0.950 . S
H114 C115 0.949 . S
C115 H114 0.949 . S
C115 C116 1.395 . S
C115 C117 1.391 . S
C116 C115 1.395 . S
C116 C119 1.390 . S
C117 C115 1.391 . S
C117 C121 1.387 . S
C117 C122 1.491 . S
H118 C119 0.950 . S
C119 C116 1.390 . S
C119 H118 0.950 . S
C119 C120 1.378 . S
C120 C119 1.378 . S
C120 C121 1.409 . S
C121 C117 1.387 . S
C121 C120 1.409 . S
C121 H123 0.951 . S
C122 C117 1.491 . S
C122 C124 1.382 . S
C122 C126 1.404 . S
H123 C121 0.951 . S
C124 C122 1.382 . S
C124 C125 1.390 . S
C124 H129 0.949 . S
C125 C124 1.390 . S
C125 C130 1.399 . S
C126 C122 1.404 . S
C126 H127 0.950 . S
C126 C128 1.375 . S
H127 C126 0.950 . S
C128 C126 1.375 . S
C128 C130 1.382 . S
C128 H132 0.950 . S
H129 C124 0.949 . S
C130 C125 1.399 . S
C130 C128 1.382 . S
C130 H131 0.952 . S
H131 C130 0.952 . S
H132 C128 0.950 . S
H133 C134 0.949 . S
C134 H133 0.949 . S
C134 C135 1.395 . S
C134 C136 1.391 . S
C135 C134 1.395 . S
C135 C138 1.390 . S
C136 C134 1.391 . S
C136 C140 1.387 . S
C136 C141 1.491 . S
H137 C138 0.950 . S
C138 C135 1.390 . S
C138 H137 0.950 . S
C138 C139 1.378 . S
C139 C138 1.378 . S
C139 C140 1.409 . S
C140 C136 1.387 . S
C140 C139 1.409 . S
C140 H142 0.951 . S
C141 C136 1.491 . S
C141 C143 1.382 . S
C141 C145 1.404 . S
H142 C140 0.951 . S
C143 C141 1.382 . S
C143 C144 1.390 . S
C143 H148 0.949 . S
C144 C143 1.390 . S
C144 C149 1.399 . S
C145 C141 1.404 . S
C145 H146 0.950 . S
C145 C147 1.375 . S
H146 C145 0.950 . S
C147 C145 1.375 . S
C147 C149 1.382 . S
C147 H151 0.950 . S
H148 C143 0.949 . S
C149 C144 1.399 . S
C149 C147 1.382 . S
C149 H150 0.952 . S
H150 C149 0.952 . S
H151 C147 0.950 . S
C152 C153 1.443 . S
C152 N156 1.376 . S
C152 C190 1.389 . S
C153 C152 1.443 . S
C153 C154 1.340 . S
C153 H193 0.951 . S
C154 C153 1.340 . S
C154 C155 1.439 . S
C154 H194 0.950 . S
C155 C154 1.439 . S
C155 N156 1.374 . S
C155 C189 1.395 . S
N156 C152 1.376 . S
N156 C155 1.374 . S
N156 Co157 2.008 . S
Co157 N156 2.008 . S
Co157 N158 1.995 . S
Co157 N163 2.008 1_455 S
Co157 N168 1.995 . S
Co157 N173 2.282 . S
Co157 N179 2.282 . S
N158 Co157 1.995 . S
N158 C159 1.376 . S
N158 C162 1.383 . S
C159 N158 1.376 . S
C159 C160 1.446 . S
C159 C189 1.391 . S
C160 C159 1.446 . S
C160 C161 1.339 . S
C160 H195 0.949 . S
C161 C160 1.339 . S
C161 C162 1.439 . S
C161 H196 0.950 . S
C162 N158 1.383 . S
C162 C161 1.439 . S
C162 C191 1.392 1_455 S
N163 Co157 2.008 1_655 S
N163 C164 1.376 . S
N163 C167 1.374 . S
C164 N163 1.376 . S
C164 C165 1.443 . S
C164 C191 1.389 . S
C165 C164 1.443 . S
C165 C166 1.340 . S
C165 H197 0.951 . S
C166 C165 1.340 . S
C166 C167 1.439 . S
C166 H198 0.950 . S
C167 N163 1.374 . S
C167 C166 1.439 . S
C167 C192 1.395 . S
N168 Co157 1.995 . S
N168 C169 1.376 1_455 S
N168 C172 1.383 . S
C169 N168 1.376 1_655 S
C169 C170 1.446 . S
C169 C192 1.391 . S
C170 C169 1.446 . S
C170 C171 1.339 1_655 S
C170 H199 0.949 . S
C171 C170 1.339 1_455 S
C171 C172 1.439 . S
C171 H200 0.950 . S
C172 N168 1.383 . S
C172 C171 1.439 . S
C172 C190 1.392 . S
N173 Co157 2.282 . S
N173 C176 1.332 . S
N173 C178 1.332 . S
C174 C175 1.386 . S
C174 C177 1.388 . S
C175 C174 1.386 . S
C175 C176 1.382 . S
C175 H201 0.950 . S
C176 N173 1.332 . S
C176 C175 1.382 . S
C176 H187 0.952 . S
C177 C174 1.388 . S
C177 C178 1.382 . S
C177 H202 0.950 . S
C178 N173 1.332 . S
C178 C177 1.382 . S
C178 H188 0.948 . S
N179 Co157 2.282 . S
N179 C183 1.332 . S
N179 C184 1.332 1_455 S
C180 C181 1.388 . S
C180 C184 1.382 . S
C180 H203 0.950 . S
C181 C180 1.388 . S
C181 C182 1.386 1_655 S
C182 C181 1.386 1_455 S
C182 C183 1.382 . S
C182 H204 0.950 . S
C183 N179 1.332 . S
C183 C182 1.382 . S
C183 H185 0.952 . S
C184 N179 1.332 1_655 S
C184 C180 1.382 . S
C184 H186 0.948 . S
H185 C183 0.952 . S
H186 C184 0.948 . S
H187 C176 0.952 . S
H188 C178 0.948 . S
C189 C155 1.395 . S
C189 C159 1.391 . S
C190 C152 1.389 . S
C190 C172 1.392 . S
C191 C162 1.392 1_655 S
C191 C164 1.389 . S
C192 C167 1.395 . S
C192 C169 1.391 . S
H193 C153 0.951 . S
H194 C154 0.950 . S
H195 C160 0.949 . S
H196 C161 0.950 . S
H197 C165 0.951 . S
H198 C166 0.950 . S
H199 C170 0.949 . S
H200 C171 0.950 . S
H201 C175 0.950 . S
H202 C177 0.950 . S
H203 C180 0.950 . S
H204 C182 0.950 . S
C205 C206 1.443 . S
C205 N209 1.376 . S
C205 C243 1.389 . S
C206 C205 1.443 . S
C206 C207 1.340 . S
C206 H246 0.951 . S
C207 C206 1.340 . S
C207 C208 1.439 . S
C207 H247 0.950 . S
C208 C207 1.439 . S
C208 N209 1.374 . S
C208 C242 1.395 . S
N209 C205 1.376 . S
N209 C208 1.374 . S
N209 Co210 2.008 . S
Co210 N209 2.008 . S
Co210 N211 1.995 . S
Co210 N216 1.987 1_455 S
Co210 N221 1.995 . S
Co210 N226 2.282 . S
Co210 N232 2.282 . S
N211 Co210 1.995 . S
N211 C212 1.376 . S
N211 C215 1.383 . S
C212 N211 1.376 . S
C212 C213 1.446 . S
C212 C242 1.391 . S
C213 C212 1.446 . S
C213 C214 1.339 . S
C213 H248 0.949 . S
C214 C213 1.339 . S
C214 C215 1.439 . S
C214 H249 0.950 . S
C215 N211 1.383 . S
C215 C214 1.439 . S
C215 C244 1.392 . S
N216 Co210 1.987 1_655 S
N216 C217 1.390 . S
N216 C220 1.383 . S
C217 N216 1.390 . S
C217 C218 1.443 . S
C217 C244 1.389 1_655 S
C218 C217 1.443 . S
C218 C219 1.340 . S
C218 H250 0.951 . S
C219 C218 1.340 . S
C219 C220 1.439 . S
C219 H251 0.950 . S
C220 N216 1.383 . S
C220 C219 1.439 . S
C220 C245 1.395 . S
N221 Co210 1.995 . S
N221 C222 1.376 . S
N221 C225 1.383 . S
C222 N221 1.376 . S
C222 C223 1.446 . S
C222 C245 1.391 1_455 S
C223 C222 1.446 . S
C223 C224 1.339 . S
C223 H252 0.949 1_455 S
C224 C223 1.339 . S
C224 C225 1.439 . S
C224 H253 0.950 . S
C225 N221 1.383 . S
C225 C224 1.439 . S
C225 C243 1.392 . S
N226 Co210 2.282 . S
N226 C229 1.332 . S
N226 C231 1.332 . S
C227 C228 1.386 . S
C227 C230 1.388 . S
C228 C227 1.386 . S
C228 C229 1.382 . S
C228 H254 0.950 . S
C229 N226 1.332 . S
C229 C228 1.382 . S
C229 H240 0.952 . S
C230 C227 1.388 . S
C230 C231 1.382 . S
C230 H255 0.950 . S
C231 N226 1.332 . S
C231 C230 1.382 . S
C231 H241 0.948 . S
N232 Co210 2.282 . S
N232 C236 1.332 . S
N232 C237 1.332 . S
C233 C234 1.388 . S
C233 C237 1.382 . S
C233 H256 0.950 1_455 S
C234 C233 1.388 . S
C234 C235 1.386 . S
C235 C234 1.386 . S
C235 C236 1.382 . S
C235 H257 0.950 . S
C236 N232 1.332 . S
C236 C235 1.382 . S
C236 H238 0.952 . S
C237 N232 1.332 . S
C237 C233 1.382 . S
C237 H239 0.948 1_455 S
H238 C236 0.952 . S
H239 C237 0.948 1_655 S
H240 C229 0.952 . S
H241 C231 0.948 . S
C242 C208 1.395 . S
C242 C212 1.391 . S
C243 C205 1.389 . S
C243 C225 1.392 . S
C244 C215 1.392 . S
C244 C217 1.389 1_455 S
C245 C220 1.395 . S
C245 C222 1.391 1_655 S
H246 C206 0.951 . S
H247 C207 0.950 . S
H248 C213 0.949 . S
H249 C214 0.950 . S
H250 C218 0.951 . S
H251 C219 0.950 . S
H252 C223 0.949 1_655 S
H253 C224 0.950 . S
H254 C228 0.950 . S
H255 C230 0.950 . S
H256 C233 0.950 1_655 S
H257 C235 0.950 . S
C258 C259 1.443 . S
C258 N262 1.376 1_565 S
C258 C296 1.389 . S
C259 C258 1.443 . S
C259 C260 1.340 1_565 S
C259 H299 0.951 . S
C260 C259 1.340 1_545 S
C260 C261 1.439 . S
C260 H300 0.950 . S
C261 C260 1.439 . S
C261 N262 1.374 . S
C261 C295 1.395 . S
N262 C258 1.376 1_545 S
N262 C261 1.374 . S
N262 Co263 2.008 . S
Co263 N262 2.008 . S
Co263 N264 1.995 . S
Co263 N269 2.008 . S
Co263 N274 1.995 1_545 S
Co263 N279 2.282 . S
Co263 N285 2.282 1_545 S
N264 Co263 1.995 . S
N264 C265 1.376 . S
N264 C268 1.383 . S
C265 N264 1.376 . S
C265 C266 1.446 . S
C265 C295 1.391 . S
C266 C265 1.446 . S
C266 C267 1.339 . S
C266 H301 0.949 . S
C267 C266 1.339 . S
C267 C268 1.439 . S
C267 H302 0.950 . S
C268 N264 1.383 . S
C268 C267 1.439 . S
C268 C297 1.392 . S
N269 Co263 2.008 . S
N269 C270 1.376 . S
N269 C273 1.374 . S
C270 N269 1.376 . S
C270 C271 1.443 . S
C270 C297 1.389 . S
C271 C270 1.443 . S
C271 C272 1.340 . S
C271 H303 0.951 . S
C272 C271 1.340 . S
C272 C273 1.439 . S
C272 H304 0.950 . S
C273 N269 1.374 . S
C273 C272 1.439 . S
C273 C298 1.395 1_545 S
N274 Co263 1.995 1_565 S
N274 C275 1.376 . S
N274 C278 1.383 . S
C275 N274 1.376 . S
C275 C276 1.446 . S
C275 C298 1.391 . S
C276 C275 1.446 . S
C276 C277 1.339 . S
C276 H305 0.949 . S
C277 C276 1.339 . S
C277 C278 1.439 . S
C277 H306 0.950 . S
C278 N274 1.383 . S
C278 C277 1.439 . S
C278 C296 1.392 . S
N279 Co263 2.282 . S
N279 C282 1.332 . S
N279 C284 1.332 . S
C280 C281 1.386 . S
C280 C283 1.388 . S
C281 C280 1.386 . S
C281 C282 1.382 . S
C281 H307 0.950 . S
C282 N279 1.332 . S
C282 C281 1.382 . S
C282 H293 0.952 . S
C283 C280 1.388 . S
C283 C284 1.382 . S
C283 H308 0.950 . S
C284 N279 1.332 . S
C284 C283 1.382 . S
C284 H294 0.948 . S
N285 Co263 2.282 1_565 S
N285 C289 1.332 . S
N285 C290 1.332 . S
C286 C287 1.388 . S
C286 C290 1.382 . S
C286 H309 0.950 . S
C287 C286 1.388 . S
C287 C288 1.386 . S
C288 C287 1.386 . S
C288 C289 1.382 . S
C288 H310 0.950 . S
C289 N285 1.332 . S
C289 C288 1.382 . S
C289 H291 0.952 1_565 S
C290 N285 1.332 . S
C290 C286 1.382 . S
C290 H292 0.948 . S
H291 C289 0.952 1_545 S
H292 C290 0.948 . S
H293 C282 0.952 . S
H294 C284 0.948 . S
C295 C261 1.395 . S
C295 C265 1.391 . S
C296 C258 1.389 . S
C296 C278 1.392 . S
C297 C268 1.392 . S
C297 C270 1.389 . S
C298 C273 1.395 1_565 S
C298 C275 1.391 . S
H299 C259 0.951 . S
H300 C260 0.950 . S
H301 C266 0.949 . S
H302 C267 0.950 . S
H303 C271 0.951 . S
H304 C272 0.950 . S
H305 C276 0.949 . S
H306 C277 0.950 . S
H307 C281 0.950 . S
H308 C283 0.950 . S
H309 C286 0.950 . S
H310 C288 0.950 . S
C311 C312 1.443 . S
C311 N315 1.376 . S
C311 C349 1.389 . S
C312 C311 1.443 . S
C312 C313 1.340 . S
C312 H352 0.951 . S
C313 C312 1.340 . S
C313 C314 1.439 . S
C313 H353 0.950 . S
C314 C313 1.439 . S
C314 N315 1.374 . S
C314 C348 1.395 . S
N315 C311 1.376 . S
N315 C314 1.374 . S
N315 Co316 2.008 . S
Co316 N315 2.008 . S
Co316 N317 1.995 . S
Co316 N322 2.017 . S
Co316 N327 1.995 . S
Co316 N332 2.282 1_554 S
Co316 N338 2.282 . S
N317 Co316 1.995 . S
N317 C318 1.376 . S
N317 C321 1.383 1_554 S
C318 N317 1.376 . S
C318 C319 1.446 1_554 S
C318 C348 1.391 . S
C319 C318 1.446 1_556 S
C319 C320 1.339 . S
C319 H354 0.949 . S
C320 C319 1.339 . S
C320 C321 1.439 . S
C320 H355 0.950 . S
C321 N317 1.383 1_556 S
C321 C320 1.439 . S
C321 C350 1.392 . S
N322 Co316 2.017 . S
N322 C323 1.362 1_554 S
N322 C326 1.375 1_554 S
C323 N322 1.362 1_556 S
C323 C324 1.443 . S
C323 C350 1.389 . S
C324 C323 1.443 . S
C324 C325 1.340 . S
C324 H356 0.951 . S
C325 C324 1.340 . S
C325 C326 1.439 . S
C325 H357 0.950 . S
C326 N322 1.375 1_556 S
C326 C325 1.439 . S
C326 C351 1.395 1_556 S
N327 Co316 1.995 . S
N327 C328 1.376 . S
N327 C331 1.383 . S
C328 N327 1.376 . S
C328 C329 1.446 . S
C328 C351 1.391 . S
C329 C328 1.446 . S
C329 C330 1.339 . S
C329 H358 0.949 . S
C330 C329 1.339 . S
C330 C331 1.439 . S
C330 H359 0.950 . S
C331 N327 1.383 . S
C331 C330 1.439 . S
C331 C349 1.392 . S
N332 Co316 2.282 1_556 S
N332 C335 1.332 . S
N332 C337 1.332 . S
C333 C334 1.386 . S
C333 C336 1.388 . S
C334 C333 1.386 . S
C334 C335 1.382 . S
C334 H360 0.950 . S
C335 N332 1.332 . S
C335 C334 1.382 . S
C335 H346 0.952 . S
C336 C333 1.388 . S
C336 C337 1.382 . S
C336 H361 0.950 . S
C337 N332 1.332 . S
C337 C336 1.382 . S
C337 H347 0.948 . S
N338 Co316 2.282 . S
N338 C342 1.332 . S
N338 C343 1.332 . S
C339 C340 1.388 . S
C339 C343 1.382 . S
C339 H362 0.950 . S
C340 C339 1.388 . S
C340 C341 1.386 . S
C341 C340 1.386 . S
C341 C342 1.382 . S
C341 H363 0.950 . S
C342 N338 1.332 . S
C342 C341 1.382 . S
C342 H344 0.952 . S
C343 N338 1.332 . S
C343 C339 1.382 . S
C343 H345 0.948 . S
H344 C342 0.952 . S
H345 C343 0.948 . S
H346 C335 0.952 . S
H347 C337 0.948 . S
C348 C314 1.395 . S
C348 C318 1.391 . S
C349 C311 1.389 . S
C349 C331 1.392 . S
C350 C321 1.392 . S
C350 C323 1.389 . S
C351 C326 1.395 1_554 S
C351 C328 1.391 . S
H352 C312 0.951 . S
H353 C313 0.950 . S
H354 C319 0.949 . S
H355 C320 0.950 . S
H356 C324 0.951 . S
H357 C325 0.950 . S
H358 C329 0.949 . S
H359 C330 0.950 . S
H360 C334 0.950 . S
H361 C336 0.950 . S
H362 C339 0.950 . S
H363 C341 0.950 . S
C364 C365 1.443 . S
C364 N368 1.376 . S
C364 C402 1.389 . S
C365 C364 1.443 . S
C365 C366 1.340 . S
C365 H405 0.951 . S
C366 C365 1.340 . S
C366 C367 1.439 . S
C366 H406 0.950 . S
C367 C366 1.439 . S
C367 N368 1.374 . S
C367 C401 1.395 . S
N368 C364 1.376 . S
N368 C367 1.374 . S
N368 Co369 2.008 1_455 S
Co369 N368 2.008 1_655 S
Co369 N370 1.995 1_655 S
Co369 N375 2.008 . S
Co369 N380 1.995 . S
Co369 N385 2.267 . S
Co369 N391 2.270 1_655 S
N370 Co369 1.995 1_455 S
N370 C371 1.376 . S
N370 C374 1.383 . S
C371 N370 1.376 . S
C371 C372 1.446 . S
C371 C401 1.391 . S
C372 C371 1.446 . S
C372 C373 1.339 . S
C372 H407 0.949 . S
C373 C372 1.339 . S
C373 C374 1.439 . S
C373 H408 0.950 . S
C374 N370 1.383 . S
C374 C373 1.439 . S
C374 C403 1.392 1_455 S
N375 Co369 2.008 . S
N375 C376 1.376 . S
N375 C379 1.374 . S
C376 N375 1.376 . S
C376 C377 1.443 . S
C376 C403 1.389 . S
C377 C376 1.443 . S
C377 C378 1.340 . S
C377 H409 0.951 . S
C378 C377 1.340 . S
C378 C379 1.439 . S
C378 H410 0.950 . S
C379 N375 1.374 . S
C379 C378 1.439 . S
C379 C404 1.395 . S
N380 Co369 1.995 . S
N380 C381 1.376 . S
N380 C384 1.383 . S
C381 N380 1.376 . S
C381 C382 1.446 . S
C381 C404 1.391 . S
C382 C381 1.446 . S
C382 C383 1.339 . S
C382 H411 0.949 . S
C383 C382 1.339 . S
C383 C384 1.439 . S
C383 H412 0.950 . S
C384 N380 1.383 . S
C384 C383 1.439 . S
C384 C402 1.392 1_655 S
N385 Co369 2.267 . S
N385 C388 1.368 . S
N385 C390 1.317 1_655 S
C386 C387 1.386 . S
C386 C389 1.388 1_655 S
C387 C386 1.386 . S
C387 C388 1.382 . S
C387 H413 0.950 . S
C388 N385 1.368 . S
C388 C387 1.382 . S
C388 H399 0.952 . S
C389 C386 1.388 1_455 S
C389 C390 1.382 . S
C389 H414 0.950 . S
C390 N385 1.317 1_455 S
C390 C389 1.382 . S
C390 H400 0.948 . S
N391 Co369 2.270 1_455 S
N391 C395 1.360 . S
N391 C396 1.320 1_455 S
C392 C393 1.388 1_655 S
C392 C396 1.382 . S
C392 H415 0.950 . S
C393 C392 1.388 1_455 S
C393 C394 1.386 . S
C394 C393 1.386 . S
C394 C395 1.382 . S
C394 H416 0.950 . S
C395 N391 1.360 . S
C395 C394 1.382 . S
C395 H397 0.952 . S
C396 N391 1.320 1_655 S
C396 C392 1.382 . S
C396 H398 0.948 . S
H397 C395 0.952 . S
H398 C396 0.948 . S
H399 C388 0.952 . S
H400 C390 0.948 . S
C401 C367 1.395 . S
C401 C371 1.391 . S
C402 C364 1.389 . S
C402 C384 1.392 1_455 S
C403 C374 1.392 1_655 S
C403 C376 1.389 . S
C404 C379 1.395 . S
C404 C381 1.391 . S
H405 C365 0.951 . S
H406 C366 0.950 . S
H407 C372 0.949 . S
H408 C373 0.950 . S
H409 C377 0.951 . S
H410 C378 0.950 . S
H411 C382 0.949 . S
H412 C383 0.950 . S
H413 C387 0.950 . S
H414 C389 0.950 . S
H415 C392 0.950 . S
H416 C394 0.950 . S
C417 C418 1.443 . S
C417 N421 1.376 . S
C417 C455 1.389 . S
C418 C417 1.443 . S
C418 C419 1.340 . S
C418 H458 0.951 . S
C419 C418 1.340 . S
C419 C420 1.439 . S
C419 H459 0.950 . S
C420 C419 1.439 . S
C420 N421 1.374 . S
C420 C454 1.395 . S
N421 C417 1.376 . S
N421 C420 1.374 . S
N421 Co422 2.008 . S
Co422 N421 2.008 . S
Co422 N423 1.995 . S
Co422 N428 2.008 . S
Co422 N433 1.995 . S
Co422 N438 2.282 . S
Co422 N444 2.282 . S
N423 Co422 1.995 . S
N423 C424 1.376 . S
N423 C427 1.383 . S
C424 N423 1.376 . S
C424 C425 1.446 . S
C424 C454 1.391 . S
C425 C424 1.446 . S
C425 C426 1.339 . S
C425 H460 0.949 . S
C426 C425 1.339 . S
C426 C427 1.439 . S
C426 H461 0.950 . S
C427 N423 1.383 . S
C427 C426 1.439 . S
C427 C456 1.392 . S
N428 Co422 2.008 . S
N428 C429 1.376 . S
N428 C432 1.374 . S
C429 N428 1.376 . S
C429 C430 1.443 . S
C429 C456 1.389 . S
C430 C429 1.443 . S
C430 C431 1.340 . S
C430 H462 0.951 . S
C431 C430 1.340 . S
C431 C432 1.439 . S
C431 H463 0.950 . S
C432 N428 1.374 . S
C432 C431 1.439 . S
C432 C457 1.395 . S
N433 Co422 1.995 . S
N433 C434 1.376 . S
N433 C437 1.383 . S
C434 N433 1.376 . S
C434 C435 1.446 . S
C434 C457 1.391 . S
C435 C434 1.446 . S
C435 C436 1.339 . S
C435 H464 0.949 . S
C436 C435 1.339 . S
C436 C437 1.439 . S
C436 H465 0.950 . S
C437 N433 1.383 . S
C437 C436 1.439 . S
C437 C455 1.392 . S
N438 Co422 2.282 . S
N438 C441 1.332 . S
N438 C443 1.332 . S
C439 C440 1.386 . S
C439 C442 1.388 . S
C440 C439 1.386 . S
C440 C441 1.382 . S
C440 H466 0.950 . S
C441 N438 1.332 . S
C441 C440 1.382 . S
C441 H452 0.952 . S
C442 C439 1.388 . S
C442 C443 1.382 . S
C442 H467 0.950 . S
C443 N438 1.332 . S
C443 C442 1.382 . S
C443 H453 0.948 . S
N444 Co422 2.282 . S
N444 C448 1.332 . S
N444 C449 1.332 . S
C445 C446 1.388 . S
C445 C449 1.382 . S
C445 H468 0.950 . S
C446 C445 1.388 . S
C446 C447 1.386 . S
C447 C446 1.386 . S
C447 C448 1.382 . S
C447 H469 0.950 . S
C448 N444 1.332 . S
C448 C447 1.382 . S
C448 H450 0.952 . S
C449 N444 1.332 . S
C449 C445 1.382 . S
C449 H451 0.948 . S
H450 C448 0.952 . S
H451 C449 0.948 . S
H452 C441 0.952 . S
H453 C443 0.948 . S
C454 C420 1.395 . S
C454 C424 1.391 . S
C455 C417 1.389 . S
C455 C437 1.392 . S
C456 C427 1.392 . S
C456 C429 1.389 . S
C457 C432 1.395 . S
C457 C434 1.391 . S
H458 C418 0.951 . S
H459 C419 0.950 . S
H460 C425 0.949 . S
H461 C426 0.950 . S
H462 C430 0.951 . S
H463 C431 0.950 . S
H464 C435 0.949 . S
H465 C436 0.950 . S
H466 C440 0.950 . S
H467 C442 0.950 . S
H468 C445 0.950 . S
H469 C447 0.950 . S
H470 C488 0.951 . S
H471 C490 0.951 . S
H472 C492 0.950 . S
H473 C493 0.950 . S
H474 C495 0.950 . S
H475 C498 0.950 . S
H476 C499 0.950 . S
H477 C501 0.950 . S
H478 C502 0.950 . S
H479 C503 0.951 . S
H480 C505 0.951 . S
H481 C507 0.950 . S
H482 C508 0.950 . S
H483 C510 0.950 . S
H484 C513 0.950 . S
H485 C514 0.950 . S
H486 C516 0.950 . S
H487 C517 0.950 . S
C488 H470 0.951 . S
C488 C489 1.366 . S
C488 C490 1.388 . S
C489 C488 1.366 . S
C489 C493 1.385 . S
C490 H471 0.951 . S
C490 C488 1.388 . S
C490 C491 1.366 . S
C491 C490 1.366 . S
C491 C492 1.414 . S
C491 C494 1.499 . S
C492 H472 0.950 . S
C492 C491 1.414 . S
C492 C493 1.374 . S
C493 H473 0.950 . S
C493 C489 1.385 . S
C493 C492 1.374 . S
C494 C491 1.499 . S
C494 C495 1.373 . S
C494 C496 1.389 . S
C495 H474 0.950 . S
C495 C494 1.373 . S
C495 C511 1.377 . S
C496 C494 1.389 . S
C496 C497 1.524 . S
C496 C510 1.377 . S
C497 C496 1.524 . S
C497 C498 1.397 . S
C497 C502 1.363 . S
C498 H475 0.950 . S
C498 C497 1.397 . S
C498 C499 1.334 . S
C499 H476 0.950 . S
C499 C498 1.334 . S
C499 C500 1.287 . S
C500 C499 1.287 . S
C500 C501 1.524 . S
C500 H519 0.913 . S
C501 H477 0.950 . S
C501 C500 1.524 . S
C501 C502 1.415 . S
C502 H478 0.950 . S
C502 C497 1.363 . S
C502 C501 1.415 . S
C503 H479 0.951 . S
C503 C504 1.366 . S
C503 C505 1.388 . S
C504 C503 1.366 . S
C504 C508 1.385 . S
C505 H480 0.951 . S
C505 C503 1.388 . S
C505 C506 1.366 . S
C506 C505 1.366 . S
C506 C507 1.414 . S
C506 C509 1.499 . S
C507 H481 0.950 . S
C507 C506 1.414 . S
C507 C508 1.374 . S
C508 H482 0.950 . S
C508 C504 1.385 . S
C508 C507 1.374 . S
C509 C506 1.499 . S
C509 C510 1.373 . S
C509 C511 1.389 . S
C510 H483 0.950 . S
C510 C496 1.377 . S
C510 C509 1.373 . S
C511 C495 1.377 . S
C511 C509 1.389 . S
C511 C512 1.524 . S
C512 C511 1.524 . S
C512 C513 1.397 . S
C512 C517 1.363 1_455 S
C513 H484 0.950 . S
C513 C512 1.397 . S
C513 C514 1.334 1_455 S
C514 H485 0.950 . S
C514 C513 1.334 1_655 S
C514 C515 1.287 . S
C515 C514 1.287 . S
C515 C516 1.524 . S
C515 H518 0.999 . S
C516 H486 0.950 . S
C516 C515 1.524 . S
C516 C517 1.415 . S
C517 H487 0.950 . S
C517 C512 1.363 1_655 S
C517 C516 1.415 . S
H518 C515 0.999 . S
H519 C500 0.913 . S
H520 C538 0.951 . S
H521 C540 0.951 . S
H522 C542 0.950 . S
H523 C543 0.950 . S
H524 C545 0.950 . S
H525 C548 0.950 . S
H526 C549 0.950 . S
H527 C551 0.950 . S
H528 C552 0.950 . S
H529 C553 0.951 . S
H530 C555 0.951 . S
H531 C557 0.950 . S
H532 C558 0.950 . S
H533 C560 0.950 . S
H534 C563 0.950 . S
H535 C564 0.950 . S
H536 C566 0.950 . S
H537 C567 0.950 . S
C538 H520 0.951 . S
C538 C539 1.366 . S
C538 C540 1.388 . S
C539 C538 1.366 . S
C539 C543 1.385 . S
C540 H521 0.951 . S
C540 C538 1.388 . S
C540 C541 1.366 . S
C541 C540 1.366 . S
C541 C542 1.414 . S
C541 C544 1.499 . S
C542 H522 0.950 . S
C542 C541 1.414 . S
C542 C543 1.374 . S
C543 H523 0.950 . S
C543 C539 1.385 . S
C543 C542 1.374 . S
C544 C541 1.499 . S
C544 C545 1.373 . S
C544 C546 1.389 . S
C545 H524 0.950 . S
C545 C544 1.373 . S
C545 C561 1.377 . S
C546 C544 1.389 . S
C546 C547 1.524 . S
C546 C560 1.377 . S
C547 C546 1.524 . S
C547 C548 1.397 . S
C547 C552 1.363 . S
C548 H525 0.950 . S
C548 C547 1.397 . S
C548 C549 1.334 . S
C549 H526 0.950 . S
C549 C548 1.334 . S
C549 C550 1.287 . S
C550 C549 1.287 . S
C550 C551 1.524 . S
C550 H569 0.913 . S
C551 H527 0.950 . S
C551 C550 1.524 . S
C551 C552 1.415 . S
C552 H528 0.950 . S
C552 C547 1.363 . S
C552 C551 1.415 . S
C553 H529 0.951 . S
C553 C554 1.366 . S
C553 C555 1.388 . S
C554 C553 1.366 . S
C554 C558 1.385 . S
C555 H530 0.951 . S
C555 C553 1.388 . S
C555 C556 1.366 . S
C556 C555 1.366 . S
C556 C557 1.414 . S
C556 C559 1.499 . S
C557 H531 0.950 . S
C557 C556 1.414 . S
C557 C558 1.374 . S
C558 H532 0.950 . S
C558 C554 1.385 . S
C558 C557 1.374 . S
C559 C556 1.499 . S
C559 C560 1.373 . S
C559 C561 1.389 . S
C560 H533 0.950 . S
C560 C546 1.377 . S
C560 C559 1.373 . S
C561 C545 1.377 . S
C561 C559 1.389 . S
C561 C562 1.524 . S
C562 C561 1.524 . S
C562 C563 1.397 . S
C562 C567 1.363 . S
C563 H534 0.950 . S
C563 C562 1.397 . S
C563 C564 1.334 . S
C564 H535 0.950 . S
C564 C563 1.334 . S
C564 C565 1.287 . S
C565 C564 1.287 . S
C565 C566 1.524 . S
C565 H568 0.999 . S
C566 H536 0.950 . S
C566 C565 1.524 . S
C566 C567 1.415 . S
C567 H537 0.950 . S
C567 C562 1.363 . S
C567 C566 1.415 . S
H568 C565 0.999 . S
H569 C550 0.913 . S
H570 C588 0.951 . S
H571 C590 0.951 . S
H572 C592 0.950 . S
H573 C593 0.950 . S
H574 C595 0.950 . S
H575 C598 0.950 . S
H576 C599 0.950 . S
H577 C601 0.950 . S
H578 C602 0.950 . S
H579 C603 0.951 . S
H580 C605 0.951 . S
H581 C607 0.950 . S
H582 C608 0.950 1_455 S
H583 C610 0.950 . S
H584 C613 0.950 . S
H585 C614 0.950 . S
H586 C616 0.950 . S
H587 C617 0.950 . S
C588 H570 0.951 . S
C588 C589 1.366 . S
C588 C590 1.388 . S
C589 C588 1.366 . S
C589 C593 1.385 . S
C590 H571 0.951 . S
C590 C588 1.388 . S
C590 C591 1.366 . S
C591 C590 1.366 . S
C591 C592 1.414 . S
C591 C594 1.499 . S
C592 H572 0.950 . S
C592 C591 1.414 . S
C592 C593 1.374 . S
C593 H573 0.950 . S
C593 C589 1.385 . S
C593 C592 1.374 . S
C594 C591 1.499 . S
C594 C595 1.373 . S
C594 C596 1.389 . S
C595 H574 0.950 . S
C595 C594 1.373 . S
C595 C611 1.377 . S
C596 C594 1.389 . S
C596 C597 1.524 . S
C596 C610 1.377 . S
C597 C596 1.524 . S
C597 C598 1.397 . S
C597 C602 1.363 . S
C598 H575 0.950 . S
C598 C597 1.397 . S
C598 C599 1.334 . S
C599 H576 0.950 . S
C599 C598 1.334 . S
C599 C600 1.287 . S
C600 C599 1.287 . S
C600 C601 1.524 . S
C600 H619 0.913 . S
C601 H577 0.950 . S
C601 C600 1.524 . S
C601 C602 1.415 . S
C602 H578 0.950 . S
C602 C597 1.363 . S
C602 C601 1.415 . S
C603 H579 0.951 . S
C603 C604 1.366 . S
C603 C605 1.388 . S
C604 C603 1.366 . S
C604 C608 1.385 . S
C605 H580 0.951 . S
C605 C603 1.388 . S
C605 C606 1.366 . S
C606 C605 1.366 . S
C606 C607 1.414 . S
C606 C609 1.499 . S
C607 H581 0.950 . S
C607 C606 1.414 . S
C607 C608 1.374 . S
C608 H582 0.950 1_655 S
C608 C604 1.385 . S
C608 C607 1.374 . S
C609 C606 1.499 . S
C609 C610 1.373 . S
C609 C611 1.389 . S
C610 H583 0.950 . S
C610 C596 1.377 . S
C610 C609 1.373 . S
C611 C595 1.377 . S
C611 C609 1.389 . S
C611 C612 1.533 . S
C612 C611 1.533 . S
C612 C613 1.374 1_655 S
C612 C617 1.377 . S
C613 H584 0.950 . S
C613 C612 1.374 1_455 S
C613 C614 1.334 . S
C614 H585 0.950 . S
C614 C613 1.334 . S
C614 C615 1.287 . S
C615 C614 1.287 . S
C615 C616 1.524 . S
C615 H618 0.999 . S
C616 H586 0.950 . S
C616 C615 1.524 . S
C616 C617 1.415 1_455 S
C617 H587 0.950 . S
C617 C612 1.377 . S
C617 C616 1.415 1_655 S
H618 C615 0.999 . S
H619 C600 0.913 . S
H620 C638 0.951 . S
H621 C640 0.951 . S
H622 C642 0.950 . S
H623 C643 0.950 . S
H624 C645 0.950 . S
H625 C648 0.950 . S
H626 C649 0.950 . S
H627 C651 0.950 . S
H628 C652 0.950 . S
H629 C653 0.951 . S
H630 C655 0.949 . S
H631 C657 0.950 . S
H632 C658 0.950 . S
H633 C660 0.950 . S
H634 C663 0.950 . S
H635 C664 0.950 . S
H636 C666 0.950 . S
H637 C667 0.950 . S
C638 H620 0.951 . S
C638 C639 1.366 . S
C638 C640 1.388 . S
C639 C638 1.366 . S
C639 C643 1.385 . S
C640 H621 0.951 . S
C640 C638 1.388 . S
C640 C641 1.366 . S
C641 C640 1.366 . S
C641 C642 1.414 . S
C641 C644 1.499 . S
C642 H622 0.950 . S
C642 C641 1.414 . S
C642 C643 1.374 . S
C643 H623 0.950 . S
C643 C639 1.385 . S
C643 C642 1.374 . S
C644 C641 1.499 . S
C644 C645 1.373 . S
C644 C646 1.389 . S
C645 H624 0.950 . S
C645 C644 1.373 . S
C645 C661 1.377 . S
C646 C644 1.389 . S
C646 C647 1.524 . S
C646 C660 1.377 . S
C647 C646 1.524 . S
C647 C648 1.397 . S
C647 C652 1.363 . S
C648 H625 0.950 . S
C648 C647 1.397 . S
C648 C649 1.334 . S
C649 H626 0.950 . S
C649 C648 1.334 . S
C649 C650 1.287 . S
C650 C649 1.287 . S
C650 C651 1.524 . S
C650 H669 0.913 . S
C651 H627 0.950 . S
C651 C650 1.524 . S
C651 C652 1.415 . S
C652 H628 0.950 . S
C652 C647 1.363 . S
C652 C651 1.415 . S
C653 H629 0.951 . S
C653 C654 1.366 1_455 S
C653 C655 1.388 1_455 S
C654 C653 1.366 1_655 S
C654 C658 1.385 . S
C655 H630 0.949 . S
C655 C653 1.388 1_655 S
C655 C656 1.366 . S
C656 C655 1.366 . S
C656 C657 1.414 . S
C656 C659 1.499 . S
C657 H631 0.950 . S
C657 C656 1.414 . S
C657 C658 1.374 . S
C658 H632 0.950 . S
C658 C654 1.385 . S
C658 C657 1.374 . S
C659 C656 1.499 . S
C659 C660 1.373 . S
C659 C661 1.389 . S
C660 H633 0.950 . S
C660 C646 1.377 . S
C660 C659 1.373 . S
C661 C645 1.377 . S
C661 C659 1.389 . S
C661 C662 1.524 . S
C662 C661 1.524 . S
C662 C663 1.397 . S
C662 C667 1.363 1_655 S
C663 H634 0.950 . S
C663 C662 1.397 . S
C663 C664 1.334 1_655 S
C664 H635 0.950 . S
C664 C663 1.334 1_455 S
C664 C665 1.287 . S
C665 C664 1.287 . S
C665 C666 1.524 . S
C665 H668 0.999 . S
C666 H636 0.950 . S
C666 C665 1.524 . S
C666 C667 1.415 . S
C667 H637 0.950 . S
C667 C662 1.363 1_455 S
C667 C666 1.415 . S
H668 C665 0.999 . S
H669 C650 0.913 . S
H670 C688 0.951 . S
H671 C690 0.951 . S
H672 C692 0.950 . S
H673 C693 0.950 . S
H674 C695 0.950 . S
H675 C698 0.950 . S
H676 C699 0.950 . S
H677 C701 0.950 . S
H678 C702 0.950 . S
H679 C703 0.951 . S
H680 C705 0.951 . S
H681 C707 0.950 . S
H682 C708 0.950 . S
H683 C710 0.950 . S
H684 C713 0.950 . S
H685 C714 0.950 . S
H686 C716 0.950 . S
H687 C717 0.950 . S
C688 H670 0.951 . S
C688 C689 1.366 . S
C688 C690 1.388 . S
C689 C688 1.366 . S
C689 C693 1.385 . S
C690 H671 0.951 . S
C690 C688 1.388 . S
C690 C691 1.366 . S
C691 C690 1.366 . S
C691 C692 1.414 . S
C691 C694 1.499 . S
C692 H672 0.950 . S
C692 C691 1.414 . S
C692 C693 1.374 . S
C693 H673 0.950 . S
C693 C689 1.385 . S
C693 C692 1.374 . S
C694 C691 1.499 . S
C694 C695 1.373 . S
C694 C696 1.389 . S
C695 H674 0.950 . S
C695 C694 1.373 . S
C695 C711 1.377 . S
C696 C694 1.389 . S
C696 C697 1.524 . S
C696 C710 1.377 . S
C697 C696 1.524 . S
C697 C698 1.397 . S
C697 C702 1.363 . S
C698 H675 0.950 . S
C698 C697 1.397 . S
C698 C699 1.334 . S
C699 H676 0.950 . S
C699 C698 1.334 . S
C699 C700 1.287 . S
C700 C699 1.287 . S
C700 C701 1.524 . S
C700 H719 0.913 . S
C701 H677 0.950 . S
C701 C700 1.524 . S
C701 C702 1.415 . S
C702 H678 0.950 . S
C702 C697 1.363 . S
C702 C701 1.415 . S
C703 H679 0.951 . S
C703 C704 1.366 . S
C703 C705 1.388 . S
C704 C703 1.366 . S
C704 C708 1.385 . S
C705 H680 0.951 . S
C705 C703 1.388 . S
C705 C706 1.366 . S
C706 C705 1.366 . S
C706 C707 1.414 . S
C706 C709 1.499 . S
C707 H681 0.950 . S
C707 C706 1.414 . S
C707 C708 1.374 . S
C708 H682 0.950 . S
C708 C704 1.385 . S
C708 C707 1.374 . S
C709 C706 1.499 . S
C709 C710 1.373 . S
C709 C711 1.389 . S
C710 H683 0.950 . S
C710 C696 1.377 . S
C710 C709 1.373 . S
C711 C695 1.377 . S
C711 C709 1.389 . S
C711 C712 1.524 . S
C712 C711 1.524 . S
C712 C713 1.397 . S
C712 C717 1.363 . S
C713 H684 0.950 . S
C713 C712 1.397 . S
C713 C714 1.334 . S
C714 H685 0.950 . S
C714 C713 1.334 . S
C714 C715 1.287 . S
C715 C714 1.287 . S
C715 C716 1.524 . S
C715 H718 0.999 . S
C716 H686 0.950 . S
C716 C715 1.524 . S
C716 C717 1.415 . S
C717 H687 0.950 . S
C717 C712 1.363 . S
C717 C716 1.415 . S
H718 C715 0.999 . S
H719 C700 0.913 . S
H720 C738 0.951 . S
H721 C740 0.951 . S
H722 C742 0.950 . S
H723 C743 0.950 . S
H724 C745 0.950 . S
H725 C748 0.950 . S
H726 C749 0.950 . S
H727 C751 0.950 . S
H728 C752 0.950 . S
H729 C753 0.951 . S
H730 C755 0.951 . S
H731 C757 0.950 . S
H732 C758 0.950 . S
H733 C760 0.950 . S
H734 C763 0.950 . S
H735 C764 0.950 . S
H736 C766 0.950 . S
H737 C767 0.950 . S
C738 H720 0.951 . S
C738 C739 1.366 . S
C738 C740 1.388 . S
C739 C738 1.366 . S
C739 C743 1.385 . S
C740 H721 0.951 . S
C740 C738 1.388 . S
C740 C741 1.366 . S
C741 C740 1.366 . S
C741 C742 1.414 . S
C741 C744 1.499 . S
C742 H722 0.950 . S
C742 C741 1.414 . S
C742 C743 1.374 . S
C743 H723 0.950 . S
C743 C739 1.385 . S
C743 C742 1.374 . S
C744 C741 1.499 . S
C744 C745 1.373 . S
C744 C746 1.389 . S
C745 H724 0.950 . S
C745 C744 1.373 . S
C745 C761 1.377 . S
C746 C744 1.389 . S
C746 C747 1.524 . S
C746 C760 1.377 . S
C747 C746 1.524 . S
C747 C748 1.397 . S
C747 C752 1.363 . S
C748 H725 0.950 . S
C748 C747 1.397 . S
C748 C749 1.334 . S
C749 H726 0.950 . S
C749 C748 1.334 . S
C749 C750 1.287 . S
C750 C749 1.287 . S
C750 C751 1.524 . S
C750 H769 0.913 . S
C751 H727 0.950 . S
C751 C750 1.524 . S
C751 C752 1.415 . S
C752 H728 0.950 . S
C752 C747 1.363 . S
C752 C751 1.415 . S
C753 H729 0.951 . S
C753 C754 1.366 . S
C753 C755 1.388 . S
C754 C753 1.366 . S
C754 C758 1.385 . S
C755 H730 0.951 . S
C755 C753 1.388 . S
C755 C756 1.366 . S
C756 C755 1.366 . S
C756 C757 1.414 . S
C756 C759 1.499 . S
C757 H731 0.950 . S
C757 C756 1.414 . S
C757 C758 1.374 . S
C758 H732 0.950 . S
C758 C754 1.385 . S
C758 C757 1.374 . S
C759 C756 1.499 . S
C759 C760 1.373 . S
C759 C761 1.389 . S
C760 H733 0.950 . S
C760 C746 1.377 . S
C760 C759 1.373 . S
C761 C745 1.377 . S
C761 C759 1.389 . S
C761 C762 1.524 . S
C762 C761 1.524 . S
C762 C763 1.397 . S
C762 C767 1.363 . S
C763 H734 0.950 . S
C763 C762 1.397 . S
C763 C764 1.334 . S
C764 H735 0.950 . S
C764 C763 1.334 . S
C764 C765 1.287 . S
C765 C764 1.287 . S
C765 C766 1.524 . S
C765 H768 0.999 . S
C766 H736 0.950 . S
C766 C765 1.524 . S
C766 C767 1.415 . S
C767 H737 0.950 . S
C767 C762 1.363 . S
C767 C766 1.415 . S
H768 C765 0.999 . S
H769 C750 0.913 . S
H770 C788 0.951 . S
H771 C790 0.951 . S
H772 C792 0.950 1_455 S
H773 C793 0.950 . S
H774 C795 0.950 . S
H775 C798 0.938 1_565 S
H776 C799 0.950 . S
H777 C801 0.950 . S
H778 C802 0.950 . S
H779 C803 0.951 . S
H780 C805 0.951 . S
H781 C807 0.950 . S
H782 C808 0.950 . S
H783 C810 0.950 . S
H784 C813 0.950 . S
H785 C814 0.950 1_655 S
H786 C816 0.950 . S
H787 C817 0.950 . S
C788 H770 0.951 . S
C788 C789 1.366 . S
C788 C790 1.388 . S
C789 C788 1.366 . S
C789 C793 1.385 . S
C790 H771 0.951 . S
C790 C788 1.388 . S
C790 C791 1.366 . S
C791 C790 1.366 . S
C791 C792 1.414 . S
C791 C794 1.499 . S
C792 H772 0.950 1_655 S
C792 C791 1.414 . S
C792 C793 1.374 . S
C793 H773 0.950 . S
C793 C789 1.385 . S
C793 C792 1.374 . S
C794 C791 1.499 . S
C794 C795 1.373 . S
C794 C796 1.389 . S
C795 H774 0.950 . S
C795 C794 1.373 . S
C795 C811 1.377 . S
C796 C794 1.389 . S
C796 C797 1.524 1_565 S
C796 C810 1.377 1_565 S
C797 C796 1.524 1_545 S
C797 C798 1.399 . S
C797 C802 1.363 . S
C798 H775 0.938 1_545 S
C798 C797 1.399 . S
C798 C799 1.343 . S
C799 H776 0.950 . S
C799 C798 1.343 . S
C799 C800 1.287 . S
C800 C799 1.287 . S
C800 C801 1.524 . S
C800 H819 0.913 . S
C801 H777 0.950 . S
C801 C800 1.524 . S
C801 C802 1.415 . S
C802 H778 0.950 . S
C802 C797 1.363 . S
C802 C801 1.415 . S
C803 H779 0.951 . S
C803 C804 1.366 . S
C803 C805 1.388 . S
C804 C803 1.366 . S
C804 C808 1.385 1_455 S
C805 H780 0.951 . S
C805 C803 1.388 . S
C805 C806 1.366 1_455 S
C806 C805 1.366 1_655 S
C806 C807 1.414 . S
C806 C809 1.499 . S
C807 H781 0.950 . S
C807 C806 1.414 . S
C807 C808 1.374 . S
C808 H782 0.950 . S
C808 C804 1.385 1_655 S
C808 C807 1.374 . S
C809 C806 1.499 . S
C809 C810 1.373 . S
C809 C811 1.389 1_545 S
C810 H783 0.950 . S
C810 C796 1.377 1_545 S
C810 C809 1.373 . S
C811 C795 1.377 . S
C811 C809 1.389 1_565 S
C811 C812 1.524 1_655 S
C812 C811 1.524 1_455 S
C812 C813 1.397 1_455 S
C812 C817 1.363 . S
C813 H784 0.950 . S
C813 C812 1.397 1_655 S
C813 C814 1.334 1_655 S
C814 H785 0.950 1_455 S
C814 C813 1.334 1_455 S
C814 C815 1.287 . S
C815 C814 1.287 . S
C815 C816 1.524 . S
C815 H818 0.999 . S
C816 H786 0.950 . S
C816 C815 1.524 . S
C816 C817 1.415 . S
C817 H787 0.950 . S
C817 C812 1.363 . S
C817 C816 1.415 . S
H818 C815 0.999 . S
H819 C800 0.913 . S
H820 C838 0.951 . S
H821 C840 0.951 . S
H822 C842 0.950 . S
H823 C843 0.950 1_554 S
H824 C845 0.950 . S
H825 C848 0.950 . S
H826 C849 0.950 . S
H827 C851 0.950 . S
H828 C852 0.950 . S
H829 C853 0.951 . S
H830 C855 0.951 . S
H831 C857 0.950 . S
H832 C858 0.950 . S
H833 C860 0.950 1_556 S
H834 C863 0.950 . S
H835 C864 0.950 . S
H836 C866 0.950 . S
H837 C867 0.950 . S
C838 H820 0.951 . S
C838 C839 1.366 . S
C838 C840 1.388 . S
C839 C838 1.366 . S
C839 C843 1.385 . S
C840 H821 0.951 . S
C840 C838 1.388 . S
C840 C841 1.366 . S
C841 C840 1.366 . S
C841 C842 1.414 1_556 S
C841 C844 1.499 1_556 S
C842 H822 0.950 . S
C842 C841 1.414 1_554 S
C842 C843 1.374 1_554 S
C843 H823 0.950 1_556 S
C843 C839 1.385 . S
C843 C842 1.374 1_556 S
C844 C841 1.499 1_554 S
C844 C845 1.373 . S
C844 C846 1.389 1_554 S
C845 H824 0.950 . S
C845 C844 1.373 . S
C845 C861 1.377 . S
C846 C844 1.389 1_556 S
C846 C847 1.524 . S
C846 C860 1.377 1_556 S
C847 C846 1.524 . S
C847 C848 1.397 . S
C847 C852 1.363 . S
C848 H825 0.950 . S
C848 C847 1.397 . S
C848 C849 1.334 . S
C849 H826 0.950 . S
C849 C848 1.334 . S
C849 C850 1.287 . S
C850 C849 1.287 . S
C850 C851 1.524 . S
C850 H869 0.913 . S
C851 H827 0.950 . S
C851 C850 1.524 . S
C851 C852 1.415 . S
C852 H828 0.950 . S
C852 C847 1.363 . S
C852 C851 1.415 . S
C853 H829 0.951 . S
C853 C854 1.366 . S
C853 C855 1.388 . S
C854 C853 1.366 . S
C854 C858 1.385 . S
C855 H830 0.951 . S
C855 C853 1.388 . S
C855 C856 1.366 . S
C856 C855 1.366 . S
C856 C857 1.414 . S
C856 C859 1.499 . S
C857 H831 0.950 . S
C857 C856 1.414 . S
C857 C858 1.374 . S
C858 H832 0.950 . S
C858 C854 1.385 . S
C858 C857 1.374 . S
C859 C856 1.499 . S
C859 C860 1.373 . S
C859 C861 1.389 . S
C860 H833 0.950 1_554 S
C860 C846 1.377 1_554 S
C860 C859 1.373 . S
C861 C845 1.377 . S
C861 C859 1.389 . S
C861 C862 1.524 . S
C862 C861 1.524 . S
C862 C863 1.397 . S
C862 C867 1.363 . S
C863 H834 0.950 . S
C863 C862 1.397 . S
C863 C864 1.334 . S
C864 H835 0.950 . S
C864 C863 1.334 . S
C864 C865 1.287 . S
C865 C864 1.287 . S
C865 C866 1.524 . S
C865 H868 0.999 . S
C866 H836 0.950 . S
C866 C865 1.524 . S
C866 C867 1.415 . S
C867 H837 0.950 . S
C867 C862 1.363 . S
C867 C866 1.415 . S
H868 C865 0.999 . S
H869 C850 0.913 . S
H870 C888 0.951 . S
H871 C890 0.951 . S
H872 C892 0.950 . S
H873 C893 0.950 . S
H874 C895 0.950 . S
H875 C898 0.950 . S
H876 C899 0.950 . S
H877 C901 0.950 . S
H878 C902 0.950 . S
H879 C903 0.951 . S
H880 C905 0.951 . S
H881 C907 0.950 . S
H882 C908 0.950 . S
H883 C910 0.950 . S
H884 C913 0.950 . S
H885 C914 0.950 . S
H886 C916 0.950 . S
H887 C917 0.950 . S
C888 H870 0.951 . S
C888 C889 1.366 . S
C888 C890 1.388 . S
C889 C888 1.366 . S
C889 C893 1.385 . S
C890 H871 0.951 . S
C890 C888 1.388 . S
C890 C891 1.366 . S
C891 C890 1.366 . S
C891 C892 1.414 . S
C891 C894 1.499 . S
C892 H872 0.950 . S
C892 C891 1.414 . S
C892 C893 1.374 . S
C893 H873 0.950 . S
C893 C889 1.385 . S
C893 C892 1.374 . S
C894 C891 1.499 . S
C894 C895 1.373 . S
C894 C896 1.389 . S
C895 H874 0.950 . S
C895 C894 1.373 . S
C895 C911 1.377 . S
C896 C894 1.389 . S
C896 C897 1.524 . S
C896 C910 1.377 . S
C897 C896 1.524 . S
C897 C898 1.397 . S
C897 C902 1.363 . S
C898 H875 0.950 . S
C898 C897 1.397 . S
C898 C899 1.334 . S
C899 H876 0.950 . S
C899 C898 1.334 . S
C899 C900 1.287 . S
C900 C899 1.287 . S
C900 C901 1.524 . S
C900 H919 0.913 . S
C901 H877 0.950 . S
C901 C900 1.524 . S
C901 C902 1.415 . S
C902 H878 0.950 . S
C902 C897 1.363 . S
C902 C901 1.415 . S
C903 H879 0.951 . S
C903 C904 1.366 . S
C903 C905 1.388 . S
C904 C903 1.366 . S
C904 C908 1.385 . S
C905 H880 0.951 . S
C905 C903 1.388 . S
C905 C906 1.366 . S
C906 C905 1.366 . S
C906 C907 1.414 . S
C906 C909 1.499 . S
C907 H881 0.950 . S
C907 C906 1.414 . S
C907 C908 1.374 . S
C908 H882 0.950 . S
C908 C904 1.385 . S
C908 C907 1.374 . S
C909 C906 1.499 . S
C909 C910 1.373 . S
C909 C911 1.389 . S
C910 H883 0.950 . S
C910 C896 1.377 . S
C910 C909 1.373 . S
C911 C895 1.377 . S
C911 C909 1.389 . S
C911 C912 1.524 . S
C912 C911 1.524 . S
C912 C913 1.397 . S
C912 C917 1.363 . S
C913 H884 0.950 . S
C913 C912 1.397 . S
C913 C914 1.334 . S
C914 H885 0.950 . S
C914 C913 1.334 . S
C914 C915 1.287 . S
C915 C914 1.287 . S
C915 C916 1.524 . S
C915 H918 0.999 . S
C916 H886 0.950 . S
C916 C915 1.524 . S
C916 C917 1.415 . S
C917 H887 0.950 . S
C917 C912 1.363 . S
C917 C916 1.415 . S
H918 C915 0.999 . S
H919 C900 0.913 . S
H920 C938 0.951 . S
H921 C940 0.951 . S
H922 C942 0.950 . S
H923 C943 0.950 . S
H924 C945 0.950 . S
H925 C948 0.950 . S
H926 C949 0.950 . S
H927 C951 0.950 . S
H928 C952 0.950 . S
H929 C953 0.951 . S
H930 C955 0.951 . S
H931 C957 0.950 . S
H932 C958 0.950 . S
H933 C960 0.950 . S
H934 C963 0.950 . S
H935 C964 0.950 . S
H936 C966 0.950 . S
H937 C967 0.950 . S
C938 H920 0.951 . S
C938 C939 1.366 . S
C938 C940 1.388 . S
C939 C938 1.366 . S
C939 C943 1.385 . S
C940 H921 0.951 . S
C940 C938 1.388 . S
C940 C941 1.366 . S
C941 C940 1.366 . S
C941 C942 1.414 . S
C941 C944 1.499 . S
C942 H922 0.950 . S
C942 C941 1.414 . S
C942 C943 1.374 . S
C943 H923 0.950 . S
C943 C939 1.385 . S
C943 C942 1.374 . S
C944 C941 1.499 . S
C944 C945 1.373 . S
C944 C946 1.389 . S
C945 H924 0.950 . S
C945 C944 1.373 . S
C945 C961 1.377 . S
C946 C944 1.389 . S
C946 C947 1.524 . S
C946 C960 1.377 . S
C947 C946 1.524 . S
C947 C948 1.397 . S
C947 C952 1.363 . S
C948 H925 0.950 . S
C948 C947 1.397 . S
C948 C949 1.334 . S
C949 H926 0.950 . S
C949 C948 1.334 . S
C949 C950 1.287 . S
C950 C949 1.287 . S
C950 C951 1.524 . S
C950 H969 0.913 . S
C951 H927 0.950 . S
C951 C950 1.524 . S
C951 C952 1.415 . S
C952 H928 0.950 . S
C952 C947 1.363 . S
C952 C951 1.415 . S
C953 H929 0.951 . S
C953 C954 1.366 . S
C953 C955 1.388 . S
C954 C953 1.366 . S
C954 C958 1.385 . S
C955 H930 0.951 . S
C955 C953 1.388 . S
C955 C956 1.366 . S
C956 C955 1.366 . S
C956 C957 1.414 . S
C956 C959 1.499 . S
C957 H931 0.950 . S
C957 C956 1.414 . S
C957 C958 1.374 . S
C958 H932 0.950 . S
C958 C954 1.385 . S
C958 C957 1.374 . S
C959 C956 1.499 . S
C959 C960 1.373 . S
C959 C961 1.389 . S
C960 H933 0.950 . S
C960 C946 1.377 . S
C960 C959 1.373 . S
C961 C945 1.377 . S
C961 C959 1.389 . S
C961 C962 1.524 . S
C962 C961 1.524 . S
C962 C963 1.397 . S
C962 C967 1.363 . S
C963 H934 0.950 . S
C963 C962 1.397 . S
C963 C964 1.334 . S
C964 H935 0.950 . S
C964 C963 1.334 . S
C964 C965 1.287 . S
C965 C964 1.287 . S
C965 C966 1.524 . S
C965 H968 0.999 . S
C966 H936 0.950 . S
C966 C965 1.524 . S
C966 C967 1.415 . S
C967 H937 0.950 . S
C967 C962 1.363 . S
C967 C966 1.415 . S
H968 C965 0.999 . S
H969 C950 0.913 . S
H970 C988 0.951 . S
H971 C990 0.951 . S
H972 C992 0.950 . S
H973 C993 0.950 . S
H974 C995 0.950 . S
H975 C998 0.950 . S
H976 C999 0.950 . S
H977 C1001 0.950 . S
H978 C1002 0.950 . S
H979 C1003 0.928 1_455 S
H980 C1005 0.946 1_455 S
H981 C1007 0.950 . S
H982 C1008 0.950 . S
H983 C1010 0.950 . S
H984 C1013 0.950 . S
H985 C1014 0.950 . S
H986 C1016 0.950 . S
H987 C1017 0.950 1_455 S
C988 H970 0.951 . S
C988 C989 1.366 . S
C988 C990 1.388 . S
C989 C988 1.366 . S
C989 C993 1.385 . S
C990 H971 0.951 . S
C990 C988 1.388 . S
C990 C991 1.366 . S
C991 C990 1.366 . S
C991 C992 1.414 . S
C991 C994 1.499 . S
C992 H972 0.950 . S
C992 C991 1.414 . S
C992 C993 1.374 . S
C993 H973 0.950 . S
C993 C989 1.385 . S
C993 C992 1.374 . S
C994 C991 1.499 . S
C994 C995 1.373 . S
C994 C996 1.389 . S
C995 H974 0.950 . S
C995 C994 1.373 . S
C995 C1011 1.377 . S
C996 C994 1.389 . S
C996 C997 1.524 . S
C996 C1010 1.377 . S
C997 C996 1.524 . S
C997 C998 1.397 . S
C997 C1002 1.363 . S
C998 H975 0.950 . S
C998 C997 1.397 . S
C998 C999 1.334 . S
C999 H976 0.950 . S
C999 C998 1.334 . S
C999 C1000 1.287 . S
C1000 C999 1.287 . S
C1000 C1001 1.524 . S
C1000 H1019 0.913 . S
C1001 H977 0.950 . S
C1001 C1000 1.524 . S
C1001 C1002 1.415 . S
C1002 H978 0.950 . S
C1002 C997 1.363 . S
C1002 C1001 1.415 . S
C1003 H979 0.928 1_655 S
C1003 C1004 1.371 . S
C1003 C1005 1.406 . S
C1004 C1003 1.371 . S
C1004 C1008 1.385 . S
C1005 H980 0.946 1_655 S
C1005 C1003 1.406 . S
C1005 C1006 1.366 . S
C1006 C1005 1.366 . S
C1006 C1007 1.414 . S
C1006 C1009 1.499 . S
C1007 H981 0.950 . S
C1007 C1006 1.414 . S
C1007 C1008 1.374 . S
C1008 H982 0.950 . S
C1008 C1004 1.385 . S
C1008 C1007 1.374 . S
C1009 C1006 1.499 . S
C1009 C1010 1.373 . S
C1009 C1011 1.389 . S
C1010 H983 0.950 . S
C1010 C996 1.377 . S
C1010 C1009 1.373 . S
C1011 C995 1.377 . S
C1011 C1009 1.389 . S
C1011 C1012 1.524 . S
C1012 C1011 1.524 . S
C1012 C1013 1.397 . S
C1012 C1017 1.363 . S
C1013 H984 0.950 . S
C1013 C1012 1.397 . S
C1013 C1014 1.334 . S
C1014 H985 0.950 . S
C1014 C1013 1.334 . S
C1014 C1015 1.287 . S
C1015 C1014 1.287 . S
C1015 C1016 1.524 1_655 S
C1015 H1018 0.999 1_655 S
C1016 H986 0.950 . S
C1016 C1015 1.524 1_455 S
C1016 C1017 1.415 1_455 S
C1017 H987 0.950 1_655 S
C1017 C1012 1.363 . S
C1017 C1016 1.415 1_655 S
H1018 C1015 0.999 1_455 S
H1019 C1000 0.913 . S
H1020 C1038 0.951 . S
H1021 C1040 0.951 . S
H1022 C1042 0.950 . S
H1023 C1043 0.950 . S
H1024 C1045 0.950 . S
H1025 C1048 0.950 . S
H1026 C1049 0.950 . S
H1027 C1051 0.950 . S
H1028 C1052 0.950 . S
H1029 C1053 0.951 . S
H1030 C1055 0.951 . S
H1031 C1057 0.950 . S
H1032 C1058 0.950 . S
H1033 C1060 0.950 . S
H1034 C1063 0.950 . S
H1035 C1064 0.950 . S
H1036 C1066 0.950 . S
H1037 C1067 0.950 . S
C1038 H1020 0.951 . S
C1038 C1039 1.366 . S
C1038 C1040 1.388 . S
C1039 C1038 1.366 . S
C1039 C1043 1.385 . S
C1040 H1021 0.951 . S
C1040 C1038 1.388 . S
C1040 C1041 1.366 . S
C1041 C1040 1.366 . S
C1041 C1042 1.414 . S
C1041 C1044 1.499 . S
C1042 H1022 0.950 . S
C1042 C1041 1.414 . S
C1042 C1043 1.374 . S
C1043 H1023 0.950 . S
C1043 C1039 1.385 . S
C1043 C1042 1.374 . S
C1044 C1041 1.499 . S
C1044 C1045 1.373 . S
C1044 C1046 1.389 . S
C1045 H1024 0.950 . S
C1045 C1044 1.373 . S
C1045 C1061 1.377 . S
C1046 C1044 1.389 . S
C1046 C1047 1.524 . S
C1046 C1060 1.377 . S
C1047 C1046 1.524 . S
C1047 C1048 1.397 . S
C1047 C1052 1.363 . S
C1048 H1025 0.950 . S
C1048 C1047 1.397 . S
C1048 C1049 1.334 . S
C1049 H1026 0.950 . S
C1049 C1048 1.334 . S
C1049 C1050 1.287 . S
C1050 C1049 1.287 . S
C1050 C1051 1.524 . S
C1050 H1069 0.913 . S
C1051 H1027 0.950 . S
C1051 C1050 1.524 . S
C1051 C1052 1.415 . S
C1052 H1028 0.950 . S
C1052 C1047 1.363 . S
C1052 C1051 1.415 . S
C1053 H1029 0.951 . S
C1053 C1054 1.366 . S
C1053 C1055 1.388 . S
C1054 C1053 1.366 . S
C1054 C1058 1.385 . S
C1055 H1030 0.951 . S
C1055 C1053 1.388 . S
C1055 C1056 1.366 . S
C1056 C1055 1.366 . S
C1056 C1057 1.414 . S
C1056 C1059 1.499 . S
C1057 H1031 0.950 . S
C1057 C1056 1.414 . S
C1057 C1058 1.374 . S
C1058 H1032 0.950 . S
C1058 C1054 1.385 . S
C1058 C1057 1.374 . S
C1059 C1056 1.499 . S
C1059 C1060 1.373 . S
C1059 C1061 1.389 . S
C1060 H1033 0.950 . S
C1060 C1046 1.377 . S
C1060 C1059 1.373 . S
C1061 C1045 1.377 . S
C1061 C1059 1.389 . S
C1061 C1062 1.524 . S
C1062 C1061 1.524 . S
C1062 C1063 1.397 . S
C1062 C1067 1.363 . S
C1063 H1034 0.950 . S
C1063 C1062 1.397 . S
C1063 C1064 1.334 . S
C1064 H1035 0.950 . S
C1064 C1063 1.334 . S
C1064 C1065 1.287 . S
C1065 C1064 1.287 . S
C1065 C1066 1.524 . S
C1065 H1068 0.999 . S
C1066 H1036 0.950 . S
C1066 C1065 1.524 . S
C1066 C1067 1.415 . S
C1067 H1037 0.950 . S
C1067 C1062 1.363 . S
C1067 C1066 1.415 . S
H1068 C1065 0.999 . S
H1069 C1050 0.913 . S
H1070 C1088 0.951 . S
H1071 C1090 0.951 . S
H1072 C1092 0.950 . S
H1073 C1093 0.950 . S
H1074 C1095 0.950 . S
H1075 C1098 0.950 . S
H1076 C1099 0.950 . S
H1077 C1101 0.950 . S
H1078 C1102 0.950 . S
H1079 C1103 0.951 . S
H1080 C1105 0.951 . S
H1081 C1107 0.950 . S
H1082 C1108 0.950 . S
H1083 C1110 0.950 . S
H1084 C1113 0.950 . S
H1085 C1114 0.950 . S
H1086 C1116 0.950 . S
H1087 C1117 0.950 . S
C1088 H1070 0.951 . S
C1088 C1089 1.366 . S
C1088 C1090 1.388 . S
C1089 C1088 1.366 . S
C1089 C1093 1.385 . S
C1090 H1071 0.951 . S
C1090 C1088 1.388 . S
C1090 C1091 1.366 . S
C1091 C1090 1.366 . S
C1091 C1092 1.414 . S
C1091 C1094 1.499 . S
C1092 H1072 0.950 . S
C1092 C1091 1.414 . S
C1092 C1093 1.374 . S
C1093 H1073 0.950 . S
C1093 C1089 1.385 . S
C1093 C1092 1.374 . S
C1094 C1091 1.499 . S
C1094 C1095 1.373 1_655 S
C1094 C1096 1.389 . S
C1095 H1074 0.950 . S
C1095 C1094 1.373 1_455 S
C1095 C1111 1.377 . S
C1096 C1094 1.389 . S
C1096 C1097 1.524 . S
C1096 C1110 1.377 . S
C1097 C1096 1.524 . S
C1097 C1098 1.397 . S
C1097 C1102 1.363 . S
C1098 H1075 0.950 . S
C1098 C1097 1.397 . S
C1098 C1099 1.334 . S
C1099 H1076 0.950 . S
C1099 C1098 1.334 . S
C1099 C1100 1.287 . S
C1100 C1099 1.287 . S
C1100 C1101 1.524 . S
C1100 H1119 0.913 . S
C1101 H1077 0.950 . S
C1101 C1100 1.524 . S
C1101 C1102 1.415 . S
C1102 H1078 0.950 . S
C1102 C1097 1.363 . S
C1102 C1101 1.415 . S
C1103 H1079 0.951 . S
C1103 C1104 1.366 . S
C1103 C1105 1.388 . S
C1104 C1103 1.366 . S
C1104 C1108 1.385 . S
C1105 H1080 0.951 . S
C1105 C1103 1.388 . S
C1105 C1106 1.366 . S
C1106 C1105 1.366 . S
C1106 C1107 1.414 . S
C1106 C1109 1.499 . S
C1107 H1081 0.950 . S
C1107 C1106 1.414 . S
C1107 C1108 1.374 . S
C1108 H1082 0.950 . S
C1108 C1104 1.385 . S
C1108 C1107 1.374 . S
C1109 C1106 1.499 . S
C1109 C1110 1.373 1_455 S
C1109 C1111 1.389 . S
C1110 H1083 0.950 . S
C1110 C1096 1.377 . S
C1110 C1109 1.373 1_655 S
C1111 C1095 1.377 . S
C1111 C1109 1.389 . S
C1111 C1112 1.524 . S
C1112 C1111 1.524 . S
C1112 C1113 1.397 . S
C1112 C1117 1.363 . S
C1113 H1084 0.950 . S
C1113 C1112 1.397 . S
C1113 C1114 1.334 . S
C1114 H1085 0.950 . S
C1114 C1113 1.334 . S
C1114 C1115 1.287 . S
C1115 C1114 1.287 . S
C1115 C1116 1.524 . S
C1115 H1118 0.999 . S
C1116 H1086 0.950 . S
C1116 C1115 1.524 . S
C1116 C1117 1.415 . S
C1117 H1087 0.950 . S
C1117 C1112 1.363 . S
C1117 C1116 1.415 . S
H1118 C1115 0.999 . S
H1119 C1100 0.913 . S
H1120 C1138 0.951 . S
H1121 C1140 0.951 . S
H1122 C1142 0.950 . S
H1123 C1143 0.950 . S
H1124 C1145 0.950 . S
H1125 C1148 0.950 . S
H1126 C1149 0.950 . S
H1127 C1151 0.950 . S
H1128 C1152 0.950 . S
H1129 C1153 0.951 . S
H1130 C1155 0.951 . S
H1131 C1157 0.950 . S
H1132 C1158 0.950 . S
H1133 C1160 0.950 . S
H1134 C1163 0.950 . S
H1135 C1164 0.950 . S
H1136 C1166 0.950 . S
H1137 C1167 0.950 . S
C1138 H1120 0.951 . S
C1138 C1139 1.366 . S
C1138 C1140 1.388 . S
C1139 C1138 1.366 . S
C1139 C1143 1.385 . S
C1140 H1121 0.951 . S
C1140 C1138 1.388 . S
C1140 C1141 1.366 . S
C1141 C1140 1.366 . S
C1141 C1142 1.414 . S
C1141 C1144 1.499 . S
C1142 H1122 0.950 . S
C1142 C1141 1.414 . S
C1142 C1143 1.374 . S
C1143 H1123 0.950 . S
C1143 C1139 1.385 . S
C1143 C1142 1.374 . S
C1144 C1141 1.499 . S
C1144 C1145 1.373 . S
C1144 C1146 1.389 . S
C1145 H1124 0.950 . S
C1145 C1144 1.373 . S
C1145 C1161 1.377 . S
C1146 C1144 1.389 . S
C1146 C1147 1.524 . S
C1146 C1160 1.377 . S
C1147 C1146 1.524 . S
C1147 C1148 1.397 . S
C1147 C1152 1.363 . S
C1148 H1125 0.950 . S
C1148 C1147 1.397 . S
C1148 C1149 1.334 . S
C1149 H1126 0.950 . S
C1149 C1148 1.334 . S
C1149 C1150 1.287 . S
C1150 C1149 1.287 . S
C1150 C1151 1.524 . S
C1150 H1169 0.913 . S
C1151 H1127 0.950 . S
C1151 C1150 1.524 . S
C1151 C1152 1.415 . S
C1152 H1128 0.950 . S
C1152 C1147 1.363 . S
C1152 C1151 1.415 . S
C1153 H1129 0.951 . S
C1153 C1154 1.366 . S
C1153 C1155 1.388 . S
C1154 C1153 1.366 . S
C1154 C1158 1.385 . S
C1155 H1130 0.951 . S
C1155 C1153 1.388 . S
C1155 C1156 1.366 . S
C1156 C1155 1.366 . S
C1156 C1157 1.414 . S
C1156 C1159 1.499 . S
C1157 H1131 0.950 . S
C1157 C1156 1.414 . S
C1157 C1158 1.374 . S
C1158 H1132 0.950 . S
C1158 C1154 1.385 . S
C1158 C1157 1.374 . S
C1159 C1156 1.499 . S
C1159 C1160 1.373 . S
C1159 C1161 1.389 . S
C1160 H1133 0.950 . S
C1160 C1146 1.377 . S
C1160 C1159 1.373 . S
C1161 C1145 1.377 . S
C1161 C1159 1.389 . S
C1161 C1162 1.524 . S
C1162 C1161 1.524 . S
C1162 C1163 1.397 . S
C1162 C1167 1.363 . S
C1163 H1134 0.950 . S
C1163 C1162 1.397 . S
C1163 C1164 1.334 . S
C1164 H1135 0.950 . S
C1164 C1163 1.334 . S
C1164 C1165 1.287 . S
C1165 C1164 1.287 . S
C1165 C1166 1.524 . S
C1165 H1168 0.999 . S
C1166 H1136 0.950 . S
C1166 C1165 1.524 . S
C1166 C1167 1.415 . S
C1167 H1137 0.950 . S
C1167 C1162 1.363 . S
C1167 C1166 1.415 . S
H1168 C1165 0.999 . S
H1169 C1150 0.913 . S
H1170 C1188 0.951 . S
H1171 C1190 0.951 . S
H1172 C1192 0.950 . S
H1173 C1193 0.950 . S
H1174 C1195 0.950 . S
H1175 C1198 0.950 . S
H1176 C1199 0.950 . S
H1177 C1201 0.950 . S
H1178 C1202 0.950 . S
H1179 C1203 0.951 . S
H1180 C1205 0.951 . S
H1181 C1207 0.950 . S
H1182 C1208 0.950 . S
H1183 C1210 0.950 . S
H1184 C1213 0.950 . S
H1185 C1214 0.950 . S
H1186 C1216 0.950 . S
H1187 C1217 0.950 . S
C1188 H1170 0.951 . S
C1188 C1189 1.366 . S
C1188 C1190 1.388 . S
C1189 C1188 1.366 . S
C1189 C1193 1.385 . S
C1190 H1171 0.951 . S
C1190 C1188 1.388 . S
C1190 C1191 1.366 . S
C1191 C1190 1.366 . S
C1191 C1192 1.414 . S
C1191 C1194 1.499 . S
C1192 H1172 0.950 . S
C1192 C1191 1.414 . S
C1192 C1193 1.374 . S
C1193 H1173 0.950 . S
C1193 C1189 1.385 . S
C1193 C1192 1.374 . S
C1194 C1191 1.499 . S
C1194 C1195 1.373 . S
C1194 C1196 1.389 . S
C1195 H1174 0.950 . S
C1195 C1194 1.373 . S
C1195 C1211 1.377 . S
C1196 C1194 1.389 . S
C1196 C1197 1.524 . S
C1196 C1210 1.377 . S
C1197 C1196 1.524 . S
C1197 C1198 1.397 . S
C1197 C1202 1.363 . S
C1198 H1175 0.950 . S
C1198 C1197 1.397 . S
C1198 C1199 1.334 . S
C1199 H1176 0.950 . S
C1199 C1198 1.334 . S
C1199 C1200 1.287 . S
C1200 C1199 1.287 . S
C1200 C1201 1.524 . S
C1200 H1219 0.913 . S
C1201 H1177 0.950 . S
C1201 C1200 1.524 . S
C1201 C1202 1.415 . S
C1202 H1178 0.950 . S
C1202 C1197 1.363 . S
C1202 C1201 1.415 . S
C1203 H1179 0.951 . S
C1203 C1204 1.366 . S
C1203 C1205 1.388 . S
C1204 C1203 1.366 . S
C1204 C1208 1.385 . S
C1205 H1180 0.951 . S
C1205 C1203 1.388 . S
C1205 C1206 1.366 . S
C1206 C1205 1.366 . S
C1206 C1207 1.414 . S
C1206 C1209 1.499 . S
C1207 H1181 0.950 . S
C1207 C1206 1.414 . S
C1207 C1208 1.374 . S
C1208 H1182 0.950 . S
C1208 C1204 1.385 . S
C1208 C1207 1.374 . S
C1209 C1206 1.499 . S
C1209 C1210 1.373 . S
C1209 C1211 1.389 . S
C1210 H1183 0.950 . S
C1210 C1196 1.377 . S
C1210 C1209 1.373 . S
C1211 C1195 1.377 . S
C1211 C1209 1.389 . S
C1211 C1212 1.524 . S
C1212 C1211 1.524 . S
C1212 C1213 1.397 . S
C1212 C1217 1.363 . S
C1213 H1184 0.950 . S
C1213 C1212 1.397 . S
C1213 C1214 1.334 . S
C1214 H1185 0.950 . S
C1214 C1213 1.334 . S
C1214 C1215 1.287 1_455 S
C1215 C1214 1.287 1_655 S
C1215 C1216 1.524 . S
C1215 H1218 0.999 . S
C1216 H1186 0.950 . S
C1216 C1215 1.524 . S
C1216 C1217 1.415 1_655 S
C1217 H1187 0.950 . S
C1217 C1212 1.363 . S
C1217 C1216 1.415 1_455 S
H1218 C1215 0.999 . S
H1219 C1200 0.913 . S
H1220 C1238 0.951 . S
H1221 C1240 0.951 . S
H1222 C1242 0.950 . S
H1223 C1243 0.950 . S
H1224 C1245 0.950 . S
H1225 C1248 0.950 . S
H1226 C1249 0.950 . S
H1227 C1251 0.950 . S
H1228 C1252 0.950 . S
H1229 C1253 0.951 . S
H1230 C1255 0.951 . S
H1231 C1257 0.950 . S
H1232 C1258 0.950 . S
H1233 C1260 0.950 . S
H1234 C1263 0.950 . S
H1235 C1264 0.950 . S
H1236 C1266 0.950 . S
H1237 C1267 0.950 . S
C1238 H1220 0.951 . S
C1238 C1239 1.366 . S
C1238 C1240 1.388 . S
C1239 C1238 1.366 . S
C1239 C1243 1.385 . S
C1240 H1221 0.951 . S
C1240 C1238 1.388 . S
C1240 C1241 1.366 . S
C1241 C1240 1.366 . S
C1241 C1242 1.414 . S
C1241 C1244 1.499 . S
C1242 H1222 0.950 . S
C1242 C1241 1.414 . S
C1242 C1243 1.374 . S
C1243 H1223 0.950 . S
C1243 C1239 1.385 . S
C1243 C1242 1.374 . S
C1244 C1241 1.499 . S
C1244 C1245 1.373 . S
C1244 C1246 1.389 . S
C1245 H1224 0.950 . S
C1245 C1244 1.373 . S
C1245 C1261 1.377 . S
C1246 C1244 1.389 . S
C1246 C1247 1.524 . S
C1246 C1260 1.377 . S
C1247 C1246 1.524 . S
C1247 C1248 1.397 . S
C1247 C1252 1.363 . S
C1248 H1225 0.950 . S
C1248 C1247 1.397 . S
C1248 C1249 1.334 . S
C1249 H1226 0.950 . S
C1249 C1248 1.334 . S
C1249 C1250 1.287 . S
C1250 C1249 1.287 . S
C1250 C1251 1.524 . S
C1250 H1269 0.913 . S
C1251 H1227 0.950 . S
C1251 C1250 1.524 . S
C1251 C1252 1.415 . S
C1252 H1228 0.950 . S
C1252 C1247 1.363 . S
C1252 C1251 1.415 . S
C1253 H1229 0.951 . S
C1253 C1254 1.366 . S
C1253 C1255 1.388 . S
C1254 C1253 1.366 . S
C1254 C1258 1.385 . S
C1255 H1230 0.951 . S
C1255 C1253 1.388 . S
C1255 C1256 1.366 . S
C1256 C1255 1.366 . S
C1256 C1257 1.414 . S
C1256 C1259 1.499 . S
C1257 H1231 0.950 . S
C1257 C1256 1.414 . S
C1257 C1258 1.374 . S
C1258 H1232 0.950 . S
C1258 C1254 1.385 . S
C1258 C1257 1.374 . S
C1259 C1256 1.499 . S
C1259 C1260 1.373 . S
C1259 C1261 1.389 . S
C1260 H1233 0.950 . S
C1260 C1246 1.377 . S
C1260 C1259 1.373 . S
C1261 C1245 1.377 . S
C1261 C1259 1.389 . S
C1261 C1262 1.524 . S
C1262 C1261 1.524 . S
C1262 C1263 1.397 . S
C1262 C1267 1.363 . S
C1263 H1234 0.950 . S
C1263 C1262 1.397 . S
C1263 C1264 1.334 . S
C1264 H1235 0.950 . S
C1264 C1263 1.334 . S
C1264 C1265 1.287 . S
C1265 C1264 1.287 . S
C1265 C1266 1.524 . S
C1265 H1268 0.999 . S
C1266 H1236 0.950 . S
C1266 C1265 1.524 . S
C1266 C1267 1.415 . S
C1267 H1237 0.950 . S
C1267 C1262 1.363 . S
C1267 C1266 1.415 . S
H1268 C1265 0.999 . S
H1269 C1250 0.913 . S
H1270 C1288 0.951 . S
H1271 C1290 0.951 . S
H1272 C1292 0.950 . S
H1273 C1293 0.950 . S
H1274 C1295 0.950 . S
H1275 C1298 0.950 . S
H1276 C1299 0.950 . S
H1277 C1301 0.950 . S
H1278 C1302 0.950 . S
H1279 C1303 0.951 . S
H1280 C1305 0.951 . S
H1281 C1307 0.950 . S
H1282 C1308 0.950 . S
H1283 C1310 0.934 1_545 S
H1284 C1313 0.950 . S
H1285 C1314 0.950 . S
H1286 C1316 0.950 . S
H1287 C1317 0.947 . S
C1288 H1270 0.951 . S
C1288 C1289 1.366 . S
C1288 C1290 1.388 . S
C1289 C1288 1.366 . S
C1289 C1293 1.385 1_655 S
C1290 H1271 0.951 . S
C1290 C1288 1.388 . S
C1290 C1291 1.366 1_655 S
C1291 C1290 1.366 1_455 S
C1291 C1292 1.414 . S
C1291 C1294 1.499 . S
C1292 H1272 0.950 . S
C1292 C1291 1.414 . S
C1292 C1293 1.374 . S
C1293 H1273 0.950 . S
C1293 C1289 1.385 1_455 S
C1293 C1292 1.374 . S
C1294 C1291 1.499 . S
C1294 C1295 1.373 . S
C1294 C1296 1.389 1_455 S
C1295 H1274 0.950 . S
C1295 C1294 1.373 . S
C1295 C1311 1.377 1_565 S
C1296 C1294 1.389 1_655 S
C1296 C1297 1.524 . S
C1296 C1310 1.407 . S
C1297 C1296 1.524 . S
C1297 C1298 1.397 . S
C1297 C1302 1.363 . S
C1298 H1275 0.950 . S
C1298 C1297 1.397 . S
C1298 C1299 1.334 . S
C1299 H1276 0.950 . S
C1299 C1298 1.334 . S
C1299 C1300 1.287 . S
C1300 C1299 1.287 . S
C1300 C1301 1.524 . S
C1300 H1319 0.913 . S
C1301 H1277 0.950 . S
C1301 C1300 1.524 . S
C1301 C1302 1.415 . S
C1302 H1278 0.950 . S
C1302 C1297 1.363 . S
C1302 C1301 1.415 . S
C1303 H1279 0.951 . S
C1303 C1304 1.366 . S
C1303 C1305 1.388 . S
C1304 C1303 1.366 . S
C1304 C1308 1.385 1_455 S
C1305 H1280 0.951 . S
C1305 C1303 1.388 . S
C1305 C1306 1.366 . S
C1306 C1305 1.366 . S
C1306 C1307 1.414 1_455 S
C1306 C1309 1.499 . S
C1307 H1281 0.950 . S
C1307 C1306 1.414 1_655 S
C1307 C1308 1.374 . S
C1308 H1282 0.950 . S
C1308 C1304 1.385 1_655 S
C1308 C1307 1.374 . S
C1309 C1306 1.499 . S
C1309 C1310 1.360 1_445 S
C1309 C1311 1.389 . S
C1310 H1283 0.934 1_565 S
C1310 C1296 1.407 . S
C1310 C1309 1.360 1_665 S
C1311 C1295 1.377 1_545 S
C1311 C1309 1.389 . S
C1311 C1312 1.524 . S
C1312 C1311 1.524 . S
C1312 C1313 1.397 . S
C1312 C1317 1.363 . S
C1313 H1284 0.950 . S
C1313 C1312 1.397 . S
C1313 C1314 1.334 . S
C1314 H1285 0.950 . S
C1314 C1313 1.334 . S
C1314 C1315 1.287 . S
C1315 C1314 1.287 . S
C1315 C1316 1.524 . S
C1315 H1318 0.999 . S
C1316 H1286 0.950 . S
C1316 C1315 1.524 . S
C1316 C1317 1.415 . S
C1317 H1287 0.947 . S
C1317 C1312 1.363 . S
C1317 C1316 1.415 . S
H1318 C1315 0.999 . S
H1319 C1300 0.913 . S
H1320 C1338 0.951 . S
H1321 C1340 0.951 . S
H1322 C1342 0.950 . S
H1323 C1343 0.950 . S
H1324 C1345 0.950 . S
H1325 C1348 0.950 . S
H1326 C1349 0.950 . S
H1327 C1351 0.950 . S
H1328 C1352 0.950 . S
H1329 C1353 0.951 . S
H1330 C1355 0.951 . S
H1331 C1357 0.950 . S
H1332 C1358 0.950 . S
H1333 C1360 0.950 . S
H1334 C1363 0.950 . S
H1335 C1364 0.950 . S
H1336 C1366 0.950 . S
H1337 C1367 0.950 . S
C1338 H1320 0.951 . S
C1338 C1339 1.366 . S
C1338 C1340 1.388 . S
C1339 C1338 1.366 . S
C1339 C1343 1.385 . S
C1340 H1321 0.951 . S
C1340 C1338 1.388 . S
C1340 C1341 1.366 . S
C1341 C1340 1.366 . S
C1341 C1342 1.414 . S
C1341 C1344 1.499 . S
C1342 H1322 0.950 . S
C1342 C1341 1.414 . S
C1342 C1343 1.374 . S
C1343 H1323 0.950 . S
C1343 C1339 1.385 . S
C1343 C1342 1.374 . S
C1344 C1341 1.499 . S
C1344 C1345 1.373 . S
C1344 C1346 1.389 . S
C1345 H1324 0.950 . S
C1345 C1344 1.373 . S
C1345 C1361 1.377 . S
C1346 C1344 1.389 . S
C1346 C1347 1.524 . S
C1346 C1360 1.377 . S
C1347 C1346 1.524 . S
C1347 C1348 1.397 . S
C1347 C1352 1.363 . S
C1348 H1325 0.950 . S
C1348 C1347 1.397 . S
C1348 C1349 1.334 . S
C1349 H1326 0.950 . S
C1349 C1348 1.334 . S
C1349 C1350 1.287 . S
C1350 C1349 1.287 . S
C1350 C1351 1.524 . S
C1350 H1369 0.913 . S
C1351 H1327 0.950 . S
C1351 C1350 1.524 . S
C1351 C1352 1.415 . S
C1352 H1328 0.950 . S
C1352 C1347 1.363 . S
C1352 C1351 1.415 . S
C1353 H1329 0.951 . S
C1353 C1354 1.366 . S
C1353 C1355 1.388 . S
C1354 C1353 1.366 . S
C1354 C1358 1.385 . S
C1355 H1330 0.951 . S
C1355 C1353 1.388 . S
C1355 C1356 1.366 . S
C1356 C1355 1.366 . S
C1356 C1357 1.414 . S
C1356 C1359 1.499 . S
C1357 H1331 0.950 . S
C1357 C1356 1.414 . S
C1357 C1358 1.374 . S
C1358 H1332 0.950 . S
C1358 C1354 1.385 . S
C1358 C1357 1.374 . S
C1359 C1356 1.499 . S
C1359 C1360 1.373 . S
C1359 C1361 1.389 . S
C1360 H1333 0.950 . S
C1360 C1346 1.377 . S
C1360 C1359 1.373 . S
C1361 C1345 1.377 . S
C1361 C1359 1.389 . S
C1361 C1362 1.524 . S
C1362 C1361 1.524 . S
C1362 C1363 1.397 . S
C1362 C1367 1.363 . S
C1363 H1334 0.950 . S
C1363 C1362 1.397 . S
C1363 C1364 1.334 . S
C1364 H1335 0.950 . S
C1364 C1363 1.334 . S
C1364 C1365 1.287 . S
C1365 C1364 1.287 . S
C1365 C1366 1.524 . S
C1365 H1368 0.999 . S
C1366 H1336 0.950 . S
C1366 C1365 1.524 . S
C1366 C1367 1.415 . S
C1367 H1337 0.950 . S
C1367 C1362 1.363 . S
C1367 C1366 1.415 . S
H1368 C1365 0.999 . S
H1369 C1350 0.913 . S
H1370 C1388 0.951 . S
H1371 C1390 0.951 . S
H1372 C1392 0.950 . S
H1373 C1393 0.950 . S
H1374 C1395 0.950 . S
H1375 C1398 0.950 . S
H1376 C1399 0.950 . S
H1377 C1401 0.950 . S
H1378 C1402 0.950 . S
H1379 C1403 0.951 . S
H1380 C1405 0.951 . S
H1381 C1407 0.950 . S
H1382 C1408 0.950 . S
H1383 C1410 0.950 . S
H1384 C1413 0.950 . S
H1385 C1414 0.950 . S
H1386 C1416 0.950 . S
H1387 C1417 0.950 . S
C1388 H1370 0.951 . S
C1388 C1389 1.366 . S
C1388 C1390 1.388 . S
C1389 C1388 1.366 . S
C1389 C1393 1.385 . S
C1390 H1371 0.951 . S
C1390 C1388 1.388 . S
C1390 C1391 1.366 . S
C1391 C1390 1.366 . S
C1391 C1392 1.414 . S
C1391 C1394 1.499 . S
C1392 H1372 0.950 . S
C1392 C1391 1.414 . S
C1392 C1393 1.374 . S
C1393 H1373 0.950 . S
C1393 C1389 1.385 . S
C1393 C1392 1.374 . S
C1394 C1391 1.499 . S
C1394 C1395 1.373 . S
C1394 C1396 1.389 . S
C1395 H1374 0.950 . S
C1395 C1394 1.373 . S
C1395 C1411 1.377 . S
C1396 C1394 1.389 . S
C1396 C1397 1.524 . S
C1396 C1410 1.377 . S
C1397 C1396 1.524 . S
C1397 C1398 1.397 . S
C1397 C1402 1.363 . S
C1398 H1375 0.950 . S
C1398 C1397 1.397 . S
C1398 C1399 1.334 . S
C1399 H1376 0.950 . S
C1399 C1398 1.334 . S
C1399 C1400 1.287 . S
C1400 C1399 1.287 . S
C1400 C1401 1.524 . S
C1400 H1419 0.913 . S
C1401 H1377 0.950 . S
C1401 C1400 1.524 . S
C1401 C1402 1.415 . S
C1402 H1378 0.950 . S
C1402 C1397 1.363 . S
C1402 C1401 1.415 . S
C1403 H1379 0.951 . S
C1403 C1404 1.366 . S
C1403 C1405 1.388 . S
C1404 C1403 1.366 . S
C1404 C1408 1.385 . S
C1405 H1380 0.951 . S
C1405 C1403 1.388 . S
C1405 C1406 1.366 . S
C1406 C1405 1.366 . S
C1406 C1407 1.414 . S
C1406 C1409 1.499 . S
C1407 H1381 0.950 . S
C1407 C1406 1.414 . S
C1407 C1408 1.374 . S
C1408 H1382 0.950 . S
C1408 C1404 1.385 . S
C1408 C1407 1.374 . S
C1409 C1406 1.499 . S
C1409 C1410 1.373 . S
C1409 C1411 1.389 . S
C1410 H1383 0.950 . S
C1410 C1396 1.377 . S
C1410 C1409 1.373 . S
C1411 C1395 1.377 . S
C1411 C1409 1.389 . S
C1411 C1412 1.524 . S
C1412 C1411 1.524 . S
C1412 C1413 1.397 . S
C1412 C1417 1.363 . S
C1413 H1384 0.950 . S
C1413 C1412 1.397 . S
C1413 C1414 1.334 . S
C1414 H1385 0.950 . S
C1414 C1413 1.334 . S
C1414 C1415 1.287 . S
C1415 C1414 1.287 . S
C1415 C1416 1.524 . S
C1415 H1418 0.999 . S
C1416 H1386 0.950 . S
C1416 C1415 1.524 . S
C1416 C1417 1.415 . S
C1417 H1387 0.950 . S
C1417 C1412 1.363 . S
C1417 C1416 1.415 . S
H1418 C1415 0.999 . S
H1419 C1400 0.913 . S
H1420 C1438 0.951 . S
H1421 C1440 0.951 . S
H1422 C1442 0.950 . S
H1423 C1443 0.950 . S
H1424 C1445 0.950 . S
H1425 C1448 0.950 . S
H1426 C1449 0.950 . S
H1427 C1451 0.950 . S
H1428 C1452 0.950 . S
H1429 C1453 0.951 . S
H1430 C1455 0.951 . S
H1431 C1457 0.950 . S
H1432 C1458 0.950 . S
H1433 C1460 0.950 . S
H1434 C1463 0.950 . S
H1435 C1464 0.950 . S
H1436 C1466 0.950 . S
H1437 C1467 0.950 . S
C1438 H1420 0.951 . S
C1438 C1439 1.366 . S
C1438 C1440 1.388 . S
C1439 C1438 1.366 . S
C1439 C1443 1.385 . S
C1440 H1421 0.951 . S
C1440 C1438 1.388 . S
C1440 C1441 1.366 . S
C1441 C1440 1.366 . S
C1441 C1442 1.414 . S
C1441 C1444 1.499 . S
C1442 H1422 0.950 . S
C1442 C1441 1.414 . S
C1442 C1443 1.374 . S
C1443 H1423 0.950 . S
C1443 C1439 1.385 . S
C1443 C1442 1.374 . S
C1444 C1441 1.499 . S
C1444 C1445 1.373 . S
C1444 C1446 1.389 . S
C1445 H1424 0.950 . S
C1445 C1444 1.373 . S
C1445 C1461 1.377 . S
C1446 C1444 1.389 . S
C1446 C1447 1.524 . S
C1446 C1460 1.377 . S
C1447 C1446 1.524 . S
C1447 C1448 1.397 . S
C1447 C1452 1.363 . S
C1448 H1425 0.950 . S
C1448 C1447 1.397 . S
C1448 C1449 1.334 . S
C1449 H1426 0.950 . S
C1449 C1448 1.334 . S
C1449 C1450 1.287 . S
C1450 C1449 1.287 . S
C1450 C1451 1.524 . S
C1450 H1469 0.913 . S
C1451 H1427 0.950 . S
C1451 C1450 1.524 . S
C1451 C1452 1.415 . S
C1452 H1428 0.950 . S
C1452 C1447 1.363 . S
C1452 C1451 1.415 . S
C1453 H1429 0.951 . S
C1453 C1454 1.366 . S
C1453 C1455 1.388 . S
C1454 C1453 1.366 . S
C1454 C1458 1.385 . S
C1455 H1430 0.951 . S
C1455 C1453 1.388 . S
C1455 C1456 1.366 . S
C1456 C1455 1.366 . S
C1456 C1457 1.414 . S
C1456 C1459 1.499 . S
C1457 H1431 0.950 . S
C1457 C1456 1.414 . S
C1457 C1458 1.374 . S
C1458 H1432 0.950 . S
C1458 C1454 1.385 . S
C1458 C1457 1.374 . S
C1459 C1456 1.499 . S
C1459 C1460 1.373 . S
C1459 C1461 1.389 . S
C1460 H1433 0.950 . S
C1460 C1446 1.377 . S
C1460 C1459 1.373 . S
C1461 C1445 1.377 . S
C1461 C1459 1.389 . S
C1461 C1462 1.524 . S
C1462 C1461 1.524 . S
C1462 C1463 1.397 . S
C1462 C1467 1.363 . S
C1463 H1434 0.950 . S
C1463 C1462 1.397 . S
C1463 C1464 1.334 . S
C1464 H1435 0.950 . S
C1464 C1463 1.334 . S
C1464 C1465 1.287 . S
C1465 C1464 1.287 . S
C1465 C1466 1.524 . S
C1465 H1468 0.999 . S
C1466 H1436 0.950 . S
C1466 C1465 1.524 . S
C1466 C1467 1.415 . S
C1467 H1437 0.950 . S
C1467 C1462 1.363 . S
C1467 C1466 1.415 . S
H1468 C1465 0.999 . S
H1469 C1450 0.913 . S
H1470 C1488 0.951 . S
H1471 C1490 0.951 . S
H1472 C1492 0.950 . S
H1473 C1493 0.950 . S
H1474 C1495 0.950 . S
H1475 C1498 0.950 . S
H1476 C1499 0.950 . S
H1477 C1501 0.950 . S
H1478 C1502 0.950 . S
H1479 C1503 0.951 . S
H1480 C1505 0.951 . S
H1481 C1507 0.950 . S
H1482 C1508 0.950 . S
H1483 C1510 0.950 . S
H1484 C1513 0.950 . S
H1485 C1514 0.950 . S
H1486 C1516 0.950 . S
H1487 C1517 0.950 . S
C1488 H1470 0.951 . S
C1488 C1489 1.366 . S
C1488 C1490 1.388 . S
C1489 C1488 1.366 . S
C1489 C1493 1.385 . S
C1490 H1471 0.951 . S
C1490 C1488 1.388 . S
C1490 C1491 1.366 . S
C1491 C1490 1.366 . S
C1491 C1492 1.414 . S
C1491 C1494 1.499 . S
C1492 H1472 0.950 . S
C1492 C1491 1.414 . S
C1492 C1493 1.374 . S
C1493 H1473 0.950 . S
C1493 C1489 1.385 . S
C1493 C1492 1.374 . S
C1494 C1491 1.499 . S
C1494 C1495 1.373 . S
C1494 C1496 1.389 . S
C1495 H1474 0.950 . S
C1495 C1494 1.373 . S
C1495 C1511 1.377 . S
C1496 C1494 1.389 . S
C1496 C1497 1.524 . S
C1496 C1510 1.377 . S
C1497 C1496 1.524 . S
C1497 C1498 1.397 . S
C1497 C1502 1.363 . S
C1498 H1475 0.950 . S
C1498 C1497 1.397 . S
C1498 C1499 1.334 . S
C1499 H1476 0.950 . S
C1499 C1498 1.334 . S
C1499 C1500 1.287 . S
C1500 C1499 1.287 . S
C1500 C1501 1.524 . S
C1500 H1519 0.913 . S
C1501 H1477 0.950 . S
C1501 C1500 1.524 . S
C1501 C1502 1.415 . S
C1502 H1478 0.950 . S
C1502 C1497 1.363 . S
C1502 C1501 1.415 . S
C1503 H1479 0.951 . S
C1503 C1504 1.366 . S
C1503 C1505 1.388 . S
C1504 C1503 1.366 . S
C1504 C1508 1.385 . S
C1505 H1480 0.951 . S
C1505 C1503 1.388 . S
C1505 C1506 1.366 . S
C1506 C1505 1.366 . S
C1506 C1507 1.414 . S
C1506 C1509 1.499 . S
C1507 H1481 0.950 . S
C1507 C1506 1.414 . S
C1507 C1508 1.374 . S
C1508 H1482 0.950 . S
C1508 C1504 1.385 . S
C1508 C1507 1.374 . S
C1509 C1506 1.499 . S
C1509 C1510 1.373 . S
C1509 C1511 1.389 . S
C1510 H1483 0.950 . S
C1510 C1496 1.377 . S
C1510 C1509 1.373 . S
C1511 C1495 1.377 . S
C1511 C1509 1.389 . S
C1511 C1512 1.524 . S
C1512 C1511 1.524 . S
C1512 C1513 1.397 . S
C1512 C1517 1.363 . S
C1513 H1484 0.950 . S
C1513 C1512 1.397 . S
C1513 C1514 1.334 . S
C1514 H1485 0.950 . S
C1514 C1513 1.334 . S
C1514 C1515 1.287 . S
C1515 C1514 1.287 . S
C1515 C1516 1.524 . S
C1515 H1518 0.999 . S
C1516 H1486 0.950 . S
C1516 C1515 1.524 . S
C1516 C1517 1.415 . S
C1517 H1487 0.950 . S
C1517 C1512 1.363 . S
C1517 C1516 1.415 . S
H1518 C1515 0.999 . S
H1519 C1500 0.913 . S
H1520 C1538 0.951 . S
H1521 C1540 0.951 . S
H1522 C1542 0.950 . S
H1523 C1543 0.950 . S
H1524 C1545 0.950 . S
H1525 C1548 0.950 . S
H1526 C1549 0.950 . S
H1527 C1551 0.950 . S
H1528 C1552 0.950 . S
H1529 C1553 0.951 . S
H1530 C1555 0.951 . S
H1531 C1557 0.950 . S
H1532 C1558 0.950 . S
H1533 C1560 0.950 . S
H1534 C1563 0.950 . S
H1535 C1564 0.950 . S
H1536 C1566 0.950 . S
H1537 C1567 0.950 . S
C1538 H1520 0.951 . S
C1538 C1539 1.366 . S
C1538 C1540 1.388 . S
C1539 C1538 1.366 . S
C1539 C1543 1.385 . S
C1540 H1521 0.951 . S
C1540 C1538 1.388 . S
C1540 C1541 1.366 . S
C1541 C1540 1.366 . S
C1541 C1542 1.414 . S
C1541 C1544 1.499 . S
C1542 H1522 0.950 . S
C1542 C1541 1.414 . S
C1542 C1543 1.374 . S
C1543 H1523 0.950 . S
C1543 C1539 1.385 . S
C1543 C1542 1.374 . S
C1544 C1541 1.499 . S
C1544 C1545 1.373 . S
C1544 C1546 1.389 . S
C1545 H1524 0.950 . S
C1545 C1544 1.373 . S
C1545 C1561 1.377 . S
C1546 C1544 1.389 . S
C1546 C1547 1.524 . S
C1546 C1560 1.377 . S
C1547 C1546 1.524 . S
C1547 C1548 1.397 . S
C1547 C1552 1.363 . S
C1548 H1525 0.950 . S
C1548 C1547 1.397 . S
C1548 C1549 1.334 . S
C1549 H1526 0.950 . S
C1549 C1548 1.334 . S
C1549 C1550 1.287 . S
C1550 C1549 1.287 . S
C1550 C1551 1.524 . S
C1550 H1569 0.913 . S
C1551 H1527 0.950 . S
C1551 C1550 1.524 . S
C1551 C1552 1.415 . S
C1552 H1528 0.950 . S
C1552 C1547 1.363 . S
C1552 C1551 1.415 . S
C1553 H1529 0.951 . S
C1553 C1554 1.366 . S
C1553 C1555 1.388 . S
C1554 C1553 1.366 . S
C1554 C1558 1.385 . S
C1555 H1530 0.951 . S
C1555 C1553 1.388 . S
C1555 C1556 1.366 . S
C1556 C1555 1.366 . S
C1556 C1557 1.414 . S
C1556 C1559 1.499 . S
C1557 H1531 0.950 . S
C1557 C1556 1.414 . S
C1557 C1558 1.374 . S
C1558 H1532 0.950 . S
C1558 C1554 1.385 . S
C1558 C1557 1.374 . S
C1559 C1556 1.499 . S
C1559 C1560 1.373 . S
C1559 C1561 1.389 . S
C1560 H1533 0.950 . S
C1560 C1546 1.377 . S
C1560 C1559 1.373 . S
C1561 C1545 1.377 . S
C1561 C1559 1.389 . S
C1561 C1562 1.524 . S
C1562 C1561 1.524 . S
C1562 C1563 1.397 . S
C1562 C1567 1.363 . S
C1563 H1534 0.950 . S
C1563 C1562 1.397 . S
C1563 C1564 1.334 . S
C1564 H1535 0.950 . S
C1564 C1563 1.334 . S
C1564 C1565 1.287 . S
C1565 C1564 1.287 . S
C1565 C1566 1.524 . S
C1565 H1568 0.999 . S
C1566 H1536 0.950 . S
C1566 C1565 1.524 . S
C1566 C1567 1.415 . S
C1567 H1537 0.950 . S
C1567 C1562 1.363 . S
C1567 C1566 1.415 . S
H1568 C1565 0.999 . S
H1569 C1550 0.913 . S
H1570 C1588 0.951 . S
H1571 C1590 0.951 . S
H1572 C1592 0.950 . S
H1573 C1593 0.950 . S
H1574 C1595 0.950 . S
H1575 C1598 0.950 . S
H1576 C1599 0.950 . S
H1577 C1601 0.950 . S
H1578 C1602 0.950 . S
H1579 C1603 0.951 . S
H1580 C1605 0.951 . S
H1581 C1607 0.950 . S
H1582 C1608 0.950 . S
H1583 C1610 0.950 . S
H1584 C1613 0.950 . S
H1585 C1614 0.950 . S
H1586 C1616 0.950 . S
H1587 C1617 0.950 . S
C1588 H1570 0.951 . S
C1588 C1589 1.366 . S
C1588 C1590 1.388 . S
C1589 C1588 1.366 . S
C1589 C1593 1.385 . S
C1590 H1571 0.951 . S
C1590 C1588 1.388 . S
C1590 C1591 1.366 . S
C1591 C1590 1.366 . S
C1591 C1592 1.414 . S
C1591 C1594 1.499 . S
C1592 H1572 0.950 . S
C1592 C1591 1.414 . S
C1592 C1593 1.374 . S
C1593 H1573 0.950 . S
C1593 C1589 1.385 . S
C1593 C1592 1.374 . S
C1594 C1591 1.499 . S
C1594 C1595 1.373 . S
C1594 C1596 1.389 . S
C1595 H1574 0.950 . S
C1595 C1594 1.373 . S
C1595 C1611 1.377 . S
C1596 C1594 1.389 . S
C1596 C1597 1.524 . S
C1596 C1610 1.377 . S
C1597 C1596 1.524 . S
C1597 C1598 1.397 . S
C1597 C1602 1.363 . S
C1598 H1575 0.950 . S
C1598 C1597 1.397 . S
C1598 C1599 1.334 . S
C1599 H1576 0.950 . S
C1599 C1598 1.334 . S
C1599 C1600 1.287 . S
C1600 C1599 1.287 . S
C1600 C1601 1.524 . S
C1600 H1619 0.913 . S
C1601 H1577 0.950 . S
C1601 C1600 1.524 . S
C1601 C1602 1.415 . S
C1602 H1578 0.950 . S
C1602 C1597 1.363 . S
C1602 C1601 1.415 . S
C1603 H1579 0.951 . S
C1603 C1604 1.366 . S
C1603 C1605 1.388 . S
C1604 C1603 1.366 . S
C1604 C1608 1.385 . S
C1605 H1580 0.951 . S
C1605 C1603 1.388 . S
C1605 C1606 1.366 . S
C1606 C1605 1.366 . S
C1606 C1607 1.414 . S
C1606 C1609 1.499 . S
C1607 H1581 0.950 . S
C1607 C1606 1.414 . S
C1607 C1608 1.374 . S
C1608 H1582 0.950 . S
C1608 C1604 1.385 . S
C1608 C1607 1.374 . S
C1609 C1606 1.499 . S
C1609 C1610 1.373 . S
C1609 C1611 1.389 . S
C1610 H1583 0.950 . S
C1610 C1596 1.377 . S
C1610 C1609 1.373 . S
C1611 C1595 1.377 . S
C1611 C1609 1.389 . S
C1611 C1612 1.524 . S
C1612 C1611 1.524 . S
C1612 C1613 1.397 . S
C1612 C1617 1.363 . S
C1613 H1584 0.950 . S
C1613 C1612 1.397 . S
C1613 C1614 1.334 . S
C1614 H1585 0.950 . S
C1614 C1613 1.334 . S
C1614 C1615 1.287 . S
C1615 C1614 1.287 . S
C1615 C1616 1.524 . S
C1615 H1618 0.999 . S
C1616 H1586 0.950 . S
C1616 C1615 1.524 . S
C1616 C1617 1.415 . S
C1617 H1587 0.950 . S
C1617 C1612 1.363 . S
C1617 C1616 1.415 . S
H1618 C1615 0.999 . S
H1619 C1600 0.913 . S
H1620 C1638 0.951 . S
H1621 C1640 0.951 . S
H1622 C1642 0.950 . S
H1623 C1643 0.950 . S
H1624 C1645 0.950 . S
H1625 C1648 0.950 . S
H1626 C1649 0.950 . S
H1627 C1651 0.950 1_554 S
H1628 C1652 0.950 . S
H1629 C1653 0.951 . S
H1630 C1655 0.951 . S
H1631 C1657 0.950 . S
H1632 C1658 0.950 . S
H1633 C1660 0.950 . S
H1634 C1663 0.950 . S
H1635 C1664 0.950 . S
H1636 C1666 0.950 . S
H1637 C1667 0.950 . S
C1638 H1620 0.951 . S
C1638 C1639 1.366 . S
C1638 C1640 1.388 . S
C1639 C1638 1.366 . S
C1639 C1643 1.385 . S
C1640 H1621 0.951 . S
C1640 C1638 1.388 . S
C1640 C1641 1.366 . S
C1641 C1640 1.366 . S
C1641 C1642 1.414 . S
C1641 C1644 1.499 . S
C1642 H1622 0.950 . S
C1642 C1641 1.414 . S
C1642 C1643 1.374 . S
C1643 H1623 0.950 . S
C1643 C1639 1.385 . S
C1643 C1642 1.374 . S
C1644 C1641 1.499 . S
C1644 C1645 1.373 . S
C1644 C1646 1.389 . S
C1645 H1624 0.950 . S
C1645 C1644 1.373 . S
C1645 C1661 1.377 . S
C1646 C1644 1.389 . S
C1646 C1647 1.524 . S
C1646 C1660 1.377 . S
C1647 C1646 1.524 . S
C1647 C1648 1.397 . S
C1647 C1652 1.363 . S
C1648 H1625 0.950 . S
C1648 C1647 1.397 . S
C1648 C1649 1.334 . S
C1649 H1626 0.950 . S
C1649 C1648 1.334 . S
C1649 C1650 1.287 . S
C1650 C1649 1.287 . S
C1650 C1651 1.524 . S
C1650 H1669 0.918 . S
C1651 H1627 0.950 1_556 S
C1651 C1650 1.524 . S
C1651 C1652 1.415 . S
C1652 H1628 0.950 . S
C1652 C1647 1.363 . S
C1652 C1651 1.415 . S
C1653 H1629 0.951 . S
C1653 C1654 1.366 . S
C1653 C1655 1.388 . S
C1654 C1653 1.366 . S
C1654 C1658 1.385 . S
C1655 H1630 0.951 . S
C1655 C1653 1.388 . S
C1655 C1656 1.366 . S
C1656 C1655 1.366 . S
C1656 C1657 1.414 . S
C1656 C1659 1.499 . S
C1657 H1631 0.950 . S
C1657 C1656 1.414 . S
C1657 C1658 1.374 . S
C1658 H1632 0.950 . S
C1658 C1654 1.385 . S
C1658 C1657 1.374 . S
C1659 C1656 1.499 . S
C1659 C1660 1.373 . S
C1659 C1661 1.389 . S
C1660 H1633 0.950 . S
C1660 C1646 1.377 . S
C1660 C1659 1.373 . S
C1661 C1645 1.377 . S
C1661 C1659 1.389 . S
C1661 C1662 1.524 . S
C1662 C1661 1.524 . S
C1662 C1663 1.397 . S
C1662 C1667 1.363 . S
C1663 H1634 0.950 . S
C1663 C1662 1.397 . S
C1663 C1664 1.334 . S
C1664 H1635 0.950 . S
C1664 C1663 1.334 . S
C1664 C1665 1.287 . S
C1665 C1664 1.287 . S
C1665 C1666 1.524 . S
C1665 H1668 0.999 . S
C1666 H1636 0.950 . S
C1666 C1665 1.524 . S
C1666 C1667 1.415 . S
C1667 H1637 0.950 . S
C1667 C1662 1.363 . S
C1667 C1666 1.415 . S
H1668 C1665 0.999 . S
H1669 C1650 0.918 . S
C504 C174 1.497 . S
C489 C11 1.351 . S
C554 C243 1.679 . S
C539 C25 1.644 . S
C604 C181 1.166 . S
C589 C40 1.132 . S
C654 C244 1.405 1_655 S
C639 C59 1.355 . S
C704 C297 1.913 . S
C689 C6 1.897 . S
C754 C333 1.809 . S
C739 C21 1.746 . S
C789 C49 1.573 . S
C804 C393 1.653 . S
C854 C456 1.519 . S
C839 C68 1.416 . S
C904 C296 1.881 . S
C889 C30 1.673 . S
C939 C44 1.687 . S
C954 C340 1.695 . S
C1004 C386 1.770 . S
C989 C63 1.774 . S
C1054 C455 1.695 . S
C1039 C2 1.671 . S
C1089 C78 1.725 . S
C1104 C234 1.766 . S
C1154 C191 1.536 . S
C1139 C97 1.467 . S
C1189 C120 1.717 . S
C1204 C227 1.727 . S
C1239 C139 1.724 . S
C1254 C190 1.733 . S
C1304 C402 1.560 . S
C1289 C87 1.440 . S
C1354 C446 1.632 . S
C1339 C101 1.602 . S
C1404 C280 1.633 . S
C1389 C125 1.495 . S
C1439 C144 1.701 . S
C1454 C349 1.795 . S
C1504 C403 1.756 . S
C1489 C106 1.529 . S
C1554 C439 1.643 1_556 S
C1539 C116 1.613 . S
C1604 C287 1.630 . S
C1589 C135 1.596 . S
C1639 C82 1.786 . S
C1654 C350 1.774 . S
