# Generated by pormake.
# Topology ptr, (4,4)-cn, num edge types: 1
# Building blocks:
#     Node 0, Type 0, BuildingBlock: GALJAG_clean_sbu_0, # of connection points: 4
#     Node 1, Type 0, BuildingBlock: GALJAG_clean_sbu_0, # of connection points: 4
#     Node 2, Type 0, BuildingBlock: GALJAG_clean_sbu_0, # of connection points: 4
#     Node 3, Type 0, BuildingBlock: GALJAG_clean_sbu_0, # of connection points: 4
#     Node 4, Type 0, BuildingBlock: GALJAG_clean_sbu_0, # of connection points: 4
#     Node 5, Type 0, BuildingBlock: GALJAG_clean_sbu_0, # of connection points: 4
#     Node 6, Type 0, BuildingBlock: GALJAG_clean_sbu_0, # of connection points: 4
#     Node 7, Type 0, BuildingBlock: GALJAG_clean_sbu_0, # of connection points: 4
#     Node 8, Type 0, BuildingBlock: GALJAG_clean_sbu_0, # of connection points: 4
#     Node 9, Type 0, BuildingBlock: GALJAG_clean_sbu_0, # of connection points: 4
#     Node 10, Type 0, BuildingBlock: GALJAG_clean_sbu_0, # of connection points: 4
#     Node 11, Type 0, BuildingBlock: GALJAG_clean_sbu_0, # of connection points: 4
#     Node 12, Type 0, BuildingBlock: GALJAG_clean_sbu_0, # of connection points: 4
#     Node 13, Type 0, BuildingBlock: GALJAG_clean_sbu_0, # of connection points: 4
#     Node 14, Type 0, BuildingBlock: GALJAG_clean_sbu_0, # of connection points: 4
#     Node 15, Type 0, BuildingBlock: GALJAG_clean_sbu_0, # of connection points: 4
#     Node 16, Type 0, BuildingBlock: GALJAG_clean_sbu_0, # of connection points: 4
#     Node 17, Type 0, BuildingBlock: GALJAG_clean_sbu_0, # of connection points: 4
#     Node 18, Type 1, BuildingBlock: NAWXER_clean_linker_0, # of connection points: 4
#     Node 19, Type 1, BuildingBlock: NAWXER_clean_linker_0, # of connection points: 4
#     Node 20, Type 1, BuildingBlock: NAWXER_clean_linker_0, # of connection points: 4
#     Node 21, Type 1, BuildingBlock: NAWXER_clean_linker_0, # of connection points: 4
#     Node 22, Type 1, BuildingBlock: NAWXER_clean_linker_0, # of connection points: 4
#     Node 23, Type 1, BuildingBlock: NAWXER_clean_linker_0, # of connection points: 4
#     Node 24, Type 1, BuildingBlock: NAWXER_clean_linker_0, # of connection points: 4
#     Node 25, Type 1, BuildingBlock: NAWXER_clean_linker_0, # of connection points: 4
#     Node 26, Type 1, BuildingBlock: NAWXER_clean_linker_0, # of connection points: 4
#     Node 27, Type 1, BuildingBlock: NAWXER_clean_linker_0, # of connection points: 4
#     Node 28, Type 1, BuildingBlock: NAWXER_clean_linker_0, # of connection points: 4
#     Node 29, Type 1, BuildingBlock: NAWXER_clean_linker_0, # of connection points: 4
#     Node 30, Type 1, BuildingBlock: NAWXER_clean_linker_0, # of connection points: 4
#     Node 31, Type 1, BuildingBlock: NAWXER_clean_linker_0, # of connection points: 4
#     Node 32, Type 1, BuildingBlock: NAWXER_clean_linker_0, # of connection points: 4
#     Node 33, Type 1, BuildingBlock: NAWXER_clean_linker_0, # of connection points: 4
#     Node 34, Type 1, BuildingBlock: NAWXER_clean_linker_0, # of connection points: 4
#     Node 35, Type 1, BuildingBlock: NAWXER_clean_linker_0, # of connection points: 4
#     Edge 36, Type (0, 1), BuildingBlock: OJICUG_clean_linker_0, # of connection points: 2
#     Edge 37, Type (0, 1), BuildingBlock: OJICUG_clean_linker_0, # of connection points: 2
#     Edge 38, Type (0, 1), BuildingBlock: OJICUG_clean_linker_0, # of connection points: 2
#     Edge 39, Type (0, 1), BuildingBlock: OJICUG_clean_linker_0, # of connection points: 2
#     Edge 40, Type (0, 1), BuildingBlock: OJICUG_clean_linker_0, # of connection points: 2
#     Edge 41, Type (0, 1), BuildingBlock: OJICUG_clean_linker_0, # of connection points: 2
#     Edge 42, Type (0, 1), BuildingBlock: OJICUG_clean_linker_0, # of connection points: 2
#     Edge 43, Type (0, 1), BuildingBlock: OJICUG_clean_linker_0, # of connection points: 2
#     Edge 44, Type (0, 1), BuildingBlock: OJICUG_clean_linker_0, # of connection points: 2
#     Edge 45, Type (0, 1), BuildingBlock: OJICUG_clean_linker_0, # of connection points: 2
#     Edge 46, Type (0, 1), BuildingBlock: OJICUG_clean_linker_0, # of connection points: 2
#     Edge 47, Type (0, 1), BuildingBlock: OJICUG_clean_linker_0, # of connection points: 2
#     Edge 48, Type (0, 1), BuildingBlock: OJICUG_clean_linker_0, # of connection points: 2
#     Edge 49, Type (0, 1), BuildingBlock: OJICUG_clean_linker_0, # of connection points: 2
#     Edge 50, Type (0, 1), BuildingBlock: OJICUG_clean_linker_0, # of connection points: 2
#     Edge 51, Type (0, 1), BuildingBlock: OJICUG_clean_linker_0, # of connection points: 2
#     Edge 52, Type (0, 1), BuildingBlock: OJICUG_clean_linker_0, # of connection points: 2
#     Edge 53, Type (0, 1), BuildingBlock: OJICUG_clean_linker_0, # of connection points: 2
#     Edge 54, Type (0, 1), BuildingBlock: OJICUG_clean_linker_0, # of connection points: 2
#     Edge 55, Type (0, 1), BuildingBlock: OJICUG_clean_linker_0, # of connection points: 2
#     Edge 56, Type (0, 1), BuildingBlock: OJICUG_clean_linker_0, # of connection points: 2
#     Edge 57, Type (0, 1), BuildingBlock: OJICUG_clean_linker_0, # of connection points: 2
#     Edge 58, Type (0, 1), BuildingBlock: OJICUG_clean_linker_0, # of connection points: 2
#     Edge 59, Type (0, 1), BuildingBlock: OJICUG_clean_linker_0, # of connection points: 2
#     Edge 60, Type (0, 1), BuildingBlock: OJICUG_clean_linker_0, # of connection points: 2
#     Edge 61, Type (0, 1), BuildingBlock: OJICUG_clean_linker_0, # of connection points: 2
#     Edge 62, Type (0, 1), BuildingBlock: OJICUG_clean_linker_0, # of connection points: 2
#     Edge 63, Type (0, 1), BuildingBlock: OJICUG_clean_linker_0, # of connection points: 2
#     Edge 64, Type (0, 1), BuildingBlock: OJICUG_clean_linker_0, # of connection points: 2
#     Edge 65, Type (0, 1), BuildingBlock: OJICUG_clean_linker_0, # of connection points: 2
#     Edge 66, Type (0, 1), BuildingBlock: OJICUG_clean_linker_0, # of connection points: 2
#     Edge 67, Type (0, 1), BuildingBlock: OJICUG_clean_linker_0, # of connection points: 2
#     Edge 68, Type (0, 1), BuildingBlock: OJICUG_clean_linker_0, # of connection points: 2
#     Edge 69, Type (0, 1), BuildingBlock: OJICUG_clean_linker_0, # of connection points: 2
#     Edge 70, Type (0, 1), BuildingBlock: OJICUG_clean_linker_0, # of connection points: 2
#     Edge 71, Type (0, 1), BuildingBlock: OJICUG_clean_linker_0, # of connection points: 2
#     Edge 72, Type (0, 1), BuildingBlock: OJICUG_clean_linker_0, # of connection points: 2
#     Edge 73, Type (0, 1), BuildingBlock: OJICUG_clean_linker_0, # of connection points: 2
#     Edge 74, Type (0, 1), BuildingBlock: OJICUG_clean_linker_0, # of connection points: 2
#     Edge 75, Type (0, 1), BuildingBlock: OJICUG_clean_linker_0, # of connection points: 2
#     Edge 76, Type (0, 1), BuildingBlock: OJICUG_clean_linker_0, # of connection points: 2
#     Edge 77, Type (0, 1), BuildingBlock: OJICUG_clean_linker_0, # of connection points: 2
#     Edge 78, Type (0, 1), BuildingBlock: OJICUG_clean_linker_0, # of connection points: 2
#     Edge 79, Type (0, 1), BuildingBlock: OJICUG_clean_linker_0, # of connection points: 2
#     Edge 80, Type (0, 1), BuildingBlock: OJICUG_clean_linker_0, # of connection points: 2
#     Edge 81, Type (0, 1), BuildingBlock: OJICUG_clean_linker_0, # of connection points: 2
#     Edge 82, Type (0, 1), BuildingBlock: OJICUG_clean_linker_0, # of connection points: 2
#     Edge 83, Type (0, 1), BuildingBlock: OJICUG_clean_linker_0, # of connection points: 2
#     Edge 84, Type (0, 1), BuildingBlock: OJICUG_clean_linker_0, # of connection points: 2
#     Edge 85, Type (0, 1), BuildingBlock: OJICUG_clean_linker_0, # of connection points: 2
#     Edge 86, Type (0, 1), BuildingBlock: OJICUG_clean_linker_0, # of connection points: 2
#     Edge 87, Type (0, 1), BuildingBlock: OJICUG_clean_linker_0, # of connection points: 2
#     Edge 88, Type (0, 1), BuildingBlock: OJICUG_clean_linker_0, # of connection points: 2
#     Edge 89, Type (0, 1), BuildingBlock: OJICUG_clean_linker_0, # of connection points: 2
#     Edge 90, Type (0, 1), BuildingBlock: OJICUG_clean_linker_0, # of connection points: 2
#     Edge 91, Type (0, 1), BuildingBlock: OJICUG_clean_linker_0, # of connection points: 2
#     Edge 92, Type (0, 1), BuildingBlock: OJICUG_clean_linker_0, # of connection points: 2
#     Edge 93, Type (0, 1), BuildingBlock: OJICUG_clean_linker_0, # of connection points: 2
#     Edge 94, Type (0, 1), BuildingBlock: OJICUG_clean_linker_0, # of connection points: 2
#     Edge 95, Type (0, 1), BuildingBlock: OJICUG_clean_linker_0, # of connection points: 2
#     Edge 96, Type (0, 1), BuildingBlock: OJICUG_clean_linker_0, # of connection points: 2
#     Edge 97, Type (0, 1), BuildingBlock: OJICUG_clean_linker_0, # of connection points: 2
#     Edge 98, Type (0, 1), BuildingBlock: OJICUG_clean_linker_0, # of connection points: 2
#     Edge 99, Type (0, 1), BuildingBlock: OJICUG_clean_linker_0, # of connection points: 2
#     Edge 100, Type (0, 1), BuildingBlock: OJICUG_clean_linker_0, # of connection points: 2
#     Edge 101, Type (0, 1), BuildingBlock: OJICUG_clean_linker_0, # of connection points: 2
#     Edge 102, Type (0, 1), BuildingBlock: OJICUG_clean_linker_0, # of connection points: 2
#     Edge 103, Type (0, 1), BuildingBlock: OJICUG_clean_linker_0, # of connection points: 2
#     Edge 104, Type (0, 1), BuildingBlock: OJICUG_clean_linker_0, # of connection points: 2
#     Edge 105, Type (0, 1), BuildingBlock: OJICUG_clean_linker_0, # of connection points: 2
#     Edge 106, Type (0, 1), BuildingBlock: OJICUG_clean_linker_0, # of connection points: 2
#     Edge 107, Type (0, 1), BuildingBlock: OJICUG_clean_linker_0, # of connection points: 2
# Relax obj value: 0.045
# Max RMSD: 0.081
# Mean RMSD: 0.066
data_MOF--net-ptr--node1-GALJAG_clean_sbu_0--node2-NAWXER_clean_linker_0--edge1-OJICUG_clean_linker_0
_symmetry_space_group_name_H-M    P1
_symmetry_Int_Tables_number       1
_symmetry_cell_setting            triclinic
loop_
_symmetry_equiv_pos_as_xyz
'x, y, z'
_cell_length_a     66.895849
_cell_length_b     66.941414
_cell_length_c     52.208603
_cell_angle_alpha  90.078991
_cell_angle_beta   89.941953
_cell_angle_gamma 120.09969
loop_
_atom_site_label
_atom_site_type_symbol
_atom_site_fract_x
_atom_site_fract_y
_atom_site_fract_z
_atom_type_partial_charge
In0 In 0.00273 0.34796 0.01176 0.0
O1 O 0.98084 0.35266 0.04231 0.0
O2 O 0.01726 0.37603 0.04175 0.0
C3 C 0.97242 0.30967 0.98615 0.0
C4 C 0.03015 0.33498 0.03532 0.0
C5 C 0.01026 0.3798 0.97576 0.0
O6 O 0.96683 0.3161 0.00637 0.0
O7 O 0.99315 0.32229 0.97936 0.0
O8 O 0.02373 0.37181 0.97845 0.0
O9 O 0.99356 0.37195 0.99125 0.0
C10 C -0.00194 0.36998 0.05235 0.0
O11 O 0.03755 0.34968 0.0174 0.0
O12 O 0.00901 0.3265 0.04054 0.0
In13 In 0.64733 0.64988 0.0082 0.0
O14 O 0.64484 0.6272 0.04231 0.0
O15 O 0.61447 0.62736 0.03038 0.0
C16 C 0.68758 0.65986 0.98581 0.0
C17 C 0.65774 0.68855 0.03431 0.0
C18 C 0.61882 0.62973 0.9681 0.0
O19 O 0.67567 0.64157 0.99851 0.0
O20 O 0.67947 0.67327 0.98499 0.0
O21 O 0.62129 0.64804 0.97821 0.0
O22 O 0.63071 0.622 0.97819 0.0
C23 C 0.62358 0.61988 0.04596 0.0
O24 O 0.64717 0.68386 0.01309 0.0
O25 O 0.66313 0.67398 0.04183 0.0
In26 In 0.34693 -0.0001 0.01167 0.0
O27 O 0.35406 0.03653 0.00478 0.0
O28 O 0.32346 0.00863 0.98878 0.0
C29 C 0.37709 0.00474 0.04874 0.0
C30 C 0.36712 0.99388 0.96996 0.0
C31 C 0.30795 0.97191 0.03739 0.0
O32 O 0.37294 0.02071 0.04324 0.0
O33 O 0.36637 0.98674 0.03526 0.0
O34 O 0.31269 0.96598 0.01621 0.0
O35 O 0.32263 0.99185 0.04508 0.0
C36 C 0.3362 0.03019 0.99125 0.0
O37 O 0.34979 0.97706 0.98045 0.0
O38 O 0.37398 0.01311 0.98065 0.0
In39 In 0.00017 0.65369 0.00954 0.0
O40 O 0.02245 0.64988 0.97824 0.0
O41 O 0.98655 0.62528 0.98008 0.0
C42 C 0.02833 0.69301 0.03455 0.0
C43 C 0.96983 0.66406 0.98863 0.0
C44 C 0.99598 0.62502 0.04789 0.0
O45 O 0.03423 0.68787 0.01359 0.0
O46 O 0.00823 0.67867 0.04221 0.0
O47 O 0.97936 0.6278 0.04122 0.0
O48 O 0.0142 0.63622 0.03487 0.0
C49 C 0.00552 0.63195 0.96882 0.0
O50 O 0.96356 0.64674 0.00302 0.0
O51 O 0.99138 0.6765 0.98558 0.0
In52 In 0.34823 0.35151 0.01103 0.0
O53 O 0.34871 0.3754 0.97912 0.0
O54 O 0.37653 0.36861 0.98153 0.0
C55 C 0.30923 0.34221 0.036 0.0
C56 C 0.3386 0.31197 0.9873 0.0
C57 C 0.37886 0.37425 0.04891 0.0
O58 O 0.31899 0.35874 0.02031 0.0
O59 O 0.31893 0.33033 0.03865 0.0
O60 O 0.36957 0.35264 0.04626 0.0
O61 O 0.37276 0.38399 0.03261 0.0
C62 C 0.36776 0.37892 0.97001 0.0
O63 O 0.35629 0.32308 1.00122 0.0
O64 O 0.32557 0.32052 0.98589 0.0
In65 In 0.65037 0.99765 0.01098 0.0
O66 O 0.64707 0.01946 0.04304 0.0
O67 O 0.62015 0.98467 0.03829 0.0
C68 C 0.69014 0.02625 0.98696 0.0
C69 C 0.66079 0.96753 0.03253 0.0
C70 C 0.62262 0.99387 0.97176 0.0
O71 O 0.68367 0.03236 0.00681 0.0
O72 O 0.67683 0.0057 0.97983 0.0
O73 O 0.62482 0.97703 0.97895 0.0
O74 O 0.63402 0.01214 0.98462 0.0
C75 C 0.62777 0.00323 0.05072 0.0
O76 O 0.64417 0.9612 0.01703 0.0
O77 O 0.67233 0.98899 0.0366 0.0
In78 In 0.66468 0.68338 0.34854 0.0
O79 O 0.64127 0.68388 0.38049 0.0
O80 O 0.67583 0.71189 0.3778 0.0
C81 C 0.63433 0.64406 0.32451 0.0
C82 C 0.69518 0.67433 0.37176 0.0
C83 C 0.67232 0.7133 0.31001 0.0
O84 O 0.62792 0.65416 0.34018 0.0
O85 O 0.65589 0.65357 0.32142 0.0
O86 O 0.68435 0.70371 0.31254 0.0
O87 O 0.65693 0.7079 0.32679 0.0
C88 C 0.65672 0.70308 0.38939 0.0
O89 O 0.70145 0.69207 0.35808 0.0
O90 O 0.67361 0.66101 0.37326 0.0
In91 In 0.31626 0.98336 0.34693 0.0
O92 O 0.31297 0.95866 0.37924 0.0
O93 O 0.28824 0.96985 0.37704 0.0
C94 C 0.35406 0.98792 0.3227 0.0
C95 C 0.32947 0.02377 0.37053 0.0
C96 C 0.28383 0.96292 0.31003 0.0
O97 O 0.34059 0.97001 0.33521 0.0
O98 O 0.34878 0.00351 0.32305 0.0
O99 O 0.29644 0.9846 0.31128 0.0
O100 O 0.28752 0.95204 0.32725 0.0
C101 C 0.29517 0.95793 0.38873 0.0
O102 O 0.31552 0.0169 0.35186 0.0
O103 O 0.33705 0.01055 0.37667 0.0
In104 In 0.01109 0.33206 0.34382 0.0
O105 O 0.01404 0.36746 0.33947 0.0
O106 O 0.99413 0.34119 0.31215 0.0
C107 C 0.039 0.3364 0.38317 0.0
C108 C 0.03431 0.32563 0.30558 0.0
C109 C 0.97025 0.30505 0.36683 0.0
O110 O 0.03822 0.35357 0.37425 0.0
O111 O 0.0261 0.3175 0.37195 0.0
O112 O 0.97669 0.29816 0.34761 0.0
O113 O 0.98411 0.3255 0.37375 0.0
C114 C 0.00194 0.3618 0.31928 0.0
O115 O 0.01554 0.30916 0.31415 0.0
O116 O 0.04126 0.34476 0.31667 0.0
In117 In 0.66511 0.98068 0.34655 0.0
O118 O 0.68406 0.98084 0.30945 0.0
O119 O 0.6602 0.94871 0.32621 0.0
C120 C 0.69546 0.02082 0.36908 0.0
C121 C 0.63295 0.98701 0.32273 0.0
C122 C 0.6574 0.95407 0.38824 0.0
O123 O 0.70184 0.0099 0.35458 0.0
O124 O 0.67387 0.01171 0.37171 0.0
O125 O 0.64197 0.95769 0.37915 0.0
O126 O 0.67642 0.96399 0.37643 0.0
C127 C 0.67405 0.95909 0.30818 0.0
O128 O 0.62769 0.96929 0.336 0.0
O129 O 0.65422 0.00165 0.32203 0.0
In130 In 0.01575 0.68131 0.34511 0.0
O131 O 0.018 0.70608 0.31343 0.0
O132 O 0.04401 0.69657 0.31537 0.0
C133 C 0.97656 0.6736 0.36877 0.0
C134 C 0.00528 0.64215 0.32015 0.0
C135 C 0.04741 0.70299 0.38249 0.0
O136 O 0.98913 0.69182 0.35626 0.0
O137 O 0.98346 0.65922 0.36877 0.0
O138 O 0.0363 0.68124 0.38068 0.0
O139 O 0.04265 0.71332 0.36559 0.0
C140 C 0.03627 0.70789 0.30392 0.0
O141 O 0.01873 0.64904 0.33926 0.0
O142 O 0.99671 0.65459 0.31436 0.0
In143 In 0.31995 0.33307 0.3462 0.0
O144 O 0.31879 0.29847 0.35006 0.0
O145 O 0.33875 0.32524 0.37686 0.0
C146 C 0.29161 0.32817 0.30717 0.0
C147 C 0.29588 0.33757 0.38492 0.0
C148 C 0.36001 0.36149 0.32259 0.0
O149 O 0.29315 0.31127 0.31563 0.0
O150 O 0.30391 0.34703 0.31873 0.0
O151 O 0.35344 0.36782 0.34218 0.0
O152 O 0.3467 0.34092 0.31561 0.0
C153 C 0.3316 0.30474 0.36971 0.0
O154 O 0.31439 0.35462 0.37666 0.0
O155 O 0.28962 0.31878 0.37335 0.0
In156 In 0.33143 0.01548 0.68191 0.0
O157 O 0.36817 0.02302 0.68958 0.0
O158 O 0.34036 0.99204 0.70471 0.0
C159 C 0.3389 0.04655 0.64504 0.0
C160 C 0.32393 0.03571 0.72267 0.0
C161 C 0.30121 0.97721 0.6561 0.0
O162 O 0.3517 0.0378 0.64757 0.0
O163 O 0.32276 0.03985 0.66119 0.0
O164 O 0.29663 0.98178 0.67811 0.0
O165 O 0.32088 0.99166 0.64761 0.0
C166 C 0.36193 0.00501 0.70269 0.0
O167 O 0.30771 0.01789 0.71216 0.0
O168 O 0.34355 0.04293 0.71271 0.0
In169 In 0.98262 0.31623 0.67809 0.0
O170 O 0.97947 0.34843 0.68408 0.0
O171 O 0.00087 0.34256 0.70956 0.0
C172 C 0.95172 0.29411 0.64022 0.0
C173 C 0.96111 0.28788 0.71784 0.0
C174 C 0.02222 0.32523 0.65433 0.0
O175 O 0.96051 0.31557 0.64377 0.0
O176 O 0.95848 0.28425 0.65558 0.0
O177 O 0.01111 0.30788 0.66862 0.0
O178 O 0.01365 0.33817 0.65255 0.0
C179 C 0.99254 0.35516 0.7035 0.0
O180 O 0.98051 0.29157 0.70968 0.0
O181 O 0.95279 0.29847 0.70593 0.0
In182 In 0.68136 0.66598 0.67816 0.0
O183 O 0.683 0.70069 0.67311 0.0
O184 O 0.66224 0.67348 0.64725 0.0
C185 C 0.71141 0.67397 0.71645 0.0
C186 C 0.70406 0.65887 0.6398 0.0
C187 C 0.64171 0.63728 0.70267 0.0
O188 O 0.7081 0.68967 0.70766 0.0
O189 O 0.69976 0.65454 0.70576 0.0
O190 O 0.64859 0.63087 0.68345 0.0
O191 O 0.6546 0.65808 0.70907 0.0
C192 C 0.66979 0.69418 0.65383 0.0
O193 O 0.68511 0.64281 0.64847 0.0
O194 O 0.71142 0.67817 0.65064 0.0
In195 In 0.32819 0.31509 0.67884 0.0
O196 O 0.34935 0.31401 0.6445 0.0
O197 O 0.31956 0.28295 0.65631 0.0
C198 C 0.35721 0.35449 0.70335 0.0
C199 C 0.29781 0.32416 0.655 0.0
C200 C 0.32225 0.28729 0.71881 0.0
O201 O 0.36368 0.34707 0.68464 0.0
O202 O 0.33614 0.34225 0.70922 0.0
O203 O 0.30622 0.29058 0.71094 0.0
O204 O 0.34099 0.29802 0.70653 0.0
C205 C 0.33626 0.29259 0.64094 0.0
O206 O 0.29136 0.30711 0.66982 0.0
O207 O 0.31938 0.3367 0.65273 0.0
In208 In 0.68096 0.01601 0.67964 0.0
O209 O 0.68541 0.04142 0.64766 0.0
O210 O 0.71104 0.03171 0.65204 0.0
C211 C 0.64126 0.00689 0.70282 0.0
C212 C 0.66813 0.97582 0.65573 0.0
C213 C 0.71087 0.03752 0.71846 0.0
O214 O 0.6519 0.02376 0.68772 0.0
O215 O 0.65041 0.99454 0.70572 0.0
O216 O 0.70677 0.0181 0.71008 0.0
O217 O 0.70007 0.04587 0.70717 0.0
C218 C 0.70406 0.04318 0.63959 0.0
O219 O 0.68099 0.98211 0.67534 0.0
O220 O 0.66142 0.98955 0.64874 0.0
In221 In 0.98219 0.66556 0.67985 0.0
O222 O 0.97886 0.63001 0.68465 0.0
O223 O 0.0009 0.657 0.7102 0.0
C224 C 0.95088 0.65742 0.64277 0.0
C225 C 0.96204 0.67544 0.71878 0.0
C226 C 0.02227 0.69299 0.65511 0.0
O227 O 0.95418 0.64162 0.65126 0.0
O228 O 0.96293 0.67681 0.65334 0.0
O229 O 0.0173 0.69886 0.67611 0.0
O230 O 0.00735 0.6733 0.64712 0.0
C231 C 0.99227 0.63609 0.70378 0.0
O232 O 0.97717 0.69103 0.70465 0.0
O233 O 0.95706 0.65515 0.71312 0.0
C234 C 0.23556 0.34224 0.11904 0.0
C235 C 0.23218 0.32574 0.10031 0.0
C236 C 0.21754 0.33869 0.13541 0.0
C237 C 0.19579 0.31865 0.1332 0.0
C238 C 0.21048 0.30558 0.09831 0.0
C239 C 0.19234 0.30222 0.11443 0.0
C240 C 0.17618 0.31586 0.14887 0.0
C241 C 0.22267 0.30694 0.20573 0.0
C242 C 0.23031 0.32286 0.22612 0.0
C243 C 0.20585 0.30553 0.18863 0.0
C244 C 0.19648 0.32006 0.19165 0.0
C245 C 0.22101 0.33749 0.22881 0.0
C246 C 0.20431 0.33606 0.21183 0.0
C247 C 0.17699 0.3175 0.1758 0.0
C248 C 0.08328 0.30197 0.20683 0.0
C249 C 0.09101 0.31863 0.22649 0.0
C250 C 0.09912 0.30108 0.18988 0.0
C251 C 0.12288 0.3169 0.19231 0.0
C252 C 0.11483 0.33422 0.22886 0.0
C253 C 0.1305 0.33335 0.21202 0.0
C254 C 0.14046 0.31584 0.176 0.0
C255 C 0.09883 0.33306 0.12207 0.0
C256 C 0.09099 0.31964 0.09974 0.0
C257 C 0.11446 0.3313 0.13828 0.0
C258 C 0.12184 0.31539 0.13299 0.0
C259 C 0.09871 0.30417 0.094 0.0
C260 C 0.11392 0.30199 0.11055 0.0
C261 C 0.13968 0.3144 0.14893 0.0
H262 H 0.25217 0.35786 0.12104 0.0
H263 H 0.22043 0.35184 0.14939 0.0
H264 H 0.20741 0.29269 0.0839 0.0
H265 H 0.17558 0.28681 0.1122 0.0
H266 H 0.22956 0.29549 0.20311 0.0
H267 H 0.19972 0.29264 0.1736 0.0
H268 H 0.22613 0.34964 0.24454 0.0
H269 H 0.1972 0.34731 0.21474 0.0
H270 H 0.06504 0.28973 0.2045 0.0
H271 H 0.09285 0.28788 0.17517 0.0
H272 H 0.12149 0.34692 0.2441 0.0
H273 H 0.14875 0.34558 0.21452 0.0
H274 H 0.09333 0.34538 0.12657 0.0
H275 H 0.1212 0.34287 0.15452 0.0
H276 H 0.0929 0.29374 0.07678 0.0
H277 H 0.11969 0.28995 0.1057 0.0
N278 N 0.15753 0.31425 0.13652 0.0
N279 N 0.1591 0.31739 0.18816 0.0
C280 C 0.65802 0.89242 0.11359 0.0
C281 C 0.67517 0.90518 0.09533 0.0
C282 C 0.66046 0.87748 0.13022 0.0
C283 C 0.68001 0.87494 0.12876 0.0
C284 C 0.69492 0.90291 0.09413 0.0
C285 C 0.69717 0.88763 0.11052 0.0
C286 C 0.68139 0.85743 0.14457 0.0
C287 C 0.69514 0.91233 0.20585 0.0
C288 C 0.67686 0.9048 0.22354 0.0
C289 C 0.69519 0.89704 0.18749 0.0
C290 C 0.67701 0.87405 0.18669 0.0
C291 C 0.658 0.88218 0.22133 0.0
C292 C 0.65824 0.86693 0.20335 0.0
C293 C 0.67874 0.85645 0.17137 0.0
C294 C 0.69549 0.78279 0.20902 0.0
C295 C 0.67668 0.77165 0.22603 0.0
C296 C 0.69578 0.79796 0.19032 0.0
C297 C 0.67738 0.8023 0.18855 0.0
C298 C 0.65775 0.77514 0.223 0.0
C299 C 0.65828 0.79056 0.20477 0.0
C300 C 0.67879 0.82089 0.17217 0.0
C301 C 0.66063 0.76126 0.11963 0.0
C302 C 0.6743 0.76601 0.09761 0.0
C303 C 0.66296 0.77919 0.13532 0.0
C304 C 0.6796 0.80223 0.12981 0.0
C305 C 0.69057 0.78899 0.09166 0.0
C306 C 0.69326 0.80694 0.10769 0.0
C307 C 0.68108 0.82156 0.14522 0.0
H308 H 0.64271 0.894 0.11497 0.0
H309 H 0.64674 0.86743 0.14374 0.0
H310 H 0.70831 0.91251 0.08012 0.0
H311 H 0.71222 0.88564 0.1089 0.0
H312 H 0.70994 0.9296 0.20704 0.0
H313 H 0.70998 0.90277 0.17495 0.0
H314 H 0.64331 0.87599 0.23409 0.0
H315 H 0.64401 0.84927 0.20294 0.0
H316 H 0.7104 0.7806 0.21084 0.0
H317 H 0.7108 0.8071 0.17811 0.0
H318 H 0.64264 0.76634 0.23512 0.0
H319 H 0.64386 0.79363 0.20359 0.0
H320 H 0.64763 0.74368 0.12429 0.0
H321 H 0.65112 0.77494 0.1512 0.0
H322 H 0.70126 0.79302 0.0747 0.0
H323 H 0.70588 0.82456 0.10267 0.0
N324 N 0.68248 0.83998 0.1325 0.0
N325 N 0.67757 0.83826 0.18408 0.0
C326 C 0.10002 0.76486 0.11951 0.0
C327 C 0.09115 0.76982 0.09761 0.0
C328 C 0.11557 0.78266 0.13543 0.0
C329 C 0.12189 0.8057 0.13028 0.0
C330 C 0.09803 0.79285 0.09188 0.0
C331 C 0.11322 0.81064 0.10814 0.0
C332 C 0.13899 0.8249 0.14647 0.0
C333 C 0.08247 0.77892 0.20341 0.0
C334 C 0.09055 0.77031 0.22297 0.0
C335 C 0.09807 0.79612 0.18673 0.0
C336 C 0.12195 0.80488 0.18937 0.0
C337 C 0.11447 0.77921 0.22542 0.0
C338 C 0.12993 0.79627 0.20889 0.0
C339 C 0.13921 0.82417 0.17354 0.0
C340 C 0.21333 0.91655 0.20913 0.0
C341 C 0.22301 0.90886 0.22794 0.0
C342 C 0.19825 0.90115 0.19061 0.0
C343 C 0.19271 0.87794 0.19074 0.0
C344 C 0.21826 0.88589 0.22697 0.0
C345 C 0.2031 0.87059 0.2088 0.0
C346 C 0.17441 0.86041 0.17423 0.0
C347 C 0.23483 0.90208 0.12252 0.0
C348 C 0.23012 0.91039 0.10001 0.0
C349 C 0.21684 0.88631 0.13804 0.0
C350 C 0.19374 0.87912 0.13185 0.0
C351 C 0.20708 0.90286 0.0934 0.0
C352 C 0.18906 0.88741 0.10923 0.0
C353 C 0.17437 0.86123 0.14721 0.0
H354 H 0.09527 0.74723 0.124 0.0
H355 H 0.12292 0.77833 0.15147 0.0
H356 H 0.09143 0.79704 0.07502 0.0
H357 H 0.11818 0.82829 0.10342 0.0
H358 H 0.06414 0.7724 0.20104 0.0
H359 H 0.09154 0.80283 0.17212 0.0
H360 H 0.12136 0.77338 0.24058 0.0
H361 H 0.14827 0.80292 0.2115 0.0
H362 H 0.21665 0.93412 0.20936 0.0
H363 H 0.1902 0.90709 0.17694 0.0
H364 H 0.22593 0.87954 0.24063 0.0
H365 H 0.19915 0.85278 0.20913 0.0
H366 H 0.25247 0.90728 0.12771 0.0
H367 H 0.22109 0.87926 0.1544 0.0
H368 H 0.20306 0.90902 0.07607 0.0
H369 H 0.1714 0.8818 0.10372 0.0
N370 N 0.15651 0.84351 0.13446 0.0
N371 N 0.15693 0.84192 0.18616 0.0
C372 C 0.32765 0.09873 0.82296 0.0
C373 C 0.31116 0.08771 0.80346 0.0
C374 C 0.32605 0.11412 0.83979 0.0
C375 C 0.30766 0.11851 0.83784 0.0
C376 C 0.29256 0.09185 0.80183 0.0
C377 C 0.29091 0.10718 0.81875 0.0
C378 C 0.30721 0.13674 0.85352 0.0
C379 C 0.30351 0.08364 0.9096 0.0
C380 C 0.31995 0.0924 0.92951 0.0
C381 C 0.30026 0.09856 0.89364 0.0
C382 C 0.31393 0.1226 0.89666 0.0
C383 C 0.33293 0.11645 0.93302 0.0
C384 C 0.33007 0.1313 0.91673 0.0
C385 C 0.31104 0.13911 0.88029 0.0
C386 C 0.30551 0.22493 0.90578 0.0
C387 C 0.3221 0.23315 0.92554 0.0
C388 C 0.30178 0.20605 0.89073 0.0
C389 C 0.31508 0.19541 0.89454 0.0
C390 C 0.33482 0.22193 0.92976 0.0
C391 C 0.33145 0.20345 0.91439 0.0
C392 C 0.31154 0.17513 0.87927 0.0
C393 C 0.32882 0.23 0.81905 0.0
C394 C 0.31158 0.22421 0.80042 0.0
C395 C 0.32725 0.21348 0.83654 0.0
C396 C 0.30826 0.19092 0.83597 0.0
C397 C 0.29241 0.2017 0.80015 0.0
C398 C 0.29087 0.18518 0.81765 0.0
C399 C 0.3076 0.17269 0.85255 0.0
H400 H 0.34211 0.09581 0.82492 0.0
H401 H 0.3396 0.12312 0.85381 0.0
H402 H 0.27976 0.08399 0.78681 0.0
H403 H 0.27678 0.11058 0.8166 0.0
H404 H 0.29324 0.06526 0.9061 0.0
H405 H 0.287 0.09122 0.87905 0.0
H406 H 0.34527 0.12394 0.94851 0.0
H407 H 0.3406 0.14973 0.91988 0.0
H408 H 0.29543 0.23314 0.90177 0.0
H409 H 0.28837 0.19973 0.87629 0.0
H410 H 0.34727 0.2272 0.94517 0.0
H411 H 0.34174 0.1954 0.9181 0.0
H412 H 0.34374 0.24722 0.81986 0.0
H413 H 0.34121 0.2182 0.85004 0.0
H414 H 0.27902 0.19658 0.78582 0.0
H415 H 0.27625 0.16778 0.81661 0.0
N416 N 0.30543 0.15353 0.84086 0.0
N417 N 0.31302 0.15819 0.89188 0.0
C418 C 0.91556 0.22035 0.9082 0.0
C419 C 0.90791 0.23201 0.92441 0.0
C420 C 0.89993 0.20211 0.89275 0.0
C421 C 0.87635 0.19512 0.89327 0.0
C422 C 0.88424 0.22488 0.92483 0.0
C423 C 0.86862 0.2065 0.90959 0.0
C424 C 0.85941 0.1752 0.878 0.0
C425 C 0.89913 0.23032 0.81908 0.0
C426 C 0.91015 0.22449 0.79997 0.0
C427 C 0.88414 0.21375 0.83652 0.0
C428 C 0.88006 0.19103 0.83545 0.0
C429 C 0.90652 0.20191 0.79933 0.0
C430 C 0.89149 0.18531 0.8168 0.0
C431 C 0.86188 0.17265 0.85151 0.0
C432 C 0.76868 0.09836 0.81995 0.0
C433 C 0.77474 0.08779 0.80053 0.0
C434 C 0.78521 0.11344 0.83737 0.0
C435 C 0.80812 0.11807 0.83598 0.0
C436 C 0.79748 0.09185 0.79964 0.0
C437 C 0.81405 0.10698 0.8171 0.0
C438 C 0.82642 0.13658 0.8518 0.0
C439 C 0.78011 0.08281 0.90919 0.0
C440 C 0.76831 0.09017 0.92558 0.0
C441 C 0.79801 0.09859 0.89347 0.0
C442 C 0.8045 0.12203 0.89388 0.0
C443 C 0.77496 0.11372 0.92589 0.0
C444 C 0.79299 0.12948 0.91038 0.0
C445 C 0.82404 0.13918 0.8783 0.0
H446 H 0.93358 0.22504 0.90773 0.0
H447 H 0.9062 0.19319 0.88077 0.0
H448 H 0.87775 0.23365 0.93671 0.0
H449 H 0.85046 0.2013 0.91035 0.0
H450 H 0.90167 0.24761 0.82018 0.0
H451 H 0.87504 0.21852 0.85016 0.0
H452 H 0.91451 0.19678 0.78466 0.0
H453 H 0.88835 0.16782 0.81535 0.0
H454 H 0.75126 0.09546 0.82125 0.0
H455 H 0.78026 0.12226 0.85118 0.0
H456 H 0.80276 0.08419 0.78473 0.0
H457 H 0.83168 0.11053 0.81541 0.0
H458 H 0.77576 0.0649 0.90876 0.0
H459 H 0.80704 0.09255 0.88134 0.0
H460 H 0.76605 0.11999 0.93787 0.0
H461 H 0.79779 0.14753 0.91106 0.0
N462 N 0.84057 0.15841 0.89029 0.0
N463 N 0.84533 0.15339 0.83951 0.0
C464 C 0.77514 0.6944 0.90517 0.0
C465 C 0.76696 0.67747 0.92455 0.0
C466 C 0.79397 0.69834 0.88988 0.0
C467 C 0.8046 0.68496 0.89311 0.0
C468 C 0.77814 0.66465 0.92818 0.0
C469 C 0.79659 0.66827 0.9126 0.0
C470 C 0.82477 0.68869 0.87752 0.0
C471 C 0.76953 0.67102 0.8176 0.0
C472 C 0.77517 0.68788 0.79857 0.0
C473 C 0.78611 0.6731 0.8353 0.0
C474 C 0.80857 0.69226 0.83459 0.0
C475 C 0.79752 0.70731 0.79827 0.0
C476 C 0.81409 0.70939 0.81601 0.0
C477 C 0.82704 0.69309 0.85087 0.0
C478 C 0.89419 0.6695 0.81319 0.0
C479 C 0.91085 0.68911 0.79975 0.0
C480 C 0.8794 0.6712 0.83082 0.0
C481 C 0.88056 0.6924 0.83507 0.0
C482 C 0.91235 0.71052 0.80483 0.0
C483 C 0.89706 0.71204 0.82195 0.0
C484 C 0.86292 0.6934 0.85105 0.0
C485 C 0.91598 0.69486 0.9055 0.0
C486 C 0.90726 0.67873 0.92568 0.0
C487 C 0.90108 0.69827 0.88971 0.0
C488 C 0.87703 0.6851 0.89318 0.0
C489 C 0.88321 0.66596 0.92939 0.0
C490 C 0.86834 0.66899 0.91328 0.0
C491 C 0.86062 0.68883 0.8776 0.0
H492 H 0.76694 0.70454 0.90162 0.0
H493 H 0.80025 0.71194 0.8757 0.0
H494 H 0.77286 0.65192 0.94328 0.0
H495 H 0.80463 0.6579 0.91584 0.0
H496 H 0.75242 0.65593 0.81848 0.0
H497 H 0.78158 0.65931 0.84896 0.0
H498 H 0.80251 0.72044 0.78365 0.0
H499 H 0.83142 0.72413 0.81485 0.0
H500 H 0.89188 0.65256 0.80954 0.0
H501 H 0.86641 0.65575 0.84042 0.0
H502 H 0.92516 0.72615 0.79544 0.0
H503 H 0.89806 0.72854 0.82492 0.0
H504 H 0.93436 0.70491 0.9018 0.0
H505 H 0.90852 0.71159 0.87525 0.0
H506 H 0.87575 0.65381 0.94504 0.0
H507 H 0.84992 0.65877 0.91674 0.0
N508 N 0.84168 0.6868 0.88964 0.0
N509 N 0.84612 0.69542 0.83879 0.0
C510 C 0.75003 0.64141 0.4515 0.0
C511 C 0.75844 0.65837 0.43217 0.0
C512 C 0.76523 0.63788 0.46664 0.0
C513 C 0.78924 0.65177 0.46341 0.0
C514 C 0.78247 0.67163 0.42842 0.0
C515 C 0.79763 0.66845 0.4439 0.0
C516 C 0.80594 0.64856 0.4791 0.0
C517 C 0.76679 0.66436 0.53891 0.0
C518 C 0.75557 0.64723 0.55771 0.0
C519 C 0.78171 0.66287 0.52129 0.0
C520 C 0.78546 0.64403 0.52186 0.0
C521 C 0.75896 0.62813 0.55786 0.0
C522 C 0.77387 0.62664 0.5402 0.0
C523 C 0.80349 0.64378 0.50566 0.0
C524 C 0.89579 0.66342 0.54041 0.0
C525 C 0.88923 0.64607 0.55907 0.0
C526 C 0.87988 0.66221 0.52225 0.0
C527 C 0.85716 0.64347 0.52216 0.0
C528 C 0.86667 0.627 0.55845 0.0
C529 C 0.85077 0.62581 0.54029 0.0
C530 C 0.83922 0.6437 0.5058 0.0
C531 C 0.8906 0.64194 0.45102 0.0
C532 C 0.8992 0.65914 0.43194 0.0
C533 C 0.872 0.63837 0.46651 0.0
C534 C 0.86202 0.65238 0.46378 0.0
C535 C 0.88879 0.67275 0.42894 0.0
C536 C 0.87054 0.66947 0.44471 0.0
C537 C 0.84185 0.64874 0.47929 0.0
H538 H 0.73169 0.63091 0.45519 0.0
H539 H 0.75811 0.6242 0.48074 0.0
H540 H 0.78969 0.6844 0.41333 0.0
H541 H 0.81603 0.67917 0.44061 0.0
H542 H 0.76441 0.67921 0.53816 0.0
H543 H 0.79092 0.67685 0.50781 0.0
H544 H 0.75085 0.61482 0.5723 0.0
H545 H 0.7768 0.61214 0.54125 0.0
H546 H 0.9131 0.67824 0.54023 0.0
H547 H 0.8851 0.67638 0.50895 0.0
H548 H 0.86098 0.6135 0.57272 0.0
H549 H 0.83323 0.61137 0.54083 0.0
H550 H 0.89823 0.63121 0.45412 0.0
H551 H 0.86533 0.62448 0.48035 0.0
H552 H 0.89446 0.68578 0.41413 0.0
H553 H 0.86299 0.68033 0.44187 0.0
N554 N 0.82504 0.65086 0.46716 0.0
N555 N 0.8201 0.64133 0.51778 0.0
C556 C 0.32989 0.23226 0.4529 0.0
C557 C 0.34433 0.24091 0.43144 0.0
C558 C 0.33081 0.21597 0.46871 0.0
C559 C 0.34684 0.20866 0.46391 0.0
C560 C 0.35984 0.23315 0.42601 0.0
C561 C 0.36116 0.21722 0.4422 0.0
C562 C 0.34739 0.19066 0.47991 0.0
C563 C 0.36182 0.24487 0.54307 0.0
C564 C 0.34234 0.23771 0.55894 0.0
C565 C 0.36237 0.22971 0.52489 0.0
C566 C 0.34355 0.2072 0.52251 0.0
C567 C 0.32307 0.21555 0.55523 0.0
C568 C 0.32384 0.20037 0.53755 0.0
C569 C 0.34503 0.18968 0.50682 0.0
C570 C 0.36252 0.11719 0.54528 0.0
C571 C 0.3432 0.10522 0.56148 0.0
C572 C 0.36279 0.13224 0.52647 0.0
C573 C 0.34385 0.13564 0.52376 0.0
C574 C 0.32383 0.10783 0.55752 0.0
C575 C 0.32431 0.12314 0.53918 0.0
C576 C 0.34513 0.15415 0.50741 0.0
C577 C 0.33049 0.09538 0.45478 0.0
C578 C 0.34446 0.10097 0.43292 0.0
C579 C 0.33149 0.11279 0.4704 0.0
C580 C 0.34716 0.13615 0.46501 0.0
C581 C 0.35971 0.12422 0.42703 0.0
C582 C 0.36113 0.14166 0.44303 0.0
C583 C 0.34752 0.15495 0.48049 0.0
H584 H 0.31746 0.23771 0.45708 0.0
H585 H 0.31847 0.2087 0.4842 0.0
H586 H 0.37105 0.23958 0.40942 0.0
H587 H 0.37334 0.21153 0.43773 0.0
H588 H 0.377 0.26174 0.54544 0.0
H589 H 0.37784 0.23516 0.51357 0.0
H590 H 0.30748 0.20965 0.56642 0.0
H591 H 0.30913 0.18306 0.53589 0.0
H592 H 0.37779 0.11572 0.54784 0.0
H593 H 0.37814 0.14201 0.5149 0.0
H594 H 0.30836 0.0984 0.56899 0.0
H595 H 0.30953 0.12555 0.53729 0.0
H596 H 0.31826 0.07752 0.45932 0.0
H597 H 0.3194 0.10784 0.48612 0.0
H598 H 0.37054 0.12884 0.41013 0.0
H599 H 0.37304 0.15951 0.4381 0.0
N600 N 0.34869 0.1733 0.46786 0.0
N601 N 0.34389 0.17146 0.5194 0.0
C602 C 0.77152 0.09611 0.44886 0.0
C603 C 0.75809 0.09934 0.43045 0.0
C604 C 0.7864 0.11427 0.46484 0.0
C605 C 0.7882 0.13601 0.46263 0.0
C606 C 0.75979 0.12107 0.42837 0.0
C607 C 0.77496 0.13934 0.44413 0.0
C608 C 0.8052 0.15566 0.47818 0.0
C609 C 0.75053 0.10931 0.53597 0.0
C610 C 0.75905 0.10189 0.55629 0.0
C611 C 0.76576 0.12588 0.51852 0.0
C612 C 0.78974 0.1352 0.52107 0.0
C613 C 0.78303 0.11106 0.55843 0.0
C614 C 0.79814 0.12748 0.54107 0.0
C615 C 0.80651 0.15469 0.50507 0.0
C616 C 0.87865 0.24665 0.54181 0.0
C617 C 0.89101 0.23966 0.55776 0.0
C618 C 0.86318 0.23146 0.52342 0.0
C619 C 0.8598 0.20909 0.52092 0.0
C620 C 0.88844 0.21767 0.55393 0.0
C621 C 0.87276 0.20247 0.53605 0.0
C622 C 0.8411 0.19142 0.50497 0.0
C623 C 0.89896 0.23518 0.45123 0.0
C624 C 0.89298 0.24315 0.42937 0.0
C625 C 0.88184 0.21889 0.46719 0.0
C626 C 0.85836 0.2109 0.46218 0.0
C627 C 0.86961 0.23483 0.42381 0.0
C628 C 0.85243 0.2189 0.44017 0.0
C629 C 0.83992 0.19248 0.47802 0.0
H630 H 0.77043 0.07949 0.45095 0.0
H631 H 0.79685 0.11145 0.47859 0.0
H632 H 0.74975 0.12404 0.4142 0.0
H633 H 0.77635 0.15609 0.4419 0.0
H634 H 0.73215 0.10252 0.53372 0.0
H635 H 0.75884 0.13194 0.50365 0.0
H636 H 0.79027 0.10613 0.57408 0.0
H637 H 0.81656 0.13456 0.54362 0.0
H638 H 0.88015 0.26341 0.54425 0.0
H639 H 0.85312 0.23676 0.51203 0.0
H640 H 0.89818 0.21192 0.5652 0.0
H641 H 0.87044 0.1853 0.53429 0.0
H642 H 0.91692 0.24105 0.45551 0.0
H643 H 0.88709 0.21205 0.48289 0.0
H644 H 0.86469 0.24071 0.40692 0.0
H645 H 0.83448 0.21268 0.43552 0.0
N646 N 0.82186 0.17457 0.46572 0.0
N647 N 0.82443 0.17259 0.51729 0.0
C648 C 0.97638 0.55628 0.14901 0.0
C649 C 0.99241 0.56434 0.1287 0.0
C650 C 0.97563 0.53992 0.16634 0.0
C651 C 0.99109 0.53159 0.16376 0.0
C652 C 0.0077 0.5558 0.12625 0.0
C653 C 0.00705 0.53969 0.14354 0.0
C654 C 0.98985 0.51306 0.18028 0.0
C655 C 0.00734 0.57258 0.23359 0.0
C656 C 0.99367 0.56713 0.25571 0.0
C657 C 0.00575 0.55504 0.21769 0.0
C658 C 0.98978 0.53177 0.2231 0.0
C659 C 0.97819 0.54395 0.26159 0.0
C660 C 0.97618 0.52643 0.24535 0.0
C661 C 0.98861 0.51275 0.20734 0.0
C662 C 0.00694 0.43596 0.23479 0.0
C663 C 0.99282 0.42749 0.25655 0.0
C664 C 0.0057 0.45207 0.21892 0.0
C665 C 0.98966 0.45931 0.22399 0.0
C666 C 0.97739 0.43529 0.26223 0.0
C667 C 0.97577 0.45101 0.24601 0.0
C668 C 0.98854 0.47692 0.20784 0.0
C669 C 0.97584 0.41984 0.15113 0.0
C670 C 0.99266 0.42724 0.13168 0.0
C671 C 0.97496 0.43592 0.16764 0.0
C672 C 0.99094 0.4596 0.16496 0.0
C673 C 0.00851 0.45096 0.12914 0.0
C674 C 0.00761 0.46691 0.14551 0.0
C675 C 0.98974 0.4773 0.18082 0.0
H676 H 0.96439 0.56254 0.15149 0.0
H677 H 0.96277 0.53352 0.1814 0.0
H678 H 0.01989 0.56113 0.11054 0.0
H679 H 0.01896 0.53332 0.14092 0.0
H680 H 0.01968 0.59039 0.22899 0.0
H681 H 0.0174 0.55974 0.20153 0.0
H682 H 0.96753 0.53942 0.27862 0.0
H683 H 0.96405 0.50864 0.25026 0.0
H684 H 0.01925 0.43043 0.23035 0.0
H685 H 0.01758 0.45908 0.20297 0.0
H686 H 0.9664 0.42898 0.279 0.0
H687 H 0.96359 0.45667 0.25066 0.0
H688 H 0.96341 0.40168 0.15356 0.0
H689 H 0.96163 0.42992 0.18218 0.0
H690 H 0.02137 0.45731 0.11405 0.0
H691 H 0.01993 0.48509 0.14288 0.0
N692 N 0.99042 0.49536 0.1683 0.0
N693 N 0.98784 0.49458 0.21992 0.0
C694 C 0.45065 0.42237 0.14808 0.0
C695 C 0.43868 0.42943 0.13159 0.0
C696 C 0.46597 0.43761 0.16652 0.0
C697 C 0.46961 0.4601 0.16858 0.0
C698 C 0.44153 0.45158 0.13491 0.0
C699 C 0.45706 0.46682 0.15289 0.0
C700 C 0.48818 0.4777 0.18473 0.0
C701 C 0.43031 0.43327 0.23821 0.0
C702 C 0.4363 0.42507 0.25988 0.0
C703 C 0.44745 0.4497 0.22235 0.0
C704 C 0.47092 0.45761 0.22731 0.0
C705 C 0.45966 0.4333 0.26535 0.0
C706 C 0.47683 0.44935 0.24911 0.0
C707 C 0.4894 0.47617 0.21164 0.0
C708 C 0.55914 0.57144 0.2424 0.0
C709 C 0.57223 0.56751 0.26059 0.0
C710 C 0.54422 0.55378 0.22593 0.0
C711 C 0.54201 0.53183 0.22747 0.0
C712 C 0.57026 0.54562 0.26189 0.0
C713 C 0.55503 0.52783 0.24566 0.0
C714 C 0.52451 0.5126 0.21189 0.0
C715 C 0.57715 0.55121 0.14708 0.0
C716 C 0.57007 0.56392 0.13186 0.0
C717 C 0.56247 0.53609 0.16592 0.0
C718 C 0.54045 0.53329 0.16965 0.0
C719 C 0.54854 0.56209 0.13702 0.0
C720 C 0.53375 0.54665 0.15542 0.0
C721 C 0.52307 0.51404 0.18514 0.0
H722 H 0.44895 0.4055 0.14602 0.0
H723 H 0.47572 0.43221 0.17832 0.0
H724 H 0.4321 0.45741 0.1232 0.0
H725 H 0.45958 0.48409 0.15429 0.0
H726 H 0.41236 0.42744 0.23397 0.0
H727 H 0.44221 0.45668 0.20677 0.0
H728 H 0.46458 0.42721 0.28208 0.0
H729 H 0.49478 0.45548 0.25371 0.0
H730 H 0.56045 0.5882 0.24093 0.0
H731 H 0.53389 0.5571 0.21251 0.0
H732 H 0.58008 0.54214 0.27587 0.0
H733 H 0.5533 0.5109 0.24738 0.0
H734 H 0.59349 0.55201 0.1436 0.0
H735 H 0.56775 0.52561 0.17653 0.0
H736 H 0.54275 0.5721 0.12634 0.0
H737 H 0.51677 0.54465 0.15805 0.0
N738 N 0.505 0.4966 0.17263 0.0
N739 N 0.50767 0.49369 0.22414 0.0
C740 C 0.43706 0.01391 0.23817 0.0
C741 C 0.42806 0.99677 0.25731 0.0
C742 C 0.45517 0.01662 0.22241 0.0
C743 C 0.46427 0.00183 0.22491 0.0
C744 C 0.43738 0.98215 0.25988 0.0
C745 C 0.4552 0.98463 0.24385 0.0
C746 C 0.48441 0.00511 0.20959 0.0
C747 C 0.43129 0.99231 0.14825 0.0
C748 C 0.43804 0.01049 0.13066 0.0
C749 C 0.44705 0.99268 0.1661 0.0
C750 C 0.46982 0.01132 0.16679 0.0
C751 C 0.46068 0.02938 0.13183 0.0
C752 C 0.47645 0.02968 0.14958 0.0
C753 C 0.48746 0.01059 0.1832 0.0
C754 C 0.56262 0.99308 0.15128 0.0
C755 C 0.5739 0.01077 0.13308 0.0
C756 C 0.5468 0.99349 0.16849 0.0
C757 C 0.54217 0.01175 0.16807 0.0
C758 C 0.56966 0.02932 0.13313 0.0
C759 C 0.55383 0.02971 0.15034 0.0
C760 C 0.52339 0.01095 0.18386 0.0
C761 C 0.57653 0.01504 0.23984 0.0
C762 C 0.56826 0.99793 0.259 0.0
C763 C 0.5612 0.01772 0.22398 0.0
C764 C 0.53724 0.00286 0.22632 0.0
C765 C 0.54423 0.98348 0.26168 0.0
C766 C 0.52897 0.98586 0.24549 0.0
C767 C 0.52045 0.00562 0.21029 0.0
H768 H 0.4302 0.02536 0.23536 0.0
H769 H 0.4623 0.03061 0.20868 0.0
H770 H 0.43131 0.96907 0.27466 0.0
H771 H 0.46209 0.97318 0.24648 0.0
H772 H 0.41392 0.97758 0.14791 0.0
H773 H 0.44165 0.97805 0.17875 0.0
H774 H 0.46649 0.0435 0.11834 0.0
H775 H 0.49402 0.04408 0.14955 0.0
H776 H 0.56562 0.97863 0.15185 0.0
H777 H 0.53762 0.97911 0.1815 0.0
H778 H 0.5778 0.04305 0.11914 0.0
H779 H 0.55029 0.04381 0.14944 0.0
H780 H 0.59488 0.0264 0.23694 0.0
H781 H 0.56817 0.03162 0.21014 0.0
H782 H 0.53708 0.97049 0.27654 0.0
H783 H 0.51057 0.97439 0.24806 0.0
N784 N 0.50106 0.00289 0.22194 0.0
N785 N 0.50686 0.01337 0.17151 0.0
C786 C 0.56745 0.00882 0.78393 0.0
C787 C 0.56387 0.99208 0.76543 0.0
C788 C 0.54948 0.00571 0.80011 0.0
C789 C 0.52758 0.98586 0.79797 0.0
C790 C 0.54199 0.97214 0.76346 0.0
C791 C 0.52391 0.9692 0.77941 0.0
C792 C 0.50807 0.98349 0.81352 0.0
C793 C 0.55429 0.97448 0.87035 0.0
C794 C 0.56196 0.99026 0.89088 0.0
C795 C 0.53753 0.97325 0.85332 0.0
C796 C 0.5283 0.9879 0.85643 0.0
C797 C 0.55277 0.00497 0.89372 0.0
C798 C 0.53618 0.00379 0.87673 0.0
C799 C 0.50899 0.98564 0.84046 0.0
C800 C 0.41544 0.97134 0.86973 0.0
C801 C 0.42292 0.98805 0.88927 0.0
C802 C 0.43147 0.97047 0.85313 0.0
C803 C 0.45521 0.98627 0.8559 0.0
C804 C 0.44667 0.00386 0.89179 0.0
C805 C 0.46259 0.00292 0.87538 0.0
C806 C 0.47285 0.98472 0.84024 0.0
C807 C 0.43687 0.0065 0.78357 0.0
C808 C 0.42439 0.9899 0.76468 0.0
C809 C 0.4518 0.00375 0.79992 0.0
C810 C 0.45456 0.98438 0.79763 0.0
C811 C 0.42697 0.97038 0.76257 0.0
C812 C 0.44218 0.9678 0.77874 0.0
C813 C 0.47193 0.9826 0.81332 0.0
H814 H 0.58419 0.02428 0.78592 0.0
H815 H 0.55254 0.01904 0.81392 0.0
H816 H 0.53876 0.95907 0.74923 0.0
H817 H 0.50704 0.95394 0.77723 0.0
H818 H 0.56109 0.96297 0.86757 0.0
H819 H 0.53134 0.96041 0.83824 0.0
H820 H 0.55788 0.017 0.90956 0.0
H821 H 0.52919 0.01513 0.87972 0.0
H822 H 0.39724 0.95895 0.86733 0.0
H823 H 0.42538 0.95712 0.83861 0.0
H824 H 0.45307 0.01667 0.90693 0.0
H825 H 0.48081 0.01516 0.87807 0.0
H826 H 0.43507 0.02163 0.78569 0.0
H827 H 0.46161 0.01705 0.81396 0.0
H828 H 0.41764 0.95743 0.74804 0.0
H829 H 0.44436 0.95291 0.77644 0.0
N830 N 0.48951 0.98194 0.801 0.0
N831 N 0.49133 0.98616 0.85265 0.0
C832 C 0.9907 0.56306 0.78792 0.0
C833 C 0.00377 0.57109 0.76537 0.0
C834 C 0.99253 0.5471 0.8035 0.0
C835 C 0.00818 0.53958 0.79736 0.0
C836 C 0.01874 0.56296 0.75862 0.0
C837 C 0.02099 0.54742 0.77454 0.0
C838 C 0.01007 0.52227 0.81338 0.0
C839 C 0.02551 0.58055 0.86961 0.0
C840 C 0.00942 0.57364 0.88978 0.0
C841 C 0.02559 0.56408 0.85304 0.0
C842 C 0.00957 0.54048 0.85643 0.0
C843 C 0.99357 0.55 0.89308 0.0
C844 C 0.99371 0.53366 0.87668 0.0
C845 C 0.00996 0.5224 0.84048 0.0
C846 C 0.03004 0.45079 0.87683 0.0
C847 C 0.01173 0.43908 0.89436 0.0
C848 C 0.02917 0.46551 0.85832 0.0
C849 C 0.0101 0.46886 0.85723 0.0
C850 C 0.99218 0.44169 0.89209 0.0
C851 C 0.99157 0.45669 0.87405 0.0
C852 C 0.01023 0.48687 0.84089 0.0
C853 C 0.99282 0.42651 0.78936 0.0
C854 C 0.00542 0.4316 0.76645 0.0
C855 C 0.99445 0.44426 0.8049 0.0
C856 C 0.0094 0.46752 0.79833 0.0
C857 C 0.01989 0.45474 0.75944 0.0
C858 C 0.02194 0.47253 0.7753 0.0
C859 C 0.01053 0.48668 0.81384 0.0
H860 H 0.97873 0.5688 0.79321 0.0
H861 H 0.98141 0.54045 0.82011 0.0
H862 H 0.02891 0.5689 0.74123 0.0
H863 H 0.03284 0.54157 0.76905 0.0
H864 H 0.03793 0.59865 0.86661 0.0
H865 H 0.03834 0.56971 0.83788 0.0
H866 H 0.98127 0.54403 0.90873 0.0
H867 H 0.98138 0.51555 0.87988 0.0
H868 H 0.04541 0.44934 0.87803 0.0
H869 H 0.04377 0.47502 0.84564 0.0
H870 H 0.9774 0.43244 0.90458 0.0
H871 H 0.97669 0.45904 0.87344 0.0
H872 H 0.98119 0.40875 0.79485 0.0
H873 H 0.98342 0.43964 0.82157 0.0
H874 H 0.02971 0.45904 0.74179 0.0
H875 H 0.03327 0.49026 0.76948 0.0
N876 N 0.01056 0.5045 0.80123 0.0
N877 N 0.00989 0.50462 0.853 0.0
C878 C 0.55008 0.58248 0.77849 0.0
C879 C 0.56198 0.57462 0.76295 0.0
C880 C 0.53163 0.56707 0.79387 0.0
C881 C 0.52468 0.54351 0.79394 0.0
C882 C 0.55484 0.55096 0.7631 0.0
C883 C 0.53627 0.53557 0.77824 0.0
C884 C 0.5048 0.52677 0.8094 0.0
C885 C 0.56033 0.5681 0.86718 0.0
C886 C 0.55442 0.57878 0.88663 0.0
C887 C 0.54364 0.55272 0.85011 0.0
C888 C 0.52071 0.54802 0.85169 0.0
C889 C 0.5316 0.57449 0.88783 0.0
C890 C 0.51489 0.55916 0.87061 0.0
C891 C 0.50232 0.52954 0.83585 0.0
C892 C 0.42848 0.43605 0.86804 0.0
C893 C 0.41766 0.442 0.88728 0.0
C894 C 0.44371 0.45264 0.85078 0.0
C895 C 0.44816 0.47548 0.85204 0.0
C896 C 0.42165 0.46471 0.88813 0.0
C897 C 0.43688 0.48132 0.87077 0.0
C898 C 0.46652 0.49377 0.83604 0.0
C899 C 0.41307 0.44595 0.77911 0.0
C900 C 0.4207 0.43379 0.76369 0.0
C901 C 0.42866 0.46441 0.79436 0.0
C902 C 0.45218 0.47114 0.79438 0.0
C903 C 0.44432 0.44066 0.76385 0.0
C904 C 0.4599 0.45927 0.77883 0.0
C905 C 0.46909 0.4911 0.80961 0.0
H906 H 0.55479 0.60049 0.77853 0.0
H907 H 0.52259 0.57349 0.80543 0.0
H908 H 0.5638 0.5443 0.75179 0.0
H909 H 0.53114 0.51743 0.77797 0.0
H910 H 0.57779 0.57116 0.86556 0.0
H911 H 0.54854 0.54381 0.83637 0.0
H912 H 0.52638 0.58217 0.90278 0.0
H913 H 0.49726 0.55556 0.87248 0.0
H914 H 0.42566 0.41868 0.86674 0.0
H915 H 0.45272 0.44775 0.83717 0.0
H916 H 0.41384 0.46993 0.90291 0.0
H917 H 0.44029 0.4989 0.87237 0.0
H918 H 0.39511 0.44147 0.77913 0.0
H919 H 0.42242 0.47367 0.80581 0.0
H920 H 0.45081 0.4315 0.75265 0.0
H921 H 0.47801 0.46423 0.77855 0.0
N922 N 0.48814 0.50765 0.7974 0.0
N923 N 0.4832 0.51296 0.84807 0.0
C924 C 0.65931 0.7647 0.49008 0.0
C925 C 0.64268 0.75358 0.47077 0.0
C926 C 0.65765 0.77992 0.50707 0.0
C927 C 0.63909 0.78408 0.50546 0.0
C928 C 0.62381 0.75734 0.46953 0.0
C929 C 0.62213 0.77256 0.48662 0.0
C930 C 0.63874 0.80226 0.52135 0.0
C931 C 0.63292 0.74876 0.57811 0.0
C932 C 0.65248 0.75662 0.59398 0.0
C933 C 0.62997 0.76424 0.56285 0.0
C934 C 0.64647 0.78786 0.56324 0.0
C935 C 0.66891 0.78034 0.59426 0.0
C936 C 0.66581 0.79579 0.57924 0.0
C937 C 0.64342 0.80466 0.54791 0.0
C938 C 0.63209 0.88511 0.57846 0.0
C939 C 0.6513 0.89663 0.59484 0.0
C940 C 0.62951 0.86694 0.5629 0.0
C941 C 0.64607 0.85994 0.56347 0.0
C942 C 0.66781 0.88949 0.59528 0.0
C943 C 0.6651 0.87121 0.57994 0.0
C944 C 0.6433 0.84022 0.548 0.0
C945 C 0.65944 0.89612 0.49021 0.0
C946 C 0.64298 0.89053 0.47071 0.0
C947 C 0.65762 0.87927 0.5073 0.0
C948 C 0.63908 0.85649 0.50557 0.0
C949 C 0.62411 0.86787 0.46938 0.0
C950 C 0.62228 0.85099 0.48654 0.0
C951 C 0.63868 0.83795 0.52142 0.0
H952 H 0.67398 0.76208 0.49166 0.0
H953 H 0.67141 0.7891 0.5208 0.0
H954 H 0.61088 0.74929 0.45468 0.0
H955 H 0.60784 0.77576 0.48476 0.0
H956 H 0.6197 0.7307 0.57773 0.0
H957 H 0.61466 0.75782 0.55103 0.0
H958 H 0.68438 0.787 0.60583 0.0
H959 H 0.67874 0.81397 0.57984 0.0
H960 H 0.61883 0.88987 0.57793 0.0
H961 H 0.61441 0.85813 0.55075 0.0
H962 H 0.68304 0.89819 0.60724 0.0
H963 H 0.67806 0.86605 0.5807 0.0
H964 H 0.67411 0.91344 0.49186 0.0
H965 H 0.67127 0.8839 0.52119 0.0
H966 H 0.61131 0.86291 0.45438 0.0
H967 H 0.60802 0.83347 0.48458 0.0
N968 N 0.63644 0.81897 0.50919 0.0
N969 N 0.64557 0.82355 0.56012 0.0
C970 C 0.11738 0.75106 0.48343 0.0
C971 C 0.10677 0.75823 0.46519 0.0
C972 C 0.13223 0.76658 0.50201 0.0
C973 C 0.13665 0.78942 0.50249 0.0
C974 C 0.11037 0.78078 0.46683 0.0
C975 C 0.12535 0.79624 0.48502 0.0
C976 C 0.15476 0.80723 0.51894 0.0
C977 C 0.09479 0.76382 0.57059 0.0
C978 C 0.09995 0.75578 0.59302 0.0
C979 C 0.11248 0.78015 0.55517 0.0
C980 C 0.13576 0.78821 0.56136 0.0
C981 C 0.12315 0.7642 0.59966 0.0
C982 C 0.14089 0.78021 0.58392 0.0
C983 C 0.15479 0.80653 0.54597 0.0
C984 C 0.22767 0.90395 0.5725 0.0
C985 C 0.23695 0.89968 0.59454 0.0
C986 C 0.21228 0.88572 0.55693 0.0
C987 C 0.20647 0.8629 0.56259 0.0
C988 C 0.23052 0.87684 0.60078 0.0
C989 C 0.21545 0.85861 0.5849 0.0
C990 C 0.1897 0.84329 0.54657 0.0
C991 C 0.24681 0.88849 0.49 0.0
C992 C 0.23907 0.89686 0.46983 0.0
C993 C 0.23093 0.8716 0.50676 0.0
C994 C 0.20709 0.86287 0.50359 0.0
C995 C 0.21521 0.88804 0.46689 0.0
C996 C 0.19946 0.87124 0.48349 0.0
C997 C 0.18962 0.84376 0.51949 0.0
H998 H 0.11499 0.73383 0.48269 0.0
H999 H 0.14099 0.76108 0.51523 0.0
H1000 H 0.10197 0.78672 0.45366 0.0
H1001 H 0.12846 0.81376 0.48517 0.0
H1002 H 0.07701 0.75797 0.5654 0.0
H1003 H 0.10783 0.78693 0.53888 0.0
H1004 H 0.12753 0.75828 0.61693 0.0
H1005 H 0.15867 0.78646 0.58944 0.0
H1006 H 0.23202 0.92139 0.56757 0.0
H1007 H 0.2047 0.88953 0.5407 0.0
H1008 H 0.23745 0.87314 0.61771 0.0
H1009 H 0.21088 0.84115 0.59 0.0
H1010 H 0.26508 0.89496 0.49277 0.0
H1011 H 0.23721 0.86506 0.52181 0.0
H1012 H 0.20859 0.8937 0.45128 0.0
H1013 H 0.18116 0.8646 0.48047 0.0
N1014 N 0.1721 0.82578 0.50692 0.0
N1015 N 0.17239 0.82457 0.55867 0.0
C1016 C 0.2457 0.35762 0.48499 0.0
C1017 C 0.23793 0.34162 0.46468 0.0
C1018 C 0.22986 0.35851 0.50191 0.0
C1019 C 0.20601 0.34334 0.49882 0.0
C1020 C 0.21407 0.32643 0.46185 0.0
C1021 C 0.19835 0.32732 0.47867 0.0
C1022 C 0.18859 0.34515 0.51467 0.0
C1023 C 0.22385 0.3226 0.57173 0.0
C1024 C 0.23646 0.33916 0.59061 0.0
C1025 C 0.2092 0.32564 0.55519 0.0
C1026 C 0.2068 0.34525 0.55733 0.0
C1027 C 0.23426 0.35892 0.59253 0.0
C1028 C 0.21931 0.36178 0.57622 0.0
C1029 C 0.1896 0.34732 0.5416 0.0
C1030 C 0.09464 0.32295 0.57134 0.0
C1031 C 0.09866 0.3396 0.59012 0.0
C1032 C 0.1124 0.32581 0.55494 0.0
C1033 C 0.13453 0.34533 0.5571 0.0
C1034 C 0.12075 0.35927 0.59208 0.0
C1035 C 0.13862 0.36196 0.57589 0.0
C1036 C 0.15384 0.34726 0.54149 0.0
C1037 C 0.10825 0.35706 0.48422 0.0
C1038 C 0.09999 0.3408 0.46415 0.0
C1039 C 0.12493 0.35815 0.50131 0.0
C1040 C 0.13355 0.34295 0.49862 0.0
C1041 C 0.10856 0.32553 0.46178 0.0
C1042 C 0.12513 0.32663 0.47876 0.0
C1043 C 0.1528 0.34501 0.51456 0.0
H1044 H 0.26397 0.36952 0.48773 0.0
H1045 H 0.23623 0.37145 0.5169 0.0
H1046 H 0.2074 0.3142 0.44616 0.0
H1047 H 0.18006 0.31558 0.47568 0.0
H1048 H 0.22535 0.30728 0.56976 0.0
H1049 H 0.19928 0.31238 0.54115 0.0
H1050 H 0.24369 0.37186 0.60705 0.0
H1051 H 0.21742 0.37685 0.57842 0.0
H1052 H 0.07774 0.3077 0.56933 0.0
H1053 H 0.10899 0.31248 0.54098 0.0
H1054 H 0.12434 0.37227 0.60653 0.0
H1055 H 0.15566 0.37696 0.57811 0.0
H1056 H 0.10194 0.36902 0.4866 0.0
H1057 H 0.13153 0.37128 0.51609 0.0
H1058 H 0.10296 0.31309 0.4463 0.0
H1059 H 0.13164 0.31486 0.47611 0.0
N1060 N 0.17023 0.34408 0.50234 0.0
N1061 N 0.17226 0.34844 0.55395 0.0
C1062 C 0.97459 0.37899 0.08288 0.0
C1063 C 0.99617 0.38289 0.07429 0.0
H1064 H 0.95651 0.3901 0.10778 0.0
C1065 C 0.01632 0.40007 0.08619 0.0
H1066 H 0.95877 0.36581 0.07407 0.0
C1067 C 0.01503 0.41372 0.10558 0.0
C1068 C 0.99357 0.41067 0.11341 0.0
H1069 H 0.03319 0.40328 0.08023 0.0
H1070 H 0.03094 0.427 0.11413 0.0
C1071 C 0.9733 0.3928 0.10227 0.0
C1072 C 0.58614 0.59237 0.06643 0.0
C1073 C 0.61034 0.60463 0.06742 0.0
H1074 H 0.55462 0.5694 0.08536 0.0
C1075 C 0.62148 0.60306 0.08947 0.0
H1076 H 0.5771 0.5931 0.04956 0.0
C1077 C 0.60854 0.58993 0.11049 0.0
C1078 C 0.58421 0.57789 0.10967 0.0
H1079 H 0.64016 0.61251 0.09076 0.0
H1080 H 0.6176 0.58964 0.12752 0.0
C1081 C 0.57325 0.57899 0.08715 0.0
C1082 C 0.40559 0.02715 0.08348 0.0
C1083 C 0.39269 0.00648 0.06975 0.0
H1084 H 0.42998 0.04461 0.11369 0.0
C1085 C 0.39453 0.98714 0.07647 0.0
H1086 H 0.40446 0.0423 0.07878 0.0
C1087 C 0.40897 0.98842 0.09645 0.0
C1088 C 0.42202 0.0091 0.11012 0.0
H1089 H 0.38479 0.97095 0.06627 0.0
H1090 H 0.41025 0.9733 0.10087 0.0
C1091 C 0.42021 0.02848 0.10341 0.0
C1092 C 0.39608 0.01172 0.93506 0.0
C1093 C 0.37928 0.99166 0.94746 0.0
H1094 H 0.42248 0.02621 0.90652 0.0
C1095 C 0.37532 0.97006 0.93894 0.0
H1096 H 0.39931 0.02862 0.94093 0.0
C1097 C 0.38883 0.96869 0.91921 0.0
C1098 C 0.40642 0.98891 0.90769 0.0
H1099 H 0.36243 0.95433 0.94814 0.0
H1100 H 0.38619 0.95192 0.91376 0.0
C1101 C 0.40942 0.01036 0.91537 0.0
C1102 C 0.02389 0.39758 0.93228 0.0
C1103 C 0.01289 0.39639 0.95562 0.0
H1104 H 0.03161 0.41145 0.89422 0.0
C1105 C 0.00281 0.41017 0.95915 0.0
H1106 H 0.0317 0.38699 0.92907 0.0
C1107 C 0.00316 0.42447 0.93957 0.0
C1108 C 0.0131 0.42495 0.91564 0.0
H1109 H 0.99446 0.40981 0.97708 0.0
H1110 H 0.99544 0.43506 0.94326 0.0
C1111 C 0.02385 0.41162 0.91237 0.0
C1112 C 0.60156 0.59749 0.93655 0.0
C1113 C 0.60289 0.61759 0.9466 0.0
H1114 H 0.58514 0.56946 0.91018 0.0
C1115 C 0.58857 0.62535 0.93636 0.0
H1116 H 0.61229 0.59099 0.94406 0.0
C1117 C 0.57298 0.613 0.91664 0.0
C1118 C 0.57154 0.59273 0.90675 0.0
H1119 H 0.58924 0.64081 0.94375 0.0
H1120 H 0.56211 0.61931 0.9091 0.0
C1121 C 0.58608 0.58521 0.91693 0.0
C1122 C 0.98688 0.60177 0.93525 0.0
C1123 C 0.00724 0.61902 0.94678 0.0
H1124 H 0.9717 0.57451 0.90778 0.0
C1125 C 0.02865 0.62274 0.9378 0.0
H1126 H 0.97011 0.5987 0.94146 0.0
C1127 C 0.02955 0.60862 0.91848 0.0
C1128 C 0.00905 0.59064 0.90784 0.0
H1129 H 0.04461 0.63597 0.94631 0.0
H1130 H 0.04621 0.61114 0.91265 0.0
C1131 C 0.98778 0.58784 0.91598 0.0
C1132 C 0.39997 0.3961 0.93841 0.0
C1133 C 0.37955 0.39435 0.94806 0.0
H1134 H 0.42798 0.41254 0.912 0.0
C1135 C 0.37118 0.40789 0.93706 0.0
H1136 H 0.40691 0.38594 0.94649 0.0
C1137 C 0.38332 0.4232 0.91706 0.0
C1138 C 0.40391 0.42509 0.90761 0.0
H1139 H 0.35548 0.40689 0.94413 0.0
H1140 H 0.3766 0.43355 0.90899 0.0
C1141 C 0.41198 0.41125 0.91846 0.0
C1142 C 0.60994 0.01309 0.94019 0.0
C1143 C 0.60803 0.99268 0.94996 0.0
H1144 H 0.59757 0.02839 0.91333 0.0
C1145 C 0.59192 0.97143 0.939 0.0
H1146 H 0.62244 0.02976 0.94799 0.0
C1147 C 0.57736 0.97061 0.91926 0.0
C1148 C 0.5788 0.99104 0.91001 0.0
H1149 H 0.59014 0.95544 0.94615 0.0
H1150 H 0.56447 0.95393 0.91188 0.0
C1151 C 0.59562 0.0123 0.92036 0.0
C1152 C 0.62234 0.02663 0.08487 0.0
C1153 C 0.61475 0.00541 0.0724 0.0
H1154 H 0.61547 0.04498 0.1141 0.0
C1155 C 0.59416 0.98598 0.08057 0.0
H1156 H 0.63817 0.04188 0.07901 0.0
C1157 C 0.58126 0.98772 0.10054 0.0
C1158 C 0.58858 0.00896 0.11285 0.0
H1159 H 0.58784 0.96938 0.07135 0.0
H1160 H 0.56519 0.9725 0.10588 0.0
C1161 C 0.60932 0.0284 0.10487 0.0
C1162 C 0.97342 0.59397 0.08025 0.0
C1163 C 0.99471 0.61027 0.06954 0.0
H1164 H 0.95589 0.56636 0.10717 0.0
C1165 C 0.01514 0.6124 0.07957 0.0
H1166 H 0.9574 0.59204 0.07291 0.0
C1167 C 0.01435 0.59814 0.09943 0.0
C1168 C 0.99306 0.58109 0.10952 0.0
H1169 H 0.03184 0.62509 0.072 0.0
H1170 H 0.03049 0.60034 0.10671 0.0
C1171 C 0.97259 0.57941 0.1 0.0
C1172 C 0.39601 0.37699 0.09254 0.0
C1173 C 0.39526 0.38751 0.06957 0.0
H1174 H 0.40992 0.38203 0.13056 0.0
C1175 C 0.40964 0.41141 0.06671 0.0
H1176 H 0.38502 0.35856 0.0952 0.0
C1177 C 0.42408 0.42471 0.08657 0.0
C1178 C 0.42421 0.41455 0.1101 0.0
H1179 H 0.40967 0.41994 0.04907 0.0
H1180 H 0.43512 0.44307 0.08343 0.0
C1181 C 0.41029 0.39043 0.11272 0.0
C1182 C 0.63089 0.7066 0.42194 0.0
C1183 C 0.65291 0.71501 0.41107 0.0
H1184 H 0.61034 0.71213 0.44955 0.0
C1185 C 0.67147 0.73564 0.42052 0.0
H1186 H 0.61626 0.69074 0.41502 0.0
C1187 C 0.66812 0.74782 0.44012 0.0
C1188 C 0.64609 0.73971 0.45081 0.0
H1189 H 0.68865 0.74262 0.41252 0.0
H1190 H 0.68274 0.76397 0.44643 0.0
C1191 C 0.62749 0.71889 0.44158 0.0
C1192 C 0.26498 0.94627 0.42245 0.0
C1193 C 0.28266 0.94373 0.41121 0.0
H1194 H 0.23792 0.934 0.45023 0.0
C1195 C 0.28734 0.92694 0.42094 0.0
H1196 H 0.26115 0.95926 0.41562 0.0
C1197 C 0.27381 0.91222 0.44076 0.0
C1198 C 0.25542 0.91413 0.4512 0.0
H1199 H 0.30091 0.92464 0.41267 0.0
H1200 H 0.27711 0.89876 0.44713 0.0
C1201 C 0.25161 0.93174 0.44225 0.0
C1202 C 0.05113 0.3176 0.41594 0.0
C1203 C 0.05374 0.33793 0.40502 0.0
H1204 H 0.06311 0.30257 0.44365 0.0
C1205 C 0.07065 0.35935 0.41488 0.0
H1206 H 0.03804 0.30081 0.40901 0.0
C1207 C 0.08526 0.36038 0.4347 0.0
C1208 C 0.08312 0.33999 0.44505 0.0
H1209 H 0.07298 0.3753 0.40687 0.0
H1210 H 0.09872 0.37713 0.44127 0.0
C1211 C 0.06555 0.31861 0.43577 0.0
C1212 C 0.06513 0.34319 0.27253 0.0
C1213 C 0.04735 0.32325 0.28409 0.0
H1214 H 0.09215 0.35733 0.24473 0.0
C1215 C 0.04272 0.3015 0.27523 0.0
H1216 H 0.06888 0.36021 0.27862 0.0
C1217 C 0.05637 0.29984 0.25585 0.0
C1218 C 0.07474 0.3199 0.24496 0.0
H1219 H 0.02904 0.28584 0.28376 0.0
H1220 H 0.05306 0.2829 0.25008 0.0
C1221 C 0.07853 0.34154 0.25312 0.0
C1222 C 0.68596 0.72916 0.26578 0.0
C1223 C 0.67529 0.72922 0.28895 0.0
H1224 H 0.69429 0.74208 0.22734 0.0
C1225 C 0.66622 0.74399 0.29164 0.0
H1226 H 0.69302 0.71785 0.26323 0.0
C1227 C 0.66729 0.75807 0.27146 0.0
C1228 C 0.67702 0.75743 0.24778 0.0
H1229 H 0.65817 0.74463 0.30941 0.0
H1230 H 0.66038 0.76945 0.27449 0.0
C1231 C 0.68671 0.74307 0.24529 0.0
C1232 C 0.26865 0.9606 0.26541 0.0
C1233 C 0.26674 0.95065 0.28962 0.0
H1234 H 0.25649 0.95504 0.22652 0.0
C1235 C 0.24922 0.92779 0.29385 0.0
H1236 H 0.28207 0.97823 0.26168 0.0
C1237 C 0.23452 0.91474 0.27406 0.0
C1238 C 0.23721 0.92405 0.24933 0.0
H1239 H 0.24713 0.91979 0.31244 0.0
H1240 H 0.22127 0.89711 0.27807 0.0
C1241 C 0.25402 0.94735 0.24534 0.0
C1242 C 0.68609 0.95671 0.26311 0.0
C1243 C 0.67706 0.94627 0.28691 0.0
H1244 H 0.69274 0.9517 0.22405 0.0
C1245 C 0.66929 0.92269 0.29 0.0
H1246 H 0.69214 0.97488 0.26023 0.0
C1247 C 0.66984 0.90958 0.2696 0.0
C1248 C 0.67785 0.91959 0.24537 0.0
H1249 H 0.6625 0.91422 0.30822 0.0
H1250 H 0.66381 0.89145 0.27284 0.0
C1251 C 0.68643 0.94344 0.24244 0.0
C1252 C 0.06588 0.72029 0.26951 0.0
C1253 C 0.04827 0.72245 0.28149 0.0
H1254 H 0.09242 0.73311 0.2411 0.0
C1255 C 0.04311 0.73912 0.27248 0.0
H1256 H 0.07003 0.70736 0.27575 0.0
C1257 C 0.0562 0.75416 0.25267 0.0
C1258 C 0.07455 0.75265 0.2415 0.0
H1259 H 0.02955 0.7411 0.28133 0.0
H1260 H 0.05259 0.76756 0.24689 0.0
C1261 C 0.07877 0.7351 0.24968 0.0
C1262 C 0.26043 0.30495 0.27508 0.0
C1263 C 0.27678 0.32644 0.28534 0.0
H1264 H 0.23271 0.2869 0.24833 0.0
C1265 C 0.27879 0.34665 0.27478 0.0
H1266 H 0.25858 0.2891 0.28281 0.0
C1267 C 0.26432 0.34544 0.25491 0.0
C1268 C 0.2473 0.32397 0.24524 0.0
H1269 H 0.29146 0.3635 0.28202 0.0
H1270 H 0.2663 0.36138 0.24732 0.0
C1271 C 0.24576 0.30372 0.25522 0.0
C1272 C 0.26415 0.31866 0.4169 0.0
C1273 C 0.28232 0.33904 0.40646 0.0
H1274 H 0.23651 0.3035 0.44393 0.0
C1275 C 0.2869 0.36041 0.41651 0.0
H1276 H 0.26038 0.3019 0.40983 0.0
C1277 C 0.27297 0.36134 0.43602 0.0
C1278 C 0.25429 0.34091 0.44587 0.0
H1279 H 0.30085 0.37638 0.40887 0.0
H1280 H 0.27633 0.37806 0.44274 0.0
C1281 C 0.25041 0.31958 0.43642 0.0
C1282 C 0.63153 0.9253 0.42118 0.0
C1283 C 0.65358 0.93876 0.41034 0.0
H1284 H 0.61084 0.89951 0.44898 0.0
C1285 C 0.67211 0.93687 0.42013 0.0
H1286 H 0.61693 0.9264 0.414 0.0
C1287 C 0.66865 0.92158 0.44002 0.0
C1288 C 0.64656 0.90774 0.45062 0.0
H1289 H 0.68931 0.94698 0.41216 0.0
H1290 H 0.68323 0.92014 0.44658 0.0
C1291 C 0.62803 0.90984 0.44109 0.0
C1292 C 0.08027 0.73927 0.39932 0.0
C1293 C 0.0641 0.71585 0.40307 0.0
H1294 H 0.10686 0.77061 0.41552 0.0
C1295 C 0.06313 0.70573 0.42695 0.0
H1296 H 0.08163 0.74745 0.381 0.0
C1297 C 0.07735 0.71924 0.44715 0.0
C1298 C 0.09286 0.743 0.44364 0.0
H1299 H 0.05076 0.68768 0.4303 0.0
H1300 H 0.0756 0.7113 0.46569 0.0
C1301 C 0.09459 0.7526 0.41923 0.0
C1302 C 0.33943 0.06792 0.7544 0.0
C1303 C 0.32044 0.04799 0.74426 0.0
H1304 H 0.35136 0.09613 0.7806 0.0
C1305 C 0.29835 0.04058 0.75438 0.0
H1306 H 0.35668 0.07414 0.74697 0.0
C1307 C 0.29529 0.05316 0.77396 0.0
C1308 C 0.31429 0.07336 0.7838 0.0
H1309 H 0.2834 0.02524 0.74698 0.0
H1310 H 0.27806 0.04709 0.78134 0.0
C1311 C 0.33639 0.08046 0.77387 0.0
C1312 C 0.92799 0.27012 0.74841 0.0
C1313 C 0.94875 0.27219 0.73943 0.0
H1314 H 0.89957 0.25342 0.77434 0.0
C1315 C 0.95717 0.25891 0.75095 0.0
H1316 H 0.92103 0.2801 0.73991 0.0
C1317 C 0.94484 0.24358 0.77083 0.0
C1318 C 0.92396 0.2414 0.77967 0.0
H1319 H 0.97314 0.26017 0.74443 0.0
H1320 H 0.95166 0.23347 0.77932 0.0
C1321 C 0.91577 0.25494 0.76829 0.0
C1322 C 0.72983 0.65927 0.74678 0.0
C1323 C 0.7275 0.67774 0.7377 0.0
H1324 H 0.74678 0.64806 0.77287 0.0
C1325 C 0.74061 0.69958 0.7491 0.0
H1326 H 0.71999 0.64223 0.73837 0.0
C1327 C 0.75592 0.7029 0.76908 0.0
C1328 C 0.75832 0.68442 0.77808 0.0
H1329 H 0.7391 0.71411 0.74253 0.0
H1330 H 0.7658 0.71991 0.77756 0.0
C1331 C 0.74505 0.66257 0.76672 0.0
C1332 C 0.73747 0.67451 0.60967 0.0
C1333 C 0.71677 0.65566 0.61853 0.0
H1334 H 0.76596 0.68659 0.58379 0.0
C1335 C 0.70853 0.63398 0.60691 0.0
H1336 H 0.7443 0.69144 0.61826 0.0
C1337 C 0.72093 0.63121 0.58693 0.0
C1338 C 0.74173 0.6501 0.57816 0.0
H1339 H 0.69258 0.61915 0.6133 0.0
H1340 H 0.71418 0.61433 0.57828 0.0
C1341 C 0.7498 0.67177 0.58974 0.0
C1342 C 0.33138 0.07633 0.62654 0.0
C1343 C 0.34169 0.06264 0.62425 0.0
H1344 H 0.32457 0.10107 0.60914 0.0
C1345 C 0.35349 0.06366 0.60158 0.0
H1346 H 0.3224 0.07608 0.64393 0.0
C1347 C 0.35422 0.07759 0.58117 0.0
C1348 C 0.3434 0.09094 0.58323 0.0
H1349 H 0.3615 0.05316 0.59932 0.0
H1350 H 0.36273 0.0774 0.56359 0.0
C1351 C 0.33244 0.09048 0.60643 0.0
C1352 C 0.92084 0.25712 0.62226 0.0
C1353 C 0.93503 0.28108 0.61971 0.0
H1354 H 0.89531 0.22559 0.6054 0.0
C1355 C 0.93382 0.29183 0.59714 0.0
H1356 H 0.92115 0.24841 0.63961 0.0
C1357 C 0.91931 0.27857 0.577 0.0
C1358 C 0.90562 0.25439 0.57928 0.0
H1359 H 0.94465 0.31032 0.59472 0.0
H1360 H 0.91934 0.28715 0.55942 0.0
C1361 C 0.90616 0.244 0.60248 0.0
C1362 C 0.32967 0.25543 0.62314 0.0
C1363 C 0.33966 0.27939 0.62047 0.0
H1364 H 0.32352 0.22381 0.6065 0.0
C1365 C 0.35171 0.29003 0.59788 0.0
H1366 H 0.32058 0.24682 0.64052 0.0
C1367 C 0.35288 0.27666 0.57783 0.0
C1368 C 0.34226 0.2525 0.58026 0.0
H1369 H 0.35952 0.30852 0.59537 0.0
H1370 H 0.36153 0.28518 0.56025 0.0
C1371 C 0.33118 0.24221 0.60346 0.0
C1372 C 0.71161 0.07326 0.60634 0.0
C1373 C 0.71688 0.05727 0.6172 0.0
H1374 H 0.72096 0.10014 0.57865 0.0
C1375 C 0.73493 0.05492 0.6067 0.0
H1376 H 0.69772 0.07535 0.61403 0.0
C1377 C 0.74791 0.06873 0.58627 0.0
C1378 C 0.74337 0.08546 0.57599 0.0
H1379 H 0.73917 0.04249 0.61441 0.0
H1380 H 0.76174 0.06649 0.57871 0.0
C1381 C 0.7248 0.0873 0.58596 0.0
C1382 C 0.92172 0.63248 0.60959 0.0
C1383 C 0.93488 0.65407 0.62151 0.0
H1384 H 0.89712 0.61301 0.58022 0.0
C1385 C 0.93308 0.6729 0.6126 0.0
H1386 H 0.92283 0.61768 0.61598 0.0
C1387 C 0.91849 0.67027 0.59222 0.0
C1388 C 0.90528 0.64873 0.5802 0.0
H1389 H 0.94297 0.68977 0.6214 0.0
H1390 H 0.91725 0.68509 0.58618 0.0
C1391 C 0.907 0.62982 0.58915 0.0
C1392 C 0.9458 0.69827 0.73863 0.0
C1393 C 0.95069 0.68026 0.74015 0.0
H1394 H 0.92863 0.71464 0.75545 0.0
C1395 C 0.94371 0.66606 0.76188 0.0
H1396 H 0.95091 0.70935 0.72192 0.0
C1397 C 0.93175 0.66959 0.78166 0.0
C1398 C 0.92572 0.68691 0.77979 0.0
H1399 H 0.94758 0.65222 0.76361 0.0
H1400 H 0.92711 0.65853 0.79831 0.0
C1401 C 0.93316 0.70137 0.75804 0.0
C1402 C 0.29794 0.25846 0.75245 0.0
C1403 C 0.31943 0.27179 0.74038 0.0
H1404 H 0.2786 0.23307 0.78112 0.0
C1405 C 0.33837 0.26988 0.74871 0.0
H1406 H 0.28305 0.2596 0.74645 0.0
C1407 C 0.33584 0.25476 0.76846 0.0
C1408 C 0.3143 0.24113 0.78034 0.0
H1409 H 0.35516 0.27991 0.73977 0.0
H1410 H 0.35068 0.25334 0.77397 0.0
C1411 C 0.29538 0.24321 0.7722 0.0
C1412 C 0.72902 0.07042 0.74918 0.0
C1413 C 0.72694 0.04979 0.7398 0.0
H1414 H 0.74573 0.09853 0.77547 0.0
C1415 C 0.7404 0.04135 0.75085 0.0
H1416 H 0.71891 0.07741 0.74105 0.0
C1417 C 0.75583 0.05351 0.77075 0.0
C1418 C 0.7579 0.0742 0.78008 0.0
H1419 H 0.73914 0.02547 0.74401 0.0
H1420 H 0.76605 0.04669 0.77893 0.0
C1421 C 0.74427 0.08245 0.76907 0.0
C1422 C 0.03819 0.3201 0.07538 0.0
C1423 C 0.04529 0.32957 0.05078 0.0
H1424 H 0.0474 0.30988 0.1103 0.0
C1425 C 0.06724 0.33484 0.04192 0.0
H1426 H 0.02142 0.316 0.08278 0.0
C1427 C 0.08189 0.33088 0.05756 0.0
C1428 C 0.07498 0.32212 0.08242 0.0
H1429 H 0.07311 0.34217 0.02305 0.0
H1430 H 0.09887 0.33528 0.05055 0.0
C1431 C 0.05301 0.31666 0.09117 0.0
C1432 C 0.66179 0.7277 0.03936 0.0
C1433 C 0.66277 0.70893 0.04992 0.0
H1434 H 0.66517 0.76091 0.04629 0.0
C1435 C 0.66832 0.70947 0.07596 0.0
H1436 H 0.65761 0.72772 0.01932 0.0
C1437 C 0.67229 0.72816 0.09132 0.0
C1438 C 0.67121 0.74687 0.08086 0.0
H1439 H 0.66916 0.69521 0.08463 0.0
H1440 H 0.67617 0.72799 0.11144 0.0
C1441 C 0.66622 0.74667 0.05469 0.0
C1442 C 0.28652 0.96162 0.07875 0.0
C1443 C 0.28742 0.95652 0.0528 0.0
H1444 H 0.26767 0.95085 0.11402 0.0
C1445 C 0.26889 0.93651 0.04216 0.0
H1446 H 0.30057 0.97691 0.08749 0.0
C1447 C 0.24987 0.92177 0.05732 0.0
C1448 C 0.24934 0.92664 0.08343 0.0
H1449 H 0.26914 0.93222 0.02219 0.0
H1450 H 0.23587 0.90628 0.04885 0.0
C1451 C 0.26777 0.94671 0.09396 0.0
C1452 C 0.30942 0.03964 0.96789 0.0
C1453 C 0.33162 0.04659 0.97729 0.0
H1454 H 0.28807 0.04879 0.94632 0.0
C1455 C 0.34979 0.0688 0.97158 0.0
H1456 H 0.29508 0.02258 0.97209 0.0
C1457 C 0.346 0.08357 0.95609 0.0
C1458 C 0.3238 0.07668 0.94641 0.0
H1459 H 0.36715 0.07447 0.97828 0.0
H1460 H 0.3607 0.10017 0.95119 0.0
C1461 C 0.30549 0.0546 0.95285 0.0
C1462 C 0.96229 0.28596 0.94634 0.0
C1463 C 0.95599 0.28948 0.97089 0.0
H1464 H 0.95197 0.26557 0.91225 0.0
C1465 C 0.93391 0.27386 0.98031 0.0
H1466 H 0.97916 0.29782 0.93849 0.0
C1467 C 0.91839 0.25505 0.96539 0.0
C1468 C 0.92456 0.25165 0.94064 0.0
H1469 H 0.92865 0.27611 0.99922 0.0
H1470 H 0.90161 0.2431 0.97337 0.0
C1471 C 0.94673 0.26735 0.93134 0.0
C1472 C 0.72402 0.68701 0.96287 0.0
C1473 C 0.70849 0.66459 0.97147 0.0
H1474 H 0.75499 0.70886 0.94213 0.0
C1475 C 0.71242 0.64651 0.96501 0.0
H1476 H 0.72141 0.70128 0.96768 0.0
C1477 C 0.73126 0.65067 0.9497 0.0
C1478 C 0.7469 0.67312 0.94095 0.0
H1479 H 0.70054 0.629 0.97112 0.0
H1480 H 0.73322 0.63612 0.94432 0.0
C1481 C 0.74314 0.69128 0.94798 0.0
C1482 C 0.93108 0.64993 0.96901 0.0
C1483 C 0.95331 0.66826 0.97438 0.0
H1484 H 0.8996 0.6385 0.94858 0.0
C1485 C 0.9602 0.6902 0.96433 0.0
H1486 H 0.92548 0.63275 0.97624 0.0
C1487 C 0.94515 0.69373 0.94898 0.0
C1488 C 0.92306 0.67525 0.94285 0.0
H1489 H 0.97727 0.70464 0.96827 0.0
H1490 H 0.9509 0.71099 0.94198 0.0
C1491 C 0.91622 0.65331 0.95319 0.0
C1492 C 0.35229 0.28732 0.96671 0.0
C1493 C 0.33414 0.29135 0.97251 0.0
H1494 H 0.36306 0.26662 0.94651 0.0
C1495 C 0.31195 0.27614 0.96301 0.0
H1496 H 0.36964 0.29899 0.9735 0.0
C1497 C 0.30795 0.25714 0.94805 0.0
C1498 C 0.32618 0.25322 0.94179 0.0
H1499 H 0.29763 0.27884 0.96729 0.0
H1500 H 0.29051 0.24547 0.9416 0.0
C1501 C 0.34843 0.26865 0.9513 0.0
C1502 C 0.72662 0.06423 0.98155 0.0
C1503 C 0.7109 0.04218 0.97213 0.0
H1504 H 0.75745 0.09644 0.97462 0.0
C1505 C 0.71459 0.0357 0.94776 0.0
H1506 H 0.72425 0.06963 1.00033 0.0
C1507 C 0.73331 0.05116 0.93281 0.0
C1508 C 0.74894 0.07339 0.94199 0.0
H1509 H 0.70267 0.01885 0.93991 0.0
H1510 H 0.73514 0.04584 0.91377 0.0
C1511 C 0.74552 0.07963 0.9667 0.0
C1512 C 0.64826 0.92772 0.0482 0.0
C1513 C 0.66535 0.95111 0.04652 0.0
H1514 H 0.63798 0.89484 0.06525 0.0
C1515 C 0.68623 0.95901 0.05986 0.0
H1516 H 0.63198 0.92119 0.03818 0.0
C1517 C 0.68974 0.94389 0.07508 0.0
C1518 C 0.67228 0.92073 0.07758 0.0
H1519 H 0.6997 0.97697 0.05887 0.0
H1520 H 0.70578 0.95048 0.08561 0.0
C1521 C 0.65162 0.9127 0.06378 0.0
C1522 C 0.06415 0.73176 0.0394 0.0
C1523 C 0.04403 0.71337 0.05003 0.0
H1524 H 0.09479 0.76445 0.04624 0.0
C1525 C 0.03923 0.71409 0.07612 0.0
H1526 H 0.06822 0.73162 0.01934 0.0
C1527 C 0.05452 0.73253 0.09146 0.0
C1528 C 0.07468 0.75084 0.08093 0.0
H1529 H 0.02389 0.70012 0.08486 0.0
H1530 H 0.05062 0.7325 0.11162 0.0
C1531 C 0.07926 0.75051 0.05471 0.0
C1532 C 0.28238 0.35456 0.05388 0.0
C1533 C 0.28869 0.33758 0.05113 0.0
H1534 H 0.25958 0.36415 0.0719 0.0
C1535 C 0.27586 0.31644 0.06401 0.0
H1536 H 0.29202 0.37104 0.04423 0.0
C1537 C 0.2572 0.31242 0.07956 0.0
C1538 C 0.25128 0.32962 0.08288 0.0
H1539 H 0.28034 0.30303 0.06221 0.0
H1540 H 0.24775 0.29608 0.08952 0.0
C1541 C 0.26395 0.35069 0.06981 0.0
C1542 C 0.70506 0.6478 0.39491 0.0
C1543 C 0.71165 0.67005 0.38608 0.0
H1544 H 0.71481 0.62642 0.41542 0.0
C1545 C 0.73373 0.68837 0.39205 0.0
H1546 H 0.68813 0.63334 0.39045 0.0
C1547 C 0.74879 0.68461 0.40708 0.0
C1548 C 0.74233 0.66231 0.41601 0.0
H1549 H 0.73912 0.70576 0.38573 0.0
H1550 H 0.76534 0.69935 0.41209 0.0
C1551 C 0.72031 0.64391 0.40946 0.0
C1552 C 0.33093 0.0617 0.37559 0.0
C1553 C 0.33509 0.04462 0.38551 0.0
H1554 H 0.3312 0.09343 0.38292 0.0
C1555 C 0.34357 0.04694 0.4106 0.0
H1556 H 0.3244 0.0603 0.3563 0.0
C1557 C 0.347 0.06554 0.42585 0.0
C1558 C 0.34253 0.0824 0.41608 0.0
H1559 H 0.34682 0.03397 0.41877 0.0
H1560 H 0.3529 0.06664 0.4454 0.0
C1561 C 0.33487 0.08062 0.39071 0.0
C1562 C 0.94695 0.29623 0.40674 0.0
C1563 C 0.94922 0.28993 0.38167 0.0
H1564 H 0.92731 0.28608 0.44155 0.0
C1565 C 0.93196 0.2687 0.37176 0.0
H1566 H 0.96001 0.31245 0.41492 0.0
C1567 C 0.913 0.25382 0.38692 0.0
C1568 C 0.91135 0.2598 0.4123 0.0
H1569 H 0.93331 0.26347 0.35249 0.0
H1570 H 0.90011 0.23728 0.37918 0.0
C1571 C 0.92831 0.28118 0.422 0.0
C1572 C 0.99223 0.37344 0.27801 0.0
C1573 C -0.00148 0.3783 0.30391 0.0
H1574 H 0.98583 0.3855 0.24266 0.0
C1575 C 0.0023 0.39924 0.31442 0.0
H1576 H 0.98933 0.35748 0.26937 0.0
C1577 C -0.00013 0.41508 0.29918 0.0
C1578 C 0.99418 0.41039 0.27314 0.0
H1579 H 0.00717 0.40337 0.33434 0.0
H1580 H 0.00299 0.43122 0.30754 0.0
C1581 C 0.99032 0.38945 0.2627 0.0
C1582 C 0.62593 0.61047 0.29649 0.0
C1583 C 0.618 0.62346 0.30974 0.0
H1584 H 0.61752 0.58238 0.2707 0.0
C1585 C 0.59469 0.61732 0.30758 0.0
H1586 H 0.64382 0.61481 0.29784 0.0
C1587 C 0.57975 0.59898 0.29178 0.0
C1588 C 0.58778 0.58624 0.27821 0.0
H1589 H 0.58815 0.62707 0.31754 0.0
H1590 H 0.56193 0.5948 0.29008 0.0
C1591 C 0.6109 0.5919 0.28103 0.0
C1592 C 0.37468 0.97053 0.30005 0.0
C1593 C 0.37365 0.99015 0.30743 0.0
H1594 H 0.39206 0.95705 0.27773 0.0
C1595 C 0.39079 0.01194 0.2988 0.0
H1596 H 0.36153 0.95348 0.30623 0.0
C1597 C 0.40856 0.0141 0.28289 0.0
C1598 C 0.40939 0.99445 0.27484 0.0
H1599 H 0.39047 0.02739 0.30431 0.0
H1600 H 0.4217 0.03124 0.27702 0.0
C1601 C 0.39225 0.97263 0.28376 0.0
C1602 C 0.59464 0.97067 0.30102 0.0
C1603 C 0.61586 0.98991 0.30784 0.0
H1604 H 0.56346 0.95787 0.27949 0.0
C1605 C 0.62117 0.01185 0.29911 0.0
H1606 H 0.59024 0.95351 0.30726 0.0
C1607 C 0.60561 0.01451 0.28371 0.0
C1608 C 0.58454 0.99521 0.27619 0.0
H1609 H 0.6374 0.02701 0.30423 0.0
H1610 H 0.61012 0.03177 0.27779 0.0
C1611 C 0.57926 0.97324 0.28516 0.0
C1612 C 0.9938 0.62061 0.27886 0.0
C1613 C 0.00122 0.62219 0.30434 0.0
H1614 H 0.986 0.60201 0.24337 0.0
C1615 C 0.00558 0.60517 0.31398 0.0
H1616 H 0.99046 0.63359 0.27089 0.0
C1617 C 0.00258 0.58687 0.29833 0.0
C1618 C 0.99574 0.58571 0.27269 0.0
H1619 H 0.01133 0.60602 0.33355 0.0
H1620 H 0.00612 0.57394 0.30603 0.0
C1621 C 0.99135 0.60267 0.26309 0.0
C1622 C 0.39774 0.39844 0.31762 0.0
C1623 C 0.38063 0.37723 0.30752 0.0
H1624 H 0.4293 0.43019 0.31033 0.0
C1625 C 0.38271 0.37144 0.28216 0.0
H1626 H 0.39653 0.40329 0.33712 0.0
C1627 C 0.40108 0.38688 0.26686 0.0
C1628 C 0.41797 0.40818 0.2768 0.0
H1629 H 0.36973 0.35524 0.27383 0.0
H1630 H 0.40199 0.38232 0.24714 0.0
C1631 C 0.41645 0.41374 0.30241 0.0
C1632 C 0.33265 0.26799 0.37412 0.0
C1633 C 0.3365 0.28898 0.38456 0.0
H1634 H 0.33265 0.23633 0.3809 0.0
C1635 C 0.34414 0.29451 0.41001 0.0
H1636 H 0.32678 0.26336 0.35454 0.0
C1637 C 0.34707 0.27898 0.42507 0.0
C1638 C 0.3429 0.25789 0.41478 0.0
H1639 H 0.34717 0.31054 0.41859 0.0
H1640 H 0.35236 0.28332 0.44487 0.0
C1641 C 0.33607 0.25262 0.38909 0.0
C1642 C 0.70411 0.05534 0.39564 0.0
C1643 C 0.71188 0.04185 0.38322 0.0
H1644 H 0.71275 0.08425 0.42021 0.0
C1645 C 0.73517 0.04794 0.38559 0.0
H1646 H 0.68624 0.05105 0.39413 0.0
C1647 C 0.75024 0.06675 0.40076 0.0
C1648 C 0.74238 0.08002 0.41351 0.0
H1649 H 0.74162 0.03781 0.37628 0.0
H1650 H 0.76805 0.0709 0.4026 0.0
C1651 C 0.71927 0.07436 0.41049 0.0
C1652 C 0.93996 0.64756 0.39205 0.0
C1653 C 0.95619 0.66982 0.38362 0.0
H1654 H 0.90894 0.62658 0.41309 0.0
C1655 C 0.95343 0.68851 0.39071 0.0
H1656 H 0.94164 0.63281 0.38676 0.0
C1657 C 0.93506 0.68508 0.40645 0.0
C1658 C 0.91877 0.66279 0.41508 0.0
H1659 H 0.96586 0.7059 0.38471 0.0
H1660 H 0.93397 0.70003 0.41228 0.0
C1661 C 0.92135 0.64405 0.40739 0.0
C1662 C 0.37088 0.97892 0.72828 0.0
C1663 C 0.37843 0.00041 0.71651 0.0
H1664 H 0.37965 0.95871 0.75268 0.0
C1665 C 0.40152 0.01798 0.71956 0.0
H1666 H 0.35317 0.96507 0.72624 0.0
C1667 C 0.41654 0.01443 0.73491 0.0
C1668 C 0.40884 0.99313 0.74719 0.0
H1669 H 0.40779 0.03473 0.71074 0.0
H1670 H 0.43415 0.0284 0.73736 0.0
C1671 C 0.38601 0.97526 0.74335 0.0
C1672 C 0.00448 0.37736 0.74441 0.0
C1673 C 0.9968 0.37538 0.71899 0.0
H1674 H 0.01292 0.39667 0.77944 0.0
C1675 C 0.9926 0.3924 0.70899 0.0
H1676 H 0.00775 0.36443 0.75264 0.0
C1677 C 0.996 0.41108 0.72422 0.0
C1678 C 0.00312 0.41269 0.74982 0.0
H1679 H 0.98668 0.39126 0.68945 0.0
H1680 H 0.99251 0.42395 0.71623 0.0
C1681 C 0.00736 0.39571 0.75976 0.0
C1682 C 0.60513 0.59943 0.7081 0.0
C1683 C 0.6208 0.62155 0.71738 0.0
H1684 H 0.5739 0.56752 0.71478 0.0
C1685 C 0.61671 0.6284 0.74134 0.0
H1686 H 0.60779 0.59375 0.68963 0.0
C1687 C 0.59758 0.61327 0.756 0.0
C1688 C 0.58193 0.591 0.74691 0.0
H1689 H 0.62859 0.64532 0.74906 0.0
H1690 H 0.59541 0.61889 0.77473 0.0
C1691 C 0.58581 0.58436 0.72264 0.0
C1692 C 0.67042 0.73165 0.64882 0.0
C1693 C 0.66439 0.70975 0.63925 0.0
H1694 H 0.67074 0.76335 0.64245 0.0
C1695 C 0.65376 0.70302 0.61514 0.0
H1696 H 0.6785 0.73722 0.66743 0.0
C1697 C 0.64971 0.71812 0.60058 0.0
C1698 C 0.65596 0.7402 0.60993 0.0
H1699 H 0.64904 0.68626 0.60721 0.0
H1700 H 0.6422 0.71264 0.58171 0.0
C1701 C 0.66611 0.74667 0.63439 0.0
C1702 C 0.26539 0.9383 0.65214 0.0
C1703 C 0.28478 0.95703 0.64081 0.0
H1704 H 0.2351 0.90513 0.64628 0.0
C1705 C 0.28844 0.95655 0.61436 0.0
H1706 H 0.26221 0.93823 0.67249 0.0
C1707 C 0.27286 0.93791 0.59943 0.0
C1708 C 0.25351 0.91916 0.61069 0.0
H1709 H 0.30321 0.97077 0.60508 0.0
H1710 H 0.27601 0.93806 0.57904 0.0
C1711 C 0.24998 0.91938 0.63721 0.0
C1712 C 0.04805 0.31175 0.63615 0.0
C1713 C 0.04275 0.3294 0.63946 0.0
H1714 H 0.06989 0.30114 0.61774 0.0
C1715 C 0.05649 0.35071 0.62721 0.0
H1716 H 0.03772 0.29513 0.6453 0.0
C1717 C 0.07498 0.35421 0.61164 0.0
C1718 C 0.07985 0.33633 0.60771 0.0
H1719 H 0.05279 0.36463 0.62942 0.0
H1720 H 0.08507 0.37068 0.6021 0.0
C1721 C 0.06633 0.31512 0.62026 0.0
C1722 C 0.25849 0.31102 0.63694 0.0
C1723 C 0.2816 0.32848 0.64013 0.0
H1724 H 0.22609 0.30071 0.61851 0.0
C1725 C 0.28951 0.34977 0.62773 0.0
H1726 H 0.25196 0.29443 0.6462 0.0
C1727 C 0.27469 0.35343 0.61212 0.0
C1728 C 0.25178 0.33573 0.60828 0.0
H1729 H 0.30725 0.36355 0.62986 0.0
H1730 H 0.28131 0.36987 0.60247 0.0
C1731 C 0.24376 0.31455 0.62098 0.0
C1732 C 0.66811 0.93864 0.65058 0.0
C1733 C 0.66249 0.95479 0.64104 0.0
H1734 H 0.66836 0.90726 0.64386 0.0
C1735 C 0.65231 0.95124 0.61671 0.0
H1736 H 0.67586 0.94088 0.66935 0.0
C1737 C 0.64841 0.93225 0.60187 0.0
C1738 C 0.65439 0.91623 0.61116 0.0
H1739 H 0.64791 0.96349 0.60879 0.0
H1740 H 0.64131 0.93051 0.58284 0.0
C1741 C 0.66398 0.91948 0.63587 0.0
C1742 C 0.06129 0.72855 0.65075 0.0
C1743 C 0.04304 0.70839 0.63998 0.0
H1744 H 0.09394 0.75928 0.64426 0.0
C1745 C 0.04425 0.70343 0.61405 0.0
H1746 H 0.06079 0.73276 0.67069 0.0
C1747 C 0.06294 0.71868 0.59895 0.0
C1748 C 0.081 0.73899 0.60957 0.0
H1749 H 0.03043 0.68804 0.6052 0.0
H1750 H 0.06322 0.71469 0.57887 0.0
C1751 C 0.08024 0.74363 0.6357 0.0
C1752 C 0.00394 0.62511 0.7443 0.0
C1753 C 0.99627 0.61978 0.71883 0.0
H1754 H 0.01196 0.6136 0.77907 0.0
C1755 C 0.99167 0.5985 0.70847 0.0
H1756 H 0.00749 0.64133 0.75283 0.0
C1757 C 0.99467 0.58283 0.7234 0.0
C1758 C 0.00176 0.588 0.74905 0.0
H1759 H 0.98574 0.59398 0.6889 0.0
H1760 H 0.99093 0.56646 0.71514 0.0
C1761 C 0.00641 0.60926 0.75935 0.0
C1762 C 0.39546 0.39055 0.70897 0.0
C1763 C 0.37316 0.37527 0.7181 0.0
H1764 H 0.42769 0.42138 0.71572 0.0
C1765 C 0.36636 0.37961 0.74195 0.0
H1766 H 0.4011 0.38768 0.69057 0.0
C1767 C 0.3817 0.39861 0.75664 0.0
C1768 C 0.40413 0.4139 0.74768 0.0
H1769 H 0.3493 0.36801 0.74957 0.0
H1770 H 0.3761 0.40097 0.7753 0.0
C1771 C 0.41073 0.40975 0.72351 0.0
C1772 C 0.60708 0.98148 0.73 0.0
C1773 C 0.62052 0.00261 0.71729 0.0
H1774 H 0.57847 0.96156 0.75507 0.0
C1775 C 0.61471 0.01997 0.71976 0.0
H1776 H 0.61118 0.96779 0.72842 0.0
C1777 C 0.59619 0.0165 0.73528 0.0
C1778 C 0.58295 0.99548 0.74826 0.0
H1779 H 0.62482 0.03645 0.71024 0.0
H1780 H 0.59222 0.03026 0.73719 0.0
C1781 C 0.58835 0.97788 0.74517 0.0
loop_
_geom_bond_atom_site_label_1
_geom_bond_atom_site_label_2
_geom_bond_distance
_geom_bond_site_symmetry_2
_ccdc_geom_bond_type
In0 O1 2.294 1_455 S
In0 O2 2.326 . S
In0 O6 2.266 1_455 S
In0 O7 2.326 1_454 S
In0 O8 2.266 1_554 S
In0 O9 2.326 1_454 S
In0 O11 2.294 . S
In0 O12 2.326 . S
O1 In0 2.294 1_655 S
O1 C10 1.242 . S
O2 In0 2.326 . S
O2 C10 1.249 1_455 S
C3 O6 1.252 1_556 S
C3 O7 1.260 . S
C4 O11 1.240 . S
C4 O12 1.252 . S
C5 O8 1.252 . S
C5 O9 1.260 1_455 S
O6 In0 2.266 1_655 S
O6 C3 1.252 1_554 S
O7 In0 2.326 1_656 S
O7 C3 1.260 . S
O8 In0 2.266 1_556 S
O8 C5 1.252 . S
O9 In0 2.326 1_656 S
O9 C5 1.260 1_655 S
C10 O1 1.242 . S
C10 O2 1.249 1_655 S
O11 In0 2.294 . S
O11 C4 1.240 . S
O12 In0 2.326 . S
O12 C4 1.252 . S
In13 O14 2.294 . S
In13 O15 2.326 . S
In13 O19 2.267 . S
In13 O20 2.326 1_554 S
In13 O21 2.266 1_554 S
In13 O22 2.326 1_554 S
In13 O24 2.294 . S
In13 O25 2.326 . S
O14 In13 2.294 . S
O14 C23 1.240 . S
O15 In13 2.326 . S
O15 C23 1.252 . S
C16 O19 1.251 1_556 S
C16 O20 1.260 . S
C17 O24 1.240 . S
C17 O25 1.252 . S
C18 O21 1.252 . S
C18 O22 1.260 . S
O19 In13 2.267 . S
O19 C16 1.251 1_554 S
O20 In13 2.326 1_556 S
O20 C16 1.260 . S
O21 In13 2.266 1_556 S
O21 C18 1.252 . S
O22 In13 2.326 1_556 S
O22 C18 1.260 . S
C23 O14 1.240 . S
C23 O15 1.252 . S
O24 In13 2.294 . S
O24 C17 1.240 . S
O25 In13 2.326 . S
O25 C17 1.252 . S
In26 O27 2.294 . S
In26 O28 2.326 1_554 S
In26 O32 2.266 . S
In26 O33 2.326 1_545 S
In26 O34 2.266 1_545 S
In26 O35 2.326 1_545 S
In26 O37 2.294 1_544 S
In26 O38 2.326 1_554 S
O27 In26 2.294 . S
O27 C36 1.240 1_554 S
O28 In26 2.326 1_556 S
O28 C36 1.252 . S
C29 O32 1.252 . S
C29 O33 1.260 1_545 S
C30 O37 1.242 1_545 S
C30 O38 1.248 . S
C31 O34 1.252 . S
C31 O35 1.260 . S
O32 In26 2.266 . S
O32 C29 1.252 . S
O33 In26 2.326 1_565 S
O33 C29 1.260 1_565 S
O34 In26 2.266 1_565 S
O34 C31 1.252 . S
O35 In26 2.326 1_565 S
O35 C31 1.260 . S
C36 O27 1.240 1_556 S
C36 O28 1.252 . S
O37 In26 2.294 1_566 S
O37 C30 1.242 1_565 S
O38 In26 2.326 1_556 S
O38 C30 1.248 . S
In39 O40 2.293 1_554 S
In39 O41 2.326 1_454 S
In39 O45 2.265 . S
In39 O46 2.326 . S
In39 O47 2.267 1_455 S
In39 O48 2.324 . S
In39 O50 2.296 1_455 S
In39 O51 2.327 1_454 S
O40 In39 2.293 1_556 S
O40 C49 1.240 . S
O41 In39 2.326 1_656 S
O41 C49 1.252 1_655 S
C42 O45 1.252 . S
C42 O46 1.260 . S
C43 O50 1.240 1_556 S
C43 O51 1.252 . S
C44 O47 1.290 . S
C44 O48 1.232 1_655 S
O45 In39 2.265 . S
O45 C42 1.252 . S
O46 In39 2.326 . S
O46 C42 1.260 . S
O47 In39 2.267 1_655 S
O47 C44 1.290 . S
O48 In39 2.324 . S
O48 C44 1.232 1_455 S
C49 O40 1.240 . S
C49 O41 1.252 1_455 S
O50 In39 2.296 1_655 S
O50 C43 1.240 1_554 S
O51 In39 2.327 1_656 S
O51 C43 1.252 . S
In52 O53 2.294 1_554 S
In52 O54 2.326 1_554 S
In52 O58 2.266 . S
In52 O59 2.326 . S
In52 O60 2.266 . S
In52 O61 2.326 . S
In52 O63 2.295 . S
In52 O64 2.326 1_554 S
O53 In52 2.294 1_556 S
O53 C62 1.240 . S
O54 In52 2.326 1_556 S
O54 C62 1.252 . S
C55 O58 1.252 . S
C55 O59 1.260 . S
C56 O63 1.237 1_556 S
C56 O64 1.252 . S
C57 O60 1.252 . S
C57 O61 1.260 . S
O58 In52 2.266 . S
O58 C55 1.252 . S
O59 In52 2.326 . S
O59 C55 1.260 . S
O60 In52 2.266 . S
O60 C57 1.252 . S
O61 In52 2.326 . S
O61 C57 1.260 . S
C62 O53 1.240 . S
C62 O54 1.252 . S
O63 In52 2.295 . S
O63 C56 1.237 1_554 S
O64 In52 2.326 1_556 S
O64 C56 1.252 . S
In65 O66 2.293 . S
In65 O67 2.326 1_545 S
In65 O71 2.265 . S
In65 O72 2.326 1_554 S
In65 O73 2.267 1_544 S
In65 O74 2.324 1_554 S
In65 O76 2.296 1_545 S
In65 O77 2.327 1_545 S
O66 In65 2.293 . S
O66 C75 1.240 . S
O67 In65 2.326 1_565 S
O67 C75 1.252 1_565 S
C68 O71 1.252 1_556 S
C68 O72 1.260 . S
C69 O76 1.240 . S
C69 O77 1.252 . S
C70 O73 1.293 . S
C70 O74 1.231 1_565 S
O71 In65 2.265 . S
O71 C68 1.252 1_554 S
O72 In65 2.326 1_556 S
O72 C68 1.260 . S
O73 In65 2.267 1_566 S
O73 C70 1.293 . S
O74 In65 2.324 1_556 S
O74 C70 1.231 1_545 S
C75 O66 1.240 . S
C75 O67 1.252 1_545 S
O76 In65 2.296 1_565 S
O76 C69 1.240 . S
O77 In65 2.327 1_565 S
O77 C69 1.252 . S
In78 O79 2.294 . S
In78 O80 2.326 . S
In78 O84 2.266 . S
In78 O85 2.326 . S
In78 O86 2.266 . S
In78 O87 2.326 . S
In78 O89 2.294 . S
In78 O90 2.326 . S
O79 In78 2.294 . S
O79 C88 1.240 . S
O80 In78 2.326 . S
O80 C88 1.252 . S
C81 O84 1.252 . S
C81 O85 1.260 . S
C82 O89 1.240 . S
C82 O90 1.252 . S
C83 O86 1.252 . S
C83 O87 1.260 . S
O84 In78 2.266 . S
O84 C81 1.252 . S
O85 In78 2.326 . S
O85 C81 1.260 . S
O86 In78 2.266 . S
O86 C83 1.252 . S
O87 In78 2.326 . S
O87 C83 1.260 . S
C88 O79 1.240 . S
C88 O80 1.252 . S
O89 In78 2.294 . S
O89 C82 1.240 . S
O90 In78 2.326 . S
O90 C82 1.252 . S
In91 O92 2.294 . S
In91 O93 2.326 . S
In91 O97 2.266 . S
In91 O98 2.319 1_565 S
In91 O99 2.266 . S
In91 O100 2.326 . S
In91 O102 2.294 1_565 S
In91 O103 2.326 1_565 S
O92 In91 2.294 . S
O92 C101 1.240 . S
O93 In91 2.326 . S
O93 C101 1.252 . S
C94 O97 1.252 . S
C94 O98 1.226 1_565 S
C95 O102 1.240 . S
C95 O103 1.252 . S
C96 O99 1.252 . S
C96 O100 1.260 . S
O97 In91 2.266 . S
O97 C94 1.252 . S
O98 In91 2.319 1_545 S
O98 C94 1.226 1_545 S
O99 In91 2.266 . S
O99 C96 1.252 . S
O100 In91 2.326 . S
O100 C96 1.260 . S
C101 O92 1.240 . S
C101 O93 1.252 . S
O102 In91 2.294 1_545 S
O102 C95 1.240 . S
O103 In91 2.326 1_545 S
O103 C95 1.252 . S
In104 O105 2.294 . S
In104 O106 2.326 . S
In104 O110 2.266 . S
In104 O111 2.326 . S
In104 O112 2.266 1_455 S
In104 O113 2.326 1_455 S
In104 O115 2.294 . S
In104 O116 2.326 . S
O105 In104 2.294 . S
O105 C114 1.240 . S
O106 In104 2.326 . S
O106 C114 1.252 . S
C107 O110 1.252 . S
C107 O111 1.260 . S
C108 O115 1.240 . S
C108 O116 1.252 . S
C109 O112 1.252 . S
C109 O113 1.260 . S
O110 In104 2.266 . S
O110 C107 1.252 . S
O111 In104 2.326 . S
O111 C107 1.260 . S
O112 In104 2.266 1_655 S
O112 C109 1.252 . S
O113 In104 2.326 1_655 S
O113 C109 1.260 . S
C114 O105 1.240 . S
C114 O106 1.252 . S
O115 In104 2.294 . S
O115 C108 1.240 . S
O116 In104 2.326 . S
O116 C108 1.252 . S
In117 O118 2.294 . S
In117 O119 2.326 . S
In117 O123 2.266 1_565 S
In117 O124 2.326 1_565 S
In117 O125 2.266 . S
In117 O126 2.326 . S
In117 O128 2.294 . S
In117 O129 2.351 . S
O118 In117 2.294 . S
O118 C127 1.240 . S
O119 In117 2.326 . S
O119 C127 1.252 . S
C120 O123 1.252 . S
C120 O124 1.260 . S
C121 O128 1.240 . S
C121 O129 1.252 . S
C122 O125 1.252 . S
C122 O126 1.260 . S
O123 In117 2.266 1_545 S
O123 C120 1.252 . S
O124 In117 2.326 1_545 S
O124 C120 1.260 . S
O125 In117 2.266 . S
O125 C122 1.252 . S
O126 In117 2.326 . S
O126 C122 1.260 . S
C127 O118 1.240 . S
C127 O119 1.252 . S
O128 In117 2.294 . S
O128 C121 1.240 . S
O129 In117 2.351 . S
O129 C121 1.252 . S
In130 O131 2.294 . S
In130 O132 2.326 . S
In130 O136 2.266 1_455 S
In130 O137 2.326 1_455 S
In130 O138 2.266 . S
In130 O139 2.326 . S
In130 O141 2.294 . S
In130 O142 2.326 . S
O131 In130 2.294 . S
O131 C140 1.240 . S
O132 In130 2.326 . S
O132 C140 1.252 . S
C133 O136 1.252 . S
C133 O137 1.260 . S
C134 O141 1.240 . S
C134 O142 1.252 . S
C135 O138 1.252 . S
C135 O139 1.260 . S
O136 In130 2.266 1_655 S
O136 C133 1.252 . S
O137 In130 2.326 1_655 S
O137 C133 1.260 . S
O138 In130 2.266 . S
O138 C135 1.252 . S
O139 In130 2.326 . S
O139 C135 1.260 . S
C140 O131 1.240 . S
C140 O132 1.252 . S
O141 In130 2.294 . S
O141 C134 1.240 . S
O142 In130 2.326 . S
O142 C134 1.252 . S
In143 O144 2.294 . S
In143 O145 2.326 . S
In143 O149 2.266 . S
In143 O150 2.326 . S
In143 O151 2.266 . S
In143 O152 2.326 . S
In143 O154 2.294 . S
In143 O155 2.326 . S
O144 In143 2.294 . S
O144 C153 1.240 . S
O145 In143 2.326 . S
O145 C153 1.252 . S
C146 O149 1.252 . S
C146 O150 1.260 . S
C147 O154 1.240 . S
C147 O155 1.252 . S
C148 O151 1.252 . S
C148 O152 1.260 . S
O149 In143 2.266 . S
O149 C146 1.252 . S
O150 In143 2.326 . S
O150 C146 1.260 . S
O151 In143 2.266 . S
O151 C148 1.252 . S
O152 In143 2.326 . S
O152 C148 1.260 . S
C153 O144 1.240 . S
C153 O145 1.252 . S
O154 In143 2.294 . S
O154 C147 1.240 . S
O155 In143 2.326 . S
O155 C147 1.252 . S
In156 O157 2.294 . S
In156 O158 2.326 . S
In156 O162 2.266 . S
In156 O163 2.326 . S
In156 O164 2.266 1_545 S
In156 O165 2.326 1_545 S
In156 O167 2.294 . S
In156 O168 2.326 . S
O157 In156 2.294 . S
O157 C166 1.240 . S
O158 In156 2.326 . S
O158 C166 1.252 . S
C159 O162 1.252 . S
C159 O163 1.260 . S
C160 O167 1.240 . S
C160 O168 1.252 . S
C161 O164 1.252 . S
C161 O165 1.260 . S
O162 In156 2.266 . S
O162 C159 1.252 . S
O163 In156 2.326 . S
O163 C159 1.260 . S
O164 In156 2.266 1_565 S
O164 C161 1.252 . S
O165 In156 2.326 1_565 S
O165 C161 1.260 . S
C166 O157 1.240 . S
C166 O158 1.252 . S
O167 In156 2.294 . S
O167 C160 1.240 . S
O168 In156 2.326 . S
O168 C160 1.252 . S
In169 O170 2.294 . S
In169 O171 2.330 . S
In169 O175 2.266 . S
In169 O176 2.326 . S
In169 O177 2.266 1_655 S
In169 O178 2.326 1_655 S
In169 O180 2.294 . S
In169 O181 2.326 . S
O170 In169 2.294 . S
O170 C179 1.240 . S
O171 In169 2.330 . S
O171 C179 1.278 . S
C172 O175 1.252 . S
C172 O176 1.260 . S
C173 O180 1.240 . S
C173 O181 1.252 . S
C174 O177 1.252 . S
C174 O178 1.260 . S
O175 In169 2.266 . S
O175 C172 1.252 . S
O176 In169 2.326 . S
O176 C172 1.260 . S
O177 In169 2.266 1_455 S
O177 C174 1.252 . S
O178 In169 2.326 1_455 S
O178 C174 1.260 . S
C179 O170 1.240 . S
C179 O171 1.278 . S
O180 In169 2.294 . S
O180 C173 1.240 . S
O181 In169 2.326 . S
O181 C173 1.252 . S
In182 O183 2.294 . S
In182 O184 2.326 . S
In182 O188 2.266 . S
In182 O189 2.326 . S
In182 O190 2.266 . S
In182 O191 2.326 . S
In182 O193 2.294 . S
In182 O194 2.326 . S
O183 In182 2.294 . S
O183 C192 1.240 . S
O184 In182 2.326 . S
O184 C192 1.252 . S
C185 O188 1.252 . S
C185 O189 1.260 . S
C186 O193 1.240 . S
C186 O194 1.252 . S
C187 O190 1.252 . S
C187 O191 1.260 . S
O188 In182 2.266 . S
O188 C185 1.252 . S
O189 In182 2.326 . S
O189 C185 1.260 . S
O190 In182 2.266 . S
O190 C187 1.252 . S
O191 In182 2.326 . S
O191 C187 1.260 . S
C192 O183 1.240 . S
C192 O184 1.252 . S
O193 In182 2.294 . S
O193 C186 1.240 . S
O194 In182 2.326 . S
O194 C186 1.252 . S
In195 O196 2.294 . S
In195 O197 2.326 . S
In195 O201 2.266 . S
In195 O202 2.326 . S
In195 O203 2.266 . S
In195 O204 2.326 . S
In195 O206 2.294 . S
In195 O207 2.326 . S
O196 In195 2.294 . S
O196 C205 1.240 . S
O197 In195 2.326 . S
O197 C205 1.252 . S
C198 O201 1.252 . S
C198 O202 1.260 . S
C199 O206 1.240 . S
C199 O207 1.252 . S
C200 O203 1.252 . S
C200 O204 1.260 . S
O201 In195 2.266 . S
O201 C198 1.252 . S
O202 In195 2.326 . S
O202 C198 1.260 . S
O203 In195 2.266 . S
O203 C200 1.252 . S
O204 In195 2.326 . S
O204 C200 1.260 . S
C205 O196 1.240 . S
C205 O197 1.252 . S
O206 In195 2.294 . S
O206 C199 1.240 . S
O207 In195 2.326 . S
O207 C199 1.252 . S
In208 O209 2.294 . S
In208 O210 2.326 . S
In208 O214 2.266 . S
In208 O215 2.325 . S
In208 O216 2.266 . S
In208 O217 2.326 . S
In208 O219 2.294 1_545 S
In208 O220 2.326 1_545 S
O209 In208 2.294 . S
O209 C218 1.240 . S
O210 In208 2.326 . S
O210 C218 1.252 . S
C211 O214 1.252 . S
C211 O215 1.255 . S
C212 O219 1.240 . S
C212 O220 1.252 . S
C213 O216 1.252 . S
C213 O217 1.260 . S
O214 In208 2.266 . S
O214 C211 1.252 . S
O215 In208 2.325 . S
O215 C211 1.255 . S
O216 In208 2.266 . S
O216 C213 1.252 . S
O217 In208 2.326 . S
O217 C213 1.260 . S
C218 O209 1.240 . S
C218 O210 1.252 . S
O219 In208 2.294 1_565 S
O219 C212 1.240 . S
O220 In208 2.326 1_565 S
O220 C212 1.252 . S
In221 O222 2.294 . S
In221 O223 2.353 . S
In221 O227 2.266 . S
In221 O228 2.326 . S
In221 O229 2.266 1_655 S
In221 O230 2.326 1_655 S
In221 O232 2.294 . S
In221 O233 2.326 . S
O222 In221 2.294 . S
O222 C231 1.240 . S
O223 In221 2.353 . S
O223 C231 1.252 . S
C224 O227 1.252 . S
C224 O228 1.260 . S
C225 O232 1.240 . S
C225 O233 1.252 . S
C226 O229 1.252 . S
C226 O230 1.260 . S
O227 In221 2.266 . S
O227 C224 1.252 . S
O228 In221 2.326 . S
O228 C224 1.260 . S
O229 In221 2.266 1_455 S
O229 C226 1.252 . S
O230 In221 2.326 1_455 S
O230 C226 1.260 . S
C231 O222 1.240 . S
C231 O223 1.252 . S
O232 In221 2.294 . S
O232 C225 1.240 . S
O233 In221 2.326 . S
O233 C225 1.252 . S
C234 C235 1.384 . S
C234 C236 1.384 . S
C234 H262 0.931 . S
C235 C234 1.384 . S
C235 C238 1.382 . S
C236 C234 1.384 . S
C236 C237 1.381 . S
C236 H263 0.930 . S
C237 C236 1.381 . S
C237 C239 1.381 . S
C237 C240 1.487 . S
C238 C235 1.382 . S
C238 C239 1.387 . S
C238 H264 0.930 . S
C239 C237 1.381 . S
C239 C238 1.387 . S
C239 H265 0.931 . S
C240 C237 1.487 . S
C240 C247 1.399 . S
C240 N278 1.343 . S
C241 C242 1.384 . S
C241 C243 1.384 . S
C241 H266 0.931 . S
C242 C241 1.384 . S
C242 C245 1.382 . S
C243 C241 1.384 . S
C243 C244 1.381 . S
C243 H267 0.930 . S
C244 C243 1.381 . S
C244 C246 1.381 . S
C244 C247 1.487 . S
C245 C242 1.382 . S
C245 C246 1.387 . S
C245 H268 0.930 . S
C246 C244 1.381 . S
C246 C245 1.387 . S
C246 H269 0.931 . S
C247 C240 1.399 . S
C247 C244 1.487 . S
C247 N279 1.343 . S
C248 C249 1.384 . S
C248 C250 1.384 . S
C248 H270 0.931 . S
C249 C248 1.384 . S
C249 C252 1.382 . S
C250 C248 1.384 . S
C250 C251 1.381 . S
C250 H271 0.930 . S
C251 C250 1.381 . S
C251 C253 1.381 . S
C251 C254 1.487 . S
C252 C249 1.382 . S
C252 C253 1.387 . S
C252 H272 0.930 . S
C253 C251 1.381 . S
C253 C252 1.387 . S
C253 H273 0.931 . S
C254 C251 1.487 . S
C254 C261 1.399 . S
C254 N279 1.343 . S
C255 C256 1.384 . S
C255 C257 1.384 . S
C255 H274 0.931 . S
C256 C255 1.384 . S
C256 C259 1.382 . S
C257 C255 1.384 . S
C257 C258 1.381 . S
C257 H275 0.930 . S
C258 C257 1.381 . S
C258 C260 1.381 . S
C258 C261 1.487 . S
C259 C256 1.382 . S
C259 C260 1.387 . S
C259 H276 0.930 . S
C260 C258 1.381 . S
C260 C259 1.387 . S
C260 H277 0.931 . S
C261 C254 1.399 . S
C261 C258 1.487 . S
C261 N278 1.343 . S
H262 C234 0.931 . S
H263 C236 0.930 . S
H264 C238 0.930 . S
H265 C239 0.931 . S
H266 C241 0.931 . S
H267 C243 0.930 . S
H268 C245 0.930 . S
H269 C246 0.931 . S
H270 C248 0.931 . S
H271 C250 0.930 . S
H272 C252 0.930 . S
H273 C253 0.931 . S
H274 C255 0.931 . S
H275 C257 0.930 . S
H276 C259 0.930 . S
H277 C260 0.931 . S
N278 C240 1.343 . S
N278 C261 1.343 . S
N279 C247 1.343 . S
N279 C254 1.343 . S
C280 C281 1.384 . S
C280 C282 1.384 . S
C280 H308 0.931 . S
C281 C280 1.384 . S
C281 C284 1.382 . S
C282 C280 1.384 . S
C282 C283 1.381 . S
C282 H309 0.930 . S
C283 C282 1.381 . S
C283 C285 1.381 . S
C283 C286 1.487 . S
C284 C281 1.382 . S
C284 C285 1.387 . S
C284 H310 0.930 . S
C285 C283 1.381 . S
C285 C284 1.387 . S
C285 H311 0.931 . S
C286 C283 1.487 . S
C286 C293 1.399 . S
C286 N324 1.343 . S
C287 C288 1.384 . S
C287 C289 1.384 . S
C287 H312 0.931 . S
C288 C287 1.384 . S
C288 C291 1.382 . S
C289 C287 1.384 . S
C289 C290 1.381 . S
C289 H313 0.930 . S
C290 C289 1.381 . S
C290 C292 1.381 . S
C290 C293 1.487 . S
C291 C288 1.382 . S
C291 C292 1.387 . S
C291 H314 0.930 . S
C292 C290 1.381 . S
C292 C291 1.387 . S
C292 H315 0.931 . S
C293 C286 1.399 . S
C293 C290 1.487 . S
C293 N325 1.343 . S
C294 C295 1.384 . S
C294 C296 1.384 . S
C294 H316 0.931 . S
C295 C294 1.384 . S
C295 C298 1.382 . S
C296 C294 1.384 . S
C296 C297 1.381 . S
C296 H317 0.930 . S
C297 C296 1.381 . S
C297 C299 1.381 . S
C297 C300 1.487 . S
C298 C295 1.382 . S
C298 C299 1.387 . S
C298 H318 0.930 . S
C299 C297 1.381 . S
C299 C298 1.387 . S
C299 H319 0.931 . S
C300 C297 1.487 . S
C300 C307 1.399 . S
C300 N325 1.343 . S
C301 C302 1.384 . S
C301 C303 1.384 . S
C301 H320 0.931 . S
C302 C301 1.384 . S
C302 C305 1.382 . S
C303 C301 1.384 . S
C303 C304 1.381 . S
C303 H321 0.930 . S
C304 C303 1.381 . S
C304 C306 1.381 . S
C304 C307 1.487 . S
C305 C302 1.382 . S
C305 C306 1.387 . S
C305 H322 0.930 . S
C306 C304 1.381 . S
C306 C305 1.387 . S
C306 H323 0.931 . S
C307 C300 1.399 . S
C307 C304 1.487 . S
C307 N324 1.343 . S
H308 C280 0.931 . S
H309 C282 0.930 . S
H310 C284 0.930 . S
H311 C285 0.931 . S
H312 C287 0.931 . S
H313 C289 0.930 . S
H314 C291 0.930 . S
H315 C292 0.931 . S
H316 C294 0.931 . S
H317 C296 0.930 . S
H318 C298 0.930 . S
H319 C299 0.931 . S
H320 C301 0.931 . S
H321 C303 0.930 . S
H322 C305 0.930 . S
H323 C306 0.931 . S
N324 C286 1.343 . S
N324 C307 1.343 . S
N325 C293 1.343 . S
N325 C300 1.343 . S
C326 C327 1.384 . S
C326 C328 1.384 . S
C326 H354 0.931 . S
C327 C326 1.384 . S
C327 C330 1.382 . S
C328 C326 1.384 . S
C328 C329 1.381 . S
C328 H355 0.930 . S
C329 C328 1.381 . S
C329 C331 1.381 . S
C329 C332 1.487 . S
C330 C327 1.382 . S
C330 C331 1.387 . S
C330 H356 0.930 . S
C331 C329 1.381 . S
C331 C330 1.387 . S
C331 H357 0.931 . S
C332 C329 1.487 . S
C332 C339 1.399 . S
C332 N370 1.343 . S
C333 C334 1.384 . S
C333 C335 1.384 . S
C333 H358 0.931 . S
C334 C333 1.384 . S
C334 C337 1.382 . S
C335 C333 1.384 . S
C335 C336 1.381 . S
C335 H359 0.930 . S
C336 C335 1.381 . S
C336 C338 1.381 . S
C336 C339 1.487 . S
C337 C334 1.382 . S
C337 C338 1.387 . S
C337 H360 0.930 . S
C338 C336 1.381 . S
C338 C337 1.387 . S
C338 H361 0.931 . S
C339 C332 1.399 . S
C339 C336 1.487 . S
C339 N371 1.343 . S
C340 C341 1.384 . S
C340 C342 1.384 . S
C340 H362 0.931 . S
C341 C340 1.384 . S
C341 C344 1.382 . S
C342 C340 1.384 . S
C342 C343 1.381 . S
C342 H363 0.930 . S
C343 C342 1.381 . S
C343 C345 1.381 . S
C343 C346 1.487 . S
C344 C341 1.382 . S
C344 C345 1.387 . S
C344 H364 0.930 . S
C345 C343 1.381 . S
C345 C344 1.387 . S
C345 H365 0.931 . S
C346 C343 1.487 . S
C346 C353 1.399 . S
C346 N371 1.343 . S
C347 C348 1.384 . S
C347 C349 1.384 . S
C347 H366 0.931 . S
C348 C347 1.384 . S
C348 C351 1.382 . S
C349 C347 1.384 . S
C349 C350 1.381 . S
C349 H367 0.930 . S
C350 C349 1.381 . S
C350 C352 1.381 . S
C350 C353 1.487 . S
C351 C348 1.382 . S
C351 C352 1.387 . S
C351 H368 0.930 . S
C352 C350 1.381 . S
C352 C351 1.387 . S
C352 H369 0.931 . S
C353 C346 1.399 . S
C353 C350 1.487 . S
C353 N370 1.343 . S
H354 C326 0.931 . S
H355 C328 0.930 . S
H356 C330 0.930 . S
H357 C331 0.931 . S
H358 C333 0.931 . S
H359 C335 0.930 . S
H360 C337 0.930 . S
H361 C338 0.931 . S
H362 C340 0.931 . S
H363 C342 0.930 . S
H364 C344 0.930 . S
H365 C345 0.931 . S
H366 C347 0.931 . S
H367 C349 0.930 . S
H368 C351 0.930 . S
H369 C352 0.931 . S
N370 C332 1.343 . S
N370 C353 1.343 . S
N371 C339 1.343 . S
N371 C346 1.343 . S
C372 C373 1.384 . S
C372 C374 1.384 . S
C372 H400 0.931 . S
C373 C372 1.384 . S
C373 C376 1.382 . S
C374 C372 1.384 . S
C374 C375 1.381 . S
C374 H401 0.930 . S
C375 C374 1.381 . S
C375 C377 1.381 . S
C375 C378 1.487 . S
C376 C373 1.382 . S
C376 C377 1.387 . S
C376 H402 0.930 . S
C377 C375 1.381 . S
C377 C376 1.387 . S
C377 H403 0.931 . S
C378 C375 1.487 . S
C378 C385 1.399 . S
C378 N416 1.343 . S
C379 C380 1.384 . S
C379 C381 1.384 . S
C379 H404 0.931 . S
C380 C379 1.384 . S
C380 C383 1.382 . S
C381 C379 1.384 . S
C381 C382 1.381 . S
C381 H405 0.930 . S
C382 C381 1.381 . S
C382 C384 1.381 . S
C382 C385 1.487 . S
C383 C380 1.382 . S
C383 C384 1.387 . S
C383 H406 0.930 . S
C384 C382 1.381 . S
C384 C383 1.387 . S
C384 H407 0.931 . S
C385 C378 1.399 . S
C385 C382 1.487 . S
C385 N417 1.343 . S
C386 C387 1.384 . S
C386 C388 1.384 . S
C386 H408 0.931 . S
C387 C386 1.384 . S
C387 C390 1.382 . S
C388 C386 1.384 . S
C388 C389 1.381 . S
C388 H409 0.930 . S
C389 C388 1.381 . S
C389 C391 1.381 . S
C389 C392 1.487 . S
C390 C387 1.382 . S
C390 C391 1.387 . S
C390 H410 0.930 . S
C391 C389 1.381 . S
C391 C390 1.387 . S
C391 H411 0.931 . S
C392 C389 1.487 . S
C392 C399 1.399 . S
C392 N417 1.343 . S
C393 C394 1.384 . S
C393 C395 1.384 . S
C393 H412 0.931 . S
C394 C393 1.384 . S
C394 C397 1.382 . S
C395 C393 1.384 . S
C395 C396 1.381 . S
C395 H413 0.930 . S
C396 C395 1.381 . S
C396 C398 1.381 . S
C396 C399 1.487 . S
C397 C394 1.382 . S
C397 C398 1.387 . S
C397 H414 0.930 . S
C398 C396 1.381 . S
C398 C397 1.387 . S
C398 H415 0.931 . S
C399 C392 1.399 . S
C399 C396 1.487 . S
C399 N416 1.343 . S
H400 C372 0.931 . S
H401 C374 0.930 . S
H402 C376 0.930 . S
H403 C377 0.931 . S
H404 C379 0.931 . S
H405 C381 0.930 . S
H406 C383 0.930 . S
H407 C384 0.931 . S
H408 C386 0.931 . S
H409 C388 0.930 . S
H410 C390 0.930 . S
H411 C391 0.931 . S
H412 C393 0.931 . S
H413 C395 0.930 . S
H414 C397 0.930 . S
H415 C398 0.931 . S
N416 C378 1.343 . S
N416 C399 1.343 . S
N417 C385 1.343 . S
N417 C392 1.343 . S
C418 C419 1.384 . S
C418 C420 1.384 . S
C418 H446 0.931 . S
C419 C418 1.384 . S
C419 C422 1.382 . S
C420 C418 1.384 . S
C420 C421 1.381 . S
C420 H447 0.930 . S
C421 C420 1.381 . S
C421 C423 1.381 . S
C421 C424 1.487 . S
C422 C419 1.382 . S
C422 C423 1.387 . S
C422 H448 0.930 . S
C423 C421 1.381 . S
C423 C422 1.387 . S
C423 H449 0.931 . S
C424 C421 1.487 . S
C424 C431 1.399 . S
C424 N462 1.343 . S
C425 C426 1.384 . S
C425 C427 1.384 . S
C425 H450 0.931 . S
C426 C425 1.384 . S
C426 C429 1.382 . S
C427 C425 1.384 . S
C427 C428 1.381 . S
C427 H451 0.930 . S
C428 C427 1.381 . S
C428 C430 1.381 . S
C428 C431 1.487 . S
C429 C426 1.382 . S
C429 C430 1.387 . S
C429 H452 0.930 . S
C430 C428 1.381 . S
C430 C429 1.387 . S
C430 H453 0.931 . S
C431 C424 1.399 . S
C431 C428 1.487 . S
C431 N463 1.343 . S
C432 C433 1.384 . S
C432 C434 1.384 . S
C432 H454 0.931 . S
C433 C432 1.384 . S
C433 C436 1.382 . S
C434 C432 1.384 . S
C434 C435 1.381 . S
C434 H455 0.930 . S
C435 C434 1.381 . S
C435 C437 1.381 . S
C435 C438 1.487 . S
C436 C433 1.382 . S
C436 C437 1.387 . S
C436 H456 0.930 . S
C437 C435 1.381 . S
C437 C436 1.387 . S
C437 H457 0.931 . S
C438 C435 1.487 . S
C438 C445 1.399 . S
C438 N463 1.343 . S
C439 C440 1.384 . S
C439 C441 1.384 . S
C439 H458 0.931 . S
C440 C439 1.384 . S
C440 C443 1.382 . S
C441 C439 1.384 . S
C441 C442 1.381 . S
C441 H459 0.930 . S
C442 C441 1.381 . S
C442 C444 1.381 . S
C442 C445 1.487 . S
C443 C440 1.382 . S
C443 C444 1.387 . S
C443 H460 0.930 . S
C444 C442 1.381 . S
C444 C443 1.387 . S
C444 H461 0.931 . S
C445 C438 1.399 . S
C445 C442 1.487 . S
C445 N462 1.343 . S
H446 C418 0.931 . S
H447 C420 0.930 . S
H448 C422 0.930 . S
H449 C423 0.931 . S
H450 C425 0.931 . S
H451 C427 0.930 . S
H452 C429 0.930 . S
H453 C430 0.931 . S
H454 C432 0.931 . S
H455 C434 0.930 . S
H456 C436 0.930 . S
H457 C437 0.931 . S
H458 C439 0.931 . S
H459 C441 0.930 . S
H460 C443 0.930 . S
H461 C444 0.931 . S
N462 C424 1.343 . S
N462 C445 1.343 . S
N463 C431 1.343 . S
N463 C438 1.343 . S
C464 C465 1.384 . S
C464 C466 1.384 . S
C464 H492 0.931 . S
C465 C464 1.384 . S
C465 C468 1.382 . S
C466 C464 1.384 . S
C466 C467 1.381 . S
C466 H493 0.930 . S
C467 C466 1.381 . S
C467 C469 1.381 . S
C467 C470 1.487 . S
C468 C465 1.382 . S
C468 C469 1.387 . S
C468 H494 0.930 . S
C469 C467 1.381 . S
C469 C468 1.387 . S
C469 H495 0.931 . S
C470 C467 1.487 . S
C470 C477 1.399 . S
C470 N508 1.343 . S
C471 C472 1.384 . S
C471 C473 1.384 . S
C471 H496 0.931 . S
C472 C471 1.384 . S
C472 C475 1.382 . S
C473 C471 1.384 . S
C473 C474 1.381 . S
C473 H497 0.930 . S
C474 C473 1.381 . S
C474 C476 1.381 . S
C474 C477 1.487 . S
C475 C472 1.382 . S
C475 C476 1.387 . S
C475 H498 0.930 . S
C476 C474 1.381 . S
C476 C475 1.387 . S
C476 H499 0.931 . S
C477 C470 1.399 . S
C477 C474 1.487 . S
C477 N509 1.343 . S
C478 C479 1.384 . S
C478 C480 1.384 . S
C478 H500 0.931 . S
C479 C478 1.384 . S
C479 C482 1.382 . S
C480 C478 1.384 . S
C480 C481 1.381 . S
C480 H501 0.930 . S
C481 C480 1.381 . S
C481 C483 1.381 . S
C481 C484 1.487 . S
C482 C479 1.382 . S
C482 C483 1.387 . S
C482 H502 0.930 . S
C483 C481 1.381 . S
C483 C482 1.387 . S
C483 H503 0.931 . S
C484 C481 1.487 . S
C484 C491 1.399 . S
C484 N509 1.343 . S
C485 C486 1.384 . S
C485 C487 1.384 . S
C485 H504 0.931 . S
C486 C485 1.384 . S
C486 C489 1.382 . S
C487 C485 1.384 . S
C487 C488 1.381 . S
C487 H505 0.930 . S
C488 C487 1.381 . S
C488 C490 1.381 . S
C488 C491 1.487 . S
C489 C486 1.382 . S
C489 C490 1.387 . S
C489 H506 0.930 . S
C490 C488 1.381 . S
C490 C489 1.387 . S
C490 H507 0.931 . S
C491 C484 1.399 . S
C491 C488 1.487 . S
C491 N508 1.343 . S
H492 C464 0.931 . S
H493 C466 0.930 . S
H494 C468 0.930 . S
H495 C469 0.931 . S
H496 C471 0.931 . S
H497 C473 0.930 . S
H498 C475 0.930 . S
H499 C476 0.931 . S
H500 C478 0.931 . S
H501 C480 0.930 . S
H502 C482 0.930 . S
H503 C483 0.931 . S
H504 C485 0.931 . S
H505 C487 0.930 . S
H506 C489 0.930 . S
H507 C490 0.931 . S
N508 C470 1.343 . S
N508 C491 1.343 . S
N509 C477 1.343 . S
N509 C484 1.343 . S
C510 C511 1.384 . S
C510 C512 1.384 . S
C510 H538 0.931 . S
C511 C510 1.384 . S
C511 C514 1.382 . S
C512 C510 1.384 . S
C512 C513 1.381 . S
C512 H539 0.930 . S
C513 C512 1.381 . S
C513 C515 1.381 . S
C513 C516 1.487 . S
C514 C511 1.382 . S
C514 C515 1.387 . S
C514 H540 0.930 . S
C515 C513 1.381 . S
C515 C514 1.387 . S
C515 H541 0.931 . S
C516 C513 1.487 . S
C516 C523 1.399 . S
C516 N554 1.343 . S
C517 C518 1.384 . S
C517 C519 1.384 . S
C517 H542 0.931 . S
C518 C517 1.384 . S
C518 C521 1.382 . S
C519 C517 1.384 . S
C519 C520 1.381 . S
C519 H543 0.930 . S
C520 C519 1.381 . S
C520 C522 1.381 . S
C520 C523 1.487 . S
C521 C518 1.382 . S
C521 C522 1.387 . S
C521 H544 0.930 . S
C522 C520 1.381 . S
C522 C521 1.387 . S
C522 H545 0.931 . S
C523 C516 1.399 . S
C523 C520 1.487 . S
C523 N555 1.343 . S
C524 C525 1.384 . S
C524 C526 1.384 . S
C524 H546 0.931 . S
C525 C524 1.384 . S
C525 C528 1.382 . S
C526 C524 1.384 . S
C526 C527 1.381 . S
C526 H547 0.930 . S
C527 C526 1.381 . S
C527 C529 1.381 . S
C527 C530 1.487 . S
C528 C525 1.382 . S
C528 C529 1.387 . S
C528 H548 0.930 . S
C529 C527 1.381 . S
C529 C528 1.387 . S
C529 H549 0.931 . S
C530 C527 1.487 . S
C530 C537 1.399 . S
C530 N555 1.343 . S
C531 C532 1.384 . S
C531 C533 1.384 . S
C531 H550 0.931 . S
C532 C531 1.384 . S
C532 C535 1.382 . S
C533 C531 1.384 . S
C533 C534 1.381 . S
C533 H551 0.930 . S
C534 C533 1.381 . S
C534 C536 1.381 . S
C534 C537 1.487 . S
C535 C532 1.382 . S
C535 C536 1.387 . S
C535 H552 0.930 . S
C536 C534 1.381 . S
C536 C535 1.387 . S
C536 H553 0.931 . S
C537 C530 1.399 . S
C537 C534 1.487 . S
C537 N554 1.343 . S
H538 C510 0.931 . S
H539 C512 0.930 . S
H540 C514 0.930 . S
H541 C515 0.931 . S
H542 C517 0.931 . S
H543 C519 0.930 . S
H544 C521 0.930 . S
H545 C522 0.931 . S
H546 C524 0.931 . S
H547 C526 0.930 . S
H548 C528 0.930 . S
H549 C529 0.931 . S
H550 C531 0.931 . S
H551 C533 0.930 . S
H552 C535 0.930 . S
H553 C536 0.931 . S
N554 C516 1.343 . S
N554 C537 1.343 . S
N555 C523 1.343 . S
N555 C530 1.343 . S
C556 C557 1.384 . S
C556 C558 1.384 . S
C556 H584 0.931 . S
C557 C556 1.384 . S
C557 C560 1.382 . S
C558 C556 1.384 . S
C558 C559 1.381 . S
C558 H585 0.930 . S
C559 C558 1.381 . S
C559 C561 1.381 . S
C559 C562 1.487 . S
C560 C557 1.382 . S
C560 C561 1.387 . S
C560 H586 0.930 . S
C561 C559 1.381 . S
C561 C560 1.387 . S
C561 H587 0.931 . S
C562 C559 1.487 . S
C562 C569 1.399 . S
C562 N600 1.343 . S
C563 C564 1.384 . S
C563 C565 1.384 . S
C563 H588 0.931 . S
C564 C563 1.384 . S
C564 C567 1.382 . S
C565 C563 1.384 . S
C565 C566 1.381 . S
C565 H589 0.930 . S
C566 C565 1.381 . S
C566 C568 1.381 . S
C566 C569 1.487 . S
C567 C564 1.382 . S
C567 C568 1.387 . S
C567 H590 0.930 . S
C568 C566 1.381 . S
C568 C567 1.387 . S
C568 H591 0.931 . S
C569 C562 1.399 . S
C569 C566 1.487 . S
C569 N601 1.343 . S
C570 C571 1.384 . S
C570 C572 1.384 . S
C570 H592 0.931 . S
C571 C570 1.384 . S
C571 C574 1.382 . S
C572 C570 1.384 . S
C572 C573 1.381 . S
C572 H593 0.930 . S
C573 C572 1.381 . S
C573 C575 1.381 . S
C573 C576 1.487 . S
C574 C571 1.382 . S
C574 C575 1.387 . S
C574 H594 0.930 . S
C575 C573 1.381 . S
C575 C574 1.387 . S
C575 H595 0.931 . S
C576 C573 1.487 . S
C576 C583 1.399 . S
C576 N601 1.343 . S
C577 C578 1.384 . S
C577 C579 1.384 . S
C577 H596 0.931 . S
C578 C577 1.384 . S
C578 C581 1.382 . S
C579 C577 1.384 . S
C579 C580 1.381 . S
C579 H597 0.930 . S
C580 C579 1.381 . S
C580 C582 1.381 . S
C580 C583 1.487 . S
C581 C578 1.382 . S
C581 C582 1.387 . S
C581 H598 0.930 . S
C582 C580 1.381 . S
C582 C581 1.387 . S
C582 H599 0.931 . S
C583 C576 1.399 . S
C583 C580 1.487 . S
C583 N600 1.343 . S
H584 C556 0.931 . S
H585 C558 0.930 . S
H586 C560 0.930 . S
H587 C561 0.931 . S
H588 C563 0.931 . S
H589 C565 0.930 . S
H590 C567 0.930 . S
H591 C568 0.931 . S
H592 C570 0.931 . S
H593 C572 0.930 . S
H594 C574 0.930 . S
H595 C575 0.931 . S
H596 C577 0.931 . S
H597 C579 0.930 . S
H598 C581 0.930 . S
H599 C582 0.931 . S
N600 C562 1.343 . S
N600 C583 1.343 . S
N601 C569 1.343 . S
N601 C576 1.343 . S
C602 C603 1.384 . S
C602 C604 1.384 . S
C602 H630 0.931 . S
C603 C602 1.384 . S
C603 C606 1.382 . S
C604 C602 1.384 . S
C604 C605 1.381 . S
C604 H631 0.930 . S
C605 C604 1.381 . S
C605 C607 1.381 . S
C605 C608 1.487 . S
C606 C603 1.382 . S
C606 C607 1.387 . S
C606 H632 0.930 . S
C607 C605 1.381 . S
C607 C606 1.387 . S
C607 H633 0.931 . S
C608 C605 1.487 . S
C608 C615 1.399 . S
C608 N646 1.343 . S
C609 C610 1.384 . S
C609 C611 1.384 . S
C609 H634 0.931 . S
C610 C609 1.384 . S
C610 C613 1.382 . S
C611 C609 1.384 . S
C611 C612 1.381 . S
C611 H635 0.930 . S
C612 C611 1.381 . S
C612 C614 1.381 . S
C612 C615 1.487 . S
C613 C610 1.382 . S
C613 C614 1.387 . S
C613 H636 0.930 . S
C614 C612 1.381 . S
C614 C613 1.387 . S
C614 H637 0.931 . S
C615 C608 1.399 . S
C615 C612 1.487 . S
C615 N647 1.343 . S
C616 C617 1.384 . S
C616 C618 1.384 . S
C616 H638 0.931 . S
C617 C616 1.384 . S
C617 C620 1.382 . S
C618 C616 1.384 . S
C618 C619 1.381 . S
C618 H639 0.930 . S
C619 C618 1.381 . S
C619 C621 1.381 . S
C619 C622 1.487 . S
C620 C617 1.382 . S
C620 C621 1.387 . S
C620 H640 0.930 . S
C621 C619 1.381 . S
C621 C620 1.387 . S
C621 H641 0.931 . S
C622 C619 1.487 . S
C622 C629 1.399 . S
C622 N647 1.343 . S
C623 C624 1.384 . S
C623 C625 1.384 . S
C623 H642 0.931 . S
C624 C623 1.384 . S
C624 C627 1.382 . S
C625 C623 1.384 . S
C625 C626 1.381 . S
C625 H643 0.930 . S
C626 C625 1.381 . S
C626 C628 1.381 . S
C626 C629 1.487 . S
C627 C624 1.382 . S
C627 C628 1.387 . S
C627 H644 0.930 . S
C628 C626 1.381 . S
C628 C627 1.387 . S
C628 H645 0.931 . S
C629 C622 1.399 . S
C629 C626 1.487 . S
C629 N646 1.343 . S
H630 C602 0.931 . S
H631 C604 0.930 . S
H632 C606 0.930 . S
H633 C607 0.931 . S
H634 C609 0.931 . S
H635 C611 0.930 . S
H636 C613 0.930 . S
H637 C614 0.931 . S
H638 C616 0.931 . S
H639 C618 0.930 . S
H640 C620 0.930 . S
H641 C621 0.931 . S
H642 C623 0.931 . S
H643 C625 0.930 . S
H644 C627 0.930 . S
H645 C628 0.931 . S
N646 C608 1.343 . S
N646 C629 1.343 . S
N647 C615 1.343 . S
N647 C622 1.343 . S
C648 C649 1.384 . S
C648 C650 1.384 . S
C648 H676 0.931 . S
C649 C648 1.384 . S
C649 C652 1.382 1_655 S
C650 C648 1.384 . S
C650 C651 1.391 . S
C650 H677 0.930 . S
C651 C650 1.391 . S
C651 C653 1.376 1_655 S
C651 C654 1.476 1_655 S
C652 C649 1.382 1_455 S
C652 C653 1.387 . S
C652 H678 0.930 . S
C653 C651 1.376 1_455 S
C653 C652 1.387 . S
C653 H679 0.931 . S
C654 C651 1.476 1_455 S
C654 C661 1.399 1_455 S
C654 N692 1.351 . S
C655 C656 1.384 . S
C655 C657 1.384 . S
C655 H680 0.931 . S
C656 C655 1.384 . S
C656 C659 1.382 1_455 S
C657 C655 1.384 . S
C657 C658 1.384 . S
C657 H681 0.930 . S
C658 C657 1.384 . S
C658 C660 1.373 1_455 S
C658 C661 1.496 1_455 S
C659 C656 1.382 1_655 S
C659 C660 1.387 . S
C659 H682 0.930 . S
C660 C658 1.373 1_655 S
C660 C659 1.387 . S
C660 H683 0.931 . S
C661 C654 1.399 1_655 S
C661 C658 1.496 1_655 S
C661 N693 1.364 . S
C662 C663 1.384 . S
C662 C664 1.384 . S
C662 H684 0.931 . S
C663 C662 1.384 . S
C663 C666 1.382 1_455 S
C664 C662 1.384 . S
C664 C665 1.403 . S
C664 H685 0.930 . S
C665 C664 1.403 . S
C665 C667 1.370 1_455 S
C665 C668 1.476 1_455 S
C666 C663 1.382 1_655 S
C666 C667 1.387 . S
C666 H686 0.930 . S
C667 C665 1.370 1_655 S
C667 C666 1.387 . S
C667 H687 0.931 . S
C668 C665 1.476 1_655 S
C668 C675 1.399 1_655 S
C668 N693 1.318 . S
C669 C670 1.384 . S
C669 C671 1.384 . S
C669 H688 0.931 . S
C670 C669 1.384 . S
C670 C673 1.382 1_655 S
C671 C669 1.384 . S
C671 C672 1.382 . S
C671 H689 0.930 . S
C672 C671 1.382 . S
C672 C674 1.380 1_655 S
C672 C675 1.496 1_655 S
C673 C670 1.382 1_455 S
C673 C674 1.387 . S
C673 H690 0.930 . S
C674 C672 1.380 1_455 S
C674 C673 1.387 . S
C674 H691 0.931 . S
C675 C668 1.399 1_455 S
C675 C672 1.496 1_455 S
C675 N692 1.335 . S
H676 C648 0.931 . S
H677 C650 0.930 . S
H678 C652 0.930 . S
H679 C653 0.931 . S
H680 C655 0.931 . S
H681 C657 0.930 . S
H682 C659 0.930 . S
H683 C660 0.931 . S
H684 C662 0.931 . S
H685 C664 0.930 . S
H686 C666 0.930 . S
H687 C667 0.931 . S
H688 C669 0.931 . S
H689 C671 0.930 . S
H690 C673 0.930 . S
H691 C674 0.931 . S
N692 C654 1.351 . S
N692 C675 1.335 . S
N693 C661 1.364 . S
N693 C668 1.318 . S
C694 C695 1.384 . S
C694 C696 1.384 . S
C694 H722 0.931 . S
C695 C694 1.384 . S
C695 C698 1.382 . S
C696 C694 1.384 . S
C696 C697 1.381 . S
C696 H723 0.930 . S
C697 C696 1.381 . S
C697 C699 1.381 . S
C697 C700 1.487 . S
C698 C695 1.382 . S
C698 C699 1.387 . S
C698 H724 0.930 . S
C699 C697 1.381 . S
C699 C698 1.387 . S
C699 H725 0.931 . S
C700 C697 1.487 . S
C700 C707 1.399 . S
C700 N738 1.343 . S
C701 C702 1.384 . S
C701 C703 1.384 . S
C701 H726 0.931 . S
C702 C701 1.384 . S
C702 C705 1.382 . S
C703 C701 1.384 . S
C703 C704 1.381 . S
C703 H727 0.930 . S
C704 C703 1.381 . S
C704 C706 1.381 . S
C704 C707 1.487 . S
C705 C702 1.382 . S
C705 C706 1.387 . S
C705 H728 0.930 . S
C706 C704 1.381 . S
C706 C705 1.387 . S
C706 H729 0.931 . S
C707 C700 1.399 . S
C707 C704 1.487 . S
C707 N739 1.343 . S
C708 C709 1.384 . S
C708 C710 1.384 . S
C708 H730 0.931 . S
C709 C708 1.384 . S
C709 C712 1.382 . S
C710 C708 1.384 . S
C710 C711 1.381 . S
C710 H731 0.930 . S
C711 C710 1.381 . S
C711 C713 1.381 . S
C711 C714 1.487 . S
C712 C709 1.382 . S
C712 C713 1.387 . S
C712 H732 0.930 . S
C713 C711 1.381 . S
C713 C712 1.387 . S
C713 H733 0.931 . S
C714 C711 1.487 . S
C714 C721 1.399 . S
C714 N739 1.343 . S
C715 C716 1.384 . S
C715 C717 1.384 . S
C715 H734 0.931 . S
C716 C715 1.384 . S
C716 C719 1.382 . S
C717 C715 1.384 . S
C717 C718 1.381 . S
C717 H735 0.930 . S
C718 C717 1.381 . S
C718 C720 1.381 . S
C718 C721 1.487 . S
C719 C716 1.382 . S
C719 C720 1.387 . S
C719 H736 0.930 . S
C720 C718 1.381 . S
C720 C719 1.387 . S
C720 H737 0.931 . S
C721 C714 1.399 . S
C721 C718 1.487 . S
C721 N738 1.343 . S
H722 C694 0.931 . S
H723 C696 0.930 . S
H724 C698 0.930 . S
H725 C699 0.931 . S
H726 C701 0.931 . S
H727 C703 0.930 . S
H728 C705 0.930 . S
H729 C706 0.931 . S
H730 C708 0.931 . S
H731 C710 0.930 . S
H732 C712 0.930 . S
H733 C713 0.931 . S
H734 C715 0.931 . S
H735 C717 0.930 . S
H736 C719 0.930 . S
H737 C720 0.931 . S
N738 C700 1.343 . S
N738 C721 1.343 . S
N739 C707 1.343 . S
N739 C714 1.343 . S
C740 C741 1.384 1_545 S
C740 C742 1.384 . S
C740 H768 0.931 . S
C741 C740 1.384 1_565 S
C741 C744 1.382 . S
C742 C740 1.384 . S
C742 C743 1.381 1_545 S
C742 H769 0.930 . S
C743 C742 1.381 1_565 S
C743 C745 1.381 . S
C743 C746 1.487 . S
C744 C741 1.382 . S
C744 C745 1.387 . S
C744 H770 0.930 . S
C745 C743 1.381 . S
C745 C744 1.387 . S
C745 H771 0.931 . S
C746 C743 1.487 . S
C746 C753 1.399 1_565 S
C746 N784 1.343 . S
C747 C748 1.384 1_565 S
C747 C749 1.384 . S
C747 H772 0.931 . S
C748 C747 1.384 1_545 S
C748 C751 1.382 . S
C749 C747 1.384 . S
C749 C750 1.381 1_565 S
C749 H773 0.930 . S
C750 C749 1.381 1_545 S
C750 C752 1.381 . S
C750 C753 1.487 . S
C751 C748 1.382 . S
C751 C752 1.387 . S
C751 H774 0.930 . S
C752 C750 1.381 . S
C752 C751 1.387 . S
C752 H775 0.931 . S
C753 C746 1.399 1_545 S
C753 C750 1.487 . S
C753 N785 1.343 . S
C754 C755 1.384 1_565 S
C754 C756 1.384 . S
C754 H776 0.931 . S
C755 C754 1.384 1_545 S
C755 C758 1.382 . S
C756 C754 1.384 . S
C756 C757 1.381 1_565 S
C756 H777 0.930 . S
C757 C756 1.381 1_545 S
C757 C759 1.381 . S
C757 C760 1.487 . S
C758 C755 1.382 . S
C758 C759 1.387 . S
C758 H778 0.930 . S
C759 C757 1.381 . S
C759 C758 1.387 . S
C759 H779 0.931 . S
C760 C757 1.487 . S
C760 C767 1.399 1_545 S
C760 N785 1.343 . S
C761 C762 1.384 1_545 S
C761 C763 1.384 . S
C761 H780 0.931 . S
C762 C761 1.384 1_565 S
C762 C765 1.382 . S
C763 C761 1.384 . S
C763 C764 1.381 1_545 S
C763 H781 0.930 . S
C764 C763 1.381 1_565 S
C764 C766 1.381 . S
C764 C767 1.487 . S
C765 C762 1.382 . S
C765 C766 1.387 . S
C765 H782 0.930 . S
C766 C764 1.381 . S
C766 C765 1.387 . S
C766 H783 0.931 . S
C767 C760 1.399 1_565 S
C767 C764 1.487 . S
C767 N784 1.343 . S
H768 C740 0.931 . S
H769 C742 0.930 . S
H770 C744 0.930 . S
H771 C745 0.931 . S
H772 C747 0.931 . S
H773 C749 0.930 . S
H774 C751 0.930 . S
H775 C752 0.931 . S
H776 C754 0.931 . S
H777 C756 0.930 . S
H778 C758 0.930 . S
H779 C759 0.931 . S
H780 C761 0.931 . S
H781 C763 0.930 . S
H782 C765 0.930 . S
H783 C766 0.931 . S
N784 C746 1.343 . S
N784 C767 1.343 . S
N785 C753 1.343 . S
N785 C760 1.343 . S
C786 C787 1.384 . S
C786 C788 1.384 . S
C786 H814 0.931 . S
C787 C786 1.384 . S
C787 C790 1.382 1_545 S
C788 C786 1.384 . S
C788 C789 1.384 . S
C788 H815 0.930 . S
C789 C788 1.384 . S
C789 C791 1.374 1_545 S
C789 C792 1.496 1_545 S
C790 C787 1.382 1_565 S
C790 C791 1.387 . S
C790 H816 0.930 . S
C791 C789 1.374 1_565 S
C791 C790 1.387 . S
C791 H817 0.931 . S
C792 C789 1.496 1_565 S
C792 C799 1.399 1_565 S
C792 N830 1.364 . S
C793 C794 1.384 . S
C793 C795 1.384 . S
C793 H818 0.931 . S
C794 C793 1.384 . S
C794 C797 1.382 1_565 S
C795 C793 1.384 . S
C795 C796 1.392 . S
C795 H819 0.930 . S
C796 C795 1.392 . S
C796 C798 1.376 1_565 S
C796 C799 1.476 1_565 S
C797 C794 1.382 1_545 S
C797 C798 1.387 . S
C797 H820 0.930 . S
C798 C796 1.376 1_545 S
C798 C797 1.387 . S
C798 H821 0.931 . S
C799 C792 1.399 1_545 S
C799 C796 1.476 1_545 S
C799 N831 1.351 . S
C800 C801 1.384 . S
C800 C802 1.384 . S
C800 H822 0.931 . S
C801 C800 1.384 . S
C801 C804 1.382 1_565 S
C802 C800 1.384 . S
C802 C803 1.381 . S
C802 H823 0.930 . S
C803 C802 1.381 . S
C803 C805 1.381 1_565 S
C803 C806 1.496 1_565 S
C804 C801 1.382 1_545 S
C804 C805 1.387 . S
C804 H824 0.930 . S
C805 C803 1.381 1_545 S
C805 C804 1.387 . S
C805 H825 0.931 . S
C806 C803 1.496 1_545 S
C806 C813 1.399 1_545 S
C806 N831 1.335 . S
C807 C808 1.384 . S
C807 C809 1.384 . S
C807 H826 0.931 . S
C808 C807 1.384 . S
C808 C811 1.382 1_545 S
C809 C807 1.384 . S
C809 C810 1.404 . S
C809 H827 0.930 . S
C810 C809 1.404 . S
C810 C812 1.369 1_545 S
C810 C813 1.476 1_545 S
C811 C808 1.382 1_565 S
C811 C812 1.387 . S
C811 H828 0.930 . S
C812 C810 1.369 1_565 S
C812 C811 1.387 . S
C812 H829 0.931 . S
C813 C806 1.399 1_565 S
C813 C810 1.476 1_565 S
C813 N830 1.318 . S
H814 C786 0.931 . S
H815 C788 0.930 . S
H816 C790 0.930 . S
H817 C791 0.931 . S
H818 C793 0.931 . S
H819 C795 0.930 . S
H820 C797 0.930 . S
H821 C798 0.931 . S
H822 C800 0.931 . S
H823 C802 0.930 . S
H824 C804 0.930 . S
H825 C805 0.931 . S
H826 C807 0.931 . S
H827 C809 0.930 . S
H828 C811 0.930 . S
H829 C812 0.931 . S
N830 C792 1.364 . S
N830 C813 1.318 . S
N831 C799 1.351 . S
N831 C806 1.335 . S
C832 C833 1.384 . S
C832 C834 1.384 . S
C832 H860 0.931 . S
C833 C832 1.384 . S
C833 C836 1.382 1_655 S
C834 C832 1.384 . S
C834 C835 1.406 . S
C834 H861 0.930 . S
C835 C834 1.406 . S
C835 C837 1.369 1_655 S
C835 C838 1.475 1_655 S
C836 C833 1.382 1_455 S
C836 C837 1.387 . S
C836 H862 0.930 . S
C837 C835 1.369 1_455 S
C837 C836 1.387 . S
C837 H863 0.931 . S
C838 C835 1.475 1_455 S
C838 C845 1.399 1_455 S
C838 N876 1.319 . S
C839 C840 1.384 . S
C839 C841 1.384 . S
C839 H864 0.931 . S
C840 C839 1.384 . S
C840 C843 1.382 1_455 S
C841 C839 1.384 . S
C841 C842 1.382 . S
C841 H865 0.930 . S
C842 C841 1.382 . S
C842 C844 1.379 1_455 S
C842 C845 1.496 1_455 S
C843 C840 1.382 1_655 S
C843 C844 1.387 . S
C843 H866 0.930 . S
C844 C842 1.379 1_655 S
C844 C843 1.387 . S
C844 H867 0.931 . S
C845 C838 1.399 1_655 S
C845 C842 1.496 1_655 S
C845 N877 1.335 . S
C846 C847 1.384 . S
C846 C848 1.384 . S
C846 H868 0.931 . S
C847 C846 1.384 . S
C847 C850 1.382 1_455 S
C848 C846 1.384 . S
C848 C849 1.393 . S
C848 H869 0.930 . S
C849 C848 1.393 . S
C849 C851 1.375 1_455 S
C849 C852 1.475 1_455 S
C850 C847 1.382 1_655 S
C850 C851 1.387 . S
C850 H870 0.930 . S
C851 C849 1.375 1_655 S
C851 C850 1.387 . S
C851 H871 0.931 . S
C852 C849 1.475 1_655 S
C852 C859 1.399 1_655 S
C852 N877 1.350 . S
C853 C854 1.384 . S
C853 C855 1.384 . S
C853 H872 0.931 . S
C854 C853 1.384 . S
C854 C857 1.382 1_655 S
C855 C853 1.384 . S
C855 C856 1.385 . S
C855 H873 0.930 . S
C856 C855 1.385 . S
C856 C858 1.371 1_655 S
C856 C859 1.496 1_655 S
C857 C854 1.382 1_455 S
C857 C858 1.387 . S
C857 H874 0.930 . S
C858 C856 1.371 1_455 S
C858 C857 1.387 . S
C858 H875 0.931 . S
C859 C852 1.399 1_455 S
C859 C856 1.496 1_455 S
C859 N876 1.364 . S
H860 C832 0.931 . S
H861 C834 0.930 . S
H862 C836 0.930 . S
H863 C837 0.931 . S
H864 C839 0.931 . S
H865 C841 0.930 . S
H866 C843 0.930 . S
H867 C844 0.931 . S
H868 C846 0.931 . S
H869 C848 0.930 . S
H870 C850 0.930 . S
H871 C851 0.931 . S
H872 C853 0.931 . S
H873 C855 0.930 . S
H874 C857 0.930 . S
H875 C858 0.931 . S
N876 C838 1.319 . S
N876 C859 1.364 . S
N877 C845 1.335 . S
N877 C852 1.350 . S
C878 C879 1.384 . S
C878 C880 1.384 . S
C878 H906 0.931 . S
C879 C878 1.384 . S
C879 C882 1.382 . S
C880 C878 1.384 . S
C880 C881 1.381 . S
C880 H907 0.930 . S
C881 C880 1.381 . S
C881 C883 1.381 . S
C881 C884 1.487 . S
C882 C879 1.382 . S
C882 C883 1.387 . S
C882 H908 0.930 . S
C883 C881 1.381 . S
C883 C882 1.387 . S
C883 H909 0.931 . S
C884 C881 1.487 . S
C884 C891 1.399 . S
C884 N922 1.343 . S
C885 C886 1.384 . S
C885 C887 1.384 . S
C885 H910 0.931 . S
C886 C885 1.384 . S
C886 C889 1.382 . S
C887 C885 1.384 . S
C887 C888 1.381 . S
C887 H911 0.930 . S
C888 C887 1.381 . S
C888 C890 1.381 . S
C888 C891 1.487 . S
C889 C886 1.382 . S
C889 C890 1.387 . S
C889 H912 0.930 . S
C890 C888 1.381 . S
C890 C889 1.387 . S
C890 H913 0.931 . S
C891 C884 1.399 . S
C891 C888 1.487 . S
C891 N923 1.343 . S
C892 C893 1.384 . S
C892 C894 1.384 . S
C892 H914 0.931 . S
C893 C892 1.384 . S
C893 C896 1.382 . S
C894 C892 1.384 . S
C894 C895 1.381 . S
C894 H915 0.930 . S
C895 C894 1.381 . S
C895 C897 1.381 . S
C895 C898 1.487 . S
C896 C893 1.382 . S
C896 C897 1.387 . S
C896 H916 0.930 . S
C897 C895 1.381 . S
C897 C896 1.387 . S
C897 H917 0.931 . S
C898 C895 1.487 . S
C898 C905 1.399 . S
C898 N923 1.343 . S
C899 C900 1.384 . S
C899 C901 1.384 . S
C899 H918 0.931 . S
C900 C899 1.384 . S
C900 C903 1.382 . S
C901 C899 1.384 . S
C901 C902 1.381 . S
C901 H919 0.930 . S
C902 C901 1.381 . S
C902 C904 1.381 . S
C902 C905 1.487 . S
C903 C900 1.382 . S
C903 C904 1.387 . S
C903 H920 0.930 . S
C904 C902 1.381 . S
C904 C903 1.387 . S
C904 H921 0.931 . S
C905 C898 1.399 . S
C905 C902 1.487 . S
C905 N922 1.343 . S
H906 C878 0.931 . S
H907 C880 0.930 . S
H908 C882 0.930 . S
H909 C883 0.931 . S
H910 C885 0.931 . S
H911 C887 0.930 . S
H912 C889 0.930 . S
H913 C890 0.931 . S
H914 C892 0.931 . S
H915 C894 0.930 . S
H916 C896 0.930 . S
H917 C897 0.931 . S
H918 C899 0.931 . S
H919 C901 0.930 . S
H920 C903 0.930 . S
H921 C904 0.931 . S
N922 C884 1.343 . S
N922 C905 1.343 . S
N923 C891 1.343 . S
N923 C898 1.343 . S
C924 C925 1.384 . S
C924 C926 1.384 . S
C924 H952 0.931 . S
C925 C924 1.384 . S
C925 C928 1.382 . S
C926 C924 1.384 . S
C926 C927 1.381 . S
C926 H953 0.930 . S
C927 C926 1.381 . S
C927 C929 1.381 . S
C927 C930 1.487 . S
C928 C925 1.382 . S
C928 C929 1.387 . S
C928 H954 0.930 . S
C929 C927 1.381 . S
C929 C928 1.387 . S
C929 H955 0.931 . S
C930 C927 1.487 . S
C930 C937 1.399 . S
C930 N968 1.343 . S
C931 C932 1.384 . S
C931 C933 1.384 . S
C931 H956 0.931 . S
C932 C931 1.384 . S
C932 C935 1.382 . S
C933 C931 1.384 . S
C933 C934 1.381 . S
C933 H957 0.930 . S
C934 C933 1.381 . S
C934 C936 1.381 . S
C934 C937 1.487 . S
C935 C932 1.382 . S
C935 C936 1.387 . S
C935 H958 0.930 . S
C936 C934 1.381 . S
C936 C935 1.387 . S
C936 H959 0.931 . S
C937 C930 1.399 . S
C937 C934 1.487 . S
C937 N969 1.343 . S
C938 C939 1.384 . S
C938 C940 1.384 . S
C938 H960 0.931 . S
C939 C938 1.384 . S
C939 C942 1.382 . S
C940 C938 1.384 . S
C940 C941 1.381 . S
C940 H961 0.930 . S
C941 C940 1.381 . S
C941 C943 1.381 . S
C941 C944 1.487 . S
C942 C939 1.382 . S
C942 C943 1.387 . S
C942 H962 0.930 . S
C943 C941 1.381 . S
C943 C942 1.387 . S
C943 H963 0.931 . S
C944 C941 1.487 . S
C944 C951 1.399 . S
C944 N969 1.343 . S
C945 C946 1.384 . S
C945 C947 1.384 . S
C945 H964 0.931 . S
C946 C945 1.384 . S
C946 C949 1.382 . S
C947 C945 1.384 . S
C947 C948 1.381 . S
C947 H965 0.930 . S
C948 C947 1.381 . S
C948 C950 1.381 . S
C948 C951 1.487 . S
C949 C946 1.382 . S
C949 C950 1.387 . S
C949 H966 0.930 . S
C950 C948 1.381 . S
C950 C949 1.387 . S
C950 H967 0.931 . S
C951 C944 1.399 . S
C951 C948 1.487 . S
C951 N968 1.343 . S
H952 C924 0.931 . S
H953 C926 0.930 . S
H954 C928 0.930 . S
H955 C929 0.931 . S
H956 C931 0.931 . S
H957 C933 0.930 . S
H958 C935 0.930 . S
H959 C936 0.931 . S
H960 C938 0.931 . S
H961 C940 0.930 . S
H962 C942 0.930 . S
H963 C943 0.931 . S
H964 C945 0.931 . S
H965 C947 0.930 . S
H966 C949 0.930 . S
H967 C950 0.931 . S
N968 C930 1.343 . S
N968 C951 1.343 . S
N969 C937 1.343 . S
N969 C944 1.343 . S
C970 C971 1.384 . S
C970 C972 1.384 . S
C970 H998 0.931 . S
C971 C970 1.384 . S
C971 C974 1.382 . S
C972 C970 1.384 . S
C972 C973 1.381 . S
C972 H999 0.930 . S
C973 C972 1.381 . S
C973 C975 1.381 . S
C973 C976 1.487 . S
C974 C971 1.382 . S
C974 C975 1.387 . S
C974 H1000 0.930 . S
C975 C973 1.381 . S
C975 C974 1.387 . S
C975 H1001 0.931 . S
C976 C973 1.487 . S
C976 C983 1.399 . S
C976 N1014 1.343 . S
C977 C978 1.384 . S
C977 C979 1.384 . S
C977 H1002 0.931 . S
C978 C977 1.384 . S
C978 C981 1.382 . S
C979 C977 1.384 . S
C979 C980 1.381 . S
C979 H1003 0.930 . S
C980 C979 1.381 . S
C980 C982 1.381 . S
C980 C983 1.487 . S
C981 C978 1.382 . S
C981 C982 1.387 . S
C981 H1004 0.930 . S
C982 C980 1.381 . S
C982 C981 1.387 . S
C982 H1005 0.931 . S
C983 C976 1.399 . S
C983 C980 1.487 . S
C983 N1015 1.343 . S
C984 C985 1.384 . S
C984 C986 1.384 . S
C984 H1006 0.931 . S
C985 C984 1.384 . S
C985 C988 1.382 . S
C986 C984 1.384 . S
C986 C987 1.381 . S
C986 H1007 0.930 . S
C987 C986 1.381 . S
C987 C989 1.381 . S
C987 C990 1.487 . S
C988 C985 1.382 . S
C988 C989 1.387 . S
C988 H1008 0.930 . S
C989 C987 1.381 . S
C989 C988 1.387 . S
C989 H1009 0.931 . S
C990 C987 1.487 . S
C990 C997 1.399 . S
C990 N1015 1.343 . S
C991 C992 1.384 . S
C991 C993 1.384 . S
C991 H1010 0.931 . S
C992 C991 1.384 . S
C992 C995 1.382 . S
C993 C991 1.384 . S
C993 C994 1.381 . S
C993 H1011 0.930 . S
C994 C993 1.381 . S
C994 C996 1.381 . S
C994 C997 1.487 . S
C995 C992 1.382 . S
C995 C996 1.387 . S
C995 H1012 0.930 . S
C996 C994 1.381 . S
C996 C995 1.387 . S
C996 H1013 0.931 . S
C997 C990 1.399 . S
C997 C994 1.487 . S
C997 N1014 1.343 . S
H998 C970 0.931 . S
H999 C972 0.930 . S
H1000 C974 0.930 . S
H1001 C975 0.931 . S
H1002 C977 0.931 . S
H1003 C979 0.930 . S
H1004 C981 0.930 . S
H1005 C982 0.931 . S
H1006 C984 0.931 . S
H1007 C986 0.930 . S
H1008 C988 0.930 . S
H1009 C989 0.931 . S
H1010 C991 0.931 . S
H1011 C993 0.930 . S
H1012 C995 0.930 . S
H1013 C996 0.931 . S
N1014 C976 1.343 . S
N1014 C997 1.343 . S
N1015 C983 1.343 . S
N1015 C990 1.343 . S
C1016 C1017 1.384 . S
C1016 C1018 1.384 . S
C1016 H1044 0.931 . S
C1017 C1016 1.384 . S
C1017 C1020 1.382 . S
C1018 C1016 1.384 . S
C1018 C1019 1.381 . S
C1018 H1045 0.930 . S
C1019 C1018 1.381 . S
C1019 C1021 1.381 . S
C1019 C1022 1.487 . S
C1020 C1017 1.382 . S
C1020 C1021 1.387 . S
C1020 H1046 0.930 . S
C1021 C1019 1.381 . S
C1021 C1020 1.387 . S
C1021 H1047 0.931 . S
C1022 C1019 1.487 . S
C1022 C1029 1.399 . S
C1022 N1060 1.343 . S
C1023 C1024 1.384 . S
C1023 C1025 1.384 . S
C1023 H1048 0.931 . S
C1024 C1023 1.384 . S
C1024 C1027 1.382 . S
C1025 C1023 1.384 . S
C1025 C1026 1.381 . S
C1025 H1049 0.930 . S
C1026 C1025 1.381 . S
C1026 C1028 1.381 . S
C1026 C1029 1.487 . S
C1027 C1024 1.382 . S
C1027 C1028 1.387 . S
C1027 H1050 0.930 . S
C1028 C1026 1.381 . S
C1028 C1027 1.387 . S
C1028 H1051 0.931 . S
C1029 C1022 1.399 . S
C1029 C1026 1.487 . S
C1029 N1061 1.343 . S
C1030 C1031 1.384 . S
C1030 C1032 1.384 . S
C1030 H1052 0.931 . S
C1031 C1030 1.384 . S
C1031 C1034 1.382 . S
C1032 C1030 1.384 . S
C1032 C1033 1.381 . S
C1032 H1053 0.930 . S
C1033 C1032 1.381 . S
C1033 C1035 1.381 . S
C1033 C1036 1.487 . S
C1034 C1031 1.382 . S
C1034 C1035 1.387 . S
C1034 H1054 0.930 . S
C1035 C1033 1.381 . S
C1035 C1034 1.387 . S
C1035 H1055 0.931 . S
C1036 C1033 1.487 . S
C1036 C1043 1.399 . S
C1036 N1061 1.343 . S
C1037 C1038 1.384 . S
C1037 C1039 1.384 . S
C1037 H1056 0.931 . S
C1038 C1037 1.384 . S
C1038 C1041 1.382 . S
C1039 C1037 1.384 . S
C1039 C1040 1.381 . S
C1039 H1057 0.930 . S
C1040 C1039 1.381 . S
C1040 C1042 1.381 . S
C1040 C1043 1.487 . S
C1041 C1038 1.382 . S
C1041 C1042 1.387 . S
C1041 H1058 0.930 . S
C1042 C1040 1.381 . S
C1042 C1041 1.387 . S
C1042 H1059 0.931 . S
C1043 C1036 1.399 . S
C1043 C1040 1.487 . S
C1043 N1060 1.343 . S
H1044 C1016 0.931 . S
H1045 C1018 0.930 . S
H1046 C1020 0.930 . S
H1047 C1021 0.931 . S
H1048 C1023 0.931 . S
H1049 C1025 0.930 . S
H1050 C1027 0.930 . S
H1051 C1028 0.931 . S
H1052 C1030 0.931 . S
H1053 C1032 0.930 . S
H1054 C1034 0.930 . S
H1055 C1035 0.931 . S
H1056 C1037 0.931 . S
H1057 C1039 0.930 . S
H1058 C1041 0.930 . S
H1059 C1042 0.931 . S
N1060 C1022 1.343 . S
N1060 C1043 1.343 . S
N1061 C1029 1.343 . S
N1061 C1036 1.343 . S
C1062 C1063 1.387 . S
C1062 H1066 0.950 . S
C1062 C1071 1.390 . S
C1063 C1062 1.387 . S
C1063 C1065 1.387 1_655 S
H1064 C1071 0.950 . S
C1065 C1063 1.387 1_455 S
C1065 C1067 1.390 . S
C1065 H1069 0.950 . S
H1066 C1062 0.950 . S
C1067 C1065 1.390 . S
C1067 C1068 1.387 1_455 S
C1067 H1070 0.950 . S
C1068 C1067 1.387 1_655 S
C1068 C1071 1.387 . S
H1069 C1065 0.950 . S
H1070 C1067 0.950 . S
C1071 C1062 1.390 . S
C1071 H1064 0.950 . S
C1071 C1068 1.387 . S
C1072 C1073 1.387 . S
C1072 H1076 0.950 . S
C1072 C1081 1.390 . S
C1073 C1072 1.387 . S
C1073 C1075 1.387 . S
H1074 C1081 0.950 . S
C1075 C1073 1.387 . S
C1075 C1077 1.390 . S
C1075 H1079 0.950 . S
H1076 C1072 0.950 . S
C1077 C1075 1.390 . S
C1077 C1078 1.387 . S
C1077 H1080 0.950 . S
C1078 C1077 1.387 . S
C1078 C1081 1.387 . S
H1079 C1075 0.950 . S
H1080 C1077 0.950 . S
C1081 C1072 1.390 . S
C1081 H1074 0.950 . S
C1081 C1078 1.387 . S
C1082 C1083 1.387 . S
C1082 H1086 0.950 . S
C1082 C1091 1.390 . S
C1083 C1082 1.387 . S
C1083 C1085 1.387 1_545 S
H1084 C1091 0.950 . S
C1085 C1083 1.387 1_565 S
C1085 C1087 1.390 . S
C1085 H1089 0.950 . S
H1086 C1082 0.950 . S
C1087 C1085 1.390 . S
C1087 C1088 1.387 1_565 S
C1087 H1090 0.950 . S
C1088 C1087 1.387 1_545 S
C1088 C1091 1.387 . S
H1089 C1085 0.950 . S
H1090 C1087 0.950 . S
C1091 C1082 1.390 . S
C1091 H1084 0.950 . S
C1091 C1088 1.387 . S
C1092 C1093 1.387 1_545 S
C1092 H1096 0.950 . S
C1092 C1101 1.390 . S
C1093 C1092 1.387 1_565 S
C1093 C1095 1.387 . S
H1094 C1101 0.950 . S
C1095 C1093 1.387 . S
C1095 C1097 1.390 . S
C1095 H1099 0.950 . S
H1096 C1092 0.950 . S
C1097 C1095 1.390 . S
C1097 C1098 1.387 . S
C1097 H1100 0.950 . S
C1098 C1097 1.387 . S
C1098 C1101 1.387 1_565 S
H1099 C1095 0.950 . S
H1100 C1097 0.950 . S
C1101 C1092 1.390 . S
C1101 H1094 0.950 . S
C1101 C1098 1.387 1_545 S
C1102 C1103 1.387 . S
C1102 H1106 0.950 . S
C1102 C1111 1.390 . S
C1103 C1102 1.387 . S
C1103 C1105 1.387 1_455 S
H1104 C1111 0.950 . S
C1105 C1103 1.387 1_655 S
C1105 C1107 1.390 . S
C1105 H1109 0.950 . S
H1106 C1102 0.950 . S
C1107 C1105 1.390 . S
C1107 C1108 1.387 1_655 S
C1107 H1110 0.950 . S
C1108 C1107 1.387 1_455 S
C1108 C1111 1.387 . S
H1109 C1105 0.950 . S
H1110 C1107 0.950 . S
C1111 C1102 1.390 . S
C1111 H1104 0.950 . S
C1111 C1108 1.387 . S
C1112 C1113 1.387 . S
C1112 H1116 0.950 . S
C1112 C1121 1.390 . S
C1113 C1112 1.387 . S
C1113 C1115 1.387 . S
H1114 C1121 0.950 . S
C1115 C1113 1.387 . S
C1115 C1117 1.390 . S
C1115 H1119 0.950 . S
H1116 C1112 0.950 . S
C1117 C1115 1.390 . S
C1117 C1118 1.387 . S
C1117 H1120 0.950 . S
C1118 C1117 1.387 . S
C1118 C1121 1.387 . S
H1119 C1115 0.950 . S
H1120 C1117 0.950 . S
C1121 C1112 1.390 . S
C1121 H1114 0.950 . S
C1121 C1118 1.387 . S
C1122 C1123 1.387 1_655 S
C1122 H1126 0.950 . S
C1122 C1131 1.390 . S
C1123 C1122 1.387 1_455 S
C1123 C1125 1.387 . S
H1124 C1131 0.950 . S
C1125 C1123 1.387 . S
C1125 C1127 1.390 . S
C1125 H1129 0.950 . S
H1126 C1122 0.950 . S
C1127 C1125 1.390 . S
C1127 C1128 1.387 . S
C1127 H1130 0.950 . S
C1128 C1127 1.387 . S
C1128 C1131 1.387 1_455 S
H1129 C1125 0.950 . S
H1130 C1127 0.950 . S
C1131 C1122 1.390 . S
C1131 H1124 0.950 . S
C1131 C1128 1.387 1_655 S
C1132 C1133 1.387 . S
C1132 H1136 0.950 . S
C1132 C1141 1.390 . S
C1133 C1132 1.387 . S
C1133 C1135 1.387 . S
H1134 C1141 0.950 . S
C1135 C1133 1.387 . S
C1135 C1137 1.390 . S
C1135 H1139 0.950 . S
H1136 C1132 0.950 . S
C1137 C1135 1.390 . S
C1137 C1138 1.387 . S
C1137 H1140 0.950 . S
C1138 C1137 1.387 . S
C1138 C1141 1.387 . S
H1139 C1135 0.950 . S
H1140 C1137 0.950 . S
C1141 C1132 1.390 . S
C1141 H1134 0.950 . S
C1141 C1138 1.387 . S
C1142 C1143 1.387 1_545 S
C1142 H1146 0.950 . S
C1142 C1151 1.390 . S
C1143 C1142 1.387 1_565 S
C1143 C1145 1.387 . S
H1144 C1151 0.950 . S
C1145 C1143 1.387 . S
C1145 C1147 1.390 . S
C1145 H1149 0.950 . S
H1146 C1142 0.950 . S
C1147 C1145 1.390 . S
C1147 C1148 1.387 . S
C1147 H1150 0.950 . S
C1148 C1147 1.387 . S
C1148 C1151 1.387 1_565 S
H1149 C1145 0.950 . S
H1150 C1147 0.950 . S
C1151 C1142 1.390 . S
C1151 H1144 0.950 . S
C1151 C1148 1.387 1_545 S
C1152 C1153 1.387 . S
C1152 H1156 0.950 . S
C1152 C1161 1.390 . S
C1153 C1152 1.387 . S
C1153 C1155 1.387 1_545 S
H1154 C1161 0.950 . S
C1155 C1153 1.387 1_565 S
C1155 C1157 1.390 . S
C1155 H1159 0.950 . S
H1156 C1152 0.950 . S
C1157 C1155 1.390 . S
C1157 C1158 1.387 1_565 S
C1157 H1160 0.950 . S
C1158 C1157 1.387 1_545 S
C1158 C1161 1.387 . S
H1159 C1155 0.950 . S
H1160 C1157 0.950 . S
C1161 C1152 1.390 . S
C1161 H1154 0.950 . S
C1161 C1158 1.387 . S
C1162 C1163 1.387 . S
C1162 H1166 0.950 . S
C1162 C1171 1.390 . S
C1163 C1162 1.387 . S
C1163 C1165 1.387 1_655 S
H1164 C1171 0.950 . S
C1165 C1163 1.387 1_455 S
C1165 C1167 1.390 . S
C1165 H1169 0.950 . S
H1166 C1162 0.950 . S
C1167 C1165 1.390 . S
C1167 C1168 1.387 1_455 S
C1167 H1170 0.950 . S
C1168 C1167 1.387 1_655 S
C1168 C1171 1.387 . S
H1169 C1165 0.950 . S
H1170 C1167 0.950 . S
C1171 C1162 1.390 . S
C1171 H1164 0.950 . S
C1171 C1168 1.387 . S
C1172 C1173 1.387 . S
C1172 H1176 0.950 . S
C1172 C1181 1.390 . S
C1173 C1172 1.387 . S
C1173 C1175 1.387 . S
H1174 C1181 0.950 . S
C1175 C1173 1.387 . S
C1175 C1177 1.390 . S
C1175 H1179 0.950 . S
H1176 C1172 0.950 . S
C1177 C1175 1.390 . S
C1177 C1178 1.387 . S
C1177 H1180 0.950 . S
C1178 C1177 1.387 . S
C1178 C1181 1.387 . S
H1179 C1175 0.950 . S
H1180 C1177 0.950 . S
C1181 C1172 1.390 . S
C1181 H1174 0.950 . S
C1181 C1178 1.387 . S
C1182 C1183 1.387 . S
C1182 H1186 0.950 . S
C1182 C1191 1.390 . S
C1183 C1182 1.387 . S
C1183 C1185 1.387 . S
H1184 C1191 0.950 . S
C1185 C1183 1.387 . S
C1185 C1187 1.390 . S
C1185 H1189 0.950 . S
H1186 C1182 0.950 . S
C1187 C1185 1.390 . S
C1187 C1188 1.387 . S
C1187 H1190 0.950 . S
C1188 C1187 1.387 . S
C1188 C1191 1.387 . S
H1189 C1185 0.950 . S
H1190 C1187 0.950 . S
C1191 C1182 1.390 . S
C1191 H1184 0.950 . S
C1191 C1188 1.387 . S
C1192 C1193 1.387 . S
C1192 H1196 0.950 . S
C1192 C1201 1.390 . S
C1193 C1192 1.387 . S
C1193 C1195 1.387 . S
H1194 C1201 0.950 . S
C1195 C1193 1.387 . S
C1195 C1197 1.390 . S
C1195 H1199 0.950 . S
H1196 C1192 0.950 . S
C1197 C1195 1.390 . S
C1197 C1198 1.387 . S
C1197 H1200 0.950 . S
C1198 C1197 1.387 . S
C1198 C1201 1.387 . S
H1199 C1195 0.950 . S
H1200 C1197 0.950 . S
C1201 C1192 1.390 . S
C1201 H1194 0.950 . S
C1201 C1198 1.387 . S
C1202 C1203 1.387 . S
C1202 H1206 0.950 . S
C1202 C1211 1.390 . S
C1203 C1202 1.387 . S
C1203 C1205 1.387 . S
H1204 C1211 0.950 . S
C1205 C1203 1.387 . S
C1205 C1207 1.390 . S
C1205 H1209 0.950 . S
H1206 C1202 0.950 . S
C1207 C1205 1.390 . S
C1207 C1208 1.387 . S
C1207 H1210 0.950 . S
C1208 C1207 1.387 . S
C1208 C1211 1.387 . S
H1209 C1205 0.950 . S
H1210 C1207 0.950 . S
C1211 C1202 1.390 . S
C1211 H1204 0.950 . S
C1211 C1208 1.387 . S
C1212 C1213 1.387 . S
C1212 H1216 0.950 . S
C1212 C1221 1.390 . S
C1213 C1212 1.387 . S
C1213 C1215 1.387 . S
H1214 C1221 0.950 . S
C1215 C1213 1.387 . S
C1215 C1217 1.390 . S
C1215 H1219 0.950 . S
H1216 C1212 0.950 . S
C1217 C1215 1.390 . S
C1217 C1218 1.387 . S
C1217 H1220 0.950 . S
C1218 C1217 1.387 . S
C1218 C1221 1.387 . S
H1219 C1215 0.950 . S
H1220 C1217 0.950 . S
C1221 C1212 1.390 . S
C1221 H1214 0.950 . S
C1221 C1218 1.387 . S
C1222 C1223 1.387 . S
C1222 H1226 0.950 . S
C1222 C1231 1.390 . S
C1223 C1222 1.387 . S
C1223 C1225 1.387 . S
H1224 C1231 0.950 . S
C1225 C1223 1.387 . S
C1225 C1227 1.390 . S
C1225 H1229 0.950 . S
H1226 C1222 0.950 . S
C1227 C1225 1.390 . S
C1227 C1228 1.387 . S
C1227 H1230 0.950 . S
C1228 C1227 1.387 . S
C1228 C1231 1.387 . S
H1229 C1225 0.950 . S
H1230 C1227 0.950 . S
C1231 C1222 1.390 . S
C1231 H1224 0.950 . S
C1231 C1228 1.387 . S
C1232 C1233 1.387 . S
C1232 H1236 0.950 . S
C1232 C1241 1.390 . S
C1233 C1232 1.387 . S
C1233 C1235 1.387 . S
H1234 C1241 0.950 . S
C1235 C1233 1.387 . S
C1235 C1237 1.390 . S
C1235 H1239 0.950 . S
H1236 C1232 0.950 . S
C1237 C1235 1.390 . S
C1237 C1238 1.387 . S
C1237 H1240 0.950 . S
C1238 C1237 1.387 . S
C1238 C1241 1.387 . S
H1239 C1235 0.950 . S
H1240 C1237 0.950 . S
C1241 C1232 1.390 . S
C1241 H1234 0.950 . S
C1241 C1238 1.387 . S
C1242 C1243 1.387 . S
C1242 H1246 0.950 . S
C1242 C1251 1.390 . S
C1243 C1242 1.387 . S
C1243 C1245 1.387 . S
H1244 C1251 0.950 . S
C1245 C1243 1.387 . S
C1245 C1247 1.390 . S
C1245 H1249 0.950 . S
H1246 C1242 0.950 . S
C1247 C1245 1.390 . S
C1247 C1248 1.387 . S
C1247 H1250 0.950 . S
C1248 C1247 1.387 . S
C1248 C1251 1.387 . S
H1249 C1245 0.950 . S
H1250 C1247 0.950 . S
C1251 C1242 1.390 . S
C1251 H1244 0.950 . S
C1251 C1248 1.387 . S
C1252 C1253 1.387 . S
C1252 H1256 0.950 . S
C1252 C1261 1.390 . S
C1253 C1252 1.387 . S
C1253 C1255 1.387 . S
H1254 C1261 0.950 . S
C1255 C1253 1.387 . S
C1255 C1257 1.390 . S
C1255 H1259 0.950 . S
H1256 C1252 0.950 . S
C1257 C1255 1.390 . S
C1257 C1258 1.387 . S
C1257 H1260 0.950 . S
C1258 C1257 1.387 . S
C1258 C1261 1.387 . S
H1259 C1255 0.950 . S
H1260 C1257 0.950 . S
C1261 C1252 1.390 . S
C1261 H1254 0.950 . S
C1261 C1258 1.387 . S
C1262 C1263 1.387 . S
C1262 H1266 0.950 . S
C1262 C1271 1.390 . S
C1263 C1262 1.387 . S
C1263 C1265 1.387 . S
H1264 C1271 0.950 . S
C1265 C1263 1.387 . S
C1265 C1267 1.390 . S
C1265 H1269 0.950 . S
H1266 C1262 0.950 . S
C1267 C1265 1.390 . S
C1267 C1268 1.387 . S
C1267 H1270 0.950 . S
C1268 C1267 1.387 . S
C1268 C1271 1.387 . S
H1269 C1265 0.950 . S
H1270 C1267 0.950 . S
C1271 C1262 1.390 . S
C1271 H1264 0.950 . S
C1271 C1268 1.387 . S
C1272 C1273 1.387 . S
C1272 H1276 0.950 . S
C1272 C1281 1.390 . S
C1273 C1272 1.387 . S
C1273 C1275 1.387 . S
H1274 C1281 0.950 . S
C1275 C1273 1.387 . S
C1275 C1277 1.390 . S
C1275 H1279 0.950 . S
H1276 C1272 0.950 . S
C1277 C1275 1.390 . S
C1277 C1278 1.387 . S
C1277 H1280 0.950 . S
C1278 C1277 1.387 . S
C1278 C1281 1.387 . S
H1279 C1275 0.950 . S
H1280 C1277 0.950 . S
C1281 C1272 1.390 . S
C1281 H1274 0.950 . S
C1281 C1278 1.387 . S
C1282 C1283 1.387 . S
C1282 H1286 0.950 . S
C1282 C1291 1.390 . S
C1283 C1282 1.387 . S
C1283 C1285 1.387 . S
H1284 C1291 0.950 . S
C1285 C1283 1.387 . S
C1285 C1287 1.390 . S
C1285 H1289 0.950 . S
H1286 C1282 0.950 . S
C1287 C1285 1.390 . S
C1287 C1288 1.387 . S
C1287 H1290 0.950 . S
C1288 C1287 1.387 . S
C1288 C1291 1.387 . S
H1289 C1285 0.950 . S
H1290 C1287 0.950 . S
C1291 C1282 1.390 . S
C1291 H1284 0.950 . S
C1291 C1288 1.387 . S
C1292 C1293 1.387 . S
C1292 H1296 0.950 . S
C1292 C1301 1.390 . S
C1293 C1292 1.387 . S
C1293 C1295 1.387 . S
H1294 C1301 0.950 . S
C1295 C1293 1.387 . S
C1295 C1297 1.390 . S
C1295 H1299 0.950 . S
H1296 C1292 0.950 . S
C1297 C1295 1.390 . S
C1297 C1298 1.387 . S
C1297 H1300 0.950 . S
C1298 C1297 1.387 . S
C1298 C1301 1.387 . S
H1299 C1295 0.950 . S
H1300 C1297 0.950 . S
C1301 C1292 1.390 . S
C1301 H1294 0.950 . S
C1301 C1298 1.387 . S
C1302 C1303 1.387 . S
C1302 H1306 0.950 . S
C1302 C1311 1.390 . S
C1303 C1302 1.387 . S
C1303 C1305 1.387 . S
H1304 C1311 0.950 . S
C1305 C1303 1.387 . S
C1305 C1307 1.390 . S
C1305 H1309 0.950 . S
H1306 C1302 0.950 . S
C1307 C1305 1.390 . S
C1307 C1308 1.387 . S
C1307 H1310 0.950 . S
C1308 C1307 1.387 . S
C1308 C1311 1.387 . S
H1309 C1305 0.950 . S
H1310 C1307 0.950 . S
C1311 C1302 1.390 . S
C1311 H1304 0.950 . S
C1311 C1308 1.387 . S
C1312 C1313 1.387 . S
C1312 H1316 0.950 . S
C1312 C1321 1.390 . S
C1313 C1312 1.387 . S
C1313 C1315 1.387 . S
H1314 C1321 0.950 . S
C1315 C1313 1.387 . S
C1315 C1317 1.390 . S
C1315 H1319 0.950 . S
H1316 C1312 0.950 . S
C1317 C1315 1.390 . S
C1317 C1318 1.387 . S
C1317 H1320 0.950 . S
C1318 C1317 1.387 . S
C1318 C1321 1.387 . S
H1319 C1315 0.950 . S
H1320 C1317 0.950 . S
C1321 C1312 1.390 . S
C1321 H1314 0.950 . S
C1321 C1318 1.387 . S
C1322 C1323 1.387 . S
C1322 H1326 0.950 . S
C1322 C1331 1.390 . S
C1323 C1322 1.387 . S
C1323 C1325 1.387 . S
H1324 C1331 0.950 . S
C1325 C1323 1.387 . S
C1325 C1327 1.390 . S
C1325 H1329 0.950 . S
H1326 C1322 0.950 . S
C1327 C1325 1.390 . S
C1327 C1328 1.387 . S
C1327 H1330 0.950 . S
C1328 C1327 1.387 . S
C1328 C1331 1.387 . S
H1329 C1325 0.950 . S
H1330 C1327 0.950 . S
C1331 C1322 1.390 . S
C1331 H1324 0.950 . S
C1331 C1328 1.387 . S
C1332 C1333 1.387 . S
C1332 H1336 0.950 . S
C1332 C1341 1.390 . S
C1333 C1332 1.387 . S
C1333 C1335 1.387 . S
H1334 C1341 0.950 . S
C1335 C1333 1.387 . S
C1335 C1337 1.390 . S
C1335 H1339 0.950 . S
H1336 C1332 0.950 . S
C1337 C1335 1.390 . S
C1337 C1338 1.387 . S
C1337 H1340 0.950 . S
C1338 C1337 1.387 . S
C1338 C1341 1.387 . S
H1339 C1335 0.950 . S
H1340 C1337 0.950 . S
C1341 C1332 1.390 . S
C1341 H1334 0.950 . S
C1341 C1338 1.387 . S
C1342 C1343 1.387 . S
C1342 H1346 0.950 . S
C1342 C1351 1.390 . S
C1343 C1342 1.387 . S
C1343 C1345 1.387 . S
H1344 C1351 0.950 . S
C1345 C1343 1.387 . S
C1345 C1347 1.390 . S
C1345 H1349 0.950 . S
H1346 C1342 0.950 . S
C1347 C1345 1.390 . S
C1347 C1348 1.387 . S
C1347 H1350 0.950 . S
C1348 C1347 1.387 . S
C1348 C1351 1.387 . S
H1349 C1345 0.950 . S
H1350 C1347 0.950 . S
C1351 C1342 1.390 . S
C1351 H1344 0.950 . S
C1351 C1348 1.387 . S
C1352 C1353 1.387 . S
C1352 H1356 0.950 . S
C1352 C1361 1.390 . S
C1353 C1352 1.387 . S
C1353 C1355 1.387 . S
H1354 C1361 0.950 . S
C1355 C1353 1.387 . S
C1355 C1357 1.390 . S
C1355 H1359 0.950 . S
H1356 C1352 0.950 . S
C1357 C1355 1.390 . S
C1357 C1358 1.387 . S
C1357 H1360 0.950 . S
C1358 C1357 1.387 . S
C1358 C1361 1.387 . S
H1359 C1355 0.950 . S
H1360 C1357 0.950 . S
C1361 C1352 1.390 . S
C1361 H1354 0.950 . S
C1361 C1358 1.387 . S
C1362 C1363 1.387 . S
C1362 H1366 0.950 . S
C1362 C1371 1.390 . S
C1363 C1362 1.387 . S
C1363 C1365 1.387 . S
H1364 C1371 0.950 . S
C1365 C1363 1.387 . S
C1365 C1367 1.390 . S
C1365 H1369 0.950 . S
H1366 C1362 0.950 . S
C1367 C1365 1.390 . S
C1367 C1368 1.387 . S
C1367 H1370 0.950 . S
C1368 C1367 1.387 . S
C1368 C1371 1.387 . S
H1369 C1365 0.950 . S
H1370 C1367 0.950 . S
C1371 C1362 1.390 . S
C1371 H1364 0.950 . S
C1371 C1368 1.387 . S
C1372 C1373 1.387 . S
C1372 H1376 0.950 . S
C1372 C1381 1.390 . S
C1373 C1372 1.387 . S
C1373 C1375 1.387 . S
H1374 C1381 0.950 . S
C1375 C1373 1.387 . S
C1375 C1377 1.390 . S
C1375 H1379 0.950 . S
H1376 C1372 0.950 . S
C1377 C1375 1.390 . S
C1377 C1378 1.387 . S
C1377 H1380 0.950 . S
C1378 C1377 1.387 . S
C1378 C1381 1.387 . S
H1379 C1375 0.950 . S
H1380 C1377 0.950 . S
C1381 C1372 1.390 . S
C1381 H1374 0.950 . S
C1381 C1378 1.387 . S
C1382 C1383 1.387 . S
C1382 H1386 0.950 . S
C1382 C1391 1.390 . S
C1383 C1382 1.387 . S
C1383 C1385 1.387 . S
H1384 C1391 0.950 . S
C1385 C1383 1.387 . S
C1385 C1387 1.390 . S
C1385 H1389 0.950 . S
H1386 C1382 0.950 . S
C1387 C1385 1.390 . S
C1387 C1388 1.387 . S
C1387 H1390 0.950 . S
C1388 C1387 1.387 . S
C1388 C1391 1.387 . S
H1389 C1385 0.950 . S
H1390 C1387 0.950 . S
C1391 C1382 1.390 . S
C1391 H1384 0.950 . S
C1391 C1388 1.387 . S
C1392 C1393 1.387 . S
C1392 H1396 0.950 . S
C1392 C1401 1.390 . S
C1393 C1392 1.387 . S
C1393 C1395 1.387 . S
H1394 C1401 0.950 . S
C1395 C1393 1.387 . S
C1395 C1397 1.390 . S
C1395 H1399 0.950 . S
H1396 C1392 0.950 . S
C1397 C1395 1.390 . S
C1397 C1398 1.387 . S
C1397 H1400 0.950 . S
C1398 C1397 1.387 . S
C1398 C1401 1.387 . S
H1399 C1395 0.950 . S
H1400 C1397 0.950 . S
C1401 C1392 1.390 . S
C1401 H1394 0.950 . S
C1401 C1398 1.387 . S
C1402 C1403 1.387 . S
C1402 H1406 0.950 . S
C1402 C1411 1.390 . S
C1403 C1402 1.387 . S
C1403 C1405 1.387 . S
H1404 C1411 0.950 . S
C1405 C1403 1.387 . S
C1405 C1407 1.390 . S
C1405 H1409 0.950 . S
H1406 C1402 0.950 . S
C1407 C1405 1.390 . S
C1407 C1408 1.387 . S
C1407 H1410 0.950 . S
C1408 C1407 1.387 . S
C1408 C1411 1.387 . S
H1409 C1405 0.950 . S
H1410 C1407 0.950 . S
C1411 C1402 1.390 . S
C1411 H1404 0.950 . S
C1411 C1408 1.387 . S
C1412 C1413 1.387 . S
C1412 H1416 0.950 . S
C1412 C1421 1.390 . S
C1413 C1412 1.387 . S
C1413 C1415 1.387 . S
H1414 C1421 0.950 . S
C1415 C1413 1.387 . S
C1415 C1417 1.390 . S
C1415 H1419 0.950 . S
H1416 C1412 0.950 . S
C1417 C1415 1.390 . S
C1417 C1418 1.387 . S
C1417 H1420 0.950 . S
C1418 C1417 1.387 . S
C1418 C1421 1.387 . S
H1419 C1415 0.950 . S
H1420 C1417 0.950 . S
C1421 C1412 1.390 . S
C1421 H1414 0.950 . S
C1421 C1418 1.387 . S
C1422 C1423 1.387 . S
C1422 H1426 0.950 . S
C1422 C1431 1.390 . S
C1423 C1422 1.387 . S
C1423 C1425 1.387 . S
H1424 C1431 0.950 . S
C1425 C1423 1.387 . S
C1425 C1427 1.390 . S
C1425 H1429 0.950 . S
H1426 C1422 0.950 . S
C1427 C1425 1.390 . S
C1427 C1428 1.387 . S
C1427 H1430 0.950 . S
C1428 C1427 1.387 . S
C1428 C1431 1.387 . S
H1429 C1425 0.950 . S
H1430 C1427 0.950 . S
C1431 C1422 1.390 . S
C1431 H1424 0.950 . S
C1431 C1428 1.387 . S
C1432 C1433 1.387 . S
C1432 H1436 0.950 . S
C1432 C1441 1.390 . S
C1433 C1432 1.387 . S
C1433 C1435 1.387 . S
H1434 C1441 0.950 . S
C1435 C1433 1.387 . S
C1435 C1437 1.390 . S
C1435 H1439 0.950 . S
H1436 C1432 0.950 . S
C1437 C1435 1.390 . S
C1437 C1438 1.387 . S
C1437 H1440 0.950 . S
C1438 C1437 1.387 . S
C1438 C1441 1.387 . S
H1439 C1435 0.950 . S
H1440 C1437 0.950 . S
C1441 C1432 1.390 . S
C1441 H1434 0.950 . S
C1441 C1438 1.387 . S
C1442 C1443 1.387 . S
C1442 H1446 0.950 . S
C1442 C1451 1.390 . S
C1443 C1442 1.387 . S
C1443 C1445 1.387 . S
H1444 C1451 0.950 . S
C1445 C1443 1.387 . S
C1445 C1447 1.390 . S
C1445 H1449 0.950 . S
H1446 C1442 0.950 . S
C1447 C1445 1.390 . S
C1447 C1448 1.387 . S
C1447 H1450 0.950 . S
C1448 C1447 1.387 . S
C1448 C1451 1.387 . S
H1449 C1445 0.950 . S
H1450 C1447 0.950 . S
C1451 C1442 1.390 . S
C1451 H1444 0.950 . S
C1451 C1448 1.387 . S
C1452 C1453 1.387 . S
C1452 H1456 0.950 . S
C1452 C1461 1.390 . S
C1453 C1452 1.387 . S
C1453 C1455 1.387 . S
H1454 C1461 0.950 . S
C1455 C1453 1.387 . S
C1455 C1457 1.390 . S
C1455 H1459 0.950 . S
H1456 C1452 0.950 . S
C1457 C1455 1.390 . S
C1457 C1458 1.387 . S
C1457 H1460 0.950 . S
C1458 C1457 1.387 . S
C1458 C1461 1.387 . S
H1459 C1455 0.950 . S
H1460 C1457 0.950 . S
C1461 C1452 1.390 . S
C1461 H1454 0.950 . S
C1461 C1458 1.387 . S
C1462 C1463 1.387 . S
C1462 H1466 0.950 . S
C1462 C1471 1.390 . S
C1463 C1462 1.387 . S
C1463 C1465 1.387 . S
H1464 C1471 0.950 . S
C1465 C1463 1.387 . S
C1465 C1467 1.390 . S
C1465 H1469 0.950 . S
H1466 C1462 0.950 . S
C1467 C1465 1.390 . S
C1467 C1468 1.387 . S
C1467 H1470 0.950 . S
C1468 C1467 1.387 . S
C1468 C1471 1.387 . S
H1469 C1465 0.950 . S
H1470 C1467 0.950 . S
C1471 C1462 1.390 . S
C1471 H1464 0.950 . S
C1471 C1468 1.387 . S
C1472 C1473 1.387 . S
C1472 H1476 0.950 . S
C1472 C1481 1.390 . S
C1473 C1472 1.387 . S
C1473 C1475 1.387 . S
H1474 C1481 0.950 . S
C1475 C1473 1.387 . S
C1475 C1477 1.390 . S
C1475 H1479 0.950 . S
H1476 C1472 0.950 . S
C1477 C1475 1.390 . S
C1477 C1478 1.387 . S
C1477 H1480 0.950 . S
C1478 C1477 1.387 . S
C1478 C1481 1.387 . S
H1479 C1475 0.950 . S
H1480 C1477 0.950 . S
C1481 C1472 1.390 . S
C1481 H1474 0.950 . S
C1481 C1478 1.387 . S
C1482 C1483 1.387 . S
C1482 H1486 0.950 . S
C1482 C1491 1.390 . S
C1483 C1482 1.387 . S
C1483 C1485 1.387 . S
H1484 C1491 0.950 . S
C1485 C1483 1.387 . S
C1485 C1487 1.390 . S
C1485 H1489 0.950 . S
H1486 C1482 0.950 . S
C1487 C1485 1.390 . S
C1487 C1488 1.387 . S
C1487 H1490 0.950 . S
C1488 C1487 1.387 . S
C1488 C1491 1.387 . S
H1489 C1485 0.950 . S
H1490 C1487 0.950 . S
C1491 C1482 1.390 . S
C1491 H1484 0.950 . S
C1491 C1488 1.387 . S
C1492 C1493 1.387 . S
C1492 H1496 0.950 . S
C1492 C1501 1.390 . S
C1493 C1492 1.387 . S
C1493 C1495 1.387 . S
H1494 C1501 0.950 . S
C1495 C1493 1.387 . S
C1495 C1497 1.390 . S
C1495 H1499 0.950 . S
H1496 C1492 0.950 . S
C1497 C1495 1.390 . S
C1497 C1498 1.387 . S
C1497 H1500 0.950 . S
C1498 C1497 1.387 . S
C1498 C1501 1.387 . S
H1499 C1495 0.950 . S
H1500 C1497 0.950 . S
C1501 C1492 1.390 . S
C1501 H1494 0.950 . S
C1501 C1498 1.387 . S
C1502 C1503 1.387 . S
C1502 H1506 0.950 . S
C1502 C1511 1.390 . S
C1503 C1502 1.387 . S
C1503 C1505 1.387 . S
H1504 C1511 0.950 . S
C1505 C1503 1.387 . S
C1505 C1507 1.390 . S
C1505 H1509 0.950 . S
H1506 C1502 0.950 . S
C1507 C1505 1.390 . S
C1507 C1508 1.387 . S
C1507 H1510 0.950 . S
C1508 C1507 1.387 . S
C1508 C1511 1.387 . S
H1509 C1505 0.950 . S
H1510 C1507 0.950 . S
C1511 C1502 1.390 . S
C1511 H1504 0.950 . S
C1511 C1508 1.387 . S
C1512 C1513 1.387 . S
C1512 H1516 0.950 . S
C1512 C1521 1.390 . S
C1513 C1512 1.387 . S
C1513 C1515 1.387 . S
H1514 C1521 0.950 . S
C1515 C1513 1.387 . S
C1515 C1517 1.390 . S
C1515 H1519 0.950 . S
H1516 C1512 0.950 . S
C1517 C1515 1.390 . S
C1517 C1518 1.387 . S
C1517 H1520 0.950 . S
C1518 C1517 1.387 . S
C1518 C1521 1.387 . S
H1519 C1515 0.950 . S
H1520 C1517 0.950 . S
C1521 C1512 1.390 . S
C1521 H1514 0.950 . S
C1521 C1518 1.387 . S
C1522 C1523 1.387 . S
C1522 H1526 0.950 . S
C1522 C1531 1.390 . S
C1523 C1522 1.387 . S
C1523 C1525 1.387 . S
H1524 C1531 0.950 . S
C1525 C1523 1.387 . S
C1525 C1527 1.390 . S
C1525 H1529 0.950 . S
H1526 C1522 0.950 . S
C1527 C1525 1.390 . S
C1527 C1528 1.387 . S
C1527 H1530 0.950 . S
C1528 C1527 1.387 . S
C1528 C1531 1.387 . S
H1529 C1525 0.950 . S
H1530 C1527 0.950 . S
C1531 C1522 1.390 . S
C1531 H1524 0.950 . S
C1531 C1528 1.387 . S
C1532 C1533 1.387 . S
C1532 H1536 0.950 . S
C1532 C1541 1.390 . S
C1533 C1532 1.387 . S
C1533 C1535 1.387 . S
H1534 C1541 0.950 . S
C1535 C1533 1.387 . S
C1535 C1537 1.390 . S
C1535 H1539 0.950 . S
H1536 C1532 0.950 . S
C1537 C1535 1.390 . S
C1537 C1538 1.387 . S
C1537 H1540 0.950 . S
C1538 C1537 1.387 . S
C1538 C1541 1.387 . S
H1539 C1535 0.950 . S
H1540 C1537 0.950 . S
C1541 C1532 1.390 . S
C1541 H1534 0.950 . S
C1541 C1538 1.387 . S
C1542 C1543 1.387 . S
C1542 H1546 0.950 . S
C1542 C1551 1.390 . S
C1543 C1542 1.387 . S
C1543 C1545 1.387 . S
H1544 C1551 0.950 . S
C1545 C1543 1.387 . S
C1545 C1547 1.390 . S
C1545 H1549 0.950 . S
H1546 C1542 0.950 . S
C1547 C1545 1.390 . S
C1547 C1548 1.387 . S
C1547 H1550 0.950 . S
C1548 C1547 1.387 . S
C1548 C1551 1.387 . S
H1549 C1545 0.950 . S
H1550 C1547 0.950 . S
C1551 C1542 1.390 . S
C1551 H1544 0.950 . S
C1551 C1548 1.387 . S
C1552 C1553 1.387 . S
C1552 H1556 0.950 . S
C1552 C1561 1.390 . S
C1553 C1552 1.387 . S
C1553 C1555 1.387 . S
H1554 C1561 0.950 . S
C1555 C1553 1.387 . S
C1555 C1557 1.390 . S
C1555 H1559 0.950 . S
H1556 C1552 0.950 . S
C1557 C1555 1.390 . S
C1557 C1558 1.387 . S
C1557 H1560 0.950 . S
C1558 C1557 1.387 . S
C1558 C1561 1.387 . S
H1559 C1555 0.950 . S
H1560 C1557 0.950 . S
C1561 C1552 1.390 . S
C1561 H1554 0.950 . S
C1561 C1558 1.387 . S
C1562 C1563 1.387 . S
C1562 H1566 0.950 . S
C1562 C1571 1.390 . S
C1563 C1562 1.387 . S
C1563 C1565 1.387 . S
H1564 C1571 0.950 . S
C1565 C1563 1.387 . S
C1565 C1567 1.390 . S
C1565 H1569 0.950 . S
H1566 C1562 0.950 . S
C1567 C1565 1.390 . S
C1567 C1568 1.387 . S
C1567 H1570 0.950 . S
C1568 C1567 1.387 . S
C1568 C1571 1.387 . S
H1569 C1565 0.950 . S
H1570 C1567 0.950 . S
C1571 C1562 1.390 . S
C1571 H1564 0.950 . S
C1571 C1568 1.387 . S
C1572 C1573 1.387 . S
C1572 H1576 0.950 . S
C1572 C1581 1.390 . S
C1573 C1572 1.387 . S
C1573 C1575 1.387 . S
H1574 C1581 0.950 . S
C1575 C1573 1.387 . S
C1575 C1577 1.390 . S
C1575 H1579 0.950 . S
H1576 C1572 0.950 . S
C1577 C1575 1.390 . S
C1577 C1578 1.387 . S
C1577 H1580 0.950 . S
C1578 C1577 1.387 . S
C1578 C1581 1.387 . S
H1579 C1575 0.950 . S
H1580 C1577 0.950 . S
C1581 C1572 1.390 . S
C1581 H1574 0.950 . S
C1581 C1578 1.387 . S
C1582 C1583 1.387 . S
C1582 H1586 0.950 . S
C1582 C1591 1.390 . S
C1583 C1582 1.387 . S
C1583 C1585 1.387 . S
H1584 C1591 0.950 . S
C1585 C1583 1.387 . S
C1585 C1587 1.390 . S
C1585 H1589 0.950 . S
H1586 C1582 0.950 . S
C1587 C1585 1.390 . S
C1587 C1588 1.387 . S
C1587 H1590 0.950 . S
C1588 C1587 1.387 . S
C1588 C1591 1.387 . S
H1589 C1585 0.950 . S
H1590 C1587 0.950 . S
C1591 C1582 1.390 . S
C1591 H1584 0.950 . S
C1591 C1588 1.387 . S
C1592 C1593 1.387 . S
C1592 H1596 0.950 . S
C1592 C1601 1.390 . S
C1593 C1592 1.387 . S
C1593 C1595 1.387 1_565 S
H1594 C1601 0.950 . S
C1595 C1593 1.387 1_545 S
C1595 C1597 1.390 . S
C1595 H1599 0.950 . S
H1596 C1592 0.950 . S
C1597 C1595 1.390 . S
C1597 C1598 1.387 1_545 S
C1597 H1600 0.950 . S
C1598 C1597 1.387 1_565 S
C1598 C1601 1.387 . S
H1599 C1595 0.950 . S
H1600 C1597 0.950 . S
C1601 C1592 1.390 . S
C1601 H1594 0.950 . S
C1601 C1598 1.387 . S
C1602 C1603 1.387 . S
C1602 H1606 0.950 . S
C1602 C1611 1.390 . S
C1603 C1602 1.387 . S
C1603 C1605 1.387 1_565 S
H1604 C1611 0.950 . S
C1605 C1603 1.387 1_545 S
C1605 C1607 1.390 . S
C1605 H1609 0.950 . S
H1606 C1602 0.950 . S
C1607 C1605 1.390 . S
C1607 C1608 1.387 1_545 S
C1607 H1610 0.950 . S
C1608 C1607 1.387 1_565 S
C1608 C1611 1.387 . S
H1609 C1605 0.950 . S
H1610 C1607 0.950 . S
C1611 C1602 1.390 . S
C1611 H1604 0.950 . S
C1611 C1608 1.387 . S
C1612 C1613 1.387 . S
C1612 H1616 0.950 . S
C1612 C1621 1.390 . S
C1613 C1612 1.387 . S
C1613 C1615 1.387 . S
H1614 C1621 0.950 . S
C1615 C1613 1.387 . S
C1615 C1617 1.390 . S
C1615 H1619 0.950 . S
H1616 C1612 0.950 . S
C1617 C1615 1.390 . S
C1617 C1618 1.387 . S
C1617 H1620 0.950 . S
C1618 C1617 1.387 . S
C1618 C1621 1.387 . S
H1619 C1615 0.950 . S
H1620 C1617 0.950 . S
C1621 C1612 1.390 . S
C1621 H1614 0.950 . S
C1621 C1618 1.387 . S
C1622 C1623 1.387 . S
C1622 H1626 0.950 . S
C1622 C1631 1.390 . S
C1623 C1622 1.387 . S
C1623 C1625 1.387 . S
H1624 C1631 0.950 . S
C1625 C1623 1.387 . S
C1625 C1627 1.390 . S
C1625 H1629 0.950 . S
H1626 C1622 0.950 . S
C1627 C1625 1.390 . S
C1627 C1628 1.387 . S
C1627 H1630 0.950 . S
C1628 C1627 1.387 . S
C1628 C1631 1.387 . S
H1629 C1625 0.950 . S
H1630 C1627 0.950 . S
C1631 C1622 1.390 . S
C1631 H1624 0.950 . S
C1631 C1628 1.387 . S
C1632 C1633 1.387 . S
C1632 H1636 0.950 . S
C1632 C1641 1.390 . S
C1633 C1632 1.387 . S
C1633 C1635 1.387 . S
H1634 C1641 0.950 . S
C1635 C1633 1.387 . S
C1635 C1637 1.390 . S
C1635 H1639 0.950 . S
H1636 C1632 0.950 . S
C1637 C1635 1.390 . S
C1637 C1638 1.387 . S
C1637 H1640 0.950 . S
C1638 C1637 1.387 . S
C1638 C1641 1.387 . S
H1639 C1635 0.950 . S
H1640 C1637 0.950 . S
C1641 C1632 1.390 . S
C1641 H1634 0.950 . S
C1641 C1638 1.387 . S
C1642 C1643 1.387 . S
C1642 H1646 0.950 . S
C1642 C1651 1.390 . S
C1643 C1642 1.387 . S
C1643 C1645 1.387 . S
H1644 C1651 0.950 . S
C1645 C1643 1.387 . S
C1645 C1647 1.390 . S
C1645 H1649 0.950 . S
H1646 C1642 0.950 . S
C1647 C1645 1.390 . S
C1647 C1648 1.387 . S
C1647 H1650 0.950 . S
C1648 C1647 1.387 . S
C1648 C1651 1.387 . S
H1649 C1645 0.950 . S
H1650 C1647 0.950 . S
C1651 C1642 1.390 . S
C1651 H1644 0.950 . S
C1651 C1648 1.387 . S
C1652 C1653 1.387 . S
C1652 H1656 0.950 . S
C1652 C1661 1.390 . S
C1653 C1652 1.387 . S
C1653 C1655 1.387 . S
H1654 C1661 0.950 . S
C1655 C1653 1.387 . S
C1655 C1657 1.390 . S
C1655 H1659 0.950 . S
H1656 C1652 0.950 . S
C1657 C1655 1.390 . S
C1657 C1658 1.387 . S
C1657 H1660 0.950 . S
C1658 C1657 1.387 . S
C1658 C1661 1.387 . S
H1659 C1655 0.950 . S
H1660 C1657 0.950 . S
C1661 C1652 1.390 . S
C1661 H1654 0.950 . S
C1661 C1658 1.387 . S
C1662 C1663 1.387 1_565 S
C1662 H1666 0.950 . S
C1662 C1671 1.390 . S
C1663 C1662 1.387 1_545 S
C1663 C1665 1.387 . S
H1664 C1671 0.950 . S
C1665 C1663 1.387 . S
C1665 C1667 1.390 . S
C1665 H1669 0.950 . S
H1666 C1662 0.950 . S
C1667 C1665 1.390 . S
C1667 C1668 1.387 . S
C1667 H1670 0.950 . S
C1668 C1667 1.387 . S
C1668 C1671 1.387 1_545 S
H1669 C1665 0.950 . S
H1670 C1667 0.950 . S
C1671 C1662 1.390 . S
C1671 H1664 0.950 . S
C1671 C1668 1.387 1_565 S
C1672 C1673 1.387 . S
C1672 H1676 0.950 . S
C1672 C1681 1.390 . S
C1673 C1672 1.387 . S
C1673 C1675 1.387 1_655 S
H1674 C1681 0.950 . S
C1675 C1673 1.387 1_455 S
C1675 C1677 1.390 . S
C1675 H1679 0.950 . S
H1676 C1672 0.950 . S
C1677 C1675 1.390 . S
C1677 C1678 1.387 1_455 S
C1677 H1680 0.950 . S
C1678 C1677 1.387 1_655 S
C1678 C1681 1.387 . S
H1679 C1675 0.950 . S
H1680 C1677 0.950 . S
C1681 C1672 1.390 . S
C1681 H1674 0.950 . S
C1681 C1678 1.387 . S
C1682 C1683 1.387 . S
C1682 H1686 0.950 . S
C1682 C1691 1.390 . S
C1683 C1682 1.387 . S
C1683 C1685 1.387 . S
H1684 C1691 0.950 . S
C1685 C1683 1.387 . S
C1685 C1687 1.390 . S
C1685 H1689 0.950 . S
H1686 C1682 0.950 . S
C1687 C1685 1.390 . S
C1687 C1688 1.387 . S
C1687 H1690 0.950 . S
C1688 C1687 1.387 . S
C1688 C1691 1.387 . S
H1689 C1685 0.950 . S
H1690 C1687 0.950 . S
C1691 C1682 1.390 . S
C1691 H1684 0.950 . S
C1691 C1688 1.387 . S
C1692 C1693 1.387 . S
C1692 H1696 0.950 . S
C1692 C1701 1.390 . S
C1693 C1692 1.387 . S
C1693 C1695 1.387 . S
H1694 C1701 0.950 . S
C1695 C1693 1.387 . S
C1695 C1697 1.390 . S
C1695 H1699 0.950 . S
H1696 C1692 0.950 . S
C1697 C1695 1.390 . S
C1697 C1698 1.387 . S
C1697 H1700 0.950 . S
C1698 C1697 1.387 . S
C1698 C1701 1.387 . S
H1699 C1695 0.950 . S
H1700 C1697 0.950 . S
C1701 C1692 1.390 . S
C1701 H1694 0.950 . S
C1701 C1698 1.387 . S
C1702 C1703 1.387 . S
C1702 H1706 0.950 . S
C1702 C1711 1.390 . S
C1703 C1702 1.387 . S
C1703 C1705 1.387 . S
H1704 C1711 0.950 . S
C1705 C1703 1.387 . S
C1705 C1707 1.390 . S
C1705 H1709 0.950 . S
H1706 C1702 0.950 . S
C1707 C1705 1.390 . S
C1707 C1708 1.387 . S
C1707 H1710 0.950 . S
C1708 C1707 1.387 . S
C1708 C1711 1.387 . S
H1709 C1705 0.950 . S
H1710 C1707 0.950 . S
C1711 C1702 1.390 . S
C1711 H1704 0.950 . S
C1711 C1708 1.387 . S
C1712 C1713 1.387 . S
C1712 H1716 0.950 . S
C1712 C1721 1.390 . S
C1713 C1712 1.387 . S
C1713 C1715 1.387 . S
H1714 C1721 0.950 . S
C1715 C1713 1.387 . S
C1715 C1717 1.390 . S
C1715 H1719 0.950 . S
H1716 C1712 0.950 . S
C1717 C1715 1.390 . S
C1717 C1718 1.387 . S
C1717 H1720 0.950 . S
C1718 C1717 1.387 . S
C1718 C1721 1.387 . S
H1719 C1715 0.950 . S
H1720 C1717 0.950 . S
C1721 C1712 1.390 . S
C1721 H1714 0.950 . S
C1721 C1718 1.387 . S
C1722 C1723 1.387 . S
C1722 H1726 0.950 . S
C1722 C1731 1.390 . S
C1723 C1722 1.387 . S
C1723 C1725 1.387 . S
H1724 C1731 0.950 . S
C1725 C1723 1.387 . S
C1725 C1727 1.390 . S
C1725 H1729 0.950 . S
H1726 C1722 0.950 . S
C1727 C1725 1.390 . S
C1727 C1728 1.387 . S
C1727 H1730 0.950 . S
C1728 C1727 1.387 . S
C1728 C1731 1.387 . S
H1729 C1725 0.950 . S
H1730 C1727 0.950 . S
C1731 C1722 1.390 . S
C1731 H1724 0.950 . S
C1731 C1728 1.387 . S
C1732 C1733 1.387 . S
C1732 H1736 0.950 . S
C1732 C1741 1.390 . S
C1733 C1732 1.387 . S
C1733 C1735 1.387 . S
H1734 C1741 0.950 . S
C1735 C1733 1.387 . S
C1735 C1737 1.390 . S
C1735 H1739 0.950 . S
H1736 C1732 0.950 . S
C1737 C1735 1.390 . S
C1737 C1738 1.387 . S
C1737 H1740 0.950 . S
C1738 C1737 1.387 . S
C1738 C1741 1.387 . S
H1739 C1735 0.950 . S
H1740 C1737 0.950 . S
C1741 C1732 1.390 . S
C1741 H1734 0.950 . S
C1741 C1738 1.387 . S
C1742 C1743 1.387 . S
C1742 H1746 0.950 . S
C1742 C1751 1.390 . S
C1743 C1742 1.387 . S
C1743 C1745 1.387 . S
H1744 C1751 0.950 . S
C1745 C1743 1.387 . S
C1745 C1747 1.390 . S
C1745 H1749 0.950 . S
H1746 C1742 0.950 . S
C1747 C1745 1.390 . S
C1747 C1748 1.387 . S
C1747 H1750 0.950 . S
C1748 C1747 1.387 . S
C1748 C1751 1.387 . S
H1749 C1745 0.950 . S
H1750 C1747 0.950 . S
C1751 C1742 1.390 . S
C1751 H1744 0.950 . S
C1751 C1748 1.387 . S
C1752 C1753 1.387 . S
C1752 H1756 0.950 . S
C1752 C1761 1.390 . S
C1753 C1752 1.387 . S
C1753 C1755 1.387 . S
H1754 C1761 0.950 . S
C1755 C1753 1.387 . S
C1755 C1757 1.390 . S
C1755 H1759 0.950 . S
H1756 C1752 0.950 . S
C1757 C1755 1.390 . S
C1757 C1758 1.387 . S
C1757 H1760 0.950 . S
C1758 C1757 1.387 . S
C1758 C1761 1.387 . S
H1759 C1755 0.950 . S
H1760 C1757 0.950 . S
C1761 C1752 1.390 . S
C1761 H1754 0.950 . S
C1761 C1758 1.387 . S
C1762 C1763 1.387 . S
C1762 H1766 0.950 . S
C1762 C1771 1.390 . S
C1763 C1762 1.387 . S
C1763 C1765 1.387 . S
H1764 C1771 0.950 . S
C1765 C1763 1.387 . S
C1765 C1767 1.390 . S
C1765 H1769 0.950 . S
H1766 C1762 0.950 . S
C1767 C1765 1.390 . S
C1767 C1768 1.387 . S
C1767 H1770 0.950 . S
C1768 C1767 1.387 . S
C1768 C1771 1.387 . S
H1769 C1765 0.950 . S
H1770 C1767 0.950 . S
C1771 C1762 1.390 . S
C1771 H1764 0.950 . S
C1771 C1768 1.387 . S
C1772 C1773 1.387 1_565 S
C1772 H1776 0.950 . S
C1772 C1781 1.390 . S
C1773 C1772 1.387 1_545 S
C1773 C1775 1.387 . S
H1774 C1781 0.950 . S
C1775 C1773 1.387 . S
C1775 C1777 1.390 . S
C1775 H1779 0.950 . S
H1776 C1772 0.950 . S
C1777 C1775 1.390 . S
C1777 C1778 1.387 . S
C1777 H1780 0.950 . S
C1778 C1777 1.387 . S
C1778 C1781 1.387 1_545 S
H1779 C1775 0.950 . S
H1780 C1777 0.950 . S
C1781 C1772 1.390 . S
C1781 H1774 0.950 . S
C1781 C1778 1.387 1_565 S
C1063 C10 1.567 . S
C1068 C670 1.556 . S
C1073 C23 1.621 . S
C1078 C716 1.600 . S
C1088 C748 1.565 . S
C1083 C29 1.569 . S
C1093 C30 1.567 1_565 S
C1098 C801 1.555 . S
C1103 C5 1.572 . S
C1108 C847 1.569 . S
C1113 C18 1.627 . S
C1118 C886 1.615 . S
C1123 C49 1.562 . S
C1128 C840 1.551 . S
C1138 C893 1.609 . S
C1133 C62 1.621 . S
C1148 C794 1.566 . S
C1143 C70 1.561 . S
C1153 C75 1.561 . S
C1158 C755 1.552 . S
C1168 C649 1.570 . S
C1163 C44 1.566 . S
C1173 C57 1.626 . S
C1178 C695 1.605 . S
C1183 C88 1.657 . S
C1188 C925 1.643 . S
C1193 C101 1.661 . S
C1198 C992 1.635 . S
C1208 C1038 1.621 . S
C1203 C107 1.645 . S
C1213 C108 1.623 . S
C1218 C249 1.600 . S
C1223 C83 1.645 . S
C1228 C295 1.622 . S
C1233 C96 1.647 . S
C1238 C341 1.620 . S
C1243 C127 1.625 . S
C1248 C288 1.601 . S
C1253 C140 1.643 . S
C1258 C334 1.617 . S
C1268 C242 1.615 . S
C1263 C146 1.639 . S
C1278 C1017 1.634 . S
C1273 C147 1.657 . S
C1288 C946 1.638 . S
C1283 C122 1.651 . S
C1298 C971 1.641 . S
C1293 C135 1.666 . S
C1303 C160 1.626 . S
C1308 C373 1.612 . S
C1313 C173 1.641 . S
C1318 C426 1.625 . S
C1323 C185 1.639 . S
C1328 C472 1.625 . S
C1333 C186 1.656 . S
C1338 C518 1.642 . S
C1348 C571 1.629 . S
C1343 C159 1.652 . S
C1358 C617 1.641 . S
C1353 C172 1.667 . S
C1368 C564 1.634 . S
C1363 C205 1.659 . S
C1378 C610 1.636 . S
C1373 C218 1.661 . S
C1383 C224 1.644 . S
C1388 C525 1.630 . S
C1398 C479 1.608 . S
C1393 C225 1.622 . S
C1403 C200 1.646 . S
C1408 C394 1.632 . S
C1418 C433 1.632 . S
C1413 C213 1.648 . S
C1428 C256 1.538 . S
C1423 C4 1.549 . S
C1433 C17 1.520 . S
C1438 C302 1.506 . S
C1448 C348 1.539 . S
C1443 C31 1.550 . S
C1458 C380 1.529 . S
C1453 C36 1.548 . S
C1468 C419 1.534 . S
C1463 C3 1.555 . S
C1478 C465 1.502 . S
C1473 C16 1.523 . S
C1483 C43 1.552 . S
C1488 C486 1.537 . S
C1493 C56 1.519 . S
C1498 C387 1.498 . S
C1503 C68 1.547 . S
C1508 C440 1.525 . S
C1513 C69 1.552 . S
C1518 C281 1.546 . S
C1528 C327 1.541 . S
C1523 C42 1.551 . S
C1533 C55 1.523 . S
C1538 C235 1.511 . S
C1548 C511 1.522 . S
C1543 C82 1.544 . S
C1553 C95 1.565 . S
C1558 C578 1.552 . S
C1563 C109 1.576 . S
C1568 C624 1.563 . S
C1578 C663 1.483 . S
C1573 C114 1.481 . S
C1583 C81 1.550 . S
C1588 C709 1.539 . S
C1593 C94 1.488 . S
C1598 C741 1.485 . S
C1603 C121 1.485 . S
C1608 C762 1.479 . S
C1613 C134 1.482 . S
C1618 C656 1.482 . S
C1628 C702 1.536 . S
C1623 C148 1.547 . S
C1633 C153 1.547 . S
C1638 C557 1.533 . S
C1643 C120 1.578 . S
C1648 C603 1.564 . S
C1658 C532 1.548 . S
C1653 C133 1.569 . S
C1668 C808 1.485 . S
C1663 C166 1.484 . S
C1673 C179 1.479 . S
C1678 C854 1.480 . S
C1683 C187 1.545 . S
C1688 C879 1.525 . S
C1698 C932 1.521 . S
C1693 C192 1.544 . S
C1708 C985 1.565 . S
C1703 C161 1.579 . S
C1713 C174 1.570 . S
C1718 C1031 1.557 . S
C1723 C199 1.546 . S
C1728 C1024 1.533 . S
C1733 C212 1.564 . S
C1738 C939 1.544 . S
C1748 C978 1.561 . S
C1743 C226 1.574 . S
C1758 C833 1.480 . S
C1753 C231 1.480 . S
C1768 C900 1.532 . S
C1763 C198 1.551 . S
C1773 C211 1.489 . S
C1778 C787 1.487 . S
