# Generated by pormake.
# Topology pyr, (3,6)-cn, num edge types: 1
# Building blocks:
#     Node 0, Type 0, BuildingBlock: KAKCAD_clean_linker_0, # of connection points: 3
#     Node 1, Type 0, BuildingBlock: KAKCAD_clean_linker_0, # of connection points: 3
#     Node 2, Type 0, BuildingBlock: KAKCAD_clean_linker_0, # of connection points: 3
#     Node 3, Type 0, BuildingBlock: KAKCAD_clean_linker_0, # of connection points: 3
#     Node 4, Type 0, BuildingBlock: KAKCAD_clean_linker_0, # of connection points: 3
#     Node 5, Type 0, BuildingBlock: KAKCAD_clean_linker_0, # of connection points: 3
#     Node 6, Type 0, BuildingBlock: KAKCAD_clean_linker_0, # of connection points: 3
#     Node 7, Type 0, BuildingBlock: KAKCAD_clean_linker_0, # of connection points: 3
#     Node 8, Type 1, BuildingBlock: BETDEL_clean_sbu_0, # of connection points: 6
#     Node 9, Type 1, BuildingBlock: BETDEL_clean_sbu_0, # of connection points: 6
#     Node 10, Type 1, BuildingBlock: BETDEL_clean_sbu_0, # of connection points: 6
#     Node 11, Type 1, BuildingBlock: BETDEL_clean_sbu_0, # of connection points: 6
#     Edge 12, Type (0, 1), BuildingBlock: XIVTED_clean_linker_0, # of connection points: 2
#     Edge 13, Type (0, 1), BuildingBlock: XIVTED_clean_linker_0, # of connection points: 2
#     Edge 14, Type (0, 1), BuildingBlock: XIVTED_clean_linker_0, # of connection points: 2
#     Edge 15, Type (0, 1), BuildingBlock: XIVTED_clean_linker_0, # of connection points: 2
#     Edge 16, Type (0, 1), BuildingBlock: XIVTED_clean_linker_0, # of connection points: 2
#     Edge 17, Type (0, 1), BuildingBlock: XIVTED_clean_linker_0, # of connection points: 2
#     Edge 18, Type (0, 1), BuildingBlock: XIVTED_clean_linker_0, # of connection points: 2
#     Edge 19, Type (0, 1), BuildingBlock: XIVTED_clean_linker_0, # of connection points: 2
#     Edge 20, Type (0, 1), BuildingBlock: XIVTED_clean_linker_0, # of connection points: 2
#     Edge 21, Type (0, 1), BuildingBlock: XIVTED_clean_linker_0, # of connection points: 2
#     Edge 22, Type (0, 1), BuildingBlock: XIVTED_clean_linker_0, # of connection points: 2
#     Edge 23, Type (0, 1), BuildingBlock: XIVTED_clean_linker_0, # of connection points: 2
#     Edge 24, Type (0, 1), BuildingBlock: XIVTED_clean_linker_0, # of connection points: 2
#     Edge 25, Type (0, 1), BuildingBlock: XIVTED_clean_linker_0, # of connection points: 2
#     Edge 26, Type (0, 1), BuildingBlock: XIVTED_clean_linker_0, # of connection points: 2
#     Edge 27, Type (0, 1), BuildingBlock: XIVTED_clean_linker_0, # of connection points: 2
#     Edge 28, Type (0, 1), BuildingBlock: XIVTED_clean_linker_0, # of connection points: 2
#     Edge 29, Type (0, 1), BuildingBlock: XIVTED_clean_linker_0, # of connection points: 2
#     Edge 30, Type (0, 1), BuildingBlock: XIVTED_clean_linker_0, # of connection points: 2
#     Edge 31, Type (0, 1), BuildingBlock: XIVTED_clean_linker_0, # of connection points: 2
#     Edge 32, Type (0, 1), BuildingBlock: XIVTED_clean_linker_0, # of connection points: 2
#     Edge 33, Type (0, 1), BuildingBlock: XIVTED_clean_linker_0, # of connection points: 2
#     Edge 34, Type (0, 1), BuildingBlock: XIVTED_clean_linker_0, # of connection points: 2
#     Edge 35, Type (0, 1), BuildingBlock: XIVTED_clean_linker_0, # of connection points: 2
# Relax obj value: 0.027
# Max RMSD: 0.089
# Mean RMSD: 0.037
data_MOF--net-pyr--node1-BETDEL_clean_sbu_0--node2-KAKCAD_clean_linker_0--edge1-XIVTED_clean_linker_0
_symmetry_space_group_name_H-M    P1
_symmetry_Int_Tables_number       1
_symmetry_cell_setting            triclinic
loop_
_symmetry_equiv_pos_as_xyz
'x, y, z'
_cell_length_a     45.501759
_cell_length_b     47.230127
_cell_length_c     43.525086
_cell_angle_alpha  91.910079
_cell_angle_beta   89.171765
_cell_angle_gamma 94.968261
loop_
_atom_site_label
_atom_site_type_symbol
_atom_site_fract_x
_atom_site_fract_y
_atom_site_fract_z
_atom_type_partial_charge
C0 C 0.12799 0.1589 0.22759 0.0
C1 C 0.13965 0.15018 0.25504 0.0
C2 C 0.1464 0.17306 0.20603 0.0
C3 C 0.17671 0.17903 0.21177 0.0
C4 C 0.18799 0.17124 0.23987 0.0
C5 C 0.16968 0.15682 0.26118 0.0
C6 C 0.19679 0.19245 0.18823 0.0
C7 C 0.1877 0.21402 0.17018 0.0
C8 C 0.20644 0.22623 0.14744 0.0
C9 C 0.23491 0.21738 0.14345 0.0
C10 C 0.24432 0.19551 0.16105 0.0
C11 C 0.22495 0.18307 0.18319 0.0
C12 C 0.27348 0.18429 0.15514 0.0
C13 C 0.28476 0.18203 0.12497 0.0
C14 C 0.28938 0.17403 0.17934 0.0
C15 C 0.31497 0.16041 0.17329 0.0
C16 C 0.32555 0.15751 0.14307 0.0
C17 C 0.19576 0.24771 0.1274 0.0
C18 C 0.16755 0.2432 0.11454 0.0
C19 C 0.21319 0.27301 0.12159 0.0
C20 C 0.20204 0.29398 0.10433 0.0
C21 C 0.17336 0.28989 0.09245 0.0
C22 C 0.15647 0.26405 0.09721 0.0
C23 C 0.31069 0.169 0.11906 0.0
H24 H 0.1049 0.15381 0.22232 0.0
H25 H 0.13706 0.17849 0.18448 0.0
H26 H 0.21107 0.1761 0.24533 0.0
H27 H 0.17906 0.15064 0.28244 0.0
H28 H 0.16609 0.22159 0.174 0.0
H29 H 0.23135 0.16526 0.19583 0.0
H30 H 0.24945 0.22715 0.12614 0.0
H31 H 0.27296 0.18918 0.10566 0.0
H32 H 0.28177 0.17598 0.20294 0.0
H33 H 0.32628 0.15177 0.19213 0.0
H34 H 0.15385 0.22366 0.11828 0.0
H35 H 0.23502 0.27698 0.13125 0.0
H36 H 0.31836 0.16664 0.0955 0.0
H37 H 0.13418 0.2604 0.08866 0.0
H38 H 0.2156 0.31363 0.1008 0.0
C39 C 0.28519 0.86317 0.78849 0.0
C40 C 0.31545 0.86399 0.79478 0.0
C41 C 0.27392 0.84963 0.76153 0.0
C42 C 0.29279 0.83697 0.74024 0.0
C43 C 0.32315 0.83845 0.74641 0.0
C44 C 0.33429 0.85161 0.77343 0.0
C45 C 0.28114 0.82219 0.71166 0.0
C46 C 0.25904 0.83331 0.69471 0.0
C47 C 0.24884 0.81992 0.66699 0.0
C48 C 0.26176 0.79541 0.65597 0.0
C49 C 0.28446 0.78447 0.67228 0.0
C50 C 0.2932 0.79747 0.70051 0.0
C51 C 0.30057 0.76066 0.65926 0.0
C52 C 0.28572 0.73696 0.64412 0.0
C53 C 0.3314 0.76176 0.66193 0.0
C54 C 0.347 0.73964 0.65019 0.0
C55 C 0.33229 0.7159 0.63504 0.0
C56 C 0.22568 0.83241 0.64909 0.0
C57 C 0.20298 0.84594 0.66428 0.0
C58 C 0.22654 0.83174 0.61675 0.0
C59 C 0.20552 0.84455 0.60013 0.0
C60 C 0.18339 0.85891 0.61535 0.0
C61 C 0.18235 0.85925 0.64769 0.0
C62 C 0.30143 0.71476 0.63215 0.0
H63 H 0.27022 0.87254 0.80466 0.0
H64 H 0.2504 0.84869 0.7576 0.0
H65 H 0.33847 0.82967 0.73019 0.0
H66 H 0.35781 0.8525 0.7774 0.0
H67 H 0.25058 0.85306 0.70259 0.0
H68 H 0.30977 0.78834 0.71381 0.0
H69 H 0.25464 0.78515 0.63441 0.0
H70 H 0.26197 0.73541 0.6418 0.0
H71 H 0.34365 0.77991 0.67296 0.0
H72 H 0.37066 0.74109 0.6533 0.0
H73 H 0.20117 0.84648 0.68912 0.0
H74 H 0.24382 0.82188 0.60412 0.0
H75 H 0.28945 0.69689 0.62037 0.0
H76 H 0.166 0.87035 0.66041 0.0
H77 H 0.20681 0.84324 0.57528 0.0
C78 C 0.74239 0.39913 0.88069 0.0
C79 C 0.76636 0.38313 0.88637 0.0
C80 C 0.71631 0.3862 0.86798 0.0
C81 C 0.71332 0.35686 0.86095 0.0
C82 C 0.73701 0.34072 0.86696 0.0
C83 C 0.76325 0.35369 0.87935 0.0
C84 C 0.68566 0.34319 0.84713 0.0
C85 C 0.67255 0.35571 0.82252 0.0
C86 C 0.64658 0.34292 0.80902 0.0
C87 C 0.63373 0.31715 0.82059 0.0
C88 C 0.64626 0.30435 0.84556 0.0
C89 C 0.67232 0.31765 0.85854 0.0
C90 C 0.63197 0.27748 0.85851 0.0
C91 C 0.60105 0.27239 0.86003 0.0
C92 C 0.64912 0.2569 0.87009 0.0
C93 C 0.6358 0.23228 0.88327 0.0
C94 C 0.60487 0.22724 0.88493 0.0
C95 C 0.63304 0.35658 0.78284 0.0
C96 C 0.63158 0.38622 0.783 0.0
C97 C 0.62184 0.34023 0.75733 0.0
C98 C 0.60976 0.35323 0.73253 0.0
C99 C 0.60846 0.38291 0.73262 0.0
C100 C 0.61944 0.3992 0.75826 0.0
C101 C 0.58772 0.24759 0.87285 0.0
H102 H 0.74357 0.42169 0.88636 0.0
H103 H 0.69829 0.39914 0.86402 0.0
H104 H 0.73547 0.3181 0.86147 0.0
H105 H 0.78127 0.34067 0.88286 0.0
H106 H 0.68309 0.37514 0.81333 0.0
H107 H 0.6819 0.30861 0.87822 0.0
H108 H 0.61382 0.30714 0.81018 0.0
H109 H 0.58698 0.28778 0.85177 0.0
H110 H 0.67297 0.25971 0.86896 0.0
H111 H 0.64989 0.21744 0.89259 0.0
H112 H 0.63969 0.39946 0.80239 0.0
H113 H 0.62282 0.31739 0.75629 0.0
H114 H 0.56387 0.2444 0.87312 0.0
H115 H 0.61911 0.42211 0.75905 0.0
H116 H 0.60124 0.33996 0.71335 0.0
C117 C 0.85068 0.61461 0.2238 0.0
C118 C 0.87958 0.60643 0.2248 0.0
C119 C 0.8384 0.62825 0.24933 0.0
C120 C 0.85511 0.63453 0.27596 0.0
C121 C 0.88411 0.62661 0.27684 0.0
C122 C 0.89613 0.61236 0.2516 0.0
C123 C 0.84241 0.64969 0.30261 0.0
C124 C 0.81643 0.63825 0.31698 0.0
C125 C 0.80399 0.65262 0.34222 0.0
C126 C 0.81774 0.67914 0.35227 0.0
C127 C 0.84397 0.69065 0.33833 0.0
C128 C 0.8563 0.67562 0.31367 0.0
C129 C 0.85867 0.71823 0.34975 0.0
C130 C 0.84229 0.74177 0.35564 0.0
C131 C 0.88917 0.7211 0.35515 0.0
C132 C 0.90293 0.74683 0.36665 0.0
C133 C 0.88655 0.77035 0.37265 0.0
C134 C 0.77722 0.63966 0.35853 0.0
C135 C 0.75493 0.62312 0.34237 0.0
C136 C 0.77395 0.64334 0.39059 0.0
C137 C 0.74908 0.63106 0.40597 0.0
C138 C 0.72693 0.61426 0.38988 0.0
C139 C 0.73029 0.61043 0.35783 0.0
C140 C 0.85612 0.76761 0.36679 0.0
H141 H 0.83749 0.61014 0.2034 0.0
H142 H 0.81603 0.63429 0.24814 0.0
H143 H 0.89735 0.63122 0.29718 0.0
H144 H 0.91851 0.60633 0.25282 0.0
H145 H 0.80653 0.61769 0.30896 0.0
H146 H 0.87632 0.68445 0.3025 0.0
H147 H 0.80824 0.69083 0.37123 0.0
H148 H 0.81878 0.74023 0.35146 0.0
H149 H 0.90232 0.70327 0.351 0.0
H150 H 0.92645 0.74836 0.37073 0.0
H151 H 0.75633 0.62004 0.31765 0.0
H152 H 0.79078 0.65546 0.40404 0.0
H153 H 0.84288 0.7853 0.37142 0.0
H154 H 0.71405 0.59734 0.34456 0.0
H155 H 0.74723 0.63501 0.43053 0.0
C156 C 0.85606 0.81031 0.73479 0.0
C157 C 0.86387 0.83977 0.73652 0.0
C158 C 0.83534 0.79786 0.7554 0.0
C159 C 0.8218 0.81478 0.77763 0.0
C160 C 0.8298 0.84417 0.77944 0.0
C161 C 0.85072 0.85652 0.75917 0.0
C162 C 0.80009 0.802 0.7998 0.0
C163 C 0.80708 0.77923 0.81721 0.0
C164 C 0.78863 0.76965 0.84156 0.0
C165 C 0.76275 0.78304 0.84818 0.0
C166 C 0.75534 0.80582 0.83062 0.0
C167 C 0.77385 0.81462 0.806 0.0
C168 C 0.73032 0.82256 0.83987 0.0
C169 C 0.70366 0.80936 0.85127 0.0
C170 C 0.73362 0.85236 0.83851 0.0
C171 C 0.71112 0.8686 0.84868 0.0
C172 C 0.6849 0.85558 0.86109 0.0
C173 C 0.79873 0.74802 0.86193 0.0
C174 C 0.81255 0.72483 0.84916 0.0
C175 C 0.79831 0.75241 0.89407 0.0
C176 C 0.81341 0.7352 0.91282 0.0
C177 C 0.82926 0.71361 0.89961 0.0
C178 C 0.82785 0.70791 0.86781 0.0
C179 C 0.68113 0.82574 0.8618 0.0
H180 H 0.86596 0.79697 0.71751 0.0
H181 H 0.82958 0.77512 0.75372 0.0
H182 H 0.82 0.85759 0.79672 0.0
H183 H 0.85606 0.87933 0.76072 0.0
H184 H 0.82799 0.77029 0.8131 0.0
H185 H 0.76839 0.83201 0.79211 0.0
H186 H 0.74912 0.77649 0.86773 0.0
H187 H 0.70032 0.78643 0.85234 0.0
H188 H 0.75398 0.86338 0.83043 0.0
H189 H 0.71454 0.89151 0.8473 0.0
H190 H 0.81278 0.72065 0.82453 0.0
H191 H 0.78805 0.77025 0.90456 0.0
H192 H 0.6612 0.8151 0.87138 0.0
H193 H 0.83961 0.69105 0.85725 0.0
H194 H 0.81429 0.73991 0.93734 0.0
C195 C 0.70483 0.1373 0.24287 0.0
C196 C 0.70094 0.15363 0.21704 0.0
C197 C 0.7158 0.15016 0.27016 0.0
C198 C 0.72299 0.17966 0.27232 0.0
C199 C 0.71957 0.196 0.24644 0.0
C200 C 0.70874 0.1831 0.21903 0.0
C201 C 0.73306 0.19332 0.3019 0.0
C202 C 0.75388 0.18108 0.31943 0.0
C203 C 0.7621 0.19259 0.34852 0.0
C204 C 0.74975 0.21729 0.3597 0.0
C205 C 0.72889 0.23001 0.34226 0.0
C206 C 0.72072 0.21774 0.31341 0.0
C207 C 0.71421 0.25511 0.35446 0.0
C208 C 0.70548 0.25718 0.38555 0.0
C209 C 0.70704 0.27629 0.33455 0.0
C210 C 0.69039 0.2982 0.34506 0.0
C211 C 0.68093 0.29974 0.37585 0.0
C212 C 0.78305 0.17805 0.36713 0.0
C213 C 0.78071 0.14819 0.36777 0.0
C214 C 0.80607 0.19351 0.38325 0.0
C215 C 0.8269 0.17929 0.39874 0.0
C216 C 0.82512 0.1494 0.39824 0.0
C217 C 0.80154 0.13406 0.38301 0.0
C218 C 0.68914 0.27938 0.39616 0.0
H219 H 0.69849 0.11465 0.24241 0.0
H220 H 0.71778 0.13709 0.28989 0.0
H221 H 0.72526 0.21877 0.24741 0.0
H222 H 0.7064 0.19624 0.19944 0.0
H223 H 0.76379 0.16247 0.31025 0.0
H224 H 0.70371 0.22645 0.30035 0.0
H225 H 0.75603 0.22631 0.3821 0.0
H226 H 0.71025 0.24109 0.40146 0.0
H227 H 0.71395 0.27575 0.31064 0.0
H228 H 0.68477 0.31392 0.32906 0.0
H229 H 0.7628 0.13565 0.35627 0.0
H230 H 0.80853 0.21651 0.38307 0.0
H231 H 0.68196 0.28 0.41999 0.0
H232 H 0.79919 0.11103 0.38286 0.0
H233 H 0.8449 0.19164 0.41029 0.0
C234 C 0.24499 0.638 0.14439 0.0
C235 C 0.24378 0.63304 0.11238 0.0
C236 C 0.27108 0.64958 0.15827 0.0
C237 C 0.29644 0.65685 0.1404 0.0
C238 C 0.29518 0.65208 0.10837 0.0
C239 C 0.26921 0.64011 0.09454 0.0
C240 C 0.32403 0.66951 0.15517 0.0
C241 C 0.33479 0.65746 0.18143 0.0
C242 C 0.36075 0.66934 0.19577 0.0
C243 C 0.3756 0.69407 0.18378 0.0
C244 C 0.36517 0.70638 0.15748 0.0
C245 C 0.33958 0.69377 0.14316 0.0
C246 C 0.38068 0.73266 0.14508 0.0
C247 C 0.38737 0.75676 0.16435 0.0
C248 C 0.38824 0.73404 0.1137 0.0
C249 C 0.4023 0.75896 0.10185 0.0
C250 C 0.40856 0.78323 0.12101 0.0
C251 C 0.37259 0.65548 0.22277 0.0
C252 C 0.35353 0.64433 0.24597 0.0
C253 C 0.40297 0.65252 0.22512 0.0
C254 C 0.41393 0.63842 0.24976 0.0
C255 C 0.39482 0.62701 0.2728 0.0
C256 C 0.36449 0.63034 0.27066 0.0
C257 C 0.40091 0.78188 0.15237 0.0
H258 H 0.22584 0.63256 0.15878 0.0
H259 H 0.27133 0.65319 0.18298 0.0
H260 H 0.31441 0.65733 0.09403 0.0
H261 H 0.2689 0.6367 0.06981 0.0
H262 H 0.32332 0.63825 0.19015 0.0
H263 H 0.33122 0.70341 0.12316 0.0
H264 H 0.39536 0.70373 0.19481 0.0
H265 H 0.38162 0.75634 0.18857 0.0
H266 H 0.38341 0.71574 0.09836 0.0
H267 H 0.40782 0.75943 0.07757 0.0
H268 H 0.33005 0.64646 0.24507 0.0
H269 H 0.41827 0.66059 0.20755 0.0
H270 H 0.40564 0.8002 0.1677 0.0
H271 H 0.34907 0.62164 0.2878 0.0
H272 H 0.43745 0.63657 0.25082 0.0
C273 C 0.15181 0.23767 0.63306 0.0
C274 C 0.12116 0.23086 0.63205 0.0
C275 C 0.16346 0.26416 0.64475 0.0
C276 C 0.14473 0.28467 0.65544 0.0
C277 C 0.11404 0.27758 0.65499 0.0
C278 C 0.1024 0.25094 0.64356 0.0
C279 C 0.15711 0.31368 0.66582 0.0
C280 C 0.18166 0.32714 0.65052 0.0
C281 C 0.19285 0.3548 0.65922 0.0
C282 C 0.17916 0.36933 0.68334 0.0
C283 C 0.15501 0.35615 0.69961 0.0
C284 C 0.14421 0.32825 0.69061 0.0
C285 C 0.14133 0.37141 0.7261 0.0
C286 C 0.1588 0.38989 0.74589 0.0
C287 C 0.1107 0.36775 0.73184 0.0
C288 C 0.09798 0.38216 0.75659 0.0
C289 C 0.11547 0.40089 0.77593 0.0
C290 C 0.21927 0.36826 0.64337 0.0
C291 C 0.24525 0.35424 0.64122 0.0
C292 C 0.2188 0.39509 0.63047 0.0
C293 C 0.24383 0.40755 0.61539 0.0
C294 C 0.26993 0.39366 0.6136 0.0
C295 C 0.27042 0.36695 0.62674 0.0
C296 C 0.146 0.40461 0.77031 0.0
H297 H 0.16684 0.22246 0.62481 0.0
H298 H 0.1872 0.26855 0.64534 0.0
H299 H 0.09889 0.2929 0.6626 0.0
H300 H 0.07867 0.24643 0.64282 0.0
H301 H 0.19175 0.31644 0.63119 0.0
H302 H 0.12615 0.31756 0.70336 0.0
H303 H 0.18763 0.39088 0.68953 0.0
H304 H 0.18251 0.39282 0.74278 0.0
H305 H 0.09639 0.35414 0.7169 0.0
H306 H 0.07432 0.37912 0.7602 0.0
H307 H 0.24618 0.33359 0.65111 0.0
H308 H 0.19898 0.40625 0.63176 0.0
H309 H 0.16007 0.41865 0.7851 0.0
H310 H 0.29022 0.35574 0.6255 0.0
H311 H 0.24296 0.42821 0.60552 0.0
Dy312 Dy 0.01794 0.00993 0.47064 0.0
C313 C 0.96677 0.95957 0.57806 0.0
C314 C 0.03506 0.037 0.41828 0.0
Dy315 Dy 0.99038 0.99063 0.53087 0.0
O316 O 0.0435 0.01287 0.42642 0.0
O317 O 0.01712 0.0466 0.43882 0.0
O318 O 0.04874 0.97537 0.4701 0.0
O319 O 0.03509 0.99286 0.51231 0.0
C320 C 0.04884 0.97345 0.49974 0.0
C321 C 0.96097 0.0281 0.50177 0.0
O322 O 0.01812 0.0282 0.55007 0.0
O323 O 0.03229 0.0469 0.50272 0.0
O324 O 0.95292 0.96538 0.55358 0.0
O325 O 0.99366 0.97134 0.57735 0.0
O326 O 0.96196 0.02708 0.5315 0.0
O327 O 0.97339 0.00775 0.48931 0.0
O328 O 0.98591 0.97451 0.45374 0.0
O329 O 0.98587 0.95164 0.49964 0.0
C330 C 0.03111 0.04875 0.53327 0.0
C331 C 0.9803 0.95138 0.46987 0.0
Dy332 Dy 0.53379 0.01637 0.02656 0.0
C333 C 0.43535 0.96749 0.95801 0.0
C334 C 0.57841 0.04682 0.05737 0.0
Dy335 Dy 0.48019 0.9975 0.98901 0.0
O336 O 0.57369 0.01932 0.05678 0.0
O337 O 0.5588 0.05768 0.0411 0.0
O338 O 0.53507 0.97194 0.04324 0.0
O339 O 0.49428 0.98736 0.03456 0.0
C340 C 0.50679 0.96574 0.04157 0.0
C341 C 0.50719 0.04821 0.97414 0.0
O342 O 0.4578 0.01587 0.03004 0.0
O343 O 0.49952 0.04246 0.04808 0.0
O344 O 0.44104 0.99487 0.95775 0.0
O345 O 0.4541 0.95648 0.97528 0.0
O346 O 0.47889 0.04203 0.9726 0.0
O347 O 0.51963 0.02651 0.98101 0.0
O348 O 0.5562 0.99876 0.98551 0.0
O349 O 0.51495 0.97179 0.96701 0.0
C350 C 0.47056 0.03651 0.04785 0.0
C351 C 0.54393 0.97807 0.96749 0.0
Dy352 Dy 0.50892 0.47882 0.48089 0.0
C353 C 0.45666 0.56398 0.5548 0.0
C354 C 0.54556 0.44404 0.45106 0.0
Dy355 Dy 0.48893 0.52617 0.52346 0.0
O356 O 0.51696 0.44169 0.44878 0.0
O357 O 0.55395 0.46549 0.46916 0.0
O358 O 0.46247 0.45844 0.47787 0.0
O359 O 0.47671 0.48077 0.51821 0.0
C360 C 0.45465 0.46847 0.50468 0.0
C361 C 0.5433 0.53564 0.49923 0.0
O362 O 0.50575 0.49965 0.55985 0.0
O363 O 0.52959 0.46972 0.52624 0.0
O364 O 0.48432 0.56853 0.54724 0.0
O365 O 0.44667 0.53855 0.54566 0.0
O366 O 0.5362 0.5446 0.52668 0.0
O367 O 0.52081 0.5241 0.48586 0.0
O368 O 0.49318 0.50689 0.44515 0.0
O369 O 0.46593 0.53348 0.47902 0.0
C370 C 0.52379 0.47938 0.55456 0.0
C371 C 0.47329 0.52548 0.45057 0.0
Dy372 Dy 0.01481 0.48068 0.01209 0.0
C373 C 0.96218 0.58612 0.99024 0.0
C374 C 0.04748 0.43737 0.02518 0.0
Dy375 Dy 0.99276 0.53939 0.99101 0.0
O376 O 0.04187 0.45807 0.04411 0.0
O377 O 0.03467 0.43986 0.99899 0.0
O378 O 0.97952 0.47848 0.04873 0.0
O379 O 0.99774 0.51822 0.0342 0.0
C380 C 0.97793 0.50585 0.05073 0.0
C381 C 0.02097 0.51258 0.9449 0.0
O382 O 0.03385 0.5549 0.01631 0.0
O383 O 0.05525 0.51173 0.01529 0.0
O384 O 0.98921 0.58505 0.98033 0.0
O385 O 0.95199 0.5617 1.00074 0.0
O386 O 0.01086 0.53726 0.94178 0.0
O387 O 0.01535 0.50526 0.97185 0.0
O388 O 0.97567 0.46412 0.98433 0.0
O389 O 0.95431 0.50725 0.98094 0.0
C390 C 0.05673 0.53976 0.02018 0.0
C391 C 0.95351 0.47912 0.97698 0.0
H392 H 0.08551 0.16046 0.27941 0.0
H393 H 0.07371 0.01872 0.37581 0.0
H394 H 0.15168 0.10037 0.27921 0.0
H395 H 0.0223 0.08918 0.39892 0.0
H396 H 0.0963 0.04513 0.33316 0.0
H397 H 0.05632 0.1315 0.31682 0.0
C398 C 0.09373 0.14109 0.28713 0.0
C399 C 0.12108 0.13283 0.2766 0.0
C400 C 0.07998 0.05481 0.34744 0.0
C401 C 0.08802 0.09976 0.31874 0.0
C402 C 0.06703 0.03973 0.37171 0.0
C403 C 0.04641 0.052 0.39099 0.0
C404 C 0.07224 0.08238 0.34238 0.0
C405 C 0.03833 0.07915 0.3846 0.0
C406 C 0.07719 0.12469 0.30845 0.0
C407 C 0.13089 0.10764 0.28718 0.0
N408 N 0.05144 0.09361 0.36083 0.0
N409 N 0.11437 0.092 0.30766 0.0
H410 H 0.3057 0.91654 0.81939 0.0
H411 H 0.42576 0.90989 0.95112 0.0
H412 H 0.35341 0.84332 0.83461 0.0
H413 H 0.39433 0.98805 0.92163 0.0
H414 H 0.39195 0.88329 0.91522 0.0
H415 H 0.33066 0.94109 0.86357 0.0
C416 C 0.3211 0.90552 0.83233 0.0
C417 C 0.32779 0.87802 0.82324 0.0
C418 C 0.39227 0.90625 0.91679 0.0
C419 C 0.35637 0.90585 0.8735 0.0
C420 C 0.41148 0.9214 0.93731 0.0
C421 C 0.41295 0.95115 0.93902 0.0
C422 C 0.37438 0.92101 0.89798 0.0
C423 C 0.39395 0.96509 0.92076 0.0
C424 C 0.33544 0.91956 0.85738 0.0
C425 C 0.34801 0.8647 0.84063 0.0
N426 N 0.37554 0.94989 0.90081 0.0
N427 N 0.36169 0.87879 0.86484 0.0
H428 H 0.6152 0.37033 0.67086 0.0
H429 H 0.51667 0.49193 0.61623 0.0
H430 H 0.57326 0.42751 0.73353 0.0
H431 H 0.56021 0.43586 0.55358 0.0
H432 H 0.53714 0.46864 0.65941 0.0
H433 H 0.59484 0.39373 0.62771 0.0
C434 C 0.60155 0.38767 0.67561 0.0
C435 C 0.59597 0.39688 0.70602 0.0
C436 C 0.54226 0.46145 0.63622 0.0
C437 C 0.57277 0.42409 0.65646 0.0
C438 C 0.53057 0.47477 0.61148 0.0
C439 C 0.53665 0.46589 0.58109 0.0
C440 C 0.56018 0.43899 0.63066 0.0
C441 C 0.55485 0.44349 0.57653 0.0
C442 C 0.59008 0.40118 0.65089 0.0
C443 C 0.57851 0.41985 0.71056 0.0
N444 N 0.56589 0.43083 0.60099 0.0
N445 N 0.56753 0.4326 0.68612 0.0
H446 H 0.88535 0.62425 0.16575 0.0
H447 H 0.94548 0.4816 0.09757 0.0
H448 H 0.90303 0.55518 0.22312 0.0
H449 H 0.97219 0.56291 0.05896 0.0
H450 H 0.92017 0.50598 0.13945 0.0
H451 H 0.90793 0.59968 0.12182 0.0
C452 C 0.89385 0.60384 0.16897 0.0
C453 C 0.89249 0.59167 0.19797 0.0
C454 C 0.93142 0.51842 0.12167 0.0
C455 C 0.91774 0.56345 0.14809 0.0
C456 C 0.94573 0.50456 0.09772 0.0
C457 C 0.96088 0.52029 0.07476 0.0
C458 C 0.93178 0.54817 0.12234 0.0
C459 C 0.96059 0.55 0.07611 0.0
C460 C 0.90678 0.58995 0.14404 0.0
C461 C 0.90388 0.56528 0.20111 0.0
N462 N 0.94615 0.56302 0.09948 0.0
N463 N 0.91585 0.55192 0.17641 0.0
H464 H 0.33028 0.10257 0.15724 0.0
H465 H 0.4839 0.09073 0.0697 0.0
H466 H 0.37649 0.17341 0.11203 0.0
H467 H 0.41523 0.02168 0.07048 0.0
H468 H 0.45117 0.12075 0.09859 0.0
H469 H 0.36845 0.07219 0.13888 0.0
C470 C 0.34884 0.11178 0.14399 0.0
C471 C 0.35042 0.14036 0.13596 0.0
C472 C 0.44349 0.09893 0.09267 0.0
C473 C 0.39378 0.10608 0.11518 0.0
C474 C 0.4621 0.08178 0.07634 0.0
C475 C 0.45207 0.05381 0.06753 0.0
C476 C 0.41497 0.08778 0.1007 0.0
C477 C 0.42363 0.04326 0.07658 0.0
C478 C 0.37038 0.09448 0.13341 0.0
C479 C 0.3746 0.15138 0.1185 0.0
N480 N 0.406 0.0603 0.09273 0.0
N481 N 0.39542 0.13417 0.10861 0.0
H482 H 0.12518 0.86664 0.62955 0.0
H483 H 0.09145 0.94208 0.47538 0.0
H484 H 0.19265 0.88631 0.56066 0.0
H485 H 0.04892 0.96339 0.56124 0.0
H486 H 0.12356 0.91286 0.50309 0.0
H487 H 0.09176 0.89398 0.60151 0.0
C488 C 0.13313 0.87669 0.60868 0.0
C489 C 0.16207 0.87415 0.59771 0.0
C490 C 0.10711 0.92389 0.51579 0.0
C491 C 0.12337 0.90468 0.56508 0.0
C492 C 0.08876 0.94046 0.50005 0.0
C493 C 0.06758 0.95516 0.51614 0.0
C494 C 0.1038 0.92157 0.54772 0.0
C495 C 0.06498 0.95235 0.54805 0.0
C496 C 0.1139 0.89215 0.59263 0.0
C497 C 0.17054 0.88711 0.56992 0.0
N498 N 0.08281 0.93572 0.56285 0.0
N499 N 0.15126 0.9017 0.55454 0.0
H500 H 0.79282 0.43655 0.87529 0.0
H501 H 0.9362 0.42172 0.97563 0.0
H502 H 0.80456 0.36181 0.92681 0.0
H503 H 0.90898 0.50217 0.94747 0.0
H504 H 0.891 0.39787 0.95339 0.0
H505 H 0.83814 0.45944 0.89728 0.0
C506 C 0.80471 0.42494 0.89139 0.0
C507 C 0.79447 0.39715 0.89927 0.0
C508 C 0.89497 0.42074 0.95215 0.0
C509 C 0.84712 0.42324 0.92408 0.0
C510 C 0.92081 0.43438 0.96474 0.0
C511 C 0.92644 0.46405 0.96353 0.0
C512 C 0.8748 0.43682 0.93785 0.0
C513 C 0.90559 0.4793 0.94915 0.0
C514 C 0.83077 0.43803 0.9038 0.0
C515 C 0.81158 0.38308 0.91966 0.0
N516 N 0.88084 0.46553 0.93681 0.0
N517 N 0.83702 0.39625 0.9313 0.0
H518 H 0.7232 0.59366 0.44862 0.0
H519 H 0.55471 0.53286 0.43758 0.0
H520 H 0.66981 0.60423 0.36913 0.0
H521 H 0.59523 0.55857 0.52424 0.0
H522 H 0.59995 0.55066 0.41084 0.0
H523 H 0.67926 0.57331 0.47553 0.0
C524 C 0.70234 0.59192 0.43677 0.0
C525 C 0.70045 0.60097 0.40642 0.0
C526 C 0.59896 0.55232 0.43571 0.0
C527 C 0.65017 0.57674 0.43704 0.0
C528 C 0.57323 0.54207 0.45099 0.0
C529 C 0.57123 0.54446 0.48315 0.0
C530 C 0.62303 0.56462 0.45273 0.0
C531 C 0.59588 0.55651 0.4994 0.0
C532 C 0.6773 0.58008 0.45217 0.0
C533 C 0.67272 0.59725 0.39222 0.0
N534 N 0.62084 0.56612 0.484 0.0
N535 N 0.64877 0.58537 0.40759 0.0
H536 H 0.1766 0.34565 0.11122 0.0
H537 H 0.05941 0.39012 0.99044 0.0
H538 H 0.13876 0.28736 0.04107 0.0
H539 H 0.08149 0.43617 0.07544 0.0
H540 H 0.094 0.35513 0.00316 0.0
H541 H 0.14861 0.38275 0.0917 0.0
C542 C 0.16283 0.34081 0.09131 0.0
C543 C 0.15982 0.31335 0.07786 0.0
C544 C 0.09123 0.37295 0.01892 0.0
C545 C 0.1272 0.35554 0.05585 0.0
C546 C 0.07153 0.3928 0.01173 0.0
C547 C 0.06754 0.41579 0.03209 0.0
C548 C 0.10713 0.37652 0.04643 0.0
C549 C 0.08379 0.41857 0.05926 0.0
C550 C 0.1466 0.36191 0.08039 0.0
C551 C 0.14132 0.30818 0.05237 0.0
N552 N 0.1029 0.39917 0.06562 0.0
N553 N 0.12549 0.32906 0.04227 0.0
H554 H 0.55295 0.22114 0.91861 0.0
H555 H 0.56597 0.05914 0.96026 0.0
H556 H 0.62405 0.17324 0.88467 0.0
H557 H 0.48351 0.09785 0.96275 0.0
H558 H 0.59035 0.10295 0.93942 0.0
H559 H 0.52968 0.17808 0.94119 0.0
C560 C 0.56367 0.20163 0.91563 0.0
C561 C 0.59058 0.20107 0.89937 0.0
C562 C 0.56694 0.10184 0.94458 0.0
C563 C 0.56419 0.15161 0.92614 0.0
C564 C 0.55305 0.07691 0.95656 0.0
C565 C 0.52265 0.07486 0.96303 0.0
C566 C 0.55038 0.125 0.93949 0.0
C567 C 0.50696 0.09852 0.95788 0.0
C568 C 0.55039 0.17705 0.92879 0.0
C569 C 0.60359 0.17506 0.89726 0.0
N570 N 0.52099 0.12261 0.94649 0.0
N571 N 0.59033 0.15147 0.91051 0.0
H572 H 0.88029 0.82478 0.35511 0.0
H573 H 0.97707 0.89788 0.49229 0.0
H574 H 0.92565 0.7775 0.41999 0.0
H575 H 0.95432 0.94386 0.41318 0.0
H576 H 0.95502 0.854 0.46794 0.0
H577 H 0.90383 0.86912 0.37787 0.0
C578 C 0.89517 0.82375 0.37416 0.0
C579 C 0.90105 0.79742 0.38567 0.0
C580 C 0.95493 0.87365 0.45583 0.0
C581 C 0.92794 0.84797 0.41182 0.0
C582 C 0.96744 0.89877 0.46977 0.0
C583 C 0.96754 0.92464 0.45477 0.0
C584 C 0.94204 0.87433 0.42678 0.0
C585 C 0.95482 0.9244 0.42554 0.0
C586 C 0.90871 0.84902 0.38701 0.0
C587 C 0.92071 0.7973 0.41021 0.0
N588 N 0.9424 0.89966 0.41257 0.0
N589 N 0.9333 0.82217 0.42257 0.0
H590 H 0.31727 0.65811 0.63503 0.0
H591 H 0.47392 0.61948 0.56819 0.0
H592 H 0.3864 0.72047 0.60637 0.0
H593 H 0.39855 0.55764 0.57249 0.0
H594 H 0.44317 0.65611 0.58773 0.0
H595 H 0.34729 0.62033 0.61634 0.0
C596 C 0.33861 0.6639 0.62462 0.0
C597 C 0.34938 0.69257 0.6225 0.0
C598 C 0.43332 0.63454 0.58447 0.0
C599 C 0.38399 0.64947 0.60167 0.0
C600 C 0.4509 0.6136 0.57348 0.0
C601 C 0.43868 0.58559 0.56871 0.0
C602 C 0.4033 0.62737 0.59091 0.0
C603 C 0.40875 0.57908 0.57586 0.0
C604 C 0.35579 0.64232 0.61415 0.0
C605 C 0.37739 0.69872 0.60913 0.0
N606 N 0.39201 0.59986 0.58663 0.0
N607 N 0.39373 0.67739 0.59939 0.0
H608 H 0.9104 0.87962 0.74658 0.0
H609 H 0.91684 0.92449 0.57342 0.0
H610 H 0.86265 0.83165 0.67433 0.0
H611 H 0.98813 0.95048 0.63525 0.0
H612 H 0.89544 0.89196 0.61155 0.0
H613 H 0.93881 0.90695 0.70755 0.0
C614 C 0.90619 0.87466 0.72248 0.0
C615 C 0.88407 0.85354 0.71356 0.0
C616 C 0.91586 0.90463 0.61679 0.0
C617 C 0.91604 0.88474 0.66911 0.0
C618 C 0.92795 0.92336 0.59514 0.0
C619 C 0.95412 0.94025 0.60142 0.0
C620 C 0.92978 0.9031 0.64515 0.0
C621 C 0.96781 0.93781 0.62973 0.0
C622 C 0.92243 0.89014 0.7003 0.0
C623 C 0.87959 0.84768 0.68214 0.0
N624 N 0.95527 0.91971 0.65082 0.0
N625 N 0.89516 0.8635 0.66102 0.0
H626 H 0.66077 0.17473 0.17942 0.0
H627 H 0.62188 0.0267 0.09073 0.0
H628 H 0.70965 0.10139 0.19045 0.0
H629 H 0.58556 0.10431 0.06683 0.0
H630 H 0.65586 0.05412 0.12577 0.0
H631 H 0.63491 0.15013 0.13628 0.0
C632 C 0.66645 0.15364 0.17249 0.0
C633 C 0.68727 0.14003 0.18884 0.0
C634 C 0.64069 0.06522 0.11263 0.0
C635 C 0.6572 0.11149 0.13979 0.0
C636 C 0.6213 0.04957 0.09268 0.0
C637 C 0.60084 0.06332 0.07615 0.0
C638 C 0.63931 0.09475 0.11627 0.0
C639 C 0.60098 0.09295 0.07934 0.0
C640 C 0.65151 0.13952 0.14793 0.0
C641 C 0.69332 0.11249 0.17899 0.0
N642 N 0.61972 0.10768 0.0993 0.0
N643 N 0.67814 0.09902 0.15532 0.0
H644 H 0.43765 0.58926 0.27101 0.0
H645 H 0.43063 0.56319 0.45223 0.0
H646 H 0.37842 0.62914 0.33389 0.0
H647 H 0.48676 0.5198 0.38894 0.0
H648 H 0.41129 0.58741 0.40916 0.0
H649 H 0.45624 0.564 0.31382 0.0
C650 C 0.42864 0.59286 0.29383 0.0
C651 C 0.40641 0.61147 0.29875 0.0
C652 C 0.42777 0.57253 0.40464 0.0
C653 C 0.42748 0.58226 0.34801 0.0
C654 C 0.43886 0.55864 0.42928 0.0
C655 C 0.46044 0.53937 0.42432 0.0
C656 C 0.43835 0.56728 0.37469 0.0
C657 C 0.47014 0.53441 0.39396 0.0
C658 C 0.43915 0.57825 0.31827 0.0
C659 C 0.39531 0.61482 0.32884 0.0
N660 N 0.45911 0.54833 0.37036 0.0
N661 N 0.40598 0.60045 0.35226 0.0
H662 H 0.0759 0.38035 0.8196 0.0
H663 H 0.04744 0.53269 0.89264 0.0
H664 H 0.12412 0.45773 0.79065 0.0
H665 H 0.02808 0.45562 0.94205 0.0
H666 H 0.07123 0.50542 0.8519 0.0
H667 H 0.05357 0.40737 0.86166 0.0
C668 C 0.08171 0.40303 0.82208 0.0
C669 C 0.10189 0.41684 0.80166 0.0
C670 C 0.06196 0.4945 0.87175 0.0
C671 C 0.07635 0.44784 0.84947 0.0
C672 C 0.04834 0.51001 0.89493 0.0
C673 C 0.03609 0.49636 0.92081 0.0
C674 C 0.06278 0.465 0.87419 0.0
C675 C 0.0377 0.46695 0.92266 0.0
C676 C 0.06912 0.41839 0.84615 0.0
C677 C 0.10884 0.44623 0.80603 0.0
N678 N 0.05061 0.45216 0.89953 0.0
N679 N 0.09593 0.46079 0.8293 0.0
H680 H 0.62422 0.84754 0.8577 0.0
H681 H 0.60262 0.99011 0.95663 0.0
H682 H 0.69483 0.90415 0.89621 0.0
H683 H 0.52981 0.92846 0.93394 0.0
H684 H 0.63584 0.96083 0.92861 0.0
H685 H 0.58845 0.87823 0.88092 0.0
C686 C 0.63219 0.86635 0.87102 0.0
C687 C 0.66257 0.87343 0.87478 0.0
C688 C 0.6126 0.95365 0.92963 0.0
C689 C 0.62199 0.90859 0.90094 0.0
C690 C 0.59355 0.97043 0.94561 0.0
C691 C 0.56342 0.96157 0.94791 0.0
C692 C 0.60156 0.92769 0.91584 0.0
C693 C 0.55294 0.93601 0.93282 0.0
C694 C 0.6118 0.88389 0.88409 0.0
C695 C 0.67169 0.89814 0.89208 0.0
N696 N 0.57207 0.91979 0.91754 0.0
N697 N 0.65152 0.91478 0.90443 0.0
H698 H 0.84965 0.1596 0.45522 0.0
H699 H 0.94968 0.02801 0.44024 0.0
H700 H 0.85248 0.10415 0.37462 0.0
H701 H 0.93356 0.07289 0.52594 0.0
H702 H 0.91899 0.05962 0.41402 0.0
H703 H 0.88543 0.13195 0.47977 0.0
C704 C 0.858 0.14177 0.44262 0.0
C705 C 0.84791 0.13398 0.41297 0.0
C706 C 0.92223 0.06261 0.43855 0.0
C707 C 0.8887 0.10228 0.44083 0.0
C708 C 0.93976 0.04461 0.45347 0.0
C709 C 0.94386 0.04775 0.48529 0.0
C710 C 0.90889 0.08395 0.45558 0.0
C711 C 0.9307 0.06966 0.50139 0.0
C712 C 0.87828 0.12591 0.45667 0.0
C713 C 0.85932 0.11059 0.39772 0.0
N714 N 0.91372 0.08689 0.48637 0.0
N715 N 0.87905 0.09555 0.41183 0.0
H716 H 0.18731 0.64753 0.1226 0.0
H717 H 0.11155 0.51983 0.01891 0.0
H718 H 0.23729 0.58969 0.06887 0.0
H719 H 0.0661 0.59286 0.04788 0.0
H720 H 0.15721 0.54319 0.04015 0.0
H721 H 0.14195 0.62578 0.09883 0.0
C722 C 0.18872 0.63021 0.10584 0.0
C723 C 0.21613 0.62039 0.09773 0.0
C724 C 0.13728 0.55416 0.0417 0.0
C725 C 0.16431 0.59535 0.07049 0.0
C726 C 0.11115 0.54081 0.02964 0.0
C727 C 0.08487 0.55438 0.03159 0.0
C728 C 0.13714 0.58113 0.05628 0.0
C729 C 0.08582 0.58162 0.04572 0.0
C730 C 0.16286 0.61793 0.09215 0.0
C731 C 0.21667 0.59807 0.07563 0.0
N732 N 0.11145 0.594 0.05773 0.0
N733 N 0.19116 0.58618 0.06296 0.0
H734 H 0.32568 0.40232 0.63631 0.0
H735 H 0.40308 0.44642 0.47847 0.0
H736 H 0.27492 0.41481 0.55576 0.0
H737 H 0.44192 0.47133 0.56613 0.0
H738 H 0.35703 0.43018 0.50514 0.0
H739 H 0.3701 0.4228 0.60986 0.0
C740 C 0.32395 0.40941 0.61304 0.0
C741 C 0.29668 0.4069 0.59814 0.0
C742 C 0.3756 0.43938 0.51846 0.0
C743 C 0.34731 0.43 0.56768 0.0
C744 C 0.40184 0.44855 0.5033 0.0
C745 C 0.42629 0.4601 0.52016 0.0
C746 C 0.37408 0.44127 0.55072 0.0
C747 C 0.42356 0.46251 0.55228 0.0
C748 C 0.34921 0.42121 0.59804 0.0
C749 C 0.29554 0.41655 0.56806 0.0
N750 N 0.39803 0.45286 0.56656 0.0
N751 N 0.32058 0.42741 0.55366 0.0
H752 H 0.88757 0.71075 0.88896 0.0
H753 H 0.90478 0.59041 0.00743 0.0
H754 H 0.81769 0.68392 0.95223 0.0
H755 H 0.9784 0.63526 0.96126 0.0
H756 H 0.87282 0.62597 0.99067 0.0
H757 H 0.92153 0.68452 0.91734 0.0
C758 C 0.87947 0.69928 0.90896 0.0
C759 C 0.84983 0.69901 0.9181 0.0
C760 C 0.89607 0.6283 0.98468 0.0
C761 C 0.88844 0.66892 0.95072 0.0
C762 C 0.91428 0.60805 0.99423 0.0
C763 C 0.94409 0.6098 0.98528 0.0
C764 C 0.90781 0.65012 0.9658 0.0
C765 C 0.95544 0.63304 0.96836 0.0
C766 C 0.89887 0.6845 0.9253 0.0
C767 C 0.84042 0.68436 0.94444 0.0
N768 N 0.93717 0.65209 0.95876 0.0
N769 N 0.85963 0.66947 0.95965 0.0
H770 H 0.45805 0.78961 0.08449 0.0
H771 H 0.44827 0.95479 0.05647 0.0
H772 H 0.39169 0.83738 0.12842 0.0
H773 H 0.5302 0.91532 0.04968 0.0
H774 H 0.42379 0.91013 0.07524 0.0
H775 H 0.48158 0.83387 0.06392 0.0
C776 C 0.44838 0.80941 0.08968 0.0
C777 C 0.42295 0.80987 0.10827 0.0
C778 C 0.44712 0.91129 0.0696 0.0
C779 C 0.44953 0.86046 0.08458 0.0
C780 C 0.46105 0.93668 0.0588 0.0
C781 C 0.49133 0.93874 0.05172 0.0
C782 C 0.46347 0.88765 0.07276 0.0
C783 C 0.50685 0.91465 0.05509 0.0
C784 C 0.46187 0.83464 0.07806 0.0
C785 C 0.41142 0.83614 0.11441 0.0
N786 N 0.49274 0.89007 0.06524 0.0
N787 N 0.42467 0.86036 0.10245 0.0
H788 H 0.13814 0.20488 0.57838 0.0
H789 H 0.02469 0.06665 0.59354 0.0
H790 H 0.07597 0.19416 0.65373 0.0
H791 H 0.0692 0.09036 0.50876 0.0
H792 H 0.04708 0.11047 0.61834 0.0
H793 H 0.11705 0.16001 0.55501 0.0
C794 C 0.12018 0.19296 0.59013 0.0
C795 C 0.10881 0.20328 0.61807 0.0
C796 C 0.05192 0.10603 0.59432 0.0
C797 C 0.08446 0.15189 0.59136 0.0
C798 C 0.03925 0.08096 0.58016 0.0
C799 C 0.04501 0.07478 0.54897 0.0
C800 C 0.07077 0.12491 0.57729 0.0
C801 C 0.06399 0.09424 0.5328 0.0
C802 C 0.10802 0.16744 0.57667 0.0
C803 C 0.08524 0.18711 0.63205 0.0
N804 N 0.07623 0.11833 0.54715 0.0
N805 N 0.07391 0.16217 0.61861 0.0
H806 H 0.68672 0.33468 0.42723 0.0
H807 H 0.53295 0.40088 0.40846 0.0
H808 H 0.63122 0.31492 0.34856 0.0
H809 H 0.60348 0.44127 0.46384 0.0
H810 H 0.56643 0.36611 0.38906 0.0
H811 H 0.65398 0.37077 0.44449 0.0
C812 C 0.66762 0.33796 0.41365 0.0
C813 C 0.66167 0.32193 0.38642 0.0
C814 C 0.57458 0.38271 0.40532 0.0
C815 C 0.62412 0.3629 0.40601 0.0
C816 C 0.55551 0.40248 0.41637 0.0
C817 C 0.56555 0.42389 0.4377 0.0
C818 C 0.60365 0.38419 0.41613 0.0
C819 C 0.59493 0.42508 0.44733 0.0
C820 C 0.64906 0.35861 0.42338 0.0
C821 C 0.63672 0.32707 0.36954 0.0
N822 N 0.61289 0.40535 0.43666 0.0
N823 N 0.61872 0.34699 0.37971 0.0
loop_
_geom_bond_atom_site_label_1
_geom_bond_atom_site_label_2
_geom_bond_distance
_geom_bond_site_symmetry_2
_ccdc_geom_bond_type
C0 C1 1.386 . S
C0 C2 1.397 . S
C0 H24 0.931 . S
C1 C0 1.386 . S
C1 C5 1.397 . S
C2 C0 1.397 . S
C2 C3 1.384 . S
C2 H25 0.930 . S
C3 C2 1.384 . S
C3 C4 1.377 . S
C3 C6 1.481 . S
C4 C3 1.377 . S
C4 C5 1.389 . S
C4 H26 0.929 . S
C5 C1 1.397 . S
C5 C4 1.389 . S
C5 H27 0.931 . S
C6 C3 1.481 . S
C6 C7 1.387 . S
C6 C11 1.390 . S
C7 C6 1.387 . S
C7 C8 1.401 . S
C7 H28 0.930 . S
C8 C7 1.401 . S
C8 C9 1.376 . S
C8 C17 1.511 . S
C9 C8 1.376 . S
C9 C10 1.392 . S
C9 H30 0.931 . S
C10 C9 1.392 . S
C10 C11 1.361 . S
C10 C12 1.500 . S
C11 C6 1.390 . S
C11 C10 1.361 . S
C11 H29 0.931 . S
C12 C10 1.500 . S
C12 C13 1.371 . S
C12 C14 1.365 . S
C13 C12 1.371 . S
C13 C23 1.386 . S
C13 H31 0.931 . S
C14 C12 1.365 . S
C14 C15 1.409 . S
C14 H32 0.929 . S
C15 C14 1.409 . S
C15 C16 1.380 . S
C15 H33 0.930 . S
C16 C15 1.380 . S
C16 C23 1.357 . S
C17 C8 1.511 . S
C17 C18 1.341 . S
C17 C19 1.371 . S
C18 C17 1.341 . S
C18 C22 1.394 . S
C18 H34 0.930 . S
C19 C17 1.371 . S
C19 C20 1.392 . S
C19 H35 0.931 . S
C20 C19 1.392 . S
C20 C21 1.331 . S
C20 H38 0.932 . S
C21 C20 1.331 . S
C21 C22 1.336 . S
C22 C18 1.394 . S
C22 C21 1.336 . S
C22 H37 0.929 . S
C23 C13 1.386 . S
C23 C16 1.357 . S
C23 H36 0.928 . S
H24 C0 0.931 . S
H25 C2 0.930 . S
H26 C4 0.929 . S
H27 C5 0.931 . S
H28 C7 0.930 . S
H29 C11 0.931 . S
H30 C9 0.931 . S
H31 C13 0.931 . S
H32 C14 0.929 . S
H33 C15 0.930 . S
H34 C18 0.930 . S
H35 C19 0.931 . S
H36 C23 0.928 . S
H37 C22 0.929 . S
H38 C20 0.932 . S
C39 C40 1.386 . S
C39 C41 1.397 . S
C39 H63 0.931 . S
C40 C39 1.386 . S
C40 C44 1.397 . S
C41 C39 1.397 . S
C41 C42 1.384 . S
C41 H64 0.930 . S
C42 C41 1.384 . S
C42 C43 1.377 . S
C42 C45 1.481 . S
C43 C42 1.377 . S
C43 C44 1.389 . S
C43 H65 0.929 . S
C44 C40 1.397 . S
C44 C43 1.389 . S
C44 H66 0.931 . S
C45 C42 1.481 . S
C45 C46 1.387 . S
C45 C50 1.390 . S
C46 C45 1.387 . S
C46 C47 1.401 . S
C46 H67 0.930 . S
C47 C46 1.401 . S
C47 C48 1.376 . S
C47 C56 1.511 . S
C48 C47 1.376 . S
C48 C49 1.392 . S
C48 H69 0.931 . S
C49 C48 1.392 . S
C49 C50 1.361 . S
C49 C51 1.500 . S
C50 C45 1.390 . S
C50 C49 1.361 . S
C50 H68 0.931 . S
C51 C49 1.500 . S
C51 C52 1.371 . S
C51 C53 1.365 . S
C52 C51 1.371 . S
C52 C62 1.386 . S
C52 H70 0.931 . S
C53 C51 1.365 . S
C53 C54 1.409 . S
C53 H71 0.929 . S
C54 C53 1.409 . S
C54 C55 1.380 . S
C54 H72 0.930 . S
C55 C54 1.380 . S
C55 C62 1.357 . S
C56 C47 1.511 . S
C56 C57 1.341 . S
C56 C58 1.371 . S
C57 C56 1.341 . S
C57 C61 1.394 . S
C57 H73 0.930 . S
C58 C56 1.371 . S
C58 C59 1.392 . S
C58 H74 0.931 . S
C59 C58 1.392 . S
C59 C60 1.331 . S
C59 H77 0.932 . S
C60 C59 1.331 . S
C60 C61 1.336 . S
C61 C57 1.394 . S
C61 C60 1.336 . S
C61 H76 0.929 . S
C62 C52 1.386 . S
C62 C55 1.357 . S
C62 H75 0.928 . S
H63 C39 0.931 . S
H64 C41 0.930 . S
H65 C43 0.929 . S
H66 C44 0.931 . S
H67 C46 0.930 . S
H68 C50 0.931 . S
H69 C48 0.931 . S
H70 C52 0.931 . S
H71 C53 0.929 . S
H72 C54 0.930 . S
H73 C57 0.930 . S
H74 C58 0.931 . S
H75 C62 0.928 . S
H76 C61 0.929 . S
H77 C59 0.932 . S
C78 C79 1.386 . S
C78 C80 1.397 . S
C78 H102 0.931 . S
C79 C78 1.386 . S
C79 C83 1.397 . S
C80 C78 1.397 . S
C80 C81 1.384 . S
C80 H103 0.930 . S
C81 C80 1.384 . S
C81 C82 1.377 . S
C81 C84 1.481 . S
C82 C81 1.377 . S
C82 C83 1.389 . S
C82 H104 0.929 . S
C83 C79 1.397 . S
C83 C82 1.389 . S
C83 H105 0.931 . S
C84 C81 1.481 . S
C84 C85 1.387 . S
C84 C89 1.390 . S
C85 C84 1.387 . S
C85 C86 1.401 . S
C85 H106 0.930 . S
C86 C85 1.401 . S
C86 C87 1.376 . S
C86 C95 1.511 . S
C87 C86 1.376 . S
C87 C88 1.392 . S
C87 H108 0.931 . S
C88 C87 1.392 . S
C88 C89 1.361 . S
C88 C90 1.500 . S
C89 C84 1.390 . S
C89 C88 1.361 . S
C89 H107 0.931 . S
C90 C88 1.500 . S
C90 C91 1.371 . S
C90 C92 1.365 . S
C91 C90 1.371 . S
C91 C101 1.386 . S
C91 H109 0.931 . S
C92 C90 1.365 . S
C92 C93 1.409 . S
C92 H110 0.929 . S
C93 C92 1.409 . S
C93 C94 1.380 . S
C93 H111 0.930 . S
C94 C93 1.380 . S
C94 C101 1.357 . S
C95 C86 1.511 . S
C95 C96 1.341 . S
C95 C97 1.371 . S
C96 C95 1.341 . S
C96 C100 1.394 . S
C96 H112 0.930 . S
C97 C95 1.371 . S
C97 C98 1.392 . S
C97 H113 0.931 . S
C98 C97 1.392 . S
C98 C99 1.331 . S
C98 H116 0.932 . S
C99 C98 1.331 . S
C99 C100 1.336 . S
C100 C96 1.394 . S
C100 C99 1.336 . S
C100 H115 0.929 . S
C101 C91 1.386 . S
C101 C94 1.357 . S
C101 H114 0.928 . S
H102 C78 0.931 . S
H103 C80 0.930 . S
H104 C82 0.929 . S
H105 C83 0.931 . S
H106 C85 0.930 . S
H107 C89 0.931 . S
H108 C87 0.931 . S
H109 C91 0.931 . S
H110 C92 0.929 . S
H111 C93 0.930 . S
H112 C96 0.930 . S
H113 C97 0.931 . S
H114 C101 0.928 . S
H115 C100 0.929 . S
H116 C98 0.932 . S
C117 C118 1.386 . S
C117 C119 1.397 . S
C117 H141 0.931 . S
C118 C117 1.386 . S
C118 C122 1.397 . S
C119 C117 1.397 . S
C119 C120 1.384 . S
C119 H142 0.930 . S
C120 C119 1.384 . S
C120 C121 1.377 . S
C120 C123 1.481 . S
C121 C120 1.377 . S
C121 C122 1.389 . S
C121 H143 0.929 . S
C122 C118 1.397 . S
C122 C121 1.389 . S
C122 H144 0.931 . S
C123 C120 1.481 . S
C123 C124 1.387 . S
C123 C128 1.390 . S
C124 C123 1.387 . S
C124 C125 1.401 . S
C124 H145 0.930 . S
C125 C124 1.401 . S
C125 C126 1.376 . S
C125 C134 1.511 . S
C126 C125 1.376 . S
C126 C127 1.392 . S
C126 H147 0.931 . S
C127 C126 1.392 . S
C127 C128 1.361 . S
C127 C129 1.500 . S
C128 C123 1.390 . S
C128 C127 1.361 . S
C128 H146 0.931 . S
C129 C127 1.500 . S
C129 C130 1.371 . S
C129 C131 1.365 . S
C130 C129 1.371 . S
C130 C140 1.386 . S
C130 H148 0.931 . S
C131 C129 1.365 . S
C131 C132 1.409 . S
C131 H149 0.929 . S
C132 C131 1.409 . S
C132 C133 1.380 . S
C132 H150 0.930 . S
C133 C132 1.380 . S
C133 C140 1.357 . S
C134 C125 1.511 . S
C134 C135 1.341 . S
C134 C136 1.371 . S
C135 C134 1.341 . S
C135 C139 1.394 . S
C135 H151 0.930 . S
C136 C134 1.371 . S
C136 C137 1.392 . S
C136 H152 0.931 . S
C137 C136 1.392 . S
C137 C138 1.331 . S
C137 H155 0.932 . S
C138 C137 1.331 . S
C138 C139 1.336 . S
C139 C135 1.394 . S
C139 C138 1.336 . S
C139 H154 0.929 . S
C140 C130 1.386 . S
C140 C133 1.357 . S
C140 H153 0.928 . S
H141 C117 0.931 . S
H142 C119 0.930 . S
H143 C121 0.929 . S
H144 C122 0.931 . S
H145 C124 0.930 . S
H146 C128 0.931 . S
H147 C126 0.931 . S
H148 C130 0.931 . S
H149 C131 0.929 . S
H150 C132 0.930 . S
H151 C135 0.930 . S
H152 C136 0.931 . S
H153 C140 0.928 . S
H154 C139 0.929 . S
H155 C137 0.932 . S
C156 C157 1.386 . S
C156 C158 1.397 . S
C156 H180 0.931 . S
C157 C156 1.386 . S
C157 C161 1.397 . S
C158 C156 1.397 . S
C158 C159 1.384 . S
C158 H181 0.930 . S
C159 C158 1.384 . S
C159 C160 1.377 . S
C159 C162 1.481 . S
C160 C159 1.377 . S
C160 C161 1.389 . S
C160 H182 0.929 . S
C161 C157 1.397 . S
C161 C160 1.389 . S
C161 H183 0.931 . S
C162 C159 1.481 . S
C162 C163 1.387 . S
C162 C167 1.390 . S
C163 C162 1.387 . S
C163 C164 1.401 . S
C163 H184 0.930 . S
C164 C163 1.401 . S
C164 C165 1.376 . S
C164 C173 1.511 . S
C165 C164 1.376 . S
C165 C166 1.392 . S
C165 H186 0.931 . S
C166 C165 1.392 . S
C166 C167 1.361 . S
C166 C168 1.500 . S
C167 C162 1.390 . S
C167 C166 1.361 . S
C167 H185 0.931 . S
C168 C166 1.500 . S
C168 C169 1.371 . S
C168 C170 1.365 . S
C169 C168 1.371 . S
C169 C179 1.386 . S
C169 H187 0.931 . S
C170 C168 1.365 . S
C170 C171 1.409 . S
C170 H188 0.929 . S
C171 C170 1.409 . S
C171 C172 1.380 . S
C171 H189 0.930 . S
C172 C171 1.380 . S
C172 C179 1.357 . S
C173 C164 1.511 . S
C173 C174 1.341 . S
C173 C175 1.371 . S
C174 C173 1.341 . S
C174 C178 1.394 . S
C174 H190 0.930 . S
C175 C173 1.371 . S
C175 C176 1.392 . S
C175 H191 0.931 . S
C176 C175 1.392 . S
C176 C177 1.331 . S
C176 H194 0.932 . S
C177 C176 1.331 . S
C177 C178 1.336 . S
C178 C174 1.394 . S
C178 C177 1.336 . S
C178 H193 0.929 . S
C179 C169 1.386 . S
C179 C172 1.357 . S
C179 H192 0.928 . S
H180 C156 0.931 . S
H181 C158 0.930 . S
H182 C160 0.929 . S
H183 C161 0.931 . S
H184 C163 0.930 . S
H185 C167 0.931 . S
H186 C165 0.931 . S
H187 C169 0.931 . S
H188 C170 0.929 . S
H189 C171 0.930 . S
H190 C174 0.930 . S
H191 C175 0.931 . S
H192 C179 0.928 . S
H193 C178 0.929 . S
H194 C176 0.932 . S
C195 C196 1.386 . S
C195 C197 1.397 . S
C195 H219 0.931 . S
C196 C195 1.386 . S
C196 C200 1.397 . S
C197 C195 1.397 . S
C197 C198 1.384 . S
C197 H220 0.930 . S
C198 C197 1.384 . S
C198 C199 1.377 . S
C198 C201 1.481 . S
C199 C198 1.377 . S
C199 C200 1.389 . S
C199 H221 0.929 . S
C200 C196 1.397 . S
C200 C199 1.389 . S
C200 H222 0.931 . S
C201 C198 1.481 . S
C201 C202 1.387 . S
C201 C206 1.390 . S
C202 C201 1.387 . S
C202 C203 1.401 . S
C202 H223 0.930 . S
C203 C202 1.401 . S
C203 C204 1.376 . S
C203 C212 1.511 . S
C204 C203 1.376 . S
C204 C205 1.392 . S
C204 H225 0.931 . S
C205 C204 1.392 . S
C205 C206 1.361 . S
C205 C207 1.500 . S
C206 C201 1.390 . S
C206 C205 1.361 . S
C206 H224 0.931 . S
C207 C205 1.500 . S
C207 C208 1.371 . S
C207 C209 1.365 . S
C208 C207 1.371 . S
C208 C218 1.386 . S
C208 H226 0.931 . S
C209 C207 1.365 . S
C209 C210 1.409 . S
C209 H227 0.929 . S
C210 C209 1.409 . S
C210 C211 1.380 . S
C210 H228 0.930 . S
C211 C210 1.380 . S
C211 C218 1.357 . S
C212 C203 1.511 . S
C212 C213 1.341 . S
C212 C214 1.371 . S
C213 C212 1.341 . S
C213 C217 1.394 . S
C213 H229 0.930 . S
C214 C212 1.371 . S
C214 C215 1.392 . S
C214 H230 0.931 . S
C215 C214 1.392 . S
C215 C216 1.331 . S
C215 H233 0.932 . S
C216 C215 1.331 . S
C216 C217 1.336 . S
C217 C213 1.394 . S
C217 C216 1.336 . S
C217 H232 0.929 . S
C218 C208 1.386 . S
C218 C211 1.357 . S
C218 H231 0.928 . S
H219 C195 0.931 . S
H220 C197 0.930 . S
H221 C199 0.929 . S
H222 C200 0.931 . S
H223 C202 0.930 . S
H224 C206 0.931 . S
H225 C204 0.931 . S
H226 C208 0.931 . S
H227 C209 0.929 . S
H228 C210 0.930 . S
H229 C213 0.930 . S
H230 C214 0.931 . S
H231 C218 0.928 . S
H232 C217 0.929 . S
H233 C215 0.932 . S
C234 C235 1.386 . S
C234 C236 1.397 . S
C234 H258 0.931 . S
C235 C234 1.386 . S
C235 C239 1.397 . S
C236 C234 1.397 . S
C236 C237 1.384 . S
C236 H259 0.930 . S
C237 C236 1.384 . S
C237 C238 1.377 . S
C237 C240 1.481 . S
C238 C237 1.377 . S
C238 C239 1.389 . S
C238 H260 0.929 . S
C239 C235 1.397 . S
C239 C238 1.389 . S
C239 H261 0.931 . S
C240 C237 1.481 . S
C240 C241 1.387 . S
C240 C245 1.390 . S
C241 C240 1.387 . S
C241 C242 1.401 . S
C241 H262 0.930 . S
C242 C241 1.401 . S
C242 C243 1.376 . S
C242 C251 1.511 . S
C243 C242 1.376 . S
C243 C244 1.392 . S
C243 H264 0.931 . S
C244 C243 1.392 . S
C244 C245 1.361 . S
C244 C246 1.500 . S
C245 C240 1.390 . S
C245 C244 1.361 . S
C245 H263 0.931 . S
C246 C244 1.500 . S
C246 C247 1.371 . S
C246 C248 1.365 . S
C247 C246 1.371 . S
C247 C257 1.386 . S
C247 H265 0.931 . S
C248 C246 1.365 . S
C248 C249 1.409 . S
C248 H266 0.929 . S
C249 C248 1.409 . S
C249 C250 1.380 . S
C249 H267 0.930 . S
C250 C249 1.380 . S
C250 C257 1.357 . S
C251 C242 1.511 . S
C251 C252 1.341 . S
C251 C253 1.371 . S
C252 C251 1.341 . S
C252 C256 1.394 . S
C252 H268 0.930 . S
C253 C251 1.371 . S
C253 C254 1.392 . S
C253 H269 0.931 . S
C254 C253 1.392 . S
C254 C255 1.331 . S
C254 H272 0.932 . S
C255 C254 1.331 . S
C255 C256 1.336 . S
C256 C252 1.394 . S
C256 C255 1.336 . S
C256 H271 0.929 . S
C257 C247 1.386 . S
C257 C250 1.357 . S
C257 H270 0.928 . S
H258 C234 0.931 . S
H259 C236 0.930 . S
H260 C238 0.929 . S
H261 C239 0.931 . S
H262 C241 0.930 . S
H263 C245 0.931 . S
H264 C243 0.931 . S
H265 C247 0.931 . S
H266 C248 0.929 . S
H267 C249 0.930 . S
H268 C252 0.930 . S
H269 C253 0.931 . S
H270 C257 0.928 . S
H271 C256 0.929 . S
H272 C254 0.932 . S
C273 C274 1.386 . S
C273 C275 1.397 . S
C273 H297 0.931 . S
C274 C273 1.386 . S
C274 C278 1.397 . S
C275 C273 1.397 . S
C275 C276 1.384 . S
C275 H298 0.930 . S
C276 C275 1.384 . S
C276 C277 1.377 . S
C276 C279 1.481 . S
C277 C276 1.377 . S
C277 C278 1.389 . S
C277 H299 0.929 . S
C278 C274 1.397 . S
C278 C277 1.389 . S
C278 H300 0.931 . S
C279 C276 1.481 . S
C279 C280 1.387 . S
C279 C284 1.390 . S
C280 C279 1.387 . S
C280 C281 1.401 . S
C280 H301 0.930 . S
C281 C280 1.401 . S
C281 C282 1.376 . S
C281 C290 1.511 . S
C282 C281 1.376 . S
C282 C283 1.392 . S
C282 H303 0.931 . S
C283 C282 1.392 . S
C283 C284 1.361 . S
C283 C285 1.500 . S
C284 C279 1.390 . S
C284 C283 1.361 . S
C284 H302 0.931 . S
C285 C283 1.500 . S
C285 C286 1.371 . S
C285 C287 1.365 . S
C286 C285 1.371 . S
C286 C296 1.386 . S
C286 H304 0.931 . S
C287 C285 1.365 . S
C287 C288 1.409 . S
C287 H305 0.929 . S
C288 C287 1.409 . S
C288 C289 1.380 . S
C288 H306 0.930 . S
C289 C288 1.380 . S
C289 C296 1.357 . S
C290 C281 1.511 . S
C290 C291 1.341 . S
C290 C292 1.371 . S
C291 C290 1.341 . S
C291 C295 1.394 . S
C291 H307 0.930 . S
C292 C290 1.371 . S
C292 C293 1.392 . S
C292 H308 0.931 . S
C293 C292 1.392 . S
C293 C294 1.331 . S
C293 H311 0.932 . S
C294 C293 1.331 . S
C294 C295 1.336 . S
C295 C291 1.394 . S
C295 C294 1.336 . S
C295 H310 0.929 . S
C296 C286 1.386 . S
C296 C289 1.357 . S
C296 H309 0.928 . S
H297 C273 0.931 . S
H298 C275 0.930 . S
H299 C277 0.929 . S
H300 C278 0.931 . S
H301 C280 0.930 . S
H302 C284 0.931 . S
H303 C282 0.931 . S
H304 C286 0.931 . S
H305 C287 0.929 . S
H306 C288 0.930 . S
H307 C291 0.930 . S
H308 C292 0.931 . S
H309 C296 0.928 . S
H310 C295 0.929 . S
H311 C293 0.932 . S
Dy312 O316 2.398 . S
Dy312 O317 2.491 . S
Dy312 O318 2.403 1_545 S
Dy312 O319 2.664 1_545 S
Dy312 O323 2.326 . S
Dy312 O327 2.310 1_455 S
Dy312 O328 2.351 1_445 S
C313 O324 1.185 . S
C313 O325 1.355 . S
C314 O316 1.185 . S
C314 O317 1.355 . S
Dy315 O319 2.310 1_655 S
Dy315 O322 2.351 1_665 S
Dy315 O324 2.398 . S
Dy315 O325 2.491 . S
Dy315 O326 2.403 1_565 S
Dy315 O327 2.664 1_565 S
Dy315 O329 2.326 . S
O316 Dy312 2.398 . S
O316 C314 1.185 . S
O317 Dy312 2.491 . S
O317 C314 1.355 . S
O318 Dy312 2.403 1_565 S
O318 C320 1.254 . S
O319 Dy312 2.664 1_565 S
O319 Dy315 2.310 1_455 S
O319 C320 1.268 . S
C320 O318 1.254 . S
C320 O319 1.268 . S
C321 O326 1.254 . S
C321 O327 1.268 . S
O322 Dy315 2.351 1_445 S
O322 C330 1.249 . S
O323 Dy312 2.326 . S
O323 C330 1.267 . S
O324 C313 1.185 . S
O324 Dy315 2.398 . S
O325 C313 1.355 . S
O325 Dy315 2.491 . S
O326 Dy315 2.403 1_545 S
O326 C321 1.254 . S
O327 Dy312 2.310 1_655 S
O327 Dy315 2.664 1_545 S
O327 C321 1.268 . S
O328 Dy312 2.351 1_665 S
O328 C331 1.249 . S
O329 Dy315 2.326 . S
O329 C331 1.267 . S
C330 O322 1.249 . S
C330 O323 1.267 . S
C331 O328 1.249 . S
C331 O329 1.267 . S
Dy332 O336 2.398 . S
Dy332 O337 2.491 . S
Dy332 O338 2.403 1_545 S
Dy332 O339 2.664 1_545 S
Dy332 O343 2.326 . S
Dy332 O347 2.310 1_554 S
Dy332 O348 2.351 1_544 S
C333 O344 1.185 . S
C333 O345 1.355 . S
C334 O336 1.185 . S
C334 O337 1.355 . S
Dy335 O339 2.286 1_546 S
Dy335 O342 2.372 1_556 S
Dy335 O344 2.394 1_545 S
Dy335 O345 2.458 1_545 S
Dy335 O346 2.434 . S
Dy335 O347 2.682 . S
Dy335 O349 2.311 1_545 S
O336 Dy332 2.398 . S
O336 C334 1.185 . S
O337 Dy332 2.491 . S
O337 C334 1.355 . S
O338 Dy332 2.403 1_565 S
O338 C340 1.254 . S
O339 Dy332 2.664 1_565 S
O339 Dy335 2.286 1_564 S
O339 C340 1.268 . S
C340 O338 1.254 . S
C340 O339 1.268 . S
C341 O346 1.254 . S
C341 O347 1.268 . S
O342 Dy335 2.372 1_554 S
O342 C350 1.249 . S
O343 Dy332 2.326 . S
O343 C350 1.267 . S
O344 C333 1.185 . S
O344 Dy335 2.394 1_565 S
O345 C333 1.355 . S
O345 Dy335 2.458 1_565 S
O346 Dy335 2.434 . S
O346 C341 1.254 . S
O347 Dy332 2.310 1_556 S
O347 Dy335 2.682 . S
O347 C341 1.268 . S
O348 Dy332 2.351 1_566 S
O348 C351 1.249 . S
O349 Dy335 2.311 1_565 S
O349 C351 1.267 . S
C350 O342 1.249 . S
C350 O343 1.267 . S
C351 O348 1.249 . S
C351 O349 1.267 . S
Dy352 O356 2.398 . S
Dy352 O357 2.491 . S
Dy352 O358 2.403 . S
Dy352 O359 2.664 . S
Dy352 O363 2.326 . S
Dy352 O367 2.310 . S
Dy352 O368 2.351 . S
C353 O364 1.185 . S
C353 O365 1.355 . S
C354 O356 1.185 . S
C354 O357 1.355 . S
Dy355 O359 2.310 . S
Dy355 O362 2.351 . S
Dy355 O364 2.398 . S
Dy355 O365 2.491 . S
Dy355 O366 2.403 . S
Dy355 O367 2.664 . S
Dy355 O369 2.326 . S
O356 Dy352 2.398 . S
O356 C354 1.185 . S
O357 Dy352 2.491 . S
O357 C354 1.355 . S
O358 Dy352 2.403 . S
O358 C360 1.254 . S
O359 Dy352 2.664 . S
O359 Dy355 2.310 . S
O359 C360 1.268 . S
C360 O358 1.254 . S
C360 O359 1.268 . S
C361 O366 1.254 . S
C361 O367 1.268 . S
O362 Dy355 2.351 . S
O362 C370 1.249 . S
O363 Dy352 2.326 . S
O363 C370 1.267 . S
O364 C353 1.185 . S
O364 Dy355 2.398 . S
O365 C353 1.355 . S
O365 Dy355 2.491 . S
O366 Dy355 2.403 . S
O366 C361 1.254 . S
O367 Dy352 2.310 . S
O367 Dy355 2.664 . S
O367 C361 1.268 . S
O368 Dy352 2.351 . S
O368 C371 1.249 . S
O369 Dy355 2.326 . S
O369 C371 1.267 . S
C370 O362 1.249 . S
C370 O363 1.267 . S
C371 O368 1.249 . S
C371 O369 1.267 . S
Dy372 O376 2.398 . S
Dy372 O377 2.491 . S
Dy372 O378 2.403 1_455 S
Dy372 O379 2.664 1_455 S
Dy372 O383 2.326 . S
Dy372 O387 2.310 1_554 S
Dy372 O388 2.351 1_454 S
C373 O384 1.185 . S
C373 O385 1.355 . S
C374 O376 1.185 . S
C374 O377 1.355 . S
Dy375 O379 2.310 1_556 S
Dy375 O382 2.351 1_656 S
Dy375 O384 2.398 . S
Dy375 O385 2.491 . S
Dy375 O386 2.403 1_655 S
Dy375 O387 2.664 1_655 S
Dy375 O389 2.326 . S
O376 Dy372 2.398 . S
O376 C374 1.185 . S
O377 Dy372 2.491 . S
O377 C374 1.355 . S
O378 Dy372 2.403 1_655 S
O378 C380 1.254 . S
O379 Dy372 2.664 1_655 S
O379 Dy375 2.310 1_554 S
O379 C380 1.268 . S
C380 O378 1.254 . S
C380 O379 1.268 . S
C381 O386 1.254 . S
C381 O387 1.268 . S
O382 Dy375 2.351 1_454 S
O382 C390 1.249 . S
O383 Dy372 2.326 . S
O383 C390 1.267 . S
O384 C373 1.185 . S
O384 Dy375 2.398 . S
O385 C373 1.355 . S
O385 Dy375 2.491 . S
O386 Dy375 2.403 1_455 S
O386 C381 1.254 . S
O387 Dy372 2.310 1_556 S
O387 Dy375 2.664 1_455 S
O387 C381 1.268 . S
O388 Dy372 2.351 1_656 S
O388 C391 1.249 . S
O389 Dy375 2.326 . S
O389 C391 1.267 . S
C390 O382 1.249 . S
C390 O383 1.267 . S
C391 O388 1.249 . S
C391 O389 1.267 . S
H392 C398 0.930 . S
H393 C402 0.930 . S
H394 C407 0.929 . S
H395 C405 0.929 . S
H396 C400 0.929 . S
H397 C406 0.929 . S
C398 H392 0.930 . S
C398 C399 1.367 . S
C398 C406 1.378 . S
C399 C398 1.367 . S
C399 C407 1.433 . S
C400 H396 0.929 . S
C400 C402 1.378 . S
C400 C404 1.350 . S
C401 C404 1.463 . S
C401 C406 1.350 . S
C401 N409 1.427 . S
C402 H393 0.930 . S
C402 C400 1.378 . S
C402 C403 1.367 . S
C403 C402 1.367 . S
C403 C405 1.433 . S
C404 C400 1.350 . S
C404 C401 1.463 . S
C404 N408 1.427 . S
C405 H395 0.929 . S
C405 C403 1.433 . S
C405 N408 1.384 . S
C406 H397 0.929 . S
C406 C398 1.378 . S
C406 C401 1.350 . S
C407 H394 0.929 . S
C407 C399 1.433 . S
C407 N409 1.384 . S
N408 C404 1.427 . S
N408 C405 1.384 . S
N409 C401 1.427 . S
N409 C407 1.384 . S
H410 C416 0.930 . S
H411 C420 0.930 . S
H412 C425 0.929 . S
H413 C423 0.929 . S
H414 C418 0.929 . S
H415 C424 0.929 . S
C416 H410 0.930 . S
C416 C417 1.367 . S
C416 C424 1.378 . S
C417 C416 1.367 . S
C417 C425 1.433 . S
C418 H414 0.929 . S
C418 C420 1.378 . S
C418 C422 1.350 . S
C419 C422 1.463 . S
C419 C424 1.350 . S
C419 N427 1.427 . S
C420 H411 0.930 . S
C420 C418 1.378 . S
C420 C421 1.367 . S
C421 C420 1.367 . S
C421 C423 1.433 . S
C422 C418 1.350 . S
C422 C419 1.463 . S
C422 N426 1.427 . S
C423 H413 0.929 . S
C423 C421 1.433 . S
C423 N426 1.384 . S
C424 H415 0.929 . S
C424 C416 1.378 . S
C424 C419 1.350 . S
C425 H412 0.929 . S
C425 C417 1.433 . S
C425 N427 1.384 . S
N426 C422 1.427 . S
N426 C423 1.384 . S
N427 C419 1.427 . S
N427 C425 1.384 . S
H428 C434 0.930 . S
H429 C438 0.930 . S
H430 C443 0.929 . S
H431 C441 0.929 . S
H432 C436 0.929 . S
H433 C442 0.929 . S
C434 H428 0.930 . S
C434 C435 1.367 . S
C434 C442 1.378 . S
C435 C434 1.367 . S
C435 C443 1.433 . S
C436 H432 0.929 . S
C436 C438 1.378 . S
C436 C440 1.350 . S
C437 C440 1.463 . S
C437 C442 1.350 . S
C437 N445 1.427 . S
C438 H429 0.930 . S
C438 C436 1.378 . S
C438 C439 1.367 . S
C439 C438 1.367 . S
C439 C441 1.433 . S
C440 C436 1.350 . S
C440 C437 1.463 . S
C440 N444 1.427 . S
C441 H431 0.929 . S
C441 C439 1.433 . S
C441 N444 1.384 . S
C442 H433 0.929 . S
C442 C434 1.378 . S
C442 C437 1.350 . S
C443 H430 0.929 . S
C443 C435 1.433 . S
C443 N445 1.384 . S
N444 C440 1.427 . S
N444 C441 1.384 . S
N445 C437 1.427 . S
N445 C443 1.384 . S
H446 C452 0.930 . S
H447 C456 0.930 . S
H448 C461 0.929 . S
H449 C459 0.929 . S
H450 C454 0.929 . S
H451 C460 0.929 . S
C452 H446 0.930 . S
C452 C453 1.367 . S
C452 C460 1.378 . S
C453 C452 1.367 . S
C453 C461 1.433 . S
C454 H450 0.929 . S
C454 C456 1.378 . S
C454 C458 1.350 . S
C455 C458 1.463 . S
C455 C460 1.350 . S
C455 N463 1.427 . S
C456 H447 0.930 . S
C456 C454 1.378 . S
C456 C457 1.367 . S
C457 C456 1.367 . S
C457 C459 1.433 . S
C458 C454 1.350 . S
C458 C455 1.463 . S
C458 N462 1.427 . S
C459 H449 0.929 . S
C459 C457 1.433 . S
C459 N462 1.384 . S
C460 H451 0.929 . S
C460 C452 1.378 . S
C460 C455 1.350 . S
C461 H448 0.929 . S
C461 C453 1.433 . S
C461 N463 1.384 . S
N462 C458 1.427 . S
N462 C459 1.384 . S
N463 C455 1.427 . S
N463 C461 1.384 . S
H464 C470 0.930 . S
H465 C474 0.930 . S
H466 C479 0.929 . S
H467 C477 0.929 . S
H468 C472 0.929 . S
H469 C478 0.929 . S
C470 H464 0.930 . S
C470 C471 1.367 . S
C470 C478 1.378 . S
C471 C470 1.367 . S
C471 C479 1.433 . S
C472 H468 0.929 . S
C472 C474 1.378 . S
C472 C476 1.350 . S
C473 C476 1.463 . S
C473 C478 1.350 . S
C473 N481 1.427 . S
C474 H465 0.930 . S
C474 C472 1.378 . S
C474 C475 1.367 . S
C475 C474 1.367 . S
C475 C477 1.433 . S
C476 C472 1.350 . S
C476 C473 1.463 . S
C476 N480 1.427 . S
C477 H467 0.929 . S
C477 C475 1.433 . S
C477 N480 1.384 . S
C478 H469 0.929 . S
C478 C470 1.378 . S
C478 C473 1.350 . S
C479 H466 0.929 . S
C479 C471 1.433 . S
C479 N481 1.384 . S
N480 C476 1.427 . S
N480 C477 1.384 . S
N481 C473 1.427 . S
N481 C479 1.384 . S
H482 C488 0.930 . S
H483 C492 0.930 . S
H484 C497 0.929 . S
H485 C495 0.929 . S
H486 C490 0.929 . S
H487 C496 0.929 . S
C488 H482 0.930 . S
C488 C489 1.367 . S
C488 C496 1.378 . S
C489 C488 1.367 . S
C489 C497 1.433 . S
C490 H486 0.929 . S
C490 C492 1.378 . S
C490 C494 1.350 . S
C491 C494 1.463 . S
C491 C496 1.350 . S
C491 N499 1.427 . S
C492 H483 0.930 . S
C492 C490 1.378 . S
C492 C493 1.367 . S
C493 C492 1.367 . S
C493 C495 1.433 . S
C494 C490 1.350 . S
C494 C491 1.463 . S
C494 N498 1.427 . S
C495 H485 0.929 . S
C495 C493 1.433 . S
C495 N498 1.384 . S
C496 H487 0.929 . S
C496 C488 1.378 . S
C496 C491 1.350 . S
C497 H484 0.929 . S
C497 C489 1.433 . S
C497 N499 1.384 . S
N498 C494 1.427 . S
N498 C495 1.384 . S
N499 C491 1.427 . S
N499 C497 1.384 . S
H500 C506 0.930 . S
H501 C510 0.930 . S
H502 C515 0.929 . S
H503 C513 0.929 . S
H504 C508 0.929 . S
H505 C514 0.929 . S
C506 H500 0.930 . S
C506 C507 1.367 . S
C506 C514 1.378 . S
C507 C506 1.367 . S
C507 C515 1.433 . S
C508 H504 0.929 . S
C508 C510 1.378 . S
C508 C512 1.350 . S
C509 C512 1.463 . S
C509 C514 1.350 . S
C509 N517 1.427 . S
C510 H501 0.930 . S
C510 C508 1.378 . S
C510 C511 1.367 . S
C511 C510 1.367 . S
C511 C513 1.433 . S
C512 C508 1.350 . S
C512 C509 1.463 . S
C512 N516 1.427 . S
C513 H503 0.929 . S
C513 C511 1.433 . S
C513 N516 1.384 . S
C514 H505 0.929 . S
C514 C506 1.378 . S
C514 C509 1.350 . S
C515 H502 0.929 . S
C515 C507 1.433 . S
C515 N517 1.384 . S
N516 C512 1.427 . S
N516 C513 1.384 . S
N517 C509 1.427 . S
N517 C515 1.384 . S
H518 C524 0.930 . S
H519 C528 0.930 . S
H520 C533 0.929 . S
H521 C531 0.929 . S
H522 C526 0.929 . S
H523 C532 0.929 . S
C524 H518 0.930 . S
C524 C525 1.367 . S
C524 C532 1.378 . S
C525 C524 1.367 . S
C525 C533 1.433 . S
C526 H522 0.929 . S
C526 C528 1.378 . S
C526 C530 1.350 . S
C527 C530 1.463 . S
C527 C532 1.350 . S
C527 N535 1.427 . S
C528 H519 0.930 . S
C528 C526 1.378 . S
C528 C529 1.367 . S
C529 C528 1.367 . S
C529 C531 1.433 . S
C530 C526 1.350 . S
C530 C527 1.463 . S
C530 N534 1.427 . S
C531 H521 0.929 . S
C531 C529 1.433 . S
C531 N534 1.384 . S
C532 H523 0.929 . S
C532 C524 1.378 . S
C532 C527 1.350 . S
C533 H520 0.929 . S
C533 C525 1.433 . S
C533 N535 1.384 . S
N534 C530 1.427 . S
N534 C531 1.384 . S
N535 C527 1.427 . S
N535 C533 1.384 . S
H536 C542 0.930 . S
H537 C546 0.930 . S
H538 C551 0.929 . S
H539 C549 0.929 . S
H540 C544 0.929 . S
H541 C550 0.929 . S
C542 H536 0.930 . S
C542 C543 1.367 . S
C542 C550 1.378 . S
C543 C542 1.367 . S
C543 C551 1.433 . S
C544 H540 0.929 . S
C544 C546 1.378 . S
C544 C548 1.350 . S
C545 C548 1.463 . S
C545 C550 1.350 . S
C545 N553 1.427 . S
C546 H537 0.930 . S
C546 C544 1.378 . S
C546 C547 1.367 . S
C547 C546 1.367 . S
C547 C549 1.433 . S
C548 C544 1.350 . S
C548 C545 1.463 . S
C548 N552 1.427 . S
C549 H539 0.929 . S
C549 C547 1.433 . S
C549 N552 1.384 . S
C550 H541 0.929 . S
C550 C542 1.378 . S
C550 C545 1.350 . S
C551 H538 0.929 . S
C551 C543 1.433 . S
C551 N553 1.384 . S
N552 C548 1.427 . S
N552 C549 1.384 . S
N553 C545 1.427 . S
N553 C551 1.384 . S
H554 C560 0.930 . S
H555 C564 0.930 . S
H556 C569 0.929 . S
H557 C567 0.929 . S
H558 C562 0.929 . S
H559 C568 0.929 . S
C560 H554 0.930 . S
C560 C561 1.367 . S
C560 C568 1.378 . S
C561 C560 1.367 . S
C561 C569 1.433 . S
C562 H558 0.929 . S
C562 C564 1.378 . S
C562 C566 1.350 . S
C563 C566 1.463 . S
C563 C568 1.350 . S
C563 N571 1.427 . S
C564 H555 0.930 . S
C564 C562 1.378 . S
C564 C565 1.367 . S
C565 C564 1.367 . S
C565 C567 1.433 . S
C566 C562 1.350 . S
C566 C563 1.463 . S
C566 N570 1.427 . S
C567 H557 0.929 . S
C567 C565 1.433 . S
C567 N570 1.384 . S
C568 H559 0.929 . S
C568 C560 1.378 . S
C568 C563 1.350 . S
C569 H556 0.929 . S
C569 C561 1.433 . S
C569 N571 1.384 . S
N570 C566 1.427 . S
N570 C567 1.384 . S
N571 C563 1.427 . S
N571 C569 1.384 . S
H572 C578 0.930 . S
H573 C582 0.939 . S
H574 C587 0.929 . S
H575 C585 0.929 . S
H576 C580 0.929 . S
H577 C586 0.929 . S
C578 H572 0.930 . S
C578 C579 1.367 . S
C578 C586 1.378 . S
C579 C578 1.367 . S
C579 C587 1.433 . S
C580 H576 0.929 . S
C580 C582 1.378 . S
C580 C584 1.350 . S
C581 C584 1.463 . S
C581 C586 1.350 . S
C581 N589 1.427 . S
C582 H573 0.939 . S
C582 C580 1.378 . S
C582 C583 1.367 . S
C583 C582 1.367 . S
C583 C585 1.433 . S
C584 C580 1.350 . S
C584 C581 1.463 . S
C584 N588 1.427 . S
C585 H575 0.929 . S
C585 C583 1.433 . S
C585 N588 1.384 . S
C586 H577 0.929 . S
C586 C578 1.378 . S
C586 C581 1.350 . S
C587 H574 0.929 . S
C587 C579 1.433 . S
C587 N589 1.384 . S
N588 C584 1.427 . S
N588 C585 1.384 . S
N589 C581 1.427 . S
N589 C587 1.384 . S
H590 C596 0.930 . S
H591 C600 0.930 . S
H592 C605 0.929 . S
H593 C603 0.929 . S
H594 C598 0.929 . S
H595 C604 0.929 . S
C596 H590 0.930 . S
C596 C597 1.367 . S
C596 C604 1.378 . S
C597 C596 1.367 . S
C597 C605 1.433 . S
C598 H594 0.929 . S
C598 C600 1.378 . S
C598 C602 1.350 . S
C599 C602 1.463 . S
C599 C604 1.350 . S
C599 N607 1.427 . S
C600 H591 0.930 . S
C600 C598 1.378 . S
C600 C601 1.367 . S
C601 C600 1.367 . S
C601 C603 1.433 . S
C602 C598 1.350 . S
C602 C599 1.463 . S
C602 N606 1.427 . S
C603 H593 0.929 . S
C603 C601 1.433 . S
C603 N606 1.384 . S
C604 H595 0.929 . S
C604 C596 1.378 . S
C604 C599 1.350 . S
C605 H592 0.929 . S
C605 C597 1.433 . S
C605 N607 1.384 . S
N606 C602 1.427 . S
N606 C603 1.384 . S
N607 C599 1.427 . S
N607 C605 1.384 . S
H608 C614 0.930 . S
H609 C618 0.930 . S
H610 C623 0.929 . S
H611 C621 0.929 . S
H612 C616 0.929 . S
H613 C622 0.929 . S
C614 H608 0.930 . S
C614 C615 1.367 . S
C614 C622 1.378 . S
C615 C614 1.367 . S
C615 C623 1.433 . S
C616 H612 0.929 . S
C616 C618 1.378 . S
C616 C620 1.350 . S
C617 C620 1.463 . S
C617 C622 1.350 . S
C617 N625 1.427 . S
C618 H609 0.930 . S
C618 C616 1.378 . S
C618 C619 1.367 . S
C619 C618 1.367 . S
C619 C621 1.433 . S
C620 C616 1.350 . S
C620 C617 1.463 . S
C620 N624 1.427 . S
C621 H611 0.929 . S
C621 C619 1.433 . S
C621 N624 1.384 . S
C622 H613 0.929 . S
C622 C614 1.378 . S
C622 C617 1.350 . S
C623 H610 0.929 . S
C623 C615 1.433 . S
C623 N625 1.384 . S
N624 C620 1.427 . S
N624 C621 1.384 . S
N625 C617 1.427 . S
N625 C623 1.384 . S
H626 C632 0.930 . S
H627 C636 0.930 . S
H628 C641 0.929 . S
H629 C639 0.929 . S
H630 C634 0.929 . S
H631 C640 0.929 . S
C632 H626 0.930 . S
C632 C633 1.367 . S
C632 C640 1.378 . S
C633 C632 1.367 . S
C633 C641 1.433 . S
C634 H630 0.929 . S
C634 C636 1.378 . S
C634 C638 1.350 . S
C635 C638 1.463 . S
C635 C640 1.350 . S
C635 N643 1.427 . S
C636 H627 0.930 . S
C636 C634 1.378 . S
C636 C637 1.367 . S
C637 C636 1.367 . S
C637 C639 1.433 . S
C638 C634 1.350 . S
C638 C635 1.463 . S
C638 N642 1.427 . S
C639 H629 0.929 . S
C639 C637 1.433 . S
C639 N642 1.384 . S
C640 H631 0.929 . S
C640 C632 1.378 . S
C640 C635 1.350 . S
C641 H628 0.929 . S
C641 C633 1.433 . S
C641 N643 1.384 . S
N642 C638 1.427 . S
N642 C639 1.384 . S
N643 C635 1.427 . S
N643 C641 1.384 . S
H644 C650 0.930 . S
H645 C654 0.930 . S
H646 C659 0.929 . S
H647 C657 0.929 . S
H648 C652 0.929 . S
H649 C658 0.929 . S
C650 H644 0.930 . S
C650 C651 1.367 . S
C650 C658 1.378 . S
C651 C650 1.367 . S
C651 C659 1.433 . S
C652 H648 0.929 . S
C652 C654 1.378 . S
C652 C656 1.350 . S
C653 C656 1.463 . S
C653 C658 1.350 . S
C653 N661 1.427 . S
C654 H645 0.930 . S
C654 C652 1.378 . S
C654 C655 1.367 . S
C655 C654 1.367 . S
C655 C657 1.433 . S
C656 C652 1.350 . S
C656 C653 1.463 . S
C656 N660 1.427 . S
C657 H647 0.929 . S
C657 C655 1.433 . S
C657 N660 1.384 . S
C658 H649 0.929 . S
C658 C650 1.378 . S
C658 C653 1.350 . S
C659 H646 0.929 . S
C659 C651 1.433 . S
C659 N661 1.384 . S
N660 C656 1.427 . S
N660 C657 1.384 . S
N661 C653 1.427 . S
N661 C659 1.384 . S
H662 C668 0.930 . S
H663 C672 0.930 . S
H664 C677 0.929 . S
H665 C675 0.929 . S
H666 C670 0.929 . S
H667 C676 0.929 . S
C668 H662 0.930 . S
C668 C669 1.367 . S
C668 C676 1.378 . S
C669 C668 1.367 . S
C669 C677 1.433 . S
C670 H666 0.929 . S
C670 C672 1.378 . S
C670 C674 1.350 . S
C671 C674 1.463 . S
C671 C676 1.350 . S
C671 N679 1.427 . S
C672 H663 0.930 . S
C672 C670 1.378 . S
C672 C673 1.367 . S
C673 C672 1.367 . S
C673 C675 1.433 . S
C674 C670 1.350 . S
C674 C671 1.463 . S
C674 N678 1.427 . S
C675 H665 0.929 . S
C675 C673 1.433 . S
C675 N678 1.384 . S
C676 H667 0.929 . S
C676 C668 1.378 . S
C676 C671 1.350 . S
C677 H664 0.929 . S
C677 C669 1.433 . S
C677 N679 1.384 . S
N678 C674 1.427 . S
N678 C675 1.384 . S
N679 C671 1.427 . S
N679 C677 1.384 . S
H680 C686 0.930 . S
H681 C690 0.930 . S
H682 C695 0.929 . S
H683 C693 0.929 . S
H684 C688 0.929 . S
H685 C694 0.929 . S
C686 H680 0.930 . S
C686 C687 1.367 . S
C686 C694 1.378 . S
C687 C686 1.367 . S
C687 C695 1.433 . S
C688 H684 0.929 . S
C688 C690 1.378 . S
C688 C692 1.350 . S
C689 C692 1.463 . S
C689 C694 1.350 . S
C689 N697 1.427 . S
C690 H681 0.930 . S
C690 C688 1.378 . S
C690 C691 1.367 . S
C691 C690 1.367 . S
C691 C693 1.433 . S
C692 C688 1.350 . S
C692 C689 1.463 . S
C692 N696 1.427 . S
C693 H683 0.929 . S
C693 C691 1.433 . S
C693 N696 1.384 . S
C694 H685 0.929 . S
C694 C686 1.378 . S
C694 C689 1.350 . S
C695 H682 0.929 . S
C695 C687 1.433 . S
C695 N697 1.384 . S
N696 C692 1.427 . S
N696 C693 1.384 . S
N697 C689 1.427 . S
N697 C695 1.384 . S
H698 C704 0.930 . S
H699 C708 0.930 . S
H700 C713 0.929 . S
H701 C711 0.929 . S
H702 C706 0.929 . S
H703 C712 0.929 . S
C704 H698 0.930 . S
C704 C705 1.367 . S
C704 C712 1.378 . S
C705 C704 1.367 . S
C705 C713 1.433 . S
C706 H702 0.929 . S
C706 C708 1.378 . S
C706 C710 1.350 . S
C707 C710 1.463 . S
C707 C712 1.350 . S
C707 N715 1.427 . S
C708 H699 0.930 . S
C708 C706 1.378 . S
C708 C709 1.367 . S
C709 C708 1.367 . S
C709 C711 1.433 . S
C710 C706 1.350 . S
C710 C707 1.463 . S
C710 N714 1.427 . S
C711 H701 0.929 . S
C711 C709 1.433 . S
C711 N714 1.384 . S
C712 H703 0.929 . S
C712 C704 1.378 . S
C712 C707 1.350 . S
C713 H700 0.929 . S
C713 C705 1.433 . S
C713 N715 1.384 . S
N714 C710 1.427 . S
N714 C711 1.384 . S
N715 C707 1.427 . S
N715 C713 1.384 . S
H716 C722 0.930 . S
H717 C726 0.930 1_556 S
H718 C731 0.929 . S
H719 C729 0.929 . S
H720 C724 0.929 . S
H721 C730 0.929 . S
C722 H716 0.930 . S
C722 C723 1.367 . S
C722 C730 1.378 . S
C723 C722 1.367 . S
C723 C731 1.433 . S
C724 H720 0.929 . S
C724 C726 1.378 . S
C724 C728 1.350 . S
C725 C728 1.463 . S
C725 C730 1.350 . S
C725 N733 1.427 . S
C726 H717 0.930 1_554 S
C726 C724 1.378 . S
C726 C727 1.367 . S
C727 C726 1.367 . S
C727 C729 1.433 . S
C728 C724 1.350 . S
C728 C725 1.463 . S
C728 N732 1.427 . S
C729 H719 0.929 . S
C729 C727 1.433 . S
C729 N732 1.384 . S
C730 H721 0.929 . S
C730 C722 1.378 . S
C730 C725 1.350 . S
C731 H718 0.929 . S
C731 C723 1.433 . S
C731 N733 1.384 . S
N732 C728 1.427 . S
N732 C729 1.384 . S
N733 C725 1.427 . S
N733 C731 1.384 . S
H734 C740 0.930 . S
H735 C744 0.930 . S
H736 C749 0.929 . S
H737 C747 0.929 . S
H738 C742 0.929 . S
H739 C748 0.929 . S
C740 H734 0.930 . S
C740 C741 1.367 . S
C740 C748 1.378 . S
C741 C740 1.367 . S
C741 C749 1.433 . S
C742 H738 0.929 . S
C742 C744 1.378 . S
C742 C746 1.350 . S
C743 C746 1.463 . S
C743 C748 1.350 . S
C743 N751 1.427 . S
C744 H735 0.930 . S
C744 C742 1.378 . S
C744 C745 1.367 . S
C745 C744 1.367 . S
C745 C747 1.433 . S
C746 C742 1.350 . S
C746 C743 1.463 . S
C746 N750 1.427 . S
C747 H737 0.929 . S
C747 C745 1.433 . S
C747 N750 1.384 . S
C748 H739 0.929 . S
C748 C740 1.378 . S
C748 C743 1.350 . S
C749 H736 0.929 . S
C749 C741 1.433 . S
C749 N751 1.384 . S
N750 C746 1.427 . S
N750 C747 1.384 . S
N751 C743 1.427 . S
N751 C749 1.384 . S
H752 C758 0.930 . S
H753 C762 0.930 . S
H754 C767 0.929 . S
H755 C765 0.929 . S
H756 C760 0.929 . S
H757 C766 0.929 . S
C758 H752 0.930 . S
C758 C759 1.367 . S
C758 C766 1.378 . S
C759 C758 1.367 . S
C759 C767 1.433 . S
C760 H756 0.929 . S
C760 C762 1.378 . S
C760 C764 1.350 . S
C761 C764 1.463 . S
C761 C766 1.350 . S
C761 N769 1.427 . S
C762 H753 0.930 . S
C762 C760 1.378 . S
C762 C763 1.367 . S
C763 C762 1.367 . S
C763 C765 1.433 . S
C764 C760 1.350 . S
C764 C761 1.463 . S
C764 N768 1.427 . S
C765 H755 0.929 . S
C765 C763 1.433 . S
C765 N768 1.384 . S
C766 H757 0.929 . S
C766 C758 1.378 . S
C766 C761 1.350 . S
C767 H754 0.929 . S
C767 C759 1.433 . S
C767 N769 1.384 . S
N768 C764 1.427 . S
N768 C765 1.384 . S
N769 C761 1.427 . S
N769 C767 1.384 . S
H770 C776 0.930 . S
H771 C780 0.930 . S
H772 C785 0.929 . S
H773 C783 0.929 . S
H774 C778 0.929 . S
H775 C784 0.929 . S
C776 H770 0.930 . S
C776 C777 1.367 . S
C776 C784 1.378 . S
C777 C776 1.367 . S
C777 C785 1.433 . S
C778 H774 0.929 . S
C778 C780 1.378 . S
C778 C782 1.350 . S
C779 C782 1.463 . S
C779 C784 1.350 . S
C779 N787 1.427 . S
C780 H771 0.930 . S
C780 C778 1.378 . S
C780 C781 1.367 . S
C781 C780 1.367 . S
C781 C783 1.433 . S
C782 C778 1.350 . S
C782 C779 1.463 . S
C782 N786 1.427 . S
C783 H773 0.929 . S
C783 C781 1.433 . S
C783 N786 1.384 . S
C784 H775 0.929 . S
C784 C776 1.378 . S
C784 C779 1.350 . S
C785 H772 0.929 . S
C785 C777 1.433 . S
C785 N787 1.384 . S
N786 C782 1.427 . S
N786 C783 1.384 . S
N787 C779 1.427 . S
N787 C785 1.384 . S
H788 C794 0.930 . S
H789 C798 0.930 . S
H790 C803 0.929 . S
H791 C801 0.929 . S
H792 C796 0.929 . S
H793 C802 0.929 . S
C794 H788 0.930 . S
C794 C795 1.367 . S
C794 C802 1.378 . S
C795 C794 1.367 . S
C795 C803 1.433 . S
C796 H792 0.929 . S
C796 C798 1.378 . S
C796 C800 1.350 . S
C797 C800 1.463 . S
C797 C802 1.350 . S
C797 N805 1.427 . S
C798 H789 0.930 . S
C798 C796 1.378 . S
C798 C799 1.367 . S
C799 C798 1.367 . S
C799 C801 1.433 . S
C800 C796 1.350 . S
C800 C797 1.463 . S
C800 N804 1.427 . S
C801 H791 0.929 . S
C801 C799 1.433 . S
C801 N804 1.384 . S
C802 H793 0.929 . S
C802 C794 1.378 . S
C802 C797 1.350 . S
C803 H790 0.929 . S
C803 C795 1.433 . S
C803 N805 1.384 . S
N804 C800 1.427 . S
N804 C801 1.384 . S
N805 C797 1.427 . S
N805 C803 1.384 . S
H806 C812 0.930 . S
H807 C816 0.930 . S
H808 C821 0.929 . S
H809 C819 0.929 . S
H810 C814 0.929 . S
H811 C820 0.929 . S
C812 H806 0.930 . S
C812 C813 1.367 . S
C812 C820 1.378 . S
C813 C812 1.367 . S
C813 C821 1.433 . S
C814 H810 0.929 . S
C814 C816 1.378 . S
C814 C818 1.350 . S
C815 C818 1.463 . S
C815 C820 1.350 . S
C815 N823 1.427 . S
C816 H807 0.930 . S
C816 C814 1.378 . S
C816 C817 1.367 . S
C817 C816 1.367 . S
C817 C819 1.433 . S
C818 C814 1.350 . S
C818 C815 1.463 . S
C818 N822 1.427 . S
C819 H809 0.929 . S
C819 C817 1.433 . S
C819 N822 1.384 . S
C820 H811 0.929 . S
C820 C812 1.378 . S
C820 C815 1.350 . S
C821 H808 0.929 . S
C821 C813 1.433 . S
C821 N823 1.384 . S
N822 C818 1.427 . S
N822 C819 1.384 . S
N823 C815 1.427 . S
N823 C821 1.384 . S
C399 C1 1.538 . S
C403 C314 1.558 . S
C417 C40 1.368 . S
C421 C333 1.347 . S
C439 C370 1.739 . S
C435 C99 1.772 . S
C453 C118 1.702 . S
C457 C380 1.647 . S
C475 C350 2.019 . S
C471 C16 1.969 . S
C493 C320 1.416 . S
C489 C60 1.486 . S
C511 C391 1.512 . S
C507 C79 1.539 . S
C529 C361 1.383 . S
C525 C138 1.405 . S
C543 C21 1.748 . S
C547 C374 1.778 . S
C565 C341 1.717 . S
C561 C94 1.769 . S
C579 C133 1.724 . S
C583 C331 1.726 . S
C597 C55 1.235 . S
C601 C353 1.241 . S
C619 C313 1.563 . S
C615 C157 1.538 . S
C633 C196 1.368 . S
C637 C334 1.335 . S
C651 C255 1.769 . S
C655 C371 1.745 . S
C669 C289 1.702 . S
C673 C381 1.643 . S
C687 C172 1.970 . S
C691 C351 2.016 . S
C709 C321 1.426 . S
C705 C216 1.497 . S
C727 C390 1.519 . S
C723 C235 1.540 . S
C745 C360 1.383 . S
C741 C294 1.400 . S
C759 C177 1.756 . S
C763 C373 1.780 . S
C781 C340 1.716 . S
C777 C250 1.770 . S
C799 C330 1.728 . S
C795 C274 1.730 . S
C813 C211 1.238 . S
C817 C354 1.230 . S
