# Generated by pormake.
# Topology ftw, (4,12)-cn, num edge types: 1
# Building blocks:
#     Node 0, Type 0, BuildingBlock: AZAVOO_clean_linker_0, # of connection points: 4
#     Node 1, Type 0, BuildingBlock: AZAVOO_clean_linker_0, # of connection points: 4
#     Node 2, Type 0, BuildingBlock: AZAVOO_clean_linker_0, # of connection points: 4
#     Node 3, Type 1, BuildingBlock: EZIPEK_clean_sbu_0, # of connection points: 12
#     Edge 4, Type (0, 1), BuildingBlock: EZIPEK_clean_linker_0, # of connection points: 2
#     Edge 5, Type (0, 1), BuildingBlock: EZIPEK_clean_linker_0, # of connection points: 2
#     Edge 6, Type (0, 1), BuildingBlock: EZIPEK_clean_linker_0, # of connection points: 2
#     Edge 7, Type (0, 1), BuildingBlock: EZIPEK_clean_linker_0, # of connection points: 2
#     Edge 8, Type (0, 1), BuildingBlock: EZIPEK_clean_linker_0, # of connection points: 2
#     Edge 9, Type (0, 1), BuildingBlock: EZIPEK_clean_linker_0, # of connection points: 2
#     Edge 10, Type (0, 1), BuildingBlock: EZIPEK_clean_linker_0, # of connection points: 2
#     Edge 11, Type (0, 1), BuildingBlock: EZIPEK_clean_linker_0, # of connection points: 2
#     Edge 12, Type (0, 1), BuildingBlock: EZIPEK_clean_linker_0, # of connection points: 2
#     Edge 13, Type (0, 1), BuildingBlock: EZIPEK_clean_linker_0, # of connection points: 2
#     Edge 14, Type (0, 1), BuildingBlock: EZIPEK_clean_linker_0, # of connection points: 2
#     Edge 15, Type (0, 1), BuildingBlock: EZIPEK_clean_linker_0, # of connection points: 2
# Relax obj value: 0.060
# Max RMSD: 0.221
# Mean RMSD: 0.172
data_MOF--net-ftw--node1-EZIPEK_clean_sbu_0--node2-AZAVOO_clean_linker_0--edge1-EZIPEK_clean_linker_0
_symmetry_space_group_name_H-M    P1
_symmetry_Int_Tables_number       1
_symmetry_cell_setting            triclinic
loop_
_symmetry_equiv_pos_as_xyz
'x, y, z'
_cell_length_a     22.417881
_cell_length_b     22.418946
_cell_length_c     22.42736
_cell_angle_alpha  91.82166
_cell_angle_beta   88.292475
_cell_angle_gamma 91.736689
loop_
_atom_site_label
_atom_site_type_symbol
_atom_site_fract_x
_atom_site_fract_y
_atom_site_fract_z
_atom_type_partial_charge
H0 H 0.04511 0.11011 0.4651 0.0
H1 H 0.91578 0.55536 0.8952 0.0
H2 H 0.11018 0.46304 0.38359 0.0
H3 H 0.11877 0.38871 0.3011 0.0
H4 H 0.92709 0.38018 0.28949 0.0
H5 H 0.91885 0.45731 0.36894 0.0
H6 H 0.09597 0.36598 0.50245 0.0
H7 H 0.09081 0.25674 0.49544 0.0
H8 H 0.90952 0.26292 0.43569 0.0
H9 H 0.91404 0.37171 0.44659 0.0
H10 H 0.09072 0.4293 0.61886 0.0
H11 H 0.09013 0.35228 0.6942 0.0
H12 H 0.90765 0.30359 0.65374 0.0
H13 H 0.90716 0.3834 0.58101 0.0
H14 H 0.08371 0.54123 0.64464 0.0
H15 H 0.0761 0.55017 0.75361 0.0
H16 H 0.88372 0.53617 0.74561 0.0
H17 H 0.89229 0.52275 0.63697 0.0
H18 H 0.07947 0.65208 0.53383 0.0
H19 H 0.07688 0.73354 0.60985 0.0
H20 H 0.89164 0.68916 0.64943 0.0
H21 H 0.89258 0.61325 0.56898 0.0
H22 H 0.09358 0.58255 0.3889 0.0
H23 H 0.09441 0.66032 0.31391 0.0
H24 H 0.91049 0.69601 0.35967 0.0
H25 H 0.90961 0.61813 0.43459 0.0
O26 O 0.04584 0.15325 0.46895 0.0
O27 O 0.95066 0.1587 0.44503 0.0
O28 O 0.01909 0.55916 0.8537 0.0
O29 O 0.92003 0.55085 0.85224 0.0
C30 C 0.00702 0.48623 0.44557 0.0
C31 C 0.00494 0.44194 0.48935 0.0
C32 C 0.99942 0.45853 0.54998 0.0
C33 C 0.99398 0.51856 0.56782 0.0
C34 C 0.99358 0.56332 0.5246 0.0
C35 C 1.00104 0.54748 0.46292 0.0
C36 C 0.01382 0.46548 0.3824 0.0
C37 C 0.0703 0.44789 0.36079 0.0
C38 C 0.07514 0.40471 0.31456 0.0
C39 C 0.02339 0.377 0.29144 0.0
C40 C 0.96746 0.39989 0.30802 0.0
C41 C 0.96279 0.44459 0.35265 0.0
C42 C 0.00602 0.37699 0.47317 0.0
C43 C 0.05554 0.34365 0.48692 0.0
C44 C 0.0522 0.28124 0.48363 0.0
C45 C 0.9998 0.25109 0.46474 0.0
C46 C 0.95064 0.28471 0.45007 0.0
C47 C 0.95354 0.34699 0.45496 0.0
C48 C 0.99871 0.41219 0.59546 0.0
C49 C 0.05034 0.40272 0.62713 0.0
C50 C 0.05016 0.35871 0.66946 0.0
C51 C 0.99886 0.32259 0.67918 0.0
C52 C 0.94748 0.33136 0.64671 0.0
C53 C 0.94718 0.37656 0.60551 0.0
C54 C 0.9885 0.53314 0.63287 0.0
C55 C 0.03996 0.54069 0.66651 0.0
C56 C 0.03547 0.5454 0.72875 0.0
C57 C 0.97923 0.54497 0.75829 0.0
C58 C 0.92769 0.53756 0.72428 0.0
C59 C 0.93239 0.53066 0.66219 0.0
C60 C 0.98648 0.62589 0.54677 0.0
C61 C 0.03739 0.66261 0.55612 0.0
C62 C 0.03612 0.70835 0.60023 0.0
C63 C 0.98491 0.7153 0.6374 0.0
C64 C 0.93213 0.68369 0.62247 0.0
C65 C 0.93252 0.64066 0.57613 0.0
C66 C 0.00147 0.59433 0.4172 0.0
C67 C 0.05335 0.60686 0.38261 0.0
C68 C 0.0539 0.65133 0.34004 0.0
C69 C 0.00251 0.68398 0.33121 0.0
C70 C 0.95062 0.67147 0.36582 0.0
C71 C 0.95015 0.6271 0.40851 0.0
C72 C 0.997 0.18494 0.4591 0.0
C73 C 0.97424 0.55205 0.82425 0.0
H74 H 0.5676 0.97672 0.1084 0.0
H75 H 0.11777 0.11485 0.55573 0.0
H76 H 0.6014 0.91877 0.43209 0.0
H77 H 0.67864 0.91436 0.35337 0.0
H78 H 0.74256 0.0911 0.40624 0.0
H79 H 0.65955 0.09832 0.48021 0.0
H80 H 0.51408 0.93391 0.36065 0.0
H81 H 0.53293 0.93388 0.25258 0.0
H82 H 0.56921 0.12436 0.26371 0.0
H83 H 0.55381 0.12302 0.37221 0.0
H84 H 0.3811 0.94684 0.4243 0.0
H85 H 0.30512 0.94767 0.34798 0.0
H86 H 0.36092 0.12764 0.30521 0.0
H87 H 0.4338 0.12837 0.38512 0.0
H88 H 0.36 0.94911 0.54453 0.0
H89 H 0.25169 0.95644 0.55611 0.0
H90 H 0.2682 0.14624 0.52807 0.0
H91 H 0.3768 0.13847 0.51823 0.0
H92 H 0.4506 0.93138 0.618 0.0
H93 H 0.37035 0.92649 0.69414 0.0
H94 H 0.38409 0.11755 0.72184 0.0
H95 H 0.4608 0.12291 0.64137 0.0
H96 H 0.61837 0.93065 0.56378 0.0
H97 H 0.69424 0.92469 0.64032 0.0
H98 H 0.64946 0.10013 0.70845 0.0
H99 H 0.57513 0.10697 0.63094 0.0
O100 O 0.56032 0.97769 0.15117 0.0
O101 O 0.57748 0.07581 0.15922 0.0
O102 O 0.15361 0.01174 0.5544 0.0
O103 O 0.1604 0.11068 0.55002 0.0
C104 C 0.56201 0.02149 0.48285 0.0
C105 C 0.51847 0.0289 0.4392 0.0
C106 C 0.45847 0.03629 0.45636 0.0
C107 C 0.44105 0.03761 0.51691 0.0
C108 C 0.48404 0.03165 0.56127 0.0
C109 C 0.54523 0.02395 0.54464 0.0
C110 C 0.62377 0.00942 0.46082 0.0
C111 C 0.63318 0.95592 0.42814 0.0
C112 C 0.67706 0.9536 0.38278 0.0
C113 C 0.71506 0.00335 0.37219 0.0
C114 C 0.71256 0.05286 0.41241 0.0
C115 C 0.66593 0.05664 0.4554 0.0
C116 C 0.53452 0.02813 0.37436 0.0
C117 C 0.52764 0.97527 0.33977 0.0
C118 C 0.53782 0.97552 0.27801 0.0
C119 C 0.55328 0.02903 0.24955 0.0
C120 C 0.55809 0.08225 0.28427 0.0
C121 C 0.54976 0.08159 0.34626 0.0
C122 C 0.41261 0.0376 0.41018 0.0
C123 C 0.37613 0.98681 0.39922 0.0
C124 C 0.33317 0.98721 0.3557 0.0
C125 C 0.32757 0.03772 0.32116 0.0
C126 C 0.36452 0.08842 0.33172 0.0
C127 C 0.40615 0.0887 0.37677 0.0
C128 C 0.37643 0.04357 0.53247 0.0
C129 C 0.34033 0.99252 0.54275 0.0
C130 C 0.27836 0.99665 0.54819 0.0
C131 C 0.25125 0.05191 0.54271 0.0
C132 C 0.28762 0.10302 0.5325 0.0
C133 C 0.34968 0.09887 0.5276 0.0
C134 C 0.46129 0.02748 0.62376 0.0
C135 C 0.43819 0.972 0.64212 0.0
C136 C 0.39166 0.96934 0.68483 0.0
C137 C 0.36937 0.022 0.71145 0.0
C138 C 0.39933 0.07665 0.70023 0.0
C139 C 0.44401 0.07959 0.65534 0.0
C140 C 0.59086 0.0193 0.59143 0.0
C141 C 0.62509 0.96802 0.59488 0.0
C142 C 0.66814 0.96445 0.63874 0.0
C143 C 0.67742 0.01189 0.68028 0.0
C144 C 0.64296 0.06293 0.67706 0.0
C145 C 0.60036 0.06669 0.63297 0.0
C146 C 0.56438 0.02918 0.18397 0.0
C147 C 0.18547 0.05661 0.54912 0.0
H148 H 0.4557 0.10899 0.96034 0.0
H149 H 0.8818 0.59586 0.10187 0.0
H150 H 0.40253 0.43033 0.90338 0.0
H151 H 0.32631 0.35045 0.90237 0.0
H152 H 0.27015 0.40196 0.08188 0.0
H153 H 0.35182 0.4779 0.08514 0.0
H154 H 0.49843 0.36239 0.91384 0.0
H155 H 0.48375 0.25374 0.91525 0.0
H156 H 0.44494 0.26642 0.10515 0.0
H157 H 0.45638 0.37524 0.10238 0.0
H158 H 0.63054 0.4335 0.92438 0.0
H159 H 0.70894 0.3596 0.92565 0.0
H160 H 0.65048 0.3121 0.10355 0.0
H161 H 0.57615 0.39032 0.10442 0.0
H162 H 0.64734 0.55036 0.92764 0.0
H163 H 0.75428 0.57234 0.93824 0.0
H164 H 0.73292 0.55743 0.1294 0.0
H165 H 0.62689 0.53162 0.11775 0.0
H166 H 0.52917 0.6406 0.91804 0.0
H167 H 0.60205 0.72466 0.91091 0.0
H168 H 0.63917 0.7086 0.09735 0.0
H169 H 0.56118 0.63117 0.10593 0.0
H170 H 0.371 0.55563 0.92436 0.0
H171 H 0.29035 0.62682 0.92575 0.0
H172 H 0.36294 0.71555 0.08208 0.0
H173 H 0.43872 0.63965 0.08553 0.0
O174 O 0.46105 0.152 0.96063 0.0
O175 O 0.44102 0.16113 0.05816 0.0
O176 O 0.84777 0.59578 0.99809 0.0
O177 O 0.84007 0.58544 0.09633 0.0
C178 C 0.44509 0.48392 0.00329 0.0
C179 C 0.49075 0.44199 0.00782 0.0
C180 C 0.55038 0.46136 0.01302 0.0
C181 C 0.56542 0.52237 0.01515 0.0
C182 C 0.52045 0.56525 0.01184 0.0
C183 C 0.4594 0.54644 0.00619 0.0
C184 C 0.38363 0.45912 0.99473 0.0
C185 C 0.37261 0.42582 0.94192 0.0
C186 C 0.32943 0.37977 0.94157 0.0
C187 C 0.29394 0.36865 0.99288 0.0
C188 C 0.29824 0.40868 0.04239 0.0
C189 C 0.34404 0.45273 0.04394 0.0
C190 C 0.47699 0.37664 0.00772 0.0
C191 C 0.48539 0.34162 0.95538 0.0
C192 C 0.4775 0.27959 0.95645 0.0
C193 C 0.46258 0.25141 0.01024 0.0
C194 C 0.45574 0.28671 0.06285 0.0
C195 C 0.46185 0.34886 0.06137 0.0
C196 C 0.59793 0.41708 0.01433 0.0
C197 C 0.63561 0.40805 0.96407 0.0
C198 C 0.67984 0.36582 0.96465 0.0
C199 C 0.68512 0.33041 0.01458 0.0
C200 C 0.64703 0.33917 0.06471 0.0
C201 C 0.60453 0.38325 0.06506 0.0
C202 C 0.62932 0.54054 0.02201 0.0
C203 C 0.66585 0.55219 0.97175 0.0
C204 C 0.72683 0.56479 0.97798 0.0
C205 C 0.75188 0.56799 0.03479 0.0
C206 C 0.715 0.55602 0.08506 0.0
C207 C 0.6544 0.54165 0.0786 0.0
C208 C 0.54073 0.62897 0.01232 0.0
C209 C 0.5503 0.65789 0.95808 0.0
C210 C 0.59292 0.70481 0.95375 0.0
C211 C 0.62868 0.7205 0.0027 0.0
C212 C 0.61357 0.69628 0.05839 0.0
C213 C 0.56845 0.65249 0.06353 0.0
C214 C 0.41137 0.59153 0.00503 0.0
C215 C 0.36885 0.58921 0.96003 0.0
C216 C 0.32311 0.63048 0.96032 0.0
C217 C 0.32049 0.67703 0.00382 0.0
C218 C 0.36377 0.68022 0.04799 0.0
C219 C 0.40767 0.6372 0.04942 0.0
C220 C 0.45424 0.18552 0.01138 0.0
C221 C 0.81614 0.58381 0.0417 0.0
C222 C 0.00488 0.14283 0.8566 0.0
C223 C 0.01007 0.15965 0.14075 0.0
C224 C 0.99011 0.85635 0.85745 0.0
C225 C 0.00166 0.86674 0.14914 0.0
C226 C 0.13877 0.85774 0.00118 0.0
C227 C 0.14812 0.15116 0.99283 0.0
C228 C 0.84719 0.86545 0.00392 0.0
C229 C 0.86115 0.14828 0.00985 0.0
C230 C 0.86156 0.00217 0.15468 0.0
C231 C 0.14893 0.01986 0.14084 0.0
C232 C 0.85806 0.00393 0.86191 0.0
C233 C 0.15092 5e-05 0.85643 0.0
Eu234 Eu 0.00543 0.11678 1.00035 0.0
O235 O 0.05719 0.06017 0.05288 0.0
O236 O 0.9511 0.05507 0.94994 0.0
Eu237 Eu 0.11469 0.00473 0.99912 0.0
Eu238 Eu 0.88947 0.00637 0.00685 0.0
O239 O 0.05728 0.05544 0.9465 0.0
O240 O 0.95082 0.0615 0.05772 0.0
Eu241 Eu 0.00323 1.00001 0.88913 0.0
Eu242 Eu 0.00374 0.01105 0.11591 0.0
O243 O 0.05267 0.94837 0.94897 0.0
O244 O 0.05173 0.95417 0.05331 0.0
O245 O 0.94756 0.9554 0.05861 0.0
O246 O 0.94695 0.95102 0.95165 0.0
Eu247 Eu 0.99519 0.89125 0.00364 0.0
O248 O 0.00526 0.16331 0.91295 0.0
O249 O 0.0235 0.17056 0.0841 0.0
O250 O 0.98776 0.83902 0.91423 0.0
O251 O 0.98636 0.84778 0.09434 0.0
O252 O 0.1597 0.91434 0.99936 0.0
O253 O 0.16623 0.09485 0.99566 0.0
O254 O 0.83363 0.92256 0.00321 0.0
O255 O 0.84092 0.09214 0.01125 0.0
O256 O 0.91838 0.00355 0.17022 0.0
O257 O 0.09257 0.02163 0.16187 0.0
O258 O 0.91468 0.99991 0.84191 0.0
O259 O 0.09433 0.99283 0.83901 0.0
O260 O 0.90245 0.84421 0.0053 0.0
O261 O 0.08128 0.83999 0.0029 0.0
O262 O 0.91834 0.16658 0.0062 0.0
O263 O 0.09192 0.16801 0.99237 0.0
O264 O 0.99572 0.10501 0.16065 0.0
O265 O 0.01573 0.9237 0.16387 0.0
O266 O 0.00518 0.08564 0.83827 0.0
O267 O 0.99682 0.91214 0.8396 0.0
O268 O 0.16644 0.00924 0.91269 0.0
O269 O 0.1662 0.0133 0.08377 0.0
O270 O 0.83994 0.00753 0.91933 0.0
O271 O 0.84176 0.0036 0.09887 0.0
C272 C 0.01019 0.32452 0.19269 0.0
C273 C 0.0262 0.32178 0.25266 0.0
C274 C 0.03175 0.21205 0.24203 0.0
C275 C 0.01131 0.21405 0.1824 0.0
N276 N 0.96518 0.27447 0.10882 0.0
N277 N 0.05771 0.26167 0.33335 0.0
C278 C 0.99651 0.27099 0.15983 0.0
C279 C 0.03816 0.26569 0.27688 0.0
N280 N 0.00959 0.37869 0.16632 0.0
N281 N 0.04593 0.15954 0.26686 0.0
H282 H 0.06608 0.29822 0.3619 0.0
H283 H 0.06608 0.29822 0.3619 0.0
H284 H 0.04623 0.1183 0.24471 0.0
H285 H 0.05975 0.15723 0.31077 0.0
H286 H 0.00563 0.38331 0.12053 0.0
H287 H 0.01962 0.41886 0.18914 0.0
H288 H 0.94731 0.31381 0.09469 0.0
H289 H 0.9497 0.23757 0.08449 0.0
C290 C 0.74509 0.0489 0.27286 0.0
C291 C 0.75302 0.00458 0.31606 0.0
C292 C 0.81898 0.95151 0.2446 0.0
C293 C 0.81763 0.99973 0.20537 0.0
N294 N 0.78466 0.09816 0.18497 0.0
N295 N 0.80762 0.92005 0.34649 0.0
C296 C 0.78193 0.0494 0.22011 0.0
C297 C 0.79268 0.95748 0.30275 0.0
N298 N 0.70093 0.08926 0.28066 0.0
N299 N 0.84438 0.89935 0.2258 0.0
H300 H 0.79186 0.92497 0.39056 0.0
H301 H 0.84037 0.88823 0.34053 0.0
H302 H 0.86533 0.89382 0.18392 0.0
H303 H 0.84061 0.86039 0.24996 0.0
H304 H 0.68861 0.11742 0.24737 0.0
H305 H 0.67287 0.09142 0.31826 0.0
H306 H 0.76603 0.13881 0.19764 0.0
H307 H 0.80906 0.0994 0.14476 0.0
C308 C 0.99921 0.792 0.30275 0.0
C309 C 0.00293 0.73095 0.28526 0.0
C310 C 0.01688 0.75971 0.18115 0.0
C311 C 0.00349 0.82042 0.19695 0.0
N312 N 0.9686 0.88933 0.2761 0.0
N313 N 0.00229 0.65591 0.20598 0.0
C314 C 0.99121 0.83537 0.25872 0.0
C315 C 0.0076 0.71462 0.22393 0.0
N316 N 0.0043 0.809 0.36149 0.0
N317 N 0.04222 0.74469 0.1268 0.0
H318 H 0.99521 0.62145 0.2358 0.0
H319 H 0.9989 0.64224 0.16131 0.0
H320 H 0.05562 0.77557 0.09526 0.0
H321 H 0.05774 0.70218 0.11619 0.0
H322 H 0.00877 0.85351 0.37597 0.0
H323 H 0.0101 0.77867 0.39502 0.0
H324 H 0.95393 0.89922 0.31972 0.0
H325 H 0.95686 0.92169 0.24696 0.0
C326 C 0.2366 0.07649 0.27389 0.0
C327 C 0.28421 0.03621 0.27254 0.0
C328 C 0.24208 0.98343 0.18578 0.0
C329 C 0.19694 0.02645 0.18458 0.0
N330 N 0.1651 0.12491 0.21498 0.0
N331 N 0.34149 0.96256 0.21688 0.0
C332 C 0.19818 0.07632 0.22495 0.0
C333 C 0.28985 0.99305 0.22524 0.0
N334 N 0.22627 0.11317 0.32269 0.0
N335 N 0.23841 0.93231 0.15113 0.0
H336 H 0.37843 0.97001 0.24364 0.0
H337 H 0.34992 0.93473 0.17967 0.0
H338 H 0.20375 0.92294 0.12213 0.0
H339 H 0.26682 0.89682 0.15523 0.0
H340 H 0.18851 0.13914 0.32754 0.0
H341 H 0.25202 0.11331 0.36065 0.0
H342 H 0.16981 0.16492 0.23964 0.0
H343 H 0.13799 0.12739 0.17819 0.0
C344 C 0.94626 0.79715 0.70617 0.0
C345 C 0.98702 0.75065 0.69509 0.0
C346 C 0.02567 0.7673 0.79633 0.0
C347 C 0.98278 0.8116 0.8078 0.0
N348 N 0.89191 0.85668 0.78022 0.0
N349 N 0.05878 0.68431 0.73398 0.0
C350 C 0.93972 0.82252 0.76467 0.0
C351 C 0.02484 0.73367 0.74142 0.0
N352 N 0.91581 0.81913 0.66015 0.0
N353 N 0.06871 0.75873 0.83679 0.0
H354 H 0.06135 0.65903 0.69449 0.0
H355 H 0.08118 0.66555 0.76846 0.0
H356 H 0.06841 0.77902 0.87916 0.0
H357 H 0.10646 0.73375 0.82745 0.0
H358 H 0.88991 0.85691 0.66455 0.0
H359 H 0.92133 0.80341 0.61611 0.0
H360 H 0.85604 0.86197 0.75256 0.0
H361 H 0.88524 0.87445 0.82338 0.0
C362 C 0.31267 0.9877 0.80245 0.0
C363 C 0.31304 0.01859 0.74859 0.0
C364 C 0.20339 0.0256 0.75653 0.0
C365 C 0.20317 0.99736 0.81251 0.0
N366 N 0.25577 0.93345 0.87671 0.0
N367 N 0.26052 0.07782 0.68034 0.0
C368 C 0.25748 0.97338 0.83196 0.0
C369 C 0.25896 0.04046 0.72727 0.0
N370 N 0.36565 0.97505 0.82737 0.0
N371 N 0.15127 0.0346 0.7285 0.0
H372 H 0.29907 0.0878 0.65536 0.0
H373 H 0.22448 0.10322 0.66943 0.0
H374 H 0.10925 0.02225 0.74515 0.0
H375 H 0.1497 0.04824 0.68464 0.0
H376 H 0.36892 0.9593 0.87029 0.0
H377 H 0.40709 0.98614 0.80767 0.0
H378 H 0.29208 0.90886 0.88837 0.0
H379 H 0.21615 0.9196 0.8977 0.0
C380 C 0.03866 0.22773 0.71555 0.0
C381 C 0.99912 0.27563 0.72379 0.0
C382 C 0.9578 0.23153 0.81468 0.0
C383 C 0.00258 0.18801 0.81048 0.0
N384 N 0.0948 0.15429 0.76432 0.0
N385 N 0.93008 0.3303 0.78803 0.0
C386 C 0.0456 0.18858 0.7629 0.0
C387 C 0.96114 0.27968 0.77532 0.0
N388 N 0.06838 0.21858 0.66209 0.0
N389 N 0.91092 0.22593 0.85469 0.0
H390 H 0.93262 0.36749 0.7612 0.0
H391 H 0.90655 0.33761 0.82825 0.0
H392 H 0.90565 0.19021 0.88314 0.0
H393 H 0.87413 0.25328 0.85522 0.0
H394 H 0.09344 0.1809 0.65237 0.0
H395 H 0.06318 0.24539 0.62552 0.0
H396 H 0.13067 0.15858 0.73396 0.0
H397 H 0.10276 0.12643 0.79937 0.0
C398 C 0.71607 0.96904 0.77446 0.0
C399 C 0.72397 0.00887 0.72661 0.0
C400 C 0.81567 0.0499 0.77163 0.0
C401 C 0.81128 0.00585 0.8159 0.0
N402 N 0.76241 0.91633 0.85286 0.0
N403 N 0.78758 0.07919 0.67352 0.0
C404 C 0.76278 0.96344 0.81559 0.0
C405 C 0.77565 0.04699 0.72344 0.0
N406 N 0.66311 0.93796 0.78189 0.0
N407 N 0.85629 0.09633 0.777 0.0
H408 H 0.75985 0.07776 0.63693 0.0
H409 H 0.82771 0.10279 0.66603 0.0
H410 H 0.88491 0.10133 0.81268 0.0
H411 H 0.85736 0.13306 0.74965 0.0
H412 H 0.65228 0.9133 0.81949 0.0
H413 H 0.62777 0.94108 0.75305 0.0
H414 H 0.73174 0.88058 0.85015 0.0
H415 H 0.7961 0.90992 0.88283 0.0
C416 C 0.26664 0.2682 0.03743 0.0
C417 C 0.25608 0.31257 0.99503 0.0
C418 C 0.18791 0.24233 0.94337 0.0
C419 C 0.19264 0.20126 0.9897 0.0
N420 N 0.2295 0.17914 0.08628 0.0
N421 N 0.19616 0.3456 0.91546 0.0
C422 C 0.23032 0.21507 0.03813 0.0
C423 C 0.21373 0.3006 0.9501 0.0
N424 N 0.31248 0.27549 0.07596 0.0
N425 N 0.15925 0.22515 0.89242 0.0
H426 H 0.21204 0.3896 0.92098 0.0
H427 H 0.1613 0.34064 0.88583 0.0
H428 H 0.14132 0.18206 0.88563 0.0
H429 H 0.15885 0.25127 0.85484 0.0
H430 H 0.32661 0.24146 0.10228 0.0
H431 H 0.3397 0.31371 0.07841 0.0
H432 H 0.25003 0.19113 0.12616 0.0
H433 H 0.2046 0.13926 0.08825 0.0
C434 C 0.235 0.73305 0.05426 0.0
C435 C 0.27271 0.72253 0.00303 0.0
C436 C 0.21414 0.79225 0.94821 0.0
C437 C 0.18357 0.81002 0.00172 0.0
N438 N 0.17127 0.80271 0.10845 0.0
N439 N 0.30574 0.75418 0.90496 0.0
C440 C 0.19595 0.78206 0.05566 0.0
C441 C 0.26436 0.75542 0.9509 0.0
N442 N 0.23403 0.69461 0.10037 0.0
N443 N 0.19415 0.80868 0.89447 0.0
H444 H 0.34522 0.73092 0.90639 0.0
H445 H 0.30392 0.78172 0.86849 0.0
H446 H 0.15703 0.83514 0.89081 0.0
H447 H 0.21149 0.79198 0.85385 0.0
H448 H 0.20331 0.69718 0.13609 0.0
H449 H 0.25927 0.65628 0.09972 0.0
H450 H 0.18379 0.78811 0.14979 0.0
H451 H 0.14152 0.83765 0.11108 0.0
C452 C 0.7273 0.23624 0.96969 0.0
C453 C 0.72973 0.28308 0.01377 0.0
C454 C 0.81087 0.23432 0.0611 0.0
C455 C 0.81546 0.19402 0.0115 0.0
N456 N 0.78199 0.1603 0.91429 0.0
N457 N 0.78247 0.33284 0.09475 0.0
C458 C 0.77481 0.19599 0.9644 0.0
C459 C 0.77399 0.28397 0.05768 0.0
N460 N 0.67848 0.22842 0.93486 0.0
N461 N 0.83887 0.2235 0.11268 0.0
H462 H 0.75813 0.37154 0.09205 0.0
H463 H 0.81791 0.33702 0.12382 0.0
H464 H 0.8647 0.18612 0.11749 0.0
H465 H 0.83192 0.24872 0.15201 0.0
H466 H 0.67218 0.19154 0.90604 0.0
H467 H 0.64127 0.2552 0.93936 0.0
H468 H 0.7573 0.16468 0.87612 0.0
H469 H 0.81608 0.12982 0.90883 0.0
C470 C 0.73234 0.74458 0.95772 0.0
C471 C 0.68349 0.75999 0.99703 0.0
C472 C 0.74736 0.83532 0.04675 0.0
C473 C 0.79434 0.82392 0.00443 0.0
N474 N 0.82624 0.77699 0.91105 0.0
N475 N 0.6408 0.83247 0.06629 0.0
C476 C 0.78547 0.78111 0.95743 0.0
C477 C 0.68995 0.80928 0.03765 0.0
N478 N 0.72945 0.69416 0.92206 0.0
N479 N 0.75796 0.87004 0.09667 0.0
H480 H 0.59754 0.81615 0.0585 0.0
H481 H 0.64241 0.87179 0.09234 0.0
H482 H 0.80009 0.88829 0.10577 0.0
H483 H 0.72677 0.87531 0.1317 0.0
H484 H 0.76629 0.67761 0.8982 0.0
H485 H 0.69197 0.66591 0.91966 0.0
H486 H 0.81847 0.75186 0.87203 0.0
H487 H 0.86565 0.80277 0.90909 0.0
loop_
_geom_bond_atom_site_label_1
_geom_bond_atom_site_label_2
_geom_bond_distance
_geom_bond_site_symmetry_2
_ccdc_geom_bond_type
H0 O26 0.856 . S
H1 O29 0.854 . S
H2 C37 0.930 . S
H3 C38 0.930 . S
H4 C40 0.930 . S
H5 C41 0.930 . S
H6 C43 0.931 . S
H7 C44 0.930 . S
H8 C46 0.930 . S
H9 C47 0.929 . S
H10 C49 0.930 . S
H11 C50 0.931 . S
H12 C52 0.930 . S
H13 C53 0.929 . S
H14 C55 0.931 . S
H15 C56 0.930 . S
H16 C58 0.930 . S
H17 C59 0.932 . S
H18 C61 0.930 . S
H19 C62 0.929 . S
H20 C64 0.931 . S
H21 C65 0.930 . S
H22 C67 0.929 . S
H23 C68 0.931 . S
H24 C70 0.930 . S
H25 C71 0.929 . S
O26 H0 0.856 . S
O26 C72 1.300 1_455 S
O27 C72 1.209 . S
O28 C73 1.199 1_455 S
O29 H1 0.854 . S
O29 C73 1.297 . S
C30 C31 1.404 . S
C30 C35 1.397 1_655 S
C30 C36 1.492 1_655 S
C31 C30 1.404 . S
C31 C32 1.396 . S
C31 C42 1.492 . S
C32 C31 1.396 . S
C32 C33 1.397 . S
C32 C48 1.509 . S
C33 C32 1.397 . S
C33 C34 1.413 . S
C33 C54 1.485 . S
C34 C33 1.413 . S
C34 C35 1.389 1_655 S
C34 C60 1.490 1_655 S
C35 C30 1.397 1_455 S
C35 C34 1.389 1_455 S
C35 C66 1.518 1_455 S
C36 C30 1.492 1_455 S
C36 C37 1.363 . S
C36 C41 1.390 1_455 S
C37 H2 0.930 . S
C37 C36 1.363 . S
C37 C38 1.372 . S
C38 H3 0.930 . S
C38 C37 1.372 . S
C38 C39 1.383 . S
C39 C38 1.383 . S
C39 C40 1.395 1_455 S
C40 H4 0.930 . S
C40 C39 1.395 1_655 S
C40 C41 1.362 . S
C41 H5 0.930 . S
C41 C36 1.390 1_655 S
C41 C40 1.362 . S
C42 C31 1.492 . S
C42 C43 1.377 1_655 S
C42 C47 1.397 . S
C43 H6 0.931 . S
C43 C42 1.377 1_455 S
C43 C44 1.376 . S
C44 H7 0.930 . S
C44 C43 1.376 . S
C44 C45 1.376 1_455 S
C45 C44 1.376 1_655 S
C45 C46 1.378 . S
C45 C72 1.486 . S
C46 H8 0.930 . S
C46 C45 1.378 . S
C46 C47 1.376 . S
C47 H9 0.929 . S
C47 C42 1.397 . S
C47 C46 1.376 . S
C48 C32 1.509 . S
C48 C49 1.391 1_655 S
C48 C53 1.386 . S
C49 H10 0.930 . S
C49 C48 1.391 1_455 S
C49 C50 1.375 . S
C50 H11 0.931 . S
C50 C49 1.375 . S
C50 C51 1.375 1_455 S
C51 C50 1.375 1_655 S
C51 C52 1.361 . S
C52 H12 0.930 . S
C52 C51 1.361 . S
C52 C53 1.399 . S
C53 H13 0.929 . S
C53 C48 1.386 . S
C53 C52 1.399 . S
C54 C33 1.485 . S
C54 C55 1.394 1_655 S
C54 C59 1.360 . S
C55 H14 0.931 . S
C55 C54 1.394 1_455 S
C55 C56 1.372 . S
C56 H15 0.930 . S
C56 C55 1.372 . S
C56 C57 1.397 1_455 S
C57 C56 1.397 1_655 S
C57 C58 1.390 . S
C57 C73 1.476 . S
C58 H16 0.930 . S
C58 C57 1.390 . S
C58 C59 1.366 . S
C59 H17 0.932 . S
C59 C54 1.360 . S
C59 C58 1.366 . S
C60 C34 1.490 1_455 S
C60 C61 1.380 . S
C60 C65 1.386 1_455 S
C61 H18 0.930 . S
C61 C60 1.380 . S
C61 C62 1.381 . S
C62 H19 0.929 . S
C62 C61 1.381 . S
C62 C63 1.371 . S
C63 C62 1.371 . S
C63 C64 1.380 1_455 S
C64 H20 0.931 . S
C64 C63 1.380 1_655 S
C64 C65 1.387 . S
C65 H21 0.930 . S
C65 C60 1.386 1_655 S
C65 C64 1.387 . S
C66 C35 1.518 1_655 S
C66 C67 1.377 1_655 S
C66 C71 1.361 . S
C67 H22 0.929 . S
C67 C66 1.377 1_455 S
C67 C68 1.386 . S
C68 H23 0.931 . S
C68 C67 1.386 . S
C68 C69 1.363 1_455 S
C69 C68 1.363 1_655 S
C69 C70 1.385 . S
C70 H24 0.930 . S
C70 C69 1.385 . S
C70 C71 1.396 . S
C71 H25 0.929 . S
C71 C66 1.361 . S
C71 C70 1.396 . S
C72 O26 1.300 1_655 S
C72 O27 1.209 . S
C72 C45 1.486 . S
C73 O28 1.199 1_655 S
C73 O29 1.297 . S
C73 C57 1.476 . S
H74 O100 0.856 1_545 S
H75 O103 0.854 . S
H76 C111 0.930 . S
H77 C112 0.930 . S
H78 C114 0.930 . S
H79 C115 0.930 . S
H80 C117 0.931 . S
H81 C118 0.930 . S
H82 C120 0.930 . S
H83 C121 0.929 . S
H84 C123 0.930 . S
H85 C124 0.931 . S
H86 C126 0.930 . S
H87 C127 0.929 . S
H88 C129 0.931 . S
H89 C130 0.930 . S
H90 C132 0.930 . S
H91 C133 0.932 . S
H92 C135 0.930 . S
H93 C136 0.929 . S
H94 C138 0.931 . S
H95 C139 0.930 . S
H96 C141 0.929 . S
H97 C142 0.931 . S
H98 C144 0.930 . S
H99 C145 0.929 . S
O100 H74 0.856 1_565 S
O100 C146 1.300 1_565 S
O101 C146 1.209 . S
O102 C147 1.199 1_565 S
O103 H75 0.854 . S
O103 C147 1.297 . S
C104 C105 1.404 . S
C104 C109 1.397 . S
C104 C110 1.492 . S
C105 C104 1.404 . S
C105 C106 1.396 . S
C105 C116 1.492 . S
C106 C105 1.396 . S
C106 C107 1.397 . S
C106 C122 1.509 . S
C107 C106 1.397 . S
C107 C108 1.412 . S
C107 C128 1.485 . S
C108 C107 1.412 . S
C108 C109 1.388 . S
C108 C134 1.490 . S
C109 C104 1.397 . S
C109 C108 1.388 . S
C109 C140 1.519 . S
C110 C104 1.492 . S
C110 C111 1.363 1_545 S
C110 C115 1.390 . S
C111 H76 0.930 . S
C111 C110 1.363 1_565 S
C111 C112 1.372 . S
C112 H77 0.930 . S
C112 C111 1.372 . S
C112 C113 1.383 . S
C113 C112 1.383 . S
C113 C114 1.395 1_565 S
C114 H78 0.930 . S
C114 C113 1.395 1_545 S
C114 C115 1.362 . S
C115 H79 0.930 . S
C115 C110 1.390 . S
C115 C114 1.362 . S
C116 C105 1.492 . S
C116 C117 1.377 1_545 S
C116 C121 1.397 . S
C117 H80 0.931 . S
C117 C116 1.377 1_565 S
C117 C118 1.376 . S
C118 H81 0.930 . S
C118 C117 1.376 . S
C118 C119 1.376 1_565 S
C119 C118 1.376 1_545 S
C119 C120 1.378 . S
C119 C146 1.486 . S
C120 H82 0.930 . S
C120 C119 1.378 . S
C120 C121 1.376 . S
C121 H83 0.929 . S
C121 C116 1.397 . S
C121 C120 1.376 . S
C122 C106 1.509 . S
C122 C123 1.391 1_545 S
C122 C127 1.386 . S
C123 H84 0.930 . S
C123 C122 1.391 1_565 S
C123 C124 1.375 . S
C124 H85 0.931 . S
C124 C123 1.375 . S
C124 C125 1.375 1_565 S
C125 C124 1.375 1_545 S
C125 C126 1.361 . S
C126 H86 0.930 . S
C126 C125 1.361 . S
C126 C127 1.399 . S
C127 H87 0.929 . S
C127 C122 1.386 . S
C127 C126 1.399 . S
C128 C107 1.485 . S
C128 C129 1.394 1_545 S
C128 C133 1.360 . S
C129 H88 0.931 . S
C129 C128 1.394 1_565 S
C129 C130 1.372 . S
C130 H89 0.930 . S
C130 C129 1.372 . S
C130 C131 1.397 1_565 S
C131 C130 1.397 1_545 S
C131 C132 1.390 . S
C131 C147 1.476 . S
C132 H90 0.930 . S
C132 C131 1.390 . S
C132 C133 1.366 . S
C133 H91 0.932 . S
C133 C128 1.360 . S
C133 C132 1.366 . S
C134 C108 1.490 . S
C134 C135 1.380 1_545 S
C134 C139 1.386 . S
C135 H92 0.930 . S
C135 C134 1.380 1_565 S
C135 C136 1.381 . S
C136 H93 0.929 . S
C136 C135 1.381 . S
C136 C137 1.371 . S
C137 C136 1.371 . S
C137 C138 1.380 1_565 S
C138 H94 0.931 . S
C138 C137 1.380 1_545 S
C138 C139 1.387 . S
C139 H95 0.930 . S
C139 C134 1.386 . S
C139 C138 1.387 . S
C140 C109 1.519 . S
C140 C141 1.377 1_545 S
C140 C145 1.361 . S
C141 H96 0.929 . S
C141 C140 1.377 1_565 S
C141 C142 1.386 . S
C142 H97 0.931 . S
C142 C141 1.386 . S
C142 C143 1.363 1_565 S
C143 C142 1.363 1_545 S
C143 C144 1.385 . S
C144 H98 0.930 . S
C144 C143 1.385 . S
C144 C145 1.396 . S
C145 H99 0.929 . S
C145 C140 1.361 . S
C145 C144 1.396 . S
C146 O100 1.300 1_545 S
C146 O101 1.209 . S
C146 C119 1.486 . S
C147 O102 1.199 1_545 S
C147 O103 1.297 . S
C147 C131 1.476 . S
H148 O174 0.856 . S
H149 O177 0.854 . S
H150 C185 0.930 . S
H151 C186 0.930 . S
H152 C188 0.930 . S
H153 C189 0.930 . S
H154 C191 0.931 . S
H155 C192 0.930 . S
H156 C194 0.930 . S
H157 C195 0.929 . S
H158 C197 0.930 . S
H159 C198 0.931 . S
H160 C200 0.930 . S
H161 C201 0.929 . S
H162 C203 0.931 . S
H163 C204 0.930 . S
H164 C206 0.930 . S
H165 C207 0.932 . S
H166 C209 0.930 . S
H167 C210 0.929 . S
H168 C212 0.931 . S
H169 C213 0.930 . S
H170 C215 0.929 . S
H171 C216 0.931 . S
H172 C218 0.930 . S
H173 C219 0.929 . S
O174 H148 0.856 . S
O174 C220 1.300 1_556 S
O175 C220 1.209 . S
O176 C221 1.199 1_556 S
O177 H149 0.854 . S
O177 C221 1.297 . S
C178 C179 1.404 . S
C178 C183 1.397 . S
C178 C184 1.490 1_554 S
C179 C178 1.404 . S
C179 C180 1.396 . S
C179 C190 1.492 . S
C180 C179 1.396 . S
C180 C181 1.397 . S
C180 C196 1.509 . S
C181 C180 1.397 . S
C181 C182 1.412 . S
C181 C202 1.485 . S
C182 C181 1.412 . S
C182 C183 1.388 . S
C182 C208 1.490 1_554 S
C183 C178 1.397 . S
C183 C182 1.388 . S
C183 C214 1.519 . S
C184 C178 1.490 1_556 S
C184 C185 1.378 . S
C184 C189 1.378 1_556 S
C185 H150 0.930 . S
C185 C184 1.378 . S
C185 C186 1.372 . S
C186 H151 0.930 . S
C186 C185 1.372 . S
C186 C187 1.383 . S
C187 C186 1.383 . S
C187 C188 1.395 1_556 S
C188 H152 0.930 . S
C188 C187 1.395 1_554 S
C188 C189 1.362 . S
C189 H153 0.930 . S
C189 C184 1.378 1_554 S
C189 C188 1.362 . S
C190 C179 1.492 . S
C190 C191 1.377 1_554 S
C190 C195 1.397 . S
C191 H154 0.931 . S
C191 C190 1.377 1_556 S
C191 C192 1.376 . S
C192 H155 0.930 . S
C192 C191 1.376 . S
C192 C193 1.376 1_556 S
C193 C192 1.376 1_554 S
C193 C194 1.378 . S
C193 C220 1.486 . S
C194 H156 0.930 . S
C194 C193 1.378 . S
C194 C195 1.376 . S
C195 H157 0.929 . S
C195 C190 1.397 . S
C195 C194 1.376 . S
C196 C180 1.509 . S
C196 C197 1.391 1_554 S
C196 C201 1.386 . S
C197 H158 0.930 . S
C197 C196 1.391 1_556 S
C197 C198 1.375 . S
C198 H159 0.931 . S
C198 C197 1.375 . S
C198 C199 1.375 1_556 S
C199 C198 1.375 1_554 S
C199 C200 1.361 . S
C200 H160 0.930 . S
C200 C199 1.361 . S
C200 C201 1.399 . S
C201 H161 0.929 . S
C201 C196 1.386 . S
C201 C200 1.399 . S
C202 C181 1.485 . S
C202 C203 1.394 1_554 S
C202 C207 1.360 . S
C203 H162 0.931 . S
C203 C202 1.394 1_556 S
C203 C204 1.372 . S
C204 H163 0.930 . S
C204 C203 1.372 . S
C204 C205 1.397 1_556 S
C205 C204 1.397 1_554 S
C205 C206 1.390 . S
C205 C221 1.476 . S
C206 H164 0.930 . S
C206 C205 1.390 . S
C206 C207 1.366 . S
C207 H165 0.932 . S
C207 C202 1.360 . S
C207 C206 1.366 . S
C208 C182 1.490 1_556 S
C208 C209 1.380 . S
C208 C213 1.386 1_556 S
C209 H166 0.930 . S
C209 C208 1.380 . S
C209 C210 1.381 . S
C210 H167 0.929 . S
C210 C209 1.381 . S
C210 C211 1.371 . S
C211 C210 1.371 . S
C211 C212 1.380 1_556 S
C212 H168 0.931 . S
C212 C211 1.380 1_554 S
C212 C213 1.387 . S
C213 H169 0.930 . S
C213 C208 1.386 1_554 S
C213 C212 1.387 . S
C214 C183 1.519 . S
C214 C215 1.377 1_554 S
C214 C219 1.361 . S
C215 H170 0.929 . S
C215 C214 1.377 1_556 S
C215 C216 1.386 . S
C216 H171 0.931 . S
C216 C215 1.386 . S
C216 C217 1.363 1_556 S
C217 C216 1.363 1_554 S
C217 C218 1.385 . S
C218 H172 0.930 . S
C218 C217 1.385 . S
C218 C219 1.396 . S
C219 H173 0.929 . S
C219 C214 1.361 . S
C219 C218 1.396 . S
C220 O174 1.300 1_554 S
C220 O175 1.209 . S
C220 C193 1.486 . S
C221 O176 1.199 1_554 S
C221 O177 1.297 . S
C221 C205 1.476 . S
C222 O248 1.283 . S
C222 O266 1.283 . S
C223 O249 1.283 . S
C223 O264 1.283 1_455 S
C224 O250 1.283 1_455 S
C224 O267 1.283 . S
C225 O251 1.283 . S
C225 O265 1.283 . S
C226 O252 1.283 . S
C226 O261 1.283 . S
C227 O253 1.283 . S
C227 O263 1.283 . S
C228 O254 1.283 . S
C228 O260 1.283 . S
C229 O255 1.283 . S
C229 O262 1.283 . S
C230 O256 1.283 . S
C230 O271 1.283 . S
C231 O257 1.283 . S
C231 O269 1.283 . S
C232 O258 1.283 . S
C232 O270 1.283 . S
C233 O259 1.283 . S
C233 O268 1.283 . S
Eu234 O235 2.370 . S
Eu234 O236 2.370 1_454 S
Eu234 O239 2.370 1_554 S
Eu234 O240 2.370 1_455 S
Eu234 O248 2.363 1_554 S
Eu234 O249 2.363 . S
Eu234 O262 2.363 1_455 S
Eu234 O263 2.363 . S
O235 Eu234 2.370 . S
O235 Eu237 2.370 . S
O235 Eu242 2.361 1_455 S
O236 Eu234 2.370 1_656 S
O236 Eu238 2.370 1_556 S
O236 Eu241 2.370 1_655 S
Eu237 O235 2.370 . S
Eu237 O239 2.370 1_554 S
Eu237 O243 2.370 1_544 S
Eu237 O244 2.370 1_545 S
Eu237 O252 2.363 1_544 S
Eu237 O253 2.363 . S
Eu237 O268 2.364 1_554 S
Eu237 O269 2.362 . S
Eu238 O236 2.370 1_554 S
Eu238 O240 2.370 . S
Eu238 O245 2.370 1_545 S
Eu238 O246 2.370 1_544 S
Eu238 O254 2.363 1_545 S
Eu238 O255 2.363 . S
Eu238 O270 2.363 1_554 S
Eu238 O271 2.363 . S
O239 Eu234 2.370 1_556 S
O239 Eu237 2.370 1_556 S
O239 Eu241 2.370 . S
O240 Eu234 2.370 1_655 S
O240 Eu238 2.370 . S
O240 Eu242 2.381 . S
Eu241 O236 2.370 1_455 S
Eu241 O239 2.370 . S
Eu241 O243 2.370 1_545 S
Eu241 O246 2.370 1_445 S
Eu241 O258 2.363 1_455 S
Eu241 O259 2.363 . S
Eu241 O266 2.363 . S
Eu241 O267 2.363 1_545 S
Eu242 O235 2.361 1_655 S
Eu242 O240 2.381 . S
Eu242 O244 2.360 1_645 S
Eu242 O245 2.380 1_545 S
Eu242 O256 2.380 . S
Eu242 O257 2.346 1_655 S
Eu242 O264 2.363 . S
Eu242 O265 2.363 1_545 S
O243 Eu237 2.370 1_566 S
O243 Eu241 2.370 1_565 S
O243 Eu247 2.361 1_456 S
O244 Eu237 2.370 1_565 S
O244 Eu242 2.360 1_465 S
O244 Eu247 2.360 1_455 S
O245 Eu238 2.370 1_565 S
O245 Eu242 2.380 1_565 S
O245 Eu247 2.380 . S
O246 Eu238 2.370 1_566 S
O246 Eu241 2.370 1_665 S
O246 Eu247 2.381 1_556 S
Eu247 O243 2.361 1_654 S
Eu247 O244 2.360 1_655 S
Eu247 O245 2.380 . S
Eu247 O246 2.381 1_554 S
Eu247 O250 2.364 1_554 S
Eu247 O251 2.362 . S
Eu247 O260 2.380 . S
Eu247 O261 2.346 1_654 S
O248 C222 1.283 . S
O248 Eu234 2.363 1_556 S
O249 C223 1.283 . S
O249 Eu234 2.363 . S
O250 C224 1.283 1_655 S
O250 Eu247 2.364 1_556 S
O251 C225 1.283 . S
O251 Eu247 2.362 . S
O252 C226 1.283 . S
O252 Eu237 2.363 1_566 S
O253 C227 1.283 . S
O253 Eu237 2.363 . S
O254 C228 1.283 . S
O254 Eu238 2.363 1_565 S
O255 C229 1.283 . S
O255 Eu238 2.363 . S
O256 C230 1.283 . S
O256 Eu242 2.380 . S
O257 C231 1.283 . S
O257 Eu242 2.346 1_455 S
O258 C232 1.283 . S
O258 Eu241 2.363 1_655 S
O259 C233 1.283 . S
O259 Eu241 2.363 . S
O260 C228 1.283 . S
O260 Eu247 2.380 . S
O261 C226 1.283 . S
O261 Eu247 2.346 1_456 S
O262 C229 1.283 . S
O262 Eu234 2.363 1_655 S
O263 C227 1.283 . S
O263 Eu234 2.363 . S
O264 C223 1.283 1_655 S
O264 Eu242 2.363 . S
O265 C225 1.283 . S
O265 Eu242 2.363 1_565 S
O266 C222 1.283 . S
O266 Eu241 2.363 . S
O267 C224 1.283 . S
O267 Eu241 2.363 1_565 S
O268 C233 1.283 . S
O268 Eu237 2.364 1_556 S
O269 C231 1.283 . S
O269 Eu237 2.362 . S
O270 C232 1.283 . S
O270 Eu238 2.363 1_556 S
O271 C230 1.283 . S
O271 Eu238 2.363 . S
C272 C273 1.363 1_655 S
C272 C278 1.379 . S
C272 N280 1.356 . S
C273 C272 1.363 1_455 S
C273 C279 1.363 . S
C274 C275 1.363 . S
C274 C279 1.379 . S
C274 N281 1.356 . S
C275 C274 1.363 . S
C275 C278 1.363 1_455 S
N276 C278 1.356 . S
N276 H288 0.984 . S
N276 H289 0.985 . S
N277 C279 1.356 . S
N277 H282 0.984 . S
N277 H283 0.985 . S
C278 C272 1.379 . S
C278 C275 1.363 1_655 S
C278 N276 1.356 . S
C279 C273 1.363 . S
C279 C274 1.379 . S
C279 N277 1.356 . S
N280 C272 1.356 . S
N280 H286 0.984 . S
N280 H287 0.984 . S
N281 C274 1.356 . S
N281 H284 0.984 . S
N281 H285 0.985 . S
H282 N277 0.984 . S
H283 N277 0.985 . S
H284 N281 0.984 . S
H285 N281 0.985 . S
H286 N280 0.984 . S
H287 N280 0.984 . S
H288 N276 0.984 . S
H289 N276 0.985 . S
C290 C291 1.363 1_545 S
C290 C296 1.379 . S
C290 N298 1.356 . S
C291 C290 1.363 1_565 S
C291 C297 1.363 . S
C292 C293 1.363 1_565 S
C292 C297 1.379 . S
C292 N299 1.356 . S
C293 C292 1.363 1_545 S
C293 C296 1.363 . S
N294 C296 1.356 . S
N294 H306 0.984 . S
N294 H307 0.985 . S
N295 C297 1.356 . S
N295 H300 0.984 . S
N295 H301 0.985 . S
C296 C290 1.379 . S
C296 C293 1.363 . S
C296 N294 1.356 . S
C297 C291 1.363 . S
C297 C292 1.379 . S
C297 N295 1.356 . S
N298 C290 1.356 . S
N298 H304 0.984 . S
N298 H305 0.984 . S
N299 C292 1.356 . S
N299 H302 0.984 . S
N299 H303 0.985 . S
H300 N295 0.984 . S
H301 N295 0.985 . S
H302 N299 0.984 . S
H303 N299 0.985 . S
H304 N298 0.984 . S
H305 N298 0.984 . S
H306 N294 0.984 . S
H307 N294 0.985 . S
C308 C309 1.363 . S
C308 C314 1.379 . S
C308 N316 1.356 . S
C309 C308 1.363 . S
C309 C315 1.363 1_655 S
C310 C311 1.363 1_455 S
C310 C315 1.379 . S
C310 N317 1.356 . S
C311 C310 1.363 1_655 S
C311 C314 1.363 . S
N312 C314 1.356 . S
N312 H324 0.984 . S
N312 H325 0.985 . S
N313 C315 1.356 . S
N313 H318 0.984 . S
N313 H319 0.985 . S
C314 C308 1.379 . S
C314 C311 1.363 . S
C314 N312 1.356 . S
C315 C309 1.363 1_455 S
C315 C310 1.379 . S
C315 N313 1.356 . S
N316 C308 1.356 . S
N316 H322 0.984 . S
N316 H323 0.984 . S
N317 C310 1.356 . S
N317 H320 0.984 . S
N317 H321 0.985 . S
H318 N313 0.984 . S
H319 N313 0.985 . S
H320 N317 0.984 . S
H321 N317 0.985 . S
H322 N316 0.984 . S
H323 N316 0.984 . S
H324 N312 0.984 . S
H325 N312 0.985 . S
C326 C327 1.363 . S
C326 C332 1.379 . S
C326 N334 1.356 . S
C327 C326 1.363 . S
C327 C333 1.363 . S
C328 C329 1.363 1_565 S
C328 C333 1.379 1_565 S
C328 N335 1.356 . S
C329 C328 1.363 1_545 S
C329 C332 1.363 . S
N330 C332 1.356 . S
N330 H342 0.984 . S
N330 H343 0.985 . S
N331 C333 1.356 1_565 S
N331 H336 0.990 . S
N331 H337 0.985 . S
C332 C326 1.379 . S
C332 C329 1.363 . S
C332 N330 1.356 . S
C333 C327 1.363 . S
C333 C328 1.379 1_545 S
C333 N331 1.356 1_545 S
N334 C326 1.356 . S
N334 H340 0.984 . S
N334 H341 0.984 . S
N335 C328 1.356 . S
N335 H338 0.984 . S
N335 H339 0.985 . S
H336 N331 0.990 . S
H337 N331 0.985 . S
H338 N335 0.984 . S
H339 N335 0.985 . S
H340 N334 0.984 . S
H341 N334 0.984 . S
H342 N330 0.984 . S
H343 N330 0.985 . S
C344 C345 1.363 1_655 S
C344 C350 1.379 . S
C344 N352 1.356 . S
C345 C344 1.363 1_455 S
C345 C351 1.363 . S
C346 C347 1.363 . S
C346 C351 1.379 . S
C346 N353 1.356 . S
C347 C346 1.363 . S
C347 C350 1.363 1_455 S
N348 C350 1.356 . S
N348 H360 0.984 . S
N348 H361 0.985 . S
N349 C351 1.356 . S
N349 H354 0.984 . S
N349 H355 0.985 . S
C350 C344 1.379 . S
C350 C347 1.363 1_655 S
C350 N348 1.356 . S
C351 C345 1.363 . S
C351 C346 1.379 . S
C351 N349 1.356 . S
N352 C344 1.356 . S
N352 H358 0.984 . S
N352 H359 0.984 . S
N353 C346 1.356 . S
N353 H356 0.984 . S
N353 H357 0.985 . S
H354 N349 0.984 . S
H355 N349 0.985 . S
H356 N353 0.984 . S
H357 N353 0.985 . S
H358 N352 0.984 . S
H359 N352 0.984 . S
H360 N348 0.984 . S
H361 N348 0.985 . S
C362 C363 1.363 . S
C362 C368 1.379 . S
C362 N370 1.356 . S
C363 C362 1.363 . S
C363 C369 1.363 1_565 S
C364 C365 1.363 . S
C364 C369 1.379 . S
C364 N371 1.356 . S
C365 C364 1.363 . S
C365 C368 1.363 1_545 S
N366 C368 1.356 . S
N366 H378 0.984 . S
N366 H379 0.985 . S
N367 C369 1.356 . S
N367 H372 0.984 . S
N367 H373 0.985 . S
C368 C362 1.379 . S
C368 C365 1.363 1_565 S
C368 N366 1.356 . S
C369 C363 1.363 1_545 S
C369 C364 1.379 . S
C369 N367 1.356 . S
N370 C362 1.356 . S
N370 H376 0.984 . S
N370 H377 0.984 . S
N371 C364 1.356 . S
N371 H374 0.984 . S
N371 H375 0.985 . S
H372 N367 0.984 . S
H373 N367 0.985 . S
H374 N371 0.984 . S
H375 N371 0.985 . S
H376 N370 0.984 . S
H377 N370 0.984 . S
H378 N366 0.984 . S
H379 N366 0.985 . S
C380 C381 1.363 . S
C380 C386 1.379 1_655 S
C380 N388 1.356 1_655 S
C381 C380 1.363 . S
C381 C387 1.363 . S
C382 C383 1.363 1_655 S
C382 C387 1.379 . S
C382 N389 1.356 . S
C383 C382 1.363 1_455 S
C383 C386 1.363 . S
N384 C386 1.356 . S
N384 H396 0.984 . S
N384 H397 0.985 . S
N385 C387 1.356 . S
N385 H390 0.984 . S
N385 H391 0.985 . S
C386 C380 1.379 1_455 S
C386 C383 1.363 . S
C386 N384 1.356 . S
C387 C381 1.363 . S
C387 C382 1.379 . S
C387 N385 1.356 . S
N388 C380 1.356 1_455 S
N388 H394 0.985 . S
N388 H395 0.984 1_455 S
N389 C382 1.356 . S
N389 H392 0.984 . S
N389 H393 0.985 . S
H390 N385 0.984 . S
H391 N385 0.985 . S
H392 N389 0.984 . S
H393 N389 0.985 . S
H394 N388 0.985 . S
H395 N388 0.984 1_655 S
H396 N384 0.984 . S
H397 N384 0.985 . S
C398 C399 1.363 . S
C398 C404 1.379 . S
C398 N406 1.356 . S
C399 C398 1.363 . S
C399 C405 1.363 . S
C400 C401 1.363 . S
C400 C405 1.379 . S
C400 N407 1.356 1_545 S
C401 C400 1.363 . S
C401 C404 1.363 . S
N402 C404 1.356 . S
N402 H414 0.984 . S
N402 H415 0.985 . S
N403 C405 1.356 . S
N403 H408 0.984 . S
N403 H409 0.984 . S
C404 C398 1.379 . S
C404 C401 1.363 . S
C404 N402 1.356 . S
C405 C399 1.363 . S
C405 C400 1.379 . S
C405 N403 1.356 . S
N406 C398 1.356 . S
N406 H412 0.984 . S
N406 H413 0.984 . S
N407 C400 1.356 1_565 S
N407 H410 0.984 . S
N407 H411 0.985 . S
H408 N403 0.984 . S
H409 N403 0.984 . S
H410 N407 0.984 . S
H411 N407 0.985 . S
H412 N406 0.984 . S
H413 N406 0.984 . S
H414 N402 0.984 . S
H415 N402 0.985 . S
C416 C417 1.363 1_554 S
C416 C422 1.379 . S
C416 N424 1.356 . S
C417 C416 1.363 1_556 S
C417 C423 1.363 . S
C418 C419 1.363 . S
C418 C423 1.379 . S
C418 N425 1.356 . S
C419 C418 1.363 . S
C419 C422 1.363 1_556 S
N420 C422 1.356 . S
N420 H432 0.984 . S
N420 H433 0.985 . S
N421 C423 1.356 . S
N421 H426 0.984 . S
N421 H427 0.985 . S
C422 C416 1.379 . S
C422 C419 1.363 1_554 S
C422 N420 1.356 . S
C423 C417 1.363 . S
C423 C418 1.379 . S
C423 N421 1.356 . S
N424 C416 1.356 . S
N424 H430 0.984 . S
N424 H431 0.984 . S
N425 C418 1.356 . S
N425 H428 0.984 . S
N425 H429 0.985 . S
H426 N421 0.984 . S
H427 N421 0.985 . S
H428 N425 0.984 . S
H429 N425 0.985 . S
H430 N424 0.984 . S
H431 N424 0.984 . S
H432 N420 0.984 . S
H433 N420 0.985 . S
C434 C435 1.363 . S
C434 C440 1.379 . S
C434 N442 1.356 . S
C435 C434 1.363 . S
C435 C441 1.363 1_554 S
C436 C437 1.363 1_556 S
C436 C441 1.379 . S
C436 N443 1.356 . S
C437 C436 1.363 1_554 S
C437 C440 1.363 . S
N438 C440 1.356 . S
N438 H450 0.984 . S
N438 H451 0.985 . S
N439 C441 1.356 . S
N439 H444 0.984 . S
N439 H445 0.985 . S
C440 C434 1.379 . S
C440 C437 1.363 . S
C440 N438 1.356 . S
C441 C435 1.363 1_556 S
C441 C436 1.379 . S
C441 N439 1.356 . S
N442 C434 1.356 . S
N442 H448 0.984 . S
N442 H449 0.984 . S
N443 C436 1.356 . S
N443 H446 0.984 . S
N443 H447 0.985 . S
H444 N439 0.984 . S
H445 N439 0.985 . S
H446 N443 0.984 . S
H447 N443 0.985 . S
H448 N442 0.984 . S
H449 N442 0.984 . S
H450 N438 0.984 . S
H451 N438 0.985 . S
C452 C453 1.363 1_556 S
C452 C458 1.379 . S
C452 N460 1.356 . S
C453 C452 1.363 1_554 S
C453 C459 1.363 . S
C454 C455 1.363 . S
C454 C459 1.379 . S
C454 N461 1.356 . S
C455 C454 1.363 . S
C455 C458 1.363 1_554 S
N456 C458 1.356 . S
N456 H468 0.984 . S
N456 H469 0.985 . S
N457 C459 1.356 . S
N457 H462 0.984 . S
N457 H463 0.985 . S
C458 C452 1.379 . S
C458 C455 1.363 1_556 S
C458 N456 1.356 . S
C459 C453 1.363 . S
C459 C454 1.379 . S
C459 N457 1.356 . S
N460 C452 1.356 . S
N460 H466 0.984 . S
N460 H467 0.984 . S
N461 C454 1.356 . S
N461 H464 0.984 . S
N461 H465 0.985 . S
H462 N457 0.984 . S
H463 N457 0.985 . S
H464 N461 0.984 . S
H465 N461 0.985 . S
H466 N460 0.984 . S
H467 N460 0.984 . S
H468 N456 0.984 . S
H469 N456 0.985 . S
C470 C471 1.363 . S
C470 C476 1.379 . S
C470 N478 1.356 . S
C471 C470 1.363 . S
C471 C477 1.363 1_556 S
C472 C473 1.363 1_554 S
C472 C477 1.379 . S
C472 N479 1.356 . S
C473 C472 1.363 1_556 S
C473 C476 1.363 . S
N474 C476 1.356 . S
N474 H486 0.984 . S
N474 H487 0.985 . S
N475 C477 1.356 . S
N475 H480 0.984 . S
N475 H481 0.985 . S
C476 C470 1.379 . S
C476 C473 1.363 . S
C476 N474 1.356 . S
C477 C471 1.363 1_554 S
C477 C472 1.379 . S
C477 N475 1.356 . S
N478 C470 1.356 . S
N478 H484 0.984 . S
N478 H485 0.984 . S
N479 C472 1.356 . S
N479 H482 0.984 . S
N479 H483 0.985 . S
H480 N475 0.984 . S
H481 N475 0.985 . S
H482 N479 0.984 . S
H483 N479 0.985 . S
H484 N478 0.984 . S
H485 N478 0.984 . S
H486 N474 0.984 . S
H487 N474 0.985 . S
C275 C223 1.829 . S
C273 C39 1.660 . S
C293 C230 1.838 . S
C291 C113 1.668 . S
C311 C225 2.018 . S
C309 C69 2.010 . S
C329 C231 0.910 . S
C327 C125 0.906 . S
C345 C63 1.637 . S
C347 C224 1.789 . S
C365 C233 1.798 . S
C363 C137 1.645 . S
C381 C51 0.919 . S
C383 C222 0.923 . S
C399 C143 2.027 . S
C401 C232 2.036 . S
C417 C187 1.663 . S
C419 C227 1.831 1_556 S
C435 C217 2.021 . S
C437 C226 2.031 1_554 S
C455 C229 0.905 . S
C453 C199 0.901 . S
C473 C228 1.795 1_556 S
C471 C211 1.642 . S
