# Generated by pormake.
# Topology hwx, (6,3)-cn, num edge types: 1
# Building blocks:
#     Node 0, Type 0, BuildingBlock: IZENUY_clean_sbu_0, # of connection points: 6
#     Node 1, Type 0, BuildingBlock: IZENUY_clean_sbu_0, # of connection points: 6
#     Node 2, Type 0, BuildingBlock: IZENUY_clean_sbu_0, # of connection points: 6
#     Node 3, Type 0, BuildingBlock: IZENUY_clean_sbu_0, # of connection points: 6
#     Node 4, Type 1, BuildingBlock: VETTIZ_charged_linker_0, # of connection points: 3
#     Node 5, Type 1, BuildingBlock: VETTIZ_charged_linker_0, # of connection points: 3
#     Node 6, Type 1, BuildingBlock: VETTIZ_charged_linker_0, # of connection points: 3
#     Node 7, Type 1, BuildingBlock: VETTIZ_charged_linker_0, # of connection points: 3
#     Node 8, Type 1, BuildingBlock: VETTIZ_charged_linker_0, # of connection points: 3
#     Node 9, Type 1, BuildingBlock: VETTIZ_charged_linker_0, # of connection points: 3
#     Node 10, Type 1, BuildingBlock: VETTIZ_charged_linker_0, # of connection points: 3
#     Node 11, Type 1, BuildingBlock: VETTIZ_charged_linker_0, # of connection points: 3
#     Edge 12, Type (0, 1), BuildingBlock: AJUNOK_clean_linker_0, # of connection points: 2
#     Edge 13, Type (0, 1), BuildingBlock: AJUNOK_clean_linker_0, # of connection points: 2
#     Edge 14, Type (0, 1), BuildingBlock: AJUNOK_clean_linker_0, # of connection points: 2
#     Edge 15, Type (0, 1), BuildingBlock: AJUNOK_clean_linker_0, # of connection points: 2
#     Edge 16, Type (0, 1), BuildingBlock: AJUNOK_clean_linker_0, # of connection points: 2
#     Edge 17, Type (0, 1), BuildingBlock: AJUNOK_clean_linker_0, # of connection points: 2
#     Edge 18, Type (0, 1), BuildingBlock: AJUNOK_clean_linker_0, # of connection points: 2
#     Edge 19, Type (0, 1), BuildingBlock: AJUNOK_clean_linker_0, # of connection points: 2
#     Edge 20, Type (0, 1), BuildingBlock: AJUNOK_clean_linker_0, # of connection points: 2
#     Edge 21, Type (0, 1), BuildingBlock: AJUNOK_clean_linker_0, # of connection points: 2
#     Edge 22, Type (0, 1), BuildingBlock: AJUNOK_clean_linker_0, # of connection points: 2
#     Edge 23, Type (0, 1), BuildingBlock: AJUNOK_clean_linker_0, # of connection points: 2
#     Edge 24, Type (0, 1), BuildingBlock: AJUNOK_clean_linker_0, # of connection points: 2
#     Edge 25, Type (0, 1), BuildingBlock: AJUNOK_clean_linker_0, # of connection points: 2
#     Edge 26, Type (0, 1), BuildingBlock: AJUNOK_clean_linker_0, # of connection points: 2
#     Edge 27, Type (0, 1), BuildingBlock: AJUNOK_clean_linker_0, # of connection points: 2
#     Edge 28, Type (0, 1), BuildingBlock: AJUNOK_clean_linker_0, # of connection points: 2
#     Edge 29, Type (0, 1), BuildingBlock: AJUNOK_clean_linker_0, # of connection points: 2
#     Edge 30, Type (0, 1), BuildingBlock: AJUNOK_clean_linker_0, # of connection points: 2
#     Edge 31, Type (0, 1), BuildingBlock: AJUNOK_clean_linker_0, # of connection points: 2
#     Edge 32, Type (0, 1), BuildingBlock: AJUNOK_clean_linker_0, # of connection points: 2
#     Edge 33, Type (0, 1), BuildingBlock: AJUNOK_clean_linker_0, # of connection points: 2
#     Edge 34, Type (0, 1), BuildingBlock: AJUNOK_clean_linker_0, # of connection points: 2
#     Edge 35, Type (0, 1), BuildingBlock: AJUNOK_clean_linker_0, # of connection points: 2
# Relax obj value: 0.054
# Max RMSD: 0.078
# Mean RMSD: 0.070
data_MOF--net-hwx--node1-IZENUY_clean_sbu_0--node2-VETTIZ_charged_linker_0--edge1-AJUNOK_clean_linker_0
_symmetry_space_group_name_H-M    P1
_symmetry_Int_Tables_number       1
_symmetry_cell_setting            triclinic
loop_
_symmetry_equiv_pos_as_xyz
'x, y, z'
_cell_length_a     45.152014
_cell_length_b     45.136275
_cell_length_c     22.13336
_cell_angle_alpha  90.002856
_cell_angle_beta   90.036649
_cell_angle_gamma 90.016156
loop_
_atom_site_label
_atom_site_type_symbol
_atom_site_fract_x
_atom_site_fract_y
_atom_site_fract_z
_atom_type_partial_charge
Fe0 Fe 0.24159 0.22114 0.06417 0.0
Fe1 Fe 0.23974 0.2186 0.92594 0.0
O2 O 0.23063 0.20297 0.99692 0.0
Fe3 Fe 0.21063 0.16911 0.00115 0.0
O4 O 0.18064 0.18636 0.04306 0.0
O5 O 0.2097 0.20872 0.10818 0.0
O6 O 0.22052 0.25397 0.04539 0.0
C7 C 0.22367 0.26851 0.9972 0.0
C8 C 0.2534 0.16376 0.0944 0.0
O9 O 0.23621 0.25727 0.95139 0.0
C10 C 0.24855 0.15676 0.90841 0.0
O11 O 0.27538 0.23717 0.03283 0.0
O12 O 0.27926 0.21772 0.94238 0.0
O13 O 0.22888 0.15644 0.07077 0.0
O14 O 0.26356 0.18954 0.08718 0.0
C15 C 0.18316 0.19933 0.90417 0.0
O16 O 0.24473 0.18272 0.88795 0.0
O17 O 0.23897 0.14941 0.95972 0.0
C18 C 0.29082 0.23037 0.98737 0.0
O19 O 0.20106 0.22075 0.90462 0.0
O20 O 0.18895 0.17559 0.93218 0.0
C21 C 0.18422 0.20027 0.09192 0.0
Fe22 Fe 0.25598 0.72384 0.56993 0.0
Fe23 Fe 0.29034 0.67179 0.51428 0.0
O24 O 0.26882 0.70444 0.5055 0.0
Fe25 Fe 0.26042 0.71773 0.43222 0.0
O26 O 0.27891 0.75275 0.44675 0.0
O27 O 0.25836 0.76069 0.5352 0.0
O28 O 0.2934 0.72956 0.59705 0.0
C29 C 0.31183 0.70918 0.60707 0.0
C30 C 0.20727 0.72762 0.49736 0.0
O31 O 0.3081 0.68363 0.58481 0.0
C32 C 0.25309 0.65827 0.4147 0.0
O33 O 0.25109 0.69039 0.61594 0.0
O34 O 0.26082 0.65323 0.55465 0.0
O35 O 0.224 0.73285 0.45272 0.0
O36 O 0.21771 0.71968 0.54756 0.0
C37 C 0.31993 0.69876 0.42237 0.0
O38 O 0.27645 0.6539 0.44517 0.0
O39 O 0.24143 0.68365 0.41296 0.0
C40 C 0.24837 0.6634 0.6012 0.0
O41 O 0.32144 0.68814 0.47482 0.0
O42 O 0.29523 0.70484 0.39835 0.0
C43 C 0.27292 0.76989 0.49006 0.0
Fe44 Fe 0.76032 0.78715 0.92837 0.0
Fe45 Fe 0.76054 0.78859 0.06711 0.0
O46 O 0.76966 0.80509 0.99701 0.0
Fe47 Fe 0.78813 0.83987 0.99581 0.0
O48 O 0.7716 0.85247 0.9247 0.0
O49 O 0.73849 0.81868 0.90313 0.0
O50 O 0.72582 0.77104 0.95684 0.0
C51 C 0.71008 0.77677 0.00266 0.0
C52 C 0.81811 0.8095 0.90816 0.0
O53 O 0.72124 0.78856 0.04915 0.0
C54 C 0.8153 0.81028 0.09407 0.0
O55 O 0.78108 0.75407 0.94779 0.0
O56 O 0.76493 0.75027 0.04116 0.0
O57 O 0.81967 0.8241 0.95668 0.0
O58 O 0.79352 0.79997 0.88844 0.0
C59 C 0.74901 0.84976 0.08686 0.0
O60 O 0.79926 0.78749 0.08975 0.0
O61 O 0.80834 0.83388 0.06671 0.0
C62 C 0.77776 0.73929 0.9956 0.0
O63 O 0.75454 0.82392 0.10614 0.0
O64 O 0.75768 0.85787 0.03523 0.0
C65 C 0.74828 0.84469 0.89742 0.0
Fe66 Fe 0.71014 0.33848 0.48791 0.0
Fe67 Fe 0.74218 0.29023 0.56125 0.0
O68 O 0.73026 0.30469 0.49098 0.0
Fe69 Fe 0.73853 0.28524 0.42375 0.0
O70 O 0.75935 0.31646 0.39429 0.0
O71 O 0.72583 0.35023 0.41523 0.0
O72 O 0.73992 0.35874 0.52396 0.0
C73 C 0.75117 0.35213 0.57425 0.0
C74 C 0.68038 0.30645 0.40267 0.0
O75 O 0.74779 0.32655 0.59672 0.0
C76 C 0.72383 0.23892 0.49715 0.0
O77 O 0.69098 0.33264 0.56021 0.0
O78 O 0.70437 0.2878 0.58807 0.0
O79 O 0.70498 0.29675 0.38396 0.0
O80 O 0.67869 0.32097 0.4512 0.0
C81 C 0.79087 0.27828 0.4931 0.0
O82 O 0.73876 0.25114 0.53877 0.0
O83 O 0.71819 0.25279 0.44899 0.0
C84 C 0.68632 0.30909 0.58988 0.0
O85 O 0.78082 0.29165 0.5387 0.0
O86 O 0.77374 0.27009 0.45104 0.0
C87 C 0.74912 0.34229 0.38767 0.0
C88 C 0.20754 0.56103 0.80488 0.0
C89 C 0.20836 0.59217 0.80088 0.0
C90 C 0.20622 0.60907 0.85423 0.0
C91 C 0.20354 0.56437 0.91408 0.0
C92 C 0.20499 0.54763 0.8619 0.0
C93 C 0.20489 0.51487 0.87525 0.0
H94 H 0.19997 0.40444 0.08284 0.0
C95 C 0.20283 0.54401 0.96613 0.0
C96 C 0.20328 0.51491 0.94395 0.0
H97 H 0.2105 0.39677 0.88905 0.0
H98 H 0.2071 0.44977 0.87911 0.0
H99 H 0.24794 0.45326 0.09316 0.0
H100 H 0.15289 0.46088 0.08693 0.0
H101 H 0.16664 0.48326 0.14611 0.0
H102 H 0.17271 0.44384 0.14816 0.0
H103 H 0.2255 0.44647 0.15852 0.0
H104 H 0.23851 0.48316 0.1398 0.0
C105 C 0.23437 0.50149 0.85191 0.0
C106 C 0.17678 0.50128 0.84641 0.0
C107 C 0.2103 0.58653 0.17713 0.0
C108 C 0.21308 0.57365 0.23452 0.0
C109 C 0.20994 0.5427 0.24047 0.0
C110 C 0.20527 0.52478 0.18941 0.0
C111 C 0.20404 0.53795 0.13183 0.0
C112 C 0.206 0.5684 0.12674 0.0
C113 C 0.20502 0.5787 0.06233 0.0
C114 C 0.20295 0.54938 0.02924 0.0
C115 C 0.20235 0.52556 0.06995 0.0
C116 C 0.23448 0.59514 0.04863 0.0
C117 C 0.17668 0.59769 0.05378 0.0
C118 C 0.20194 0.41404 0.03823 0.0
C119 C 0.20579 0.39608 0.98677 0.0
C120 C 0.20725 0.40984 0.92954 0.0
C121 C 0.20554 0.44073 0.92382 0.0
C122 C 0.20285 0.4583 0.97589 0.0
C123 C 0.20126 0.44491 0.03193 0.0
C124 C 0.20116 0.46711 0.08267 0.0
C125 C 0.20201 0.49602 0.04774 0.0
C126 C 0.20272 0.49074 0.98512 0.0
C127 C 0.22954 0.46232 0.12105 0.0
C128 C 0.17193 0.46364 0.11838 0.0
H129 H 0.20248 0.60962 0.94921 0.0
H130 H 0.20935 0.54745 0.7647 0.0
H131 H 0.15733 0.51599 0.85362 0.0
H132 H 0.17053 0.4798 0.86648 0.0
H133 H 0.17965 0.49837 0.79691 0.0
H134 H 0.25273 0.51788 0.85494 0.0
H135 H 0.23245 0.49457 0.8039 0.0
H136 H 0.24201 0.48248 0.87919 0.0
H137 H 0.21282 0.61022 0.17112 0.0
H138 H 0.21153 0.53237 0.28452 0.0
H139 H 0.2034 0.50134 0.19654 0.0
H140 H 0.25334 0.58461 0.07288 0.0
H141 H 0.23338 0.61866 0.06325 0.0
H142 H 0.24087 0.59436 0.00056 0.0
H143 H 0.15868 0.59036 0.0847 0.0
H144 H 0.16705 0.59552 0.00802 0.0
H145 H 0.18108 0.62144 0.06333 0.0
H146 H 0.20772 0.63301 0.85278 0.0
C147 C 0.20355 0.59539 0.91051 0.0
C148 C 0.06512 0.76179 0.53134 0.0
C149 C 0.08292 0.76004 0.47919 0.0
C150 C 0.0707 0.76888 0.42328 0.0
C151 C 0.0237 0.7794 0.47138 0.0
C152 C 0.03591 0.77194 0.52654 0.0
C153 C 0.01476 0.77712 0.57801 0.0
H154 H 0.87792 0.8183 0.67167 0.0
C155 C 0.99298 0.7893 0.48184 0.0
C156 C 0.9878 0.78866 0.54445 0.0
H157 H 0.95057 0.78797 0.78207 0.0
H158 H 0.98197 0.78425 0.69315 0.0
H159 H 0.91715 0.8615 0.58229 0.0
H160 H 0.88476 0.77222 0.57449 0.0
H161 H 0.88337 0.78504 0.49993 0.0
H162 H 0.86157 0.80331 0.55716 0.0
H163 H 0.87887 0.85234 0.57097 0.0
H164 H 0.9042 0.85582 0.50828 0.0
C165 C 0.02831 0.8009 0.62029 0.0
C166 C 0.00859 0.74699 0.60894 0.0
C167 C 0.92364 0.80661 0.3038 0.0
C168 C 0.89364 0.81485 0.3007 0.0
C169 C 0.87863 0.82269 0.35406 0.0
C170 C 0.89283 0.82125 0.41007 0.0
C171 C 0.92242 0.81181 0.41298 0.0
C172 C 0.93761 0.80534 0.36041 0.0
C173 C 0.96929 0.79674 0.37268 0.0
C174 C 0.96994 0.7975 0.44144 0.0
C175 C 0.94238 0.80624 0.46449 0.0
C176 C 0.98987 0.82054 0.34449 0.0
C177 C 0.9743 0.76509 0.34782 0.0
C178 C 0.9008 0.81142 0.67653 0.0
C179 C 0.91215 0.80369 0.73322 0.0
C180 C 0.94172 0.79427 0.73842 0.0
C181 C 0.95972 0.79202 0.68682 0.0
C182 C 0.94782 0.79916 0.62977 0.0
C183 C 0.91887 0.80893 0.62564 0.0
C184 C 0.9093 0.81431 0.56168 0.0
C185 C 0.93731 0.80633 0.52772 0.0
C186 C 0.95984 0.79754 0.56761 0.0
C187 C 0.90172 0.84765 0.55506 0.0
C188 C 0.8833 0.79288 0.5472 0.0
H189 H 0.0332 0.78451 0.37528 0.0
H190 H 0.07375 0.75556 0.5752 0.0
H191 H 0.00664 0.72902 0.57474 0.0
H192 H 0.98745 0.74659 0.6339 0.0
H193 H 0.02683 0.74095 0.64031 0.0
H194 H 0.04074 0.8178 0.5939 0.0
H195 H 0.04397 0.79078 0.65304 0.0
H196 H 0.01141 0.81362 0.64528 0.0
H197 H 0.93582 0.8011 0.2632 0.0
H198 H 0.85552 0.82913 0.35259 0.0
H199 H 0.87997 0.82696 0.44907 0.0
H200 H 0.97818 0.842 0.33798 0.0
H201 H 0.99827 0.81341 0.29962 0.0
H202 H 0.0089 0.82595 0.37413 0.0
H203 H 0.9561 0.75011 0.36249 0.0
H204 H 0.99501 0.7549 0.36404 0.0
H205 H 0.97474 0.76516 0.29763 0.0
H206 H 0.0841 0.76918 0.38275 0.0
C207 C 0.04119 0.77825 0.41906 0.0
C208 C 0.78772 0.44485 0.1817 0.0
C209 C 0.78831 0.41369 0.1849 0.0
C210 C 0.79298 0.39725 0.13169 0.0
C211 C 0.79507 0.44248 0.07315 0.0
C212 C 0.79142 0.45877 0.12545 0.0
C213 C 0.79092 0.49163 0.11306 0.0
H214 H 0.80348 0.60414 0.91115 0.0
C215 C 0.79675 0.46329 0.02187 0.0
C216 C 0.79487 0.49219 0.04474 0.0
H217 H 0.78319 0.60941 0.10203 0.0
H218 H 0.7858 0.5565 0.11002 0.0
H219 H 0.85006 0.54779 0.91184 0.0
H220 H 0.75526 0.55402 0.89169 0.0
H221 H 0.7675 0.52594 0.84308 0.0
H222 H 0.78002 0.56346 0.83132 0.0
H223 H 0.8325 0.56492 0.84789 0.0
H224 H 0.83876 0.52552 0.8504 0.0
C225 C 0.81755 0.50581 0.14624 0.0
C226 C 0.76034 0.50398 0.13254 0.0
C227 C 0.79467 0.42248 0.8093 0.0
C228 C 0.79408 0.43564 0.75184 0.0
C229 C 0.79853 0.46652 0.74716 0.0
C230 C 0.80183 0.48407 0.79925 0.0
C231 C 0.80064 0.47061 0.85655 0.0
C232 C 0.79796 0.44019 0.86055 0.0
C233 C 0.79742 0.42937 0.92461 0.0
C234 C 0.79869 0.45843 0.95874 0.0
C235 C 0.8005 0.48258 0.91889 0.0
C236 C 0.8255 0.41023 0.93539 0.0
C237 C 0.76769 0.41288 0.93498 0.0
C238 C 0.79976 0.594 0.95483 0.0
C239 C 0.79451 0.61149 0.00653 0.0
C240 C 0.78905 0.59697 0.06201 0.0
C241 C 0.79005 0.56603 0.0665 0.0
C242 C 0.79562 0.54904 0.01468 0.0
C243 C 0.79971 0.56301 0.95975 0.0
C244 C 0.80182 0.54122 0.90837 0.0
C245 C 0.7997 0.51195 0.942 0.0
C246 C 0.79641 0.5167 0.00444 0.0
C247 C 0.83229 0.54502 0.87745 0.0
C248 C 0.77498 0.54635 0.8659 0.0
H249 H 0.79936 0.39757 0.03723 0.0
H250 H 0.78405 0.45804 0.22191 0.0
H251 H 0.74276 0.48679 0.1287 0.0
H252 H 0.75262 0.52225 0.10322 0.0
H253 H 0.76073 0.51167 0.1802 0.0
H254 H 0.83784 0.49219 0.13981 0.0
H255 H 0.81325 0.50737 0.19556 0.0
H256 H 0.8232 0.52805 0.12915 0.0
H257 H 0.79128 0.39887 0.81468 0.0
H258 H 0.79903 0.47714 0.70331 0.0
H259 H 0.80468 0.50748 0.79301 0.0
H260 H 0.84363 0.41617 0.90358 0.0
H261 H 0.82072 0.38628 0.92912 0.0
H262 H 0.83518 0.41373 0.98081 0.0
H263 H 0.74915 0.42476 0.91237 0.0
H264 H 0.76122 0.41152 0.98292 0.0
H265 H 0.76853 0.39007 0.91622 0.0
H266 H 0.79285 0.37326 0.13272 0.0
C267 C 0.79649 0.41144 0.07606 0.0
C268 C 0.07344 0.20495 0.29642 0.0
C269 C 0.10341 0.19709 0.292 0.0
C270 C 0.11907 0.18857 0.34408 0.0
C271 C 0.07587 0.19842 0.4053 0.0
C272 C 0.0601 0.20548 0.35366 0.0
C273 C 0.02892 0.21498 0.36789 0.0
H274 H 0.92362 0.24564 0.57678 0.0
C275 C 0.05669 0.20402 0.45797 0.0
C276 C 0.0291 0.21361 0.43655 0.0
H277 H 0.91591 0.24702 0.38211 0.0
H278 H 0.96708 0.23283 0.37233 0.0
H279 H 0.96415 0.18549 0.58679 0.0
H280 H 0.98644 0.27831 0.58049 0.0
H281 H 0.01209 0.26121 0.62877 0.0
H282 H 0.97326 0.26116 0.64846 0.0
H283 H 0.95452 0.21136 0.64526 0.0
H284 H 0.99011 0.19352 0.64418 0.0
C285 C 0.00746 0.19194 0.33991 0.0
C286 C 0.02463 0.24706 0.34447 0.0
C287 C 0.10022 0.19535 0.66807 0.0
C288 C 0.08978 0.20321 0.72545 0.0
C289 C 0.06053 0.21353 0.73194 0.0
C290 C 0.04192 0.21618 0.68131 0.0
C291 C 0.05293 0.20885 0.62371 0.0
C292 C 0.08167 0.19867 0.61801 0.0
C293 C 0.09056 0.19407 0.55339 0.0
C294 C 0.06237 0.20296 0.52096 0.0
C295 C 0.04027 0.21131 0.5622 0.0
C296 C 0.09761 0.16075 0.54451 0.0
C297 C 0.11672 0.21534 0.53916 0.0
C298 C 0.93311 0.24299 0.53217 0.0
C299 C 0.91565 0.24685 0.48014 0.0
C300 C 0.92876 0.24343 0.42281 0.0
C301 C 0.95851 0.23529 0.41722 0.0
C302 C 0.97553 0.23077 0.46951 0.0
C303 C 0.96291 0.23486 0.52581 0.0
C304 C 0.98468 0.22939 0.57618 0.0
C305 C 0.01203 0.22036 0.54073 0.0
C306 C 0.00652 0.2214 0.47827 0.0
C307 C 0.97285 0.2037 0.61568 0.0
C308 C 0.98936 0.25887 0.61082 0.0
H309 H 0.11872 0.18289 0.43881 0.0
H310 H 0.06113 0.21172 0.25673 0.0
H311 H 0.04501 0.26044 0.35199 0.0
H312 H 0.00694 0.25919 0.36833 0.0
H313 H 0.01981 0.24726 0.29525 0.0
H314 H 0.0175 0.16942 0.33953 0.0
H315 H 0.00183 0.19774 0.29251 0.0
H316 H 0.98681 0.18934 0.36618 0.0
H317 H 0.12285 0.18793 0.66193 0.0
H318 H 0.05223 0.21973 0.77607 0.0
H319 H 0.01987 0.22424 0.68878 0.0
H320 H 0.08209 0.14673 0.57112 0.0
H321 H 0.12046 0.15549 0.55971 0.0
H322 H 0.09482 0.15335 0.49727 0.0
H323 H 0.11587 0.23558 0.56781 0.0
H324 H 0.11624 0.22391 0.49243 0.0
H325 H 0.1384 0.20445 0.54747 0.0
H326 H 0.14224 0.18249 0.34105 0.0
C327 C 0.10542 0.18902 0.40068 0.0
C328 C 0.69971 0.94671 0.69607 0.0
C329 C 0.7013 0.91556 0.69952 0.0
C330 C 0.69605 0.89878 0.64691 0.0
C331 C 0.6922 0.9437 0.58763 0.0
C332 C 0.69534 0.9603 0.63967 0.0
C333 C 0.69546 0.99311 0.62657 0.0
H334 H 0.70582 0.10362 0.42002 0.0
C335 C 0.69196 0.96417 0.53558 0.0
C336 C 0.6937 0.99321 0.55786 0.0
H337 H 0.69684 0.11165 0.61377 0.0
H338 H 0.6929 0.05844 0.62285 0.0
H339 H 0.74902 0.05025 0.42103 0.0
H340 H 0.65395 0.05116 0.40365 0.0
H341 H 0.66905 0.02768 0.34785 0.0
H342 H 0.67857 0.0664 0.348 0.0
H343 H 0.73126 0.05944 0.35097 0.0
H344 H 0.73955 0.02158 0.37115 0.0
C345 C 0.72509 0.00616 0.64971 0.0
C346 C 0.66757 0.00703 0.65579 0.0
C347 C 0.69995 0.92106 0.32523 0.0
C348 C 0.70797 0.93319 0.26909 0.0
C349 C 0.7096 0.96428 0.26334 0.0
C350 C 0.70457 0.98278 0.31346 0.0
C351 C 0.69843 0.97004 0.37018 0.0
C352 C 0.69604 0.93963 0.37502 0.0
C353 C 0.69269 0.92947 0.43923 0.0
C354 C 0.69315 0.95883 0.47245 0.0
C355 C 0.69611 0.98258 0.43192 0.0
C356 C 0.71974 0.90961 0.45539 0.0
C357 C 0.66226 0.91393 0.44532 0.0
C358 C 0.70242 0.09396 0.46427 0.0
C359 C 0.70143 0.1119 0.51623 0.0
C360 C 0.6978 0.09831 0.57313 0.0
C361 C 0.69544 0.06743 0.5783 0.0
C362 C 0.69693 0.0498 0.52608 0.0
C363 C 0.69991 0.06314 0.47018 0.0
C364 C 0.70093 0.04088 0.4196 0.0
C365 C 0.69734 0.01207 0.45424 0.0
C366 C 0.69556 0.01738 0.51675 0.0
C367 C 0.73162 0.04311 0.38851 0.0
C368 C 0.67438 0.04677 0.37704 0.0
H369 H 0.68831 0.89858 0.55271 0.0
H370 H 0.70282 0.96022 0.73601 0.0
H371 H 0.64912 0.99073 0.65859 0.0
H372 H 0.65849 0.02556 0.62883 0.0
H373 H 0.67225 0.01488 0.70239 0.0
H374 H 0.74391 0.99159 0.63673 0.0
H375 H 0.72505 0.00811 0.69974 0.0
H376 H 0.73022 0.02808 0.63043 0.0
H377 H 0.69848 0.89729 0.33133 0.0
H378 H 0.71622 0.97429 0.22099 0.0
H379 H 0.70679 0.00621 0.30666 0.0
H380 H 0.73899 0.91403 0.42534 0.0
H381 H 0.71425 0.88572 0.45109 0.0
H382 H 0.72842 0.91387 0.50129 0.0
H383 H 0.64497 0.92611 0.41948 0.0
H384 H 0.65413 0.91333 0.49238 0.0
H385 H 0.66317 0.89096 0.42739 0.0
H386 H 0.69705 0.87481 0.6482 0.0
C387 C 0.69132 0.91265 0.59123 0.0
C388 C 0.56915 0.30374 0.19831 0.0
C389 C 0.59844 0.31347 0.20556 0.0
C390 C 0.61438 0.32383 0.15529 0.0
C391 C 0.57312 0.31177 0.09004 0.0
C392 C 0.55685 0.30329 0.14008 0.0
C393 C 0.5263 0.29281 0.12311 0.0
H394 H 0.42546 0.26178 0.9051 0.0
C395 C 0.55524 0.30566 0.03563 0.0
C396 C 0.52764 0.29491 0.05458 0.0
H397 H 0.41385 0.26009 0.09886 0.0
H398 H 0.46488 0.27404 0.11323 0.0
H399 H 0.46528 0.3219 0.89895 0.0
H400 H 0.48834 0.22943 0.90619 0.0
H401 H 0.51571 0.24679 0.86249 0.0
H402 H 0.47773 0.2469 0.83672 0.0
H403 H 0.45739 0.29596 0.8395 0.0
H404 H 0.49257 0.3145 0.8439 0.0
C405 C 0.50348 0.3147 0.15047 0.0
C406 C 0.52278 0.26035 0.14471 0.0
C407 C 0.60307 0.31397 0.82913 0.0
C408 C 0.59388 0.30547 0.77116 0.0
C409 C 0.56488 0.29483 0.76254 0.0
C410 C 0.54533 0.29231 0.81156 0.0
C411 C 0.5551 0.30015 0.86979 0.0
C412 C 0.58355 0.3108 0.8777 0.0
C413 C 0.59093 0.31606 0.943 0.0
C414 C 0.56222 0.30682 0.97315 0.0
C415 C 0.54122 0.29778 0.93009 0.0
C416 C 0.59729 0.34954 0.95166 0.0
C417 C 0.61707 0.29535 0.96006 0.0
C418 C 0.43411 0.26424 0.95048 0.0
C419 C 0.41562 0.26041 0.00092 0.0
C420 C 0.42759 0.26359 0.05938 0.0
C421 C 0.45721 0.27167 0.06763 0.0
C422 C 0.47521 0.27647 0.01691 0.0
C423 C 0.46375 0.27243 0.95952 0.0
C424 C 0.48642 0.2784 0.91116 0.0
C425 C 0.51283 0.28793 0.94904 0.0
C426 C 0.50614 0.28654 0.01093 0.0
C427 C 0.47493 0.30392 0.87076 0.0
C428 C 0.49236 0.24904 0.87684 0.0
H429 H 0.61535 0.33066 0.06077 0.0
H430 H 0.55661 0.29566 0.23661 0.0
H431 H 0.54338 0.24754 0.1359 0.0
H432 H 0.50508 0.24826 0.12072 0.0
H433 H 0.51829 0.25939 0.19401 0.0
H434 H 0.5131 0.33724 0.15601 0.0
H435 H 0.49589 0.30721 0.19568 0.0
H436 H 0.484 0.31807 0.12092 0.0
H437 H 0.62546 0.32178 0.83687 0.0
H438 H 0.55749 0.28824 0.71794 0.0
H439 H 0.52354 0.28394 0.80241 0.0
H440 H 0.58359 0.36317 0.92043 0.0
H441 H 0.6209 0.35477 0.94245 0.0
H442 H 0.59141 0.35754 0.99732 0.0
H443 H 0.61516 0.27368 0.9364 0.0
H444 H 0.61773 0.28958 0.00843 0.0
H445 H 0.63864 0.30533 0.94711 0.0
H446 H 0.63706 0.33129 0.16048 0.0
C447 C 0.60183 0.32318 0.09755 0.0
C448 C 0.29691 0.06197 0.29762 0.0
C449 C 0.29634 0.09309 0.29399 0.0
C450 C 0.29968 0.10991 0.34713 0.0
C451 C 0.30183 0.06501 0.40666 0.0
C452 C 0.29994 0.04843 0.35435 0.0
C453 C 0.30026 0.01565 0.36716 0.0
H454 H 0.29698 0.90401 0.5717 0.0
C455 C 0.30233 0.04446 0.45844 0.0
C456 C 0.30198 0.01546 0.43581 0.0
H457 H 0.29713 0.89779 0.37674 0.0
H458 H 0.30153 0.95084 0.36899 0.0
H459 H 0.34714 0.95552 0.58342 0.0
H460 H 0.25168 0.95983 0.57649 0.0
H461 H 0.26433 0.98301 0.63494 0.0
H462 H 0.27133 0.94385 0.63908 0.0
H463 H 0.32445 0.94375 0.64555 0.0
H464 H 0.33522 0.982 0.63639 0.0
C465 C 0.32841 0.00226 0.33792 0.0
C466 C 0.27077 0.00232 0.3438 0.0
C467 C 0.2913 0.08627 0.66931 0.0
C468 C 0.2892 0.07346 0.72697 0.0
C469 C 0.29321 0.04256 0.73276 0.0
C470 C 0.29776 0.02469 0.68155 0.0
C471 C 0.29843 0.03784 0.62392 0.0
C472 C 0.29604 0.06825 0.61895 0.0
C473 C 0.29806 0.07877 0.55482 0.0
C474 C 0.30115 0.04957 0.52159 0.0
C475 C 0.30104 0.02558 0.562 0.0
C476 C 0.32621 0.09829 0.54858 0.0
C477 C 0.26864 0.09478 0.5391 0.0
C478 C 0.29808 0.91412 0.52736 0.0
C479 C 0.29709 0.89659 0.47477 0.0
C480 C 0.29858 0.91063 0.41796 0.0
C481 C 0.3008 0.94153 0.41354 0.0
C482 C 0.30112 0.95875 0.46644 0.0
C483 C 0.30002 0.94501 0.52219 0.0
C484 C 0.29992 0.96695 0.57347 0.0
C485 C 0.30131 0.9961 0.53928 0.0
C486 C 0.30185 0.99111 0.47654 0.0
C487 C 0.32798 0.96183 0.61229 0.0
C488 C 0.27043 0.9633 0.60838 0.0
H489 H 0.30428 0.11016 0.44207 0.0
H490 H 0.29443 0.04853 0.25738 0.0
H491 H 0.25199 0.01765 0.35282 0.0
H492 H 0.26464 0.98145 0.36652 0.0
H493 H 0.27165 0.99841 0.29428 0.0
H494 H 0.34707 0.01837 0.33878 0.0
H495 H 0.32437 0.99616 0.29 0.0
H496 H 0.33682 0.9827 0.36255 0.0
H497 H 0.28835 0.10988 0.663 0.0
H498 H 0.29264 0.03217 0.77683 0.0
H499 H 0.30022 1.0013 0.68869 0.0
H500 H 0.34311 0.09262 0.58334 0.0
H501 H 0.32088 0.12217 0.55385 0.0
H502 H 0.3377 0.09485 0.50494 0.0
H503 H 0.2494 0.08262 0.5584 0.0
H504 H 0.26418 0.09601 0.49022 0.0
H505 H 0.26835 0.1176 0.55785 0.0
H506 H 0.29877 0.13388 0.34559 0.0
C507 C 0.30257 0.09606 0.40328 0.0
C508 C 0.56778 0.74196 0.04618 0.0
C509 C 0.58466 0.7471 0.99386 0.0
C510 C 0.57056 0.74646 0.93703 0.0
C511 C 0.52372 0.73487 0.9847 0.0
C512 C 0.53746 0.7358 0.04055 0.0
C513 C 0.51621 0.72964 0.09142 0.0
H514 H 0.3763 0.69647 0.17974 0.0
C515 C 0.49213 0.72786 0.99426 0.0
C516 C 0.48758 0.72469 0.05682 0.0
H517 H 0.45203 0.71174 0.29473 0.0
H518 H 0.4829 0.72009 0.20631 0.0
H519 H 0.38609 0.74869 0.09905 0.0
H520 H 0.41047 0.65757 0.07732 0.0
H521 H 0.39697 0.66958 0.007 0.0
H522 H 0.37311 0.67091 0.07226 0.0
H523 H 0.36043 0.72182 0.07048 0.0
H524 H 0.38446 0.74265 0.02096 0.0
C525 C 0.51467 0.7575 0.13214 0.0
C526 C 0.52654 0.70125 0.12447 0.0
C527 C 0.42108 0.72172 0.81517 0.0
C528 C 0.39034 0.71688 0.8121 0.0
C529 C 0.37443 0.71101 0.86533 0.0
C530 C 0.38873 0.71017 0.92118 0.0
C531 C 0.41932 0.71553 0.92414 0.0
C532 C 0.43508 0.72114 0.87186 0.0
C533 C 0.46734 0.72704 0.88476 0.0
C534 C 0.4681 0.72428 0.95332 0.0
C535 C 0.43992 0.71737 0.97567 0.0
C536 C 0.47464 0.75892 0.86342 0.0
C537 C 0.48581 0.70251 0.85362 0.0
C538 C 0.39969 0.70099 0.18587 0.0
C539 C 0.41201 0.7028 0.24383 0.0
C540 C 0.44224 0.70994 0.25019 0.0
C541 C 0.46001 0.7148 0.1989 0.0
C542 C 0.44722 0.71287 0.14094 0.0
C543 C 0.41748 0.70613 0.13554 0.0
C544 C 0.40695 0.70626 0.0714 0.0
C545 C 0.43532 0.71392 0.03856 0.0
C546 C 0.45893 0.71764 0.07915 0.0
C547 C 0.38312 0.73091 0.06475 0.0
C548 C 0.39606 0.67457 0.0558 0.0
H549 H 0.53091 0.74003 0.88762 0.0
H550 H 0.57803 0.74236 0.09044 0.0
H551 H 0.53409 0.68428 0.09144 0.0
H552 H 0.50871 0.6905 0.15052 0.0
H553 H 0.54534 0.7061 0.15534 0.0
H554 H 0.51658 0.77808 0.10472 0.0
H555 H 0.53295 0.75762 0.16575 0.0
H556 H 0.49332 0.75963 0.15602 0.0
H557 H 0.43372 0.7264 0.7747 0.0
H558 H 0.35079 0.70695 0.86358 0.0
H559 H 0.37526 0.70553 0.95986 0.0
H560 H 0.4555 0.77399 0.87096 0.0
H561 H 0.47994 0.75937 0.81443 0.0
H562 H 0.49306 0.76911 0.88884 0.0
H563 H 0.47436 0.68072 0.85667 0.0
H564 H 0.50756 0.69894 0.8752 0.0
H565 H 0.48918 0.70753 0.80497 0.0
H566 H 0.58298 0.75099 0.89621 0.0
C567 C 0.54027 0.74027 0.93216 0.0
C568 C 0.13843 0.17986 0.1408 0.0
C569 C 0.15985 0.20245 0.13615 0.0
C570 C 0.11873 0.17897 0.1899 0.0
C571 C 0.11981 0.20079 0.23509 0.0
H572 H 0.13804 0.16187 0.10842 0.0
H573 H 0.10364 0.16043 0.19416 0.0
S574 S 0.16849 0.26675 0.23917 0.0
N575 N 0.17853 0.24881 0.17747 0.0
N576 N 0.14155 0.24694 0.26941 0.0
C577 C 0.13964 0.22444 0.22876 0.0
C578 C 0.15965 0.22535 0.17924 0.0
C579 C 0.24802 0.61553 0.65778 0.0
C580 C 0.23458 0.64288 0.64465 0.0
C581 C 0.23816 0.59814 0.70629 0.0
C582 C 0.21433 0.60739 0.74269 0.0
H583 H 0.2674 0.60841 0.63286 0.0
H584 H 0.25041 0.57825 0.71751 0.0
S585 S 0.16801 0.67427 0.71855 0.0
N586 N 0.19401 0.67652 0.66631 0.0
N587 N 0.17474 0.64337 0.75609 0.0
C588 C 0.19917 0.63344 0.72647 0.0
C589 C 0.2095 0.65133 0.67782 0.0
C590 C 0.84144 0.83791 0.17551 0.0
C591 C 0.83815 0.81168 0.14176 0.0
C592 C 0.86041 0.83911 0.22547 0.0
C593 C 0.87715 0.8143 0.2429 0.0
H594 H 0.82829 0.85731 0.16494 0.0
H595 H 0.86144 0.85938 0.25162 0.0
S596 S 0.8789 0.74142 0.16585 0.0
N597 N 0.85477 0.76105 0.12651 0.0
N598 N 0.89074 0.76339 0.22043 0.0
C599 C 0.87523 0.78843 0.20779 0.0
C600 C 0.85558 0.78707 0.1573 0.0
C601 C 0.78817 0.36797 0.65118 0.0
C602 C 0.76496 0.37544 0.61175 0.0
C603 C 0.79902 0.38842 0.69332 0.0
C604 C 0.78667 0.41697 0.69851 0.0
H605 H 0.79752 0.34586 0.65055 0.0
H606 H 0.81643 0.38138 0.72381 0.0
S607 S 0.72611 0.44772 0.6039 0.0
N608 N 0.73102 0.41379 0.57789 0.0
N609 N 0.75056 0.45192 0.65873 0.0
C610 C 0.76433 0.42516 0.65737 0.0
C611 C 0.75363 0.40444 0.61367 0.0
C612 C 0.63633 0.33029 0.35404 0.0
C613 C 0.65497 0.30548 0.36073 0.0
C614 C 0.61643 0.33223 0.30534 0.0
C615 C 0.61427 0.30917 0.26299 0.0
H616 H 0.63856 0.34913 0.38403 0.0
H617 H 0.60378 0.35239 0.29908 0.0
S618 S 0.65533 0.23824 0.26438 0.0
N619 N 0.66803 0.25648 0.32368 0.0
N620 N 0.63022 0.26002 0.23322 0.0
C621 C 0.6312 0.28353 0.27157 0.0
C622 C 0.65165 0.28168 0.32032 0.0
C623 C 0.28389 0.14134 0.82788 0.0
C624 C 0.26103 0.13387 0.86809 0.0
C625 C 0.2941 0.12099 0.78489 0.0
C626 C 0.2814 0.09257 0.7795 0.0
H627 H 0.29366 0.16326 0.82907 0.0
H628 H 0.31154 0.12791 0.75442 0.0
S629 S 0.22077 0.06232 0.87456 0.0
N630 N 0.22653 0.09594 0.90148 0.0
N631 N 0.24476 0.05807 0.81896 0.0
C632 C 0.25904 0.08457 0.82074 0.0
C633 C 0.24905 0.10514 0.86534 0.0
C634 C 0.3661 0.72138 0.38171 0.0
C635 C 0.34617 0.69753 0.38366 0.0
C636 C 0.38898 0.72205 0.33876 0.0
C637 C 0.39234 0.69892 0.29664 0.0
H638 H 0.36322 0.74012 0.41174 0.0
H639 H 0.40301 0.74148 0.33625 0.0
S640 S 0.34732 0.63028 0.28811 0.0
N641 N 0.33227 0.64948 0.34369 0.0
N642 N 0.37534 0.65045 0.26331 0.0
C643 C 0.3734 0.67426 0.30071 0.0
C644 C 0.35021 0.67367 0.34415 0.0
C645 C 0.70841 0.85691 0.8221 0.0
C646 C 0.73477 0.86498 0.85198 0.0
C647 C 0.69686 0.87417 0.7749 0.0
C648 C 0.71114 0.90024 0.75562 0.0
H649 H 0.69693 0.83669 0.83415 0.0
H650 H 0.67695 0.86663 0.75227 0.0
S651 S 0.78009 0.93202 0.82008 0.0
N652 N 0.77404 0.90185 0.86033 0.0
N653 N 0.75264 0.93371 0.77099 0.0
C654 C 0.73686 0.9092 0.7865 0.0
C655 C 0.74858 0.89173 0.83474 0.0
C656 C 0.86524 0.82946 0.86447 0.0
C657 C 0.84461 0.8062 0.8698 0.0
C658 C 0.88837 0.82797 0.82216 0.0
C659 C 0.89178 0.80297 0.78504 0.0
H660 H 0.86261 0.84949 0.89088 0.0
H661 H 0.90289 0.84689 0.81669 0.0
S662 S 0.84606 0.73491 0.78654 0.0
N663 N 0.83073 0.75652 0.83797 0.0
N664 N 0.87439 0.75376 0.75912 0.0
C665 C 0.87239 0.77902 0.79231 0.0
C666 C 0.84874 0.78061 0.83464 0.0
C667 C 0.74581 0.38744 0.32223 0.0
C668 C 0.76174 0.36215 0.34071 0.0
C669 C 0.75543 0.40495 0.27379 0.0
C670 C 0.7814 0.39789 0.24196 0.0
H671 H 0.72505 0.39326 0.34379 0.0
H672 H 0.74169 0.42328 0.25939 0.0
S673 S 0.83366 0.33695 0.27758 0.0
N674 N 0.80661 0.33296 0.3271 0.0
N675 N 0.82466 0.36603 0.23619 0.0
C676 C 0.79849 0.37379 0.26205 0.0
C677 C 0.78871 0.3559 0.31137 0.0
C678 C 0.14664 0.17439 0.8363 0.0
C679 C 0.15711 0.20052 0.86372 0.0
C680 C 0.12391 0.17528 0.7932 0.0
C681 C 0.11043 0.2022 0.77714 0.0
H682 H 0.15688 0.15324 0.84627 0.0
H683 H 0.11732 0.15489 0.77113 0.0
S684 S 0.12803 0.27643 0.83891 0.0
N685 N 0.15114 0.25385 0.87396 0.0
N686 N 0.10805 0.25533 0.79351 0.0
C687 C 0.11971 0.22826 0.80605 0.0
C688 C 0.14318 0.22747 0.8492 0.0
C689 C 0.21572 0.63975 0.33992 0.0
C690 C 0.24157 0.63466 0.37409 0.0
C691 C 0.20583 0.61922 0.29696 0.0
C692 C 0.22127 0.59267 0.28655 0.0
H693 H 0.20336 0.66015 0.34507 0.0
H694 H 0.18634 0.62452 0.2705 0.0
S695 S 0.28941 0.56778 0.36511 0.0
N696 N 0.28168 0.60014 0.39604 0.0
N697 N 0.26315 0.56186 0.31464 0.0
C698 C 0.24645 0.58666 0.32178 0.0
C699 C 0.25659 0.60757 0.36565 0.0
C700 C 0.33101 0.73556 0.69825 0.0
C701 C 0.33493 0.71365 0.6537 0.0
C702 C 0.35011 0.73744 0.7479 0.0
C703 C 0.3741 0.71787 0.75427 0.0
H704 H 0.3122 0.75042 0.69653 0.0
H705 H 0.34547 0.75364 0.78277 0.0
S706 S 0.39627 0.65897 0.64705 0.0
N707 N 0.36623 0.67365 0.61668 0.0
N708 N 0.40227 0.67753 0.7102 0.0
C709 C 0.37946 0.69715 0.70839 0.0
C710 C 0.35981 0.69494 0.65806 0.0
C711 C 0.74636 0.86898 0.19162 0.0
C712 C 0.73819 0.87198 0.13066 0.0
C713 C 0.73678 0.88916 0.23515 0.0
C714 C 0.71811 0.91302 0.22006 0.0
H715 H 0.76071 0.85106 0.20593 0.0
H716 H 0.74431 0.88605 0.2812 0.0
S717 S 0.69007 0.93058 0.06649 0.0
N718 N 0.71077 0.90078 0.05671 0.0
N719 N 0.69171 0.93843 0.13936 0.0
C720 C 0.7099 0.9165 0.15905 0.0
C721 C 0.72014 0.89603 0.11422 0.0
C722 C 0.65121 0.334 0.66076 0.0
C723 C 0.66127 0.30788 0.63275 0.0
C724 C 0.62885 0.33315 0.70463 0.0
C725 C 0.61533 0.30627 0.72087 0.0
H726 H 0.66132 0.35514 0.65019 0.0
H727 H 0.62232 0.35359 0.72659 0.0
S728 S 0.63239 0.23198 0.65876 0.0
N729 N 0.65527 0.25452 0.62301 0.0
N730 N 0.61282 0.25312 0.70476 0.0
C731 C 0.62447 0.28016 0.69194 0.0
C732 C 0.64757 0.28091 0.64806 0.0
C733 C 0.25255 0.11773 0.15745 0.0
C734 C 0.26746 0.14366 0.13913 0.0
C735 C 0.26311 0.1004 0.2053 0.0
C736 C 0.289 0.10829 0.23663 0.0
H737 H 0.23179 0.11135 0.13651 0.0
H738 H 0.25003 0.08161 0.21994 0.0
S739 S 0.33906 0.17094 0.20059 0.0
N740 N 0.31159 0.17417 0.15176 0.0
N741 N 0.33127 0.14146 0.2418 0.0
C742 C 0.30524 0.1329 0.21634 0.0
C743 C 0.29455 0.15058 0.16753 0.0
C744 C 0.20096 0.31352 0.95112 0.0
C745 C 0.21762 0.30056 0.99765 0.0
C746 C 0.19651 0.34427 0.949 0.0
C747 C 0.20935 0.36329 0.99233 0.0
H748 H 0.19126 0.29978 0.9162 0.0
H749 H 0.18303 0.35317 0.91282 0.0
S750 S 0.25727 0.33979 0.1204 0.0
N751 N 0.24755 0.30852 0.08719 0.0
N752 N 0.24115 0.36641 0.08123 0.0
C753 C 0.22648 0.35036 0.03872 0.0
C754 C 0.23018 0.31899 0.04177 0.0
C755 C 0.16186 0.75187 0.53755 0.0
C756 C 0.17551 0.73459 0.4928 0.0
C757 C 0.13199 0.75993 0.53274 0.0
C758 C 0.11444 0.75042 0.48369 0.0
H759 H 0.17458 0.75991 0.57571 0.0
H760 H 0.12279 0.77423 0.56724 0.0
S761 S 0.13947 0.70166 0.35836 0.0
N762 N 0.16945 0.70691 0.39976 0.0
N763 N 0.11278 0.72037 0.39221 0.0
C764 C 0.12778 0.73215 0.43974 0.0
C765 C 0.15842 0.72464 0.44396 0.0
C766 C 0.77617 0.68904 0.94831 0.0
C767 C 0.78508 0.70741 0.99621 0.0
C768 C 0.77975 0.65818 0.9515 0.0
C769 C 0.79303 0.64455 0.00214 0.0
H770 H 0.76511 0.69845 0.90931 0.0
H771 H 0.77107 0.6449 0.91479 0.0
S772 S 0.82376 0.68389 0.13577 0.0
N773 N 0.80922 0.71042 0.09386 0.0
N774 N 0.81818 0.65281 0.09816 0.0
C775 C 0.80353 0.6631 0.04878 0.0
C776 C 0.79901 0.69439 0.04623 0.0
C777 C 0.84381 0.28498 0.52483 0.0
C778 C 0.82244 0.26938 0.49109 0.0
C779 C 0.87392 0.27737 0.52182 0.0
C780 C 0.88367 0.25388 0.4851 0.0
H781 H 0.83732 0.30354 0.55286 0.0
H782 H 0.88975 0.29033 0.54743 0.0
S783 S 0.83637 0.20382 0.39361 0.0
N784 N 0.81305 0.22787 0.42336 0.0
N785 N 0.86944 0.21352 0.4185 0.0
C786 C 0.86246 0.23752 0.45278 0.0
C787 C 0.83191 0.24529 0.45556 0.0
C788 C 0.73126 0.18932 0.54552 0.0
C789 C 0.71656 0.20687 0.50219 0.0
C790 C 0.72593 0.15882 0.55007 0.0
C791 C 0.70563 0.14452 0.51169 0.0
H792 H 0.7475 0.19904 0.57556 0.0
H793 H 0.73834 0.14621 0.58319 0.0
S794 S 0.65918 0.18058 0.39455 0.0
N795 N 0.67941 0.2078 0.42254 0.0
N796 N 0.66926 0.15047 0.43162 0.0
C797 C 0.6902 0.16182 0.46918 0.0
C798 C 0.69568 0.19295 0.46438 0.0
C799 C 0.34353 0.22311 0.9543 0.0
C800 C 0.32225 0.23963 0.98627 0.0
C801 C 0.37378 0.23031 0.95785 0.0
C802 C 0.38361 0.25425 0.99336 0.0
H803 H 0.3369 0.20396 0.92806 0.0
H804 H 0.38965 0.21654 0.93422 0.0
S805 S 0.33641 0.30712 0.07792 0.0
N806 N 0.31294 0.28285 0.04931 0.0
N807 N 0.36953 0.29633 0.05541 0.0
C808 C 0.36241 0.27177 0.0229 0.0
C809 C 0.3318 0.26446 0.01951 0.0
C810 C 0.26458 0.82244 0.52146 0.0
C811 C 0.28026 0.80188 0.48587 0.0
C812 C 0.27047 0.85285 0.518 0.0
C813 C 0.29242 0.86402 0.47912 0.0
H814 H 0.24717 0.81509 0.55163 0.0
H815 H 0.25725 0.86778 0.54518 0.0
S816 S 0.34167 0.81943 0.38036 0.0
N817 N 0.31981 0.79477 0.41271 0.0
N818 N 0.33124 0.85197 0.40705 0.0
C819 C 0.30877 0.84371 0.44425 0.0
C820 C 0.30262 0.81267 0.44744 0.0
C821 C 0.65789 0.78219 0.04015 0.0
C822 C 0.67846 0.76785 0.00236 0.0
C823 C 0.62764 0.77503 0.038 0.0
C824 C 0.6169 0.75324 0.99812 0.0
H825 H 0.66509 0.79957 0.07056 0.0
H826 H 0.61244 0.78715 0.06669 0.0
S827 S 0.66196 0.70652 0.89546 0.0
N828 N 0.68612 0.72904 0.92748 0.0
N829 N 0.62945 0.71554 0.92412 0.0
C830 C 0.63734 0.73798 0.96182 0.0
C831 C 0.66805 0.74529 0.96377 0.0
loop_
_geom_bond_atom_site_label_1
_geom_bond_atom_site_label_2
_geom_bond_distance
_geom_bond_site_symmetry_2
_ccdc_geom_bond_type
Fe0 O2 1.918 . S
Fe0 O5 1.997 . S
Fe0 O6 2.002 . S
Fe0 O11 1.976 . S
Fe0 O14 1.996 . S
Fe1 O2 1.918 1_556 S
Fe1 O9 1.997 . S
Fe1 O12 1.996 . S
Fe1 O16 1.976 . S
Fe1 O19 2.002 . S
O2 Fe0 1.918 . S
O2 Fe1 1.918 1_554 S
O2 Fe3 1.918 1_554 S
Fe3 O2 1.918 1_556 S
Fe3 O4 1.997 1_556 S
Fe3 O13 1.970 1_556 S
Fe3 O17 2.002 . S
Fe3 O20 2.003 . S
O4 Fe3 1.997 1_554 S
O4 C21 1.295 . S
O5 Fe0 1.997 . S
O5 C21 1.235 . S
O6 Fe0 2.002 . S
O6 C7 1.295 . S
C7 O6 1.295 . S
C7 O9 1.235 1_554 S
C8 O13 1.287 . S
C8 O14 1.255 . S
O9 Fe1 1.997 . S
O9 C7 1.235 1_556 S
C10 O16 1.287 . S
C10 O17 1.255 . S
O11 Fe0 1.976 . S
O11 C18 1.287 1_554 S
O12 Fe1 1.996 . S
O12 C18 1.255 . S
O13 Fe3 1.970 1_554 S
O13 C8 1.287 . S
O14 Fe0 1.996 . S
O14 C8 1.255 . S
C15 O19 1.295 . S
C15 O20 1.235 . S
O16 Fe1 1.976 . S
O16 C10 1.287 . S
O17 Fe3 2.002 . S
O17 C10 1.255 . S
C18 O11 1.287 1_556 S
C18 O12 1.255 . S
O19 Fe1 2.002 . S
O19 C15 1.295 . S
O20 Fe3 2.003 . S
O20 C15 1.235 . S
C21 O4 1.295 . S
C21 O5 1.235 . S
Fe22 O24 1.918 . S
Fe22 O27 1.997 . S
Fe22 O28 2.002 . S
Fe22 O33 1.976 . S
Fe22 O36 1.996 . S
Fe23 O24 1.918 . S
Fe23 O31 1.997 . S
Fe23 O34 1.996 . S
Fe23 O38 1.976 . S
Fe23 O41 2.002 . S
O24 Fe22 1.918 . S
O24 Fe23 1.918 . S
O24 Fe25 1.918 . S
Fe25 O24 1.918 . S
Fe25 O26 2.002 . S
Fe25 O35 1.976 . S
Fe25 O39 1.996 . S
Fe25 O42 1.997 . S
O26 Fe25 2.002 . S
O26 C43 1.295 . S
O27 Fe22 1.997 . S
O27 C43 1.235 . S
O28 Fe22 2.002 . S
O28 C29 1.295 . S
C29 O28 1.295 . S
C29 O31 1.235 . S
C30 O35 1.287 . S
C30 O36 1.255 . S
O31 Fe23 1.997 . S
O31 C29 1.235 . S
C32 O38 1.287 . S
C32 O39 1.255 . S
O33 Fe22 1.976 . S
O33 C40 1.287 . S
O34 Fe23 1.996 . S
O34 C40 1.255 . S
O35 Fe25 1.976 . S
O35 C30 1.287 . S
O36 Fe22 1.996 . S
O36 C30 1.255 . S
C37 O41 1.295 . S
C37 O42 1.235 . S
O38 Fe23 1.976 . S
O38 C32 1.287 . S
O39 Fe25 1.996 . S
O39 C32 1.255 . S
C40 O33 1.287 . S
C40 O34 1.255 . S
O41 Fe23 2.002 . S
O41 C37 1.295 . S
O42 Fe25 1.997 . S
O42 C37 1.235 . S
C43 O26 1.295 . S
C43 O27 1.235 . S
Fe44 O46 1.918 1_556 S
Fe44 O49 1.997 . S
Fe44 O50 2.002 . S
Fe44 O55 1.976 . S
Fe44 O58 1.996 . S
Fe45 O46 1.918 . S
Fe45 O53 1.997 . S
Fe45 O56 1.996 . S
Fe45 O60 1.976 . S
Fe45 O63 2.002 . S
O46 Fe44 1.918 1_554 S
O46 Fe45 1.918 . S
O46 Fe47 1.918 . S
Fe47 O46 1.918 . S
Fe47 O48 1.994 1_554 S
Fe47 O57 1.967 1_554 S
Fe47 O61 2.005 . S
Fe47 O64 2.006 . S
O48 Fe47 1.994 1_556 S
O48 C65 1.295 . S
O49 Fe44 1.997 . S
O49 C65 1.235 . S
O50 Fe44 2.002 . S
O50 C51 1.295 . S
C51 O50 1.295 . S
C51 O53 1.235 1_556 S
C52 O57 1.287 . S
C52 O58 1.255 . S
O53 Fe45 1.997 . S
O53 C51 1.235 1_554 S
C54 O60 1.287 . S
C54 O61 1.255 . S
O55 Fe44 1.976 . S
O55 C62 1.287 1_556 S
O56 Fe45 1.996 . S
O56 C62 1.255 . S
O57 Fe47 1.967 1_556 S
O57 C52 1.287 . S
O58 Fe44 1.996 . S
O58 C52 1.255 . S
C59 O63 1.295 . S
C59 O64 1.235 . S
O60 Fe45 1.976 . S
O60 C54 1.287 . S
O61 Fe47 2.005 . S
O61 C54 1.255 . S
C62 O55 1.287 1_554 S
C62 O56 1.255 . S
O63 Fe45 2.002 . S
O63 C59 1.295 . S
O64 Fe47 2.006 . S
O64 C59 1.235 . S
C65 O48 1.295 . S
C65 O49 1.235 . S
Fe66 O68 1.918 . S
Fe66 O71 1.997 . S
Fe66 O72 2.002 . S
Fe66 O77 1.976 . S
Fe66 O80 1.996 . S
Fe67 O68 1.918 . S
Fe67 O75 1.997 . S
Fe67 O78 1.996 . S
Fe67 O82 1.976 . S
Fe67 O85 2.002 . S
O68 Fe66 1.918 . S
O68 Fe67 1.918 . S
O68 Fe69 1.918 . S
Fe69 O68 1.918 . S
Fe69 O70 2.002 . S
Fe69 O79 1.976 . S
Fe69 O83 1.996 . S
Fe69 O86 1.997 . S
O70 Fe69 2.002 . S
O70 C87 1.295 . S
O71 Fe66 1.997 . S
O71 C87 1.235 . S
O72 Fe66 2.002 . S
O72 C73 1.295 . S
C73 O72 1.295 . S
C73 O75 1.235 . S
C74 O79 1.287 . S
C74 O80 1.255 . S
O75 Fe67 1.997 . S
O75 C73 1.235 . S
C76 O82 1.287 . S
C76 O83 1.255 . S
O77 Fe66 1.976 . S
O77 C84 1.287 . S
O78 Fe67 1.996 . S
O78 C84 1.255 . S
O79 Fe69 1.976 . S
O79 C74 1.287 . S
O80 Fe66 1.996 . S
O80 C74 1.255 . S
C81 O85 1.295 . S
C81 O86 1.235 . S
O82 Fe67 1.976 . S
O82 C76 1.287 . S
O83 Fe69 1.996 . S
O83 C76 1.255 . S
C84 O77 1.287 . S
C84 O78 1.255 . S
O85 Fe67 2.002 . S
O85 C81 1.295 . S
O86 Fe69 1.997 . S
O86 C81 1.235 . S
C87 O70 1.295 . S
C87 O71 1.235 . S
C88 C89 1.391 . S
C88 C92 1.391 . S
C88 H130 0.948 . S
C89 C88 1.391 . S
C89 C90 1.391 . S
C90 C89 1.391 . S
C90 H146 0.947 . S
C90 C147 1.392 . S
C91 C92 1.391 . S
C91 C95 1.397 . S
C91 C147 1.419 . S
C92 C88 1.391 . S
C92 C91 1.391 . S
C92 C93 1.399 . S
C93 C92 1.399 . S
C93 C96 1.396 . S
C93 C105 1.453 . S
C93 C106 1.684 . S
H94 C118 0.948 . S
C95 C91 1.397 . S
C95 C96 1.394 . S
C95 C114 1.723 1_556 S
C96 C93 1.396 . S
C96 C95 1.394 . S
C96 C126 1.723 . S
H97 C120 0.947 . S
H98 C121 0.948 . S
H99 C127 0.982 . S
H100 C128 0.979 . S
H101 C128 0.980 . S
H102 C128 0.983 . S
H103 C127 0.979 . S
H104 C127 0.977 . S
C105 C93 1.453 . S
C105 H134 0.982 . S
C105 H135 0.979 . S
C105 H136 0.977 . S
C106 C93 1.684 . S
C106 H131 0.979 . S
C106 H132 0.980 . S
C106 H133 0.983 . S
C107 C108 1.391 . S
C107 C112 1.391 . S
C107 H137 0.948 . S
C108 C107 1.391 . S
C108 C109 1.391 . S
C109 C108 1.391 . S
C109 C110 1.392 . S
C109 H138 0.947 . S
C110 C109 1.392 . S
C110 C111 1.419 . S
C110 H139 0.948 . S
C111 C110 1.419 . S
C111 C112 1.391 . S
C111 C115 1.397 . S
C112 C107 1.391 . S
C112 C111 1.391 . S
C112 C113 1.399 . S
C113 C112 1.399 . S
C113 C114 1.396 . S
C113 C116 1.453 . S
C113 C117 1.684 . S
C114 C95 1.723 1_554 S
C114 C113 1.396 . S
C114 C115 1.394 . S
C115 C111 1.397 . S
C115 C114 1.394 . S
C115 C125 1.723 . S
C116 C113 1.453 . S
C116 H140 0.982 . S
C116 H141 0.979 . S
C116 H142 0.977 1_554 S
C117 C113 1.684 . S
C117 H143 0.979 . S
C117 H144 0.980 1_554 S
C117 H145 0.983 . S
C118 H94 0.948 . S
C118 C119 1.391 1_554 S
C118 C123 1.391 . S
C119 C118 1.391 1_556 S
C119 C120 1.391 . S
C120 H97 0.947 . S
C120 C119 1.391 . S
C120 C121 1.392 . S
C121 H98 0.948 . S
C121 C120 1.392 . S
C121 C122 1.419 . S
C122 C121 1.419 . S
C122 C123 1.391 1_556 S
C122 C126 1.397 . S
C123 C118 1.391 . S
C123 C122 1.391 1_554 S
C123 C124 1.399 . S
C124 C123 1.399 . S
C124 C125 1.396 . S
C124 C127 1.453 . S
C124 C128 1.684 . S
C125 C115 1.723 . S
C125 C124 1.396 . S
C125 C126 1.394 1_554 S
C126 C96 1.723 . S
C126 C122 1.397 . S
C126 C125 1.394 1_556 S
C127 H99 0.982 . S
C127 H103 0.979 . S
C127 H104 0.977 . S
C127 C124 1.453 . S
C128 H100 0.979 . S
C128 H101 0.980 . S
C128 H102 0.983 . S
C128 C124 1.684 . S
H129 C147 0.948 . S
H130 C88 0.948 . S
H131 C106 0.979 . S
H132 C106 0.980 . S
H133 C106 0.983 . S
H134 C105 0.982 . S
H135 C105 0.979 . S
H136 C105 0.977 . S
H137 C107 0.948 . S
H138 C109 0.947 . S
H139 C110 0.948 . S
H140 C116 0.982 . S
H141 C116 0.979 . S
H142 C116 0.977 1_556 S
H143 C117 0.979 . S
H144 C117 0.980 1_556 S
H145 C117 0.983 . S
H146 C90 0.947 . S
C147 C90 1.392 . S
C147 C91 1.419 . S
C147 H129 0.948 . S
C148 C149 1.391 . S
C148 C152 1.391 . S
C148 H190 0.948 . S
C149 C148 1.391 . S
C149 C150 1.391 . S
C150 C149 1.391 . S
C150 H206 0.947 . S
C150 C207 1.392 . S
C151 C152 1.391 . S
C151 C155 1.397 . S
C151 C207 1.419 . S
C152 C148 1.391 . S
C152 C151 1.391 . S
C152 C153 1.399 . S
C153 C152 1.399 . S
C153 C156 1.396 . S
C153 C165 1.453 . S
C153 C166 1.684 . S
H154 C178 0.948 . S
C155 C151 1.397 . S
C155 C156 1.394 . S
C155 C174 1.723 1_455 S
C156 C153 1.396 . S
C156 C155 1.394 . S
C156 C186 1.723 1_455 S
H157 C180 0.947 . S
H158 C181 0.948 . S
H159 C187 0.982 . S
H160 C188 0.979 . S
H161 C188 0.980 . S
H162 C188 0.983 . S
H163 C187 0.979 . S
H164 C187 0.977 . S
C165 C153 1.453 . S
C165 H194 0.982 . S
C165 H195 0.979 . S
C165 H196 0.977 . S
C166 C153 1.684 . S
C166 H191 0.979 . S
C166 H192 0.980 . S
C166 H193 0.983 . S
C167 C168 1.391 . S
C167 C172 1.391 . S
C167 H197 0.948 . S
C168 C167 1.391 . S
C168 C169 1.391 . S
C169 C168 1.391 . S
C169 C170 1.392 . S
C169 H198 0.947 . S
C170 C169 1.392 . S
C170 C171 1.419 . S
C170 H199 0.948 . S
C171 C170 1.419 . S
C171 C172 1.391 . S
C171 C175 1.397 . S
C172 C167 1.391 . S
C172 C171 1.391 . S
C172 C173 1.399 . S
C173 C172 1.399 . S
C173 C174 1.396 . S
C173 C176 1.453 1_655 S
C173 C177 1.684 1_655 S
C174 C155 1.723 1_655 S
C174 C173 1.396 . S
C174 C175 1.394 . S
C175 C171 1.397 . S
C175 C174 1.394 . S
C175 C185 1.723 . S
C176 C173 1.453 1_455 S
C176 H200 0.982 . S
C176 H201 0.979 . S
C176 H202 0.977 . S
C177 C173 1.684 1_455 S
C177 H203 0.979 1_455 S
C177 H204 0.980 . S
C177 H205 0.983 . S
C178 H154 0.948 . S
C178 C179 1.391 . S
C178 C183 1.391 . S
C179 C178 1.391 . S
C179 C180 1.391 . S
C180 H157 0.947 . S
C180 C179 1.391 . S
C180 C181 1.392 . S
C181 H158 0.948 . S
C181 C180 1.392 . S
C181 C182 1.419 . S
C182 C181 1.419 . S
C182 C183 1.391 . S
C182 C186 1.397 . S
C183 C178 1.391 . S
C183 C182 1.391 . S
C183 C184 1.399 . S
C184 C183 1.399 . S
C184 C185 1.396 . S
C184 C187 1.453 . S
C184 C188 1.684 . S
C185 C175 1.723 . S
C185 C184 1.396 . S
C185 C186 1.394 . S
C186 C156 1.723 1_655 S
C186 C182 1.397 . S
C186 C185 1.394 . S
C187 H159 0.982 . S
C187 H163 0.979 . S
C187 H164 0.977 . S
C187 C184 1.453 . S
C188 H160 0.979 . S
C188 H161 0.980 . S
C188 H162 0.983 . S
C188 C184 1.684 . S
H189 C207 0.948 . S
H190 C148 0.948 . S
H191 C166 0.979 . S
H192 C166 0.980 . S
H193 C166 0.983 . S
H194 C165 0.982 . S
H195 C165 0.979 . S
H196 C165 0.977 . S
H197 C167 0.948 . S
H198 C169 0.947 . S
H199 C170 0.948 . S
H200 C176 0.982 . S
H201 C176 0.979 . S
H202 C176 0.977 . S
H203 C177 0.979 1_655 S
H204 C177 0.980 . S
H205 C177 0.983 . S
H206 C150 0.947 . S
C207 C150 1.392 . S
C207 C151 1.419 . S
C207 H189 0.948 . S
C208 C209 1.391 . S
C208 C212 1.391 . S
C208 H250 0.948 . S
C209 C208 1.391 . S
C209 C210 1.391 . S
C210 C209 1.391 . S
C210 H266 0.947 . S
C210 C267 1.392 . S
C211 C212 1.391 . S
C211 C215 1.397 . S
C211 C267 1.419 . S
C212 C208 1.391 . S
C212 C211 1.391 . S
C212 C213 1.399 . S
C213 C212 1.399 . S
C213 C216 1.396 . S
C213 C225 1.453 . S
C213 C226 1.684 . S
H214 C238 0.948 . S
C215 C211 1.397 . S
C215 C216 1.394 . S
C215 C234 1.723 1_554 S
C216 C213 1.396 . S
C216 C215 1.394 . S
C216 C246 1.723 . S
H217 C240 0.947 . S
H218 C241 0.948 . S
H219 C247 0.982 . S
H220 C248 0.979 . S
H221 C248 0.980 . S
H222 C248 0.983 . S
H223 C247 0.979 . S
H224 C247 0.977 . S
C225 C213 1.453 . S
C225 H254 0.982 . S
C225 H255 0.979 . S
C225 H256 0.977 . S
C226 C213 1.684 . S
C226 H251 0.979 . S
C226 H252 0.980 . S
C226 H253 0.983 . S
C227 C228 1.391 . S
C227 C232 1.391 . S
C227 H257 0.948 . S
C228 C227 1.391 . S
C228 C229 1.391 . S
C229 C228 1.391 . S
C229 C230 1.392 . S
C229 H258 0.947 . S
C230 C229 1.392 . S
C230 C231 1.419 . S
C230 H259 0.948 . S
C231 C230 1.419 . S
C231 C232 1.391 . S
C231 C235 1.397 . S
C232 C227 1.391 . S
C232 C231 1.391 . S
C232 C233 1.399 . S
C233 C232 1.399 . S
C233 C234 1.396 . S
C233 C236 1.453 . S
C233 C237 1.684 . S
C234 C215 1.723 1_556 S
C234 C233 1.396 . S
C234 C235 1.394 . S
C235 C231 1.397 . S
C235 C234 1.394 . S
C235 C245 1.723 . S
C236 C233 1.453 . S
C236 H260 0.982 . S
C236 H261 0.979 . S
C236 H262 0.977 1_556 S
C237 C233 1.684 . S
C237 H263 0.979 . S
C237 H264 0.980 1_556 S
C237 H265 0.983 . S
C238 H214 0.948 . S
C238 C239 1.391 1_556 S
C238 C243 1.391 . S
C239 C238 1.391 1_554 S
C239 C240 1.391 . S
C240 H217 0.947 . S
C240 C239 1.391 . S
C240 C241 1.392 . S
C241 H218 0.948 . S
C241 C240 1.392 . S
C241 C242 1.419 . S
C242 C241 1.419 . S
C242 C243 1.391 1_554 S
C242 C246 1.397 . S
C243 C238 1.391 . S
C243 C242 1.391 1_556 S
C243 C244 1.399 . S
C244 C243 1.399 . S
C244 C245 1.396 . S
C244 C247 1.453 . S
C244 C248 1.684 . S
C245 C235 1.723 . S
C245 C244 1.396 . S
C245 C246 1.394 1_556 S
C246 C216 1.723 . S
C246 C242 1.397 . S
C246 C245 1.394 1_554 S
C247 H219 0.982 . S
C247 H223 0.979 . S
C247 H224 0.977 . S
C247 C244 1.453 . S
C248 H220 0.979 . S
C248 H221 0.980 . S
C248 H222 0.983 . S
C248 C244 1.684 . S
H249 C267 0.948 . S
H250 C208 0.948 . S
H251 C226 0.979 . S
H252 C226 0.980 . S
H253 C226 0.983 . S
H254 C225 0.982 . S
H255 C225 0.979 . S
H256 C225 0.977 . S
H257 C227 0.948 . S
H258 C229 0.947 . S
H259 C230 0.948 . S
H260 C236 0.982 . S
H261 C236 0.979 . S
H262 C236 0.977 1_554 S
H263 C237 0.979 . S
H264 C237 0.980 1_554 S
H265 C237 0.983 . S
H266 C210 0.947 . S
C267 C210 1.392 . S
C267 C211 1.419 . S
C267 H249 0.948 . S
C268 C269 1.391 . S
C268 C272 1.391 . S
C268 H310 0.948 . S
C269 C268 1.391 . S
C269 C270 1.391 . S
C270 C269 1.391 . S
C270 H326 0.947 . S
C270 C327 1.392 . S
C271 C272 1.391 . S
C271 C275 1.397 . S
C271 C327 1.419 . S
C272 C268 1.391 . S
C272 C271 1.391 . S
C272 C273 1.399 . S
C273 C272 1.399 . S
C273 C276 1.396 . S
C273 C285 1.453 1_455 S
C273 C286 1.684 1_455 S
H274 C298 0.948 . S
C275 C271 1.397 . S
C275 C276 1.394 . S
C275 C294 1.723 . S
C276 C273 1.396 . S
C276 C275 1.394 . S
C276 C306 1.723 1_455 S
H277 C300 0.947 . S
H278 C301 0.948 . S
H279 C307 0.982 . S
H280 C308 0.979 . S
H281 C308 0.980 . S
H282 C308 0.983 . S
H283 C307 0.979 . S
H284 C307 0.977 . S
C285 C273 1.453 1_655 S
C285 H314 0.982 . S
C285 H315 0.979 . S
C285 H316 0.977 . S
C286 C273 1.684 1_655 S
C286 H311 0.979 1_655 S
C286 H312 0.980 . S
C286 H313 0.983 . S
C287 C288 1.391 . S
C287 C292 1.391 . S
C287 H317 0.948 . S
C288 C287 1.391 . S
C288 C289 1.391 . S
C289 C288 1.391 . S
C289 C290 1.392 . S
C289 H318 0.947 . S
C290 C289 1.392 . S
C290 C291 1.419 . S
C290 H319 0.948 . S
C291 C290 1.419 . S
C291 C292 1.391 . S
C291 C295 1.397 . S
C292 C287 1.391 . S
C292 C291 1.391 . S
C292 C293 1.399 . S
C293 C292 1.399 . S
C293 C294 1.396 . S
C293 C296 1.453 . S
C293 C297 1.684 . S
C294 C275 1.723 . S
C294 C293 1.396 . S
C294 C295 1.394 . S
C295 C291 1.397 . S
C295 C294 1.394 . S
C295 C305 1.723 1_455 S
C296 C293 1.453 . S
C296 H320 0.982 . S
C296 H321 0.979 . S
C296 H322 0.977 . S
C297 C293 1.684 . S
C297 H323 0.979 . S
C297 H324 0.980 . S
C297 H325 0.983 . S
C298 H274 0.948 . S
C298 C299 1.391 . S
C298 C303 1.391 . S
C299 C298 1.391 . S
C299 C300 1.391 . S
C300 H277 0.947 . S
C300 C299 1.391 . S
C300 C301 1.392 . S
C301 H278 0.948 . S
C301 C300 1.392 . S
C301 C302 1.419 . S
C302 C301 1.419 . S
C302 C303 1.391 . S
C302 C306 1.397 . S
C303 C298 1.391 . S
C303 C302 1.391 . S
C303 C304 1.399 . S
C304 C303 1.399 . S
C304 C305 1.396 . S
C304 C307 1.453 . S
C304 C308 1.684 . S
C305 C295 1.723 1_655 S
C305 C304 1.396 . S
C305 C306 1.394 . S
C306 C276 1.723 1_655 S
C306 C302 1.397 . S
C306 C305 1.394 . S
C307 H279 0.982 . S
C307 H283 0.979 . S
C307 H284 0.977 . S
C307 C304 1.453 . S
C308 H280 0.979 . S
C308 H281 0.980 . S
C308 H282 0.983 . S
C308 C304 1.684 . S
H309 C327 0.948 . S
H310 C268 0.948 . S
H311 C286 0.979 1_455 S
H312 C286 0.980 . S
H313 C286 0.983 . S
H314 C285 0.982 . S
H315 C285 0.979 . S
H316 C285 0.977 . S
H317 C287 0.948 . S
H318 C289 0.947 . S
H319 C290 0.948 . S
H320 C296 0.982 . S
H321 C296 0.979 . S
H322 C296 0.977 . S
H323 C297 0.979 . S
H324 C297 0.980 . S
H325 C297 0.983 . S
H326 C270 0.947 . S
C327 C270 1.392 . S
C327 C271 1.419 . S
C327 H309 0.948 . S
C328 C329 1.391 . S
C328 C332 1.391 . S
C328 H370 0.948 . S
C329 C328 1.391 . S
C329 C330 1.391 . S
C330 C329 1.391 . S
C330 H386 0.947 . S
C330 C387 1.392 . S
C331 C332 1.391 . S
C331 C335 1.397 . S
C331 C387 1.419 . S
C332 C328 1.391 . S
C332 C331 1.391 . S
C332 C333 1.399 . S
C333 C332 1.399 . S
C333 C336 1.397 . S
C333 C345 1.453 1_565 S
C333 C346 1.684 1_565 S
H334 C358 0.948 . S
C335 C331 1.397 . S
C335 C336 1.401 . S
C335 C354 1.723 . S
C336 C333 1.397 . S
C336 C335 1.401 . S
C336 C366 1.718 1_565 S
H337 C360 0.947 . S
H338 C361 0.948 . S
H339 C367 0.982 . S
H340 C368 0.979 . S
H341 C368 0.980 . S
H342 C368 0.983 . S
H343 C367 0.979 . S
H344 C367 0.977 . S
C345 C333 1.453 1_545 S
C345 H374 0.982 . S
C345 H375 0.979 . S
C345 H376 0.977 . S
C346 C333 1.684 1_545 S
C346 H371 0.979 . S
C346 H372 0.980 . S
C346 H373 0.983 . S
C347 C348 1.391 . S
C347 C352 1.391 . S
C347 H377 0.948 . S
C348 C347 1.391 . S
C348 C349 1.391 . S
C349 C348 1.391 . S
C349 C350 1.392 . S
C349 H378 0.947 . S
C350 C349 1.392 . S
C350 C351 1.419 . S
C350 H379 0.948 1_565 S
C351 C350 1.419 . S
C351 C352 1.391 . S
C351 C355 1.397 . S
C352 C347 1.391 . S
C352 C351 1.391 . S
C352 C353 1.399 . S
C353 C352 1.399 . S
C353 C354 1.396 . S
C353 C356 1.453 . S
C353 C357 1.684 . S
C354 C335 1.723 . S
C354 C353 1.396 . S
C354 C355 1.394 . S
C355 C351 1.397 . S
C355 C354 1.394 . S
C355 C365 1.723 1_565 S
C356 C353 1.453 . S
C356 H380 0.982 . S
C356 H381 0.979 . S
C356 H382 0.977 . S
C357 C353 1.684 . S
C357 H383 0.979 . S
C357 H384 0.980 . S
C357 H385 0.983 . S
C358 H334 0.948 . S
C358 C359 1.391 . S
C358 C363 1.391 . S
C359 C358 1.391 . S
C359 C360 1.391 . S
C360 H337 0.947 . S
C360 C359 1.391 . S
C360 C361 1.392 . S
C361 H338 0.948 . S
C361 C360 1.392 . S
C361 C362 1.419 . S
C362 C361 1.419 . S
C362 C363 1.391 . S
C362 C366 1.397 . S
C363 C358 1.391 . S
C363 C362 1.391 . S
C363 C364 1.399 . S
C364 C363 1.399 . S
C364 C365 1.396 . S
C364 C367 1.453 . S
C364 C368 1.684 . S
C365 C355 1.723 1_545 S
C365 C364 1.396 . S
C365 C366 1.394 . S
C366 C336 1.718 1_545 S
C366 C362 1.397 . S
C366 C365 1.394 . S
C367 H339 0.982 . S
C367 H343 0.979 . S
C367 H344 0.977 . S
C367 C364 1.453 . S
C368 H340 0.979 . S
C368 H341 0.980 . S
C368 H342 0.983 . S
C368 C364 1.684 . S
H369 C387 0.948 . S
H370 C328 0.948 . S
H371 C346 0.979 . S
H372 C346 0.980 . S
H373 C346 0.983 . S
H374 C345 0.982 . S
H375 C345 0.979 . S
H376 C345 0.977 . S
H377 C347 0.948 . S
H378 C349 0.947 . S
H379 C350 0.948 1_545 S
H380 C356 0.982 . S
H381 C356 0.979 . S
H382 C356 0.977 . S
H383 C357 0.979 . S
H384 C357 0.980 . S
H385 C357 0.983 . S
H386 C330 0.947 . S
C387 C330 1.392 . S
C387 C331 1.419 . S
C387 H369 0.948 . S
C388 C389 1.391 . S
C388 C392 1.391 . S
C388 H430 0.948 . S
C389 C388 1.391 . S
C389 C390 1.391 . S
C390 C389 1.391 . S
C390 H446 0.947 . S
C390 C447 1.392 . S
C391 C392 1.391 . S
C391 C395 1.397 . S
C391 C447 1.419 . S
C392 C388 1.391 . S
C392 C391 1.391 . S
C392 C393 1.399 . S
C393 C392 1.399 . S
C393 C396 1.396 . S
C393 C405 1.453 . S
C393 C406 1.684 . S
H394 C418 0.948 . S
C395 C391 1.397 . S
C395 C396 1.394 . S
C395 C414 1.723 1_554 S
C396 C393 1.396 . S
C396 C395 1.394 . S
C396 C426 1.723 . S
H397 C420 0.947 . S
H398 C421 0.948 . S
H399 C427 0.982 . S
H400 C428 0.979 . S
H401 C428 0.980 . S
H402 C428 0.983 . S
H403 C427 0.979 . S
H404 C427 0.977 . S
C405 C393 1.453 . S
C405 H434 0.982 . S
C405 H435 0.979 . S
C405 H436 0.977 . S
C406 C393 1.684 . S
C406 H431 0.979 . S
C406 H432 0.980 . S
C406 H433 0.983 . S
C407 C408 1.391 . S
C407 C412 1.391 . S
C407 H437 0.948 . S
C408 C407 1.391 . S
C408 C409 1.391 . S
C409 C408 1.391 . S
C409 C410 1.392 . S
C409 H438 0.947 . S
C410 C409 1.392 . S
C410 C411 1.419 . S
C410 H439 0.948 . S
C411 C410 1.419 . S
C411 C412 1.391 . S
C411 C415 1.397 . S
C412 C407 1.391 . S
C412 C411 1.391 . S
C412 C413 1.399 . S
C413 C412 1.399 . S
C413 C414 1.396 . S
C413 C416 1.453 . S
C413 C417 1.684 . S
C414 C395 1.723 1_556 S
C414 C413 1.396 . S
C414 C415 1.394 . S
C415 C411 1.397 . S
C415 C414 1.394 . S
C415 C425 1.723 . S
C416 C413 1.453 . S
C416 H440 0.982 . S
C416 H441 0.979 . S
C416 H442 0.977 1_556 S
C417 C413 1.684 . S
C417 H443 0.979 . S
C417 H444 0.980 1_556 S
C417 H445 0.983 . S
C418 H394 0.948 . S
C418 C419 1.391 1_556 S
C418 C423 1.391 . S
C419 C418 1.391 1_554 S
C419 C420 1.391 . S
C420 H397 0.947 . S
C420 C419 1.391 . S
C420 C421 1.392 . S
C421 H398 0.948 . S
C421 C420 1.392 . S
C421 C422 1.419 . S
C422 C421 1.419 . S
C422 C423 1.391 1_554 S
C422 C426 1.397 . S
C423 C418 1.391 . S
C423 C422 1.391 1_556 S
C423 C424 1.399 . S
C424 C423 1.399 . S
C424 C425 1.396 . S
C424 C427 1.453 . S
C424 C428 1.684 . S
C425 C415 1.723 . S
C425 C424 1.396 . S
C425 C426 1.394 1_556 S
C426 C396 1.723 . S
C426 C422 1.397 . S
C426 C425 1.394 1_554 S
C427 H399 0.982 . S
C427 H403 0.979 . S
C427 H404 0.977 . S
C427 C424 1.453 . S
C428 H400 0.979 . S
C428 H401 0.980 . S
C428 H402 0.983 . S
C428 C424 1.684 . S
H429 C447 0.948 . S
H430 C388 0.948 . S
H431 C406 0.979 . S
H432 C406 0.980 . S
H433 C406 0.983 . S
H434 C405 0.982 . S
H435 C405 0.979 . S
H436 C405 0.977 . S
H437 C407 0.948 . S
H438 C409 0.947 . S
H439 C410 0.948 . S
H440 C416 0.982 . S
H441 C416 0.979 . S
H442 C416 0.977 1_554 S
H443 C417 0.979 . S
H444 C417 0.980 1_554 S
H445 C417 0.983 . S
H446 C390 0.947 . S
C447 C390 1.392 . S
C447 C391 1.419 . S
C447 H429 0.948 . S
C448 C449 1.391 . S
C448 C452 1.391 . S
C448 H490 0.948 . S
C449 C448 1.391 . S
C449 C450 1.391 . S
C450 C449 1.391 . S
C450 H506 0.947 . S
C450 C507 1.392 . S
C451 C452 1.391 . S
C451 C455 1.397 . S
C451 C507 1.419 . S
C452 C448 1.391 . S
C452 C451 1.391 . S
C452 C453 1.399 . S
C453 C452 1.399 . S
C453 C456 1.396 . S
C453 C465 1.453 1_545 S
C453 C466 1.684 1_545 S
H454 C478 0.948 . S
C455 C451 1.397 . S
C455 C456 1.394 . S
C455 C474 1.723 . S
C456 C453 1.396 . S
C456 C455 1.394 . S
C456 C486 1.723 1_545 S
H457 C480 0.947 . S
H458 C481 0.948 . S
H459 C487 0.982 . S
H460 C488 0.979 . S
H461 C488 0.980 . S
H462 C488 0.983 . S
H463 C487 0.979 . S
H464 C487 0.977 . S
C465 C453 1.453 1_565 S
C465 H494 0.982 . S
C465 H495 0.979 . S
C465 H496 0.977 . S
C466 C453 1.684 1_565 S
C466 H491 0.979 . S
C466 H492 0.980 . S
C466 H493 0.983 . S
C467 C468 1.391 . S
C467 C472 1.391 . S
C467 H497 0.948 . S
C468 C467 1.391 . S
C468 C469 1.391 . S
C469 C468 1.391 . S
C469 C470 1.392 . S
C469 H498 0.947 . S
C470 C469 1.392 . S
C470 C471 1.419 . S
C470 H499 0.948 . S
C471 C470 1.419 . S
C471 C472 1.391 . S
C471 C475 1.397 . S
C472 C467 1.391 . S
C472 C471 1.391 . S
C472 C473 1.399 . S
C473 C472 1.399 . S
C473 C474 1.396 . S
C473 C476 1.453 . S
C473 C477 1.684 . S
C474 C455 1.723 . S
C474 C473 1.396 . S
C474 C475 1.394 . S
C475 C471 1.397 . S
C475 C474 1.394 . S
C475 C485 1.723 1_545 S
C476 C473 1.453 . S
C476 H500 0.982 . S
C476 H501 0.979 . S
C476 H502 0.977 . S
C477 C473 1.684 . S
C477 H503 0.979 . S
C477 H504 0.980 . S
C477 H505 0.983 . S
C478 H454 0.948 . S
C478 C479 1.391 . S
C478 C483 1.391 . S
C479 C478 1.391 . S
C479 C480 1.391 . S
C480 H457 0.947 . S
C480 C479 1.391 . S
C480 C481 1.392 . S
C481 H458 0.948 . S
C481 C480 1.392 . S
C481 C482 1.419 . S
C482 C481 1.419 . S
C482 C483 1.391 . S
C482 C486 1.397 . S
C483 C478 1.391 . S
C483 C482 1.391 . S
C483 C484 1.399 . S
C484 C483 1.399 . S
C484 C485 1.396 . S
C484 C487 1.453 . S
C484 C488 1.684 . S
C485 C475 1.723 1_565 S
C485 C484 1.396 . S
C485 C486 1.394 . S
C486 C456 1.723 1_565 S
C486 C482 1.397 . S
C486 C485 1.394 . S
C487 H459 0.982 . S
C487 H463 0.979 . S
C487 H464 0.977 . S
C487 C484 1.453 . S
C488 H460 0.979 . S
C488 H461 0.980 . S
C488 H462 0.983 . S
C488 C484 1.684 . S
H489 C507 0.948 . S
H490 C448 0.948 . S
H491 C466 0.979 . S
H492 C466 0.980 . S
H493 C466 0.983 . S
H494 C465 0.982 . S
H495 C465 0.979 . S
H496 C465 0.977 . S
H497 C467 0.948 . S
H498 C469 0.947 . S
H499 C470 0.948 . S
H500 C476 0.982 . S
H501 C476 0.979 . S
H502 C476 0.977 . S
H503 C477 0.979 . S
H504 C477 0.980 . S
H505 C477 0.983 . S
H506 C450 0.947 . S
C507 C450 1.392 . S
C507 C451 1.419 . S
C507 H489 0.948 . S
C508 C509 1.391 1_554 S
C508 C512 1.391 . S
C508 H550 0.948 . S
C509 C508 1.391 1_556 S
C509 C510 1.391 . S
C510 C509 1.391 . S
C510 H566 0.947 . S
C510 C567 1.392 . S
C511 C512 1.391 1_556 S
C511 C515 1.397 . S
C511 C567 1.419 . S
C512 C508 1.391 . S
C512 C511 1.391 1_554 S
C512 C513 1.399 . S
C513 C512 1.399 . S
C513 C516 1.396 . S
C513 C525 1.453 . S
C513 C526 1.684 . S
H514 C538 0.948 . S
C515 C511 1.397 . S
C515 C516 1.394 1_556 S
C515 C534 1.723 . S
C516 C513 1.396 . S
C516 C515 1.394 1_554 S
C516 C546 1.723 . S
H517 C540 0.947 . S
H518 C541 0.948 . S
H519 C547 0.982 . S
H520 C548 0.979 . S
H521 C548 0.980 1_556 S
H522 C548 0.983 . S
H523 C547 0.979 . S
H524 C547 0.977 1_556 S
C525 C513 1.453 . S
C525 H554 0.982 . S
C525 H555 0.979 . S
C525 H556 0.977 . S
C526 C513 1.684 . S
C526 H551 0.979 . S
C526 H552 0.980 . S
C526 H553 0.983 . S
C527 C528 1.391 . S
C527 C532 1.391 . S
C527 H557 0.948 . S
C528 C527 1.391 . S
C528 C529 1.391 . S
C529 C528 1.391 . S
C529 C530 1.392 . S
C529 H558 0.947 . S
C530 C529 1.392 . S
C530 C531 1.419 . S
C530 H559 0.948 . S
C531 C530 1.419 . S
C531 C532 1.391 . S
C531 C535 1.397 . S
C532 C527 1.391 . S
C532 C531 1.391 . S
C532 C533 1.399 . S
C533 C532 1.399 . S
C533 C534 1.396 . S
C533 C536 1.453 . S
C533 C537 1.684 . S
C534 C515 1.723 . S
C534 C533 1.396 . S
C534 C535 1.394 . S
C535 C531 1.397 . S
C535 C534 1.394 . S
C535 C545 1.723 1_556 S
C536 C533 1.453 . S
C536 H560 0.982 . S
C536 H561 0.979 . S
C536 H562 0.977 . S
C537 C533 1.684 . S
C537 H563 0.979 . S
C537 H564 0.980 . S
C537 H565 0.983 . S
C538 H514 0.948 . S
C538 C539 1.391 . S
C538 C543 1.391 . S
C539 C538 1.391 . S
C539 C540 1.391 . S
C540 H517 0.947 . S
C540 C539 1.391 . S
C540 C541 1.392 . S
C541 H518 0.948 . S
C541 C540 1.392 . S
C541 C542 1.419 . S
C542 C541 1.419 . S
C542 C543 1.391 . S
C542 C546 1.397 . S
C543 C538 1.391 . S
C543 C542 1.391 . S
C543 C544 1.399 . S
C544 C543 1.399 . S
C544 C545 1.396 . S
C544 C547 1.453 . S
C544 C548 1.684 . S
C545 C535 1.723 1_554 S
C545 C544 1.396 . S
C545 C546 1.394 . S
C546 C516 1.723 . S
C546 C542 1.397 . S
C546 C545 1.394 . S
C547 H519 0.982 . S
C547 H523 0.979 . S
C547 H524 0.977 1_554 S
C547 C544 1.453 . S
C548 H520 0.979 . S
C548 H521 0.980 1_554 S
C548 H522 0.983 . S
C548 C544 1.684 . S
H549 C567 0.948 . S
H550 C508 0.948 . S
H551 C526 0.979 . S
H552 C526 0.980 . S
H553 C526 0.983 . S
H554 C525 0.982 . S
H555 C525 0.979 . S
H556 C525 0.977 . S
H557 C527 0.948 . S
H558 C529 0.947 . S
H559 C530 0.948 . S
H560 C536 0.982 . S
H561 C536 0.979 . S
H562 C536 0.977 . S
H563 C537 0.979 . S
H564 C537 0.980 . S
H565 C537 0.983 . S
H566 C510 0.947 . S
C567 C510 1.392 . S
C567 C511 1.419 . S
C567 H549 0.948 . S
C568 C569 1.369 . S
C568 C570 1.419 . S
C568 H572 0.930 . S
C569 C568 1.369 . S
C569 C578 1.429 . S
C570 C568 1.419 . S
C570 C571 1.363 . S
C570 H573 0.929 . S
C571 C570 1.363 . S
C571 C577 1.428 . S
H572 C568 0.930 . S
H573 C570 0.929 . S
S574 N575 1.613 . S
S574 N576 1.610 . S
N575 S574 1.613 . S
N575 C578 1.350 . S
N576 S574 1.610 . S
N576 C577 1.351 . S
C577 C571 1.428 . S
C577 N576 1.351 . S
C577 C578 1.434 . S
C578 C569 1.429 . S
C578 N575 1.350 . S
C578 C577 1.434 . S
C579 C580 1.369 . S
C579 C581 1.419 . S
C579 H583 0.930 . S
C580 C579 1.369 . S
C580 C589 1.429 . S
C581 C579 1.419 . S
C581 C582 1.363 . S
C581 H584 0.929 . S
C582 C581 1.363 . S
C582 C588 1.428 . S
H583 C579 0.930 . S
H584 C581 0.929 . S
S585 N586 1.613 . S
S585 N587 1.610 . S
N586 S585 1.613 . S
N586 C589 1.350 . S
N587 S585 1.610 . S
N587 C588 1.351 . S
C588 C582 1.428 . S
C588 N587 1.351 . S
C588 C589 1.434 . S
C589 C580 1.429 . S
C589 N586 1.350 . S
C589 C588 1.434 . S
C590 C591 1.369 . S
C590 C592 1.419 . S
C590 H594 0.930 . S
C591 C590 1.369 . S
C591 C600 1.429 . S
C592 C590 1.419 . S
C592 C593 1.363 . S
C592 H595 0.929 . S
C593 C592 1.363 . S
C593 C599 1.428 . S
H594 C590 0.930 . S
H595 C592 0.929 . S
S596 N597 1.613 . S
S596 N598 1.610 . S
N597 S596 1.613 . S
N597 C600 1.350 . S
N598 S596 1.610 . S
N598 C599 1.351 . S
C599 C593 1.428 . S
C599 N598 1.351 . S
C599 C600 1.434 . S
C600 C591 1.429 . S
C600 N597 1.350 . S
C600 C599 1.434 . S
C601 C602 1.369 . S
C601 C603 1.419 . S
C601 H605 0.930 . S
C602 C601 1.369 . S
C602 C611 1.429 . S
C603 C601 1.419 . S
C603 C604 1.363 . S
C603 H606 0.929 . S
C604 C603 1.363 . S
C604 C610 1.428 . S
H605 C601 0.930 . S
H606 C603 0.929 . S
S607 N608 1.613 . S
S607 N609 1.610 . S
N608 S607 1.613 . S
N608 C611 1.350 . S
N609 S607 1.610 . S
N609 C610 1.351 . S
C610 C604 1.428 . S
C610 N609 1.351 . S
C610 C611 1.434 . S
C611 C602 1.429 . S
C611 N608 1.350 . S
C611 C610 1.434 . S
C612 C613 1.369 . S
C612 C614 1.419 . S
C612 H616 0.930 . S
C613 C612 1.369 . S
C613 C622 1.429 . S
C614 C612 1.419 . S
C614 C615 1.363 . S
C614 H617 0.929 . S
C615 C614 1.363 . S
C615 C621 1.428 . S
H616 C612 0.930 . S
H617 C614 0.929 . S
S618 N619 1.613 . S
S618 N620 1.610 . S
N619 S618 1.613 . S
N619 C622 1.350 . S
N620 S618 1.610 . S
N620 C621 1.351 . S
C621 C615 1.428 . S
C621 N620 1.351 . S
C621 C622 1.434 . S
C622 C613 1.429 . S
C622 N619 1.350 . S
C622 C621 1.434 . S
C623 C624 1.369 . S
C623 C625 1.419 . S
C623 H627 0.930 . S
C624 C623 1.369 . S
C624 C633 1.429 . S
C625 C623 1.419 . S
C625 C626 1.363 . S
C625 H628 0.929 . S
C626 C625 1.363 . S
C626 C632 1.428 . S
H627 C623 0.930 . S
H628 C625 0.929 . S
S629 N630 1.613 . S
S629 N631 1.610 . S
N630 S629 1.613 . S
N630 C633 1.350 . S
N631 S629 1.610 . S
N631 C632 1.351 . S
C632 C626 1.428 . S
C632 N631 1.351 . S
C632 C633 1.434 . S
C633 C624 1.429 . S
C633 N630 1.350 . S
C633 C632 1.434 . S
C634 C635 1.369 . S
C634 C636 1.419 . S
C634 H638 0.930 . S
C635 C634 1.369 . S
C635 C644 1.429 . S
C636 C634 1.419 . S
C636 C637 1.363 . S
C636 H639 0.929 . S
C637 C636 1.363 . S
C637 C643 1.428 . S
H638 C634 0.930 . S
H639 C636 0.929 . S
S640 N641 1.613 . S
S640 N642 1.610 . S
N641 S640 1.613 . S
N641 C644 1.350 . S
N642 S640 1.610 . S
N642 C643 1.351 . S
C643 C637 1.428 . S
C643 N642 1.351 . S
C643 C644 1.434 . S
C644 C635 1.429 . S
C644 N641 1.350 . S
C644 C643 1.434 . S
C645 C646 1.369 . S
C645 C647 1.419 . S
C645 H649 0.930 . S
C646 C645 1.369 . S
C646 C655 1.429 . S
C647 C645 1.419 . S
C647 C648 1.363 . S
C647 H650 0.929 . S
C648 C647 1.363 . S
C648 C654 1.428 . S
H649 C645 0.930 . S
H650 C647 0.929 . S
S651 N652 1.613 . S
S651 N653 1.610 . S
N652 S651 1.613 . S
N652 C655 1.350 . S
N653 S651 1.610 . S
N653 C654 1.351 . S
C654 C648 1.428 . S
C654 N653 1.351 . S
C654 C655 1.434 . S
C655 C646 1.429 . S
C655 N652 1.350 . S
C655 C654 1.434 . S
C656 C657 1.369 . S
C656 C658 1.419 . S
C656 H660 0.930 . S
C657 C656 1.369 . S
C657 C666 1.429 . S
C658 C656 1.419 . S
C658 C659 1.363 . S
C658 H661 0.929 . S
C659 C658 1.363 . S
C659 C665 1.428 . S
H660 C656 0.930 . S
H661 C658 0.929 . S
S662 N663 1.613 . S
S662 N664 1.610 . S
N663 S662 1.613 . S
N663 C666 1.350 . S
N664 S662 1.610 . S
N664 C665 1.351 . S
C665 C659 1.428 . S
C665 N664 1.351 . S
C665 C666 1.434 . S
C666 C657 1.429 . S
C666 N663 1.350 . S
C666 C665 1.434 . S
C667 C668 1.369 . S
C667 C669 1.419 . S
C667 H671 0.930 . S
C668 C667 1.369 . S
C668 C677 1.429 . S
C669 C667 1.419 . S
C669 C670 1.363 . S
C669 H672 0.929 . S
C670 C669 1.363 . S
C670 C676 1.428 . S
H671 C667 0.930 . S
H672 C669 0.929 . S
S673 N674 1.613 . S
S673 N675 1.610 . S
N674 S673 1.613 . S
N674 C677 1.350 . S
N675 S673 1.610 . S
N675 C676 1.351 . S
C676 C670 1.428 . S
C676 N675 1.351 . S
C676 C677 1.434 . S
C677 C668 1.429 . S
C677 N674 1.350 . S
C677 C676 1.434 . S
C678 C679 1.369 . S
C678 C680 1.419 . S
C678 H682 0.930 . S
C679 C678 1.369 . S
C679 C688 1.429 . S
C680 C678 1.419 . S
C680 C681 1.363 . S
C680 H683 0.929 . S
C681 C680 1.363 . S
C681 C687 1.428 . S
H682 C678 0.930 . S
H683 C680 0.929 . S
S684 N685 1.613 . S
S684 N686 1.610 . S
N685 S684 1.613 . S
N685 C688 1.350 . S
N686 S684 1.610 . S
N686 C687 1.351 . S
C687 C681 1.428 . S
C687 N686 1.351 . S
C687 C688 1.434 . S
C688 C679 1.429 . S
C688 N685 1.350 . S
C688 C687 1.434 . S
C689 C690 1.369 . S
C689 C691 1.419 . S
C689 H693 0.930 . S
C690 C689 1.369 . S
C690 C699 1.429 . S
C691 C689 1.419 . S
C691 C692 1.363 . S
C691 H694 0.929 . S
C692 C691 1.363 . S
C692 C698 1.428 . S
H693 C689 0.930 . S
H694 C691 0.929 . S
S695 N696 1.613 . S
S695 N697 1.610 . S
N696 S695 1.613 . S
N696 C699 1.350 . S
N697 S695 1.610 . S
N697 C698 1.351 . S
C698 C692 1.428 . S
C698 N697 1.351 . S
C698 C699 1.434 . S
C699 C690 1.429 . S
C699 N696 1.350 . S
C699 C698 1.434 . S
C700 C701 1.369 . S
C700 C702 1.419 . S
C700 H704 0.930 . S
C701 C700 1.369 . S
C701 C710 1.429 . S
C702 C700 1.419 . S
C702 C703 1.363 . S
C702 H705 0.929 . S
C703 C702 1.363 . S
C703 C709 1.428 . S
H704 C700 0.930 . S
H705 C702 0.929 . S
S706 N707 1.613 . S
S706 N708 1.610 . S
N707 S706 1.613 . S
N707 C710 1.350 . S
N708 S706 1.610 . S
N708 C709 1.351 . S
C709 C703 1.428 . S
C709 N708 1.351 . S
C709 C710 1.434 . S
C710 C701 1.429 . S
C710 N707 1.350 . S
C710 C709 1.434 . S
C711 C712 1.369 . S
C711 C713 1.419 . S
C711 H715 0.930 . S
C712 C711 1.369 . S
C712 C721 1.429 . S
C713 C711 1.419 . S
C713 C714 1.363 . S
C713 H716 0.929 . S
C714 C713 1.363 . S
C714 C720 1.428 . S
H715 C711 0.930 . S
H716 C713 0.929 . S
S717 N718 1.613 . S
S717 N719 1.610 . S
N718 S717 1.613 . S
N718 C721 1.350 . S
N719 S717 1.610 . S
N719 C720 1.351 . S
C720 C714 1.428 . S
C720 N719 1.351 . S
C720 C721 1.434 . S
C721 C712 1.429 . S
C721 N718 1.350 . S
C721 C720 1.434 . S
C722 C723 1.369 . S
C722 C724 1.419 . S
C722 H726 0.930 . S
C723 C722 1.369 . S
C723 C732 1.429 . S
C724 C722 1.419 . S
C724 C725 1.363 . S
C724 H727 0.929 . S
C725 C724 1.363 . S
C725 C731 1.428 . S
H726 C722 0.930 . S
H727 C724 0.929 . S
S728 N729 1.613 . S
S728 N730 1.610 . S
N729 S728 1.613 . S
N729 C732 1.350 . S
N730 S728 1.610 . S
N730 C731 1.351 . S
C731 C725 1.428 . S
C731 N730 1.351 . S
C731 C732 1.434 . S
C732 C723 1.429 . S
C732 N729 1.350 . S
C732 C731 1.434 . S
C733 C734 1.369 . S
C733 C735 1.419 . S
C733 H737 0.930 . S
C734 C733 1.369 . S
C734 C743 1.429 . S
C735 C733 1.419 . S
C735 C736 1.363 . S
C735 H738 0.929 . S
C736 C735 1.363 . S
C736 C742 1.428 . S
H737 C733 0.930 . S
H738 C735 0.929 . S
S739 N740 1.613 . S
S739 N741 1.610 . S
N740 S739 1.613 . S
N740 C743 1.350 . S
N741 S739 1.610 . S
N741 C742 1.351 . S
C742 C736 1.428 . S
C742 N741 1.351 . S
C742 C743 1.434 . S
C743 C734 1.429 . S
C743 N740 1.350 . S
C743 C742 1.434 . S
C744 C745 1.369 1_556 S
C744 C746 1.419 . S
C744 H748 0.930 . S
C745 C744 1.369 1_554 S
C745 C754 1.429 . S
C746 C744 1.419 . S
C746 C747 1.361 1_556 S
C746 H749 0.929 . S
C747 C746 1.361 1_554 S
C747 C753 1.431 . S
H748 C744 0.930 . S
H749 C746 0.929 . S
S750 N751 1.613 . S
S750 N752 1.610 . S
N751 S750 1.613 . S
N751 C754 1.350 . S
N752 S750 1.610 . S
N752 C753 1.351 . S
C753 C747 1.431 . S
C753 N752 1.351 . S
C753 C754 1.434 . S
C754 C745 1.429 . S
C754 N751 1.350 . S
C754 C753 1.434 . S
C755 C756 1.369 . S
C755 C757 1.419 . S
C755 H759 0.930 . S
C756 C755 1.369 . S
C756 C765 1.429 . S
C757 C755 1.419 . S
C757 C758 1.363 . S
C757 H760 0.929 . S
C758 C757 1.363 . S
C758 C764 1.428 . S
H759 C755 0.930 . S
H760 C757 0.929 . S
S761 N762 1.613 . S
S761 N763 1.610 . S
N762 S761 1.613 . S
N762 C765 1.350 . S
N763 S761 1.610 . S
N763 C764 1.351 . S
C764 C758 1.428 . S
C764 N763 1.351 . S
C764 C765 1.434 . S
C765 C756 1.429 . S
C765 N762 1.350 . S
C765 C764 1.434 . S
C766 C767 1.369 1_556 S
C766 C768 1.419 . S
C766 H770 0.930 . S
C767 C766 1.369 1_554 S
C767 C776 1.429 . S
C768 C766 1.419 . S
C768 C769 1.354 1_556 S
C768 H771 0.929 . S
C769 C768 1.354 1_554 S
C769 C775 1.438 . S
H770 C766 0.930 . S
H771 C768 0.929 . S
S772 N773 1.613 . S
S772 N774 1.610 . S
N773 S772 1.613 . S
N773 C776 1.350 . S
N774 S772 1.610 . S
N774 C775 1.351 . S
C775 C769 1.438 . S
C775 N774 1.351 . S
C775 C776 1.434 . S
C776 C767 1.429 . S
C776 N773 1.350 . S
C776 C775 1.434 . S
C777 C778 1.369 . S
C777 C779 1.419 . S
C777 H781 0.930 . S
C778 C777 1.369 . S
C778 C787 1.429 . S
C779 C777 1.419 . S
C779 C780 1.363 . S
C779 H782 0.929 . S
C780 C779 1.363 . S
C780 C786 1.428 . S
H781 C777 0.930 . S
H782 C779 0.929 . S
S783 N784 1.613 . S
S783 N785 1.610 . S
N784 S783 1.613 . S
N784 C787 1.350 . S
N785 S783 1.610 . S
N785 C786 1.351 . S
C786 C780 1.428 . S
C786 N785 1.351 . S
C786 C787 1.434 . S
C787 C778 1.429 . S
C787 N784 1.350 . S
C787 C786 1.434 . S
C788 C789 1.369 . S
C788 C790 1.419 . S
C788 H792 0.930 . S
C789 C788 1.369 . S
C789 C798 1.429 . S
C790 C788 1.419 . S
C790 C791 1.363 . S
C790 H793 0.929 . S
C791 C790 1.363 . S
C791 C797 1.428 . S
H792 C788 0.930 . S
H793 C790 0.929 . S
S794 N795 1.613 . S
S794 N796 1.610 . S
N795 S794 1.613 . S
N795 C798 1.350 . S
N796 S794 1.610 . S
N796 C797 1.351 . S
C797 C791 1.428 . S
C797 N796 1.351 . S
C797 C798 1.434 . S
C798 C789 1.429 . S
C798 N795 1.350 . S
C798 C797 1.434 . S
C799 C800 1.371 . S
C799 C801 1.419 . S
C799 H803 0.930 . S
C800 C799 1.371 . S
C800 C809 1.427 1_556 S
C801 C799 1.419 . S
C801 C802 1.363 . S
C801 H804 0.929 . S
C802 C801 1.363 . S
C802 C808 1.428 1_556 S
H803 C799 0.930 . S
H804 C801 0.929 . S
S805 N806 1.613 . S
S805 N807 1.610 . S
N806 S805 1.613 . S
N806 C809 1.350 . S
N807 S805 1.610 . S
N807 C808 1.351 . S
C808 C802 1.428 1_554 S
C808 N807 1.351 . S
C808 C809 1.434 . S
C809 C800 1.427 1_554 S
C809 N806 1.350 . S
C809 C808 1.434 . S
C810 C811 1.369 . S
C810 C812 1.419 . S
C810 H814 0.930 . S
C811 C810 1.369 . S
C811 C820 1.429 . S
C812 C810 1.419 . S
C812 C813 1.363 . S
C812 H815 0.929 . S
C813 C812 1.363 . S
C813 C819 1.428 . S
H814 C810 0.930 . S
H815 C812 0.929 . S
S816 N817 1.613 . S
S816 N818 1.610 . S
N817 S816 1.613 . S
N817 C820 1.350 . S
N818 S816 1.610 . S
N818 C819 1.351 . S
C819 C813 1.428 . S
C819 N818 1.351 . S
C819 C820 1.434 . S
C820 C811 1.429 . S
C820 N817 1.350 . S
C820 C819 1.434 . S
C821 C822 1.369 1_554 S
C821 C823 1.419 . S
C821 H825 0.930 . S
C822 C821 1.369 1_556 S
C822 C831 1.429 . S
C823 C821 1.419 . S
C823 C824 1.357 1_554 S
C823 H826 0.929 . S
C824 C823 1.357 1_556 S
C824 C830 1.435 . S
H825 C821 0.930 . S
H826 C823 0.929 . S
S827 N828 1.613 . S
S827 N829 1.610 . S
N828 S827 1.613 . S
N828 C831 1.350 . S
N829 S827 1.610 . S
N829 C830 1.351 . S
C830 C824 1.435 . S
C830 N829 1.351 . S
C830 C831 1.434 . S
C831 C822 1.429 . S
C831 N828 1.350 . S
C831 C830 1.434 . S
C569 C21 1.668 . S
C571 C269 1.538 . S
C580 C40 1.815 . S
C582 C89 1.719 . S
C593 C168 1.508 . S
C591 C54 1.656 . S
C602 C73 1.859 . S
C604 C228 1.704 . S
C615 C389 1.508 . S
C613 C74 1.656 . S
C626 C468 1.667 . S
C624 C10 1.818 . S
C637 C539 1.687 . S
C635 C37 1.666 . S
C648 C329 1.756 . S
C646 C65 1.860 . S
C657 C52 1.666 . S
C659 C179 1.577 . S
C668 C87 1.852 . S
C670 C209 1.646 . S
C679 C15 1.679 . S
C681 C288 1.614 . S
C692 C108 1.772 . S
C690 C32 1.811 . S
C701 C29 1.677 . S
C703 C528 1.628 . S
C714 C348 1.808 . S
C712 C59 1.852 . S
C725 C408 1.575 . S
C723 C84 1.668 . S
C734 C8 1.809 . S
C736 C449 1.608 . S
C747 C119 1.832 1_554 S
C745 C7 1.901 . S
C758 C149 1.612 . S
C756 C30 1.706 . S
C767 C62 1.906 . S
C769 C239 1.742 . S
C778 C81 1.670 . S
C780 C299 1.616 . S
C791 C359 1.855 . S
C789 C76 1.906 . S
C800 C18 1.704 . S
C802 C419 1.616 1_556 S
C811 C43 1.899 . S
C813 C479 1.728 . S
C822 C51 1.673 . S
C824 C509 1.692 . S
