# Generated by pormake.
# Topology nom, (4,4)-cn, num edge types: 1
# Building blocks:
#     Node 0, Type 0, BuildingBlock: MIFKUJ_clean_linker_1, # of connection points: 4
#     Node 1, Type 0, BuildingBlock: MIFKUJ_clean_linker_1, # of connection points: 4
#     Node 2, Type 0, BuildingBlock: MIFKUJ_clean_linker_1, # of connection points: 4
#     Node 3, Type 0, BuildingBlock: MIFKUJ_clean_linker_1, # of connection points: 4
#     Node 4, Type 0, BuildingBlock: MIFKUJ_clean_linker_1, # of connection points: 4
#     Node 5, Type 0, BuildingBlock: MIFKUJ_clean_linker_1, # of connection points: 4
#     Node 6, Type 1, BuildingBlock: NAHDIM_clean_sbu_0, # of connection points: 4
#     Node 7, Type 1, BuildingBlock: NAHDIM_clean_sbu_0, # of connection points: 4
#     Node 8, Type 1, BuildingBlock: NAHDIM_clean_sbu_0, # of connection points: 4
#     Node 9, Type 1, BuildingBlock: NAHDIM_clean_sbu_0, # of connection points: 4
#     Node 10, Type 1, BuildingBlock: NAHDIM_clean_sbu_0, # of connection points: 4
#     Node 11, Type 1, BuildingBlock: NAHDIM_clean_sbu_0, # of connection points: 4
#     Edge 12, Type (0, 1), BuildingBlock: MIFKUJ_clean_linker_0, # of connection points: 2
#     Edge 13, Type (0, 1), BuildingBlock: MIFKUJ_clean_linker_0, # of connection points: 2
#     Edge 14, Type (0, 1), BuildingBlock: MIFKUJ_clean_linker_0, # of connection points: 2
#     Edge 15, Type (0, 1), BuildingBlock: MIFKUJ_clean_linker_0, # of connection points: 2
#     Edge 16, Type (0, 1), BuildingBlock: MIFKUJ_clean_linker_0, # of connection points: 2
#     Edge 17, Type (0, 1), BuildingBlock: MIFKUJ_clean_linker_0, # of connection points: 2
#     Edge 18, Type (0, 1), BuildingBlock: MIFKUJ_clean_linker_0, # of connection points: 2
#     Edge 19, Type (0, 1), BuildingBlock: MIFKUJ_clean_linker_0, # of connection points: 2
#     Edge 20, Type (0, 1), BuildingBlock: MIFKUJ_clean_linker_0, # of connection points: 2
#     Edge 21, Type (0, 1), BuildingBlock: MIFKUJ_clean_linker_0, # of connection points: 2
#     Edge 22, Type (0, 1), BuildingBlock: MIFKUJ_clean_linker_0, # of connection points: 2
#     Edge 23, Type (0, 1), BuildingBlock: MIFKUJ_clean_linker_0, # of connection points: 2
#     Edge 24, Type (0, 1), BuildingBlock: MIFKUJ_clean_linker_0, # of connection points: 2
#     Edge 25, Type (0, 1), BuildingBlock: MIFKUJ_clean_linker_0, # of connection points: 2
#     Edge 26, Type (0, 1), BuildingBlock: MIFKUJ_clean_linker_0, # of connection points: 2
#     Edge 27, Type (0, 1), BuildingBlock: MIFKUJ_clean_linker_0, # of connection points: 2
#     Edge 28, Type (0, 1), BuildingBlock: MIFKUJ_clean_linker_0, # of connection points: 2
#     Edge 29, Type (0, 1), BuildingBlock: MIFKUJ_clean_linker_0, # of connection points: 2
#     Edge 30, Type (0, 1), BuildingBlock: MIFKUJ_clean_linker_0, # of connection points: 2
#     Edge 31, Type (0, 1), BuildingBlock: MIFKUJ_clean_linker_0, # of connection points: 2
#     Edge 32, Type (0, 1), BuildingBlock: MIFKUJ_clean_linker_0, # of connection points: 2
#     Edge 33, Type (0, 1), BuildingBlock: MIFKUJ_clean_linker_0, # of connection points: 2
#     Edge 34, Type (0, 1), BuildingBlock: MIFKUJ_clean_linker_0, # of connection points: 2
#     Edge 35, Type (0, 1), BuildingBlock: MIFKUJ_clean_linker_0, # of connection points: 2
# Relax obj value: 0.020
# Max RMSD: 0.118
# Mean RMSD: 0.104
data_MOF--net-nom--node1-NAHDIM_clean_sbu_0--node2-MIFKUJ_clean_linker_1--edge1-MIFKUJ_clean_linker_0
_symmetry_space_group_name_H-M    P1
_symmetry_Int_Tables_number       1
_symmetry_cell_setting            triclinic
loop_
_symmetry_equiv_pos_as_xyz
'x, y, z'
_cell_length_a     65.603751
_cell_length_b     67.447662
_cell_length_c     70.542105
_cell_angle_alpha  89.977612
_cell_angle_beta   90.582406
_cell_angle_gamma 120.94901
loop_
_atom_site_label
_atom_site_type_symbol
_atom_site_fract_x
_atom_site_fract_y
_atom_site_fract_z
_atom_type_partial_charge
H0 H 0.98175 0.47292 0.27832 0.0
H1 H 0.95348 0.45599 0.25198 0.0
H2 H 0.92233 0.49655 0.26783 0.0
H3 H 0.95161 0.51438 0.29348 0.0
H4 H 0.01568 0.51789 0.28476 0.0
H5 H 0.94053 0.46107 0.31571 0.0
H6 H 0.89906 0.44699 0.32369 0.0
H7 H 0.92079 0.51185 0.35205 0.0
H8 H 0.96167 0.52622 0.34301 0.0
H9 H 0.02587 0.55653 0.35988 0.0
H10 H 0.05423 0.5715 0.38634 0.0
H11 H 0.08397 0.53073 0.36749 0.0
H12 H 0.05602 0.51645 0.34074 0.0
H13 H 0.9917 0.51322 0.35183 0.0
H14 H 0.0548 0.57346 0.3205 0.0
H15 H 0.09526 0.6003 0.31007 0.0
H16 H 0.09721 0.54401 0.28271 0.0
H17 H 0.05652 0.51704 0.29336 0.0
C18 C 0.96858 0.49465 0.28805 0.0
C19 C 0.96887 0.47822 0.27606 0.0
C20 C 0.95251 0.46837 0.26111 0.0
C21 C 0.93542 0.47471 0.25785 0.0
C22 C 0.93533 0.49137 0.26981 0.0
C23 C 0.95189 0.5014 0.28464 0.0
C24 C 0.98611 0.50493 0.30385 0.0
C25 C 0.01039 0.51641 0.29946 0.0
C26 C 0.97927 0.50438 0.32293 0.0
C27 C 0.95418 0.49484 0.3285 0.0
C28 C 0.93626 0.4723 0.32347 0.0
C29 C 0.9126 0.46419 0.32822 0.0
C30 C 0.90651 0.47838 0.33835 0.0
C31 C 0.92467 0.50065 0.34384 0.0
C32 C 0.94817 0.5088 0.33889 0.0
C33 C 0.03885 0.5354 0.34837 0.0
C34 C 0.03858 0.55091 0.36144 0.0
C35 C 0.05474 0.55935 0.37661 0.0
C36 C 0.07132 0.55221 0.37916 0.0
C37 C 0.07171 0.53687 0.36585 0.0
C38 C 0.05567 0.52859 0.35059 0.0
C39 C 0.02107 0.52571 0.33272 0.0
C40 C 0.99689 0.51431 0.33714 0.0
C41 C 0.02789 0.5275 0.31359 0.0
C42 C 0.05279 0.54324 0.30785 0.0
C43 C 0.06401 0.56683 0.31244 0.0
C44 C 0.08702 0.58217 0.30632 0.0
C45 C 0.09928 0.57422 0.29551 0.0
C46 C 0.08816 0.55054 0.29112 0.0
C47 C 0.06497 0.53517 0.29711 0.0
H48 H 0.45395 0.97199 0.51911 0.0
H49 H 0.42967 0.93126 0.52758 0.0
H50 H 0.47993 0.91752 0.50043 0.0
H51 H 0.50428 0.95844 0.49203 0.0
H52 H 0.49895 0.00501 0.52772 0.0
H53 H 0.4543 0.9648 0.47086 0.0
H54 H 0.44158 0.93579 0.44563 0.0
H55 H 0.51452 0.9661 0.42805 0.0
H56 H 0.52713 0.99501 0.45334 0.0
H57 H 0.55909 0.06843 0.46939 0.0
H58 H 0.57269 0.10801 0.45871 0.0
H59 H 0.51124 0.10426 0.48419 0.0
H60 H 0.49788 0.06498 0.49492 0.0
H61 H 0.51482 0.02774 0.4601 0.0
H62 H 0.56048 0.06583 0.51586 0.0
H63 H 0.57596 0.09359 0.54226 0.0
H64 H 0.50432 0.06792 0.56128 0.0
H65 H 0.48892 0.03994 0.53498 0.0
C66 C 0.48079 0.96819 0.50479 0.0
C67 C 0.45989 0.96026 0.51517 0.0
C68 C 0.44606 0.93699 0.52004 0.0
C69 C 0.45288 0.9212 0.51464 0.0
C70 C 0.47409 0.92925 0.50457 0.0
C71 C 0.48801 0.9526 0.49979 0.0
C72 C 0.49454 0.99271 0.4989 0.0
C73 C 0.50225 0.00992 0.51292 0.0
C74 C 0.49964 -0.00079 0.47964 0.0
C75 C 0.4917 0.98189 0.46412 0.0
C76 C 0.46756 0.96509 0.46165 0.0
C77 C 0.46032 0.9485 0.44726 0.0
C78 C 0.47706 0.94861 0.4349 0.0
C79 C 0.50118 0.9657 0.43722 0.0
C80 C 0.50841 0.98219 0.45168 0.0
C81 C 0.5276 0.06393 0.48303 0.0
C82 C 0.54868 0.07625 0.47274 0.0
C83 C 0.55643 0.09878 0.46672 0.0
C84 C 0.54291 0.10904 0.47059 0.0
C85 C 0.52185 0.09664 0.48091 0.0
C86 C 0.51432 0.07432 0.48714 0.0
C87 C 0.51865 0.03982 0.4889 0.0
C88 C 0.51176 0.02274 0.4749 0.0
C89 C 0.51448 0.03339 0.50814 0.0
C90 C 0.52358 0.05089 0.52351 0.0
C91 C 0.54812 0.0663 0.52565 0.0
C92 C 0.55693 0.08204 0.54073 0.0
C93 C 0.5413 0.08282 0.55375 0.0
C94 C 0.51669 0.06773 0.55134 0.0
C95 C 0.50791 0.05171 0.53643 0.0
H96 H 0.53123 0.56106 0.68486 0.0
H97 H 0.52039 0.58012 0.70884 0.0
H98 H 0.44621 0.53512 0.69411 0.0
H99 H 0.45719 0.51617 0.67017 0.0
H100 H 0.51844 0.51525 0.68201 0.0
H101 H 0.50586 0.5695 0.64397 0.0
H102 H 0.48179 0.58527 0.63228 0.0
H103 H 0.42838 0.51728 0.61219 0.0
H104 H 0.45257 0.50179 0.62366 0.0
H105 H 0.48519 0.46769 0.61031 0.0
H106 H 0.49701 0.45108 0.58503 0.0
H107 H 0.57081 0.49638 0.60097 0.0
H108 H 0.55866 0.5122 0.6267 0.0
H109 H 0.49692 0.51246 0.61403 0.0
H110 H 0.50023 0.4564 0.65 0.0
H111 H 0.51475 0.43224 0.66275 0.0
H112 H 0.57429 0.4924 0.68886 0.0
H113 H 0.55989 0.51669 0.67563 0.0
C114 C 0.49505 0.53739 0.67559 0.0
C115 C 0.51264 0.55532 0.68682 0.0
C116 C 0.50641 0.56615 0.70053 0.0
C117 C 0.48244 0.55918 0.70332 0.0
C118 C 0.46485 0.54115 0.69208 0.0
C119 C 0.47109 0.53028 0.67842 0.0
C120 C 0.5018 0.52591 0.66115 0.0
C121 C 0.51419 0.51507 0.66708 0.0
C122 C 0.49509 0.52453 0.64185 0.0
C123 C 0.48093 0.53446 0.63474 0.0
C124 C 0.48894 0.55804 0.63707 0.0
C125 C 0.47516 0.567 0.63042 0.0
C126 C 0.45321 0.55254 0.62124 0.0
C127 C 0.44538 0.52897 0.61887 0.0
C128 C 0.45913 0.52007 0.6255 0.0
C129 C 0.52105 0.49116 0.62033 0.0
C130 C 0.50389 0.47387 0.60842 0.0
C131 C 0.51072 0.46452 0.5939 0.0
C132 C 0.53491 0.47255 0.59079 0.0
C133 C 0.55202 0.48956 0.60306 0.0
C134 C 0.54514 0.49871 0.61774 0.0
C135 C 0.51389 0.5022 0.63484 0.0
C136 C 0.50149 0.51295 0.62892 0.0
C137 C 0.51971 0.50268 0.65423 0.0
C138 C 0.52916 0.48839 0.66165 0.0
C139 C 0.51658 0.46446 0.65826 0.0
C140 C 0.52474 0.45062 0.66575 0.0
C141 C 0.54559 0.46041 0.67688 0.0
C142 C 0.55826 0.48441 0.68021 0.0
C143 C 0.55001 0.49827 0.67275 0.0
H144 H 0.02946 0.53759 0.78171 0.0
H145 H 0.05892 0.55452 0.75662 0.0
H146 H 0.0829 0.50718 0.77004 0.0
H147 H 0.05354 0.49056 0.79532 0.0
H148 H 0.99235 0.49106 0.78694 0.0
H149 H 0.06715 0.5486 0.81922 0.0
H150 H 0.10918 0.56313 0.82625 0.0
H151 H 0.09034 0.49714 0.85066 0.0
H152 H 0.04849 0.4826 0.8432 0.0
H153 H 0.98307 0.45875 0.86515 0.0
H154 H 0.95441 0.44674 0.89084 0.0
H155 H 0.92587 0.48613 0.86597 0.0
H156 H 0.95515 0.49878 0.84076 0.0
H157 H 0.01826 0.49833 0.85421 0.0
H158 H 0.94778 0.44037 0.82772 0.0
H159 H 0.90589 0.41738 0.81858 0.0
H160 H 0.91459 0.47169 0.78106 0.0
H161 H 0.95644 0.49534 0.79093 0.0
C162 C 0.03947 0.51298 0.79043 0.0
C163 C 0.04099 0.5308 0.77915 0.0
C164 C 0.0578 0.5404 0.7648 0.0
C165 C 0.0733 0.53223 0.76136 0.0
C166 C 0.07148 0.51411 0.77253 0.0
C167 C 0.05466 0.50453 0.78691 0.0
C168 C 0.02222 0.50363 0.80609 0.0
C169 C 0.99793 0.49296 0.80169 0.0
C170 C 0.02955 0.50492 0.82519 0.0
C171 C 0.05479 0.51447 0.83054 0.0
C172 C 0.07212 0.53731 0.8261 0.0
C173 C 0.09607 0.54561 0.83023 0.0
C174 C 0.10304 0.53121 0.8389 0.0
C175 C 0.08554 0.50852 0.84371 0.0
C176 C 0.06163 0.50027 0.83963 0.0
C177 C 0.97114 0.47951 0.85096 0.0
C178 C 0.97078 0.46496 0.86534 0.0
C179 C 0.95422 0.45792 0.87989 0.0
C180 C 0.93777 0.46538 0.88038 0.0
C181 C 0.93842 0.48024 0.8661 0.0
C182 C 0.95501 0.48731 0.85159 0.0
C183 C 0.98823 0.48645 0.83518 0.0
C184 C 0.0125 0.49656 0.83951 0.0
C185 C 0.98075 0.48372 0.81595 0.0
C186 C 0.95524 0.46985 0.81034 0.0
C187 C 0.94064 0.44766 0.81787 0.0
C188 C 0.91673 0.43446 0.81259 0.0
C189 C 0.9071 0.4429 0.79925 0.0
C190 C 0.9217 0.46488 0.7914 0.0
C191 C 0.94556 0.47832 0.797 0.0
H192 H 0.54907 0.05129 0.01809 0.0
H193 H 0.57487 0.09126 0.02843 0.0
H194 H 0.52616 0.10923 0.00335 0.0
H195 H 0.50029 0.06901 0.99301 0.0
H196 H 0.50369 0.02084 0.02765 0.0
H197 H 0.54602 0.05722 0.96857 0.0
H198 H 0.55805 0.08554 0.94308 0.0
H199 H 0.48417 0.06168 0.93097 0.0
H200 H 0.47236 0.03301 0.95612 0.0
H201 H 0.44365 0.95852 0.96516 0.0
H202 H 0.42956 0.91877 0.95464 0.0
H203 H 0.48463 0.91844 0.9885 0.0
H204 H 0.49875 0.95793 0.99865 0.0
H205 H 0.48417 0.9973 0.96016 0.0
H206 H 0.44045 0.95925 0.01543 0.0
H207 H 0.42559 0.93178 0.04178 0.0
H208 H 0.49753 0.95923 0.06216 0.0
H209 H 0.51231 0.9868 0.03589 0.0
C210 C 0.52283 0.05719 0.00471 0.0
C211 C 0.5439 0.06381 0.01486 0.0
C212 C 0.55858 0.08664 0.02082 0.0
C213 C 0.55248 0.10336 0.01678 0.0
C214 C 0.53142 0.09676 0.00651 0.0
C215 C 0.51664 0.07382 0.0006 0.0
C216 C 0.50737 0.03272 0.99885 0.0
C217 C 0.49954 0.01569 0.01288 0.0
C218 C 0.50091 0.02601 0.9797 0.0
C219 C 0.50832 0.04315 0.96426 0.0
C220 C 0.53246 0.05816 0.96041 0.0
C221 C 0.53929 0.07442 0.9459 0.0
C222 C 0.52208 0.07598 0.93498 0.0
C223 C 0.49789 0.06077 0.93888 0.0
C224 C 0.49109 0.04444 0.95331 0.0
C225 C 0.47195 0.96106 0.98301 0.0
C226 C 0.45258 0.9498 0.97035 0.0
C227 C 0.44459 0.92715 0.96434 0.0
C228 C 0.45585 0.91543 0.97092 0.0
C229 C 0.47525 0.92681 0.98352 0.0
C230 C 0.4833 0.9494 0.98938 0.0
C231 C 0.48137 0.98539 0.98893 0.0
C232 C 0.48797 0.0024 0.97496 0.0
C233 C 0.48633 0.99215 0.00819 0.0
C234 C 0.47747 0.97502 0.02372 0.0
C235 C 0.45301 0.95925 0.02552 0.0
C236 C 0.44455 0.94367 0.04058 0.0
C237 C 0.46044 0.94343 0.05394 0.0
C238 C 0.48494 0.95897 0.05195 0.0
C239 C 0.49337 0.97478 0.03706 0.0
H240 H 0.47829 0.46801 0.18763 0.0
H241 H 0.49149 0.45289 0.21356 0.0
H242 H 0.56464 0.50157 0.19959 0.0
H243 H 0.55132 0.51672 0.1738 0.0
H244 H 0.49021 0.51541 0.18295 0.0
H245 H 0.50222 0.45779 0.15006 0.0
H246 H 0.52725 0.44212 0.14134 0.0
H247 H 0.57797 0.50782 0.11663 0.0
H248 H 0.55282 0.52322 0.12522 0.0
H249 H 0.51671 0.54996 0.10542 0.0
H250 H 0.50236 0.56325 0.07916 0.0
H251 H 0.4323 0.52901 0.10368 0.0
H252 H 0.44647 0.51477 0.12937 0.0
H253 H 0.5072 0.50989 0.11541 0.0
H254 H 0.5056 0.56997 0.14661 0.0
H255 H 0.49194 0.59543 0.1577 0.0
H256 H 0.43477 0.53837 0.18772 0.0
H257 H 0.44834 0.51279 0.17627 0.0
C258 C 0.51384 0.49336 0.17878 0.0
C259 C 0.49716 0.47537 0.19017 0.0
C260 C 0.50471 0.46666 0.20486 0.0
C261 C 0.52908 0.47604 0.20855 0.0
C262 C 0.54575 0.49413 0.19714 0.0
C263 C 0.53818 0.5027 0.18236 0.0
C264 C 0.50574 0.50262 0.16333 0.0
C265 C 0.49346 0.51381 0.16813 0.0
C266 C 0.51129 0.50174 0.14416 0.0
C267 C 0.52575 0.4917 0.13838 0.0
C268 C 0.51875 0.46878 0.14278 0.0
C269 C 0.53309 0.45988 0.13783 0.0
C270 C 0.55462 0.47374 0.1283 0.0
C271 C 0.56135 0.49658 0.1237 0.0
C272 C 0.54703 0.50544 0.12865 0.0
C273 C 0.48273 0.53145 0.11946 0.0
C274 C 0.49824 0.54525 0.10512 0.0
C275 C 0.49005 0.55305 0.0902 0.0
C276 C 0.46617 0.54725 0.08931 0.0
C277 C 0.45073 0.53359 0.10379 0.0
C278 C 0.45889 0.52567 0.11864 0.0
C279 C 0.49125 0.52246 0.13493 0.0
C280 C 0.50361 0.51129 0.13017 0.0
C281 C 0.48686 0.52441 0.15424 0.0
C282 C 0.47782 0.53943 0.16045 0.0
C283 C 0.48995 0.56286 0.15539 0.0
C284 C 0.48229 0.57745 0.1619 0.0
C285 C 0.46235 0.5689 0.17363 0.0
C286 C 0.45008 0.54538 0.17857 0.0
C287 C 0.45786 0.53079 0.17213 0.0
C288 C 0.61494 0.34091 0.41563 0.0
O289 O 0.63414 0.35804 0.4236 0.0
O290 O 0.65303 0.39137 0.39227 0.0
Zn291 Zn 0.6186 0.37934 0.39766 0.0
O292 O 0.6149 0.39467 0.42075 0.0
C293 C 0.6086 0.40543 0.37156 0.0
O294 O 0.62271 0.42186 0.38351 0.0
O295 O 0.6038 0.34552 0.40323 0.0
C296 C 0.59482 0.39267 0.42352 0.0
O297 O 0.57765 0.38133 0.41101 0.0
C298 C 0.66987 0.41212 0.39453 0.0
O299 O 0.66527 0.42767 0.40097 0.0
O300 O 0.60353 0.38483 0.37473 0.0
C301 C 0.28822 0.68132 0.55261 0.0
O302 O 0.28558 0.66549 0.54034 0.0
O303 O 0.28009 0.62945 0.57691 0.0
Zn304 Zn 0.2575 0.64072 0.57238 0.0
O305 O 0.23708 0.62602 0.54915 0.0
C306 C 0.24381 0.6315 0.61163 0.0
O307 O 0.26553 0.63549 0.61379 0.0
O308 O 0.2772 0.67492 0.56822 0.0
C309 C 0.21765 0.6258 0.5476 0.0
O310 O 0.21127 0.63446 0.56141 0.0
C311 C 0.28473 0.61796 0.5653 0.0
O312 O 0.27382 0.61205 0.54874 0.0
O313 O 0.23669 0.63328 0.59524 0.0
C314 C 0.61767 0.3009 0.73374 0.0
O315 O 0.63795 0.30419 0.72746 0.0
O316 O 0.64976 0.27706 0.75287 0.0
Zn317 Zn 0.6147 0.25949 0.74654 0.0
O318 O 0.60799 0.24091 0.72257 0.0
C319 C 0.60571 0.24341 0.78494 0.0
O320 O 0.62504 0.26359 0.78796 0.0
O321 O 0.60398 0.28245 0.74272 0.0
C322 C 0.61368 0.22562 0.72089 0.0
O323 O 0.62449 0.22204 0.7351 0.0
C324 C 0.66637 0.28233 0.74116 0.0
O325 O 0.66104 0.27566 0.72339 0.0
O326 O 0.59732 0.23793 0.76816 0.0
C327 C 0.40648 0.69032 0.91524 0.0
O328 O 0.39784 0.67454 0.92856 0.0
O329 O 0.3615 0.63505 0.88895 0.0
Zn330 Zn 0.39672 0.65084 0.89379 0.0
O331 O 0.40426 0.63779 0.9168 0.0
C332 C 0.40677 0.64867 0.85427 0.0
O333 O 0.39057 0.65433 0.85154 0.0
O334 O 0.40837 0.68445 0.89853 0.0
C335 C 0.38933 0.61929 0.92513 0.0
O336 O 0.36744 0.60725 0.91856 0.0
C337 C 0.34952 0.61586 0.88024 0.0
O338 O 0.3602 0.60499 0.87449 0.0
O339 O 0.41259 0.64677 0.87111 0.0
C340 C 0.71697 0.39672 0.08636 0.0
O341 O 0.71985 0.38383 0.09879 0.0
O342 O 0.7255 0.35271 0.06318 0.0
Zn343 Zn 0.74792 0.38688 0.06694 0.0
O344 O 0.76925 0.39452 0.08985 0.0
C345 C 0.77429 0.38671 0.03528 0.0
O346 O 0.76731 0.36608 0.0421 0.0
O347 O 0.72792 0.4012 0.07073 0.0
C348 C 0.77972 0.38398 0.0952 0.0
O349 O 0.77673 0.36608 0.08544 0.0
C350 C 0.7176 0.33707 0.07574 0.0
O351 O 0.7245 0.34261 0.09348 0.0
O352 O 0.76809 0.39945 0.04365 0.0
C353 C 0.38955 0.72743 0.23089 0.0
O354 O 0.36887 0.72354 0.22462 0.0
O355 O 0.35453 0.74527 0.25081 0.0
Zn356 Zn 0.38927 0.76619 0.24495 0.0
O357 O 0.39413 0.78458 0.22121 0.0
C358 C 0.39906 0.7812 0.28383 0.0
O359 O 0.3825 0.75958 0.28682 0.0
O360 O 0.40271 0.74566 0.24054 0.0
C361 C 0.39231 0.80244 0.22076 0.0
O362 O 0.38638 0.80904 0.23623 0.0
C363 C 0.33721 0.74675 0.24439 0.0
O364 O 0.34126 0.76373 0.23295 0.0
O365 O 0.40543 0.78791 0.26694 0.0
H366 H 0.13866 0.57025 0.29741 0.0
H367 H 0.17916 0.5989 0.28767 0.0
H368 H 0.15484 0.64414 0.26872 0.0
H369 H 0.11437 0.61557 0.27831 0.0
H370 H 0.18578 0.64119 0.24333 0.0
H371 H 0.18137 0.65437 0.30997 0.0
H372 H 0.17337 0.6429 0.34352 0.0
H373 H 0.22604 0.62318 0.34296 0.0
H374 H 0.2341 0.63422 0.3093 0.0
H375 H 0.29611 0.7466 0.23675 0.0
H376 H 0.25555 0.71659 0.24472 0.0
H377 H 0.28219 0.67623 0.2706 0.0
H378 H 0.32274 0.70635 0.26316 0.0
H379 H 0.24985 0.67586 0.2922 0.0
H380 H 0.25512 0.6628 0.22617 0.0
H381 H 0.26299 0.67311 0.19239 0.0
H382 H 0.20904 0.69115 0.19131 0.0
H383 H 0.20106 0.68124 0.22516 0.0
C384 C 0.14195 0.58621 0.29098 0.0
C385 C 0.12348 0.59081 0.28872 0.0
C386 C 0.16505 0.60257 0.28552 0.0
C387 C 0.16995 0.62368 0.27764 0.0
C388 C 0.15139 0.62797 0.27481 0.0
C389 C 0.12837 0.61173 0.28041 0.0
C390 C 0.19456 0.64165 0.27287 0.0
C391 C 0.19978 0.64898 0.25401 0.0
C392 C 0.21284 0.65135 0.28679 0.0
C393 C 0.20816 0.64489 0.30707 0.0
C394 C 0.19111 0.64741 0.31696 0.0
C395 C 0.18658 0.64102 0.336 0.0
C396 C 0.19914 0.63225 0.34535 0.0
C397 C 0.2163 0.62994 0.33569 0.0
C398 C 0.22086 0.63628 0.31664 0.0
C399 C 0.29332 0.73134 0.24415 0.0
C400 C 0.31263 0.72884 0.24929 0.0
C401 C 0.27012 0.71415 0.24861 0.0
C402 C 0.2658 0.694 0.25803 0.0
C403 C 0.28509 0.6916 0.26332 0.0
C404 C 0.30827 0.70885 0.25903 0.0
C405 C 0.24122 0.6755 0.26258 0.0
C406 C 0.23595 0.66807 0.28144 0.0
C407 C 0.22295 0.66557 0.24862 0.0
C408 C 0.22766 0.67149 0.22825 0.0
C409 C 0.24506 0.66914 0.21876 0.0
C410 C 0.24952 0.67488 0.1996 0.0
C411 C 0.23657 0.68283 0.18972 0.0
C412 C 0.21908 0.68501 0.19898 0.0
C413 C 0.21457 0.67932 0.21815 0.0
H414 H 0.24005 0.68727 0.17489 0.0
H415 H 0.19561 0.62731 0.3601 0.0
H416 H 0.58642 0.14818 0.47488 0.0
H417 H 0.59817 0.18747 0.46482 0.0
H418 H 0.52823 0.16192 0.44079 0.0
H419 H 0.51635 0.12269 0.45096 0.0
H420 H 0.56659 0.19328 0.41707 0.0
H421 H 0.53845 0.18682 0.48065 0.0
H422 H 0.53661 0.17857 0.51484 0.0
H423 H 0.61003 0.23152 0.52152 0.0
H424 H 0.61244 0.23976 0.48728 0.0
H425 H 0.57383 0.30146 0.40478 0.0
H426 H 0.56106 0.26164 0.41354 0.0
H427 H 0.62543 0.28605 0.44656 0.0
H428 H 0.638 0.3258 0.43829 0.0
H429 H 0.58888 0.25456 0.46559 0.0
H430 H 0.61778 0.26082 0.40227 0.0
H431 H 0.62031 0.26909 0.36804 0.0
H432 H 0.54671 0.21692 0.36071 0.0
H433 H 0.54366 0.20854 0.39497 0.0
C434 C 0.57367 0.15098 0.46732 0.0
C435 C 0.55048 0.13253 0.46375 0.0
C436 C 0.58033 0.17336 0.46166 0.0
C437 C 0.56398 0.17751 0.45218 0.0
C438 C 0.54105 0.159 0.44812 0.0
C439 C 0.53427 0.1367 0.45401 0.0
C440 C 0.57063 0.20128 0.4469 0.0
C441 C 0.57121 0.20667 0.42765 0.0
C442 C 0.57706 0.21871 0.46076 0.0
C443 C 0.5757 0.21372 0.48135 0.0
C444 C 0.55428 0.19652 0.48937 0.0
C445 C 0.55312 0.19187 0.50877 0.0
C446 C 0.5732 0.20445 0.52034 0.0
C447 C 0.59449 0.22173 0.51254 0.0
C448 C 0.59577 0.2264 0.49313 0.0
C449 C 0.58525 0.29832 0.41391 0.0
C450 C 0.60694 0.31677 0.42081 0.0
C451 C 0.57798 0.27556 0.41883 0.0
C452 C 0.59243 0.27084 0.43053 0.0
C453 C 0.61399 0.28927 0.43753 0.0
C454 C 0.62117 0.31199 0.43274 0.0
C455 C 0.5851 0.24676 0.43567 0.0
C456 C 0.58432 0.24126 0.45495 0.0
C457 C 0.57864 0.22926 0.42182 0.0
C458 C 0.58044 0.23423 0.40121 0.0
C459 C 0.60209 0.25124 0.39339 0.0
C460 C 0.60363 0.25592 0.37398 0.0
C461 C 0.58367 0.24358 0.36222 0.0
C462 C 0.56215 0.22649 0.36984 0.0
C463 C 0.56051 0.22175 0.38925 0.0
H464 H 0.5849 0.24723 0.3472 0.0
H465 H 0.57222 0.20087 0.53536 0.0
H466 H 0.44446 0.58343 0.63909 0.0
H467 H 0.41766 0.59651 0.62865 0.0
H468 H 0.40052 0.55482 0.578 0.0
H469 H 0.428 0.54242 0.58794 0.0
H470 H 0.40529 0.59596 0.57022 0.0
H471 H 0.36382 0.53571 0.6162 0.0
H472 H 0.35858 0.51687 0.64722 0.0
H473 H 0.36231 0.57531 0.67499 0.0
H474 H 0.3679 0.59464 0.64415 0.0
H475 H 0.29735 0.59114 0.54529 0.0
H476 H 0.32727 0.58131 0.55413 0.0
H477 H 0.34299 0.62158 0.6055 0.0
H478 H 0.31288 0.63103 0.59701 0.0
H479 H 0.33937 0.58157 0.61281 0.0
H480 H 0.38017 0.64169 0.56696 0.0
H481 H 0.38578 0.66085 0.53606 0.0
H482 H 0.38357 0.60321 0.50814 0.0
H483 H 0.37763 0.58356 0.53886 0.0
C484 C 0.43532 0.57737 0.62557 0.0
C485 C 0.43819 0.56172 0.61442 0.0
C486 C 0.41984 0.58468 0.61971 0.0
C487 C 0.40679 0.57631 0.60271 0.0
C488 C 0.4103 0.56138 0.59122 0.0
C489 C 0.42584 0.55414 0.59702 0.0
C490 C 0.38887 0.58243 0.59718 0.0
C491 C 0.39072 0.5926 0.57943 0.0
C492 C 0.37013 0.57842 0.60936 0.0
C493 C 0.3665 0.56671 0.62789 0.0
C494 C 0.36368 0.5446 0.62894 0.0
C495 C 0.36062 0.53383 0.64648 0.0
C496 C 0.36017 0.54491 0.66307 0.0
C497 C 0.3627 0.56676 0.66214 0.0
C498 C 0.36579 0.57762 0.64463 0.0
C499 C 0.30719 0.5979 0.55846 0.0
C500 C 0.30275 0.61187 0.57043 0.0
C501 C 0.32436 0.59237 0.56345 0.0
C502 C 0.33756 0.60094 0.58038 0.0
C503 C 0.33303 0.61478 0.59237 0.0
C504 C 0.31582 0.62019 0.58747 0.0
C505 C 0.3558 0.59519 0.58585 0.0
C506 C 0.35396 0.58501 0.60359 0.0
C507 C 0.37456 0.59924 0.57367 0.0
C508 C 0.37822 0.61106 0.55519 0.0
C509 C 0.3807 0.63303 0.55422 0.0
C510 C 0.38397 0.64399 0.53674 0.0
C511 C 0.38497 0.63323 0.52014 0.0
C512 C 0.38276 0.61151 0.521 0.0
C513 C 0.37946 0.60046 0.53844 0.0
H514 H 0.3875 0.64174 0.50662 0.0
H515 H 0.35782 0.53655 0.67664 0.0
H516 H 0.86809 0.42214 0.82165 0.0
H517 H 0.82682 0.39571 0.81175 0.0
H518 H 0.8487 0.40355 0.75336 0.0
H519 H 0.88983 0.4308 0.76321 0.0
H520 H 0.80831 0.40203 0.7552 0.0
H521 H 0.8381 0.35546 0.78136 0.0
H522 H 0.85703 0.34418 0.80608 0.0
H523 H 0.80147 0.33128 0.8448 0.0
H524 H 0.78232 0.34268 0.82035 0.0
H525 H 0.70615 0.30133 0.71919 0.0
H526 H 0.74711 0.32882 0.72911 0.0
H527 H 0.72406 0.3258 0.78664 0.0
H528 H 0.68316 0.29819 0.77693 0.0
H529 H 0.76478 0.3247 0.7852 0.0
H530 H 0.73461 0.37044 0.75889 0.0
H531 H 0.71578 0.38204 0.73436 0.0
H532 H 0.77217 0.39667 0.69598 0.0
H533 H 0.79116 0.38481 0.72019 0.0
C534 C 0.86397 0.41831 0.8067 0.0
C535 C 0.88202 0.42831 0.79317 0.0
C536 C 0.84046 0.40314 0.80106 0.0
C537 C 0.83473 0.39718 0.78184 0.0
C538 C 0.85269 0.40779 0.76826 0.0
C539 C 0.87615 0.42333 0.77388 0.0
C540 C 0.81016 0.3795 0.77592 0.0
C541 C 0.79893 0.38501 0.76158 0.0
C542 C 0.79769 0.35743 0.78451 0.0
C543 C 0.80888 0.35006 0.79907 0.0
C544 C 0.82997 0.35028 0.79517 0.0
C545 C 0.84073 0.34386 0.80912 0.0
C546 C 0.83048 0.33705 0.827 0.0
C547 C 0.80939 0.33655 0.83094 0.0
C548 C 0.79855 0.34294 0.81703 0.0
C549 C 0.70982 0.30638 0.73397 0.0
C550 C 0.69138 0.29769 0.74724 0.0
C551 C 0.73321 0.32217 0.7396 0.0
C552 C 0.73854 0.32956 0.75856 0.0
C553 C 0.7203 0.32036 0.77193 0.0
C554 C 0.69693 0.30462 0.76633 0.0
C555 C 0.76305 0.34722 0.76444 0.0
C556 C 0.77423 0.34169 0.77878 0.0
C557 C 0.77548 0.36924 0.75583 0.0
C558 C 0.76417 0.37651 0.74129 0.0
C559 C 0.74289 0.37596 0.74517 0.0
C560 C 0.73221 0.38261 0.73133 0.0
C561 C 0.74274 0.39003 0.71361 0.0
C562 C 0.76401 0.39088 0.7097 0.0
C563 C 0.77475 0.38421 0.72348 0.0
H564 H 0.73444 0.39517 0.70291 0.0
H565 H 0.83886 0.33213 0.8378 0.0
H566 H 0.44484 0.89828 0.9347 0.0
H567 H 0.43579 0.86014 0.92364 0.0
H568 H 0.44059 0.84105 0.98119 0.0
H569 H 0.44971 0.8791 0.99228 0.0
H570 H 0.46601 0.8312 0.95823 0.0
H571 H 0.38703 0.81874 0.95788 0.0
H572 H 0.35548 0.82684 0.94944 0.0
H573 H 0.36497 0.8188 0.89038 0.0
H574 H 0.39684 0.81095 0.89846 0.0
H575 H 0.41221 0.70992 0.95012 0.0
H576 H 0.42102 0.74893 0.95755 0.0
H577 H 0.42342 0.76383 0.89788 0.0
H578 H 0.41473 0.72473 0.89027 0.0
H579 H 0.39565 0.7767 0.91942 0.0
H580 H 0.47353 0.78713 0.92047 0.0
H581 H 0.50436 0.77825 0.92956 0.0
H582 H 0.49606 0.78949 0.98817 0.0
H583 H 0.46492 0.79811 0.97946 0.0
C584 C 0.44354 0.88578 0.94501 0.0
C585 C 0.44808 0.89168 0.96434 0.0
C586 C 0.43842 0.86403 0.93868 0.0
C587 C 0.43749 0.84774 0.9516 0.0
C588 C 0.44138 0.85341 0.97096 0.0
C589 C 0.44659 0.87514 0.97727 0.0
C590 C 0.43354 0.82515 0.94497 0.0
C591 C 0.45047 0.81918 0.94993 0.0
C592 C 0.41363 0.80977 0.93366 0.0
C593 C 0.39451 0.81452 0.92876 0.0
C594 C 0.38254 0.8189 0.94308 0.0
C595 C 0.36457 0.82341 0.93836 0.0
C596 C 0.35827 0.82341 0.91938 0.0
C597 C 0.3699 0.81884 0.90508 0.0
C598 C 0.38791 0.81434 0.90972 0.0
C599 C 0.41471 0.7215 0.93856 0.0
C600 C 0.41281 0.71427 0.91961 0.0
C601 C 0.41979 0.7438 0.94283 0.0
C602 C 0.42295 0.75924 0.92825 0.0
C603 C 0.42104 0.75212 0.90931 0.0
C604 C 0.41621 0.72985 0.905 0.0
C605 C 0.42792 0.7827 0.93297 0.0
C606 C 0.41123 0.78883 0.92762 0.0
C607 C 0.44797 0.7982 0.94402 0.0
C608 C 0.46673 0.79306 0.94932 0.0
C609 C 0.47813 0.78751 0.93531 0.0
C610 C 0.49569 0.78256 0.94039 0.0
C611 C 0.50213 0.78325 0.95943 0.0
C612 C 0.49104 0.78894 0.97343 0.0
C613 C 0.47345 0.79388 0.96842 0.0
H614 H 0.51573 0.77942 0.96333 0.0
H615 H 0.34434 0.82689 0.91576 0.0
H616 H 0.57925 0.48027 0.09555 0.0
H617 H 0.60668 0.46707 0.08825 0.0
H618 H 0.5924 0.43297 0.14242 0.0
H619 H 0.56562 0.44689 0.15013 0.0
H620 H 0.63894 0.45687 0.13573 0.0
H621 H 0.56892 0.40225 0.10118 0.0
H622 H 0.53541 0.38966 0.0787 0.0
H623 H 0.58428 0.42401 0.03336 0.0
H624 H 0.6181 0.43708 0.05564 0.0
H625 H 0.69034 0.38882 0.11798 0.0
H626 H 0.66284 0.40206 0.12458 0.0
H627 H 0.67928 0.43721 0.07082 0.0
H628 H 0.70666 0.42369 0.06393 0.0
H629 H 0.63194 0.41314 0.07705 0.0
H630 H 0.70203 0.46738 0.11187 0.0
H631 H 0.7353 0.47935 0.1345 0.0
H632 H 0.68592 0.44511 0.17955 0.0
H633 H 0.65233 0.43264 0.15713 0.0
C634 C 0.58202 0.47005 0.10595 0.0
C635 C 0.57026 0.46464 0.12343 0.0
C636 C 0.59753 0.46232 0.10168 0.0
C637 C 0.6014 0.44884 0.11471 0.0
C638 C 0.58961 0.4433 0.13213 0.0
C639 C 0.57414 0.45108 0.13644 0.0
C640 C 0.61826 0.44105 0.11037 0.0
C641 C 0.63722 0.44702 0.12303 0.0
C642 C 0.61634 0.42872 0.09356 0.0
C643 C 0.59604 0.42083 0.08012 0.0
C644 C 0.57252 0.40727 0.08645 0.0
C645 C 0.55347 0.40002 0.07374 0.0
C646 C 0.55771 0.40608 0.05462 0.0
C647 C 0.58102 0.41936 0.04818 0.0
C648 C 0.60014 0.42667 0.06084 0.0
C649 C 0.6882 0.39943 0.10756 0.0
C650 C 0.70075 0.40527 0.09044 0.0
C651 C 0.67252 0.40705 0.1114 0.0
C652 C 0.66923 0.42084 0.09829 0.0
C653 C 0.68162 0.42662 0.08114 0.0
C654 C 0.6973 0.41895 0.07726 0.0
C655 C 0.65256 0.42891 0.10243 0.0
C656 C 0.63366 0.42301 0.08973 0.0
C657 C 0.65449 0.44125 0.11923 0.0
C658 C 0.67467 0.4489 0.13278 0.0
C659 C 0.69826 0.46226 0.12658 0.0
C660 C 0.71718 0.46916 0.13937 0.0
C661 C 0.71273 0.46295 0.15844 0.0
C662 C 0.68934 0.44989 0.16477 0.0
C663 C 0.67036 0.44292 0.15203 0.0
H664 H 0.7274 0.46829 0.16832 0.0
H665 H 0.54294 0.40045 0.0448 0.0
H666 H 0.44053 0.88424 0.49135 0.0
H667 H 0.41319 0.84332 0.49809 0.0
H668 H 0.40248 0.86109 0.55436 0.0
H669 H 0.4303 0.90198 0.5479 0.0
H670 H 0.40721 0.82336 0.55457 0.0
H671 H 0.36195 0.84947 0.52001 0.0
H672 H 0.35338 0.86784 0.49336 0.0
H673 H 0.35125 0.81744 0.45491 0.0
H674 H 0.36014 0.79895 0.48132 0.0
H675 H 0.30126 0.7183 0.57619 0.0
H676 H 0.32966 0.75906 0.56975 0.0
H677 H 0.34073 0.74108 0.51368 0.0
H678 H 0.31227 0.70035 0.51992 0.0
H679 H 0.33591 0.77887 0.51335 0.0
H680 H 0.38098 0.75265 0.54787 0.0
H681 H 0.38976 0.73435 0.57445 0.0
H682 H 0.39235 0.78494 0.61292 0.0
H683 H 0.38324 0.80336 0.58658 0.0
C684 C 0.43264 0.87939 0.50525 0.0
C685 C 0.43746 0.89632 0.51907 0.0
C686 C 0.41686 0.85605 0.50902 0.0
C687 C 0.40557 0.84924 0.52663 0.0
C688 C 0.41093 0.86601 0.54065 0.0
C689 C 0.42667 0.88935 0.53689 0.0
C690 C 0.38776 0.82467 0.53031 0.0
C691 C 0.39147 0.8137 0.54571 0.0
C692 C 0.36748 0.81199 0.51849 0.0
C693 C 0.36195 0.82297 0.50261 0.0
C694 C 0.35983 0.84241 0.50585 0.0
C695 C 0.35489 0.85282 0.49079 0.0
C696 C 0.35184 0.84385 0.47245 0.0
C697 C 0.35365 0.82439 0.46913 0.0
C698 C 0.35862 0.81392 0.48414 0.0
C699 C 0.30966 0.72302 0.56246 0.0
C700 C 0.3046 0.70608 0.54859 0.0
C701 C 0.32595 0.7463 0.55884 0.0
C702 C 0.33747 0.75302 0.54131 0.0
C703 C 0.33205 0.73623 0.5273 0.0
C704 C 0.31583 0.71295 0.53093 0.0
C705 C 0.35536 0.77756 0.53762 0.0
C706 C 0.35166 0.78853 0.52221 0.0
C707 C 0.37564 0.79023 0.54943 0.0
C708 C 0.38118 0.77923 0.56528 0.0
C709 C 0.38322 0.75976 0.56202 0.0
C710 C 0.38829 0.74938 0.57704 0.0
C711 C 0.39154 0.75844 0.59537 0.0
C712 C 0.38979 0.77793 0.59871 0.0
C713 C 0.38469 0.78835 0.58374 0.0
H714 H 0.39547 0.75039 0.60698 0.0
H715 H 0.34801 0.85194 0.46081 0.0
H716 H 0.59096 0.46849 0.67787 0.0
H717 H 0.60415 0.44269 0.68965 0.0
H718 H 0.53225 0.39272 0.70548 0.0
H719 H 0.51905 0.41861 0.69412 0.0
H720 H 0.56475 0.39731 0.73259 0.0
H721 H 0.55365 0.38578 0.66503 0.0
H722 H 0.55977 0.39815 0.63163 0.0
H723 H 0.63465 0.42478 0.63796 0.0
H724 H 0.62902 0.41286 0.6715 0.0
H725 H 0.57457 0.29715 0.73959 0.0
H726 H 0.5632 0.32554 0.73174 0.0
H727 H 0.63409 0.37242 0.71173 0.0
H728 H 0.64538 0.34399 0.71908 0.0
H729 H 0.60269 0.37021 0.68723 0.0
H730 H 0.61396 0.38092 0.75455 0.0
H731 H 0.60807 0.36895 0.78805 0.0
H732 H 0.53353 0.34434 0.78248 0.0
H733 H 0.53892 0.35589 0.74887 0.0
C734 C 0.57804 0.45215 0.6841 0.0
C735 C 0.55394 0.44547 0.68494 0.0
C736 C 0.58556 0.43737 0.6907 0.0
C737 C 0.5691 0.41569 0.69822 0.0
C738 C 0.5452 0.40934 0.69967 0.0
C739 C 0.53766 0.42405 0.69303 0.0
C740 C 0.5766 0.39923 0.70393 0.0
C741 C 0.57285 0.39119 0.72266 0.0
C742 C 0.58755 0.39163 0.69103 0.0
C743 C 0.59094 0.39864 0.67082 0.0
C744 C 0.57145 0.39443 0.65934 0.0
C745 C 0.57482 0.40134 0.64038 0.0
C746 C 0.5976 0.41231 0.63269 0.0
C747 C 0.61703 0.41632 0.64394 0.0
C748 C 0.61375 0.40948 0.66292 0.0
C749 C 0.58776 0.31356 0.73362 0.0
C750 C 0.61085 0.3183 0.72992 0.0
C751 C 0.58127 0.32982 0.72922 0.0
C752 C 0.59786 0.35121 0.7213 0.0
C753 C 0.62098 0.35603 0.71779 0.0
C754 C 0.62741 0.33975 0.72205 0.0
C755 C 0.59097 0.36828 0.71597 0.0
C756 C 0.59474 0.3764 0.69725 0.0
C757 C 0.5801 0.37597 0.72891 0.0
C758 C 0.57682 0.36907 0.74914 0.0
C759 C 0.59628 0.37279 0.76043 0.0
C760 C 0.59304 0.36611 0.77945 0.0
C761 C 0.57043 0.35584 0.78738 0.0
C762 C 0.55103 0.35228 0.77632 0.0
C763 C 0.55417 0.35891 0.75729 0.0
H764 H 0.56796 0.35067 0.8021 0.0
H765 H 0.60017 0.41765 0.61801 0.0
H766 H 0.13674 0.57303 0.85372 0.0
H767 H 0.17867 0.58676 0.8601 0.0
H768 H 0.16874 0.52226 0.83908 0.0
H769 H 0.12678 0.5084 0.83274 0.0
H770 H 0.1941 0.53465 0.87117 0.0
H771 H 0.19658 0.57118 0.81245 0.0
H772 H 0.18812 0.59442 0.79032 0.0
H773 H 0.22559 0.65354 0.827 0.0
H774 H 0.234 0.63056 0.8495 0.0
H775 H 0.31789 0.57433 0.86362 0.0
H776 H 0.27586 0.55926 0.85628 0.0
H777 H 0.28144 0.62074 0.88021 0.0
H778 H 0.3234 0.63597 0.88752 0.0
H779 H 0.25845 0.60913 0.8457 0.0
H780 H 0.25507 0.57148 0.90467 0.0
H781 H 0.2636 0.54775 0.9262 0.0
H782 H 0.22794 0.49008 0.88785 0.0
H783 H 0.21949 0.51358 0.86596 0.0
C784 C 0.14355 0.56186 0.85032 0.0
C785 C 0.1285 0.53966 0.84271 0.0
C786 C 0.1675 0.56971 0.85397 0.0
C787 C 0.17688 0.55561 0.84988 0.0
C788 C 0.16185 0.53339 0.84238 0.0
C789 C 0.13789 0.52549 0.83881 0.0
C790 C 0.20232 0.56395 0.85362 0.0
C791 C 0.20819 0.55077 0.86537 0.0
C792 C 0.22067 0.58516 0.84629 0.0
C793 C 0.21573 0.59908 0.83275 0.0
C794 C 0.20286 0.58909 0.81587 0.0
C795 C 0.1981 0.60222 0.80325 0.0
C796 C 0.20626 0.62543 0.80727 0.0
C797 C 0.21926 0.63556 0.82391 0.0
C798 C 0.22405 0.62249 0.8366 0.0
C799 C 0.31016 0.58461 0.86737 0.0
C800 C 0.32397 0.60633 0.87618 0.0
C801 C 0.28614 0.57595 0.86321 0.0
C802 C 0.27555 0.58885 0.8678 0.0
C803 C 0.28931 0.61054 0.87654 0.0
C804 C 0.31326 0.61916 0.88077 0.0
C805 C 0.25017 0.57992 0.86334 0.0
C806 C 0.24434 0.59298 0.85143 0.0
C807 C 0.23188 0.55854 0.87041 0.0
C808 C 0.23687 0.54436 0.88359 0.0
C809 C 0.24923 0.55379 0.90076 0.0
C810 C 0.25401 0.54037 0.91304 0.0
C811 C 0.24638 0.51744 0.90837 0.0
C812 C 0.23388 0.50786 0.89143 0.0
C813 C 0.22907 0.52121 0.87909 0.0
H814 H 0.25009 0.50707 0.9179 0.0
H815 H 0.20256 0.63557 0.79748 0.0
H816 H 0.57426 0.11817 0.05137 0.0
H817 H 0.6017 0.1579 0.06172 0.0
H818 H 0.59327 0.18298 0.00768 0.0
H819 H 0.56623 0.14314 0.99702 0.0
H820 H 0.63971 0.20313 0.01842 0.0
H821 H 0.56682 0.18813 0.04675 0.0
H822 H 0.53083 0.16642 0.06605 0.0
H823 H 0.57402 0.17564 0.11523 0.0
H824 H 0.61027 0.19715 0.09615 0.0
H825 H 0.69506 0.3213 0.04161 0.0
H826 H 0.66656 0.28155 0.03236 0.0
H827 H 0.67288 0.25812 0.08784 0.0
H828 H 0.70106 0.29813 0.09743 0.0
H829 H 0.62765 0.23681 0.07672 0.0
H830 H 0.70041 0.25155 0.04895 0.0
H831 H 0.73675 0.27296 0.02998 0.0
H832 H 0.69446 0.26365 0.98019 0.0
H833 H 0.65786 0.24245 0.99892 0.0
C834 C 0.5783 0.13214 0.04166 0.0
C835 C 0.56814 0.12755 0.02336 0.0
C836 C 0.59381 0.15483 0.04766 0.0
C837 C 0.59935 0.17338 0.03553 0.0
C838 C 0.58915 0.16888 0.01728 0.0
C839 C 0.57358 0.14616 0.01127 0.0
C840 C 0.61636 0.19742 0.0417 0.0
C841 C 0.63693 0.21063 0.03101 0.0
C842 C 0.61303 0.20689 0.05846 0.0
C843 C 0.59125 0.19407 0.06997 0.0
C844 C 0.56864 0.18538 0.06164 0.0
C845 C 0.54819 0.17314 0.07255 0.0
C846 C 0.55013 0.16961 0.09184 0.0
C847 C 0.57254 0.17837 0.10028 0.0
C848 C 0.59304 0.19061 0.08943 0.0
C849 C 0.69046 0.30772 0.05187 0.0
C850 C 0.70043 0.31286 0.07025 0.0
C851 C 0.67421 0.28497 0.04652 0.0
C852 C 0.66789 0.26681 0.0593 0.0
C853 C 0.67758 0.27188 0.07773 0.0
C854 C 0.69371 0.29472 0.08318 0.0
C855 C 0.65099 0.2426 0.05338 0.0
C856 C 0.63047 0.22932 0.06413 0.0
C857 C 0.65442 0.233 0.03672 0.0
C858 C 0.6764 0.24559 0.02538 0.0
C859 C 0.69886 0.25421 0.03398 0.0
C860 C 0.71951 0.26629 0.02327 0.0
C861 C 0.71791 0.26971 0.0039 0.0
C862 C 0.69566 0.261 0.9952 0.0
C863 C 0.67497 0.24893 0.00585 0.0
H864 H 0.73392 0.27907 0.99563 0.0
H865 H 0.53428 0.16012 0.10026 0.0
H866 H 0.49014 0.61219 0.18855 0.0
H867 H 0.47759 0.63865 0.19952 0.0
H868 H 0.40467 0.58755 0.18613 0.0
H869 H 0.41716 0.56109 0.17486 0.0
H870 H 0.41797 0.63084 0.17253 0.0
H871 H 0.42283 0.59724 0.23126 0.0
H872 H 0.44221 0.58593 0.25552 0.0
H873 H 0.49674 0.65705 0.26353 0.0
H874 H 0.47786 0.66876 0.23911 0.0
H875 H 0.3625 0.68401 0.21632 0.0
H876 H 0.37512 0.65694 0.20791 0.0
H877 H 0.44663 0.7063 0.22647 0.0
H878 H 0.43391 0.73335 0.23548 0.0
H879 H 0.43461 0.66411 0.23751 0.0
H880 H 0.43094 0.69815 0.17899 0.0
H881 H 0.41274 0.71026 0.15433 0.0
H882 H 0.35769 0.63955 0.14521 0.0
H883 H 0.37539 0.62704 0.17002 0.0
C884 C 0.47144 0.60663 0.1879 0.0
C885 C 0.45462 0.58461 0.18082 0.0
C886 C 0.46429 0.62167 0.19431 0.0
C887 C 0.44019 0.61496 0.19377 0.0
C888 C 0.42334 0.59299 0.18672 0.0
C889 C 0.43047 0.57787 0.1804 0.0
C890 C 0.43268 0.63117 0.20002 0.0
C891 C 0.42127 0.63787 0.18681 0.0
C892 C 0.43772 0.64085 0.21848 0.0
C893 C 0.44905 0.63385 0.23322 0.0
C894 C 0.43906 0.61045 0.23808 0.0
C895 C 0.44994 0.60397 0.25188 0.0
C896 C 0.47073 0.62075 0.26103 0.0
C897 C 0.48065 0.64407 0.25642 0.0
C898 C 0.46986 0.65064 0.24261 0.0
C899 C 0.38092 0.68914 0.21865 0.0
C900 C 0.39727 0.71091 0.22642 0.0
C901 C 0.38812 0.67365 0.21376 0.0
C902 C 0.41192 0.67976 0.2162 0.0
C903 C 0.42819 0.70127 0.22438 0.0
C904 C 0.42092 0.71672 0.22948 0.0
C905 C 0.41975 0.66372 0.21003 0.0
C906 C 0.43127 0.65709 0.22322 0.0
C907 C 0.41501 0.65423 0.19148 0.0
C908 C 0.40438 0.66169 0.17649 0.0
C909 C 0.41486 0.6852 0.17182 0.0
C910 C 0.40465 0.69213 0.1578 0.0
C911 C 0.38404 0.67569 0.14824 0.0
C912 C 0.37364 0.65227 0.15265 0.0
C913 C 0.38377 0.64525 0.16667 0.0
H914 H 0.37616 0.68109 0.13739 0.0
H915 H 0.47912 0.6157 0.27171 0.0
H916 H 0.88432 0.50338 0.33824 0.0
H917 H 0.84404 0.49092 0.34831 0.0
H918 H 0.83097 0.42237 0.35868 0.0
H919 H 0.8717 0.43489 0.34934 0.0
H920 H 0.79366 0.4249 0.33797 0.0
H921 H 0.84108 0.45335 0.39508 0.0
H922 H 0.87503 0.48195 0.41449 0.0
H923 H 0.85286 0.53121 0.40634 0.0
H924 H 0.81896 0.503 0.38661 0.0
H925 H 0.6867 0.3833 0.38798 0.0
H926 H 0.72672 0.3938 0.37867 0.0
H927 H 0.7482 0.46597 0.37968 0.0
H928 H 0.70829 0.45559 0.38963 0.0
H929 H 0.78164 0.46085 0.39485 0.0
H930 H 0.73551 0.4345 0.33751 0.0
H931 H 0.70211 0.40759 0.31678 0.0
H932 H 0.72207 0.35652 0.32358 0.0
H933 H 0.75542 0.38303 0.34457 0.0
C934 C 0.87304 0.48571 0.34285 0.0
C935 C 0.88141 0.47023 0.34322 0.0
C936 C 0.84997 0.4786 0.34847 0.0
C937 C 0.83471 0.45582 0.35438 0.0
C938 C 0.84258 0.44004 0.35415 0.0
C939 C 0.86581 0.44721 0.34873 0.0
C940 C 0.81068 0.44875 0.36115 0.0
C941 C 0.79093 0.43244 0.35056 0.0
C942 C 0.80733 0.45919 0.37725 0.0
C943 C 0.82761 0.47613 0.38921 0.0
C944 C 0.84356 0.47035 0.39728 0.0
C945 C 0.86277 0.48648 0.40837 0.0
C946 C 0.86613 0.50841 0.41161 0.0
C947 C 0.85025 0.51423 0.4038 0.0
C948 C 0.83102 0.49817 0.39268 0.0
C949 C 0.69995 0.40142 0.38625 0.0
C950 C 0.69432 0.41863 0.38942 0.0
C951 C 0.7228 0.40738 0.38083 0.0
C952 C 0.74036 0.43064 0.37811 0.0
C953 C 0.73491 0.4479 0.38163 0.0
C954 C 0.7121 0.44195 0.38729 0.0
C955 C 0.7644 0.43695 0.37164 0.0
C956 C 0.78423 0.45318 0.38228 0.0
C957 C 0.76782 0.42664 0.35542 0.0
C958 C 0.74781 0.41067 0.34277 0.0
C959 C 0.73267 0.41747 0.33471 0.0
C960 C 0.71376 0.4023 0.32289 0.0
C961 C 0.70993 0.38033 0.31891 0.0
C962 C 0.72504 0.37352 0.3267 0.0
C963 C 0.74396 0.38862 0.33854 0.0
H964 H 0.69529 0.36861 0.30975 0.0
H965 H 0.88101 0.52087 0.4202 0.0
H966 H 0.06146 0.55855 0.41551 0.0
H967 H 0.0881 0.57166 0.44303 0.0
H968 H 0.14435 0.57612 0.40879 0.0
H969 H 0.11804 0.5637 0.3809 0.0
H970 H 0.13839 0.55333 0.44395 0.0
H971 H 0.14776 0.62412 0.42011 0.0
H972 H 0.134 0.64983 0.40857 0.0
H973 H 0.10049 0.64412 0.46192 0.0
H974 H 0.11375 0.61808 0.47368 0.0
H975 H 0.22911 0.61372 0.51405 0.0
H976 H 0.20547 0.60116 0.48476 0.0
H977 H 0.1493 0.60512 0.51246 0.0
H978 H 0.17307 0.61826 0.5416 0.0
H979 H 0.15715 0.62457 0.47911 0.0
H980 H 0.1456 0.55273 0.50274 0.0
H981 H 0.15789 0.52599 0.51459 0.0
H982 H 0.19388 0.5325 0.46239 0.0
H983 H 0.18206 0.55952 0.45032 0.0
C984 C 0.07959 0.56265 0.41369 0.0
C985 C 0.08762 0.56021 0.39591 0.0
C986 C 0.09474 0.57 0.42949 0.0
C987 C 0.11819 0.57497 0.42788 0.0
C988 C 0.12626 0.5723 0.41028 0.0
C989 C 0.11117 0.56512 0.3944 0.0
C990 C 0.13418 0.58293 0.44469 0.0
C991 C 0.14285 0.56909 0.4515 0.0
C992 C 0.13946 0.60321 0.45471 0.0
C993 C 0.13157 0.61898 0.44772 0.0
C994 C 0.13729 0.62819 0.42933 0.0
C995 C 0.12961 0.64285 0.42276 0.0
C996 C 0.11633 0.64856 0.43449 0.0
C997 C 0.11076 0.63966 0.45284 0.0
C998 C 0.11837 0.62497 0.45947 0.0
C999 C 0.21166 0.61177 0.51393 0.0
C1000 C 0.20296 0.61699 0.53014 0.0
C1001 C 0.19813 0.60451 0.49719 0.0
C1002 C 0.17551 0.602 0.49644 0.0
C1003 C 0.16672 0.60699 0.51268 0.0
C1004 C 0.18031 0.61443 0.52935 0.0
C1005 C 0.16119 0.59481 0.47863 0.0
C1006 C 0.15283 0.60884 0.47157 0.0
C1007 C 0.15606 0.57461 0.46849 0.0
C1008 C 0.16316 0.55834 0.47571 0.0
C1009 C 0.1563 0.54861 0.49385 0.0
C1010 C 0.16315 0.53337 0.50059 0.0
C1011 C 0.17672 0.5276 0.48927 0.0
C1012 C 0.18341 0.53701 0.47116 0.0
C1013 C 0.17662 0.55227 0.46435 0.0
H1014 H 0.182 0.5158 0.49452 0.0
H1015 H 0.1104 0.65992 0.42938 0.0
H1016 H 0.52826 0.11326 0.56538 0.0
H1017 H 0.54312 0.1389 0.59323 0.0
H1018 H 0.58976 0.11347 0.60715 0.0
H1019 H 0.57522 0.08807 0.57918 0.0
H1020 H 0.56122 0.1136 0.6379 0.0
H1021 H 0.61488 0.16375 0.59071 0.0
H1022 H 0.62638 0.18398 0.56007 0.0
H1023 H 0.58885 0.21873 0.57345 0.0
H1024 H 0.57683 0.19844 0.60411 0.0
H1025 H 0.62591 0.19373 0.71158 0.0
H1026 H 0.61559 0.1705 0.68261 0.0
H1027 H 0.57779 0.20281 0.66139 0.0
H1028 H 0.58847 0.22645 0.69012 0.0
H1029 H 0.60313 0.19915 0.63397 0.0
H1030 H 0.54832 0.14831 0.68063 0.0
H1031 H 0.53633 0.12791 0.7112 0.0
H1032 H 0.57492 0.09397 0.69867 0.0
H1033 H 0.58741 0.11442 0.66811 0.0
C1034 C 0.54174 0.11325 0.57438 0.0
C1035 C 0.55066 0.09878 0.57018 0.0
C1036 C 0.55026 0.12791 0.59018 0.0
C1037 C 0.56756 0.12806 0.60215 0.0
C1038 C 0.57643 0.11358 0.59803 0.0
C1039 C 0.56822 0.09921 0.58205 0.0
C1040 C 0.57591 0.14293 0.61928 0.0
C1041 C 0.57071 0.13232 0.63709 0.0
C1042 C 0.58775 0.16728 0.6181 0.0
C1043 C 0.59475 0.17939 0.59963 0.0
C1044 C 0.60886 0.17552 0.58704 0.0
C1045 C 0.61553 0.18704 0.5697 0.0
C1046 C 0.60833 0.20261 0.56482 0.0
C1047 C 0.59441 0.20667 0.57726 0.0
C1048 C 0.58768 0.19517 0.59464 0.0
C1049 C 0.61544 0.19593 0.70074 0.0
C1050 C 0.6079 0.21185 0.70321 0.0
C1051 C 0.60949 0.18258 0.68421 0.0
C1052 C 0.59564 0.18468 0.66994 0.0
C1053 C 0.58847 0.20087 0.67222 0.0
C1054 C 0.59453 0.21432 0.68869 0.0
C1055 C 0.58836 0.16985 0.65271 0.0
C1056 C 0.59372 0.18044 0.63484 0.0
C1057 C 0.57652 0.14543 0.65383 0.0
C1058 C 0.569 0.13309 0.67218 0.0
C1059 C 0.5544 0.13664 0.68446 0.0
C1060 C 0.54749 0.12504 0.70177 0.0
C1061 C 0.55492 0.1097 0.7069 0.0
C1062 C 0.56922 0.10589 0.69469 0.0
C1063 C 0.5762 0.11746 0.67737 0.0
H1064 H 0.54954 0.10074 0.7203 0.0
H1065 H 0.61361 0.21158 0.55142 0.0
H1066 H 0.50033 0.57101 0.7394 0.0
H1067 H 0.48863 0.58837 0.76418 0.0
H1068 H 0.43739 0.58932 0.72596 0.0
H1069 H 0.44946 0.57247 0.70089 0.0
H1070 H 0.46208 0.62959 0.74654 0.0
H1071 H 0.41907 0.54807 0.75871 0.0
H1072 H 0.41437 0.5098 0.76402 0.0
H1073 H 0.45948 0.5359 0.81343 0.0
H1074 H 0.46472 0.57443 0.80825 0.0
H1075 H 0.39362 0.64473 0.81688 0.0
H1076 H 0.40788 0.63172 0.79056 0.0
H1077 H 0.45659 0.62602 0.82852 0.0
H1078 H 0.4421 0.63855 0.85496 0.0
H1079 H 0.43291 0.58828 0.80754 0.0
H1080 H 0.47581 0.66989 0.79555 0.0
H1081 H 0.48058 0.70818 0.79017 0.0
H1082 H 0.4358 0.68215 0.74058 0.0
H1083 H 0.4305 0.64361 0.74581 0.0
C1084 C 0.48678 0.57517 0.73618 0.0
C1085 C 0.47576 0.57029 0.7182 0.0
C1086 C 0.47998 0.58492 0.7504 0.0
C1087 C 0.46196 0.58988 0.74697 0.0
C1088 C 0.45129 0.58554 0.72891 0.0
C1089 C 0.45805 0.57574 0.71467 0.0
C1090 C 0.45393 0.59912 0.76237 0.0
C1091 C 0.45541 0.62046 0.7598 0.0
C1092 C 0.44568 0.58738 0.77978 0.0
C1093 C 0.44247 0.56419 0.78298 0.0
C1094 C 0.42814 0.5457 0.77062 0.0
C1095 C 0.42535 0.52395 0.77362 0.0
C1096 C 0.43667 0.52044 0.78903 0.0
C1097 C 0.45075 0.53865 0.80149 0.0
C1098 C 0.45362 0.56044 0.79853 0.0
C1099 C 0.40754 0.64094 0.81959 0.0
C1100 C 0.41669 0.64263 0.83803 0.0
C1101 C 0.41574 0.63358 0.80451 0.0
C1102 C 0.43343 0.62804 0.80754 0.0
C1103 C 0.4429 0.63016 0.82586 0.0
C1104 C 0.43463 0.63739 0.84095 0.0
C1105 C 0.44126 0.61893 0.79185 0.0
C1106 C 0.43963 0.59751 0.79432 0.0
C1107 C 0.44938 0.63063 0.77438 0.0
C1108 C 0.45257 0.6538 0.77118 0.0
C1109 C 0.46682 0.67228 0.78358 0.0
C1110 C 0.46965 0.69404 0.78054 0.0
C1111 C 0.45845 0.69758 0.76507 0.0
C1112 C 0.44444 0.67938 0.75258 0.0
C1113 C 0.44154 0.65758 0.75556 0.0
H1114 H 0.46066 0.71444 0.76274 0.0
H1115 H 0.43448 0.50358 0.79133 0.0
H1116 H 0.91196 0.42215 0.89567 0.0
H1117 H 0.88295 0.40954 0.92109 0.0
H1118 H 0.89354 0.47809 0.92468 0.0
H1119 H 0.92328 0.49107 0.89975 0.0
H1120 H 0.89318 0.46152 0.95912 0.0
H1121 H 0.84389 0.43385 0.9034 0.0
H1122 H 0.82982 0.41316 0.87285 0.0
H1123 H 0.81127 0.34925 0.9002 0.0
H1124 H 0.82556 0.36961 0.93089 0.0
H1125 H 0.79434 0.42935 0.01869 0.0
H1126 H 0.82056 0.44317 0.99126 0.0
H1127 H 0.81498 0.3768 0.98625 0.0
H1128 H 0.78863 0.36279 0.01349 0.0
H1129 H 0.81175 0.39335 0.9518 0.0
H1130 H 0.86316 0.42127 0.00684 0.0
H1131 H 0.87795 0.44188 0.03736 0.0
H1132 H 0.89276 0.50527 0.01101 0.0
H1133 H 0.87773 0.48496 0.98037 0.0
C1134 C 0.90828 0.4346 0.90198 0.0
C1135 C 0.91993 0.45762 0.89568 0.0
C1136 C 0.89149 0.4273 0.91636 0.0
C1137 C 0.88584 0.4428 0.9246 0.0
C1138 C 0.89754 0.46582 0.91844 0.0
C1139 C 0.91439 0.47316 0.90409 0.0
C1140 C 0.86815 0.43511 0.93996 0.0
C1141 C 0.87524 0.44686 0.95741 0.0
C1142 C 0.84492 0.41568 0.93783 0.0
C1143 C 0.836 0.40331 0.91943 0.0
C1144 C 0.83696 0.41541 0.90289 0.0
C1145 C 0.82892 0.40374 0.88555 0.0
C1146 C 0.81971 0.37991 0.88458 0.0
C1147 C 0.81843 0.3677 0.90097 0.0
C1148 C 0.82648 0.3793 0.91835 0.0
C1149 C 0.79861 0.41767 0.0117 0.0
C1150 C 0.78952 0.39502 0.01835 0.0
C1151 C 0.81363 0.4256 0.99606 0.0
C1152 C 0.81988 0.41106 0.98685 0.0
C1153 C 0.81038 0.38829 0.99316 0.0
C1154 C 0.79541 0.38036 0.0088 0.0
C1155 C 0.83684 0.41971 0.97094 0.0
C1156 C 0.82963 0.40813 0.95342 0.0
C1157 C 0.85997 0.43929 0.97297 0.0
C1158 C 0.86907 0.45154 0.99137 0.0
C1159 C 0.86938 0.43957 0.00759 0.0
C1160 C 0.87784 0.4512 0.0249 0.0
C1161 C 0.88622 0.47485 0.02614 0.0
C1162 C 0.88622 0.48694 0.01004 0.0
C1163 C 0.87775 0.47538 0.9927 0.0
H1164 H 0.89277 0.48383 0.03955 0.0
H1165 H 0.81353 0.37091 0.87113 0.0
H1166 H 0.42548 0.93647 0.07838 0.0
H1167 H 0.41191 0.91133 0.10626 0.0
H1168 H 0.46155 0.88927 0.09405 0.0
H1169 H 0.47537 0.91458 0.06625 0.0
H1170 H 0.41345 0.85256 0.10355 0.0
H1171 H 0.4771 0.9267 0.12639 0.0
H1172 H 0.49743 0.96895 0.13085 0.0
H1173 H 0.43689 0.96134 0.16034 0.0
H1174 H 0.41605 0.91904 0.1558 0.0
H1175 H 0.41551 0.80045 0.18963 0.0
H1176 H 0.42494 0.82342 0.16084 0.0
H1177 H 0.38924 0.8572 0.18277 0.0
H1178 H 0.38062 0.83489 0.21202 0.0
H1179 H 0.42837 0.88781 0.16772 0.0
H1180 H 0.36466 0.81457 0.14661 0.0
H1181 H 0.34245 0.77231 0.14181 0.0
H1182 H 0.39958 0.77758 0.10871 0.0
H1183 H 0.42229 0.81985 0.11353 0.0
C1184 C 0.43332 0.92609 0.08157 0.0
C1185 C 0.45149 0.92745 0.07024 0.0
C1186 C 0.42564 0.91184 0.0975 0.0
C1187 C 0.43581 0.89856 0.10219 0.0
C1188 C 0.45351 0.89942 0.09061 0.0
C1189 C 0.46146 0.91393 0.07485 0.0
C1190 C 0.42849 0.88428 0.11951 0.0
C1191 C 0.41689 0.86019 0.11762 0.0
C1192 C 0.43236 0.89433 0.13775 0.0
C1193 C 0.44492 0.91974 0.14057 0.0
C1194 C 0.46804 0.93406 0.13367 0.0
C1195 C 0.47967 0.95801 0.13624 0.0
C1196 C 0.46843 0.96783 0.14582 0.0
C1197 C 0.44555 0.95371 0.1529 0.0
C1198 C 0.43383 0.92975 0.15034 0.0
C1199 C 0.40955 0.81269 0.18829 0.0
C1200 C 0.39727 0.81583 0.20307 0.0
C1201 C 0.41484 0.82573 0.17175 0.0
C1202 C 0.40744 0.84178 0.16944 0.0
C1203 C 0.3951 0.8449 0.18419 0.0
C1204 C 0.39015 0.83211 0.20089 0.0
C1205 C 0.41331 0.85585 0.15192 0.0
C1206 C 0.4247 0.88 0.15371 0.0
C1207 C 0.4089 0.84579 0.13357 0.0
C1208 C 0.39526 0.82037 0.13058 0.0
C1209 C 0.37256 0.8067 0.13842 0.0
C1210 C 0.35987 0.78275 0.13568 0.0
C1211 C 0.36962 0.77226 0.125 0.0
C1212 C 0.39206 0.78572 0.117 0.0
C1213 C 0.40484 0.80969 0.11971 0.0
H1214 H 0.35977 0.75371 0.1229 0.0
H1215 H 0.47747 0.98638 0.14781 0.0
H1216 H 0.56311 0.50139 0.23519 0.0
H1217 H 0.57601 0.48719 0.26183 0.0
H1218 H 0.52621 0.41687 0.24462 0.0
H1219 H 0.51292 0.43107 0.21808 0.0
H1220 H 0.52471 0.42097 0.28155 0.0
H1221 H 0.58665 0.44229 0.2369 0.0
H1222 H 0.61754 0.46756 0.21423 0.0
H1223 H 0.65581 0.51687 0.25864 0.0
H1224 H 0.62497 0.49204 0.28154 0.0
H1225 H 0.57724 0.37563 0.34472 0.0
H1226 H 0.56302 0.38559 0.31609 0.0
H1227 H 0.60505 0.45786 0.33108 0.0
H1228 H 0.61938 0.44814 0.35959 0.0
H1229 H 0.61012 0.44982 0.29382 0.0
H1230 H 0.54613 0.42849 0.33787 0.0
H1231 H 0.51511 0.40242 0.36013 0.0
H1232 H 0.48082 0.35169 0.31593 0.0
H1233 H 0.51183 0.37735 0.29346 0.0
C1234 C 0.55507 0.48291 0.23699 0.0
C1235 C 0.53711 0.46733 0.22452 0.0
C1236 C 0.56247 0.4748 0.2522 0.0
C1237 C 0.55235 0.45095 0.25506 0.0
C1238 C 0.53429 0.43534 0.24268 0.0
C1239 C 0.52671 0.44346 0.22755 0.0
C1240 C 0.56036 0.44241 0.27121 0.0
C1241 C 0.54336 0.42698 0.28404 0.0
C1242 C 0.58471 0.45044 0.27462 0.0
C1243 C 0.60339 0.46538 0.26091 0.0
C1244 C 0.60157 0.4586 0.24181 0.0
C1245 C 0.61908 0.47283 0.22892 0.0
C1246 C 0.6386 0.49383 0.23499 0.0
C1247 C 0.64067 0.50061 0.25396 0.0
C1248 C 0.6232 0.48645 0.26691 0.0
C1249 C 0.5834 0.39364 0.34194 0.0
C1250 C 0.59942 0.4111 0.35444 0.0
C1251 C 0.57522 0.39928 0.32561 0.0
C1252 C 0.58291 0.42245 0.32153 0.0
C1253 C 0.59893 0.43988 0.33396 0.0
C1254 C 0.60702 0.43426 0.35029 0.0
C1255 C 0.57452 0.42874 0.30424 0.0
C1256 C 0.59147 0.4437 0.2912 0.0
C1257 C 0.55013 0.42012 0.30056 0.0
C1258 C 0.53144 0.40473 0.31404 0.0
C1259 C 0.53208 0.4117 0.33294 0.0
C1260 C 0.51448 0.39701 0.34559 0.0
C1261 C 0.49604 0.37538 0.33946 0.0
C1262 C 0.49513 0.36843 0.32066 0.0
C1263 C 0.5127 0.38304 0.30796 0.0
H1264 H 0.48243 0.36404 0.34928 0.0
H1265 H 0.65214 0.50482 0.22498 0.0
H1266 H 0.4918 0.95535 0.39812 0.0
H1267 H 0.47931 0.92638 0.37292 0.0
H1268 H 0.43228 0.87329 0.41166 0.0
H1269 H 0.44514 0.90213 0.4371 0.0
H1270 H 0.45742 0.85955 0.39029 0.0
H1271 H 0.41002 0.89396 0.37964 0.0
H1272 H 0.40263 0.92595 0.3748 0.0
H1273 H 0.44482 0.94608 0.32447 0.0
H1274 H 0.45275 0.91439 0.32916 0.0
H1275 H 0.38761 0.77306 0.32134 0.0
H1276 H 0.40206 0.80121 0.34727 0.0
H1277 H 0.44729 0.85525 0.30847 0.0
H1278 H 0.43267 0.82727 0.28238 0.0
H1279 H 0.42309 0.86836 0.33013 0.0
H1280 H 0.47032 0.83374 0.34064 0.0
H1281 H 0.47772 0.80176 0.34553 0.0
H1282 H 0.43588 0.78195 0.39604 0.0
H1283 H 0.42795 0.81364 0.39131 0.0
C1284 C 0.47895 0.93748 0.40132 0.0
C1285 C 0.46941 0.93103 0.41959 0.0
C1286 C 0.47169 0.92098 0.38687 0.0
C1287 C 0.45469 0.89774 0.39038 0.0
C1288 C 0.44536 0.89116 0.40865 0.0
C1289 C 0.45257 0.90768 0.42311 0.0
C1290 C 0.44664 0.88032 0.37493 0.0
C1291 C 0.44962 0.86129 0.37722 0.0
C1292 C 0.43696 0.8829 0.35774 0.0
C1293 C 0.43218 0.90194 0.35486 0.0
C1294 C 0.41789 0.90532 0.36763 0.0
C1295 C 0.41357 0.92338 0.3649 0.0
C1296 C 0.4233 0.93808 0.34937 0.0
C1297 C 0.43732 0.93471 0.33651 0.0
C1298 C 0.44172 0.91669 0.33919 0.0
C1299 C 0.40078 0.79089 0.31833 0.0
C1300 C 0.40898 0.79792 0.29978 0.0
C1301 C 0.40909 0.80696 0.3332 0.0
C1302 C 0.42589 0.83031 0.32984 0.0
C1303 C 0.43432 0.83731 0.31138 0.0
C1304 C 0.42599 0.82128 0.2965 0.0
C1305 C 0.43397 0.84761 0.34541 0.0
C1306 C 0.43094 0.86661 0.34316 0.0
C1307 C 0.44359 0.84498 0.36263 0.0
C1308 C 0.44835 0.82593 0.36552 0.0
C1309 C 0.46253 0.82245 0.35271 0.0
C1310 C 0.46685 0.8044 0.35547 0.0
C1311 C 0.45722 0.7898 0.37106 0.0
C1312 C 0.4433 0.79326 0.38396 0.0
C1313 C 0.4389 0.81127 0.38125 0.0
H1314 H 0.46059 0.77583 0.37317 0.0
H1315 H 0.41993 0.95204 0.34727 0.0
H1316 H 0.51513 0.46196 0.55516 0.0
H1317 H 0.52696 0.44779 0.52815 0.0
H1318 H 0.58379 0.4505 0.56148 0.0
H1319 H 0.57153 0.46388 0.58897 0.0
H1320 H 0.59711 0.4708 0.5243 0.0
H1321 H 0.53892 0.40036 0.55392 0.0
H1322 H 0.50014 0.37355 0.56822 0.0
H1323 H 0.46469 0.37077 0.51591 0.0
H1324 H 0.50325 0.39786 0.50137 0.0
H1325 H 0.62322 0.40986 0.45517 0.0
H1326 H 0.61472 0.42348 0.48448 0.0
H1327 H 0.5483 0.41072 0.46034 0.0
H1328 H 0.55635 0.39649 0.43125 0.0
H1329 H 0.54143 0.39464 0.49477 0.0
H1330 H 0.59804 0.4662 0.46544 0.0
H1331 H 0.63608 0.49419 0.45068 0.0
H1332 H 0.67374 0.49619 0.50147 0.0
H1333 H 0.63593 0.46795 0.51645 0.0
C1334 C 0.52989 0.45918 0.55694 0.0
C1335 C 0.54222 0.46389 0.57436 0.0
C1336 C 0.53673 0.45124 0.54141 0.0
C1337 C 0.55614 0.44801 0.54289 0.0
C1338 C 0.56877 0.45296 0.5601 0.0
C1339 C 0.56178 0.46068 0.57575 0.0
C1340 C 0.56308 0.43941 0.52635 0.0
C1341 C 0.58517 0.45399 0.51798 0.0
C1342 C 0.54718 0.41773 0.51795 0.0
C1343 C 0.52397 0.4013 0.52661 0.0
C1344 C 0.52284 0.39419 0.54551 0.0
C1345 C 0.5009 0.37891 0.55365 0.0
C1346 C 0.47996 0.37051 0.543 0.0
C1347 C 0.48092 0.37732 0.52416 0.0
C1348 C 0.50282 0.39261 0.51595 0.0
C1349 C 0.60687 0.41009 0.45608 0.0
C1350 C 0.59044 0.40208 0.4409 0.0
C1351 C 0.60207 0.41796 0.47282 0.0
C1352 C 0.58095 0.41832 0.47457 0.0
C1353 C 0.56467 0.41055 0.45934 0.0
C1354 C 0.56934 0.40247 0.44269 0.0
C1355 C 0.5754 0.42617 0.49241 0.0
C1356 C 0.55353 0.41141 0.50108 0.0
C1357 C 0.59143 0.44779 0.50096 0.0
C1358 C 0.61418 0.46477 0.49199 0.0
C1359 C 0.61445 0.47246 0.4734 0.0
C1360 C 0.63597 0.4884 0.46501 0.0
C1361 C 0.65732 0.49691 0.47511 0.0
C1362 C 0.65719 0.48955 0.49365 0.0
C1363 C 0.63572 0.47359 0.50211 0.0
H1364 H 0.67396 0.50925 0.46859 0.0
H1365 H 0.46299 0.35868 0.54933 0.0
H1366 H 0.06782 0.54545 0.72591 0.0
H1367 H 0.09764 0.5633 0.70122 0.0
H1368 H 0.14909 0.55979 0.73741 0.0
H1369 H 0.11959 0.54277 0.76253 0.0
H1370 H 0.16843 0.60081 0.7202 0.0
H1371 H 0.1218 0.52143 0.70084 0.0
H1372 H 0.085 0.48482 0.69292 0.0
H1373 H 0.07002 0.51826 0.6477 0.0
H1374 H 0.10659 0.55517 0.65552 0.0
H1375 H 0.25168 0.62126 0.64748 0.0
H1376 H 0.2234 0.60546 0.67345 0.0
H1377 H 0.17039 0.60781 0.63841 0.0
H1378 H 0.19841 0.62319 0.61224 0.0
H1379 H 0.15231 0.56713 0.65541 0.0
H1380 H 0.19925 0.64671 0.67499 0.0
H1381 H 0.23617 0.68314 0.68307 0.0
H1382 H 0.25083 0.64908 0.72797 0.0
H1383 H 0.21415 0.61235 0.71999 0.0
C1384 C 0.08554 0.54866 0.7287 0.0
C1385 C 0.09131 0.54264 0.74619 0.0
C1386 C 0.1025 0.55865 0.71449 0.0
C1387 C 0.1255 0.56259 0.71738 0.0
C1388 C 0.13141 0.5568 0.73486 0.0
C1389 C 0.11447 0.54687 0.74912 0.0
C1390 C 0.14339 0.5729 0.70217 0.0
C1391 C 0.16506 0.59328 0.7061 0.0
C1392 C 0.13877 0.56332 0.68367 0.0
C1393 C 0.11683 0.54111 0.67888 0.0
C1394 C 0.11057 0.52102 0.6893 0.0
C1395 C 0.08977 0.50021 0.68481 0.0
C1396 C 0.07515 0.49923 0.66984 0.0
C1397 C 0.08135 0.51905 0.6593 0.0
C1398 C 0.10212 0.53992 0.66374 0.0
C1399 C 0.23407 0.6186 0.64534 0.0
C1400 C 0.22728 0.62346 0.62778 0.0
C1401 C 0.21795 0.60965 0.66023 0.0
C1402 C 0.19483 0.60562 0.65792 0.0
C1403 C 0.18813 0.61077 0.6405 0.0
C1404 C 0.2042 0.61962 0.62558 0.0
C1405 C 0.1773 0.59516 0.67338 0.0
C1406 C 0.1557 0.57469 0.6695 0.0
C1407 C 0.18203 0.60464 0.69192 0.0
C1408 C 0.20407 0.62672 0.69676 0.0
C1409 C 0.21045 0.64694 0.68648 0.0
C1410 C 0.23131 0.66765 0.69107 0.0
C1411 C 0.24587 0.66841 0.70599 0.0
C1412 C 0.23956 0.64846 0.7164 0.0
C1413 C 0.21872 0.6277 0.71186 0.0
H1414 H 0.26202 0.68446 0.70952 0.0
H1415 H 0.05905 0.4831 0.66639 0.0
H1416 H 0.50081 0.07069 0.90015 0.0
H1417 H 0.51265 0.09923 0.87496 0.0
H1418 H 0.57215 0.1487 0.90917 0.0
H1419 H 0.55969 0.12067 0.93485 0.0
H1420 H 0.5516 0.16902 0.89237 0.0
H1421 H 0.57843 0.11805 0.8722 0.0
H1422 H 0.57397 0.0804 0.86425 0.0
H1423 H 0.52315 0.06966 0.82058 0.0
H1424 H 0.52708 0.10713 0.82844 0.0
H1425 H 0.62254 0.24777 0.82119 0.0
H1426 H 0.60607 0.21936 0.84655 0.0
H1427 H 0.54782 0.17294 0.80982 0.0
H1428 H 0.56453 0.20112 0.78416 0.0
H1429 H 0.56563 0.15055 0.82749 0.0
H1430 H 0.54036 0.20262 0.84673 0.0
H1431 H 0.54527 0.24047 0.85462 0.0
H1432 H 0.59349 0.24938 0.89996 0.0
H1433 H 0.58911 0.21172 0.89219 0.0
C1434 C 0.51624 0.08773 0.90245 0.0
C1435 C 0.52933 0.09332 0.91954 0.0
C1436 C 0.52315 0.10396 0.88792 0.0
C1437 C 0.54351 0.12601 0.89004 0.0
C1438 C 0.55644 0.13176 0.90717 0.0
C1439 C 0.54943 0.11561 0.92177 0.0
C1440 C 0.55142 0.14309 0.87443 0.0
C1441 C 0.55492 0.16507 0.87823 0.0
C1442 C 0.55515 0.13775 0.85584 0.0
C1443 C 0.55288 0.11528 0.85104 0.0
C1444 C 0.56618 0.10758 0.86099 0.0
C1445 C 0.56377 0.08629 0.85649 0.0
C1446 C 0.54824 0.07262 0.84195 0.0
C1447 C 0.53514 0.08025 0.83185 0.0
C1448 C 0.53747 0.10152 0.83632 0.0
C1449 C 0.60611 0.23161 0.81852 0.0
C1450 C 0.59483 0.22673 0.80064 0.0
C1451 C 0.59665 0.2154 0.83309 0.0
C1452 C 0.57554 0.19411 0.83018 0.0
C1453 C 0.56411 0.18927 0.8124 0.0
C1454 C 0.57365 0.20542 0.79776 0.0
C1455 C 0.56597 0.17655 0.84546 0.0
C1456 C 0.56216 0.15447 0.84159 0.0
C1457 C 0.562 0.18182 0.86399 0.0
C1458 C 0.56454 0.20442 0.86877 0.0
C1459 C 0.55213 0.21272 0.8583 0.0
C1460 C 0.5548 0.23413 0.86277 0.0
C1461 C 0.56972 0.24734 0.87776 0.0
C1462 C 0.58195 0.23914 0.88835 0.0
C1463 C 0.57936 0.21775 0.88393 0.0
H1464 H 0.57177 0.26392 0.88119 0.0
H1465 H 0.54639 0.05613 0.83849 0.0
H1466 H 0.42343 0.52275 0.0705 0.0
H1467 H 0.4093 0.5351 0.04344 0.0
H1468 H 0.47498 0.60097 0.0437 0.0
H1469 H 0.48879 0.58918 0.07138 0.0
H1470 H 0.43858 0.60688 0.03768 0.0
H1471 H 0.46444 0.55772 0.01189 0.0
H1472 H 0.46599 0.5221 0.00887 0.0
H1473 H 0.39145 0.48347 0.99513 0.0
H1474 H 0.38939 0.51882 0.99832 0.0
H1475 H 0.43185 0.64219 0.94422 0.0
H1476 H 0.4436 0.6297 0.97266 0.0
H1477 H 0.37506 0.56681 0.97339 0.0
H1478 H 0.36314 0.5791 0.94484 0.0
H1479 H 0.41181 0.55899 0.97909 0.0
H1480 H 0.38681 0.60924 0.00403 0.0
H1481 H 0.38625 0.64542 0.00645 0.0
H1482 H 0.46051 0.68268 0.02118 0.0
H1483 H 0.4616 0.64676 0.01857 0.0
C1484 C 0.43475 0.54001 0.06501 0.0
C1485 C 0.45731 0.55494 0.0731 0.0
C1486 C 0.42675 0.54694 0.04938 0.0
C1487 C 0.44124 0.56882 0.04134 0.0
C1488 C 0.46354 0.58396 0.0496 0.0
C1489 C 0.4715 0.5771 0.06532 0.0
C1490 C 0.43326 0.57587 0.02421 0.0
C1491 C 0.433 0.59654 0.0248 0.0
C1492 C 0.4255 0.56215 0.00752 0.0
C1493 C 0.42671 0.54088 0.00553 0.0
C1494 C 0.44834 0.5416 0.00836 0.0
C1495 C 0.44932 0.52146 0.0066 0.0
C1496 C 0.42882 0.50052 0.00187 0.0
C1497 C 0.40731 0.49969 0.99883 0.0
C1498 C 0.40623 0.51978 0.0006 0.0
C1499 C 0.41925 0.62569 0.95041 0.0
C1500 C 0.39653 0.61165 0.94228 0.0
C1501 C 0.42597 0.61863 0.96671 0.0
C1502 C 0.41011 0.59744 0.97523 0.0
C1503 C 0.38753 0.58325 0.96704 0.0
C1504 C 0.38074 0.59034 0.95076 0.0
C1505 C 0.41722 0.59 0.99257 0.0
C1506 C 0.41732 0.56927 0.99201 0.0
C1507 C 0.42498 0.60374 0.00923 0.0
C1508 C 0.42433 0.62534 0.01093 0.0
C1509 C 0.40307 0.62518 0.00764 0.0
C1510 C 0.40264 0.64564 0.00907 0.0
C1511 C 0.42334 0.66635 0.01392 0.0
C1512 C 0.4445 0.66663 0.0174 0.0
C1513 C 0.44502 0.64622 0.01597 0.0
H1514 H 0.42298 0.68217 0.01502 0.0
H1515 H 0.42961 0.48495 0.00051 0.0
H1516 H 0.91265 0.42977 0.24521 0.0
H1517 H 0.88538 0.41295 0.21817 0.0
H1518 H 0.89075 0.47844 0.20768 0.0
H1519 H 0.91866 0.49569 0.23429 0.0
H1520 H 0.8437 0.44019 0.20634 0.0
H1521 H 0.92092 0.46368 0.18087 0.0
H1522 H 0.95906 0.46483 0.17969 0.0
H1523 H 0.92185 0.39113 0.17225 0.0
H1524 H 0.88345 0.38951 0.17367 0.0
H1525 H 0.79636 0.42476 0.11412 0.0
H1526 H 0.82161 0.43824 0.14239 0.0
H1527 H 0.82267 0.3748 0.14378 0.0
H1528 H 0.79794 0.36149 0.11498 0.0
H1529 H 0.86528 0.40972 0.15091 0.0
H1530 H 0.78822 0.38552 0.17487 0.0
H1531 H 0.74959 0.38333 0.17649 0.0
H1532 H 0.78517 0.45629 0.18765 0.0
H1533 H 0.82405 0.45898 0.18585 0.0
C1534 C 0.90826 0.44071 0.23706 0.0
C1535 C 0.91802 0.46416 0.2419 0.0
C1536 C 0.89256 0.43101 0.22168 0.0
C1537 C 0.8862 0.44451 0.2109 0.0
C1538 C 0.89541 0.46774 0.2159 0.0
C1539 C 0.91128 0.47752 0.23117 0.0
C1540 C 0.87025 0.43454 0.19417 0.0
C1541 C 0.84847 0.43373 0.19412 0.0
C1542 C 0.87624 0.42548 0.17853 0.0
C1543 C 0.89931 0.42645 0.17759 0.0
C1544 C 0.92086 0.4477 0.17915 0.0
C1545 C 0.94253 0.44844 0.1784 0.0
C1546 C 0.94288 0.42806 0.17595 0.0
C1547 C 0.92155 0.4069 0.17418 0.0
C1548 C 0.89983 0.40606 0.17495 0.0
C1549 C 0.80191 0.41362 0.12044 0.0
C1550 C 0.79505 0.39199 0.11236 0.0
C1551 C 0.81625 0.42131 0.13669 0.0
C1552 C 0.82366 0.40735 0.14546 0.0
C1553 C 0.81707 0.38583 0.13731 0.0
C1554 C 0.80293 0.37823 0.12087 0.0
C1555 C 0.83867 0.4155 0.16291 0.0
C1556 C 0.86033 0.41599 0.16314 0.0
C1557 C 0.83244 0.42405 0.17881 0.0
C1558 C 0.80907 0.42247 0.18007 0.0
C1559 C 0.78782 0.40112 0.17755 0.0
C1560 C 0.76587 0.39979 0.17852 0.0
C1561 C 0.76492 0.41967 0.18213 0.0
C1562 C 0.78593 0.44091 0.18484 0.0
C1563 C 0.80793 0.44234 0.18387 0.0
H1564 H 0.74792 0.4186 0.18286 0.0
H1565 H 0.95968 0.42867 0.17537 0.0
loop_
_geom_bond_atom_site_label_1
_geom_bond_atom_site_label_2
_geom_bond_distance
_geom_bond_site_symmetry_2
_ccdc_geom_bond_type
H0 C19 0.949 . S
H1 C20 0.950 . S
H2 C22 0.950 . S
H3 C23 0.950 . S
H4 C25 0.950 . S
H5 C28 0.950 . S
H6 C29 0.950 . S
H7 C31 0.951 . S
H8 C32 0.949 . S
H9 C34 0.949 . S
H10 C35 0.950 . S
H11 C37 0.950 . S
H12 C38 0.950 . S
H13 C40 0.950 . S
H14 C43 0.950 . S
H15 C44 0.950 . S
H16 C46 0.951 . S
H17 C47 0.949 . S
C18 C19 1.376 . S
C18 C23 1.386 . S
C18 C24 1.483 . S
C19 H0 0.949 . S
C19 C18 1.376 . S
C19 C20 1.397 . S
C20 H1 0.950 . S
C20 C19 1.397 . S
C20 C21 1.391 . S
C21 C20 1.391 . S
C21 C22 1.405 . S
C22 H2 0.950 . S
C22 C21 1.405 . S
C22 C23 1.367 . S
C23 H3 0.950 . S
C23 C18 1.386 . S
C23 C22 1.367 . S
C24 C18 1.483 . S
C24 C25 1.382 1_655 S
C24 C26 1.403 . S
C25 H4 0.950 . S
C25 C24 1.382 1_455 S
C25 C41 1.411 . S
C26 C24 1.403 . S
C26 C27 1.489 . S
C26 C40 1.411 . S
C27 C26 1.489 . S
C27 C28 1.383 . S
C27 C32 1.382 . S
C28 H5 0.950 . S
C28 C27 1.383 . S
C28 C29 1.395 . S
C29 H6 0.950 . S
C29 C28 1.395 . S
C29 C30 1.288 . S
C30 C29 1.288 . S
C30 C31 1.392 . S
C31 H7 0.951 . S
C31 C30 1.392 . S
C31 C32 1.392 . S
C32 H8 0.949 . S
C32 C27 1.382 . S
C32 C31 1.392 . S
C33 C34 1.376 . S
C33 C38 1.386 . S
C33 C39 1.483 . S
C34 H9 0.949 . S
C34 C33 1.376 . S
C34 C35 1.397 . S
C35 H10 0.950 . S
C35 C34 1.397 . S
C35 C36 1.391 . S
C36 C35 1.391 . S
C36 C37 1.405 . S
C37 H11 0.950 . S
C37 C36 1.405 . S
C37 C38 1.367 . S
C38 H12 0.950 . S
C38 C33 1.386 . S
C38 C37 1.367 . S
C39 C33 1.483 . S
C39 C40 1.382 1_455 S
C39 C41 1.403 . S
C40 H13 0.950 . S
C40 C26 1.411 . S
C40 C39 1.382 1_655 S
C41 C25 1.411 . S
C41 C39 1.403 . S
C41 C42 1.489 . S
C42 C41 1.489 . S
C42 C43 1.383 . S
C42 C47 1.382 . S
C43 H14 0.950 . S
C43 C42 1.383 . S
C43 C44 1.395 . S
C44 H15 0.950 . S
C44 C43 1.395 . S
C44 C45 1.288 . S
C45 C44 1.288 . S
C45 C46 1.392 . S
C46 H16 0.951 . S
C46 C45 1.392 . S
C46 C47 1.392 . S
C47 H17 0.949 . S
C47 C42 1.382 . S
C47 C46 1.392 . S
H48 C67 0.949 . S
H49 C68 0.950 . S
H50 C70 0.950 . S
H51 C71 0.950 . S
H52 C73 0.950 . S
H53 C76 0.950 . S
H54 C77 0.950 . S
H55 C79 0.951 . S
H56 C80 0.949 . S
H57 C82 0.949 . S
H58 C83 0.950 . S
H59 C85 0.950 . S
H60 C86 0.950 . S
H61 C88 0.950 . S
H62 C91 0.950 . S
H63 C92 0.950 . S
H64 C94 0.951 . S
H65 C95 0.949 . S
C66 C67 1.376 . S
C66 C71 1.386 . S
C66 C72 1.483 . S
C67 H48 0.949 . S
C67 C66 1.376 . S
C67 C68 1.397 . S
C68 H49 0.950 . S
C68 C67 1.397 . S
C68 C69 1.391 . S
C69 C68 1.391 . S
C69 C70 1.405 . S
C70 H50 0.950 . S
C70 C69 1.405 . S
C70 C71 1.367 . S
C71 H51 0.950 . S
C71 C66 1.386 . S
C71 C70 1.367 . S
C72 C66 1.483 . S
C72 C73 1.382 1_565 S
C72 C74 1.409 . S
C73 H52 0.950 . S
C73 C72 1.382 1_545 S
C73 C89 1.411 . S
C74 C72 1.409 . S
C74 C75 1.506 . S
C74 C88 1.386 1_565 S
C75 C74 1.506 . S
C75 C76 1.383 . S
C75 C80 1.382 . S
C76 H53 0.950 . S
C76 C75 1.383 . S
C76 C77 1.395 . S
C77 H54 0.950 . S
C77 C76 1.395 . S
C77 C78 1.288 . S
C78 C77 1.288 . S
C78 C79 1.392 . S
C79 H55 0.951 . S
C79 C78 1.392 . S
C79 C80 1.392 . S
C80 H56 0.949 . S
C80 C75 1.382 . S
C80 C79 1.392 . S
C81 C82 1.376 . S
C81 C86 1.386 . S
C81 C87 1.483 . S
C82 H57 0.949 . S
C82 C81 1.376 . S
C82 C83 1.397 . S
C83 H58 0.950 . S
C83 C82 1.397 . S
C83 C84 1.391 . S
C84 C83 1.391 . S
C84 C85 1.405 . S
C85 H59 0.950 . S
C85 C84 1.405 . S
C85 C86 1.367 . S
C86 H60 0.950 . S
C86 C81 1.386 . S
C86 C85 1.367 . S
C87 C81 1.483 . S
C87 C88 1.382 . S
C87 C89 1.403 . S
C88 H61 0.950 . S
C88 C74 1.386 1_545 S
C88 C87 1.382 . S
C89 C73 1.411 . S
C89 C87 1.403 . S
C89 C90 1.489 . S
C90 C89 1.489 . S
C90 C91 1.383 . S
C90 C95 1.382 . S
C91 H62 0.950 . S
C91 C90 1.383 . S
C91 C92 1.395 . S
C92 H63 0.950 . S
C92 C91 1.395 . S
C92 C93 1.288 . S
C93 C92 1.288 . S
C93 C94 1.392 . S
C94 H64 0.951 . S
C94 C93 1.392 . S
C94 C95 1.392 . S
C95 H65 0.949 . S
C95 C90 1.382 . S
C95 C94 1.392 . S
H96 C115 0.949 . S
H97 C116 0.950 . S
H98 C118 0.950 . S
H99 C119 0.950 . S
H100 C121 0.950 . S
H101 C124 0.950 . S
H102 C125 0.950 . S
H103 C127 0.951 . S
H104 C128 0.949 . S
H105 C130 0.949 . S
H106 C131 0.950 . S
H107 C133 0.950 . S
H108 C134 0.950 . S
H109 C136 0.950 . S
H110 C139 0.950 . S
H111 C140 0.950 . S
H112 C142 0.951 . S
H113 C143 0.949 . S
C114 C115 1.376 . S
C114 C119 1.386 . S
C114 C120 1.483 . S
C115 H96 0.949 . S
C115 C114 1.376 . S
C115 C116 1.397 . S
C116 H97 0.950 . S
C116 C115 1.397 . S
C116 C117 1.391 . S
C117 C116 1.391 . S
C117 C118 1.405 . S
C118 H98 0.950 . S
C118 C117 1.405 . S
C118 C119 1.367 . S
C119 H99 0.950 . S
C119 C114 1.386 . S
C119 C118 1.367 . S
C120 C114 1.483 . S
C120 C121 1.382 . S
C120 C122 1.403 . S
C121 H100 0.950 . S
C121 C120 1.382 . S
C121 C137 1.411 . S
C122 C120 1.403 . S
C122 C123 1.489 . S
C122 C136 1.411 . S
C123 C122 1.489 . S
C123 C124 1.383 . S
C123 C128 1.382 . S
C124 H101 0.950 . S
C124 C123 1.383 . S
C124 C125 1.395 . S
C125 H102 0.950 . S
C125 C124 1.395 . S
C125 C126 1.288 . S
C126 C125 1.288 . S
C126 C127 1.392 . S
C127 H103 0.951 . S
C127 C126 1.392 . S
C127 C128 1.392 . S
C128 H104 0.949 . S
C128 C123 1.382 . S
C128 C127 1.392 . S
C129 C130 1.376 . S
C129 C134 1.386 . S
C129 C135 1.483 . S
C130 H105 0.949 . S
C130 C129 1.376 . S
C130 C131 1.397 . S
C131 H106 0.950 . S
C131 C130 1.397 . S
C131 C132 1.391 . S
C132 C131 1.391 . S
C132 C133 1.405 . S
C133 H107 0.950 . S
C133 C132 1.405 . S
C133 C134 1.367 . S
C134 H108 0.950 . S
C134 C129 1.386 . S
C134 C133 1.367 . S
C135 C129 1.483 . S
C135 C136 1.382 . S
C135 C137 1.403 . S
C136 H109 0.950 . S
C136 C122 1.411 . S
C136 C135 1.382 . S
C137 C121 1.411 . S
C137 C135 1.403 . S
C137 C138 1.489 . S
C138 C137 1.489 . S
C138 C139 1.383 . S
C138 C143 1.382 . S
C139 H110 0.950 . S
C139 C138 1.383 . S
C139 C140 1.395 . S
C140 H111 0.950 . S
C140 C139 1.395 . S
C140 C141 1.288 . S
C141 C140 1.288 . S
C141 C142 1.392 . S
C142 H112 0.951 . S
C142 C141 1.392 . S
C142 C143 1.392 . S
C143 H113 0.949 . S
C143 C138 1.382 . S
C143 C142 1.392 . S
H144 C163 0.949 . S
H145 C164 0.950 . S
H146 C166 0.950 . S
H147 C167 0.950 . S
H148 C169 0.950 . S
H149 C172 0.950 . S
H150 C173 0.950 . S
H151 C175 0.951 . S
H152 C176 0.949 . S
H153 C178 0.949 . S
H154 C179 0.950 . S
H155 C181 0.950 . S
H156 C182 0.950 . S
H157 C184 0.950 . S
H158 C187 0.950 . S
H159 C188 0.950 . S
H160 C190 0.951 . S
H161 C191 0.949 . S
C162 C163 1.376 . S
C162 C167 1.386 . S
C162 C168 1.483 . S
C163 H144 0.949 . S
C163 C162 1.376 . S
C163 C164 1.397 . S
C164 H145 0.950 . S
C164 C163 1.397 . S
C164 C165 1.391 . S
C165 C164 1.391 . S
C165 C166 1.405 . S
C166 H146 0.950 . S
C166 C165 1.405 . S
C166 C167 1.367 . S
C167 H147 0.950 . S
C167 C162 1.386 . S
C167 C166 1.367 . S
C168 C162 1.483 . S
C168 C169 1.382 1_455 S
C168 C170 1.403 . S
C169 H148 0.950 . S
C169 C168 1.382 1_655 S
C169 C185 1.411 . S
C170 C168 1.403 . S
C170 C171 1.489 . S
C170 C184 1.411 . S
C171 C170 1.489 . S
C171 C172 1.383 . S
C171 C176 1.382 . S
C172 H149 0.950 . S
C172 C171 1.383 . S
C172 C173 1.395 . S
C173 H150 0.950 . S
C173 C172 1.395 . S
C173 C174 1.288 . S
C174 C173 1.288 . S
C174 C175 1.392 . S
C175 H151 0.951 . S
C175 C174 1.392 . S
C175 C176 1.392 . S
C176 H152 0.949 . S
C176 C171 1.382 . S
C176 C175 1.392 . S
C177 C178 1.376 . S
C177 C182 1.386 . S
C177 C183 1.483 . S
C178 H153 0.949 . S
C178 C177 1.376 . S
C178 C179 1.397 . S
C179 H154 0.950 . S
C179 C178 1.397 . S
C179 C180 1.391 . S
C180 C179 1.391 . S
C180 C181 1.405 . S
C181 H155 0.950 . S
C181 C180 1.405 . S
C181 C182 1.367 . S
C182 H156 0.950 . S
C182 C177 1.386 . S
C182 C181 1.367 . S
C183 C177 1.483 . S
C183 C184 1.382 1_655 S
C183 C185 1.403 . S
C184 H157 0.950 . S
C184 C170 1.411 . S
C184 C183 1.382 1_455 S
C185 C169 1.411 . S
C185 C183 1.403 . S
C185 C186 1.489 . S
C186 C185 1.489 . S
C186 C187 1.383 . S
C186 C191 1.382 . S
C187 H158 0.950 . S
C187 C186 1.383 . S
C187 C188 1.395 . S
C188 H159 0.950 . S
C188 C187 1.395 . S
C188 C189 1.288 . S
C189 C188 1.288 . S
C189 C190 1.392 . S
C190 H160 0.951 . S
C190 C189 1.392 . S
C190 C191 1.392 . S
C191 H161 0.949 . S
C191 C186 1.382 . S
C191 C190 1.392 . S
H192 C211 0.949 . S
H193 C212 0.950 . S
H194 C214 0.950 . S
H195 C215 0.950 . S
H196 C217 0.950 . S
H197 C220 0.950 . S
H198 C221 0.950 . S
H199 C223 0.951 . S
H200 C224 0.949 . S
H201 C226 0.949 . S
H202 C227 0.950 . S
H203 C229 0.950 . S
H204 C230 0.950 . S
H205 C232 0.947 1_565 S
H206 C235 0.950 . S
H207 C236 0.950 . S
H208 C238 0.951 . S
H209 C239 0.949 . S
C210 C211 1.376 . S
C210 C215 1.386 1_554 S
C210 C216 1.483 1_554 S
C211 H192 0.949 . S
C211 C210 1.376 . S
C211 C212 1.397 . S
C212 H193 0.950 . S
C212 C211 1.397 . S
C212 C213 1.391 . S
C213 C212 1.391 . S
C213 C214 1.405 . S
C214 H194 0.950 . S
C214 C213 1.405 . S
C214 C215 1.367 1_554 S
C215 H195 0.950 . S
C215 C210 1.386 1_556 S
C215 C214 1.367 1_556 S
C216 C210 1.483 1_556 S
C216 C217 1.382 1_556 S
C216 C218 1.403 . S
C217 H196 0.950 . S
C217 C216 1.382 1_554 S
C217 C233 1.411 1_545 S
C218 C216 1.403 . S
C218 C219 1.489 . S
C218 C232 1.411 . S
C219 C218 1.489 . S
C219 C220 1.383 . S
C219 C224 1.382 . S
C220 H197 0.950 . S
C220 C219 1.383 . S
C220 C221 1.395 . S
C221 H198 0.950 . S
C221 C220 1.395 . S
C221 C222 1.288 . S
C222 C221 1.288 . S
C222 C223 1.392 . S
C223 H199 0.951 . S
C223 C222 1.392 . S
C223 C224 1.392 . S
C224 H200 0.949 . S
C224 C219 1.382 . S
C224 C223 1.392 . S
C225 C226 1.376 . S
C225 C230 1.386 . S
C225 C231 1.483 . S
C226 H201 0.949 . S
C226 C225 1.376 . S
C226 C227 1.397 . S
C227 H202 0.950 . S
C227 C226 1.397 . S
C227 C228 1.391 . S
C228 C227 1.391 . S
C228 C229 1.405 . S
C229 H203 0.950 . S
C229 C228 1.405 . S
C229 C230 1.367 . S
C230 H204 0.950 . S
C230 C225 1.386 . S
C230 C229 1.367 . S
C231 C225 1.483 . S
C231 C232 1.382 1_565 S
C231 C233 1.403 1_556 S
C232 H205 0.947 1_545 S
C232 C218 1.411 . S
C232 C231 1.382 1_545 S
C233 C217 1.411 1_565 S
C233 C231 1.403 1_554 S
C233 C234 1.489 . S
C234 C233 1.489 . S
C234 C235 1.383 . S
C234 C239 1.382 . S
C235 H206 0.950 . S
C235 C234 1.383 . S
C235 C236 1.395 . S
C236 H207 0.950 . S
C236 C235 1.395 . S
C236 C237 1.288 . S
C237 C236 1.288 . S
C237 C238 1.392 . S
C238 H208 0.951 . S
C238 C237 1.392 . S
C238 C239 1.392 . S
C239 H209 0.949 . S
C239 C234 1.382 . S
C239 C238 1.392 . S
H240 C259 0.949 . S
H241 C260 0.950 . S
H242 C262 0.950 . S
H243 C263 0.950 . S
H244 C265 0.950 . S
H245 C268 0.950 . S
H246 C269 0.950 . S
H247 C271 0.951 . S
H248 C272 0.949 . S
H249 C274 0.949 . S
H250 C275 0.950 . S
H251 C277 0.950 . S
H252 C278 0.950 . S
H253 C280 0.950 . S
H254 C283 0.950 . S
H255 C284 0.950 . S
H256 C286 0.951 . S
H257 C287 0.949 . S
C258 C259 1.376 . S
C258 C263 1.386 . S
C258 C264 1.483 . S
C259 H240 0.949 . S
C259 C258 1.376 . S
C259 C260 1.397 . S
C260 H241 0.950 . S
C260 C259 1.397 . S
C260 C261 1.391 . S
C261 C260 1.391 . S
C261 C262 1.405 . S
C262 H242 0.950 . S
C262 C261 1.405 . S
C262 C263 1.367 . S
C263 H243 0.950 . S
C263 C258 1.386 . S
C263 C262 1.367 . S
C264 C258 1.483 . S
C264 C265 1.382 . S
C264 C266 1.403 . S
C265 H244 0.950 . S
C265 C264 1.382 . S
C265 C281 1.411 . S
C266 C264 1.403 . S
C266 C267 1.489 . S
C266 C280 1.411 . S
C267 C266 1.489 . S
C267 C268 1.383 . S
C267 C272 1.382 . S
C268 H245 0.950 . S
C268 C267 1.383 . S
C268 C269 1.395 . S
C269 H246 0.950 . S
C269 C268 1.395 . S
C269 C270 1.288 . S
C270 C269 1.288 . S
C270 C271 1.392 . S
C271 H247 0.951 . S
C271 C270 1.392 . S
C271 C272 1.392 . S
C272 H248 0.949 . S
C272 C267 1.382 . S
C272 C271 1.392 . S
C273 C274 1.376 . S
C273 C278 1.386 . S
C273 C279 1.483 . S
C274 H249 0.949 . S
C274 C273 1.376 . S
C274 C275 1.397 . S
C275 H250 0.950 . S
C275 C274 1.397 . S
C275 C276 1.391 . S
C276 C275 1.391 . S
C276 C277 1.405 . S
C277 H251 0.950 . S
C277 C276 1.405 . S
C277 C278 1.367 . S
C278 H252 0.950 . S
C278 C273 1.386 . S
C278 C277 1.367 . S
C279 C273 1.483 . S
C279 C280 1.382 . S
C279 C281 1.403 . S
C280 H253 0.950 . S
C280 C266 1.411 . S
C280 C279 1.382 . S
C281 C265 1.411 . S
C281 C279 1.403 . S
C281 C282 1.489 . S
C282 C281 1.489 . S
C282 C283 1.383 . S
C282 C287 1.382 . S
C283 H254 0.950 . S
C283 C282 1.383 . S
C283 C284 1.395 . S
C284 H255 0.950 . S
C284 C283 1.395 . S
C284 C285 1.288 . S
C285 C284 1.288 . S
C285 C286 1.392 . S
C286 H256 0.951 . S
C286 C285 1.392 . S
C286 C287 1.392 . S
C287 H257 0.949 . S
C287 C282 1.382 . S
C287 C286 1.392 . S
C288 O289 1.160 . S
C288 O295 1.185 . S
O289 C288 1.160 . S
O290 Zn291 1.899 . S
O290 C298 1.284 . S
Zn291 O290 1.899 . S
Zn291 O292 2.032 . S
Zn291 O295 2.086 . S
Zn291 O300 1.977 . S
O292 Zn291 2.032 . S
O292 C296 1.278 . S
C293 O294 1.203 . S
C293 O300 1.267 . S
O294 C293 1.203 . S
O295 C288 1.185 . S
O295 Zn291 2.086 . S
C296 O292 1.278 . S
C296 O297 1.211 . S
O297 C296 1.211 . S
C298 O290 1.284 . S
C298 O299 1.273 . S
O299 C298 1.273 . S
O300 Zn291 1.977 . S
O300 C293 1.267 . S
C301 O302 1.160 . S
C301 O308 1.185 . S
O302 C301 1.160 . S
O303 Zn304 1.899 . S
O303 C311 1.284 . S
Zn304 O303 1.899 . S
Zn304 O305 2.032 . S
Zn304 O308 2.086 . S
Zn304 O313 1.977 . S
O305 Zn304 2.032 . S
O305 C309 1.278 . S
C306 O307 1.203 . S
C306 O313 1.267 . S
O307 C306 1.203 . S
O308 C301 1.185 . S
O308 Zn304 2.086 . S
C309 O305 1.278 . S
C309 O310 1.211 . S
O310 C309 1.211 . S
C311 O303 1.284 . S
C311 O312 1.273 . S
O312 C311 1.273 . S
O313 Zn304 1.977 . S
O313 C306 1.267 . S
C314 O315 1.160 . S
C314 O321 1.185 . S
O315 C314 1.160 . S
O316 Zn317 1.899 . S
O316 C324 1.284 . S
Zn317 O316 1.899 . S
Zn317 O318 2.032 . S
Zn317 O321 2.086 . S
Zn317 O326 1.977 . S
O318 Zn317 2.032 . S
O318 C322 1.278 . S
C319 O320 1.203 . S
C319 O326 1.267 . S
O320 C319 1.203 . S
O321 C314 1.185 . S
O321 Zn317 2.086 . S
C322 O318 1.278 . S
C322 O323 1.211 . S
O323 C322 1.211 . S
C324 O316 1.284 . S
C324 O325 1.273 . S
O325 C324 1.273 . S
O326 Zn317 1.977 . S
O326 C319 1.267 . S
C327 O328 1.160 . S
C327 O334 1.185 . S
O328 C327 1.160 . S
O329 Zn330 1.899 . S
O329 C337 1.284 . S
Zn330 O329 1.899 . S
Zn330 O331 2.032 . S
Zn330 O334 2.086 . S
Zn330 O339 1.977 . S
O331 Zn330 2.032 . S
O331 C335 1.278 . S
C332 O333 1.203 . S
C332 O339 1.267 . S
O333 C332 1.203 . S
O334 C327 1.185 . S
O334 Zn330 2.086 . S
C335 O331 1.278 . S
C335 O336 1.211 . S
O336 C335 1.211 . S
C337 O329 1.284 . S
C337 O338 1.273 . S
O338 C337 1.273 . S
O339 Zn330 1.977 . S
O339 C332 1.267 . S
C340 O341 1.160 . S
C340 O347 1.185 . S
O341 C340 1.160 . S
O342 Zn343 1.899 . S
O342 C350 1.284 . S
Zn343 O342 1.899 . S
Zn343 O344 2.032 . S
Zn343 O347 2.086 . S
Zn343 O352 1.977 . S
O344 Zn343 2.032 . S
O344 C348 1.278 . S
C345 O346 1.203 . S
C345 O352 1.267 . S
O346 C345 1.203 . S
O347 C340 1.185 . S
O347 Zn343 2.086 . S
C348 O344 1.278 . S
C348 O349 1.211 . S
O349 C348 1.211 . S
C350 O342 1.284 . S
C350 O351 1.273 . S
O351 C350 1.273 . S
O352 Zn343 1.977 . S
O352 C345 1.267 . S
C353 O354 1.160 . S
C353 O360 1.185 . S
O354 C353 1.160 . S
O355 Zn356 1.899 . S
O355 C363 1.284 . S
Zn356 O355 1.899 . S
Zn356 O357 2.032 . S
Zn356 O360 2.086 . S
Zn356 O365 1.977 . S
O357 Zn356 2.032 . S
O357 C361 1.278 . S
C358 O359 1.203 . S
C358 O365 1.267 . S
O359 C358 1.203 . S
O360 C353 1.185 . S
O360 Zn356 2.086 . S
C361 O357 1.278 . S
C361 O362 1.211 . S
O362 C361 1.211 . S
C363 O355 1.284 . S
C363 O364 1.273 . S
O364 C363 1.273 . S
O365 Zn356 1.977 . S
O365 C358 1.267 . S
H366 C384 0.951 . S
H367 C386 0.951 . S
H368 C388 0.950 . S
H369 C389 0.950 . S
H370 C391 0.950 . S
H371 C394 0.950 . S
H372 C395 0.950 . S
H373 C397 0.950 . S
H374 C398 0.950 . S
H375 C399 0.951 . S
H376 C401 0.951 . S
H377 C403 0.950 . S
H378 C404 0.950 . S
H379 C406 0.950 . S
H380 C409 0.950 . S
H381 C410 0.950 . S
H382 C412 0.950 . S
H383 C413 0.950 . S
C384 H366 0.951 . S
C384 C385 1.366 . S
C384 C386 1.388 . S
C385 C384 1.366 . S
C385 C389 1.385 . S
C386 H367 0.951 . S
C386 C384 1.388 . S
C386 C387 1.366 . S
C387 C386 1.366 . S
C387 C388 1.414 . S
C387 C390 1.499 . S
C388 H368 0.950 . S
C388 C387 1.414 . S
C388 C389 1.374 . S
C389 H369 0.950 . S
C389 C385 1.385 . S
C389 C388 1.374 . S
C390 C387 1.499 . S
C390 C391 1.373 . S
C390 C392 1.389 . S
C391 H370 0.950 . S
C391 C390 1.373 . S
C391 C407 1.377 . S
C392 C390 1.389 . S
C392 C393 1.524 . S
C392 C406 1.377 . S
C393 C392 1.524 . S
C393 C394 1.397 . S
C393 C398 1.363 . S
C394 H371 0.950 . S
C394 C393 1.397 . S
C394 C395 1.334 . S
C395 H372 0.950 . S
C395 C394 1.334 . S
C395 C396 1.287 . S
C396 C395 1.287 . S
C396 C397 1.524 . S
C396 H415 0.913 . S
C397 H373 0.950 . S
C397 C396 1.524 . S
C397 C398 1.415 . S
C398 H374 0.950 . S
C398 C393 1.363 . S
C398 C397 1.415 . S
C399 H375 0.951 . S
C399 C400 1.366 . S
C399 C401 1.388 . S
C400 C399 1.366 . S
C400 C404 1.385 . S
C401 H376 0.951 . S
C401 C399 1.388 . S
C401 C402 1.366 . S
C402 C401 1.366 . S
C402 C403 1.414 . S
C402 C405 1.499 . S
C403 H377 0.950 . S
C403 C402 1.414 . S
C403 C404 1.374 . S
C404 H378 0.950 . S
C404 C400 1.385 . S
C404 C403 1.374 . S
C405 C402 1.499 . S
C405 C406 1.373 . S
C405 C407 1.389 . S
C406 H379 0.950 . S
C406 C392 1.377 . S
C406 C405 1.373 . S
C407 C391 1.377 . S
C407 C405 1.389 . S
C407 C408 1.524 . S
C408 C407 1.524 . S
C408 C409 1.397 . S
C408 C413 1.363 . S
C409 H380 0.950 . S
C409 C408 1.397 . S
C409 C410 1.334 . S
C410 H381 0.950 . S
C410 C409 1.334 . S
C410 C411 1.287 . S
C411 C410 1.287 . S
C411 C412 1.524 . S
C411 H414 0.999 . S
C412 H382 0.950 . S
C412 C411 1.524 . S
C412 C413 1.415 . S
C413 H383 0.950 . S
C413 C408 1.363 . S
C413 C412 1.415 . S
H414 C411 0.999 . S
H415 C396 0.913 . S
H416 C434 0.951 . S
H417 C436 0.951 . S
H418 C438 0.950 . S
H419 C439 0.950 . S
H420 C441 0.950 . S
H421 C444 0.950 . S
H422 C445 0.950 . S
H423 C447 0.950 . S
H424 C448 0.950 . S
H425 C449 0.951 . S
H426 C451 0.951 . S
H427 C453 0.950 . S
H428 C454 0.950 . S
H429 C456 0.950 . S
H430 C459 0.950 . S
H431 C460 0.950 . S
H432 C462 0.950 . S
H433 C463 0.950 . S
C434 H416 0.951 . S
C434 C435 1.366 . S
C434 C436 1.388 . S
C435 C434 1.366 . S
C435 C439 1.385 . S
C436 H417 0.951 . S
C436 C434 1.388 . S
C436 C437 1.366 . S
C437 C436 1.366 . S
C437 C438 1.414 . S
C437 C440 1.499 . S
C438 H418 0.950 . S
C438 C437 1.414 . S
C438 C439 1.374 . S
C439 H419 0.950 . S
C439 C435 1.385 . S
C439 C438 1.374 . S
C440 C437 1.499 . S
C440 C441 1.373 . S
C440 C442 1.389 . S
C441 H420 0.950 . S
C441 C440 1.373 . S
C441 C457 1.377 . S
C442 C440 1.389 . S
C442 C443 1.524 . S
C442 C456 1.377 . S
C443 C442 1.524 . S
C443 C444 1.397 . S
C443 C448 1.363 . S
C444 H421 0.950 . S
C444 C443 1.397 . S
C444 C445 1.334 . S
C445 H422 0.950 . S
C445 C444 1.334 . S
C445 C446 1.287 . S
C446 C445 1.287 . S
C446 C447 1.524 . S
C446 H465 0.913 . S
C447 H423 0.950 . S
C447 C446 1.524 . S
C447 C448 1.415 . S
C448 H424 0.950 . S
C448 C443 1.363 . S
C448 C447 1.415 . S
C449 H425 0.951 . S
C449 C450 1.366 . S
C449 C451 1.388 . S
C450 C449 1.366 . S
C450 C454 1.385 . S
C451 H426 0.951 . S
C451 C449 1.388 . S
C451 C452 1.366 . S
C452 C451 1.366 . S
C452 C453 1.414 . S
C452 C455 1.499 . S
C453 H427 0.950 . S
C453 C452 1.414 . S
C453 C454 1.374 . S
C454 H428 0.950 . S
C454 C450 1.385 . S
C454 C453 1.374 . S
C455 C452 1.499 . S
C455 C456 1.373 . S
C455 C457 1.389 . S
C456 H429 0.950 . S
C456 C442 1.377 . S
C456 C455 1.373 . S
C457 C441 1.377 . S
C457 C455 1.389 . S
C457 C458 1.524 . S
C458 C457 1.524 . S
C458 C459 1.397 . S
C458 C463 1.363 . S
C459 H430 0.950 . S
C459 C458 1.397 . S
C459 C460 1.334 . S
C460 H431 0.950 . S
C460 C459 1.334 . S
C460 C461 1.287 . S
C461 C460 1.287 . S
C461 C462 1.524 . S
C461 H464 0.999 . S
C462 H432 0.950 . S
C462 C461 1.524 . S
C462 C463 1.415 . S
C463 H433 0.950 . S
C463 C458 1.363 . S
C463 C462 1.415 . S
H464 C461 0.999 . S
H465 C446 0.913 . S
H466 C484 0.951 . S
H467 C486 0.951 . S
H468 C488 0.950 . S
H469 C489 0.950 . S
H470 C491 0.950 . S
H471 C494 0.950 . S
H472 C495 0.950 . S
H473 C497 0.950 . S
H474 C498 0.950 . S
H475 C499 0.951 . S
H476 C501 0.951 . S
H477 C503 0.950 . S
H478 C504 0.950 . S
H479 C506 0.950 . S
H480 C509 0.950 . S
H481 C510 0.950 . S
H482 C512 0.950 . S
H483 C513 0.950 . S
C484 H466 0.951 . S
C484 C485 1.366 . S
C484 C486 1.388 . S
C485 C484 1.366 . S
C485 C489 1.385 . S
C486 H467 0.951 . S
C486 C484 1.388 . S
C486 C487 1.366 . S
C487 C486 1.366 . S
C487 C488 1.414 . S
C487 C490 1.499 . S
C488 H468 0.950 . S
C488 C487 1.414 . S
C488 C489 1.374 . S
C489 H469 0.950 . S
C489 C485 1.385 . S
C489 C488 1.374 . S
C490 C487 1.499 . S
C490 C491 1.373 . S
C490 C492 1.389 . S
C491 H470 0.950 . S
C491 C490 1.373 . S
C491 C507 1.377 . S
C492 C490 1.389 . S
C492 C493 1.524 . S
C492 C506 1.377 . S
C493 C492 1.524 . S
C493 C494 1.397 . S
C493 C498 1.363 . S
C494 H471 0.950 . S
C494 C493 1.397 . S
C494 C495 1.334 . S
C495 H472 0.950 . S
C495 C494 1.334 . S
C495 C496 1.287 . S
C496 C495 1.287 . S
C496 C497 1.524 . S
C496 H515 0.913 . S
C497 H473 0.950 . S
C497 C496 1.524 . S
C497 C498 1.415 . S
C498 H474 0.950 . S
C498 C493 1.363 . S
C498 C497 1.415 . S
C499 H475 0.951 . S
C499 C500 1.366 . S
C499 C501 1.388 . S
C500 C499 1.366 . S
C500 C504 1.385 . S
C501 H476 0.951 . S
C501 C499 1.388 . S
C501 C502 1.366 . S
C502 C501 1.366 . S
C502 C503 1.414 . S
C502 C505 1.499 . S
C503 H477 0.950 . S
C503 C502 1.414 . S
C503 C504 1.374 . S
C504 H478 0.950 . S
C504 C500 1.385 . S
C504 C503 1.374 . S
C505 C502 1.499 . S
C505 C506 1.373 . S
C505 C507 1.389 . S
C506 H479 0.950 . S
C506 C492 1.377 . S
C506 C505 1.373 . S
C507 C491 1.377 . S
C507 C505 1.389 . S
C507 C508 1.524 . S
C508 C507 1.524 . S
C508 C509 1.397 . S
C508 C513 1.363 . S
C509 H480 0.950 . S
C509 C508 1.397 . S
C509 C510 1.334 . S
C510 H481 0.950 . S
C510 C509 1.334 . S
C510 C511 1.287 . S
C511 C510 1.287 . S
C511 C512 1.524 . S
C511 H514 0.999 . S
C512 H482 0.950 . S
C512 C511 1.524 . S
C512 C513 1.415 . S
C513 H483 0.950 . S
C513 C508 1.363 . S
C513 C512 1.415 . S
H514 C511 0.999 . S
H515 C496 0.913 . S
H516 C534 0.951 . S
H517 C536 0.951 . S
H518 C538 0.950 . S
H519 C539 0.950 . S
H520 C541 0.950 . S
H521 C544 0.950 . S
H522 C545 0.950 . S
H523 C547 0.950 . S
H524 C548 0.950 . S
H525 C549 0.951 . S
H526 C551 0.951 . S
H527 C553 0.950 . S
H528 C554 0.950 . S
H529 C556 0.950 . S
H530 C559 0.950 . S
H531 C560 0.950 . S
H532 C562 0.950 . S
H533 C563 0.950 . S
C534 H516 0.951 . S
C534 C535 1.366 . S
C534 C536 1.388 . S
C535 C534 1.366 . S
C535 C539 1.385 . S
C536 H517 0.951 . S
C536 C534 1.388 . S
C536 C537 1.366 . S
C537 C536 1.366 . S
C537 C538 1.414 . S
C537 C540 1.499 . S
C538 H518 0.950 . S
C538 C537 1.414 . S
C538 C539 1.374 . S
C539 H519 0.950 . S
C539 C535 1.385 . S
C539 C538 1.374 . S
C540 C537 1.499 . S
C540 C541 1.373 . S
C540 C542 1.389 . S
C541 H520 0.950 . S
C541 C540 1.373 . S
C541 C557 1.377 . S
C542 C540 1.389 . S
C542 C543 1.524 . S
C542 C556 1.377 . S
C543 C542 1.524 . S
C543 C544 1.397 . S
C543 C548 1.363 . S
C544 H521 0.950 . S
C544 C543 1.397 . S
C544 C545 1.334 . S
C545 H522 0.950 . S
C545 C544 1.334 . S
C545 C546 1.287 . S
C546 C545 1.287 . S
C546 C547 1.524 . S
C546 H565 0.913 . S
C547 H523 0.950 . S
C547 C546 1.524 . S
C547 C548 1.415 . S
C548 H524 0.950 . S
C548 C543 1.363 . S
C548 C547 1.415 . S
C549 H525 0.951 . S
C549 C550 1.366 . S
C549 C551 1.388 . S
C550 C549 1.366 . S
C550 C554 1.385 . S
C551 H526 0.951 . S
C551 C549 1.388 . S
C551 C552 1.366 . S
C552 C551 1.366 . S
C552 C553 1.414 . S
C552 C555 1.499 . S
C553 H527 0.950 . S
C553 C552 1.414 . S
C553 C554 1.374 . S
C554 H528 0.950 . S
C554 C550 1.385 . S
C554 C553 1.374 . S
C555 C552 1.499 . S
C555 C556 1.373 . S
C555 C557 1.389 . S
C556 H529 0.950 . S
C556 C542 1.377 . S
C556 C555 1.373 . S
C557 C541 1.377 . S
C557 C555 1.389 . S
C557 C558 1.524 . S
C558 C557 1.524 . S
C558 C559 1.397 . S
C558 C563 1.363 . S
C559 H530 0.950 . S
C559 C558 1.397 . S
C559 C560 1.334 . S
C560 H531 0.950 . S
C560 C559 1.334 . S
C560 C561 1.287 . S
C561 C560 1.287 . S
C561 C562 1.524 . S
C561 H564 0.999 . S
C562 H532 0.950 . S
C562 C561 1.524 . S
C562 C563 1.415 . S
C563 H533 0.950 . S
C563 C558 1.363 . S
C563 C562 1.415 . S
H564 C561 0.999 . S
H565 C546 0.913 . S
H566 C584 0.951 . S
H567 C586 0.951 . S
H568 C588 0.950 . S
H569 C589 0.950 . S
H570 C591 0.950 . S
H571 C594 0.950 . S
H572 C595 0.950 . S
H573 C597 0.950 . S
H574 C598 0.950 . S
H575 C599 0.951 . S
H576 C601 0.951 . S
H577 C603 0.950 . S
H578 C604 0.950 . S
H579 C606 0.950 . S
H580 C609 0.950 . S
H581 C610 0.950 . S
H582 C612 0.950 . S
H583 C613 0.950 . S
C584 H566 0.951 . S
C584 C585 1.366 . S
C584 C586 1.388 . S
C585 C584 1.366 . S
C585 C589 1.385 . S
C586 H567 0.951 . S
C586 C584 1.388 . S
C586 C587 1.366 . S
C587 C586 1.366 . S
C587 C588 1.414 . S
C587 C590 1.499 . S
C588 H568 0.950 . S
C588 C587 1.414 . S
C588 C589 1.374 . S
C589 H569 0.950 . S
C589 C585 1.385 . S
C589 C588 1.374 . S
C590 C587 1.499 . S
C590 C591 1.373 . S
C590 C592 1.389 . S
C591 H570 0.950 . S
C591 C590 1.373 . S
C591 C607 1.377 . S
C592 C590 1.389 . S
C592 C593 1.524 . S
C592 C606 1.377 . S
C593 C592 1.524 . S
C593 C594 1.397 . S
C593 C598 1.363 . S
C594 H571 0.950 . S
C594 C593 1.397 . S
C594 C595 1.334 . S
C595 H572 0.950 . S
C595 C594 1.334 . S
C595 C596 1.287 . S
C596 C595 1.287 . S
C596 C597 1.524 . S
C596 H615 0.913 . S
C597 H573 0.950 . S
C597 C596 1.524 . S
C597 C598 1.415 . S
C598 H574 0.950 . S
C598 C593 1.363 . S
C598 C597 1.415 . S
C599 H575 0.951 . S
C599 C600 1.366 . S
C599 C601 1.388 . S
C600 C599 1.366 . S
C600 C604 1.385 . S
C601 H576 0.951 . S
C601 C599 1.388 . S
C601 C602 1.366 . S
C602 C601 1.366 . S
C602 C603 1.414 . S
C602 C605 1.499 . S
C603 H577 0.950 . S
C603 C602 1.414 . S
C603 C604 1.374 . S
C604 H578 0.950 . S
C604 C600 1.385 . S
C604 C603 1.374 . S
C605 C602 1.499 . S
C605 C606 1.373 . S
C605 C607 1.389 . S
C606 H579 0.950 . S
C606 C592 1.377 . S
C606 C605 1.373 . S
C607 C591 1.377 . S
C607 C605 1.389 . S
C607 C608 1.524 . S
C608 C607 1.524 . S
C608 C609 1.397 . S
C608 C613 1.363 . S
C609 H580 0.950 . S
C609 C608 1.397 . S
C609 C610 1.334 . S
C610 H581 0.950 . S
C610 C609 1.334 . S
C610 C611 1.287 . S
C611 C610 1.287 . S
C611 C612 1.524 . S
C611 H614 0.999 . S
C612 H582 0.950 . S
C612 C611 1.524 . S
C612 C613 1.415 . S
C613 H583 0.950 . S
C613 C608 1.363 . S
C613 C612 1.415 . S
H614 C611 0.999 . S
H615 C596 0.913 . S
H616 C634 0.951 . S
H617 C636 0.951 . S
H618 C638 0.950 . S
H619 C639 0.950 . S
H620 C641 0.950 . S
H621 C644 0.950 . S
H622 C645 0.950 . S
H623 C647 0.950 . S
H624 C648 0.950 . S
H625 C649 0.951 . S
H626 C651 0.951 . S
H627 C653 0.950 . S
H628 C654 0.950 . S
H629 C656 0.950 . S
H630 C659 0.950 . S
H631 C660 0.950 . S
H632 C662 0.950 . S
H633 C663 0.950 . S
C634 H616 0.951 . S
C634 C635 1.366 . S
C634 C636 1.388 . S
C635 C634 1.366 . S
C635 C639 1.385 . S
C636 H617 0.951 . S
C636 C634 1.388 . S
C636 C637 1.366 . S
C637 C636 1.366 . S
C637 C638 1.414 . S
C637 C640 1.499 . S
C638 H618 0.950 . S
C638 C637 1.414 . S
C638 C639 1.374 . S
C639 H619 0.950 . S
C639 C635 1.385 . S
C639 C638 1.374 . S
C640 C637 1.499 . S
C640 C641 1.373 . S
C640 C642 1.389 . S
C641 H620 0.950 . S
C641 C640 1.373 . S
C641 C657 1.377 . S
C642 C640 1.389 . S
C642 C643 1.524 . S
C642 C656 1.377 . S
C643 C642 1.524 . S
C643 C644 1.397 . S
C643 C648 1.363 . S
C644 H621 0.950 . S
C644 C643 1.397 . S
C644 C645 1.334 . S
C645 H622 0.950 . S
C645 C644 1.334 . S
C645 C646 1.287 . S
C646 C645 1.287 . S
C646 C647 1.524 . S
C646 H665 0.913 . S
C647 H623 0.950 . S
C647 C646 1.524 . S
C647 C648 1.415 . S
C648 H624 0.950 . S
C648 C643 1.363 . S
C648 C647 1.415 . S
C649 H625 0.951 . S
C649 C650 1.366 . S
C649 C651 1.388 . S
C650 C649 1.366 . S
C650 C654 1.385 . S
C651 H626 0.951 . S
C651 C649 1.388 . S
C651 C652 1.366 . S
C652 C651 1.366 . S
C652 C653 1.414 . S
C652 C655 1.499 . S
C653 H627 0.950 . S
C653 C652 1.414 . S
C653 C654 1.374 . S
C654 H628 0.950 . S
C654 C650 1.385 . S
C654 C653 1.374 . S
C655 C652 1.499 . S
C655 C656 1.373 . S
C655 C657 1.389 . S
C656 H629 0.950 . S
C656 C642 1.377 . S
C656 C655 1.373 . S
C657 C641 1.377 . S
C657 C655 1.389 . S
C657 C658 1.524 . S
C658 C657 1.524 . S
C658 C659 1.397 . S
C658 C663 1.363 . S
C659 H630 0.950 . S
C659 C658 1.397 . S
C659 C660 1.334 . S
C660 H631 0.950 . S
C660 C659 1.334 . S
C660 C661 1.287 . S
C661 C660 1.287 . S
C661 C662 1.524 . S
C661 H664 0.999 . S
C662 H632 0.950 . S
C662 C661 1.524 . S
C662 C663 1.415 . S
C663 H633 0.950 . S
C663 C658 1.363 . S
C663 C662 1.415 . S
H664 C661 0.999 . S
H665 C646 0.913 . S
H666 C684 0.951 . S
H667 C686 0.951 . S
H668 C688 0.950 . S
H669 C689 0.950 . S
H670 C691 0.950 . S
H671 C694 0.950 . S
H672 C695 0.950 . S
H673 C697 0.950 . S
H674 C698 0.950 . S
H675 C699 0.951 . S
H676 C701 0.951 . S
H677 C703 0.950 . S
H678 C704 0.950 . S
H679 C706 0.950 . S
H680 C709 0.950 . S
H681 C710 0.950 . S
H682 C712 0.950 . S
H683 C713 0.950 . S
C684 H666 0.951 . S
C684 C685 1.366 . S
C684 C686 1.388 . S
C685 C684 1.366 . S
C685 C689 1.385 . S
C686 H667 0.951 . S
C686 C684 1.388 . S
C686 C687 1.366 . S
C687 C686 1.366 . S
C687 C688 1.414 . S
C687 C690 1.499 . S
C688 H668 0.950 . S
C688 C687 1.414 . S
C688 C689 1.374 . S
C689 H669 0.950 . S
C689 C685 1.385 . S
C689 C688 1.374 . S
C690 C687 1.499 . S
C690 C691 1.373 . S
C690 C692 1.389 . S
C691 H670 0.950 . S
C691 C690 1.373 . S
C691 C707 1.377 . S
C692 C690 1.389 . S
C692 C693 1.524 . S
C692 C706 1.377 . S
C693 C692 1.524 . S
C693 C694 1.397 . S
C693 C698 1.363 . S
C694 H671 0.950 . S
C694 C693 1.397 . S
C694 C695 1.334 . S
C695 H672 0.950 . S
C695 C694 1.334 . S
C695 C696 1.287 . S
C696 C695 1.287 . S
C696 C697 1.524 . S
C696 H715 0.913 . S
C697 H673 0.950 . S
C697 C696 1.524 . S
C697 C698 1.415 . S
C698 H674 0.950 . S
C698 C693 1.363 . S
C698 C697 1.415 . S
C699 H675 0.951 . S
C699 C700 1.366 . S
C699 C701 1.388 . S
C700 C699 1.366 . S
C700 C704 1.385 . S
C701 H676 0.951 . S
C701 C699 1.388 . S
C701 C702 1.366 . S
C702 C701 1.366 . S
C702 C703 1.414 . S
C702 C705 1.499 . S
C703 H677 0.950 . S
C703 C702 1.414 . S
C703 C704 1.374 . S
C704 H678 0.950 . S
C704 C700 1.385 . S
C704 C703 1.374 . S
C705 C702 1.499 . S
C705 C706 1.373 . S
C705 C707 1.389 . S
C706 H679 0.950 . S
C706 C692 1.377 . S
C706 C705 1.373 . S
C707 C691 1.377 . S
C707 C705 1.389 . S
C707 C708 1.524 . S
C708 C707 1.524 . S
C708 C709 1.397 . S
C708 C713 1.363 . S
C709 H680 0.950 . S
C709 C708 1.397 . S
C709 C710 1.334 . S
C710 H681 0.950 . S
C710 C709 1.334 . S
C710 C711 1.287 . S
C711 C710 1.287 . S
C711 C712 1.524 . S
C711 H714 0.999 . S
C712 H682 0.950 . S
C712 C711 1.524 . S
C712 C713 1.415 . S
C713 H683 0.950 . S
C713 C708 1.363 . S
C713 C712 1.415 . S
H714 C711 0.999 . S
H715 C696 0.913 . S
H716 C734 0.951 . S
H717 C736 0.951 . S
H718 C738 0.950 . S
H719 C739 0.950 . S
H720 C741 0.950 . S
H721 C744 0.950 . S
H722 C745 0.950 . S
H723 C747 0.950 . S
H724 C748 0.950 . S
H725 C749 0.951 . S
H726 C751 0.951 . S
H727 C753 0.950 . S
H728 C754 0.950 . S
H729 C756 0.950 . S
H730 C759 0.950 . S
H731 C760 0.950 . S
H732 C762 0.950 . S
H733 C763 0.950 . S
C734 H716 0.951 . S
C734 C735 1.366 . S
C734 C736 1.388 . S
C735 C734 1.366 . S
C735 C739 1.385 . S
C736 H717 0.951 . S
C736 C734 1.388 . S
C736 C737 1.366 . S
C737 C736 1.366 . S
C737 C738 1.414 . S
C737 C740 1.499 . S
C738 H718 0.950 . S
C738 C737 1.414 . S
C738 C739 1.374 . S
C739 H719 0.950 . S
C739 C735 1.385 . S
C739 C738 1.374 . S
C740 C737 1.499 . S
C740 C741 1.373 . S
C740 C742 1.389 . S
C741 H720 0.950 . S
C741 C740 1.373 . S
C741 C757 1.377 . S
C742 C740 1.389 . S
C742 C743 1.524 . S
C742 C756 1.377 . S
C743 C742 1.524 . S
C743 C744 1.397 . S
C743 C748 1.363 . S
C744 H721 0.950 . S
C744 C743 1.397 . S
C744 C745 1.334 . S
C745 H722 0.950 . S
C745 C744 1.334 . S
C745 C746 1.287 . S
C746 C745 1.287 . S
C746 C747 1.524 . S
C746 H765 0.913 . S
C747 H723 0.950 . S
C747 C746 1.524 . S
C747 C748 1.415 . S
C748 H724 0.950 . S
C748 C743 1.363 . S
C748 C747 1.415 . S
C749 H725 0.951 . S
C749 C750 1.366 . S
C749 C751 1.388 . S
C750 C749 1.366 . S
C750 C754 1.385 . S
C751 H726 0.951 . S
C751 C749 1.388 . S
C751 C752 1.366 . S
C752 C751 1.366 . S
C752 C753 1.414 . S
C752 C755 1.499 . S
C753 H727 0.950 . S
C753 C752 1.414 . S
C753 C754 1.374 . S
C754 H728 0.950 . S
C754 C750 1.385 . S
C754 C753 1.374 . S
C755 C752 1.499 . S
C755 C756 1.373 . S
C755 C757 1.389 . S
C756 H729 0.950 . S
C756 C742 1.377 . S
C756 C755 1.373 . S
C757 C741 1.377 . S
C757 C755 1.389 . S
C757 C758 1.524 . S
C758 C757 1.524 . S
C758 C759 1.397 . S
C758 C763 1.363 . S
C759 H730 0.950 . S
C759 C758 1.397 . S
C759 C760 1.334 . S
C760 H731 0.950 . S
C760 C759 1.334 . S
C760 C761 1.287 . S
C761 C760 1.287 . S
C761 C762 1.524 . S
C761 H764 0.999 . S
C762 H732 0.950 . S
C762 C761 1.524 . S
C762 C763 1.415 . S
C763 H733 0.950 . S
C763 C758 1.363 . S
C763 C762 1.415 . S
H764 C761 0.999 . S
H765 C746 0.913 . S
H766 C784 0.951 . S
H767 C786 0.951 . S
H768 C788 0.950 . S
H769 C789 0.950 . S
H770 C791 0.950 . S
H771 C794 0.950 . S
H772 C795 0.950 . S
H773 C797 0.950 . S
H774 C798 0.950 . S
H775 C799 0.951 . S
H776 C801 0.951 . S
H777 C803 0.950 . S
H778 C804 0.950 . S
H779 C806 0.950 . S
H780 C809 0.950 . S
H781 C810 0.950 . S
H782 C812 0.950 . S
H783 C813 0.950 . S
C784 H766 0.951 . S
C784 C785 1.366 . S
C784 C786 1.388 . S
C785 C784 1.366 . S
C785 C789 1.385 . S
C786 H767 0.951 . S
C786 C784 1.388 . S
C786 C787 1.366 . S
C787 C786 1.366 . S
C787 C788 1.414 . S
C787 C790 1.499 . S
C788 H768 0.950 . S
C788 C787 1.414 . S
C788 C789 1.374 . S
C789 H769 0.950 . S
C789 C785 1.385 . S
C789 C788 1.374 . S
C790 C787 1.499 . S
C790 C791 1.373 . S
C790 C792 1.389 . S
C791 H770 0.950 . S
C791 C790 1.373 . S
C791 C807 1.377 . S
C792 C790 1.389 . S
C792 C793 1.524 . S
C792 C806 1.377 . S
C793 C792 1.524 . S
C793 C794 1.397 . S
C793 C798 1.363 . S
C794 H771 0.950 . S
C794 C793 1.397 . S
C794 C795 1.334 . S
C795 H772 0.950 . S
C795 C794 1.334 . S
C795 C796 1.287 . S
C796 C795 1.287 . S
C796 C797 1.524 . S
C796 H815 0.913 . S
C797 H773 0.950 . S
C797 C796 1.524 . S
C797 C798 1.415 . S
C798 H774 0.950 . S
C798 C793 1.363 . S
C798 C797 1.415 . S
C799 H775 0.951 . S
C799 C800 1.366 . S
C799 C801 1.388 . S
C800 C799 1.366 . S
C800 C804 1.385 . S
C801 H776 0.951 . S
C801 C799 1.388 . S
C801 C802 1.366 . S
C802 C801 1.366 . S
C802 C803 1.414 . S
C802 C805 1.499 . S
C803 H777 0.950 . S
C803 C802 1.414 . S
C803 C804 1.374 . S
C804 H778 0.950 . S
C804 C800 1.385 . S
C804 C803 1.374 . S
C805 C802 1.499 . S
C805 C806 1.373 . S
C805 C807 1.389 . S
C806 H779 0.950 . S
C806 C792 1.377 . S
C806 C805 1.373 . S
C807 C791 1.377 . S
C807 C805 1.389 . S
C807 C808 1.524 . S
C808 C807 1.524 . S
C808 C809 1.397 . S
C808 C813 1.363 . S
C809 H780 0.950 . S
C809 C808 1.397 . S
C809 C810 1.334 . S
C810 H781 0.950 . S
C810 C809 1.334 . S
C810 C811 1.287 . S
C811 C810 1.287 . S
C811 C812 1.524 . S
C811 H814 0.999 . S
C812 H782 0.950 . S
C812 C811 1.524 . S
C812 C813 1.415 . S
C813 H783 0.950 . S
C813 C808 1.363 . S
C813 C812 1.415 . S
H814 C811 0.999 . S
H815 C796 0.913 . S
H816 C834 0.951 . S
H817 C836 0.951 . S
H818 C838 0.950 . S
H819 C839 0.950 . S
H820 C841 0.950 . S
H821 C844 0.950 . S
H822 C845 0.950 . S
H823 C847 0.950 . S
H824 C848 0.950 . S
H825 C849 0.951 . S
H826 C851 0.951 . S
H827 C853 0.950 . S
H828 C854 0.950 . S
H829 C856 0.950 . S
H830 C859 0.950 . S
H831 C860 0.947 1_554 S
H832 C862 0.950 . S
H833 C863 0.950 . S
C834 H816 0.951 . S
C834 C835 1.366 . S
C834 C836 1.388 . S
C835 C834 1.366 . S
C835 C839 1.385 . S
C836 H817 0.951 . S
C836 C834 1.388 . S
C836 C837 1.366 . S
C837 C836 1.366 . S
C837 C838 1.414 . S
C837 C840 1.499 . S
C838 H818 0.950 . S
C838 C837 1.414 . S
C838 C839 1.374 . S
C839 H819 0.950 . S
C839 C835 1.385 . S
C839 C838 1.374 . S
C840 C837 1.499 . S
C840 C841 1.373 . S
C840 C842 1.389 . S
C841 H820 0.950 . S
C841 C840 1.373 . S
C841 C857 1.377 . S
C842 C840 1.389 . S
C842 C843 1.524 . S
C842 C856 1.377 . S
C843 C842 1.524 . S
C843 C844 1.397 . S
C843 C848 1.363 . S
C844 H821 0.950 . S
C844 C843 1.397 . S
C844 C845 1.334 . S
C845 H822 0.950 . S
C845 C844 1.334 . S
C845 C846 1.287 . S
C846 C845 1.287 . S
C846 C847 1.524 . S
C846 H865 0.913 . S
C847 H823 0.950 . S
C847 C846 1.524 . S
C847 C848 1.415 . S
C848 H824 0.950 . S
C848 C843 1.363 . S
C848 C847 1.415 . S
C849 H825 0.951 . S
C849 C850 1.366 . S
C849 C851 1.388 . S
C850 C849 1.366 . S
C850 C854 1.385 . S
C851 H826 0.951 . S
C851 C849 1.388 . S
C851 C852 1.366 . S
C852 C851 1.366 . S
C852 C853 1.414 . S
C852 C855 1.499 . S
C853 H827 0.950 . S
C853 C852 1.414 . S
C853 C854 1.374 . S
C854 H828 0.950 . S
C854 C850 1.385 . S
C854 C853 1.374 . S
C855 C852 1.499 . S
C855 C856 1.373 . S
C855 C857 1.389 . S
C856 H829 0.950 . S
C856 C842 1.377 . S
C856 C855 1.373 . S
C857 C841 1.377 . S
C857 C855 1.389 . S
C857 C858 1.524 . S
C858 C857 1.524 . S
C858 C859 1.397 . S
C858 C863 1.363 1_554 S
C859 H830 0.950 . S
C859 C858 1.397 . S
C859 C860 1.315 1_554 S
C860 H831 0.947 1_556 S
C860 C859 1.315 1_556 S
C860 C861 1.309 . S
C861 C860 1.309 . S
C861 C862 1.524 . S
C861 H864 0.999 . S
C862 H832 0.950 . S
C862 C861 1.524 . S
C862 C863 1.415 . S
C863 H833 0.950 . S
C863 C858 1.363 1_556 S
C863 C862 1.415 . S
H864 C861 0.999 . S
H865 C846 0.913 . S
H866 C884 0.951 . S
H867 C886 0.951 . S
H868 C888 0.950 . S
H869 C889 0.950 . S
H870 C891 0.950 . S
H871 C894 0.950 . S
H872 C895 0.950 . S
H873 C897 0.950 . S
H874 C898 0.950 . S
H875 C899 0.951 . S
H876 C901 0.951 . S
H877 C903 0.950 . S
H878 C904 0.950 . S
H879 C906 0.950 . S
H880 C909 0.950 . S
H881 C910 0.950 . S
H882 C912 0.950 . S
H883 C913 0.950 . S
C884 H866 0.951 . S
C884 C885 1.366 . S
C884 C886 1.388 . S
C885 C884 1.366 . S
C885 C889 1.385 . S
C886 H867 0.951 . S
C886 C884 1.388 . S
C886 C887 1.366 . S
C887 C886 1.366 . S
C887 C888 1.414 . S
C887 C890 1.499 . S
C888 H868 0.950 . S
C888 C887 1.414 . S
C888 C889 1.374 . S
C889 H869 0.950 . S
C889 C885 1.385 . S
C889 C888 1.374 . S
C890 C887 1.499 . S
C890 C891 1.373 . S
C890 C892 1.389 . S
C891 H870 0.950 . S
C891 C890 1.373 . S
C891 C907 1.377 . S
C892 C890 1.389 . S
C892 C893 1.524 . S
C892 C906 1.377 . S
C893 C892 1.524 . S
C893 C894 1.397 . S
C893 C898 1.363 . S
C894 H871 0.950 . S
C894 C893 1.397 . S
C894 C895 1.334 . S
C895 H872 0.950 . S
C895 C894 1.334 . S
C895 C896 1.287 . S
C896 C895 1.287 . S
C896 C897 1.524 . S
C896 H915 0.913 . S
C897 H873 0.950 . S
C897 C896 1.524 . S
C897 C898 1.415 . S
C898 H874 0.950 . S
C898 C893 1.363 . S
C898 C897 1.415 . S
C899 H875 0.951 . S
C899 C900 1.366 . S
C899 C901 1.388 . S
C900 C899 1.366 . S
C900 C904 1.385 . S
C901 H876 0.951 . S
C901 C899 1.388 . S
C901 C902 1.366 . S
C902 C901 1.366 . S
C902 C903 1.414 . S
C902 C905 1.499 . S
C903 H877 0.950 . S
C903 C902 1.414 . S
C903 C904 1.374 . S
C904 H878 0.950 . S
C904 C900 1.385 . S
C904 C903 1.374 . S
C905 C902 1.499 . S
C905 C906 1.373 . S
C905 C907 1.389 . S
C906 H879 0.950 . S
C906 C892 1.377 . S
C906 C905 1.373 . S
C907 C891 1.377 . S
C907 C905 1.389 . S
C907 C908 1.524 . S
C908 C907 1.524 . S
C908 C909 1.397 . S
C908 C913 1.363 . S
C909 H880 0.950 . S
C909 C908 1.397 . S
C909 C910 1.334 . S
C910 H881 0.950 . S
C910 C909 1.334 . S
C910 C911 1.287 . S
C911 C910 1.287 . S
C911 C912 1.524 . S
C911 H914 0.999 . S
C912 H882 0.950 . S
C912 C911 1.524 . S
C912 C913 1.415 . S
C913 H883 0.950 . S
C913 C908 1.363 . S
C913 C912 1.415 . S
H914 C911 0.999 . S
H915 C896 0.913 . S
H916 C934 0.951 . S
H917 C936 0.951 . S
H918 C938 0.950 . S
H919 C939 0.950 . S
H920 C941 0.950 . S
H921 C944 0.950 . S
H922 C945 0.950 . S
H923 C947 0.950 . S
H924 C948 0.950 . S
H925 C949 0.951 . S
H926 C951 0.951 . S
H927 C953 0.950 . S
H928 C954 0.950 . S
H929 C956 0.950 . S
H930 C959 0.950 . S
H931 C960 0.950 . S
H932 C962 0.950 . S
H933 C963 0.950 . S
C934 H916 0.951 . S
C934 C935 1.366 . S
C934 C936 1.388 . S
C935 C934 1.366 . S
C935 C939 1.385 . S
C936 H917 0.951 . S
C936 C934 1.388 . S
C936 C937 1.366 . S
C937 C936 1.366 . S
C937 C938 1.414 . S
C937 C940 1.499 . S
C938 H918 0.950 . S
C938 C937 1.414 . S
C938 C939 1.374 . S
C939 H919 0.950 . S
C939 C935 1.385 . S
C939 C938 1.374 . S
C940 C937 1.499 . S
C940 C941 1.373 . S
C940 C942 1.389 . S
C941 H920 0.950 . S
C941 C940 1.373 . S
C941 C957 1.377 . S
C942 C940 1.389 . S
C942 C943 1.524 . S
C942 C956 1.377 . S
C943 C942 1.524 . S
C943 C944 1.397 . S
C943 C948 1.363 . S
C944 H921 0.950 . S
C944 C943 1.397 . S
C944 C945 1.334 . S
C945 H922 0.950 . S
C945 C944 1.334 . S
C945 C946 1.287 . S
C946 C945 1.287 . S
C946 C947 1.524 . S
C946 H965 0.913 . S
C947 H923 0.950 . S
C947 C946 1.524 . S
C947 C948 1.415 . S
C948 H924 0.950 . S
C948 C943 1.363 . S
C948 C947 1.415 . S
C949 H925 0.951 . S
C949 C950 1.366 . S
C949 C951 1.388 . S
C950 C949 1.366 . S
C950 C954 1.385 . S
C951 H926 0.951 . S
C951 C949 1.388 . S
C951 C952 1.366 . S
C952 C951 1.366 . S
C952 C953 1.414 . S
C952 C955 1.499 . S
C953 H927 0.950 . S
C953 C952 1.414 . S
C953 C954 1.374 . S
C954 H928 0.950 . S
C954 C950 1.385 . S
C954 C953 1.374 . S
C955 C952 1.499 . S
C955 C956 1.373 . S
C955 C957 1.389 . S
C956 H929 0.950 . S
C956 C942 1.377 . S
C956 C955 1.373 . S
C957 C941 1.377 . S
C957 C955 1.389 . S
C957 C958 1.524 . S
C958 C957 1.524 . S
C958 C959 1.397 . S
C958 C963 1.363 . S
C959 H930 0.950 . S
C959 C958 1.397 . S
C959 C960 1.334 . S
C960 H931 0.950 . S
C960 C959 1.334 . S
C960 C961 1.287 . S
C961 C960 1.287 . S
C961 C962 1.524 . S
C961 H964 0.999 . S
C962 H932 0.950 . S
C962 C961 1.524 . S
C962 C963 1.415 . S
C963 H933 0.950 . S
C963 C958 1.363 . S
C963 C962 1.415 . S
H964 C961 0.999 . S
H965 C946 0.913 . S
H966 C984 0.951 . S
H967 C986 0.951 . S
H968 C988 0.950 . S
H969 C989 0.950 . S
H970 C991 0.950 . S
H971 C994 0.950 . S
H972 C995 0.950 . S
H973 C997 0.950 . S
H974 C998 0.950 . S
H975 C999 0.951 . S
H976 C1001 0.951 . S
H977 C1003 0.950 . S
H978 C1004 0.950 . S
H979 C1006 0.950 . S
H980 C1009 0.950 . S
H981 C1010 0.950 . S
H982 C1012 0.950 . S
H983 C1013 0.950 . S
C984 H966 0.951 . S
C984 C985 1.366 . S
C984 C986 1.388 . S
C985 C984 1.366 . S
C985 C989 1.385 . S
C986 H967 0.951 . S
C986 C984 1.388 . S
C986 C987 1.366 . S
C987 C986 1.366 . S
C987 C988 1.414 . S
C987 C990 1.499 . S
C988 H968 0.950 . S
C988 C987 1.414 . S
C988 C989 1.374 . S
C989 H969 0.950 . S
C989 C985 1.385 . S
C989 C988 1.374 . S
C990 C987 1.499 . S
C990 C991 1.373 . S
C990 C992 1.389 . S
C991 H970 0.950 . S
C991 C990 1.373 . S
C991 C1007 1.377 . S
C992 C990 1.389 . S
C992 C993 1.524 . S
C992 C1006 1.377 . S
C993 C992 1.524 . S
C993 C994 1.397 . S
C993 C998 1.363 . S
C994 H971 0.950 . S
C994 C993 1.397 . S
C994 C995 1.334 . S
C995 H972 0.950 . S
C995 C994 1.334 . S
C995 C996 1.287 . S
C996 C995 1.287 . S
C996 C997 1.524 . S
C996 H1015 0.913 . S
C997 H973 0.950 . S
C997 C996 1.524 . S
C997 C998 1.415 . S
C998 H974 0.950 . S
C998 C993 1.363 . S
C998 C997 1.415 . S
C999 H975 0.951 . S
C999 C1000 1.366 . S
C999 C1001 1.388 . S
C1000 C999 1.366 . S
C1000 C1004 1.385 . S
C1001 H976 0.951 . S
C1001 C999 1.388 . S
C1001 C1002 1.366 . S
C1002 C1001 1.366 . S
C1002 C1003 1.414 . S
C1002 C1005 1.499 . S
C1003 H977 0.950 . S
C1003 C1002 1.414 . S
C1003 C1004 1.374 . S
C1004 H978 0.950 . S
C1004 C1000 1.385 . S
C1004 C1003 1.374 . S
C1005 C1002 1.499 . S
C1005 C1006 1.373 . S
C1005 C1007 1.389 . S
C1006 H979 0.950 . S
C1006 C992 1.377 . S
C1006 C1005 1.373 . S
C1007 C991 1.377 . S
C1007 C1005 1.389 . S
C1007 C1008 1.524 . S
C1008 C1007 1.524 . S
C1008 C1009 1.397 . S
C1008 C1013 1.363 . S
C1009 H980 0.950 . S
C1009 C1008 1.397 . S
C1009 C1010 1.334 . S
C1010 H981 0.950 . S
C1010 C1009 1.334 . S
C1010 C1011 1.287 . S
C1011 C1010 1.287 . S
C1011 C1012 1.524 . S
C1011 H1014 0.999 . S
C1012 H982 0.950 . S
C1012 C1011 1.524 . S
C1012 C1013 1.415 . S
C1013 H983 0.950 . S
C1013 C1008 1.363 . S
C1013 C1012 1.415 . S
H1014 C1011 0.999 . S
H1015 C996 0.913 . S
H1016 C1034 0.951 . S
H1017 C1036 0.951 . S
H1018 C1038 0.950 . S
H1019 C1039 0.950 . S
H1020 C1041 0.950 . S
H1021 C1044 0.950 . S
H1022 C1045 0.950 . S
H1023 C1047 0.950 . S
H1024 C1048 0.950 . S
H1025 C1049 0.951 . S
H1026 C1051 0.951 . S
H1027 C1053 0.950 . S
H1028 C1054 0.950 . S
H1029 C1056 0.950 . S
H1030 C1059 0.950 . S
H1031 C1060 0.950 . S
H1032 C1062 0.950 . S
H1033 C1063 0.950 . S
C1034 H1016 0.951 . S
C1034 C1035 1.366 . S
C1034 C1036 1.388 . S
C1035 C1034 1.366 . S
C1035 C1039 1.385 . S
C1036 H1017 0.951 . S
C1036 C1034 1.388 . S
C1036 C1037 1.366 . S
C1037 C1036 1.366 . S
C1037 C1038 1.414 . S
C1037 C1040 1.499 . S
C1038 H1018 0.950 . S
C1038 C1037 1.414 . S
C1038 C1039 1.374 . S
C1039 H1019 0.950 . S
C1039 C1035 1.385 . S
C1039 C1038 1.374 . S
C1040 C1037 1.499 . S
C1040 C1041 1.373 . S
C1040 C1042 1.389 . S
C1041 H1020 0.950 . S
C1041 C1040 1.373 . S
C1041 C1057 1.377 . S
C1042 C1040 1.389 . S
C1042 C1043 1.524 . S
C1042 C1056 1.377 . S
C1043 C1042 1.524 . S
C1043 C1044 1.397 . S
C1043 C1048 1.363 . S
C1044 H1021 0.950 . S
C1044 C1043 1.397 . S
C1044 C1045 1.334 . S
C1045 H1022 0.950 . S
C1045 C1044 1.334 . S
C1045 C1046 1.287 . S
C1046 C1045 1.287 . S
C1046 C1047 1.524 . S
C1046 H1065 0.913 . S
C1047 H1023 0.950 . S
C1047 C1046 1.524 . S
C1047 C1048 1.415 . S
C1048 H1024 0.950 . S
C1048 C1043 1.363 . S
C1048 C1047 1.415 . S
C1049 H1025 0.951 . S
C1049 C1050 1.366 . S
C1049 C1051 1.388 . S
C1050 C1049 1.366 . S
C1050 C1054 1.385 . S
C1051 H1026 0.951 . S
C1051 C1049 1.388 . S
C1051 C1052 1.366 . S
C1052 C1051 1.366 . S
C1052 C1053 1.414 . S
C1052 C1055 1.499 . S
C1053 H1027 0.950 . S
C1053 C1052 1.414 . S
C1053 C1054 1.374 . S
C1054 H1028 0.950 . S
C1054 C1050 1.385 . S
C1054 C1053 1.374 . S
C1055 C1052 1.499 . S
C1055 C1056 1.373 . S
C1055 C1057 1.389 . S
C1056 H1029 0.950 . S
C1056 C1042 1.377 . S
C1056 C1055 1.373 . S
C1057 C1041 1.377 . S
C1057 C1055 1.389 . S
C1057 C1058 1.524 . S
C1058 C1057 1.524 . S
C1058 C1059 1.397 . S
C1058 C1063 1.363 . S
C1059 H1030 0.950 . S
C1059 C1058 1.397 . S
C1059 C1060 1.334 . S
C1060 H1031 0.950 . S
C1060 C1059 1.334 . S
C1060 C1061 1.287 . S
C1061 C1060 1.287 . S
C1061 C1062 1.524 . S
C1061 H1064 0.999 . S
C1062 H1032 0.950 . S
C1062 C1061 1.524 . S
C1062 C1063 1.415 . S
C1063 H1033 0.950 . S
C1063 C1058 1.363 . S
C1063 C1062 1.415 . S
H1064 C1061 0.999 . S
H1065 C1046 0.913 . S
H1066 C1084 0.951 . S
H1067 C1086 0.951 . S
H1068 C1088 0.950 . S
H1069 C1089 0.950 . S
H1070 C1091 0.950 . S
H1071 C1094 0.950 . S
H1072 C1095 0.950 . S
H1073 C1097 0.950 . S
H1074 C1098 0.950 . S
H1075 C1099 0.951 . S
H1076 C1101 0.951 . S
H1077 C1103 0.950 . S
H1078 C1104 0.950 . S
H1079 C1106 0.950 . S
H1080 C1109 0.950 . S
H1081 C1110 0.950 . S
H1082 C1112 0.950 . S
H1083 C1113 0.950 . S
C1084 H1066 0.951 . S
C1084 C1085 1.366 . S
C1084 C1086 1.388 . S
C1085 C1084 1.366 . S
C1085 C1089 1.385 . S
C1086 H1067 0.951 . S
C1086 C1084 1.388 . S
C1086 C1087 1.366 . S
C1087 C1086 1.366 . S
C1087 C1088 1.414 . S
C1087 C1090 1.499 . S
C1088 H1068 0.950 . S
C1088 C1087 1.414 . S
C1088 C1089 1.374 . S
C1089 H1069 0.950 . S
C1089 C1085 1.385 . S
C1089 C1088 1.374 . S
C1090 C1087 1.499 . S
C1090 C1091 1.373 . S
C1090 C1092 1.389 . S
C1091 H1070 0.950 . S
C1091 C1090 1.373 . S
C1091 C1107 1.377 . S
C1092 C1090 1.389 . S
C1092 C1093 1.524 . S
C1092 C1106 1.377 . S
C1093 C1092 1.524 . S
C1093 C1094 1.397 . S
C1093 C1098 1.363 . S
C1094 H1071 0.950 . S
C1094 C1093 1.397 . S
C1094 C1095 1.334 . S
C1095 H1072 0.950 . S
C1095 C1094 1.334 . S
C1095 C1096 1.287 . S
C1096 C1095 1.287 . S
C1096 C1097 1.524 . S
C1096 H1115 0.913 . S
C1097 H1073 0.950 . S
C1097 C1096 1.524 . S
C1097 C1098 1.415 . S
C1098 H1074 0.950 . S
C1098 C1093 1.363 . S
C1098 C1097 1.415 . S
C1099 H1075 0.951 . S
C1099 C1100 1.366 . S
C1099 C1101 1.388 . S
C1100 C1099 1.366 . S
C1100 C1104 1.385 . S
C1101 H1076 0.951 . S
C1101 C1099 1.388 . S
C1101 C1102 1.366 . S
C1102 C1101 1.366 . S
C1102 C1103 1.414 . S
C1102 C1105 1.499 . S
C1103 H1077 0.950 . S
C1103 C1102 1.414 . S
C1103 C1104 1.374 . S
C1104 H1078 0.950 . S
C1104 C1100 1.385 . S
C1104 C1103 1.374 . S
C1105 C1102 1.499 . S
C1105 C1106 1.373 . S
C1105 C1107 1.389 . S
C1106 H1079 0.950 . S
C1106 C1092 1.377 . S
C1106 C1105 1.373 . S
C1107 C1091 1.377 . S
C1107 C1105 1.389 . S
C1107 C1108 1.524 . S
C1108 C1107 1.524 . S
C1108 C1109 1.397 . S
C1108 C1113 1.363 . S
C1109 H1080 0.950 . S
C1109 C1108 1.397 . S
C1109 C1110 1.334 . S
C1110 H1081 0.950 . S
C1110 C1109 1.334 . S
C1110 C1111 1.287 . S
C1111 C1110 1.287 . S
C1111 C1112 1.524 . S
C1111 H1114 0.999 . S
C1112 H1082 0.950 . S
C1112 C1111 1.524 . S
C1112 C1113 1.415 . S
C1113 H1083 0.950 . S
C1113 C1108 1.363 . S
C1113 C1112 1.415 . S
H1114 C1111 0.999 . S
H1115 C1096 0.913 . S
H1116 C1134 0.951 . S
H1117 C1136 0.951 . S
H1118 C1138 0.950 . S
H1119 C1139 0.950 . S
H1120 C1141 0.950 . S
H1121 C1144 0.950 . S
H1122 C1145 0.950 . S
H1123 C1147 0.950 . S
H1124 C1148 0.950 . S
H1125 C1149 0.951 . S
H1126 C1151 0.951 1_556 S
H1127 C1153 0.946 1_556 S
H1128 C1154 0.950 . S
H1129 C1156 0.950 . S
H1130 C1159 0.950 . S
H1131 C1160 0.950 . S
H1132 C1162 0.950 . S
H1133 C1163 0.950 . S
C1134 H1116 0.951 . S
C1134 C1135 1.366 . S
C1134 C1136 1.388 . S
C1135 C1134 1.366 . S
C1135 C1139 1.385 . S
C1136 H1117 0.951 . S
C1136 C1134 1.388 . S
C1136 C1137 1.366 . S
C1137 C1136 1.366 . S
C1137 C1138 1.414 . S
C1137 C1140 1.499 . S
C1138 H1118 0.950 . S
C1138 C1137 1.414 . S
C1138 C1139 1.374 . S
C1139 H1119 0.950 . S
C1139 C1135 1.385 . S
C1139 C1138 1.374 . S
C1140 C1137 1.499 . S
C1140 C1141 1.373 . S
C1140 C1142 1.389 . S
C1141 H1120 0.950 . S
C1141 C1140 1.373 . S
C1141 C1157 1.377 . S
C1142 C1140 1.389 . S
C1142 C1143 1.524 . S
C1142 C1156 1.377 . S
C1143 C1142 1.524 . S
C1143 C1144 1.397 . S
C1143 C1148 1.363 . S
C1144 H1121 0.950 . S
C1144 C1143 1.397 . S
C1144 C1145 1.334 . S
C1145 H1122 0.950 . S
C1145 C1144 1.334 . S
C1145 C1146 1.287 . S
C1146 C1145 1.287 . S
C1146 C1147 1.524 . S
C1146 H1165 0.913 . S
C1147 H1123 0.950 . S
C1147 C1146 1.524 . S
C1147 C1148 1.415 . S
C1148 H1124 0.950 . S
C1148 C1143 1.363 . S
C1148 C1147 1.415 . S
C1149 H1125 0.951 . S
C1149 C1150 1.366 . S
C1149 C1151 1.388 . S
C1150 C1149 1.366 . S
C1150 C1154 1.385 . S
C1151 H1126 0.951 1_554 S
C1151 C1149 1.388 . S
C1151 C1152 1.366 1_554 S
C1152 C1151 1.366 1_556 S
C1152 C1153 1.410 1_556 S
C1152 C1155 1.499 . S
C1153 H1127 0.946 1_554 S
C1153 C1152 1.410 1_554 S
C1153 C1154 1.382 . S
C1154 H1128 0.950 . S
C1154 C1150 1.385 . S
C1154 C1153 1.382 . S
C1155 C1152 1.499 . S
C1155 C1156 1.373 . S
C1155 C1157 1.389 . S
C1156 H1129 0.950 . S
C1156 C1142 1.377 . S
C1156 C1155 1.373 . S
C1157 C1141 1.377 . S
C1157 C1155 1.389 . S
C1157 C1158 1.524 . S
C1158 C1157 1.524 . S
C1158 C1159 1.397 1_556 S
C1158 C1163 1.363 . S
C1159 H1130 0.950 . S
C1159 C1158 1.397 1_554 S
C1159 C1160 1.334 . S
C1160 H1131 0.950 . S
C1160 C1159 1.334 . S
C1160 C1161 1.287 . S
C1161 C1160 1.287 . S
C1161 C1162 1.524 . S
C1161 H1164 0.999 . S
C1162 H1132 0.950 . S
C1162 C1161 1.524 . S
C1162 C1163 1.415 1_554 S
C1163 H1133 0.950 . S
C1163 C1158 1.363 . S
C1163 C1162 1.415 1_556 S
H1164 C1161 0.999 . S
H1165 C1146 0.913 . S
H1166 C1184 0.951 . S
H1167 C1186 0.951 . S
H1168 C1188 0.950 . S
H1169 C1189 0.950 . S
H1170 C1191 0.950 . S
H1171 C1194 0.950 . S
H1172 C1195 0.950 . S
H1173 C1197 0.950 . S
H1174 C1198 0.950 . S
H1175 C1199 0.951 . S
H1176 C1201 0.951 . S
H1177 C1203 0.950 . S
H1178 C1204 0.950 . S
H1179 C1206 0.950 . S
H1180 C1209 0.950 . S
H1181 C1210 0.950 . S
H1182 C1212 0.950 . S
H1183 C1213 0.950 . S
C1184 H1166 0.951 . S
C1184 C1185 1.366 . S
C1184 C1186 1.388 . S
C1185 C1184 1.366 . S
C1185 C1189 1.385 . S
C1186 H1167 0.951 . S
C1186 C1184 1.388 . S
C1186 C1187 1.366 . S
C1187 C1186 1.366 . S
C1187 C1188 1.414 . S
C1187 C1190 1.499 . S
C1188 H1168 0.950 . S
C1188 C1187 1.414 . S
C1188 C1189 1.374 . S
C1189 H1169 0.950 . S
C1189 C1185 1.385 . S
C1189 C1188 1.374 . S
C1190 C1187 1.499 . S
C1190 C1191 1.373 . S
C1190 C1192 1.389 . S
C1191 H1170 0.950 . S
C1191 C1190 1.373 . S
C1191 C1207 1.377 . S
C1192 C1190 1.389 . S
C1192 C1193 1.524 . S
C1192 C1206 1.377 . S
C1193 C1192 1.524 . S
C1193 C1194 1.397 . S
C1193 C1198 1.363 . S
C1194 H1171 0.950 . S
C1194 C1193 1.397 . S
C1194 C1195 1.334 . S
C1195 H1172 0.950 . S
C1195 C1194 1.334 . S
C1195 C1196 1.287 . S
C1196 C1195 1.287 . S
C1196 C1197 1.524 . S
C1196 H1215 0.913 . S
C1197 H1173 0.950 . S
C1197 C1196 1.524 . S
C1197 C1198 1.415 . S
C1198 H1174 0.950 . S
C1198 C1193 1.363 . S
C1198 C1197 1.415 . S
C1199 H1175 0.951 . S
C1199 C1200 1.366 . S
C1199 C1201 1.388 . S
C1200 C1199 1.366 . S
C1200 C1204 1.385 . S
C1201 H1176 0.951 . S
C1201 C1199 1.388 . S
C1201 C1202 1.366 . S
C1202 C1201 1.366 . S
C1202 C1203 1.414 . S
C1202 C1205 1.499 . S
C1203 H1177 0.950 . S
C1203 C1202 1.414 . S
C1203 C1204 1.374 . S
C1204 H1178 0.950 . S
C1204 C1200 1.385 . S
C1204 C1203 1.374 . S
C1205 C1202 1.499 . S
C1205 C1206 1.373 . S
C1205 C1207 1.389 . S
C1206 H1179 0.950 . S
C1206 C1192 1.377 . S
C1206 C1205 1.373 . S
C1207 C1191 1.377 . S
C1207 C1205 1.389 . S
C1207 C1208 1.524 . S
C1208 C1207 1.524 . S
C1208 C1209 1.397 . S
C1208 C1213 1.363 . S
C1209 H1180 0.950 . S
C1209 C1208 1.397 . S
C1209 C1210 1.334 . S
C1210 H1181 0.950 . S
C1210 C1209 1.334 . S
C1210 C1211 1.287 . S
C1211 C1210 1.287 . S
C1211 C1212 1.524 . S
C1211 H1214 0.999 . S
C1212 H1182 0.950 . S
C1212 C1211 1.524 . S
C1212 C1213 1.415 . S
C1213 H1183 0.950 . S
C1213 C1208 1.363 . S
C1213 C1212 1.415 . S
H1214 C1211 0.999 . S
H1215 C1196 0.913 . S
H1216 C1234 0.951 . S
H1217 C1236 0.951 . S
H1218 C1238 0.950 . S
H1219 C1239 0.950 . S
H1220 C1241 0.950 . S
H1221 C1244 0.950 . S
H1222 C1245 0.950 . S
H1223 C1247 0.950 . S
H1224 C1248 0.950 . S
H1225 C1249 0.951 . S
H1226 C1251 0.951 . S
H1227 C1253 0.950 . S
H1228 C1254 0.950 . S
H1229 C1256 0.950 . S
H1230 C1259 0.950 . S
H1231 C1260 0.950 . S
H1232 C1262 0.950 . S
H1233 C1263 0.950 . S
C1234 H1216 0.951 . S
C1234 C1235 1.366 . S
C1234 C1236 1.388 . S
C1235 C1234 1.366 . S
C1235 C1239 1.385 . S
C1236 H1217 0.951 . S
C1236 C1234 1.388 . S
C1236 C1237 1.366 . S
C1237 C1236 1.366 . S
C1237 C1238 1.414 . S
C1237 C1240 1.499 . S
C1238 H1218 0.950 . S
C1238 C1237 1.414 . S
C1238 C1239 1.374 . S
C1239 H1219 0.950 . S
C1239 C1235 1.385 . S
C1239 C1238 1.374 . S
C1240 C1237 1.499 . S
C1240 C1241 1.373 . S
C1240 C1242 1.389 . S
C1241 H1220 0.950 . S
C1241 C1240 1.373 . S
C1241 C1257 1.377 . S
C1242 C1240 1.389 . S
C1242 C1243 1.524 . S
C1242 C1256 1.377 . S
C1243 C1242 1.524 . S
C1243 C1244 1.397 . S
C1243 C1248 1.363 . S
C1244 H1221 0.950 . S
C1244 C1243 1.397 . S
C1244 C1245 1.334 . S
C1245 H1222 0.950 . S
C1245 C1244 1.334 . S
C1245 C1246 1.287 . S
C1246 C1245 1.287 . S
C1246 C1247 1.524 . S
C1246 H1265 0.913 . S
C1247 H1223 0.950 . S
C1247 C1246 1.524 . S
C1247 C1248 1.415 . S
C1248 H1224 0.950 . S
C1248 C1243 1.363 . S
C1248 C1247 1.415 . S
C1249 H1225 0.951 . S
C1249 C1250 1.366 . S
C1249 C1251 1.388 . S
C1250 C1249 1.366 . S
C1250 C1254 1.385 . S
C1251 H1226 0.951 . S
C1251 C1249 1.388 . S
C1251 C1252 1.366 . S
C1252 C1251 1.366 . S
C1252 C1253 1.414 . S
C1252 C1255 1.499 . S
C1253 H1227 0.950 . S
C1253 C1252 1.414 . S
C1253 C1254 1.374 . S
C1254 H1228 0.950 . S
C1254 C1250 1.385 . S
C1254 C1253 1.374 . S
C1255 C1252 1.499 . S
C1255 C1256 1.373 . S
C1255 C1257 1.389 . S
C1256 H1229 0.950 . S
C1256 C1242 1.377 . S
C1256 C1255 1.373 . S
C1257 C1241 1.377 . S
C1257 C1255 1.389 . S
C1257 C1258 1.524 . S
C1258 C1257 1.524 . S
C1258 C1259 1.397 . S
C1258 C1263 1.363 . S
C1259 H1230 0.950 . S
C1259 C1258 1.397 . S
C1259 C1260 1.334 . S
C1260 H1231 0.950 . S
C1260 C1259 1.334 . S
C1260 C1261 1.287 . S
C1261 C1260 1.287 . S
C1261 C1262 1.524 . S
C1261 H1264 0.999 . S
C1262 H1232 0.950 . S
C1262 C1261 1.524 . S
C1262 C1263 1.415 . S
C1263 H1233 0.950 . S
C1263 C1258 1.363 . S
C1263 C1262 1.415 . S
H1264 C1261 0.999 . S
H1265 C1246 0.913 . S
H1266 C1284 0.951 . S
H1267 C1286 0.951 . S
H1268 C1288 0.950 . S
H1269 C1289 0.950 . S
H1270 C1291 0.950 . S
H1271 C1294 0.950 . S
H1272 C1295 0.950 . S
H1273 C1297 0.950 . S
H1274 C1298 0.950 . S
H1275 C1299 0.951 . S
H1276 C1301 0.951 . S
H1277 C1303 0.950 . S
H1278 C1304 0.950 . S
H1279 C1306 0.950 . S
H1280 C1309 0.950 . S
H1281 C1310 0.950 . S
H1282 C1312 0.950 . S
H1283 C1313 0.950 . S
C1284 H1266 0.951 . S
C1284 C1285 1.366 . S
C1284 C1286 1.388 . S
C1285 C1284 1.366 . S
C1285 C1289 1.385 . S
C1286 H1267 0.951 . S
C1286 C1284 1.388 . S
C1286 C1287 1.366 . S
C1287 C1286 1.366 . S
C1287 C1288 1.414 . S
C1287 C1290 1.499 . S
C1288 H1268 0.950 . S
C1288 C1287 1.414 . S
C1288 C1289 1.374 . S
C1289 H1269 0.950 . S
C1289 C1285 1.385 . S
C1289 C1288 1.374 . S
C1290 C1287 1.499 . S
C1290 C1291 1.373 . S
C1290 C1292 1.389 . S
C1291 H1270 0.950 . S
C1291 C1290 1.373 . S
C1291 C1307 1.377 . S
C1292 C1290 1.389 . S
C1292 C1293 1.524 . S
C1292 C1306 1.377 . S
C1293 C1292 1.524 . S
C1293 C1294 1.397 . S
C1293 C1298 1.363 . S
C1294 H1271 0.950 . S
C1294 C1293 1.397 . S
C1294 C1295 1.334 . S
C1295 H1272 0.950 . S
C1295 C1294 1.334 . S
C1295 C1296 1.287 . S
C1296 C1295 1.287 . S
C1296 C1297 1.524 . S
C1296 H1315 0.913 . S
C1297 H1273 0.950 . S
C1297 C1296 1.524 . S
C1297 C1298 1.415 . S
C1298 H1274 0.950 . S
C1298 C1293 1.363 . S
C1298 C1297 1.415 . S
C1299 H1275 0.951 . S
C1299 C1300 1.366 . S
C1299 C1301 1.388 . S
C1300 C1299 1.366 . S
C1300 C1304 1.385 . S
C1301 H1276 0.951 . S
C1301 C1299 1.388 . S
C1301 C1302 1.366 . S
C1302 C1301 1.366 . S
C1302 C1303 1.414 . S
C1302 C1305 1.499 . S
C1303 H1277 0.950 . S
C1303 C1302 1.414 . S
C1303 C1304 1.374 . S
C1304 H1278 0.950 . S
C1304 C1300 1.385 . S
C1304 C1303 1.374 . S
C1305 C1302 1.499 . S
C1305 C1306 1.373 . S
C1305 C1307 1.389 . S
C1306 H1279 0.950 . S
C1306 C1292 1.377 . S
C1306 C1305 1.373 . S
C1307 C1291 1.377 . S
C1307 C1305 1.389 . S
C1307 C1308 1.524 . S
C1308 C1307 1.524 . S
C1308 C1309 1.397 . S
C1308 C1313 1.363 . S
C1309 H1280 0.950 . S
C1309 C1308 1.397 . S
C1309 C1310 1.334 . S
C1310 H1281 0.950 . S
C1310 C1309 1.334 . S
C1310 C1311 1.287 . S
C1311 C1310 1.287 . S
C1311 C1312 1.524 . S
C1311 H1314 0.999 . S
C1312 H1282 0.950 . S
C1312 C1311 1.524 . S
C1312 C1313 1.415 . S
C1313 H1283 0.950 . S
C1313 C1308 1.363 . S
C1313 C1312 1.415 . S
H1314 C1311 0.999 . S
H1315 C1296 0.913 . S
H1316 C1334 0.951 . S
H1317 C1336 0.951 . S
H1318 C1338 0.950 . S
H1319 C1339 0.950 . S
H1320 C1341 0.950 . S
H1321 C1344 0.950 . S
H1322 C1345 0.950 . S
H1323 C1347 0.950 . S
H1324 C1348 0.950 . S
H1325 C1349 0.951 . S
H1326 C1351 0.951 . S
H1327 C1353 0.950 . S
H1328 C1354 0.950 . S
H1329 C1356 0.950 . S
H1330 C1359 0.950 . S
H1331 C1360 0.950 . S
H1332 C1362 0.950 . S
H1333 C1363 0.950 . S
C1334 H1316 0.951 . S
C1334 C1335 1.366 . S
C1334 C1336 1.388 . S
C1335 C1334 1.366 . S
C1335 C1339 1.385 . S
C1336 H1317 0.951 . S
C1336 C1334 1.388 . S
C1336 C1337 1.366 . S
C1337 C1336 1.366 . S
C1337 C1338 1.414 . S
C1337 C1340 1.499 . S
C1338 H1318 0.950 . S
C1338 C1337 1.414 . S
C1338 C1339 1.374 . S
C1339 H1319 0.950 . S
C1339 C1335 1.385 . S
C1339 C1338 1.374 . S
C1340 C1337 1.499 . S
C1340 C1341 1.373 . S
C1340 C1342 1.389 . S
C1341 H1320 0.950 . S
C1341 C1340 1.373 . S
C1341 C1357 1.377 . S
C1342 C1340 1.389 . S
C1342 C1343 1.524 . S
C1342 C1356 1.377 . S
C1343 C1342 1.524 . S
C1343 C1344 1.397 . S
C1343 C1348 1.363 . S
C1344 H1321 0.950 . S
C1344 C1343 1.397 . S
C1344 C1345 1.334 . S
C1345 H1322 0.950 . S
C1345 C1344 1.334 . S
C1345 C1346 1.287 . S
C1346 C1345 1.287 . S
C1346 C1347 1.524 . S
C1346 H1365 0.913 . S
C1347 H1323 0.950 . S
C1347 C1346 1.524 . S
C1347 C1348 1.415 . S
C1348 H1324 0.950 . S
C1348 C1343 1.363 . S
C1348 C1347 1.415 . S
C1349 H1325 0.951 . S
C1349 C1350 1.366 . S
C1349 C1351 1.388 . S
C1350 C1349 1.366 . S
C1350 C1354 1.385 . S
C1351 H1326 0.951 . S
C1351 C1349 1.388 . S
C1351 C1352 1.366 . S
C1352 C1351 1.366 . S
C1352 C1353 1.414 . S
C1352 C1355 1.499 . S
C1353 H1327 0.950 . S
C1353 C1352 1.414 . S
C1353 C1354 1.374 . S
C1354 H1328 0.950 . S
C1354 C1350 1.385 . S
C1354 C1353 1.374 . S
C1355 C1352 1.499 . S
C1355 C1356 1.373 . S
C1355 C1357 1.389 . S
C1356 H1329 0.950 . S
C1356 C1342 1.377 . S
C1356 C1355 1.373 . S
C1357 C1341 1.377 . S
C1357 C1355 1.389 . S
C1357 C1358 1.524 . S
C1358 C1357 1.524 . S
C1358 C1359 1.397 . S
C1358 C1363 1.363 . S
C1359 H1330 0.950 . S
C1359 C1358 1.397 . S
C1359 C1360 1.334 . S
C1360 H1331 0.950 . S
C1360 C1359 1.334 . S
C1360 C1361 1.287 . S
C1361 C1360 1.287 . S
C1361 C1362 1.524 . S
C1361 H1364 0.999 . S
C1362 H1332 0.950 . S
C1362 C1361 1.524 . S
C1362 C1363 1.415 . S
C1363 H1333 0.950 . S
C1363 C1358 1.363 . S
C1363 C1362 1.415 . S
H1364 C1361 0.999 . S
H1365 C1346 0.913 . S
H1366 C1384 0.951 . S
H1367 C1386 0.951 . S
H1368 C1388 0.950 . S
H1369 C1389 0.950 . S
H1370 C1391 0.950 . S
H1371 C1394 0.950 . S
H1372 C1395 0.950 . S
H1373 C1397 0.950 . S
H1374 C1398 0.950 . S
H1375 C1399 0.951 . S
H1376 C1401 0.951 . S
H1377 C1403 0.950 . S
H1378 C1404 0.950 . S
H1379 C1406 0.950 . S
H1380 C1409 0.950 . S
H1381 C1410 0.950 . S
H1382 C1412 0.950 . S
H1383 C1413 0.950 . S
C1384 H1366 0.951 . S
C1384 C1385 1.366 . S
C1384 C1386 1.388 . S
C1385 C1384 1.366 . S
C1385 C1389 1.385 . S
C1386 H1367 0.951 . S
C1386 C1384 1.388 . S
C1386 C1387 1.366 . S
C1387 C1386 1.366 . S
C1387 C1388 1.414 . S
C1387 C1390 1.499 . S
C1388 H1368 0.950 . S
C1388 C1387 1.414 . S
C1388 C1389 1.374 . S
C1389 H1369 0.950 . S
C1389 C1385 1.385 . S
C1389 C1388 1.374 . S
C1390 C1387 1.499 . S
C1390 C1391 1.373 . S
C1390 C1392 1.389 . S
C1391 H1370 0.950 . S
C1391 C1390 1.373 . S
C1391 C1407 1.377 . S
C1392 C1390 1.389 . S
C1392 C1393 1.524 . S
C1392 C1406 1.377 . S
C1393 C1392 1.524 . S
C1393 C1394 1.397 . S
C1393 C1398 1.363 . S
C1394 H1371 0.950 . S
C1394 C1393 1.397 . S
C1394 C1395 1.334 . S
C1395 H1372 0.950 . S
C1395 C1394 1.334 . S
C1395 C1396 1.287 . S
C1396 C1395 1.287 . S
C1396 C1397 1.524 . S
C1396 H1415 0.913 . S
C1397 H1373 0.950 . S
C1397 C1396 1.524 . S
C1397 C1398 1.415 . S
C1398 H1374 0.950 . S
C1398 C1393 1.363 . S
C1398 C1397 1.415 . S
C1399 H1375 0.951 . S
C1399 C1400 1.366 . S
C1399 C1401 1.388 . S
C1400 C1399 1.366 . S
C1400 C1404 1.385 . S
C1401 H1376 0.951 . S
C1401 C1399 1.388 . S
C1401 C1402 1.366 . S
C1402 C1401 1.366 . S
C1402 C1403 1.414 . S
C1402 C1405 1.499 . S
C1403 H1377 0.950 . S
C1403 C1402 1.414 . S
C1403 C1404 1.374 . S
C1404 H1378 0.950 . S
C1404 C1400 1.385 . S
C1404 C1403 1.374 . S
C1405 C1402 1.499 . S
C1405 C1406 1.373 . S
C1405 C1407 1.389 . S
C1406 H1379 0.950 . S
C1406 C1392 1.377 . S
C1406 C1405 1.373 . S
C1407 C1391 1.377 . S
C1407 C1405 1.389 . S
C1407 C1408 1.524 . S
C1408 C1407 1.524 . S
C1408 C1409 1.397 . S
C1408 C1413 1.363 . S
C1409 H1380 0.950 . S
C1409 C1408 1.397 . S
C1409 C1410 1.334 . S
C1410 H1381 0.950 . S
C1410 C1409 1.334 . S
C1410 C1411 1.287 . S
C1411 C1410 1.287 . S
C1411 C1412 1.524 . S
C1411 H1414 0.999 . S
C1412 H1382 0.950 . S
C1412 C1411 1.524 . S
C1412 C1413 1.415 . S
C1413 H1383 0.950 . S
C1413 C1408 1.363 . S
C1413 C1412 1.415 . S
H1414 C1411 0.999 . S
H1415 C1396 0.913 . S
H1416 C1434 0.951 . S
H1417 C1436 0.951 . S
H1418 C1438 0.950 . S
H1419 C1439 0.950 . S
H1420 C1441 0.950 . S
H1421 C1444 0.950 . S
H1422 C1445 0.950 . S
H1423 C1447 0.950 . S
H1424 C1448 0.950 . S
H1425 C1449 0.951 . S
H1426 C1451 0.951 . S
H1427 C1453 0.950 . S
H1428 C1454 0.950 . S
H1429 C1456 0.950 . S
H1430 C1459 0.950 . S
H1431 C1460 0.950 . S
H1432 C1462 0.950 . S
H1433 C1463 0.950 . S
C1434 H1416 0.951 . S
C1434 C1435 1.366 . S
C1434 C1436 1.388 . S
C1435 C1434 1.366 . S
C1435 C1439 1.385 . S
C1436 H1417 0.951 . S
C1436 C1434 1.388 . S
C1436 C1437 1.366 . S
C1437 C1436 1.366 . S
C1437 C1438 1.414 . S
C1437 C1440 1.499 . S
C1438 H1418 0.950 . S
C1438 C1437 1.414 . S
C1438 C1439 1.374 . S
C1439 H1419 0.950 . S
C1439 C1435 1.385 . S
C1439 C1438 1.374 . S
C1440 C1437 1.499 . S
C1440 C1441 1.373 . S
C1440 C1442 1.389 . S
C1441 H1420 0.950 . S
C1441 C1440 1.373 . S
C1441 C1457 1.377 . S
C1442 C1440 1.389 . S
C1442 C1443 1.524 . S
C1442 C1456 1.377 . S
C1443 C1442 1.524 . S
C1443 C1444 1.397 . S
C1443 C1448 1.363 . S
C1444 H1421 0.950 . S
C1444 C1443 1.397 . S
C1444 C1445 1.334 . S
C1445 H1422 0.950 . S
C1445 C1444 1.334 . S
C1445 C1446 1.287 . S
C1446 C1445 1.287 . S
C1446 C1447 1.524 . S
C1446 H1465 0.913 . S
C1447 H1423 0.950 . S
C1447 C1446 1.524 . S
C1447 C1448 1.415 . S
C1448 H1424 0.950 . S
C1448 C1443 1.363 . S
C1448 C1447 1.415 . S
C1449 H1425 0.951 . S
C1449 C1450 1.366 . S
C1449 C1451 1.388 . S
C1450 C1449 1.366 . S
C1450 C1454 1.385 . S
C1451 H1426 0.951 . S
C1451 C1449 1.388 . S
C1451 C1452 1.366 . S
C1452 C1451 1.366 . S
C1452 C1453 1.414 . S
C1452 C1455 1.499 . S
C1453 H1427 0.950 . S
C1453 C1452 1.414 . S
C1453 C1454 1.374 . S
C1454 H1428 0.950 . S
C1454 C1450 1.385 . S
C1454 C1453 1.374 . S
C1455 C1452 1.499 . S
C1455 C1456 1.373 . S
C1455 C1457 1.389 . S
C1456 H1429 0.950 . S
C1456 C1442 1.377 . S
C1456 C1455 1.373 . S
C1457 C1441 1.377 . S
C1457 C1455 1.389 . S
C1457 C1458 1.524 . S
C1458 C1457 1.524 . S
C1458 C1459 1.397 . S
C1458 C1463 1.363 . S
C1459 H1430 0.950 . S
C1459 C1458 1.397 . S
C1459 C1460 1.334 . S
C1460 H1431 0.950 . S
C1460 C1459 1.334 . S
C1460 C1461 1.287 . S
C1461 C1460 1.287 . S
C1461 C1462 1.524 . S
C1461 H1464 0.999 . S
C1462 H1432 0.950 . S
C1462 C1461 1.524 . S
C1462 C1463 1.415 . S
C1463 H1433 0.950 . S
C1463 C1458 1.363 . S
C1463 C1462 1.415 . S
H1464 C1461 0.999 . S
H1465 C1446 0.913 . S
H1466 C1484 0.951 . S
H1467 C1486 0.951 . S
H1468 C1488 0.950 . S
H1469 C1489 0.950 . S
H1470 C1491 0.950 . S
H1471 C1494 0.950 . S
H1472 C1495 0.950 . S
H1473 C1497 0.950 . S
H1474 C1498 0.956 . S
H1475 C1499 0.951 . S
H1476 C1501 0.951 . S
H1477 C1503 0.950 . S
H1478 C1504 0.950 . S
H1479 C1506 0.950 . S
H1480 C1509 0.950 . S
H1481 C1510 0.950 . S
H1482 C1512 0.950 . S
H1483 C1513 0.950 . S
C1484 H1466 0.951 . S
C1484 C1485 1.366 . S
C1484 C1486 1.388 . S
C1485 C1484 1.366 . S
C1485 C1489 1.385 . S
C1486 H1467 0.951 . S
C1486 C1484 1.388 . S
C1486 C1487 1.366 . S
C1487 C1486 1.366 . S
C1487 C1488 1.414 . S
C1487 C1490 1.499 . S
C1488 H1468 0.950 . S
C1488 C1487 1.414 . S
C1488 C1489 1.374 . S
C1489 H1469 0.950 . S
C1489 C1485 1.385 . S
C1489 C1488 1.374 . S
C1490 C1487 1.499 . S
C1490 C1491 1.373 . S
C1490 C1492 1.389 . S
C1491 H1470 0.950 . S
C1491 C1490 1.373 . S
C1491 C1507 1.377 . S
C1492 C1490 1.389 . S
C1492 C1493 1.524 . S
C1492 C1506 1.377 1_554 S
C1493 C1492 1.524 . S
C1493 C1494 1.397 . S
C1493 C1498 1.363 . S
C1494 H1471 0.950 . S
C1494 C1493 1.397 . S
C1494 C1495 1.334 . S
C1495 H1472 0.950 . S
C1495 C1494 1.334 . S
C1495 C1496 1.280 1_554 S
C1496 C1495 1.280 1_556 S
C1496 C1497 1.525 . S
C1496 H1515 0.917 . S
C1497 H1473 0.950 . S
C1497 C1496 1.525 . S
C1497 C1498 1.415 1_556 S
C1498 H1474 0.956 . S
C1498 C1493 1.363 . S
C1498 C1497 1.415 1_554 S
C1499 H1475 0.951 . S
C1499 C1500 1.366 . S
C1499 C1501 1.388 . S
C1500 C1499 1.366 . S
C1500 C1504 1.385 . S
C1501 H1476 0.951 . S
C1501 C1499 1.388 . S
C1501 C1502 1.366 . S
C1502 C1501 1.366 . S
C1502 C1503 1.414 . S
C1502 C1505 1.499 . S
C1503 H1477 0.950 . S
C1503 C1502 1.414 . S
C1503 C1504 1.374 . S
C1504 H1478 0.950 . S
C1504 C1500 1.385 . S
C1504 C1503 1.374 . S
C1505 C1502 1.499 . S
C1505 C1506 1.373 . S
C1505 C1507 1.389 1_556 S
C1506 H1479 0.950 . S
C1506 C1492 1.377 1_556 S
C1506 C1505 1.373 . S
C1507 C1491 1.377 . S
C1507 C1505 1.389 1_554 S
C1507 C1508 1.524 . S
C1508 C1507 1.524 . S
C1508 C1509 1.397 . S
C1508 C1513 1.363 . S
C1509 H1480 0.950 . S
C1509 C1508 1.397 . S
C1509 C1510 1.334 . S
C1510 H1481 0.950 . S
C1510 C1509 1.334 . S
C1510 C1511 1.287 . S
C1511 C1510 1.287 . S
C1511 C1512 1.524 . S
C1511 H1514 0.999 . S
C1512 H1482 0.950 . S
C1512 C1511 1.524 . S
C1512 C1513 1.415 . S
C1513 H1483 0.950 . S
C1513 C1508 1.363 . S
C1513 C1512 1.415 . S
H1514 C1511 0.999 . S
H1515 C1496 0.917 . S
H1516 C1534 0.951 . S
H1517 C1536 0.951 . S
H1518 C1538 0.950 . S
H1519 C1539 0.950 . S
H1520 C1541 0.950 . S
H1521 C1544 0.950 . S
H1522 C1545 0.950 . S
H1523 C1547 0.950 . S
H1524 C1548 0.950 . S
H1525 C1549 0.951 . S
H1526 C1551 0.951 . S
H1527 C1553 0.950 . S
H1528 C1554 0.950 . S
H1529 C1556 0.950 . S
H1530 C1559 0.950 . S
H1531 C1560 0.950 . S
H1532 C1562 0.950 . S
H1533 C1563 0.950 . S
C1534 H1516 0.951 . S
C1534 C1535 1.366 . S
C1534 C1536 1.388 . S
C1535 C1534 1.366 . S
C1535 C1539 1.385 . S
C1536 H1517 0.951 . S
C1536 C1534 1.388 . S
C1536 C1537 1.366 . S
C1537 C1536 1.366 . S
C1537 C1538 1.414 . S
C1537 C1540 1.499 . S
C1538 H1518 0.950 . S
C1538 C1537 1.414 . S
C1538 C1539 1.374 . S
C1539 H1519 0.950 . S
C1539 C1535 1.385 . S
C1539 C1538 1.374 . S
C1540 C1537 1.499 . S
C1540 C1541 1.373 . S
C1540 C1542 1.389 . S
C1541 H1520 0.950 . S
C1541 C1540 1.373 . S
C1541 C1557 1.377 . S
C1542 C1540 1.389 . S
C1542 C1543 1.524 . S
C1542 C1556 1.377 . S
C1543 C1542 1.524 . S
C1543 C1544 1.397 . S
C1543 C1548 1.363 . S
C1544 H1521 0.950 . S
C1544 C1543 1.397 . S
C1544 C1545 1.334 . S
C1545 H1522 0.950 . S
C1545 C1544 1.334 . S
C1545 C1546 1.287 . S
C1546 C1545 1.287 . S
C1546 C1547 1.524 . S
C1546 H1565 0.913 . S
C1547 H1523 0.950 . S
C1547 C1546 1.524 . S
C1547 C1548 1.415 . S
C1548 H1524 0.950 . S
C1548 C1543 1.363 . S
C1548 C1547 1.415 . S
C1549 H1525 0.951 . S
C1549 C1550 1.366 . S
C1549 C1551 1.388 . S
C1550 C1549 1.366 . S
C1550 C1554 1.385 . S
C1551 H1526 0.951 . S
C1551 C1549 1.388 . S
C1551 C1552 1.366 . S
C1552 C1551 1.366 . S
C1552 C1553 1.414 . S
C1552 C1555 1.499 . S
C1553 H1527 0.950 . S
C1553 C1552 1.414 . S
C1553 C1554 1.374 . S
C1554 H1528 0.950 . S
C1554 C1550 1.385 . S
C1554 C1553 1.374 . S
C1555 C1552 1.499 . S
C1555 C1556 1.373 . S
C1555 C1557 1.389 . S
C1556 H1529 0.950 . S
C1556 C1542 1.377 . S
C1556 C1555 1.373 . S
C1557 C1541 1.377 . S
C1557 C1555 1.389 . S
C1557 C1558 1.524 . S
C1558 C1557 1.524 . S
C1558 C1559 1.397 . S
C1558 C1563 1.363 . S
C1559 H1530 0.950 . S
C1559 C1558 1.397 . S
C1559 C1560 1.334 . S
C1560 H1531 0.950 . S
C1560 C1559 1.334 . S
C1560 C1561 1.287 . S
C1561 C1560 1.287 . S
C1561 C1562 1.524 . S
C1561 H1564 0.999 . S
C1562 H1532 0.950 . S
C1562 C1561 1.524 . S
C1562 C1563 1.415 . S
C1563 H1533 0.950 . S
C1563 C1558 1.363 . S
C1563 C1562 1.415 . S
H1564 C1561 0.999 . S
H1565 C1546 0.913 . S
C400 C363 1.570 . S
C385 C45 1.569 . S
C435 C84 1.540 . S
C450 C288 1.485 . S
C485 C126 1.553 . S
C500 C311 1.595 . S
C535 C189 1.435 . S
C550 C324 1.433 . S
C600 C327 1.530 . S
C585 C228 1.584 . S
C635 C270 1.438 . S
C650 C340 1.419 . S
C685 C69 1.453 . S
C700 C301 1.419 . S
C735 C141 1.590 . S
C750 C314 1.528 . S
C785 C174 1.414 . S
C800 C337 1.435 . S
C850 C350 1.594 . S
C835 C213 1.568 . S
C900 C353 1.483 . S
C885 C285 1.545 . S
C950 C298 1.572 . S
C935 C30 1.536 . S
C985 C36 1.463 . S
C1000 C309 1.428 . S
C1035 C93 1.446 . S
C1050 C322 1.415 . S
C1100 C332 1.449 . S
C1085 C117 1.490 . S
C1135 C180 1.456 . S
C1150 C345 1.412 . S
C1200 C361 1.459 . S
C1185 C237 1.496 . S
C1250 C293 1.409 . S
C1235 C261 1.448 . S
C1300 C358 1.407 . S
C1285 C78 1.442 . S
C1335 C132 1.500 . S
C1350 C296 1.463 . S
C1400 C306 1.411 . S
C1385 C165 1.449 . S
C1435 C222 1.484 . S
C1450 C319 1.447 . S
C1485 C276 1.451 . S
C1500 C335 1.417 . S
C1535 C21 1.459 . S
C1550 C348 1.426 . S
