# Generated by pormake.
# Topology hwx, (6,3)-cn, num edge types: 1
# Building blocks:
#     Node 0, Type 0, BuildingBlock: IZENUY_clean_sbu_0, # of connection points: 6
#     Node 1, Type 0, BuildingBlock: IZENUY_clean_sbu_0, # of connection points: 6
#     Node 2, Type 0, BuildingBlock: IZENUY_clean_sbu_0, # of connection points: 6
#     Node 3, Type 0, BuildingBlock: IZENUY_clean_sbu_0, # of connection points: 6
#     Node 4, Type 1, BuildingBlock: KAKCAD_clean_linker_0, # of connection points: 3
#     Node 5, Type 1, BuildingBlock: KAKCAD_clean_linker_0, # of connection points: 3
#     Node 6, Type 1, BuildingBlock: KAKCAD_clean_linker_0, # of connection points: 3
#     Node 7, Type 1, BuildingBlock: KAKCAD_clean_linker_0, # of connection points: 3
#     Node 8, Type 1, BuildingBlock: KAKCAD_clean_linker_0, # of connection points: 3
#     Node 9, Type 1, BuildingBlock: KAKCAD_clean_linker_0, # of connection points: 3
#     Node 10, Type 1, BuildingBlock: KAKCAD_clean_linker_0, # of connection points: 3
#     Node 11, Type 1, BuildingBlock: KAKCAD_clean_linker_0, # of connection points: 3
#     Edge 12, Type (0, 1), BuildingBlock: XIVTED_clean_linker_0, # of connection points: 2
#     Edge 13, Type (0, 1), BuildingBlock: XIVTED_clean_linker_0, # of connection points: 2
#     Edge 14, Type (0, 1), BuildingBlock: XIVTED_clean_linker_0, # of connection points: 2
#     Edge 15, Type (0, 1), BuildingBlock: XIVTED_clean_linker_0, # of connection points: 2
#     Edge 16, Type (0, 1), BuildingBlock: XIVTED_clean_linker_0, # of connection points: 2
#     Edge 17, Type (0, 1), BuildingBlock: XIVTED_clean_linker_0, # of connection points: 2
#     Edge 18, Type (0, 1), BuildingBlock: XIVTED_clean_linker_0, # of connection points: 2
#     Edge 19, Type (0, 1), BuildingBlock: XIVTED_clean_linker_0, # of connection points: 2
#     Edge 20, Type (0, 1), BuildingBlock: XIVTED_clean_linker_0, # of connection points: 2
#     Edge 21, Type (0, 1), BuildingBlock: XIVTED_clean_linker_0, # of connection points: 2
#     Edge 22, Type (0, 1), BuildingBlock: XIVTED_clean_linker_0, # of connection points: 2
#     Edge 23, Type (0, 1), BuildingBlock: XIVTED_clean_linker_0, # of connection points: 2
#     Edge 24, Type (0, 1), BuildingBlock: XIVTED_clean_linker_0, # of connection points: 2
#     Edge 25, Type (0, 1), BuildingBlock: XIVTED_clean_linker_0, # of connection points: 2
#     Edge 26, Type (0, 1), BuildingBlock: XIVTED_clean_linker_0, # of connection points: 2
#     Edge 27, Type (0, 1), BuildingBlock: XIVTED_clean_linker_0, # of connection points: 2
#     Edge 28, Type (0, 1), BuildingBlock: XIVTED_clean_linker_0, # of connection points: 2
#     Edge 29, Type (0, 1), BuildingBlock: XIVTED_clean_linker_0, # of connection points: 2
#     Edge 30, Type (0, 1), BuildingBlock: XIVTED_clean_linker_0, # of connection points: 2
#     Edge 31, Type (0, 1), BuildingBlock: XIVTED_clean_linker_0, # of connection points: 2
#     Edge 32, Type (0, 1), BuildingBlock: XIVTED_clean_linker_0, # of connection points: 2
#     Edge 33, Type (0, 1), BuildingBlock: XIVTED_clean_linker_0, # of connection points: 2
#     Edge 34, Type (0, 1), BuildingBlock: XIVTED_clean_linker_0, # of connection points: 2
#     Edge 35, Type (0, 1), BuildingBlock: XIVTED_clean_linker_0, # of connection points: 2
# Relax obj value: 0.051
# Max RMSD: 0.075
# Mean RMSD: 0.067
data_MOF--net-hwx--node1-IZENUY_clean_sbu_0--node2-KAKCAD_clean_linker_0--edge1-XIVTED_clean_linker_0
_symmetry_space_group_name_H-M    P1
_symmetry_Int_Tables_number       1
_symmetry_cell_setting            triclinic
loop_
_symmetry_equiv_pos_as_xyz
'x, y, z'
_cell_length_a     58.27478
_cell_length_b     58.193303
_cell_length_c     28.176762
_cell_angle_alpha  89.788543
_cell_angle_beta   90.074645
_cell_angle_gamma 89.992933
loop_
_atom_site_label
_atom_site_type_symbol
_atom_site_fract_x
_atom_site_fract_y
_atom_site_fract_z
_atom_type_partial_charge
Fe0 Fe 0.24317 0.20632 0.05485 0.0
Fe1 Fe 0.23977 0.20787 0.94644 0.0
O2 O 0.23445 0.1935 0.00089 0.0
Fe3 Fe 0.22027 0.1665 0.00115 0.0
O4 O 0.19714 0.17726 0.03823 0.0
O5 O 0.21937 0.19476 0.08971 0.0
O6 O 0.22552 0.23163 0.04383 0.0
C7 C 0.22751 0.24424 0.00756 0.0
C8 C 0.25452 0.1615 0.07261 0.0
O9 O 0.23744 0.23687 0.97079 0.0
C10 C 0.24832 0.16131 0.9242 0.0
O11 O 0.26882 0.21994 0.02974 0.0
O12 O 0.27049 0.20745 0.95614 0.0
O13 O 0.23603 0.15517 0.05279 0.0
O14 O 0.26126 0.18205 0.06981 0.0
C15 C 0.19626 0.19217 0.93109 0.0
O16 O 0.24322 0.18157 0.91169 0.0
O17 O 0.24234 0.15367 0.96426 0.0
C18 C 0.28012 0.21568 0.99242 0.0
O19 O 0.20939 0.20935 0.93345 0.0
O20 O 0.20199 0.17309 0.94952 0.0
C21 C 0.20007 0.18656 0.07815 0.0
Fe22 Fe 0.2563 0.70308 0.56893 0.0
Fe23 Fe 0.27699 0.66126 0.518 0.0
O24 O 0.26385 0.68873 0.51595 0.0
Fe25 Fe 0.25827 0.70201 0.4606 0.0
O26 O 0.2617 0.73148 0.48213 0.0
O27 O 0.2747 0.72741 0.55471 0.0
O28 O 0.28022 0.6915 0.60372 0.0
C29 C 0.29918 0.68294 0.59091 0.0
C30 C 0.21891 0.71262 0.50719 0.0
O31 O 0.30091 0.67201 0.55255 0.0
C32 C 0.24844 0.65523 0.44256 0.0
O33 O 0.23746 0.67982 0.58673 0.0
O34 O 0.26153 0.65169 0.57132 0.0
O35 O 0.22762 0.70249 0.47201 0.0
O36 O 0.23094 0.71727 0.54342 0.0
C37 C 0.30106 0.68468 0.4449 0.0
O38 O 0.25396 0.64844 0.4835 0.0
O39 O 0.25391 0.67511 0.42835 0.0
C40 C 0.24326 0.65899 0.59039 0.0
O41 O 0.29485 0.66613 0.46495 0.0
O42 O 0.28851 0.70234 0.44631 0.0
C43 C 0.27245 0.73934 0.51755 0.0
Fe44 Fe 0.75886 0.79978 0.93437 0.0
Fe45 Fe 0.75663 0.80214 0.04274 0.0
O46 O 0.76462 0.81465 0.98787 0.0
Fe47 Fe 0.77816 0.84197 0.98649 0.0
O48 O 0.76491 0.85093 0.93023 0.0
O49 O 0.74091 0.82301 0.91262 0.0
O50 O 0.73252 0.78581 0.95593 0.0
C51 C 0.71922 0.79104 0.98971 0.0
C52 C 0.80263 0.81936 0.91834 0.0
O53 O 0.7267 0.80147 0.02561 0.0
C54 C 0.79849 0.81977 0.06618 0.0
O55 O 0.7765 0.77557 0.95262 0.0
O56 O 0.76123 0.77237 0.02353 0.0
O57 O 0.8032 0.83047 0.95665 0.0
O58 O 0.78406 0.81087 0.90306 0.0
C59 C 0.74569 0.849 0.05509 0.0
O60 O 0.78596 0.80215 0.06367 0.0
O61 O 0.79378 0.83778 0.04262 0.0
C62 C 0.77308 0.76412 0.99003 0.0
O63 O 0.75053 0.82944 0.07199 0.0
O64 O 0.75406 0.85557 0.01612 0.0
C65 C 0.74718 0.8437 0.90885 0.0
Fe66 Fe 0.72023 0.34039 0.49873 0.0
Fe67 Fe 0.73718 0.29716 0.55096 0.0
O68 O 0.73215 0.31234 0.49728 0.0
Fe69 Fe 0.73894 0.29939 0.44221 0.0
O70 O 0.75876 0.32222 0.42722 0.0
O71 O 0.73585 0.35076 0.44612 0.0
O72 O 0.7439 0.35115 0.53411 0.0
C73 C 0.74996 0.34289 0.57362 0.0
C74 C 0.69715 0.32274 0.42277 0.0
O75 O 0.74384 0.32286 0.58594 0.0
C76 C 0.72051 0.26262 0.48931 0.0
O77 O 0.70251 0.33514 0.55167 0.0
O78 O 0.70713 0.29835 0.56665 0.0
O79 O 0.71557 0.31329 0.4093 0.0
O80 O 0.69566 0.33166 0.46337 0.0
C81 C 0.77587 0.28616 0.5017 0.0
O82 O 0.73146 0.26872 0.52597 0.0
O83 O 0.71954 0.27553 0.45329 0.0
C84 C 0.69569 0.31661 0.57075 0.0
O85 O 0.76759 0.29477 0.5389 0.0
O86 O 0.76371 0.28335 0.46494 0.0
C87 C 0.75359 0.34323 0.42532 0.0
C88 C 0.16274 0.53856 0.83855 0.0
C89 C 0.17394 0.55993 0.84007 0.0
C90 C 0.15951 0.52572 0.88029 0.0
C91 C 0.16781 0.53386 0.92412 0.0
C92 C 0.17921 0.55521 0.92495 0.0
C93 C 0.18198 0.56813 0.88371 0.0
C94 C 0.16606 0.51998 0.96873 0.0
C95 C 0.16869 0.49593 0.96838 0.0
C96 C 0.17148 0.48369 0.01113 0.0
C97 C 0.17208 0.49563 0.05432 0.0
C98 C 0.16915 0.51955 0.05546 0.0
C99 C 0.16475 0.53125 0.01273 0.0
C100 C 0.17408 0.53272 0.09958 0.0
C101 C 0.1687 0.52394 0.14487 0.0
C102 C 0.18614 0.5536 0.09649 0.0
C103 C 0.19314 0.56506 0.13722 0.0
C104 C 0.18878 0.5558 0.18241 0.0
C105 C 0.1762 0.45873 0.01068 0.0
C106 C 0.16079 0.44335 0.98933 0.0
C107 C 0.19614 0.45015 0.03243 0.0
C108 C 0.20069 0.42662 0.03267 0.0
C109 C 0.18521 0.41116 0.01181 0.0
C110 C 0.16514 0.41969 0.99035 0.0
C111 C 0.17601 0.53536 0.18593 0.0
H112 H 0.15644 0.53186 0.80517 0.0
H113 H 0.15059 0.50944 0.87814 0.0
H114 H 0.18673 0.56182 0.95729 0.0
H115 H 0.19118 0.58429 0.88573 0.0
H116 H 0.17009 0.48682 0.93504 0.0
H117 H 0.16155 0.54957 0.0136 0.0
H118 H 0.17583 0.48629 0.08676 0.0
H119 H 0.15922 0.50803 0.14863 0.0
H120 H 0.19108 0.56081 0.06253 0.0
H121 H 0.20242 0.58107 0.13314 0.0
H122 H 0.14528 0.44963 0.97248 0.0
H123 H 0.20833 0.46172 0.04889 0.0
H124 H 0.17232 0.52781 0.22026 0.0
H125 H 0.15305 0.40809 0.97373 0.0
H126 H 0.21624 0.42045 0.04955 0.0
C127 C 0.9337 0.81473 0.32626 0.0
C128 C 0.91456 0.82932 0.32711 0.0
C129 C 0.94819 0.81314 0.36568 0.0
C130 C 0.94406 0.82645 0.40647 0.0
C131 C 0.9255 0.84195 0.40601 0.0
C132 C 0.91075 0.84315 0.36697 0.0
C133 C 0.95802 0.82296 0.45031 0.0
C134 C 0.98141 0.8171 0.4475 0.0
C135 C 0.99398 0.81131 0.48848 0.0
C136 C 0.98309 0.81229 0.53292 0.0
C137 C 0.96001 0.81881 0.53661 0.0
C138 C 0.94758 0.82393 0.49524 0.0
C139 C 0.94842 0.81916 0.58343 0.0
C140 C 0.95092 0.80067 0.61524 0.0
C141 C 0.93408 0.83759 0.59581 0.0
C142 C 0.92202 0.83728 0.63863 0.0
C143 C 0.92391 0.81843 0.66972 0.0
C144 C 0.01809 0.80306 0.48484 0.0
C145 C 0.02481 0.78858 0.44748 0.0
C146 C 0.03431 0.80867 0.51991 0.0
C147 C 0.05639 0.79942 0.51858 0.0
C148 C 0.063 0.78458 0.48171 0.0
C149 C 0.04702 0.77958 0.44578 0.0
C150 C 0.93871 0.80027 0.65788 0.0
H151 H 0.93682 0.80375 0.29597 0.0
H152 H 0.96201 0.80073 0.36479 0.0
H153 H 0.92206 0.8529 0.43617 0.0
H154 H 0.89615 0.85468 0.36812 0.0
H155 H 0.98985 0.81697 0.41329 0.0
H156 H 0.92941 0.82763 0.49812 0.0
H157 H 0.99243 0.8076 0.56478 0.0
H158 H 0.96174 0.78616 0.60647 0.0
H159 H 0.932 0.85214 0.5721 0.0
H160 H 0.91057 0.85141 0.64657 0.0
H161 H 0.01274 0.78365 0.42009 0.0
H162 H 0.02989 0.82005 0.54882 0.0
H163 H 0.94061 0.7856 0.68132 0.0
H164 H 0.05156 0.76855 0.41639 0.0
H165 H 0.06806 0.80349 0.54727 0.0
C166 C 0.80151 0.46666 0.1636 0.0
C167 C 0.81445 0.4466 0.17163 0.0
C168 C 0.80471 0.47973 0.12251 0.0
C169 C 0.82078 0.473 0.08817 0.0
C170 C 0.83412 0.45329 0.09648 0.0
C171 C 0.83109 0.4403 0.13789 0.0
C172 C 0.82237 0.48576 0.04258 0.0
C173 C 0.82234 0.50988 0.04207 0.0
C174 C 0.82082 0.5222 0.99911 0.0
C175 C 0.81996 0.5099 0.95621 0.0
C176 C 0.82044 0.48574 0.95602 0.0
C177 C 0.82178 0.47384 0.99941 0.0
C178 C 0.81776 0.47281 0.91097 0.0
C179 C 0.80131 0.4796 0.87719 0.0
C180 C 0.83073 0.45287 0.90256 0.0
C181 C 0.82686 0.43966 0.862 0.0
C182 C 0.80991 0.44607 0.82894 0.0
C183 C 0.81856 0.54774 0.99926 0.0
C184 C 0.80605 0.55876 0.03525 0.0
C185 C 0.82809 0.56127 0.96276 0.0
C186 C 0.82466 0.58507 0.96166 0.0
C187 C 0.81185 0.596 0.99735 0.0
C188 C 0.80296 0.58253 0.03458 0.0
C189 C 0.79743 0.4664 0.83665 0.0
H190 H 0.78822 0.47186 0.18815 0.0
H191 H 0.7939 0.49464 0.11673 0.0
H192 H 0.84678 0.44783 0.07075 0.0
H193 H 0.84167 0.42521 0.1432 0.0
H194 H 0.82328 0.519 0.07546 0.0
H195 H 0.82101 0.45523 -0.00027 0.0
H196 H 0.8183 0.51907 0.92287 0.0
H197 H 0.79077 0.49467 0.88294 0.0
H198 H 0.84375 0.44736 0.92761 0.0
H199 H 0.83703 0.4243 0.85674 0.0
H200 H 0.79809 0.54902 0.0636 0.0
H201 H 0.83813 0.55349 0.93479 0.0
H202 H 0.78401 0.47165 0.81231 0.0
H203 H 0.79344 0.59029 0.06334 0.0
H204 H 0.83164 0.59477 0.93218 0.0
C205 C 0.05516 0.18195 0.67742 0.0
C206 C 0.0758 0.19441 0.68009 0.0
C207 C 0.04287 0.18091 0.63477 0.0
C208 C 0.05114 0.19211 0.59395 0.0
C209 C 0.07157 0.20482 0.5969 0.0
C210 C 0.08374 0.20597 0.63943 0.0
C211 C 0.03883 0.19034 0.54802 0.0
C212 C 0.01508 0.19396 0.54538 0.0
C213 C 0.00352 0.19351 0.50138 0.0
C214 C 0.01626 0.18906 0.45986 0.0
C215 C 0.04014 0.18617 0.46199 0.0
C216 C 0.05116 0.18635 0.50623 0.0
C217 C 0.05411 0.1851 0.41814 0.0
C218 C 0.04847 0.17028 0.38061 0.0
C219 C 0.07359 0.19915 0.4141 0.0
C220 C 0.08762 0.19787 0.37431 0.0
C221 C 0.08264 0.18243 0.33751 0.0
C222 C 0.9787 0.19975 0.49867 0.0
C223 C 0.96371 0.19467 0.53641 0.0
C224 C 0.97008 0.21222 0.45966 0.0
C225 C 0.9474 0.2199 0.459 0.0
C226 C 0.9328 0.21598 0.49793 0.0
C227 C 0.9412 0.20293 0.53636 0.0
C228 C 0.06267 0.16892 0.34056 0.0
H229 H 0.04855 0.173 0.70826 0.0
H230 H 0.02717 0.17096 0.63342 0.0
H231 H 0.07819 0.21388 0.56618 0.0
H232 H 0.09972 0.21548 0.64011 0.0
H233 H 0.00591 0.19833 0.57751 0.0
H234 H 0.06956 0.18366 0.50804 0.0
H235 H 0.00785 0.18873 0.42559 0.0
H236 H 0.03347 0.15933 0.38284 0.0
H237 H 0.07802 0.21119 0.44189 0.0
H238 H 0.10249 0.20901 0.37247 0.0
H239 H 0.96944 0.18466 0.56664 0.0
H240 H 0.98098 0.21682 0.43005 0.0
H241 H 0.0584 0.15686 0.31272 0.0
H242 H 0.9307 0.1996 0.56727 0.0
H243 H 0.94151 0.22925 0.42802 0.0
C244 C 0.67431 0.96456 0.65191 0.0
C245 C 0.68685 0.94396 0.64958 0.0
C246 C 0.67066 0.9778 0.61088 0.0
C247 C 0.67977 0.9708 0.56698 0.0
C248 C 0.69275 0.95041 0.56534 0.0
C249 C 0.69605 0.9371 0.60593 0.0
C250 C 0.6763 0.98457 0.52278 0.0
C251 C 0.67702 0.00872 0.52324 0.0
C252 C 0.67629 0.02136 0.48053 0.0
C253 C 0.67527 0.00954 0.43708 0.0
C254 C 0.67457 0.98544 0.43596 0.0
C255 C 0.67403 0.97328 0.47907 0.0
C256 C 0.67638 0.97271 0.39033 0.0
C257 C 0.66597 0.98084 0.34832 0.0
C258 C 0.6894 0.95236 0.38842 0.0
C259 C 0.69151 0.9402 0.34626 0.0
C260 C 0.68109 0.94825 0.30455 0.0
C261 C 0.67784 0.04686 0.48108 0.0
C262 C 0.66543 0.05974 0.51446 0.0
C263 C 0.69184 0.05851 0.44826 0.0
C264 C 0.69339 0.08245 0.44878 0.0
C265 C 0.68106 0.09534 0.48223 0.0
C266 C 0.66703 0.08372 0.51504 0.0
C267 C 0.66848 0.96879 0.30563 0.0
H268 H 0.66707 0.97023 0.68526 0.0
H269 H 0.66052 0.99333 0.61348 0.0
H270 H 0.70075 0.9448 0.5327 0.0
H271 H 0.70625 0.92158 0.60335 0.0
H272 H 0.67924 0.01768 0.55656 0.0
H273 H 0.6724 0.95474 0.47854 0.0
H274 H 0.67557 0.01914 0.40409 0.0
H275 H 0.65573 0.99636 0.34845 0.0
H276 H 0.69837 0.94592 0.4194 0.0
H277 H 0.70172 0.92463 0.34604 0.0
H278 H 0.65429 0.05129 0.53985 0.0
H279 H 0.70198 0.0491 0.42268 0.0
H280 H 0.66033 0.97529 0.27372 0.0
H281 H 0.65712 0.09317 0.54095 0.0
H282 H 0.70471 0.09082 0.42364 0.0
C283 C 0.55973 0.32536 0.16937 0.0
C284 C 0.57717 0.34201 0.17072 0.0
C285 C 0.54586 0.32312 0.12913 0.0
C286 C 0.54909 0.33755 0.08952 0.0
C287 C 0.56555 0.35515 0.09223 0.0
C288 C 0.57947 0.35732 0.13234 0.0
C289 C 0.53697 0.33279 0.04414 0.0
C290 C 0.51388 0.32581 0.04385 0.0
C291 C 0.5032 0.31866 0.00155 0.0
C292 C 0.51586 0.31923 0.95908 0.0
C293 C 0.53875 0.32669 0.95849 0.0
C294 C 0.54916 0.33339 0.00116 0.0
C295 C 0.55219 0.32637 0.91373 0.0
C296 C 0.55051 0.30767 0.88247 0.0
C297 C 0.56717 0.3445 0.90246 0.0
C298 C 0.58041 0.3438 0.86118 0.0
C299 C 0.57898 0.32494 0.83027 0.0
C300 C 0.47937 0.3093 0.00185 0.0
C301 C 0.47136 0.29627 0.04057 0.0
C302 C 0.46484 0.31223 0.96237 0.0
C303 C 0.44339 0.30158 0.96071 0.0
C304 C 0.43553 0.28818 0.99907 0.0
C305 C 0.44965 0.28612 0.03944 0.0
C306 C 0.56373 0.30698 0.8412 0.0
H307 H 0.55767 0.31319 0.19823 0.0
H308 H 0.5335 0.30923 0.12808 0.0
H309 H 0.56815 0.36684 0.06271 0.0
H310 H 0.59253 0.37056 0.13275 0.0
H311 H 0.50432 0.32586 0.07678 0.0
H312 H 0.56719 0.33797 0.00121 0.0
H313 H 0.5081 0.31343 0.92632 0.0
H314 H 0.53934 0.29329 0.89037 0.0
H315 H 0.56869 0.35924 0.92563 0.0
H316 H 0.59217 0.35781 0.8541 0.0
H317 H 0.48203 0.29332 0.07146 0.0
H318 H 0.47008 0.32255 0.93224 0.0
H319 H 0.56203 0.29232 0.8179 0.0
H320 H 0.4441 0.2765 0.07029 0.0
H321 H 0.43328 0.30348 0.9287 0.0
C322 C 0.30028 0.03758 0.33614 0.0
C323 C 0.31353 0.05746 0.3283 0.0
C324 C 0.30349 0.0242 0.37686 0.0
C325 C 0.31986 0.03047 0.41106 0.0
C326 C 0.33354 0.04995 0.40288 0.0
C327 C 0.33054 0.0632 0.36181 0.0
C328 C 0.32133 0.01763 0.45656 0.0
C329 C 0.32133 0.9935 0.45701 0.0
C330 C 0.31988 0.98118 0.5 0.0
C331 C 0.31883 0.99348 0.54285 0.0
C332 C 0.31914 0.01762 0.54306 0.0
C333 C 0.3206 0.02954 0.49975 0.0
C334 C 0.31609 0.03046 0.58808 0.0
C335 C 0.29934 0.0236 0.62106 0.0
C336 C 0.32904 0.05032 0.59726 0.0
C337 C 0.32489 0.06338 0.63788 0.0
C338 C 0.30762 0.05693 0.67013 0.0
C339 C 0.3178 0.95563 0.50013 0.0
C340 C 0.30524 0.94441 0.46442 0.0
C341 C 0.32734 0.94231 0.53703 0.0
C342 C 0.32364 0.91858 0.53912 0.0
C343 C 0.31056 0.90748 0.50401 0.0
C344 C 0.30188 0.92068 0.46609 0.0
C345 C 0.29515 0.03668 0.66162 0.0
H346 H 0.28673 0.03278 0.31181 0.0
H347 H 0.29246 0.00947 0.38258 0.0
H348 H 0.34642 0.05504 0.42852 0.0
H349 H 0.3414 0.07808 0.35663 0.0
H350 H 0.32226 0.98439 0.42361 0.0
H351 H 0.31979 0.04815 0.49946 0.0
H352 H 0.31711 0.98432 0.57618 0.0
H353 H 0.28882 0.00858 0.61466 0.0
H354 H 0.34227 0.05586 0.5728 0.0
H355 H 0.33506 0.07868 0.64378 0.0
H356 H 0.29735 0.95399 0.43571 0.0
H357 H 0.33747 0.95024 0.56472 0.0
H358 H 0.2815 0.03139 0.6853 0.0
H359 H 0.29219 0.91275 0.43772 0.0
H360 H 0.33052 0.90908 0.56903 0.0
C361 C 0.43956 0.67901 0.84597 0.0
C362 C 0.41808 0.69003 0.84482 0.0
C363 C 0.45244 0.67835 0.88794 0.0
C364 C 0.444 0.68858 0.92956 0.0
C365 C 0.42259 0.69966 0.9282 0.0
C366 C 0.40978 0.7003 0.88647 0.0
C367 C 0.45739 0.68807 0.97439 0.0
C368 C 0.48097 0.69296 0.97438 0.0
C369 C 0.49333 0.69447 0.01725 0.0
C370 C 0.48172 0.69073 0.06041 0.0
C371 C 0.45805 0.68631 0.06092 0.0
C372 C 0.44618 0.68449 0.0178 0.0
C373 C 0.44513 0.68597 0.10619 0.0
C374 C 0.4528 0.67316 0.14551 0.0
C375 C 0.425 0.69908 0.11028 0.0
C376 C 0.41271 0.69935 0.15261 0.0
C377 C 0.42021 0.68648 0.19194 0.0
C378 C 0.51773 0.70205 0.01685 0.0
C379 C 0.53264 0.69522 0.98032 0.0
C380 C 0.52592 0.71735 0.05148 0.0
C381 C 0.54824 0.72597 0.04907 0.0
C382 C 0.56287 0.71984 0.01153 0.0
C383 C 0.55487 0.70411 0.9775 0.0
C384 C 0.44032 0.67326 0.18798 0.0
H385 H 0.44648 0.67105 0.81439 0.0
H386 H 0.46886 0.66963 0.88799 0.0
H387 H 0.41576 0.70804 0.95939 0.0
H388 H 0.39315 0.70861 0.8871 0.0
H389 H 0.48937 0.6969 0.94105 0.0
H390 H 0.42797 0.6807 0.01817 0.0
H391 H 0.49085 0.69216 0.09378 0.0
H392 H 0.46827 0.66291 0.14322 0.0
H393 H 0.41885 0.70937 0.08078 0.0
H394 H 0.39713 0.70945 0.15435 0.0
H395 H 0.52704 0.68322 0.9534 0.0
H396 H 0.51491 0.7233 0.07981 0.0
H397 H 0.4465 0.66323 0.21783 0.0
H398 H 0.56552 0.69911 0.94784 0.0
H399 H 0.55391 0.73764 0.07652 0.0
H400 H 0.20391 0.19783 0.17135 0.0
H401 H 0.07311 0.17848 0.24176 0.0
H402 H 0.15477 0.17298 0.06869 0.0
H403 H 0.12926 0.18118 0.34163 0.0
H404 H 0.1011 0.17835 0.17636 0.0
H405 H 0.17493 0.19509 0.23255 0.0
C406 C 0.18697 0.19183 0.16152 0.0
C407 C 0.18184 0.18555 0.11466 0.0
C408 C 0.10718 0.17884 0.21267 0.0
C409 C 0.14833 0.1823 0.18532 0.0
C410 C 0.09127 0.17883 0.24994 0.0
C411 C 0.09887 0.18027 0.2972 0.0
C412 C 0.13072 0.18041 0.22299 0.0
C413 C 0.12258 0.1807 0.30578 0.0
C414 C 0.17041 0.19014 0.19672 0.0
C415 C 0.15949 0.17791 0.1044 0.0
N416 N 0.13758 0.18098 0.26914 0.0
N417 N 0.14346 0.17655 0.13952 0.0
H418 H 0.24768 0.61233 0.60027 0.0
H419 H 0.16529 0.60538 0.82454 0.0
H420 H 0.20796 0.66992 0.65068 0.0
H421 H 0.19388 0.54539 0.75756 0.0
H422 H 0.179 0.62895 0.75843 0.0
H423 H 0.22692 0.58721 0.65502 0.0
C424 C 0.23453 0.6197 0.6227 0.0
C425 C 0.22977 0.64335 0.62123 0.0
C426 C 0.18202 0.61059 0.75772 0.0
C427 C 0.20593 0.61463 0.68408 0.0
C428 C 0.17418 0.59716 0.79543 0.0
C429 C 0.1786 0.57346 0.79652 0.0
C430 C 0.1947 0.60033 0.72112 0.0
C431 C 0.19007 0.56359 0.75791 0.0
C432 C 0.22261 0.6053 0.65381 0.0
C433 C 0.21235 0.65184 0.65077 0.0
N434 N 0.19804 0.57713 0.72206 0.0
N435 N 0.20125 0.63754 0.6813 0.0
H436 H 0.83712 0.84653 0.06609 0.0
H437 H 0.86899 0.82032 0.33375 0.0
H438 H 0.80149 0.79505 0.14842 0.0
H439 H 0.9219 0.83659 0.23223 0.0
H440 H 0.84121 0.81744 0.26862 0.0
H441 H 0.86625 0.84904 0.12905 0.0
C442 C 0.83549 0.83573 0.0973 0.0
C443 C 0.81691 0.82054 0.10211 0.0
C444 C 0.8589 0.82168 0.26066 0.0
C445 C 0.8497 0.8237 0.17414 0.0
C446 C 0.87465 0.82349 0.2977 0.0
C447 C 0.89764 0.82874 0.28808 0.0
C448 C 0.86613 0.82561 0.21386 0.0
C449 C 0.90427 0.83247 0.24083 0.0
C450 C 0.85209 0.83713 0.13299 0.0
C451 C 0.8156 0.80688 0.14316 0.0
N452 N 0.8885 0.83101 0.20531 0.0
N453 N 0.83163 0.80898 0.17788 0.0
H454 H 0.76721 0.33036 0.66017 0.0
H455 H 0.79954 0.45854 0.73708 0.0
H456 H 0.76 0.389 0.56695 0.0
H457 H 0.80706 0.39911 0.82794 0.0
H458 H 0.78734 0.43331 0.6725 0.0
H459 H 0.78438 0.35516 0.71989 0.0
C460 C 0.76932 0.34845 0.65212 0.0
C461 C 0.76192 0.35762 0.60855 0.0
C462 C 0.79183 0.42579 0.70647 0.0
C463 C 0.7816 0.38623 0.67714 0.0
C464 C 0.7987 0.44019 0.74343 0.0
C465 C 0.80426 0.43096 0.78813 0.0
C466 C 0.79041 0.40198 0.71429 0.0
C467 C 0.8032 0.40701 0.79402 0.0
C468 C 0.77916 0.36262 0.68631 0.0
C469 C 0.76533 0.38118 0.6001 0.0
N470 N 0.79627 0.3934 0.75768 0.0
N471 N 0.77477 0.39471 0.63423 0.0
H472 H 0.6523 0.33567 0.43871 0.0
H473 H 0.62357 0.34502 0.16226 0.0
H474 H 0.69949 0.31749 0.32692 0.0
H475 H 0.5701 0.33782 0.26708 0.0
H476 H 0.65224 0.34141 0.22485 0.0
H477 H 0.62232 0.34195 0.37848 0.0
C478 C 0.65635 0.33298 0.40164 0.0
C479 C 0.67843 0.326 0.38785 0.0
C480 C 0.63423 0.34072 0.23427 0.0
C481 C 0.64448 0.33345 0.31919 0.0
C482 C 0.61785 0.34302 0.1986 0.0
C483 C 0.59441 0.34177 0.2095 0.0
C484 C 0.62722 0.33727 0.28138 0.0
C485 C 0.58802 0.33873 0.25719 0.0
C486 C 0.63926 0.33653 0.36741 0.0
C487 C 0.68273 0.32274 0.33933 0.0
N488 N 0.60436 0.33659 0.29151 0.0
N489 N 0.66598 0.32663 0.30685 0.0
H490 H 0.26592 0.17308 0.83788 0.0
H491 H 0.29604 0.04434 0.76133 0.0
H492 H 0.25612 0.11466 0.9306 0.0
H493 H 0.30513 0.10387 0.67143 0.0
H494 H 0.2834 0.06959 0.82554 0.0
H495 H 0.28249 0.14782 0.77858 0.0
C496 C 0.26728 0.15491 0.84586 0.0
C497 C 0.2594 0.14597 0.88922 0.0
C498 C 0.28832 0.0771 0.79185 0.0
C499 C 0.27846 0.1168 0.82104 0.0
C500 C 0.29545 0.0627 0.75511 0.0
C501 C 0.30162 0.07197 0.7108 0.0
C502 C 0.28727 0.10094 0.78418 0.0
C503 C 0.30083 0.09593 0.70505 0.0
C504 C 0.2768 0.14047 0.8119 0.0
C505 C 0.26186 0.12228 0.8976 0.0
N506 N 0.29368 0.10952 0.74116 0.0
N507 N 0.27106 0.10848 0.86366 0.0
H508 H 0.32869 0.6484 0.42012 0.0
H509 H 0.40168 0.72366 0.2365 0.0
H510 H 0.32055 0.72156 0.40001 0.0
H511 H 0.40762 0.64996 0.24807 0.0
H512 H 0.37539 0.72356 0.30375 0.0
H513 H 0.36087 0.64899 0.36446 0.0
C514 C 0.33376 0.66461 0.40433 0.0
C515 C 0.3217 0.68492 0.41434 0.0
C516 C 0.38254 0.7074 0.29191 0.0
C517 C 0.35852 0.68569 0.35069 0.0
C518 C 0.39752 0.70745 0.25344 0.0
C519 C 0.40659 0.68675 0.23632 0.0
C520 C 0.37644 0.68647 0.3134 0.0
C521 C 0.401 0.6663 0.26019 0.0
C522 C 0.35213 0.66492 0.37253 0.0
C523 C 0.32914 0.70543 0.39298 0.0
N524 N 0.38607 0.66663 0.29725 0.0
N525 N 0.34695 0.70525 0.362 0.0
H526 H 0.75156 0.89035 0.90046 0.0
H527 H 0.6809 0.89771 0.65941 0.0
H528 H 0.71531 0.8325 0.84088 0.0
H529 H 0.70289 0.95772 0.73638 0.0
H530 H 0.6926 0.87362 0.72644 0.0
H531 H 0.73342 0.91542 0.84168 0.0
C532 C 0.73972 0.88291 0.87512 0.0
C533 C 0.73515 0.85922 0.87531 0.0
C534 C 0.69463 0.89207 0.729 0.0
C535 C 0.71436 0.88788 0.80781 0.0
C536 C 0.68801 0.9058 0.69072 0.0
C537 C 0.69109 0.92969 0.69234 0.0
C538 C 0.70475 0.90225 0.76898 0.0
C539 C 0.70017 0.93936 0.73384 0.0
C540 C 0.72929 0.89728 0.84171 0.0
C541 C 0.71945 0.85063 0.84195 0.0
N542 N 0.70697 0.92557 0.77033 0.0
N543 N 0.70981 0.86491 0.80924 0.0
H544 H 0.84038 0.84773 0.91764 0.0
H545 H 0.8993 0.78155 0.70122 0.0
H546 H 0.81172 0.78775 0.85014 0.0
H547 H 0.91479 0.85213 0.73511 0.0
H548 H 0.87232 0.78034 0.76741 0.0
H549 H 0.87272 0.84638 0.86185 0.0
C550 C 0.84102 0.83416 0.89145 0.0
C551 C 0.82324 0.81797 0.88809 0.0
C552 C 0.88175 0.79604 0.7606 0.0
C553 C 0.86008 0.81625 0.82481 0.0
C554 C 0.89728 0.79669 0.72307 0.0
C555 C 0.90921 0.81701 0.71253 0.0
C556 C 0.87818 0.81581 0.78803 0.0
C557 C 0.9057 0.83621 0.7417 0.0
C558 C 0.85939 0.83347 0.85959 0.0
C559 C 0.8249 0.80076 0.85354 0.0
N560 N 0.89043 0.83518 0.7781 0.0
N561 N 0.84296 0.80037 0.82324 0.0
H562 H 0.78495 0.33127 0.35725 0.0
H563 H 0.80247 0.4597 0.26216 0.0
H564 H 0.75152 0.39019 0.41921 0.0
H565 H 0.81507 0.3994 0.17708 0.0
H566 H 0.7905 0.43483 0.32764 0.0
H567 H 0.80312 0.35663 0.29903 0.0
C568 C 0.78161 0.34956 0.35898 0.0
C569 C 0.76647 0.35859 0.3929 0.0
C570 C 0.79606 0.42709 0.2947 0.0
C571 C 0.78731 0.38766 0.32642 0.0
C572 C 0.8028 0.44127 0.25716 0.0
C573 C 0.80957 0.43172 0.21359 0.0
C574 C 0.79628 0.40316 0.28896 0.0
C575 C 0.81021 0.40763 0.20993 0.0
C576 C 0.79193 0.364 0.3256 0.0
C577 C 0.76286 0.38245 0.39341 0.0
N578 N 0.80354 0.39421 0.24699 0.0
N579 N 0.77314 0.39615 0.36055 0.0
H580 H 0.17833 0.23014 0.88686 0.0
H581 H 0.08549 0.15847 0.74007 0.0
H582 H 0.16668 0.15744 0.90671 0.0
H583 H 0.09793 0.23098 0.72042 0.0
H584 H 0.11193 0.15854 0.80755 0.0
H585 H 0.14599 0.23149 0.83196 0.0
C586 C 0.1689 0.21446 0.87992 0.0
C587 C 0.17546 0.19358 0.90101 0.0
C588 C 0.10871 0.17448 0.78874 0.0
C589 C 0.13835 0.19501 0.83794 0.0
C590 C 0.0935 0.17448 0.7504 0.0
C591 C 0.08969 0.1947 0.72426 0.0
C592 C 0.1202 0.19485 0.80098 0.0
C593 C 0.10072 0.2149 0.739 0.0
C594 C 0.1504 0.21526 0.84855 0.0
C595 C 0.16239 0.17389 0.89099 0.0
N596 N 0.11559 0.21442 0.77611 0.0
N597 N 0.14459 0.17506 0.85984 0.0
H598 H 0.22166 0.61693 0.45855 0.0
H599 H 0.23104 0.57537 0.1916 0.0
H600 H 0.25442 0.65614 0.34732 0.0
H601 H 0.16899 0.56196 0.27069 0.0
H602 H 0.24551 0.59788 0.25772 0.0
H603 H 0.20706 0.59005 0.39793 0.0
C604 C 0.22579 0.61983 0.42153 0.0
C605 C 0.23915 0.63879 0.40778 0.0
C606 C 0.22875 0.58994 0.26064 0.0
C607 C 0.22312 0.60817 0.33932 0.0
C608 C 0.22039 0.57719 0.22284 0.0
C609 C 0.19845 0.56728 0.22499 0.0
C610 C 0.21532 0.59259 0.30143 0.0
C611 C 0.18592 0.56944 0.26737 0.0
C612 C 0.21743 0.6046 0.38718 0.0
C613 C 0.24402 0.64187 0.35946 0.0
N614 N 0.19448 0.58204 0.30402 0.0
N615 N 0.23617 0.62663 0.3271 0.0
H616 H 0.33777 0.65575 0.5943 0.0
H617 H 0.39274 0.72584 0.80977 0.0
H618 H 0.3059 0.71436 0.66066 0.0
H619 H 0.41119 0.65552 0.77982 0.0
H620 H 0.36586 0.7251 0.74343 0.0
H621 H 0.36959 0.65855 0.65129 0.0
C622 C 0.33754 0.66926 0.62062 0.0
C623 C 0.31907 0.6847 0.62317 0.0
C624 C 0.37589 0.70987 0.75121 0.0
C625 C 0.35536 0.68814 0.68763 0.0
C626 C 0.39118 0.71024 0.78917 0.0
C627 C 0.40393 0.69056 0.80098 0.0
C628 C 0.37336 0.68972 0.72453 0.0
C629 C 0.4017 0.67107 0.77203 0.0
C630 C 0.35564 0.67081 0.65309 0.0
C631 C 0.31964 0.70192 0.65784 0.0
N632 N 0.38653 0.67107 0.73529 0.0
N633 N 0.33748 0.70317 0.68866 0.0
H634 H 0.74163 0.89613 0.04772 0.0
H635 H 0.67151 0.90319 0.29069 0.0
H636 H 0.71771 0.8377 0.12848 0.0
H637 H 0.69788 0.96314 0.21896 0.0
H638 H 0.68272 0.87967 0.22317 0.0
H639 H 0.7208 0.92158 0.10213 0.0
C640 C 0.73183 0.88866 0.07654 0.0
C641 C 0.73174 0.86479 0.08414 0.0
C642 C 0.68586 0.898 0.22171 0.0
C643 C 0.70786 0.89366 0.14602 0.0
C644 C 0.67939 0.9114 0.26022 0.0
C645 C 0.68402 0.93501 0.26037 0.0
C646 C 0.69739 0.90821 0.18327 0.0
C647 C 0.69408 0.94493 0.22001 0.0
C648 C 0.71997 0.90317 0.10754 0.0
C649 C 0.71865 0.85601 0.12179 0.0
N650 N 0.70079 0.9314 0.18323 0.0
N651 N 0.7074 0.87042 0.1514 0.0
H652 H 0.67694 0.28054 0.61997 0.0
H653 H 0.5906 0.35952 0.7681 0.0
H654 H 0.66941 0.35358 0.59694 0.0
H655 H 0.60163 0.28733 0.79568 0.0
H656 H 0.61701 0.35718 0.70093 0.0
H657 H 0.64662 0.28214 0.67938 0.0
C658 C 0.66883 0.29691 0.62715 0.0
C659 C 0.67594 0.31701 0.60371 0.0
C660 C 0.61354 0.34183 0.72153 0.0
C661 C 0.64118 0.31895 0.67199 0.0
C662 C 0.59856 0.34318 0.76004 0.0
C663 C 0.59395 0.32361 0.78775 0.0
C664 C 0.62404 0.32077 0.71065 0.0
C665 C 0.60446 0.3028 0.77508 0.0
C666 C 0.6515 0.2978 0.66118 0.0
C667 C 0.66462 0.33767 0.61432 0.0
N668 N 0.61908 0.30197 0.73765 0.0
N669 N 0.64792 0.33813 0.64792 0.0
H670 H 0.24982 0.11474 0.07851 0.0
H671 H 0.31556 0.10467 0.32405 0.0
H672 H 0.28651 0.17159 0.14086 0.0
H673 H 0.29998 0.04539 0.23789 0.0
H674 H 0.30454 0.1295 0.25807 0.0
H675 H 0.26718 0.08899 0.13726 0.0
C676 C 0.26165 0.12178 0.10431 0.0
C677 C 0.26658 0.1454 0.10494 0.0
C678 C 0.30374 0.11105 0.25348 0.0
C679 C 0.28632 0.11606 0.17255 0.0
C680 C 0.31019 0.09678 0.29112 0.0
C681 C 0.30864 0.07276 0.2869 0.0
C682 C 0.29535 0.10133 0.21138 0.0
C683 C 0.30102 0.06376 0.24337 0.0
C684 C 0.2716 0.10707 0.13775 0.0
C685 C 0.28217 0.15353 0.13905 0.0
N686 N 0.29445 0.07803 0.20754 0.0
N687 N 0.29125 0.13894 0.17183 0.0
H688 H 0.24406 0.27895 0.9527 0.0
H689 H 0.15771 0.37546 0.04036 0.0
H690 H 0.19584 0.26532 0.06554 0.0
H691 H 0.22463 0.3905 0.98297 0.0
H692 H 0.16754 0.33429 0.04097 0.0
H693 H 0.23317 0.31933 0.95415 0.0
C694 C 0.2311 0.28445 0.97777 0.0
C695 C 0.22085 0.26874 0.00915 0.0
C696 C 0.18003 0.34667 0.02838 0.0
C697 C 0.2082 0.31505 0.01063 0.0
C698 C 0.1744 0.37004 0.02772 0.0
C699 C 0.19043 0.38629 0.01164 0.0
C700 C 0.20162 0.3396 0.0119 0.0
C701 C 0.21186 0.37851 0.99592 0.0
C702 C 0.22499 0.30754 0.97868 0.0
C703 C 0.20425 0.27692 0.04097 0.0
N704 N 0.21678 0.35571 0.99614 0.0
N705 N 0.19828 0.29957 0.04071 0.0
H706 H 0.20097 0.74775 0.55886 0.0
H707 H 0.07523 0.74109 0.45276 0.0
H708 H 0.18407 0.70044 0.4464 0.0
H709 H 0.1039 0.80344 0.51096 0.0
H710 H 0.11321 0.72337 0.45676 0.0
H711 H 0.16324 0.76536 0.55028 0.0
C712 C 0.18926 0.74094 0.53254 0.0
C713 C 0.19567 0.72258 0.50326 0.0
C714 C 0.11111 0.74096 0.4684 0.0
C715 C 0.15242 0.74271 0.4934 0.0
C716 C 0.08947 0.7512 0.46588 0.0
C717 C 0.0862 0.77386 0.48174 0.0
C718 C 0.12954 0.75331 0.48762 0.0
C719 C 0.10535 0.7858 0.49931 0.0
C720 C 0.16779 0.75114 0.52746 0.0
C721 C 0.17981 0.71462 0.46956 0.0
N722 N 0.12612 0.77533 0.50213 0.0
N723 N 0.1588 0.72466 0.46569 0.0
H724 H 0.75695 0.731 0.04995 0.0
H725 H 0.83991 0.63096 0.96458 0.0
H726 H 0.80501 0.74156 0.93539 0.0
H727 H 0.77286 0.61877 0.02507 0.0
H728 H 0.83131 0.67217 0.96215 0.0
H729 H 0.76714 0.69039 0.05154 0.0
C730 C 0.76977 0.72482 0.02528 0.0
C731 C 0.78007 0.73971 0.99231 0.0
C732 C 0.81857 0.66036 0.97593 0.0
C733 C 0.79185 0.69314 0.99418 0.0
C734 C 0.82337 0.63681 0.97716 0.0
C735 C 0.80716 0.62119 0.99538 0.0
C736 C 0.79758 0.66837 0.99369 0.0
C737 C 0.78618 0.63002 0.01183 0.0
C738 C 0.77547 0.70159 0.02608 0.0
C739 C 0.79654 0.73064 0.96116 0.0
N740 N 0.78209 0.65297 0.01086 0.0
N741 N 0.80201 0.7079 0.96294 0.0
H742 H 0.80656 0.28658 0.42932 0.0
H743 H 0.89365 0.19899 0.54119 0.0
H744 H 0.79823 0.26457 0.57464 0.0
H745 H 0.91796 0.25665 0.45787 0.0
H746 H 0.85584 0.21708 0.54463 0.0
H747 H 0.84517 0.2697 0.42908 0.0
C748 C 0.81292 0.2782 0.46113 0.0
C749 C 0.79938 0.27699 0.50212 0.0
C750 C 0.86958 0.22562 0.52566 0.0
C751 C 0.84295 0.2573 0.50164 0.0
C752 C 0.89124 0.21542 0.52378 0.0
C753 C 0.9093 0.22619 0.49913 0.0
C754 C 0.86575 0.24641 0.50174 0.0
C755 C 0.90465 0.24726 0.47632 0.0
C756 C 0.83486 0.26868 0.46099 0.0
C757 C 0.80831 0.266 0.54251 0.0
N758 N 0.8833 0.25655 0.47781 0.0
N759 N 0.82951 0.25627 0.54111 0.0
H760 H 0.70477 0.23871 0.41158 0.0
H761 H 0.68519 0.1228 0.56051 0.0
H762 H 0.71492 0.23262 0.56294 0.0
H763 H 0.68269 0.12576 0.4075 0.0
H764 H 0.69155 0.16422 0.56231 0.0
H765 H 0.69226 0.19851 0.40969 0.0
C766 C 0.7042 0.22901 0.44443 0.0
C767 C 0.71115 0.23899 0.4874 0.0
C768 C 0.6895 0.15585 0.52831 0.0
C769 C 0.69687 0.19307 0.48549 0.0
C770 C 0.68571 0.1322 0.52728 0.0
C771 C 0.68352 0.12074 0.48378 0.0
C772 C 0.69111 0.16823 0.48553 0.0
C773 C 0.68465 0.13383 0.44182 0.0
C774 C 0.69712 0.20605 0.44331 0.0
C775 C 0.71 0.22559 0.52889 0.0
N776 N 0.68845 0.15686 0.44372 0.0
N777 N 0.70311 0.20335 0.52684 0.0
H778 H 0.30192 0.23535 0.9167 0.0
H779 H 0.42336 0.24675 0.03983 0.0
H780 H 0.31226 0.2145 0.06223 0.0
H781 H 0.39598 0.30149 0.95217 0.0
H782 H 0.38615 0.22764 0.03652 0.0
H783 H 0.34063 0.2522 0.91631 0.0
C784 C 0.3125 0.234 0.94822 0.0
C785 C 0.30402 0.22363 0.98962 0.0
C786 C 0.38848 0.24381 0.01796 0.0
C787 C 0.34797 0.24246 0.98915 0.0
C788 C 0.40963 0.25493 0.02015 0.0
C789 C 0.413 0.27604 0.99662 0.0
C790 C 0.37069 0.25348 0.99108 0.0
C791 C 0.39454 0.28515 0.97031 0.0
C792 C 0.3344 0.24373 0.94807 0.0
C793 C 0.31823 0.22249 0.02975 0.0
N794 N 0.37422 0.27375 0.96806 0.0
N795 N 0.33963 0.23171 0.02848 0.0
H796 H 0.30371 0.76139 0.57508 0.0
H797 H 0.27081 0.88554 0.47841 0.0
H798 H 0.25649 0.77308 0.45925 0.0
H799 H 0.33775 0.8722 0.53874 0.0
H800 H 0.2624 0.84469 0.48239 0.0
H801 H 0.31375 0.80251 0.57321 0.0
C802 C 0.29548 0.77257 0.54937 0.0
C803 C 0.27927 0.76381 0.51725 0.0
C804 C 0.27896 0.85071 0.49464 0.0
C805 C 0.29038 0.81056 0.51543 0.0
C806 C 0.28389 0.87408 0.49207 0.0
C807 C 0.30521 0.88248 0.50754 0.0
C808 C 0.29525 0.83549 0.51356 0.0
C809 C 0.32103 0.86664 0.52662 0.0
C810 C 0.30126 0.79593 0.54823 0.0
C811 C 0.26916 0.779 0.48454 0.0
N812 N 0.31572 0.84388 0.52917 0.0
N813 N 0.27475 0.80161 0.48474 0.0
H814 H 0.68311 0.80563 0.04365 0.0
H815 H 0.60279 0.69996 0.97914 0.0
H816 H 0.70173 0.75534 0.93819 0.0
H817 H 0.576 0.76389 0.03365 0.0
H818 H 0.64042 0.71803 0.97109 0.0
H819 H 0.64476 0.78859 0.04793 0.0
C820 C 0.67909 0.79107 0.02128 0.0
C821 C 0.6956 0.78188 0.99052 0.0
C822 C 0.62624 0.72805 0.98473 0.0
C823 C 0.65198 0.76217 0.99573 0.0
C824 C 0.6047 0.7178 0.98919 0.0
C825 C 0.58606 0.73035 0.0072 0.0
C826 C 0.62928 0.75093 0.99895 0.0
C827 C 0.58987 0.75331 0.02052 0.0
C828 C 0.65722 0.7814 0.02367 0.0
C829 C 0.68947 0.76304 0.96222 0.0
N830 N 0.61105 0.76281 0.01635 0.0
N831 N 0.6682 0.75366 0.96583 0.0
loop_
_geom_bond_atom_site_label_1
_geom_bond_atom_site_label_2
_geom_bond_distance
_geom_bond_site_symmetry_2
_ccdc_geom_bond_type
Fe0 O2 1.918 . S
Fe0 O5 1.997 . S
Fe0 O6 2.002 . S
Fe0 O11 1.976 . S
Fe0 O14 1.996 . S
Fe1 O2 1.918 1_556 S
Fe1 O9 1.997 . S
Fe1 O12 1.996 . S
Fe1 O16 1.976 . S
Fe1 O19 2.002 . S
O2 Fe0 1.918 . S
O2 Fe1 1.918 1_554 S
O2 Fe3 1.918 . S
Fe3 O2 1.918 . S
Fe3 O4 2.014 . S
Fe3 O13 1.988 . S
Fe3 O17 1.984 1_554 S
Fe3 O20 1.985 1_554 S
O4 Fe3 2.014 . S
O4 C21 1.295 . S
O5 Fe0 1.997 . S
O5 C21 1.235 . S
O6 Fe0 2.002 . S
O6 C7 1.295 . S
C7 O6 1.295 . S
C7 O9 1.235 1_554 S
C8 O13 1.287 . S
C8 O14 1.255 . S
O9 Fe1 1.997 . S
O9 C7 1.235 1_556 S
C10 O16 1.287 . S
C10 O17 1.255 . S
O11 Fe0 1.976 . S
O11 C18 1.283 1_554 S
O12 Fe1 1.996 . S
O12 C18 1.258 . S
O13 Fe3 1.988 . S
O13 C8 1.287 . S
O14 Fe0 1.996 . S
O14 C8 1.255 . S
C15 O19 1.295 . S
C15 O20 1.235 . S
O16 Fe1 1.976 . S
O16 C10 1.287 . S
O17 Fe3 1.984 1_556 S
O17 C10 1.255 . S
C18 O11 1.283 1_556 S
C18 O12 1.258 . S
O19 Fe1 2.002 . S
O19 C15 1.295 . S
O20 Fe3 1.985 1_556 S
O20 C15 1.235 . S
C21 O4 1.295 . S
C21 O5 1.235 . S
Fe22 O24 1.918 . S
Fe22 O27 1.997 . S
Fe22 O28 2.002 . S
Fe22 O33 1.976 . S
Fe22 O36 1.996 . S
Fe23 O24 1.918 . S
Fe23 O31 1.997 . S
Fe23 O34 1.996 . S
Fe23 O38 1.976 . S
Fe23 O41 2.002 . S
O24 Fe22 1.918 . S
O24 Fe23 1.918 . S
O24 Fe25 1.918 . S
Fe25 O24 1.918 . S
Fe25 O26 2.002 . S
Fe25 O35 1.976 . S
Fe25 O39 1.996 . S
Fe25 O42 1.997 . S
O26 Fe25 2.002 . S
O26 C43 1.295 . S
O27 Fe22 1.997 . S
O27 C43 1.235 . S
O28 Fe22 2.002 . S
O28 C29 1.295 . S
C29 O28 1.295 . S
C29 O31 1.235 . S
C30 O35 1.287 . S
C30 O36 1.255 . S
O31 Fe23 1.997 . S
O31 C29 1.235 . S
C32 O38 1.287 . S
C32 O39 1.255 . S
O33 Fe22 1.976 . S
O33 C40 1.287 . S
O34 Fe23 1.996 . S
O34 C40 1.255 . S
O35 Fe25 1.976 . S
O35 C30 1.287 . S
O36 Fe22 1.996 . S
O36 C30 1.255 . S
C37 O41 1.295 . S
C37 O42 1.235 . S
O38 Fe23 1.976 . S
O38 C32 1.287 . S
O39 Fe25 1.996 . S
O39 C32 1.255 . S
C40 O33 1.287 . S
C40 O34 1.255 . S
O41 Fe23 2.002 . S
O41 C37 1.295 . S
O42 Fe25 1.997 . S
O42 C37 1.235 . S
C43 O26 1.295 . S
C43 O27 1.235 . S
Fe44 O46 1.900 1_556 S
Fe44 O49 1.997 . S
Fe44 O50 2.002 . S
Fe44 O55 1.976 . S
Fe44 O58 1.996 . S
Fe45 O46 1.936 . S
Fe45 O53 1.997 . S
Fe45 O56 1.996 . S
Fe45 O60 1.976 . S
Fe45 O63 2.002 . S
O46 Fe44 1.900 1_554 S
O46 Fe45 1.936 . S
O46 Fe47 1.918 . S
Fe47 O46 1.918 . S
Fe47 O48 2.002 1_554 S
Fe47 O57 1.976 1_554 S
Fe47 O61 1.996 . S
Fe47 O64 1.997 . S
O48 Fe47 2.002 1_556 S
O48 C65 1.295 . S
O49 Fe44 1.997 . S
O49 C65 1.235 . S
O50 Fe44 2.002 . S
O50 C51 1.304 . S
C51 O50 1.304 . S
C51 O53 1.227 1_556 S
C52 O57 1.287 . S
C52 O58 1.255 . S
O53 Fe45 1.997 . S
O53 C51 1.227 1_554 S
C54 O60 1.287 . S
C54 O61 1.255 . S
O55 Fe44 1.976 . S
O55 C62 1.287 1_556 S
O56 Fe45 1.996 . S
O56 C62 1.255 . S
O57 Fe47 1.976 1_556 S
O57 C52 1.287 . S
O58 Fe44 1.996 . S
O58 C52 1.255 . S
C59 O63 1.295 . S
C59 O64 1.235 . S
O60 Fe45 1.976 . S
O60 C54 1.287 . S
O61 Fe47 1.996 . S
O61 C54 1.255 . S
C62 O55 1.287 1_554 S
C62 O56 1.255 . S
O63 Fe45 2.002 . S
O63 C59 1.295 . S
O64 Fe47 1.997 . S
O64 C59 1.235 . S
C65 O48 1.295 . S
C65 O49 1.235 . S
Fe66 O68 1.918 . S
Fe66 O71 1.997 . S
Fe66 O72 2.002 . S
Fe66 O77 1.976 . S
Fe66 O80 1.996 . S
Fe67 O68 1.918 . S
Fe67 O75 1.997 . S
Fe67 O78 1.996 . S
Fe67 O82 1.976 . S
Fe67 O85 2.002 . S
O68 Fe66 1.918 . S
O68 Fe67 1.918 . S
O68 Fe69 1.918 . S
Fe69 O68 1.918 . S
Fe69 O70 2.002 . S
Fe69 O79 1.976 . S
Fe69 O83 1.996 . S
Fe69 O86 1.997 . S
O70 Fe69 2.002 . S
O70 C87 1.295 . S
O71 Fe66 1.997 . S
O71 C87 1.235 . S
O72 Fe66 2.002 . S
O72 C73 1.295 . S
C73 O72 1.295 . S
C73 O75 1.235 . S
C74 O79 1.287 . S
C74 O80 1.255 . S
O75 Fe67 1.997 . S
O75 C73 1.235 . S
C76 O82 1.287 . S
C76 O83 1.255 . S
O77 Fe66 1.976 . S
O77 C84 1.287 . S
O78 Fe67 1.996 . S
O78 C84 1.255 . S
O79 Fe69 1.976 . S
O79 C74 1.287 . S
O80 Fe66 1.996 . S
O80 C74 1.255 . S
C81 O85 1.295 . S
C81 O86 1.235 . S
O82 Fe67 1.976 . S
O82 C76 1.287 . S
O83 Fe69 1.996 . S
O83 C76 1.255 . S
C84 O77 1.287 . S
C84 O78 1.255 . S
O85 Fe67 2.002 . S
O85 C81 1.295 . S
O86 Fe69 1.997 . S
O86 C81 1.235 . S
C87 O70 1.295 . S
C87 O71 1.235 . S
C88 C89 1.386 . S
C88 C90 1.397 . S
C88 H112 0.931 . S
C89 C88 1.386 . S
C89 C93 1.397 . S
C90 C88 1.397 . S
C90 C91 1.384 . S
C90 H113 0.930 . S
C91 C90 1.384 . S
C91 C92 1.377 . S
C91 C94 1.481 . S
C92 C91 1.377 . S
C92 C93 1.389 . S
C92 H114 0.929 . S
C93 C89 1.397 . S
C93 C92 1.389 . S
C93 H115 0.931 . S
C94 C91 1.481 . S
C94 C95 1.387 . S
C94 C99 1.390 1_556 S
C95 C94 1.387 . S
C95 C96 1.401 1_556 S
C95 H116 0.930 . S
C96 C95 1.401 1_554 S
C96 C97 1.376 . S
C96 C105 1.511 . S
C97 C96 1.376 . S
C97 C98 1.392 . S
C97 H118 0.931 . S
C98 C97 1.392 . S
C98 C99 1.361 . S
C98 C100 1.500 . S
C99 C94 1.390 1_554 S
C99 C98 1.361 . S
C99 H117 0.931 . S
C100 C98 1.500 . S
C100 C101 1.371 . S
C100 C102 1.365 . S
C101 C100 1.371 . S
C101 C111 1.386 . S
C101 H119 0.931 . S
C102 C100 1.365 . S
C102 C103 1.409 . S
C102 H120 0.929 . S
C103 C102 1.409 . S
C103 C104 1.380 . S
C103 H121 0.930 . S
C104 C103 1.380 . S
C104 C111 1.357 . S
C105 C96 1.511 . S
C105 C106 1.341 1_554 S
C105 C107 1.371 . S
C106 C105 1.341 1_556 S
C106 C110 1.394 . S
C106 H122 0.930 . S
C107 C105 1.371 . S
C107 C108 1.392 . S
C107 H123 0.931 . S
C108 C107 1.392 . S
C108 C109 1.331 . S
C108 H126 0.932 . S
C109 C108 1.331 . S
C109 C110 1.336 1_554 S
C110 C106 1.394 . S
C110 C109 1.336 1_556 S
C110 H125 0.929 . S
C111 C101 1.386 . S
C111 C104 1.357 . S
C111 H124 0.928 . S
H112 C88 0.931 . S
H113 C90 0.930 . S
H114 C92 0.929 . S
H115 C93 0.931 . S
H116 C95 0.930 . S
H117 C99 0.931 . S
H118 C97 0.931 . S
H119 C101 0.931 . S
H120 C102 0.929 . S
H121 C103 0.930 . S
H122 C106 0.930 . S
H123 C107 0.931 . S
H124 C111 0.928 . S
H125 C110 0.929 . S
H126 C108 0.932 . S
C127 C128 1.386 . S
C127 C129 1.397 . S
C127 H151 0.931 . S
C128 C127 1.386 . S
C128 C132 1.397 . S
C129 C127 1.397 . S
C129 C130 1.384 . S
C129 H152 0.930 . S
C130 C129 1.384 . S
C130 C131 1.377 . S
C130 C133 1.481 . S
C131 C130 1.377 . S
C131 C132 1.389 . S
C131 H153 0.929 . S
C132 C128 1.397 . S
C132 C131 1.389 . S
C132 H154 0.931 . S
C133 C130 1.481 . S
C133 C134 1.387 . S
C133 C138 1.390 . S
C134 C133 1.387 . S
C134 C135 1.401 1_655 S
C134 H155 0.944 . S
C135 C134 1.401 1_455 S
C135 C136 1.376 1_455 S
C135 C144 1.511 . S
C136 C135 1.376 1_655 S
C136 C137 1.392 . S
C136 H157 0.931 . S
C137 C136 1.392 . S
C137 C138 1.361 . S
C137 C139 1.500 . S
C138 C133 1.390 . S
C138 C137 1.361 . S
C138 H156 0.931 . S
C139 C137 1.500 . S
C139 C140 1.371 . S
C139 C141 1.365 . S
C140 C139 1.371 . S
C140 C150 1.386 . S
C140 H158 0.931 . S
C141 C139 1.365 . S
C141 C142 1.409 . S
C141 H159 0.929 . S
C142 C141 1.409 . S
C142 C143 1.380 . S
C142 H160 0.930 . S
C143 C142 1.380 . S
C143 C150 1.357 . S
C144 C135 1.511 . S
C144 C145 1.341 . S
C144 C146 1.371 . S
C145 C144 1.341 . S
C145 C149 1.394 . S
C145 H161 0.930 . S
C146 C144 1.371 . S
C146 C147 1.392 . S
C146 H162 0.931 . S
C147 C146 1.392 . S
C147 C148 1.331 . S
C147 H165 0.932 . S
C148 C147 1.331 . S
C148 C149 1.336 . S
C149 C145 1.394 . S
C149 C148 1.336 . S
C149 H164 0.929 . S
C150 C140 1.386 . S
C150 C143 1.357 . S
C150 H163 0.928 . S
H151 C127 0.931 . S
H152 C129 0.930 . S
H153 C131 0.929 . S
H154 C132 0.931 . S
H155 C134 0.944 . S
H156 C138 0.931 . S
H157 C136 0.931 . S
H158 C140 0.931 . S
H159 C141 0.929 . S
H160 C142 0.930 . S
H161 C145 0.930 . S
H162 C146 0.931 . S
H163 C150 0.928 . S
H164 C149 0.929 . S
H165 C147 0.932 . S
C166 C167 1.386 . S
C166 C168 1.397 . S
C166 H190 0.931 . S
C167 C166 1.386 . S
C167 C171 1.397 . S
C168 C166 1.397 . S
C168 C169 1.384 . S
C168 H191 0.930 . S
C169 C168 1.384 . S
C169 C170 1.377 . S
C169 C172 1.481 . S
C170 C169 1.377 . S
C170 C171 1.389 . S
C170 H192 0.929 . S
C171 C167 1.397 . S
C171 C170 1.389 . S
C171 H193 0.931 . S
C172 C169 1.481 . S
C172 C173 1.387 . S
C172 C177 1.398 . S
C173 C172 1.387 . S
C173 C174 1.388 1_554 S
C173 H194 0.930 . S
C174 C173 1.388 1_556 S
C174 C175 1.389 . S
C174 C183 1.511 . S
C175 C174 1.389 . S
C175 C176 1.392 . S
C175 H196 0.931 . S
C176 C175 1.392 . S
C176 C177 1.354 1_556 S
C176 C178 1.500 . S
C177 C172 1.398 . S
C177 C176 1.354 1_554 S
C177 H195 0.931 . S
C178 C176 1.500 . S
C178 C179 1.371 . S
C178 C180 1.365 . S
C179 C178 1.371 . S
C179 C189 1.386 . S
C179 H197 0.931 . S
C180 C178 1.365 . S
C180 C181 1.409 . S
C180 H198 0.929 . S
C181 C180 1.409 . S
C181 C182 1.380 . S
C181 H199 0.930 . S
C182 C181 1.380 . S
C182 C189 1.357 . S
C183 C174 1.511 . S
C183 C184 1.333 1_556 S
C183 C185 1.379 . S
C184 C183 1.333 1_554 S
C184 C188 1.394 . S
C184 H200 0.930 . S
C185 C183 1.379 . S
C185 C186 1.392 . S
C185 H201 0.931 . S
C186 C185 1.392 . S
C186 C187 1.318 1_556 S
C186 H204 0.932 . S
C187 C186 1.318 1_554 S
C187 C188 1.349 . S
C188 C184 1.394 . S
C188 C187 1.349 . S
C188 H203 0.929 . S
C189 C179 1.386 . S
C189 C182 1.357 . S
C189 H202 0.928 . S
H190 C166 0.931 . S
H191 C168 0.930 . S
H192 C170 0.929 . S
H193 C171 0.931 . S
H194 C173 0.930 . S
H195 C177 0.931 . S
H196 C175 0.931 . S
H197 C179 0.931 . S
H198 C180 0.929 . S
H199 C181 0.930 . S
H200 C184 0.930 . S
H201 C185 0.931 . S
H202 C189 0.928 . S
H203 C188 0.929 . S
H204 C186 0.932 . S
C205 C206 1.386 . S
C205 C207 1.397 . S
C205 H229 0.931 . S
C206 C205 1.386 . S
C206 C210 1.397 . S
C207 C205 1.397 . S
C207 C208 1.384 . S
C207 H230 0.930 . S
C208 C207 1.384 . S
C208 C209 1.377 . S
C208 C211 1.481 . S
C209 C208 1.377 . S
C209 C210 1.389 . S
C209 H231 0.929 . S
C210 C206 1.397 . S
C210 C209 1.389 . S
C210 H232 0.931 . S
C211 C208 1.481 . S
C211 C212 1.387 . S
C211 C216 1.390 . S
C212 C211 1.387 . S
C212 C213 1.401 1_455 S
C212 H233 0.914 1_455 S
C213 C212 1.401 1_655 S
C213 C214 1.376 1_655 S
C213 C222 1.511 . S
C214 C213 1.376 1_455 S
C214 C215 1.392 . S
C214 H235 0.933 . S
C215 C214 1.392 . S
C215 C216 1.361 . S
C215 C217 1.500 . S
C216 C211 1.390 . S
C216 C215 1.361 . S
C216 H234 0.931 . S
C217 C215 1.500 . S
C217 C218 1.371 . S
C217 C219 1.365 . S
C218 C217 1.371 . S
C218 C228 1.386 . S
C218 H236 0.931 . S
C219 C217 1.365 . S
C219 C220 1.409 . S
C219 H237 0.929 . S
C220 C219 1.409 . S
C220 C221 1.380 . S
C220 H238 0.930 . S
C221 C220 1.380 . S
C221 C228 1.357 . S
C222 C213 1.511 . S
C222 C223 1.341 . S
C222 C224 1.371 . S
C223 C222 1.341 . S
C223 C227 1.394 . S
C223 H239 0.930 . S
C224 C222 1.371 . S
C224 C225 1.392 . S
C224 H240 0.931 . S
C225 C224 1.392 . S
C225 C226 1.331 . S
C225 H243 0.932 . S
C226 C225 1.331 . S
C226 C227 1.336 . S
C227 C223 1.394 . S
C227 C226 1.336 . S
C227 H242 0.929 . S
C228 C218 1.386 . S
C228 C221 1.357 . S
C228 H241 0.928 . S
H229 C205 0.931 . S
H230 C207 0.930 . S
H231 C209 0.929 . S
H232 C210 0.931 . S
H233 C212 0.914 1_655 S
H234 C216 0.931 . S
H235 C214 0.933 . S
H236 C218 0.931 . S
H237 C219 0.929 . S
H238 C220 0.930 . S
H239 C223 0.930 . S
H240 C224 0.931 . S
H241 C228 0.928 . S
H242 C227 0.929 . S
H243 C225 0.932 . S
C244 C245 1.386 . S
C244 C246 1.397 . S
C244 H268 0.931 . S
C245 C244 1.386 . S
C245 C249 1.397 . S
C246 C244 1.397 . S
C246 C247 1.384 . S
C246 H269 0.930 . S
C247 C246 1.384 . S
C247 C248 1.377 . S
C247 C250 1.481 . S
C248 C247 1.377 . S
C248 C249 1.389 . S
C248 H270 0.929 . S
C249 C245 1.397 . S
C249 C248 1.389 . S
C249 H271 0.931 . S
C250 C247 1.481 . S
C250 C251 1.387 1_565 S
C250 C255 1.390 . S
C251 C250 1.387 1_545 S
C251 C252 1.401 . S
C251 H272 0.930 . S
C252 C251 1.401 . S
C252 C253 1.376 . S
C252 C261 1.511 . S
C253 C252 1.376 . S
C253 C254 1.392 1_545 S
C253 H274 0.931 . S
C254 C253 1.392 1_565 S
C254 C255 1.361 . S
C254 C256 1.500 . S
C255 C250 1.390 . S
C255 C254 1.361 . S
C255 H273 0.931 . S
C256 C254 1.500 . S
C256 C257 1.371 . S
C256 C258 1.365 . S
C257 C256 1.371 . S
C257 C267 1.386 . S
C257 H275 0.931 . S
C258 C256 1.365 . S
C258 C259 1.409 . S
C258 H276 0.929 . S
C259 C258 1.409 . S
C259 C260 1.380 . S
C259 H277 0.930 . S
C260 C259 1.380 . S
C260 C267 1.357 . S
C261 C252 1.511 . S
C261 C262 1.341 . S
C261 C263 1.371 . S
C262 C261 1.341 . S
C262 C266 1.394 . S
C262 H278 0.930 . S
C263 C261 1.371 . S
C263 C264 1.392 . S
C263 H279 0.931 . S
C264 C263 1.392 . S
C264 C265 1.331 . S
C264 H282 0.932 . S
C265 C264 1.331 . S
C265 C266 1.336 . S
C266 C262 1.394 . S
C266 C265 1.336 . S
C266 H281 0.929 . S
C267 C257 1.386 . S
C267 C260 1.357 . S
C267 H280 0.928 . S
H268 C244 0.931 . S
H269 C246 0.930 . S
H270 C248 0.929 . S
H271 C249 0.931 . S
H272 C251 0.930 . S
H273 C255 0.931 . S
H274 C253 0.931 . S
H275 C257 0.931 . S
H276 C258 0.929 . S
H277 C259 0.930 . S
H278 C262 0.930 . S
H279 C263 0.931 . S
H280 C267 0.928 . S
H281 C266 0.929 . S
H282 C264 0.932 . S
C283 C284 1.386 . S
C283 C285 1.397 . S
C283 H307 0.931 . S
C284 C283 1.386 . S
C284 C288 1.397 . S
C285 C283 1.397 . S
C285 C286 1.384 . S
C285 H308 0.930 . S
C286 C285 1.384 . S
C286 C287 1.377 . S
C286 C289 1.481 . S
C287 C286 1.377 . S
C287 C288 1.389 . S
C287 H309 0.929 . S
C288 C284 1.397 . S
C288 C287 1.389 . S
C288 H310 0.931 . S
C289 C286 1.481 . S
C289 C290 1.387 . S
C289 C294 1.388 1_554 S
C290 C289 1.387 . S
C290 C291 1.401 1_554 S
C290 H311 0.930 . S
C291 C290 1.401 1_556 S
C291 C292 1.376 . S
C291 C300 1.511 . S
C292 C291 1.376 . S
C292 C293 1.392 . S
C292 H313 0.931 . S
C293 C292 1.392 . S
C293 C294 1.364 . S
C293 C295 1.500 . S
C294 C289 1.388 1_556 S
C294 C293 1.364 . S
C294 H312 0.931 . S
C295 C293 1.500 . S
C295 C296 1.371 . S
C295 C297 1.365 . S
C296 C295 1.371 . S
C296 C306 1.386 . S
C296 H314 0.931 . S
C297 C295 1.365 . S
C297 C298 1.409 . S
C297 H315 0.929 . S
C298 C297 1.409 . S
C298 C299 1.380 . S
C298 H316 0.930 . S
C299 C298 1.380 . S
C299 C306 1.357 . S
C300 C291 1.511 . S
C300 C301 1.341 1_556 S
C300 C302 1.371 . S
C301 C300 1.341 1_554 S
C301 C305 1.394 . S
C301 H317 0.930 . S
C302 C300 1.371 . S
C302 C303 1.392 . S
C302 H318 0.931 . S
C303 C302 1.392 . S
C303 C304 1.330 1_556 S
C303 H321 0.932 . S
C304 C303 1.330 1_554 S
C304 C305 1.337 . S
C305 C301 1.394 . S
C305 C304 1.337 . S
C305 H320 0.929 . S
C306 C296 1.386 . S
C306 C299 1.357 . S
C306 H319 0.928 . S
H307 C283 0.931 . S
H308 C285 0.930 . S
H309 C287 0.929 . S
H310 C288 0.931 . S
H311 C290 0.930 . S
H312 C294 0.931 . S
H313 C292 0.931 . S
H314 C296 0.931 . S
H315 C297 0.929 . S
H316 C298 0.930 . S
H317 C301 0.930 . S
H318 C302 0.931 . S
H319 C306 0.928 . S
H320 C305 0.929 . S
H321 C303 0.932 . S
C322 C323 1.386 . S
C322 C324 1.397 . S
C322 H346 0.931 . S
C323 C322 1.386 . S
C323 C327 1.397 . S
C324 C322 1.397 . S
C324 C325 1.384 . S
C324 H347 0.930 . S
C325 C324 1.384 . S
C325 C326 1.377 . S
C325 C328 1.481 . S
C326 C325 1.377 . S
C326 C327 1.389 . S
C326 H348 0.929 . S
C327 C323 1.397 . S
C327 C326 1.389 . S
C327 H349 0.931 . S
C328 C325 1.481 . S
C328 C329 1.387 1_545 S
C328 C333 1.390 . S
C329 C328 1.387 1_565 S
C329 C330 1.401 . S
C329 H350 0.930 . S
C330 C329 1.401 . S
C330 C331 1.393 . S
C330 C339 1.511 . S
C331 C330 1.393 . S
C331 C332 1.360 1_565 S
C331 H352 0.947 . S
C332 C331 1.360 1_545 S
C332 C333 1.361 . S
C332 C334 1.500 . S
C333 C328 1.390 . S
C333 C332 1.361 . S
C333 H351 0.931 . S
C334 C332 1.500 . S
C334 C335 1.371 . S
C334 C336 1.365 . S
C335 C334 1.371 . S
C335 C345 1.386 . S
C335 H353 0.931 . S
C336 C334 1.365 . S
C336 C337 1.409 . S
C336 H354 0.929 . S
C337 C336 1.409 . S
C337 C338 1.380 . S
C337 H355 0.930 . S
C338 C337 1.380 . S
C338 C345 1.357 . S
C339 C330 1.511 . S
C339 C340 1.341 . S
C339 C341 1.371 . S
C340 C339 1.341 . S
C340 C344 1.394 . S
C340 H356 0.930 . S
C341 C339 1.371 . S
C341 C342 1.392 . S
C341 H357 0.931 . S
C342 C341 1.392 . S
C342 C343 1.331 . S
C342 H360 0.932 . S
C343 C342 1.331 . S
C343 C344 1.336 . S
C344 C340 1.394 . S
C344 C343 1.336 . S
C344 H359 0.929 . S
C345 C335 1.386 . S
C345 C338 1.357 . S
C345 H358 0.928 . S
H346 C322 0.931 . S
H347 C324 0.930 . S
H348 C326 0.929 . S
H349 C327 0.931 . S
H350 C329 0.930 . S
H351 C333 0.931 . S
H352 C331 0.947 . S
H353 C335 0.931 . S
H354 C336 0.929 . S
H355 C337 0.930 . S
H356 C340 0.930 . S
H357 C341 0.931 . S
H358 C345 0.928 . S
H359 C344 0.929 . S
H360 C342 0.932 . S
C361 C362 1.386 . S
C361 C363 1.397 . S
C361 H385 0.931 . S
C362 C361 1.386 . S
C362 C366 1.397 . S
C363 C361 1.397 . S
C363 C364 1.384 . S
C363 H386 0.930 . S
C364 C363 1.384 . S
C364 C365 1.377 . S
C364 C367 1.481 . S
C365 C364 1.377 . S
C365 C366 1.389 . S
C365 H387 0.929 . S
C366 C362 1.397 . S
C366 C365 1.389 . S
C366 H388 0.931 . S
C367 C364 1.481 . S
C367 C368 1.387 . S
C367 C372 1.390 1_556 S
C368 C367 1.387 . S
C368 C369 1.401 1_556 S
C368 H389 0.930 . S
C369 C368 1.401 1_554 S
C369 C370 1.376 . S
C369 C378 1.511 . S
C370 C369 1.376 . S
C370 C371 1.392 . S
C370 H391 0.931 . S
C371 C370 1.392 . S
C371 C372 1.361 . S
C371 C373 1.500 . S
C372 C367 1.390 1_554 S
C372 C371 1.361 . S
C372 H390 0.931 . S
C373 C371 1.500 . S
C373 C374 1.371 . S
C373 C375 1.365 . S
C374 C373 1.371 . S
C374 C384 1.386 . S
C374 H392 0.931 . S
C375 C373 1.365 . S
C375 C376 1.409 . S
C375 H393 0.929 . S
C376 C375 1.409 . S
C376 C377 1.380 . S
C376 H394 0.930 . S
C377 C376 1.380 . S
C377 C384 1.357 . S
C378 C369 1.511 . S
C378 C379 1.341 1_554 S
C378 C380 1.371 . S
C379 C378 1.341 1_556 S
C379 C383 1.394 . S
C379 H395 0.930 . S
C380 C378 1.371 . S
C380 C381 1.392 . S
C380 H396 0.931 . S
C381 C380 1.392 . S
C381 C382 1.331 . S
C381 H399 0.932 . S
C382 C381 1.331 . S
C382 C383 1.336 1_554 S
C383 C379 1.394 . S
C383 C382 1.336 1_556 S
C383 H398 0.929 . S
C384 C374 1.386 . S
C384 C377 1.357 . S
C384 H397 0.928 . S
H385 C361 0.931 . S
H386 C363 0.930 . S
H387 C365 0.929 . S
H388 C366 0.931 . S
H389 C368 0.930 . S
H390 C372 0.931 . S
H391 C370 0.931 . S
H392 C374 0.931 . S
H393 C375 0.929 . S
H394 C376 0.930 . S
H395 C379 0.930 . S
H396 C380 0.931 . S
H397 C384 0.928 . S
H398 C383 0.929 . S
H399 C381 0.932 . S
H400 C406 0.930 . S
H401 C410 0.930 . S
H402 C415 0.929 . S
H403 C413 0.929 . S
H404 C408 0.929 . S
H405 C414 0.929 . S
C406 H400 0.930 . S
C406 C407 1.367 . S
C406 C414 1.378 . S
C407 C406 1.367 . S
C407 C415 1.433 . S
C408 H404 0.929 . S
C408 C410 1.378 . S
C408 C412 1.350 . S
C409 C412 1.463 . S
C409 C414 1.350 . S
C409 N417 1.427 . S
C410 H401 0.930 . S
C410 C408 1.378 . S
C410 C411 1.367 . S
C411 C410 1.367 . S
C411 C413 1.433 . S
C412 C408 1.350 . S
C412 C409 1.463 . S
C412 N416 1.427 . S
C413 H403 0.929 . S
C413 C411 1.433 . S
C413 N416 1.384 . S
C414 H405 0.929 . S
C414 C406 1.378 . S
C414 C409 1.350 . S
C415 H402 0.929 . S
C415 C407 1.433 . S
C415 N417 1.384 . S
N416 C412 1.427 . S
N416 C413 1.384 . S
N417 C409 1.427 . S
N417 C415 1.384 . S
H418 C424 0.930 . S
H419 C428 0.930 . S
H420 C433 0.929 . S
H421 C431 0.929 . S
H422 C426 0.929 . S
H423 C432 0.929 . S
C424 H418 0.930 . S
C424 C425 1.367 . S
C424 C432 1.378 . S
C425 C424 1.367 . S
C425 C433 1.433 . S
C426 H422 0.929 . S
C426 C428 1.378 . S
C426 C430 1.350 . S
C427 C430 1.463 . S
C427 C432 1.350 . S
C427 N435 1.427 . S
C428 H419 0.930 . S
C428 C426 1.378 . S
C428 C429 1.367 . S
C429 C428 1.367 . S
C429 C431 1.433 . S
C430 C426 1.350 . S
C430 C427 1.463 . S
C430 N434 1.427 . S
C431 H421 0.929 . S
C431 C429 1.433 . S
C431 N434 1.384 . S
C432 H423 0.929 . S
C432 C424 1.378 . S
C432 C427 1.350 . S
C433 H420 0.929 . S
C433 C425 1.433 . S
C433 N435 1.384 . S
N434 C430 1.427 . S
N434 C431 1.384 . S
N435 C427 1.427 . S
N435 C433 1.384 . S
H436 C442 0.930 . S
H437 C446 0.930 . S
H438 C451 0.929 . S
H439 C449 0.929 . S
H440 C444 0.929 . S
H441 C450 0.929 . S
C442 H436 0.930 . S
C442 C443 1.367 . S
C442 C450 1.378 . S
C443 C442 1.367 . S
C443 C451 1.433 . S
C444 H440 0.929 . S
C444 C446 1.378 . S
C444 C448 1.350 . S
C445 C448 1.463 . S
C445 C450 1.350 . S
C445 N453 1.427 . S
C446 H437 0.930 . S
C446 C444 1.378 . S
C446 C447 1.367 . S
C447 C446 1.367 . S
C447 C449 1.433 . S
C448 C444 1.350 . S
C448 C445 1.463 . S
C448 N452 1.427 . S
C449 H439 0.929 . S
C449 C447 1.433 . S
C449 N452 1.384 . S
C450 H441 0.929 . S
C450 C442 1.378 . S
C450 C445 1.350 . S
C451 H438 0.929 . S
C451 C443 1.433 . S
C451 N453 1.384 . S
N452 C448 1.427 . S
N452 C449 1.384 . S
N453 C445 1.427 . S
N453 C451 1.384 . S
H454 C460 0.930 . S
H455 C464 0.930 . S
H456 C469 0.929 . S
H457 C467 0.929 . S
H458 C462 0.929 . S
H459 C468 0.929 . S
C460 H454 0.930 . S
C460 C461 1.367 . S
C460 C468 1.378 . S
C461 C460 1.367 . S
C461 C469 1.433 . S
C462 H458 0.929 . S
C462 C464 1.378 . S
C462 C466 1.350 . S
C463 C466 1.463 . S
C463 C468 1.350 . S
C463 N471 1.427 . S
C464 H455 0.930 . S
C464 C462 1.378 . S
C464 C465 1.367 . S
C465 C464 1.367 . S
C465 C467 1.433 . S
C466 C462 1.350 . S
C466 C463 1.463 . S
C466 N470 1.427 . S
C467 H457 0.929 . S
C467 C465 1.433 . S
C467 N470 1.384 . S
C468 H459 0.929 . S
C468 C460 1.378 . S
C468 C463 1.350 . S
C469 H456 0.929 . S
C469 C461 1.433 . S
C469 N471 1.384 . S
N470 C466 1.427 . S
N470 C467 1.384 . S
N471 C463 1.427 . S
N471 C469 1.384 . S
H472 C478 0.930 . S
H473 C482 0.930 . S
H474 C487 0.929 . S
H475 C485 0.929 . S
H476 C480 0.929 . S
H477 C486 0.929 . S
C478 H472 0.930 . S
C478 C479 1.367 . S
C478 C486 1.378 . S
C479 C478 1.367 . S
C479 C487 1.433 . S
C480 H476 0.929 . S
C480 C482 1.378 . S
C480 C484 1.350 . S
C481 C484 1.463 . S
C481 C486 1.350 . S
C481 N489 1.427 . S
C482 H473 0.930 . S
C482 C480 1.378 . S
C482 C483 1.367 . S
C483 C482 1.367 . S
C483 C485 1.433 . S
C484 C480 1.350 . S
C484 C481 1.463 . S
C484 N488 1.427 . S
C485 H475 0.929 . S
C485 C483 1.433 . S
C485 N488 1.384 . S
C486 H477 0.929 . S
C486 C478 1.378 . S
C486 C481 1.350 . S
C487 H474 0.929 . S
C487 C479 1.433 . S
C487 N489 1.384 . S
N488 C484 1.427 . S
N488 C485 1.384 . S
N489 C481 1.427 . S
N489 C487 1.384 . S
H490 C496 0.930 . S
H491 C500 0.930 . S
H492 C505 0.929 . S
H493 C503 0.929 . S
H494 C498 0.929 . S
H495 C504 0.929 . S
C496 H490 0.930 . S
C496 C497 1.367 . S
C496 C504 1.378 . S
C497 C496 1.367 . S
C497 C505 1.433 . S
C498 H494 0.929 . S
C498 C500 1.378 . S
C498 C502 1.350 . S
C499 C502 1.463 . S
C499 C504 1.350 . S
C499 N507 1.427 . S
C500 H491 0.930 . S
C500 C498 1.378 . S
C500 C501 1.367 . S
C501 C500 1.367 . S
C501 C503 1.433 . S
C502 C498 1.350 . S
C502 C499 1.463 . S
C502 N506 1.427 . S
C503 H493 0.929 . S
C503 C501 1.433 . S
C503 N506 1.384 . S
C504 H495 0.929 . S
C504 C496 1.378 . S
C504 C499 1.350 . S
C505 H492 0.929 . S
C505 C497 1.433 . S
C505 N507 1.384 . S
N506 C502 1.427 . S
N506 C503 1.384 . S
N507 C499 1.427 . S
N507 C505 1.384 . S
H508 C514 0.930 . S
H509 C518 0.930 . S
H510 C523 0.929 . S
H511 C521 0.929 . S
H512 C516 0.929 . S
H513 C522 0.929 . S
C514 H508 0.930 . S
C514 C515 1.367 . S
C514 C522 1.378 . S
C515 C514 1.367 . S
C515 C523 1.433 . S
C516 H512 0.929 . S
C516 C518 1.378 . S
C516 C520 1.350 . S
C517 C520 1.463 . S
C517 C522 1.350 . S
C517 N525 1.427 . S
C518 H509 0.930 . S
C518 C516 1.378 . S
C518 C519 1.367 . S
C519 C518 1.367 . S
C519 C521 1.433 . S
C520 C516 1.350 . S
C520 C517 1.463 . S
C520 N524 1.427 . S
C521 H511 0.929 . S
C521 C519 1.433 . S
C521 N524 1.384 . S
C522 H513 0.929 . S
C522 C514 1.378 . S
C522 C517 1.350 . S
C523 H510 0.929 . S
C523 C515 1.433 . S
C523 N525 1.384 . S
N524 C520 1.427 . S
N524 C521 1.384 . S
N525 C517 1.427 . S
N525 C523 1.384 . S
H526 C532 0.930 . S
H527 C536 0.930 . S
H528 C541 0.929 . S
H529 C539 0.929 . S
H530 C534 0.929 . S
H531 C540 0.929 . S
C532 H526 0.930 . S
C532 C533 1.367 . S
C532 C540 1.378 . S
C533 C532 1.367 . S
C533 C541 1.433 . S
C534 H530 0.929 . S
C534 C536 1.378 . S
C534 C538 1.350 . S
C535 C538 1.463 . S
C535 C540 1.350 . S
C535 N543 1.427 . S
C536 H527 0.930 . S
C536 C534 1.378 . S
C536 C537 1.367 . S
C537 C536 1.367 . S
C537 C539 1.433 . S
C538 C534 1.350 . S
C538 C535 1.463 . S
C538 N542 1.427 . S
C539 H529 0.929 . S
C539 C537 1.433 . S
C539 N542 1.384 . S
C540 H531 0.929 . S
C540 C532 1.378 . S
C540 C535 1.350 . S
C541 H528 0.929 . S
C541 C533 1.433 . S
C541 N543 1.384 . S
N542 C538 1.427 . S
N542 C539 1.384 . S
N543 C535 1.427 . S
N543 C541 1.384 . S
H544 C550 0.930 . S
H545 C554 0.930 . S
H546 C559 0.929 . S
H547 C557 0.929 . S
H548 C552 0.929 . S
H549 C558 0.929 . S
C550 H544 0.930 . S
C550 C551 1.367 . S
C550 C558 1.378 . S
C551 C550 1.367 . S
C551 C559 1.433 . S
C552 H548 0.929 . S
C552 C554 1.378 . S
C552 C556 1.350 . S
C553 C556 1.463 . S
C553 C558 1.350 . S
C553 N561 1.427 . S
C554 H545 0.930 . S
C554 C552 1.378 . S
C554 C555 1.367 . S
C555 C554 1.367 . S
C555 C557 1.433 . S
C556 C552 1.350 . S
C556 C553 1.463 . S
C556 N560 1.427 . S
C557 H547 0.929 . S
C557 C555 1.433 . S
C557 N560 1.384 . S
C558 H549 0.929 . S
C558 C550 1.378 . S
C558 C553 1.350 . S
C559 H546 0.929 . S
C559 C551 1.433 . S
C559 N561 1.384 . S
N560 C556 1.427 . S
N560 C557 1.384 . S
N561 C553 1.427 . S
N561 C559 1.384 . S
H562 C568 0.930 . S
H563 C572 0.930 . S
H564 C577 0.929 . S
H565 C575 0.929 . S
H566 C570 0.929 . S
H567 C576 0.929 . S
C568 H562 0.930 . S
C568 C569 1.367 . S
C568 C576 1.378 . S
C569 C568 1.367 . S
C569 C577 1.433 . S
C570 H566 0.929 . S
C570 C572 1.378 . S
C570 C574 1.350 . S
C571 C574 1.463 . S
C571 C576 1.350 . S
C571 N579 1.427 . S
C572 H563 0.930 . S
C572 C570 1.378 . S
C572 C573 1.367 . S
C573 C572 1.367 . S
C573 C575 1.433 . S
C574 C570 1.350 . S
C574 C571 1.463 . S
C574 N578 1.427 . S
C575 H565 0.929 . S
C575 C573 1.433 . S
C575 N578 1.384 . S
C576 H567 0.929 . S
C576 C568 1.378 . S
C576 C571 1.350 . S
C577 H564 0.929 . S
C577 C569 1.433 . S
C577 N579 1.384 . S
N578 C574 1.427 . S
N578 C575 1.384 . S
N579 C571 1.427 . S
N579 C577 1.384 . S
H580 C586 0.930 . S
H581 C590 0.930 . S
H582 C595 0.929 . S
H583 C593 0.929 . S
H584 C588 0.929 . S
H585 C594 0.929 . S
C586 H580 0.930 . S
C586 C587 1.367 . S
C586 C594 1.378 . S
C587 C586 1.367 . S
C587 C595 1.433 . S
C588 H584 0.929 . S
C588 C590 1.378 . S
C588 C592 1.350 . S
C589 C592 1.463 . S
C589 C594 1.350 . S
C589 N597 1.427 . S
C590 H581 0.930 . S
C590 C588 1.378 . S
C590 C591 1.367 . S
C591 C590 1.367 . S
C591 C593 1.433 . S
C592 C588 1.350 . S
C592 C589 1.463 . S
C592 N596 1.427 . S
C593 H583 0.929 . S
C593 C591 1.433 . S
C593 N596 1.384 . S
C594 H585 0.929 . S
C594 C586 1.378 . S
C594 C589 1.350 . S
C595 H582 0.929 . S
C595 C587 1.433 . S
C595 N597 1.384 . S
N596 C592 1.427 . S
N596 C593 1.384 . S
N597 C589 1.427 . S
N597 C595 1.384 . S
H598 C604 0.930 . S
H599 C608 0.930 . S
H600 C613 0.929 . S
H601 C611 0.929 . S
H602 C606 0.929 . S
H603 C612 0.929 . S
C604 H598 0.930 . S
C604 C605 1.367 . S
C604 C612 1.378 . S
C605 C604 1.367 . S
C605 C613 1.433 . S
C606 H602 0.929 . S
C606 C608 1.378 . S
C606 C610 1.350 . S
C607 C610 1.463 . S
C607 C612 1.350 . S
C607 N615 1.427 . S
C608 H599 0.930 . S
C608 C606 1.378 . S
C608 C609 1.367 . S
C609 C608 1.367 . S
C609 C611 1.433 . S
C610 C606 1.350 . S
C610 C607 1.463 . S
C610 N614 1.427 . S
C611 H601 0.929 . S
C611 C609 1.433 . S
C611 N614 1.384 . S
C612 H603 0.929 . S
C612 C604 1.378 . S
C612 C607 1.350 . S
C613 H600 0.929 . S
C613 C605 1.433 . S
C613 N615 1.384 . S
N614 C610 1.427 . S
N614 C611 1.384 . S
N615 C607 1.427 . S
N615 C613 1.384 . S
H616 C622 0.930 . S
H617 C626 0.930 . S
H618 C631 0.929 . S
H619 C629 0.929 . S
H620 C624 0.929 . S
H621 C630 0.929 . S
C622 H616 0.930 . S
C622 C623 1.367 . S
C622 C630 1.378 . S
C623 C622 1.367 . S
C623 C631 1.433 . S
C624 H620 0.929 . S
C624 C626 1.378 . S
C624 C628 1.350 . S
C625 C628 1.463 . S
C625 C630 1.350 . S
C625 N633 1.427 . S
C626 H617 0.930 . S
C626 C624 1.378 . S
C626 C627 1.367 . S
C627 C626 1.367 . S
C627 C629 1.433 . S
C628 C624 1.350 . S
C628 C625 1.463 . S
C628 N632 1.427 . S
C629 H619 0.929 . S
C629 C627 1.433 . S
C629 N632 1.384 . S
C630 H621 0.929 . S
C630 C622 1.378 . S
C630 C625 1.350 . S
C631 H618 0.929 . S
C631 C623 1.433 . S
C631 N633 1.384 . S
N632 C628 1.427 . S
N632 C629 1.384 . S
N633 C625 1.427 . S
N633 C631 1.384 . S
H634 C640 0.930 . S
H635 C644 0.930 . S
H636 C649 0.929 . S
H637 C647 0.929 . S
H638 C642 0.929 . S
H639 C648 0.929 . S
C640 H634 0.930 . S
C640 C641 1.367 . S
C640 C648 1.378 . S
C641 C640 1.367 . S
C641 C649 1.433 . S
C642 H638 0.929 . S
C642 C644 1.378 . S
C642 C646 1.350 . S
C643 C646 1.463 . S
C643 C648 1.350 . S
C643 N651 1.427 . S
C644 H635 0.930 . S
C644 C642 1.378 . S
C644 C645 1.367 . S
C645 C644 1.367 . S
C645 C647 1.433 . S
C646 C642 1.350 . S
C646 C643 1.463 . S
C646 N650 1.427 . S
C647 H637 0.929 . S
C647 C645 1.433 . S
C647 N650 1.384 . S
C648 H639 0.929 . S
C648 C640 1.378 . S
C648 C643 1.350 . S
C649 H636 0.929 . S
C649 C641 1.433 . S
C649 N651 1.384 . S
N650 C646 1.427 . S
N650 C647 1.384 . S
N651 C643 1.427 . S
N651 C649 1.384 . S
H652 C658 0.930 . S
H653 C662 0.930 . S
H654 C667 0.929 . S
H655 C665 0.929 . S
H656 C660 0.929 . S
H657 C666 0.929 . S
C658 H652 0.930 . S
C658 C659 1.367 . S
C658 C666 1.378 . S
C659 C658 1.367 . S
C659 C667 1.433 . S
C660 H656 0.929 . S
C660 C662 1.378 . S
C660 C664 1.350 . S
C661 C664 1.463 . S
C661 C666 1.350 . S
C661 N669 1.427 . S
C662 H653 0.930 . S
C662 C660 1.378 . S
C662 C663 1.367 . S
C663 C662 1.367 . S
C663 C665 1.433 . S
C664 C660 1.350 . S
C664 C661 1.463 . S
C664 N668 1.427 . S
C665 H655 0.929 . S
C665 C663 1.433 . S
C665 N668 1.384 . S
C666 H657 0.929 . S
C666 C658 1.378 . S
C666 C661 1.350 . S
C667 H654 0.929 . S
C667 C659 1.433 . S
C667 N669 1.384 . S
N668 C664 1.427 . S
N668 C665 1.384 . S
N669 C661 1.427 . S
N669 C667 1.384 . S
H670 C676 0.930 . S
H671 C680 0.930 . S
H672 C685 0.929 . S
H673 C683 0.929 . S
H674 C678 0.929 . S
H675 C684 0.929 . S
C676 H670 0.930 . S
C676 C677 1.367 . S
C676 C684 1.378 . S
C677 C676 1.367 . S
C677 C685 1.433 . S
C678 H674 0.929 . S
C678 C680 1.378 . S
C678 C682 1.350 . S
C679 C682 1.463 . S
C679 C684 1.350 . S
C679 N687 1.427 . S
C680 H671 0.930 . S
C680 C678 1.378 . S
C680 C681 1.367 . S
C681 C680 1.367 . S
C681 C683 1.433 . S
C682 C678 1.350 . S
C682 C679 1.463 . S
C682 N686 1.427 . S
C683 H673 0.929 . S
C683 C681 1.433 . S
C683 N686 1.384 . S
C684 H675 0.929 . S
C684 C676 1.378 . S
C684 C679 1.350 . S
C685 H672 0.929 . S
C685 C677 1.433 . S
C685 N687 1.384 . S
N686 C682 1.427 . S
N686 C683 1.384 . S
N687 C679 1.427 . S
N687 C685 1.384 . S
H688 C694 0.930 . S
H689 C698 0.930 . S
H690 C703 0.929 . S
H691 C701 0.929 . S
H692 C696 0.929 . S
H693 C702 0.929 . S
C694 H688 0.930 . S
C694 C695 1.367 1_556 S
C694 C702 1.378 . S
C695 C694 1.367 1_554 S
C695 C703 1.433 . S
C696 H692 0.929 . S
C696 C698 1.378 . S
C696 C700 1.350 . S
C697 C700 1.463 . S
C697 C702 1.347 1_554 S
C697 N705 1.431 . S
C698 H689 0.930 . S
C698 C696 1.378 . S
C698 C699 1.372 . S
C699 C698 1.372 . S
C699 C701 1.428 1_554 S
C700 C696 1.350 . S
C700 C697 1.463 . S
C700 N704 1.427 1_554 S
C701 H691 0.929 . S
C701 C699 1.428 1_556 S
C701 N704 1.384 . S
C702 H693 0.929 . S
C702 C694 1.378 . S
C702 C697 1.347 1_556 S
C703 H690 0.929 . S
C703 C695 1.433 . S
C703 N705 1.384 . S
N704 C700 1.427 1_556 S
N704 C701 1.384 . S
N705 C697 1.431 . S
N705 C703 1.384 . S
H706 C712 0.930 . S
H707 C716 0.930 . S
H708 C721 0.929 . S
H709 C719 0.929 . S
H710 C714 0.929 . S
H711 C720 0.929 . S
C712 H706 0.930 . S
C712 C713 1.367 . S
C712 C720 1.378 . S
C713 C712 1.367 . S
C713 C721 1.433 . S
C714 H710 0.929 . S
C714 C716 1.378 . S
C714 C718 1.350 . S
C715 C718 1.463 . S
C715 C720 1.350 . S
C715 N723 1.427 . S
C716 H707 0.930 . S
C716 C714 1.378 . S
C716 C717 1.367 . S
C717 C716 1.367 . S
C717 C719 1.433 . S
C718 C714 1.350 . S
C718 C715 1.463 . S
C718 N722 1.427 . S
C719 H709 0.929 . S
C719 C717 1.433 . S
C719 N722 1.384 . S
C720 H711 0.929 . S
C720 C712 1.378 . S
C720 C715 1.350 . S
C721 H708 0.929 . S
C721 C713 1.433 . S
C721 N723 1.384 . S
N722 C718 1.427 . S
N722 C719 1.384 . S
N723 C715 1.427 . S
N723 C721 1.384 . S
H724 C730 0.930 . S
H725 C734 0.930 . S
H726 C739 0.929 . S
H727 C737 0.929 . S
H728 C732 0.929 . S
H729 C738 0.929 . S
C730 H724 0.930 . S
C730 C731 1.367 . S
C730 C738 1.378 . S
C731 C730 1.367 . S
C731 C739 1.433 1_554 S
C732 H728 0.929 . S
C732 C734 1.378 . S
C732 C736 1.349 1_556 S
C733 C736 1.463 . S
C733 C738 1.350 . S
C733 N741 1.427 1_554 S
C734 H725 0.930 . S
C734 C732 1.378 . S
C734 C735 1.357 1_556 S
C735 C734 1.357 1_554 S
C735 C737 1.443 . S
C736 C732 1.349 1_554 S
C736 C733 1.463 . S
C736 N740 1.429 . S
C737 H727 0.929 . S
C737 C735 1.443 . S
C737 N740 1.384 . S
C738 H729 0.929 . S
C738 C730 1.378 . S
C738 C733 1.350 . S
C739 H726 0.929 . S
C739 C731 1.433 1_556 S
C739 N741 1.384 . S
N740 C736 1.429 . S
N740 C737 1.384 . S
N741 C733 1.427 1_556 S
N741 C739 1.384 . S
H742 C748 0.930 . S
H743 C752 0.930 . S
H744 C757 0.929 . S
H745 C755 0.929 . S
H746 C750 0.929 . S
H747 C756 0.929 . S
C748 H742 0.930 . S
C748 C749 1.367 . S
C748 C756 1.378 . S
C749 C748 1.367 . S
C749 C757 1.433 . S
C750 H746 0.929 . S
C750 C752 1.378 . S
C750 C754 1.350 . S
C751 C754 1.463 . S
C751 C756 1.350 . S
C751 N759 1.427 . S
C752 H743 0.930 . S
C752 C750 1.378 . S
C752 C753 1.367 . S
C753 C752 1.367 . S
C753 C755 1.433 . S
C754 C750 1.350 . S
C754 C751 1.463 . S
C754 N758 1.427 . S
C755 H745 0.929 . S
C755 C753 1.433 . S
C755 N758 1.384 . S
C756 H747 0.929 . S
C756 C748 1.378 . S
C756 C751 1.350 . S
C757 H744 0.929 . S
C757 C749 1.433 . S
C757 N759 1.384 . S
N758 C754 1.427 . S
N758 C755 1.384 . S
N759 C751 1.427 . S
N759 C757 1.384 . S
H760 C766 0.930 . S
H761 C770 0.930 . S
H762 C775 0.929 . S
H763 C773 0.929 . S
H764 C768 0.929 . S
H765 C774 0.929 . S
C766 H760 0.930 . S
C766 C767 1.367 . S
C766 C774 1.378 . S
C767 C766 1.367 . S
C767 C775 1.433 . S
C768 H764 0.929 . S
C768 C770 1.378 . S
C768 C772 1.350 . S
C769 C772 1.463 . S
C769 C774 1.350 . S
C769 N777 1.427 . S
C770 H761 0.930 . S
C770 C768 1.378 . S
C770 C771 1.367 . S
C771 C770 1.367 . S
C771 C773 1.433 . S
C772 C768 1.350 . S
C772 C769 1.463 . S
C772 N776 1.427 . S
C773 H763 0.929 . S
C773 C771 1.433 . S
C773 N776 1.384 . S
C774 H765 0.929 . S
C774 C766 1.378 . S
C774 C769 1.350 . S
C775 H762 0.929 . S
C775 C767 1.433 . S
C775 N777 1.384 . S
N776 C772 1.427 . S
N776 C773 1.384 . S
N777 C769 1.427 . S
N777 C775 1.384 . S
H778 C784 0.930 . S
H779 C788 0.930 . S
H780 C793 0.929 . S
H781 C791 0.929 . S
H782 C786 0.929 . S
H783 C792 0.929 . S
C784 H778 0.930 . S
C784 C785 1.369 . S
C784 C792 1.378 . S
C785 C784 1.369 . S
C785 C793 1.431 1_556 S
C786 H782 0.929 . S
C786 C788 1.378 . S
C786 C790 1.350 . S
C787 C790 1.462 1_556 S
C787 C792 1.360 . S
C787 N795 1.418 1_556 S
C788 H779 0.930 . S
C788 C786 1.378 . S
C788 C789 1.367 . S
C789 C788 1.367 . S
C789 C791 1.433 1_554 S
C790 C786 1.350 . S
C790 C787 1.462 1_554 S
C790 N794 1.427 1_554 S
C791 H781 0.929 . S
C791 C789 1.433 1_556 S
C791 N794 1.384 . S
C792 H783 0.929 . S
C792 C784 1.378 . S
C792 C787 1.360 . S
C793 H780 0.929 . S
C793 C785 1.431 1_554 S
C793 N795 1.384 . S
N794 C790 1.427 1_556 S
N794 C791 1.384 . S
N795 C787 1.418 1_554 S
N795 C793 1.384 . S
H796 C802 0.930 . S
H797 C806 0.930 . S
H798 C811 0.929 . S
H799 C809 0.929 . S
H800 C804 0.929 . S
H801 C810 0.929 . S
C802 H796 0.930 . S
C802 C803 1.367 . S
C802 C810 1.378 . S
C803 C802 1.367 . S
C803 C811 1.433 . S
C804 H800 0.929 . S
C804 C806 1.378 . S
C804 C808 1.350 . S
C805 C808 1.463 . S
C805 C810 1.350 . S
C805 N813 1.427 . S
C806 H797 0.930 . S
C806 C804 1.378 . S
C806 C807 1.367 . S
C807 C806 1.367 . S
C807 C809 1.433 . S
C808 C804 1.350 . S
C808 C805 1.463 . S
C808 N812 1.427 . S
C809 H799 0.929 . S
C809 C807 1.433 . S
C809 N812 1.384 . S
C810 H801 0.929 . S
C810 C802 1.378 . S
C810 C805 1.350 . S
C811 H798 0.929 . S
C811 C803 1.433 . S
C811 N813 1.384 . S
N812 C808 1.427 . S
N812 C809 1.384 . S
N813 C805 1.427 . S
N813 C811 1.384 . S
H814 C820 0.930 . S
H815 C824 0.930 . S
H816 C829 0.929 . S
H817 C827 0.929 . S
H818 C822 0.929 . S
H819 C828 0.929 . S
C820 H814 0.930 . S
C820 C821 1.367 . S
C820 C828 1.378 . S
C821 C820 1.367 . S
C821 C829 1.433 1_554 S
C822 H818 0.929 . S
C822 C824 1.378 . S
C822 C826 1.352 . S
C823 C826 1.462 1_554 S
C823 C828 1.350 . S
C823 N831 1.427 1_554 S
C824 H815 0.930 . S
C824 C822 1.378 . S
C824 C825 1.364 1_556 S
C825 C824 1.364 1_554 S
C825 C827 1.436 . S
C826 C822 1.352 . S
C826 C823 1.462 1_556 S
C826 N830 1.425 1_556 S
C827 H817 0.929 . S
C827 C825 1.436 . S
C827 N830 1.384 . S
C828 H819 0.929 . S
C828 C820 1.378 . S
C828 C823 1.350 . S
C829 H816 0.929 . S
C829 C821 1.433 1_556 S
C829 N831 1.384 . S
N830 C826 1.425 1_554 S
N830 C827 1.384 . S
N831 C823 1.427 1_556 S
N831 C829 1.384 . S
C407 C21 1.617 . S
C411 C221 1.609 . S
C425 C40 1.741 . S
C429 C89 1.686 . S
C447 C128 1.559 . S
C443 C54 1.595 . S
C461 C73 1.777 . S
C465 C182 1.728 . S
C483 C284 1.563 . S
C479 C74 1.597 . S
C501 C338 1.684 . S
C497 C10 1.738 . S
C519 C377 1.604 . S
C515 C37 1.616 . S
C537 C245 1.732 . S
C533 C65 1.781 . S
C551 C52 1.596 . S
C555 C143 1.561 . S
C569 C87 1.775 . S
C573 C167 1.724 . S
C587 C15 1.629 . S
C591 C206 1.618 . S
C609 C104 1.668 . S
C605 C32 1.733 . S
C623 C29 1.625 . S
C627 C362 1.610 . S
C645 C260 1.716 . S
C641 C59 1.778 . S
C663 C299 1.570 . S
C659 C84 1.599 . S
C677 C8 1.737 . S
C681 C323 1.678 . S
C699 C109 1.808 . S
C695 C7 1.850 . S
C717 C148 1.652 . S
C713 C30 1.679 . S
C731 C62 1.867 . S
C735 C187 1.804 . S
C749 C81 1.667 . S
C753 C226 1.675 . S
C771 C265 1.820 . S
C767 C76 1.866 . S
C785 C18 1.681 . S
C789 C304 1.655 . S
C803 C43 1.851 . S
C807 C343 1.783 . S
C821 C51 1.667 1_554 S
C825 C382 1.675 . S
