# Generated by pormake.
# Topology anh, (6,3)-cn, num edge types: 1
# Building blocks:
#     Node 0, Type 0, BuildingBlock: BETFAJ_clean_sbu_0, # of connection points: 6
#     Node 1, Type 0, BuildingBlock: BETFAJ_clean_sbu_0, # of connection points: 6
#     Node 2, Type 0, BuildingBlock: BETFAJ_clean_sbu_0, # of connection points: 6
#     Node 3, Type 1, BuildingBlock: PAMTOO_clean_linker_0, # of connection points: 3
#     Node 4, Type 1, BuildingBlock: PAMTOO_clean_linker_0, # of connection points: 3
#     Node 5, Type 1, BuildingBlock: PAMTOO_clean_linker_0, # of connection points: 3
#     Node 6, Type 1, BuildingBlock: PAMTOO_clean_linker_0, # of connection points: 3
#     Node 7, Type 1, BuildingBlock: PAMTOO_clean_linker_0, # of connection points: 3
#     Node 8, Type 1, BuildingBlock: PAMTOO_clean_linker_0, # of connection points: 3
#     Edge 9, Type (0, 1), BuildingBlock: TEMPAE_clean_linker_10, # of connection points: 2
#     Edge 10, Type (0, 1), BuildingBlock: TEMPAE_clean_linker_10, # of connection points: 2
#     Edge 11, Type (0, 1), BuildingBlock: TEMPAE_clean_linker_10, # of connection points: 2
#     Edge 12, Type (0, 1), BuildingBlock: TEMPAE_clean_linker_10, # of connection points: 2
#     Edge 13, Type (0, 1), BuildingBlock: TEMPAE_clean_linker_10, # of connection points: 2
#     Edge 14, Type (0, 1), BuildingBlock: TEMPAE_clean_linker_10, # of connection points: 2
#     Edge 15, Type (0, 1), BuildingBlock: TEMPAE_clean_linker_10, # of connection points: 2
#     Edge 16, Type (0, 1), BuildingBlock: TEMPAE_clean_linker_10, # of connection points: 2
#     Edge 17, Type (0, 1), BuildingBlock: TEMPAE_clean_linker_10, # of connection points: 2
#     Edge 18, Type (0, 1), BuildingBlock: TEMPAE_clean_linker_10, # of connection points: 2
#     Edge 19, Type (0, 1), BuildingBlock: TEMPAE_clean_linker_10, # of connection points: 2
#     Edge 20, Type (0, 1), BuildingBlock: TEMPAE_clean_linker_10, # of connection points: 2
#     Edge 21, Type (0, 1), BuildingBlock: TEMPAE_clean_linker_10, # of connection points: 2
#     Edge 22, Type (0, 1), BuildingBlock: TEMPAE_clean_linker_10, # of connection points: 2
#     Edge 23, Type (0, 1), BuildingBlock: TEMPAE_clean_linker_10, # of connection points: 2
#     Edge 24, Type (0, 1), BuildingBlock: TEMPAE_clean_linker_10, # of connection points: 2
#     Edge 25, Type (0, 1), BuildingBlock: TEMPAE_clean_linker_10, # of connection points: 2
#     Edge 26, Type (0, 1), BuildingBlock: TEMPAE_clean_linker_10, # of connection points: 2
# Relax obj value: 0.164
# Max RMSD: 0.184
# Mean RMSD: 0.125
data_MOF--net-anh--node1-BETFAJ_clean_sbu_0--node2-PAMTOO_clean_linker_0--edge1-TEMPAE_clean_linker_10
_symmetry_space_group_name_H-M    P1
_symmetry_Int_Tables_number       1
_symmetry_cell_setting            triclinic
loop_
_symmetry_equiv_pos_as_xyz
'x, y, z'
_cell_length_a     31.827013
_cell_length_b     38.326106
_cell_length_c     49.739576
_cell_angle_alpha  87.635646
_cell_angle_beta   92.067386
_cell_angle_gamma 130.04419
loop_
_atom_site_label
_atom_site_type_symbol
_atom_site_fract_x
_atom_site_fract_y
_atom_site_fract_z
_atom_type_partial_charge
Sm0 Sm 0.22847 0.57987 0.13734 0.0
Sm1 Sm 0.15232 0.6043 0.15359 0.0
C2 C 0.28208 0.56267 0.10914 0.0
C3 C 0.2959 0.53272 0.11067 0.0
C4 C 0.30164 0.51799 0.08682 0.0
C5 C 0.3124 0.4879 0.08773 0.0
C6 C 0.31765 0.47201 0.11257 0.0
C7 C 0.31245 0.48735 0.13647 0.0
C8 C 0.30144 0.5173 0.13552 0.0
C9 C 0.22105 0.57946 0.19252 0.0
C10 C 0.28273 0.68731 0.14709 0.0
C11 C 0.08074 0.60633 0.17722 0.0
C12 C 1.02237 0.57176 0.18382 0.0
C13 C 0.99182 0.58517 0.18931 0.0
C14 C 0.93465 0.55265 0.19098 0.0
C15 C 0.9071 0.50629 0.1866 0.0
C16 C 0.93848 0.49284 0.1829 0.0
C17 C 0.99558 0.52528 0.18174 0.0
C18 C 0.17632 0.61285 0.09993 0.0
C19 C 0.09682 0.49519 0.14719 0.0
O20 O 0.30605 0.59524 0.12669 0.0
O21 O 0.23015 0.54239 0.10517 0.0
O22 O 0.20051 0.58818 0.17441 0.0
O23 O 0.24936 0.57044 0.18135 0.0
O24 O 0.28428 0.65923 0.13312 0.0
O25 O 0.23851 0.67264 0.16046 0.0
O26 O 0.11461 0.60345 0.19062 0.0
O27 O 0.09121 0.61456 0.15147 0.0
O28 O 0.16651 0.58238 0.11623 0.0
O29 O 0.17031 0.63922 0.11157 0.0
O30 O 0.09025 0.52557 0.15059 0.0
O31 O 0.14536 0.50685 0.14274 0.0
H32 H 0.29701 0.52929 0.06745 0.0
H33 H 0.31531 0.47626 0.06896 0.0
H34 H 0.31691 0.47622 0.15593 0.0
H35 H 0.29684 0.52812 0.15418 0.0
H36 H 1.01191 0.62092 0.1912 0.0
H37 H 0.91193 0.56412 0.19455 0.0
H38 H 0.91901 0.45765 0.17923 0.0
H39 H 1.01843 0.51411 0.17795 0.0
Sm40 Sm 0.69659 0.05808 0.47642 0.0
Sm41 Sm 0.62422 0.08018 0.46186 0.0
C42 C 0.74318 0.02657 0.49945 0.0
C43 C 0.73622 0.9847 0.50145 0.0
C44 C 0.68415 0.94141 0.49976 0.0
C45 C 0.6785 0.90209 0.50271 0.0
C46 C 0.72489 0.90546 0.50738 0.0
C47 C 0.77703 0.94902 0.50846 0.0
C48 C 0.78258 0.98821 0.50554 0.0
C49 C 0.69141 0.07065 0.42209 0.0
C50 C 0.56378 0.97347 0.46414 0.0
C51 C 0.57807 0.11513 0.44465 0.0
C52 C 0.58639 0.15688 0.44995 0.0
C53 C 0.63902 0.20003 0.45001 0.0
C54 C 0.6462 0.23872 0.45666 0.0
C55 C 0.60097 0.23507 0.4636 0.0
C56 C 0.54833 0.19178 0.46329 0.0
C57 C 0.54117 0.15321 0.45646 0.0
C58 C 0.63261 0.06831 0.5161 0.0
C59 C 0.75798 0.16483 0.46955 0.0
O60 O 0.70644 0.02575 0.51125 0.0
O61 O 0.75794 0.0479 0.47608 0.0
O62 O 0.65079 0.04938 0.43754 0.0
O63 O 0.73507 0.08227 0.43456 0.0
O64 O 0.60881 0.98651 0.47711 0.0
O65 O 0.56214 1.00401 0.45216 0.0
O66 O 0.61635 0.11989 0.43143 0.0
O67 O 0.55917 0.08573 0.46471 0.0
O68 O 0.67208 0.09104 0.50006 0.0
O69 O 0.58665 0.05113 0.50389 0.0
O70 O 0.71168 0.15069 0.45771 0.0
O71 O 0.76081 0.13555 0.4824 0.0
H72 H 0.64789 0.93804 0.49656 0.0
H73 H 0.63771 0.86911 0.50202 0.0
H74 H 0.81364 0.95283 0.51161 0.0
H75 H 0.82314 0.02137 0.50673 0.0
H76 H 0.67475 0.20387 0.44522 0.0
H77 H 0.68722 0.27151 0.45634 0.0
H78 H 0.51264 0.18742 0.46894 0.0
H79 H 0.50028 0.12024 0.45677 0.0
Sm80 Sm 0.64422 0.55969 0.84566 0.0
Sm81 Sm 0.56089 0.45158 0.84485 0.0
C82 C 0.69846 0.64773 0.83605 0.0
C83 C 0.68788 0.67936 0.82857 0.0
C84 C 0.68031 0.68664 0.80152 0.0
C85 C 0.67313 0.71829 0.7946 0.0
C86 C 0.67361 0.74355 0.81454 0.0
C87 C 0.68075 0.73596 0.84159 0.0
C88 C 0.68801 0.7044 0.8485 0.0
C89 C 0.6153 0.51455 0.89446 0.0
C90 C 0.50564 0.50277 0.84398 0.0
C91 C 0.50996 0.36673 0.86086 0.0
C92 C 0.51832 0.3341 0.85482 0.0
C93 C 0.57085 0.34694 0.85681 0.0
C94 C 0.57904 0.31677 0.84989 0.0
C95 C 0.53503 0.27308 0.8406 0.0
C96 C 0.4824 0.26019 0.83879 0.0
C97 C 0.47417 0.29039 0.84586 0.0
C98 C 0.59314 0.48516 0.79295 0.0
C99 C 0.69996 0.50975 0.84509 0.0
O100 O 0.68935 0.61988 0.81771 0.0
O101 O 0.68397 0.62885 0.86016 0.0
O102 O 0.58404 0.5037 0.87449 0.0
O103 O 0.66479 0.55216 0.88959 0.0
O104 O 0.55729 0.54221 0.84157 0.0
O105 O 0.4963 0.46334 0.84681 0.0
O106 O 0.54899 0.40203 0.87504 0.0
O107 O 0.49122 0.37721 0.841 0.0
O108 O 0.60837 0.50783 0.81402 0.0
O109 O 0.55737 0.442 0.79901 0.0
O110 O 0.64857 0.47038 0.84784 0.0
O111 O 0.7091 0.54895 0.84225 0.0
H112 H 0.68067 0.66839 0.7856 0.0
H113 H 0.66854 0.72376 0.77354 0.0
H114 H 0.68073 0.75444 0.85748 0.0
H115 H 0.69423 0.69992 0.8695 0.0
H116 H 0.60591 0.38048 0.86354 0.0
H117 H 0.61994 0.32769 0.85196 0.0
H118 H 0.44768 0.22707 0.83138 0.0
H119 H 0.43341 0.27982 0.84398 0.0
H120 H 0.78002 0.18073 0.2245 0.0
H121 H 0.64923 0.03901 0.20918 0.0
H122 H 0.72689 0.13515 0.143 0.0
H123 H 0.59936 0.04758 0.13117 0.0
C124 C 0.59738 0.03107 0.15054 0.0
O125 O 0.65006 0.0479 0.15733 0.0
H126 H 0.58143 0.04016 0.16591 0.0
C127 C 0.75327 0.15388 0.21034 0.0
C128 C 0.75942 0.16453 0.18251 0.0
C129 C 0.71333 0.10907 0.22034 0.0
C130 C 0.67933 0.07394 0.20202 0.0
C131 C 0.68377 0.08316 0.1743 0.0
C132 C 0.72383 0.12841 0.1645 0.0
H133 H 0.67937 0.64071 0.59964 0.0
H134 H 0.66639 0.52334 0.58818 0.0
H135 H 0.68255 0.60299 0.5198 0.0
H136 H 0.61375 0.50799 0.50618 0.0
C137 C 0.62254 0.49541 0.52423 0.0
O138 O 0.67175 0.53153 0.53574 0.0
H139 H 0.58819 0.48035 0.53851 0.0
C140 C 0.67758 0.61805 0.58636 0.0
C141 C 0.68109 0.62633 0.5584 0.0
C142 C 0.67251 0.58121 0.59743 0.0
C143 C 0.67144 0.55254 0.58013 0.0
C144 C 0.67506 0.56046 0.55223 0.0
C145 C 0.68054 0.59758 0.54143 0.0
H146 H 1.03933 0.54555 0.90311 0.0
H147 H 0.17122 0.54325 0.89565 0.0
H148 H 1.05557 0.49838 0.82978 0.0
H149 H 0.13172 0.45545 0.83815 0.0
C150 C 0.16003 0.4841 0.85196 0.0
O151 O 0.15325 0.51702 0.84691 0.0
H152 H 0.14524 0.46906 0.87253 0.0
C153 C 1.05931 0.53692 0.89127 0.0
C154 C 1.03816 0.51909 0.86548 0.0
C155 C 0.10565 0.54448 0.90249 0.0
C156 C 0.13516 0.53697 0.88709 0.0
C157 C 0.11866 0.52034 0.86096 0.0
C158 C 1.06926 0.51118 0.84995 0.0
H159 H 0.07696 0.47299 0.38941 0.0
H160 H 0.22422 0.61091 0.40218 0.0
H161 H 0.12858 0.52444 0.46981 0.0
H162 H 0.19051 0.63139 0.47881 0.0
C163 C 0.21288 0.64111 0.45961 0.0
O164 O 0.21608 0.60774 0.45397 0.0
H165 H 0.18888 0.64308 0.4437 0.0
C166 C 0.10626 0.5002 0.40298 0.0
C167 C 0.09764 0.4924 0.43092 0.0
C168 C 0.15171 0.54256 0.39223 0.0
C169 C 0.18824 0.57827 0.40987 0.0
C170 C 0.17942 0.57229 0.43764 0.0
C171 C 0.13418 0.52928 0.44824 0.0
H172 H 0.649 0.97276 0.71359 0.0
H173 H 0.64139 0.0787 0.72879 0.0
H174 H 0.64291 1.00421 0.79461 0.0
H175 H 0.57223 0.02514 0.80803 0.0
C176 C 0.58151 0.04646 0.78966 0.0
O177 O 0.63284 0.06507 0.78057 0.0
H178 H 0.54915 0.02358 0.77439 0.0
C179 C 0.64856 0.99367 0.72736 0.0
C180 C 0.64815 0.9853 0.75519 0.0
C181 C 0.64672 0.02757 0.71722 0.0
C182 C 0.64248 0.05212 0.73564 0.0
C183 C 0.63985 0.04285 0.76332 0.0
C184 C 0.64365 1.01016 0.77309 0.0
H185 H 0.58564 0.36544 0.07536 0.0
H186 H 0.4116 0.28168 0.06174 0.0
H187 H 0.47324 0.25756 0.13198 0.0
H188 H 0.377 0.23334 0.14496 0.0
C189 C 0.35739 0.23068 0.12531 0.0
O190 O 0.38464 0.22962 0.10479 0.0
H191 H 0.31479 0.19762 0.12602 0.0
C192 C 0.54406 0.33719 0.08156 0.0
C193 C 0.53496 0.31323 0.10578 0.0
C194 C 0.49994 0.32612 0.06564 0.0
C195 C 0.44606 0.29067 0.07397 0.0
C196 C 0.43658 0.26555 0.09767 0.0
C197 C 0.48095 0.27686 0.11356 0.0
C198 C 0.29875 0.40191 0.13218 0.0
C199 C 0.32685 0.43852 0.11352 0.0
C200 C 0.30606 0.3695 0.13309 0.0
C201 C 0.34209 0.37354 0.11477 0.0
C202 C 0.37067 0.41036 0.09588 0.0
C203 C 0.36282 0.4425 0.09552 0.0
C204 C 0.27486 0.33069 0.15355 0.0
C205 C 0.40943 0.41576 0.07604 0.0
C206 C 0.39274 0.3096 0.13513 0.0
C207 C 0.35569 0.26897 0.12123 0.0
C208 C 0.38997 0.34465 0.13256 0.0
C209 C 0.34942 0.33892 0.11549 0.0
C210 C 0.3136 0.29873 0.10043 0.0
C211 C 0.31729 0.26421 0.10344 0.0
C212 C 0.42917 0.38712 0.14878 0.0
C213 C 0.2703 0.29163 0.08178 0.0
H214 H 0.27019 0.3981 0.14583 0.0
H215 H 0.3852 0.47098 0.08126 0.0
H216 H 0.24798 0.29766 0.14315 0.0
H217 H 0.30398 0.33065 0.16649 0.0
H218 H 0.24906 0.33284 0.16663 0.0
H219 H 0.42817 0.44612 0.06251 0.0
H220 H 0.44275 0.41895 0.08694 0.0
H221 H 0.38727 0.38503 0.06354 0.0
H222 H 0.42318 0.31349 0.14845 0.0
H223 H 0.28945 0.23303 0.09234 0.0
H224 H 0.40594 0.38932 0.16372 0.0
H225 H 0.45032 0.41794 0.13548 0.0
H226 H 0.46063 0.38757 0.15966 0.0
H227 H 0.23999 0.28976 0.09362 0.0
H228 H 0.24814 0.25986 0.07021 0.0
H229 H 0.28921 0.32094 0.0674 0.0
C230 C 0.85537 0.23183 0.48287 0.0
C231 C 0.80763 0.21426 0.46769 0.0
C232 C 0.9032 0.27795 0.48013 0.0
C233 C 0.90383 0.30733 0.4615 0.0
C234 C 0.85534 0.29 0.44662 0.0
C235 C 0.80799 0.24396 0.44997 0.0
C236 C 0.95356 0.29494 0.49669 0.0
C237 C 0.85398 0.31969 0.42633 0.0
C238 C 1.01677 0.43756 0.46186 0.0
C239 C 1.05093 0.4452 0.44117 0.0
C240 C 0.9697 0.3929 0.46936 0.0
C241 C 0.95617 0.35488 0.45578 0.0
C242 C 0.99165 0.36241 0.4356 0.0
C243 C 1.03851 0.40712 0.42878 0.0
C244 C 0.93353 0.38647 0.49125 0.0
C245 C 0.97922 0.32323 0.42049 0.0
H246 H 0.85563 0.20943 0.49676 0.0
H247 H 0.7716 0.23096 0.43804 0.0
H248 H 0.98627 0.30335 0.48332 0.0
H249 H 0.96976 0.32667 0.50696 0.0
H250 H 0.94504 0.26931 0.51207 0.0
H251 H 0.81228 0.30204 0.41761 0.0
H252 H 0.86806 0.35137 0.43582 0.0
H253 H 0.88254 0.32989 0.40972 0.0
H254 H 1.02573 0.46652 0.47159 0.0
H255 H 1.06521 0.41231 0.41326 0.0
H256 H 0.92564 0.36091 0.50647 0.0
H257 H 0.89323 0.37317 0.48252 0.0
H258 H 0.95202 0.4188 0.50151 0.0
H259 H 0.97489 0.29814 0.4348 0.0
H260 H 1.01163 0.33464 0.40584 0.0
H261 H 0.93959 0.30528 0.40943 0.0
C262 C 0.70129 0.82087 0.81967 0.0
C263 C 0.66812 0.77852 0.80709 0.0
C264 C 0.69768 0.85467 0.81238 0.0
C265 C 0.66013 0.84606 0.79194 0.0
C266 C 0.62609 0.80324 0.77936 0.0
C267 C 0.63045 0.77 0.7871 0.0
C268 C 0.73474 0.89989 0.82625 0.0
C269 C 0.58551 0.79274 0.75749 0.0
C270 C 0.61884 0.91987 0.78635 0.0
C271 C 0.65209 0.95034 0.76529 0.0
C272 C 0.62127 0.88595 0.79539 0.0
C273 C 0.65775 0.88237 0.78305 0.0
C274 C 0.69181 0.91332 0.762 0.0
C275 C 0.68866 0.94694 0.75344 0.0
C276 C 0.5844 0.85364 0.81794 0.0
C277 C 0.73139 0.91077 0.74838 0.0
H278 H 0.73105 0.82803 0.83486 0.0
H279 H 0.60414 0.73718 0.77755 0.0
H280 H 0.76253 0.92758 0.81137 0.0
H281 H 0.70994 0.9075 0.83505 0.0
H282 H 0.7601 0.90054 0.8425 0.0
H283 H 0.56108 0.75743 0.75018 0.0
H284 H 0.55696 0.7973 0.76501 0.0
H285 H 0.60758 0.81691 0.7402 0.0
H286 H 0.59008 0.92194 0.79542 0.0
H287 H 0.71514 0.97081 0.73746 0.0
H288 H 0.60938 0.85512 0.83473 0.0
H289 H 0.55648 0.81813 0.81075 0.0
H290 H 0.55923 0.86158 0.82581 0.0
H291 H 0.76055 0.91448 0.76343 0.0
H292 H 0.75524 0.93756 0.73241 0.0
H293 H 0.70862 0.87692 0.73921 0.0
C294 C 0.82061 0.48704 0.16788 0.0
C295 C 0.84651 0.4732 0.18238 0.0
C296 C 0.76554 0.45542 0.15982 0.0
C297 C 0.73554 0.40856 0.16607 0.0
C298 C 0.76025 0.39447 0.18197 0.0
C299 C 0.81546 0.42702 0.19003 0.0
C300 C 0.74061 0.47198 0.14303 0.0
C301 C 0.7295 0.34483 0.18914 0.0
C302 C 0.58409 0.33882 0.15017 0.0
C303 C 0.58234 0.32839 0.12326 0.0
C304 C 0.63298 0.36196 0.16535 0.0
C305 C 0.6808 0.37466 0.15324 0.0
C306 C 0.67776 0.36062 0.12684 0.0
C307 C 0.62854 0.33777 0.11213 0.0
C308 C 0.63449 0.376 0.1935 0.0
C309 C 0.72761 0.37293 0.11329 0.0
H310 H 0.84413 0.52236 0.16141 0.0
H311 H 0.83476 0.41603 0.20163 0.0
H312 H 0.73309 0.4596 0.12221 0.0
H313 H 0.70048 0.45812 0.15131 0.0
H314 H 0.76764 0.50977 0.14211 0.0
H315 H 0.75097 0.34031 0.20517 0.0
H316 H 0.68742 0.32824 0.19591 0.0
H317 H 0.72553 0.32687 0.17104 0.0
H318 H 0.54834 0.33164 0.15878 0.0
H319 H 0.62686 0.32907 0.09142 0.0
H320 H 0.65509 0.41284 0.19327 0.0
H321 H 0.65841 0.37088 0.20726 0.0
H322 H 0.5926 0.35667 0.20167 0.0
H323 H 0.75691 0.41014 0.10875 0.0
H324 H 0.71683 0.35467 0.09417 0.0
H325 H 0.74902 0.36492 0.12682 0.0
C326 C 0.4649 0.90961 0.45141 0.0
C327 C 0.51457 0.92384 0.4629 0.0
C328 C 0.41774 0.86312 0.45078 0.0
C329 C 0.41994 0.82956 0.46174 0.0
C330 C 0.47014 0.8436 0.47302 0.0
C331 C 0.51658 0.89038 0.47356 0.0
C332 C 0.3652 0.84996 0.43868 0.0
C333 C 0.47471 0.8092 0.48478 0.0
C334 C 0.28358 0.71562 0.48347 0.0
C335 C 0.26945 0.68805 0.46141 0.0
C336 C 0.33287 0.76116 0.48412 0.0
C337 C 0.36924 0.78004 0.4621 0.0
C338 C 0.35573 0.75204 0.44 0.0
C339 C 0.30597 0.70659 0.43985 0.0
C340 C 0.34519 0.78954 0.50806 0.0
C341 C 0.39317 0.77047 0.41614 0.0
H342 H 0.46253 0.93492 0.44313 0.0
H343 H 0.5545 0.90068 0.48246 0.0
H344 H 0.35046 0.82566 0.42221 0.0
H345 H 0.33279 0.83241 0.45416 0.0
H346 H 0.37036 0.87992 0.43051 0.0
H347 H 0.51713 0.82533 0.49174 0.0
H348 H 0.44667 0.79074 0.50208 0.0
H349 H 0.46187 0.78348 0.46959 0.0
H350 H 0.25528 0.70185 0.50004 0.0
H351 H 0.29497 0.6858 0.42256 0.0
H352 H 0.34644 0.81824 0.50157 0.0
H353 H 0.38615 0.80454 0.51671 0.0
H354 H 0.31409 0.76937 0.52408 0.0
H355 H 0.39571 0.798 0.40583 0.0
H356 H 0.37867 0.74371 0.40136 0.0
H357 H 0.43531 0.78565 0.42293 0.0
C358 C 0.59178 0.25775 0.81887 0.0
C359 C 0.54421 0.24133 0.8327 0.0
C360 C 0.60115 0.2283 0.81146 0.0
C361 C 0.5618 0.18114 0.81779 0.0
C362 C 0.51367 0.16428 0.83166 0.0
C363 C 0.50557 0.19455 0.83903 0.0
C364 C 0.65306 0.24764 0.79676 0.0
C365 C 0.47067 0.1142 0.83875 0.0
C366 C 0.55579 0.09536 0.77797 0.0
C367 C 0.57985 0.08363 0.79612 0.0
C368 C 0.55058 0.12771 0.78455 0.0
C369 C 0.57053 0.14918 0.80975 0.0
C370 C 0.59693 0.13876 0.82768 0.0
C371 C 0.60132 0.1061 0.82061 0.0
C372 C 0.52234 0.13793 0.76485 0.0
C373 C 0.61935 0.16131 0.85458 0.0
H374 H 0.62154 0.29369 0.8135 0.0
H375 H 0.46914 0.18157 0.85006 0.0
H376 H 0.67615 0.23901 0.80802 0.0
H377 H 0.64264 0.23217 0.77668 0.0
H378 H 0.68027 0.28528 0.794 0.0
H379 H 0.43537 0.10649 0.84942 0.0
H380 H 0.45513 0.09393 0.8202 0.0
H381 H 0.48908 0.1028 0.85175 0.0
H382 H 0.53986 0.07838 0.75886 0.0
H383 H 0.62054 0.09735 0.83446 0.0
H384 H 0.54926 0.17509 0.76033 0.0
H385 H 0.48438 0.1277 0.7739 0.0
H386 H 0.51123 0.11978 0.74566 0.0
H387 H 0.64801 0.19893 0.8518 0.0
H388 H 0.64126 0.15126 0.86556 0.0
H389 H 0.58527 0.15189 0.86725 0.0
C390 C 0.74935 0.86273 0.53271 0.0
C391 C 0.71889 0.86386 0.51212 0.0
C392 C 0.74313 0.82343 0.53815 0.0
C393 C 0.70542 0.78413 0.52268 0.0
C394 C 0.67514 0.78519 0.50158 0.0
C395 C 0.68217 0.82503 0.49658 0.0
C396 C 0.77599 0.82364 0.56093 0.0
C397 C 0.63469 0.74401 0.4846 0.0
C398 C 0.72224 0.69433 0.5273 0.0
C399 C 0.68435 0.66462 0.54731 0.0
C400 C 0.72837 0.73266 0.51837 0.0
C401 C 0.69576 0.74135 0.5297 0.0
C402 C 0.65603 0.71049 0.54915 0.0
C403 C 0.65077 0.67253 0.55766 0.0
C404 C 0.77107 0.76473 0.49754 0.0
C405 C 0.62024 0.71834 0.56164 0.0
H406 H 0.77719 0.8923 0.54508 0.0
H407 H 0.65899 0.82583 0.48043 0.0
H408 H 0.74784 0.79831 0.57673 0.0
H409 H 0.79923 0.81355 0.55357 0.0
H410 H 0.8054 0.85759 0.57023 0.0
H411 H 0.61631 0.75104 0.46815 0.0
H412 H 0.65518 0.73243 0.47563 0.0
H413 H 0.60116 0.71547 0.49741 0.0
H414 H 0.74843 0.68848 0.5193 0.0
H415 H 0.62063 0.64917 0.57274 0.0
H416 H 0.80407 0.79805 0.50675 0.0
H417 H 0.75261 0.77114 0.48082 0.0
H418 H 0.78984 0.75123 0.48911 0.0
H419 H 0.64616 0.7502 0.57323 0.0
H420 H 0.58929 0.68981 0.57538 0.0
H421 H 0.59852 0.7227 0.54572 0.0
C422 C 0.80317 0.54867 0.85194 0.0
C423 C 0.74883 0.50966 0.8454 0.0
C424 C 0.84831 0.54859 0.85317 0.0
C425 C 0.84122 0.509 0.84687 0.0
C426 C 0.78665 0.46985 0.83956 0.0
C427 C 0.74191 0.47042 0.83935 0.0
C428 C 0.90392 0.59111 0.86196 0.0
C429 C 0.77524 0.42685 0.83172 0.0
C430 C 0.97472 0.52448 0.83312 0.0
C431 C 0.9837 0.50979 0.85758 0.0
C432 C 0.92845 0.52307 0.82895 0.0
C433 C 0.88946 0.5077 0.84977 0.0
C434 C 0.89769 0.49174 0.87407 0.0
C435 C 0.94279 0.4921 0.87733 0.0
C436 C 0.92209 0.53918 0.8022 0.0
C437 C 0.85981 0.47578 0.89748 0.0
H438 H 0.81044 0.57945 0.85686 0.0
H439 H 0.7011 0.43979 0.83403 0.0
H440 H 0.9182 0.58328 0.88008 0.0
H441 H 0.93423 0.60344 0.84591 0.0
H442 H 0.90348 0.61894 0.86669 0.0
H443 H 0.73263 0.4008 0.82401 0.0
H444 H 0.80437 0.43478 0.81601 0.0
H445 H 0.78156 0.41198 0.84936 0.0
H446 H 1.00489 0.53867 0.81743 0.0
H447 H 0.94713 0.47972 0.89631 0.0
H448 H 0.93253 0.57264 0.8045 0.0
H449 H 0.87888 0.51492 0.79495 0.0
H450 H 0.94924 0.54305 0.78673 0.0
H451 H 0.86 0.50352 0.90334 0.0
H452 H 0.87175 0.46534 0.91532 0.0
H453 H 0.81711 0.44649 0.89159 0.0
C454 C 0.32904 0.76797 0.15992 0.0
C455 C 0.33165 0.73722 0.14734 0.0
C456 C 0.37422 0.81507 0.16022 0.0
C457 C 0.4239 0.83241 0.14775 0.0
C458 C 0.42709 0.80159 0.13522 0.0
C459 C 0.38107 0.75457 0.13509 0.0
C460 C 0.36853 0.84641 0.17369 0.0
C461 C 0.47913 0.81837 0.1218 0.0
C462 C 0.51896 0.95882 0.12695 0.0
C463 C 0.55713 0.97931 0.14834 0.0
C464 C 0.47664 0.91118 0.12612 0.0
C465 C 0.47172 0.88288 0.14731 0.0
C466 C 0.5108 0.9033 0.16873 0.0
C467 C 0.55266 0.95115 0.16909 0.0
C468 C 0.43595 0.89127 0.10296 0.0
C469 C 0.5074 0.87469 0.19174 0.0
H470 H 0.29134 0.75534 0.16946 0.0
H471 H 0.38394 0.73139 0.12537 0.0
H472 H 0.40034 0.86554 0.18968 0.0
H473 H 0.37512 0.87184 0.1588 0.0
H474 H 0.32752 0.82766 0.1828 0.0
H475 H 0.47571 0.79011 0.11358 0.0
H476 H 0.48921 0.8427 0.10513 0.0
H477 H 0.51392 0.83702 0.13641 0.0
H478 H 0.52135 0.98028 0.11109 0.0
H479 H 0.5812 0.96665 0.18595 0.0
H480 H 0.39453 0.8752 0.11053 0.0
H481 H 0.43327 0.86419 0.09346 0.0
H482 H 0.44707 0.91743 0.08733 0.0
H483 H 0.4692 0.85833 0.20312 0.0
H484 H 0.54295 0.89517 0.20585 0.0
H485 H 0.50549 0.84699 0.18394 0.0
C486 C 0.65348 0.30914 0.48791 0.0
C487 C 0.60853 0.27589 0.47172 0.0
C488 C 0.65986 0.34682 0.49652 0.0
C489 C 0.6201 0.35122 0.48902 0.0
C490 C 0.57506 0.31815 0.47243 0.0
C491 C 0.56999 0.28111 0.46389 0.0
C492 C 0.70864 0.38148 0.51405 0.0
C493 C 0.53171 0.32154 0.46398 0.0
C494 C 0.60042 0.4196 0.53185 0.0
C495 C 0.62533 0.45947 0.51611 0.0
C496 C 0.59944 0.38449 0.52354 0.0
C497 C 0.62454 0.38964 0.49905 0.0
C498 C 0.6517 0.4307 0.48364 0.0
C499 C 0.65179 0.46517 0.49239 0.0
C500 C 0.57011 0.34133 0.54057 0.0
C501 C 0.67946 0.43774 0.4576 0.0
H502 H 0.68314 0.30523 0.4944 0.0
H503 H 0.53568 0.25616 0.451 0.0
H504 H 0.73133 0.41619 0.50502 0.0
H505 H 0.69442 0.3815 0.53408 0.0
H506 H 0.73741 0.37448 0.51692 0.0
H507 H 0.49959 0.29334 0.45076 0.0
H508 H 0.51169 0.32083 0.48205 0.0
H509 H 0.55089 0.35443 0.45313 0.0
H510 H 0.58054 0.41546 0.55037 0.0
H511 H 0.67157 0.49628 0.48042 0.0
H512 H 0.59803 0.33399 0.54557 0.0
H513 H 0.53478 0.3121 0.52908 0.0
H514 H 0.55472 0.34346 0.5596 0.0
H515 H 0.70914 0.43184 0.46091 0.0
H516 H 0.70154 0.47259 0.44883 0.0
H517 H 0.64843 0.41265 0.44273 0.0
C518 C 0.40205 0.46313 0.84862 0.0
C519 C 0.45697 0.50319 0.84423 0.0
C520 C 0.357 0.46323 0.84937 0.0
C521 C 0.36503 0.50435 0.84557 0.0
C522 C 0.42033 0.54488 0.841 0.0
C523 C 0.46468 0.54385 0.84047 0.0
C524 C 0.30017 0.41874 0.85443 0.0
C525 C 0.43296 0.58992 0.83665 0.0
C526 C 0.23712 0.49504 0.82471 0.0
C527 C 0.2194 0.49938 0.84911 0.0
C528 C 0.28424 0.4978 0.82315 0.0
C529 C 0.31614 0.5048 0.84653 0.0
C530 C 0.29958 0.51083 0.87104 0.0
C531 C 0.25243 0.50808 0.87201 0.0
C532 C 0.29873 0.49147 0.7963 0.0
C533 C 0.33063 0.51849 0.8968 0.0
H534 H 0.39397 0.43115 0.85168 0.0
H535 H 0.50595 0.57547 0.83705 0.0
H536 H 0.28328 0.42101 0.87277 0.0
H537 H 0.27246 0.41182 0.83738 0.0
H538 H 0.2997 0.38957 0.85703 0.0
H539 H 0.47723 0.61844 0.83295 0.0
H540 H 0.40882 0.58798 0.81922 0.0
H541 H 0.42063 0.59768 0.85454 0.0
H542 H 0.21242 0.48732 0.80676 0.0
H543 H 0.23978 0.51065 0.89125 0.0
H544 H 0.29263 0.4595 0.79688 0.0
H545 H 0.34267 0.51992 0.79196 0.0
H546 H 0.27335 0.48973 0.7796 0.0
H547 H 0.32639 0.48791 0.90195 0.0
H548 H 0.3156 0.52537 0.91392 0.0
H549 H 0.37502 0.54761 0.89418 0.0
C550 C 1.0493 0.41332 0.16023 0.0
C551 C 1.0469 0.44598 0.14861 0.0
C552 C 1.00132 0.36744 0.16379 0.0
C553 C 0.94975 0.35324 0.15454 0.0
C554 C 0.94763 0.38586 0.14172 0.0
C555 C 0.99585 0.43182 0.13948 0.0
C556 C 1.00552 0.33459 0.1786 0.0
C557 C 0.89436 0.37271 0.1308 0.0
C558 C 0.83396 0.2238 0.14963 0.0
C559 C 0.80415 0.21324 0.17315 0.0
C560 C 0.87987 0.26927 0.14267 0.0
C561 C 0.89789 0.3052 0.16003 0.0
C562 C 0.86695 0.295 0.18323 0.0
C563 C 0.82004 0.24971 0.18905 0.0
C564 C 0.90961 0.27882 0.11691 0.0
C565 C 0.88429 0.33177 0.20252 0.0
H566 H 0.08842 0.42406 0.16763 0.0
H567 H 0.99357 0.45679 0.13039 0.0
H568 H 0.98042 0.32131 0.19708 0.0
H569 H 0.98888 0.30496 0.16593 0.0
H570 H 1.04848 0.35075 0.18444 0.0
H571 H 0.90161 0.39801 0.11553 0.0
H572 H 0.86852 0.33865 0.12157 0.0
H573 H 0.87092 0.37117 0.14745 0.0
H574 H 0.82253 0.19647 0.13697 0.0
H575 H 0.79638 0.24291 0.20659 0.0
H576 H 0.95118 0.29048 0.12159 0.0
H577 H 0.91489 0.30663 0.10513 0.0
H578 H 0.88741 0.24824 0.10423 0.0
H579 H 0.9277 0.3508 0.2089 0.0
H580 H 0.85844 0.31775 0.22077 0.0
H581 H 0.88151 0.35655 0.19242 0.0
C582 C 0.17574 0.63873 0.05294 0.0
C583 C 0.17718 0.60985 0.07041 0.0
C584 C 0.16955 0.63223 0.02499 0.0
C585 C 0.16544 0.59641 0.01432 0.0
C586 C 0.16985 0.56877 0.03179 0.0
C587 C 0.17503 0.57553 0.05961 0.0
C588 C 0.16447 0.66214 0.00707 0.0
C589 C 0.16636 0.53055 0.02129 0.0
C590 C 0.08126 0.53959 0.95066 0.0
C591 C 0.12184 0.55892 0.93101 0.0
C592 C 0.095 0.55233 0.97762 0.0
C593 C 0.15088 0.58467 0.98541 0.0
C594 C 0.19222 0.60425 0.96582 0.0
C595 C 0.17722 0.59132 0.93882 0.0
C596 C 1.04956 0.53066 -0.00216 0.0
C597 C 0.25225 0.63843 0.97344 0.0
H598 H 0.17728 0.66528 0.06118 0.0
H599 H 0.17536 0.55273 0.07298 0.0
H600 H 0.19266 0.67596 0.9898 0.0
H601 H 0.12208 0.6415 -0.00128 0.0
H602 H 0.1736 0.69104 0.01806 0.0
H603 H 0.17729 0.51601 0.03698 0.0
H604 H 0.12394 0.50288 0.01406 0.0
H605 H 0.19407 0.54277 0.00395 0.0
H606 H 1.03843 0.51381 0.94503 0.0
H607 H 0.20889 0.6068 0.9238 0.0
H608 H 1.05353 0.55743 0.00865 0.0
H609 H 1.05283 0.51053 0.01308 0.0
H610 H 1.00815 0.50777 0.98828 0.0
H611 H 0.26085 0.66804 0.98312 0.0
H612 H 0.27938 0.65093 0.95578 0.0
H613 H 0.26282 0.62273 0.98835 0.0
C614 C 0.67894 0.09906 0.37944 0.0
C615 C 0.6868 0.07074 0.39267 0.0
C616 C 0.68031 0.10316 0.35123 0.0
C617 C 0.68845 0.07743 0.33609 0.0
C618 C 0.69409 0.04729 0.34952 0.0
C619 C 0.69411 0.0449 0.37776 0.0
C620 C 0.67544 0.13645 0.33772 0.0
C621 C 0.70139 0.01842 0.33412 0.0
C622 C 0.6546 0.06693 0.26121 0.0
C623 C 0.70692 0.0993 0.24997 0.0
C624 C 0.64798 0.05869 0.28914 0.0
C625 C 0.6946 0.08422 0.30637 0.0
C626 C 0.74747 0.11673 0.29523 0.0
C627 C 0.75303 0.12332 0.26722 0.0
C628 C 0.59106 0.02295 0.30024 0.0
C629 C 0.79822 0.14508 0.31293 0.0
H630 H 0.67402 0.11938 0.3912 0.0
H631 H 0.70017 0.02302 0.38823 0.0
H632 H 0.71412 0.16371 0.32711 0.0
H633 H 0.64201 0.11902 0.32238 0.0
H634 H 0.66717 0.15252 0.3523 0.0
H635 H 0.69998 0.99369 0.34743 0.0
H636 H 0.66891 0.99934 0.31839 0.0
H637 H 0.74144 0.04062 0.32376 0.0
H638 H 0.61855 0.04852 0.24822 0.0
H639 H 0.79377 0.1475 0.25887 0.0
H640 H 0.58021 0.03922 0.31291 0.0
H641 H 0.58982 0.99813 0.31331 0.0
H642 H 0.55945 1.00412 0.28409 0.0
H643 H 0.79422 0.16412 0.32735 0.0
H644 H 0.83616 0.1699 0.30114 0.0
H645 H 0.80278 0.12262 0.32492 0.0
C646 C 0.65132 0.54977 0.75945 0.0
C647 C 0.6093 0.5033 0.76509 0.0
C648 C 0.66606 0.56622 0.73271 0.0
C649 C 0.6379 0.53532 0.71128 0.0
C650 C 0.59561 0.48834 0.717 0.0
C651 C 0.58201 0.47296 0.74379 0.0
C652 C 0.71159 0.6165 0.72737 0.0
C653 C 0.56424 0.45427 0.69479 0.0
C654 C 0.6302 0.57355 0.64107 0.0
C655 C 0.66628 0.57196 0.62694 0.0
C656 C 0.62225 0.56348 0.66877 0.0
C657 C 0.65122 0.55165 0.68274 0.0
C658 C 0.68889 0.55125 0.66875 0.0
C659 C 0.69575 0.56117 0.64096 0.0
C660 C 0.58122 0.56376 0.68286 0.0
C661 C 0.7208 0.53911 0.68299 0.0
H662 H 0.67283 0.57315 0.77589 0.0
H663 H 0.5495 0.43693 0.74805 0.0
H664 H 0.74461 0.62186 0.71585 0.0
H665 H 0.69583 0.63063 0.71487 0.0
H666 H 0.72958 0.63597 0.74624 0.0
H667 H 0.53265 0.41889 0.70268 0.0
H668 H 0.54364 0.46338 0.68153 0.0
H669 H 0.59292 0.45514 0.68215 0.0
H670 H 0.60688 0.58141 0.63028 0.0
H671 H 0.72421 0.56049 0.63018 0.0
H672 H 0.6002 0.58496 0.70102 0.0
H673 H 0.54613 0.52859 0.68967 0.0
H674 H 0.56517 0.57699 0.6696 0.0
H675 H 0.74186 0.56003 0.70114 0.0
H676 H 0.7519 0.54423 0.66981 0.0
H677 H 0.69221 0.50286 0.68986 0.0
C678 C 0.59596 0.02296 0.5588 0.0
C679 C 0.63787 0.06342 0.54522 0.0
C680 C 0.59961 0.01769 0.58664 0.0
C681 C 0.6452 0.05455 0.60135 0.0
C682 C 0.68748 0.09571 0.58765 0.0
C683 C 0.68385 0.0993 0.55959 0.0
C684 C 0.55476 0.97265 0.60029 0.0
C685 C 0.73571 0.13632 0.60272 0.0
C686 C 0.6204 0.05075 0.67596 0.0
C687 C 0.64834 0.03655 0.68752 0.0
C688 C 0.62094 0.0585 0.64809 0.0
C689 C 0.64807 0.05002 0.63108 0.0
C690 C 0.67623 0.03564 0.64244 0.0
C691 C 0.67711 0.03014 0.67047 0.0
C692 C 0.59179 0.07519 0.6368 0.0
C693 C 0.70436 0.02498 0.62493 0.0
H694 H 0.56067 0.99512 0.54752 0.0
H695 H 0.71603 0.13069 0.54898 0.0
H696 H 0.5728 0.9596 0.61185 0.0
H697 H 0.5332 0.97731 0.61482 0.0
H698 H 0.52407 0.94651 0.5857 0.0
H699 H 0.76467 0.16602 0.58912 0.0
H700 H 0.72082 0.14658 0.61781 0.0
H701 H 0.75841 0.12725 0.61388 0.0
H702 H 0.59712 0.05513 0.68856 0.0
H703 H 0.70031 0.02054 0.67894 0.0
H704 H 0.55569 0.04826 0.62459 0.0
H705 H 0.61946 0.10537 0.62331 0.0
H706 H 0.57749 0.08455 0.65287 0.0
H707 H 0.6742 0.99808 0.61058 0.0
H708 H 0.72348 0.01318 0.63688 0.0
H709 H 0.73664 0.0556 0.61285 0.0
C710 C 0.54226 0.44768 0.92256 0.0
C711 C 0.59681 0.48805 0.92008 0.0
C712 C 0.52402 0.42079 0.94623 0.0
C713 C 0.56084 0.4353 0.96824 0.0
C714 C 0.61553 0.47688 0.96618 0.0
C715 C 0.63304 0.50261 0.94198 0.0
C716 C 0.46577 0.37627 0.94739 0.0
C717 C 0.65569 0.49388 0.98943 0.0
C718 C 0.50144 0.38222 0.0374 0.0
C719 C 0.51121 0.35148 0.04009 0.0
C720 C 0.51759 0.40999 0.01411 0.0
C721 C 0.54283 0.40594 0.99297 0.0
C722 C 0.5512 0.37385 -0.00457 0.0
C723 C 0.53588 0.34739 0.01915 0.0
C724 C 0.50875 0.44427 0.01237 0.0
C725 C 0.57686 0.3678 0.97313 0.0
H726 H 0.51389 0.43659 0.90576 0.0
H727 H 0.67509 0.53403 0.94019 0.0
H728 H 0.46599 0.34758 0.95078 0.0
H729 H 0.44413 0.37584 0.96455 0.0
H730 H 0.44214 0.3702 0.92861 0.0
H731 H 0.69557 0.52821 0.9852 0.0
H732 H 0.63815 0.49541 0.00778 0.0
H733 H 0.66338 0.46981 -0.00608 0.0
H734 H 0.48281 0.38549 0.05385 0.0
H735 H 0.54345 0.32358 0.02147 0.0
H736 H 0.4808 0.43643 -0.00476 0.0
H737 H 0.54831 0.47896 0.00855 0.0
H738 H 0.49093 0.44459 0.03105 0.0
H739 H 0.55347 0.36018 0.95405 0.0
H740 H 0.57816 0.33989 0.97775 0.0
H741 H 0.61937 0.39988 0.9697 0.0
C742 C 0.16144 0.56212 0.2308 0.0
C743 C 0.21143 0.57631 0.22156 0.0
C744 C 0.15099 0.55738 0.25846 0.0
C745 C 0.19184 0.56747 0.27724 0.0
C746 C 0.2427 0.58228 0.26791 0.0
C747 C 0.25162 0.58599 0.24012 0.0
C748 C 0.09579 0.54049 0.26754 0.0
C749 C 0.28755 0.59395 0.28727 0.0
C750 C 0.18257 0.59045 0.34955 0.0
C751 C 0.16154 0.54901 0.36265 0.0
C752 C 0.19276 0.59701 0.32179 0.0
C753 C 0.18078 0.56103 0.30662 0.0
C754 C 0.15894 0.51898 0.31959 0.0
C755 C 0.15017 0.51365 0.34743 0.0
C756 C 0.21663 0.64251 0.3087 0.0
C757 C 0.14508 0.4796 0.30408 0.0
H758 H 0.12976 0.55315 0.21637 0.0
H759 H 0.29023 0.59683 0.23287 0.0
H760 H 1.07431 0.5075 0.27869 0.0
H761 H 0.10116 0.56492 0.28154 0.0
H762 H 1.06925 0.53566 0.2504 0.0
H763 H 0.32559 0.60698 0.27677 0.0
H764 H 0.29759 0.62013 0.30139 0.0
H765 H 0.27323 0.5633 0.2995 0.0
H766 H 0.19076 0.61777 0.36096 0.0
H767 H 0.135 0.48181 0.35733 0.0
H768 H 0.18826 0.63795 0.29277 0.0
H769 H 0.25588 0.6573 0.29887 0.0
H770 H 0.22437 0.66723 0.32337 0.0
H771 H 0.11628 0.47127 0.28726 0.0
H772 H 0.12614 0.44851 0.31695 0.0
H773 H 0.18278 0.48924 0.2951 0.0
loop_
_geom_bond_atom_site_label_1
_geom_bond_atom_site_label_2
_geom_bond_distance
_geom_bond_site_symmetry_2
_ccdc_geom_bond_type
Sm0 C2 2.846 . S
Sm0 O20 2.543 . S
Sm0 O21 2.450 . S
Sm0 O22 2.681 1_455 S
Sm0 O23 2.464 . S
Sm0 O24 2.396 . S
Sm0 O28 2.386 . S
Sm0 O31 2.408 1_455 S
Sm1 C11 2.846 . S
Sm1 O22 2.386 . S
Sm1 O25 2.408 1_655 S
Sm1 O26 2.543 . S
Sm1 O27 2.450 . S
Sm1 O28 2.681 1_655 S
Sm1 O29 2.464 . S
Sm1 O30 2.396 . S
C2 Sm0 2.846 . S
C2 C3 1.506 . S
C2 O20 1.261 . S
C2 O21 1.242 . S
C3 C2 1.506 . S
C3 C4 1.358 . S
C3 C8 1.382 . S
C4 C3 1.358 . S
C4 C5 1.385 . S
C4 H32 0.930 . S
C5 C4 1.385 . S
C5 C6 1.395 . S
C5 H33 0.929 . S
C6 C5 1.395 . S
C6 C7 1.335 . S
C7 C6 1.335 . S
C7 C8 1.398 . S
C7 H34 0.930 . S
C8 C3 1.382 . S
C8 C7 1.398 . S
C8 H35 0.929 . S
C9 O22 1.271 1_455 S
C9 O23 1.251 . S
C10 O24 1.252 . S
C10 O25 1.272 . S
C11 Sm1 2.846 . S
C11 C12 1.506 . S
C11 O26 1.261 . S
C11 O27 1.242 . S
C12 C11 1.506 . S
C12 C13 1.358 . S
C12 C17 1.382 . S
C13 C12 1.358 . S
C13 C14 1.385 . S
C13 H36 0.930 . S
C14 C13 1.385 . S
C14 C15 1.395 . S
C14 H37 0.929 . S
C15 C14 1.395 . S
C15 C16 1.335 . S
C16 C15 1.335 . S
C16 C17 1.398 . S
C16 H38 0.930 . S
C17 C12 1.382 . S
C17 C16 1.398 . S
C17 H39 0.929 . S
C18 O28 1.271 . S
C18 O29 1.251 1_455 S
C19 O30 1.252 . S
C19 O31 1.272 . S
O20 Sm0 2.543 . S
O20 C2 1.261 . S
O21 Sm0 2.450 . S
O21 C2 1.242 . S
O22 Sm0 2.681 1_655 S
O22 Sm1 2.386 . S
O22 C9 1.271 1_655 S
O23 Sm0 2.464 . S
O23 C9 1.251 . S
O24 Sm0 2.396 . S
O24 C10 1.252 . S
O25 Sm1 2.408 1_455 S
O25 C10 1.272 . S
O26 Sm1 2.543 . S
O26 C11 1.261 . S
O27 Sm1 2.450 . S
O27 C11 1.242 . S
O28 Sm0 2.386 . S
O28 Sm1 2.681 1_455 S
O28 C18 1.271 . S
O29 Sm1 2.464 . S
O29 C18 1.251 1_655 S
O30 Sm1 2.396 . S
O30 C19 1.252 . S
O31 Sm0 2.408 1_655 S
O31 C19 1.272 . S
H32 C4 0.930 . S
H33 C5 0.929 . S
H34 C7 0.930 . S
H35 C8 0.929 . S
H36 C13 0.930 . S
H37 C14 0.929 . S
H38 C16 0.930 . S
H39 C17 0.929 . S
Sm40 C42 2.846 1_545 S
Sm40 O60 2.543 1_545 S
Sm40 O61 2.450 1_545 S
Sm40 O62 2.681 . S
Sm40 O63 2.464 . S
Sm40 O64 2.396 1_545 S
Sm40 O68 2.386 . S
Sm40 O71 2.408 . S
Sm41 C51 2.846 . S
Sm41 O62 2.386 . S
Sm41 O65 2.408 1_545 S
Sm41 O66 2.543 . S
Sm41 O67 2.450 . S
Sm41 O68 2.681 . S
Sm41 O69 2.464 . S
Sm41 O70 2.396 . S
C42 Sm40 2.846 1_565 S
C42 C43 1.506 . S
C42 O60 1.261 . S
C42 O61 1.242 . S
C43 C42 1.506 . S
C43 C44 1.358 . S
C43 C48 1.382 . S
C44 C43 1.358 . S
C44 C45 1.385 . S
C44 H72 0.930 . S
C45 C44 1.385 . S
C45 C46 1.395 . S
C45 H73 0.929 . S
C46 C45 1.395 . S
C46 C47 1.335 . S
C47 C46 1.335 . S
C47 C48 1.398 . S
C47 H74 0.930 . S
C48 C43 1.382 . S
C48 C47 1.398 . S
C48 H75 0.929 . S
C49 O62 1.271 . S
C49 O63 1.251 . S
C50 O64 1.252 . S
C50 O65 1.272 . S
C51 Sm41 2.846 . S
C51 C52 1.506 . S
C51 O66 1.261 . S
C51 O67 1.242 . S
C52 C51 1.506 . S
C52 C53 1.358 . S
C52 C57 1.382 . S
C53 C52 1.358 . S
C53 C54 1.385 . S
C53 H76 0.930 . S
C54 C53 1.385 . S
C54 C55 1.395 . S
C54 H77 0.929 . S
C55 C54 1.395 . S
C55 C56 1.335 . S
C56 C55 1.335 . S
C56 C57 1.398 . S
C56 H78 0.930 . S
C57 C52 1.382 . S
C57 C56 1.398 . S
C57 H79 0.929 . S
C58 O68 1.271 . S
C58 O69 1.251 . S
C59 O70 1.252 . S
C59 O71 1.272 . S
O60 Sm40 2.543 1_565 S
O60 C42 1.261 . S
O61 Sm40 2.450 1_565 S
O61 C42 1.242 . S
O62 Sm40 2.681 . S
O62 Sm41 2.386 . S
O62 C49 1.271 . S
O63 Sm40 2.464 . S
O63 C49 1.251 . S
O64 Sm40 2.396 1_565 S
O64 C50 1.252 . S
O65 Sm41 2.408 1_565 S
O65 C50 1.272 . S
O66 Sm41 2.543 . S
O66 C51 1.261 . S
O67 Sm41 2.450 . S
O67 C51 1.242 . S
O68 Sm40 2.386 . S
O68 Sm41 2.681 . S
O68 C58 1.271 . S
O69 Sm41 2.464 . S
O69 C58 1.251 . S
O70 Sm41 2.396 . S
O70 C59 1.252 . S
O71 Sm40 2.408 . S
O71 C59 1.272 . S
H72 C44 0.930 . S
H73 C45 0.929 . S
H74 C47 0.930 . S
H75 C48 0.929 . S
H76 C53 0.930 . S
H77 C54 0.929 . S
H78 C56 0.930 . S
H79 C57 0.929 . S
Sm80 C82 2.846 . S
Sm80 O100 2.543 . S
Sm80 O101 2.450 . S
Sm80 O102 2.681 . S
Sm80 O103 2.464 . S
Sm80 O104 2.396 . S
Sm80 O108 2.386 . S
Sm80 O111 2.408 . S
Sm81 C91 2.846 . S
Sm81 O102 2.386 . S
Sm81 O105 2.408 . S
Sm81 O106 2.543 . S
Sm81 O107 2.450 . S
Sm81 O108 2.681 . S
Sm81 O109 2.464 . S
Sm81 O110 2.396 . S
C82 Sm80 2.846 . S
C82 C83 1.506 . S
C82 O100 1.261 . S
C82 O101 1.242 . S
C83 C82 1.506 . S
C83 C84 1.358 . S
C83 C88 1.382 . S
C84 C83 1.358 . S
C84 C85 1.385 . S
C84 H112 0.930 . S
C85 C84 1.385 . S
C85 C86 1.395 . S
C85 H113 0.929 . S
C86 C85 1.395 . S
C86 C87 1.335 . S
C87 C86 1.335 . S
C87 C88 1.398 . S
C87 H114 0.930 . S
C88 C83 1.382 . S
C88 C87 1.398 . S
C88 H115 0.929 . S
C89 O102 1.271 . S
C89 O103 1.251 . S
C90 O104 1.252 . S
C90 O105 1.272 . S
C91 Sm81 2.846 . S
C91 C92 1.506 . S
C91 O106 1.261 . S
C91 O107 1.242 . S
C92 C91 1.506 . S
C92 C93 1.358 . S
C92 C97 1.382 . S
C93 C92 1.358 . S
C93 C94 1.385 . S
C93 H116 0.930 . S
C94 C93 1.385 . S
C94 C95 1.395 . S
C94 H117 0.929 . S
C95 C94 1.395 . S
C95 C96 1.335 . S
C96 C95 1.335 . S
C96 C97 1.398 . S
C96 H118 0.930 . S
C97 C92 1.382 . S
C97 C96 1.398 . S
C97 H119 0.929 . S
C98 O108 1.271 . S
C98 O109 1.251 . S
C99 O110 1.252 . S
C99 O111 1.272 . S
O100 Sm80 2.543 . S
O100 C82 1.261 . S
O101 Sm80 2.450 . S
O101 C82 1.242 . S
O102 Sm80 2.681 . S
O102 Sm81 2.386 . S
O102 C89 1.271 . S
O103 Sm80 2.464 . S
O103 C89 1.251 . S
O104 Sm80 2.396 . S
O104 C90 1.252 . S
O105 Sm81 2.408 . S
O105 C90 1.272 . S
O106 Sm81 2.543 . S
O106 C91 1.261 . S
O107 Sm81 2.450 . S
O107 C91 1.242 . S
O108 Sm80 2.386 . S
O108 Sm81 2.681 . S
O108 C98 1.271 . S
O109 Sm81 2.464 . S
O109 C98 1.251 . S
O110 Sm81 2.396 . S
O110 C99 1.252 . S
O111 Sm80 2.408 . S
O111 C99 1.272 . S
H112 C84 0.930 . S
H113 C85 0.929 . S
H114 C87 0.930 . S
H115 C88 0.929 . S
H116 C93 0.930 . S
H117 C94 0.929 . S
H118 C96 0.930 . S
H119 C97 0.929 . S
H120 C127 0.929 . S
H121 C130 0.930 . S
H122 C132 0.929 . S
H123 C124 0.969 . S
C124 H123 0.969 . S
C124 O125 1.550 . S
C124 H126 0.973 . S
O125 C124 1.550 . S
O125 C131 1.412 . S
H126 C124 0.973 . S
C127 H120 0.929 . S
C127 C128 1.400 . S
C127 C129 1.364 . S
C128 C127 1.400 . S
C128 C132 1.377 . S
C129 C127 1.364 . S
C129 C130 1.374 1_545 S
C130 H121 0.930 . S
C130 C129 1.374 1_565 S
C130 C131 1.383 . S
C131 O125 1.412 . S
C131 C130 1.383 . S
C131 C132 1.394 1_565 S
C132 H122 0.929 . S
C132 C128 1.377 . S
C132 C131 1.394 1_545 S
H133 C140 0.929 . S
H134 C143 0.930 . S
H135 C145 0.929 . S
H136 C137 0.969 . S
C137 H136 0.969 . S
C137 O138 1.550 . S
C137 H139 0.973 . S
O138 C137 1.550 . S
O138 C144 1.412 . S
H139 C137 0.973 . S
C140 H133 0.929 . S
C140 C141 1.400 . S
C140 C142 1.364 . S
C141 C140 1.400 . S
C141 C145 1.377 . S
C142 C140 1.364 . S
C142 C143 1.374 . S
C143 H134 0.930 . S
C143 C142 1.374 . S
C143 C144 1.383 . S
C144 O138 1.412 . S
C144 C143 1.383 . S
C144 C145 1.394 . S
C145 H135 0.929 . S
C145 C141 1.377 . S
C145 C144 1.394 . S
H146 C153 0.929 . S
H147 C156 0.930 . S
H148 C158 0.929 . S
H149 C150 0.969 . S
C150 H149 0.969 . S
C150 O151 1.550 . S
C150 H152 0.973 . S
O151 C150 1.550 . S
O151 C157 1.412 . S
H152 C150 0.973 . S
C153 H146 0.929 . S
C153 C154 1.400 . S
C153 C155 1.364 . S
C154 C153 1.400 . S
C154 C158 1.377 . S
C155 C153 1.364 . S
C155 C156 1.374 . S
C156 H147 0.930 . S
C156 C155 1.374 . S
C156 C157 1.383 . S
C157 O151 1.412 . S
C157 C156 1.383 . S
C157 C158 1.394 . S
C158 H148 0.929 . S
C158 C154 1.377 . S
C158 C157 1.394 . S
H159 C166 0.929 . S
H160 C169 0.930 . S
H161 C171 0.929 . S
H162 C163 0.969 . S
C163 H162 0.969 . S
C163 O164 1.550 . S
C163 H165 0.973 . S
O164 C163 1.550 . S
O164 C170 1.412 . S
H165 C163 0.973 . S
C166 H159 0.929 . S
C166 C167 1.400 . S
C166 C168 1.364 1_655 S
C167 C166 1.400 . S
C167 C171 1.377 1_655 S
C168 C166 1.364 1_455 S
C168 C169 1.374 . S
C169 H160 0.930 . S
C169 C168 1.374 . S
C169 C170 1.383 . S
C170 O164 1.412 . S
C170 C169 1.383 . S
C170 C171 1.394 . S
C171 H161 0.929 . S
C171 C167 1.377 1_455 S
C171 C170 1.394 . S
H172 C179 0.929 . S
H173 C182 0.930 . S
H174 C184 0.929 . S
H175 C176 0.969 . S
C176 H175 0.969 . S
C176 O177 1.550 . S
C176 H178 0.973 . S
O177 C176 1.550 . S
O177 C183 1.412 . S
H178 C176 0.973 . S
C179 H172 0.929 . S
C179 C180 1.400 . S
C179 C181 1.364 1_565 S
C180 C179 1.400 . S
C180 C184 1.377 1_565 S
C181 C179 1.364 1_545 S
C181 C182 1.374 . S
C182 H173 0.930 . S
C182 C181 1.374 . S
C182 C183 1.383 . S
C183 O177 1.412 . S
C183 C182 1.383 . S
C183 C184 1.394 . S
C184 H174 0.929 . S
C184 C180 1.377 1_545 S
C184 C183 1.394 . S
H185 C192 0.929 . S
H186 C195 0.930 . S
H187 C197 0.929 . S
H188 C189 0.969 . S
C189 H188 0.969 . S
C189 O190 1.550 . S
C189 H191 0.973 . S
O190 C189 1.550 . S
O190 C196 1.412 . S
H191 C189 0.973 . S
C192 H185 0.929 . S
C192 C193 1.400 . S
C192 C194 1.364 . S
C193 C192 1.400 . S
C193 C197 1.377 . S
C194 C192 1.364 . S
C194 C195 1.374 . S
C195 H186 0.930 . S
C195 C194 1.374 . S
C195 C196 1.383 . S
C196 O190 1.412 . S
C196 C195 1.383 . S
C196 C197 1.394 . S
C197 H187 0.929 . S
C197 C193 1.377 . S
C197 C196 1.394 . S
C198 C199 1.391 . S
C198 C200 1.394 . S
C198 H214 0.931 . S
C199 C198 1.391 . S
C199 C203 1.376 . S
C200 C198 1.394 . S
C200 C201 1.369 . S
C200 C204 1.531 . S
C201 C200 1.369 . S
C201 C202 1.410 . S
C201 C209 1.503 . S
C202 C201 1.410 . S
C202 C203 1.392 . S
C202 C205 1.511 . S
C203 C199 1.376 . S
C203 C202 1.392 . S
C203 H215 0.929 . S
C204 C200 1.531 . S
C204 H216 0.960 . S
C204 H217 0.962 . S
C204 H218 0.960 . S
C205 C202 1.511 . S
C205 H219 0.961 . S
C205 H220 0.961 . S
C205 H221 0.961 . S
C206 C207 1.370 . S
C206 C208 1.363 . S
C206 H222 0.931 . S
C207 C206 1.370 . S
C207 C211 1.408 . S
C208 C206 1.363 . S
C208 C209 1.370 . S
C208 C212 1.524 . S
C209 C201 1.503 . S
C209 C208 1.370 . S
C209 C210 1.403 . S
C210 C209 1.403 . S
C210 C211 1.404 . S
C210 C213 1.539 . S
C211 C207 1.408 . S
C211 C210 1.404 . S
C211 H223 0.930 . S
C212 C208 1.524 . S
C212 H224 0.956 . S
C212 H225 0.961 . S
C212 H226 0.961 . S
C213 C210 1.539 . S
C213 H227 0.958 . S
C213 H228 0.961 . S
C213 H229 0.960 . S
H214 C198 0.931 . S
H215 C203 0.929 . S
H216 C204 0.960 . S
H217 C204 0.962 . S
H218 C204 0.960 . S
H219 C205 0.961 . S
H220 C205 0.961 . S
H221 C205 0.961 . S
H222 C206 0.931 . S
H223 C211 0.930 . S
H224 C212 0.956 . S
H225 C212 0.961 . S
H226 C212 0.961 . S
H227 C213 0.958 . S
H228 C213 0.961 . S
H229 C213 0.960 . S
C230 C231 1.391 . S
C230 C232 1.394 . S
C230 H246 0.931 . S
C231 C230 1.391 . S
C231 C235 1.376 . S
C232 C230 1.394 . S
C232 C233 1.369 . S
C232 C236 1.531 . S
C233 C232 1.369 . S
C233 C234 1.410 . S
C233 C241 1.503 . S
C234 C233 1.410 . S
C234 C235 1.392 . S
C234 C237 1.511 . S
C235 C231 1.376 . S
C235 C234 1.392 . S
C235 H247 0.929 . S
C236 C232 1.531 . S
C236 H248 0.960 . S
C236 H249 0.962 . S
C236 H250 0.960 . S
C237 C234 1.511 . S
C237 H251 0.961 . S
C237 H252 0.961 . S
C237 H253 0.961 . S
C238 C239 1.370 . S
C238 C240 1.363 . S
C238 H254 0.931 . S
C239 C238 1.370 . S
C239 C243 1.408 . S
C240 C238 1.363 . S
C240 C241 1.370 . S
C240 C244 1.524 . S
C241 C233 1.503 . S
C241 C240 1.370 . S
C241 C242 1.403 . S
C242 C241 1.403 . S
C242 C243 1.404 . S
C242 C245 1.539 . S
C243 C239 1.408 . S
C243 C242 1.404 . S
C243 H255 0.930 . S
C244 C240 1.524 . S
C244 H256 0.956 . S
C244 H257 0.961 . S
C244 H258 0.961 . S
C245 C242 1.539 . S
C245 H259 0.958 . S
C245 H260 0.961 . S
C245 H261 0.960 . S
H246 C230 0.931 . S
H247 C235 0.929 . S
H248 C236 0.960 . S
H249 C236 0.962 . S
H250 C236 0.960 . S
H251 C237 0.961 . S
H252 C237 0.961 . S
H253 C237 0.961 . S
H254 C238 0.931 . S
H255 C243 0.930 . S
H256 C244 0.956 . S
H257 C244 0.961 . S
H258 C244 0.961 . S
H259 C245 0.958 . S
H260 C245 0.961 . S
H261 C245 0.960 . S
C262 C263 1.391 . S
C262 C264 1.394 . S
C262 H278 0.931 . S
C263 C262 1.391 . S
C263 C267 1.376 . S
C264 C262 1.394 . S
C264 C265 1.369 . S
C264 C268 1.531 . S
C265 C264 1.369 . S
C265 C266 1.410 . S
C265 C273 1.503 . S
C266 C265 1.410 . S
C266 C267 1.392 . S
C266 C269 1.511 . S
C267 C263 1.376 . S
C267 C266 1.392 . S
C267 H279 0.929 . S
C268 C264 1.531 . S
C268 H280 0.960 . S
C268 H281 0.962 . S
C268 H282 0.960 . S
C269 C266 1.511 . S
C269 H283 0.961 . S
C269 H284 0.961 . S
C269 H285 0.961 . S
C270 C271 1.370 . S
C270 C272 1.363 . S
C270 H286 0.931 . S
C271 C270 1.370 . S
C271 C275 1.408 . S
C272 C270 1.363 . S
C272 C273 1.370 . S
C272 C276 1.524 . S
C273 C265 1.503 . S
C273 C272 1.370 . S
C273 C274 1.403 . S
C274 C273 1.403 . S
C274 C275 1.404 . S
C274 C277 1.539 . S
C275 C271 1.408 . S
C275 C274 1.404 . S
C275 H287 0.930 . S
C276 C272 1.524 . S
C276 H288 0.956 . S
C276 H289 0.961 . S
C276 H290 0.961 . S
C277 C274 1.539 . S
C277 H291 0.958 . S
C277 H292 0.961 . S
C277 H293 0.960 . S
H278 C262 0.931 . S
H279 C267 0.929 . S
H280 C268 0.960 . S
H281 C268 0.962 . S
H282 C268 0.960 . S
H283 C269 0.961 . S
H284 C269 0.961 . S
H285 C269 0.961 . S
H286 C270 0.931 . S
H287 C275 0.930 . S
H288 C276 0.956 . S
H289 C276 0.961 . S
H290 C276 0.961 . S
H291 C277 0.958 . S
H292 C277 0.961 . S
H293 C277 0.960 . S
C294 C295 1.391 . S
C294 C296 1.394 . S
C294 H310 0.931 . S
C295 C294 1.391 . S
C295 C299 1.376 . S
C296 C294 1.394 . S
C296 C297 1.369 . S
C296 C300 1.531 . S
C297 C296 1.369 . S
C297 C298 1.410 . S
C297 C305 1.503 . S
C298 C297 1.410 . S
C298 C299 1.392 . S
C298 C301 1.511 . S
C299 C295 1.376 . S
C299 C298 1.392 . S
C299 H311 0.929 . S
C300 C296 1.531 . S
C300 H312 0.960 . S
C300 H313 0.962 . S
C300 H314 0.960 . S
C301 C298 1.511 . S
C301 H315 0.961 . S
C301 H316 0.961 . S
C301 H317 0.961 . S
C302 C303 1.370 . S
C302 C304 1.363 . S
C302 H318 0.931 . S
C303 C302 1.370 . S
C303 C307 1.408 . S
C304 C302 1.363 . S
C304 C305 1.370 . S
C304 C308 1.524 . S
C305 C297 1.503 . S
C305 C304 1.370 . S
C305 C306 1.403 . S
C306 C305 1.403 . S
C306 C307 1.404 . S
C306 C309 1.539 . S
C307 C303 1.408 . S
C307 C306 1.404 . S
C307 H319 0.930 . S
C308 C304 1.524 . S
C308 H320 0.956 . S
C308 H321 0.961 . S
C308 H322 0.961 . S
C309 C306 1.539 . S
C309 H323 0.958 . S
C309 H324 0.961 . S
C309 H325 0.960 . S
H310 C294 0.931 . S
H311 C299 0.929 . S
H312 C300 0.960 . S
H313 C300 0.962 . S
H314 C300 0.960 . S
H315 C301 0.961 . S
H316 C301 0.961 . S
H317 C301 0.961 . S
H318 C302 0.931 . S
H319 C307 0.930 . S
H320 C308 0.956 . S
H321 C308 0.961 . S
H322 C308 0.961 . S
H323 C309 0.958 . S
H324 C309 0.961 . S
H325 C309 0.960 . S
C326 C327 1.391 . S
C326 C328 1.394 . S
C326 H342 0.931 . S
C327 C326 1.391 . S
C327 C331 1.376 . S
C328 C326 1.394 . S
C328 C329 1.369 . S
C328 C332 1.531 . S
C329 C328 1.369 . S
C329 C330 1.410 . S
C329 C337 1.503 . S
C330 C329 1.410 . S
C330 C331 1.392 . S
C330 C333 1.511 . S
C331 C327 1.376 . S
C331 C330 1.392 . S
C331 H343 0.929 . S
C332 C328 1.531 . S
C332 H344 0.960 . S
C332 H345 0.962 . S
C332 H346 0.960 . S
C333 C330 1.511 . S
C333 H347 0.961 . S
C333 H348 0.961 . S
C333 H349 0.961 . S
C334 C335 1.370 . S
C334 C336 1.363 . S
C334 H350 0.931 . S
C335 C334 1.370 . S
C335 C339 1.408 . S
C336 C334 1.363 . S
C336 C337 1.370 . S
C336 C340 1.524 . S
C337 C329 1.503 . S
C337 C336 1.370 . S
C337 C338 1.403 . S
C338 C337 1.403 . S
C338 C339 1.404 . S
C338 C341 1.539 . S
C339 C335 1.408 . S
C339 C338 1.404 . S
C339 H351 0.930 . S
C340 C336 1.524 . S
C340 H352 0.956 . S
C340 H353 0.961 . S
C340 H354 0.961 . S
C341 C338 1.539 . S
C341 H355 0.958 . S
C341 H356 0.961 . S
C341 H357 0.960 . S
H342 C326 0.931 . S
H343 C331 0.929 . S
H344 C332 0.960 . S
H345 C332 0.962 . S
H346 C332 0.960 . S
H347 C333 0.961 . S
H348 C333 0.961 . S
H349 C333 0.961 . S
H350 C334 0.931 . S
H351 C339 0.930 . S
H352 C340 0.956 . S
H353 C340 0.961 . S
H354 C340 0.961 . S
H355 C341 0.958 . S
H356 C341 0.961 . S
H357 C341 0.960 . S
C358 C359 1.391 . S
C358 C360 1.394 . S
C358 H374 0.931 . S
C359 C358 1.391 . S
C359 C363 1.376 . S
C360 C358 1.394 . S
C360 C361 1.369 . S
C360 C364 1.531 . S
C361 C360 1.369 . S
C361 C362 1.410 . S
C361 C369 1.503 . S
C362 C361 1.410 . S
C362 C363 1.392 . S
C362 C365 1.511 . S
C363 C359 1.376 . S
C363 C362 1.392 . S
C363 H375 0.929 . S
C364 C360 1.531 . S
C364 H376 0.960 . S
C364 H377 0.962 . S
C364 H378 0.960 . S
C365 C362 1.511 . S
C365 H379 0.961 . S
C365 H380 0.961 . S
C365 H381 0.961 . S
C366 C367 1.370 . S
C366 C368 1.363 . S
C366 H382 0.931 . S
C367 C366 1.370 . S
C367 C371 1.408 . S
C368 C366 1.363 . S
C368 C369 1.370 . S
C368 C372 1.524 . S
C369 C361 1.503 . S
C369 C368 1.370 . S
C369 C370 1.403 . S
C370 C369 1.403 . S
C370 C371 1.404 . S
C370 C373 1.539 . S
C371 C367 1.408 . S
C371 C370 1.404 . S
C371 H383 0.930 . S
C372 C368 1.524 . S
C372 H384 0.956 . S
C372 H385 0.961 . S
C372 H386 0.961 . S
C373 C370 1.539 . S
C373 H387 0.958 . S
C373 H388 0.961 . S
C373 H389 0.960 . S
H374 C358 0.931 . S
H375 C363 0.929 . S
H376 C364 0.960 . S
H377 C364 0.962 . S
H378 C364 0.960 . S
H379 C365 0.961 . S
H380 C365 0.961 . S
H381 C365 0.961 . S
H382 C366 0.931 . S
H383 C371 0.930 . S
H384 C372 0.956 . S
H385 C372 0.961 . S
H386 C372 0.961 . S
H387 C373 0.958 . S
H388 C373 0.961 . S
H389 C373 0.960 . S
C390 C391 1.391 . S
C390 C392 1.394 . S
C390 H406 0.931 . S
C391 C390 1.391 . S
C391 C395 1.376 . S
C392 C390 1.394 . S
C392 C393 1.369 . S
C392 C396 1.531 . S
C393 C392 1.369 . S
C393 C394 1.410 . S
C393 C401 1.503 . S
C394 C393 1.410 . S
C394 C395 1.392 . S
C394 C397 1.511 . S
C395 C391 1.376 . S
C395 C394 1.392 . S
C395 H407 0.929 . S
C396 C392 1.531 . S
C396 H408 0.960 . S
C396 H409 0.962 . S
C396 H410 0.960 . S
C397 C394 1.511 . S
C397 H411 0.961 . S
C397 H412 0.961 . S
C397 H413 0.961 . S
C398 C399 1.370 . S
C398 C400 1.363 . S
C398 H414 0.931 . S
C399 C398 1.370 . S
C399 C403 1.408 . S
C400 C398 1.363 . S
C400 C401 1.370 . S
C400 C404 1.524 . S
C401 C393 1.503 . S
C401 C400 1.370 . S
C401 C402 1.403 . S
C402 C401 1.403 . S
C402 C403 1.404 . S
C402 C405 1.539 . S
C403 C399 1.408 . S
C403 C402 1.404 . S
C403 H415 0.930 . S
C404 C400 1.524 . S
C404 H416 0.956 . S
C404 H417 0.961 . S
C404 H418 0.961 . S
C405 C402 1.539 . S
C405 H419 0.958 . S
C405 H420 0.961 . S
C405 H421 0.960 . S
H406 C390 0.931 . S
H407 C395 0.929 . S
H408 C396 0.960 . S
H409 C396 0.962 . S
H410 C396 0.960 . S
H411 C397 0.961 . S
H412 C397 0.961 . S
H413 C397 0.961 . S
H414 C398 0.931 . S
H415 C403 0.930 . S
H416 C404 0.956 . S
H417 C404 0.961 . S
H418 C404 0.961 . S
H419 C405 0.958 . S
H420 C405 0.961 . S
H421 C405 0.960 . S
C422 C423 1.391 . S
C422 C424 1.394 . S
C422 H438 0.931 . S
C423 C422 1.391 . S
C423 C427 1.376 . S
C424 C422 1.394 . S
C424 C425 1.369 . S
C424 C428 1.531 . S
C425 C424 1.369 . S
C425 C426 1.410 . S
C425 C433 1.503 . S
C426 C425 1.410 . S
C426 C427 1.392 . S
C426 C429 1.511 . S
C427 C423 1.376 . S
C427 C426 1.392 . S
C427 H439 0.929 . S
C428 C424 1.531 . S
C428 H440 0.960 . S
C428 H441 0.962 . S
C428 H442 0.960 . S
C429 C426 1.511 . S
C429 H443 0.961 . S
C429 H444 0.961 . S
C429 H445 0.961 . S
C430 C431 1.370 . S
C430 C432 1.363 . S
C430 H446 0.931 . S
C431 C430 1.370 . S
C431 C435 1.408 . S
C432 C430 1.363 . S
C432 C433 1.370 . S
C432 C436 1.524 . S
C433 C425 1.503 . S
C433 C432 1.370 . S
C433 C434 1.403 . S
C434 C433 1.403 . S
C434 C435 1.404 . S
C434 C437 1.539 . S
C435 C431 1.408 . S
C435 C434 1.404 . S
C435 H447 0.930 . S
C436 C432 1.524 . S
C436 H448 0.956 . S
C436 H449 0.961 . S
C436 H450 0.961 . S
C437 C434 1.539 . S
C437 H451 0.958 . S
C437 H452 0.961 . S
C437 H453 0.960 . S
H438 C422 0.931 . S
H439 C427 0.929 . S
H440 C428 0.960 . S
H441 C428 0.962 . S
H442 C428 0.960 . S
H443 C429 0.961 . S
H444 C429 0.961 . S
H445 C429 0.961 . S
H446 C430 0.931 . S
H447 C435 0.930 . S
H448 C436 0.956 . S
H449 C436 0.961 . S
H450 C436 0.961 . S
H451 C437 0.958 . S
H452 C437 0.961 . S
H453 C437 0.960 . S
C454 C455 1.391 . S
C454 C456 1.394 . S
C454 H470 0.931 . S
C455 C454 1.391 . S
C455 C459 1.376 . S
C456 C454 1.394 . S
C456 C457 1.369 . S
C456 C460 1.531 . S
C457 C456 1.369 . S
C457 C458 1.410 . S
C457 C465 1.503 . S
C458 C457 1.410 . S
C458 C459 1.392 . S
C458 C461 1.511 . S
C459 C455 1.376 . S
C459 C458 1.392 . S
C459 H471 0.929 . S
C460 C456 1.531 . S
C460 H472 0.960 . S
C460 H473 0.962 . S
C460 H474 0.960 . S
C461 C458 1.511 . S
C461 H475 0.961 . S
C461 H476 0.961 . S
C461 H477 0.961 . S
C462 C463 1.370 . S
C462 C464 1.363 . S
C462 H478 0.931 . S
C463 C462 1.370 . S
C463 C467 1.408 . S
C464 C462 1.363 . S
C464 C465 1.370 . S
C464 C468 1.524 . S
C465 C457 1.503 . S
C465 C464 1.370 . S
C465 C466 1.403 . S
C466 C465 1.403 . S
C466 C467 1.404 . S
C466 C469 1.539 . S
C467 C463 1.408 . S
C467 C466 1.404 . S
C467 H479 0.930 . S
C468 C464 1.524 . S
C468 H480 0.956 . S
C468 H481 0.961 . S
C468 H482 0.961 . S
C469 C466 1.539 . S
C469 H483 0.958 . S
C469 H484 0.961 . S
C469 H485 0.960 . S
H470 C454 0.931 . S
H471 C459 0.929 . S
H472 C460 0.960 . S
H473 C460 0.962 . S
H474 C460 0.960 . S
H475 C461 0.961 . S
H476 C461 0.961 . S
H477 C461 0.961 . S
H478 C462 0.931 . S
H479 C467 0.930 . S
H480 C468 0.956 . S
H481 C468 0.961 . S
H482 C468 0.961 . S
H483 C469 0.958 . S
H484 C469 0.961 . S
H485 C469 0.960 . S
C486 C487 1.391 . S
C486 C488 1.394 . S
C486 H502 0.931 . S
C487 C486 1.391 . S
C487 C491 1.376 . S
C488 C486 1.394 . S
C488 C489 1.369 . S
C488 C492 1.531 . S
C489 C488 1.369 . S
C489 C490 1.410 . S
C489 C497 1.503 . S
C490 C489 1.410 . S
C490 C491 1.392 . S
C490 C493 1.511 . S
C491 C487 1.376 . S
C491 C490 1.392 . S
C491 H503 0.929 . S
C492 C488 1.531 . S
C492 H504 0.960 . S
C492 H505 0.962 . S
C492 H506 0.960 . S
C493 C490 1.511 . S
C493 H507 0.961 . S
C493 H508 0.961 . S
C493 H509 0.961 . S
C494 C495 1.370 . S
C494 C496 1.363 . S
C494 H510 0.931 . S
C495 C494 1.370 . S
C495 C499 1.408 . S
C496 C494 1.363 . S
C496 C497 1.370 . S
C496 C500 1.524 . S
C497 C489 1.503 . S
C497 C496 1.370 . S
C497 C498 1.403 . S
C498 C497 1.403 . S
C498 C499 1.404 . S
C498 C501 1.539 . S
C499 C495 1.408 . S
C499 C498 1.404 . S
C499 H511 0.930 . S
C500 C496 1.524 . S
C500 H512 0.956 . S
C500 H513 0.961 . S
C500 H514 0.961 . S
C501 C498 1.539 . S
C501 H515 0.958 . S
C501 H516 0.961 . S
C501 H517 0.960 . S
H502 C486 0.931 . S
H503 C491 0.929 . S
H504 C492 0.960 . S
H505 C492 0.962 . S
H506 C492 0.960 . S
H507 C493 0.961 . S
H508 C493 0.961 . S
H509 C493 0.961 . S
H510 C494 0.931 . S
H511 C499 0.930 . S
H512 C500 0.956 . S
H513 C500 0.961 . S
H514 C500 0.961 . S
H515 C501 0.958 . S
H516 C501 0.961 . S
H517 C501 0.960 . S
C518 C519 1.391 . S
C518 C520 1.394 . S
C518 H534 0.931 . S
C519 C518 1.391 . S
C519 C523 1.376 . S
C520 C518 1.394 . S
C520 C521 1.369 . S
C520 C524 1.531 . S
C521 C520 1.369 . S
C521 C522 1.410 . S
C521 C529 1.503 . S
C522 C521 1.410 . S
C522 C523 1.392 . S
C522 C525 1.511 . S
C523 C519 1.376 . S
C523 C522 1.392 . S
C523 H535 0.929 . S
C524 C520 1.531 . S
C524 H536 0.960 . S
C524 H537 0.962 . S
C524 H538 0.960 . S
C525 C522 1.511 . S
C525 H539 0.961 . S
C525 H540 0.961 . S
C525 H541 0.961 . S
C526 C527 1.370 . S
C526 C528 1.363 . S
C526 H542 0.931 . S
C527 C526 1.370 . S
C527 C531 1.408 . S
C528 C526 1.363 . S
C528 C529 1.370 . S
C528 C532 1.524 . S
C529 C521 1.503 . S
C529 C528 1.370 . S
C529 C530 1.403 . S
C530 C529 1.403 . S
C530 C531 1.404 . S
C530 C533 1.539 . S
C531 C527 1.408 . S
C531 C530 1.404 . S
C531 H543 0.930 . S
C532 C528 1.524 . S
C532 H544 0.956 . S
C532 H545 0.961 . S
C532 H546 0.961 . S
C533 C530 1.539 . S
C533 H547 0.958 . S
C533 H548 0.961 . S
C533 H549 0.960 . S
H534 C518 0.931 . S
H535 C523 0.929 . S
H536 C524 0.960 . S
H537 C524 0.962 . S
H538 C524 0.960 . S
H539 C525 0.961 . S
H540 C525 0.961 . S
H541 C525 0.961 . S
H542 C526 0.931 . S
H543 C531 0.930 . S
H544 C532 0.956 . S
H545 C532 0.961 . S
H546 C532 0.961 . S
H547 C533 0.958 . S
H548 C533 0.961 . S
H549 C533 0.960 . S
C550 C551 1.391 . S
C550 C552 1.394 . S
C550 H566 0.931 . S
C551 C550 1.391 . S
C551 C555 1.376 . S
C552 C550 1.394 . S
C552 C553 1.369 . S
C552 C556 1.531 . S
C553 C552 1.369 . S
C553 C554 1.410 . S
C553 C561 1.503 . S
C554 C553 1.410 . S
C554 C555 1.392 . S
C554 C557 1.511 . S
C555 C551 1.376 . S
C555 C554 1.392 . S
C555 H567 0.929 . S
C556 C552 1.531 . S
C556 H568 0.960 . S
C556 H569 0.962 . S
C556 H570 0.960 . S
C557 C554 1.511 . S
C557 H571 0.961 . S
C557 H572 0.961 . S
C557 H573 0.961 . S
C558 C559 1.370 . S
C558 C560 1.363 . S
C558 H574 0.931 . S
C559 C558 1.370 . S
C559 C563 1.408 . S
C560 C558 1.363 . S
C560 C561 1.370 . S
C560 C564 1.524 . S
C561 C553 1.503 . S
C561 C560 1.370 . S
C561 C562 1.403 . S
C562 C561 1.403 . S
C562 C563 1.404 . S
C562 C565 1.539 . S
C563 C559 1.408 . S
C563 C562 1.404 . S
C563 H575 0.930 . S
C564 C560 1.524 . S
C564 H576 0.956 . S
C564 H577 0.961 . S
C564 H578 0.961 . S
C565 C562 1.539 . S
C565 H579 0.958 . S
C565 H580 0.961 . S
C565 H581 0.960 . S
H566 C550 0.931 . S
H567 C555 0.929 . S
H568 C556 0.960 . S
H569 C556 0.962 . S
H570 C556 0.960 . S
H571 C557 0.961 . S
H572 C557 0.961 . S
H573 C557 0.961 . S
H574 C558 0.931 . S
H575 C563 0.930 . S
H576 C564 0.956 . S
H577 C564 0.961 . S
H578 C564 0.961 . S
H579 C565 0.958 . S
H580 C565 0.961 . S
H581 C565 0.960 . S
C582 C583 1.391 . S
C582 C584 1.394 . S
C582 H598 0.931 1_455 S
C583 C582 1.391 . S
C583 C587 1.376 . S
C584 C582 1.394 . S
C584 C585 1.369 . S
C584 C588 1.531 . S
C585 C584 1.369 . S
C585 C586 1.410 . S
C585 C593 1.503 1_554 S
C586 C585 1.410 . S
C586 C587 1.392 . S
C586 C589 1.511 . S
C587 C583 1.376 . S
C587 C586 1.392 . S
C587 H599 0.929 . S
C588 C584 1.531 . S
C588 H600 0.960 . S
C588 H601 0.962 1_455 S
C588 H602 0.960 . S
C589 C586 1.511 . S
C589 H603 0.961 . S
C589 H604 0.961 . S
C589 H605 0.961 . S
C590 C591 1.370 . S
C590 C592 1.363 . S
C590 H606 0.931 1_455 S
C591 C590 1.370 . S
C591 C595 1.408 . S
C592 C590 1.363 . S
C592 C593 1.370 . S
C592 C596 1.524 1_455 S
C593 C585 1.503 1_556 S
C593 C592 1.370 . S
C593 C594 1.403 . S
C594 C593 1.403 . S
C594 C595 1.404 . S
C594 C597 1.539 1_556 S
C595 C591 1.408 . S
C595 C594 1.404 . S
C595 H607 0.930 . S
C596 C592 1.524 1_655 S
C596 H608 0.956 . S
C596 H609 0.961 1_556 S
C596 H610 0.961 . S
C597 C594 1.539 1_554 S
C597 H611 0.958 . S
C597 H612 0.961 1_554 S
C597 H613 0.960 . S
H598 C582 0.931 1_655 S
H599 C587 0.929 . S
H600 C588 0.960 . S
H601 C588 0.962 1_655 S
H602 C588 0.960 . S
H603 C589 0.961 . S
H604 C589 0.961 . S
H605 C589 0.961 . S
H606 C590 0.931 1_655 S
H607 C595 0.930 . S
H608 C596 0.956 . S
H609 C596 0.961 1_554 S
H610 C596 0.961 . S
H611 C597 0.958 . S
H612 C597 0.961 1_556 S
H613 C597 0.960 . S
C614 C615 1.391 . S
C614 C616 1.394 . S
C614 H630 0.931 . S
C615 C614 1.391 . S
C615 C619 1.376 . S
C616 C614 1.394 . S
C616 C617 1.369 . S
C616 C620 1.531 . S
C617 C616 1.369 . S
C617 C618 1.410 . S
C617 C625 1.503 . S
C618 C617 1.410 . S
C618 C619 1.392 . S
C618 C621 1.511 1_545 S
C619 C615 1.376 . S
C619 C618 1.392 . S
C619 H631 0.929 1_545 S
C620 C616 1.531 . S
C620 H632 0.960 . S
C620 H633 0.962 . S
C620 H634 0.960 . S
C621 C618 1.511 1_565 S
C621 H635 0.961 . S
C621 H636 0.961 . S
C621 H637 0.961 1_565 S
C622 C623 1.370 1_565 S
C622 C624 1.363 . S
C622 H638 0.931 . S
C623 C622 1.370 1_545 S
C623 C627 1.408 . S
C624 C622 1.363 . S
C624 C625 1.370 1_565 S
C624 C628 1.524 . S
C625 C617 1.503 . S
C625 C624 1.370 1_545 S
C625 C626 1.403 . S
C626 C625 1.403 . S
C626 C627 1.404 . S
C626 C629 1.539 . S
C627 C623 1.408 . S
C627 C626 1.404 . S
C627 H639 0.930 . S
C628 C624 1.524 . S
C628 H640 0.956 . S
C628 H641 0.961 . S
C628 H642 0.961 . S
C629 C626 1.539 . S
C629 H643 0.958 . S
C629 H644 0.961 . S
C629 H645 0.960 . S
H630 C614 0.931 . S
H631 C619 0.929 1_565 S
H632 C620 0.960 . S
H633 C620 0.962 . S
H634 C620 0.960 . S
H635 C621 0.961 . S
H636 C621 0.961 . S
H637 C621 0.961 1_545 S
H638 C622 0.931 . S
H639 C627 0.930 . S
H640 C628 0.956 . S
H641 C628 0.961 . S
H642 C628 0.961 . S
H643 C629 0.958 . S
H644 C629 0.961 . S
H645 C629 0.960 . S
C646 C647 1.391 . S
C646 C648 1.394 . S
C646 H662 0.931 . S
C647 C646 1.391 . S
C647 C651 1.376 . S
C648 C646 1.394 . S
C648 C649 1.369 . S
C648 C652 1.531 . S
C649 C648 1.369 . S
C649 C650 1.410 . S
C649 C657 1.503 . S
C650 C649 1.410 . S
C650 C651 1.392 . S
C650 C653 1.511 . S
C651 C647 1.376 . S
C651 C650 1.392 . S
C651 H663 0.929 . S
C652 C648 1.531 . S
C652 H664 0.960 . S
C652 H665 0.962 . S
C652 H666 0.960 . S
C653 C650 1.511 . S
C653 H667 0.961 . S
C653 H668 0.961 . S
C653 H669 0.961 . S
C654 C655 1.370 . S
C654 C656 1.363 . S
C654 H670 0.931 . S
C655 C654 1.370 . S
C655 C659 1.408 . S
C656 C654 1.363 . S
C656 C657 1.370 . S
C656 C660 1.524 . S
C657 C649 1.503 . S
C657 C656 1.370 . S
C657 C658 1.403 . S
C658 C657 1.403 . S
C658 C659 1.404 . S
C658 C661 1.539 . S
C659 C655 1.408 . S
C659 C658 1.404 . S
C659 H671 0.930 . S
C660 C656 1.524 . S
C660 H672 0.956 . S
C660 H673 0.961 . S
C660 H674 0.961 . S
C661 C658 1.539 . S
C661 H675 0.958 . S
C661 H676 0.961 . S
C661 H677 0.960 . S
H662 C646 0.931 . S
H663 C651 0.929 . S
H664 C652 0.960 . S
H665 C652 0.962 . S
H666 C652 0.960 . S
H667 C653 0.961 . S
H668 C653 0.961 . S
H669 C653 0.961 . S
H670 C654 0.931 . S
H671 C659 0.930 . S
H672 C660 0.956 . S
H673 C660 0.961 . S
H674 C660 0.961 . S
H675 C661 0.958 . S
H676 C661 0.961 . S
H677 C661 0.960 . S
C678 C679 1.391 1_565 S
C678 C680 1.394 . S
C678 H694 0.931 . S
C679 C678 1.391 1_545 S
C679 C683 1.376 . S
C680 C678 1.394 . S
C680 C681 1.369 1_565 S
C680 C684 1.531 . S
C681 C680 1.369 1_545 S
C681 C682 1.410 . S
C681 C689 1.503 . S
C682 C681 1.410 . S
C682 C683 1.392 . S
C682 C685 1.511 . S
C683 C679 1.376 . S
C683 C682 1.392 . S
C683 H695 0.929 . S
C684 C680 1.531 . S
C684 H696 0.960 . S
C684 H697 0.962 . S
C684 H698 0.960 . S
C685 C682 1.511 . S
C685 H699 0.961 . S
C685 H700 0.961 . S
C685 H701 0.961 . S
C686 C687 1.370 . S
C686 C688 1.363 . S
C686 H702 0.931 . S
C687 C686 1.370 . S
C687 C691 1.408 1_545 S
C688 C686 1.363 . S
C688 C689 1.370 . S
C688 C692 1.524 . S
C689 C681 1.503 . S
C689 C688 1.370 . S
C689 C690 1.403 1_545 S
C690 C689 1.403 1_565 S
C690 C691 1.404 . S
C690 C693 1.539 . S
C691 C687 1.408 1_565 S
C691 C690 1.404 . S
C691 H703 0.930 . S
C692 C688 1.524 . S
C692 H704 0.956 . S
C692 H705 0.961 . S
C692 H706 0.961 . S
C693 C690 1.539 . S
C693 H707 0.958 . S
C693 H708 0.961 . S
C693 H709 0.960 . S
H694 C678 0.931 . S
H695 C683 0.929 . S
H696 C684 0.960 . S
H697 C684 0.962 . S
H698 C684 0.960 . S
H699 C685 0.961 . S
H700 C685 0.961 . S
H701 C685 0.961 . S
H702 C686 0.931 . S
H703 C691 0.930 . S
H704 C692 0.956 . S
H705 C692 0.961 . S
H706 C692 0.961 . S
H707 C693 0.958 . S
H708 C693 0.961 . S
H709 C693 0.960 . S
C710 C711 1.391 . S
C710 C712 1.394 . S
C710 H726 0.931 . S
C711 C710 1.391 . S
C711 C715 1.376 . S
C712 C710 1.394 . S
C712 C713 1.369 . S
C712 C716 1.531 . S
C713 C712 1.369 . S
C713 C714 1.410 . S
C713 C721 1.503 . S
C714 C713 1.410 . S
C714 C715 1.392 . S
C714 C717 1.511 . S
C715 C711 1.376 . S
C715 C714 1.392 . S
C715 H727 0.929 . S
C716 C712 1.531 . S
C716 H728 0.960 . S
C716 H729 0.962 . S
C716 H730 0.960 . S
C717 C714 1.511 . S
C717 H731 0.961 . S
C717 H732 0.961 . S
C717 H733 0.961 . S
C718 C719 1.370 . S
C718 C720 1.363 . S
C718 H734 0.931 . S
C719 C718 1.370 . S
C719 C723 1.408 . S
C720 C718 1.363 . S
C720 C721 1.370 1_554 S
C720 C724 1.524 1_554 S
C721 C713 1.503 . S
C721 C720 1.370 1_556 S
C721 C722 1.403 1_556 S
C722 C721 1.403 1_554 S
C722 C723 1.404 . S
C722 C725 1.539 1_554 S
C723 C719 1.408 . S
C723 C722 1.404 . S
C723 H735 0.930 . S
C724 C720 1.524 1_556 S
C724 H736 0.956 . S
C724 H737 0.961 . S
C724 H738 0.973 . S
C725 C722 1.539 1_556 S
C725 H739 0.958 . S
C725 H740 0.961 1_556 S
C725 H741 0.960 . S
H726 C710 0.931 . S
H727 C715 0.929 . S
H728 C716 0.960 . S
H729 C716 0.962 . S
H730 C716 0.960 . S
H731 C717 0.961 . S
H732 C717 0.961 . S
H733 C717 0.961 . S
H734 C718 0.931 . S
H735 C723 0.930 . S
H736 C724 0.956 . S
H737 C724 0.961 . S
H738 C724 0.973 . S
H739 C725 0.958 . S
H740 C725 0.961 1_554 S
H741 C725 0.960 . S
C742 C743 1.391 . S
C742 C744 1.394 . S
C742 H758 0.931 . S
C743 C742 1.391 . S
C743 C747 1.376 1_655 S
C744 C742 1.394 . S
C744 C745 1.369 1_655 S
C744 C748 1.531 . S
C745 C744 1.369 1_455 S
C745 C746 1.409 . S
C745 C753 1.503 . S
C746 C745 1.409 . S
C746 C747 1.392 . S
C746 C749 1.511 . S
C747 C743 1.376 1_455 S
C747 C746 1.392 . S
C747 H759 0.929 . S
C748 C744 1.531 . S
C748 H760 0.960 . S
C748 H761 0.962 . S
C748 H762 0.960 . S
C749 C746 1.511 . S
C749 H763 0.961 . S
C749 H764 0.961 . S
C749 H765 0.961 . S
C750 C751 1.370 . S
C750 C752 1.363 . S
C750 H766 0.931 . S
C751 C750 1.370 . S
C751 C755 1.408 1_455 S
C752 C750 1.363 . S
C752 C753 1.370 . S
C752 C756 1.524 . S
C753 C745 1.503 . S
C753 C752 1.370 . S
C753 C754 1.403 1_455 S
C754 C753 1.403 1_655 S
C754 C755 1.404 . S
C754 C757 1.539 . S
C755 C751 1.408 1_655 S
C755 C754 1.404 . S
C755 H767 0.930 . S
C756 C752 1.524 . S
C756 H768 0.956 . S
C756 H769 0.961 . S
C756 H770 0.961 . S
C757 C754 1.539 . S
C757 H771 0.958 . S
C757 H772 0.961 . S
C757 H773 0.960 . S
H758 C742 0.931 . S
H759 C747 0.929 . S
H760 C748 0.960 . S
H761 C748 0.962 . S
H762 C748 0.960 . S
H763 C749 0.961 . S
H764 C749 0.961 . S
H765 C749 0.961 . S
H766 C750 0.931 . S
H767 C755 0.930 . S
H768 C756 0.956 . S
H769 C756 0.961 . S
H770 C756 0.961 . S
H771 C757 0.958 . S
H772 C757 0.961 . S
H773 C757 0.960 . S
C199 C6 0.614 . S
C207 C189 0.589 . S
C231 C59 1.824 . S
C239 C167 1.801 . S
C263 C86 1.163 . S
C271 C180 1.171 . S
C295 C15 0.377 . S
C303 C193 0.246 . S
C335 C163 1.858 . S
C327 C50 2.003 . S
C367 C176 1.287 . S
C359 C95 1.347 . S
C391 C46 1.082 . S
C399 C141 1.082 . S
C423 C99 3.022 . S
C431 C154 2.990 1_655 S
C455 C10 2.003 . S
C463 C124 1.865 . S
C495 C137 1.320 . S
C487 C55 1.364 . S
C527 C150 2.896 . S
C519 C90 3.057 . S
C551 C19 1.848 . S
C559 C128 1.820 . S
C591 C155 1.750 . S
C583 C18 1.691 . S
C615 C49 1.450 . S
C623 C129 1.486 . S
C647 C98 1.469 . S
C655 C142 1.604 . S
C687 C181 1.539 . S
C679 C58 1.493 . S
C719 C194 1.312 . S
C711 C89 1.322 . S
C743 C9 1.416 1_655 S
C751 C168 1.475 . S
