# Generated by pormake.
# Topology zzz, (3,6)-cn, num edge types: 1
# Building blocks:
#     Node 0, Type 0, BuildingBlock: CUQRIR_clean_linker_1, # of connection points: 3
#     Node 1, Type 0, BuildingBlock: CUQRIR_clean_linker_1, # of connection points: 3
#     Node 2, Type 0, BuildingBlock: CUQRIR_clean_linker_1, # of connection points: 3
#     Node 3, Type 0, BuildingBlock: CUQRIR_clean_linker_1, # of connection points: 3
#     Node 4, Type 0, BuildingBlock: CUQRIR_clean_linker_1, # of connection points: 3
#     Node 5, Type 0, BuildingBlock: CUQRIR_clean_linker_1, # of connection points: 3
#     Node 6, Type 0, BuildingBlock: CUQRIR_clean_linker_1, # of connection points: 3
#     Node 7, Type 0, BuildingBlock: CUQRIR_clean_linker_1, # of connection points: 3
#     Node 8, Type 1, BuildingBlock: BETDIP_clean_sbu_0, # of connection points: 6
#     Node 9, Type 1, BuildingBlock: BETDIP_clean_sbu_0, # of connection points: 6
#     Node 10, Type 1, BuildingBlock: BETDIP_clean_sbu_0, # of connection points: 6
#     Node 11, Type 1, BuildingBlock: BETDIP_clean_sbu_0, # of connection points: 6
#     Edge 12, Type (0, 1), BuildingBlock: ZUJKAS_clean_linker_0, # of connection points: 2
#     Edge 13, Type (0, 1), BuildingBlock: ZUJKAS_clean_linker_0, # of connection points: 2
#     Edge 14, Type (0, 1), BuildingBlock: ZUJKAS_clean_linker_0, # of connection points: 2
#     Edge 15, Type (0, 1), BuildingBlock: ZUJKAS_clean_linker_0, # of connection points: 2
#     Edge 16, Type (0, 1), BuildingBlock: ZUJKAS_clean_linker_0, # of connection points: 2
#     Edge 17, Type (0, 1), BuildingBlock: ZUJKAS_clean_linker_0, # of connection points: 2
#     Edge 18, Type (0, 1), BuildingBlock: ZUJKAS_clean_linker_0, # of connection points: 2
#     Edge 19, Type (0, 1), BuildingBlock: ZUJKAS_clean_linker_0, # of connection points: 2
#     Edge 20, Type (0, 1), BuildingBlock: ZUJKAS_clean_linker_0, # of connection points: 2
#     Edge 21, Type (0, 1), BuildingBlock: ZUJKAS_clean_linker_0, # of connection points: 2
#     Edge 22, Type (0, 1), BuildingBlock: ZUJKAS_clean_linker_0, # of connection points: 2
#     Edge 23, Type (0, 1), BuildingBlock: ZUJKAS_clean_linker_0, # of connection points: 2
#     Edge 24, Type (0, 1), BuildingBlock: ZUJKAS_clean_linker_0, # of connection points: 2
#     Edge 25, Type (0, 1), BuildingBlock: ZUJKAS_clean_linker_0, # of connection points: 2
#     Edge 26, Type (0, 1), BuildingBlock: ZUJKAS_clean_linker_0, # of connection points: 2
#     Edge 27, Type (0, 1), BuildingBlock: ZUJKAS_clean_linker_0, # of connection points: 2
#     Edge 28, Type (0, 1), BuildingBlock: ZUJKAS_clean_linker_0, # of connection points: 2
#     Edge 29, Type (0, 1), BuildingBlock: ZUJKAS_clean_linker_0, # of connection points: 2
#     Edge 30, Type (0, 1), BuildingBlock: ZUJKAS_clean_linker_0, # of connection points: 2
#     Edge 31, Type (0, 1), BuildingBlock: ZUJKAS_clean_linker_0, # of connection points: 2
#     Edge 32, Type (0, 1), BuildingBlock: ZUJKAS_clean_linker_0, # of connection points: 2
#     Edge 33, Type (0, 1), BuildingBlock: ZUJKAS_clean_linker_0, # of connection points: 2
#     Edge 34, Type (0, 1), BuildingBlock: ZUJKAS_clean_linker_0, # of connection points: 2
#     Edge 35, Type (0, 1), BuildingBlock: ZUJKAS_clean_linker_0, # of connection points: 2
# Relax obj value: 0.240
# Max RMSD: 0.155
# Mean RMSD: 0.145
data_MOF--net-zzz--node1-BETDIP_clean_sbu_0--node2-CUQRIR_clean_linker_1--edge1-ZUJKAS_clean_linker_0
_symmetry_space_group_name_H-M    P1
_symmetry_Int_Tables_number       1
_symmetry_cell_setting            triclinic
loop_
_symmetry_equiv_pos_as_xyz
'x, y, z'
_cell_length_a     64.359753
_cell_length_b     64.206136
_cell_length_c     15.952401
_cell_angle_alpha  89.864286
_cell_angle_beta   90.066057
_cell_angle_gamma 89.907681
loop_
_atom_site_label
_atom_site_type_symbol
_atom_site_fract_x
_atom_site_fract_y
_atom_site_fract_z
_atom_type_partial_charge
C0 C 0.74813 0.52092 0.35101 0.0
N1 N 0.76539 0.50992 0.37261 0.0
N2 N 0.73445 0.50871 0.30828 0.0
C3 C 0.74475 0.54347 0.3711 0.0
C4 C 0.74435 0.49007 0.30346 0.0
N5 N 0.76293 0.49076 0.3431 0.0
C6 C 0.73656 0.47169 0.25414 0.0
H7 H 0.75281 0.54766 0.43025 0.0
H8 H 0.72792 0.547 0.37637 0.0
H9 H 0.75136 0.55309 0.31979 0.0
H10 H 0.72923 0.47701 0.1948 0.0
H11 H 0.72458 0.46345 0.29151 0.0
H12 H 0.74914 0.46046 0.23976 0.0
C13 C 1.01034 0.74778 0.36364 0.0
N14 N 1.00652 0.76864 0.36142 0.0
N15 N 1.00478 0.7386 0.28967 0.0
C16 C 0.01963 0.73653 0.43706 0.0
C17 C 0.99777 0.7548 0.24258 0.0
N18 N 0.99862 0.77273 0.28633 0.0
C19 C 0.99129 0.75336 0.15208 0.0
H20 H 0.03678 0.73633 0.4301 0.0
H21 H 0.01404 0.7202 0.43948 0.0
H22 H 0.01577 0.74463 0.49643 0.0
H23 H 0.97465 0.74895 0.14904 0.0
H24 H 1.0005 0.7413 0.11897 0.0
H25 H 0.99316 0.7685 0.11934 0.0
C26 C 0.78902 1.00845 0.31575 0.0
N27 N 0.77011 0.99914 0.32178 0.0
N28 N 0.80166 0.99767 0.26269 0.0
C29 C 0.79522 0.02769 0.36254 0.0
C30 C 0.78955 0.98171 0.23603 0.0
N31 N 0.77061 0.98254 0.2723 0.0
C32 C 0.79554 0.9665 0.16851 0.0
H33 H 0.79097 0.04155 0.32451 0.0
H34 H 0.81225 0.02792 0.37354 0.0
H35 H 0.78687 0.02864 0.42325 0.0
H36 H 0.78168 0.96017 0.13601 0.0
H37 H 0.80408 0.95331 0.19756 0.0
H38 H 0.80587 0.97399 0.12169 0.0
C39 C 0.51825 0.79032 0.33595 0.0
N40 N 0.50765 0.77268 0.35534 0.0
N41 N 0.50628 0.80345 0.28917 0.0
C42 C 0.54045 0.79428 0.3594 0.0
C43 C 0.48816 0.79294 0.28009 0.0
N44 N 0.48899 0.77437 0.32031 0.0
C45 C 0.47014 0.80043 0.22781 0.0
H46 H 0.54415 0.78693 0.42068 0.0
H47 H 0.54364 0.81125 0.36212 0.0
H48 H 0.55068 0.78723 0.31118 0.0
H49 H 0.47569 0.80472 0.16423 0.0
H50 H 0.46344 0.81464 0.25662 0.0
H51 H 0.45766 0.78864 0.22272 0.0
C52 C 0.28333 0.52278 0.13608 0.0
N53 N 0.26614 0.53379 0.11399 0.0
N54 N 0.29782 0.53542 0.172 0.0
C55 C 0.28565 0.4997 0.12524 0.0
C56 C 0.28859 0.55445 0.17144 0.0
N57 N 0.26951 0.55345 0.13589 0.0
C58 C 0.29789 0.57378 0.20923 0.0
H59 H 0.27887 0.49173 0.18058 0.0
H60 H 0.30228 0.49529 0.12038 0.0
H61 H 0.27715 0.49439 0.06866 0.0
H62 H 0.31032 0.57966 0.16735 0.0
H63 H 0.30504 0.57005 0.27083 0.0
H64 H 0.28629 0.58638 0.21709 0.0
C65 C 1.01301 0.28672 0.12594 0.0
N66 N 1.00246 0.26876 0.111 0.0
N67 N 1.00174 0.29971 0.17604 0.0
C68 C 0.03407 0.29166 0.09119 0.0
C69 C 0.98416 0.28875 0.19175 0.0
N70 N 0.98457 0.27018 0.15207 0.0
C71 C 0.9675 0.29535 0.25246 0.0
H72 H 0.03613 0.30873 0.08442 0.0
H73 H 0.03634 0.28393 0.02971 0.0
H74 H 0.04606 0.2857 0.13517 0.0
H75 H 0.95571 0.3047 0.21826 0.0
H76 H 0.97409 0.30509 0.30329 0.0
H77 H 0.9596 0.2817 0.28074 0.0
C78 C 0.25362 0.02045 0.08885 0.0
N79 N 0.27145 1.00993 0.07184 0.0
N80 N 0.24003 1.00814 0.1316 0.0
C81 C 0.24993 0.04292 0.06768 0.0
C82 C 0.25041 0.98987 0.14047 0.0
N83 N 0.26938 0.99095 0.10411 0.0
C84 C 0.24234 0.97139 0.18868 0.0
H85 H 0.23305 0.04631 0.06346 0.0
H86 H 0.25762 0.04703 0.0077 0.0
H87 H 0.25676 0.05272 0.11781 0.0
H88 H 0.22872 0.96482 0.15541 0.0
H89 H 0.23704 0.97647 0.25161 0.0
H90 H 0.25413 0.95891 0.19548 0.0
C91 C 0.51485 0.25328 0.1169 0.0
N92 N 0.52444 0.27164 0.09979 0.0
N93 N 0.52635 0.24162 0.1718 0.0
C94 C 0.49462 0.24668 0.07866 0.0
C95 C 0.54304 0.25395 0.18804 0.0
N96 N 0.54198 0.2718 0.14337 0.0
C97 C 0.55933 0.2496 0.25365 0.0
H98 H 0.49401 0.2295 0.07185 0.0
H99 H 0.49238 0.25419 0.01657 0.0
H100 H 0.48173 0.25167 0.12019 0.0
H101 H 0.5723 0.24081 0.22456 0.0
H102 H 0.55284 0.2402 0.30584 0.0
H103 H 0.56579 0.26425 0.27945 0.0
Tb104 Tb 0.03609 0.01638 0.78603 0.0
Tb105 Tb 1.01096 0.02294 0.64454 0.0
C106 C 0.05386 1.00563 0.92041 0.0
C107 C 0.04653 0.99908 1.00291 0.0
C108 C 0.02554 0.99419 0.01511 0.0
C109 C 0.01936 0.98392 0.08802 0.0
C110 C 0.03415 0.97843 0.14921 0.0
C111 C 0.05468 0.98563 0.1408 0.0
C112 C 0.06087 0.99578 0.06758 0.0
C113 C 0.0582 0.0273 0.65071 0.0
C114 C 0.02308 0.97748 0.67829 0.0
C115 C 0.99479 0.03433 0.50798 0.0
C116 C 0.98042 0.05074 0.48141 0.0
C117 C 0.97496 0.05246 0.39675 0.0
C118 C 0.96212 0.0687 0.3698 0.0
C119 C 0.95461 0.08347 0.42734 0.0
C120 C 0.95951 0.08115 0.51285 0.0
C121 C 0.97234 0.06489 0.5397 0.0
C122 C 0.98856 1.01105 0.77687 0.0
C123 C 0.01942 0.06134 0.76699 0.0
O124 O 0.04995 0.02486 0.90016 0.0
O125 O 0.04967 0.99288 0.85921 0.0
O126 O 0.04317 1.01484 0.65319 0.0
O127 O 0.06154 0.03345 0.72607 0.0
O128 O 0.02574 0.9843 0.75588 0.0
O129 O 0.02096 0.99123 0.61737 0.0
O130 O 1.01303 0.04056 0.53393 0.0
O131 O 0.98688 0.02013 0.55692 0.0
O132 O 1.00361 0.02362 0.77763 0.0
O133 O 0.98527 1.00559 0.70025 0.0
O134 O 0.01476 0.0556 0.68942 0.0
O135 O 0.02485 0.04702 0.82196 0.0
H136 H 0.01425 0.99694 0.9658 0.0
H137 H 1.00346 0.9785 0.09235 0.0
H138 H 0.06631 0.98181 0.18757 0.0
H139 H 0.07708 0.99983 0.05931 0.0
H140 H 0.98103 0.04155 0.35118 0.0
H141 H 0.95888 0.07024 0.30342 0.0
H142 H 0.95382 0.09219 0.55868 0.0
H143 H 0.97628 0.06359 0.60556 0.0
Tb144 Tb 0.52732 0.02513 0.78134 0.0
Tb145 Tb 0.51341 1.00881 0.61675 0.0
C146 C 0.54073 0.02633 0.92886 0.0
C147 C 0.55554 1.01301 0.97421 0.0
C148 C 0.55312 1.00962 0.06054 0.0
C149 C 0.56567 0.99508 0.10225 0.0
C150 C 0.58059 0.98354 0.05773 0.0
C151 C 0.58294 0.98705 0.9713 0.0
C152 C 0.57058 1.00167 0.93005 0.0
C153 C 0.51522 0.05498 0.67557 0.0
C154 C 0.56189 0.01618 0.64611 0.0
C155 C 0.50639 0.99782 0.46846 0.0
C156 C 0.49132 0.98411 0.42737 0.0
C157 C 0.48736 0.98639 0.34155 0.0
C158 C 0.47214 0.97425 0.30277 0.0
C159 C 0.46066 0.95963 0.34945 0.0
C160 C 0.46531 0.95685 0.43492 0.0
C161 C 0.48046 0.96905 0.47362 0.0
C162 C 0.51327 0.98132 0.74215 0.0
C163 C 0.47918 0.0216 0.74381 0.0
O164 O 0.52366 0.01672 0.90703 0.0
O165 O 0.54822 0.03797 0.86821 0.0
O166 O 0.52465 0.03837 0.6574 0.0
O167 O 0.51446 0.05625 0.7566 0.0
O168 O 0.55795 0.0191 0.72659 0.0
O169 O 0.54661 1.01379 0.59134 0.0
O170 O 0.49875 1.01486 0.50166 0.0
O171 O 0.51977 0.98851 0.5178 0.0
O172 O 0.52677 0.99495 0.72726 0.0
O173 O 0.49947 0.98223 0.68354 0.0
O174 O 0.48382 0.02109 0.66301 0.0
O175 O 0.49398 0.02004 0.80119 0.0
H176 H 0.54131 0.01797 0.09534 0.0
H177 H 0.5636 0.9927 0.16897 0.0
H178 H 0.59459 0.97872 0.93563 0.0
H179 H 0.57253 1.00377 0.86328 0.0
H180 H 0.49565 0.99793 0.30499 0.0
H181 H 0.46874 0.97701 0.23718 0.0
H182 H 0.4569 0.94558 0.47236 0.0
H183 H 0.4834 0.96698 0.53994 0.0
Tb184 Tb 0.50667 0.52909 0.81678 0.0
Tb185 Tb 0.52606 0.51736 0.65881 0.0
C186 C 0.49453 0.53398 0.96523 0.0
C187 C 0.4815 0.54946 0.00771 0.0
C188 C 0.48475 0.55372 0.09274 0.0
C189 C 0.47332 0.56936 0.13244 0.0
C190 C 0.45843 0.58097 0.08753 0.0
C191 C 0.45469 0.57606 1.00299 0.0
C192 C 0.4662 0.56053 0.96331 0.0
C193 C 0.48075 0.52965 0.68775 0.0
C194 C 0.51852 0.56586 0.70085 0.0
C195 C 0.53625 0.51359 0.50726 0.0
C196 C 0.54395 0.49756 0.44966 0.0
C197 C 0.53637 0.47712 0.45311 0.0
C198 C 0.5434 0.46231 0.39603 0.0
C199 C 0.55826 0.46762 0.33503 0.0
C200 C 0.56611 0.48798 0.33257 0.0
C201 C 0.55889 0.50289 0.38928 0.0
C202 C 0.55205 0.51665 0.78755 0.0
C203 C 0.51478 0.48074 0.77578 0.0
O204 O 0.51247 0.54068 0.93765 0.0
O205 O 0.48501 0.52226 0.91048 0.0
O206 O 0.4947 0.51619 0.70181 0.0
O207 O 0.48041 0.5427 0.74932 0.0
O208 O 0.51428 0.56088 0.77936 0.0
O209 O 0.52158 0.5512 0.64401 0.0
O210 O 0.51724 0.51135 0.53496 0.0
O211 O 0.54909 0.5195 0.56602 0.0
O212 O 0.53809 0.53018 0.77403 0.0
O213 O 0.55241 0.50368 0.72542 0.0
O214 O 0.51819 0.48567 0.69641 0.0
O215 O 0.51269 0.49545 0.83336 0.0
H216 H 0.49652 0.54532 0.12785 0.0
H217 H 0.47682 0.57296 0.19722 0.0
H218 H 0.44319 0.58456 0.96693 0.0
H219 H 0.46341 0.55744 0.89755 0.0
H220 H 0.52499 0.4726 0.49972 0.0
H221 H 0.53742 0.44658 0.40034 0.0
H222 H 0.5776 0.49239 0.28628 0.0
H223 H 0.56491 0.51862 0.38587 0.0
Tb224 Tb 1.00851 0.50783 0.82586 0.0
Tb225 Tb 0.02255 0.52673 0.65608 0.0
C226 C 1.00161 0.49786 0.97534 0.0
C227 C 0.98576 0.48525 0.01724 0.0
C228 C 0.98498 0.48437 0.10494 0.0
C229 C 0.96896 0.47355 0.14503 0.0
C230 C 0.95349 0.46353 0.09766 0.0
C231 C 0.95492 0.46375 0.00966 0.0
C232 C 0.97087 0.47458 0.9698 0.0
C233 C 1.00828 0.48172 0.69673 0.0
C234 C 0.97425 0.5207 0.69636 0.0
C235 C 0.03325 0.53119 0.50597 0.0
C236 C 0.04922 0.54323 0.46098 0.0
C237 C 0.0702 0.54207 0.48456 0.0
C238 C 0.08519 0.55317 0.44015 0.0
C239 C 0.07956 0.56593 0.37186 0.0
C240 C 0.05848 0.5673 0.34916 0.0
C241 C 0.04346 0.55598 0.39325 0.0
C242 C 0.018 0.55661 0.77233 0.0
C243 C 0.05699 0.5188 0.7923 0.0
O244 O 0.99484 0.51521 0.94108 0.0
O245 O 0.01427 0.48757 0.92614 0.0
O246 O 0.0213 0.49606 0.7104 0.0
O247 O 0.99578 0.4808 0.76014 0.0
O248 O 0.97846 0.51839 0.77738 0.0
O249 O 0.98915 0.52111 0.63888 0.0
O250 O 0.03985 0.51597 0.55412 0.0
O251 O 0.0184 0.54208 0.54094 0.0
O252 O 0.0149 0.53735 0.77733 0.0
O253 O 0.02431 0.55983 0.69624 0.0
O254 O 0.05325 0.52338 0.71256 0.0
O255 O 0.04191 0.51386 0.84577 0.0
H256 H 0.99643 0.49253 0.14233 0.0
H257 H 0.96815 0.47384 0.21283 0.0
H258 H 0.94337 0.45597 0.97154 0.0
H259 H 0.97131 0.47504 0.90195 0.0
H260 H 0.07513 0.53242 0.53672 0.0
H261 H 0.1013 0.5513 0.45838 0.0
H262 H 0.05356 0.57709 0.29746 0.0
H263 H 0.02733 0.55715 0.37429 0.0
H264 H 0.23263 0.03827 0.24625 0.0
H265 H 0.2003 0.04384 0.32532 0.0
H266 H 0.17085 0.99466 0.18526 0.0
H267 H 0.20297 0.98964 0.10472 0.0
H268 H 0.14408 0.02754 0.21192 0.0
H269 H 0.18185 1.00471 0.51093 0.0
H270 H 0.19425 0.02623 0.45943 0.0
H271 H 0.19418 1.001 0.41058 0.0
C272 C 0.21909 0.029 0.23139 0.0
C273 C 0.22031 1.01345 0.16974 0.0
C274 C 0.20069 0.03196 0.27728 0.0
C275 C 0.18316 0.01933 0.26293 0.0
C276 C 0.18411 1.0045 0.19833 0.0
H277 H 0.06113 1.00367 0.50693 0.0
H278 H 0.09052 1.002 0.40888 0.0
C279 C 0.20248 1.00158 0.15246 0.0
C280 C 0.16415 0.02102 0.3168 0.0
H281 H 0.14739 0.01734 0.51984 0.0
C282 C 0.1448 0.02528 0.27925 0.0
C283 C 0.16493 0.01788 0.40474 0.0
C284 C 0.18486 1.012 0.44888 0.0
C285 C 0.12644 0.02704 0.32721 0.0
C286 C 0.1273 0.02414 0.41531 0.0
C287 C 0.14663 0.01971 0.45256 0.0
C288 C 0.10856 0.02593 0.47078 0.0
C289 C 0.10641 0.03251 0.28316 0.0
C290 C 0.10878 0.03976 0.53895 0.0
C291 C 0.0921 0.04059 0.59527 0.0
C292 C 0.07473 0.02756 0.5853 0.0
C293 C 0.07421 1.01402 0.51606 0.0
C294 C 0.091 1.01313 0.45967 0.0
H295 H 0.10927 0.03981 0.22102 0.0
H296 H 0.0973 0.01808 0.27278 0.0
H297 H 0.09687 0.04332 0.32144 0.0
H298 H 0.12205 0.0498 0.54933 0.0
H299 H 0.09301 0.0512 0.64784 0.0
H300 H 0.55326 0.20946 0.18681 0.0
H301 H 0.54851 0.17739 0.26595 0.0
H302 H 0.4845 0.19403 0.3114 0.0
H303 H 0.49016 0.22747 0.24038 0.0
H304 H 0.49704 0.17902 0.44377 0.0
H305 H 0.52611 0.12349 0.21044 0.0
H306 H 0.54637 0.14173 0.232 0.0
H307 H 0.52234 0.15057 0.18495 0.0
C308 C 0.53819 0.20634 0.21401 0.0
C309 C 0.52217 0.22119 0.20759 0.0
C310 C 0.53531 0.18766 0.25805 0.0
C311 C 0.51595 0.18265 0.29366 0.0
C312 C 0.49963 0.19722 0.28467 0.0
H313 H 0.50543 0.05589 0.50828 0.0
H314 H 0.50291 0.08638 0.41593 0.0
C315 C 0.50275 0.21629 0.24281 0.0
C316 C 0.51326 0.16303 0.34475 0.0
H317 H 0.527 0.11152 0.35441 0.0
C318 C 0.50333 0.16422 0.4232 0.0
C319 C 0.52084 0.1433 0.31845 0.0
C320 C 0.52925 0.13968 0.23141 0.0
C321 C 0.50144 0.14674 0.47643 0.0
C322 C 0.51088 0.12754 0.45365 0.0
C323 C 0.52013 0.12616 0.3739 0.0
C324 C 0.51152 0.10885 0.51116 0.0
C325 C 0.48876 0.14912 0.55539 0.0
C326 C 0.51731 0.11086 0.59599 0.0
C327 C 0.51794 0.09347 0.64944 0.0
C328 C 0.51374 0.07339 0.6189 0.0
C329 C 0.50864 0.07115 0.53375 0.0
C330 C 0.5073 0.08866 0.48081 0.0
H331 H 0.47638 0.16103 0.54704 0.0
H332 H 0.48132 0.13425 0.57421 0.0
H333 H 0.49898 0.15454 0.60696 0.0
H334 H 0.52167 0.12586 0.62111 0.0
H335 H 0.52231 0.0957 0.71439 0.0
H336 H 0.33531 0.55252 0.14002 0.0
H337 H 0.36738 0.54777 0.22046 0.0
H338 H 0.33718 0.50113 0.37234 0.0
H339 H 0.30471 0.50682 0.29425 0.0
H340 H 0.35667 0.52704 0.46949 0.0
H341 H 0.41214 0.50516 0.22118 0.0
H342 H 0.39972 0.52944 0.19706 0.0
H343 H 0.38447 0.50595 0.20311 0.0
C344 C 0.33561 0.54114 0.19015 0.0
C345 C 0.3175 0.53007 0.2109 0.0
C346 C 0.35407 0.53821 0.23559 0.0
C347 C 0.35502 0.52381 0.30214 0.0
C348 C 0.33703 0.51225 0.32117 0.0
H349 H 0.47189 0.49745 0.57863 0.0
H350 H 0.44163 0.49455 0.48453 0.0
C351 C 0.3185 0.51533 0.27606 0.0
C352 C 0.37412 0.52217 0.35606 0.0
H353 H 0.42718 0.51748 0.35038 0.0
C354 C 0.37203 0.5247 0.44318 0.0
C355 C 0.39431 0.51883 0.32281 0.0
C356 C 0.39778 0.51447 0.23102 0.0
C357 C 0.38938 0.52471 0.49706 0.0
C358 C 0.40965 0.5227 0.46322 0.0
C359 C 0.41175 0.51936 0.37657 0.0
C360 C 0.42872 0.52466 0.5167 0.0
C361 C 0.38574 0.52677 0.59013 0.0
C362 C 0.43201 0.54274 0.56429 0.0
C363 C 0.44914 0.54435 0.61809 0.0
C364 C 0.46365 0.52803 0.62513 0.0
C365 C 0.46094 0.51025 0.57491 0.0
C366 C 0.44363 0.50859 0.52114 0.0
H367 H 0.36991 0.52145 0.6078 0.0
H368 H 0.3973 0.51763 0.62665 0.0
H369 H 0.38712 0.54339 0.60818 0.0
H370 H 0.42118 0.55564 0.56043 0.0
H371 H 0.45089 0.55838 0.65503 0.0
H372 H 0.97952 0.33516 0.16221 0.0
H373 H 0.98462 0.36758 0.24031 0.0
H374 H 0.04061 0.34233 0.34947 0.0
H375 H 0.03512 0.30961 0.27215 0.0
H376 H 0.01573 0.35854 0.46825 0.0
H377 H 0.02268 0.4168 0.21431 0.0
H378 H 0.99955 0.40148 0.20423 0.0
H379 H 0.0246 0.38916 0.19512 0.0
C380 C 0.99316 0.33675 0.20149 0.0
C381 C 1.00701 0.31993 0.21053 0.0
C382 C 0.99614 0.35535 0.24594 0.0
C383 C 1.01318 0.35773 0.3004 0.0
C384 C 0.02741 0.34108 0.3076 0.0
H385 H 0.03935 0.4744 0.58 0.0
H386 H 0.04198 0.44488 0.48204 0.0
C387 C 0.02441 0.32243 0.26286 0.0
C388 C 0.01505 0.37675 0.35478 0.0
H389 H 0.01464 0.43019 0.35127 0.0
C390 C 0.01574 0.37417 0.44233 0.0
C391 C 0.01525 0.39731 0.32181 0.0
C392 C 0.0157 0.40138 0.22869 0.0
C393 C 0.01583 0.39136 0.49725 0.0
C394 C 0.01495 0.41188 0.46439 0.0
C395 C 0.01508 0.41453 0.37688 0.0
C396 C 1.01306 0.43058 0.52024 0.0
C397 C 0.01682 0.38735 0.5904 0.0
C398 C 0.99573 0.4328 0.5729 0.0
C399 C 0.99415 0.44966 0.62818 0.0
C400 C 1.00982 0.4649 0.6324 0.0
C401 C 0.02694 0.46306 0.57804 0.0
C402 C 0.02849 0.44612 0.52221 0.0
H403 H 0.02319 0.37164 0.60463 0.0
H404 H 0.02657 0.39919 0.62234 0.0
H405 H 1.00091 0.38822 0.61687 0.0
H406 H 0.9834 0.42134 0.57172 0.0
H407 H 0.98067 0.45062 0.66863 0.0
H408 H 0.81568 0.03357 0.19268 0.0
H409 H 0.8496 0.03906 0.12505 0.0
H410 H 0.86834 0.97702 0.1971 0.0
H411 H 0.83479 0.97193 0.26692 0.0
H412 H 0.90085 1.00413 0.20916 0.0
H413 H 0.86231 1.01327 0.89976 0.0
H414 H 0.85428 0.03197 0.97667 0.0
H415 H 0.84845 1.00483 0.99188 0.0
C416 C 0.82728 0.02137 0.19574 0.0
C417 C 0.82258 1.00229 0.23465 0.0
C418 C 0.84657 0.02436 0.1561 0.0
C419 C 0.86148 1.00827 0.15393 0.0
C420 C 0.85716 0.98966 0.19709 0.0
H421 H 0.95473 0.98589 0.77642 0.0
H422 H 0.92535 0.98582 0.87318 0.0
C423 C 0.83797 0.98672 0.23685 0.0
C424 C 0.881 1.01016 0.10314 0.0
H425 H 0.89871 0.01669 0.90255 0.0
C426 C 0.90039 1.00699 0.14217 0.0
C427 C 0.88051 1.01357 0.01531 0.0
C428 C 0.8603 0.01591 0.96808 0.0
C429 C 0.91913 1.00702 0.09607 0.0
C430 C 0.91861 1.01063 0.00837 0.0
C431 C 0.89924 1.01401 0.96968 0.0
C432 C 0.93765 1.00984 0.95415 0.0
C433 C 0.93922 1.00243 0.14137 0.0
C434 C 0.95474 0.02313 0.96746 0.0
C435 C 0.97179 0.02305 0.91211 0.0
C436 C 0.97195 1.00986 0.84174 0.0
C437 C 0.95509 0.99629 0.8298 0.0
C438 C 0.9382 0.99628 0.88511 0.0
H439 H 0.93647 0.99476 0.20288 0.0
H440 H 0.94946 0.99225 0.1032 0.0
H441 H 0.94754 0.01726 0.15313 0.0
H442 H 0.95466 0.03403 0.01911 0.0
H443 H 0.98448 0.03378 0.92282 0.0
H444 H 0.48772 0.84078 0.30988 0.0
H445 H 0.49253 0.87212 0.22356 0.0
H446 H 0.54197 0.84144 0.08946 0.0
H447 H 0.53666 0.80987 0.17471 0.0
H448 H 0.52524 0.89906 0.18911 0.0
H449 H 0.50151 0.85646 0.90211 0.0
H450 H 0.49836 0.84565 0.00575 0.0
H451 H 0.52342 0.84539 0.95602 0.0
C452 C 0.49974 0.84087 0.26247 0.0
C453 C 0.51172 0.82289 0.24851 0.0
C454 C 0.50254 0.85878 0.21328 0.0
C455 C 0.51735 0.85912 0.14859 0.0
C456 C 0.53015 0.84151 0.13771 0.0
H457 H 0.54582 0.97181 0.84728 0.0
H458 H 0.54812 0.94304 0.94878 0.0
C459 C 0.52732 0.82355 0.18703 0.0
C460 C 0.51845 0.8774 0.09005 0.0
H461 H 0.5115 0.89147 0.88482 0.0
C462 C 0.52234 0.89739 0.12248 0.0
C463 C 0.51437 0.87537 1.00312 0.0
C464 C 0.50899 0.85463 0.96451 0.0
C465 C 0.52225 0.91528 0.07069 0.0
C466 C 0.51837 0.91318 0.98359 0.0
C467 C 0.51459 0.89317 0.95131 0.0
C468 C 0.51704 0.93147 0.92508 0.0
C469 C 0.52564 0.93632 0.11032 0.0
C470 C 0.49901 0.9346 0.87671 0.0
C471 C 0.49777 0.95095 0.81857 0.0
C472 C 0.51454 0.96465 0.80702 0.0
C473 C 0.53255 0.96171 0.85575 0.0
C474 C 0.53383 0.94526 0.91398 0.0
H475 H 0.52307 0.93587 0.17916 0.0
H476 H 0.5419 0.94133 0.09913 0.0
H477 H 0.51512 0.9482 0.08253 0.0
H478 H 0.48583 0.92426 0.88367 0.0
H479 H 0.48368 0.95278 0.78205 0.0
H480 H 0.69776 0.48918 0.33007 0.0
H481 H 0.66585 0.49414 0.24828 0.0
H482 H 0.69428 0.54567 0.11811 0.0
H483 H 0.72657 0.54001 0.19775 0.0
H484 H 0.63791 0.52478 0.22454 0.0
H485 H 0.67824 0.50923 0.92393 0.0
H486 H 0.69057 0.50511 0.02411 0.0
H487 H 0.68864 0.53094 0.98066 0.0
C488 C 0.69712 0.50161 0.28417 0.0
C489 C 0.71472 0.51406 0.2697 0.0
C490 C 0.67884 0.50452 0.2376 0.0
C491 C 0.67765 0.51999 0.17523 0.0
C492 C 0.69486 0.53326 0.16413 0.0
H493 H 0.5602 0.5479 0.90209 0.0
H494 H 0.58993 0.55016 0.99897 0.0
C495 C 0.71324 0.53025 0.21052 0.0
C496 C 0.65877 0.52144 0.12002 0.0
H497 H 0.64279 0.51825 0.91562 0.0
C498 C 0.63901 0.52347 0.15693 0.0
C499 C 0.66001 0.51938 0.03164 0.0
C500 C 0.68046 0.51584 0.98761 0.0
C501 C 0.62062 0.52342 0.10841 0.0
C502 C 0.62192 0.52165 0.02 0.0
C503 C 0.64168 0.51979 0.98317 0.0
C504 C 0.60311 0.52031 0.96451 0.0
C505 C 0.59994 0.52444 0.15259 0.0
C506 C 0.60055 0.50298 0.91194 0.0
C507 C 0.58374 0.50178 0.85631 0.0
C508 C 0.56897 0.51791 0.85128 0.0
C509 C 0.57124 0.53517 0.90472 0.0
C510 C 0.5882 0.5364 0.96049 0.0
H511 H 0.60143 0.52099 0.22062 0.0
H512 H 0.59339 0.54035 0.14584 0.0
H513 H 0.58876 0.51328 0.12459 0.0
H514 H 0.6117 0.49032 0.9135 0.0
H515 H 0.58246 0.48822 0.81634 0.0
H516 H 0.97423 0.71498 0.22402 0.0
H517 H 0.97785 0.68139 0.15407 0.0
H518 H 0.04252 0.67921 0.2251 0.0
H519 H 0.03904 0.71368 0.29087 0.0
H520 H 0.04 0.66895 0.07077 0.0
H521 H 0.97934 0.62295 0.22772 0.0
H522 H 0.96805 0.64612 0.18465 0.0
H523 H 0.98734 0.64805 0.26646 0.0
C524 C 0.98916 0.70719 0.2256 0.0
C525 C 1.00634 0.71703 0.26298 0.0
C526 C 0.99119 0.68777 0.18631 0.0
C527 C 1.01039 0.67726 0.18492 0.0
C528 C 0.02746 0.68676 0.22522 0.0
H529 H 0.01585 0.552 0.94527 0.0
H530 H 0.01545 0.57994 0.05114 0.0
C531 C 0.02545 0.70639 0.26377 0.0
C532 C 1.01295 0.65745 0.13529 0.0
H533 H 0.98969 0.61074 0.09018 0.0
C534 C 0.02912 0.65615 0.0762 0.0
C535 C 0.99917 0.64026 0.14253 0.0
C536 C 0.98268 0.63932 0.20951 0.0
C537 C 0.03127 0.6389 0.02224 0.0
C538 C 0.0164 0.62258 0.02453 0.0
C539 C 1.00088 0.62332 0.08645 0.0
C540 C 0.01625 0.60524 0.96105 0.0
C541 C 0.04967 0.63836 0.96373 0.0
C542 C 0.01629 0.60989 0.87487 0.0
C543 C 0.01671 0.594 0.81484 0.0
C544 C 0.01658 0.5729 0.83873 0.0
C545 C 0.01583 0.56808 0.92476 0.0
C546 C 0.01567 0.58409 0.98531 0.0
H547 H 0.06299 0.64721 0.98997 0.0
H548 H 0.05483 0.62216 0.95123 0.0
H549 H 0.04532 0.64582 0.90337 0.0
H550 H 0.01598 0.62591 0.85364 0.0
H551 H 0.01707 0.59829 0.74914 0.0
H552 H 0.94393 0.26663 0.1106 0.0
H553 H 0.9217 0.23568 0.134 0.0
H554 H 0.9734 0.20428 0.25194 0.0
H555 H 0.99518 0.23497 0.22952 0.0
H556 H 0.94721 0.18348 0.10242 0.0
H557 H 0.90533 0.21067 0.38661 0.0
H558 H 0.90976 0.22733 0.29683 0.0
H559 H 0.93079 0.22127 0.36665 0.0
C560 C 0.95027 0.25305 0.1419 0.0
C561 C 0.97111 0.25283 0.16806 0.0
C562 C 0.93772 0.23551 0.15491 0.0
C563 C 0.94605 0.21781 0.19428 0.0
C564 C 0.96679 0.21783 0.22113 0.0
H565 H 0.96157 0.12326 0.47678 0.0
H566 H 0.94918 0.15499 0.41048 0.0
C567 C 0.97919 0.23522 0.20836 0.0
C568 C 0.9338 0.19881 0.2089 0.0
H569 H 0.91157 0.17421 0.37518 0.0
C570 C 0.93864 0.18134 0.16028 0.0
C571 C 0.92242 0.19636 0.28371 0.0
C572 C 0.9166 0.21488 0.33665 0.0
C573 C 0.93515 0.16116 0.19078 0.0
C574 C 0.92613 0.15864 0.27117 0.0
C575 C 0.91859 0.1762 0.3139 0.0
C576 C 0.92958 0.13932 0.32002 0.0
C577 C 0.94349 0.14292 0.14148 0.0
C578 C 0.92204 0.11993 0.2934 0.0
C579 C 0.92929 0.1016 0.33116 0.0
C580 C 0.94394 0.10249 0.39668 0.0
C581 C 0.95015 0.12201 0.42713 0.0
C582 C 0.94306 0.14021 0.38912 0.0
H583 H 0.95124 0.14786 0.08249 0.0
H584 H 0.95487 0.13403 0.17985 0.0
H585 H 0.93057 0.1323 0.12486 0.0
H586 H 0.91132 0.11894 0.24123 0.0
H587 H 0.92401 0.08674 0.30732 0.0
H588 H 0.28835 0.97919 0.24574 0.0
H589 H 0.32079 0.95944 0.2571 0.0
H590 H 0.32081 0.95022 0.98907 0.0
H591 H 0.28846 0.9706 0.97821 0.0
H592 H 0.33513 0.92046 0.21508 0.0
H593 H 0.37394 0.98172 0.02246 0.0
H594 H 0.34713 0.98385 0.05315 0.0
H595 H 0.35459 0.96611 0.97153 0.0
C596 C 0.29505 0.97239 0.18988 0.0
C597 C 0.28604 0.97614 0.11136 0.0
C598 C 0.31354 0.96116 0.19612 0.0
C599 C 0.32336 0.95353 0.12381 0.0
C600 C 0.31366 0.95618 0.04553 0.0
H601 H 0.45698 0.94272 0.19179 0.0
H602 H 0.42473 0.93213 0.12217 0.0
C603 C 0.2952 0.96764 0.03932 0.0
C604 C 0.34473 0.94505 0.1315 0.0
H605 H 0.39505 0.95945 0.09932 0.0
C606 C 0.34828 0.92865 0.18821 0.0
C607 C 0.36194 0.95539 0.09508 0.0
C608 C 0.35935 0.97284 0.0325 0.0
C609 C 0.36843 0.92369 0.21542 0.0
C610 C 0.38535 0.93569 0.18621 0.0
C611 C 0.38203 0.95041 0.1225 0.0
C612 C 0.40541 0.93655 0.23172 0.0
C613 C 0.37126 0.90635 0.27833 0.0
C614 C 0.40536 0.94205 0.31681 0.0
C615 C 0.42364 0.94821 0.35635 0.0
C616 C 0.44238 0.94919 0.31146 0.0
C617 C 0.44271 0.94238 0.22769 0.0
C618 C 0.42435 0.93615 0.18808 0.0
H619 H 0.35996 0.89362 0.2666 0.0
H620 H 0.38724 0.89982 0.27643 0.0
H621 H 0.36822 0.91243 0.34222 0.0
H622 H 0.39091 0.94318 0.35124 0.0
H623 H 0.42271 0.95368 0.42041 0.0
H624 H 0.53528 0.30241 0.25183 0.0
H625 H 0.5526 0.33631 0.25444 0.0
H626 H 0.59379 0.31623 0.05687 0.0
H627 H 0.57602 0.28215 0.05445 0.0
H628 H 0.59404 0.34786 0.27947 0.0
H629 H 0.56538 0.3684 0.95978 0.0
H630 H 0.55848 0.34416 0.00954 0.0
H631 H 0.58415 0.3477 0.96936 0.0
C632 C 0.5484 0.30518 0.21085 0.0
C633 C 0.55464 0.28994 0.15385 0.0
C634 C 0.55824 0.32444 0.21193 0.0
C635 C 0.57443 0.32879 0.15556 0.0
C636 C 0.58127 0.3132 0.10048 0.0
H637 H 0.59852 0.45793 0.29541 0.0
H638 H 0.61051 0.42629 0.22381 0.0
C639 C 0.57133 0.29381 0.09958 0.0
C640 C 0.58274 0.35023 0.15303 0.0
H641 H 0.57513 0.39592 0.04779 0.0
C642 C 0.59065 0.35839 0.22792 0.0
C643 C 0.57854 0.36376 0.08493 0.0
C644 C 0.5711 0.3557 1.00132 0.0
C645 C 0.59194 0.37992 0.24062 0.0
C646 C 0.58547 0.39357 0.17579 0.0
C647 C 0.57995 0.38537 0.09736 0.0
C648 C 0.57953 0.41528 0.19532 0.0
C649 C 0.59798 0.38777 0.32646 0.0
C650 C 0.55831 0.42023 0.19738 0.0
C651 C 0.55148 0.43816 0.23774 0.0
C652 C 0.56579 0.45149 0.27648 0.0
C653 C 0.58718 0.44775 0.26659 0.0
C654 C 0.59403 0.42969 0.22601 0.0
H655 H 0.60092 0.37489 0.37161 0.0
H656 H 0.61234 0.39721 0.32163 0.0
H657 H 0.5855 0.39785 0.35225 0.0
H658 H 0.54685 0.40943 0.17364 0.0
H659 H 0.53493 0.44097 0.24293 0.0
H660 H 0.25115 0.57007 0.99982 0.0
H661 H 0.21739 0.58806 0.9992 0.0
H662 H 0.21786 0.58864 0.2695 0.0
H663 H 0.25145 0.57082 0.26962 0.0
H664 H 0.1865 0.56378 0.0794 0.0
H665 H 0.18729 0.64353 0.20802 0.0
H666 H 0.20957 0.63194 0.15693 0.0
H667 H 0.20398 0.62606 0.26492 0.0
C668 C 0.24438 0.575 0.05864 0.0
C669 C 0.25374 0.5693 0.13478 0.0
C670 C 0.22516 0.58516 0.05831 0.0
C671 C 0.21517 0.58971 0.13422 0.0
C672 C 0.2255 0.58573 0.21018 0.0
H673 H 0.11483 0.58452 0.4311 0.0
H674 H 0.14491 0.59532 0.35027 0.0
C675 C 0.24465 0.57555 0.21041 0.0
C676 C 0.19253 0.59347 0.13617 0.0
H677 H 0.15629 0.62302 0.2363 0.0
C678 C 0.17967 0.57703 0.11105 0.0
C679 C 0.1838 0.61077 0.17758 0.0
C680 C 0.19687 0.62918 0.20272 0.0
C681 C 0.15876 0.57618 0.13514 0.0
C682 C 0.15034 0.59276 0.18299 0.0
C683 C 0.16274 0.61027 0.20012 0.0
C684 C 0.1305 0.59033 0.22918 0.0
C685 C 0.14669 0.55655 0.11644 0.0
C686 C 0.11196 0.58489 0.18828 0.0
C687 C 0.09488 0.57793 0.23466 0.0
C688 C 0.09593 0.57679 0.32275 0.0
C689 C 0.11374 0.58445 0.36335 0.0
C690 C 0.13088 0.59096 0.31708 0.0
H691 H 0.15686 0.54379 0.09367 0.0
H692 H 0.13847 0.55087 0.17316 0.0
H693 H 0.13499 0.55981 0.06698 0.0
H694 H 0.1111 0.58488 0.1205 0.0
H695 H 0.08137 0.5723 0.20117 0.0
H696 H 0.96525 0.79637 0.31859 0.0
H697 H 0.96432 0.83453 0.30813 0.0
H698 H 0.02391 0.83355 0.18438 0.0
H699 H 0.02432 0.79544 0.19278 0.0
H700 H 0.02331 0.85279 0.34436 0.0
H701 H 0.96015 0.8831 0.13835 0.0
H702 H 0.95369 0.86286 0.21203 0.0
H703 H 0.97075 0.85721 0.12621 0.0
C704 C 0.97751 0.80442 0.28532 0.0
C705 C 0.9948 0.79335 0.25598 0.0
C706 C 0.97709 0.82612 0.27986 0.0
C707 C 0.99424 0.8368 0.24693 0.0
C708 C 1.01057 0.82553 0.2103 0.0
H709 H 0.05786 0.94445 0.17597 0.0
H710 H 0.0463 0.91136 0.22892 0.0
C711 C 1.01077 0.80387 0.21441 0.0
C712 C 0.99719 0.85917 0.26379 0.0
H713 H 0.98133 0.90765 0.20569 0.0
C714 C 0.01396 0.86483 0.31508 0.0
C715 C 0.98462 0.87474 0.22734 0.0
C716 C 0.96632 0.86931 0.17251 0.0
C717 C 0.01944 0.88567 0.32636 0.0
C718 C 1.00798 0.90129 0.2841 0.0
C719 C 0.99013 0.8957 0.23831 0.0
C720 C 0.01638 0.92254 0.27224 0.0
C721 C 0.03817 0.8905 0.37985 0.0
C722 C 1.00354 0.94018 0.27923 0.0
C723 C 1.01003 0.95934 0.24649 0.0
C724 C 0.0295 0.96105 0.20711 0.0
C725 C 0.04298 0.94384 0.20755 0.0
C726 C 0.03637 0.92476 0.23849 0.0
H727 H 0.03941 0.87935 0.4327 0.0
H728 H 0.05247 0.88854 0.34187 0.0
H729 H 0.03776 0.90659 0.40487 0.0
H730 H 0.98801 0.9388 0.30471 0.0
H731 H 0.99934 0.97239 0.24684 0.0
H732 H 0.76159 0.94228 0.306 0.0
H733 H 0.7286 0.9243 0.27292 0.0
H734 H 0.70619 0.98021 0.15187 0.0
H735 H 0.73886 0.99778 0.18465 0.0
H736 H 0.68833 0.93665 0.32434 0.0
H737 H 0.69273 0.93479 0.98051 0.0
H738 H 0.71556 0.93735 0.04587 0.0
H739 H 0.70051 0.95999 0.01697 0.0
C740 C 0.74962 0.95037 0.27089 0.0
C741 C 0.75249 0.9712 0.24684 0.0
C742 C 0.7309 0.94022 0.25235 0.0
C743 C 0.71517 0.9508 0.2084 0.0
C744 C 0.71834 0.97156 0.18374 0.0
H745 H 0.60213 0.9906 0.20161 0.0
H746 H 0.63235 0.97143 0.25087 0.0
C747 C 0.73685 0.98163 0.20266 0.0
C748 C 0.69459 0.94137 0.19298 0.0
H749 H 0.65804 0.94213 0.03928 0.0
C750 C 0.6817 0.93718 0.26185 0.0
C751 C 0.68613 0.94098 0.11133 0.0
C752 C 0.69957 0.94327 0.03449 0.0
C753 C 0.66004 0.93601 0.25193 0.0
C754 C 0.65134 0.93933 0.17153 0.0
C755 C 0.66455 0.94014 0.10153 0.0
C756 C 0.62964 0.94657 0.15972 0.0
C757 C 0.64665 0.93253 0.32812 0.0
C758 C 0.61752 0.93872 0.09377 0.0
C759 C 0.60031 0.94991 0.06471 0.0
C760 C 0.59499 0.96911 0.1012 0.0
C761 C 0.60581 0.97581 0.17258 0.0
C762 C 0.62306 0.9647 0.20128 0.0
H763 H 0.65447 0.92181 0.37295 0.0
H764 H 0.64419 0.94755 0.36093 0.0
H765 H 0.63127 0.92598 0.31095 0.0
H766 H 0.62229 0.92481 0.06065 0.0
H767 H 0.59197 0.94424 0.01033 0.0
H768 H 0.46749 0.75634 0.44567 0.0
H769 H 0.44776 0.72356 0.43696 0.0
H770 H 0.45967 0.72119 0.17092 0.0
H771 H 0.47906 0.75391 0.18011 0.0
H772 H 0.41916 0.70718 0.21643 0.0
H773 H 0.48176 0.67028 0.40887 0.0
H774 H 0.46738 0.69156 0.45351 0.0
H775 H 0.48445 0.69618 0.36659 0.0
C776 C 0.46533 0.74895 0.38536 0.0
C777 C 0.47451 0.75747 0.31336 0.0
C778 C 0.4542 0.73029 0.38039 0.0
C779 C 0.45242 0.71988 0.30339 0.0
C780 C 0.46071 0.72906 0.23081 0.0
H781 H 0.45212 0.61883 0.01489 0.0
H782 H 0.44211 0.651 0.08293 0.0
C783 C 0.47173 0.74768 0.23584 0.0
C784 C 0.44436 0.69835 0.29818 0.0
H785 H 0.46023 0.64841 0.33267 0.0
C786 C 0.42775 0.69427 0.24358 0.0
C787 C 0.45535 0.68152 0.33478 0.0
C788 C 0.4733 0.68493 0.39402 0.0
C789 C 0.42307 0.67385 0.21885 0.0
C790 C 0.43562 0.65726 0.24816 0.0
C791 C 0.45071 0.66116 0.30968 0.0
C792 C 0.43655 0.63696 0.20445 0.0
C793 C 0.40541 0.67039 0.15832 0.0
C794 C 0.43667 0.61817 0.24976 0.0
C795 C 0.44261 0.5996 0.21077 0.0
C796 C 0.44861 0.59956 0.12597 0.0
C797 C 0.44725 0.61818 0.07981 0.0
C798 C 0.44137 0.63666 0.11869 0.0
H799 H 0.39258 0.68158 0.17033 0.0
H800 H 0.41098 0.67316 0.09343 0.0
H801 H 0.39923 0.65429 0.16267 0.0
H802 H 0.4332 0.61807 0.3162 0.0
H803 H 0.44327 0.58544 0.24773 0.0
H804 H 0.78634 0.48633 0.20704 0.0
H805 H 0.81821 0.46576 0.19459 0.0
H806 H 0.80993 0.44299 0.44717 0.0
H807 H 0.77762 0.46359 0.45848 0.0
H808 H 0.84882 0.46027 0.41848 0.0
H809 H 0.83143 0.40391 0.16959 0.0
H810 H 0.82201 0.42912 0.13944 0.0
H811 H 0.81127 0.41639 0.2305 0.0
C812 C 0.79108 0.47639 0.25858 0.0
C813 C 0.7797 0.47623 0.33318 0.0
C814 C 0.80916 0.46461 0.25165 0.0
C815 C 0.8162 0.45248 0.31939 0.0
C816 C 0.80458 0.45198 0.3938 0.0
H817 H 0.95109 0.4393 0.24033 0.0
H818 H 0.91932 0.42784 0.31255 0.0
C819 C 0.78626 0.46369 0.40032 0.0
C820 C 0.83701 0.44276 0.3139 0.0
H821 H 0.86694 0.41867 0.16747 0.0
C822 C 0.85287 0.45057 0.36539 0.0
C823 C 0.84218 0.42947 0.24666 0.0
C824 C 0.82573 0.41906 0.19411 0.0
C825 C 0.87385 0.4482 0.34308 0.0
C826 C 0.87881 0.43769 0.26777 0.0
C827 C 0.86307 0.42718 0.22407 0.0
C828 C 0.89841 0.44201 0.22247 0.0
C829 C 0.89033 0.45865 0.39557 0.0
C830 C 0.89717 0.45318 0.14695 0.0
C831 C 0.91509 0.45953 0.1057 0.0
C832 C 0.93476 0.45491 0.13901 0.0
C833 C 0.9361 0.44322 0.21366 0.0
C834 C 0.91801 0.43668 0.25492 0.0
H835 H 0.88362 0.46738 0.44917 0.0
H836 H 0.9011 0.44669 0.42094 0.0
H837 H 0.89957 0.46957 0.35661 0.0
H838 H 0.88222 0.45767 0.12118 0.0
H839 H 0.91348 0.46882 0.04929 0.0
H840 H 0.98194 0.25376 0.97746 0.0
H841 H 0.98659 0.21953 0.91133 0.0
H842 H 0.03946 0.20774 0.07041 0.0
H843 H 0.03489 0.24226 0.13593 0.0
H844 H 0.02886 0.19853 0.83714 0.0
H845 H 0.98956 0.16081 0.10846 0.0
H846 H 0.98531 0.18787 0.0819 0.0
H847 H 1.00935 0.18 0.12875 0.0
C848 C 0.99497 0.24412 0.99619 0.0
C849 C 1.00829 0.25084 0.06067 0.0
C850 C 0.99753 0.2245 0.95885 0.0
C851 C 1.01335 0.21095 0.98579 0.0
C852 C 0.02719 0.21791 0.0482 0.0
H853 H 0.0327 0.07776 0.91554 0.0
H854 H 0.03133 0.11372 0.96352 0.0
C855 C 0.02474 0.23771 0.08502 0.0
C856 C 0.01439 0.18914 0.95245 0.0
H857 H 1.00092 0.13889 0.9996 0.0
C858 C 0.0228 0.18545 0.8726 0.0
C859 C 1.00646 0.17205 0.99849 0.0
C860 C 0.99703 0.17518 0.08409 0.0
C861 C 0.02385 0.16517 0.83834 0.0
C862 C 0.01566 0.14799 0.88391 0.0
C863 C 1.00717 0.15183 0.96389 0.0
C864 C 0.01645 0.12587 0.85196 0.0
C865 C 0.03438 0.16233 0.7547 0.0
C866 C 1.00839 0.12021 0.77285 0.0
C867 C 1.00936 0.09941 0.74446 0.0
C868 C 0.0181 0.08364 0.79501 0.0
C869 C 0.02582 0.08933 0.87449 0.0
C870 C 0.02502 0.11004 0.90234 0.0
H871 H 0.045 0.17548 0.74023 0.0
H872 H 0.04344 0.14761 0.75298 0.0
H873 H 0.02241 0.16177 0.70466 0.0
H874 H 1.00113 0.13182 0.73316 0.0
H875 H 1.00308 0.09567 0.68331 0.0
H876 H 0.2785 0.01842 0.90827 0.0
H877 H 0.31251 0.02466 0.84229 0.0
H878 H 0.34157 0.0233 0.08611 0.0
H879 H 0.30753 0.01771 0.15122 0.0
H880 H 0.36017 0.05125 0.9931 0.0
H881 H 0.35334 0.97949 0.80303 0.0
H882 H 0.33461 0.99892 0.77412 0.0
H883 H 0.33349 0.9871 0.87635 0.0
C884 C 0.29215 0.02004 0.94744 0.0
C885 C 0.29045 0.01771 0.03469 0.0
C886 C 0.31165 0.02324 0.90981 0.0
C887 C 0.32992 0.02377 0.95866 0.0
C888 C 0.32791 0.02275 0.04645 0.0
H889 H 0.46417 0.0205 0.90453 0.0
H890 H 0.42817 0.02192 0.95166 0.0
C891 C 0.30845 0.01963 0.08388 0.0
C892 C 0.35115 0.0247 0.91942 0.0
H893 H 0.38381 0.99965 0.78288 0.0
C894 C 0.36526 0.03994 0.94707 0.0
C895 C 0.35801 1.01009 0.85861 0.0
C896 C 0.34414 0.99288 0.82686 0.0
C897 C 0.38579 0.04095 0.91639 0.0
C898 C 0.3928 0.02602 0.8574 0.0
C899 C 0.37859 1.01108 0.8282 0.0
C900 C 0.41493 0.0252 0.82758 0.0
C901 C 0.39968 0.05826 0.9469 0.0
C902 C 0.41977 0.02589 0.74154 0.0
C903 C 0.44053 0.02488 0.71401 0.0
C904 C 0.457 0.02304 0.77187 0.0
C905 C 0.45205 0.02214 0.85786 0.0
C906 C 0.43135 0.0231 0.88518 0.0
H907 H 0.39048 0.07182 0.96917 0.0
H908 H 0.40912 0.05251 1.00043 0.0
H909 H 0.41039 0.06361 0.8968 0.0
H910 H 0.40746 0.02733 0.69551 0.0
H911 H 0.44365 0.0255 0.64737 0.0
H912 H 0.54018 0.28558 0.95425 0.0
H913 H 0.53517 0.32041 0.89353 0.0
H914 H 0.48858 0.33357 0.08012 0.0
H915 H 0.49391 0.29867 0.14111 0.0
H916 H 0.50183 0.34339 0.82823 0.0
H917 H 0.53165 0.3788 0.12056 0.0
H918 H 0.5304 0.35105 0.10685 0.0
H919 H 0.50746 0.36541 0.13433 0.0
C920 C 0.52836 0.29569 0.98019 0.0
C921 C 0.51717 0.28932 0.05132 0.0
C922 C 0.5256 0.31567 0.946 0.0
C923 C 0.51175 0.32991 0.98288 0.0
C924 C 0.4996 0.32308 0.05104 0.0
H925 H 0.4963 0.46466 0.91599 0.0
H926 H 0.49464 0.4284 0.96209 0.0
C927 C 0.50235 0.30302 0.08509 0.0
C928 C 0.51107 0.35209 0.95283 0.0
H929 H 0.52096 0.40224 0.0133 0.0
C930 C 0.50596 0.35628 0.86876 0.0
C931 C 0.51629 0.36905 0.00555 0.0
C932 C 0.52193 0.36588 0.09659 0.0
C933 C 0.50559 0.37678 0.8364 0.0
C934 C 0.51147 0.39375 0.88832 0.0
C935 C 0.51654 0.38948 0.97264 0.0
C936 C 0.51215 0.41601 0.85755 0.0
C937 C 0.49817 0.37995 0.74751 0.0
C938 C 0.52263 0.42162 0.7832 0.0
C939 C 0.52314 0.44246 0.75548 0.0
C940 C 0.51377 0.4584 0.80271 0.0
C941 C 0.50371 0.45286 0.87784 0.0
C942 C 0.50279 0.43202 0.9045 0.0
H943 H 0.48777 0.3671 0.72732 0.0
H944 H 0.48966 0.3949 0.74029 0.0
H945 H 0.51176 0.38002 0.70477 0.0
H946 H 0.53071 0.40994 0.74686 0.0
H947 H 0.53131 0.44615 0.69801 0.0
H948 H 0.25708 0.52312 0.95443 0.0
H949 H 0.22212 0.51787 0.89495 0.0
H950 H 0.19559 0.5242 0.14171 0.0
H951 H 0.23056 0.5291 0.20052 0.0
H952 H 0.17611 0.49333 0.05016 0.0
H953 H 0.18159 0.56595 0.86368 0.0
H954 H 0.2004 0.54668 0.83359 0.0
H955 H 0.20161 0.55805 0.93617 0.0
C956 C 0.24378 0.5227 0.99589 0.0
C957 C 0.24648 0.52616 0.0821 0.0
C958 C 0.22378 0.52005 0.96191 0.0
C959 C 0.20603 0.521 0.01345 0.0
C960 C 0.2089 0.52341 0.10033 0.0
H961 H 0.07058 0.51906 0.9557 0.0
H962 H 0.10629 0.51951 0.00777 0.0
C963 C 0.22887 0.52607 0.13412 0.0
C964 C 0.1845 0.52024 0.97723 0.0
H965 H 0.1511 0.54569 0.84437 0.0
C966 C 0.17067 0.50477 0.00505 0.0
C967 C 0.17723 0.53511 0.9181 0.0
C968 C 0.19091 0.5525 0.88663 0.0
C969 C 0.15006 0.50361 0.97503 0.0
C970 C 0.14266 0.51872 0.91705 0.0
C971 C 0.15656 0.53409 0.88877 0.0
C972 C 0.12065 0.51894 0.8851 0.0
C973 C 0.13662 0.48581 0.00449 0.0
C974 C 0.11645 0.51948 0.79845 0.0
C975 C 0.0959 0.51967 0.76828 0.0
C976 C 0.07893 0.51924 0.82396 0.0
C977 C 0.08316 0.51907 0.91067 0.0
C978 C 0.10369 0.51915 0.94073 0.0
H979 H 0.14617 0.47233 0.02548 0.0
H980 H 0.12719 0.49101 0.05874 0.0
H981 H 0.12595 0.48048 0.95424 0.0
H982 H 0.12912 0.51952 0.75381 0.0
H983 H 0.09334 0.51986 0.70117 0.0
H984 H 0.98253 0.78156 0.49041 0.0
H985 H 0.98581 0.81475 0.56616 0.0
H986 H 0.04334 0.82698 0.43696 0.0
H987 H 0.04021 0.79352 0.36389 0.0
H988 H 0.04616 0.8426 0.58833 0.0
H989 H 0.97083 0.86809 0.45655 0.0
H990 H 0.96762 0.84746 0.53164 0.0
H991 H 0.98147 0.84275 0.43585 0.0
C992 C 0.99626 0.791 0.48102 0.0
C993 C 1.01133 0.78472 0.42251 0.0
C994 C 0.99796 0.81024 0.52301 0.0
C995 C 0.01453 0.82398 0.50598 0.0
C996 C 0.03028 0.81698 0.45145 0.0
H997 H 0.01392 0.95902 0.52783 0.0
H998 H 1.01179 0.92205 0.49441 0.0
C999 C 0.02864 0.7977 0.41012 0.0
C1000 C 0.01505 0.84595 0.5405 0.0
H1001 H 0.98747 0.89173 0.5487 0.0
C1002 C 0.03322 0.85325 0.58008 0.0
C1003 C 0.99836 0.86027 0.52958 0.0
C1004 C 0.97853 0.85434 0.48547 0.0
C1005 C 0.03526 0.87414 0.60736 0.0
C1006 C 0.01856 0.88836 0.5962 0.0
C1007 C 1.00031 0.88101 0.55789 0.0
C1008 C 0.01999 0.91117 0.61869 0.0
C1009 C 0.05575 0.88102 0.64385 0.0
C1010 C 0.02483 0.91786 0.70056 0.0
C1011 C 0.02588 0.93926 0.72027 0.0
C1012 C 0.02211 0.95459 0.65867 0.0
C1013 C 0.0171 0.94782 0.5771 0.0
C1014 C 0.0159 0.92652 0.5577 0.0
H1015 H 0.06849 0.86999 0.6284 0.0
H1016 H 0.06007 0.89673 0.6205 0.0
H1017 H 0.05441 0.88176 0.71311 0.0
H1018 H 0.02752 0.90654 0.74979 0.0
H1019 H 0.02961 0.94377 0.78389 0.0
H1020 H 0.75053 0.97558 0.43601 0.0
H1021 H 0.71586 0.9815 0.49494 0.0
H1022 H 0.71332 0.0415 0.3736 0.0
H1023 H 0.74818 0.03537 0.31385 0.0
H1024 H 0.69544 0.04027 0.54378 0.0
H1025 H 0.66472 0.97934 0.33393 0.0
H1026 H 0.68535 0.96997 0.40022 0.0
H1027 H 0.69052 0.98977 0.32308 0.0
C1028 C 0.74277 0.99025 0.42378 0.0
C1029 C 0.75209 1.00506 0.3709 0.0
C1030 C 0.72289 0.99357 0.4569 0.0
C1031 C 0.71177 1.01183 0.43799 0.0
C1032 C 0.72155 0.02728 0.38921 0.0
H1033 H 0.57594 0.0166 0.48348 0.0
H1034 H 0.61181 0.01714 0.43333 0.0
C1035 C 0.74152 0.02389 0.35566 0.0
C1036 C 0.68952 1.0139 0.4645 0.0
H1037 H 0.64206 0.99047 0.44385 0.0
C1038 C 0.68373 0.02946 0.52168 0.0
C1039 C 0.67404 1.00015 0.43441 0.0
C1040 C 0.67888 0.98399 0.36885 0.0
C1041 C 0.66311 0.03118 0.55147 0.0
C1042 C 0.64784 0.01663 0.52495 0.0
C1043 C 0.6536 1.0015 0.46563 0.0
C1044 C 0.62582 0.01686 0.55678 0.0
C1045 C 0.65787 0.04887 0.60981 0.0
C1046 C 0.62139 0.01626 0.64321 0.0
C1047 C 0.60075 0.01614 0.67225 0.0
C1048 C 0.58392 0.01625 0.61566 0.0
C1049 C 0.5884 0.01651 0.5292 0.0
C1050 C 0.60901 0.01682 0.50027 0.0
H1051 H 0.66889 0.06205 0.60231 0.0
H1052 H 0.64186 0.05474 0.59876 0.0
H1053 H 0.659 0.04332 0.67558 0.0
H1054 H 0.6339 0.0156 0.68855 0.0
H1055 H 0.59802 0.01574 0.7392 0.0
H1056 H 0.50959 0.7657 0.52187 0.0
H1057 H 0.51503 0.73185 0.59172 0.0
H1058 H 0.52563 0.70331 0.35102 0.0
H1059 H 0.52032 0.73715 0.28231 0.0
H1060 H 0.49187 0.6976 0.57496 0.0
H1061 H 0.57199 0.67716 0.48245 0.0
H1062 H 0.56167 0.70314 0.47026 0.0
H1063 H 0.55617 0.68341 0.39329 0.0
C1064 C 0.51385 0.75227 0.48467 0.0
C1065 C 0.51511 0.75406 0.3971 0.0
C1066 C 0.51673 0.73289 0.52431 0.0
C1067 C 0.52109 0.71488 0.47717 0.0
C1068 C 0.52293 0.7169 0.38955 0.0
H1069 H 0.52471 0.5811 0.54227 0.0
H1070 H 0.52536 0.61724 0.49516 0.0
C1071 C 0.51991 0.73624 0.35008 0.0
C1072 C 0.52195 0.69379 0.51824 0.0
H1073 H 0.55081 0.64903 0.53183 0.0
C1074 C 0.50487 0.68707 0.56612 0.0
C1075 C 0.53888 0.6799 0.50736 0.0
C1076 C 0.5583 0.68634 0.46128 0.0
C1077 C 0.50373 0.66668 0.59916 0.0
C1078 C 0.5205 0.65265 0.58695 0.0
C1079 C 0.53786 0.6596 0.5412 0.0
C1080 C 0.52005 0.63051 0.61781 0.0
C1081 C 0.48409 0.6601 0.64342 0.0
C1082 C 0.51705 0.62559 0.7031 0.0
C1083 C 0.51655 0.60471 0.73053 0.0
C1084 C 0.51926 0.58821 0.67347 0.0
C1085 C 0.52255 0.59325 0.58843 0.0
C1086 C 0.52296 0.61403 0.56115 0.0
H1087 H 0.47081 0.67046 0.62745 0.0
H1088 H 0.47984 0.64386 0.62707 0.0
H1089 H 0.48658 0.66092 0.71216 0.0
H1090 H 0.51524 0.63789 0.74877 0.0
H1091 H 0.5141 0.60153 0.79647 0.0
H1092 H 0.79441 0.53599 0.30877 0.0
H1093 H 0.8295 0.54207 0.36562 0.0
H1094 H 0.81457 0.50416 0.58077 0.0
H1095 H 0.77936 0.49898 0.52528 0.0
H1096 H 0.83827 0.53792 0.62471 0.0
H1097 H 0.87466 0.49919 0.34993 0.0
H1098 H 0.85846 0.52112 0.32743 0.0
H1099 H 0.84706 0.49784 0.3696 0.0
C1100 C 0.79854 0.52953 0.36929 0.0
C1101 C 0.78423 0.5171 0.41296 0.0
C1102 C 0.8187 0.53264 0.40114 0.0
C1103 C 0.82505 0.52307 0.47661 0.0
C1104 C 0.81027 0.5116 0.52224 0.0
H1105 H 0.93868 0.5078 0.77757 0.0
H1106 H 0.90289 0.50865 0.72522 0.0
C1107 C 0.79013 0.50867 0.49075 0.0
C1108 C 0.84711 0.52422 0.50713 0.0
H1109 H 0.89706 0.51075 0.45663 0.0
C1110 C 0.85113 0.53203 0.58781 0.0
C1111 C 0.86406 0.51673 0.45903 0.0
C1112 C 0.86094 0.50807 0.37202 0.0
C1113 C 0.87144 0.53272 0.62133 0.0
C1114 C 0.88834 0.52454 0.57452 0.0
C1115 C 0.8843 0.51692 0.49333 0.0
C1116 C 0.9103 0.52391 0.60765 0.0
C1117 C 0.87451 0.54282 0.70573 0.0
C1118 C 0.92684 0.53141 0.55855 0.0
C1119 C 0.94742 0.53043 0.58765 0.0
C1120 C 0.95215 0.52211 0.66723 0.0
C1121 C 0.93565 0.51463 0.71661 0.0
C1122 C 0.91506 0.51526 0.68676 0.0
H1123 H 0.86199 0.55427 0.71924 0.0
H1124 H 0.87396 0.53069 0.75531 0.0
H1125 H 0.88969 0.55096 0.70949 0.0
H1126 H 0.92385 0.53811 0.49733 0.0
H1127 H 0.95967 0.53635 0.54766 0.0
loop_
_geom_bond_atom_site_label_1
_geom_bond_atom_site_label_2
_geom_bond_distance
_geom_bond_site_symmetry_2
_ccdc_geom_bond_type
C0 N1 1.317 . S
C0 N2 1.348 . S
C0 C3 1.485 . S
N1 C0 1.317 . S
N1 N5 1.370 . S
N2 C0 1.348 . S
N2 C4 1.346 . S
C3 C0 1.485 . S
C3 H7 0.960 . S
C3 H8 0.961 . S
C3 H9 0.960 . S
C4 N2 1.346 . S
C4 N5 1.307 . S
C4 C6 1.486 . S
N5 N1 1.370 . S
N5 C4 1.307 . S
C6 C4 1.486 . S
C6 H10 0.960 . S
C6 H11 0.960 . S
C6 H12 0.959 . S
H7 C3 0.960 . S
H8 C3 0.961 . S
H9 C3 0.960 . S
H10 C6 0.960 . S
H11 C6 0.960 . S
H12 C6 0.959 . S
C13 N14 1.317 . S
C13 N15 1.350 . S
C13 C16 1.485 . S
N14 C13 1.317 . S
N14 N18 1.371 . S
N15 C13 1.350 . S
N15 C17 1.345 1_655 S
C16 C13 1.485 . S
C16 H20 0.960 1_655 S
C16 H21 0.961 . S
C16 H22 0.960 . S
C17 N15 1.345 1_455 S
C17 N18 1.307 1_455 S
C17 C19 1.486 . S
N18 N14 1.371 . S
N18 C17 1.307 1_655 S
C19 C17 1.486 . S
C19 H23 0.925 1_455 S
C19 H24 0.989 . S
C19 H25 0.967 . S
H20 C16 0.960 1_455 S
H21 C16 0.961 . S
H22 C16 0.960 . S
H23 C19 0.925 1_655 S
H24 C19 0.989 . S
H25 C19 0.967 . S
C26 N27 1.317 . S
C26 N28 1.350 . S
C26 C29 1.485 . S
N27 C26 1.317 . S
N27 N31 1.371 . S
N28 C26 1.350 . S
N28 C30 1.345 1_565 S
C29 C26 1.485 . S
C29 H33 0.960 1_565 S
C29 H34 0.961 . S
C29 H35 0.960 . S
C30 N28 1.345 1_545 S
C30 N31 1.307 1_545 S
C30 C32 1.486 . S
N31 N27 1.371 . S
N31 C30 1.307 1_565 S
C32 C30 1.486 . S
C32 H36 0.925 1_545 S
C32 H37 0.989 . S
C32 H38 0.967 . S
H33 C29 0.960 1_545 S
H34 C29 0.961 . S
H35 C29 0.960 . S
H36 C32 0.925 1_565 S
H37 C32 0.989 . S
H38 C32 0.967 . S
C39 N40 1.317 . S
C39 N41 1.348 . S
C39 C42 1.485 . S
N40 C39 1.317 . S
N40 N44 1.370 . S
N41 C39 1.348 . S
N41 C43 1.346 . S
C42 C39 1.485 . S
C42 H46 0.960 . S
C42 H47 0.961 . S
C42 H48 0.960 . S
C43 N41 1.346 . S
C43 N44 1.307 . S
C43 C45 1.486 . S
N44 N40 1.370 . S
N44 C43 1.307 . S
C45 C43 1.486 . S
C45 H49 0.960 . S
C45 H50 0.960 . S
C45 H51 0.959 . S
H46 C42 0.960 . S
H47 C42 0.961 . S
H48 C42 0.960 . S
H49 C45 0.960 . S
H50 C45 0.960 . S
H51 C45 0.959 . S
C52 N53 1.317 . S
C52 N54 1.348 1_556 S
C52 C55 1.485 . S
N53 C52 1.317 . S
N53 N57 1.370 1_556 S
N54 C52 1.348 1_554 S
N54 C56 1.346 . S
C55 C52 1.485 . S
C55 H59 0.960 . S
C55 H60 0.961 . S
C55 H61 0.960 . S
C56 N54 1.346 . S
C56 N57 1.307 . S
C56 C58 1.486 . S
N57 N53 1.370 1_554 S
N57 C56 1.307 . S
C58 C56 1.486 . S
C58 H62 0.960 . S
C58 H63 0.960 . S
C58 H64 0.959 . S
H59 C55 0.960 . S
H60 C55 0.961 . S
H61 C55 0.960 . S
H62 C58 0.960 . S
H63 C58 0.960 . S
H64 C58 0.959 . S
C65 N66 1.317 . S
C65 N67 1.350 1_556 S
C65 C68 1.485 . S
N66 C65 1.317 . S
N66 N70 1.370 1_556 S
N67 C65 1.350 1_554 S
N67 C69 1.345 1_655 S
C68 C65 1.485 . S
C68 H72 0.960 1_655 S
C68 H73 0.961 . S
C68 H74 0.960 . S
C69 N67 1.345 1_455 S
C69 N70 1.307 1_455 S
C69 C71 1.485 . S
N70 N66 1.370 1_554 S
N70 C69 1.307 1_655 S
C71 C69 1.485 . S
C71 H75 0.913 1_455 S
C71 H76 0.999 . S
C71 H77 0.970 . S
H72 C68 0.960 1_455 S
H73 C68 0.961 . S
H74 C68 0.960 . S
H75 C71 0.913 1_655 S
H76 C71 0.999 . S
H77 C71 0.970 . S
C78 N79 1.317 . S
C78 N80 1.350 1_556 S
C78 C81 1.485 . S
N79 C78 1.317 . S
N79 N83 1.370 1_556 S
N80 C78 1.350 1_554 S
N80 C82 1.345 1_565 S
C81 C78 1.485 . S
C81 H85 0.960 1_565 S
C81 H86 0.961 . S
C81 H87 0.960 . S
C82 N80 1.345 1_545 S
C82 N83 1.307 1_545 S
C82 C84 1.485 . S
N83 N79 1.370 1_554 S
N83 C82 1.307 1_565 S
C84 C82 1.485 . S
C84 H88 0.913 1_545 S
C84 H89 0.999 . S
C84 H90 0.970 . S
H85 C81 0.960 1_545 S
H86 C81 0.961 . S
H87 C81 0.960 . S
H88 C84 0.913 1_565 S
H89 C84 0.999 . S
H90 C84 0.970 . S
C91 N92 1.317 . S
C91 N93 1.348 1_556 S
C91 C94 1.485 . S
N92 C91 1.317 . S
N92 N96 1.370 1_556 S
N93 C91 1.348 1_554 S
N93 C95 1.346 . S
C94 C91 1.485 . S
C94 H98 0.960 . S
C94 H99 0.961 . S
C94 H100 0.960 . S
C95 N93 1.346 . S
C95 N96 1.307 . S
C95 C97 1.486 . S
N96 N92 1.370 1_554 S
N96 C95 1.307 . S
C97 C95 1.486 . S
C97 H101 0.960 . S
C97 H102 0.960 . S
C97 H103 0.959 . S
H98 C94 0.960 . S
H99 C94 0.961 . S
H100 C94 0.960 . S
H101 C97 0.960 . S
H102 C97 0.960 . S
H103 C97 0.959 . S
Tb104 C106 2.809 . S
Tb104 O124 2.487 1_455 S
Tb104 O125 2.440 . S
Tb104 O126 2.658 1_565 S
Tb104 O127 2.409 . S
Tb104 O128 2.378 . S
Tb104 O132 2.325 1_455 S
Tb104 O135 2.341 1_565 S
Tb105 C115 2.809 . S
Tb105 O126 2.325 1_655 S
Tb105 O129 2.341 1_545 S
Tb105 O130 2.481 1_655 S
Tb105 O131 2.440 . S
Tb105 O132 2.658 1_545 S
Tb105 O133 2.409 . S
Tb105 O134 2.378 . S
C106 Tb104 2.809 . S
C106 C107 1.514 . S
C106 O124 1.253 1_455 S
C106 O125 1.266 . S
C107 C106 1.514 . S
C107 C108 1.359 . S
C107 C112 1.348 . S
C108 C107 1.359 . S
C108 C109 1.380 1_556 S
C108 H136 0.929 1_455 S
C109 C108 1.380 1_554 S
C109 C110 1.347 . S
C109 H137 0.931 1_455 S
C110 C109 1.347 . S
C110 C111 1.369 1_554 S
C111 C110 1.369 1_556 S
C111 C112 1.408 . S
C111 H138 0.930 . S
C112 C107 1.348 . S
C112 C111 1.408 . S
C112 H139 0.930 . S
C113 O126 1.281 1_565 S
C113 O127 1.254 . S
C114 O128 1.236 1_655 S
C114 O129 1.266 . S
C115 Tb105 2.809 . S
C115 C116 1.514 . S
C115 O130 1.241 1_655 S
C115 O131 1.266 . S
C116 C115 1.514 . S
C116 C117 1.359 . S
C116 C121 1.348 . S
C117 C116 1.359 . S
C117 C118 1.380 . S
C117 H140 0.929 1_655 S
C118 C117 1.380 . S
C118 C119 1.347 . S
C118 H141 0.931 1_655 S
C119 C118 1.347 . S
C119 C120 1.369 . S
C120 C119 1.369 . S
C120 C121 1.408 . S
C120 H142 0.930 . S
C121 C116 1.348 . S
C121 C120 1.408 . S
C121 H143 0.930 . S
C122 O132 1.281 1_545 S
C122 O133 1.254 . S
C123 O134 1.236 1_455 S
C123 O135 1.266 . S
O124 Tb104 2.487 1_655 S
O124 C106 1.253 1_655 S
O125 Tb104 2.440 . S
O125 C106 1.266 . S
O126 Tb104 2.658 1_545 S
O126 Tb105 2.325 1_455 S
O126 C113 1.281 1_545 S
O127 Tb104 2.409 . S
O127 C113 1.254 . S
O128 Tb104 2.378 . S
O128 C114 1.236 1_455 S
O129 Tb105 2.341 1_565 S
O129 C114 1.266 . S
O130 Tb105 2.481 1_455 S
O130 C115 1.241 1_455 S
O131 Tb105 2.440 . S
O131 C115 1.266 . S
O132 Tb104 2.325 1_655 S
O132 Tb105 2.658 1_565 S
O132 C122 1.281 1_565 S
O133 Tb105 2.409 . S
O133 C122 1.254 . S
O134 Tb105 2.378 . S
O134 C123 1.236 1_655 S
O135 Tb104 2.341 1_545 S
O135 C123 1.266 . S
H136 C108 0.929 1_655 S
H137 C109 0.931 1_655 S
H138 C111 0.930 . S
H139 C112 0.930 . S
H140 C117 0.929 1_455 S
H141 C118 0.931 1_455 S
H142 C120 0.930 . S
H143 C121 0.930 . S
Tb144 C146 2.809 . S
Tb144 O164 2.482 1_545 S
Tb144 O165 2.440 . S
Tb144 O166 2.658 . S
Tb144 O167 2.409 . S
Tb144 O168 2.378 . S
Tb144 O172 2.325 1_545 S
Tb144 O175 2.341 . S
Tb145 C155 2.809 . S
Tb145 O166 2.325 1_565 S
Tb145 O169 2.341 . S
Tb145 O170 2.476 1_565 S
Tb145 O171 2.440 . S
Tb145 O172 2.658 . S
Tb145 O173 2.409 . S
Tb145 O174 2.378 . S
C146 Tb144 2.809 . S
C146 C147 1.514 . S
C146 O164 1.242 1_545 S
C146 O165 1.266 . S
C147 C146 1.514 . S
C147 C148 1.359 . S
C147 C152 1.348 . S
C148 C147 1.359 . S
C148 C149 1.380 1_556 S
C148 H176 0.929 1_545 S
C149 C148 1.380 1_554 S
C149 C150 1.347 . S
C149 H177 0.931 1_545 S
C150 C149 1.347 . S
C150 C151 1.369 1_554 S
C151 C150 1.369 1_556 S
C151 C152 1.408 . S
C151 H178 0.930 . S
C152 C147 1.348 . S
C152 C151 1.408 . S
C152 H179 0.930 . S
C153 O166 1.281 . S
C153 O167 1.254 . S
C154 O168 1.236 1_565 S
C154 O169 1.266 . S
C155 Tb145 2.809 . S
C155 C156 1.514 . S
C155 O170 1.230 1_565 S
C155 O171 1.266 . S
C156 C155 1.514 . S
C156 C157 1.359 . S
C156 C161 1.348 . S
C157 C156 1.359 . S
C157 C158 1.380 . S
C157 H180 0.929 1_565 S
C158 C157 1.380 . S
C158 C159 1.347 . S
C158 H181 0.931 1_565 S
C159 C158 1.347 . S
C159 C160 1.369 . S
C160 C159 1.369 . S
C160 C161 1.408 . S
C160 H182 0.930 . S
C161 C156 1.348 . S
C161 C160 1.408 . S
C161 H183 0.930 . S
C162 O172 1.281 . S
C162 O173 1.254 . S
C163 O174 1.236 1_545 S
C163 O175 1.266 . S
O164 Tb144 2.482 1_565 S
O164 C146 1.242 1_565 S
O165 Tb144 2.440 . S
O165 C146 1.266 . S
O166 Tb144 2.658 . S
O166 Tb145 2.325 1_545 S
O166 C153 1.281 . S
O167 Tb144 2.409 . S
O167 C153 1.254 . S
O168 Tb144 2.378 . S
O168 C154 1.236 1_545 S
O169 Tb145 2.341 . S
O169 C154 1.266 . S
O170 Tb145 2.476 1_545 S
O170 C155 1.230 1_545 S
O171 Tb145 2.440 . S
O171 C155 1.266 . S
O172 Tb144 2.325 1_565 S
O172 Tb145 2.658 . S
O172 C162 1.281 . S
O173 Tb145 2.409 . S
O173 C162 1.254 . S
O174 Tb145 2.378 . S
O174 C163 1.236 1_565 S
O175 Tb144 2.341 . S
O175 C163 1.266 . S
H176 C148 0.929 1_565 S
H177 C149 0.931 1_565 S
H178 C151 0.930 . S
H179 C152 0.930 . S
H180 C157 0.929 1_545 S
H181 C158 0.931 1_545 S
H182 C160 0.930 . S
H183 C161 0.930 . S
Tb184 C186 2.809 . S
Tb184 O204 2.484 . S
Tb184 O205 2.440 . S
Tb184 O206 2.658 . S
Tb184 O207 2.409 . S
Tb184 O208 2.378 . S
Tb184 O212 2.325 . S
Tb184 O215 2.341 . S
Tb185 C195 2.809 . S
Tb185 O206 2.325 . S
Tb185 O209 2.341 . S
Tb185 O210 2.484 . S
Tb185 O211 2.440 . S
Tb185 O212 2.658 . S
Tb185 O213 2.409 . S
Tb185 O214 2.378 . S
C186 Tb184 2.809 . S
C186 C187 1.514 . S
C186 O204 1.248 . S
C186 O205 1.266 . S
C187 C186 1.514 . S
C187 C188 1.359 . S
C187 C192 1.348 . S
C188 C187 1.359 . S
C188 C189 1.380 1_556 S
C188 H216 0.929 . S
C189 C188 1.380 1_554 S
C189 C190 1.347 . S
C189 H217 0.931 . S
C190 C189 1.347 . S
C190 C191 1.369 1_554 S
C191 C190 1.369 1_556 S
C191 C192 1.408 . S
C191 H218 0.930 . S
C192 C187 1.348 . S
C192 C191 1.408 . S
C192 H219 0.930 . S
C193 O206 1.281 . S
C193 O207 1.254 . S
C194 O208 1.236 . S
C194 O209 1.266 . S
C195 Tb185 2.809 . S
C195 C196 1.514 . S
C195 O210 1.248 . S
C195 O211 1.266 . S
C196 C195 1.514 . S
C196 C197 1.359 . S
C196 C201 1.348 . S
C197 C196 1.359 . S
C197 C198 1.380 . S
C197 H220 0.929 . S
C198 C197 1.380 . S
C198 C199 1.347 . S
C198 H221 0.931 . S
C199 C198 1.347 . S
C199 C200 1.369 . S
C200 C199 1.369 . S
C200 C201 1.408 . S
C200 H222 0.930 . S
C201 C196 1.348 . S
C201 C200 1.408 . S
C201 H223 0.930 . S
C202 O212 1.281 . S
C202 O213 1.254 . S
C203 O214 1.236 . S
C203 O215 1.266 . S
O204 Tb184 2.484 . S
O204 C186 1.248 . S
O205 Tb184 2.440 . S
O205 C186 1.266 . S
O206 Tb184 2.658 . S
O206 Tb185 2.325 . S
O206 C193 1.281 . S
O207 Tb184 2.409 . S
O207 C193 1.254 . S
O208 Tb184 2.378 . S
O208 C194 1.236 . S
O209 Tb185 2.341 . S
O209 C194 1.266 . S
O210 Tb185 2.484 . S
O210 C195 1.248 . S
O211 Tb185 2.440 . S
O211 C195 1.266 . S
O212 Tb184 2.325 . S
O212 Tb185 2.658 . S
O212 C202 1.281 . S
O213 Tb185 2.409 . S
O213 C202 1.254 . S
O214 Tb185 2.378 . S
O214 C203 1.236 . S
O215 Tb184 2.341 . S
O215 C203 1.266 . S
H216 C188 0.929 . S
H217 C189 0.931 . S
H218 C191 0.930 . S
H219 C192 0.930 . S
H220 C197 0.929 . S
H221 C198 0.931 . S
H222 C200 0.930 . S
H223 C201 0.930 . S
Tb224 C226 2.809 . S
Tb224 O244 2.484 . S
Tb224 O245 2.440 . S
Tb224 O246 2.658 1_655 S
Tb224 O247 2.409 . S
Tb224 O248 2.378 . S
Tb224 O252 2.325 . S
Tb224 O255 2.341 1_655 S
Tb225 C235 2.809 . S
Tb225 O246 2.325 . S
Tb225 O249 2.341 1_455 S
Tb225 O250 2.484 . S
Tb225 O251 2.440 . S
Tb225 O252 2.658 1_455 S
Tb225 O253 2.409 . S
Tb225 O254 2.378 . S
C226 Tb224 2.809 . S
C226 C227 1.514 . S
C226 O244 1.248 . S
C226 O245 1.266 . S
C227 C226 1.514 . S
C227 C228 1.359 . S
C227 C232 1.348 . S
C228 C227 1.359 . S
C228 C229 1.380 1_556 S
C228 H256 0.929 . S
C229 C228 1.380 1_554 S
C229 C230 1.347 . S
C229 H257 0.931 . S
C230 C229 1.347 . S
C230 C231 1.369 1_554 S
C231 C230 1.369 1_556 S
C231 C232 1.408 . S
C231 H258 0.930 . S
C232 C227 1.348 . S
C232 C231 1.408 . S
C232 H259 0.930 . S
C233 O246 1.270 1_655 S
C233 O247 1.269 . S
C234 O248 1.236 . S
C234 O249 1.266 . S
C235 Tb225 2.809 . S
C235 C236 1.514 . S
C235 O250 1.248 . S
C235 O251 1.266 . S
C236 C235 1.514 . S
C236 C237 1.359 . S
C236 C241 1.348 . S
C237 C236 1.359 . S
C237 C238 1.380 . S
C237 H260 0.929 . S
C238 C237 1.380 . S
C238 C239 1.347 . S
C238 H261 0.931 . S
C239 C238 1.347 . S
C239 C240 1.369 . S
C240 C239 1.369 . S
C240 C241 1.408 . S
C240 H262 0.930 . S
C241 C236 1.348 . S
C241 C240 1.408 . S
C241 H263 0.930 . S
C242 O252 1.266 1_455 S
C242 O253 1.275 . S
C243 O254 1.236 . S
C243 O255 1.266 . S
O244 Tb224 2.484 . S
O244 C226 1.248 . S
O245 Tb224 2.440 . S
O245 C226 1.266 . S
O246 Tb224 2.658 1_455 S
O246 Tb225 2.325 . S
O246 C233 1.270 1_455 S
O247 Tb224 2.409 . S
O247 C233 1.269 . S
O248 Tb224 2.378 . S
O248 C234 1.236 . S
O249 Tb225 2.341 1_655 S
O249 C234 1.266 . S
O250 Tb225 2.484 . S
O250 C235 1.248 . S
O251 Tb225 2.440 . S
O251 C235 1.266 . S
O252 Tb224 2.325 . S
O252 Tb225 2.658 1_655 S
O252 C242 1.266 1_655 S
O253 Tb225 2.409 . S
O253 C242 1.275 . S
O254 Tb225 2.378 . S
O254 C243 1.236 . S
O255 Tb224 2.341 1_455 S
O255 C243 1.266 . S
H256 C228 0.929 . S
H257 C229 0.931 . S
H258 C231 0.930 . S
H259 C232 0.930 . S
H260 C237 0.929 . S
H261 C238 0.931 . S
H262 C240 0.930 . S
H263 C241 0.930 . S
H264 C272 0.929 . S
H265 C274 0.930 . S
H266 C276 0.930 . S
H267 C279 0.929 . S
H268 C282 0.930 . S
H269 C284 0.960 . S
H270 C284 0.960 . S
H271 C284 0.960 1_565 S
C272 H264 0.929 . S
C272 C273 1.392 . S
C272 C274 1.384 . S
C273 C272 1.392 . S
C273 C279 1.376 1_545 S
C274 H265 0.930 . S
C274 C272 1.384 . S
C274 C275 1.372 . S
C275 C274 1.372 . S
C275 C276 1.400 1_545 S
C275 C280 1.490 . S
C276 H266 0.930 . S
C276 C275 1.400 1_565 S
C276 C279 1.386 . S
H277 C293 0.930 . S
H278 C294 0.931 . S
C279 H267 0.929 . S
C279 C273 1.376 1_565 S
C279 C276 1.386 . S
C280 C275 1.490 . S
C280 C282 1.395 1_545 S
C280 C283 1.403 . S
H281 C287 0.930 . S
C282 H268 0.930 . S
C282 C280 1.395 1_565 S
C282 C285 1.403 . S
C283 C280 1.403 . S
C283 C284 1.524 . S
C283 C287 1.400 . S
C284 H269 0.960 . S
C284 H270 0.960 . S
C284 H271 0.960 1_545 S
C284 C283 1.524 . S
C285 C282 1.403 . S
C285 C286 1.392 1_565 S
C285 C289 1.495 . S
C286 C285 1.392 1_545 S
C286 C287 1.385 . S
C286 C288 1.477 1_545 S
C287 H281 0.930 . S
C287 C283 1.400 . S
C287 C286 1.385 . S
C288 C286 1.477 1_565 S
C288 C290 1.367 1_565 S
C288 C294 1.397 . S
C289 C285 1.495 . S
C289 H295 0.959 . S
C289 H296 0.961 . S
C289 H297 0.960 1_565 S
C290 C288 1.367 1_545 S
C290 C291 1.394 . S
C290 H298 0.930 . S
C291 C290 1.394 . S
C291 C292 1.385 1_545 S
C291 H299 0.929 . S
C292 C291 1.385 1_565 S
C292 C293 1.375 . S
C293 H277 0.930 . S
C293 C292 1.375 . S
C293 C294 1.379 . S
C294 H278 0.931 . S
C294 C288 1.397 . S
C294 C293 1.379 . S
H295 C289 0.959 . S
H296 C289 0.961 . S
H297 C289 0.960 1_545 S
H298 C290 0.930 . S
H299 C291 0.929 . S
H300 C308 0.929 . S
H301 C310 0.930 . S
H302 C312 0.930 . S
H303 C315 0.929 . S
H304 C318 0.930 . S
H305 C320 0.960 . S
H306 C320 0.960 . S
H307 C320 0.960 . S
C308 H300 0.929 . S
C308 C309 1.377 . S
C308 C310 1.384 . S
C309 C308 1.377 . S
C309 C315 1.390 . S
C310 H301 0.930 . S
C310 C308 1.384 . S
C310 C311 1.372 . S
C311 C310 1.372 . S
C311 C312 1.400 . S
C311 C316 1.490 . S
C312 H302 0.930 . S
C312 C311 1.400 . S
C312 C315 1.386 . S
H313 C329 0.930 . S
H314 C330 0.931 . S
C315 H303 0.929 . S
C315 C309 1.390 . S
C315 C312 1.386 . S
C316 C311 1.490 . S
C316 C318 1.395 . S
C316 C319 1.403 . S
H317 C323 0.930 . S
C318 H304 0.930 . S
C318 C316 1.395 . S
C318 C321 1.403 . S
C319 C316 1.403 . S
C319 C320 1.524 . S
C319 C323 1.400 . S
C320 H305 0.960 . S
C320 H306 0.960 . S
C320 H307 0.960 . S
C320 C319 1.524 . S
C321 C318 1.403 . S
C321 C322 1.392 . S
C321 C325 1.495 . S
C322 C321 1.392 . S
C322 C323 1.385 . S
C322 C324 1.478 . S
C323 H317 0.930 . S
C323 C319 1.400 . S
C323 C322 1.385 . S
C324 C322 1.478 . S
C324 C326 1.381 . S
C324 C330 1.383 . S
C325 C321 1.495 . S
C325 H331 0.959 . S
C325 H332 0.961 . S
C325 H333 0.960 . S
C326 C324 1.381 . S
C326 C327 1.394 . S
C326 H334 0.930 . S
C327 C326 1.394 . S
C327 C328 1.383 . S
C327 H335 0.929 . S
C328 C327 1.383 . S
C328 C329 1.377 . S
C329 H313 0.930 . S
C329 C328 1.377 . S
C329 C330 1.379 . S
C330 H314 0.931 . S
C330 C324 1.383 . S
C330 C329 1.379 . S
H331 C325 0.959 . S
H332 C325 0.961 . S
H333 C325 0.960 . S
H334 C326 0.930 . S
H335 C327 0.929 . S
H336 C344 0.929 . S
H337 C346 0.930 . S
H338 C348 0.930 . S
H339 C351 0.929 . S
H340 C354 0.930 . S
H341 C356 0.960 . S
H342 C356 0.960 . S
H343 C356 0.960 . S
C344 H336 0.929 . S
C344 C345 1.377 . S
C344 C346 1.384 . S
C345 C344 1.377 . S
C345 C351 1.390 . S
C346 H337 0.930 . S
C346 C344 1.384 . S
C346 C347 1.372 . S
C347 C346 1.372 . S
C347 C348 1.400 . S
C347 C352 1.490 . S
C348 H338 0.930 . S
C348 C347 1.400 . S
C348 C351 1.386 . S
H349 C365 0.930 . S
H350 C366 0.931 . S
C351 H339 0.929 . S
C351 C345 1.390 . S
C351 C348 1.386 . S
C352 C347 1.490 . S
C352 C354 1.395 . S
C352 C355 1.403 . S
H353 C359 0.930 . S
C354 H340 0.930 . S
C354 C352 1.395 . S
C354 C357 1.403 . S
C355 C352 1.403 . S
C355 C356 1.524 . S
C355 C359 1.400 . S
C356 H341 0.960 . S
C356 H342 0.960 . S
C356 H343 0.960 . S
C356 C355 1.524 . S
C357 C354 1.403 . S
C357 C358 1.392 . S
C357 C361 1.495 . S
C358 C357 1.392 . S
C358 C359 1.385 . S
C358 C360 1.478 . S
C359 H353 0.930 . S
C359 C355 1.400 . S
C359 C358 1.385 . S
C360 C358 1.478 . S
C360 C362 1.381 . S
C360 C366 1.383 . S
C361 C357 1.495 . S
C361 H367 0.959 . S
C361 H368 0.961 . S
C361 H369 0.960 . S
C362 C360 1.381 . S
C362 C363 1.394 . S
C362 H370 0.930 . S
C363 C362 1.394 . S
C363 C364 1.383 . S
C363 H371 0.929 . S
C364 C363 1.383 . S
C364 C365 1.377 . S
C365 H349 0.930 . S
C365 C364 1.377 . S
C365 C366 1.379 . S
C366 H350 0.931 . S
C366 C360 1.383 . S
C366 C365 1.379 . S
H367 C361 0.959 . S
H368 C361 0.961 . S
H369 C361 0.960 . S
H370 C362 0.930 . S
H371 C363 0.929 . S
H372 C380 0.929 . S
H373 C382 0.930 . S
H374 C384 0.930 . S
H375 C387 0.929 . S
H376 C390 0.930 . S
H377 C392 0.960 . S
H378 C392 0.960 1_655 S
H379 C392 0.960 . S
C380 H372 0.929 . S
C380 C381 1.378 . S
C380 C382 1.384 . S
C381 C380 1.378 . S
C381 C387 1.390 1_655 S
C382 H373 0.930 . S
C382 C380 1.384 . S
C382 C383 1.411 . S
C383 C382 1.411 . S
C383 C384 1.360 1_655 S
C383 C388 1.490 . S
C384 H374 0.930 . S
C384 C383 1.360 1_455 S
C384 C387 1.386 . S
H385 C401 0.930 . S
H386 C402 0.931 . S
C387 H375 0.929 . S
C387 C381 1.390 1_455 S
C387 C384 1.386 . S
C388 C383 1.490 . S
C388 C390 1.406 . S
C388 C391 1.394 1_655 S
H389 C395 0.930 . S
C390 H376 0.930 . S
C390 C388 1.406 . S
C390 C393 1.403 . S
C391 C388 1.394 1_455 S
C391 C392 1.524 . S
C391 C395 1.400 . S
C392 H377 0.960 . S
C392 H378 0.960 1_455 S
C392 H379 0.960 . S
C392 C391 1.524 . S
C393 C390 1.403 . S
C393 C394 1.405 . S
C393 C397 1.495 . S
C394 C393 1.405 . S
C394 C395 1.375 1_655 S
C394 C396 1.477 . S
C395 H389 0.930 . S
C395 C391 1.400 . S
C395 C394 1.375 1_455 S
C396 C394 1.477 . S
C396 C398 1.398 . S
C396 C402 1.366 1_655 S
C397 C393 1.495 . S
C397 H403 0.959 . S
C397 H404 0.961 1_655 S
C397 H405 0.960 . S
C398 C396 1.398 . S
C398 C399 1.394 . S
C398 H406 0.930 . S
C399 C398 1.394 . S
C399 C400 1.358 1_655 S
C399 H407 0.929 . S
C400 C399 1.358 1_455 S
C400 C401 1.401 . S
C401 H385 0.930 . S
C401 C400 1.401 . S
C401 C402 1.379 . S
C402 H386 0.931 . S
C402 C396 1.366 1_455 S
C402 C401 1.379 . S
H403 C397 0.959 . S
H404 C397 0.961 1_455 S
H405 C397 0.960 . S
H406 C398 0.930 . S
H407 C399 0.929 . S
H408 C416 0.929 . S
H409 C418 0.930 . S
H410 C420 0.930 . S
H411 C423 0.929 . S
H412 C426 0.930 . S
H413 C428 0.960 1_556 S
H414 C428 0.960 . S
H415 C428 0.960 . S
C416 H408 0.929 . S
C416 C417 1.389 . S
C416 C418 1.384 . S
C417 C416 1.389 . S
C417 C423 1.378 1_545 S
C418 H409 0.930 . S
C418 C416 1.384 . S
C418 C419 1.406 . S
C419 C418 1.406 . S
C419 C420 1.367 1_545 S
C419 C424 1.490 . S
C420 H410 0.930 . S
C420 C419 1.367 1_565 S
C420 C423 1.386 . S
H421 C437 0.930 . S
H422 C438 0.931 . S
C423 H411 0.929 . S
C423 C417 1.378 1_565 S
C423 C420 1.386 . S
C424 C419 1.490 . S
C424 C426 1.385 1_545 S
C424 C427 1.413 . S
H425 C431 0.930 1_556 S
C426 H412 0.930 . S
C426 C424 1.385 1_565 S
C426 C429 1.403 . S
C427 C424 1.413 . S
C427 C428 1.524 . S
C427 C431 1.400 . S
C428 H413 0.960 1_554 S
C428 H414 0.960 . S
C428 H415 0.960 . S
C428 C427 1.524 . S
C429 C426 1.403 . S
C429 C430 1.400 . S
C429 C433 1.495 . S
C430 C429 1.400 . S
C430 C431 1.377 1_565 S
C430 C432 1.479 1_554 S
C431 H425 0.930 1_554 S
C431 C427 1.400 . S
C431 C430 1.377 1_545 S
C432 C430 1.479 1_556 S
C432 C434 1.381 1_565 S
C432 C438 1.383 . S
C433 C429 1.495 . S
C433 H439 0.959 . S
C433 H440 0.961 . S
C433 H441 0.980 . S
C434 C432 1.381 1_545 S
C434 C435 1.394 . S
C434 H442 0.930 1_556 S
C435 C434 1.394 . S
C435 C436 1.357 1_545 S
C435 H443 0.929 . S
C436 C435 1.357 1_565 S
C436 C437 1.404 . S
C437 H421 0.930 . S
C437 C436 1.404 . S
C437 C438 1.379 . S
C438 H422 0.931 . S
C438 C432 1.383 . S
C438 C437 1.379 . S
H439 C433 0.959 . S
H440 C433 0.961 . S
H441 C433 0.980 . S
H442 C434 0.930 1_554 S
H443 C435 0.929 . S
H444 C452 0.929 . S
H445 C454 0.930 . S
H446 C456 0.930 . S
H447 C459 0.929 . S
H448 C462 0.930 . S
H449 C464 0.960 . S
H450 C464 0.960 . S
H451 C464 0.960 . S
C452 H444 0.929 . S
C452 C453 1.377 . S
C452 C454 1.384 . S
C453 C452 1.377 . S
C453 C459 1.390 . S
C454 H445 0.930 . S
C454 C452 1.384 . S
C454 C455 1.372 . S
C455 C454 1.372 . S
C455 C456 1.400 . S
C455 C460 1.490 . S
C456 H446 0.930 . S
C456 C455 1.400 . S
C456 C459 1.386 . S
H457 C473 0.930 . S
H458 C474 0.931 1_554 S
C459 H447 0.929 . S
C459 C453 1.390 . S
C459 C456 1.386 . S
C460 C455 1.490 . S
C460 C462 1.395 . S
C460 C463 1.403 . S
H461 C467 0.930 . S
C462 H448 0.930 . S
C462 C460 1.395 . S
C462 C465 1.403 . S
C463 C460 1.403 . S
C463 C464 1.524 . S
C463 C467 1.400 . S
C464 H449 0.960 . S
C464 H450 0.960 . S
C464 H451 0.960 . S
C464 C463 1.524 . S
C465 C462 1.403 . S
C465 C466 1.392 . S
C465 C469 1.495 . S
C466 C465 1.392 . S
C466 C467 1.385 . S
C466 C468 1.478 1_554 S
C467 H461 0.930 . S
C467 C463 1.400 . S
C467 C466 1.385 . S
C468 C466 1.478 1_556 S
C468 C470 1.381 . S
C468 C474 1.383 . S
C469 C465 1.495 . S
C469 H475 0.959 . S
C469 H476 0.961 . S
C469 H477 0.960 . S
C470 C468 1.381 . S
C470 C471 1.394 . S
C470 H478 0.930 . S
C471 C470 1.394 . S
C471 C472 1.383 . S
C471 H479 0.929 . S
C472 C471 1.383 . S
C472 C473 1.377 . S
C473 H457 0.930 . S
C473 C472 1.377 . S
C473 C474 1.379 . S
C474 H458 0.931 1_556 S
C474 C468 1.383 . S
C474 C473 1.379 . S
H475 C469 0.959 . S
H476 C469 0.961 . S
H477 C469 0.960 . S
H478 C470 0.930 . S
H479 C471 0.929 . S
H480 C488 0.929 . S
H481 C490 0.930 . S
H482 C492 0.930 . S
H483 C495 0.929 . S
H484 C498 0.930 . S
H485 C500 0.960 1_556 S
H486 C500 0.960 . S
H487 C500 0.960 . S
C488 H480 0.929 . S
C488 C489 1.377 . S
C488 C490 1.384 . S
C489 C488 1.377 . S
C489 C495 1.390 . S
C490 H481 0.930 . S
C490 C488 1.384 . S
C490 C491 1.372 . S
C491 C490 1.372 . S
C491 C492 1.400 . S
C491 C496 1.490 . S
C492 H482 0.930 . S
C492 C491 1.400 . S
C492 C495 1.386 . S
H493 C509 0.930 . S
H494 C510 0.931 . S
C495 H483 0.929 . S
C495 C489 1.390 . S
C495 C492 1.386 . S
C496 C491 1.490 . S
C496 C498 1.395 . S
C496 C499 1.403 . S
H497 C503 0.930 1_556 S
C498 H484 0.930 . S
C498 C496 1.395 . S
C498 C501 1.403 . S
C499 C496 1.403 . S
C499 C500 1.524 . S
C499 C503 1.400 . S
C500 H485 0.960 1_554 S
C500 H486 0.960 . S
C500 H487 0.960 . S
C500 C499 1.524 . S
C501 C498 1.403 . S
C501 C502 1.392 . S
C501 C505 1.495 . S
C502 C501 1.392 . S
C502 C503 1.385 . S
C502 C504 1.478 1_554 S
C503 H497 0.930 1_554 S
C503 C499 1.400 . S
C503 C502 1.385 . S
C504 C502 1.478 1_556 S
C504 C506 1.381 . S
C504 C510 1.383 . S
C505 C501 1.495 . S
C505 H511 0.959 . S
C505 H512 0.961 . S
C505 H513 0.960 . S
C506 C504 1.381 . S
C506 C507 1.394 . S
C506 H514 0.930 . S
C507 C506 1.394 . S
C507 C508 1.383 . S
C507 H515 0.929 . S
C508 C507 1.383 . S
C508 C509 1.377 . S
C509 H493 0.930 . S
C509 C508 1.377 . S
C509 C510 1.379 . S
C510 H494 0.931 . S
C510 C504 1.383 . S
C510 C509 1.379 . S
H511 C505 0.959 . S
H512 C505 0.961 . S
H513 C505 0.960 . S
H514 C506 0.930 . S
H515 C507 0.929 . S
H516 C524 0.929 . S
H517 C526 0.930 . S
H518 C528 0.930 . S
H519 C531 0.929 . S
H520 C534 0.936 . S
H521 C536 0.960 . S
H522 C536 0.960 . S
H523 C536 0.960 1_455 S
C524 H516 0.929 . S
C524 C525 1.394 . S
C524 C526 1.384 . S
C525 C524 1.394 . S
C525 C531 1.373 1_655 S
C526 H517 0.930 . S
C526 C524 1.384 . S
C526 C527 1.372 . S
C527 C526 1.372 . S
C527 C528 1.400 1_655 S
C527 C532 1.490 . S
C528 H518 0.930 . S
C528 C527 1.400 1_455 S
C528 C531 1.386 . S
H529 C545 0.930 . S
H530 C546 0.931 1_554 S
C531 H519 0.929 . S
C531 C525 1.373 1_455 S
C531 C528 1.386 . S
C532 C527 1.490 . S
C532 C534 1.390 1_655 S
C532 C535 1.403 . S
H533 C539 0.930 . S
C534 H520 0.936 . S
C534 C532 1.390 1_455 S
C534 C537 1.413 . S
C535 C532 1.403 . S
C535 C536 1.524 . S
C535 C539 1.400 . S
C536 H521 0.960 . S
C536 H522 0.960 . S
C536 H523 0.960 1_655 S
C536 C535 1.524 . S
C537 C534 1.413 . S
C537 C538 1.392 1_455 S
C537 C541 1.486 1_554 S
C538 C537 1.392 1_655 S
C538 C539 1.389 . S
C538 C540 1.477 1_554 S
C539 H533 0.930 . S
C539 C535 1.400 . S
C539 C538 1.389 . S
C540 C538 1.477 1_556 S
C540 C542 1.383 . S
C540 C546 1.381 1_655 S
C541 C537 1.486 1_556 S
C541 H547 0.959 . S
C541 H548 0.961 . S
C541 H549 0.960 1_455 S
C542 C540 1.383 . S
C542 C543 1.394 . S
C542 H550 0.930 . S
C543 C542 1.394 . S
C543 C544 1.399 . S
C543 H551 0.929 . S
C544 C543 1.399 . S
C544 C545 1.361 1_655 S
C545 H529 0.930 . S
C545 C544 1.361 1_455 S
C545 C546 1.379 . S
C546 H530 0.931 1_556 S
C546 C540 1.381 1_455 S
C546 C545 1.379 . S
H547 C541 0.959 . S
H548 C541 0.961 . S
H549 C541 0.960 1_655 S
H550 C542 0.930 . S
H551 C543 0.929 . S
H552 C560 0.929 . S
H553 C562 0.930 . S
H554 C564 0.930 . S
H555 C567 0.929 . S
H556 C570 0.930 . S
H557 C572 0.960 . S
H558 C572 0.960 . S
H559 C572 0.960 . S
C560 H552 0.929 . S
C560 C561 1.377 1_655 S
C560 C562 1.384 . S
C561 C560 1.377 1_455 S
C561 C567 1.390 . S
C562 H553 0.930 . S
C562 C560 1.384 . S
C562 C563 1.372 . S
C563 C562 1.372 . S
C563 C564 1.400 1_655 S
C563 C568 1.490 . S
C564 H554 0.930 . S
C564 C563 1.400 1_455 S
C564 C567 1.386 . S
H565 C581 0.930 1_455 S
H566 C582 0.931 1_455 S
C567 H555 0.929 . S
C567 C561 1.390 . S
C567 C564 1.386 . S
C568 C563 1.490 . S
C568 C570 1.395 . S
C568 C571 1.403 . S
H569 C575 0.930 . S
C570 H556 0.930 . S
C570 C568 1.395 . S
C570 C573 1.403 . S
C571 C568 1.403 . S
C571 C572 1.524 . S
C571 C575 1.400 . S
C572 H557 0.960 . S
C572 H558 0.960 . S
C572 H559 0.960 . S
C572 C571 1.524 . S
C573 C570 1.403 . S
C573 C574 1.392 . S
C573 C577 1.495 . S
C574 C573 1.392 . S
C574 C575 1.385 . S
C574 C576 1.478 . S
C575 H569 0.930 . S
C575 C571 1.400 . S
C575 C574 1.385 . S
C576 C574 1.478 . S
C576 C578 1.381 . S
C576 C582 1.383 . S
C577 C573 1.495 . S
C577 H583 0.959 . S
C577 H584 0.961 1_655 S
C577 H585 0.960 . S
C578 C576 1.381 . S
C578 C579 1.394 . S
C578 H586 0.930 . S
C579 C578 1.394 . S
C579 C580 1.383 . S
C579 H587 0.929 . S
C580 C579 1.383 . S
C580 C581 1.377 . S
C581 H565 0.930 1_655 S
C581 C580 1.377 . S
C581 C582 1.379 . S
C582 H566 0.931 1_655 S
C582 C576 1.383 . S
C582 C581 1.379 . S
H583 C577 0.959 . S
H584 C577 0.961 1_455 S
H585 C577 0.960 . S
H586 C578 0.930 . S
H587 C579 0.929 . S
H588 C596 0.929 . S
H589 C598 0.930 . S
H590 C600 0.930 . S
H591 C603 0.929 1_556 S
H592 C606 0.930 . S
H593 C608 0.960 . S
H594 C608 0.960 . S
H595 C608 0.960 . S
C596 H588 0.929 . S
C596 C597 1.377 . S
C596 C598 1.384 . S
C597 C596 1.377 . S
C597 C603 1.390 1_545 S
C598 H589 0.930 . S
C598 C596 1.384 . S
C598 C599 1.372 1_545 S
C599 C598 1.372 1_565 S
C599 C600 1.400 . S
C599 C604 1.490 . S
C600 H590 0.930 . S
C600 C599 1.400 . S
C600 C603 1.386 . S
H601 C617 0.930 . S
H602 C618 0.931 . S
C603 H591 0.929 1_554 S
C603 C597 1.390 1_565 S
C603 C600 1.386 . S
C604 C599 1.490 . S
C604 C606 1.395 . S
C604 C607 1.403 . S
H605 C611 0.930 . S
C606 H592 0.930 . S
C606 C604 1.395 . S
C606 C609 1.403 . S
C607 C604 1.403 . S
C607 C608 1.524 1_565 S
C607 C611 1.400 . S
C608 H593 0.960 . S
C608 H594 0.960 . S
C608 H595 0.960 . S
C608 C607 1.524 1_545 S
C609 C606 1.403 . S
C609 C610 1.392 . S
C609 C613 1.495 . S
C610 C609 1.392 . S
C610 C611 1.385 . S
C610 C612 1.478 . S
C611 H605 0.930 . S
C611 C607 1.400 . S
C611 C610 1.385 . S
C612 C610 1.478 . S
C612 C614 1.381 . S
C612 C618 1.383 . S
C613 C609 1.495 . S
C613 H619 0.959 . S
C613 H620 0.961 . S
C613 H621 0.960 . S
C614 C612 1.381 . S
C614 C615 1.394 . S
C614 H622 0.955 . S
C615 C614 1.394 . S
C615 C616 1.383 . S
C615 H623 0.929 . S
C616 C615 1.383 . S
C616 C617 1.377 . S
C617 H601 0.930 . S
C617 C616 1.377 . S
C617 C618 1.379 . S
C618 H602 0.931 . S
C618 C612 1.383 . S
C618 C617 1.379 . S
H619 C613 0.959 . S
H620 C613 0.961 . S
H621 C613 0.960 . S
H622 C614 0.955 . S
H623 C615 0.929 . S
H624 C632 0.929 . S
H625 C634 0.930 . S
H626 C636 0.930 . S
H627 C639 0.929 . S
H628 C642 0.930 . S
H629 C644 0.960 . S
H630 C644 0.960 . S
H631 C644 0.960 . S
C632 H624 0.929 . S
C632 C633 1.377 . S
C632 C634 1.384 . S
C633 C632 1.377 . S
C633 C639 1.390 . S
C634 H625 0.930 . S
C634 C632 1.384 . S
C634 C635 1.372 . S
C635 C634 1.372 . S
C635 C636 1.400 . S
C635 C640 1.490 . S
C636 H626 0.930 . S
C636 C635 1.400 . S
C636 C639 1.386 . S
H637 C653 0.930 . S
H638 C654 0.931 . S
C639 H627 0.929 . S
C639 C633 1.390 . S
C639 C636 1.386 . S
C640 C635 1.490 . S
C640 C642 1.395 . S
C640 C643 1.403 . S
H641 C647 0.930 . S
C642 H628 0.930 . S
C642 C640 1.395 . S
C642 C645 1.403 . S
C643 C640 1.403 . S
C643 C644 1.524 . S
C643 C647 1.400 . S
C644 H629 0.960 . S
C644 H630 0.960 . S
C644 H631 0.960 . S
C644 C643 1.524 . S
C645 C642 1.403 . S
C645 C646 1.392 . S
C645 C649 1.495 . S
C646 C645 1.392 . S
C646 C647 1.385 . S
C646 C648 1.478 . S
C647 H641 0.930 . S
C647 C643 1.400 . S
C647 C646 1.385 . S
C648 C646 1.478 . S
C648 C650 1.381 . S
C648 C654 1.383 . S
C649 C645 1.495 . S
C649 H655 0.959 . S
C649 H656 0.961 . S
C649 H657 0.960 . S
C650 C648 1.381 . S
C650 C651 1.394 . S
C650 H658 0.930 . S
C651 C650 1.394 . S
C651 C652 1.383 . S
C651 H659 0.929 . S
C652 C651 1.383 . S
C652 C653 1.377 . S
C653 H637 0.930 . S
C653 C652 1.377 . S
C653 C654 1.379 . S
C654 H638 0.931 . S
C654 C648 1.383 . S
C654 C653 1.379 . S
H655 C649 0.959 . S
H656 C649 0.961 . S
H657 C649 0.960 . S
H658 C650 0.930 . S
H659 C651 0.929 . S
H660 C668 0.934 . S
H661 C670 0.930 . S
H662 C672 0.930 . S
H663 C675 0.929 . S
H664 C678 0.930 . S
H665 C680 0.960 . S
H666 C680 0.960 . S
H667 C680 0.960 . S
C668 H660 0.934 . S
C668 C669 1.377 . S
C668 C670 1.384 . S
C669 C668 1.377 . S
C669 C675 1.390 . S
C670 H661 0.930 . S
C670 C668 1.384 . S
C670 C671 1.372 . S
C671 C670 1.372 . S
C671 C672 1.400 . S
C671 C676 1.490 . S
C672 H662 0.930 . S
C672 C671 1.400 . S
C672 C675 1.386 . S
H673 C689 0.930 . S
H674 C690 0.931 . S
C675 H663 0.929 . S
C675 C669 1.390 . S
C675 C672 1.386 . S
C676 C671 1.490 . S
C676 C678 1.395 . S
C676 C679 1.403 . S
H677 C683 0.930 . S
C678 H664 0.930 . S
C678 C676 1.395 . S
C678 C681 1.403 . S
C679 C676 1.403 . S
C679 C680 1.524 . S
C679 C683 1.400 . S
C680 H665 0.960 . S
C680 H666 0.960 . S
C680 H667 0.960 . S
C680 C679 1.524 . S
C681 C678 1.403 . S
C681 C682 1.392 . S
C681 C685 1.495 . S
C682 C681 1.392 . S
C682 C683 1.385 . S
C682 C684 1.478 . S
C683 H677 0.930 . S
C683 C679 1.400 . S
C683 C682 1.385 . S
C684 C682 1.478 . S
C684 C686 1.381 . S
C684 C690 1.383 . S
C685 C681 1.495 . S
C685 H691 0.959 . S
C685 H692 0.961 . S
C685 H693 0.960 . S
C686 C684 1.381 . S
C686 C687 1.394 . S
C686 H694 0.930 . S
C687 C686 1.394 . S
C687 C688 1.383 . S
C687 H695 0.929 . S
C688 C687 1.383 . S
C688 C689 1.377 . S
C689 H673 0.930 . S
C689 C688 1.377 . S
C689 C690 1.379 . S
C690 H674 0.931 . S
C690 C684 1.383 . S
C690 C689 1.379 . S
H691 C685 0.959 . S
H692 C685 0.961 . S
H693 C685 0.960 . S
H694 C686 0.930 . S
H695 C687 0.929 . S
H696 C704 0.929 . S
H697 C706 0.930 . S
H698 C708 0.930 . S
H699 C711 0.929 . S
H700 C714 0.930 . S
H701 C716 0.960 . S
H702 C716 0.960 . S
H703 C716 0.960 1_455 S
C704 H696 0.929 . S
C704 C705 1.377 . S
C704 C706 1.384 . S
C705 C704 1.377 . S
C705 C711 1.390 1_655 S
C706 H697 0.930 . S
C706 C704 1.384 . S
C706 C707 1.372 1_655 S
C707 C706 1.372 1_455 S
C707 C708 1.400 . S
C707 C712 1.490 . S
C708 H698 0.930 . S
C708 C707 1.400 . S
C708 C711 1.386 . S
H709 C725 0.930 1_556 S
H710 C726 0.931 . S
C711 H699 0.929 . S
C711 C705 1.390 1_455 S
C711 C708 1.386 . S
C712 C707 1.490 . S
C712 C714 1.395 . S
C712 C715 1.403 . S
H713 C719 0.930 . S
C714 H700 0.930 . S
C714 C712 1.395 . S
C714 C717 1.403 . S
C715 C712 1.403 . S
C715 C716 1.524 1_455 S
C715 C719 1.400 . S
C716 H701 0.960 . S
C716 H702 0.960 . S
C716 H703 0.960 1_655 S
C716 C715 1.524 1_655 S
C717 C714 1.403 . S
C717 C718 1.392 . S
C717 C721 1.495 . S
C718 C717 1.392 . S
C718 C719 1.385 . S
C718 C720 1.478 . S
C719 H713 0.930 . S
C719 C715 1.400 . S
C719 C718 1.385 . S
C720 C718 1.478 . S
C720 C722 1.381 . S
C720 C726 1.383 . S
C721 C717 1.495 . S
C721 H727 0.959 . S
C721 H728 0.961 . S
C721 H729 0.960 . S
C722 C720 1.381 . S
C722 C723 1.394 . S
C722 H730 0.930 1_455 S
C723 C722 1.394 . S
C723 C724 1.383 . S
C723 H731 0.947 . S
C724 C723 1.383 . S
C724 C725 1.377 . S
C725 H709 0.930 1_554 S
C725 C724 1.377 . S
C725 C726 1.379 . S
C726 H710 0.931 . S
C726 C720 1.383 . S
C726 C725 1.379 . S
H727 C721 0.959 . S
H728 C721 0.961 . S
H729 C721 0.960 . S
H730 C722 0.930 1_655 S
H731 C723 0.947 . S
H732 C740 0.926 1_565 S
H733 C742 0.930 . S
H734 C744 0.930 . S
H735 C747 0.931 . S
H736 C750 0.930 . S
H737 C752 0.960 . S
H738 C752 0.960 . S
H739 C752 0.960 . S
C740 H732 0.926 1_545 S
C740 C741 1.375 1_545 S
C740 C742 1.387 . S
C741 C740 1.375 1_565 S
C741 C747 1.385 1_565 S
C742 H733 0.930 . S
C742 C740 1.387 . S
C742 C743 1.372 . S
C743 C742 1.372 . S
C743 C744 1.400 . S
C743 C748 1.490 . S
C744 H734 0.930 . S
C744 C743 1.400 . S
C744 C747 1.386 . S
H745 C761 0.930 . S
H746 C762 0.931 . S
C747 H735 0.931 . S
C747 C741 1.385 1_545 S
C747 C744 1.386 . S
C748 C743 1.490 . S
C748 C750 1.395 1_545 S
C748 C751 1.403 . S
H749 C755 0.930 . S
C750 H736 0.930 . S
C750 C748 1.395 1_565 S
C750 C753 1.403 . S
C751 C748 1.403 . S
C751 C752 1.524 . S
C751 C755 1.400 . S
C752 H737 0.960 . S
C752 H738 0.960 . S
C752 H739 0.960 . S
C752 C751 1.524 . S
C753 C750 1.403 . S
C753 C754 1.392 1_565 S
C753 C757 1.495 . S
C754 C753 1.392 1_545 S
C754 C755 1.385 . S
C754 C756 1.478 . S
C755 H749 0.930 . S
C755 C751 1.400 . S
C755 C754 1.385 . S
C756 C754 1.478 . S
C756 C758 1.381 . S
C756 C762 1.383 . S
C757 C753 1.495 . S
C757 H763 0.959 . S
C757 H764 0.961 . S
C757 H765 0.960 . S
C758 C756 1.381 . S
C758 C759 1.394 1_554 S
C758 H766 0.930 1_554 S
C759 C758 1.394 1_556 S
C759 C760 1.383 1_556 S
C759 H767 0.929 . S
C760 C759 1.383 1_554 S
C760 C761 1.377 . S
C761 H745 0.930 . S
C761 C760 1.377 . S
C761 C762 1.379 . S
C762 H746 0.931 . S
C762 C756 1.383 . S
C762 C761 1.379 . S
H763 C757 0.959 . S
H764 C757 0.961 . S
H765 C757 0.960 . S
H766 C758 0.930 1_556 S
H767 C759 0.929 . S
H768 C776 0.929 . S
H769 C778 0.930 . S
H770 C780 0.930 . S
H771 C783 0.929 . S
H772 C786 0.930 . S
H773 C788 0.960 . S
H774 C788 0.960 . S
H775 C788 0.960 . S
C776 H768 0.929 . S
C776 C777 1.377 . S
C776 C778 1.384 . S
C777 C776 1.377 . S
C777 C783 1.390 . S
C778 H769 0.930 . S
C778 C776 1.384 . S
C778 C779 1.372 . S
C779 C778 1.372 . S
C779 C780 1.400 . S
C779 C784 1.490 . S
C780 H770 0.930 . S
C780 C779 1.400 . S
C780 C783 1.386 . S
H781 C797 0.930 1_556 S
H782 C798 0.931 . S
C783 H771 0.929 . S
C783 C777 1.390 . S
C783 C780 1.386 . S
C784 C779 1.490 . S
C784 C786 1.395 . S
C784 C787 1.403 . S
H785 C791 0.930 . S
C786 H772 0.930 . S
C786 C784 1.395 . S
C786 C789 1.403 . S
C787 C784 1.403 . S
C787 C788 1.524 . S
C787 C791 1.400 . S
C788 H773 0.960 . S
C788 H774 0.960 . S
C788 H775 0.960 . S
C788 C787 1.524 . S
C789 C786 1.403 . S
C789 C790 1.392 . S
C789 C793 1.495 . S
C790 C789 1.392 . S
C790 C791 1.385 . S
C790 C792 1.478 . S
C791 H785 0.930 . S
C791 C787 1.400 . S
C791 C790 1.385 . S
C792 C790 1.478 . S
C792 C794 1.381 . S
C792 C798 1.383 . S
C793 C789 1.495 . S
C793 H799 0.959 . S
C793 H800 0.961 . S
C793 H801 0.960 . S
C794 C792 1.381 . S
C794 C795 1.394 . S
C794 H802 0.930 . S
C795 C794 1.394 . S
C795 C796 1.383 . S
C795 H803 0.929 . S
C796 C795 1.383 . S
C796 C797 1.377 . S
C797 H781 0.930 1_554 S
C797 C796 1.377 . S
C797 C798 1.379 . S
C798 H782 0.931 . S
C798 C792 1.383 . S
C798 C797 1.379 . S
H799 C793 0.959 . S
H800 C793 0.961 . S
H801 C793 0.960 . S
H802 C794 0.930 . S
H803 C795 0.929 . S
H804 C812 0.929 . S
H805 C814 0.930 . S
H806 C816 0.930 . S
H807 C819 0.929 . S
H808 C822 0.930 . S
H809 C824 0.960 . S
H810 C824 0.960 . S
H811 C824 0.960 . S
C812 H804 0.929 . S
C812 C813 1.377 . S
C812 C814 1.384 . S
C813 C812 1.377 . S
C813 C819 1.390 . S
C814 H805 0.930 . S
C814 C812 1.384 . S
C814 C815 1.372 . S
C815 C814 1.372 . S
C815 C816 1.400 . S
C815 C820 1.490 . S
C816 H806 0.930 . S
C816 C815 1.400 . S
C816 C819 1.386 . S
H817 C833 0.930 . S
H818 C834 0.931 . S
C819 H807 0.929 . S
C819 C813 1.390 . S
C819 C816 1.386 . S
C820 C815 1.490 . S
C820 C822 1.395 . S
C820 C823 1.403 . S
H821 C827 0.930 . S
C822 H808 0.930 . S
C822 C820 1.395 . S
C822 C825 1.403 . S
C823 C820 1.403 . S
C823 C824 1.524 . S
C823 C827 1.400 . S
C824 H809 0.960 . S
C824 H810 0.960 . S
C824 H811 0.960 . S
C824 C823 1.524 . S
C825 C822 1.403 . S
C825 C826 1.392 . S
C825 C829 1.495 . S
C826 C825 1.392 . S
C826 C827 1.385 . S
C826 C828 1.478 . S
C827 H821 0.930 . S
C827 C823 1.400 . S
C827 C826 1.385 . S
C828 C826 1.478 . S
C828 C830 1.381 . S
C828 C834 1.383 . S
C829 C825 1.495 . S
C829 H835 0.959 . S
C829 H836 0.961 . S
C829 H837 0.960 . S
C830 C828 1.381 . S
C830 C831 1.394 . S
C830 H838 0.930 . S
C831 C830 1.394 . S
C831 C832 1.383 . S
C831 H839 0.929 1_554 S
C832 C831 1.383 . S
C832 C833 1.377 . S
C833 H817 0.930 . S
C833 C832 1.377 . S
C833 C834 1.379 . S
C834 H818 0.931 . S
C834 C828 1.383 . S
C834 C833 1.379 . S
H835 C829 0.959 . S
H836 C829 0.961 . S
H837 C829 0.960 . S
H838 C830 0.930 . S
H839 C831 0.929 1_556 S
H840 C848 0.929 . S
H841 C850 0.930 . S
H842 C852 0.930 . S
H843 C855 0.929 . S
H844 C858 0.930 . S
H845 C860 0.960 . S
H846 C860 0.960 . S
H847 C860 0.960 1_556 S
C848 H840 0.929 . S
C848 C849 1.343 1_655 S
C848 C850 1.384 . S
C849 C848 1.343 1_455 S
C849 C855 1.426 . S
C850 H841 0.930 . S
C850 C848 1.384 . S
C850 C851 1.372 1_655 S
C851 C850 1.372 1_455 S
C851 C852 1.400 . S
C851 C856 1.490 . S
C852 H842 0.930 . S
C852 C851 1.400 . S
C852 C855 1.386 . S
H853 C869 0.930 . S
H854 C870 0.931 . S
C855 H843 0.929 . S
C855 C849 1.426 . S
C855 C852 1.386 . S
C856 C851 1.490 . S
C856 C858 1.395 1_455 S
C856 C859 1.403 . S
H857 C863 0.930 . S
C858 H844 0.930 . S
C858 C856 1.395 1_655 S
C858 C861 1.403 . S
C859 C856 1.403 . S
C859 C860 1.524 1_556 S
C859 C863 1.400 . S
C860 H845 0.960 . S
C860 H846 0.960 . S
C860 H847 0.960 1_554 S
C860 C859 1.524 1_554 S
C861 C858 1.403 . S
C861 C862 1.392 1_655 S
C861 C865 1.495 . S
C862 C861 1.392 1_455 S
C862 C863 1.385 . S
C862 C864 1.478 . S
C863 H857 0.930 . S
C863 C859 1.400 . S
C863 C862 1.385 . S
C864 C862 1.478 . S
C864 C866 1.381 1_455 S
C864 C870 1.383 . S
C865 C861 1.495 . S
C865 H871 0.959 . S
C865 H872 0.961 . S
C865 H873 0.960 . S
C866 C864 1.381 1_655 S
C866 C867 1.394 . S
C866 H874 0.930 . S
C867 C866 1.394 . S
C867 C868 1.383 1_655 S
C867 H875 0.929 . S
C868 C867 1.383 1_455 S
C868 C869 1.377 . S
C869 H853 0.930 . S
C869 C868 1.377 . S
C869 C870 1.379 . S
C870 H854 0.931 . S
C870 C864 1.383 . S
C870 C869 1.379 . S
H871 C865 0.959 . S
H872 C865 0.961 . S
H873 C865 0.960 . S
H874 C866 0.930 . S
H875 C867 0.929 . S
H876 C884 0.929 . S
H877 C886 0.930 . S
H878 C888 0.930 1_554 S
H879 C891 0.929 1_554 S
H880 C894 0.930 . S
H881 C896 0.960 . S
H882 C896 0.960 1_556 S
H883 C896 0.960 . S
C884 H876 0.929 . S
C884 C885 1.365 1_565 S
C884 C886 1.384 . S
C885 C884 1.365 1_545 S
C885 C891 1.403 . S
C886 H877 0.930 . S
C886 C884 1.384 . S
C886 C887 1.372 1_565 S
C887 C886 1.372 1_545 S
C887 C888 1.400 . S
C887 C892 1.490 . S
C888 H878 0.930 1_556 S
C888 C887 1.400 . S
C888 C891 1.386 . S
H889 C905 0.930 . S
H890 C906 0.931 . S
C891 H879 0.929 1_556 S
C891 C885 1.403 . S
C891 C888 1.386 . S
C892 C887 1.490 . S
C892 C894 1.395 . S
C892 C895 1.403 1_545 S
H893 C899 0.930 . S
C894 H880 0.930 . S
C894 C892 1.395 . S
C894 C897 1.403 . S
C895 C892 1.403 1_565 S
C895 C896 1.524 1_556 S
C895 C899 1.400 . S
C896 H881 0.960 . S
C896 H882 0.960 1_554 S
C896 H883 0.960 . S
C896 C895 1.524 1_554 S
C897 C894 1.403 . S
C897 C898 1.392 . S
C897 C901 1.495 . S
C898 C897 1.392 . S
C898 C899 1.385 1_545 S
C898 C900 1.478 . S
C899 H893 0.930 . S
C899 C895 1.400 . S
C899 C898 1.385 1_565 S
C900 C898 1.478 . S
C900 C902 1.381 1_545 S
C900 C906 1.383 . S
C901 C897 1.495 . S
C901 H907 0.959 . S
C901 H908 0.961 . S
C901 H909 0.960 . S
C902 C900 1.381 1_565 S
C902 C903 1.394 . S
C902 H910 0.930 . S
C903 C902 1.394 . S
C903 C904 1.383 1_565 S
C903 H911 0.929 . S
C904 C903 1.383 1_545 S
C904 C905 1.377 . S
C905 H889 0.930 . S
C905 C904 1.377 . S
C905 C906 1.379 . S
C906 H890 0.931 . S
C906 C900 1.383 . S
C906 C905 1.379 . S
H907 C901 0.959 . S
H908 C901 0.961 . S
H909 C901 0.960 . S
H910 C902 0.930 . S
H911 C903 0.929 . S
H912 C920 0.929 . S
H913 C922 0.930 . S
H914 C924 0.930 . S
H915 C927 0.929 . S
H916 C930 0.930 . S
H917 C932 0.960 . S
H918 C932 0.960 . S
H919 C932 0.960 . S
C920 H912 0.929 . S
C920 C921 1.377 . S
C920 C922 1.384 . S
C921 C920 1.377 . S
C921 C927 1.390 . S
C922 H913 0.930 . S
C922 C920 1.384 . S
C922 C923 1.372 . S
C923 C922 1.372 . S
C923 C924 1.400 . S
C923 C928 1.490 . S
C924 H914 0.930 . S
C924 C923 1.400 . S
C924 C927 1.386 . S
H925 C941 0.930 . S
H926 C942 0.931 . S
C927 H915 0.929 . S
C927 C921 1.390 . S
C927 C924 1.386 . S
C928 C923 1.490 . S
C928 C930 1.395 . S
C928 C931 1.403 . S
H929 C935 0.930 . S
C930 H916 0.930 . S
C930 C928 1.395 . S
C930 C933 1.403 . S
C931 C928 1.403 . S
C931 C932 1.524 1_556 S
C931 C935 1.400 . S
C932 H917 0.960 . S
C932 H918 0.960 . S
C932 H919 0.960 . S
C932 C931 1.524 1_554 S
C933 C930 1.403 . S
C933 C934 1.392 . S
C933 C937 1.495 . S
C934 C933 1.392 . S
C934 C935 1.385 . S
C934 C936 1.478 . S
C935 H929 0.930 . S
C935 C931 1.400 . S
C935 C934 1.385 . S
C936 C934 1.478 . S
C936 C938 1.381 . S
C936 C942 1.383 . S
C937 C933 1.495 . S
C937 H943 0.959 . S
C937 H944 0.961 . S
C937 H945 0.960 . S
C938 C936 1.381 . S
C938 C939 1.394 . S
C938 H946 0.930 . S
C939 C938 1.394 . S
C939 C940 1.383 . S
C939 H947 0.929 . S
C940 C939 1.383 . S
C940 C941 1.377 . S
C941 H925 0.930 . S
C941 C940 1.377 . S
C941 C942 1.379 . S
C942 H926 0.931 . S
C942 C936 1.383 . S
C942 C941 1.379 . S
H943 C937 0.959 . S
H944 C937 0.961 . S
H945 C937 0.960 . S
H946 C938 0.930 . S
H947 C939 0.929 . S
H948 C956 0.929 . S
H949 C958 0.930 . S
H950 C960 0.930 1_554 S
H951 C963 0.929 . S
H952 C966 0.930 . S
H953 C968 0.960 1_554 S
H954 C968 0.960 . S
H955 C968 0.960 1_554 S
C956 H948 0.929 . S
C956 C957 1.377 . S
C956 C958 1.384 . S
C957 C956 1.377 . S
C957 C963 1.390 1_556 S
C958 H949 0.930 . S
C958 C956 1.384 . S
C958 C959 1.372 . S
C959 C958 1.372 . S
C959 C960 1.400 . S
C959 C964 1.490 . S
C960 H950 0.930 1_556 S
C960 C959 1.400 . S
C960 C963 1.386 1_556 S
H961 C977 0.930 . S
H962 C978 0.931 . S
C963 H951 0.929 . S
C963 C957 1.390 1_554 S
C963 C960 1.386 1_554 S
C964 C959 1.490 . S
C964 C966 1.395 . S
C964 C967 1.403 . S
H965 C971 0.930 . S
C966 H952 0.930 . S
C966 C964 1.395 . S
C966 C969 1.403 . S
C967 C964 1.403 . S
C967 C968 1.524 . S
C967 C971 1.400 . S
C968 H953 0.960 1_556 S
C968 H954 0.960 . S
C968 H955 0.960 1_556 S
C968 C967 1.524 . S
C969 C966 1.403 . S
C969 C970 1.392 . S
C969 C973 1.495 . S
C970 C969 1.392 . S
C970 C971 1.385 . S
C970 C972 1.478 . S
C971 H965 0.930 . S
C971 C967 1.400 . S
C971 C970 1.385 . S
C972 C970 1.478 . S
C972 C974 1.381 . S
C972 C978 1.383 . S
C973 C969 1.495 . S
C973 H979 0.959 . S
C973 H980 0.961 . S
C973 H981 0.960 . S
C974 C972 1.381 . S
C974 C975 1.394 . S
C974 H982 0.930 . S
C975 C974 1.394 . S
C975 C976 1.383 . S
C975 H983 0.929 . S
C976 C975 1.383 . S
C976 C977 1.377 . S
C977 H961 0.930 . S
C977 C976 1.377 . S
C977 C978 1.379 . S
C978 H962 0.931 . S
C978 C972 1.383 . S
C978 C977 1.379 . S
H979 C973 0.959 . S
H980 C973 0.961 . S
H981 C973 0.960 . S
H982 C974 0.930 . S
H983 C975 0.929 . S
H984 C992 0.929 . S
H985 C994 0.928 1_455 S
H986 C996 0.930 . S
H987 C999 0.929 . S
H988 C1002 0.930 . S
H989 C1004 0.960 . S
H990 C1004 0.960 . S
H991 C1004 0.960 . S
C992 H984 0.929 . S
C992 C993 1.378 1_455 S
C992 C994 1.383 1_455 S
C993 C992 1.378 1_655 S
C993 C999 1.390 . S
C994 H985 0.928 1_655 S
C994 C992 1.383 1_655 S
C994 C995 1.375 . S
C995 C994 1.375 . S
C995 C996 1.400 . S
C995 C1000 1.490 . S
C996 H986 0.930 . S
C996 C995 1.400 . S
C996 C999 1.386 . S
H997 C1013 0.930 . S
H998 C1014 0.931 . S
C999 H987 0.929 . S
C999 C993 1.390 . S
C999 C996 1.386 . S
C1000 C995 1.490 . S
C1000 C1002 1.395 1_655 S
C1000 C1003 1.403 . S
H1001 C1007 0.930 . S
C1002 H988 0.930 . S
C1002 C1000 1.395 1_455 S
C1002 C1005 1.403 . S
C1003 C1000 1.403 . S
C1003 C1004 1.524 . S
C1003 C1007 1.400 . S
C1004 H989 0.960 . S
C1004 H990 0.960 . S
C1004 H991 0.960 . S
C1004 C1003 1.524 . S
C1005 C1002 1.403 . S
C1005 C1006 1.392 1_455 S
C1005 C1009 1.495 . S
C1006 C1005 1.392 1_655 S
C1006 C1007 1.385 . S
C1006 C1008 1.478 . S
C1007 H1001 0.930 . S
C1007 C1003 1.400 . S
C1007 C1006 1.385 . S
C1008 C1006 1.478 . S
C1008 C1010 1.381 . S
C1008 C1014 1.383 . S
C1009 C1005 1.495 . S
C1009 H1015 0.959 . S
C1009 H1016 0.961 . S
C1009 H1017 0.960 . S
C1010 C1008 1.381 . S
C1010 C1011 1.394 . S
C1010 H1018 0.930 . S
C1011 C1010 1.394 . S
C1011 C1012 1.383 . S
C1011 H1019 0.929 . S
C1012 C1011 1.383 . S
C1012 C1013 1.377 . S
C1013 H997 0.930 . S
C1013 C1012 1.377 . S
C1013 C1014 1.379 . S
C1014 H998 0.931 . S
C1014 C1008 1.383 . S
C1014 C1013 1.379 . S
H1015 C1009 0.959 . S
H1016 C1009 0.961 . S
H1017 C1009 0.960 . S
H1018 C1010 0.930 . S
H1019 C1011 0.929 . S
H1020 C1028 0.929 . S
H1021 C1030 0.930 . S
H1022 C1032 0.930 . S
H1023 C1035 0.929 . S
H1024 C1038 0.930 1_545 S
H1025 C1040 0.960 . S
H1026 C1040 0.960 . S
H1027 C1040 0.960 . S
C1028 H1020 0.929 . S
C1028 C1029 1.419 . S
C1028 C1030 1.384 . S
C1029 C1028 1.419 . S
C1029 C1035 1.353 1_565 S
C1030 H1021 0.930 . S
C1030 C1028 1.384 . S
C1030 C1031 1.372 . S
C1031 C1030 1.372 . S
C1031 C1032 1.400 1_565 S
C1031 C1036 1.490 . S
C1032 H1022 0.930 . S
C1032 C1031 1.400 1_545 S
C1032 C1035 1.386 . S
H1033 C1049 0.930 . S
H1034 C1050 0.931 . S
C1035 H1023 0.929 . S
C1035 C1029 1.353 1_545 S
C1035 C1032 1.386 . S
C1036 C1031 1.490 . S
C1036 C1038 1.395 . S
C1036 C1039 1.403 . S
H1037 C1043 0.930 . S
C1038 H1024 0.930 1_565 S
C1038 C1036 1.395 . S
C1038 C1041 1.403 . S
C1039 C1036 1.403 . S
C1039 C1040 1.524 . S
C1039 C1043 1.400 . S
C1040 H1025 0.960 . S
C1040 H1026 0.960 . S
C1040 H1027 0.960 . S
C1040 C1039 1.524 . S
C1041 C1038 1.403 . S
C1041 C1042 1.392 . S
C1041 C1045 1.495 1_565 S
C1042 C1041 1.392 . S
C1042 C1043 1.385 . S
C1042 C1044 1.478 . S
C1043 H1037 0.930 . S
C1043 C1039 1.400 . S
C1043 C1042 1.385 . S
C1044 C1042 1.478 . S
C1044 C1046 1.381 . S
C1044 C1050 1.383 1_565 S
C1045 C1041 1.495 1_545 S
C1045 H1051 0.959 . S
C1045 H1052 0.961 . S
C1045 H1053 0.960 1_545 S
C1046 C1044 1.381 . S
C1046 C1047 1.394 . S
C1046 H1054 0.930 . S
C1047 C1046 1.394 . S
C1047 C1048 1.383 . S
C1047 H1055 0.929 . S
C1048 C1047 1.383 . S
C1048 C1049 1.377 1_565 S
C1049 H1033 0.930 . S
C1049 C1048 1.377 1_545 S
C1049 C1050 1.379 . S
C1050 H1034 0.931 . S
C1050 C1044 1.383 1_545 S
C1050 C1049 1.379 . S
H1051 C1045 0.959 . S
H1052 C1045 0.961 . S
H1053 C1045 0.960 1_565 S
H1054 C1046 0.930 . S
H1055 C1047 0.929 . S
H1056 C1064 0.929 . S
H1057 C1066 0.930 . S
H1058 C1068 0.930 . S
H1059 C1071 0.929 . S
H1060 C1074 0.930 . S
H1061 C1076 0.960 . S
H1062 C1076 0.960 . S
H1063 C1076 0.960 . S
C1064 H1056 0.929 . S
C1064 C1065 1.377 . S
C1064 C1066 1.384 . S
C1065 C1064 1.377 . S
C1065 C1071 1.390 . S
C1066 H1057 0.930 . S
C1066 C1064 1.384 . S
C1066 C1067 1.372 . S
C1067 C1066 1.372 . S
C1067 C1068 1.400 . S
C1067 C1072 1.490 . S
C1068 H1058 0.930 . S
C1068 C1067 1.400 . S
C1068 C1071 1.386 . S
H1069 C1085 0.930 . S
H1070 C1086 0.931 . S
C1071 H1059 0.929 . S
C1071 C1065 1.390 . S
C1071 C1068 1.386 . S
C1072 C1067 1.490 . S
C1072 C1074 1.395 . S
C1072 C1075 1.403 . S
H1073 C1079 0.930 . S
C1074 H1060 0.930 . S
C1074 C1072 1.395 . S
C1074 C1077 1.403 . S
C1075 C1072 1.403 . S
C1075 C1076 1.524 . S
C1075 C1079 1.400 . S
C1076 H1061 0.960 . S
C1076 H1062 0.960 . S
C1076 H1063 0.960 . S
C1076 C1075 1.524 . S
C1077 C1074 1.403 . S
C1077 C1078 1.392 . S
C1077 C1081 1.495 . S
C1078 C1077 1.392 . S
C1078 C1079 1.385 . S
C1078 C1080 1.478 . S
C1079 H1073 0.930 . S
C1079 C1075 1.400 . S
C1079 C1078 1.385 . S
C1080 C1078 1.478 . S
C1080 C1082 1.381 . S
C1080 C1086 1.383 . S
C1081 C1077 1.495 . S
C1081 H1087 0.959 . S
C1081 H1088 0.961 . S
C1081 H1089 0.960 . S
C1082 C1080 1.381 . S
C1082 C1083 1.394 . S
C1082 H1090 0.930 . S
C1083 C1082 1.394 . S
C1083 C1084 1.383 . S
C1083 H1091 0.929 . S
C1084 C1083 1.383 . S
C1084 C1085 1.377 . S
C1085 H1069 0.930 . S
C1085 C1084 1.377 . S
C1085 C1086 1.379 . S
C1086 H1070 0.931 . S
C1086 C1080 1.383 . S
C1086 C1085 1.379 . S
H1087 C1081 0.959 . S
H1088 C1081 0.961 . S
H1089 C1081 0.960 . S
H1090 C1082 0.930 . S
H1091 C1083 0.929 . S
H1092 C1100 0.929 . S
H1093 C1102 0.930 . S
H1094 C1104 0.930 . S
H1095 C1107 0.929 . S
H1096 C1110 0.930 . S
H1097 C1112 0.960 . S
H1098 C1112 0.960 . S
H1099 C1112 0.960 . S
C1100 H1092 0.929 . S
C1100 C1101 1.377 . S
C1100 C1102 1.384 . S
C1101 C1100 1.377 . S
C1101 C1107 1.390 . S
C1102 H1093 0.930 . S
C1102 C1100 1.384 . S
C1102 C1103 1.372 . S
C1103 C1102 1.372 . S
C1103 C1104 1.400 . S
C1103 C1108 1.490 . S
C1104 H1094 0.930 . S
C1104 C1103 1.400 . S
C1104 C1107 1.386 . S
H1105 C1121 0.930 . S
H1106 C1122 0.931 . S
C1107 H1095 0.929 . S
C1107 C1101 1.390 . S
C1107 C1104 1.386 . S
C1108 C1103 1.490 . S
C1108 C1110 1.395 . S
C1108 C1111 1.403 . S
H1109 C1115 0.930 . S
C1110 H1096 0.930 . S
C1110 C1108 1.395 . S
C1110 C1113 1.403 . S
C1111 C1108 1.403 . S
C1111 C1112 1.524 . S
C1111 C1115 1.400 . S
C1112 H1097 0.960 . S
C1112 H1098 0.960 . S
C1112 H1099 0.960 . S
C1112 C1111 1.524 . S
C1113 C1110 1.403 . S
C1113 C1114 1.392 . S
C1113 C1117 1.495 . S
C1114 C1113 1.392 . S
C1114 C1115 1.385 . S
C1114 C1116 1.478 . S
C1115 H1109 0.930 . S
C1115 C1111 1.400 . S
C1115 C1114 1.385 . S
C1116 C1114 1.478 . S
C1116 C1118 1.381 . S
C1116 C1122 1.383 . S
C1117 C1113 1.495 . S
C1117 H1123 0.959 . S
C1117 H1124 0.961 . S
C1117 H1125 0.960 . S
C1118 C1116 1.381 . S
C1118 C1119 1.394 . S
C1118 H1126 0.930 . S
C1119 C1118 1.394 . S
C1119 C1120 1.383 . S
C1119 H1127 0.929 . S
C1120 C1119 1.383 . S
C1120 C1121 1.377 . S
C1121 H1105 0.930 . S
C1121 C1120 1.377 . S
C1121 C1122 1.379 . S
C1122 H1106 0.931 . S
C1122 C1116 1.383 . S
C1122 C1121 1.379 . S
H1123 C1117 0.959 . S
H1124 C1117 0.961 . S
H1125 C1117 0.960 . S
H1126 C1118 0.930 . S
H1127 C1119 0.929 . S
C273 N80 1.791 1_545 S
C292 C113 1.833 . S
C328 C153 1.840 . S
C309 N93 1.794 . S
C364 C193 1.836 . S
C345 N54 1.810 . S
C400 C233 1.821 1_455 S
C381 N67 1.802 . S
C436 C122 1.838 1_565 S
C417 N28 1.798 1_545 S
C453 N41 1.797 . S
C472 C162 1.839 . S
C489 N2 1.805 . S
C508 C202 1.851 . S
C525 N15 1.801 . S
C544 C242 1.823 1_655 S
C580 C119 0.266 . S
C561 N70 0.215 1_455 S
C616 C159 0.326 . S
C597 N83 0.258 1_545 S
C652 C199 0.238 . S
C633 N96 0.261 . S
C669 N57 0.231 . S
C688 C239 0.260 . S
C705 N18 0.238 . S
C724 C110 0.303 . S
C760 C150 0.218 . S
C741 N31 0.224 . S
C796 C190 0.343 . S
C777 N44 0.252 . S
C813 N5 0.233 . S
C832 C230 0.259 . S
C849 N66 2.009 1_455 S
C868 C123 2.057 . S
C885 N79 1.986 1_545 S
C904 C163 2.051 . S
C940 C203 2.028 . S
C921 N92 1.970 . S
C976 C243 2.065 . S
C957 N53 1.995 . S
C993 N14 2.014 . S
C1012 C114 2.066 . S
C1048 C154 2.039 . S
C1029 N27 1.983 . S
C1084 C194 2.013 . S
C1065 N40 1.967 . S
C1101 N1 1.991 . S
C1120 C234 2.064 . S
