# Generated by pormake.
# Topology cml, (3,6)-cn, num edge types: 1
# Building blocks:
#     Node 0, Type 0, BuildingBlock: INOVEN_clean_linker_0, # of connection points: 3
#     Node 1, Type 0, BuildingBlock: INOVEN_clean_linker_0, # of connection points: 3
#     Node 2, Type 0, BuildingBlock: INOVEN_clean_linker_0, # of connection points: 3
#     Node 3, Type 0, BuildingBlock: INOVEN_clean_linker_0, # of connection points: 3
#     Node 4, Type 0, BuildingBlock: INOVEN_clean_linker_0, # of connection points: 3
#     Node 5, Type 0, BuildingBlock: INOVEN_clean_linker_0, # of connection points: 3
#     Node 6, Type 0, BuildingBlock: INOVEN_clean_linker_0, # of connection points: 3
#     Node 7, Type 0, BuildingBlock: INOVEN_clean_linker_0, # of connection points: 3
#     Node 8, Type 1, BuildingBlock: IZENUY_clean_sbu_0, # of connection points: 6
#     Node 9, Type 1, BuildingBlock: IZENUY_clean_sbu_0, # of connection points: 6
#     Node 10, Type 1, BuildingBlock: IZENUY_clean_sbu_0, # of connection points: 6
#     Node 11, Type 1, BuildingBlock: IZENUY_clean_sbu_0, # of connection points: 6
#     Edge 12, Type (0, 1), BuildingBlock: EZIPEK_clean_linker_0, # of connection points: 2
#     Edge 13, Type (0, 1), BuildingBlock: EZIPEK_clean_linker_0, # of connection points: 2
#     Edge 14, Type (0, 1), BuildingBlock: EZIPEK_clean_linker_0, # of connection points: 2
#     Edge 15, Type (0, 1), BuildingBlock: EZIPEK_clean_linker_0, # of connection points: 2
#     Edge 16, Type (0, 1), BuildingBlock: EZIPEK_clean_linker_0, # of connection points: 2
#     Edge 17, Type (0, 1), BuildingBlock: EZIPEK_clean_linker_0, # of connection points: 2
#     Edge 18, Type (0, 1), BuildingBlock: EZIPEK_clean_linker_0, # of connection points: 2
#     Edge 19, Type (0, 1), BuildingBlock: EZIPEK_clean_linker_0, # of connection points: 2
#     Edge 20, Type (0, 1), BuildingBlock: EZIPEK_clean_linker_0, # of connection points: 2
#     Edge 21, Type (0, 1), BuildingBlock: EZIPEK_clean_linker_0, # of connection points: 2
#     Edge 22, Type (0, 1), BuildingBlock: EZIPEK_clean_linker_0, # of connection points: 2
#     Edge 23, Type (0, 1), BuildingBlock: EZIPEK_clean_linker_0, # of connection points: 2
#     Edge 24, Type (0, 1), BuildingBlock: EZIPEK_clean_linker_0, # of connection points: 2
#     Edge 25, Type (0, 1), BuildingBlock: EZIPEK_clean_linker_0, # of connection points: 2
#     Edge 26, Type (0, 1), BuildingBlock: EZIPEK_clean_linker_0, # of connection points: 2
#     Edge 27, Type (0, 1), BuildingBlock: EZIPEK_clean_linker_0, # of connection points: 2
#     Edge 28, Type (0, 1), BuildingBlock: EZIPEK_clean_linker_0, # of connection points: 2
#     Edge 29, Type (0, 1), BuildingBlock: EZIPEK_clean_linker_0, # of connection points: 2
#     Edge 30, Type (0, 1), BuildingBlock: EZIPEK_clean_linker_0, # of connection points: 2
#     Edge 31, Type (0, 1), BuildingBlock: EZIPEK_clean_linker_0, # of connection points: 2
#     Edge 32, Type (0, 1), BuildingBlock: EZIPEK_clean_linker_0, # of connection points: 2
#     Edge 33, Type (0, 1), BuildingBlock: EZIPEK_clean_linker_0, # of connection points: 2
#     Edge 34, Type (0, 1), BuildingBlock: EZIPEK_clean_linker_0, # of connection points: 2
#     Edge 35, Type (0, 1), BuildingBlock: EZIPEK_clean_linker_0, # of connection points: 2
# Relax obj value: 0.004
# Max RMSD: 0.061
# Mean RMSD: 0.049
data_MOF--net-cml--node1-IZENUY_clean_sbu_0--node2-INOVEN_clean_linker_0--edge1-EZIPEK_clean_linker_0
_symmetry_space_group_name_H-M    P1
_symmetry_Int_Tables_number       1
_symmetry_cell_setting            triclinic
loop_
_symmetry_equiv_pos_as_xyz
'x, y, z'
_cell_length_a     27.18889
_cell_length_b     29.700335
_cell_length_c     26.480623
_cell_angle_alpha  89.213791
_cell_angle_beta   91.140385
_cell_angle_gamma 90.510231
loop_
_atom_site_label
_atom_site_type_symbol
_atom_site_fract_x
_atom_site_fract_y
_atom_site_fract_z
_atom_type_partial_charge
H0 H 0.27258 0.34948 0.08682 0.0
H1 H 0.3688 0.46254 0.06126 0.0
H2 H 0.26936 0.41979 0.94323 0.0
N3 N 0.22944 0.35031 0.99681 0.0
N4 N 0.2115 0.35228 0.95316 0.0
C5 C 0.28436 0.37747 0.06317 0.0
C6 C 0.32195 0.40637 0.08025 0.0
C7 C 0.26438 0.38258 0.01421 0.0
C8 C 0.2824 0.41701 0.98207 0.0
C9 C 0.31974 0.44621 0.99914 0.0
C10 C 0.33831 0.44139 0.0487 0.0
H11 H 0.74471 0.67826 0.59001 0.0
H12 H 0.63503 0.57979 0.54647 0.0
H13 H 0.75197 0.61285 0.44604 0.0
N14 N 0.79022 0.68114 0.50235 0.0
N15 N 0.80705 0.68191 0.45883 0.0
C16 C 0.72988 0.65435 0.56304 0.0
C17 C 0.68722 0.62921 0.57446 0.0
C18 C 0.75217 0.6503 0.51593 0.0
C19 C 0.73428 0.61764 0.48184 0.0
C20 C 0.69233 0.59195 0.49319 0.0
C21 C 0.66817 0.59901 0.53852 0.0
H22 H 0.7526 0.3467 0.08631 0.0
H23 H 0.64634 0.45079 0.05812 0.0
H24 H 0.75008 0.41852 0.94372 0.0
N25 N 0.79266 0.34891 0.9968 0.0
N26 N 0.80103 0.34299 0.95118 0.0
C27 C 0.73776 0.37312 0.06198 0.0
C28 C 0.6977 0.39834 0.078 0.0
C29 C 0.75627 0.37931 0.0133 0.0
C30 C 0.73638 0.41346 0.98153 0.0
C31 C 0.69703 0.43984 0.99801 0.0
C32 C 0.67782 0.4318 0.04606 0.0
H33 H 0.28724 0.59844 0.43731 0.0
H34 H 0.38387 0.57566 0.5654 0.0
H35 H 0.278 0.68218 0.56829 0.0
N36 N 0.24043 0.66708 0.47374 0.0
N37 N 0.228 0.70534 0.487 0.0
C38 C 0.29889 0.60635 0.4756 0.0
C39 C 0.3375 0.58244 0.49875 0.0
C40 C 0.27727 0.64228 0.5002 0.0
C41 C 0.29389 0.65395 0.54913 0.0
C42 C 0.33189 0.62942 0.57302 0.0
C43 C 0.35326 0.59353 0.54783 0.0
H44 H 0.78668 0.85635 0.08554 0.0
H45 H 0.88151 0.96557 0.03837 0.0
H46 H 0.77252 0.91629 0.93751 0.0
N47 N 0.73974 0.84886 0.9982 0.0
N48 N 0.72515 0.84413 0.95354 0.0
C49 C 0.79658 0.8833 0.05978 0.0
C50 C 0.83229 0.91635 0.07376 0.0
C51 C 0.7748 0.88293 0.01101 0.0
C52 C 0.78913 0.91548 0.97504 0.0
C53 C 0.82752 0.94523 0.98631 0.0
C54 C 0.8495 0.9445 0.03428 0.0
H55 H 0.25333 0.1773 0.58763 0.0
H56 H 0.14364 0.07634 0.5546 0.0
H57 H 0.2598 0.10222 0.44994 0.0
N58 N 0.29669 0.17538 0.49993 0.0
N59 N 0.30624 0.18135 0.45442 0.0
C60 C 0.23827 0.1516 0.56295 0.0
C61 C 0.19605 0.12739 0.57692 0.0
C62 C 0.25956 0.14469 0.51593 0.0
C63 C 0.24179 0.10948 0.485 0.0
C64 C 0.20029 0.08395 0.49943 0.0
C65 C 0.1766 0.09481 0.54414 0.0
H66 H 0.25619 0.85433 0.0851 0.0
H67 H 0.14195 0.94914 0.04973 0.0
H68 H 0.25175 0.92125 0.93969 0.0
N69 N 0.29516 0.85317 0.99558 0.0
N70 N 0.30408 0.84487 0.95061 0.0
C71 C 0.23878 0.87783 0.05881 0.0
C72 C 0.19683 0.90116 0.0732 0.0
C73 C 0.25699 0.88267 0.00985 0.0
C74 C 0.23608 0.91527 0.97648 0.0
C75 C 0.19497 0.9404 0.99136 0.0
C76 C 0.17452 0.93117 0.03869 0.0
H77 H 0.78238 0.09753 0.43023 0.0
H78 H 0.88705 0.07191 0.55082 0.0
H79 H 0.77812 0.17421 0.56708 0.0
N80 N 0.73806 0.16534 0.47287 0.0
N81 N 0.72456 0.20119 0.49194 0.0
C82 C 0.79594 0.10405 0.46822 0.0
C83 C 0.83636 0.08013 0.48785 0.0
C84 C 0.77512 0.13846 0.49614 0.0
C85 C 0.79359 0.14751 0.54507 0.0
C86 C 0.83377 0.12331 0.56486 0.0
C87 C 0.85504 0.08972 0.53615 0.0
Fe88 Fe 0.01567 0.83138 0.30734 0.0
Fe89 Fe 0.01671 0.87703 0.41117 0.0
O90 O 0.01783 0.88073 0.34454 0.0
Fe91 Fe 0.02309 0.93404 0.31479 0.0
O92 O 0.98789 0.91799 0.2584 0.0
O93 O 0.95973 0.84974 0.27414 0.0
O94 O 0.97693 0.79893 0.35143 0.0
C95 C 0.94985 0.8108 0.38727 0.0
C96 C 0.08486 0.88691 0.25642 0.0
O97 O 0.95771 0.84749 0.40979 0.0
C98 C 0.08523 0.9448 0.40079 0.0
O99 O 0.07167 0.81023 0.33745 0.0
O100 O 0.05048 0.82417 0.41556 0.0
O101 O 0.08119 0.91827 0.2876 0.0
O102 O 0.05407 0.85464 0.25654 0.0
C103 C 0.95716 0.95305 0.38697 0.0
O104 O 0.0764 0.90564 0.41736 0.0
O105 O 0.05847 0.961 0.36577 0.0
C106 C 0.07841 0.80579 0.38454 0.0
O107 O 0.98228 0.92966 0.41836 0.0
O108 O 0.96567 0.95262 0.34039 0.0
C109 C 0.95699 0.88673 0.25007 0.0
Fe110 Fe 0.00971 0.14727 0.90826 0.0
Fe111 Fe 0.01061 0.09548 0.80948 0.0
O112 O 0.0087 0.14723 0.84156 0.0
Fe113 Fe 0.00779 0.1983 0.80615 0.0
O114 O 0.06469 0.21775 0.83526 0.0
O115 O 0.04687 0.1992 0.91376 0.0
O116 O 0.06774 0.11662 0.91107 0.0
C117 C 0.07368 0.07788 0.89357 0.0
C118 C 0.94442 0.21558 0.88801 0.0
O119 O 0.04474 0.06421 0.85917 0.0
C120 C 0.94618 0.14817 0.7479 0.0
O121 O 0.97201 0.09514 0.91364 0.0
O122 O 0.95251 0.07754 0.83489 0.0
O123 O 0.97049 0.22872 0.8515 0.0
O124 O 0.9525 0.17857 0.9106 0.0
C125 C 0.07449 0.14384 0.75299 0.0
O126 O 0.97596 0.11582 0.75324 0.0
O127 O 0.95063 0.18276 0.7745 0.0
C128 C 0.94492 0.0744 0.88159 0.0
O129 O 0.06938 0.11114 0.78316 0.0
O130 O 0.04496 0.17663 0.75411 0.0
C131 C 0.07256 0.2209 0.88211 0.0
Fe132 Fe 0.51561 0.3308 0.31363 0.0
Fe133 Fe 0.51772 0.38303 0.41319 0.0
O134 O 0.51717 0.3827 0.34617 0.0
Fe135 Fe 0.51874 0.43423 0.31147 0.0
O136 O 0.46051 0.42164 0.27977 0.0
O137 O 0.47965 0.35259 0.25903 0.0
O138 O 0.45765 0.31459 0.34159 0.0
C139 C 0.4508 0.3112 0.38846 0.0
C140 C 0.58119 0.37742 0.25602 0.0
O141 O 0.47853 0.33196 0.41978 0.0
C142 C 0.58408 0.4546 0.38705 0.0
O143 O 0.5512 0.29939 0.36203 0.0
O144 O 0.57362 0.35075 0.41703 0.0
O145 O 0.55437 0.41194 0.25909 0.0
O146 O 0.57369 0.34317 0.28347 0.0
C147 C 0.45696 0.45413 0.3942 0.0
O148 O 0.55702 0.43385 0.41842 0.0
O149 O 0.57707 0.45039 0.34027 0.0
C150 C 0.57929 0.31295 0.39737 0.0
O151 O 0.462 0.41593 0.41478 0.0
O152 O 0.48377 0.46637 0.35778 0.0
C153 C 0.45279 0.38706 0.25358 0.0
Fe154 Fe 0.51213 0.64423 0.9163 0.0
Fe155 Fe 0.50501 0.59393 0.81536 0.0
O156 O 0.50871 0.64497 0.84904 0.0
Fe157 Fe 0.51007 0.69702 0.81492 0.0
O158 O 0.56995 0.71159 0.84237 0.0
O159 O 0.55215 0.69442 0.921 0.0
O160 O 0.56753 0.60873 0.91795 0.0
C161 C 0.57179 0.57138 0.89552 0.0
C162 C 0.45041 0.71604 0.89832 0.0
O163 O 0.54286 0.56182 0.85965 0.0
C164 C 0.44142 0.65221 0.75811 0.0
O165 O 0.47244 0.59483 0.92394 0.0
O166 O 0.44865 0.57624 0.84685 0.0
O167 O 0.47764 0.72885 0.86274 0.0
O168 O 0.45676 0.67841 0.92018 0.0
C169 C 0.56805 0.64062 0.75444 0.0
O170 O 0.46655 0.6167 0.76326 0.0
O171 O 0.4504 0.68612 0.78505 0.0
C172 C 0.44387 0.57367 0.89429 0.0
O173 O 0.56173 0.60699 0.78297 0.0
O174 O 0.54217 0.67532 0.75973 0.0
C175 C 0.5791 0.7145 0.88921 0.0
C176 C 0.19106 0.27334 0.93417 0.0
C177 C 0.17752 0.31922 0.93561 0.0
C178 C 0.09711 0.30132 0.89762 0.0
C179 C 0.10883 0.25473 0.90042 0.0
N180 N 0.16508 0.19556 0.92491 0.0
N181 N 0.1181 0.37751 0.92325 0.0
C182 C 0.15521 0.24047 0.92003 0.0
C183 C 0.13071 0.33336 0.91826 0.0
N184 N 0.23897 0.26174 0.94327 0.0
N185 N 0.05425 0.31503 0.87462 0.0
H186 H 0.14267 0.40168 0.93736 0.0
H187 H 0.08274 0.38974 0.91686 0.0
H188 H 0.02785 0.29276 0.86054 0.0
H189 H 0.046 0.34851 0.86641 0.0
H190 H 0.25256 0.22951 0.93811 0.0
H191 H 0.2664 0.28546 0.95146 0.0
H192 H 0.19566 0.18293 0.94448 0.0
H193 H 0.14116 0.17059 0.91174 0.0
C194 C 0.83618 0.73417 0.39453 0.0
C195 C 0.84309 0.71384 0.44261 0.0
C196 C 0.91783 0.75935 0.45655 0.0
C197 C 0.91244 0.77812 0.40686 0.0
N198 N 0.87104 0.77633 0.32516 0.0
N199 N 0.89727 0.69742 0.51329 0.0
C200 C 0.87299 0.76336 0.37482 0.0
C201 C 0.88556 0.72398 0.47234 0.0
N202 N 0.79325 0.72633 0.36821 0.0
N203 N 0.95436 0.77436 0.48843 0.0
H204 H 0.87665 0.66908 0.52342 0.0
H205 H 0.93029 0.70013 0.53366 0.0
H206 H 0.98161 0.79713 0.47763 0.0
H207 H 0.95602 0.7661 0.52678 0.0
H208 H 0.78279 0.74416 0.33567 0.0
H209 H 0.76608 0.70423 0.38122 0.0
H210 H 0.84661 0.76258 0.29869 0.0
H211 H 0.89636 0.7983 0.3092 0.0
C212 C 0.88635 0.31489 0.95348 0.0
C213 C 0.83694 0.31138 0.93591 0.0
C214 C 0.85793 0.24519 0.88608 0.0
C215 C 0.90646 0.24659 0.90692 0.0
N216 N 0.96535 0.2787 0.9658 0.0
N217 N 0.77386 0.2725 0.88894 0.0
C218 C 0.92017 0.28022 0.94232 0.0
C219 C 0.82234 0.27638 0.9029 0.0
N220 N 0.90153 0.35276 0.97821 0.0
N221 N 0.84627 0.21463 0.84947 0.0
H222 H 0.74753 0.29556 0.9 0.0
H223 H 0.75911 0.24534 0.86918 0.0
H224 H 0.87081 0.19025 0.83779 0.0
H225 H 0.81337 0.21472 0.82872 0.0
H226 H 0.93813 0.35971 0.98771 0.0
H227 H 0.87807 0.37958 0.98473 0.0
H228 H 0.97575 0.29941 0.99563 0.0
H229 H 0.99114 0.25408 0.95835 0.0
C230 C 0.20479 0.76486 0.42692 0.0
C231 C 0.19101 0.72886 0.45924 0.0
C232 C 0.10469 0.73771 0.43379 0.0
C233 C 0.1178 0.77652 0.40502 0.0
N234 N 0.17921 0.83 0.37703 0.0
N235 N 0.12896 0.68362 0.49904 0.0
C236 C 0.16768 0.79072 0.40184 0.0
C237 C 0.1412 0.71581 0.46404 0.0
N238 N 0.2536 0.7736 0.41988 0.0
N239 N 0.05753 0.72139 0.43121 0.0
H240 H 0.15528 0.66733 0.52176 0.0
H241 H 0.09291 0.67551 0.50836 0.0
H242 H 0.03018 0.73625 0.40857 0.0
H243 H 0.04641 0.69111 0.44782 0.0
H244 H 0.26677 0.79629 0.39297 0.0
H245 H 0.28123 0.75562 0.43898 0.0
H246 H 0.21403 0.84482 0.37809 0.0
H247 H 0.15317 0.8495 0.35753 0.0
C248 C 0.69278 0.76579 0.95572 0.0
C249 C 0.6897 0.81107 0.93855 0.0
C250 C 0.61466 0.79331 0.88956 0.0
C251 C 0.61685 0.74783 0.90735 0.0
N252 N 0.65282 0.69333 0.96581 0.0
N253 N 0.6553 0.86615 0.88156 0.0
C254 C 0.6543 0.73485 0.94303 0.0
C255 C 0.65286 0.82411 0.90313 0.0
N256 N 0.73476 0.75128 0.97986 0.0
N257 N 0.57403 0.8082 0.86322 0.0
H258 H 0.68204 0.88989 0.89198 0.0
H259 H 0.63359 0.87642 0.85077 0.0
H260 H 0.54381 0.78786 0.85461 0.0
H261 H 0.56762 0.84188 0.85421 0.0
H262 H 0.74178 0.71763 0.98855 0.0
H263 H 0.7654 0.77199 0.98576 0.0
H264 H 0.67513 0.68429 0.99665 0.0
H265 H 0.6268 0.6688 0.95686 0.0
C266 C 0.37776 0.2014 0.40458 0.0
C267 C 0.34128 0.21441 0.43844 0.0
C268 C 0.37445 0.29189 0.43797 0.0
C269 C 0.41358 0.2778 0.40706 0.0
N270 N 0.45694 0.21702 0.36798 0.0
N271 N 0.30121 0.27224 0.485 0.0
C272 C 0.41627 0.23201 0.392 0.0
C273 C 0.33882 0.2597 0.45487 0.0
N274 N 0.37508 0.15946 0.38404 0.0
N275 N 0.36984 0.33651 0.44878 0.0
H276 H 0.27018 0.25216 0.4909 0.0
H277 H 0.30045 0.30236 0.50452 0.0
H278 H 0.39519 0.3608 0.43752 0.0
H279 H 0.33986 0.35037 0.46648 0.0
H280 H 0.397 0.14919 0.35461 0.0
H281 H 0.34796 0.13598 0.39382 0.0
H282 H 0.46364 0.18319 0.3613 0.0
H283 H 0.48656 0.23771 0.35874 0.0
C284 C 0.39046 0.81922 0.95426 0.0
C285 C 0.34085 0.81299 0.93822 0.0
C286 C 0.36293 0.74299 0.89603 0.0
C287 C 0.41185 0.74739 0.91533 0.0
N288 N 0.47142 0.78655 0.96748 0.0
N289 N 0.27807 0.76808 0.89821 0.0
C290 C 0.42536 0.78462 0.94593 0.0
C291 C 0.32671 0.77464 0.91013 0.0
N292 N 0.40457 0.85932 0.9749 0.0
N293 N 0.35157 0.70945 0.86279 0.0
H294 H 0.25116 0.79138 0.90712 0.0
H295 H 0.26388 0.73862 0.8826 0.0
H296 H 0.37684 0.6852 0.85251 0.0
H297 H 0.31825 0.70711 0.84294 0.0
H298 H 0.44097 0.86807 0.98314 0.0
H299 H 0.38008 0.88572 0.97949 0.0
H300 H 0.48224 0.81032 0.99409 0.0
H301 H 0.49791 0.76205 0.96172 0.0
C302 C 0.63813 0.21519 0.46991 0.0
C303 C 0.68821 0.22799 0.46745 0.0
C304 C 0.6672 0.29314 0.41411 0.0
C305 C 0.61663 0.2824 0.41962 0.0
N306 N 0.55298 0.23695 0.45791 0.0
N307 N 0.75117 0.28071 0.44378 0.0
C308 C 0.60171 0.24417 0.4486 0.0
C309 C 0.70292 0.26756 0.4415 0.0
N310 N 0.62568 0.17541 0.49303 0.0
N311 N 0.681 0.32672 0.38134 0.0
H312 H 0.77809 0.2617 0.46269 0.0
H313 H 0.76395 0.31161 0.43011 0.0
H314 H 0.65571 0.34576 0.36018 0.0
H315 H 0.71735 0.33349 0.37201 0.0
H316 H 0.59053 0.16129 0.49141 0.0
H317 H 0.65152 0.15506 0.51169 0.0
H318 H 0.53995 0.21246 0.48287 0.0
H319 H 0.52529 0.25768 0.44349 0.0
C320 C 0.3968 0.46583 0.95544 0.0
C321 C 0.34699 0.47592 0.96344 0.0
C322 C 0.358 0.54736 0.91689 0.0
C323 C 0.40963 0.53992 0.91678 0.0
N324 N 0.47796 0.49708 0.95209 0.0
N325 N 0.27953 0.52757 0.95447 0.0
C326 C 0.42908 0.50056 0.94044 0.0
C327 C 0.32703 0.51688 0.94431 0.0
N328 N 0.41343 0.4229 0.96244 0.0
N329 N 0.33893 0.58421 0.89248 0.0
H330 H 0.25611 0.50573 0.9739 0.0
H331 H 0.26422 0.5589 0.94629 0.0
H332 H 0.36109 0.60882 0.87589 0.0
H333 H 0.30139 0.58919 0.88658 0.0
H334 H 0.449 0.41334 0.95348 0.0
H335 H 0.38989 0.39612 0.97122 0.0
H336 H 0.49235 0.47072 0.97407 0.0
H337 H 0.50328 0.52259 0.94506 0.0
C338 C 0.64333 0.56901 0.4162 0.0
C339 C 0.67315 0.55661 0.45851 0.0
C340 C 0.65564 0.47674 0.44266 0.0
C341 C 0.61942 0.48941 0.40602 0.0
N342 N 0.57739 0.54837 0.35822 0.0
N343 N 0.70971 0.49925 0.51199 0.0
C344 C 0.61368 0.53567 0.39189 0.0
C345 C 0.68026 0.51054 0.47139 0.0
N346 N 0.64276 0.61285 0.3997 0.0
N347 N 0.66736 0.43232 0.44883 0.0
H348 H 0.73112 0.52284 0.53155 0.0
H349 H 0.71144 0.46697 0.52768 0.0
H350 H 0.65075 0.40707 0.42734 0.0
H351 H 0.69649 0.42081 0.47145 0.0
H352 H 0.62678 0.62323 0.36549 0.0
H353 H 0.66175 0.63865 0.41814 0.0
H354 H 0.56695 0.58163 0.35195 0.0
H355 H 0.55445 0.52591 0.33913 0.0
C356 C 0.63404 0.45727 0.93039 0.0
C357 C 0.67151 0.4728 0.96371 0.0
C358 C 0.65351 0.55045 0.93698 0.0
C359 C 0.60864 0.53618 0.91342 0.0
N360 N 0.55778 0.47139 0.88629 0.0
N361 N 0.71696 0.53466 1.00016 0.0
C362 C 0.59968 0.48837 0.90874 0.0
C363 C 0.68128 0.51956 0.96741 0.0
N364 N 0.63112 0.41245 0.91921 0.0
N365 N 0.67171 0.59254 0.92704 0.0
H366 H 0.73957 0.51294 0.02124 0.0
H367 H 0.72187 0.56863 0.00847 0.0
H368 H 0.65549 0.61393 0.90006 0.0
H369 H 0.7061 0.60361 0.94005 0.0
H370 H 0.6096 0.39978 0.88958 0.0
H371 H 0.65361 0.38815 0.93621 0.0
H372 H 0.54641 0.43804 0.89107 0.0
H373 H 0.53142 0.48922 0.86591 0.0
C374 C 0.4147 0.56202 0.45566 0.0
C375 C 0.36616 0.55015 0.46912 0.0
C376 C 0.37424 0.47831 0.42558 0.0
C377 C 0.42504 0.48762 0.41873 0.0
N378 N 0.49554 0.53432 0.44019 0.0
N379 N 0.30082 0.49484 0.47233 0.0
C380 C 0.44581 0.52852 0.43698 0.0
C381 C 0.34605 0.50768 0.45547 0.0
N382 N 0.4311 0.60548 0.46005 0.0
N383 N 0.3526 0.4423 0.40227 0.0
H384 H 0.27921 0.51557 0.49416 0.0
H385 H 0.28652 0.46243 0.4681 0.0
H386 H 0.37209 0.4206 0.37965 0.0
H387 H 0.31479 0.4363 0.40175 0.0
H388 H 0.4647 0.61657 0.44597 0.0
H389 H 0.40914 0.63143 0.47282 0.0
H390 H 0.5125 0.56171 0.45779 0.0
H391 H 0.51975 0.50912 0.43113 0.0
C392 C 0.88483 0.96197 0.9159 0.0
C393 C 0.84762 0.97706 0.94809 0.0
C394 C 0.86613 0.05546 0.92458 0.0
C395 C 0.90856 0.04071 0.8996 0.0
N396 N 0.95927 0.97993 0.87108 0.0
N397 N 0.80083 0.03723 0.98284 0.0
C398 C 0.91768 0.99392 0.89421 0.0
C399 C 0.83722 0.02361 0.95176 0.0
N400 N 0.88907 0.917 0.90666 0.0
N401 N 0.85311 0.09978 0.92135 0.0
H402 H 0.77718 0.01453 1.00081 0.0
H403 H 0.79524 0.07063 0.99244 0.0
H404 H 0.87328 0.12359 0.90094 0.0
H405 H 0.82032 0.11226 0.93488 0.0
H406 H 0.91187 0.90405 0.87939 0.0
H407 H 0.86656 0.89259 0.92317 0.0
H408 H 0.97162 0.94686 0.87226 0.0
H409 H 0.98342 1.00171 0.85281 0.0
C410 C 0.16484 0.04888 0.41912 0.0
C411 C 0.18109 0.04455 0.47007 0.0
C412 C 0.13759 0.97213 0.47671 0.0
C413 C 0.12384 0.97487 0.42446 0.0
N414 N 0.14521 1.00788 0.34342 0.0
N415 N 0.19949 0.99323 0.53906 0.0
C416 C 0.14417 1.01068 0.39476 0.0
C417 C 0.17324 1.00301 0.49591 0.0
N418 N 0.16642 0.08948 0.3944 0.0
N419 N 0.11474 0.94321 0.50943 0.0
H420 H 0.22751 0.01439 0.55252 0.0
H421 H 0.19743 0.96199 0.55739 0.0
H422 H 0.08502 0.92266 0.49984 0.0
H423 H 0.1216 0.9438 0.54831 0.0
H424 H 0.15059 0.0944 0.35857 0.0
H425 H 0.1789 0.11902 0.41132 0.0
H426 H 0.16244 0.03209 0.32083 0.0
H427 H 0.13529 0.97859 0.32447 0.0
C428 C 0.16723 0.0206 0.9843 0.0
C429 C 0.17345 0.97856 0.96057 0.0
C430 C 0.12904 1.00948 0.88678 0.0
C431 C 0.11154 0.04603 0.91596 0.0
N432 N 0.10799 0.07775 1.00038 0.0
N433 N 0.15294 0.93124 0.88951 0.0
C434 C 0.12931 0.04975 0.96684 0.0
C435 C 0.15255 0.97243 0.91168 0.0
N436 N 0.19699 0.03237 0.02414 0.0
N437 N 0.12537 1.01062 0.8353 0.0
H438 H 0.16827 0.90283 0.90688 0.0
H439 H 0.13386 0.92466 0.85582 0.0
H440 H 0.1138 0.03901 0.81505 0.0
H441 H 0.14054 0.98594 0.81288 0.0
H442 H 0.19577 0.06403 0.04063 0.0
H443 H 0.22654 1.01247 0.03614 0.0
H444 H 0.11856 0.07836 0.03845 0.0
H445 H 0.07558 0.09515 0.99307 0.0
C446 C 0.85161 1.00134 0.45946 0.0
C447 C 0.86274 0.04799 0.45619 0.0
C448 C 0.93371 0.03296 0.40376 0.0
C449 C 0.92221 0.98621 0.40635 0.0
N450 N 0.86448 0.92684 0.42588 0.0
N451 N 0.90751 0.1095 0.41774 0.0
C452 C 0.87935 0.97066 0.43102 0.0
C453 C 0.90152 0.06418 0.42572 0.0
N454 N 0.8154 0.98638 0.49078 0.0
N455 N 0.97671 0.04745 0.38282 0.0
H456 H 0.88581 0.13358 0.43467 0.0
H457 H 0.93132 0.12326 0.39124 0.0
H458 H 1.00071 0.02625 0.36471 0.0
H459 H 0.99039 0.08015 0.38611 0.0
H460 H 0.80932 0.95253 0.4995 0.0
H461 H 0.7931 1.00812 0.5106 0.0
H462 H 0.83122 0.91422 0.43908 0.0
H463 H 0.88331 0.90401 0.40396 0.0
C464 C 0.33521 0.40721 0.17512 0.0
C465 C 0.3514 0.39541 0.12654 0.0
C466 C 0.43382 0.38135 0.16068 0.0
C467 C 0.41729 0.38953 0.21019 0.0
N468 N 0.34943 0.40105 0.26573 0.0
N469 N 0.41125 0.35785 0.07645 0.0
C470 C 0.36703 0.39982 0.21785 0.0
C471 C 0.39911 0.37792 0.12054 0.0
N472 N 0.29018 0.42641 0.18023 0.0
N473 N 0.48289 0.38021 0.15099 0.0
H474 H 0.3859 0.35325 0.04686 0.0
H475 H 0.44444 0.34126 0.07176 0.0
H476 H 0.50969 0.38683 0.17843 0.0
H477 H 0.49668 0.37847 0.11463 0.0
H478 H 0.27852 0.4402 0.21386 0.0
H479 H 0.26569 0.43107 0.14981 0.0
H480 H 0.3123 0.40449 0.27364 0.0
H481 H 0.37152 0.39424 0.29749 0.0
C482 C 0.64658 0.67559 0.64214 0.0
C483 C 0.66191 0.63331 0.6239 0.0
C484 C 0.61176 0.59577 0.68766 0.0
C485 C 0.60214 0.63779 0.71075 0.0
N486 N 0.62666 0.71638 0.71701 0.0
N487 N 0.67218 0.554 0.64265 0.0
C488 C 0.62453 0.67742 0.69027 0.0
C489 C 0.64905 0.59369 0.65125 0.0
N490 N 0.65042 0.71373 0.61307 0.0
N491 N 0.58328 0.5585 0.69662 0.0
H492 H 0.70156 0.55167 0.61809 0.0
H493 H 0.66583 0.52505 0.6644 0.0
H494 H 0.55071 0.55916 0.71658 0.0
H495 H 0.58803 0.52842 0.67752 0.0
H496 H 0.63571 0.74438 0.62381 0.0
H497 H 0.66297 0.71371 0.57616 0.0
H498 H 0.64567 0.74489 0.70434 0.0
H499 H 0.6156 0.71833 0.75432 0.0
C500 C 0.64013 0.35108 0.13019 0.0
C501 C 0.67373 0.38788 0.1269 0.0
C502 C 0.65635 0.40801 0.21427 0.0
C503 C 0.61754 0.37583 0.21482 0.0
N504 N 0.57205 0.3158 0.17387 0.0
N505 N 0.71405 0.45202 0.16471 0.0
C506 C 0.60995 0.34641 0.17336 0.0
C507 C 0.68215 0.41637 0.16881 0.0
N508 N 0.63669 0.32087 0.09169 0.0
N509 N 0.66956 0.42937 0.25794 0.0
H510 H 0.73558 0.45771 0.13303 0.0
H511 H 0.71735 0.47731 0.19142 0.0
H512 H 0.6528 0.4221 0.29222 0.0
H513 H 0.70015 0.45048 0.26159 0.0
H514 H 0.61773 0.29037 0.09415 0.0
H515 H 0.65553 0.32468 0.05799 0.0
H516 H 0.56022 0.29772 0.14247 0.0
H517 H 0.54977 0.31025 0.20487 0.0
C518 C 0.3932 0.67375 0.62463 0.0
C519 C 0.35289 0.64311 0.62284 0.0
C520 C 0.36473 0.62537 0.71295 0.0
C521 C 0.40599 0.65509 0.71461 0.0
N522 N 0.45295 0.71511 0.67535 0.0
N523 N 0.29324 0.59735 0.66602 0.0
C524 C 0.41783 0.68201 0.6716 0.0
C525 C 0.33629 0.62149 0.66743 0.0
N526 N 0.40949 0.69317 0.58082 0.0
N527 N 0.35375 0.59992 0.75465 0.0
H528 H 0.27205 0.59366 0.63302 0.0
H529 H 0.27641 0.58396 0.69789 0.0
H530 H 0.3719 0.60415 0.78926 0.0
H531 H 0.32822 0.57361 0.75472 0.0
H532 H 0.44258 0.71082 0.57801 0.0
H533 H 0.39115 0.68954 0.54612 0.0
H534 H 0.45946 0.73894 0.64703 0.0
H535 H 0.47318 0.7215 0.70825 0.0
C536 C 0.83748 0.89482 0.16972 0.0
C537 C 0.85651 0.91766 0.12637 0.0
C538 C 0.93797 0.91732 0.16407 0.0
C539 C 0.92146 0.89326 0.20711 0.0
N540 N 0.85164 0.87348 0.25816 0.0
N541 N 0.91035 0.98247 0.11982 0.0
C542 C 0.86988 0.88549 0.21217 0.0
C543 C 0.90304 0.93848 0.13288 0.0
N544 N 0.7882 0.8867 0.17259 0.0
N545 N 0.98663 0.92202 0.15352 0.0
H546 H 0.88113 1.00283 0.10771 0.0
H547 H 0.94352 0.9992 0.12775 0.0
H548 H 0.01401 0.90409 0.17294 0.0
H549 H 0.99822 0.94013 0.12174 0.0
H550 H 0.77251 0.86538 0.19944 0.0
H551 H 0.76304 0.90248 0.14805 0.0
H552 H 0.81435 0.8699 0.26542 0.0
H553 H 0.87377 0.87131 0.29066 0.0
C554 C 0.16197 0.09581 0.65698 0.0
C555 C 0.17203 0.1341 0.62641 0.0
C556 C 0.13019 0.1801 0.68801 0.0
C557 C 0.11011 0.14052 0.71094 0.0
N558 N 0.09745 0.05944 0.70271 0.0
N559 N 0.1567 0.21313 0.60917 0.0
C560 C 0.12355 0.09778 0.69187 0.0
C561 C 0.15388 0.17661 0.64087 0.0
N562 N 0.18846 0.05735 0.65225 0.0
N563 N 0.12835 0.22066 0.71148 0.0
H564 H 0.17125 0.21174 0.57314 0.0
H565 H 0.1398 0.24359 0.6169 0.0
H566 H 0.11551 0.22418 0.748 0.0
H567 H 0.14564 0.2495 0.69724 0.0
H568 H 0.18387 0.02948 0.67618 0.0
H569 H 0.21871 0.05573 0.62874 0.0
H570 H 0.10538 0.02858 0.68651 0.0
H571 H 0.06381 0.05925 0.72076 0.0
C572 C 0.1674 0.93518 0.15313 0.0
C573 C 0.17608 0.89601 0.1248 0.0
C574 C 0.13965 0.85122 0.19284 0.0
C575 C 0.12023 0.8909 0.2141 0.0
N576 N 0.10728 0.97165 0.20307 0.0
N577 N 0.16187 0.81593 0.11509 0.0
C578 C 0.13209 0.93341 0.19164 0.0
C579 C 0.16019 0.85358 0.14399 0.0
N580 N 0.19253 0.97415 0.1431 0.0
N581 N 0.13964 0.81153 0.21945 0.0
H582 H 0.17391 0.81631 0.07799 0.0
H583 H 0.14637 0.78526 0.1264 0.0
H584 H 0.12844 0.80917 0.25682 0.0
H585 H 0.15664 0.78264 0.20658 0.0
H586 H 0.18951 1.00275 0.16521 0.0
H587 H 0.22057 0.97575 0.11681 0.0
H588 H 0.11318 1.00216 0.18409 0.0
H589 H 0.0764 0.97213 0.2256 0.0
C590 C 0.89254 0.16997 0.61619 0.0
C591 C 0.85661 0.13511 0.61422 0.0
C592 C 0.87096 0.11812 0.7041 0.0
C593 C 0.91159 0.14832 0.70409 0.0
N594 N 0.9624 0.20292 0.66061 0.0
N595 N 0.81138 0.07506 0.65474 0.0
C596 C 0.92229 0.17482 0.66052 0.0
C597 C 0.84542 0.10913 0.65791 0.0
N598 N 0.89824 0.19837 0.57556 0.0
N599 N 0.85621 0.09904 0.74864 0.0
H600 H 0.79039 0.06896 0.62209 0.0
H601 H 0.80566 0.05139 0.68342 0.0
H602 H 0.87349 0.10619 0.78316 0.0
H603 H 0.82434 0.0797 0.75229 0.0
H604 H 0.91961 0.2276 0.57652 0.0
H605 H 0.8787 0.1947 0.54157 0.0
H606 H 0.97647 0.21804 0.62822 0.0
H607 H 0.9834 0.20973 0.69289 0.0
loop_
_geom_bond_atom_site_label_1
_geom_bond_atom_site_label_2
_geom_bond_distance
_geom_bond_site_symmetry_2
_ccdc_geom_bond_type
H0 C5 0.929 . S
H1 C10 0.931 . S
H2 C8 0.930 . S
N3 N4 1.234 . S
N3 C7 1.453 1_556 S
N4 N3 1.234 . S
C5 H0 0.929 . S
C5 C6 1.373 . S
C5 C7 1.368 . S
C6 C5 1.373 . S
C6 C10 1.397 . S
C7 N3 1.453 1_554 S
C7 C5 1.368 . S
C7 C8 1.373 1_554 S
C8 H2 0.930 . S
C8 C7 1.373 1_556 S
C8 C9 1.371 . S
C9 C8 1.371 . S
C9 C10 1.383 1_556 S
C10 H1 0.931 . S
C10 C6 1.397 . S
C10 C9 1.383 1_554 S
H11 C16 0.929 . S
H12 C21 0.931 . S
H13 C19 0.930 . S
N14 N15 1.234 . S
N14 C18 1.453 . S
N15 N14 1.234 . S
C16 H11 0.929 . S
C16 C17 1.373 . S
C16 C18 1.368 . S
C17 C16 1.373 . S
C17 C21 1.397 . S
C18 N14 1.453 . S
C18 C16 1.368 . S
C18 C19 1.373 . S
C19 H13 0.930 . S
C19 C18 1.373 . S
C19 C20 1.371 . S
C20 C19 1.371 . S
C20 C21 1.383 . S
C21 H12 0.931 . S
C21 C17 1.397 . S
C21 C20 1.383 . S
H22 C27 0.929 . S
H23 C32 0.931 . S
H24 C30 0.930 . S
N25 N26 1.234 1_554 S
N25 C29 1.453 . S
N26 N25 1.234 1_556 S
C27 H22 0.929 . S
C27 C28 1.373 . S
C27 C29 1.368 . S
C28 C27 1.373 . S
C28 C32 1.397 . S
C29 N25 1.453 . S
C29 C27 1.368 . S
C29 C30 1.373 1_554 S
C30 H24 0.930 . S
C30 C29 1.373 1_556 S
C30 C31 1.371 . S
C31 C30 1.371 . S
C31 C32 1.383 1_556 S
C32 H23 0.931 . S
C32 C28 1.397 . S
C32 C31 1.383 1_554 S
H33 C38 0.929 . S
H34 C43 0.931 . S
H35 C41 0.930 . S
N36 N37 1.234 . S
N36 C40 1.453 . S
N37 N36 1.234 . S
C38 H33 0.929 . S
C38 C39 1.373 . S
C38 C40 1.368 . S
C39 C38 1.373 . S
C39 C43 1.397 . S
C40 N36 1.453 . S
C40 C38 1.368 . S
C40 C41 1.373 . S
C41 H35 0.930 . S
C41 C40 1.373 . S
C41 C42 1.371 . S
C42 C41 1.371 . S
C42 C43 1.383 . S
C43 H34 0.931 . S
C43 C39 1.397 . S
C43 C42 1.383 . S
H44 C49 0.929 . S
H45 C54 0.931 . S
H46 C52 0.930 . S
N47 N48 1.234 . S
N47 C51 1.453 1_556 S
N48 N47 1.234 . S
C49 H44 0.929 . S
C49 C50 1.373 . S
C49 C51 1.368 . S
C50 C49 1.373 . S
C50 C54 1.397 . S
C51 N47 1.453 1_554 S
C51 C49 1.368 . S
C51 C52 1.373 1_554 S
C52 H46 0.930 . S
C52 C51 1.373 1_556 S
C52 C53 1.371 . S
C53 C52 1.371 . S
C53 C54 1.383 1_556 S
C54 H45 0.931 . S
C54 C50 1.397 . S
C54 C53 1.383 1_554 S
H55 C60 0.929 . S
H56 C65 0.931 . S
H57 C63 0.930 . S
N58 N59 1.234 . S
N58 C62 1.453 . S
N59 N58 1.234 . S
C60 H55 0.929 . S
C60 C61 1.373 . S
C60 C62 1.368 . S
C61 C60 1.373 . S
C61 C65 1.397 . S
C62 N58 1.453 . S
C62 C60 1.368 . S
C62 C63 1.373 . S
C63 H57 0.930 . S
C63 C62 1.373 . S
C63 C64 1.371 . S
C64 C63 1.371 . S
C64 C65 1.383 . S
C65 H56 0.931 . S
C65 C61 1.397 . S
C65 C64 1.383 . S
H66 C71 0.929 . S
H67 C76 0.931 . S
H68 C74 0.930 . S
N69 N70 1.234 1_554 S
N69 C73 1.453 . S
N70 N69 1.234 1_556 S
C71 H66 0.929 . S
C71 C72 1.373 . S
C71 C73 1.368 . S
C72 C71 1.373 . S
C72 C76 1.397 . S
C73 N69 1.453 . S
C73 C71 1.368 . S
C73 C74 1.373 1_554 S
C74 H68 0.930 . S
C74 C73 1.373 1_556 S
C74 C75 1.371 . S
C75 C74 1.371 . S
C75 C76 1.383 1_556 S
C76 H67 0.931 . S
C76 C72 1.397 . S
C76 C75 1.383 1_554 S
H77 C82 0.929 . S
H78 C87 0.931 . S
H79 C85 0.930 . S
N80 N81 1.234 . S
N80 C84 1.453 . S
N81 N80 1.234 . S
C82 H77 0.929 . S
C82 C83 1.373 . S
C82 C84 1.368 . S
C83 C82 1.373 . S
C83 C87 1.397 . S
C84 N80 1.453 . S
C84 C82 1.368 . S
C84 C85 1.373 . S
C85 H79 0.930 . S
C85 C84 1.373 . S
C85 C86 1.371 . S
C86 C85 1.371 . S
C86 C87 1.383 . S
C87 H78 0.931 . S
C87 C83 1.397 . S
C87 C86 1.383 . S
Fe88 O90 1.918 . S
Fe88 O93 1.997 1_455 S
Fe88 O94 2.002 1_455 S
Fe88 O99 1.976 . S
Fe88 O102 1.996 . S
Fe89 O90 1.918 . S
Fe89 O97 1.997 1_455 S
Fe89 O100 1.996 . S
Fe89 O104 1.976 . S
Fe89 O107 2.002 1_455 S
O90 Fe88 1.918 . S
O90 Fe89 1.918 . S
O90 Fe91 1.918 . S
Fe91 O90 1.918 . S
Fe91 O92 2.002 1_455 S
Fe91 O101 1.976 . S
Fe91 O105 1.996 . S
Fe91 O108 1.997 1_455 S
O92 Fe91 2.002 1_655 S
O92 C109 1.295 . S
O93 Fe88 1.997 1_655 S
O93 C109 1.235 . S
O94 Fe88 2.002 1_655 S
O94 C95 1.295 . S
C95 O94 1.295 . S
C95 O97 1.235 . S
C96 O101 1.287 . S
C96 O102 1.255 . S
O97 Fe89 1.997 1_655 S
O97 C95 1.235 . S
C98 O104 1.287 . S
C98 O105 1.255 . S
O99 Fe88 1.976 . S
O99 C106 1.287 . S
O100 Fe89 1.996 . S
O100 C106 1.255 . S
O101 Fe91 1.976 . S
O101 C96 1.287 . S
O102 Fe88 1.996 . S
O102 C96 1.255 . S
C103 O107 1.295 . S
C103 O108 1.235 . S
O104 Fe89 1.976 . S
O104 C98 1.287 . S
O105 Fe91 1.996 . S
O105 C98 1.255 . S
C106 O99 1.287 . S
C106 O100 1.255 . S
O107 Fe89 2.002 1_655 S
O107 C103 1.295 . S
O108 Fe91 1.997 1_655 S
O108 C103 1.235 . S
C109 O92 1.295 . S
C109 O93 1.235 . S
Fe110 O112 1.918 . S
Fe110 O115 1.990 1_655 S
Fe110 O116 1.996 1_655 S
Fe110 O121 1.982 . S
Fe110 O124 2.002 . S
Fe111 O112 1.918 . S
Fe111 O119 1.997 1_655 S
Fe111 O122 1.996 . S
Fe111 O126 1.976 . S
Fe111 O129 2.002 1_655 S
O112 Fe110 1.918 . S
O112 Fe111 1.918 . S
O112 Fe113 1.919 . S
Fe113 O112 1.919 . S
Fe113 O114 1.989 1_655 S
Fe113 O123 1.989 . S
Fe113 O127 2.008 . S
Fe113 O130 1.983 1_655 S
O114 Fe113 1.989 1_455 S
O114 C131 1.295 . S
O115 Fe110 1.990 1_455 S
O115 C131 1.235 . S
O116 Fe110 1.996 1_455 S
O116 C117 1.295 . S
C117 O116 1.295 . S
C117 O119 1.235 . S
C118 O123 1.287 . S
C118 O124 1.255 . S
O119 Fe111 1.997 1_455 S
O119 C117 1.235 . S
C120 O126 1.287 . S
C120 O127 1.255 . S
O121 Fe110 1.982 . S
O121 C128 1.287 . S
O122 Fe111 1.996 . S
O122 C128 1.255 . S
O123 Fe113 1.989 . S
O123 C118 1.287 . S
O124 Fe110 2.002 . S
O124 C118 1.255 . S
C125 O129 1.295 . S
C125 O130 1.235 . S
O126 Fe111 1.976 . S
O126 C120 1.287 . S
O127 Fe113 2.008 . S
O127 C120 1.255 . S
C128 O121 1.287 . S
C128 O122 1.255 . S
O129 Fe111 2.002 1_455 S
O129 C125 1.295 . S
O130 Fe113 1.983 1_455 S
O130 C125 1.235 . S
C131 O114 1.295 . S
C131 O115 1.235 . S
Fe132 O134 1.918 . S
Fe132 O137 1.997 . S
Fe132 O138 2.002 . S
Fe132 O143 1.976 . S
Fe132 O146 1.996 . S
Fe133 O134 1.918 . S
Fe133 O141 1.997 . S
Fe133 O144 1.996 . S
Fe133 O148 1.976 . S
Fe133 O151 2.002 . S
O134 Fe132 1.918 . S
O134 Fe133 1.918 . S
O134 Fe135 1.918 . S
Fe135 O134 1.918 . S
Fe135 O136 2.002 . S
Fe135 O145 1.976 . S
Fe135 O149 1.996 . S
Fe135 O152 1.997 . S
O136 Fe135 2.002 . S
O136 C153 1.295 . S
O137 Fe132 1.997 . S
O137 C153 1.235 . S
O138 Fe132 2.002 . S
O138 C139 1.295 . S
C139 O138 1.295 . S
C139 O141 1.235 . S
C140 O145 1.287 . S
C140 O146 1.255 . S
O141 Fe133 1.997 . S
O141 C139 1.235 . S
C142 O148 1.287 . S
C142 O149 1.255 . S
O143 Fe132 1.976 . S
O143 C150 1.287 . S
O144 Fe133 1.996 . S
O144 C150 1.255 . S
O145 Fe135 1.976 . S
O145 C140 1.287 . S
O146 Fe132 1.996 . S
O146 C140 1.255 . S
C147 O151 1.295 . S
C147 O152 1.235 . S
O148 Fe133 1.976 . S
O148 C142 1.287 . S
O149 Fe135 1.996 . S
O149 C142 1.255 . S
C150 O143 1.287 . S
C150 O144 1.255 . S
O151 Fe133 2.002 . S
O151 C147 1.295 . S
O152 Fe135 1.997 . S
O152 C147 1.235 . S
C153 O136 1.295 . S
C153 O137 1.235 . S
Fe154 O156 1.918 . S
Fe154 O159 1.997 . S
Fe154 O160 2.002 . S
Fe154 O165 1.976 . S
Fe154 O168 1.996 . S
Fe155 O156 1.918 . S
Fe155 O163 1.997 . S
Fe155 O166 1.996 . S
Fe155 O170 1.976 . S
Fe155 O173 2.002 . S
O156 Fe154 1.918 . S
O156 Fe155 1.918 . S
O156 Fe157 1.918 . S
Fe157 O156 1.918 . S
Fe157 O158 2.002 . S
Fe157 O167 1.976 . S
Fe157 O171 1.996 . S
Fe157 O174 1.997 . S
O158 Fe157 2.002 . S
O158 C175 1.295 . S
O159 Fe154 1.997 . S
O159 C175 1.235 . S
O160 Fe154 2.002 . S
O160 C161 1.295 . S
C161 O160 1.295 . S
C161 O163 1.235 . S
C162 O167 1.287 . S
C162 O168 1.255 . S
O163 Fe155 1.997 . S
O163 C161 1.235 . S
C164 O170 1.287 . S
C164 O171 1.255 . S
O165 Fe154 1.976 . S
O165 C172 1.287 . S
O166 Fe155 1.996 . S
O166 C172 1.255 . S
O167 Fe157 1.976 . S
O167 C162 1.287 . S
O168 Fe154 1.996 . S
O168 C162 1.255 . S
C169 O173 1.295 . S
C169 O174 1.235 . S
O170 Fe155 1.976 . S
O170 C164 1.287 . S
O171 Fe157 1.996 . S
O171 C164 1.255 . S
C172 O165 1.287 . S
C172 O166 1.255 . S
O173 Fe155 2.002 . S
O173 C169 1.295 . S
O174 Fe157 1.997 . S
O174 C169 1.235 . S
C175 O158 1.295 . S
C175 O159 1.235 . S
C176 C177 1.363 . S
C176 C182 1.379 . S
C176 N184 1.356 . S
C177 C176 1.363 . S
C177 C183 1.363 . S
C178 C179 1.363 . S
C178 C183 1.379 . S
C178 N185 1.356 . S
C179 C178 1.363 . S
C179 C182 1.363 . S
N180 C182 1.356 . S
N180 H192 0.984 . S
N180 H193 0.985 . S
N181 C183 1.356 . S
N181 H186 0.984 . S
N181 H187 0.985 . S
C182 C176 1.379 . S
C182 C179 1.363 . S
C182 N180 1.356 . S
C183 C177 1.363 . S
C183 C178 1.379 . S
C183 N181 1.356 . S
N184 C176 1.356 . S
N184 H190 0.984 . S
N184 H191 0.984 . S
N185 C178 1.356 . S
N185 H188 0.984 . S
N185 H189 0.985 . S
H186 N181 0.984 . S
H187 N181 0.985 . S
H188 N185 0.984 . S
H189 N185 0.985 . S
H190 N184 0.984 . S
H191 N184 0.984 . S
H192 N180 0.984 . S
H193 N180 0.985 . S
C194 C195 1.363 . S
C194 C200 1.379 . S
C194 N202 1.356 . S
C195 C194 1.363 . S
C195 C201 1.363 . S
C196 C197 1.363 . S
C196 C201 1.379 . S
C196 N203 1.356 . S
C197 C196 1.363 . S
C197 C200 1.363 . S
N198 C200 1.356 . S
N198 H210 0.984 . S
N198 H211 0.985 . S
N199 C201 1.356 . S
N199 H204 0.984 . S
N199 H205 0.985 . S
C200 C194 1.379 . S
C200 C197 1.363 . S
C200 N198 1.356 . S
C201 C195 1.363 . S
C201 C196 1.379 . S
C201 N199 1.356 . S
N202 C194 1.356 . S
N202 H208 0.984 . S
N202 H209 0.984 . S
N203 C196 1.356 . S
N203 H206 0.984 . S
N203 H207 0.985 . S
H204 N199 0.984 . S
H205 N199 0.985 . S
H206 N203 0.984 . S
H207 N203 0.985 . S
H208 N202 0.984 . S
H209 N202 0.984 . S
H210 N198 0.984 . S
H211 N198 0.985 . S
C212 C213 1.363 . S
C212 C218 1.379 . S
C212 N220 1.356 1_556 S
C213 C212 1.363 . S
C213 C219 1.363 . S
C214 C215 1.363 . S
C214 C219 1.379 . S
C214 N221 1.356 . S
C215 C214 1.363 . S
C215 C218 1.363 . S
N216 C218 1.356 . S
N216 H228 0.984 . S
N216 H229 0.985 . S
N217 C219 1.356 . S
N217 H222 0.984 . S
N217 H223 0.985 . S
C218 C212 1.379 . S
C218 C215 1.363 . S
C218 N216 1.356 . S
C219 C213 1.363 . S
C219 C214 1.379 . S
C219 N217 1.356 . S
N220 C212 1.356 1_554 S
N220 H226 0.984 . S
N220 H227 0.984 . S
N221 C214 1.356 . S
N221 H224 0.984 . S
N221 H225 0.985 . S
H222 N217 0.984 . S
H223 N217 0.985 . S
H224 N221 0.984 . S
H225 N221 0.985 . S
H226 N220 0.984 . S
H227 N220 0.984 . S
H228 N216 0.984 . S
H229 N216 0.985 . S
C230 C231 1.363 . S
C230 C236 1.379 . S
C230 N238 1.356 . S
C231 C230 1.363 . S
C231 C237 1.363 . S
C232 C233 1.363 . S
C232 C237 1.379 . S
C232 N239 1.356 . S
C233 C232 1.363 . S
C233 C236 1.363 . S
N234 C236 1.356 . S
N234 H246 0.984 . S
N234 H247 0.985 . S
N235 C237 1.356 . S
N235 H240 0.984 . S
N235 H241 0.985 . S
C236 C230 1.379 . S
C236 C233 1.363 . S
C236 N234 1.356 . S
C237 C231 1.363 . S
C237 C232 1.379 . S
C237 N235 1.356 . S
N238 C230 1.356 . S
N238 H244 0.984 . S
N238 H245 0.984 . S
N239 C232 1.356 . S
N239 H242 0.984 . S
N239 H243 0.985 . S
H240 N235 0.984 . S
H241 N235 0.985 . S
H242 N239 0.984 . S
H243 N239 0.985 . S
H244 N238 0.984 . S
H245 N238 0.984 . S
H246 N234 0.984 . S
H247 N234 0.985 . S
C248 C249 1.363 . S
C248 C254 1.379 . S
C248 N256 1.356 . S
C249 C248 1.363 . S
C249 C255 1.363 . S
C250 C251 1.363 . S
C250 C255 1.379 . S
C250 N257 1.356 . S
C251 C250 1.363 . S
C251 C254 1.363 . S
N252 C254 1.356 . S
N252 H264 0.984 . S
N252 H265 0.985 . S
N253 C255 1.356 . S
N253 H258 0.984 . S
N253 H259 0.985 . S
C254 C248 1.379 . S
C254 C251 1.363 . S
C254 N252 1.356 . S
C255 C249 1.363 . S
C255 C250 1.379 . S
C255 N253 1.356 . S
N256 C248 1.356 . S
N256 H262 0.984 1_556 S
N256 H263 0.984 1_556 S
N257 C250 1.356 . S
N257 H260 0.984 . S
N257 H261 0.985 . S
H258 N253 0.984 . S
H259 N253 0.985 . S
H260 N257 0.984 . S
H261 N257 0.985 . S
H262 N256 0.984 1_554 S
H263 N256 0.984 1_554 S
H264 N252 0.984 . S
H265 N252 0.985 . S
C266 C267 1.363 . S
C266 C272 1.379 . S
C266 N274 1.356 . S
C267 C266 1.363 . S
C267 C273 1.363 . S
C268 C269 1.363 . S
C268 C273 1.379 . S
C268 N275 1.356 . S
C269 C268 1.363 . S
C269 C272 1.363 . S
N270 C272 1.356 . S
N270 H282 0.984 . S
N270 H283 0.985 . S
N271 C273 1.356 . S
N271 H276 0.984 . S
N271 H277 0.985 . S
C272 C266 1.379 . S
C272 C269 1.363 . S
C272 N270 1.356 . S
C273 C267 1.363 . S
C273 C268 1.379 . S
C273 N271 1.356 . S
N274 C266 1.356 . S
N274 H280 0.984 . S
N274 H281 0.984 . S
N275 C268 1.356 . S
N275 H278 0.984 . S
N275 H279 0.985 . S
H276 N271 0.984 . S
H277 N271 0.985 . S
H278 N275 0.984 . S
H279 N275 0.985 . S
H280 N274 0.984 . S
H281 N274 0.984 . S
H282 N270 0.984 . S
H283 N270 0.985 . S
C284 C285 1.363 . S
C284 C290 1.379 . S
C284 N292 1.356 1_556 S
C285 C284 1.363 . S
C285 C291 1.363 . S
C286 C287 1.363 . S
C286 C291 1.379 . S
C286 N293 1.356 . S
C287 C286 1.363 . S
C287 C290 1.363 . S
N288 C290 1.356 . S
N288 H300 0.984 . S
N288 H301 0.985 . S
N289 C291 1.356 . S
N289 H294 0.984 . S
N289 H295 0.985 . S
C290 C284 1.379 . S
C290 C287 1.363 . S
C290 N288 1.356 . S
C291 C285 1.363 . S
C291 C286 1.379 . S
C291 N289 1.356 . S
N292 C284 1.356 1_554 S
N292 H298 0.984 . S
N292 H299 0.984 . S
N293 C286 1.356 . S
N293 H296 0.984 . S
N293 H297 0.985 . S
H294 N289 0.984 . S
H295 N289 0.985 . S
H296 N293 0.984 . S
H297 N293 0.985 . S
H298 N292 0.984 . S
H299 N292 0.984 . S
H300 N288 0.984 . S
H301 N288 0.985 . S
C302 C303 1.363 . S
C302 C308 1.379 . S
C302 N310 1.356 . S
C303 C302 1.363 . S
C303 C309 1.363 . S
C304 C305 1.363 . S
C304 C309 1.379 . S
C304 N311 1.356 . S
C305 C304 1.363 . S
C305 C308 1.363 . S
N306 C308 1.356 . S
N306 H318 0.984 . S
N306 H319 0.985 . S
N307 C309 1.356 . S
N307 H312 0.984 . S
N307 H313 0.985 . S
C308 C302 1.379 . S
C308 C305 1.363 . S
C308 N306 1.356 . S
C309 C303 1.363 . S
C309 C304 1.379 . S
C309 N307 1.356 . S
N310 C302 1.356 . S
N310 H316 0.984 . S
N310 H317 0.984 . S
N311 C304 1.356 . S
N311 H314 0.984 . S
N311 H315 0.985 . S
H312 N307 0.984 . S
H313 N307 0.985 . S
H314 N311 0.984 . S
H315 N311 0.985 . S
H316 N310 0.984 . S
H317 N310 0.984 . S
H318 N306 0.984 . S
H319 N306 0.985 . S
C320 C321 1.363 . S
C320 C326 1.379 . S
C320 N328 1.356 1_556 S
C321 C320 1.363 . S
C321 C327 1.363 . S
C322 C323 1.363 . S
C322 C327 1.379 . S
C322 N329 1.356 . S
C323 C322 1.363 . S
C323 C326 1.363 . S
N324 C326 1.356 . S
N324 H336 0.984 1_556 S
N324 H337 0.985 . S
N325 C327 1.356 . S
N325 H330 0.984 . S
N325 H331 0.985 . S
C326 C320 1.379 . S
C326 C323 1.363 . S
C326 N324 1.356 . S
C327 C321 1.363 . S
C327 C322 1.379 . S
C327 N325 1.356 . S
N328 C320 1.356 1_554 S
N328 H334 0.984 . S
N328 H335 0.984 . S
N329 C322 1.356 . S
N329 H332 0.984 . S
N329 H333 0.985 . S
H330 N325 0.984 . S
H331 N325 0.985 . S
H332 N329 0.984 . S
H333 N329 0.985 . S
H334 N328 0.984 . S
H335 N328 0.984 . S
H336 N324 0.984 1_554 S
H337 N324 0.985 . S
C338 C339 1.363 . S
C338 C344 1.379 . S
C338 N346 1.356 . S
C339 C338 1.363 . S
C339 C345 1.363 . S
C340 C341 1.363 . S
C340 C345 1.379 . S
C340 N347 1.356 . S
C341 C340 1.363 . S
C341 C344 1.363 . S
N342 C344 1.356 . S
N342 H354 0.984 . S
N342 H355 0.985 . S
N343 C345 1.356 . S
N343 H348 0.984 . S
N343 H349 0.985 . S
C344 C338 1.379 . S
C344 C341 1.363 . S
C344 N342 1.356 . S
C345 C339 1.363 . S
C345 C340 1.379 . S
C345 N343 1.356 . S
N346 C338 1.356 . S
N346 H352 0.984 . S
N346 H353 0.984 . S
N347 C340 1.356 . S
N347 H350 0.984 . S
N347 H351 0.985 . S
H348 N343 0.984 . S
H349 N343 0.985 . S
H350 N347 0.984 . S
H351 N347 0.985 . S
H352 N346 0.984 . S
H353 N346 0.984 . S
H354 N342 0.984 . S
H355 N342 0.985 . S
C356 C357 1.363 . S
C356 C362 1.379 . S
C356 N364 1.356 . S
C357 C356 1.363 . S
C357 C363 1.363 . S
C358 C359 1.363 . S
C358 C363 1.379 . S
C358 N365 1.356 . S
C359 C358 1.363 . S
C359 C362 1.363 . S
N360 C362 1.356 . S
N360 H372 0.984 . S
N360 H373 0.985 . S
N361 C363 1.356 . S
N361 H366 0.984 . S
N361 H367 0.985 . S
C362 C356 1.379 . S
C362 C359 1.363 . S
C362 N360 1.356 . S
C363 C357 1.363 . S
C363 C358 1.379 . S
C363 N361 1.356 . S
N364 C356 1.356 . S
N364 H370 0.984 . S
N364 H371 0.984 . S
N365 C358 1.356 . S
N365 H368 0.984 . S
N365 H369 0.985 . S
H366 N361 0.984 . S
H367 N361 0.985 . S
H368 N365 0.984 . S
H369 N365 0.985 . S
H370 N364 0.984 . S
H371 N364 0.984 . S
H372 N360 0.984 . S
H373 N360 0.985 . S
C374 C375 1.363 . S
C374 C380 1.379 . S
C374 N382 1.356 . S
C375 C374 1.363 . S
C375 C381 1.363 . S
C376 C377 1.363 . S
C376 C381 1.379 . S
C376 N383 1.356 . S
C377 C376 1.363 . S
C377 C380 1.363 . S
N378 C380 1.356 . S
N378 H390 0.984 . S
N378 H391 0.985 . S
N379 C381 1.356 . S
N379 H384 0.984 . S
N379 H385 0.985 . S
C380 C374 1.379 . S
C380 C377 1.363 . S
C380 N378 1.356 . S
C381 C375 1.363 . S
C381 C376 1.379 . S
C381 N379 1.356 . S
N382 C374 1.356 . S
N382 H388 0.984 . S
N382 H389 0.984 . S
N383 C376 1.356 . S
N383 H386 0.984 . S
N383 H387 0.985 . S
H384 N379 0.984 . S
H385 N379 0.985 . S
H386 N383 0.984 . S
H387 N383 0.985 . S
H388 N382 0.984 . S
H389 N382 0.984 . S
H390 N378 0.984 . S
H391 N378 0.985 . S
C392 C393 1.363 . S
C392 C398 1.379 . S
C392 N400 1.356 . S
C393 C392 1.363 . S
C393 C399 1.378 . S
C394 C395 1.363 . S
C394 C399 1.369 1_545 S
C394 N401 1.356 . S
C395 C394 1.363 . S
C395 C398 1.363 1_545 S
N396 C398 1.356 . S
N396 H408 0.984 . S
N396 H409 0.974 1_565 S
N397 C399 1.356 1_554 S
N397 H402 0.991 . S
N397 H403 0.978 1_565 S
C398 C392 1.379 . S
C398 C395 1.363 1_565 S
C398 N396 1.356 . S
C399 C393 1.378 . S
C399 C394 1.369 1_565 S
C399 N397 1.356 1_556 S
N400 C392 1.356 . S
N400 H406 0.984 . S
N400 H407 0.984 . S
N401 C394 1.356 . S
N401 H404 0.984 . S
N401 H405 0.985 . S
H402 N397 0.991 . S
H403 N397 0.978 1_545 S
H404 N401 0.984 . S
H405 N401 0.985 . S
H406 N400 0.984 . S
H407 N400 0.984 . S
H408 N396 0.984 . S
H409 N396 0.974 1_545 S
C410 C411 1.363 . S
C410 C416 1.379 . S
C410 N418 1.356 . S
C411 C410 1.363 . S
C411 C417 1.363 . S
C412 C413 1.363 . S
C412 C417 1.379 1_565 S
C412 N419 1.356 . S
C413 C412 1.363 . S
C413 C416 1.363 1_565 S
N414 C416 1.356 . S
N414 H426 0.984 . S
N414 H427 0.985 1_545 S
N415 C417 1.356 . S
N415 H420 0.984 . S
N415 H421 0.985 . S
C416 C410 1.379 . S
C416 C413 1.363 1_545 S
C416 N414 1.356 . S
C417 C411 1.363 . S
C417 C412 1.379 1_545 S
C417 N415 1.356 . S
N418 C410 1.356 . S
N418 H424 0.984 . S
N418 H425 0.984 . S
N419 C412 1.356 . S
N419 H422 0.984 . S
N419 H423 0.985 . S
H420 N415 0.984 . S
H421 N415 0.985 . S
H422 N419 0.984 . S
H423 N419 0.985 . S
H424 N418 0.984 . S
H425 N418 0.984 . S
H426 N414 0.984 . S
H427 N414 0.985 1_565 S
C428 C429 1.363 . S
C428 C434 1.379 1_565 S
C428 N436 1.356 1_556 S
C429 C428 1.363 . S
C429 C435 1.363 . S
C430 C431 1.363 . S
C430 C435 1.379 1_545 S
C430 N437 1.356 . S
C431 C430 1.363 . S
C431 C434 1.363 . S
N432 C434 1.356 . S
N432 H444 0.984 1_556 S
N432 H445 0.985 . S
N433 C435 1.356 . S
N433 H438 0.984 . S
N433 H439 0.985 . S
C434 C428 1.379 1_545 S
C434 C431 1.363 . S
C434 N432 1.356 . S
C435 C429 1.363 . S
C435 C430 1.379 1_565 S
C435 N433 1.356 . S
N436 C428 1.356 1_554 S
N436 H442 0.984 . S
N436 H443 0.984 . S
N437 C430 1.356 . S
N437 H440 0.984 . S
N437 H441 0.985 . S
H438 N433 0.984 . S
H439 N433 0.985 . S
H440 N437 0.984 . S
H441 N437 0.985 . S
H442 N436 0.984 . S
H443 N436 0.984 . S
H444 N432 0.984 1_554 S
H445 N432 0.985 . S
C446 C447 1.363 1_565 S
C446 C452 1.379 . S
C446 N454 1.356 . S
C447 C446 1.363 1_545 S
C447 C453 1.363 . S
C448 C449 1.363 1_545 S
C448 C453 1.379 . S
C448 N455 1.356 . S
C449 C448 1.363 1_565 S
C449 C452 1.363 . S
N450 C452 1.356 . S
N450 H462 0.984 . S
N450 H463 0.985 . S
N451 C453 1.356 . S
N451 H456 0.984 . S
N451 H457 0.985 . S
C452 C446 1.379 . S
C452 C449 1.363 . S
C452 N450 1.356 . S
C453 C447 1.363 . S
C453 C448 1.379 . S
C453 N451 1.356 . S
N454 C446 1.356 . S
N454 H460 0.984 . S
N454 H461 0.984 1_565 S
N455 C448 1.356 . S
N455 H458 0.994 . S
N455 H459 0.985 . S
H456 N451 0.984 . S
H457 N451 0.985 . S
H458 N455 0.994 . S
H459 N455 0.985 . S
H460 N454 0.984 . S
H461 N454 0.984 1_545 S
H462 N450 0.984 . S
H463 N450 0.985 . S
C464 C465 1.363 . S
C464 C470 1.379 . S
C464 N472 1.356 . S
C465 C464 1.363 . S
C465 C471 1.363 . S
C466 C467 1.363 . S
C466 C471 1.379 . S
C466 N473 1.356 . S
C467 C466 1.363 . S
C467 C470 1.363 . S
N468 C470 1.356 . S
N468 H480 0.984 . S
N468 H481 0.985 . S
N469 C471 1.356 . S
N469 H474 0.984 . S
N469 H475 0.985 . S
C470 C464 1.379 . S
C470 C467 1.363 . S
C470 N468 1.356 . S
C471 C465 1.363 . S
C471 C466 1.379 . S
C471 N469 1.356 . S
N472 C464 1.356 . S
N472 H478 0.984 . S
N472 H479 0.984 . S
N473 C466 1.356 . S
N473 H476 0.984 . S
N473 H477 0.985 . S
H474 N469 0.984 . S
H475 N469 0.985 . S
H476 N473 0.984 . S
H477 N473 0.985 . S
H478 N472 0.984 . S
H479 N472 0.984 . S
H480 N468 0.984 . S
H481 N468 0.985 . S
C482 C483 1.363 . S
C482 C488 1.379 . S
C482 N490 1.356 . S
C483 C482 1.363 . S
C483 C489 1.363 . S
C484 C485 1.363 . S
C484 C489 1.379 . S
C484 N491 1.356 . S
C485 C484 1.363 . S
C485 C488 1.363 . S
N486 C488 1.356 . S
N486 H498 0.984 . S
N486 H499 0.985 . S
N487 C489 1.356 . S
N487 H492 0.984 . S
N487 H493 0.985 . S
C488 C482 1.379 . S
C488 C485 1.363 . S
C488 N486 1.356 . S
C489 C483 1.363 . S
C489 C484 1.379 . S
C489 N487 1.356 . S
N490 C482 1.356 . S
N490 H496 0.984 . S
N490 H497 0.984 . S
N491 C484 1.356 . S
N491 H494 0.984 . S
N491 H495 0.985 . S
H492 N487 0.984 . S
H493 N487 0.985 . S
H494 N491 0.984 . S
H495 N491 0.985 . S
H496 N490 0.984 . S
H497 N490 0.984 . S
H498 N486 0.984 . S
H499 N486 0.985 . S
C500 C501 1.363 . S
C500 C506 1.379 . S
C500 N508 1.356 . S
C501 C500 1.363 . S
C501 C507 1.363 . S
C502 C503 1.363 . S
C502 C507 1.379 . S
C502 N509 1.356 . S
C503 C502 1.363 . S
C503 C506 1.363 . S
N504 C506 1.356 . S
N504 H516 0.984 . S
N504 H517 0.985 . S
N505 C507 1.356 . S
N505 H510 0.984 . S
N505 H511 0.985 . S
C506 C500 1.379 . S
C506 C503 1.363 . S
C506 N504 1.356 . S
C507 C501 1.363 . S
C507 C502 1.379 . S
C507 N505 1.356 . S
N508 C500 1.356 . S
N508 H514 0.984 . S
N508 H515 0.984 . S
N509 C502 1.356 . S
N509 H512 0.984 . S
N509 H513 0.985 . S
H510 N505 0.984 . S
H511 N505 0.985 . S
H512 N509 0.984 . S
H513 N509 0.985 . S
H514 N508 0.984 . S
H515 N508 0.984 . S
H516 N504 0.984 . S
H517 N504 0.985 . S
C518 C519 1.363 . S
C518 C524 1.379 . S
C518 N526 1.356 . S
C519 C518 1.363 . S
C519 C525 1.363 . S
C520 C521 1.363 . S
C520 C525 1.379 . S
C520 N527 1.356 . S
C521 C520 1.363 . S
C521 C524 1.363 . S
N522 C524 1.356 . S
N522 H534 0.984 . S
N522 H535 0.985 . S
N523 C525 1.356 . S
N523 H528 0.984 . S
N523 H529 0.985 . S
C524 C518 1.379 . S
C524 C521 1.363 . S
C524 N522 1.356 . S
C525 C519 1.363 . S
C525 C520 1.379 . S
C525 N523 1.356 . S
N526 C518 1.356 . S
N526 H532 0.984 . S
N526 H533 0.984 . S
N527 C520 1.356 . S
N527 H530 0.984 . S
N527 H531 0.985 . S
H528 N523 0.984 . S
H529 N523 0.985 . S
H530 N527 0.984 . S
H531 N527 0.985 . S
H532 N526 0.984 . S
H533 N526 0.984 . S
H534 N522 0.984 . S
H535 N522 0.985 . S
C536 C537 1.363 . S
C536 C542 1.379 . S
C536 N544 1.356 . S
C537 C536 1.363 . S
C537 C543 1.363 . S
C538 C539 1.363 . S
C538 C543 1.379 . S
C538 N545 1.356 . S
C539 C538 1.363 . S
C539 C542 1.363 . S
N540 C542 1.356 . S
N540 H552 0.984 . S
N540 H553 0.985 . S
N541 C543 1.356 . S
N541 H546 0.984 . S
N541 H547 0.985 . S
C542 C536 1.379 . S
C542 C539 1.363 . S
C542 N540 1.356 . S
C543 C537 1.363 . S
C543 C538 1.379 . S
C543 N541 1.356 . S
N544 C536 1.356 . S
N544 H550 0.984 . S
N544 H551 0.984 . S
N545 C538 1.356 . S
N545 H548 0.984 . S
N545 H549 0.985 . S
H546 N541 0.984 . S
H547 N541 0.985 . S
H548 N545 0.984 . S
H549 N545 0.985 . S
H550 N544 0.984 . S
H551 N544 0.984 . S
H552 N540 0.984 . S
H553 N540 0.985 . S
C554 C555 1.363 . S
C554 C560 1.379 . S
C554 N562 1.356 . S
C555 C554 1.363 . S
C555 C561 1.363 . S
C556 C557 1.363 . S
C556 C561 1.379 . S
C556 N563 1.356 . S
C557 C556 1.363 . S
C557 C560 1.363 . S
N558 C560 1.356 . S
N558 H570 0.984 . S
N558 H571 0.985 . S
N559 C561 1.356 . S
N559 H564 0.984 . S
N559 H565 0.985 . S
C560 C554 1.379 . S
C560 C557 1.363 . S
C560 N558 1.356 . S
C561 C555 1.363 . S
C561 C556 1.379 . S
C561 N559 1.356 . S
N562 C554 1.356 . S
N562 H568 0.984 . S
N562 H569 0.984 . S
N563 C556 1.356 . S
N563 H566 0.984 . S
N563 H567 0.985 . S
H564 N559 0.984 . S
H565 N559 0.985 . S
H566 N563 0.984 . S
H567 N563 0.985 . S
H568 N562 0.984 . S
H569 N562 0.984 . S
H570 N558 0.984 . S
H571 N558 0.985 . S
C572 C573 1.363 . S
C572 C578 1.379 . S
C572 N580 1.356 . S
C573 C572 1.363 . S
C573 C579 1.363 . S
C574 C575 1.363 . S
C574 C579 1.379 . S
C574 N581 1.356 . S
C575 C574 1.363 . S
C575 C578 1.363 . S
N576 C578 1.356 . S
N576 H588 0.984 . S
N576 H589 0.985 . S
N577 C579 1.356 . S
N577 H582 0.984 . S
N577 H583 0.985 . S
C578 C572 1.379 . S
C578 C575 1.363 . S
C578 N576 1.356 . S
C579 C573 1.363 . S
C579 C574 1.379 . S
C579 N577 1.356 . S
N580 C572 1.356 . S
N580 H586 0.984 . S
N580 H587 0.984 . S
N581 C574 1.356 . S
N581 H584 0.984 . S
N581 H585 0.985 . S
H582 N577 0.984 . S
H583 N577 0.985 . S
H584 N581 0.984 . S
H585 N581 0.985 . S
H586 N580 0.984 . S
H587 N580 0.984 . S
H588 N576 0.984 . S
H589 N576 0.985 . S
C590 C591 1.363 . S
C590 C596 1.379 . S
C590 N598 1.356 . S
C591 C590 1.363 . S
C591 C597 1.363 . S
C592 C593 1.363 . S
C592 C597 1.379 . S
C592 N599 1.356 . S
C593 C592 1.363 . S
C593 C596 1.363 . S
N594 C596 1.356 . S
N594 H606 0.984 . S
N594 H607 0.985 . S
N595 C597 1.356 . S
N595 H600 0.984 . S
N595 H601 0.985 . S
C596 C590 1.379 . S
C596 C593 1.363 . S
C596 N594 1.356 . S
C597 C591 1.363 . S
C597 C592 1.379 . S
C597 N595 1.356 . S
N598 C590 1.356 . S
N598 H604 0.984 . S
N598 H605 0.984 . S
N599 C592 1.356 . S
N599 H602 0.984 . S
N599 H603 0.985 . S
H600 N595 0.984 . S
H601 N595 0.985 . S
H602 N599 0.984 . S
H603 N599 0.985 . S
H604 N598 0.984 . S
H605 N598 0.984 . S
H606 N594 0.984 . S
H607 N594 0.985 . S
C177 N4 1.538 . S
C179 C131 1.526 . S
C197 C95 1.529 . S
C195 N15 1.538 . S
C215 C118 1.598 . S
C213 N26 1.588 . S
C233 C106 1.487 . S
C231 N37 1.483 . S
C251 C175 1.526 . S
C249 N48 1.537 . S
C269 C139 1.528 . S
C267 N59 1.538 . S
C285 N70 1.588 . S
C287 C162 1.598 . S
C305 C150 1.487 . S
C303 N81 1.483 . S
C321 C9 1.504 . S
C323 C172 1.544 . S
C341 C142 1.520 . S
C339 C20 1.481 . S
C357 C31 1.573 . S
C359 C161 1.606 . S
C375 C39 1.452 . S
C377 C147 1.469 . S
C395 C128 1.544 . S
C393 C53 1.504 . S
C411 C64 1.481 . S
C413 C98 1.520 . S
C431 C117 1.606 . S
C429 C75 1.573 . S
C449 C103 1.469 . S
C447 C83 1.452 . S
C467 C153 1.521 . S
C465 C6 1.513 . S
C485 C169 1.517 . S
C483 C17 1.503 . S
C501 C28 1.500 . S
C503 C140 1.506 . S
C521 C164 1.505 . S
C519 C42 1.467 . S
C539 C109 1.521 . S
C537 C50 1.513 . S
C555 C61 1.503 . S
C557 C125 1.517 . S
C573 C72 1.500 . S
C575 C96 1.506 . S
C591 C86 1.467 . S
C593 C120 1.505 . S
