# Generated by pormake.
# Topology pyr, (3,6)-cn, num edge types: 1
# Building blocks:
#     Node 0, Type 0, BuildingBlock: BELTOD_clean_linker_0, # of connection points: 3
#     Node 1, Type 0, BuildingBlock: BELTOD_clean_linker_0, # of connection points: 3
#     Node 2, Type 0, BuildingBlock: BELTOD_clean_linker_0, # of connection points: 3
#     Node 3, Type 0, BuildingBlock: BELTOD_clean_linker_0, # of connection points: 3
#     Node 4, Type 0, BuildingBlock: BELTOD_clean_linker_0, # of connection points: 3
#     Node 5, Type 0, BuildingBlock: BELTOD_clean_linker_0, # of connection points: 3
#     Node 6, Type 0, BuildingBlock: BELTOD_clean_linker_0, # of connection points: 3
#     Node 7, Type 0, BuildingBlock: BELTOD_clean_linker_0, # of connection points: 3
#     Node 8, Type 1, BuildingBlock: PAMTUU_clean_sbu_0, # of connection points: 6
#     Node 9, Type 1, BuildingBlock: PAMTUU_clean_sbu_0, # of connection points: 6
#     Node 10, Type 1, BuildingBlock: PAMTUU_clean_sbu_0, # of connection points: 6
#     Node 11, Type 1, BuildingBlock: PAMTUU_clean_sbu_0, # of connection points: 6
#     Edge 12, Type (0, 1), BuildingBlock: XUDNAN_clean_linker_2, # of connection points: 2
#     Edge 13, Type (0, 1), BuildingBlock: XUDNAN_clean_linker_2, # of connection points: 2
#     Edge 14, Type (0, 1), BuildingBlock: XUDNAN_clean_linker_2, # of connection points: 2
#     Edge 15, Type (0, 1), BuildingBlock: XUDNAN_clean_linker_2, # of connection points: 2
#     Edge 16, Type (0, 1), BuildingBlock: XUDNAN_clean_linker_2, # of connection points: 2
#     Edge 17, Type (0, 1), BuildingBlock: XUDNAN_clean_linker_2, # of connection points: 2
#     Edge 18, Type (0, 1), BuildingBlock: XUDNAN_clean_linker_2, # of connection points: 2
#     Edge 19, Type (0, 1), BuildingBlock: XUDNAN_clean_linker_2, # of connection points: 2
#     Edge 20, Type (0, 1), BuildingBlock: XUDNAN_clean_linker_2, # of connection points: 2
#     Edge 21, Type (0, 1), BuildingBlock: XUDNAN_clean_linker_2, # of connection points: 2
#     Edge 22, Type (0, 1), BuildingBlock: XUDNAN_clean_linker_2, # of connection points: 2
#     Edge 23, Type (0, 1), BuildingBlock: XUDNAN_clean_linker_2, # of connection points: 2
#     Edge 24, Type (0, 1), BuildingBlock: XUDNAN_clean_linker_2, # of connection points: 2
#     Edge 25, Type (0, 1), BuildingBlock: XUDNAN_clean_linker_2, # of connection points: 2
#     Edge 26, Type (0, 1), BuildingBlock: XUDNAN_clean_linker_2, # of connection points: 2
#     Edge 27, Type (0, 1), BuildingBlock: XUDNAN_clean_linker_2, # of connection points: 2
#     Edge 28, Type (0, 1), BuildingBlock: XUDNAN_clean_linker_2, # of connection points: 2
#     Edge 29, Type (0, 1), BuildingBlock: XUDNAN_clean_linker_2, # of connection points: 2
#     Edge 30, Type (0, 1), BuildingBlock: XUDNAN_clean_linker_2, # of connection points: 2
#     Edge 31, Type (0, 1), BuildingBlock: XUDNAN_clean_linker_2, # of connection points: 2
#     Edge 32, Type (0, 1), BuildingBlock: XUDNAN_clean_linker_2, # of connection points: 2
#     Edge 33, Type (0, 1), BuildingBlock: XUDNAN_clean_linker_2, # of connection points: 2
#     Edge 34, Type (0, 1), BuildingBlock: XUDNAN_clean_linker_2, # of connection points: 2
#     Edge 35, Type (0, 1), BuildingBlock: XUDNAN_clean_linker_2, # of connection points: 2
# Relax obj value: 0.097
# Max RMSD: 0.129
# Mean RMSD: 0.054
data_MOF--net-pyr--node1-PAMTUU_clean_sbu_0--node2-BELTOD_clean_linker_0--edge1-XUDNAN_clean_linker_2
_symmetry_space_group_name_H-M    P1
_symmetry_Int_Tables_number       1
_symmetry_cell_setting            triclinic
loop_
_symmetry_equiv_pos_as_xyz
'x, y, z'
_cell_length_a     43.080424
_cell_length_b     44.563897
_cell_length_c     42.144925
_cell_angle_alpha  90.079596
_cell_angle_beta   89.421984
_cell_angle_gamma 100.83387
loop_
_atom_site_label
_atom_site_type_symbol
_atom_site_fract_x
_atom_site_fract_y
_atom_site_fract_z
_atom_type_partial_charge
P0 P 0.36803 0.30744 0.23521 0.0
H1 H 0.34936 0.28773 0.16984 0.0
H2 H 0.36412 0.24741 0.13709 0.0
H3 H 0.4379 0.23851 0.20317 0.0
H4 H 0.42317 0.27907 0.23567 0.0
H5 H 0.35909 0.37084 0.22929 0.0
H6 H 0.31273 0.39291 0.21682 0.0
H7 H 0.25889 0.30252 0.19954 0.0
H8 H 0.30519 0.28053 0.21245 0.0
H9 H 0.3508 0.31667 0.30135 0.0
H10 H 0.34862 0.24064 0.23728 0.0
O11 O 0.39643 0.33447 0.24978 0.0
H12 H 0.32728 0.28104 0.34339 0.0
H13 H 0.32612 0.20541 0.279 0.0
C14 C 0.38499 0.28623 0.20541 0.0
C15 C 0.3692 0.27772 0.17694 0.0
C16 C 0.37758 0.2545 0.15827 0.0
C17 C 0.40178 0.23935 0.16785 0.0
C18 C 0.41926 0.24978 0.19499 0.0
C19 C 0.4109 0.27303 0.2136 0.0
C20 C 0.33562 0.32407 0.22154 0.0
C21 C 0.33747 0.35579 0.2224 0.0
C22 C 0.31094 0.36837 0.21543 0.0
C23 C 0.28224 0.3494 0.20726 0.0
C24 C 0.2808 0.31769 0.20543 0.0
C25 C 0.3072 0.30513 0.21281 0.0
C26 C 0.35244 0.28131 0.26651 0.0
C27 C 0.34576 0.29238 0.29648 0.0
C28 C 0.33222 0.27211 0.32034 0.0
C29 C 0.32542 0.24051 0.31449 0.0
C30 C 0.33182 0.2296 0.28433 0.0
C31 C 0.34483 0.24983 0.26047 0.0
P32 P 0.18898 0.79335 0.69001 0.0
H33 H 0.24753 0.82941 0.71407 0.0
H34 H 0.26918 0.83845 0.76676 0.0
H35 H 0.18886 0.77622 0.80605 0.0
H36 H 0.16657 0.768 0.75278 0.0
H37 H 0.19979 0.77242 0.62603 0.0
H38 H 0.22112 0.72851 0.60736 0.0
H39 H 0.20884 0.68912 0.70125 0.0
H40 H 0.18748 0.73288 0.71977 0.0
H41 H 0.14542 0.81344 0.73699 0.0
H42 H 0.14789 0.79605 0.63635 0.0
O43 O 0.21168 0.81918 0.66693 0.0
H44 H 0.10254 0.84065 0.7298 0.0
H45 H 0.10609 0.82529 0.62868 0.0
C46 C 0.20515 0.79836 0.72943 0.0
C47 C 0.23444 0.81761 0.73387 0.0
C48 C 0.24707 0.82247 0.76413 0.0
C49 C 0.23086 0.80788 0.79068 0.0
C50 C 0.20183 0.78795 0.78612 0.0
C51 C 0.18914 0.78316 0.7557 0.0
C52 C 0.19295 0.75652 0.67455 0.0
C53 C 0.2007 0.75391 0.64241 0.0
C54 C 0.21283 0.72869 0.6317 0.0
C55 C 0.21729 0.70572 0.65306 0.0
C56 C 0.20624 0.70683 0.68444 0.0
C57 C 0.19398 0.73197 0.69506 0.0
C58 C 0.15005 0.80242 0.68718 0.0
C59 C 0.13613 0.81433 0.71342 0.0
C60 C 0.11169 0.83047 0.70922 0.0
C61 C 0.10141 0.83598 0.67859 0.0
C62 C 0.11326 0.82148 0.65266 0.0
C63 C 0.1373 0.80473 0.65701 0.0
P64 P 0.68656 0.34258 0.84717 0.0
H65 H 0.74579 0.33151 0.87388 0.0
H66 H 0.78837 0.36298 0.90351 0.0
H67 H 0.73676 0.43722 0.90335 0.0
H68 H 0.69432 0.40558 0.87337 0.0
H69 H 0.62199 0.30879 0.83709 0.0
H70 H 0.58892 0.26655 0.86548 0.0
H71 H 0.65933 0.27265 0.93862 0.0
H72 H 0.69239 0.31464 0.90986 0.0
H73 H 0.69325 0.35349 0.77835 0.0
H74 H 0.63754 0.38102 0.85471 0.0
O75 O 0.70538 0.32057 0.82484 0.0
H76 H 0.66902 0.38369 0.74094 0.0
H77 H 0.61328 0.41178 0.81721 0.0
C78 C 0.71694 0.36623 0.8708 0.0
C79 C 0.74354 0.35456 0.88023 0.0
C80 C 0.76786 0.37255 0.89751 0.0
C81 C 0.76629 0.40283 0.90579 0.0
C82 C 0.73913 0.41419 0.89702 0.0
C83 C 0.71468 0.39605 0.87987 0.0
C84 C 0.65938 0.31578 0.87164 0.0
C85 C 0.63001 0.30161 0.85963 0.0
C86 C 0.61113 0.27723 0.87593 0.0
C87 C 0.62127 0.266 0.90458 0.0
C88 C 0.65073 0.28035 0.91659 0.0
C89 C 0.66954 0.30482 0.90029 0.0
C90 C 0.66729 0.36478 0.81959 0.0
C91 C 0.67562 0.36586 0.78718 0.0
C92 C 0.66156 0.38312 0.76558 0.0
C93 C 0.63906 0.40028 0.77582 0.0
C94 C 0.63067 0.3991 0.80837 0.0
C95 C 0.6445 0.38146 0.82993 0.0
P96 P 0.84379 0.70315 0.33927 0.0
H97 H 0.90157 0.74466 0.31907 0.0
H98 H 0.93468 0.78859 0.34442 0.0
H99 H 0.87983 0.76988 0.43079 0.0
H100 H 0.84728 0.72557 0.40565 0.0
H101 H 0.81388 0.65822 0.29402 0.0
H102 H 0.83439 0.63049 0.25103 0.0
H103 H 0.92937 0.66196 0.28418 0.0
H104 H 0.90856 0.68966 0.32759 0.0
H105 H 0.78771 0.72325 0.36302 0.0
H106 H 0.83005 0.64366 0.37384 0.0
O107 O 0.8272 0.72401 0.31391 0.0
H108 H 0.74534 0.70164 0.39949 0.0
H109 H 0.78734 0.62172 0.41123 0.0
C110 C 0.87234 0.73107 0.36052 0.0
C111 C 0.89729 0.74931 0.3438 0.0
C112 C 0.91607 0.77466 0.35828 0.0
C113 C 0.90986 0.78288 0.38966 0.0
C114 C 0.88511 0.76437 0.40653 0.0
C115 C 0.86664 0.73873 0.39216 0.0
C116 C 0.85956 0.67634 0.31399 0.0
C117 C 0.83907 0.65859 0.29263 0.0
C118 C 0.85088 0.6429 0.26784 0.0
C119 C 0.8836 0.64438 0.26377 0.0
C120 C 0.90406 0.66034 0.28658 0.0
C121 C 0.89214 0.67632 0.3114 0.0
C122 C 0.81194 0.685 0.36534 0.0
C123 C 0.78777 0.70092 0.37309 0.0
C124 C 0.7636 0.68859 0.39427 0.0
C125 C 0.76294 0.65998 0.4086 0.0
C126 C 0.78699 0.6437 0.40049 0.0
C127 C 0.81146 0.65625 0.37921 0.0
P128 P 0.76537 0.85549 0.85837 0.0
H129 H 0.75373 0.89474 0.91049 0.0
H130 H 0.70554 0.90847 0.93195 0.0
H131 H 0.6497 0.84169 0.87085 0.0
H132 H 0.69831 0.82823 0.84924 0.0
H133 H 0.83122 0.85298 0.86935 0.0
H134 H 0.85736 0.8154 0.89446 0.0
H135 H 0.76633 0.75916 0.91553 0.0
H136 H 0.74021 0.79746 0.89068 0.0
H137 H 0.73149 0.88068 0.80904 0.0
H138 H 0.78504 0.80846 0.81738 0.0
O139 O 0.79031 0.88904 0.85839 0.0
H140 H 0.72927 0.87347 0.75176 0.0
H141 H 0.78267 0.80093 0.75998 0.0
C142 C 0.72955 0.86105 0.87779 0.0
C143 C 0.73111 0.88276 0.90201 0.0
C144 C 0.70349 0.89046 0.9144 0.0
C145 C 0.67377 0.87639 0.90284 0.0
C146 C 0.67226 0.8533 0.87981 0.0
C147 C 0.69999 0.84552 0.86753 0.0
C148 C 0.78381 0.82826 0.8788 0.0
C149 C 0.81684 0.83276 0.87971 0.0
C150 C 0.83178 0.81107 0.89377 0.0
C151 C 0.81393 0.78425 0.90693 0.0
C152 C 0.78072 0.77977 0.90594 0.0
C153 C 0.76576 0.80158 0.89177 0.0
C154 C 0.75827 0.84507 0.8175 0.0
C155 C 0.74192 0.86261 0.79863 0.0
C156 C 0.74048 0.85829 0.76586 0.0
C157 C 0.75575 0.83654 0.75131 0.0
C158 C 0.77075 0.81789 0.77052 0.0
C159 C 0.77209 0.8222 0.80338 0.0
P160 P 0.8747 0.30617 0.31963 0.0
H161 H 0.86794 0.30705 0.38981 0.0
H162 H 0.83056 0.32678 0.42455 0.0
H163 H 0.79099 0.36384 0.34284 0.0
H164 H 0.82772 0.34335 0.30834 0.0
H165 H 0.9418 0.30182 0.32012 0.0
H166 H 0.97009 0.2642 0.3425 0.0
H167 H 0.88212 0.21402 0.38091 0.0
H168 H 0.85423 0.25206 0.35914 0.0
H169 H 0.87995 0.29916 0.25051 0.0
H170 H 0.81317 0.26618 0.32527 0.0
O171 O 0.89996 0.33415 0.30172 0.0
H172 H 0.84441 0.27011 0.21151 0.0
H173 H 0.77768 0.23742 0.28668 0.0
C174 C 0.85016 0.32323 0.34642 0.0
C175 C 0.8512 0.31936 0.37938 0.0
C176 C 0.82994 0.33085 0.39926 0.0
C177 C 0.80745 0.34651 0.38643 0.0
C178 C 0.80746 0.35128 0.35346 0.0
C179 C 0.82863 0.3398 0.33371 0.0
C180 C 0.89596 0.27994 0.33831 0.0
C181 C 0.92867 0.28292 0.33369 0.0
C182 C 0.94479 0.26123 0.34624 0.0
C183 C 0.9284 0.2361 0.36353 0.0
C184 C 0.89558 0.23332 0.36815 0.0
C185 C 0.87954 0.255 0.35558 0.0
C186 C 0.84903 0.285 0.29069 0.0
C187 C 0.85764 0.28576 0.2585 0.0
C188 C 0.83729 0.26926 0.23626 0.0
C189 C 0.80827 0.25147 0.24604 0.0
C190 C 0.80003 0.25058 0.27843 0.0
C191 C 0.82026 0.26713 0.30051 0.0
P192 P 0.37835 0.66642 0.21204 0.0
H193 H 0.36001 0.62745 0.15662 0.0
H194 H 0.30948 0.60146 0.13583 0.0
H195 H 0.26059 0.6385 0.21186 0.0
H196 H 0.31186 0.66395 0.23362 0.0
H197 H 0.43674 0.71135 0.2019 0.0
H198 H 0.44717 0.76369 0.18151 0.0
H199 H 0.34725 0.76503 0.18645 0.0
H200 H 0.33701 0.71256 0.2058 0.0
H201 H 0.38062 0.60679 0.23901 0.0
H202 H 0.39238 0.69925 0.27337 0.0
O203 O 0.40554 0.65339 0.19021 0.0
H204 H 0.39546 0.58969 0.29095 0.0
H205 H 0.40719 0.68233 0.32558 0.0
C206 C 0.34002 0.64771 0.1969 0.0
C207 C 0.33862 0.63008 0.16911 0.0
C208 C 0.3096 0.61522 0.15707 0.0
C209 C 0.28101 0.618 0.17209 0.0
C210 C 0.28222 0.63616 0.1996 0.0
C211 C 0.3115 0.65059 0.2121 0.0
C212 C 0.38599 0.70752 0.20488 0.0
C213 C 0.41708 0.72306 0.19907 0.0
C214 C 0.42308 0.7532 0.18747 0.0
C215 C 0.39806 0.76865 0.18154 0.0
C216 C 0.36714 0.75372 0.18976 0.0
C217 C 0.36119 0.72357 0.20119 0.0
C218 C 0.38504 0.65429 0.25223 0.0
C219 C 0.38604 0.62341 0.25789 0.0
C220 C 0.39493 0.61368 0.28758 0.0
C221 C 0.40279 0.63456 0.31262 0.0
C222 C 0.40111 0.66548 0.30703 0.0
C223 C 0.39253 0.67525 0.27713 0.0
P224 P 0.18212 0.34755 0.73765 0.0
H225 H 0.19402 0.29028 0.71119 0.0
H226 H 0.16179 0.2487 0.68175 0.0
H227 H 0.08528 0.29893 0.68046 0.0
H228 H 0.11787 0.3406 0.71009 0.0
H229 H 0.2454 0.38222 0.75041 0.0
H230 H 0.28854 0.40676 0.71579 0.0
H231 H 0.22629 0.39077 0.63527 0.0
H232 H 0.18344 0.36566 0.67009 0.0
H233 H 0.1222 0.32826 0.77151 0.0
H234 H 0.19383 0.4098 0.76546 0.0
O235 O 0.20259 0.32897 0.7617 0.0
H236 H 0.09716 0.35012 0.81558 0.0
H237 H 0.16935 0.43158 0.81071 0.0
C238 C 0.15809 0.31821 0.71374 0.0
C239 C 0.17031 0.29241 0.70457 0.0
C240 C 0.15189 0.26868 0.68744 0.0
C241 C 0.12072 0.27018 0.67892 0.0
C242 C 0.10894 0.29668 0.68712 0.0
C243 C 0.12757 0.32058 0.70407 0.0
C244 C 0.21123 0.37172 0.71287 0.0
C245 C 0.24086 0.38446 0.72538 0.0
C246 C 0.26558 0.39862 0.70548 0.0
C247 C 0.26122 0.40045 0.67251 0.0
C248 C 0.23084 0.38922 0.66038 0.0
C249 C 0.20612 0.37505 0.68035 0.0
C250 C 0.1595 0.36759 0.76431 0.0
C251 C 0.13206 0.35132 0.77893 0.0
C252 C 0.118 0.36373 0.80467 0.0
C253 C 0.1314 0.39255 0.81718 0.0
C254 C 0.15817 0.40947 0.80166 0.0
C255 C 0.1722 0.397 0.77565 0.0
Tb256 Tb 0.04804 0.03674 0.51483 0.0
Tb257 Tb 0.97354 0.02797 0.53644 0.0
C258 C 0.99765 0.98046 0.49193 0.0
C259 C 0.13111 0.06423 0.48453 0.0
C260 C 0.18216 0.10319 0.45481 0.0
C261 C 0.18741 0.08382 0.4797 0.0
C262 C 0.16211 0.06448 0.49433 0.0
C263 C 0.12551 0.08438 0.46059 0.0
C264 C 0.15088 0.10368 0.44579 0.0
C265 C 0.10541 0.04178 0.49871 0.0
O266 O 0.02512 0.05879 0.47784 0.0
O267 O 0.9825 0.06815 0.50672 0.0
O268 O 0.9997 0.06346 0.5674 0.0
O269 O 0.04431 0.08002 0.53696 0.0
O270 O 0.92627 0.02454 0.5229 0.0
O271 O 0.93885 1.02268 0.57228 0.0
O272 O 0.99198 0.99184 0.55994 0.0
O273 O 0.0432 1.01727 0.56233 0.0
O274 O 0.02645 0.99001 0.50236 0.0
O275 O 0.97517 0.99611 0.49733 0.0
C276 C 1.00146 0.07329 0.48201 0.0
O277 O 0.09603 0.04795 0.52703 0.0
O278 O 0.08178 0.03067 0.48043 0.0
C279 C 0.02548 0.08378 0.56079 0.0
C280 C 0.89193 0.99122 0.55615 0.0
C281 C 0.84796 0.93815 0.57163 0.0
C282 C 0.83963 0.96713 0.57413 0.0
C283 C 0.86151 0.99348 0.5665 0.0
C284 C 0.89985 0.96233 0.55185 0.0
C285 C 0.87801 0.93596 0.55956 0.0
C286 C 0.91588 1.01897 0.55186 0.0
C287 C 0.02014 0.9958 0.57239 0.0
H288 H 0.21114 0.0833 0.48762 0.0
H289 H 0.16681 0.04923 0.51294 0.0
H290 H 0.10167 0.08465 0.45281 0.0
H291 H 0.14604 0.11816 0.42656 0.0
H292 H 0.81687 0.96962 0.58382 0.0
H293 H 0.8551 1.01565 0.56989 0.0
H294 H 0.92329 0.96026 0.54368 0.0
H295 H 0.88501 0.91393 0.55728 0.0
Tb296 Tb 0.52665 0.02591 0.06694 0.0
Tb297 Tb 0.46529 1.01582 1.02036 0.0
C298 C 0.52417 0.98631 1.00566 0.0
C299 C 0.59857 0.05957 0.11261 0.0
C300 C 0.64584 0.10832 0.13241 0.0
C301 C 0.64966 0.07787 0.13626 0.0
C302 C 0.62621 0.05374 0.12647 0.0
C303 C 0.59461 0.08983 0.10835 0.0
C304 C 0.61808 0.11406 0.11823 0.0
C305 C 0.57471 0.03378 0.10187 0.0
O306 O 0.5383 0.0607 1.02913 0.0
O307 O 0.48807 0.06295 1.01257 0.0
O308 O 0.45235 0.03438 0.06523 0.0
O309 O 0.50039 0.06121 0.07979 0.0
O310 O 0.44487 1.0124 0.97498 0.0
O311 O 0.41602 1.00936 1.01736 0.0
O312 O 0.46382 0.97205 0.04309 0.0
O313 O 0.49187 0.98813 0.08797 0.0
O314 O 0.53117 0.98832 0.03583 0.0
O315 O 0.50301 1.00063 0.99371 0.0
C316 C 0.51843 0.07465 1.01379 0.0
O317 O 0.54595 0.03257 0.11252 0.0
O318 O 0.57536 0.02781 0.07161 0.0
C319 C 0.46951 0.05725 0.08034 0.0
C320 C 0.39564 0.97815 0.97409 0.0
C321 C 0.35493 0.92685 0.94896 0.0
C322 C 0.35649 0.9316 0.98187 0.0
C323 C 0.37673 0.95696 0.99436 0.0
C324 C 0.39418 0.97326 0.94123 0.0
C325 C 0.37413 0.9478 0.92878 0.0
C326 C 0.4163 1.0057 0.98672 0.0
C327 C 0.4715 0.96748 0.07251 0.0
H328 H 0.67097 0.07265 0.14654 0.0
H329 H 0.62974 0.03048 0.12956 0.0
H330 H 0.57342 0.09467 0.09743 0.0
H331 H 0.61429 0.13722 0.11519 0.0
H332 H 0.34203 0.91574 0.99793 0.0
H333 H 0.37728 0.96004 1.01986 0.0
H334 H 0.40831 0.98934 0.92511 0.0
H335 H 0.37301 0.94498 0.90325 0.0
Tb336 Tb 0.52625 0.49732 0.52792 0.0
Tb337 Tb 0.51303 0.5536 0.5726 0.0
C338 C 0.48712 0.5462 0.50324 0.0
C339 C 0.56894 0.44228 0.48992 0.0
C340 C 0.62533 0.42001 0.47936 0.0
C341 C 0.62621 0.44935 0.49212 0.0
C342 C 0.59829 0.46031 0.49746 0.0
C343 C 0.56782 0.41291 0.47758 0.0
C344 C 0.59576 0.40182 0.47237 0.0
C345 C 0.53962 0.45422 0.49456 0.0
O346 O 0.57148 0.52872 0.52945 0.0
O347 O 0.55391 0.57257 0.54308 0.0
O348 O 0.54923 0.53548 0.59779 0.0
O349 O 0.54008 0.48726 0.57651 0.0
O350 O 0.51058 0.59999 0.577 0.0
O351 O 0.49911 0.56932 0.61666 0.0
O352 O 0.4781 0.51363 0.58617 0.0
O353 O 0.47601 0.48591 0.54024 0.0
O354 O 0.50789 0.52896 0.49597 0.0
O355 O 0.48083 0.55166 0.53298 0.0
C356 C 0.57573 0.55861 0.53117 0.0
O357 O 0.52672 0.45039 0.5227 0.0
O358 O 0.54032 0.48179 0.48405 0.0
C359 C 0.55162 0.50653 0.59915 0.0
C360 C 0.4658 0.60499 0.60827 0.0
C361 C 0.40371 0.61679 0.61311 0.0
C362 C 0.41775 0.60504 0.63915 0.0
C363 C 0.4485 0.59924 0.63676 0.0
C364 C 0.45198 0.61738 0.58247 0.0
C365 C 0.42133 0.6232 0.58488 0.0
C366 C 0.497 0.59587 0.60485 0.0
C367 C 0.4634 0.49211 0.56747 0.0
H368 H 0.64851 0.46417 0.49733 0.0
H369 H 0.59968 0.48305 0.50709 0.0
H370 H 0.54536 0.39862 0.47182 0.0
H371 H 0.59419 0.37898 0.46294 0.0
H372 H 0.40473 0.5997 0.66118 0.0
H373 H 0.4585 0.5896 0.65697 0.0
H374 H 0.46459 0.62219 0.56014 0.0
H375 H 0.41149 0.63286 0.56459 0.0
Tb376 Tb 0.02416 0.54952 1.0255 0.0
Tb377 Tb 1.00989 0.48829 0.06967 0.0
C378 C 0.0459 0.48935 1.00287 0.0
C379 C 1.00514 0.61563 0.98588 0.0
C380 C 0.95726 0.64935 0.97422 0.0
C381 C 0.9891 0.66178 0.96702 0.0
C382 C 1.01289 0.64502 0.97289 0.0
C383 C 0.97342 0.60303 0.99264 0.0
C384 C 0.94972 0.61964 0.98677 0.0
C385 C 0.02982 0.59847 0.99429 0.0
O386 O 0.98217 0.52085 1.00561 0.0
O387 O 0.96448 0.48751 0.04654 0.0
O388 O 0.99905 0.52601 0.0985 0.0
O389 O 0.98589 0.55464 0.05802 0.0
O390 O 0.99935 0.44057 0.07593 0.0
O391 O 1.00759 0.47083 0.11603 0.0
O392 O 0.0606 0.50521 0.07188 0.0
O393 O 0.06136 0.5556 0.06145 0.0
O394 O 0.05239 0.51944 1.00262 0.0
O395 O 0.02653 0.47398 1.02406 0.0
C396 C 0.96022 0.49996 1.01894 0.0
O397 O 0.03525 0.59745 1.02458 0.0
O398 O 0.0273 0.5716 0.98123 0.0
C399 C 0.98479 0.54757 0.08822 0.0
C400 C 0.02996 0.42721 0.11808 0.0
C401 C 0.08254 0.40794 0.14494 0.0
C402 C 0.05498 0.40796 0.1631 0.0
C403 C 0.02888 0.41747 0.14974 0.0
C404 C 0.05703 0.42614 0.09953 0.0
C405 C 0.08301 0.41636 0.1128 0.0
C406 C 1.0052 0.44283 0.1062 0.0
C407 C 0.07471 0.53395 0.07333 0.0
H408 H 0.99571 0.68472 0.95762 0.0
H409 H 0.03731 0.65517 0.96781 0.0
H410 H 0.96703 0.58042 1.00289 0.0
H411 H 0.92545 0.60919 0.99211 0.0
H412 H 0.05395 0.40138 0.18788 0.0
H413 H 1.00838 0.41852 0.16451 0.0
H414 H 0.05868 0.43416 0.0752 0.0
H415 H 0.10407 0.41694 0.09837 0.0
H416 H 0.273 0.24291 0.351 0.0
H417 H 0.34474 0.18842 0.33272 0.0
H418 H 0.31774 0.14901 0.36996 0.0
H419 H 0.25948 0.22242 0.43595 0.0
H420 H 0.21752 0.22121 0.4334 0.0
H421 H 0.24439 0.24668 0.40811 0.0
H422 H 0.21405 0.22264 0.3587 0.0
H423 H 0.18728 0.19696 0.38376 0.0
H424 H 0.20882 0.18197 0.3525 0.0
H425 H 0.28104 0.11394 0.40522 0.0
H426 H 0.2368 0.08501 0.4365 0.0
H427 H 0.18856 0.16216 0.43242 0.0
C428 C 0.28339 0.22302 0.35553 0.0
C429 C 0.311 0.21867 0.33926 0.0
C430 C 0.32356 0.19206 0.34503 0.0
C431 C 0.30848 0.16966 0.36618 0.0
C432 C 0.2809 0.17428 0.38135 0.0
C433 C 0.26848 0.20031 0.37642 0.0
C434 C 0.23733 0.19858 0.39401 0.0
C435 C 0.23984 0.22372 0.41938 0.0
C436 C 0.21028 0.20012 0.37085 0.0
C437 C 0.23389 0.16724 0.40898 0.0
C438 C 0.25946 0.1538 0.40163 0.0
C439 C 0.26111 0.12439 0.41158 0.0
C440 C 0.23591 0.1082 0.42948 0.0
C441 C 0.20931 0.1214 0.43721 0.0
C442 C 0.20851 0.15142 0.42689 0.0
H443 H 0.29257 0.8161 0.80919 0.0
H444 H 0.19805 0.81793 0.84457 0.0
H445 H 0.22042 0.83995 0.89496 0.0
H446 H 0.33 0.80473 0.88846 0.0
H447 H 0.36598 0.83008 0.87677 0.0
H448 H 0.34244 0.80691 0.84742 0.0
H449 H 0.33972 0.8556 0.81479 0.0
H450 H 0.36288 0.87886 0.84402 0.0
H451 H 0.32467 0.88648 0.83341 0.0
H452 H 0.25292 0.87091 0.93641 0.0
H453 H 0.29255 0.90841 0.96481 0.0
H454 H 0.3659 0.88824 0.90154 0.0
C455 C 0.27652 0.82038 0.82786 0.0
C456 C 0.24357 0.81528 0.82294 0.0
C457 C 0.22334 0.82115 0.84796 0.0
C458 C 0.23586 0.83373 0.87668 0.0
C459 C 0.2686 0.84001 0.88009 0.0
C460 C 0.28866 0.83322 0.85642 0.0
C461 C 0.32285 0.84618 0.8638 0.0
C462 C 0.34141 0.82044 0.86946 0.0
C463 C 0.33841 0.86808 0.83745 0.0
C464 C 0.31878 0.86307 0.89422 0.0
C465 C 0.28744 0.85851 0.90378 0.0
C466 C 0.27761 0.87406 0.92961 0.0
C467 C 0.30027 0.8953 0.94561 0.0
C468 C 0.33223 0.90109 0.93534 0.0
C469 C 0.34161 0.88414 0.90989 0.0
H470 H 0.61863 0.38789 0.71373 0.0
H471 H 0.62944 0.45867 0.78578 0.0
H472 H 0.60925 0.4929 0.74849 0.0
H473 H 0.64166 0.43767 0.64639 0.0
H474 H 0.61294 0.41647 0.61995 0.0
H475 H 0.62828 0.3972 0.65213 0.0
H476 H 0.57138 0.37722 0.67279 0.0
H477 H 0.55587 0.39634 0.64061 0.0
H478 H 0.54574 0.40399 0.68104 0.0
H479 H 0.58941 0.52035 0.70305 0.0
H480 H 0.56801 0.53805 0.65408 0.0
H481 H 0.56791 0.44961 0.61059 0.0
C482 C 0.61682 0.41062 0.72166 0.0
C483 C 0.62567 0.42041 0.75299 0.0
C484 C 0.62253 0.45031 0.76227 0.0
C485 C 0.61125 0.47007 0.74109 0.0
C486 C 0.60287 0.45977 0.71052 0.0
C487 C 0.60522 0.43066 0.70082 0.0
C488 C 0.59393 0.42522 0.66673 0.0
C489 C 0.62081 0.41876 0.64502 0.0
C490 C 0.56501 0.39914 0.66521 0.0
C491 C 0.58504 0.45585 0.65877 0.0
C492 C 0.59066 0.47544 0.68439 0.0
C493 C 0.58482 0.50512 0.68291 0.0
C494 C 0.57269 0.51502 0.65476 0.0
C495 C 0.56611 0.49538 0.62813 0.0
C496 C 0.57254 0.46531 0.63035 0.0
H497 H 0.92931 0.6079 0.25681 0.0
H498 H 0.86605 0.65329 0.20324 0.0
H499 H 0.8851 0.63373 0.15343 0.0
H500 H 0.99439 0.62018 0.19986 0.0
H501 H 1.00461 0.5832 0.20583 0.0
H502 H 0.9866 0.60115 0.23762 0.0
H503 H 0.94203 0.55345 0.24229 0.0
H504 H 0.9599 0.53538 0.21049 0.0
H505 H 0.9193 0.53986 0.20773 0.0
H506 H 0.91139 0.61043 0.10911 0.0
H507 H 0.94161 0.58281 0.07311 0.0
H508 H 0.98699 0.54994 0.15416 0.0
C509 C 0.9196 0.61376 0.23456 0.0
C510 C 0.89597 0.63207 0.23406 0.0
C511 C 0.88379 0.63903 0.20438 0.0
C512 C 0.8946 0.62814 0.17588 0.0
C513 C 0.9176 0.61001 0.17714 0.0
C514 C 0.9299 0.60265 0.20565 0.0
C515 C 0.95395 0.58207 0.20005 0.0
C516 C 0.98684 0.59758 0.21152 0.0
C517 C 0.94314 0.55084 0.21609 0.0
C518 C 0.95324 0.57918 0.16403 0.0
C519 C 0.93224 0.59573 0.15139 0.0
C520 C 0.92779 0.59726 0.11876 0.0
C521 C 0.94517 0.58147 0.09844 0.0
C522 C 0.96665 0.56398 0.11063 0.0
C523 C 0.97059 0.56285 0.144 0.0
H524 H 0.45771 0.22047 0.15323 0.0
H525 H 0.35573 0.19273 0.14788 0.0
H526 H 0.36214 0.14295 0.12607 0.0
H527 H 0.47606 0.18257 0.08074 0.0
H528 H 0.5109 0.17165 0.09689 0.0
H529 H 0.49831 0.20567 0.11096 0.0
H530 H 0.49704 0.18513 0.16858 0.0
H531 H 0.50926 0.15089 0.1546 0.0
H532 H 0.47348 0.14824 0.17783 0.0
H533 H 0.37916 0.09564 0.1069 0.0
H534 H 0.40596 0.05484 0.08761 0.0
H535 H 0.49707 0.11269 0.10569 0.0
C536 C 0.43676 0.20397 0.1473 0.0
C537 C 0.40621 0.21064 0.15203 0.0
C538 C 0.37938 0.18845 0.14387 0.0
C539 C 0.38275 0.15996 0.13177 0.0
C540 C 0.41311 0.15396 0.12791 0.0
C541 C 0.43969 0.17538 0.1351 0.0
C542 C 0.46959 0.163 0.12863 0.0
C543 C 0.48991 0.18184 0.10276 0.0
C544 C 0.48845 0.16174 0.15924 0.0
C545 C 0.4556 0.13122 0.11691 0.0
C546 C 0.42298 0.1265 0.11679 0.0
C547 C 0.4047 0.09905 0.1068 0.0
C548 C 0.42018 0.07597 0.09598 0.0
C549 C 0.45363 0.08048 0.09519 0.0
C550 C 0.47148 0.1084 0.10622 0.0
H551 H 0.05473 0.83841 0.63443 0.0
H552 H 0.10865 0.89076 0.70925 0.0
H553 H 0.08627 0.93546 0.69503 0.0
H554 H 0.06806 0.89449 0.57851 0.0
H555 H 0.02954 0.88674 0.56062 0.0
H556 H 0.04421 0.85666 0.58049 0.0
H557 H 0.99455 0.84684 0.61694 0.0
H558 H 0.97956 0.87684 0.59696 0.0
H559 H 0.98408 0.87797 0.63944 0.0
H560 H 0.06806 0.97688 0.66647 0.0
H561 H 0.05084 1.01153 0.6274 0.0
H562 H 1.00646 0.93356 0.57191 0.0
C563 C 0.06111 0.85903 0.64837 0.0
C564 C 0.08318 0.86076 0.67326 0.0
C565 C 0.09117 0.88836 0.69068 0.0
C566 C 0.0787 0.91408 0.68266 0.0
C567 C 0.05796 0.91194 0.65734 0.0
C568 C 0.04873 0.88502 0.64072 0.0
C569 C 0.02855 0.88983 0.61256 0.0
C570 C 0.0435 0.88145 0.58121 0.0
C571 C 0.99467 0.8718 0.61674 0.0
C572 C 0.02947 0.92394 0.615 0.0
C573 C 0.04635 0.93614 0.64123 0.0
C574 C 0.05391 0.96756 0.64644 0.0
C575 C 0.04423 0.98705 0.62413 0.0
C576 C 0.02685 0.97501 0.59727 0.0
C577 C 0.01883 0.9431 0.59294 0.0
H578 H 0.80449 0.38805 0.95407 0.0
H579 H 0.79061 0.46309 0.89356 0.0
H580 H 0.8367 0.49601 0.91769 0.0
H581 H 0.83025 0.43449 1.02407 0.0
H582 H 0.85918 0.4121 0.0352 0.0
H583 H 0.82425 0.39445 1.01416 0.0
H584 H 0.85915 0.37608 0.97062 0.0
H585 H 0.89416 0.39364 0.99151 0.0
H586 H 0.88903 0.40355 0.95069 0.0
H587 H 0.88618 0.52006 0.94557 0.0
H588 H 0.93464 0.53441 0.97681 0.0
H589 H 0.91704 0.44491 1.02122 0.0
C590 C 0.81108 0.41143 0.94593 0.0
C591 C 0.79354 0.4229 0.92189 0.0
C592 C 0.80307 0.45376 0.91221 0.0
C593 C 0.82943 0.47265 0.92568 0.0
C594 C 0.84619 0.46061 0.94909 0.0
C595 C 0.83733 0.43078 0.95936 0.0
C596 C 0.85984 0.42356 0.98467 0.0
C597 C 0.84233 0.41569 1.01641 0.0
C598 C 0.87653 0.39767 0.97371 0.0
C599 C 0.88297 0.45385 0.98667 0.0
C600 C 0.87456 0.47481 0.96583 0.0
C601 C 0.8928 0.50393 0.96218 0.0
C602 C 0.92042 0.51185 0.98007 0.0
C603 C 0.92971 0.49095 1.00176 0.0
C604 C 0.91041 0.4616 1.00526 0.0
H605 H 0.72752 0.60125 0.4156 0.0
H606 H 0.74102 0.69233 0.45613 0.0
H607 H 0.69661 0.67549 0.49311 0.0
H608 H 0.64377 0.58635 0.41865 0.0
H609 H 0.63946 0.54666 0.42947 0.0
H610 H 0.67372 0.56498 0.40725 0.0
H611 H 0.71017 0.54929 0.4502 0.0
H612 H 0.67596 0.53083 0.4725 0.0
H613 H 0.70505 0.55976 0.49099 0.0
H614 H 0.64844 0.65049 0.52299 0.0
H615 H 0.60063 0.61801 0.5455 0.0
H616 H 0.61819 0.54204 0.48781 0.0
C617 C 0.72147 0.61747 0.43265 0.0
C618 C 0.73773 0.64828 0.43264 0.0
C619 C 0.72872 0.6688 0.45517 0.0
C620 C 0.70359 0.6594 0.47648 0.0
C621 C 0.68761 0.62922 0.47538 0.0
C622 C 0.69628 0.6084 0.45429 0.0
C623 C 0.67425 0.57754 0.45758 0.0
C624 C 0.65677 0.56835 0.42638 0.0
C625 C 0.69245 0.5529 0.46847 0.0
C626 C 0.65169 0.58452 0.48338 0.0
C627 C 0.65995 0.61449 0.49328 0.0
C628 C 0.64195 0.62687 0.51572 0.0
C629 C 0.61473 0.60823 0.52832 0.0
C630 C 0.60567 0.57738 0.5187 0.0
C631 C 0.6247 0.56537 0.49608 0.0
H632 H 0.23947 0.33748 0.15887 0.0
H633 H 0.25985 0.39031 0.24522 0.0
H634 H 0.21053 0.41037 0.23906 0.0
H635 H 0.20669 0.39456 0.11614 0.0
H636 H 0.17706 0.3669 0.09667 0.0
H637 H 0.21398 0.35677 0.1079 0.0
H638 H 0.18354 0.31068 0.13991 0.0
H639 H 0.14653 0.32077 0.12892 0.0
H640 H 0.15563 0.317 0.17021 0.0
H641 H 0.15832 0.42321 0.22461 0.0
H642 H 0.10843 0.43116 0.20061 0.0
H643 H 0.12244 0.37098 0.1229 0.0
C644 C 0.2335 0.35328 0.17643 0.0
C645 C 0.25341 0.36241 0.20251 0.0
C646 C 0.24504 0.38331 0.2249 0.0
C647 C 0.21701 0.39465 0.22171 0.0
C648 C 0.19778 0.38504 0.19586 0.0
C649 C 0.20577 0.36509 0.17342 0.0
C650 C 0.18119 0.35885 0.14758 0.0
C651 C 0.1956 0.36994 0.11516 0.0
C652 C 0.16582 0.3248 0.14662 0.0
C653 C 0.15802 0.37824 0.15915 0.0
C654 C 0.16795 0.39298 0.18716 0.0
C655 C 0.15032 0.41185 0.20266 0.0
C656 C 0.12193 0.41604 0.18899 0.0
C657 C 0.11156 0.40159 0.16001 0.0
C658 C 0.12989 0.3824 0.145 0.0
H659 H 0.63976 0.21736 0.93631 0.0
H660 H 0.55681 0.25443 0.91182 0.0
H661 H 0.52283 0.21051 0.93766 0.0
H662 H 0.6055 0.13857 0.92404 0.0
H663 H 0.62464 0.12448 0.95721 0.0
H664 H 0.64308 0.15925 0.93755 0.0
H665 H 0.64593 0.18819 0.99105 0.0
H666 H 0.62755 0.15348 1.01089 0.0
H667 H 0.61035 0.18724 1.01421 0.0
H668 H 0.49737 0.16246 0.96461 0.0
H669 H 0.48151 0.11313 0.99146 0.0
H670 H 0.58016 0.10562 1.00054 0.0
C671 C 0.61448 0.21646 0.9367 0.0
C672 C 0.6011 0.23956 0.92164 0.0
C673 C 0.56779 0.23703 0.92252 0.0
C674 C 0.54822 0.21218 0.9374 0.0
C675 C 0.56209 0.1898 0.95161 0.0
C676 C 0.59443 0.19164 0.95156 0.0
C677 C 0.60294 0.16396 0.96828 0.0
C678 C 0.62005 0.14547 0.9454 0.0
C679 C 0.62288 0.17381 0.99786 0.0
C680 C 0.5703 0.14622 0.97741 0.0
C681 C 0.54721 0.16176 0.96753 0.0
C682 C 0.51525 0.15013 0.97251 0.0
C683 C 0.50649 0.12185 0.9878 0.0
C684 C 0.52946 0.10507 0.9982 0.0
C685 C 0.56194 0.11772 0.99305 0.0
H686 H 0.88832 0.82778 0.42426 0.0
H687 H 0.97413 0.80195 0.38787 0.0
H688 H 1.00558 0.84918 0.41029 0.0
H689 H 0.91115 0.90781 0.40796 0.0
H690 H 0.89309 0.91993 0.44332 0.0
H691 H 0.87726 0.88349 0.4257 0.0
H692 H 0.88342 0.85651 0.47905 0.0
H693 H 0.89914 0.89293 0.49682 0.0
H694 H 0.92147 0.86257 0.49791 0.0
H695 H 0.02792 0.89914 0.43687 0.0
H696 H 0.03942 0.94901 0.46409 0.0
H697 H 0.93913 0.94391 0.48186 0.0
C698 C 0.91377 0.8319 0.42135 0.0
C699 C 0.92876 0.81101 0.40433 0.0
C700 C 0.96208 0.81761 0.40059 0.0
C701 C 0.98016 0.84434 0.41337 0.0
C702 C 0.96467 0.86453 0.42974 0.0
C703 C 0.93221 0.85872 0.43371 0.0
C704 C 0.9214 0.88473 0.45147 0.0
C705 C 0.89943 0.89988 0.43087 0.0
C706 C 0.90542 0.87351 0.48319 0.0
C707 C 0.95283 0.90608 0.45675 0.0
C708 C 0.97748 0.89382 0.44425 0.0
C709 C 1.00877 0.90898 0.44664 0.0
C710 C 0.01507 0.93735 0.46219 0.0
C711 C 0.99024 0.95063 0.47496 0.0
C712 C 0.95867 0.93465 0.47205 0.0
H713 H 0.2662 0.69189 0.68673 0.0
H714 H 0.2161 0.67197 0.5982 0.0
H715 H 0.25603 0.64205 0.58035 0.0
H716 H 0.34068 0.70561 0.6541 0.0
H717 H 0.35957 0.6891 0.68589 0.0
H718 H 0.32454 0.70441 0.69382 0.0
H719 H 0.29682 0.65251 0.71752 0.0
H720 H 0.33196 0.63705 0.70996 0.0
H721 H 0.29456 0.61816 0.69433 0.0
H722 H 0.30447 0.61924 0.57013 0.0
H723 H 0.35738 0.6055 0.56807 0.0
H724 H 0.37617 0.64209 0.66289 0.0
C725 C 0.26292 0.68025 0.66409 0.0
C726 C 0.23778 0.68377 0.64403 0.0
C727 C 0.23507 0.6693 0.61399 0.0
C728 C 0.25757 0.65223 0.60374 0.0
C729 C 0.28256 0.64991 0.62383 0.0
C730 C 0.28524 0.66342 0.65346 0.0
C731 C 0.31586 0.66021 0.66923 0.0
C732 C 0.33636 0.6917 0.67614 0.0
C733 C 0.30941 0.64082 0.69956 0.0
C734 C 0.33047 0.64351 0.64351 0.0
C735 C 0.31075 0.6374 0.61768 0.0
C736 C 0.31994 0.62364 0.59035 0.0
C737 C 0.35015 0.61617 0.5893 0.0
C738 C 0.37096 0.62275 0.61531 0.0
C739 C 0.36066 0.63624 0.64286 0.0
H740 H 0.81043 0.8357 0.71914 0.0
H741 H 0.71222 0.84139 0.7052 0.0
H742 H 0.72422 0.85672 0.64951 0.0
H743 H 0.84092 0.89938 0.68486 0.0
H744 H 0.87469 0.88807 0.66606 0.0
H745 H 0.85711 0.86798 0.70045 0.0
H746 H 0.84895 0.81684 0.66958 0.0
H747 H 0.86694 0.83685 0.63489 0.0
H748 H 0.8281 0.81339 0.63249 0.0
H749 H 0.7488 0.88428 0.60188 0.0
H750 H 0.78349 0.92065 0.5668 0.0
H751 H 0.86574 0.89679 0.61133 0.0
C752 C 0.7911 0.83841 0.70385 0.0
C753 C 0.76038 0.83716 0.71638 0.0
C754 C 0.73593 0.84218 0.69602 0.0
C755 C 0.74251 0.85069 0.66428 0.0
C756 C 0.77356 0.85365 0.65317 0.0
C757 C 0.79739 0.84709 0.67225 0.0
C758 C 0.82957 0.85716 0.65687 0.0
C759 C 0.85182 0.87948 0.67832 0.0
C760 C 0.84425 0.8294 0.64792 0.0
C761 C 0.8204 0.87286 0.62756 0.0
C762 C 0.78794 0.86975 0.62525 0.0
C763 C 0.77417 0.88606 0.60284 0.0
C764 C 0.79403 0.90682 0.58314 0.0
C765 C 0.82727 0.91127 0.58619 0.0
C766 C 0.84045 0.8931 0.60776 0.0
H767 H 0.77534 0.19299 0.25207 0.0
H768 H 0.79155 0.27041 0.18773 0.0
H769 H 0.75254 0.2419 0.15063 0.0
H770 H 0.76476 0.13387 0.19182 0.0
H771 H 0.7344 0.10914 0.21416 0.0
H772 H 0.76472 0.13519 0.23457 0.0
H773 H 0.72177 0.15841 0.2642 0.0
H774 H 0.69133 0.13251 0.24383 0.0
H775 H 0.69256 0.17312 0.24166 0.0
H776 H 0.70965 0.20539 0.12183 0.0
H777 H 0.66808 0.16332 0.1029 0.0
H778 H 0.67964 0.11099 0.18733 0.0
C779 C 0.77071 0.20397 0.23017 0.0
C780 C 0.7864 0.23393 0.22279 0.0
C781 C 0.78001 0.24734 0.19369 0.0
C782 C 0.75779 0.2314 0.17257 0.0
C783 C 0.74237 0.20205 0.18088 0.0
C784 C 0.74873 0.18843 0.20891 0.0
C785 C 0.72866 0.15693 0.21264 0.0
C786 C 0.74938 0.13234 0.21333 0.0
C787 C 0.70731 0.15516 0.24234 0.0
C788 C 0.70962 0.15506 0.18255 0.0
C789 C 0.71788 0.18121 0.16444 0.0
C790 C 0.70307 0.18477 0.13579 0.0
C791 C 0.67933 0.16086 0.12535 0.0
C792 C 0.67065 0.1338 0.14357 0.0
C793 C 0.68605 0.13111 0.17257 0.0
H794 H 0.44217 0.5934 0.32627 0.0
H795 H 0.38468 0.65176 0.37146 0.0
H796 H 0.39932 0.63478 0.42401 0.0
H797 H 0.42461 0.53064 0.38242 0.0
H798 H 0.46407 0.52256 0.38166 0.0
H799 H 0.44898 0.53893 0.34733 0.0
H800 H 0.4968 0.58381 0.34803 0.0
H801 H 0.51206 0.56756 0.38232 0.0
H802 H 0.50522 0.60622 0.38363 0.0
H803 H 0.41936 0.61116 0.47183 0.0
H804 H 0.44524 0.58462 0.51185 0.0
H805 H 0.49143 0.54154 0.43704 0.0
C806 C 0.43249 0.60248 0.34721 0.0
C807 C 0.41217 0.62407 0.34448 0.0
C808 C 0.40049 0.63557 0.37267 0.0
C809 C 0.40854 0.62587 0.40273 0.0
C810 C 0.42854 0.60467 0.40454 0.0
C811 C 0.44055 0.5932 0.37758 0.0
C812 C 0.46217 0.57111 0.38641 0.0
C813 C 0.44917 0.5389 0.37369 0.0
C814 C 0.49607 0.58289 0.37438 0.0
C815 C 0.46035 0.57192 0.42253 0.0
C816 C 0.44062 0.59135 0.43233 0.0
C817 C 0.4349 0.59596 0.46438 0.0
C818 C 0.44981 0.58062 0.48704 0.0
C819 C 0.47059 0.56079 0.47793 0.0
C820 C 0.47574 0.5564 0.44501 0.0
H821 H 0.12277 0.45103 0.83495 0.0
H822 H 0.11281 0.35799 0.86979 0.0
H823 H 0.09177 0.37339 0.92039 0.0
H824 H 0.14665 0.48835 0.91066 0.0
H825 H 0.1249 0.51872 0.905 0.0
H826 H 0.13984 0.50094 0.87113 0.0
H827 H 0.08349 0.48833 0.84793 0.0
H828 H 0.0684 0.50609 0.88169 0.0
H829 H 0.05171 0.46712 0.87159 0.0
H830 H 0.07077 0.39758 0.96676 0.0
H831 H 0.05041 0.42939 1.00661 0.0
H832 H 0.07375 0.50805 0.94416 0.0
C833 C 0.11634 0.43397 0.85331 0.0
C834 C 0.11913 0.40307 0.84794 0.0
C835 C 0.1103 0.38156 0.87274 0.0
C836 C 0.09853 0.39015 0.90182 0.0
C837 C 0.09573 0.42049 0.90618 0.0
C838 C 0.10436 0.44218 0.88275 0.0
C839 C 0.09824 0.47316 0.89388 0.0
C840 C 0.12926 0.49669 0.89525 0.0
C841 C 0.07402 0.48433 0.8725 0.0
C842 C 0.0847 0.46531 0.92705 0.0
C843 C 0.08363 0.43474 0.93348 0.0
C844 C 0.07156 0.42158 0.96204 0.0
C845 C 0.05993 0.43993 0.98457 0.0
C846 C 0.06035 0.47135 0.97874 0.0
C847 C 0.07329 0.48423 0.94956 0.0
H848 H 0.65788 0.89164 0.96312 0.0
H849 H 0.62506 0.8873 0.86593 0.0
H850 H 0.58047 0.91173 0.88221 0.0
H851 H 0.57937 0.87909 1.00189 0.0
H852 H 0.59295 0.9056 1.03336 0.0
H853 H 0.61989 0.88451 1.01457 0.0
H854 H 0.65805 0.93534 1.00148 0.0
H855 H 0.63117 0.95657 1.01998 0.0
H856 H 0.64369 0.96449 0.97942 0.0
H857 H 0.5427 0.94165 0.9083 0.0
H858 H 0.51372 0.97243 0.94252 0.0
H859 H 0.57209 0.95722 1.02214 0.0
C860 C 0.64108 0.89545 0.94532 0.0
C861 C 0.64489 0.88747 0.91328 0.0
C862 C 0.62233 0.89276 0.89072 0.0
C863 C 0.59703 0.90679 0.89971 0.0
C864 C 0.5945 0.91515 0.93136 0.0
C865 C 0.61576 0.90939 0.95387 0.0
C866 C 0.60893 0.92208 0.98594 0.0
C867 C 0.59973 0.89628 1.01038 0.0
C868 C 0.63713 0.94604 0.99735 0.0
C869 C 0.58101 0.93661 0.9778 0.0
C870 C 0.57283 0.93224 0.9463 0.0
C871 C 0.54864 0.94488 0.93311 0.0
C872 C 0.53239 0.96242 0.9527 0.0
C873 C 0.54053 0.96719 0.98504 0.0
C874 C 0.56504 0.95386 0.99761 0.0
H875 H 0.91944 0.20786 0.42149 0.0
H876 H 0.97525 0.21104 0.33484 0.0
H877 H 1.00171 0.17071 0.356 0.0
H878 H 0.98012 0.19424 0.47529 0.0
H879 H 0.95269 0.16888 0.50017 0.0
H880 H 0.93957 0.19901 0.47863 0.0
H881 H 0.89547 0.15925 0.45256 0.0
H882 H 0.90847 0.12903 0.47398 0.0
H883 H 0.90593 0.12737 0.43133 0.0
H884 H 0.02094 0.12837 0.38673 0.0
H885 H 0.03071 0.08822 0.42401 0.0
H886 H 0.9608 0.11295 0.489 0.0
C887 C 0.93715 0.20006 0.40686 0.0
C888 C 0.94524 0.21264 0.37649 0.0
C889 C 0.96892 0.20204 0.35836 0.0
C890 C 0.98397 0.17903 0.37011 0.0
C891 C 0.97514 0.16691 0.40004 0.0
C892 C 0.9523 0.17717 0.41815 0.0
C893 C 0.94646 0.16013 0.44925 0.0
C894 C 0.95524 0.18186 0.4775 0.0
C895 C 0.91205 0.14292 0.45191 0.0
C896 C 0.96922 0.13832 0.44568 0.0
C897 C 0.98579 0.14261 0.41732 0.0
C898 C 1.00809 0.12485 0.40903 0.0
C899 C 1.01348 0.10211 0.43032 0.0
C900 C 0.99643 0.09726 0.45936 0.0
C901 C 0.97415 0.1158 0.46695 0.0
H902 H 0.22764 0.63947 0.15285 0.0
H903 H 0.26598 0.55675 0.16256 0.0
H904 H 0.21741 0.5267 0.13945 0.0
H905 H 0.14491 0.60542 0.16972 0.0
H906 H 0.12945 0.62793 0.14039 0.0
H907 H 0.16643 0.64289 0.15938 0.0
H908 H 0.19394 0.65157 0.10438 0.0
H909 H 0.15709 0.6365 0.08524 0.0
H910 H 0.19145 0.61998 0.07717 0.0
H911 H 0.16515 0.50542 0.11508 0.0
H912 H 0.11322 0.49428 0.08938 0.0
H913 H 0.10828 0.59071 0.09233 0.0
C914 C 0.22552 0.61498 0.15044 0.0
C915 C 0.25055 0.60037 0.15974 0.0
C916 C 0.24715 0.56837 0.15566 0.0
C917 C 0.21961 0.55111 0.14258 0.0
C918 C 0.19558 0.56613 0.13328 0.0
C919 C 0.1982 0.59735 0.13687 0.0
C920 C 0.16922 0.60779 0.12358 0.0
C921 C 0.15145 0.62184 0.14983 0.0
C922 C 0.17849 0.63029 0.09595 0.0
C923 C 0.15001 0.57761 0.11199 0.0
C924 C 0.16566 0.5539 0.11812 0.0
C925 C 0.15273 0.52384 0.11008 0.0
C926 C 0.12309 0.51774 0.09543 0.0
C927 C 0.10647 0.54155 0.08854 0.0
C928 C 0.12034 0.57196 0.09697 0.0
H929 H 0.31151 0.44856 0.68181 0.0
H930 H 0.27388 0.37784 0.61409 0.0
H931 H 0.32033 0.39433 0.57938 0.0
H932 H 0.34641 0.50609 0.62362 0.0
H933 H 0.38056 0.52004 0.64749 0.0
H934 H 0.34346 0.50381 0.66628 0.0
H935 H 0.37065 0.4652 0.69619 0.0
H936 H 0.40778 0.48125 0.67741 0.0
H937 H 0.39206 0.44096 0.67394 0.0
H938 H 0.37244 0.41707 0.55278 0.0
H939 H 0.42519 0.44506 0.53619 0.0
H940 H 0.42932 0.50048 0.62142 0.0
C941 C 0.31293 0.43654 0.65966 0.0
C942 C 0.28866 0.41194 0.65075 0.0
C943 C 0.29163 0.3971 0.62135 0.0
C944 C 0.31813 0.40616 0.60149 0.0
C945 C 0.34167 0.43022 0.61116 0.0
C946 C 0.33925 0.44534 0.63948 0.0
C947 C 0.36818 0.47013 0.64458 0.0
C948 C 0.3591 0.50189 0.64555 0.0
C949 C 0.3857 0.464 0.67482 0.0
C950 C 0.38742 0.46625 0.61498 0.0
C951 C 0.37167 0.4432 0.59593 0.0
C952 C 0.38492 0.43524 0.56749 0.0
C953 C 0.41497 0.45126 0.55827 0.0
C954 C 0.43163 0.475 0.57742 0.0
C955 C 0.41742 0.48246 0.60615 0.0
H956 H 0.86626 0.76405 0.88438 0.0
H957 H 0.79847 0.75246 0.96236 0.0
H958 H 0.82714 0.7158 0.9876 0.0
H959 H 0.8778 0.68572 0.88137 0.0
H960 H 0.91941 0.69627 0.87233 0.0
H961 H 0.8927 0.7205 0.85992 0.0
H962 H 0.92647 0.76623 0.88933 0.0
H963 H 0.95319 0.74211 0.90195 0.0
H964 H 0.93444 0.76277 0.93094 0.0
H965 H 0.8646 0.68222 1.00533 0.0
H966 H 0.90714 0.65301 1.01365 0.0
H967 H 0.95028 0.6866 0.92383 0.0
C968 C 0.85745 0.75387 0.90681 0.0
C969 C 0.83015 0.76116 0.92146 0.0
C970 C 0.81913 0.74696 0.95056 0.0
C971 C 0.83536 0.72627 0.96514 0.0
C972 C 0.86244 0.71995 0.95023 0.0
C973 C 0.87331 0.73321 0.92164 0.0
C974 C 0.90321 0.72289 0.91073 0.0
C975 C 0.89795 0.7053 0.87922 0.0
C976 C 0.93097 0.75012 0.9081 0.0
C977 C 0.90771 0.70199 0.93785 0.0
C978 C 0.8839 0.70053 0.96035 0.0
C979 C 0.88321 0.68298 0.98774 0.0
C980 C 0.90741 0.66636 0.99217 0.0
C981 C 0.93198 0.66736 0.96931 0.0
C982 C 0.93202 0.68553 0.94186 0.0
H983 H 0.44837 0.81846 0.18654 0.0
H984 H 0.36088 0.78699 0.13598 0.0
H985 H 0.3696 0.83473 0.10541 0.0
H986 H 0.44179 0.89924 0.18989 0.0
H987 H 0.48344 0.91314 0.18347 0.0
H988 H 0.47013 0.8769 0.20284 0.0
H989 H 0.50023 0.85042 0.16108 0.0
H990 H 0.51363 0.88656 0.14159 0.0
H991 H 0.49248 0.85461 0.11951 0.0
H992 H 0.38821 0.88404 0.07812 0.0
H993 H 0.41519 0.93312 0.05618 0.0
H994 H 0.49134 0.93536 0.12342 0.0
C995 C 0.43098 0.82164 0.16913 0.0
C996 C 0.40358 0.79876 0.16422 0.0
C997 C 0.38158 0.80414 0.14104 0.0
C998 C 0.38646 0.83122 0.12325 0.0
C999 C 0.41351 0.85311 0.12867 0.0
C1000 C 0.43543 0.84883 0.15106 0.0
C1001 C 0.46274 0.87618 0.15149 0.0
C1002 C 0.46463 0.89232 0.18385 0.0
C1003 C 0.49413 0.86634 0.1429 0.0
C1004 C 0.45283 0.8962 0.12557 0.0
C1005 C 0.4243 0.88221 0.11286 0.0
C1006 C 0.41046 0.89529 0.08802 0.0
C1007 C 0.42613 0.92327 0.07563 0.0
C1008 C 0.45547 0.93838 0.08798 0.0
C1009 C 0.46883 0.92467 0.11363 0.0
H1010 H 0.13705 0.23354 0.63076 0.0
H1011 H 0.05822 0.24623 0.69095 0.0
H1012 H 0.02509 0.20089 0.66673 0.0
H1013 H 0.09062 0.20784 0.56081 0.0
H1014 H 0.11468 0.18045 0.54968 0.0
H1015 H 0.13187 0.21447 0.57106 0.0
H1016 H 0.1509 0.18124 0.61449 0.0
H1017 H 0.1337 0.14715 0.59328 0.0
H1018 H 0.12263 0.15198 0.63407 0.0
H1019 H 1.00116 0.15221 0.63775 0.0
H1020 H 0.98773 0.1059 0.60456 0.0
H1021 H 0.08177 0.12525 0.5625 0.0
C1022 C 0.11281 0.22683 0.63886 0.0
C1023 C 0.10031 0.24367 0.66283 0.0
C1024 C 0.06832 0.23412 0.67239 0.0
C1025 C 0.04933 0.20822 0.65889 0.0
C1026 C 0.06248 0.19203 0.63559 0.0
C1027 C 0.09343 0.20112 0.62546 0.0
C1028 C 0.10186 0.17964 0.60013 0.0
C1029 C 0.11025 0.19662 0.56855 0.0
C1030 C 0.12887 0.16408 0.61116 0.0
C1031 C 0.07096 0.15687 0.59784 0.0
C1032 C 0.04856 0.16438 0.61855 0.0
C1033 C 0.01848 0.14627 0.62129 0.0
C1034 C 1.01108 0.11991 0.60236 0.0
C1035 C 0.03356 0.11183 0.58073 0.0
C1036 C 0.06388 0.13079 0.57854 0.0
H1037 H 0.74462 0.3439 0.37433 0.0
H1038 H 0.81637 0.37394 0.44501 0.0
H1039 H 0.77684 0.39357 0.4781 0.0
H1040 H 0.70737 0.40813 0.37961 0.0
H1041 H 0.66804 0.38646 0.37409 0.0
H1042 H 0.70147 0.37302 0.35726 0.0
H1043 H 0.6845 0.32141 0.38672 0.0
H1044 H 0.65103 0.33475 0.40373 0.0
H1045 H 0.67886 0.32125 0.42917 0.0
H1046 H 0.72974 0.41207 0.5022 0.0
H1047 H 0.6792 0.42796 0.51532 0.0
H1048 H 0.63928 0.38721 0.42763 0.0
C1049 C 0.75211 0.35466 0.39674 0.0
C1050 C 0.78365 0.35744 0.40704 0.0
C1051 C 0.79228 0.37125 0.43677 0.0
C1052 C 0.77002 0.38257 0.45567 0.0
C1053 C 0.73922 0.37975 0.44456 0.0
C1054 C 0.73027 0.36606 0.4158 0.0
C1055 C 0.69602 0.36666 0.40874 0.0
C1056 C 0.69307 0.38465 0.37812 0.0
C1057 C 0.67645 0.33408 0.40699 0.0
C1058 C 0.68718 0.38337 0.43773 0.0
C1059 C 0.71231 0.39053 0.45826 0.0
C1060 C 0.70991 0.40653 0.48632 0.0
C1061 C 0.68115 0.41563 0.49346 0.0
C1062 C 0.65519 0.40888 0.47252 0.0
C1063 C 0.6584 0.39232 0.44443 0.0
loop_
_geom_bond_atom_site_label_1
_geom_bond_atom_site_label_2
_geom_bond_distance
_geom_bond_site_symmetry_2
_ccdc_geom_bond_type
P0 O11 1.490 . S
P0 C14 1.812 . S
P0 C20 1.803 . S
P0 C26 1.819 . S
H1 C15 0.941 . S
H2 C16 0.939 . S
H3 C18 0.940 . S
H4 C19 0.940 . S
H5 C21 0.939 . S
H6 C22 0.942 . S
H7 C24 0.940 . S
H8 C25 0.939 . S
H9 C27 0.941 . S
H10 C31 0.939 . S
O11 P0 1.490 . S
H12 C28 0.939 . S
H13 C30 0.940 . S
C14 P0 1.812 . S
C14 C15 1.389 . S
C14 C19 1.391 . S
C15 H1 0.941 . S
C15 C14 1.389 . S
C15 C16 1.397 . S
C16 H2 0.939 . S
C16 C15 1.397 . S
C16 C17 1.378 . S
C17 C16 1.378 . S
C17 C18 1.378 . S
C18 H3 0.940 . S
C18 C17 1.378 . S
C18 C19 1.396 . S
C19 H4 0.940 . S
C19 C14 1.391 . S
C19 C18 1.396 . S
C20 P0 1.803 . S
C20 C21 1.378 . S
C20 C25 1.400 . S
C21 H5 0.939 . S
C21 C20 1.378 . S
C21 C22 1.361 . S
C22 H6 0.942 . S
C22 C21 1.361 . S
C22 C23 1.369 . S
C23 C22 1.369 . S
C23 C24 1.404 . S
C24 H7 0.940 . S
C24 C23 1.404 . S
C24 C25 1.389 . S
C25 H8 0.939 . S
C25 C20 1.400 . S
C25 C24 1.389 . S
C26 P0 1.819 . S
C26 C27 1.391 . S
C26 C31 1.391 . S
C27 H9 0.941 . S
C27 C26 1.391 . S
C27 C28 1.396 . S
C28 H12 0.939 . S
C28 C27 1.396 . S
C28 C29 1.397 . S
C29 C28 1.397 . S
C29 C30 1.385 . S
C30 H13 0.940 . S
C30 C29 1.385 . S
C30 C31 1.388 . S
C31 H10 0.939 . S
C31 C26 1.391 . S
C31 C30 1.388 . S
P32 O43 1.490 . S
P32 C46 1.812 . S
P32 C52 1.803 . S
P32 C58 1.819 . S
H33 C47 0.941 . S
H34 C48 0.939 . S
H35 C50 0.940 . S
H36 C51 0.940 . S
H37 C53 0.939 . S
H38 C54 0.942 . S
H39 C56 0.940 . S
H40 C57 0.939 . S
H41 C59 0.941 . S
H42 C63 0.939 . S
O43 P32 1.490 . S
H44 C60 0.939 . S
H45 C62 0.940 . S
C46 P32 1.812 . S
C46 C47 1.389 . S
C46 C51 1.391 . S
C47 H33 0.941 . S
C47 C46 1.389 . S
C47 C48 1.397 . S
C48 H34 0.939 . S
C48 C47 1.397 . S
C48 C49 1.378 . S
C49 C48 1.378 . S
C49 C50 1.378 . S
C50 H35 0.940 . S
C50 C49 1.378 . S
C50 C51 1.396 . S
C51 H36 0.940 . S
C51 C46 1.391 . S
C51 C50 1.396 . S
C52 P32 1.803 . S
C52 C53 1.378 . S
C52 C57 1.400 . S
C53 H37 0.939 . S
C53 C52 1.378 . S
C53 C54 1.361 . S
C54 H38 0.942 . S
C54 C53 1.361 . S
C54 C55 1.369 . S
C55 C54 1.369 . S
C55 C56 1.404 . S
C56 H39 0.940 . S
C56 C55 1.404 . S
C56 C57 1.389 . S
C57 H40 0.939 . S
C57 C52 1.400 . S
C57 C56 1.389 . S
C58 P32 1.819 . S
C58 C59 1.391 . S
C58 C63 1.391 . S
C59 H41 0.941 . S
C59 C58 1.391 . S
C59 C60 1.396 . S
C60 H44 0.939 . S
C60 C59 1.396 . S
C60 C61 1.397 . S
C61 C60 1.397 . S
C61 C62 1.385 . S
C62 H45 0.940 . S
C62 C61 1.385 . S
C62 C63 1.388 . S
C63 H42 0.939 . S
C63 C58 1.391 . S
C63 C62 1.388 . S
P64 O75 1.490 . S
P64 C78 1.812 . S
P64 C84 1.803 . S
P64 C90 1.819 . S
H65 C79 0.941 . S
H66 C80 0.939 . S
H67 C82 0.940 . S
H68 C83 0.940 . S
H69 C85 0.939 . S
H70 C86 0.942 . S
H71 C88 0.940 . S
H72 C89 0.939 . S
H73 C91 0.941 . S
H74 C95 0.939 . S
O75 P64 1.490 . S
H76 C92 0.939 . S
H77 C94 0.940 . S
C78 P64 1.812 . S
C78 C79 1.389 . S
C78 C83 1.391 . S
C79 H65 0.941 . S
C79 C78 1.389 . S
C79 C80 1.397 . S
C80 H66 0.939 . S
C80 C79 1.397 . S
C80 C81 1.378 . S
C81 C80 1.378 . S
C81 C82 1.378 . S
C82 H67 0.940 . S
C82 C81 1.378 . S
C82 C83 1.396 . S
C83 H68 0.940 . S
C83 C78 1.391 . S
C83 C82 1.396 . S
C84 P64 1.803 . S
C84 C85 1.378 . S
C84 C89 1.400 . S
C85 H69 0.939 . S
C85 C84 1.378 . S
C85 C86 1.361 . S
C86 H70 0.942 . S
C86 C85 1.361 . S
C86 C87 1.369 . S
C87 C86 1.369 . S
C87 C88 1.404 . S
C88 H71 0.940 . S
C88 C87 1.404 . S
C88 C89 1.389 . S
C89 H72 0.939 . S
C89 C84 1.400 . S
C89 C88 1.389 . S
C90 P64 1.819 . S
C90 C91 1.391 . S
C90 C95 1.391 . S
C91 H73 0.941 . S
C91 C90 1.391 . S
C91 C92 1.396 . S
C92 H76 0.939 . S
C92 C91 1.396 . S
C92 C93 1.397 . S
C93 C92 1.397 . S
C93 C94 1.385 . S
C94 H77 0.940 . S
C94 C93 1.385 . S
C94 C95 1.388 . S
C95 H74 0.939 . S
C95 C90 1.391 . S
C95 C94 1.388 . S
P96 O107 1.490 . S
P96 C110 1.812 . S
P96 C116 1.803 . S
P96 C122 1.819 . S
H97 C111 0.941 . S
H98 C112 0.939 . S
H99 C114 0.940 . S
H100 C115 0.940 . S
H101 C117 0.939 . S
H102 C118 0.942 . S
H103 C120 0.940 . S
H104 C121 0.939 . S
H105 C123 0.941 . S
H106 C127 0.939 . S
O107 P96 1.490 . S
H108 C124 0.939 . S
H109 C126 0.940 . S
C110 P96 1.812 . S
C110 C111 1.389 . S
C110 C115 1.391 . S
C111 H97 0.941 . S
C111 C110 1.389 . S
C111 C112 1.397 . S
C112 H98 0.939 . S
C112 C111 1.397 . S
C112 C113 1.378 . S
C113 C112 1.378 . S
C113 C114 1.378 . S
C114 H99 0.940 . S
C114 C113 1.378 . S
C114 C115 1.396 . S
C115 H100 0.940 . S
C115 C110 1.391 . S
C115 C114 1.396 . S
C116 P96 1.803 . S
C116 C117 1.378 . S
C116 C121 1.400 . S
C117 H101 0.939 . S
C117 C116 1.378 . S
C117 C118 1.361 . S
C118 H102 0.942 . S
C118 C117 1.361 . S
C118 C119 1.369 . S
C119 C118 1.369 . S
C119 C120 1.404 . S
C120 H103 0.940 . S
C120 C119 1.404 . S
C120 C121 1.389 . S
C121 H104 0.939 . S
C121 C116 1.400 . S
C121 C120 1.389 . S
C122 P96 1.819 . S
C122 C123 1.391 . S
C122 C127 1.391 . S
C123 H105 0.941 . S
C123 C122 1.391 . S
C123 C124 1.396 . S
C124 H108 0.939 . S
C124 C123 1.396 . S
C124 C125 1.397 . S
C125 C124 1.397 . S
C125 C126 1.385 . S
C126 H109 0.940 . S
C126 C125 1.385 . S
C126 C127 1.388 . S
C127 H106 0.939 . S
C127 C122 1.391 . S
C127 C126 1.388 . S
P128 O139 1.490 . S
P128 C142 1.812 . S
P128 C148 1.803 . S
P128 C154 1.819 . S
H129 C143 0.941 . S
H130 C144 0.939 . S
H131 C146 0.940 . S
H132 C147 0.940 . S
H133 C149 0.939 . S
H134 C150 0.942 . S
H135 C152 0.940 . S
H136 C153 0.939 . S
H137 C155 0.941 . S
H138 C159 0.939 . S
O139 P128 1.490 . S
H140 C156 0.939 . S
H141 C158 0.940 . S
C142 P128 1.812 . S
C142 C143 1.389 . S
C142 C147 1.391 . S
C143 H129 0.941 . S
C143 C142 1.389 . S
C143 C144 1.397 . S
C144 H130 0.939 . S
C144 C143 1.397 . S
C144 C145 1.378 . S
C145 C144 1.378 . S
C145 C146 1.378 . S
C146 H131 0.940 . S
C146 C145 1.378 . S
C146 C147 1.396 . S
C147 H132 0.940 . S
C147 C142 1.391 . S
C147 C146 1.396 . S
C148 P128 1.803 . S
C148 C149 1.378 . S
C148 C153 1.400 . S
C149 H133 0.939 . S
C149 C148 1.378 . S
C149 C150 1.361 . S
C150 H134 0.942 . S
C150 C149 1.361 . S
C150 C151 1.369 . S
C151 C150 1.369 . S
C151 C152 1.404 . S
C152 H135 0.940 . S
C152 C151 1.404 . S
C152 C153 1.389 . S
C153 H136 0.939 . S
C153 C148 1.400 . S
C153 C152 1.389 . S
C154 P128 1.819 . S
C154 C155 1.391 . S
C154 C159 1.391 . S
C155 H137 0.941 . S
C155 C154 1.391 . S
C155 C156 1.396 . S
C156 H140 0.939 . S
C156 C155 1.396 . S
C156 C157 1.397 . S
C157 C156 1.397 . S
C157 C158 1.385 . S
C158 H141 0.940 . S
C158 C157 1.385 . S
C158 C159 1.388 . S
C159 H138 0.939 . S
C159 C154 1.391 . S
C159 C158 1.388 . S
P160 O171 1.490 . S
P160 C174 1.812 . S
P160 C180 1.803 . S
P160 C186 1.819 . S
H161 C175 0.941 . S
H162 C176 0.939 . S
H163 C178 0.940 . S
H164 C179 0.940 . S
H165 C181 0.939 . S
H166 C182 0.942 . S
H167 C184 0.940 . S
H168 C185 0.939 . S
H169 C187 0.941 . S
H170 C191 0.939 . S
O171 P160 1.490 . S
H172 C188 0.939 . S
H173 C190 0.940 . S
C174 P160 1.812 . S
C174 C175 1.389 . S
C174 C179 1.391 . S
C175 H161 0.941 . S
C175 C174 1.389 . S
C175 C176 1.397 . S
C176 H162 0.939 . S
C176 C175 1.397 . S
C176 C177 1.378 . S
C177 C176 1.378 . S
C177 C178 1.378 . S
C178 H163 0.940 . S
C178 C177 1.378 . S
C178 C179 1.396 . S
C179 H164 0.940 . S
C179 C174 1.391 . S
C179 C178 1.396 . S
C180 P160 1.803 . S
C180 C181 1.378 . S
C180 C185 1.400 . S
C181 H165 0.939 . S
C181 C180 1.378 . S
C181 C182 1.361 . S
C182 H166 0.942 . S
C182 C181 1.361 . S
C182 C183 1.369 . S
C183 C182 1.369 . S
C183 C184 1.404 . S
C184 H167 0.940 . S
C184 C183 1.404 . S
C184 C185 1.389 . S
C185 H168 0.939 . S
C185 C180 1.400 . S
C185 C184 1.389 . S
C186 P160 1.819 . S
C186 C187 1.391 . S
C186 C191 1.391 . S
C187 H169 0.941 . S
C187 C186 1.391 . S
C187 C188 1.396 . S
C188 H172 0.939 . S
C188 C187 1.396 . S
C188 C189 1.397 . S
C189 C188 1.397 . S
C189 C190 1.385 . S
C190 H173 0.940 . S
C190 C189 1.385 . S
C190 C191 1.388 . S
C191 H170 0.939 . S
C191 C186 1.391 . S
C191 C190 1.388 . S
P192 O203 1.490 . S
P192 C206 1.812 . S
P192 C212 1.803 . S
P192 C218 1.819 . S
H193 C207 0.941 . S
H194 C208 0.939 . S
H195 C210 0.940 . S
H196 C211 0.940 . S
H197 C213 0.939 . S
H198 C214 0.942 . S
H199 C216 0.940 . S
H200 C217 0.939 . S
H201 C219 0.941 . S
H202 C223 0.939 . S
O203 P192 1.490 . S
H204 C220 0.939 . S
H205 C222 0.940 . S
C206 P192 1.812 . S
C206 C207 1.389 . S
C206 C211 1.391 . S
C207 H193 0.941 . S
C207 C206 1.389 . S
C207 C208 1.397 . S
C208 H194 0.939 . S
C208 C207 1.397 . S
C208 C209 1.378 . S
C209 C208 1.378 . S
C209 C210 1.378 . S
C210 H195 0.940 . S
C210 C209 1.378 . S
C210 C211 1.396 . S
C211 H196 0.940 . S
C211 C206 1.391 . S
C211 C210 1.396 . S
C212 P192 1.803 . S
C212 C213 1.378 . S
C212 C217 1.400 . S
C213 H197 0.939 . S
C213 C212 1.378 . S
C213 C214 1.361 . S
C214 H198 0.942 . S
C214 C213 1.361 . S
C214 C215 1.369 . S
C215 C214 1.369 . S
C215 C216 1.404 . S
C216 H199 0.940 . S
C216 C215 1.404 . S
C216 C217 1.389 . S
C217 H200 0.939 . S
C217 C212 1.400 . S
C217 C216 1.389 . S
C218 P192 1.819 . S
C218 C219 1.391 . S
C218 C223 1.391 . S
C219 H201 0.941 . S
C219 C218 1.391 . S
C219 C220 1.396 . S
C220 H204 0.939 . S
C220 C219 1.396 . S
C220 C221 1.397 . S
C221 C220 1.397 . S
C221 C222 1.385 . S
C222 H205 0.940 . S
C222 C221 1.385 . S
C222 C223 1.388 . S
C223 H202 0.939 . S
C223 C218 1.391 . S
C223 C222 1.388 . S
P224 O235 1.490 . S
P224 C238 1.812 . S
P224 C244 1.803 . S
P224 C250 1.819 . S
H225 C239 0.941 . S
H226 C240 0.939 . S
H227 C242 0.940 . S
H228 C243 0.940 . S
H229 C245 0.939 . S
H230 C246 0.942 . S
H231 C248 0.940 . S
H232 C249 0.939 . S
H233 C251 0.941 . S
H234 C255 0.939 . S
O235 P224 1.490 . S
H236 C252 0.939 . S
H237 C254 0.940 . S
C238 P224 1.812 . S
C238 C239 1.389 . S
C238 C243 1.391 . S
C239 H225 0.941 . S
C239 C238 1.389 . S
C239 C240 1.397 . S
C240 H226 0.939 . S
C240 C239 1.397 . S
C240 C241 1.378 . S
C241 C240 1.378 . S
C241 C242 1.378 . S
C242 H227 0.940 . S
C242 C241 1.378 . S
C242 C243 1.396 . S
C243 H228 0.940 . S
C243 C238 1.391 . S
C243 C242 1.396 . S
C244 P224 1.803 . S
C244 C245 1.378 . S
C244 C249 1.400 . S
C245 H229 0.939 . S
C245 C244 1.378 . S
C245 C246 1.361 . S
C246 H230 0.942 . S
C246 C245 1.361 . S
C246 C247 1.369 . S
C247 C246 1.369 . S
C247 C248 1.404 . S
C248 H231 0.940 . S
C248 C247 1.404 . S
C248 C249 1.389 . S
C249 H232 0.939 . S
C249 C244 1.400 . S
C249 C248 1.389 . S
C250 P224 1.819 . S
C250 C251 1.391 . S
C250 C255 1.391 . S
C251 H233 0.941 . S
C251 C250 1.391 . S
C251 C252 1.396 . S
C252 H236 0.939 . S
C252 C251 1.396 . S
C252 C253 1.397 . S
C253 C252 1.397 . S
C253 C254 1.385 . S
C254 H237 0.940 . S
C254 C253 1.385 . S
C254 C255 1.388 . S
C255 H234 0.939 . S
C255 C250 1.391 . S
C255 C254 1.388 . S
Tb256 C265 2.764 . S
Tb256 O266 2.325 1_455 S
Tb256 O269 2.303 . S
Tb256 O273 2.322 1_545 S
Tb256 O274 2.349 1_545 S
Tb256 O277 2.415 . S
Tb256 O278 2.399 . S
Tb257 O267 2.322 1_565 S
Tb257 O268 2.349 1_565 S
Tb257 O270 2.416 . S
Tb257 O271 2.399 . S
Tb257 O272 2.326 1_655 S
Tb257 O275 2.304 . S
Tb257 C286 2.765 . S
C258 O274 1.261 1_655 S
C258 O275 1.257 . S
C259 C262 1.358 . S
C259 C263 1.332 . S
C259 C265 1.504 . S
C260 C261 1.373 . S
C260 C264 1.308 . S
C261 C260 1.373 . S
C261 C262 1.429 . S
C261 H288 0.932 . S
C262 C259 1.358 . S
C262 C261 1.429 . S
C262 H289 0.930 . S
C263 C259 1.332 . S
C263 C264 1.394 . S
C263 H290 0.932 . S
C264 C260 1.308 . S
C264 C263 1.394 . S
C264 H291 0.929 . S
C265 Tb256 2.764 . S
C265 C259 1.504 . S
C265 O277 1.239 . S
C265 O278 1.263 . S
O266 Tb256 2.325 1_655 S
O266 C276 1.236 . S
O267 Tb257 2.322 1_545 S
O267 C276 1.257 . S
O268 Tb257 2.349 1_545 S
O268 C279 1.261 1_655 S
O269 Tb256 2.303 . S
O269 C279 1.257 . S
O270 Tb257 2.416 . S
O270 C286 1.239 . S
O271 Tb257 2.399 . S
O271 C286 1.263 . S
O272 Tb257 2.326 1_455 S
O272 C287 1.236 . S
O273 Tb256 2.322 1_565 S
O273 C287 1.257 . S
O274 Tb256 2.349 1_565 S
O274 C258 1.261 1_455 S
O275 Tb257 2.304 . S
O275 C258 1.257 . S
C276 O266 1.236 . S
C276 O267 1.257 . S
O277 Tb256 2.415 . S
O277 C265 1.239 . S
O278 Tb256 2.399 . S
O278 C265 1.263 . S
C279 O268 1.261 1_455 S
C279 O269 1.257 . S
C280 C283 1.358 . S
C280 C284 1.332 . S
C280 C286 1.504 . S
C281 C282 1.373 . S
C281 C285 1.308 . S
C282 C281 1.373 . S
C282 C283 1.429 . S
C282 H292 0.932 . S
C283 C280 1.358 . S
C283 C282 1.429 . S
C283 H293 0.930 . S
C284 C280 1.332 . S
C284 C285 1.394 . S
C284 H294 0.932 . S
C285 C281 1.308 . S
C285 C284 1.394 . S
C285 H295 0.929 . S
C286 Tb257 2.765 . S
C286 O270 1.239 . S
C286 O271 1.263 . S
C286 C280 1.504 . S
C287 O272 1.236 . S
C287 O273 1.257 . S
H288 C261 0.932 . S
H289 C262 0.930 . S
H290 C263 0.932 . S
H291 C264 0.929 . S
H292 C282 0.932 . S
H293 C283 0.930 . S
H294 C284 0.932 . S
H295 C285 0.929 . S
Tb296 C305 2.764 . S
Tb296 O306 2.325 . S
Tb296 O309 2.303 . S
Tb296 O313 2.322 1_545 S
Tb296 O314 2.349 1_545 S
Tb296 O317 2.415 . S
Tb296 O318 2.399 . S
Tb297 O307 2.322 . S
Tb297 O308 2.349 1_556 S
Tb297 O310 2.415 1_545 S
Tb297 O311 2.399 1_545 S
Tb297 O312 2.325 1_546 S
Tb297 O315 2.303 1_545 S
Tb297 C326 2.764 1_545 S
C298 O314 1.261 1_556 S
C298 O315 1.257 . S
C299 C302 1.358 . S
C299 C303 1.332 . S
C299 C305 1.504 . S
C300 C301 1.373 . S
C300 C304 1.308 . S
C301 C300 1.373 . S
C301 C302 1.429 . S
C301 H328 0.932 . S
C302 C299 1.358 . S
C302 C301 1.429 . S
C302 H329 0.930 . S
C303 C299 1.332 . S
C303 C304 1.394 . S
C303 H330 0.932 . S
C304 C300 1.308 . S
C304 C303 1.394 . S
C304 H331 0.929 . S
C305 Tb296 2.764 . S
C305 C299 1.504 . S
C305 O317 1.239 . S
C305 O318 1.263 . S
O306 Tb296 2.325 . S
O306 C316 1.236 1_554 S
O307 Tb297 2.322 . S
O307 C316 1.257 . S
O308 Tb297 2.349 1_554 S
O308 C319 1.261 . S
O309 Tb296 2.303 . S
O309 C319 1.257 . S
O310 Tb297 2.415 1_565 S
O310 C326 1.239 . S
O311 Tb297 2.399 1_565 S
O311 C326 1.263 . S
O312 Tb297 2.325 1_564 S
O312 C327 1.236 . S
O313 Tb296 2.322 1_565 S
O313 C327 1.257 . S
O314 Tb296 2.349 1_565 S
O314 C298 1.261 1_554 S
O315 Tb297 2.303 1_565 S
O315 C298 1.257 . S
C316 O306 1.236 1_556 S
C316 O307 1.257 . S
O317 Tb296 2.415 . S
O317 C305 1.239 . S
O318 Tb296 2.399 . S
O318 C305 1.263 . S
C319 O308 1.261 . S
C319 O309 1.257 . S
C320 C323 1.358 . S
C320 C324 1.332 . S
C320 C326 1.504 . S
C321 C322 1.373 . S
C321 C325 1.308 . S
C322 C321 1.373 . S
C322 C323 1.429 . S
C322 H332 0.932 . S
C323 C320 1.358 . S
C323 C322 1.429 . S
C323 H333 0.930 . S
C324 C320 1.332 . S
C324 C325 1.394 . S
C324 H334 0.932 . S
C325 C321 1.308 . S
C325 C324 1.394 . S
C325 H335 0.929 . S
C326 Tb297 2.764 1_565 S
C326 O310 1.239 . S
C326 O311 1.263 . S
C326 C320 1.504 . S
C327 O312 1.236 . S
C327 O313 1.257 . S
H328 C301 0.932 . S
H329 C302 0.930 . S
H330 C303 0.932 . S
H331 C304 0.929 . S
H332 C322 0.932 . S
H333 C323 0.930 . S
H334 C324 0.932 . S
H335 C325 0.929 . S
Tb336 C345 2.764 . S
Tb336 O346 2.325 . S
Tb336 O349 2.303 . S
Tb336 O353 2.322 . S
Tb336 O354 2.349 . S
Tb336 O357 2.415 . S
Tb336 O358 2.399 . S
Tb337 O347 2.322 . S
Tb337 O348 2.349 . S
Tb337 O350 2.415 . S
Tb337 O351 2.399 . S
Tb337 O352 2.325 . S
Tb337 O355 2.303 . S
Tb337 C366 2.764 . S
C338 O354 1.261 . S
C338 O355 1.257 . S
C339 C342 1.358 . S
C339 C343 1.332 . S
C339 C345 1.504 . S
C340 C341 1.373 . S
C340 C344 1.308 . S
C341 C340 1.373 . S
C341 C342 1.429 . S
C341 H368 0.932 . S
C342 C339 1.358 . S
C342 C341 1.429 . S
C342 H369 0.930 . S
C343 C339 1.332 . S
C343 C344 1.394 . S
C343 H370 0.932 . S
C344 C340 1.308 . S
C344 C343 1.394 . S
C344 H371 0.929 . S
C345 Tb336 2.764 . S
C345 C339 1.504 . S
C345 O357 1.239 . S
C345 O358 1.263 . S
O346 Tb336 2.325 . S
O346 C356 1.236 . S
O347 Tb337 2.322 . S
O347 C356 1.257 . S
O348 Tb337 2.349 . S
O348 C359 1.261 . S
O349 Tb336 2.303 . S
O349 C359 1.257 . S
O350 Tb337 2.415 . S
O350 C366 1.239 . S
O351 Tb337 2.399 . S
O351 C366 1.263 . S
O352 Tb337 2.325 . S
O352 C367 1.236 . S
O353 Tb336 2.322 . S
O353 C367 1.257 . S
O354 Tb336 2.349 . S
O354 C338 1.261 . S
O355 Tb337 2.303 . S
O355 C338 1.257 . S
C356 O346 1.236 . S
C356 O347 1.257 . S
O357 Tb336 2.415 . S
O357 C345 1.239 . S
O358 Tb336 2.399 . S
O358 C345 1.263 . S
C359 O348 1.261 . S
C359 O349 1.257 . S
C360 C363 1.358 . S
C360 C364 1.332 . S
C360 C366 1.504 . S
C361 C362 1.373 . S
C361 C365 1.308 . S
C362 C361 1.373 . S
C362 C363 1.429 . S
C362 H372 0.932 . S
C363 C360 1.358 . S
C363 C362 1.429 . S
C363 H373 0.930 . S
C364 C360 1.332 . S
C364 C365 1.394 . S
C364 H374 0.932 . S
C365 C361 1.308 . S
C365 C364 1.394 . S
C365 H375 0.929 . S
C366 Tb337 2.764 . S
C366 O350 1.239 . S
C366 O351 1.263 . S
C366 C360 1.504 . S
C367 O352 1.236 . S
C367 O353 1.257 . S
H368 C341 0.932 . S
H369 C342 0.930 . S
H370 C343 0.932 . S
H371 C344 0.929 . S
H372 C362 0.932 . S
H373 C363 0.930 . S
H374 C364 0.932 . S
H375 C365 0.929 . S
Tb376 C385 2.764 . S
Tb376 O386 2.325 . S
Tb376 O389 2.303 1_556 S
Tb376 O393 2.314 1_656 S
Tb376 O394 2.349 1_655 S
Tb376 O397 2.415 . S
Tb376 O398 2.399 . S
Tb377 O387 2.322 1_455 S
Tb377 O388 2.349 1_455 S
Tb377 O390 2.415 . S
Tb377 O391 2.399 . S
Tb377 O392 2.325 . S
Tb377 O395 2.303 1_554 S
Tb377 C406 2.764 . S
C378 O394 1.261 . S
C378 O395 1.257 . S
C379 C382 1.358 . S
C379 C383 1.332 . S
C379 C385 1.504 . S
C380 C381 1.373 . S
C380 C384 1.308 . S
C381 C380 1.373 . S
C381 C382 1.429 . S
C381 H408 0.932 . S
C382 C379 1.358 . S
C382 C381 1.429 . S
C382 H409 0.930 . S
C383 C379 1.332 . S
C383 C384 1.394 . S
C383 H410 0.932 . S
C384 C380 1.308 . S
C384 C383 1.394 . S
C384 H411 0.929 . S
C385 Tb376 2.764 . S
C385 C379 1.504 . S
C385 O397 1.239 . S
C385 O398 1.263 . S
O386 Tb376 2.325 . S
O386 C396 1.236 . S
O387 Tb377 2.322 1_655 S
O387 C396 1.257 1_554 S
O388 Tb377 2.349 1_655 S
O388 C399 1.261 . S
O389 Tb376 2.303 1_554 S
O389 C399 1.257 . S
O390 Tb377 2.415 . S
O390 C406 1.239 . S
O391 Tb377 2.399 . S
O391 C406 1.263 . S
O392 Tb377 2.325 . S
O392 C407 1.236 . S
O393 Tb376 2.314 1_454 S
O393 C407 1.271 . S
O394 Tb376 2.349 1_455 S
O394 C378 1.261 . S
O395 Tb377 2.303 1_556 S
O395 C378 1.257 . S
C396 O386 1.236 . S
C396 O387 1.257 1_556 S
O397 Tb376 2.415 . S
O397 C385 1.239 . S
O398 Tb376 2.399 . S
O398 C385 1.263 . S
C399 O388 1.261 . S
C399 O389 1.257 . S
C400 C403 1.358 . S
C400 C404 1.332 . S
C400 C406 1.504 . S
C401 C402 1.373 . S
C401 C405 1.308 . S
C402 C401 1.373 . S
C402 C403 1.429 . S
C402 H412 0.932 . S
C403 C400 1.358 . S
C403 C402 1.429 . S
C403 H413 0.930 . S
C404 C400 1.332 . S
C404 C405 1.394 . S
C404 H414 0.932 . S
C405 C401 1.308 . S
C405 C404 1.394 . S
C405 H415 0.929 . S
C406 Tb377 2.764 . S
C406 O390 1.239 . S
C406 O391 1.263 . S
C406 C400 1.504 . S
C407 O392 1.236 . S
C407 O393 1.271 . S
H408 C381 0.932 . S
H409 C382 0.930 . S
H410 C383 0.932 . S
H411 C384 0.929 . S
H412 C402 0.932 . S
H413 C403 0.930 . S
H414 C404 0.932 . S
H415 C405 0.929 . S
H416 C428 0.930 . S
H417 C430 0.930 . S
H418 C431 0.930 . S
H419 C435 0.959 . S
H420 C435 0.959 . S
H421 C435 0.961 . S
H422 C436 0.960 . S
H423 C436 0.961 . S
H424 C436 0.959 . S
H425 C439 0.929 . S
H426 C440 0.931 . S
H427 C442 0.930 . S
C428 H416 0.930 . S
C428 C429 1.399 . S
C428 C433 1.399 . S
C429 C428 1.399 . S
C429 C430 1.376 . S
C430 H417 0.930 . S
C430 C429 1.376 . S
C430 C431 1.388 . S
C431 H418 0.930 . S
C431 C430 1.388 . S
C431 C432 1.390 . S
C432 C431 1.390 . S
C432 C433 1.394 . S
C432 C438 1.465 . S
C433 C428 1.399 . S
C433 C432 1.394 . S
C433 C434 1.516 . S
C434 C433 1.516 . S
C434 C435 1.502 . S
C434 C436 1.561 . S
C434 C437 1.526 . S
C435 H419 0.959 . S
C435 H420 0.959 . S
C435 H421 0.961 . S
C435 C434 1.502 . S
C436 H422 0.960 . S
C436 H423 0.961 . S
C436 H424 0.959 . S
C436 C434 1.561 . S
C437 C434 1.526 . S
C437 C438 1.396 . S
C437 C442 1.390 . S
C438 C432 1.465 . S
C438 C437 1.396 . S
C438 C439 1.399 . S
C439 H425 0.929 . S
C439 C438 1.399 . S
C439 C440 1.385 . S
C440 H426 0.931 . S
C440 C439 1.385 . S
C440 C441 1.389 . S
C441 C440 1.389 . S
C441 C442 1.387 . S
C442 H427 0.930 . S
C442 C437 1.390 . S
C442 C441 1.387 . S
H443 C455 0.930 . S
H444 C457 0.930 . S
H445 C458 0.930 . S
H446 C462 0.959 . S
H447 C462 0.959 . S
H448 C462 0.961 . S
H449 C463 0.960 . S
H450 C463 0.961 . S
H451 C463 0.959 . S
H452 C466 0.929 . S
H453 C467 0.931 . S
H454 C469 0.930 . S
C455 H443 0.930 . S
C455 C456 1.399 . S
C455 C460 1.399 . S
C456 C455 1.399 . S
C456 C457 1.376 . S
C457 H444 0.930 . S
C457 C456 1.376 . S
C457 C458 1.388 . S
C458 H445 0.930 . S
C458 C457 1.388 . S
C458 C459 1.390 . S
C459 C458 1.390 . S
C459 C460 1.394 . S
C459 C465 1.465 . S
C460 C455 1.399 . S
C460 C459 1.394 . S
C460 C461 1.516 . S
C461 C460 1.516 . S
C461 C462 1.502 . S
C461 C463 1.561 . S
C461 C464 1.526 . S
C462 H446 0.959 . S
C462 H447 0.959 . S
C462 H448 0.961 . S
C462 C461 1.502 . S
C463 H449 0.960 . S
C463 H450 0.961 . S
C463 H451 0.959 . S
C463 C461 1.561 . S
C464 C461 1.526 . S
C464 C465 1.396 . S
C464 C469 1.390 . S
C465 C459 1.465 . S
C465 C464 1.396 . S
C465 C466 1.399 . S
C466 H452 0.929 . S
C466 C465 1.399 . S
C466 C467 1.385 . S
C467 H453 0.931 . S
C467 C466 1.385 . S
C467 C468 1.389 . S
C468 C467 1.389 . S
C468 C469 1.387 . S
C469 H454 0.930 . S
C469 C464 1.390 . S
C469 C468 1.387 . S
H470 C482 0.930 . S
H471 C484 0.930 . S
H472 C485 0.930 . S
H473 C489 0.959 . S
H474 C489 0.959 . S
H475 C489 0.961 . S
H476 C490 0.960 . S
H477 C490 0.961 . S
H478 C490 0.959 . S
H479 C493 0.929 . S
H480 C494 0.931 . S
H481 C496 0.930 . S
C482 H470 0.930 . S
C482 C483 1.399 . S
C482 C487 1.399 . S
C483 C482 1.399 . S
C483 C484 1.376 . S
C484 H471 0.930 . S
C484 C483 1.376 . S
C484 C485 1.388 . S
C485 H472 0.930 . S
C485 C484 1.388 . S
C485 C486 1.390 . S
C486 C485 1.390 . S
C486 C487 1.394 . S
C486 C492 1.465 . S
C487 C482 1.399 . S
C487 C486 1.394 . S
C487 C488 1.516 . S
C488 C487 1.516 . S
C488 C489 1.502 . S
C488 C490 1.561 . S
C488 C491 1.526 . S
C489 H473 0.959 . S
C489 H474 0.959 . S
C489 H475 0.961 . S
C489 C488 1.502 . S
C490 H476 0.960 . S
C490 H477 0.961 . S
C490 H478 0.959 . S
C490 C488 1.561 . S
C491 C488 1.526 . S
C491 C492 1.396 . S
C491 C496 1.390 . S
C492 C486 1.465 . S
C492 C491 1.396 . S
C492 C493 1.399 . S
C493 H479 0.929 . S
C493 C492 1.399 . S
C493 C494 1.385 . S
C494 H480 0.931 . S
C494 C493 1.385 . S
C494 C495 1.389 . S
C495 C494 1.389 . S
C495 C496 1.387 . S
C496 H481 0.930 . S
C496 C491 1.390 . S
C496 C495 1.387 . S
H497 C509 0.930 . S
H498 C511 0.930 . S
H499 C512 0.930 . S
H500 C516 0.959 . S
H501 C516 0.959 . S
H502 C516 0.961 . S
H503 C517 0.960 . S
H504 C517 0.961 . S
H505 C517 0.959 . S
H506 C520 0.929 . S
H507 C521 0.931 . S
H508 C523 0.930 . S
C509 H497 0.930 . S
C509 C510 1.399 . S
C509 C514 1.399 . S
C510 C509 1.399 . S
C510 C511 1.376 . S
C511 H498 0.930 . S
C511 C510 1.376 . S
C511 C512 1.388 . S
C512 H499 0.930 . S
C512 C511 1.388 . S
C512 C513 1.390 . S
C513 C512 1.390 . S
C513 C514 1.394 . S
C513 C519 1.465 . S
C514 C509 1.399 . S
C514 C513 1.394 . S
C514 C515 1.516 . S
C515 C514 1.516 . S
C515 C516 1.502 . S
C515 C517 1.561 . S
C515 C518 1.526 . S
C516 H500 0.959 . S
C516 H501 0.959 . S
C516 H502 0.961 . S
C516 C515 1.502 . S
C517 H503 0.960 . S
C517 H504 0.961 . S
C517 H505 0.959 . S
C517 C515 1.561 . S
C518 C515 1.526 . S
C518 C519 1.396 . S
C518 C523 1.390 . S
C519 C513 1.465 . S
C519 C518 1.396 . S
C519 C520 1.399 . S
C520 H506 0.929 . S
C520 C519 1.399 . S
C520 C521 1.385 . S
C521 H507 0.931 . S
C521 C520 1.385 . S
C521 C522 1.389 . S
C522 C521 1.389 . S
C522 C523 1.387 . S
C523 H508 0.930 . S
C523 C518 1.390 . S
C523 C522 1.387 . S
H524 C536 0.930 . S
H525 C538 0.930 . S
H526 C539 0.930 . S
H527 C543 0.959 . S
H528 C543 0.959 . S
H529 C543 0.961 . S
H530 C544 0.960 . S
H531 C544 0.961 . S
H532 C544 0.959 . S
H533 C547 0.929 . S
H534 C548 0.931 . S
H535 C550 0.930 . S
C536 H524 0.930 . S
C536 C537 1.399 . S
C536 C541 1.399 . S
C537 C536 1.399 . S
C537 C538 1.376 . S
C538 H525 0.930 . S
C538 C537 1.376 . S
C538 C539 1.388 . S
C539 H526 0.930 . S
C539 C538 1.388 . S
C539 C540 1.390 . S
C540 C539 1.390 . S
C540 C541 1.394 . S
C540 C546 1.465 . S
C541 C536 1.399 . S
C541 C540 1.394 . S
C541 C542 1.516 . S
C542 C541 1.516 . S
C542 C543 1.502 . S
C542 C544 1.561 . S
C542 C545 1.526 . S
C543 H527 0.959 . S
C543 H528 0.959 . S
C543 H529 0.961 . S
C543 C542 1.502 . S
C544 H530 0.960 . S
C544 H531 0.961 . S
C544 H532 0.959 . S
C544 C542 1.561 . S
C545 C542 1.526 . S
C545 C546 1.396 . S
C545 C550 1.390 . S
C546 C540 1.465 . S
C546 C545 1.396 . S
C546 C547 1.399 . S
C547 H533 0.929 . S
C547 C546 1.399 . S
C547 C548 1.385 . S
C548 H534 0.931 . S
C548 C547 1.385 . S
C548 C549 1.389 . S
C549 C548 1.389 . S
C549 C550 1.387 . S
C550 H535 0.930 . S
C550 C545 1.390 . S
C550 C549 1.387 . S
H551 C563 0.930 . S
H552 C565 0.930 . S
H553 C566 0.930 . S
H554 C570 0.959 . S
H555 C570 0.959 1_655 S
H556 C570 0.961 1_655 S
H557 C571 0.960 1_655 S
H558 C571 0.961 1_655 S
H559 C571 0.959 . S
H560 C574 0.929 . S
H561 C575 0.931 . S
H562 C577 0.930 . S
C563 H551 0.930 . S
C563 C564 1.399 . S
C563 C568 1.399 . S
C564 C563 1.399 . S
C564 C565 1.376 . S
C565 H552 0.930 . S
C565 C564 1.376 . S
C565 C566 1.388 . S
C566 H553 0.930 . S
C566 C565 1.388 . S
C566 C567 1.390 . S
C567 C566 1.390 . S
C567 C568 1.394 . S
C567 C573 1.465 . S
C568 C563 1.399 . S
C568 C567 1.394 . S
C568 C569 1.516 . S
C569 C568 1.516 . S
C569 C570 1.502 . S
C569 C571 1.561 . S
C569 C572 1.526 . S
C570 H554 0.959 . S
C570 H555 0.959 1_455 S
C570 H556 0.961 1_455 S
C570 C569 1.502 . S
C571 H557 0.960 1_455 S
C571 H558 0.961 1_455 S
C571 H559 0.959 . S
C571 C569 1.561 . S
C572 C569 1.526 . S
C572 C573 1.396 . S
C572 C577 1.390 . S
C573 C567 1.465 . S
C573 C572 1.396 . S
C573 C574 1.399 . S
C574 H560 0.929 . S
C574 C573 1.399 . S
C574 C575 1.385 . S
C575 H561 0.931 . S
C575 C574 1.385 . S
C575 C576 1.389 . S
C576 C575 1.389 . S
C576 C577 1.387 . S
C577 H562 0.930 . S
C577 C572 1.390 . S
C577 C576 1.387 . S
H578 C590 0.930 . S
H579 C592 0.930 . S
H580 C593 0.930 . S
H581 C597 0.959 . S
H582 C597 0.939 1_554 S
H583 C597 0.961 . S
H584 C598 0.960 . S
H585 C598 0.961 . S
H586 C598 0.959 . S
H587 C601 0.929 . S
H588 C602 0.931 . S
H589 C604 0.930 . S
C590 H578 0.930 . S
C590 C591 1.399 . S
C590 C595 1.399 . S
C591 C590 1.399 . S
C591 C592 1.376 . S
C592 H579 0.930 . S
C592 C591 1.376 . S
C592 C593 1.388 . S
C593 H580 0.930 . S
C593 C592 1.388 . S
C593 C594 1.390 . S
C594 C593 1.390 . S
C594 C595 1.394 . S
C594 C600 1.465 . S
C595 C590 1.399 . S
C595 C594 1.394 . S
C595 C596 1.516 . S
C596 C595 1.516 . S
C596 C597 1.502 . S
C596 C598 1.561 . S
C596 C599 1.526 . S
C597 H581 0.959 . S
C597 H582 0.939 1_556 S
C597 H583 0.961 . S
C597 C596 1.502 . S
C598 H584 0.960 . S
C598 H585 0.961 . S
C598 H586 0.959 . S
C598 C596 1.561 . S
C599 C596 1.526 . S
C599 C600 1.396 . S
C599 C604 1.390 . S
C600 C594 1.465 . S
C600 C599 1.396 . S
C600 C601 1.399 . S
C601 H587 0.929 . S
C601 C600 1.399 . S
C601 C602 1.385 . S
C602 H588 0.931 . S
C602 C601 1.385 . S
C602 C603 1.389 . S
C603 C602 1.389 . S
C603 C604 1.387 . S
C604 H589 0.930 . S
C604 C599 1.390 . S
C604 C603 1.387 . S
H605 C617 0.930 . S
H606 C619 0.930 . S
H607 C620 0.930 . S
H608 C624 0.959 . S
H609 C624 0.959 . S
H610 C624 0.961 . S
H611 C625 0.960 . S
H612 C625 0.961 . S
H613 C625 0.959 . S
H614 C628 0.929 . S
H615 C629 0.931 . S
H616 C631 0.930 . S
C617 H605 0.930 . S
C617 C618 1.399 . S
C617 C622 1.399 . S
C618 C617 1.399 . S
C618 C619 1.376 . S
C619 H606 0.930 . S
C619 C618 1.376 . S
C619 C620 1.388 . S
C620 H607 0.930 . S
C620 C619 1.388 . S
C620 C621 1.390 . S
C621 C620 1.390 . S
C621 C622 1.394 . S
C621 C627 1.465 . S
C622 C617 1.399 . S
C622 C621 1.394 . S
C622 C623 1.516 . S
C623 C622 1.516 . S
C623 C624 1.502 . S
C623 C625 1.561 . S
C623 C626 1.526 . S
C624 H608 0.959 . S
C624 H609 0.959 . S
C624 H610 0.961 . S
C624 C623 1.502 . S
C625 H611 0.960 . S
C625 H612 0.961 . S
C625 H613 0.959 . S
C625 C623 1.561 . S
C626 C623 1.526 . S
C626 C627 1.396 . S
C626 C631 1.390 . S
C627 C621 1.465 . S
C627 C626 1.396 . S
C627 C628 1.399 . S
C628 H614 0.929 . S
C628 C627 1.399 . S
C628 C629 1.385 . S
C629 H615 0.931 . S
C629 C628 1.385 . S
C629 C630 1.389 . S
C630 C629 1.389 . S
C630 C631 1.387 . S
C631 H616 0.930 . S
C631 C626 1.390 . S
C631 C630 1.387 . S
H632 C644 0.930 . S
H633 C646 0.930 . S
H634 C647 0.930 . S
H635 C651 0.959 . S
H636 C651 0.959 . S
H637 C651 0.961 . S
H638 C652 0.960 . S
H639 C652 0.961 . S
H640 C652 0.959 . S
H641 C655 0.929 . S
H642 C656 0.931 . S
H643 C658 0.930 . S
C644 H632 0.930 . S
C644 C645 1.399 . S
C644 C649 1.399 . S
C645 C644 1.399 . S
C645 C646 1.376 . S
C646 H633 0.930 . S
C646 C645 1.376 . S
C646 C647 1.388 . S
C647 H634 0.930 . S
C647 C646 1.388 . S
C647 C648 1.390 . S
C648 C647 1.390 . S
C648 C649 1.394 . S
C648 C654 1.465 . S
C649 C644 1.399 . S
C649 C648 1.394 . S
C649 C650 1.516 . S
C650 C649 1.516 . S
C650 C651 1.502 . S
C650 C652 1.561 . S
C650 C653 1.526 . S
C651 H635 0.959 . S
C651 H636 0.959 . S
C651 H637 0.961 . S
C651 C650 1.502 . S
C652 H638 0.960 . S
C652 H639 0.961 . S
C652 H640 0.959 . S
C652 C650 1.561 . S
C653 C650 1.526 . S
C653 C654 1.396 . S
C653 C658 1.390 . S
C654 C648 1.465 . S
C654 C653 1.396 . S
C654 C655 1.399 . S
C655 H641 0.929 . S
C655 C654 1.399 . S
C655 C656 1.385 . S
C656 H642 0.931 . S
C656 C655 1.385 . S
C656 C657 1.389 . S
C657 C656 1.389 . S
C657 C658 1.387 . S
C658 H643 0.930 . S
C658 C653 1.390 . S
C658 C657 1.387 . S
H659 C671 0.930 . S
H660 C673 0.930 . S
H661 C674 0.930 . S
H662 C678 0.959 . S
H663 C678 0.959 1_554 S
H664 C678 0.961 . S
H665 C679 0.960 . S
H666 C679 0.957 1_554 S
H667 C679 0.959 . S
H668 C682 0.929 . S
H669 C683 0.931 . S
H670 C685 0.930 . S
C671 H659 0.930 . S
C671 C672 1.399 . S
C671 C676 1.399 . S
C672 C671 1.399 . S
C672 C673 1.376 . S
C673 H660 0.930 . S
C673 C672 1.376 . S
C673 C674 1.388 . S
C674 H661 0.930 . S
C674 C673 1.388 . S
C674 C675 1.390 . S
C675 C674 1.390 . S
C675 C676 1.394 . S
C675 C681 1.465 . S
C676 C671 1.399 . S
C676 C675 1.394 . S
C676 C677 1.516 . S
C677 C676 1.516 . S
C677 C678 1.502 . S
C677 C679 1.561 . S
C677 C680 1.526 . S
C678 H662 0.959 . S
C678 H663 0.959 1_556 S
C678 H664 0.961 . S
C678 C677 1.502 . S
C679 H665 0.960 . S
C679 H666 0.957 1_556 S
C679 H667 0.959 . S
C679 C677 1.561 . S
C680 C677 1.526 . S
C680 C681 1.396 . S
C680 C685 1.390 . S
C681 C675 1.465 . S
C681 C680 1.396 . S
C681 C682 1.399 . S
C682 H668 0.929 . S
C682 C681 1.399 . S
C682 C683 1.385 . S
C683 H669 0.931 . S
C683 C682 1.385 . S
C683 C684 1.389 . S
C684 C683 1.389 . S
C684 C685 1.387 . S
C685 H670 0.930 . S
C685 C680 1.390 . S
C685 C684 1.387 . S
H686 C698 0.930 . S
H687 C700 0.930 . S
H688 C701 0.930 . S
H689 C705 0.959 . S
H690 C705 0.959 . S
H691 C705 0.961 . S
H692 C706 0.960 . S
H693 C706 0.961 . S
H694 C706 0.959 . S
H695 C709 0.929 . S
H696 C710 0.931 . S
H697 C712 0.930 . S
C698 H686 0.930 . S
C698 C699 1.399 . S
C698 C703 1.399 . S
C699 C698 1.399 . S
C699 C700 1.376 . S
C700 H687 0.930 . S
C700 C699 1.376 . S
C700 C701 1.388 . S
C701 H688 0.930 . S
C701 C700 1.388 . S
C701 C702 1.390 . S
C702 C701 1.390 . S
C702 C703 1.394 . S
C702 C708 1.465 . S
C703 C698 1.399 . S
C703 C702 1.394 . S
C703 C704 1.516 . S
C704 C703 1.516 . S
C704 C705 1.502 . S
C704 C706 1.561 . S
C704 C707 1.526 . S
C705 H689 0.959 . S
C705 H690 0.959 . S
C705 H691 0.961 . S
C705 C704 1.502 . S
C706 H692 0.960 . S
C706 H693 0.961 . S
C706 H694 0.959 . S
C706 C704 1.561 . S
C707 C704 1.526 . S
C707 C708 1.396 . S
C707 C712 1.390 . S
C708 C702 1.465 . S
C708 C707 1.396 . S
C708 C709 1.399 . S
C709 H695 0.929 . S
C709 C708 1.399 . S
C709 C710 1.385 . S
C710 H696 0.931 . S
C710 C709 1.385 . S
C710 C711 1.389 . S
C711 C710 1.389 . S
C711 C712 1.387 . S
C712 H697 0.930 . S
C712 C707 1.390 . S
C712 C711 1.387 . S
H713 C725 0.930 . S
H714 C727 0.930 . S
H715 C728 0.930 . S
H716 C732 0.959 . S
H717 C732 0.959 . S
H718 C732 0.961 . S
H719 C733 0.960 . S
H720 C733 0.961 . S
H721 C733 0.959 . S
H722 C736 0.929 . S
H723 C737 0.931 . S
H724 C739 0.930 . S
C725 H713 0.930 . S
C725 C726 1.399 . S
C725 C730 1.399 . S
C726 C725 1.399 . S
C726 C727 1.376 . S
C727 H714 0.930 . S
C727 C726 1.376 . S
C727 C728 1.388 . S
C728 H715 0.930 . S
C728 C727 1.388 . S
C728 C729 1.390 . S
C729 C728 1.390 . S
C729 C730 1.394 . S
C729 C735 1.465 . S
C730 C725 1.399 . S
C730 C729 1.394 . S
C730 C731 1.516 . S
C731 C730 1.516 . S
C731 C732 1.502 . S
C731 C733 1.561 . S
C731 C734 1.526 . S
C732 H716 0.959 . S
C732 H717 0.959 . S
C732 H718 0.961 . S
C732 C731 1.502 . S
C733 H719 0.960 . S
C733 H720 0.961 . S
C733 H721 0.959 . S
C733 C731 1.561 . S
C734 C731 1.526 . S
C734 C735 1.396 . S
C734 C739 1.390 . S
C735 C729 1.465 . S
C735 C734 1.396 . S
C735 C736 1.399 . S
C736 H722 0.929 . S
C736 C735 1.399 . S
C736 C737 1.385 . S
C737 H723 0.931 . S
C737 C736 1.385 . S
C737 C738 1.389 . S
C738 C737 1.389 . S
C738 C739 1.387 . S
C739 H724 0.930 . S
C739 C734 1.390 . S
C739 C738 1.387 . S
H740 C752 0.930 . S
H741 C754 0.930 . S
H742 C755 0.930 . S
H743 C759 0.959 . S
H744 C759 0.959 . S
H745 C759 0.961 . S
H746 C760 0.960 . S
H747 C760 0.961 . S
H748 C760 0.959 . S
H749 C763 0.929 . S
H750 C764 0.931 . S
H751 C766 0.930 . S
C752 H740 0.930 . S
C752 C753 1.399 . S
C752 C757 1.399 . S
C753 C752 1.399 . S
C753 C754 1.376 . S
C754 H741 0.930 . S
C754 C753 1.376 . S
C754 C755 1.388 . S
C755 H742 0.930 . S
C755 C754 1.388 . S
C755 C756 1.390 . S
C756 C755 1.390 . S
C756 C757 1.394 . S
C756 C762 1.465 . S
C757 C752 1.399 . S
C757 C756 1.394 . S
C757 C758 1.516 . S
C758 C757 1.516 . S
C758 C759 1.502 . S
C758 C760 1.561 . S
C758 C761 1.526 . S
C759 H743 0.959 . S
C759 H744 0.959 . S
C759 H745 0.961 . S
C759 C758 1.502 . S
C760 H746 0.960 . S
C760 H747 0.961 . S
C760 H748 0.959 . S
C760 C758 1.561 . S
C761 C758 1.526 . S
C761 C762 1.396 . S
C761 C766 1.390 . S
C762 C756 1.465 . S
C762 C761 1.396 . S
C762 C763 1.399 . S
C763 H749 0.929 . S
C763 C762 1.399 . S
C763 C764 1.385 . S
C764 H750 0.931 . S
C764 C763 1.385 . S
C764 C765 1.389 . S
C765 C764 1.389 . S
C765 C766 1.387 . S
C766 H751 0.930 . S
C766 C761 1.390 . S
C766 C765 1.387 . S
H767 C779 0.930 . S
H768 C781 0.930 . S
H769 C782 0.930 . S
H770 C786 0.959 . S
H771 C786 0.959 . S
H772 C786 0.961 . S
H773 C787 0.960 . S
H774 C787 0.961 . S
H775 C787 0.959 . S
H776 C790 0.929 . S
H777 C791 0.931 . S
H778 C793 0.930 . S
C779 H767 0.930 . S
C779 C780 1.399 . S
C779 C784 1.399 . S
C780 C779 1.399 . S
C780 C781 1.376 . S
C781 H768 0.930 . S
C781 C780 1.376 . S
C781 C782 1.388 . S
C782 H769 0.930 . S
C782 C781 1.388 . S
C782 C783 1.390 . S
C783 C782 1.390 . S
C783 C784 1.394 . S
C783 C789 1.465 . S
C784 C779 1.399 . S
C784 C783 1.394 . S
C784 C785 1.516 . S
C785 C784 1.516 . S
C785 C786 1.502 . S
C785 C787 1.561 . S
C785 C788 1.526 . S
C786 H770 0.959 . S
C786 H771 0.959 . S
C786 H772 0.961 . S
C786 C785 1.502 . S
C787 H773 0.960 . S
C787 H774 0.961 . S
C787 H775 0.959 . S
C787 C785 1.561 . S
C788 C785 1.526 . S
C788 C789 1.396 . S
C788 C793 1.390 . S
C789 C783 1.465 . S
C789 C788 1.396 . S
C789 C790 1.399 . S
C790 H776 0.929 . S
C790 C789 1.399 . S
C790 C791 1.385 . S
C791 H777 0.931 . S
C791 C790 1.385 . S
C791 C792 1.389 . S
C792 C791 1.389 . S
C792 C793 1.387 . S
C793 H778 0.930 . S
C793 C788 1.390 . S
C793 C792 1.387 . S
H794 C806 0.930 . S
H795 C808 0.930 . S
H796 C809 0.930 . S
H797 C813 0.959 . S
H798 C813 0.959 . S
H799 C813 0.961 . S
H800 C814 0.960 . S
H801 C814 0.961 . S
H802 C814 0.959 . S
H803 C817 0.929 . S
H804 C818 0.931 . S
H805 C820 0.930 . S
C806 H794 0.930 . S
C806 C807 1.399 . S
C806 C811 1.399 . S
C807 C806 1.399 . S
C807 C808 1.376 . S
C808 H795 0.930 . S
C808 C807 1.376 . S
C808 C809 1.388 . S
C809 H796 0.930 . S
C809 C808 1.388 . S
C809 C810 1.390 . S
C810 C809 1.390 . S
C810 C811 1.394 . S
C810 C816 1.465 . S
C811 C806 1.399 . S
C811 C810 1.394 . S
C811 C812 1.516 . S
C812 C811 1.516 . S
C812 C813 1.502 . S
C812 C814 1.561 . S
C812 C815 1.526 . S
C813 H797 0.959 . S
C813 H798 0.959 . S
C813 H799 0.961 . S
C813 C812 1.502 . S
C814 H800 0.960 . S
C814 H801 0.961 . S
C814 H802 0.959 . S
C814 C812 1.561 . S
C815 C812 1.526 . S
C815 C816 1.396 . S
C815 C820 1.390 . S
C816 C810 1.465 . S
C816 C815 1.396 . S
C816 C817 1.399 . S
C817 H803 0.929 . S
C817 C816 1.399 . S
C817 C818 1.385 . S
C818 H804 0.931 . S
C818 C817 1.385 . S
C818 C819 1.389 . S
C819 C818 1.389 . S
C819 C820 1.387 . S
C820 H805 0.930 . S
C820 C815 1.390 . S
C820 C819 1.387 . S
H821 C833 0.930 . S
H822 C835 0.930 . S
H823 C836 0.930 . S
H824 C840 0.959 . S
H825 C840 0.959 . S
H826 C840 0.961 . S
H827 C841 0.960 . S
H828 C841 0.961 . S
H829 C841 0.959 . S
H830 C844 0.929 . S
H831 C845 0.931 . S
H832 C847 0.930 . S
C833 H821 0.930 . S
C833 C834 1.399 . S
C833 C838 1.399 . S
C834 C833 1.399 . S
C834 C835 1.376 . S
C835 H822 0.930 . S
C835 C834 1.376 . S
C835 C836 1.388 . S
C836 H823 0.930 . S
C836 C835 1.388 . S
C836 C837 1.390 . S
C837 C836 1.390 . S
C837 C838 1.394 . S
C837 C843 1.465 . S
C838 C833 1.399 . S
C838 C837 1.394 . S
C838 C839 1.516 . S
C839 C838 1.516 . S
C839 C840 1.502 . S
C839 C841 1.561 . S
C839 C842 1.526 . S
C840 H824 0.959 . S
C840 H825 0.959 . S
C840 H826 0.961 . S
C840 C839 1.502 . S
C841 H827 0.960 . S
C841 H828 0.961 . S
C841 H829 0.959 . S
C841 C839 1.561 . S
C842 C839 1.526 . S
C842 C843 1.396 . S
C842 C847 1.390 . S
C843 C837 1.465 . S
C843 C842 1.396 . S
C843 C844 1.399 . S
C844 H830 0.929 . S
C844 C843 1.399 . S
C844 C845 1.385 . S
C845 H831 0.931 . S
C845 C844 1.385 . S
C845 C846 1.389 . S
C846 C845 1.389 . S
C846 C847 1.387 . S
C847 H832 0.930 . S
C847 C842 1.390 . S
C847 C846 1.387 . S
H848 C860 0.930 . S
H849 C862 0.930 . S
H850 C863 0.930 . S
H851 C867 0.959 . S
H852 C867 0.959 . S
H853 C867 0.961 . S
H854 C868 0.960 . S
H855 C868 0.961 . S
H856 C868 0.959 . S
H857 C871 0.929 . S
H858 C872 0.931 . S
H859 C874 0.930 . S
C860 H848 0.930 . S
C860 C861 1.399 . S
C860 C865 1.399 . S
C861 C860 1.399 . S
C861 C862 1.376 . S
C862 H849 0.930 . S
C862 C861 1.376 . S
C862 C863 1.388 . S
C863 H850 0.930 . S
C863 C862 1.388 . S
C863 C864 1.390 . S
C864 C863 1.390 . S
C864 C865 1.394 . S
C864 C870 1.465 . S
C865 C860 1.399 . S
C865 C864 1.394 . S
C865 C866 1.516 . S
C866 C865 1.516 . S
C866 C867 1.502 . S
C866 C868 1.561 . S
C866 C869 1.526 . S
C867 H851 0.959 . S
C867 H852 0.959 . S
C867 H853 0.961 . S
C867 C866 1.502 . S
C868 H854 0.960 . S
C868 H855 0.961 . S
C868 H856 0.959 . S
C868 C866 1.561 . S
C869 C866 1.526 . S
C869 C870 1.396 . S
C869 C874 1.390 . S
C870 C864 1.465 . S
C870 C869 1.396 . S
C870 C871 1.399 . S
C871 H857 0.929 . S
C871 C870 1.399 . S
C871 C872 1.385 . S
C872 H858 0.931 . S
C872 C871 1.385 . S
C872 C873 1.389 . S
C873 C872 1.389 . S
C873 C874 1.387 . S
C874 H859 0.930 . S
C874 C869 1.390 . S
C874 C873 1.387 . S
H875 C887 0.930 . S
H876 C889 0.930 . S
H877 C890 0.930 . S
H878 C894 0.959 . S
H879 C894 0.959 . S
H880 C894 0.961 . S
H881 C895 0.960 . S
H882 C895 0.961 . S
H883 C895 0.959 . S
H884 C898 0.929 . S
H885 C899 0.931 . S
H886 C901 0.930 . S
C887 H875 0.930 . S
C887 C888 1.399 . S
C887 C892 1.399 . S
C888 C887 1.399 . S
C888 C889 1.376 . S
C889 H876 0.930 . S
C889 C888 1.376 . S
C889 C890 1.388 . S
C890 H877 0.930 . S
C890 C889 1.388 . S
C890 C891 1.390 . S
C891 C890 1.390 . S
C891 C892 1.394 . S
C891 C897 1.465 . S
C892 C887 1.399 . S
C892 C891 1.394 . S
C892 C893 1.516 . S
C893 C892 1.516 . S
C893 C894 1.502 . S
C893 C895 1.561 . S
C893 C896 1.526 . S
C894 H878 0.959 . S
C894 H879 0.959 . S
C894 H880 0.961 . S
C894 C893 1.502 . S
C895 H881 0.960 . S
C895 H882 0.961 . S
C895 H883 0.959 . S
C895 C893 1.561 . S
C896 C893 1.526 . S
C896 C897 1.396 . S
C896 C901 1.390 . S
C897 C891 1.465 . S
C897 C896 1.396 . S
C897 C898 1.399 . S
C898 H884 0.929 . S
C898 C897 1.399 . S
C898 C899 1.385 . S
C899 H885 0.931 . S
C899 C898 1.385 . S
C899 C900 1.389 . S
C900 C899 1.389 . S
C900 C901 1.387 . S
C901 H886 0.930 . S
C901 C896 1.390 . S
C901 C900 1.387 . S
H902 C914 0.930 . S
H903 C916 0.930 . S
H904 C917 0.930 . S
H905 C921 0.959 . S
H906 C921 0.959 . S
H907 C921 0.961 . S
H908 C922 0.960 . S
H909 C922 0.961 . S
H910 C922 0.959 . S
H911 C925 0.929 . S
H912 C926 0.931 . S
H913 C928 0.930 . S
C914 H902 0.930 . S
C914 C915 1.399 . S
C914 C919 1.399 . S
C915 C914 1.399 . S
C915 C916 1.376 . S
C916 H903 0.930 . S
C916 C915 1.376 . S
C916 C917 1.388 . S
C917 H904 0.930 . S
C917 C916 1.388 . S
C917 C918 1.390 . S
C918 C917 1.390 . S
C918 C919 1.394 . S
C918 C924 1.465 . S
C919 C914 1.399 . S
C919 C918 1.394 . S
C919 C920 1.516 . S
C920 C919 1.516 . S
C920 C921 1.502 . S
C920 C922 1.561 . S
C920 C923 1.526 . S
C921 H905 0.959 . S
C921 H906 0.959 . S
C921 H907 0.961 . S
C921 C920 1.502 . S
C922 H908 0.960 . S
C922 H909 0.961 . S
C922 H910 0.959 . S
C922 C920 1.561 . S
C923 C920 1.526 . S
C923 C924 1.396 . S
C923 C928 1.390 . S
C924 C918 1.465 . S
C924 C923 1.396 . S
C924 C925 1.399 . S
C925 H911 0.929 . S
C925 C924 1.399 . S
C925 C926 1.385 . S
C926 H912 0.931 . S
C926 C925 1.385 . S
C926 C927 1.389 . S
C927 C926 1.389 . S
C927 C928 1.387 . S
C928 H913 0.930 . S
C928 C923 1.390 . S
C928 C927 1.387 . S
H929 C941 0.930 . S
H930 C943 0.930 . S
H931 C944 0.930 . S
H932 C948 0.959 . S
H933 C948 0.959 . S
H934 C948 0.961 . S
H935 C949 0.960 . S
H936 C949 0.961 . S
H937 C949 0.959 . S
H938 C952 0.929 . S
H939 C953 0.931 . S
H940 C955 0.930 . S
C941 H929 0.930 . S
C941 C942 1.399 . S
C941 C946 1.399 . S
C942 C941 1.399 . S
C942 C943 1.376 . S
C943 H930 0.930 . S
C943 C942 1.376 . S
C943 C944 1.388 . S
C944 H931 0.930 . S
C944 C943 1.388 . S
C944 C945 1.390 . S
C945 C944 1.390 . S
C945 C946 1.394 . S
C945 C951 1.465 . S
C946 C941 1.399 . S
C946 C945 1.394 . S
C946 C947 1.516 . S
C947 C946 1.516 . S
C947 C948 1.502 . S
C947 C949 1.561 . S
C947 C950 1.526 . S
C948 H932 0.959 . S
C948 H933 0.959 . S
C948 H934 0.961 . S
C948 C947 1.502 . S
C949 H935 0.960 . S
C949 H936 0.961 . S
C949 H937 0.959 . S
C949 C947 1.561 . S
C950 C947 1.526 . S
C950 C951 1.396 . S
C950 C955 1.390 . S
C951 C945 1.465 . S
C951 C950 1.396 . S
C951 C952 1.399 . S
C952 H938 0.929 . S
C952 C951 1.399 . S
C952 C953 1.385 . S
C953 H939 0.931 . S
C953 C952 1.385 . S
C953 C954 1.389 . S
C954 C953 1.389 . S
C954 C955 1.387 . S
C955 H940 0.930 . S
C955 C950 1.390 . S
C955 C954 1.387 . S
H956 C968 0.930 . S
H957 C970 0.930 . S
H958 C971 0.930 . S
H959 C975 0.959 . S
H960 C975 0.959 . S
H961 C975 0.961 . S
H962 C976 0.960 . S
H963 C976 0.961 . S
H964 C976 0.959 . S
H965 C979 0.929 . S
H966 C980 0.931 . S
H967 C982 0.930 . S
C968 H956 0.930 . S
C968 C969 1.399 . S
C968 C973 1.399 . S
C969 C968 1.399 . S
C969 C970 1.376 . S
C970 H957 0.930 . S
C970 C969 1.376 . S
C970 C971 1.388 . S
C971 H958 0.930 . S
C971 C970 1.388 . S
C971 C972 1.390 . S
C972 C971 1.390 . S
C972 C973 1.394 . S
C972 C978 1.465 . S
C973 C968 1.399 . S
C973 C972 1.394 . S
C973 C974 1.516 . S
C974 C973 1.516 . S
C974 C975 1.502 . S
C974 C976 1.561 . S
C974 C977 1.526 . S
C975 H959 0.959 . S
C975 H960 0.959 . S
C975 H961 0.961 . S
C975 C974 1.502 . S
C976 H962 0.960 . S
C976 H963 0.961 . S
C976 H964 0.959 . S
C976 C974 1.561 . S
C977 C974 1.526 . S
C977 C978 1.396 . S
C977 C982 1.390 . S
C978 C972 1.465 . S
C978 C977 1.396 . S
C978 C979 1.399 . S
C979 H965 0.929 . S
C979 C978 1.399 . S
C979 C980 1.385 . S
C980 H966 0.931 . S
C980 C979 1.385 . S
C980 C981 1.389 . S
C981 C980 1.389 . S
C981 C982 1.387 . S
C982 H967 0.930 . S
C982 C977 1.390 . S
C982 C981 1.387 . S
H983 C995 0.930 . S
H984 C997 0.930 . S
H985 C998 0.930 . S
H986 C1002 0.959 . S
H987 C1002 0.959 . S
H988 C1002 0.961 . S
H989 C1003 0.960 . S
H990 C1003 0.961 . S
H991 C1003 0.959 . S
H992 C1006 0.929 . S
H993 C1007 0.931 . S
H994 C1009 0.930 . S
C995 H983 0.930 . S
C995 C996 1.399 . S
C995 C1000 1.399 . S
C996 C995 1.399 . S
C996 C997 1.376 . S
C997 H984 0.930 . S
C997 C996 1.376 . S
C997 C998 1.388 . S
C998 H985 0.930 . S
C998 C997 1.388 . S
C998 C999 1.390 . S
C999 C998 1.390 . S
C999 C1000 1.394 . S
C999 C1005 1.465 . S
C1000 C995 1.399 . S
C1000 C999 1.394 . S
C1000 C1001 1.516 . S
C1001 C1000 1.516 . S
C1001 C1002 1.502 . S
C1001 C1003 1.561 . S
C1001 C1004 1.526 . S
C1002 H986 0.959 . S
C1002 H987 0.959 . S
C1002 H988 0.961 . S
C1002 C1001 1.502 . S
C1003 H989 0.960 . S
C1003 H990 0.961 . S
C1003 H991 0.959 . S
C1003 C1001 1.561 . S
C1004 C1001 1.526 . S
C1004 C1005 1.396 . S
C1004 C1009 1.390 . S
C1005 C999 1.465 . S
C1005 C1004 1.396 . S
C1005 C1006 1.399 . S
C1006 H992 0.929 . S
C1006 C1005 1.399 . S
C1006 C1007 1.385 . S
C1007 H993 0.931 . S
C1007 C1006 1.385 . S
C1007 C1008 1.389 . S
C1008 C1007 1.389 . S
C1008 C1009 1.387 . S
C1009 H994 0.930 . S
C1009 C1004 1.390 . S
C1009 C1008 1.387 . S
H1010 C1022 0.930 . S
H1011 C1024 0.930 . S
H1012 C1025 0.930 . S
H1013 C1029 0.959 . S
H1014 C1029 0.959 . S
H1015 C1029 0.961 . S
H1016 C1030 0.960 . S
H1017 C1030 0.961 . S
H1018 C1030 0.959 . S
H1019 C1033 0.929 . S
H1020 C1034 0.931 . S
H1021 C1036 0.930 . S
C1022 H1010 0.930 . S
C1022 C1023 1.399 . S
C1022 C1027 1.399 . S
C1023 C1022 1.399 . S
C1023 C1024 1.376 . S
C1024 H1011 0.930 . S
C1024 C1023 1.376 . S
C1024 C1025 1.388 . S
C1025 H1012 0.930 . S
C1025 C1024 1.388 . S
C1025 C1026 1.390 . S
C1026 C1025 1.390 . S
C1026 C1027 1.394 . S
C1026 C1032 1.465 . S
C1027 C1022 1.399 . S
C1027 C1026 1.394 . S
C1027 C1028 1.516 . S
C1028 C1027 1.516 . S
C1028 C1029 1.502 . S
C1028 C1030 1.561 . S
C1028 C1031 1.526 . S
C1029 H1013 0.959 . S
C1029 H1014 0.959 . S
C1029 H1015 0.961 . S
C1029 C1028 1.502 . S
C1030 H1016 0.960 . S
C1030 H1017 0.961 . S
C1030 H1018 0.959 . S
C1030 C1028 1.561 . S
C1031 C1028 1.526 . S
C1031 C1032 1.396 . S
C1031 C1036 1.390 . S
C1032 C1026 1.465 . S
C1032 C1031 1.396 . S
C1032 C1033 1.399 . S
C1033 H1019 0.929 . S
C1033 C1032 1.399 . S
C1033 C1034 1.385 . S
C1034 H1020 0.931 . S
C1034 C1033 1.385 . S
C1034 C1035 1.389 . S
C1035 C1034 1.389 . S
C1035 C1036 1.387 . S
C1036 H1021 0.930 . S
C1036 C1031 1.390 . S
C1036 C1035 1.387 . S
H1037 C1049 0.930 . S
H1038 C1051 0.930 . S
H1039 C1052 0.930 . S
H1040 C1056 0.959 . S
H1041 C1056 0.959 . S
H1042 C1056 0.961 . S
H1043 C1057 0.960 . S
H1044 C1057 0.961 . S
H1045 C1057 0.959 . S
H1046 C1060 0.929 . S
H1047 C1061 0.931 . S
H1048 C1063 0.930 . S
C1049 H1037 0.930 . S
C1049 C1050 1.399 . S
C1049 C1054 1.399 . S
C1050 C1049 1.399 . S
C1050 C1051 1.376 . S
C1051 H1038 0.930 . S
C1051 C1050 1.376 . S
C1051 C1052 1.388 . S
C1052 H1039 0.930 . S
C1052 C1051 1.388 . S
C1052 C1053 1.390 . S
C1053 C1052 1.390 . S
C1053 C1054 1.394 . S
C1053 C1059 1.465 . S
C1054 C1049 1.399 . S
C1054 C1053 1.394 . S
C1054 C1055 1.516 . S
C1055 C1054 1.516 . S
C1055 C1056 1.502 . S
C1055 C1057 1.561 . S
C1055 C1058 1.526 . S
C1056 H1040 0.959 . S
C1056 H1041 0.959 . S
C1056 H1042 0.961 . S
C1056 C1055 1.502 . S
C1057 H1043 0.960 . S
C1057 H1044 0.961 . S
C1057 H1045 0.959 . S
C1057 C1055 1.561 . S
C1058 C1055 1.526 . S
C1058 C1059 1.396 . S
C1058 C1063 1.390 . S
C1059 C1053 1.465 . S
C1059 C1058 1.396 . S
C1059 C1060 1.399 . S
C1060 H1046 0.929 . S
C1060 C1059 1.399 . S
C1060 C1061 1.385 . S
C1061 H1047 0.931 . S
C1061 C1060 1.385 . S
C1061 C1062 1.389 . S
C1062 C1061 1.389 . S
C1062 C1063 1.387 . S
C1063 H1048 0.930 . S
C1063 C1058 1.390 . S
C1063 C1062 1.387 . S
C429 C29 0.920 . S
C441 C260 0.950 . S
C456 C49 0.947 . S
C468 C321 1.130 . S
C495 C359 2.519 . S
C483 C93 2.543 . S
C510 C119 2.228 . S
C522 C399 2.268 . S
C549 C319 1.160 . S
C537 C17 1.192 . S
C576 C287 2.046 . S
C564 C61 1.765 . S
C603 C396 1.719 . S
C591 C81 1.701 . S
C630 C356 1.904 . S
C618 C125 1.877 . S
C645 C23 1.022 . S
C657 C401 1.084 . S
C684 C316 2.342 . S
C672 C87 2.284 . S
C699 C113 2.176 . S
C711 C258 2.168 . S
C726 C55 1.391 . S
C738 C361 1.457 . S
C765 C281 0.913 . S
C753 C157 0.881 . S
C780 C189 1.149 . S
C792 C300 1.169 . S
C807 C221 2.553 . S
C819 C338 2.524 . S
C834 C253 2.305 . S
C846 C378 2.337 . S
C861 C145 1.136 . S
C873 C298 1.287 . S
C900 C276 2.008 . S
C888 C183 1.984 . S
C927 C407 1.789 . S
C915 C209 1.738 . S
C954 C367 1.839 . S
C942 C247 1.797 . S
C969 C151 0.971 . S
C981 C380 1.069 . S
C1008 C327 2.350 . S
C996 C215 2.311 . S
C1035 C279 2.155 . S
C1023 C241 2.109 . S
C1050 C177 1.507 . S
C1062 C340 1.460 . S
