# Generated by pormake.
# Topology pyr, (3,6)-cn, num edge types: 1
# Building blocks:
#     Node 0, Type 0, BuildingBlock: BETDIP_clean_linker_0, # of connection points: 3
#     Node 1, Type 0, BuildingBlock: BETDIP_clean_linker_0, # of connection points: 3
#     Node 2, Type 0, BuildingBlock: BETDIP_clean_linker_0, # of connection points: 3
#     Node 3, Type 0, BuildingBlock: BETDIP_clean_linker_0, # of connection points: 3
#     Node 4, Type 0, BuildingBlock: BETDIP_clean_linker_0, # of connection points: 3
#     Node 5, Type 0, BuildingBlock: BETDIP_clean_linker_0, # of connection points: 3
#     Node 6, Type 0, BuildingBlock: BETDIP_clean_linker_0, # of connection points: 3
#     Node 7, Type 0, BuildingBlock: BETDIP_clean_linker_0, # of connection points: 3
#     Node 8, Type 1, BuildingBlock: BETDIP_clean_sbu_0, # of connection points: 6
#     Node 9, Type 1, BuildingBlock: BETDIP_clean_sbu_0, # of connection points: 6
#     Node 10, Type 1, BuildingBlock: BETDIP_clean_sbu_0, # of connection points: 6
#     Node 11, Type 1, BuildingBlock: BETDIP_clean_sbu_0, # of connection points: 6
#     Edge 12, Type (0, 1), BuildingBlock: AJUNOK_clean_linker_0, # of connection points: 2
#     Edge 13, Type (0, 1), BuildingBlock: AJUNOK_clean_linker_0, # of connection points: 2
#     Edge 14, Type (0, 1), BuildingBlock: AJUNOK_clean_linker_0, # of connection points: 2
#     Edge 15, Type (0, 1), BuildingBlock: AJUNOK_clean_linker_0, # of connection points: 2
#     Edge 16, Type (0, 1), BuildingBlock: AJUNOK_clean_linker_0, # of connection points: 2
#     Edge 17, Type (0, 1), BuildingBlock: AJUNOK_clean_linker_0, # of connection points: 2
#     Edge 18, Type (0, 1), BuildingBlock: AJUNOK_clean_linker_0, # of connection points: 2
#     Edge 19, Type (0, 1), BuildingBlock: AJUNOK_clean_linker_0, # of connection points: 2
#     Edge 20, Type (0, 1), BuildingBlock: AJUNOK_clean_linker_0, # of connection points: 2
#     Edge 21, Type (0, 1), BuildingBlock: AJUNOK_clean_linker_0, # of connection points: 2
#     Edge 22, Type (0, 1), BuildingBlock: AJUNOK_clean_linker_0, # of connection points: 2
#     Edge 23, Type (0, 1), BuildingBlock: AJUNOK_clean_linker_0, # of connection points: 2
#     Edge 24, Type (0, 1), BuildingBlock: AJUNOK_clean_linker_0, # of connection points: 2
#     Edge 25, Type (0, 1), BuildingBlock: AJUNOK_clean_linker_0, # of connection points: 2
#     Edge 26, Type (0, 1), BuildingBlock: AJUNOK_clean_linker_0, # of connection points: 2
#     Edge 27, Type (0, 1), BuildingBlock: AJUNOK_clean_linker_0, # of connection points: 2
#     Edge 28, Type (0, 1), BuildingBlock: AJUNOK_clean_linker_0, # of connection points: 2
#     Edge 29, Type (0, 1), BuildingBlock: AJUNOK_clean_linker_0, # of connection points: 2
#     Edge 30, Type (0, 1), BuildingBlock: AJUNOK_clean_linker_0, # of connection points: 2
#     Edge 31, Type (0, 1), BuildingBlock: AJUNOK_clean_linker_0, # of connection points: 2
#     Edge 32, Type (0, 1), BuildingBlock: AJUNOK_clean_linker_0, # of connection points: 2
#     Edge 33, Type (0, 1), BuildingBlock: AJUNOK_clean_linker_0, # of connection points: 2
#     Edge 34, Type (0, 1), BuildingBlock: AJUNOK_clean_linker_0, # of connection points: 2
#     Edge 35, Type (0, 1), BuildingBlock: AJUNOK_clean_linker_0, # of connection points: 2
# Relax obj value: 0.229
# Max RMSD: 0.248
# Mean RMSD: 0.150
data_MOF--net-pyr--node1-BETDIP_clean_sbu_0--node2-BETDIP_clean_linker_0--edge1-AJUNOK_clean_linker_0
_symmetry_space_group_name_H-M    P1
_symmetry_Int_Tables_number       1
_symmetry_cell_setting            triclinic
loop_
_symmetry_equiv_pos_as_xyz
'x, y, z'
_cell_length_a     26.161853
_cell_length_b     28.142181
_cell_length_c     28.031249
_cell_angle_alpha  88.807166
_cell_angle_beta   91.69141
_cell_angle_gamma 111.50898
loop_
_atom_site_label
_atom_site_type_symbol
_atom_site_fract_x
_atom_site_fract_y
_atom_site_fract_z
_atom_type_partial_charge
H0 H 0.41364 0.36753 0.32843 0.0
H1 H 0.47302 0.33271 0.19835 0.0
H2 H 0.49769 0.26135 0.32896 0.0
H3 H 0.40667 0.35879 0.16618 0.0
C4 C 0.39397 0.37959 0.19261 0.0
C5 C 0.43835 0.34975 0.31107 0.0
C6 C 0.45598 0.31441 0.33592 0.0
C7 C 0.44511 0.35736 0.2619 0.0
C8 C 0.47047 0.32968 0.23682 0.0
C9 C 0.48967 0.29528 0.26132 0.0
C10 C 0.48459 0.28953 0.3109 0.0
N11 N 0.41922 0.38813 0.23878 0.0
H12 H 0.07197 0.77047 0.85102 0.0
H13 H 0.1484 0.73161 0.73196 0.0
H14 H 0.22171 0.74118 0.87147 0.0
H15 H 0.11436 0.78104 0.6915 0.0
C16 C 0.08629 0.79209 0.71224 0.0
C17 C 0.10344 0.75827 0.83731 0.0
C18 C 0.14672 0.75695 0.86759 0.0
C19 C 0.10515 0.75217 0.78807 0.0
C20 C 0.14647 0.73721 0.76981 0.0
C21 C 0.18713 0.73109 0.80031 0.0
C22 C 0.18714 0.74103 0.84907 0.0
N23 N 0.07083 0.76982 0.75808 0.0
H24 H 0.74935 0.48445 0.90145 0.0
H25 H 0.60818 0.34489 0.88338 0.0
H26 H 0.73036 0.35645 0.99394 0.0
H27 H 0.58789 0.38611 0.8173 0.0
C28 C 0.61752 0.42477 0.8135 0.0
C29 C 0.72573 0.44558 0.91242 0.0
C30 C 0.74473 0.42389 0.95124 0.0
C31 C 0.67738 0.41762 0.88669 0.0
C32 C 0.64631 0.36673 0.90169 0.0
C33 C 0.66445 0.34459 0.94173 0.0
C34 C 0.71471 0.3733 0.9646 0.0
N35 N 0.66269 0.44333 0.84683 0.0
H36 H 0.82661 0.66905 0.40286 0.0
H37 H 0.97268 0.80331 0.3862 0.0
H38 H 0.86213 0.79475 0.4995 0.0
H39 H 0.96128 0.77403 0.30754 0.0
C40 C 0.94672 0.73269 0.31032 0.0
C41 C 0.85303 0.70656 0.41496 0.0
C42 C 0.8382 0.72833 0.45468 0.0
C43 C 0.90084 0.73313 0.38939 0.0
C44 C 0.93505 0.78263 0.40459 0.0
C45 C 0.92089 0.80533 0.44425 0.0
C46 C 0.8724 0.77787 0.46854 0.0
N47 N 0.91345 0.70803 0.34977 0.0
H48 H 0.57693 0.78335 1.00413 0.0
H49 H 0.65131 0.73304 0.89038 0.0
H50 H 0.63713 0.88016 0.88148 0.0
H51 H 0.59732 0.6292 0.9649 0.0
C52 C 0.62484 0.66891 0.96568 0.0
C53 C 0.59586 0.79007 0.96952 0.0
C54 C 0.60415 0.83611 0.94472 0.0
C55 C 0.61321 0.75292 0.95058 0.0
C56 C 0.63862 0.76171 0.90597 0.0
C57 C 0.64678 0.80736 0.88073 0.0
C58 C 0.62972 0.84435 0.90043 0.0
N59 N 0.60213 0.70619 0.97615 0.0
H60 H 0.9742 0.33106 0.35886 0.0
H61 H 0.89391 0.36131 0.47989 0.0
H62 H 0.83766 0.37993 0.33804 0.0
H63 H 0.03875 0.32573 0.41583 0.0
C64 C 1.00869 0.3052 0.44217 0.0
C65 C 0.9446 0.34499 0.37352 0.0
C66 C 0.90811 0.35726 0.34225 0.0
C67 C 0.93955 0.3463 0.42331 0.0
C68 C 0.89926 0.36221 0.44163 0.0
C69 C 0.86273 0.37471 0.4109 0.0
C70 C 0.8679 0.37286 0.36143 0.0
N71 N 0.96803 0.32444 0.45547 0.0
H72 H 0.32408 0.65748 0.25838 0.0
H73 H 0.46353 0.79605 0.2869 0.0
H74 H 0.35825 0.78706 0.1641 0.0
H75 H 0.4767 0.75579 0.353 0.0
C76 C 0.4486 0.71639 0.35542 0.0
C77 C 0.34931 0.6964 0.24885 0.0
C78 C 0.33588 0.71889 0.20731 0.0
C79 C 0.39529 0.7232 0.27815 0.0
C80 C 0.42811 0.77432 0.26527 0.0
C81 C 0.41434 0.79799 0.2242 0.0
C82 C 0.3687 0.76944 0.19572 0.0
N83 N 0.4062 0.69685 0.31957 0.0
H84 H 0.0988 0.30745 0.80245 0.0
H85 H 0.22581 0.4537 0.77553 0.0
H86 H 0.2145 0.32298 0.69222 0.0
H87 H 0.16353 0.48138 0.81066 0.0
C88 C 0.14968 0.45533 0.84075 0.0
C89 C 0.1342 0.33103 0.78252 0.0
C90 C 0.15291 0.30941 0.74498 0.0
C91 C 0.16054 0.38295 0.79444 0.0
C92 C 0.20564 0.4137 0.76715 0.0
C93 C 0.22525 0.39297 0.72929 0.0
C94 C 0.19924 0.34032 0.71979 0.0
N95 N 0.14161 0.40269 0.8344 0.0
Tb96 Tb 0.9817 1.03174 0.60272 0.0
Tb97 Tb 0.10352 0.0768 0.59337 0.0
C98 C 0.88246 0.97297 0.60538 0.0
C99 C 0.84827 0.94011 0.64249 0.0
C100 C 0.79699 0.90314 0.63037 0.0
C101 C 0.76289 0.87386 0.66608 0.0
C102 C 0.77957 0.88158 0.71438 0.0
C103 C 0.83201 0.91734 0.72607 0.0
C104 C 0.86615 0.94628 0.6904 0.0
C105 C 0.0324 0.10818 0.66204 0.0
C106 C 0.05724 0.98049 0.65668 0.0
C107 C 0.20339 0.13424 0.59593 0.0
C108 C 0.2462 0.16716 0.5644 0.0
C109 C 0.23804 0.20518 0.53534 0.0
C110 C 0.27905 0.23429 0.50445 0.0
C111 C 0.32846 0.22557 0.5021 0.0
C112 C 0.337 0.18851 0.53206 0.0
C113 C 0.2963 0.15976 0.56317 0.0
C114 C 0.05272 1.00035 0.53391 0.0
C115 C 0.02822 0.12606 0.53571 0.0
O116 O 0.92157 0.95921 0.59005 0.0
O117 O 0.89958 1.02198 0.61338 0.0
O118 O 0.04964 0.07383 0.64977 0.0
O119 O 0.98303 0.09676 0.64492 0.0
O120 O 1.00798 0.97462 0.63911 0.0
O121 O 0.09932 1.02384 0.65156 0.0
O122 O 0.16325 0.14933 0.60593 0.0
O123 O 0.1861 0.08531 0.58751 0.0
O124 O 0.03569 1.03462 0.5466 0.0
O125 O 0.10262 1.01238 0.55003 0.0
O126 O 0.07757 0.13224 0.55362 0.0
O127 O 0.98541 0.08358 0.54326 0.0
H128 H 0.78298 0.89753 0.59342 0.0
H129 H 0.7232 0.84576 0.65599 0.0
H130 H 0.84589 0.92422 0.76297 0.0
H131 H 0.90595 0.97438 0.70027 0.0
H132 H 0.19973 0.21167 0.53569 0.0
H133 H 0.27126 0.26211 0.481 0.0
H134 H 0.37474 0.18108 0.53062 0.0
H135 H 0.30347 0.13087 0.58559 0.0
Tb136 Tb 0.60315 0.08988 0.10375 0.0
Tb137 Tb 0.48329 0.05829 1.06781 0.0
C138 C 0.70549 0.13496 0.1046 0.0
C139 C 0.74635 0.18544 0.11563 0.0
C140 C 0.73072 0.22254 0.13688 0.0
C141 C 0.77024 0.26397 0.15988 0.0
C142 C 0.8256 0.26839 0.16205 0.0
C143 C 0.84164 0.23422 0.1361 0.0
C144 C 0.80214 0.19289 0.11307 0.0
C145 C 0.54186 1.00169 0.14627 0.0
C146 C 0.52784 0.13821 0.15366 0.0
C147 C 0.3803 1.02568 1.05929 0.0
C148 C 0.33694 0.9751 1.05392 0.0
C149 C 0.3493 0.93404 1.03716 0.0
C150 C 0.30707 0.88949 1.02217 0.0
C151 C 0.252 0.88554 1.02387 0.0
C152 C 0.23975 0.9242 1.0463 0.0
C153 C 0.28209 0.96902 1.06082 0.0
C154 C 0.55634 0.13737 1.02175 0.0
C155 C 0.55415 1.00056 1.02995 0.0
O156 O 0.67449 0.13106 1.0661 0.0
O157 O 0.67773 0.11007 0.14135 0.0
O158 O 0.52754 1.02874 0.11624 0.0
O159 O 0.59423 1.02499 0.15343 0.0
O160 O 0.57832 0.13828 0.15026 0.0
O161 O 0.48644 0.11003 0.12575 0.0
O162 O 0.40658 1.03491 0.10041 0.0
O163 O 0.41344 1.04131 1.02334 0.0
O164 O 0.55514 0.12655 1.06564 0.0
O165 O 0.51352 0.1033 1.00203 0.0
O166 O 0.50401 0.99541 1.04231 0.0
O167 O 0.59741 1.04104 1.0426 0.0
H168 H 0.68769 0.2171 0.13932 0.0
H169 H 0.75659 0.28929 0.18016 0.0
H170 H 0.88402 0.23682 0.13738 0.0
H171 H 0.81476 0.16448 0.09678 0.0
H172 H 0.39153 0.93785 1.0324 0.0
H173 H 0.3178 0.86031 1.00514 0.0
H174 H 0.19756 0.92161 1.04879 0.0
H175 H 0.27194 1.00011 1.07453 0.0
Tb176 Tb 0.53224 0.61507 0.61477 0.0
Tb177 Tb 0.52095 0.52424 0.56061 0.0
C178 C 0.51101 0.68882 0.64608 0.0
C179 C 0.46487 0.6931 0.67231 0.0
C180 C 0.41127 0.65709 0.66585 0.0
C181 C 0.36744 0.66217 0.68955 0.0
C182 C 0.37617 0.70374 0.71964 0.0
C183 C 0.42968 0.73989 0.72614 0.0
C184 C 0.47382 0.73435 0.70289 0.0
C185 C 0.57436 0.554 0.66068 0.0
C186 C 0.42155 0.51406 0.62294 0.0
C187 C 0.53767 0.44988 0.52555 0.0
C188 C 0.58597 0.4392 0.51051 0.0
C189 C 0.62691 0.43761 0.54351 0.0
C190 C 0.6717 0.42647 0.52838 0.0
C191 C 0.67641 0.41678 0.48005 0.0
C192 C 0.636 0.41944 0.44705 0.0
C193 C 0.59103 0.43007 0.4622 0.0
C194 C 0.48157 0.58777 0.51417 0.0
C195 C 0.63301 0.62195 0.55603 0.0
O196 O 0.49911 0.67158 0.60256 0.0
O197 O 0.54213 0.66839 0.66928 0.0
O198 O 0.53048 0.54057 0.63539 0.0
O199 O 0.59489 0.60363 0.66205 0.0
O200 O 0.44888 0.56261 0.63356 0.0
O201 O 0.44252 0.48908 0.59506 0.0
O202 O 0.53286 0.45508 0.57128 0.0
O203 O 0.52528 0.48366 0.49995 0.0
O204 O 0.52472 0.59924 0.54006 0.0
O205 O 0.45931 0.53829 0.51315 0.0
O206 O 0.60898 0.57159 0.55354 0.0
O207 O 0.60743 0.64934 0.5751 0.0
H208 H 0.40282 0.62556 0.64169 0.0
H209 H 0.32641 0.63435 0.68333 0.0
H210 H 0.43725 0.77237 0.74911 0.0
H211 H 0.51476 0.7626 0.70821 0.0
H212 H 0.62435 0.4447 0.58102 0.0
H213 H 0.70227 0.42475 0.55457 0.0
H214 H 0.63925 0.41354 0.40938 0.0
H215 H 0.56019 0.4313 0.43605 0.0
Tb216 Tb 0.0405 0.62589 1.04593 0.0
Tb217 Tb 0.03551 0.53929 0.11132 0.0
C218 C 1.01351 0.68733 0.99387 0.0
C219 C 0.96341 0.69951 0.98847 0.0
C220 C 0.93229 0.70077 1.02809 0.0
C221 C 0.88019 0.70345 1.0216 0.0
C222 C 0.85799 0.70392 0.97542 0.0
C223 C 0.89024 0.70522 0.93589 0.0
C224 C 0.94262 0.70321 0.9424 0.0
C225 C 0.13532 0.63636 0.08957 0.0
C226 C 0.99578 0.62155 0.15248 0.0
C227 C 0.06043 0.47535 0.16116 0.0
C228 C 0.10497 0.45555 0.15921 0.0
C229 C 0.14987 0.47907 0.12957 0.0
C230 C 0.19451 0.4631 0.13087 0.0
C231 C 0.19516 0.42382 0.16226 0.0
C232 C 0.14959 0.39955 0.19109 0.0
C233 C 0.10464 0.41518 0.18938 0.0
C234 C 0.94077 0.52953 1.06728 0.0
C235 C 0.08063 0.54382 1.0047 0.0
O236 O 1.00693 0.64098 0.98138 0.0
O237 O 0.04271 0.70069 1.03352 0.0
O238 O 0.08804 0.61742 0.10657 0.0
O239 O 0.1308 0.65496 1.04757 0.0
O240 O 0.99523 0.63732 0.1075 0.0
O241 O 1.01346 0.58427 0.16378 0.0
O242 O 0.07632 0.52383 0.17137 0.0
O243 O 1.02414 0.46257 0.126 0.0
O244 O 0.98824 0.5477 1.05059 0.0
O245 O 0.94536 0.5116 0.10957 0.0
O246 O 0.07983 0.52665 1.0493 0.0
O247 O 0.06285 0.58111 0.99407 0.0
H248 H 0.94698 0.69734 1.06396 0.0
H249 H 0.85593 0.70209 1.05262 0.0
H250 H 0.87414 0.706 0.89995 0.0
H251 H 0.96585 0.70207 0.91135 0.0
H252 H 0.15134 0.51094 0.10666 0.0
H253 H 0.22956 0.48298 0.10897 0.0
H254 H 0.14935 0.36924 0.21566 0.0
H255 H 0.0704 0.3968 0.21261 0.0
C256 C 0.41255 0.24143 0.39207 0.0
C257 C 0.43304 0.29466 0.3836 0.0
C258 C 0.38123 0.21993 0.4319 0.0
C259 C 0.36806 0.25051 0.46451 0.0
H260 H 0.41756 0.21541 0.36632 0.0
H261 H 0.36453 0.17869 0.43569 0.0
S262 S 0.41509 0.3916 0.46253 0.0
N263 N 0.44228 0.37775 0.41481 0.0
N264 N 0.38035 0.33639 0.48846 0.0
C265 C 0.38983 0.30369 0.4581 0.0
C266 C 0.42307 0.32595 0.41802 0.0
C267 C 0.17992 0.76531 0.95324 0.0
C268 C 0.15815 0.78426 0.91389 0.0
C269 C 0.20605 0.79694 0.99171 0.0
C270 C 0.21066 0.84835 0.99233 0.0
H271 H 0.18017 0.72691 0.95272 0.0
H272 H 0.22591 0.78211 1.01955 0.0
S273 S 0.15651 0.91543 0.90027 0.0
N274 N 0.13998 0.85707 0.87986 0.0
N275 N 0.18761 0.91554 0.95229 0.0
C276 C 0.18482 0.86633 0.95534 0.0
C277 C 0.15885 0.8345 0.91608 0.0
C278 C 0.56174 0.43989 0.74359 0.0
C279 C 0.60916 0.45819 0.77346 0.0
C280 C 0.55139 0.47028 0.70652 0.0
C281 C 0.58794 0.52061 0.69761 0.0
H282 H 0.53183 0.40175 0.74926 0.0
H283 H 0.51382 0.45448 0.68531 0.0
S284 S 0.72017 0.58621 0.76282 0.0
N285 N 0.69463 0.5297 0.78925 0.0
N286 N 0.67499 0.5864 0.72051 0.0
C287 C 0.63614 0.539 0.72641 0.0
C288 C 0.64679 0.50803 0.764 0.0
C289 C 0.94817 0.65098 0.27339 0.0
C290 C 0.95672 0.70342 0.26953 0.0
C291 C 0.96011 0.62453 0.23542 0.0
C292 C 0.97997 0.64905 0.19156 0.0
H293 H 0.9332 0.63037 0.30629 0.0
H294 H 0.95377 0.58453 0.24053 0.0
S295 S 1.00946 0.78601 0.16321 0.0
N296 N 0.98663 0.77867 0.21819 0.0
N297 N 1.00803 0.72938 0.14732 0.0
C298 C 0.98789 0.70127 0.18722 0.0
C299 C 0.9766 0.72824 0.22598 0.0
C300 C 0.55371 0.25723 0.22749 0.0
C301 C 0.50019 0.25544 0.23462 0.0
C302 C 0.56257 0.21808 0.20275 0.0
C303 C 0.51809 0.17596 0.18471 0.0
H304 H 0.58872 0.2892 0.24062 0.0
H305 H 0.60452 0.22159 0.19673 0.0
S306 S 0.36987 0.15209 0.1995 0.0
N307 N 0.40246 0.20758 0.22529 0.0
N308 N 0.41835 0.13367 0.17962 0.0
C309 C 0.46433 0.17327 0.19359 0.0
C310 C 0.45559 0.21314 0.21832 0.0
C311 C 0.03436 0.85154 0.71513 0.0
C312 C 0.07936 0.84065 0.69918 0.0
C313 C 0.02783 0.89763 0.70238 0.0
C314 C 0.06721 0.93497 0.67487 0.0
H315 H 1.00338 0.82383 0.73662 0.0
H316 H 0.99169 0.90399 0.71386 0.0
S317 S 0.19245 0.92483 0.62467 0.0
N318 N 0.16339 0.87056 0.65413 0.0
N319 N 0.15241 0.95771 0.63185 0.0
C320 C 0.11285 0.9248 0.6596 0.0
C321 C 0.11858 0.87747 0.67132 0.0
C322 C 0.83841 0.43434 0.98439 0.0
C323 C 0.79594 0.45363 0.97858 0.0
C324 C 0.88553 0.45972 1.01257 0.0
C325 C 0.89163 0.50496 1.03648 0.0
H326 H 0.83499 0.39914 0.96718 0.0
H327 H 0.91713 0.44344 1.01627 0.0
S328 S 0.79221 0.57066 1.0344 0.0
N329 N 0.76312 0.52065 0.99972 0.0
N330 N 0.85164 0.56797 1.05301 0.0
C331 C 0.84985 0.52484 1.03099 0.0
C332 C 0.80203 0.4993 1.0019 0.0
C333 C 0.75262 0.72592 0.49583 0.0
C334 C 0.78671 0.70012 0.48157 0.0
C335 C 0.70412 0.70073 0.52089 0.0
C336 C 0.68702 0.64837 0.53269 0.0
H337 H 0.76294 0.76592 0.48681 0.0
H338 H 0.67919 0.72244 0.53007 0.0
S339 S 0.76309 0.56368 0.50693 0.0
N340 N 0.80123 0.61953 0.48402 0.0
N341 N 0.7096 0.57201 0.52981 0.0
C342 C 0.72102 0.62216 0.51932 0.0
C343 C 0.77077 0.64797 0.4941 0.0
C344 C 0.31846 0.40552 0.22146 0.0
C345 C 0.34415 0.39198 0.18336 0.0
C346 C 0.2699 0.41492 0.21418 0.0
C347 C 0.24542 0.41173 0.16852 0.0
H348 H 0.33537 0.40835 0.25748 0.0
H349 H 0.2517 0.42541 0.24451 0.0
S350 S 0.29583 0.37772 1.05691 0.0
N351 N 0.34117 0.37548 0.09837 0.0
N352 N 0.24996 0.39411 0.08459 0.0
C353 C 0.27066 0.39864 0.13001 0.0
C354 C 0.31994 0.38843 0.1375 0.0
C355 C 0.61177 0.24887 0.93218 0.0
C356 C 0.63222 0.29217 0.96161 0.0
C357 C 0.58749 0.19901 0.95174 0.0
C358 C 0.5833 0.19028 1.00153 0.0
H359 H 0.61586 0.25335 0.89385 0.0
H360 H 0.57263 0.16694 0.92768 0.0
S361 S 0.62438 0.29088 0.09398 0.0
N362 N 0.64102 0.32275 1.04315 0.0
N363 N 0.59825 0.23003 1.0794 0.0
C364 C 0.60226 0.23336 1.03114 0.0
C365 C 0.6258 0.28389 1.01134 0.0
C366 C 0.93517 0.89524 0.46936 0.0
C367 C 0.95696 0.85689 0.46244 0.0
C368 C 0.9666 0.94207 0.49111 0.0
C369 C 1.02084 0.95218 0.50777 0.0
H370 H 0.89312 0.8887 0.45833 0.0
H371 H 0.94788 0.97016 0.49564 0.0
S372 S 0.09692 0.86414 0.49915 0.0
N373 N 0.03631 0.83251 0.47404 0.0
N374 N 0.09493 0.91948 0.5154 0.0
C375 C 0.04328 0.91434 0.5005 0.0
C376 C 1.01152 0.86704 0.47782 0.0
C377 C 0.27109 0.7609 0.75111 0.0
C378 C 0.23479 0.72286 0.78021 0.0
C379 C 0.31761 0.75499 0.73266 0.0
C380 C 0.32881 0.71047 0.74211 0.0
H381 H 0.26364 0.79564 0.74291 0.0
H382 H 0.34443 0.78498 0.71011 0.0
S383 S 0.24696 0.60023 0.81697 0.0
N384 N 0.21364 0.63997 0.81862 0.0
N385 N 0.30046 0.62815 0.7829 0.0
C386 C 0.29286 0.67223 0.77123 0.0
C387 C 0.24601 0.67865 0.79064 0.0
C388 C 0.72834 0.8154 0.83244 0.0
C389 C 0.67599 0.81833 0.83496 0.0
C390 C 0.76067 0.83372 0.79223 0.0
C391 C 0.74163 0.85528 0.75307 0.0
H392 H 0.74553 0.80125 0.86269 0.0
H393 H 0.80159 0.8325 0.7924 0.0
S394 S 0.605 0.86682 0.74046 0.0
N395 N 0.60445 0.83997 0.79347 0.0
N396 N 0.66561 0.87553 0.71831 0.0
C397 C 0.68809 0.85575 0.75416 0.0
C398 C 0.65522 0.83706 0.79505 0.0
C399 C 0.90187 0.29377 0.27972 0.0
C400 C 0.90319 0.34265 0.29117 0.0
C401 C 0.88182 0.27218 0.2354 0.0
C402 C 0.86183 0.2984 0.2009 0.0
H403 H 0.91165 0.26993 0.30651 0.0
H404 H 0.87726 0.23281 0.22993 0.0
S405 S 0.86852 0.43178 0.20855 0.0
N406 N 0.89271 0.4204 0.26092 0.0
N407 N 0.85308 0.37872 0.1777 0.0
C408 C 0.86805 0.34913 0.20982 0.0
C409 C 0.88927 0.37153 0.25492 0.0
C410 C 0.42065 0.63267 0.40317 0.0
C411 C 0.45588 0.68405 0.39689 0.0
C412 C 0.42849 0.60238 0.44161 0.0
C413 C 0.47185 0.6219 0.47561 0.0
H414 H 0.38701 0.61548 0.3781 0.0
H415 H 0.40057 0.56297 0.44431 0.0
S416 S 0.57512 0.75429 0.47602 0.0
N417 N 0.53539 0.75308 0.42881 0.0
N418 N 0.54995 0.69664 0.50025 0.0
C419 C 0.5068 0.67337 0.47001 0.0
C420 C 0.49888 0.70417 0.43097 0.0
C421 C 0.12195 0.52116 0.87971 0.0
C422 C 0.13176 0.47528 0.88403 0.0
C423 C 0.10637 0.54289 0.91881 0.0
C424 C 0.10004 0.52012 0.96469 0.0
H425 H 0.1258 0.54039 0.84542 0.0
H426 H 0.09911 0.57806 0.91269 0.0
S427 S 0.12284 0.40022 0.99608 0.0
N428 N 0.13525 0.40811 0.9384 0.0
N429 N 0.10617 0.44877 1.01201 0.0
C430 C 0.11035 0.47431 0.96978 0.0
C431 C 0.12596 0.45191 0.92955 0.0
C432 C 0.62758 0.92746 0.96625 0.0
C433 C 0.58903 0.87711 0.96563 0.0
C434 C 0.61522 0.96714 0.98591 0.0
C435 C 0.56368 0.95825 1.00574 0.0
H436 H 0.66817 0.93621 0.95215 0.0
H437 H 0.64676 1.00505 0.98598 0.0
S438 S 0.44752 0.83317 1.01179 0.0
N439 N 0.49653 0.82051 0.9852 0.0
N440 N 0.47335 0.89493 1.02303 0.0
C441 C 0.52433 0.90808 1.0048 0.0
C442 C 0.53704 0.86755 0.98472 0.0
C443 C 0.0616 0.25011 0.46528 0.0
C444 C 1.01176 0.2583 0.46494 0.0
C445 C 0.06629 0.20658 0.48723 0.0
C446 C 1.02088 0.169 0.50863 0.0
H447 H 0.0976 0.27811 0.4493 0.0
H448 H 0.10593 0.20256 0.48769 0.0
S449 S 0.88004 0.17086 0.51458 0.0
N450 N 0.91536 0.22426 0.48611 0.0
N451 N 0.9239 0.14224 0.52671 0.0
C452 C 0.97029 0.176 0.50716 0.0
C453 C 0.96579 0.22074 0.48553 0.0
C454 C 0.23447 0.66666 0.19725 0.0
C455 C 0.28618 0.69131 0.17662 0.0
C456 C 0.18608 0.64719 0.16885 0.0
C457 C 0.18735 0.65177 0.11867 0.0
H458 H 0.23101 0.66441 0.23572 0.0
H459 H 0.14715 0.63021 0.18651 0.0
S460 S 0.31265 0.70639 1.04657 0.0
N461 N 0.33593 0.71374 0.1024 0.0
N462 N 0.24521 0.67846 1.04949 0.0
C463 C 0.23894 0.67386 0.09754 0.0
C464 C 0.28818 0.69326 0.12633 0.0
C465 C 0.31849 0.46433 0.72245 0.0
C466 C 0.27346 0.42585 0.70029 0.0
C467 C 0.36513 0.49387 0.69675 0.0
C468 C 0.36958 0.48555 0.64796 0.0
H469 H 0.31858 0.47093 0.76037 0.0
H470 H 0.39893 0.52222 0.71574 0.0
S471 S 0.26199 0.39457 0.57098 0.0
N472 N 0.23478 0.38583 0.62438 0.0
N473 N 0.32401 0.43877 0.57754 0.0
C474 C 0.32485 0.4483 0.62494 0.0
C475 C 0.27655 0.41918 0.65066 0.0
C476 C 0.72262 0.72334 0.98816 0.0
C477 C 0.68494 0.68071 0.96438 0.0
C478 C 0.77893 0.73145 0.99074 0.0
C479 C 0.79947 0.69782 0.96881 0.0
H480 H 0.70843 0.74959 1.00637 0.0
H481 H 0.80649 0.76382 1.01054 0.0
S482 S 0.7179 0.58156 0.90123 0.0
N483 N 0.67212 0.6051 0.91812 0.0
N484 N 0.7779 0.62098 0.92187 0.0
C485 C 0.76238 0.65603 0.94376 0.0
C486 C 0.70512 0.64729 0.94191 0.0
C487 C 0.50448 0.86946 0.20503 0.0
C488 C 0.44699 0.85217 0.20914 0.0
C489 C 0.53446 0.91786 0.18498 0.0
C490 C 0.50832 0.95092 0.16771 0.0
H491 H 0.52631 0.8448 0.21594 0.0
H492 H 0.57851 0.92898 0.18203 0.0
S493 S 0.3598 0.92701 0.17584 0.0
N494 N 0.36602 0.87477 0.19856 0.0
N495 N 0.42222 0.96437 0.16031 0.0
C496 C 0.45131 0.93484 0.17313 0.0
C497 C 0.42082 0.88597 0.19402 0.0
C498 C 0.06725 0.24181 0.71212 0.0
C499 C 0.12189 0.25574 0.72896 0.0
C500 C 0.0389 0.19378 0.69157 0.0
C501 C 0.06355 0.1571 0.68735 0.0
H502 H 0.04684 0.26901 0.71325 0.0
H503 H 0.99745 0.18582 0.67793 0.0
S504 S 0.20391 0.17245 0.73108 0.0
N505 N 0.19867 0.22782 0.74267 0.0
N506 N 0.14449 0.13674 0.70622 0.0
C507 C 0.11732 0.16961 0.70616 0.0
C508 C 0.14668 0.21907 0.72628 0.0
C509 C 0.82253 0.42318 0.46244 0.0
C510 C 0.81493 0.38363 0.43004 0.0
C511 C 0.77749 0.43325 0.47909 0.0
C512 C 0.72338 0.40401 0.46395 0.0
H513 H 0.8636 0.44712 0.47416 0.0
H514 H 0.78522 0.46476 0.50324 0.0
S515 S 0.68158 0.29163 0.38446 0.0
N516 N 0.74936 0.31219 0.38677 0.0
N517 N 0.66475 0.33066 0.41835 0.0
C518 C 0.71531 0.36304 0.43302 0.0
C519 C 0.76106 0.35296 0.41601 0.0
loop_
_geom_bond_atom_site_label_1
_geom_bond_atom_site_label_2
_geom_bond_distance
_geom_bond_site_symmetry_2
_ccdc_geom_bond_type
H0 C5 0.930 . S
H1 C8 0.930 . S
H2 C10 0.930 . S
H3 C4 1.016 . S
C4 H3 1.016 . S
C4 N11 1.286 . S
C5 H0 0.930 . S
C5 C6 1.397 . S
C5 C7 1.361 . S
C6 C5 1.397 . S
C6 C10 1.390 . S
C7 C5 1.361 . S
C7 C8 1.393 . S
C7 N11 1.413 . S
C8 H1 0.930 . S
C8 C7 1.393 . S
C8 C9 1.399 . S
C9 C8 1.399 . S
C9 C10 1.381 . S
C10 H2 0.930 . S
C10 C6 1.390 . S
C10 C9 1.381 . S
N11 C4 1.286 . S
N11 C7 1.413 . S
H12 C17 0.930 . S
H13 C20 0.930 . S
H14 C22 0.930 . S
H15 C16 1.017 . S
C16 H15 1.017 . S
C16 N23 1.286 . S
C17 H12 0.930 . S
C17 C18 1.397 . S
C17 C19 1.361 . S
C18 C17 1.397 . S
C18 C22 1.390 . S
C19 C17 1.361 . S
C19 C20 1.393 . S
C19 N23 1.413 . S
C20 H13 0.930 . S
C20 C19 1.393 . S
C20 C21 1.399 . S
C21 C20 1.399 . S
C21 C22 1.381 . S
C22 H14 0.930 . S
C22 C18 1.390 . S
C22 C21 1.381 . S
N23 C16 1.286 . S
N23 C19 1.413 . S
H24 C29 0.930 . S
H25 C32 0.930 . S
H26 C34 0.930 . S
H27 C28 1.016 . S
C28 H27 1.016 . S
C28 N35 1.286 . S
C29 H24 0.930 . S
C29 C30 1.397 . S
C29 C31 1.361 . S
C30 C29 1.397 . S
C30 C34 1.390 . S
C31 C29 1.361 . S
C31 C32 1.393 . S
C31 N35 1.413 . S
C32 H25 0.930 . S
C32 C31 1.393 . S
C32 C33 1.399 . S
C33 C32 1.399 . S
C33 C34 1.381 . S
C34 H26 0.930 . S
C34 C30 1.390 . S
C34 C33 1.381 . S
N35 C28 1.286 . S
N35 C31 1.413 . S
H36 C41 0.930 . S
H37 C44 0.930 . S
H38 C46 0.930 . S
H39 C40 1.016 . S
C40 H39 1.016 . S
C40 N47 1.286 . S
C41 H36 0.930 . S
C41 C42 1.397 . S
C41 C43 1.361 . S
C42 C41 1.397 . S
C42 C46 1.390 . S
C43 C41 1.361 . S
C43 C44 1.393 . S
C43 N47 1.413 . S
C44 H37 0.930 . S
C44 C43 1.393 . S
C44 C45 1.399 . S
C45 C44 1.399 . S
C45 C46 1.381 . S
C46 H38 0.930 . S
C46 C42 1.390 . S
C46 C45 1.381 . S
N47 C40 1.286 . S
N47 C43 1.413 . S
H48 C53 0.930 . S
H49 C56 0.930 . S
H50 C58 0.930 . S
H51 C52 1.016 . S
C52 H51 1.016 . S
C52 N59 1.286 . S
C53 H48 0.930 . S
C53 C54 1.397 . S
C53 C55 1.361 . S
C54 C53 1.397 . S
C54 C58 1.390 . S
C55 C53 1.361 . S
C55 C56 1.393 . S
C55 N59 1.413 . S
C56 H49 0.930 . S
C56 C55 1.393 . S
C56 C57 1.399 . S
C57 C56 1.399 . S
C57 C58 1.381 . S
C58 H50 0.930 . S
C58 C54 1.390 . S
C58 C57 1.381 . S
N59 C52 1.286 . S
N59 C55 1.413 . S
H60 C65 0.930 . S
H61 C68 0.930 . S
H62 C70 0.930 . S
H63 C64 1.016 . S
C64 H63 1.016 . S
C64 N71 1.286 1_455 S
C65 H60 0.930 . S
C65 C66 1.397 . S
C65 C67 1.361 . S
C66 C65 1.397 . S
C66 C70 1.390 . S
C67 C65 1.361 . S
C67 C68 1.393 . S
C67 N71 1.413 . S
C68 H61 0.930 . S
C68 C67 1.393 . S
C68 C69 1.399 . S
C69 C68 1.399 . S
C69 C70 1.381 . S
C70 H62 0.930 . S
C70 C66 1.390 . S
C70 C69 1.381 . S
N71 C64 1.286 1_655 S
N71 C67 1.413 . S
H72 C77 0.930 . S
H73 C80 0.930 . S
H74 C82 0.930 . S
H75 C76 1.016 . S
C76 H75 1.016 . S
C76 N83 1.286 . S
C77 H72 0.930 . S
C77 C78 1.397 . S
C77 C79 1.361 . S
C78 C77 1.397 . S
C78 C82 1.390 . S
C79 C77 1.361 . S
C79 C80 1.393 . S
C79 N83 1.413 . S
C80 H73 0.930 . S
C80 C79 1.393 . S
C80 C81 1.399 . S
C81 C80 1.399 . S
C81 C82 1.381 . S
C82 H74 0.930 . S
C82 C78 1.390 . S
C82 C81 1.381 . S
N83 C76 1.286 . S
N83 C79 1.413 . S
H84 C89 0.930 . S
H85 C92 0.930 . S
H86 C94 0.930 . S
H87 C88 1.016 . S
C88 H87 1.016 . S
C88 N95 1.286 . S
C89 H84 0.930 . S
C89 C90 1.397 . S
C89 C91 1.361 . S
C90 C89 1.397 . S
C90 C94 1.390 . S
C91 C89 1.361 . S
C91 C92 1.393 . S
C91 N95 1.413 . S
C92 H85 0.930 . S
C92 C91 1.393 . S
C92 C93 1.399 . S
C93 C92 1.399 . S
C93 C94 1.381 . S
C94 H86 0.930 . S
C94 C90 1.390 . S
C94 C93 1.381 . S
N95 C88 1.286 . S
N95 C91 1.413 . S
Tb96 C98 2.815 . S
Tb96 O116 2.494 . S
Tb96 O117 2.442 . S
Tb96 O118 2.656 1_665 S
Tb96 O119 2.403 1_665 S
Tb96 O120 2.386 . S
Tb96 O124 2.332 . S
Tb96 O127 2.334 1_565 S
Tb97 C107 2.809 . S
Tb97 O118 2.325 . S
Tb97 O121 2.341 1_545 S
Tb97 O122 2.484 . S
Tb97 O123 2.440 . S
Tb97 O124 2.658 1_445 S
Tb97 O125 2.409 1_545 S
Tb97 O126 2.378 . S
C98 Tb96 2.815 . S
C98 C99 1.514 . S
C98 O116 1.248 . S
C98 O117 1.266 . S
C99 C98 1.514 . S
C99 C100 1.359 . S
C99 C104 1.348 . S
C100 C99 1.359 . S
C100 C101 1.380 . S
C100 H128 0.929 . S
C101 C100 1.380 . S
C101 C102 1.347 . S
C101 H129 0.931 . S
C102 C101 1.347 . S
C102 C103 1.369 . S
C103 C102 1.369 . S
C103 C104 1.408 . S
C103 H130 0.930 . S
C104 C99 1.348 . S
C104 C103 1.408 . S
C104 H131 0.930 . S
C105 O118 1.281 . S
C105 O119 1.253 . S
C106 O120 1.236 1_455 S
C106 O121 1.266 . S
C107 Tb97 2.809 . S
C107 C108 1.514 . S
C107 O122 1.248 . S
C107 O123 1.266 . S
C108 C107 1.514 . S
C108 C109 1.359 . S
C108 C113 1.348 . S
C109 C108 1.359 . S
C109 C110 1.380 . S
C109 H132 0.929 . S
C110 C109 1.380 . S
C110 C111 1.347 . S
C110 H133 0.931 . S
C111 C110 1.347 . S
C111 C112 1.369 . S
C112 C111 1.369 . S
C112 C113 1.408 . S
C112 H134 0.930 . S
C113 C108 1.348 . S
C113 C112 1.408 . S
C113 H135 0.930 . S
C114 O124 1.281 . S
C114 O125 1.254 1_655 S
C115 O126 1.236 1_655 S
C115 O127 1.266 . S
O116 Tb96 2.494 . S
O116 C98 1.248 . S
O117 Tb96 2.442 . S
O117 C98 1.266 . S
O118 Tb96 2.656 1_445 S
O118 Tb97 2.325 . S
O118 C105 1.281 . S
O119 Tb96 2.403 1_445 S
O119 C105 1.253 . S
O120 Tb96 2.386 . S
O120 C106 1.236 1_655 S
O121 Tb97 2.341 1_565 S
O121 C106 1.266 . S
O122 Tb97 2.484 . S
O122 C107 1.248 . S
O123 Tb97 2.440 . S
O123 C107 1.266 . S
O124 Tb96 2.332 . S
O124 Tb97 2.658 1_665 S
O124 C114 1.281 . S
O125 Tb97 2.409 1_565 S
O125 C114 1.254 1_455 S
O126 Tb97 2.378 . S
O126 C115 1.236 1_455 S
O127 Tb96 2.334 1_545 S
O127 C115 1.266 . S
H128 C100 0.929 . S
H129 C101 0.931 . S
H130 C103 0.930 . S
H131 C104 0.930 . S
H132 C109 0.929 . S
H133 C110 0.931 . S
H134 C112 0.930 . S
H135 C113 0.930 . S
Tb136 C138 2.809 . S
Tb136 O156 2.484 . S
Tb136 O157 2.440 . S
Tb136 O158 2.658 1_545 S
Tb136 O159 2.409 1_545 S
Tb136 O160 2.378 . S
Tb136 O164 2.325 1_554 S
Tb136 O167 2.341 1_544 S
Tb137 C147 2.809 1_545 S
Tb137 O158 2.325 1_546 S
Tb137 O161 2.341 1_556 S
Tb137 O162 2.484 1_545 S
Tb137 O163 2.440 1_545 S
Tb137 O164 2.658 . S
Tb137 O165 2.409 . S
Tb137 O166 2.378 1_545 S
C138 Tb136 2.809 . S
C138 C139 1.514 . S
C138 O156 1.248 . S
C138 O157 1.266 . S
C139 C138 1.514 . S
C139 C140 1.359 . S
C139 C144 1.348 . S
C140 C139 1.359 . S
C140 C141 1.380 . S
C140 H168 0.929 . S
C141 C140 1.380 . S
C141 C142 1.347 . S
C141 H169 0.931 . S
C142 C141 1.347 . S
C142 C143 1.369 . S
C143 C142 1.369 . S
C143 C144 1.408 . S
C143 H170 0.930 . S
C144 C139 1.348 . S
C144 C143 1.408 . S
C144 H171 0.930 . S
C145 O158 1.281 . S
C145 O159 1.254 . S
C146 O160 1.236 . S
C146 O161 1.266 . S
C147 Tb137 2.809 1_565 S
C147 C148 1.514 . S
C147 O162 1.248 . S
C147 O163 1.266 . S
C148 C147 1.514 . S
C148 C149 1.359 . S
C148 C153 1.348 . S
C149 C148 1.359 . S
C149 C150 1.380 . S
C149 H172 0.929 . S
C150 C149 1.380 . S
C150 C151 1.347 . S
C150 H173 0.931 . S
C151 C150 1.347 . S
C151 C152 1.369 . S
C152 C151 1.369 . S
C152 C153 1.408 . S
C152 H174 0.930 . S
C153 C148 1.348 . S
C153 C152 1.408 . S
C153 H175 0.930 . S
C154 O164 1.281 . S
C154 O165 1.254 . S
C155 O166 1.236 . S
C155 O167 1.266 . S
O156 Tb136 2.484 . S
O156 C138 1.248 . S
O157 Tb136 2.440 . S
O157 C138 1.266 . S
O158 Tb136 2.658 1_565 S
O158 Tb137 2.325 1_564 S
O158 C145 1.281 . S
O159 Tb136 2.409 1_565 S
O159 C145 1.254 . S
O160 Tb136 2.378 . S
O160 C146 1.236 . S
O161 Tb137 2.341 1_554 S
O161 C146 1.266 . S
O162 Tb137 2.484 1_565 S
O162 C147 1.248 . S
O163 Tb137 2.440 1_565 S
O163 C147 1.266 . S
O164 Tb136 2.325 1_556 S
O164 Tb137 2.658 . S
O164 C154 1.281 . S
O165 Tb137 2.409 . S
O165 C154 1.254 . S
O166 Tb137 2.378 1_565 S
O166 C155 1.236 . S
O167 Tb136 2.341 1_566 S
O167 C155 1.266 . S
H168 C140 0.929 . S
H169 C141 0.931 . S
H170 C143 0.930 . S
H171 C144 0.930 . S
H172 C149 0.929 . S
H173 C150 0.931 . S
H174 C152 0.930 . S
H175 C153 0.930 . S
Tb176 C178 2.809 . S
Tb176 O196 2.484 . S
Tb176 O197 2.440 . S
Tb176 O198 2.658 . S
Tb176 O199 2.409 . S
Tb176 O200 2.378 . S
Tb176 O204 2.325 . S
Tb176 O207 2.341 . S
Tb177 C187 2.809 . S
Tb177 O198 2.325 . S
Tb177 O201 2.341 . S
Tb177 O202 2.484 . S
Tb177 O203 2.440 . S
Tb177 O204 2.658 . S
Tb177 O205 2.409 . S
Tb177 O206 2.378 . S
C178 Tb176 2.809 . S
C178 C179 1.514 . S
C178 O196 1.248 . S
C178 O197 1.266 . S
C179 C178 1.514 . S
C179 C180 1.359 . S
C179 C184 1.348 . S
C180 C179 1.359 . S
C180 C181 1.380 . S
C180 H208 0.929 . S
C181 C180 1.380 . S
C181 C182 1.347 . S
C181 H209 0.931 . S
C182 C181 1.347 . S
C182 C183 1.369 . S
C183 C182 1.369 . S
C183 C184 1.408 . S
C183 H210 0.930 . S
C184 C179 1.348 . S
C184 C183 1.408 . S
C184 H211 0.930 . S
C185 O198 1.281 . S
C185 O199 1.254 . S
C186 O200 1.236 . S
C186 O201 1.266 . S
C187 Tb177 2.809 . S
C187 C188 1.514 . S
C187 O202 1.248 . S
C187 O203 1.266 . S
C188 C187 1.514 . S
C188 C189 1.359 . S
C188 C193 1.348 . S
C189 C188 1.359 . S
C189 C190 1.380 . S
C189 H212 0.929 . S
C190 C189 1.380 . S
C190 C191 1.347 . S
C190 H213 0.931 . S
C191 C190 1.347 . S
C191 C192 1.369 . S
C192 C191 1.369 . S
C192 C193 1.408 . S
C192 H214 0.930 . S
C193 C188 1.348 . S
C193 C192 1.408 . S
C193 H215 0.930 . S
C194 O204 1.281 . S
C194 O205 1.254 . S
C195 O206 1.236 . S
C195 O207 1.266 . S
O196 Tb176 2.484 . S
O196 C178 1.248 . S
O197 Tb176 2.440 . S
O197 C178 1.266 . S
O198 Tb176 2.658 . S
O198 Tb177 2.325 . S
O198 C185 1.281 . S
O199 Tb176 2.409 . S
O199 C185 1.254 . S
O200 Tb176 2.378 . S
O200 C186 1.236 . S
O201 Tb177 2.341 . S
O201 C186 1.266 . S
O202 Tb177 2.484 . S
O202 C187 1.248 . S
O203 Tb177 2.440 . S
O203 C187 1.266 . S
O204 Tb176 2.325 . S
O204 Tb177 2.658 . S
O204 C194 1.281 . S
O205 Tb177 2.409 . S
O205 C194 1.254 . S
O206 Tb177 2.378 . S
O206 C195 1.236 . S
O207 Tb176 2.341 . S
O207 C195 1.266 . S
H208 C180 0.929 . S
H209 C181 0.931 . S
H210 C183 0.930 . S
H211 C184 0.930 . S
H212 C189 0.929 . S
H213 C190 0.931 . S
H214 C192 0.930 . S
H215 C193 0.930 . S
Tb216 C218 2.809 1_455 S
Tb216 O236 2.484 1_455 S
Tb216 O237 2.440 . S
Tb216 O238 2.658 1_556 S
Tb216 O239 2.409 1_556 S
Tb216 O240 2.378 1_456 S
Tb216 O244 2.325 1_455 S
Tb216 O247 2.341 . S
Tb217 C227 2.809 . S
Tb217 O238 2.325 . S
Tb217 O241 2.341 1_455 S
Tb217 O242 2.484 . S
Tb217 O243 2.440 . S
Tb217 O244 2.658 1_454 S
Tb217 O245 2.409 1_454 S
Tb217 O246 2.378 1_554 S
C218 Tb216 2.809 1_655 S
C218 C219 1.514 . S
C218 O236 1.248 . S
C218 O237 1.266 1_655 S
C219 C218 1.514 . S
C219 C220 1.359 . S
C219 C224 1.348 . S
C220 C219 1.359 . S
C220 C221 1.380 . S
C220 H248 0.929 . S
C221 C220 1.380 . S
C221 C222 1.347 . S
C221 H249 0.931 . S
C222 C221 1.347 . S
C222 C223 1.369 . S
C223 C222 1.369 . S
C223 C224 1.408 . S
C223 H250 0.930 . S
C224 C219 1.348 . S
C224 C223 1.408 . S
C224 H251 0.930 1_655 S
C225 O238 1.281 . S
C225 O239 1.254 . S
C226 O240 1.236 . S
C226 O241 1.266 . S
C227 Tb217 2.809 . S
C227 C228 1.514 . S
C227 O242 1.248 . S
C227 O243 1.266 . S
C228 C227 1.514 . S
C228 C229 1.359 . S
C228 C233 1.348 . S
C229 C228 1.359 . S
C229 C230 1.380 . S
C229 H252 0.929 . S
C230 C229 1.380 . S
C230 C231 1.347 . S
C230 H253 0.931 . S
C231 C230 1.347 . S
C231 C232 1.369 . S
C232 C231 1.369 . S
C232 C233 1.408 . S
C232 H254 0.930 . S
C233 C228 1.348 . S
C233 C232 1.408 . S
C233 H255 0.930 . S
C234 O244 1.281 . S
C234 O245 1.254 . S
C235 O246 1.236 . S
C235 O247 1.266 . S
O236 Tb216 2.484 1_655 S
O236 C218 1.248 . S
O237 Tb216 2.440 . S
O237 C218 1.266 1_455 S
O238 Tb216 2.658 1_554 S
O238 Tb217 2.325 . S
O238 C225 1.281 . S
O239 Tb216 2.409 1_554 S
O239 C225 1.254 . S
O240 Tb216 2.378 1_654 S
O240 C226 1.236 . S
O241 Tb217 2.341 1_655 S
O241 C226 1.266 . S
O242 Tb217 2.484 . S
O242 C227 1.248 . S
O243 Tb217 2.440 . S
O243 C227 1.266 . S
O244 Tb216 2.325 1_655 S
O244 Tb217 2.658 1_656 S
O244 C234 1.281 . S
O245 Tb217 2.409 1_656 S
O245 C234 1.254 . S
O246 Tb217 2.378 1_556 S
O246 C235 1.236 . S
O247 Tb216 2.341 . S
O247 C235 1.266 . S
H248 C220 0.929 . S
H249 C221 0.931 . S
H250 C223 0.930 . S
H251 C224 0.930 1_455 S
H252 C229 0.929 . S
H253 C230 0.931 . S
H254 C232 0.930 . S
H255 C233 0.930 . S
C256 C257 1.369 . S
C256 C258 1.419 . S
C256 H260 0.930 . S
C257 C256 1.369 . S
C257 C266 1.429 . S
C258 C256 1.419 . S
C258 C259 1.363 . S
C258 H261 0.929 . S
C259 C258 1.363 . S
C259 C265 1.428 . S
H260 C256 0.930 . S
H261 C258 0.929 . S
S262 N263 1.613 . S
S262 N264 1.610 . S
N263 S262 1.613 . S
N263 C266 1.350 . S
N264 S262 1.610 . S
N264 C265 1.351 . S
C265 C259 1.428 . S
C265 N264 1.351 . S
C265 C266 1.434 . S
C266 C257 1.429 . S
C266 N263 1.350 . S
C266 C265 1.434 . S
C267 C268 1.369 . S
C267 C269 1.419 . S
C267 H271 0.930 . S
C268 C267 1.369 . S
C268 C277 1.429 . S
C269 C267 1.419 . S
C269 C270 1.363 . S
C269 H272 0.929 . S
C270 C269 1.363 . S
C270 C276 1.428 . S
H271 C267 0.930 . S
H272 C269 0.929 . S
S273 N274 1.613 . S
S273 N275 1.610 . S
N274 S273 1.613 . S
N274 C277 1.350 . S
N275 S273 1.610 . S
N275 C276 1.351 . S
C276 C270 1.428 . S
C276 N275 1.351 . S
C276 C277 1.434 . S
C277 C268 1.429 . S
C277 N274 1.350 . S
C277 C276 1.434 . S
C278 C279 1.369 . S
C278 C280 1.419 . S
C278 H282 0.930 . S
C279 C278 1.369 . S
C279 C288 1.429 . S
C280 C278 1.419 . S
C280 C281 1.363 . S
C280 H283 0.929 . S
C281 C280 1.363 . S
C281 C287 1.428 . S
H282 C278 0.930 . S
H283 C280 0.929 . S
S284 N285 1.613 . S
S284 N286 1.610 . S
N285 S284 1.613 . S
N285 C288 1.350 . S
N286 S284 1.610 . S
N286 C287 1.351 . S
C287 C281 1.428 . S
C287 N286 1.351 . S
C287 C288 1.434 . S
C288 C279 1.429 . S
C288 N285 1.350 . S
C288 C287 1.434 . S
C289 C290 1.369 . S
C289 C291 1.419 . S
C289 H293 0.930 . S
C290 C289 1.369 . S
C290 C299 1.429 . S
C291 C289 1.419 . S
C291 C292 1.363 . S
C291 H294 0.929 . S
C292 C291 1.363 . S
C292 C298 1.428 . S
H293 C289 0.930 . S
H294 C291 0.929 . S
S295 N296 1.613 . S
S295 N297 1.610 . S
N296 S295 1.613 . S
N296 C299 1.350 . S
N297 S295 1.610 . S
N297 C298 1.351 . S
C298 C292 1.428 . S
C298 N297 1.351 . S
C298 C299 1.434 . S
C299 C290 1.429 . S
C299 N296 1.350 . S
C299 C298 1.434 . S
C300 C301 1.369 . S
C300 C302 1.419 . S
C300 H304 0.930 . S
C301 C300 1.369 . S
C301 C310 1.429 . S
C302 C300 1.419 . S
C302 C303 1.363 . S
C302 H305 0.929 . S
C303 C302 1.363 . S
C303 C309 1.428 . S
H304 C300 0.930 . S
H305 C302 0.929 . S
S306 N307 1.613 . S
S306 N308 1.610 . S
N307 S306 1.613 . S
N307 C310 1.350 . S
N308 S306 1.610 . S
N308 C309 1.351 . S
C309 C303 1.428 . S
C309 N308 1.351 . S
C309 C310 1.434 . S
C310 C301 1.429 . S
C310 N307 1.350 . S
C310 C309 1.434 . S
C311 C312 1.369 . S
C311 C313 1.419 . S
C311 H315 0.930 . S
C312 C311 1.369 . S
C312 C321 1.429 1_655 S
C313 C311 1.419 . S
C313 C314 1.363 1_655 S
C313 H316 0.929 . S
C314 C313 1.363 1_455 S
C314 C320 1.428 . S
H315 C311 0.930 . S
H316 C313 0.929 . S
S317 N318 1.613 . S
S317 N319 1.610 . S
N318 S317 1.613 . S
N318 C321 1.350 . S
N319 S317 1.610 . S
N319 C320 1.351 . S
C320 C314 1.428 . S
C320 N319 1.351 . S
C320 C321 1.434 . S
C321 C312 1.429 1_455 S
C321 N318 1.350 . S
C321 C320 1.434 . S
C322 C323 1.369 . S
C322 C324 1.419 . S
C322 H326 0.930 . S
C323 C322 1.369 . S
C323 C332 1.429 . S
C324 C322 1.419 . S
C324 C325 1.363 . S
C324 H327 0.929 . S
C325 C324 1.363 . S
C325 C331 1.428 . S
H326 C322 0.930 . S
H327 C324 0.929 . S
S328 N329 1.613 . S
S328 N330 1.610 . S
N329 S328 1.613 . S
N329 C332 1.350 . S
N330 S328 1.610 . S
N330 C331 1.351 . S
C331 C325 1.428 . S
C331 N330 1.351 . S
C331 C332 1.434 . S
C332 C323 1.429 . S
C332 N329 1.350 . S
C332 C331 1.434 . S
C333 C334 1.369 . S
C333 C335 1.419 . S
C333 H337 0.930 . S
C334 C333 1.369 . S
C334 C343 1.429 . S
C335 C333 1.419 . S
C335 C336 1.363 . S
C335 H338 0.929 . S
C336 C335 1.363 . S
C336 C342 1.428 . S
H337 C333 0.930 . S
H338 C335 0.929 . S
S339 N340 1.613 . S
S339 N341 1.610 . S
N340 S339 1.613 . S
N340 C343 1.350 . S
N341 S339 1.610 . S
N341 C342 1.351 . S
C342 C336 1.428 . S
C342 N341 1.351 . S
C342 C343 1.434 . S
C343 C334 1.429 . S
C343 N340 1.350 . S
C343 C342 1.434 . S
C344 C345 1.369 . S
C344 C346 1.419 . S
C344 H348 0.930 . S
C345 C344 1.369 . S
C345 C354 1.429 . S
C346 C344 1.419 . S
C346 C347 1.363 . S
C346 H349 0.929 . S
C347 C346 1.363 . S
C347 C353 1.428 . S
H348 C344 0.930 . S
H349 C346 0.929 . S
S350 N351 1.613 1_556 S
S350 N352 1.610 . S
N351 S350 1.613 1_554 S
N351 C354 1.350 . S
N352 S350 1.610 . S
N352 C353 1.351 1_556 S
C353 C347 1.428 . S
C353 N352 1.351 1_554 S
C353 C354 1.434 . S
C354 C345 1.429 . S
C354 N351 1.350 . S
C354 C353 1.434 . S
C355 C356 1.369 . S
C355 C357 1.419 . S
C355 H359 0.930 . S
C356 C355 1.369 . S
C356 C365 1.429 . S
C357 C355 1.419 . S
C357 C358 1.363 . S
C357 H360 0.929 . S
C358 C357 1.363 . S
C358 C364 1.428 . S
H359 C355 0.930 . S
H360 C357 0.929 . S
S361 N362 1.613 . S
S361 N363 1.610 . S
N362 S361 1.613 . S
N362 C365 1.350 . S
N363 S361 1.610 . S
N363 C364 1.351 . S
C364 C358 1.428 . S
C364 N363 1.351 . S
C364 C365 1.434 . S
C365 C356 1.429 . S
C365 N362 1.350 . S
C365 C364 1.434 . S
C366 C367 1.369 . S
C366 C368 1.419 . S
C366 H370 0.930 . S
C367 C366 1.369 . S
C367 C376 1.429 . S
C368 C366 1.419 . S
C368 C369 1.363 . S
C368 H371 0.929 . S
C369 C368 1.363 . S
C369 C375 1.428 . S
H370 C366 0.930 . S
H371 C368 0.929 . S
S372 N373 1.613 1_455 S
S372 N374 1.610 . S
N373 S372 1.613 1_655 S
N373 C376 1.350 . S
N374 S372 1.610 . S
N374 C375 1.351 1_455 S
C375 C369 1.428 . S
C375 N374 1.351 1_655 S
C375 C376 1.434 . S
C376 C367 1.429 . S
C376 N373 1.350 . S
C376 C375 1.434 . S
C377 C378 1.369 . S
C377 C379 1.419 . S
C377 H381 0.930 . S
C378 C377 1.369 . S
C378 C387 1.429 . S
C379 C377 1.419 . S
C379 C380 1.363 . S
C379 H382 0.929 . S
C380 C379 1.363 . S
C380 C386 1.428 . S
H381 C377 0.930 . S
H382 C379 0.929 . S
S383 N384 1.613 . S
S383 N385 1.610 . S
N384 S383 1.613 . S
N384 C387 1.350 . S
N385 S383 1.610 . S
N385 C386 1.351 . S
C386 C380 1.428 . S
C386 N385 1.351 . S
C386 C387 1.434 . S
C387 C378 1.429 . S
C387 N384 1.350 . S
C387 C386 1.434 . S
C388 C389 1.369 . S
C388 C390 1.419 . S
C388 H392 0.930 . S
C389 C388 1.369 . S
C389 C398 1.429 . S
C390 C388 1.419 . S
C390 C391 1.363 . S
C390 H393 0.929 . S
C391 C390 1.363 . S
C391 C397 1.428 . S
H392 C388 0.930 . S
H393 C390 0.929 . S
S394 N395 1.613 . S
S394 N396 1.610 . S
N395 S394 1.613 . S
N395 C398 1.350 . S
N396 S394 1.610 . S
N396 C397 1.351 . S
C397 C391 1.428 . S
C397 N396 1.351 . S
C397 C398 1.434 . S
C398 C389 1.429 . S
C398 N395 1.350 . S
C398 C397 1.434 . S
C399 C400 1.369 . S
C399 C401 1.419 . S
C399 H403 0.930 . S
C400 C399 1.369 . S
C400 C409 1.429 . S
C401 C399 1.419 . S
C401 C402 1.363 . S
C401 H404 0.929 . S
C402 C401 1.363 . S
C402 C408 1.428 . S
H403 C399 0.930 . S
H404 C401 0.929 . S
S405 N406 1.613 . S
S405 N407 1.610 . S
N406 S405 1.613 . S
N406 C409 1.350 . S
N407 S405 1.610 . S
N407 C408 1.351 . S
C408 C402 1.428 . S
C408 N407 1.351 . S
C408 C409 1.434 . S
C409 C400 1.429 . S
C409 N406 1.350 . S
C409 C408 1.434 . S
C410 C411 1.369 . S
C410 C412 1.419 . S
C410 H414 0.930 . S
C411 C410 1.369 . S
C411 C420 1.429 . S
C412 C410 1.419 . S
C412 C413 1.363 . S
C412 H415 0.929 . S
C413 C412 1.363 . S
C413 C419 1.428 . S
H414 C410 0.930 . S
H415 C412 0.929 . S
S416 N417 1.613 . S
S416 N418 1.610 . S
N417 S416 1.613 . S
N417 C420 1.350 . S
N418 S416 1.610 . S
N418 C419 1.351 . S
C419 C413 1.428 . S
C419 N418 1.351 . S
C419 C420 1.434 . S
C420 C411 1.429 . S
C420 N417 1.350 . S
C420 C419 1.434 . S
C421 C422 1.369 . S
C421 C423 1.419 . S
C421 H425 0.930 . S
C422 C421 1.369 . S
C422 C431 1.429 . S
C423 C421 1.419 . S
C423 C424 1.363 . S
C423 H426 0.929 . S
C424 C423 1.363 . S
C424 C430 1.428 . S
H425 C421 0.930 . S
H426 C423 0.929 . S
S427 N428 1.613 . S
S427 N429 1.610 . S
N428 S427 1.613 . S
N428 C431 1.350 . S
N429 S427 1.610 . S
N429 C430 1.351 . S
C430 C424 1.428 . S
C430 N429 1.351 . S
C430 C431 1.434 . S
C431 C422 1.429 . S
C431 N428 1.350 . S
C431 C430 1.434 . S
C432 C433 1.369 . S
C432 C434 1.419 . S
C432 H436 0.930 . S
C433 C432 1.369 . S
C433 C442 1.429 . S
C434 C432 1.419 . S
C434 C435 1.363 . S
C434 H437 0.929 . S
C435 C434 1.363 . S
C435 C441 1.428 . S
H436 C432 0.930 . S
H437 C434 0.929 . S
S438 N439 1.613 . S
S438 N440 1.610 . S
N439 S438 1.613 . S
N439 C442 1.350 . S
N440 S438 1.610 . S
N440 C441 1.351 . S
C441 C435 1.428 . S
C441 N440 1.351 . S
C441 C442 1.434 . S
C442 C433 1.429 . S
C442 N439 1.350 . S
C442 C441 1.434 . S
C443 C444 1.369 . S
C443 C445 1.419 . S
C443 H447 0.930 . S
C444 C443 1.369 . S
C444 C453 1.429 1_455 S
C445 C443 1.419 . S
C445 C446 1.363 1_455 S
C445 H448 0.929 . S
C446 C445 1.363 1_655 S
C446 C452 1.428 . S
H447 C443 0.930 . S
H448 C445 0.929 . S
S449 N450 1.613 . S
S449 N451 1.610 . S
N450 S449 1.613 . S
N450 C453 1.350 . S
N451 S449 1.610 . S
N451 C452 1.351 . S
C452 C446 1.428 . S
C452 N451 1.351 . S
C452 C453 1.434 . S
C453 C444 1.429 1_655 S
C453 N450 1.350 . S
C453 C452 1.434 . S
C454 C455 1.369 . S
C454 C456 1.419 . S
C454 H458 0.930 . S
C455 C454 1.369 . S
C455 C464 1.429 . S
C456 C454 1.419 . S
C456 C457 1.363 . S
C456 H459 0.929 . S
C457 C456 1.363 . S
C457 C463 1.428 . S
H458 C454 0.930 . S
H459 C456 0.929 . S
S460 N461 1.613 . S
S460 N462 1.610 . S
N461 S460 1.613 . S
N461 C464 1.350 . S
N462 S460 1.610 . S
N462 C463 1.351 . S
C463 C457 1.428 . S
C463 N462 1.351 . S
C463 C464 1.434 . S
C464 C455 1.429 . S
C464 N461 1.350 . S
C464 C463 1.434 . S
C465 C466 1.369 . S
C465 C467 1.419 . S
C465 H469 0.930 . S
C466 C465 1.369 . S
C466 C475 1.429 . S
C467 C465 1.419 . S
C467 C468 1.363 . S
C467 H470 0.929 . S
C468 C467 1.363 . S
C468 C474 1.428 . S
H469 C465 0.930 . S
H470 C467 0.929 . S
S471 N472 1.613 . S
S471 N473 1.610 . S
N472 S471 1.613 . S
N472 C475 1.350 . S
N473 S471 1.610 . S
N473 C474 1.351 . S
C474 C468 1.428 . S
C474 N473 1.351 . S
C474 C475 1.434 . S
C475 C466 1.429 . S
C475 N472 1.350 . S
C475 C474 1.434 . S
C476 C477 1.369 . S
C476 C478 1.419 . S
C476 H480 0.930 . S
C477 C476 1.369 . S
C477 C486 1.429 . S
C478 C476 1.419 . S
C478 C479 1.363 . S
C478 H481 0.929 . S
C479 C478 1.363 . S
C479 C485 1.428 . S
H480 C476 0.930 . S
H481 C478 0.929 . S
S482 N483 1.613 . S
S482 N484 1.610 . S
N483 S482 1.613 . S
N483 C486 1.350 . S
N484 S482 1.610 . S
N484 C485 1.351 . S
C485 C479 1.428 . S
C485 N484 1.351 . S
C485 C486 1.434 . S
C486 C477 1.429 . S
C486 N483 1.350 . S
C486 C485 1.434 . S
C487 C488 1.369 . S
C487 C489 1.419 . S
C487 H491 0.930 . S
C488 C487 1.369 . S
C488 C497 1.429 . S
C489 C487 1.419 . S
C489 C490 1.363 . S
C489 H492 0.929 . S
C490 C489 1.363 . S
C490 C496 1.428 . S
H491 C487 0.930 . S
H492 C489 0.929 . S
S493 N494 1.613 . S
S493 N495 1.610 . S
N494 S493 1.613 . S
N494 C497 1.350 . S
N495 S493 1.610 . S
N495 C496 1.351 . S
C496 C490 1.428 . S
C496 N495 1.351 . S
C496 C497 1.434 . S
C497 C488 1.429 . S
C497 N494 1.350 . S
C497 C496 1.434 . S
C498 C499 1.369 . S
C498 C500 1.419 . S
C498 H502 0.930 . S
C499 C498 1.369 . S
C499 C508 1.429 . S
C500 C498 1.419 . S
C500 C501 1.363 . S
C500 H503 0.929 . S
C501 C500 1.363 . S
C501 C507 1.428 . S
H502 C498 0.930 . S
H503 C500 0.929 . S
S504 N505 1.613 . S
S504 N506 1.610 . S
N505 S504 1.613 . S
N505 C508 1.350 . S
N506 S504 1.610 . S
N506 C507 1.351 . S
C507 C501 1.428 . S
C507 N506 1.351 . S
C507 C508 1.434 . S
C508 C499 1.429 . S
C508 N505 1.350 . S
C508 C507 1.434 . S
C509 C510 1.369 . S
C509 C511 1.419 . S
C509 H513 0.930 . S
C510 C509 1.369 . S
C510 C519 1.429 . S
C511 C509 1.419 . S
C511 C512 1.363 . S
C511 H514 0.929 . S
C512 C511 1.363 . S
C512 C518 1.428 . S
H513 C509 0.930 . S
H514 C511 0.929 . S
S515 N516 1.613 . S
S515 N517 1.610 . S
N516 S515 1.613 . S
N516 C519 1.350 . S
N517 S515 1.610 . S
N517 C518 1.351 . S
C518 C512 1.428 . S
C518 N517 1.351 . S
C518 C519 1.434 . S
C519 C510 1.429 . S
C519 N516 1.350 . S
C519 C518 1.434 . S
C257 C6 1.250 . S
C259 C111 1.280 . S
C268 C18 1.242 . S
C270 C151 1.272 . S
C281 C185 2.514 . S
C279 C28 2.534 . S
C290 C40 2.168 . S
C292 C226 2.095 . S
C303 C146 1.527 . S
C301 C9 1.426 . S
C314 C106 2.084 . S
C312 C16 1.889 1_655 S
C325 C234 1.731 . S
C323 C30 1.728 . S
C336 C195 1.587 . S
C334 C42 1.654 . S
C345 C4 1.639 . S
C347 C231 1.622 . S
C358 C154 2.257 . S
C356 C33 2.316 . S
C367 C45 2.144 . S
C369 C114 2.081 . S
C378 C21 1.662 . S
C380 C182 1.743 . S
C391 C102 1.304 . S
C389 C57 1.315 . S
C400 C66 1.224 . S
C402 C142 1.267 . S
C411 C76 2.582 . S
C413 C194 2.566 . S
C422 C88 2.073 . S
C424 C235 2.025 . S
C433 C54 1.462 . S
C435 C155 1.552 . S
C446 C115 2.165 . S
C444 C64 2.022 . S
C457 C225 1.681 . S
C455 C78 1.671 . S
C468 C186 1.660 . S
C466 C93 1.717 . S
C477 C52 1.698 . S
C479 C222 1.705 . S
C490 C145 2.248 . S
C488 C81 2.311 . S
C501 C105 2.055 . S
C499 C90 2.116 . S
C510 C69 1.644 . S
C512 C191 1.765 . S
