# Generated by pormake.
# Topology zzz, (3,6)-cn, num edge types: 1
# Building blocks:
#     Node 0, Type 0, BuildingBlock: ESEHIV_clean_linker_0, # of connection points: 3
#     Node 1, Type 0, BuildingBlock: ESEHIV_clean_linker_0, # of connection points: 3
#     Node 2, Type 0, BuildingBlock: ESEHIV_clean_linker_0, # of connection points: 3
#     Node 3, Type 0, BuildingBlock: ESEHIV_clean_linker_0, # of connection points: 3
#     Node 4, Type 0, BuildingBlock: ESEHIV_clean_linker_0, # of connection points: 3
#     Node 5, Type 0, BuildingBlock: ESEHIV_clean_linker_0, # of connection points: 3
#     Node 6, Type 0, BuildingBlock: ESEHIV_clean_linker_0, # of connection points: 3
#     Node 7, Type 0, BuildingBlock: ESEHIV_clean_linker_0, # of connection points: 3
#     Node 8, Type 1, BuildingBlock: KUMJIN_clean_sbu_1, # of connection points: 6
#     Node 9, Type 1, BuildingBlock: KUMJIN_clean_sbu_1, # of connection points: 6
#     Node 10, Type 1, BuildingBlock: KUMJIN_clean_sbu_1, # of connection points: 6
#     Node 11, Type 1, BuildingBlock: KUMJIN_clean_sbu_1, # of connection points: 6
#     Edge 12, Type (0, 1), BuildingBlock: AJUNOK_clean_linker_0, # of connection points: 2
#     Edge 13, Type (0, 1), BuildingBlock: AJUNOK_clean_linker_0, # of connection points: 2
#     Edge 14, Type (0, 1), BuildingBlock: AJUNOK_clean_linker_0, # of connection points: 2
#     Edge 15, Type (0, 1), BuildingBlock: AJUNOK_clean_linker_0, # of connection points: 2
#     Edge 16, Type (0, 1), BuildingBlock: AJUNOK_clean_linker_0, # of connection points: 2
#     Edge 17, Type (0, 1), BuildingBlock: AJUNOK_clean_linker_0, # of connection points: 2
#     Edge 18, Type (0, 1), BuildingBlock: AJUNOK_clean_linker_0, # of connection points: 2
#     Edge 19, Type (0, 1), BuildingBlock: AJUNOK_clean_linker_0, # of connection points: 2
#     Edge 20, Type (0, 1), BuildingBlock: AJUNOK_clean_linker_0, # of connection points: 2
#     Edge 21, Type (0, 1), BuildingBlock: AJUNOK_clean_linker_0, # of connection points: 2
#     Edge 22, Type (0, 1), BuildingBlock: AJUNOK_clean_linker_0, # of connection points: 2
#     Edge 23, Type (0, 1), BuildingBlock: AJUNOK_clean_linker_0, # of connection points: 2
#     Edge 24, Type (0, 1), BuildingBlock: AJUNOK_clean_linker_0, # of connection points: 2
#     Edge 25, Type (0, 1), BuildingBlock: AJUNOK_clean_linker_0, # of connection points: 2
#     Edge 26, Type (0, 1), BuildingBlock: AJUNOK_clean_linker_0, # of connection points: 2
#     Edge 27, Type (0, 1), BuildingBlock: AJUNOK_clean_linker_0, # of connection points: 2
#     Edge 28, Type (0, 1), BuildingBlock: AJUNOK_clean_linker_0, # of connection points: 2
#     Edge 29, Type (0, 1), BuildingBlock: AJUNOK_clean_linker_0, # of connection points: 2
#     Edge 30, Type (0, 1), BuildingBlock: AJUNOK_clean_linker_0, # of connection points: 2
#     Edge 31, Type (0, 1), BuildingBlock: AJUNOK_clean_linker_0, # of connection points: 2
#     Edge 32, Type (0, 1), BuildingBlock: AJUNOK_clean_linker_0, # of connection points: 2
#     Edge 33, Type (0, 1), BuildingBlock: AJUNOK_clean_linker_0, # of connection points: 2
#     Edge 34, Type (0, 1), BuildingBlock: AJUNOK_clean_linker_0, # of connection points: 2
#     Edge 35, Type (0, 1), BuildingBlock: AJUNOK_clean_linker_0, # of connection points: 2
# Relax obj value: 0.445
# Max RMSD: 0.196
# Mean RMSD: 0.187
data_MOF--net-zzz--node1-KUMJIN_clean_sbu_1--node2-ESEHIV_clean_linker_0--edge1-AJUNOK_clean_linker_0
_symmetry_space_group_name_H-M    P1
_symmetry_Int_Tables_number       1
_symmetry_cell_setting            triclinic
loop_
_symmetry_equiv_pos_as_xyz
'x, y, z'
_cell_length_a     31.221176
_cell_length_b     31.429462
_cell_length_c     12.025008
_cell_angle_alpha  89.940231
_cell_angle_beta   89.742024
_cell_angle_gamma 90.377101
loop_
_atom_site_label
_atom_site_type_symbol
_atom_site_fract_x
_atom_site_fract_y
_atom_site_fract_z
_atom_type_partial_charge
H0 H 0.79987 0.43835 0.32036 0.0
H1 H 0.67932 0.44038 0.16041 0.0
H2 H 0.72474 0.55251 0.33553 0.0
C3 C 0.76988 0.4545 0.30611 0.0
C4 C 0.7643 0.4947 0.35409 0.0
C5 C 0.73881 0.43491 0.23973 0.0
C6 C 0.7024 0.45709 0.21117 0.0
C7 C 0.69748 0.50053 0.23307 0.0
C8 C 0.72865 0.51978 0.30975 0.0
H9 H 0.08018 0.81275 0.31104 0.0
H10 H 0.07524 0.69786 0.12276 0.0
H11 H 0.97984 0.72096 0.37813 0.0
C12 C 0.06562 0.78181 0.29742 0.0
C13 C 0.03067 0.76993 0.36395 0.0
C14 C 0.08197 0.75564 0.21344 0.0
C15 C 0.06174 0.71737 0.18837 0.0
C16 C 0.02407 0.70407 0.24142 0.0
C17 C 1.00814 0.73073 0.3324 0.0
H18 H 0.72003 0.08751 0.33109 0.0
H19 H 0.8367 0.08422 0.14259 0.0
H20 H 0.7921 0.97131 0.31498 0.0
C21 C 0.74866 0.07061 0.30588 0.0
C22 C 0.75316 0.02832 0.34039 0.0
C23 C 0.77735 0.09009 0.2311 0.0
C24 C 0.81406 0.06825 0.19739 0.0
C25 C 0.8205 0.02528 0.22437 0.0
C26 C 0.78902 1.00473 0.29572 0.0
H27 H 0.61285 0.72665 0.30715 0.0
H28 H 0.50267 0.80999 0.31793 0.0
H29 H 0.60433 0.82657 0.07631 0.0
C30 C 0.59607 0.75501 0.28096 0.0
C31 C 0.60412 0.76938 0.17249 0.0
C32 C 0.55685 0.76538 0.33339 0.0
C33 C 0.53376 0.80133 0.2852 0.0
C34 C 0.55287 0.82609 0.1942 0.0
C35 C 0.59124 0.81084 0.14936 0.0
H36 H 0.20353 0.57801 0.21282 0.0
H37 H 0.32468 0.56425 0.36652 0.0
H38 H 0.29043 0.48069 0.09499 0.0
C39 C 0.23423 0.56226 0.21196 0.0
C40 C 0.24204 0.52933 0.13472 0.0
C41 C 0.26448 0.5755 0.29082 0.0
C42 C 0.30218 0.55331 0.3039 0.0
C43 C 0.31278 0.51851 0.23814 0.0
C44 C 0.28249 0.50643 0.15032 0.0
H45 H 0.93683 0.21213 0.12983 0.0
H46 H 0.9294 0.33654 0.26382 0.0
H47 H 0.05101 0.28971 0.13987 0.0
C48 C 0.95222 0.24263 0.14485 0.0
C49 C 0.99455 0.2487 0.10991 0.0
C50 C 0.93114 0.27278 0.20938 0.0
C51 C 0.9491 0.31314 0.22221 0.0
C52 C 0.99346 0.31969 0.21229 0.0
C53 C 0.01687 0.28648 0.15246 0.0
H54 H 0.321 0.93933 0.07211 0.0
H55 H 0.21878 0.92155 0.30507 0.0
H56 H 0.23717 0.04418 0.14724 0.0
C57 C 0.29247 0.95173 0.11232 0.0
C58 C 0.28282 0.99464 0.09784 0.0
C59 C 0.26991 0.9257 0.18682 0.0
C60 C 0.23438 0.94163 0.24363 0.0
C61 C 0.22015 0.98358 0.22843 0.0
C62 C 0.24583 1.01111 0.15693 0.0
H63 H 0.5795 0.34265 0.17211 0.0
H64 H 0.48908 0.24384 0.07191 0.0
H65 H 0.56375 0.23339 0.37404 0.0
C66 C 0.56386 0.31196 0.1818 0.0
C67 C 0.57487 0.28792 0.2743 0.0
C68 C 0.53302 0.29807 0.10448 0.0
C69 C 0.5123 0.25682 0.12934 0.0
C70 C 0.52392 0.23213 0.22878 0.0
C71 C 0.55453 0.24997 0.29849 0.0
Eu72 Eu 0.97352 0.02256 0.64151 0.0
C73 C 0.11217 0.0903 0.8645 0.0
N74 N 0.09176 0.06863 0.78123 0.0
C75 C 0.10431 0.12797 0.65798 0.0
C76 C 0.13123 0.13061 0.8449 0.0
C77 C 0.08513 0.08872 0.68175 0.0
C78 C 0.12849 0.14847 0.73887 0.0
C79 C 0.1248 0.09942 0.06281 0.0
C80 C 0.10923 0.07494 0.97312 0.0
C81 C 0.14651 0.1378 0.04181 0.0
C82 C 0.14987 0.15327 0.93308 0.0
Eu83 Eu 0.06613 0.99902 0.83592 0.0
N84 N 0.08688 0.0384 0.99232 0.0
C85 C 0.11539 0.08617 0.17141 0.0
C86 C 0.07738 0.02536 0.09772 0.0
C87 C 0.09029 0.04987 0.18853 0.0
H88 H 0.06347 0.07627 0.62157 0.0
H89 H 0.08029 0.04124 0.2715 0.0
H90 H 0.88608 0.0482 0.80743 0.0
H91 H 0.96875 0.93873 0.2425 0.0
H92 H 0.05868 0.99672 0.11108 0.0
H93 H 0.12561 0.10482 0.24237 0.0
H94 H 0.99792 0.98789 0.38183 0.0
H95 H 0.09935 0.14296 0.57802 0.0
H96 H 0.15906 0.15674 0.10963 0.0
H97 H 0.16496 0.18395 0.91884 0.0
H98 H 0.81168 0.02532 0.83204 0.0
H99 H 0.14251 0.17937 0.72081 0.0
H100 H 0.89794 0.90502 0.27238 0.0
N101 N 0.89976 1.00421 0.67664 0.0
C102 C 0.88243 0.9754 0.60453 0.0
C103 C 0.83124 1.01082 0.76816 0.0
C104 C 0.83943 0.96155 0.61638 0.0
C105 C 0.8737 0.02388 0.75301 0.0
C106 C 0.81429 0.97887 0.70121 0.0
N107 N 0.94589 0.97971 0.4956 0.0
C108 C 0.96753 0.97265 0.39805 0.0
C109 C 0.88772 0.93535 0.43194 0.0
C110 C 0.90615 0.96274 0.51201 0.0
C111 C 0.91102 0.92592 0.33547 0.0
C112 C 0.95095 0.94493 0.31815 0.0
H113 H 0.78124 0.96901 0.71283 0.0
H114 H 0.78931 0.92123 0.54907 0.0
H115 H 0.83184 0.8978 0.38864 0.0
O116 O 0.98161 0.08927 0.59282 0.0
O117 O 0.99611 0.95486 0.60693 0.0
O118 O 0.04586 0.93628 0.73935 0.0
O119 O 0.93055 0.05161 0.52198 0.0
O120 O 0.03717 1.01181 0.53984 0.0
O121 O 0.09349 0.99899 0.66005 0.0
O122 O 0.09066 0.94793 0.94162 0.0
O123 O 0.02402 0.05109 0.91244 0.0
O124 O 0.99533 0.07975 0.7557 0.0
O125 O 0.13442 0.99301 0.86678 0.0
O126 O 1.00391 0.98109 0.93224 0.0
O127 O 0.95019 1.00548 0.81757 0.0
C128 C 0.02089 0.92618 0.65288 0.0
C129 C 0.9128 0.11972 0.57627 0.0
C130 C 0.85986 0.17282 0.5302 0.0
C131 C 0.84658 0.17429 0.64184 0.0
C132 C 0.90141 0.12345 0.68891 0.0
C133 C 0.86746 0.1495 0.72102 0.0
C134 C 0.89106 0.14337 0.49727 0.0
C135 C 0.07835 1.00323 0.55879 0.0
C136 C 0.94539 0.08955 0.53906 0.0
C137 C 0.82205 0.93245 0.5402 0.0
C138 C 0.84622 0.9192 0.44863 0.0
C139 C 1.00785 0.08412 0.8608 0.0
C140 C 0.16072 0.92395 0.89811 0.0
C141 C 0.18629 0.85336 0.94311 0.0
C142 C 0.21487 0.85482 0.85315 0.0
C143 C 0.19013 0.926 0.80903 0.0
C144 C 0.1598 0.888 0.96533 0.0
C145 C 0.21724 0.89154 0.78727 0.0
C146 C 0.96291 0.98951 0.9132 0.0
C147 C 0.13064 0.95839 0.92444 0.0
H148 H 0.82322 0.19746 0.66893 0.0
H149 H 0.9189 0.10662 0.75207 0.0
H150 H 0.85884 0.15213 0.80802 0.0
H151 H 0.90169 0.14201 0.41126 0.0
H152 H 0.23469 0.82767 0.83344 0.0
H153 H 0.19191 0.95377 0.75578 0.0
H154 H 0.13669 0.88598 0.03284 0.0
H155 H 0.23946 0.893 0.71799 0.0
Eu156 Eu 0.53763 0.06652 0.78923 0.0
C157 C 0.47487 0.88642 0.61205 0.0
N158 N 0.50656 0.91626 0.6082 0.0
C159 C 0.55951 0.86132 0.59943 0.0
C160 C 0.48444 0.84266 0.60848 0.0
C161 C 0.54849 0.90437 0.60092 0.0
C162 C 0.52734 0.83033 0.60289 0.0
C163 C 0.39909 0.86946 0.62652 0.0
C164 C 0.43264 0.89967 0.61806 0.0
C165 C 0.40851 0.82592 0.62153 0.0
C166 C 0.45098 0.81266 0.60931 0.0
Eu167 Eu 0.48429 0.98792 0.59401 0.0
N168 N 0.42418 0.94187 0.61066 0.0
C169 C 0.35687 0.88395 0.63387 0.0
C170 C 0.38287 0.95569 0.60588 0.0
C171 C 0.34869 0.92732 0.62193 0.0
H172 H 0.57361 0.92788 0.59609 0.0
H173 H 0.31605 0.9387 0.62121 0.0
H174 H 0.43518 0.10767 0.81865 0.0
H175 H 0.68347 0.14485 0.64294 0.0
H176 H 0.37626 0.98873 0.58853 0.0
H177 H 0.33029 0.8618 0.64212 0.0
H178 H 0.64005 0.08595 0.71932 0.0
H179 H 0.59279 0.85206 0.59449 0.0
H180 H 0.38309 0.80231 0.62396 0.0
H181 H 0.45766 0.77909 0.60042 0.0
H182 H 0.39756 0.17262 0.77245 0.0
H183 H 0.53592 0.79703 0.60168 0.0
H184 H 0.64917 0.21335 0.59747 0.0
N185 N 0.495 0.12717 0.74855 0.0
C186 C 0.51769 0.16105 0.7069 0.0
C187 C 0.43118 0.16955 0.75182 0.0
C188 C 0.49725 0.20001 0.68371 0.0
C189 C 0.4527 0.13179 0.7753 0.0
C190 C 0.45342 0.20367 0.70491 0.0
N191 N 0.58128 0.11951 0.70927 0.0
C192 C 0.62444 0.11501 0.69554 0.0
C193 C 0.58574 0.19193 0.6467 0.0
C194 C 0.56181 0.15723 0.68809 0.0
C195 C 0.62982 0.18722 0.62913 0.0
C196 C 0.64927 0.14859 0.65409 0.0
H197 H 0.43669 0.23308 0.68818 0.0
H198 H 0.50592 0.26453 0.62474 0.0
H199 H 0.58364 0.25712 0.59593 0.0
O200 O 0.59052 0.07623 0.90527 0.0
O201 O 0.53754 0.08208 0.59955 0.0
O202 O 0.47153 0.05914 0.55802 0.0
O203 O 0.52986 0.10649 0.93643 0.0
O204 O 0.59055 0.02505 0.71004 0.0
O205 O 0.55548 1.00322 0.55277 0.0
O206 O 0.44329 0.9883 0.44839 0.0
O207 O 0.50032 0.95374 0.76136 0.0
O208 O 0.53956 1.00011 0.87145 0.0
O209 O 0.51077 0.97423 0.42886 0.0
O210 O 0.4336 0.01962 0.70702 0.0
O211 O 0.47235 0.04133 0.85903 0.0
C212 C 0.50367 0.08505 0.53529 0.0
C213 C 0.59282 0.14643 0.97535 0.0
C214 C 0.65887 0.18415 0.02057 0.0
C215 C 0.63926 0.22315 0.99886 0.0
C216 C 0.57319 0.18578 0.95371 0.0
C217 C 0.59662 0.22376 0.96366 0.0
C218 C 0.63559 0.14612 1.00832 0.0
C219 C 0.5917 1.01142 0.60589 0.0
C220 C 0.57027 0.10525 0.96161 0.0
C221 C 0.52119 0.23444 0.6423 0.0
C222 C 0.56526 0.23038 0.62508 0.0
C223 C 0.52201 0.96217 0.85393 0.0
C224 C 0.46326 0.95039 0.28762 0.0
C225 C 0.41592 0.89397 0.22056 0.0
C226 C 0.41843 0.91265 0.11358 0.0
C227 C 0.46647 0.9671 0.18034 0.0
C228 C 0.44101 0.91209 0.3059 0.0
C229 C 0.444 0.94829 0.09386 0.0
C230 C 0.43542 0.0292 0.81414 0.0
C231 C 0.47407 0.97877 0.37965 0.0
H232 H 0.65684 0.25273 1.00839 0.0
H233 H 0.54003 0.1873 0.9283 0.0
H234 H 0.58166 0.25373 0.94402 0.0
H235 H 0.65083 0.11596 0.02649 0.0
H236 H 0.39856 0.90198 0.04563 0.0
H237 H 0.484 0.9964 0.1649 0.0
H238 H 0.43922 0.89953 0.38933 0.0
H239 H 0.44471 0.96257 1.01202 0.0
Eu240 Eu 0.57049 0.5132 0.60054 0.0
C241 C 0.38437 0.48741 0.81936 0.0
N242 N 0.39987 0.5136 0.7385 0.0
C243 C 0.33343 0.50678 0.63931 0.0
C244 C 0.34312 0.469 0.81191 0.0
C245 C 0.37426 0.52474 0.6512 0.0
C246 C 0.3179 0.47851 0.71952 0.0
C247 C 0.39432 0.4537 0.99877 0.0
C248 C 0.40941 0.47991 0.91151 0.0
C249 C 0.35366 0.43468 0.99083 0.0
C250 C 0.32813 0.44224 0.89746 0.0
Eu251 Eu 0.47024 0.54208 0.76494 0.0
N252 N 0.44887 0.49806 0.9155 0.0
C253 C 0.42085 0.44691 0.09053 0.0
C254 C 0.47402 0.49303 1.0068 0.0
C255 C 0.4608 0.467 0.09495 0.0
H256 H 0.38466 0.54814 0.59098 0.0
H257 H 0.4813 0.46264 0.16636 0.0
H258 H 0.64926 0.55803 0.75233 0.0
H259 H 0.5268 0.54274 0.16604 0.0
H260 H 0.50447 0.50881 1.01075 0.0
H261 H 0.41064 0.42663 0.15868 0.0
H262 H 0.52667 0.50312 0.33971 0.0
H263 H 0.31384 0.51502 0.56863 0.0
H264 H 0.3416 0.41421 0.05661 0.0
H265 H 0.29665 0.42765 0.89282 0.0
H266 H 0.70604 0.61223 0.72968 0.0
H267 H 0.2861 0.46494 0.71057 0.0
H268 H 0.5775 0.60182 0.1375 0.0
N269 N 0.62144 0.56945 0.59468 0.0
C270 C 0.62536 0.5898 0.49489 0.0
C271 C 0.68312 0.60679 0.66391 0.0
C272 C 0.65811 0.62034 0.47747 0.0
C273 C 0.65006 0.57712 0.67818 0.0
C274 C 0.6872 0.62847 0.56318 0.0
N275 N 0.56799 0.54686 0.42402 0.0
C276 C 0.54521 0.53201 0.33542 0.0
C277 C 0.60156 0.59965 0.30521 0.0
C278 C 0.5974 0.57895 0.40891 0.0
C279 C 0.57504 0.58696 0.21846 0.0
C280 C 0.54654 0.55337 0.23394 0.0
H281 H 0.71302 0.65132 0.55225 0.0
H282 H 0.68593 0.66524 0.36059 0.0
H283 H 0.63636 0.64731 0.21006 0.0
O284 O 0.59419 0.45509 0.51809 0.0
O285 O 0.55764 0.58493 0.63682 0.0
O286 O 0.48655 0.58783 0.61751 0.0
O287 O 0.63764 0.50506 0.56011 0.0
O288 O 0.50504 0.4893 0.51944 0.0
O289 O 0.46033 0.54152 0.57725 0.0
O290 O 0.47124 0.58907 0.8971 0.0
O291 O 0.48328 0.46885 0.77607 0.0
O292 O 0.55526 0.46178 0.73617 0.0
O293 O 0.41825 0.58834 0.78247 0.0
O294 O 0.53521 0.55356 0.86286 0.0
O295 O 0.58709 0.51076 0.78525 0.0
C296 C 0.52408 0.60614 0.60125 0.0
C297 C 0.66501 0.43753 0.57224 0.0
C298 C 0.69147 0.36651 0.55697 0.0
C299 C 0.7024 0.36647 0.67014 0.0
C300 C 0.67478 0.43793 0.68628 0.0
C301 C 0.69554 0.4031 0.73376 0.0
C302 C 0.68007 0.4048 0.50587 0.0
C303 C 0.46779 0.50975 0.50988 0.0
C304 C 0.6342 0.46701 0.52392 0.0
C305 C 0.6613 0.64139 0.37499 0.0
C306 C 0.63297 0.63125 0.2894 0.0
C307 C 0.51931 0.44662 0.78201 0.0
C308 C 0.45219 0.65399 0.81591 0.0
C309 C 0.50922 0.7062 0.81508 0.0
C310 C 0.47942 0.73838 0.79694 0.0
C311 C 0.42179 0.6862 0.80398 0.0
C312 C 0.49582 0.66412 0.80391 0.0
C313 C 0.43566 0.72831 0.78916 0.0
C314 C 0.5733 0.53438 0.86827 0.0
C315 C 0.44029 0.61082 0.85247 0.0
H316 H 0.711 0.33711 0.71138 0.0
H317 H 0.66449 0.46385 0.73914 0.0
H318 H 0.7018 0.40283 0.82201 0.0
H319 H 0.67121 0.40471 0.41852 0.0
H320 H 0.48982 0.77112 0.79961 0.0
H321 H 0.38787 0.67907 0.80958 0.0
H322 H 0.51973 0.63964 0.81524 0.0
H323 H 0.41235 0.75341 0.78129 0.0
Eu324 Eu 0.01979 0.5575 0.64624 0.0
C325 C 0.05271 0.38315 0.88445 0.0
N326 N 0.02404 0.39392 0.80363 0.0
C327 C 0.03388 0.32576 0.71705 0.0
C328 C 0.07353 0.34336 0.88244 0.0
C329 C 0.01302 0.36484 0.72388 0.0
C330 C 0.06468 0.31519 0.7956 0.0
C331 C 0.08566 0.39855 0.06326 0.0
C332 C 0.05875 0.41051 0.97456 0.0
C333 C 0.10685 0.35936 0.05981 0.0
C334 C 0.10112 0.33205 0.96926 0.0
Eu335 Eu 0.98976 0.46102 0.82748 0.0
N336 N 0.03758 0.44836 0.97673 0.0
C337 C 0.09038 0.42624 0.15344 0.0
C338 C 0.0411 0.47465 0.06643 0.0
C339 C 0.06789 0.46438 0.15509 0.0
H340 H 0.98761 0.37086 0.66575 0.0
H341 H 0.07076 0.48569 0.22533 0.0
H342 H 0.99088 0.64599 0.794 0.0
H343 H 0.97802 0.51455 0.21756 0.0
H344 H 0.0232 0.50349 0.07057 0.0
H345 H 0.1108 0.41818 0.22289 0.0
H346 H 0.02116 0.5121 0.38649 0.0
H347 H 0.02573 0.30353 0.65174 0.0
H348 H 0.1276 0.34975 0.12719 0.0
H349 H 0.11727 0.30163 0.96873 0.0
H350 H 0.94299 0.70671 0.7736 0.0
H351 H 0.08015 0.28446 0.79097 0.0
H352 H 0.9242 0.57066 0.19299 0.0
N353 N 0.97369 0.61745 0.63931 0.0
C354 C 0.95236 0.62297 0.54145 0.0
C355 C 0.94464 0.68292 0.70876 0.0
C356 C 0.92485 0.658 0.52629 0.0
C357 C 0.97118 0.64763 0.72099 0.0
C358 C 0.92093 0.68784 0.6118 0.0
N359 N 0.98611 0.56072 0.46963 0.0
C360 C 0.99554 0.53465 0.38232 0.0
C361 C 0.93612 0.59884 0.35407 0.0
C362 C 0.9587 0.59395 0.45493 0.0
C363 C 0.94199 0.56884 0.26997 0.0
C364 C 0.97227 0.53702 0.28362 0.0
H365 H 0.90044 0.71532 0.60275 0.0
H366 H 0.88112 0.68919 0.41352 0.0
H367 H 0.89009 0.63683 0.26418 0.0
O368 O 0.08377 0.56662 0.57197 0.0
O369 O 0.94601 0.54395 0.64903 0.0
O370 O 0.93908 0.47277 0.68693 0.0
O371 O 0.04007 0.61908 0.58387 0.0
O372 O 0.0374 0.49107 0.56648 0.0
O373 O 0.98849 0.44432 0.64121 0.0
O374 O 0.92553 0.458 0.90522 0.0
O375 O 0.0635 0.47672 0.82357 0.0
O376 O 0.06766 0.54829 0.79261 0.0
O377 O 0.96858 0.4057 0.92114 0.0
O378 O 0.97867 0.52555 0.92298 0.0
O379 O 0.01696 0.57784 0.8297 0.0
C380 C 0.92311 0.50838 0.64372 0.0
C381 C 0.11159 0.63592 0.60705 0.0
C382 C 0.17945 0.6722 0.579 0.0
C383 C 0.17673 0.68985 0.68584 0.0
C384 C 0.10841 0.65394 0.71379 0.0
C385 C 0.14074 0.68125 0.75234 0.0
C386 C 0.14627 0.64607 0.53978 0.0
C387 C 0.01603 0.4542 0.56178 0.0
C388 C 0.07865 0.60762 0.56175 0.0
C389 C 0.90253 0.66263 0.42603 0.0
C390 C 0.90782 0.63294 0.34072 0.0
C391 C 0.08482 0.51313 0.83353 0.0
C392 C 0.89717 0.38722 0.91237 0.0
C393 C 0.83693 0.34325 0.97255 0.0
C394 C 0.83557 0.32414 0.86745 0.0
C395 C 0.89545 0.36796 0.80723 0.0
C396 C 0.86862 0.37403 0.99532 0.0
C397 C 0.86467 0.33659 0.78534 0.0
C398 C 0.99533 0.56474 0.91806 0.0
C399 C 0.93031 0.41889 0.93902 0.0
H400 H 0.20284 0.70879 0.71873 0.0
H401 H 0.08123 0.64677 0.76709 0.0
H402 H 0.13853 0.69468 0.83499 0.0
H403 H 0.14882 0.63111 0.45863 0.0
H404 H 0.81012 0.30197 0.84665 0.0
H405 H 0.91718 0.37783 0.74168 0.0
H406 H 0.86915 0.38999 0.07531 0.0
H407 H 0.86147 0.32365 0.70284 0.0
C408 C 0.18105 0.02609 0.38195 0.0
C409 C 0.17994 0.99539 0.2961 0.0
C410 C 0.14779 0.02915 0.46365 0.0
C411 C 0.11109 1.00216 0.46374 0.0
H412 H 0.209 0.0464 0.39005 0.0
H413 H 0.15144 0.0524 0.52933 0.0
S414 S 0.09162 0.91623 0.2585 0.0
N415 N 0.13768 0.93745 0.21799 0.0
N416 N 0.07645 0.94346 0.3691 0.0
C417 C 0.10917 0.97194 0.37753 0.0
C418 C 0.14295 0.96865 0.29487 0.0
C419 C 0.47346 0.1807 0.33831 0.0
C420 C 0.51043 0.18715 0.2704 0.0
C421 C 0.46977 0.1464 0.41756 0.0
C422 C 0.50357 0.11731 0.43776 0.0
H423 H 0.44829 0.20421 0.33627 0.0
H424 H 0.44129 0.14462 0.46911 0.0
S425 S 0.60777 0.11929 0.28748 0.0
N426 N 0.58113 0.15907 0.23145 0.0
N427 N 0.57506 0.09773 0.38008 0.0
C428 C 0.53996 0.12268 0.36895 0.0
C429 C 0.54304 0.15625 0.28604 0.0
C430 C 0.36413 0.47173 0.35374 0.0
C431 C 0.35809 0.50212 0.26735 0.0
C432 C 0.40162 0.47112 0.42323 0.0
C433 C 0.43489 0.50213 0.41505 0.0
H434 H 0.33795 0.45036 0.37445 0.0
H435 H 0.40255 0.44837 0.49085 0.0
S436 S 0.43405 0.59043 0.20905 0.0
N437 N 0.39094 0.56272 0.17713 0.0
N438 N 0.45626 0.56576 0.31512 0.0
C439 C 0.42928 0.53217 0.32851 0.0
C440 C 0.39287 0.53084 0.2532 0.0
C441 C 0.98518 0.3966 0.28523 0.0
C442 C 1.01028 0.35881 0.28026 0.0
C443 C 0.98799 0.42689 0.3732 0.0
C444 C 0.01864 0.4243 0.45898 0.0
H445 H 0.96024 0.40136 0.22423 0.0
H446 H 0.96439 0.45189 0.37596 0.0
S447 S 0.09892 0.33745 0.47798 0.0
N448 N 0.07017 0.32367 0.36848 0.0
N449 N 0.07889 0.38276 0.52399 0.0
C450 C 0.04697 0.38916 0.4498 0.0
C451 C 0.04247 0.35665 0.36299 0.0
C452 C 0.85436 0.97834 0.07258 0.0
C453 C 0.85929 1.00488 0.16687 0.0
C454 C 0.88855 0.97096 0.99547 0.0
C455 C 0.9299 0.98929 1.00827 0.0
H456 H 0.82291 0.96568 0.05342 0.0
H457 H 0.88188 0.9522 0.922 0.0
S458 S 0.96007 0.06221 0.23831 0.0
N459 N 0.90964 0.04989 0.26585 0.0
N460 N 0.97289 0.0353 0.12521 0.0
C461 C 0.9356 0.01443 0.10438 0.0
C462 C 0.90082 0.02237 0.18181 0.0
C463 C 0.55881 0.90278 0.12405 0.0
C464 C 0.53494 0.86418 0.12823 0.0
C465 C 0.5544 0.93348 0.0371 0.0
C466 C 0.52622 0.9278 0.94612 0.0
H467 H 0.5832 0.90825 0.18622 0.0
H468 H 0.57436 0.96169 0.03983 0.0
S469 S 0.45294 0.83472 0.91874 0.0
N470 N 0.48016 0.82365 0.03256 0.0
N471 N 0.47138 0.88076 0.87261 0.0
C472 C 0.50144 0.88977 0.95017 0.0
C473 C 0.50578 0.85857 0.03951 0.0
C474 C 0.62235 0.49559 0.14669 0.0
C475 C 0.66033 0.52029 0.16412 0.0
C476 C 0.59507 0.50067 0.05325 0.0
C477 C 0.60018 0.5341 0.97602 0.0
H478 H 0.61523 0.4692 0.20193 0.0
H479 H 0.56991 0.47734 0.04101 0.0
S480 S 0.68728 0.61555 0.99358 0.0
N481 N 0.69847 0.58271 0.0968 0.0
N482 N 0.64305 0.59718 0.93511 0.0
C483 C 0.63512 0.56222 0.99823 0.0
C484 C 0.66531 0.55479 0.08915 0.0
C485 C 0.03334 0.62658 0.18143 0.0
C486 C 1.00586 0.66244 0.19067 0.0
C487 C 0.02863 0.5947 0.09777 0.0
C488 C 0.99477 0.59481 1.0199 0.0
H489 H 0.0616 0.62529 0.23325 0.0
H490 H 0.05335 0.57087 0.09092 0.0
S491 S 0.91057 0.678 1.01126 0.0
N492 N 0.94203 0.69413 0.11329 0.0
N493 N 0.93095 0.63294 0.96477 0.0
C494 C 0.96529 0.6287 0.03249 0.0
C495 C 0.97106 0.66222 0.11546 0.0
C496 C 0.86773 0.22738 0.26306 0.0
C497 C 0.89906 0.25782 0.29195 0.0
C498 C 0.84627 0.20396 0.34552 0.0
C499 C 0.85588 0.21029 0.45848 0.0
H500 H 0.86243 0.21919 0.17671 0.0
H501 H 0.82711 0.17679 0.32067 0.0
S502 S 0.92884 0.29116 0.57816 0.0
N503 N 0.93403 0.29642 0.44295 0.0
N504 N 0.89183 0.25411 0.59565 0.0
C505 C 0.88157 0.24511 0.4883 0.0
C506 C 0.90445 0.26794 0.40542 0.0
C507 C 0.31085 0.89006 0.33075 0.0
C508 C 0.29176 0.88696 0.22574 0.0
C509 C 0.35399 0.87955 0.34255 0.0
C510 C 0.37799 0.86651 0.24922 0.0
H511 H 0.29603 0.90885 0.39575 0.0
H512 H 0.36974 0.89146 0.41536 0.0
S513 S 0.33218 0.82236 0.99111 0.0
N514 N 0.29253 0.84881 0.0499 0.0
N515 N 0.37267 0.82512 0.07904 0.0
C516 C 0.35441 0.84761 0.16281 0.0
C517 C 0.31104 0.8598 0.1478 0.0
C518 C 0.6504 0.29807 0.33371 0.0
C519 C 0.60642 0.30334 0.35368 0.0
C520 C 0.68046 0.31228 0.41168 0.0
C521 C 0.66687 0.33084 0.51195 0.0
H522 H 0.66146 0.28453 0.25596 0.0
H523 H 0.71408 0.31209 0.38969 0.0
S524 S 0.55479 0.34821 0.6041 0.0
N525 N 0.55053 0.3267 0.47942 0.0
N526 N 0.60657 0.34969 0.63082 0.0
C527 C 0.62272 0.33185 0.53655 0.0
C528 C 0.59252 0.31991 0.45495 0.0
C529 C 0.26421 0.60853 0.48006 0.0
C530 C 0.25606 0.612 0.36526 0.0
C531 C 0.24749 0.63805 0.55487 0.0
C532 C 0.21988 0.66992 0.51714 0.0
H533 H 0.27979 0.58077 0.51384 0.0
H534 H 0.24944 0.63087 0.64292 0.0
S535 S 0.20264 0.70151 0.22453 0.0
N536 N 0.23122 0.65769 0.21629 0.0
N537 N 0.19618 0.71117 0.35864 0.0
C538 C 0.21882 0.67858 0.40265 0.0
C539 C 0.23685 0.64925 0.32603 0.0
C540 C 0.11796 0.76487 0.02843 0.0
C541 C 0.11879 0.77003 0.14492 0.0
C542 C 0.14727 0.78636 0.96028 0.0
C543 C 0.17722 0.81456 1.00645 0.0
H544 H 0.09227 0.74744 0.9885 0.0
H545 H 0.14254 0.78547 0.87113 0.0
S546 S 0.19981 0.83012 0.30576 0.0
N547 N 0.15862 0.79712 0.30336 0.0
N548 N 0.21127 0.84029 0.1742 0.0
C549 C 0.18187 0.81555 0.12227 0.0
C550 C 0.15282 0.79301 0.19187 0.0
C551 C 0.74009 0.16043 0.23048 0.0
C552 C 0.76344 0.12929 0.17194 0.0
C553 C 0.70983 0.18561 0.17594 0.0
C554 C 0.703 0.18087 0.06141 0.0
H555 H 0.74119 0.16151 0.32048 0.0
H556 H 0.68781 0.20421 0.2257 0.0
S557 S 0.76509 0.11502 0.86494 0.0
N558 N 0.78435 0.10299 0.98857 0.0
N559 N 0.72881 0.15199 0.88734 0.0
C560 C 0.73191 0.1565 0.9995 0.0
C561 C 0.76196 0.13008 0.05463 0.0
C562 C 0.60502 0.75291 0.96769 0.0
C563 C 0.59669 0.73892 0.07794 0.0
C564 C 0.57762 0.74173 0.87975 0.0
C565 C 0.54324 0.71372 0.89778 0.0
H566 H 0.62922 0.77705 0.95209 0.0
H567 H 0.58158 0.75718 0.79992 0.0
S568 S 0.5117 0.66201 0.16279 0.0
N569 N 0.55591 0.68821 0.19133 0.0
N570 N 0.50377 0.67033 0.03027 0.0
C571 C 0.53794 0.69552 1.00354 0.0
C572 C 0.56582 0.70618 0.09166 0.0
C573 C 0.73871 0.39026 0.06805 0.0
C574 C 0.74803 0.39418 0.1824 0.0
C575 C 0.76304 0.36384 1.00027 0.0
C576 C 0.79867 0.3429 0.04386 0.0
H577 H 0.71708 0.41173 0.02654 0.0
H578 H 0.75893 0.36634 0.91111 0.0
S579 S 0.82294 0.32827 0.3421 0.0
N580 N 0.78253 0.3616 0.34096 0.0
N581 N 0.83323 0.31689 0.21045 0.0
C582 C 0.80237 0.33972 0.15967 0.0
C583 C 0.77566 0.36445 0.22978 0.0
C584 C 0.02041 0.17162 0.09246 0.0
C585 C 1.01154 0.21106 0.04015 0.0
C586 C 0.0196 0.13189 0.03452 0.0
C587 C 1.00937 0.12814 0.91988 0.0
H588 H 0.02541 0.17105 0.18151 0.0
H589 H 0.02585 0.10349 0.08199 0.0
S590 S 0.98461 0.22086 0.74037 0.0
N591 N 0.99221 0.24266 0.8637 0.0
N592 N 0.99244 0.16936 0.75581 0.0
C593 C 1.00188 0.16737 0.86561 0.0
C594 C 1.00245 0.20793 0.92487 0.0
C595 C 0.31627 1.01017 0.90829 0.0
C596 C 0.31542 0.01836 0.024 0.0
C597 C 0.35375 0.01607 0.84166 0.0
C598 C 0.39382 0.02902 0.88589 0.0
H599 H 0.28813 0.99647 0.86948 0.0
H600 H 0.3511 1.00913 0.75461 0.0
S601 S 0.40843 0.06066 0.18227 0.0
N602 N 0.35805 0.04436 0.17773 0.0
N603 N 0.42751 0.05561 0.05455 0.0
C604 C 0.39264 0.04019 1.00045 0.0
C605 C 0.35419 0.03452 0.0683 0.0
C606 C 0.56334 0.35189 0.9597 0.0
C607 C 0.52713 0.32916 1.0032 0.0
C608 C 0.56032 0.3881 0.88849 0.0
C609 C 0.52079 0.40443 0.85104 0.0
H610 H 0.59523 0.3425 0.9844 0.0
H611 H 0.58978 0.40414 0.86471 0.0
S612 S 0.41606 0.35078 0.90997 0.0
N613 N 0.45011 0.32289 0.98491 0.0
N614 N 0.44446 0.38831 0.84665 0.0
C615 C 0.48436 0.37968 0.88418 0.0
C616 C 0.48747 0.34298 0.95961 0.0
C617 C 0.18061 0.55834 1.00923 0.0
C618 C 0.20614 0.52301 0.04367 0.0
C619 C 0.14307 0.55469 0.94226 0.0
C620 C 0.12787 0.51549 0.89991 0.0
H621 H 0.18929 0.59018 0.03526 0.0
H622 H 0.12533 0.58343 0.9249 0.0
S623 S 0.18771 0.41381 0.93387 0.0
N624 N 0.21543 0.4475 1.01108 0.0
N625 N 0.14754 0.44106 0.88068 0.0
C626 C 0.15493 0.48019 0.92425 0.0
C627 C 0.19306 0.48383 0.99542 0.0
C628 C 0.9873 0.83039 0.45939 0.0
C629 C 0.02196 0.80161 0.46103 0.0
C630 C 0.98661 0.86838 0.5256 0.0
C631 C 0.02076 0.88133 0.59682 0.0
H632 H 0.96136 0.8249 0.4016 0.0
H633 H 0.95902 0.88859 0.51824 0.0
S634 S 0.11916 0.81719 0.63668 0.0
N635 N 0.0911 0.78886 0.54672 0.0
N636 N 0.08992 0.85934 0.66633 0.0
C637 C 0.05481 0.85195 0.60283 0.0
C638 C 0.05536 0.81295 0.53654 0.0
C639 C 0.71428 0.01629 0.52782 0.0
C640 C 0.71549 1.01126 0.41055 0.0
C641 C 0.67519 0.01446 0.59081 0.0
C642 C 0.63449 1.00865 0.54031 0.0
H643 H 0.74366 0.02406 0.57099 0.0
H644 H 0.67692 0.01923 0.67979 0.0
S645 S 0.61921 0.99659 0.2346 0.0
N646 N 0.67158 1.00125 0.24765 0.0
N647 N 0.59947 0.99821 0.36193 0.0
C648 C 0.63564 1.00286 0.42311 0.0
C649 C 0.67536 1.00425 0.35988 0.0
C650 C 0.50412 0.70698 0.41102 0.0
C651 C 0.54152 0.73257 0.42299 0.0
C652 C 0.49798 0.66742 0.46999 0.0
C653 C 0.52856 0.65092 0.54607 0.0
H654 H 0.48059 0.71602 0.34971 0.0
H655 H 0.46964 0.64869 0.4519 0.0
S656 S 0.62646 0.7105 0.63106 0.0
N657 N 0.60587 0.74075 0.53299 0.0
N658 N 0.59379 0.66924 0.64419 0.0
C659 C 0.56379 0.67839 0.56657 0.0
C660 C 0.57019 0.71812 0.5061 0.0
C661 C 0.82615 0.54056 0.44646 0.0
C662 C 0.79822 0.50484 0.44651 0.0
C663 C 0.86391 0.5426 0.51516 0.0
C664 C 0.87863 0.50819 0.58252 0.0
H665 H 0.81965 0.5668 0.39075 0.0
H666 H 0.88181 0.57172 0.51439 0.0
S667 S 0.81254 0.41112 0.63347 0.0
N668 N 0.78433 0.43787 0.54175 0.0
N669 N 0.856 0.43992 0.65646 0.0
C670 C 0.84928 0.47376 0.58875 0.0
C671 C 0.80965 0.47264 0.52479 0.0
loop_
_geom_bond_atom_site_label_1
_geom_bond_atom_site_label_2
_geom_bond_distance
_geom_bond_site_symmetry_2
_ccdc_geom_bond_type
H0 C3 0.931 . S
H1 C6 0.928 . S
H2 C8 0.930 . S
C3 H0 0.931 . S
C3 C4 1.413 . S
C3 C5 1.360 . S
C4 C3 1.413 . S
C4 C8 1.429 . S
C5 C3 1.360 . S
C5 C6 1.372 . S
C6 H1 0.928 . S
C6 C5 1.372 . S
C6 C7 1.404 . S
C7 C6 1.404 . S
C7 C8 1.391 . S
C8 H2 0.930 . S
C8 C4 1.429 . S
C8 C7 1.391 . S
H9 C12 0.931 . S
H10 C15 0.928 . S
H11 C17 0.930 . S
C12 H9 0.931 . S
C12 C13 1.413 . S
C12 C14 1.360 . S
C13 C12 1.413 . S
C13 C17 1.429 . S
C14 C12 1.360 . S
C14 C15 1.372 . S
C15 H10 0.928 . S
C15 C14 1.372 . S
C15 C16 1.404 . S
C16 C15 1.404 . S
C16 C17 1.391 . S
C17 H11 0.930 . S
C17 C13 1.429 . S
C17 C16 1.391 . S
H18 C21 0.931 . S
H19 C24 0.928 . S
H20 C26 0.930 . S
C21 H18 0.931 . S
C21 C22 1.413 . S
C21 C23 1.360 . S
C22 C21 1.413 . S
C22 C26 1.429 . S
C23 C21 1.360 . S
C23 C24 1.372 . S
C24 H19 0.928 . S
C24 C23 1.372 . S
C24 C25 1.404 . S
C25 C24 1.404 . S
C25 C26 1.391 . S
C26 H20 0.930 . S
C26 C22 1.429 . S
C26 C25 1.391 . S
H27 C30 0.931 . S
H28 C33 0.928 . S
H29 C35 0.930 . S
C30 H27 0.931 . S
C30 C31 1.413 . S
C30 C32 1.360 . S
C31 C30 1.413 . S
C31 C35 1.429 . S
C32 C30 1.360 . S
C32 C33 1.372 . S
C33 H28 0.928 . S
C33 C32 1.372 . S
C33 C34 1.404 . S
C34 C33 1.404 . S
C34 C35 1.391 . S
C35 H29 0.930 . S
C35 C31 1.429 . S
C35 C34 1.391 . S
H36 C39 0.931 . S
H37 C42 0.928 . S
H38 C44 0.930 . S
C39 H36 0.931 . S
C39 C40 1.413 . S
C39 C41 1.360 1_556 S
C40 C39 1.413 . S
C40 C44 1.429 . S
C41 C39 1.360 1_554 S
C41 C42 1.372 . S
C42 H37 0.928 . S
C42 C41 1.372 . S
C42 C43 1.404 . S
C43 C42 1.404 . S
C43 C44 1.391 1_554 S
C44 H38 0.930 . S
C44 C40 1.429 . S
C44 C43 1.391 1_556 S
H45 C48 0.931 . S
H46 C51 0.928 . S
H47 C53 0.930 . S
C48 H45 0.931 . S
C48 C49 1.413 . S
C48 C50 1.360 1_556 S
C49 C48 1.413 . S
C49 C53 1.429 . S
C50 C48 1.360 1_554 S
C50 C51 1.372 . S
C51 H46 0.928 . S
C51 C50 1.372 . S
C51 C52 1.404 . S
C52 C51 1.404 . S
C52 C53 1.391 1_554 S
C53 H47 0.930 . S
C53 C49 1.429 . S
C53 C52 1.391 1_556 S
H54 C57 0.931 . S
H55 C60 0.928 . S
H56 C62 0.930 . S
C57 H54 0.931 . S
C57 C58 1.413 . S
C57 C59 1.360 1_556 S
C58 C57 1.413 . S
C58 C62 1.429 . S
C59 C57 1.360 1_554 S
C59 C60 1.372 . S
C60 H55 0.928 . S
C60 C59 1.372 . S
C60 C61 1.404 . S
C61 C60 1.404 . S
C61 C62 1.391 1_554 S
C62 H56 0.930 . S
C62 C58 1.429 . S
C62 C61 1.391 1_556 S
H63 C66 0.931 . S
H64 C69 0.928 . S
H65 C71 0.930 . S
C66 H63 0.931 . S
C66 C67 1.413 1_556 S
C66 C68 1.360 . S
C67 C66 1.413 1_554 S
C67 C71 1.429 . S
C68 C66 1.360 . S
C68 C69 1.372 . S
C69 H64 0.928 . S
C69 C68 1.372 . S
C69 C70 1.404 1_556 S
C70 C69 1.404 1_554 S
C70 C71 1.391 . S
C71 H65 0.930 . S
C71 C67 1.429 . S
C71 C70 1.391 . S
Eu72 N101 2.600 . S
Eu72 N107 2.562 . S
Eu72 O116 2.462 . S
Eu72 O117 2.373 1_545 S
Eu72 O119 2.432 . S
Eu72 O120 2.291 1_655 S
Eu72 O124 2.335 . S
Eu72 O127 2.372 . S
Eu72 C136 2.787 . S
C73 N74 1.365 . S
C73 C76 1.405 . S
C73 C80 1.448 1_556 S
N74 C73 1.365 . S
N74 C77 1.317 1_545 S
N74 Eu83 2.600 1_545 S
C75 C77 1.393 1_545 S
C75 C78 1.367 . S
C75 H95 0.931 . S
C76 C73 1.405 . S
C76 C78 1.403 . S
C76 C82 1.439 1_556 S
C77 N74 1.317 1_565 S
C77 C75 1.393 1_565 S
C77 H88 0.936 . S
C78 C75 1.367 . S
C78 C76 1.403 . S
C78 H99 0.929 . S
C79 C80 1.430 . S
C79 C81 1.387 . S
C79 C85 1.404 . S
C80 C73 1.448 1_554 S
C80 C79 1.430 . S
C80 N84 1.351 1_554 S
C81 C79 1.387 . S
C81 C82 1.374 . S
C81 H96 0.931 . S
C82 C76 1.439 1_554 S
C82 C81 1.374 . S
C82 H97 0.931 . S
Eu83 N74 2.600 1_565 S
Eu83 N84 2.562 1_565 S
Eu83 O118 2.335 . S
Eu83 O121 2.372 . S
Eu83 O122 2.462 . S
Eu83 O123 2.373 1_565 S
Eu83 O125 2.432 . S
Eu83 O126 2.292 1_465 S
Eu83 C147 2.787 . S
N84 C80 1.351 1_556 S
N84 Eu83 2.562 1_545 S
N84 C86 1.325 1_556 S
C85 C79 1.404 . S
C85 C87 1.366 . S
C85 H93 0.930 . S
C86 N84 1.325 1_554 S
C86 C87 1.416 . S
C86 H92 0.929 . S
C87 C85 1.366 . S
C87 C86 1.416 . S
C87 H89 0.930 . S
H88 C77 0.936 . S
H89 C87 0.930 . S
H90 C105 0.930 . S
H91 C112 0.930 . S
H92 C86 0.929 . S
H93 C85 0.930 . S
H94 C108 0.929 1_445 S
H95 C75 0.931 . S
H96 C81 0.931 . S
H97 C82 0.931 . S
H98 C103 0.930 1_545 S
H99 C78 0.929 . S
H100 C111 0.930 . S
N101 Eu72 2.600 . S
N101 C102 1.365 1_545 S
N101 C105 1.319 . S
C102 N101 1.365 1_565 S
C102 C104 1.405 . S
C102 C110 1.448 . S
C103 H98 0.930 1_565 S
C103 C105 1.394 1_565 S
C103 C106 1.372 . S
C104 C102 1.405 . S
C104 C106 1.403 . S
C104 C137 1.439 . S
C105 H90 0.930 . S
C105 N101 1.319 . S
C105 C103 1.394 1_545 S
C106 C103 1.372 . S
C106 C104 1.403 . S
C106 H113 0.929 . S
N107 Eu72 2.562 . S
N107 C108 1.325 1_545 S
N107 C110 1.351 1_545 S
C108 H94 0.929 1_665 S
C108 N107 1.325 1_565 S
C108 C112 1.416 . S
C109 C110 1.430 . S
C109 C111 1.404 . S
C109 C138 1.387 . S
C110 C102 1.448 . S
C110 N107 1.351 1_565 S
C110 C109 1.430 . S
C111 H100 0.930 . S
C111 C109 1.404 . S
C111 C112 1.366 . S
C112 H91 0.930 . S
C112 C108 1.416 . S
C112 C111 1.366 . S
H113 C106 0.929 . S
H114 C137 0.931 . S
H115 C138 0.931 . S
O116 Eu72 2.462 . S
O116 C136 1.252 . S
O117 Eu72 2.373 1_565 S
O117 C128 1.249 . S
O118 Eu83 2.335 . S
O118 C128 1.264 1_455 S
O119 Eu72 2.432 . S
O119 C136 1.268 . S
O120 Eu72 2.291 1_455 S
O120 C135 1.255 . S
O121 Eu83 2.372 . S
O121 C135 1.257 1_565 S
O122 Eu83 2.462 . S
O122 C147 1.252 . S
O123 Eu83 2.373 1_545 S
O123 C139 1.249 . S
O124 Eu72 2.335 . S
O124 C139 1.264 1_655 S
O125 Eu83 2.432 . S
O125 C147 1.268 . S
O126 Eu83 2.292 1_645 S
O126 C146 1.255 . S
O127 Eu72 2.372 . S
O127 C146 1.257 . S
C128 O117 1.249 . S
C128 O118 1.264 1_655 S
C129 C132 1.382 . S
C129 C134 1.390 . S
C129 C136 1.506 . S
C130 C131 1.398 . S
C130 C134 1.392 . S
C131 C130 1.398 . S
C131 C133 1.372 . S
C131 H148 0.931 . S
C132 C129 1.382 . S
C132 C133 1.390 . S
C132 H149 0.931 . S
C133 C131 1.372 . S
C133 C132 1.390 . S
C133 H150 0.929 . S
C134 C129 1.390 . S
C134 C130 1.392 . S
C134 H151 0.930 . S
C135 O120 1.255 . S
C135 O121 1.257 1_545 S
C136 Eu72 2.787 . S
C136 O116 1.252 . S
C136 O119 1.268 . S
C136 C129 1.506 . S
C137 C104 1.439 . S
C137 H114 0.931 . S
C137 C138 1.374 . S
C138 C109 1.387 . S
C138 H115 0.931 . S
C138 C137 1.374 . S
C139 O123 1.249 . S
C139 O124 1.264 1_455 S
C140 C143 1.382 . S
C140 C144 1.390 1_556 S
C140 C147 1.506 . S
C141 C142 1.398 . S
C141 C144 1.392 . S
C142 C141 1.398 . S
C142 C145 1.371 . S
C142 H152 0.931 . S
C143 C140 1.382 . S
C143 C145 1.390 1_556 S
C143 H153 0.931 . S
C144 C140 1.390 1_554 S
C144 C141 1.392 . S
C144 H154 0.930 . S
C145 C142 1.371 . S
C145 C143 1.390 1_554 S
C145 H155 0.929 1_554 S
C146 O126 1.255 . S
C146 O127 1.257 . S
C147 Eu83 2.787 . S
C147 O122 1.252 . S
C147 O125 1.268 . S
C147 C140 1.506 . S
H148 C131 0.931 . S
H149 C132 0.931 . S
H150 C133 0.929 . S
H151 C134 0.930 . S
H152 C142 0.931 . S
H153 C143 0.931 . S
H154 C144 0.930 . S
H155 C145 0.929 1_556 S
Eu156 N185 2.600 . S
Eu156 N191 2.562 . S
Eu156 O200 2.462 . S
Eu156 O201 2.373 . S
Eu156 O203 2.432 . S
Eu156 O204 2.291 . S
Eu156 O208 2.335 1_545 S
Eu156 O211 2.372 . S
Eu156 C220 2.787 . S
C157 N158 1.365 . S
C157 C160 1.405 . S
C157 C164 1.448 . S
N158 C157 1.365 . S
N158 C161 1.319 . S
N158 Eu167 2.600 . S
C159 C161 1.397 . S
C159 C162 1.367 . S
C159 H179 0.931 . S
C160 C157 1.405 . S
C160 C162 1.403 . S
C160 C166 1.439 . S
C161 N158 1.319 . S
C161 C159 1.397 . S
C161 H172 0.930 . S
C162 C159 1.367 . S
C162 C160 1.403 . S
C162 H183 0.929 . S
C163 C164 1.430 . S
C163 C165 1.387 . S
C163 C169 1.404 . S
C164 C157 1.448 . S
C164 C163 1.430 . S
C164 N168 1.351 . S
C165 C163 1.387 . S
C165 C166 1.374 . S
C165 H180 0.931 . S
C166 C160 1.439 . S
C166 C165 1.374 . S
C166 H181 0.931 . S
Eu167 N158 2.600 . S
Eu167 N168 2.562 . S
Eu167 O202 2.335 1_565 S
Eu167 O205 2.372 . S
Eu167 O206 2.462 . S
Eu167 O207 2.373 . S
Eu167 O209 2.432 . S
Eu167 O210 2.291 . S
Eu167 C231 2.787 . S
N168 C164 1.351 . S
N168 Eu167 2.562 . S
N168 C170 1.325 . S
C169 C163 1.404 . S
C169 C171 1.366 . S
C169 H177 0.930 . S
C170 N168 1.325 . S
C170 C171 1.416 . S
C170 H176 0.929 . S
C171 C169 1.366 . S
C171 C170 1.416 . S
C171 H173 0.930 . S
H172 C161 0.930 . S
H173 C171 0.930 . S
H174 C189 0.930 . S
H175 C196 0.930 . S
H176 C170 0.929 . S
H177 C169 0.930 . S
H178 C192 0.929 . S
H179 C159 0.931 . S
H180 C165 0.931 . S
H181 C166 0.931 . S
H182 C187 0.931 . S
H183 C162 0.929 . S
H184 C195 0.930 . S
N185 Eu156 2.600 . S
N185 C186 1.365 . S
N185 C189 1.319 . S
C186 N185 1.365 . S
C186 C188 1.405 . S
C186 C194 1.448 . S
C187 H182 0.931 . S
C187 C189 1.397 . S
C187 C190 1.367 . S
C188 C186 1.405 . S
C188 C190 1.403 . S
C188 C221 1.439 . S
C189 H174 0.930 . S
C189 N185 1.319 . S
C189 C187 1.397 . S
C190 C187 1.367 . S
C190 C188 1.403 . S
C190 H197 0.929 . S
N191 Eu156 2.562 . S
N191 C192 1.325 . S
N191 C194 1.351 . S
C192 H178 0.929 . S
C192 N191 1.325 . S
C192 C196 1.416 . S
C193 C194 1.430 . S
C193 C195 1.404 . S
C193 C222 1.387 . S
C194 C186 1.448 . S
C194 N191 1.351 . S
C194 C193 1.430 . S
C195 H184 0.930 . S
C195 C193 1.404 . S
C195 C196 1.366 . S
C196 H175 0.930 . S
C196 C192 1.416 . S
C196 C195 1.366 . S
H197 C190 0.929 . S
H198 C221 0.931 . S
H199 C222 0.931 . S
O200 Eu156 2.462 . S
O200 C220 1.252 . S
O201 Eu156 2.373 . S
O201 C212 1.249 . S
O202 Eu167 2.335 1_545 S
O202 C212 1.264 . S
O203 Eu156 2.432 . S
O203 C220 1.268 . S
O204 Eu156 2.291 . S
O204 C219 1.255 1_545 S
O205 Eu167 2.372 . S
O205 C219 1.257 . S
O206 Eu167 2.462 . S
O206 C231 1.252 . S
O207 Eu167 2.373 . S
O207 C223 1.249 . S
O208 Eu156 2.335 1_565 S
O208 C223 1.264 . S
O209 Eu167 2.432 . S
O209 C231 1.268 . S
O210 Eu167 2.291 . S
O210 C230 1.255 1_565 S
O211 Eu156 2.372 . S
O211 C230 1.257 . S
C212 O201 1.249 . S
C212 O202 1.264 . S
C213 C216 1.382 . S
C213 C218 1.390 . S
C213 C220 1.506 1_554 S
C214 C215 1.398 . S
C214 C218 1.392 . S
C215 C214 1.398 . S
C215 C217 1.372 . S
C215 H232 0.931 . S
C216 C213 1.382 . S
C216 C217 1.390 . S
C216 H233 0.931 . S
C217 C215 1.372 . S
C217 C216 1.390 . S
C217 H234 0.929 . S
C218 C213 1.390 . S
C218 C214 1.392 . S
C218 H235 0.930 1_554 S
C219 O204 1.255 1_565 S
C219 O205 1.257 . S
C220 Eu156 2.787 . S
C220 O200 1.252 . S
C220 O203 1.268 . S
C220 C213 1.506 1_556 S
C221 C188 1.439 . S
C221 H198 0.931 . S
C221 C222 1.374 . S
C222 C193 1.387 . S
C222 H199 0.931 . S
C222 C221 1.374 . S
C223 O207 1.249 . S
C223 O208 1.264 . S
C224 C227 1.382 . S
C224 C228 1.390 . S
C224 C231 1.506 . S
C225 C226 1.398 . S
C225 C228 1.392 . S
C226 C225 1.398 . S
C226 C229 1.372 . S
C226 H236 0.931 . S
C227 C224 1.382 . S
C227 C229 1.390 . S
C227 H237 0.931 . S
C228 C224 1.390 . S
C228 C225 1.392 . S
C228 H238 0.930 . S
C229 C226 1.372 . S
C229 C227 1.390 . S
C229 H239 0.929 . S
C230 O210 1.255 1_545 S
C230 O211 1.257 . S
C231 Eu167 2.787 . S
C231 O206 1.252 . S
C231 O209 1.268 . S
C231 C224 1.506 . S
H232 C215 0.931 . S
H233 C216 0.931 . S
H234 C217 0.929 . S
H235 C218 0.930 1_556 S
H236 C226 0.931 . S
H237 C227 0.931 . S
H238 C228 0.930 . S
H239 C229 0.929 . S
Eu240 N269 2.600 . S
Eu240 N275 2.562 . S
Eu240 O284 2.462 . S
Eu240 O285 2.373 . S
Eu240 O287 2.432 . S
Eu240 O288 2.291 . S
Eu240 O292 2.335 . S
Eu240 O295 2.372 . S
Eu240 C304 2.787 . S
C241 N242 1.365 . S
C241 C244 1.405 . S
C241 C248 1.448 1_556 S
N242 C241 1.365 . S
N242 C245 1.319 . S
N242 Eu251 2.600 . S
C243 C245 1.397 . S
C243 C246 1.367 . S
C243 H263 0.931 . S
C244 C241 1.405 . S
C244 C246 1.403 . S
C244 C250 1.439 1_556 S
C245 N242 1.319 . S
C245 C243 1.397 . S
C245 H256 0.930 . S
C246 C243 1.367 . S
C246 C244 1.403 . S
C246 H267 0.929 . S
C247 C248 1.430 . S
C247 C249 1.387 . S
C247 C253 1.404 . S
C248 C241 1.448 1_554 S
C248 C247 1.430 . S
C248 N252 1.351 1_554 S
C249 C247 1.387 . S
C249 C250 1.374 . S
C249 H264 0.931 . S
C250 C244 1.439 1_554 S
C250 C249 1.374 . S
C250 H265 0.931 . S
Eu251 N242 2.600 . S
Eu251 N252 2.562 . S
Eu251 O286 2.335 . S
Eu251 O289 2.372 . S
Eu251 O290 2.462 . S
Eu251 O291 2.373 . S
Eu251 O293 2.432 . S
Eu251 O294 2.291 . S
Eu251 C315 2.787 . S
N252 C248 1.351 1_556 S
N252 Eu251 2.562 . S
N252 C254 1.325 1_556 S
C253 C247 1.404 . S
C253 C255 1.366 . S
C253 H261 0.930 . S
C254 N252 1.325 1_554 S
C254 C255 1.416 . S
C254 H260 0.929 . S
C255 C253 1.366 . S
C255 C254 1.416 . S
C255 H257 0.930 . S
H256 C245 0.930 . S
H257 C255 0.930 . S
H258 C273 0.930 . S
H259 C280 0.930 . S
H260 C254 0.929 . S
H261 C253 0.930 . S
H262 C276 0.929 . S
H263 C243 0.931 . S
H264 C249 0.931 . S
H265 C250 0.931 . S
H266 C271 0.931 . S
H267 C246 0.929 . S
H268 C279 0.930 . S
N269 Eu240 2.600 . S
N269 C270 1.365 . S
N269 C273 1.319 . S
C270 N269 1.365 . S
C270 C272 1.405 . S
C270 C278 1.448 . S
C271 H266 0.931 . S
C271 C273 1.397 . S
C271 C274 1.367 . S
C272 C270 1.405 . S
C272 C274 1.403 . S
C272 C305 1.439 . S
C273 H258 0.930 . S
C273 N269 1.319 . S
C273 C271 1.397 . S
C274 C271 1.367 . S
C274 C272 1.403 . S
C274 H281 0.929 . S
N275 Eu240 2.562 . S
N275 C276 1.325 . S
N275 C278 1.351 . S
C276 H262 0.929 . S
C276 N275 1.325 . S
C276 C280 1.416 . S
C277 C278 1.430 . S
C277 C279 1.404 . S
C277 C306 1.387 . S
C278 C270 1.448 . S
C278 N275 1.351 . S
C278 C277 1.430 . S
C279 H268 0.930 . S
C279 C277 1.404 . S
C279 C280 1.366 . S
C280 H259 0.930 . S
C280 C276 1.416 . S
C280 C279 1.366 . S
H281 C274 0.929 . S
H282 C305 0.931 . S
H283 C306 0.931 . S
O284 Eu240 2.462 . S
O284 C304 1.252 . S
O285 Eu240 2.373 . S
O285 C296 1.249 . S
O286 Eu251 2.335 . S
O286 C296 1.264 . S
O287 Eu240 2.432 . S
O287 C304 1.268 . S
O288 Eu240 2.291 . S
O288 C303 1.255 . S
O289 Eu251 2.372 . S
O289 C303 1.257 . S
O290 Eu251 2.462 . S
O290 C315 1.252 . S
O291 Eu251 2.373 . S
O291 C307 1.249 . S
O292 Eu240 2.335 . S
O292 C307 1.264 . S
O293 Eu251 2.432 . S
O293 C315 1.268 . S
O294 Eu251 2.291 . S
O294 C314 1.255 . S
O295 Eu240 2.372 . S
O295 C314 1.257 . S
C296 O285 1.249 . S
C296 O286 1.264 . S
C297 C300 1.382 . S
C297 C302 1.390 . S
C297 C304 1.506 . S
C298 C299 1.398 . S
C298 C302 1.392 . S
C299 C298 1.398 . S
C299 C301 1.372 . S
C299 H316 0.931 . S
C300 C297 1.382 . S
C300 C301 1.390 . S
C300 H317 0.931 . S
C301 C299 1.372 . S
C301 C300 1.390 . S
C301 H318 0.929 . S
C302 C297 1.390 . S
C302 C298 1.392 . S
C302 H319 0.930 . S
C303 O288 1.255 . S
C303 O289 1.257 . S
C304 Eu240 2.787 . S
C304 O284 1.252 . S
C304 O287 1.268 . S
C304 C297 1.506 . S
C305 C272 1.439 . S
C305 H282 0.931 . S
C305 C306 1.374 . S
C306 C277 1.387 . S
C306 H283 0.931 . S
C306 C305 1.374 . S
C307 O291 1.249 . S
C307 O292 1.264 . S
C308 C311 1.382 . S
C308 C312 1.390 1_556 S
C308 C315 1.506 . S
C309 C310 1.398 . S
C309 C312 1.392 . S
C310 C309 1.398 . S
C310 C313 1.372 . S
C310 H320 0.931 . S
C311 C308 1.382 . S
C311 C313 1.390 1_556 S
C311 H321 0.931 . S
C312 C308 1.390 1_554 S
C312 C309 1.392 . S
C312 H322 0.930 . S
C313 C310 1.372 . S
C313 C311 1.390 1_554 S
C313 H323 0.929 1_554 S
C314 O294 1.255 . S
C314 O295 1.257 . S
C315 Eu251 2.787 . S
C315 O290 1.252 . S
C315 O293 1.268 . S
C315 C308 1.506 . S
H316 C299 0.931 . S
H317 C300 0.931 . S
H318 C301 0.929 . S
H319 C302 0.930 . S
H320 C310 0.931 . S
H321 C311 0.931 . S
H322 C312 0.930 . S
H323 C313 0.929 1_556 S
Eu324 N353 2.600 . S
Eu324 N359 2.562 . S
Eu324 O368 2.462 . S
Eu324 O369 2.373 1_455 S
Eu324 O371 2.432 . S
Eu324 O372 2.291 . S
Eu324 O376 2.335 . S
Eu324 O379 2.372 . S
Eu324 C388 2.787 . S
C325 N326 1.364 . S
C325 C328 1.405 . S
C325 C332 1.448 1_556 S
N326 C325 1.364 . S
N326 C329 1.319 1_455 S
N326 Eu335 2.601 1_455 S
C327 C329 1.397 1_455 S
C327 C330 1.367 . S
C327 H347 0.931 . S
C328 C325 1.405 . S
C328 C330 1.403 . S
C328 C334 1.439 1_556 S
C329 N326 1.319 1_655 S
C329 C327 1.397 1_655 S
C329 H340 0.930 . S
C330 C327 1.367 . S
C330 C328 1.403 . S
C330 H351 0.929 . S
C331 C332 1.430 . S
C331 C333 1.387 . S
C331 C337 1.404 . S
C332 C325 1.448 1_554 S
C332 C331 1.430 . S
C332 N336 1.351 1_554 S
C333 C331 1.387 . S
C333 C334 1.374 . S
C333 H348 0.931 . S
C334 C328 1.439 1_554 S
C334 C333 1.374 . S
C334 H349 0.931 . S
Eu335 N326 2.601 1_655 S
Eu335 N336 2.562 1_655 S
Eu335 O370 2.335 . S
Eu335 O373 2.372 . S
Eu335 O374 2.462 . S
Eu335 O375 2.373 1_655 S
Eu335 O377 2.432 . S
Eu335 O378 2.291 . S
Eu335 C399 2.787 . S
N336 C332 1.351 1_556 S
N336 Eu335 2.562 1_455 S
N336 C338 1.325 1_556 S
C337 C331 1.404 . S
C337 C339 1.366 . S
C337 H345 0.930 . S
C338 N336 1.325 1_554 S
C338 C339 1.416 . S
C338 H344 0.929 . S
C339 C337 1.366 . S
C339 C338 1.416 . S
C339 H341 0.930 . S
H340 C329 0.930 . S
H341 C339 0.930 . S
H342 C357 0.930 . S
H343 C364 0.930 . S
H344 C338 0.929 . S
H345 C337 0.930 . S
H346 C360 0.929 1_455 S
H347 C327 0.931 . S
H348 C333 0.931 . S
H349 C334 0.931 . S
H350 C355 0.931 . S
H351 C330 0.929 . S
H352 C363 0.930 . S
N353 Eu324 2.600 . S
N353 C354 1.365 1_455 S
N353 C357 1.319 . S
C354 N353 1.365 1_655 S
C354 C356 1.405 . S
C354 C362 1.448 . S
C355 H350 0.931 . S
C355 C357 1.398 . S
C355 C358 1.366 1_455 S
C356 C354 1.405 . S
C356 C358 1.403 . S
C356 C389 1.439 . S
C357 H342 0.930 . S
C357 N353 1.319 . S
C357 C355 1.398 . S
C358 C355 1.366 1_655 S
C358 C356 1.403 . S
C358 H365 0.929 . S
N359 Eu324 2.562 . S
N359 C360 1.325 1_455 S
N359 C362 1.351 1_455 S
C360 H346 0.929 1_655 S
C360 N359 1.325 1_655 S
C360 C364 1.416 . S
C361 C362 1.430 . S
C361 C363 1.404 . S
C361 C390 1.387 . S
C362 C354 1.448 . S
C362 N359 1.351 1_655 S
C362 C361 1.430 . S
C363 H352 0.930 . S
C363 C361 1.404 . S
C363 C364 1.366 . S
C364 H343 0.930 . S
C364 C360 1.416 . S
C364 C363 1.366 . S
H365 C358 0.929 . S
H366 C389 0.931 . S
H367 C390 0.931 . S
O368 Eu324 2.462 . S
O368 C388 1.252 . S
O369 Eu324 2.373 1_655 S
O369 C380 1.249 . S
O370 Eu335 2.335 . S
O370 C380 1.264 . S
O371 Eu324 2.432 . S
O371 C388 1.268 . S
O372 Eu324 2.291 . S
O372 C387 1.255 . S
O373 Eu335 2.372 . S
O373 C387 1.257 1_655 S
O374 Eu335 2.462 . S
O374 C399 1.252 . S
O375 Eu335 2.373 1_455 S
O375 C391 1.249 . S
O376 Eu324 2.335 . S
O376 C391 1.264 . S
O377 Eu335 2.432 . S
O377 C399 1.268 . S
O378 Eu335 2.291 . S
O378 C398 1.255 1_655 S
O379 Eu324 2.372 . S
O379 C398 1.257 . S
C380 O369 1.249 . S
C380 O370 1.264 . S
C381 C384 1.382 . S
C381 C386 1.390 . S
C381 C388 1.506 . S
C382 C383 1.398 . S
C382 C386 1.392 . S
C383 C382 1.398 . S
C383 C385 1.372 . S
C383 H400 0.931 . S
C384 C381 1.382 . S
C384 C385 1.390 . S
C384 H401 0.931 . S
C385 C383 1.372 . S
C385 C384 1.390 . S
C385 H402 0.929 . S
C386 C381 1.390 . S
C386 C382 1.392 . S
C386 H403 0.930 . S
C387 O372 1.255 . S
C387 O373 1.257 1_455 S
C388 Eu324 2.787 . S
C388 O368 1.252 . S
C388 O371 1.268 . S
C388 C381 1.506 . S
C389 C356 1.439 . S
C389 H366 0.931 . S
C389 C390 1.374 . S
C390 C361 1.387 . S
C390 H367 0.931 . S
C390 C389 1.374 . S
C391 O375 1.249 . S
C391 O376 1.264 . S
C392 C395 1.382 . S
C392 C396 1.390 1_556 S
C392 C399 1.506 . S
C393 C394 1.398 . S
C393 C396 1.392 . S
C394 C393 1.398 . S
C394 C397 1.372 . S
C394 H404 0.931 . S
C395 C392 1.382 . S
C395 C397 1.390 1_556 S
C395 H405 0.931 . S
C396 C392 1.390 1_554 S
C396 C393 1.392 . S
C396 H406 0.930 . S
C397 C394 1.372 . S
C397 C395 1.390 1_554 S
C397 H407 0.929 1_554 S
C398 O378 1.255 1_455 S
C398 O379 1.257 . S
C399 Eu335 2.787 . S
C399 O374 1.252 . S
C399 O377 1.268 . S
C399 C392 1.506 . S
H400 C383 0.931 . S
H401 C384 0.931 . S
H402 C385 0.929 . S
H403 C386 0.930 . S
H404 C394 0.931 . S
H405 C395 0.931 . S
H406 C396 0.930 . S
H407 C397 0.929 1_556 S
C408 C409 1.369 . S
C408 C410 1.419 . S
C408 H412 0.930 . S
C409 C408 1.369 . S
C409 C418 1.429 1_545 S
C410 C408 1.419 . S
C410 C411 1.363 . S
C410 H413 0.929 . S
C411 C410 1.363 . S
C411 C417 1.428 1_545 S
H412 C408 0.930 . S
H413 C410 0.929 . S
S414 N415 1.613 . S
S414 N416 1.610 . S
N415 S414 1.613 . S
N415 C418 1.350 . S
N416 S414 1.610 . S
N416 C417 1.351 . S
C417 C411 1.428 1_565 S
C417 N416 1.351 . S
C417 C418 1.434 . S
C418 C409 1.429 1_565 S
C418 N415 1.350 . S
C418 C417 1.434 . S
C419 C420 1.369 . S
C419 C421 1.419 . S
C419 H423 0.930 . S
C420 C419 1.369 . S
C420 C429 1.429 . S
C421 C419 1.419 . S
C421 C422 1.363 . S
C421 H424 0.929 . S
C422 C421 1.363 . S
C422 C428 1.428 . S
H423 C419 0.930 . S
H424 C421 0.929 . S
S425 N426 1.613 . S
S425 N427 1.610 . S
N426 S425 1.613 . S
N426 C429 1.350 . S
N427 S425 1.610 . S
N427 C428 1.351 . S
C428 C422 1.428 . S
C428 N427 1.351 . S
C428 C429 1.434 . S
C429 C420 1.429 . S
C429 N426 1.350 . S
C429 C428 1.434 . S
C430 C431 1.369 . S
C430 C432 1.419 . S
C430 H434 0.930 . S
C431 C430 1.369 . S
C431 C440 1.429 . S
C432 C430 1.419 . S
C432 C433 1.363 . S
C432 H435 0.929 . S
C433 C432 1.363 . S
C433 C439 1.428 . S
H434 C430 0.930 . S
H435 C432 0.929 . S
S436 N437 1.613 . S
S436 N438 1.610 . S
N437 S436 1.613 . S
N437 C440 1.350 . S
N438 S436 1.610 . S
N438 C439 1.351 . S
C439 C433 1.428 . S
C439 N438 1.351 . S
C439 C440 1.434 . S
C440 C431 1.429 . S
C440 N437 1.350 . S
C440 C439 1.434 . S
C441 C442 1.369 . S
C441 C443 1.419 1_455 S
C441 H445 0.930 1_455 S
C442 C441 1.369 . S
C442 C451 1.429 . S
C443 C441 1.419 1_655 S
C443 C444 1.363 1_655 S
C443 H446 0.929 . S
C444 C443 1.363 1_455 S
C444 C450 1.428 . S
H445 C441 0.930 1_655 S
H446 C443 0.929 . S
S447 N448 1.613 . S
S447 N449 1.610 . S
N448 S447 1.613 . S
N448 C451 1.350 . S
N449 S447 1.610 . S
N449 C450 1.351 . S
C450 C444 1.428 . S
C450 N449 1.351 . S
C450 C451 1.434 . S
C451 C442 1.429 . S
C451 N448 1.350 . S
C451 C450 1.434 . S
C452 C453 1.369 . S
C452 C454 1.419 . S
C452 H456 0.930 . S
C453 C452 1.369 . S
C453 C462 1.429 1_565 S
C454 C452 1.419 . S
C454 C455 1.363 1_554 S
C454 H457 0.929 . S
C455 C454 1.363 1_556 S
C455 C461 1.428 1_566 S
H456 C452 0.930 . S
H457 C454 0.929 . S
S458 N459 1.613 . S
S458 N460 1.610 1_554 S
N459 S458 1.613 . S
N459 C462 1.350 . S
N460 S458 1.610 1_556 S
N460 C461 1.351 1_556 S
C461 C455 1.428 1_544 S
C461 N460 1.351 1_554 S
C461 C462 1.434 . S
C462 C453 1.429 1_545 S
C462 N459 1.350 . S
C462 C461 1.434 . S
C463 C464 1.369 . S
C463 C465 1.419 . S
C463 H467 0.930 . S
C464 C463 1.369 . S
C464 C473 1.429 . S
C465 C463 1.419 . S
C465 C466 1.363 1_554 S
C465 H468 0.929 . S
C466 C465 1.363 1_556 S
C466 C472 1.428 1_556 S
H467 C463 0.930 . S
H468 C465 0.929 . S
S469 N470 1.613 . S
S469 N471 1.610 1_554 S
N470 S469 1.613 . S
N470 C473 1.350 . S
N471 S469 1.610 1_556 S
N471 C472 1.351 1_556 S
C472 C466 1.428 1_554 S
C472 N471 1.351 1_554 S
C472 C473 1.434 . S
C473 C464 1.429 . S
C473 N470 1.350 . S
C473 C472 1.434 . S
C474 C475 1.369 . S
C474 C476 1.419 . S
C474 H478 0.930 . S
C475 C474 1.369 . S
C475 C484 1.429 . S
C476 C474 1.419 . S
C476 C477 1.363 1_554 S
C476 H479 0.929 . S
C477 C476 1.363 1_556 S
C477 C483 1.428 1_556 S
H478 C474 0.930 . S
H479 C476 0.929 . S
S480 N481 1.613 . S
S480 N482 1.610 1_554 S
N481 S480 1.613 . S
N481 C484 1.350 . S
N482 S480 1.610 1_556 S
N482 C483 1.351 1_556 S
C483 C477 1.428 1_554 S
C483 N482 1.351 1_554 S
C483 C484 1.434 . S
C484 C475 1.429 . S
C484 N481 1.350 . S
C484 C483 1.434 . S
C485 C486 1.369 1_455 S
C485 C487 1.419 . S
C485 H489 0.930 . S
C486 C485 1.369 1_655 S
C486 C495 1.429 . S
C487 C485 1.419 . S
C487 C488 1.363 1_454 S
C487 H490 0.929 . S
C488 C487 1.363 1_656 S
C488 C494 1.428 1_556 S
H489 C485 0.930 . S
H490 C487 0.929 . S
S491 N492 1.613 . S
S491 N493 1.610 1_554 S
N492 S491 1.613 . S
N492 C495 1.350 . S
N493 S491 1.610 1_556 S
N493 C494 1.351 1_556 S
C494 C488 1.428 1_554 S
C494 N493 1.351 1_554 S
C494 C495 1.434 . S
C495 C486 1.429 . S
C495 N492 1.350 . S
C495 C494 1.434 . S
C496 C497 1.369 1_655 S
C496 C498 1.419 . S
C496 H500 0.930 . S
C497 C496 1.369 1_455 S
C497 C506 1.429 . S
C498 C496 1.419 . S
C498 C499 1.363 . S
C498 H501 0.929 . S
C499 C498 1.363 . S
C499 C505 1.428 1_655 S
H500 C496 0.930 . S
H501 C498 0.929 . S
S502 N503 1.613 . S
S502 N504 1.610 . S
N503 S502 1.613 . S
N503 C506 1.350 . S
N504 S502 1.610 . S
N504 C505 1.351 . S
C505 C499 1.428 1_455 S
C505 N504 1.351 . S
C505 C506 1.434 . S
C506 C497 1.429 . S
C506 N503 1.350 . S
C506 C505 1.434 . S
C507 C508 1.369 . S
C507 C509 1.419 . S
C507 H511 0.930 . S
C508 C507 1.369 . S
C508 C517 1.429 1_545 S
C509 C507 1.419 . S
C509 C510 1.363 1_545 S
C509 H512 0.929 . S
C510 C509 1.363 1_565 S
C510 C516 1.428 . S
H511 C507 0.930 . S
H512 C509 0.929 . S
S513 N514 1.613 . S
S513 N515 1.610 . S
N514 S513 1.613 . S
N514 C517 1.350 . S
N515 S513 1.610 . S
N515 C516 1.351 . S
C516 C510 1.428 . S
C516 N515 1.351 . S
C516 C517 1.434 . S
C517 C508 1.429 1_565 S
C517 N514 1.350 . S
C517 C516 1.434 . S
C518 C519 1.369 . S
C518 C520 1.419 . S
C518 H522 0.930 . S
C519 C518 1.369 . S
C519 C528 1.429 . S
C520 C518 1.419 . S
C520 C521 1.363 . S
C520 H523 0.929 . S
C521 C520 1.363 . S
C521 C527 1.428 . S
H522 C518 0.930 . S
H523 C520 0.929 . S
S524 N525 1.613 . S
S524 N526 1.610 . S
N525 S524 1.613 . S
N525 C528 1.350 . S
N526 S524 1.610 . S
N526 C527 1.351 . S
C527 C521 1.428 . S
C527 N526 1.351 . S
C527 C528 1.434 . S
C528 C519 1.429 . S
C528 N525 1.350 . S
C528 C527 1.434 . S
C529 C530 1.369 . S
C529 C531 1.419 . S
C529 H533 0.930 . S
C530 C529 1.369 . S
C530 C539 1.429 . S
C531 C529 1.419 . S
C531 C532 1.363 . S
C531 H534 0.929 . S
C532 C531 1.363 . S
C532 C538 1.428 . S
H533 C529 0.930 . S
H534 C531 0.929 . S
S535 N536 1.613 . S
S535 N537 1.610 . S
N536 S535 1.613 . S
N536 C539 1.350 . S
N537 S535 1.610 . S
N537 C538 1.351 . S
C538 C532 1.428 . S
C538 N537 1.351 . S
C538 C539 1.434 . S
C539 C530 1.429 . S
C539 N536 1.350 . S
C539 C538 1.434 . S
C540 C541 1.369 . S
C540 C542 1.419 . S
C540 H544 0.930 . S
C541 C540 1.369 . S
C541 C550 1.429 1_655 S
C542 C540 1.419 . S
C542 C543 1.363 1_655 S
C542 H545 0.929 . S
C543 C542 1.363 1_455 S
C543 C549 1.428 . S
H544 C540 0.930 . S
H545 C542 0.929 . S
S546 N547 1.613 . S
S546 N548 1.610 . S
N547 S546 1.613 . S
N547 C550 1.350 . S
N548 S546 1.610 . S
N548 C549 1.351 . S
C549 C543 1.428 . S
C549 N548 1.351 . S
C549 C550 1.434 . S
C550 C541 1.429 1_455 S
C550 N547 1.350 . S
C550 C549 1.434 . S
C551 C552 1.369 1_545 S
C551 C553 1.419 . S
C551 H555 0.930 . S
C552 C551 1.369 1_565 S
C552 C561 1.429 . S
C553 C551 1.419 . S
C553 C554 1.363 . S
C553 H556 0.929 . S
C554 C553 1.363 . S
C554 C560 1.439 . S
H555 C551 0.930 . S
H556 C553 0.929 . S
S557 N558 1.613 . S
S557 N559 1.610 . S
N558 S557 1.613 . S
N558 C561 1.350 . S
N559 S557 1.610 . S
N559 C560 1.347 1_565 S
C560 C554 1.439 . S
C560 N559 1.347 1_545 S
C560 C561 1.426 1_545 S
C561 C552 1.429 . S
C561 N558 1.350 . S
C561 C560 1.426 1_565 S
C562 C563 1.369 . S
C562 C564 1.419 . S
C562 H566 0.930 . S
C563 C562 1.369 . S
C563 C572 1.429 . S
C564 C562 1.419 . S
C564 C565 1.363 . S
C564 H567 0.929 . S
C565 C564 1.363 . S
C565 C571 1.428 . S
H566 C562 0.930 . S
H567 C564 0.929 . S
S568 N569 1.613 . S
S568 N570 1.610 . S
N569 S568 1.613 . S
N569 C572 1.350 . S
N570 S568 1.610 . S
N570 C571 1.351 . S
C571 C565 1.428 . S
C571 N570 1.351 . S
C571 C572 1.434 . S
C572 C563 1.429 . S
C572 N569 1.350 . S
C572 C571 1.434 . S
C573 C574 1.369 . S
C573 C575 1.419 . S
C573 H577 0.930 . S
C574 C573 1.369 . S
C574 C583 1.429 . S
C575 C573 1.419 . S
C575 C576 1.363 . S
C575 H578 0.929 . S
C576 C575 1.363 . S
C576 C582 1.428 . S
H577 C573 0.930 . S
H578 C575 0.929 . S
S579 N580 1.613 . S
S579 N581 1.610 . S
N580 S579 1.613 . S
N580 C583 1.350 . S
N581 S579 1.610 . S
N581 C582 1.351 . S
C582 C576 1.428 . S
C582 N581 1.351 . S
C582 C583 1.434 . S
C583 C574 1.429 . S
C583 N580 1.350 . S
C583 C582 1.434 . S
C584 C585 1.369 . S
C584 C586 1.419 . S
C584 H588 0.930 . S
C585 C584 1.369 . S
C585 C594 1.429 1_455 S
C586 C584 1.419 . S
C586 C587 1.363 . S
C586 H589 0.929 . S
C587 C586 1.363 . S
C587 C593 1.428 1_455 S
H588 C584 0.930 . S
H589 C586 0.929 . S
S590 N591 1.613 . S
S590 N592 1.610 . S
N591 S590 1.613 . S
N591 C594 1.350 . S
N592 S590 1.610 . S
N592 C593 1.351 . S
C593 C587 1.428 1_655 S
C593 N592 1.351 . S
C593 C594 1.434 . S
C594 C585 1.429 1_655 S
C594 N591 1.350 . S
C594 C593 1.434 . S
C595 C596 1.369 . S
C595 C597 1.419 . S
C595 H599 0.930 1_545 S
C596 C595 1.369 . S
C596 C605 1.429 . S
C597 C595 1.419 . S
C597 C598 1.363 . S
C597 H600 0.929 1_545 S
C598 C597 1.363 . S
C598 C604 1.428 . S
H599 C595 0.930 1_565 S
H600 C597 0.929 1_565 S
S601 N602 1.613 . S
S601 N603 1.610 . S
N602 S601 1.613 . S
N602 C605 1.350 . S
N603 S601 1.610 . S
N603 C604 1.351 . S
C604 C598 1.428 . S
C604 N603 1.351 . S
C604 C605 1.434 . S
C605 C596 1.429 . S
C605 N602 1.350 . S
C605 C604 1.434 . S
C606 C607 1.369 . S
C606 C608 1.419 . S
C606 H610 0.930 . S
C607 C606 1.369 . S
C607 C616 1.429 . S
C608 C606 1.419 . S
C608 C609 1.363 . S
C608 H611 0.929 . S
C609 C608 1.363 . S
C609 C615 1.428 . S
H610 C606 0.930 . S
H611 C608 0.929 . S
S612 N613 1.613 . S
S612 N614 1.610 . S
N613 S612 1.613 . S
N613 C616 1.350 . S
N614 S612 1.610 . S
N614 C615 1.351 . S
C615 C609 1.428 . S
C615 N614 1.351 . S
C615 C616 1.434 . S
C616 C607 1.429 . S
C616 N613 1.350 . S
C616 C615 1.434 . S
C617 C618 1.369 . S
C617 C619 1.419 . S
C617 H621 0.930 . S
C618 C617 1.369 . S
C618 C627 1.429 . S
C619 C617 1.419 . S
C619 C620 1.363 . S
C619 H622 0.929 . S
C620 C619 1.363 . S
C620 C626 1.428 . S
H621 C617 0.930 . S
H622 C619 0.929 . S
S623 N624 1.613 . S
S623 N625 1.610 . S
N624 S623 1.613 . S
N624 C627 1.350 . S
N625 S623 1.610 . S
N625 C626 1.351 . S
C626 C620 1.428 . S
C626 N625 1.351 . S
C626 C627 1.434 . S
C627 C618 1.429 . S
C627 N624 1.350 . S
C627 C626 1.434 . S
C628 C629 1.369 . S
C628 C630 1.419 . S
C628 H632 0.930 . S
C629 C628 1.369 . S
C629 C638 1.429 1_655 S
C630 C628 1.419 . S
C630 C631 1.363 . S
C630 H633 0.929 . S
C631 C630 1.363 . S
C631 C637 1.428 1_655 S
H632 C628 0.930 . S
H633 C630 0.929 . S
S634 N635 1.613 . S
S634 N636 1.610 . S
N635 S634 1.613 . S
N635 C638 1.350 . S
N636 S634 1.610 . S
N636 C637 1.351 . S
C637 C631 1.428 1_455 S
C637 N636 1.351 . S
C637 C638 1.434 . S
C638 C629 1.429 1_455 S
C638 N635 1.350 . S
C638 C637 1.434 . S
C639 C640 1.369 . S
C639 C641 1.419 . S
C639 H643 0.930 . S
C640 C639 1.369 . S
C640 C649 1.429 . S
C641 C639 1.419 . S
C641 C642 1.363 . S
C641 H644 0.929 . S
C642 C641 1.363 . S
C642 C648 1.428 . S
H643 C639 0.930 . S
H644 C641 0.929 . S
S645 N646 1.613 . S
S645 N647 1.610 . S
N646 S645 1.613 . S
N646 C649 1.350 . S
N647 S645 1.610 . S
N647 C648 1.351 . S
C648 C642 1.428 . S
C648 N647 1.351 . S
C648 C649 1.434 . S
C649 C640 1.429 . S
C649 N646 1.350 . S
C649 C648 1.434 . S
C650 C651 1.369 . S
C650 C652 1.419 . S
C650 H654 0.930 . S
C651 C650 1.369 . S
C651 C660 1.429 . S
C652 C650 1.419 . S
C652 C653 1.363 . S
C652 H655 0.929 . S
C653 C652 1.363 . S
C653 C659 1.428 . S
H654 C650 0.930 . S
H655 C652 0.929 . S
S656 N657 1.613 . S
S656 N658 1.610 . S
N657 S656 1.613 . S
N657 C660 1.350 . S
N658 S656 1.610 . S
N658 C659 1.351 . S
C659 C653 1.428 . S
C659 N658 1.351 . S
C659 C660 1.434 . S
C660 C651 1.429 . S
C660 N657 1.350 . S
C660 C659 1.434 . S
C661 C662 1.369 . S
C661 C663 1.419 . S
C661 H665 0.930 . S
C662 C661 1.369 . S
C662 C671 1.429 . S
C663 C661 1.419 . S
C663 C664 1.363 . S
C663 H666 0.929 . S
C664 C663 1.363 . S
C664 C670 1.428 . S
H665 C661 0.930 . S
H666 C663 0.929 . S
S667 N668 1.613 . S
S667 N669 1.610 . S
N668 S667 1.613 . S
N668 C671 1.350 . S
N669 S667 1.610 . S
N669 C670 1.351 . S
C670 C664 1.428 . S
C670 N669 1.351 . S
C670 C671 1.434 . S
C671 C662 1.429 . S
C671 N668 1.350 . S
C671 C670 1.434 . S
C409 C61 2.004 . S
C411 C135 2.209 . S
C422 C212 2.220 . S
C420 C70 2.014 . S
C433 C303 2.209 . S
C431 C43 2.009 . S
C444 C387 2.202 . S
C442 C52 1.991 . S
C455 C146 2.210 1_565 S
C453 C25 2.002 . S
C464 C34 2.011 . S
C466 C223 2.220 . S
C475 C7 2.006 . S
C477 C314 2.212 . S
C486 C16 1.998 . S
C488 C398 2.202 1_655 S
C499 C130 0.767 . S
C497 C50 0.772 . S
C510 C225 0.754 . S
C508 C59 0.740 . S
C521 C298 0.776 . S
C519 C67 0.778 . S
C530 C41 0.744 . S
C532 C382 0.753 . S
C541 C14 0.756 . S
C543 C141 0.768 . S
C554 C214 0.745 . S
C552 C23 0.759 . S
C565 C309 0.777 . S
C563 C31 0.778 . S
C574 C5 0.753 . S
C576 C393 0.759 . S
C585 C49 2.048 . S
C587 C139 2.334 . S
C596 C58 2.065 . S
C598 C230 2.357 . S
C609 C307 2.343 . S
C607 C68 2.063 . S
C620 C391 2.349 . S
C618 C40 2.069 . S
C629 C13 2.058 . S
C631 C128 2.332 . S
C642 C219 2.355 . S
C640 C22 2.054 . S
C653 C296 2.345 . S
C651 C32 2.058 . S
C662 C4 2.062 . S
C664 C380 2.350 . S
