# Generated by pormake.
# Topology eea, (3,6)-cn, num edge types: 1
# Building blocks:
#     Node 0, Type 0, BuildingBlock: QEWDON_clean_linker_0, # of connection points: 3
#     Node 1, Type 0, BuildingBlock: QEWDON_clean_linker_0, # of connection points: 3
#     Node 2, Type 0, BuildingBlock: QEWDON_clean_linker_0, # of connection points: 3
#     Node 3, Type 0, BuildingBlock: QEWDON_clean_linker_0, # of connection points: 3
#     Node 4, Type 0, BuildingBlock: QEWDON_clean_linker_0, # of connection points: 3
#     Node 5, Type 0, BuildingBlock: QEWDON_clean_linker_0, # of connection points: 3
#     Node 6, Type 0, BuildingBlock: QEWDON_clean_linker_0, # of connection points: 3
#     Node 7, Type 0, BuildingBlock: QEWDON_clean_linker_0, # of connection points: 3
#     Node 8, Type 0, BuildingBlock: QEWDON_clean_linker_0, # of connection points: 3
#     Node 9, Type 0, BuildingBlock: QEWDON_clean_linker_0, # of connection points: 3
#     Node 10, Type 0, BuildingBlock: QEWDON_clean_linker_0, # of connection points: 3
#     Node 11, Type 0, BuildingBlock: QEWDON_clean_linker_0, # of connection points: 3
#     Node 12, Type 0, BuildingBlock: QEWDON_clean_linker_0, # of connection points: 3
#     Node 13, Type 0, BuildingBlock: QEWDON_clean_linker_0, # of connection points: 3
#     Node 14, Type 0, BuildingBlock: QEWDON_clean_linker_0, # of connection points: 3
#     Node 15, Type 0, BuildingBlock: QEWDON_clean_linker_0, # of connection points: 3
#     Node 16, Type 0, BuildingBlock: QEWDON_clean_linker_0, # of connection points: 3
#     Node 17, Type 0, BuildingBlock: QEWDON_clean_linker_0, # of connection points: 3
#     Node 18, Type 1, BuildingBlock: KUMBUR_clean_sbu_0, # of connection points: 6
#     Node 19, Type 1, BuildingBlock: KUMBUR_clean_sbu_0, # of connection points: 6
#     Node 20, Type 1, BuildingBlock: KUMBUR_clean_sbu_0, # of connection points: 6
#     Node 21, Type 1, BuildingBlock: KUMBUR_clean_sbu_0, # of connection points: 6
#     Node 22, Type 1, BuildingBlock: KUMBUR_clean_sbu_0, # of connection points: 6
#     Node 23, Type 1, BuildingBlock: KUMBUR_clean_sbu_0, # of connection points: 6
#     Node 24, Type 1, BuildingBlock: KUMBUR_clean_sbu_0, # of connection points: 6
#     Node 25, Type 1, BuildingBlock: KUMBUR_clean_sbu_0, # of connection points: 6
#     Node 26, Type 1, BuildingBlock: KUMBUR_clean_sbu_0, # of connection points: 6
#     Edge 27, Type (0, 1), BuildingBlock: CIFDUS_clean_linker_0, # of connection points: 2
#     Edge 28, Type (0, 1), BuildingBlock: CIFDUS_clean_linker_0, # of connection points: 2
#     Edge 29, Type (0, 1), BuildingBlock: CIFDUS_clean_linker_0, # of connection points: 2
#     Edge 30, Type (0, 1), BuildingBlock: CIFDUS_clean_linker_0, # of connection points: 2
#     Edge 31, Type (0, 1), BuildingBlock: CIFDUS_clean_linker_0, # of connection points: 2
#     Edge 32, Type (0, 1), BuildingBlock: CIFDUS_clean_linker_0, # of connection points: 2
#     Edge 33, Type (0, 1), BuildingBlock: CIFDUS_clean_linker_0, # of connection points: 2
#     Edge 34, Type (0, 1), BuildingBlock: CIFDUS_clean_linker_0, # of connection points: 2
#     Edge 35, Type (0, 1), BuildingBlock: CIFDUS_clean_linker_0, # of connection points: 2
#     Edge 36, Type (0, 1), BuildingBlock: CIFDUS_clean_linker_0, # of connection points: 2
#     Edge 37, Type (0, 1), BuildingBlock: CIFDUS_clean_linker_0, # of connection points: 2
#     Edge 38, Type (0, 1), BuildingBlock: CIFDUS_clean_linker_0, # of connection points: 2
#     Edge 39, Type (0, 1), BuildingBlock: CIFDUS_clean_linker_0, # of connection points: 2
#     Edge 40, Type (0, 1), BuildingBlock: CIFDUS_clean_linker_0, # of connection points: 2
#     Edge 41, Type (0, 1), BuildingBlock: CIFDUS_clean_linker_0, # of connection points: 2
#     Edge 42, Type (0, 1), BuildingBlock: CIFDUS_clean_linker_0, # of connection points: 2
#     Edge 43, Type (0, 1), BuildingBlock: CIFDUS_clean_linker_0, # of connection points: 2
#     Edge 44, Type (0, 1), BuildingBlock: CIFDUS_clean_linker_0, # of connection points: 2
#     Edge 45, Type (0, 1), BuildingBlock: CIFDUS_clean_linker_0, # of connection points: 2
#     Edge 46, Type (0, 1), BuildingBlock: CIFDUS_clean_linker_0, # of connection points: 2
#     Edge 47, Type (0, 1), BuildingBlock: CIFDUS_clean_linker_0, # of connection points: 2
#     Edge 48, Type (0, 1), BuildingBlock: CIFDUS_clean_linker_0, # of connection points: 2
#     Edge 49, Type (0, 1), BuildingBlock: CIFDUS_clean_linker_0, # of connection points: 2
#     Edge 50, Type (0, 1), BuildingBlock: CIFDUS_clean_linker_0, # of connection points: 2
#     Edge 51, Type (0, 1), BuildingBlock: CIFDUS_clean_linker_0, # of connection points: 2
#     Edge 52, Type (0, 1), BuildingBlock: CIFDUS_clean_linker_0, # of connection points: 2
#     Edge 53, Type (0, 1), BuildingBlock: CIFDUS_clean_linker_0, # of connection points: 2
#     Edge 54, Type (0, 1), BuildingBlock: CIFDUS_clean_linker_0, # of connection points: 2
#     Edge 55, Type (0, 1), BuildingBlock: CIFDUS_clean_linker_0, # of connection points: 2
#     Edge 56, Type (0, 1), BuildingBlock: CIFDUS_clean_linker_0, # of connection points: 2
#     Edge 57, Type (0, 1), BuildingBlock: CIFDUS_clean_linker_0, # of connection points: 2
#     Edge 58, Type (0, 1), BuildingBlock: CIFDUS_clean_linker_0, # of connection points: 2
#     Edge 59, Type (0, 1), BuildingBlock: CIFDUS_clean_linker_0, # of connection points: 2
#     Edge 60, Type (0, 1), BuildingBlock: CIFDUS_clean_linker_0, # of connection points: 2
#     Edge 61, Type (0, 1), BuildingBlock: CIFDUS_clean_linker_0, # of connection points: 2
#     Edge 62, Type (0, 1), BuildingBlock: CIFDUS_clean_linker_0, # of connection points: 2
#     Edge 63, Type (0, 1), BuildingBlock: CIFDUS_clean_linker_0, # of connection points: 2
#     Edge 64, Type (0, 1), BuildingBlock: CIFDUS_clean_linker_0, # of connection points: 2
#     Edge 65, Type (0, 1), BuildingBlock: CIFDUS_clean_linker_0, # of connection points: 2
#     Edge 66, Type (0, 1), BuildingBlock: CIFDUS_clean_linker_0, # of connection points: 2
#     Edge 67, Type (0, 1), BuildingBlock: CIFDUS_clean_linker_0, # of connection points: 2
#     Edge 68, Type (0, 1), BuildingBlock: CIFDUS_clean_linker_0, # of connection points: 2
#     Edge 69, Type (0, 1), BuildingBlock: CIFDUS_clean_linker_0, # of connection points: 2
#     Edge 70, Type (0, 1), BuildingBlock: CIFDUS_clean_linker_0, # of connection points: 2
#     Edge 71, Type (0, 1), BuildingBlock: CIFDUS_clean_linker_0, # of connection points: 2
#     Edge 72, Type (0, 1), BuildingBlock: CIFDUS_clean_linker_0, # of connection points: 2
#     Edge 73, Type (0, 1), BuildingBlock: CIFDUS_clean_linker_0, # of connection points: 2
#     Edge 74, Type (0, 1), BuildingBlock: CIFDUS_clean_linker_0, # of connection points: 2
#     Edge 75, Type (0, 1), BuildingBlock: CIFDUS_clean_linker_0, # of connection points: 2
#     Edge 76, Type (0, 1), BuildingBlock: CIFDUS_clean_linker_0, # of connection points: 2
#     Edge 77, Type (0, 1), BuildingBlock: CIFDUS_clean_linker_0, # of connection points: 2
#     Edge 78, Type (0, 1), BuildingBlock: CIFDUS_clean_linker_0, # of connection points: 2
#     Edge 79, Type (0, 1), BuildingBlock: CIFDUS_clean_linker_0, # of connection points: 2
#     Edge 80, Type (0, 1), BuildingBlock: CIFDUS_clean_linker_0, # of connection points: 2
# Relax obj value: 0.045
# Max RMSD: 0.215
# Mean RMSD: 0.154
data_MOF--net-eea--node1-KUMBUR_clean_sbu_0--node2-QEWDON_clean_linker_0--edge1-CIFDUS_clean_linker_0
_symmetry_space_group_name_H-M    P1
_symmetry_Int_Tables_number       1
_symmetry_cell_setting            triclinic
loop_
_symmetry_equiv_pos_as_xyz
'x, y, z'
_cell_length_a     50.191244
_cell_length_b     51.766788
_cell_length_c     57.346809
_cell_angle_alpha  89.846072
_cell_angle_beta   90.025656
_cell_angle_gamma 119.82667
loop_
_atom_site_label
_atom_site_type_symbol
_atom_site_fract_x
_atom_site_fract_y
_atom_site_fract_z
_atom_type_partial_charge
H0 H 0.24244 0.13482 0.42985 0.0
C1 C 0.23986 0.11497 0.42147 0.0
C2 C 0.25712 0.10201 0.42932 0.0
C3 C 0.21878 0.10204 0.40315 0.0
H4 H 0.26411 0.06444 0.42615 0.0
C5 C 0.2525 0.0755 0.41891 0.0
C6 C 0.23215 0.06265 0.40007 0.0
C7 C 0.21621 0.07682 0.39194 0.0
C8 C 0.19788 0.1134 0.39644 0.0
H9 H 0.20132 0.0681 0.37691 0.0
C10 C 0.20845 0.14415 0.3945 0.0
C11 C 0.1883 0.1541 0.3873 0.0
C12 C 0.16675 0.09301 0.39183 0.0
H13 H 0.15773 0.06927 0.39373 0.0
C14 C 0.14679 0.10297 0.38489 0.0
H15 H 0.23234 0.16022 0.39783 0.0
C16 C 0.15751 0.13333 0.38246 0.0
H17 H 0.14171 0.14069 0.37692 0.0
H18 H 0.12294 0.08709 0.38133 0.0
H19 H 0.90655 0.10666 0.43202 0.0
C20 C 0.92634 0.12412 0.42303 0.0
C21 C 0.93796 0.15392 0.42986 0.0
C22 C 0.94064 0.11664 0.4053 0.0
H23 H 0.97366 0.19941 0.42413 0.0
C24 C 0.964 0.17652 0.41847 0.0
C25 C 0.97899 0.1696 0.40095 0.0
C26 C 0.96704 0.13968 0.39436 0.0
C27 C 0.92955 0.0847 0.39954 0.0
H28 H 0.97853 0.13442 0.38075 0.0
C29 C 0.89785 0.06317 0.39915 0.0
C30 C 0.88822 0.03296 0.39485 0.0
C31 C 0.95107 0.07531 0.39533 0.0
H32 H 0.9755 0.09089 0.39603 0.0
C33 C 0.94144 0.04547 0.39085 0.0
H34 H 0.88076 0.06974 0.40226 0.0
C35 C 0.91026 0.02441 0.39069 0.0
H36 H 0.90328 1.0013 0.38736 0.0
H37 H 0.95827 0.03859 0.38774 0.0
H38 H 0.92946 0.79898 0.43896 0.0
C39 C 0.90961 0.79776 0.43036 0.0
C40 C 0.88079 0.78243 0.44125 0.0
C41 C 0.91339 0.81371 0.40954 0.0
H42 H 0.83314 0.7699 0.43916 0.0
C43 C 0.85532 0.78174 0.43058 0.0
C44 C 0.85807 0.79657 0.4094 0.0
C45 C 0.88741 0.81303 0.39915 0.0
C46 C 0.94504 0.83446 0.40083 0.0
H47 H 0.89007 0.82532 0.38317 0.0
C48 C 0.96753 0.82564 0.39838 0.0
C49 C 0.99856 0.84678 0.39286 0.0
C50 C 0.95357 0.86437 0.39713 0.0
H51 H 0.93701 0.87184 0.39915 0.0
C52 C 0.98387 0.88534 0.39214 0.0
H53 H 0.96052 0.80239 0.40071 0.0
C54 C 1.00617 0.87689 0.39049 0.0
H55 H 0.02953 0.89451 0.38781 0.0
H56 H 0.99032 0.90853 0.3901 0.0
H57 H 0.13762 0.21301 0.60344 0.0
C58 C 0.12001 0.21645 0.61128 0.0
C59 C 0.10779 0.23151 0.59842 0.0
C60 C 0.10826 0.20443 0.63359 0.0
H61 H 0.07426 0.24602 0.59834 0.0
C62 C 0.08389 0.23474 0.60823 0.0
C63 C 0.07203 0.22348 0.63047 0.0
C64 C 0.08475 0.20892 0.64309 0.0
C65 C 0.11819 0.18516 0.6465 0.0
H66 H 0.07616 0.20113 0.66052 0.0
C67 C 0.14849 0.18932 0.64537 0.0
C68 C 0.15619 0.17022 0.65802 0.0
C69 C 0.09616 0.16136 0.6601 0.0
H70 H 0.07244 0.15613 0.66066 0.0
C71 C 0.10397 0.14348 0.67314 0.0
H72 H 0.16578 0.20695 0.63468 0.0
C73 C 0.13362 0.14801 0.67235 0.0
H74 H 0.13879 0.13371 0.68296 0.0
H75 H 0.08678 0.12573 0.68382 0.0
H76 H 0.81163 0.92628 0.61027 0.0
C77 C 0.81131 0.90745 0.61889 0.0
C78 C 0.78969 0.87832 0.6122 0.0
C79 C 0.83386 0.91255 0.63548 0.0
H80 H 0.77277 0.83166 0.61827 0.0
C81 C 0.79006 0.85406 0.62304 0.0
C82 C 0.81228 0.85864 0.64008 0.0
C83 C 0.83429 0.88814 0.64588 0.0
C84 C 0.85841 0.94336 0.64077 0.0
H85 H 0.85231 0.89234 0.65825 0.0
C86 C 0.85141 0.96569 0.64701 0.0
C87 C 0.87512 0.99445 0.65289 0.0
C88 C 0.88928 0.95042 0.63969 0.0
H89 H 0.89525 0.93378 0.63463 0.0
C90 C 0.91277 0.97906 0.6449 0.0
H91 H 0.82766 0.96039 0.64821 0.0
C92 C 0.9058 1.00089 0.65157 0.0
H93 H 0.92447 0.0229 0.65579 0.0
H94 H 0.93648 0.9843 0.64395 0.0
H95 H 0.10595 0.88717 0.59906 0.0
C96 C 0.12353 0.90757 0.60697 0.0
C97 C 0.15392 0.92125 0.59864 0.0
C98 C 0.11512 0.92084 0.62458 0.0
H99 H 0.19984 0.95778 0.60348 0.0
C100 C 0.17637 0.94756 0.60951 0.0
C101 C 0.16863 0.96122 0.62751 0.0
C102 C 0.13762 0.9477 0.63457 0.0
C103 C 0.08215 0.90875 0.63027 0.0
H104 H 0.13054 0.95833 0.64746 0.0
C105 C 0.06305 0.87872 0.63696 0.0
C106 C 0.03119 0.86716 0.64072 0.0
C107 C 0.06935 0.92726 0.62759 0.0
H108 H 0.08348 0.95028 0.62225 0.0
C109 C 0.03803 0.91602 0.63081 0.0
H110 H 0.07323 0.86475 0.63948 0.0
C111 C 0.01907 0.88628 0.637 0.0
H112 H 0.99471 0.87833 0.63845 0.0
H113 H 0.02827 0.93032 0.62814 0.0
H114 H 0.89947 0.46263 0.77291 0.0
C115 C 0.89684 0.44402 0.76256 0.0
C116 C 0.91451 0.43051 0.76773 0.0
C117 C 0.8748 0.43283 0.74469 0.0
H118 H 0.92168 0.39387 0.75985 0.0
C119 C 0.90978 0.40558 0.7547 0.0
C120 C 0.88881 0.3947 0.73605 0.0
C121 C 0.8717 0.40888 0.73107 0.0
C122 C 0.8525 0.44363 0.74197 0.0
H123 H 0.85542 0.4011 0.71682 0.0
C124 C 0.86192 0.47429 0.74162 0.0
C125 C 0.8399 0.48361 0.74053 0.0
C126 C 0.82095 0.42266 0.74092 0.0
H127 H 0.813 0.399 0.74149 0.0
C128 C 0.79922 0.43189 0.73979 0.0
H129 H 0.88614 0.49074 0.74233 0.0
C130 C 0.80856 0.46212 0.7397 0.0
H131 H 0.79125 0.46877 0.73866 0.0
H132 H 0.77501 0.41552 0.73911 0.0
H133 H 0.56445 0.44014 0.76353 0.0
C134 C 0.58348 0.4596 0.75559 0.0
C135 C 0.5919 0.48802 0.76415 0.0
C136 C 0.59979 0.45606 0.73715 0.0
H137 H 0.62371 0.53493 0.76088 0.0
C138 C 0.61668 0.51306 0.75383 0.0
C139 C 0.63324 0.51012 0.7352 0.0
C140 C 0.62477 0.48141 0.7271 0.0
C141 C 0.59144 0.42569 0.72921 0.0
H142 H 0.63724 0.47876 0.71274 0.0
C143 C 0.56061 0.40427 0.72457 0.0
C144 C 0.55269 0.375 0.71854 0.0
C145 C 0.61421 0.41756 0.7273 0.0
H146 H 0.63803 0.43353 0.73094 0.0
C147 C 0.60632 0.38847 0.72137 0.0
H148 H 0.54282 0.41029 0.72571 0.0
C149 C 0.57571 0.36722 0.71715 0.0
H150 H 0.57002 0.34478 0.71247 0.0
H151 H 0.62398 0.38233 0.72014 0.0
H152 H 0.58838 0.12573 0.75851 0.0
C153 C 0.56896 0.12599 0.75047 0.0
C154 C 0.53976 0.10942 0.76062 0.0
C155 C 0.57361 0.14464 0.73118 0.0
H156 H 0.49229 0.09764 0.75878 0.0
C157 C 0.51474 0.11048 0.75077 0.0
C158 C 0.51831 0.12796 0.73092 0.0
C159 C 0.54802 0.14542 0.72145 0.0
C160 C 0.60563 0.16601 0.72338 0.0
H161 H 0.55125 0.15952 0.70649 0.0
C162 C 0.62828 0.15743 0.72052 0.0
C163 C 0.65946 0.17893 0.71576 0.0
C164 C 0.61428 0.19614 0.72089 0.0
H165 H 0.59769 0.20351 0.72329 0.0
C166 C 0.6447 0.21742 0.7166 0.0
H167 H 0.62136 0.13408 0.72191 0.0
C168 C 0.66706 0.20911 0.7145 0.0
H169 H 0.6905 0.22686 0.71236 0.0
H170 H 0.65117 0.24069 0.71545 0.0
H171 H 0.79891 0.54473 0.93352 0.0
C172 C 0.77928 0.5432 0.94266 0.0
C173 C 0.76442 0.55813 0.93377 0.0
C174 C 0.76731 0.52411 0.96204 0.0
H175 H 0.72634 0.56587 0.93825 0.0
C176 C 0.73795 0.55462 0.94518 0.0
C177 C 0.72571 0.53602 0.96489 0.0
C178 C 0.74064 0.5208 0.9731 0.0
C179 C 0.77941 0.50384 0.96814 0.0
H180 H 0.73128 0.50591 0.98793 0.0
C181 C 0.81095 0.51432 0.97265 0.0
C182 C 0.82176 0.494 0.9768 0.0
C183 C 0.75888 0.47306 0.9679 0.0
H184 H 0.73473 0.46442 0.96423 0.0
C185 C 0.76933 0.45302 0.97133 0.0
H186 H 0.82666 0.53809 0.97321 0.0
C187 C 0.80034 0.46325 0.9754 0.0
H188 H 0.80738 0.44669 0.97707 0.0
H189 H 0.75334 0.42933 0.97047 0.0
H190 H 0.46901 0.24392 0.93161 0.0
C191 C 0.46678 0.22401 0.93971 0.0
C192 C 0.45198 0.19692 0.92749 0.0
C193 C 0.47996 0.2257 0.96174 0.0
H194 H 0.43989 0.15082 0.92758 0.0
C195 C 0.45058 0.1714 0.93738 0.0
C196 C 0.46287 0.17221 0.95958 0.0
C197 C 0.47693 0.19939 0.97174 0.0
C198 C 0.49849 0.25494 0.97385 0.0
H199 H 0.48557 0.20011 0.98916 0.0
C200 C 0.49072 0.27776 0.97278 0.0
C201 C 0.50852 0.30478 0.98481 0.0
C202 C 0.52483 0.26028 0.98651 0.0
H203 H 0.53229 0.24393 0.98709 0.0
C204 C 0.54231 0.28696 0.99837 0.0
H205 H 0.47065 0.27439 0.96319 0.0
C206 C 0.53414 0.30899 0.99768 0.0
H207 H 0.54815 0.32962 1.00697 0.0
H208 H 0.5624 0.29063 0.00808 0.0
H209 H 0.77433 0.21247 0.94024 0.0
C210 C 0.79147 0.23164 0.94972 0.0
C211 C 0.82201 0.24727 0.94144 0.0
C212 C 0.78313 0.24106 0.97016 0.0
H213 H 0.8664 0.28636 0.94588 0.0
C214 C 0.84363 0.27313 0.95323 0.0
C215 C 0.83606 0.28251 0.97389 0.0
C216 C 0.80607 0.26555 0.98255 0.0
C217 C 0.75053 0.22734 0.9783 0.0
H218 H 0.8003 0.27176 0.99901 0.0
C219 C 0.72966 0.19626 0.97768 0.0
C220 C 0.69958 0.18444 0.98692 0.0
C221 C 0.74038 0.24622 0.98743 0.0
H222 H 0.75511 0.27018 0.98734 0.0
C223 C 0.71131 0.23467 0.99708 0.0
H224 H 0.73681 0.1815 0.9702 0.0
C225 C 0.69132 0.20416 0.99724 0.0
H226 H 0.6692 0.19608 1.00555 0.0
H227 H 0.70425 0.2495 1.00459 0.0
H228 H 0.57399 0.7963 0.1035 0.0
C229 C 0.57187 0.77599 0.09636 0.0
C230 C 0.59224 0.76636 0.10364 0.0
C231 C 0.54803 0.75893 0.08062 0.0
H232 H 0.60439 0.7321 0.10042 0.0
C233 C 0.58884 0.73965 0.09469 0.0
C234 C 0.56498 0.72192 0.07925 0.0
C235 C 0.54489 0.73198 0.07205 0.0
C236 C 0.5248 0.76784 0.07471 0.0
H237 H 0.5262 0.71841 0.06031 0.0
C238 C 0.53341 0.79769 0.06932 0.0
C239 C 0.51091 0.80541 0.06357 0.0
C240 C 0.49345 0.74618 0.07488 0.0
H241 H 0.48604 0.72328 0.07947 0.0
C242 C 0.47119 0.75385 0.06959 0.0
H243 H 0.55748 0.81462 0.06889 0.0
C244 C 0.47977 0.78315 0.06393 0.0
H245 H 0.46195 0.78848 0.05993 0.0
H246 H 0.44713 0.73699 0.0699 0.0
H247 H 0.2286 0.76557 0.09666 0.0
C248 C 0.2464 0.78595 0.08886 0.0
C249 C 0.25556 0.81304 0.10032 0.0
C250 C 0.26054 0.7849 0.06799 0.0
H251 H 0.28766 0.86008 0.10042 0.0
C252 C 0.28013 0.83935 0.09122 0.0
C253 C 0.29491 0.83911 0.07041 0.0
C254 C 0.28447 0.81182 0.05874 0.0
C255 C 0.25088 0.75569 0.05626 0.0
H256 H 0.29483 0.8117 0.04222 0.0
C257 C 0.22029 0.73169 0.05774 0.0
C258 C 0.21189 0.70421 0.04712 0.0
C259 C 0.27259 0.75128 0.04391 0.0
H260 H 0.29644 0.76855 0.04293 0.0
C261 C 0.26403 0.72418 0.03304 0.0
H262 H 0.20286 0.73423 0.06686 0.0
C263 C 0.23387 0.70078 0.03459 0.0
H264 H 0.22777 0.67977 0.02628 0.0
H265 H 0.28097 0.72118 0.02361 0.0
H266 H 0.25756 0.45308 0.10168 0.0
C267 C 0.23742 0.45317 0.0951 0.0
C268 C 0.20972 0.43869 0.10799 0.0
C269 C 0.23913 0.46775 0.07378 0.0
H270 H 0.16314 0.43055 0.1098 0.0
C271 C 0.18401 0.43994 0.09954 0.0
C272 C 0.18472 0.45335 0.07808 0.0
C273 C 0.21213 0.46674 0.06525 0.0
C274 C 0.26879 0.48472 0.06041 0.0
H275 H 0.21207 0.47595 0.04829 0.0
C276 C 0.29227 0.47693 0.06075 0.0
C277 C 0.31955 0.49329 0.04743 0.0
C278 C 0.27373 0.50957 0.04696 0.0
H279 H 0.2575 0.51757 0.04702 0.0
C280 C 0.29974 0.52481 0.03313 0.0
H281 H 0.2895 0.45842 0.07132 0.0
C282 C 0.32214 0.51653 0.03304 0.0
H283 H 0.34172 0.52867 0.02164 0.0
H284 H 0.30263 0.54332 0.02246 0.0
H285 H 0.47177 0.8825 0.26612 0.0
C286 C 0.45375 0.88447 0.27491 0.0
C287 C 0.44144 0.90086 0.26443 0.0
C288 C 0.44138 0.86866 0.29577 0.0
H289 H 0.40781 0.91494 0.26784 0.0
C290 C 0.41724 0.90217 0.27571 0.0
C291 C 0.40465 0.88684 0.29678 0.0
C292 C 0.41666 0.86977 0.30653 0.0
C293 C 0.45164 0.84792 0.30449 0.0
H294 H 0.4069 0.85741 0.3225 0.0
C295 C 0.48302 0.85734 0.3085 0.0
C296 C 0.49249 0.83654 0.31472 0.0
C297 C 0.42972 0.81774 0.30711 0.0
H298 H 0.40561 0.80993 0.30394 0.0
C299 C 0.43874 0.79707 0.31271 0.0
H300 H 0.49967 0.88079 0.30696 0.0
C301 C 0.46966 0.80617 0.31609 0.0
H302 H 0.47543 0.78897 0.31939 0.0
H303 H 0.42168 0.77369 0.31401 0.0
H304 H 0.157 0.59335 0.26166 0.0
C305 C 0.15755 0.57542 0.27105 0.0
C306 C 0.14076 0.54608 0.26265 0.0
C307 C 0.17579 0.58198 0.29108 0.0
H308 H 0.1301 0.50062 0.26797 0.0
C309 C 0.14213 0.52307 0.27483 0.0
C310 C 0.16036 0.5293 0.29504 0.0
C311 C 0.17659 0.55878 0.30314 0.0
C312 C 0.19586 0.61328 0.29855 0.0
H313 H 0.19018 0.56386 0.31891 0.0
C314 C 0.18468 0.6334 0.29989 0.0
C315 C 0.20431 0.66301 0.30669 0.0
C316 C 0.22682 0.6233 0.30404 0.0
H317 H 0.23613 0.60843 0.30286 0.0
C318 C 0.24625 0.65274 0.31071 0.0
H319 H 0.16085 0.62603 0.2959 0.0
C320 C 0.23509 0.67254 0.31203 0.0
H321 H 0.25044 0.69532 0.31734 0.0
H322 H 0.27003 0.66023 0.31484 0.0
H323 H 0.4547 0.53967 0.27896 0.0
C324 C 0.47093 0.56192 0.28487 0.0
C325 C 0.49413 0.58191 0.26967 0.0
C326 C 0.47029 0.56952 0.30837 0.0
H327 H 0.53258 0.62627 0.26605 0.0
C328 C 0.51561 0.61031 0.27798 0.0
C329 C 0.51658 0.618 0.30157 0.0
C330 C 0.49339 0.59757 0.31658 0.0
C331 C 0.44836 0.54661 0.32507 0.0
H332 H 0.49395 0.60292 0.33488 0.0
C333 C 0.41656 0.52911 0.32021 0.0
C334 C 0.39685 0.50646 0.33587 0.0
C335 C 0.45984 0.54123 0.34579 0.0
H336 H 0.4841 0.55391 0.34986 0.0
C337 C 0.44039 0.51889 0.3612 0.0
H338 H 0.40727 0.53296 0.30437 0.0
C339 C 0.40918 0.50154 0.35626 0.0
H340 H 0.39451 0.48439 0.36856 0.0
H341 H 0.44959 0.51491 0.37701 0.0
Tb342 Tb 0.49025 0.98739 0.98431 0.0
C343 C 0.55978 0.0774 0.05872 0.0
C344 C 0.61208 0.08825 0.05321 0.0
C345 C 0.60204 0.12701 0.06689 0.0
C346 C 0.58019 0.06847 0.05171 0.0
C347 C 0.57038 0.10649 0.067 0.0
C348 C 0.62289 0.11787 0.06003 0.0
C349 C 0.51803 0.09167 0.07742 0.0
N350 N 0.52952 0.0567 0.05902 0.0
C351 C 0.50872 0.06297 0.06924 0.0
C352 C 0.54894 0.11367 0.07598 0.0
Tb353 Tb 0.51623 0.01093 0.0438 0.0
N354 N 0.56874 0.03958 0.04554 0.0
C355 C 0.58813 0.02847 0.04224 0.0
C356 C 0.63204 0.07726 0.04892 0.0
C357 C 0.61998 0.04709 0.04393 0.0
H358 H 0.48474 0.04609 0.07016 0.0
H359 H 0.6352 0.03824 0.04099 0.0
H360 H 0.64731 0.13356 0.0609 0.0
H361 H 0.50137 0.09679 0.08483 0.0
H362 H 0.57933 0.00535 0.03803 0.0
H363 H 0.36814 0.94741 0.98865 0.0
H364 H 0.6567 0.09166 0.05002 0.0
H365 H 0.52884 0.96092 0.95577 0.0
H366 H 0.4229 0.98448 0.99219 0.0
H367 H 0.51782 0.91442 0.93589 0.0
H368 H 0.61068 0.14962 0.0729 0.0
H369 H 0.35222 0.89677 0.97426 0.0
H370 H 0.36746 0.86121 0.95722 0.0
H371 H 0.55613 0.13581 0.08248 0.0
H372 H 0.40829 0.85231 0.94246 0.0
N373 N 0.43846 0.95501 0.98081 0.0
C374 C 0.41656 0.96256 0.98589 0.0
C375 C 0.37642 0.91296 0.97588 0.0
C376 C 0.39889 0.90599 0.96917 0.0
C377 C 0.38532 0.94154 0.98392 0.0
C378 C 0.43004 0.92783 0.97178 0.0
H379 H 0.46447 0.87232 0.93393 0.0
N380 N 0.48229 0.94511 0.96552 0.0
C381 C 0.49932 0.9164 0.94375 0.0
C382 C 0.4528 0.92274 0.96367 0.0
C383 C 0.50547 0.94275 0.95501 0.0
C384 C 0.46919 0.89266 0.94272 0.0
C385 C 0.44539 0.8958 0.95246 0.0
O386 O 0.5143 0.00701 0.95325 0.0
O387 O 0.52607 0.01708 1.00728 0.0
O388 O 0.51208 0.04628 0.02612 0.0
O389 O 0.47665 0.01957 0.99698 0.0
O390 O 0.53999 0.0062 0.97821 0.0
O391 O 0.47164 0.00555 0.96075 0.0
O392 O 0.49486 0.99955 0.07682 0.0
O393 O 0.48007 0.98044 0.02118 0.0
O394 O 0.49472 0.95156 1.00022 0.0
O395 O 0.52481 0.97423 0.0333 0.0
O396 O 0.46706 0.99409 0.04994 0.0
O397 O 0.53125 0.99062 0.0683 0.0
C398 C 0.55015 0.02279 0.99637 0.0
C399 C 0.48388 1.00392 0.92104 0.0
C400 C 0.48864 0.017 0.87963 0.0
C401 C 0.49601 0.02544 0.90315 0.0
C402 C 0.46897 0.98685 0.87428 0.0
C403 C 0.46376 0.97408 0.91527 0.0
C404 C 0.45648 0.96561 0.89203 0.0
C405 C 0.49176 0.04362 0.01017 0.0
C406 C 0.49338 0.01262 0.94543 0.0
C407 C 0.41449 0.87334 0.95077 0.0
C408 C 0.39125 0.8784 0.95918 0.0
C409 C 0.45671 0.97667 0.03223 0.0
C410 C 0.52699 1.00146 0.1077 0.0
C411 C 0.51473 0.98367 0.12782 0.0
C412 C 0.52854 0.99419 0.14983 0.0
C413 C 0.55435 0.02291 0.15134 0.0
C414 C 0.55291 0.02984 0.10977 0.0
C415 C 0.56637 0.04052 0.13146 0.0
C416 C 0.51159 0.95183 0.01813 0.0
C417 C 0.51295 0.99019 0.08463 0.0
H418 H 0.51146 0.04858 0.90749 0.0
H419 H 0.46273 0.97981 0.85637 0.0
H420 H 0.45372 0.95731 0.92865 0.0
H421 H 0.44104 0.94249 0.88777 0.0
H422 H 0.49492 0.96157 0.12625 0.0
H423 H 0.56516 0.03192 0.16799 0.0
H424 H 0.5629 0.04372 0.09466 0.0
H425 H 0.58628 0.06255 0.13285 0.0
Tb426 Tb 0.03086 0.49707 0.99213 0.0
C427 C 0.9355 0.46161 0.06989 0.0
C428 C 0.91808 0.49732 0.06565 0.0
C429 C 0.88363 0.44816 0.08156 0.0
C430 C 0.94105 0.48939 0.06313 0.0
C431 C 0.907 0.44084 0.07969 0.0
C432 C 0.88915 0.47636 0.07452 0.0
C433 C 0.9278 0.40833 0.08688 0.0
N434 N 0.95867 0.45549 0.06785 0.0
C435 C 0.95572 0.42979 0.07717 0.0
C436 C 0.90318 0.41371 0.08788 0.0
Tb437 Tb 1.00341 0.49171 0.05145 0.0
N438 N 0.96926 0.5089 0.05459 0.0
C439 C 0.97653 0.53753 0.04949 0.0
C440 C 0.925 0.52613 0.05944 0.0
C441 C 0.95446 0.54641 0.05156 0.0
H442 H 0.97467 0.42548 0.07642 0.0
H443 H 0.96019 0.56888 0.04696 0.0
H444 H 0.87111 0.48192 0.07638 0.0
H445 H 0.92533 0.38771 0.09364 0.0
H446 H 0.999 0.55356 0.04317 0.0
H447 H 0.08811 0.43179 0.99428 0.0
H448 H 0.90796 0.53306 0.06098 0.0
H449 H 0.04947 0.55828 0.96189 0.0
H450 H 0.0441 0.44008 0.99717 0.0
H451 H 0.09597 0.59971 0.94407 0.0
H452 H 0.86145 0.43242 0.08885 0.0
H453 H 0.13935 0.4733 0.98337 0.0
H454 H 0.17139 0.52624 0.96942 0.0
H455 H 0.88162 0.39713 0.09552 0.0
H456 H 0.1736 0.57237 0.95559 0.0
N457 N 0.07005 0.48637 0.98896 0.0
C458 C 0.06618 0.45852 0.99237 0.0
C459 C 0.12007 0.47715 0.98471 0.0
C460 C 0.12339 0.50498 0.97938 0.0
C461 C 0.09117 0.45365 0.99076 0.0
C462 C 0.09756 0.50878 0.98152 0.0
H463 H 0.14529 0.59976 0.94552 0.0
N464 N 0.07256 0.53585 0.97431 0.0
C465 C 0.09718 0.58163 0.95256 0.0
C466 C 0.09887 0.53455 0.97382 0.0
C467 C 0.07087 0.5581 0.96265 0.0
C468 C 0.12501 0.58165 0.95351 0.0
C469 C 0.12592 0.5575 0.96368 0.0
O470 O 1.0088 0.49826 0.96123 0.0
O471 O 0.99549 0.49446 0.01494 0.0
O472 O 0.97149 0.45015 0.03368 0.0
O473 O 1.00257 0.45023 1.00334 0.0
O474 O 1.00482 0.52058 0.9864 0.0
O475 O 0.01953 0.46348 0.96707 0.0
O476 O 0.02005 0.48378 0.08283 0.0
O477 O 0.03929 0.49422 0.02897 0.0
O478 O 0.06163 0.54005 1.00757 0.0
O479 O 0.03675 0.53882 0.04258 0.0
O480 O 0.02467 0.46417 0.05592 0.0
O481 O 0.01896 0.52445 0.07762 0.0
C482 C 0.98695 0.51041 1.0042 0.0
C483 C 0.02137 0.47994 0.9282 0.0
C484 C 1.01254 0.47979 0.88618 0.0
C485 C 1.00129 0.47371 0.90928 0.0
C486 C 0.04442 0.49253 0.88256 0.0
C487 C 0.05281 0.49166 0.924 0.0
C488 C 0.06425 0.4981 0.90132 0.0
C489 C 0.97772 0.43663 0.01668 0.0
C490 C 1.00937 0.47558 0.95219 0.0
C491 C 0.15242 0.55482 0.96302 0.0
C492 C 0.15116 0.52856 0.97089 0.0
C493 C 0.04431 0.47536 0.03925 0.0
C494 C 1.01279 0.50579 0.11627 0.0
C495 C 0.03113 0.50691 0.13523 0.0
C496 C 0.02014 0.50368 0.1583 0.0
C497 C 0.99042 0.49922 0.16202 0.0
C498 C 0.98339 0.50165 0.12047 0.0
C499 C 0.97228 0.49827 0.14322 0.0
C500 C 0.05815 0.55285 0.02634 0.0
C501 C 0.0245 0.5084 0.0923 0.0
H502 H 0.97692 0.46393 0.91268 0.0
H503 H 0.05422 0.49845 0.86524 0.0
H504 H 0.06856 0.49602 0.93819 0.0
H505 H 0.08864 0.50762 0.89827 0.0
H506 H 0.05382 0.50998 0.132 0.0
H507 H 0.98142 0.49705 0.17951 0.0
H508 H 0.96906 0.50114 0.10625 0.0
H509 H 0.94956 0.49509 0.1463 0.0
Tb510 Tb 0.53757 0.51054 0.04746 0.0
C511 C 0.47151 0.54038 0.97134 0.0
C512 C 0.41829 0.50399 0.97824 0.0
C513 C 0.43159 0.55208 0.96145 0.0
C514 C 0.44977 0.51295 0.97959 0.0
C515 C 0.46272 0.55994 0.96139 0.0
C516 C 0.40938 0.52411 0.96993 0.0
C517 C 0.51542 0.59148 0.94942 0.0
N518 N 0.50115 0.54679 0.9713 0.0
C519 C 0.52295 0.57136 0.95963 0.0
C520 C 0.48527 0.58606 0.95073 0.0
Tb521 Tb 0.51171 0.51294 0.98864 0.0
N522 N 0.45943 0.49408 0.987 0.0
C523 C 0.43839 0.46487 0.99138 0.0
C524 C 0.39676 0.47467 0.98418 0.0
C525 C 0.40687 0.45484 0.99023 0.0
H526 H 0.54638 0.57592 0.9587 0.0
H527 H 0.3904 0.43189 0.99432 0.0
H528 H 0.38533 0.51782 0.96908 0.0
H529 H 0.5329 0.61123 0.94068 0.0
H530 H 0.44556 0.4492 0.99642 0.0
H531 H 0.65831 0.59405 0.04487 0.0
H532 H 0.37235 0.46687 0.9834 0.0
H533 H 0.50527 0.44734 0.07725 0.0
H534 H 0.6029 0.57598 0.04392 0.0
H535 H 0.51958 0.41071 0.0915 0.0
H536 H 0.42437 0.56696 0.95419 0.0
H537 H 0.67737 0.55876 0.05119 0.0
H538 H 0.66544 0.50667 0.06115 0.0
H539 H 0.47948 0.60164 0.94278 0.0
H540 H 0.6272 0.45602 0.07382 0.0
N541 N 0.58998 0.53035 0.04911 0.0
C542 C 0.61056 0.56013 0.04687 0.0
C543 C 0.65288 0.55061 0.05082 0.0
C544 C 0.6318 0.52056 0.05491 0.0
C545 C 0.6422 0.57059 0.04737 0.0
C546 C 0.60018 0.51116 0.05417 0.0
H547 H 0.57261 0.42018 0.0859 0.0
N548 N 0.54923 0.47624 0.06257 0.0
C549 C 0.53645 0.43079 0.08275 0.0
C550 C 0.57889 0.48284 0.06108 0.0
C551 C 0.52845 0.45158 0.07473 0.0
C552 C 0.56636 0.43613 0.07944 0.0
C553 C 0.5883 0.46291 0.06917 0.0
O554 O 0.51537 0.5023 0.08009 0.0
O555 O 0.50231 0.50897 0.02538 0.0
O556 O 0.519 0.55392 1.00542 0.0
O557 O 0.54911 0.55634 0.03755 0.0
O558 O 0.48769 0.48282 0.054 0.0
O559 O 0.55495 0.5446 0.07262 0.0
O560 O 0.53522 0.51945 0.95678 0.0
O561 O 0.54813 0.51487 0.01043 0.0
O562 O 0.52765 0.46869 0.03112 0.0
O563 O 0.49922 0.46681 0.99809 0.0
O564 O 0.56029 0.54435 0.98322 0.0
O565 O 0.49381 0.47831 0.96405 0.0
C566 C 0.47825 0.49149 0.03641 0.0
C567 C 0.54772 0.528 0.11169 0.0
C568 C 0.55154 0.53861 0.15349 0.0
C569 C 0.53891 0.53822 0.13141 0.0
C570 C 0.57218 0.52778 0.1556 0.0
C571 C 0.56885 0.51797 0.11429 0.0
C572 C 0.58073 0.51756 0.13613 0.0
C573 C 0.53696 0.5682 0.02344 0.0
C574 C 0.53516 0.52816 0.08847 0.0
C575 C 0.61952 0.47119 0.06808 0.0
C576 C 0.64128 0.50004 0.06091 0.0
C577 C 0.57101 0.53556 0.99986 0.0
C578 C 0.50369 0.49414 0.92477 0.0
C579 C 0.51892 0.49046 0.90562 0.0
C580 C 0.50906 0.49085 0.88268 0.0
C581 C 0.48375 0.49512 0.87924 0.0
C582 C 0.47838 0.49816 0.92094 0.0
C583 C 0.46856 0.49872 0.89828 0.0
C584 C 0.50964 0.45452 0.01324 0.0
C585 C 0.51465 0.49385 0.94852 0.0
H586 H 0.52305 0.54656 0.12946 0.0
H587 H 0.58192 0.5274 0.17238 0.0
H588 H 0.57639 0.51063 0.09947 0.0
H589 H 0.59689 0.50958 0.13794 0.0
H590 H 0.53863 0.48761 0.90862 0.0
H591 H 0.47537 0.49519 0.86185 0.0
H592 H 0.46613 0.50071 0.93541 0.0
H593 H 0.44899 0.50179 0.89545 0.0
Tb594 Tb 0.16609 0.3353 0.31937 0.0
C595 C 0.22403 0.4226 0.39607 0.0
C596 C 0.27813 0.43889 0.39376 0.0
C597 C 0.26156 0.47357 0.40606 0.0
C598 C 0.24716 0.4168 0.39067 0.0
C599 C 0.23079 0.45073 0.40457 0.0
C600 C 0.28525 0.46764 0.40067 0.0
C601 C 0.1767 0.43022 0.41248 0.0
N602 N 0.19479 0.39969 0.39484 0.0
C603 C 0.17128 0.40262 0.40419 0.0
C604 C 0.20653 0.45455 0.41227 0.0
Tb605 Tb 0.18771 0.35568 0.37945 0.0
N606 N 0.23915 0.38866 0.38436 0.0
C607 C 0.26114 0.38047 0.3828 0.0
C608 C 0.30083 0.43101 0.39088 0.0
C609 C 0.29221 0.40148 0.38594 0.0
H610 H 0.14814 0.38396 0.40432 0.0
H611 H 0.30952 0.39495 0.3842 0.0
H612 H 0.30892 0.48508 0.40276 0.0
H613 H 0.15789 0.43269 0.41908 0.0
H614 H 0.25503 0.35789 0.37866 0.0
H615 H 0.1303 0.39911 0.26638 0.0
H616 H 0.32491 0.44727 0.3931 0.0
H617 H 0.13125 0.26195 0.32898 0.0
H618 H 0.16725 0.38949 0.28779 0.0
H619 H 0.07982 0.21865 0.32459 0.0
H620 H 0.26729 0.4955 0.41224 0.0
H621 H 0.07544 0.36026 0.26471 0.0
H622 H 0.03439 0.3076 0.27386 0.0
H623 H 0.21072 0.47583 0.4189 0.0
H624 H 0.02063 0.25825 0.28979 0.0
N625 N 0.1334 0.34609 0.29895 0.0
C626 C 0.14336 0.37236 0.2871 0.0
C627 C 0.09154 0.35598 0.27417 0.0
C628 C 0.08199 0.32834 0.28476 0.0
C629 C 0.1225 0.37792 0.27501 0.0
C630 C 0.10388 0.32398 0.29687 0.0
H631 H 0.03759 0.22468 0.30834 0.0
N632 N 0.11885 0.29314 0.31574 0.0
C633 C 0.08408 0.24046 0.31927 0.0
C634 C 0.09629 0.29646 0.30568 0.0
C635 C 0.11341 0.26531 0.32172 0.0
C636 C 0.06028 0.24396 0.31018 0.0
C637 C 0.06636 0.27214 0.30281 0.0
O638 O 0.17202 0.30597 0.29767 0.0
O639 O 0.20367 0.35887 0.34391 0.0
O640 O 0.18008 0.38941 0.36151 0.0
O641 O 0.14582 0.36147 0.33206 0.0
O642 O 0.20424 0.38057 0.31387 0.0
O643 O 0.1899 0.35145 0.28745 0.0
O644 O 0.16243 0.33853 0.41069 0.0
O645 O 0.15405 0.3232 0.35557 0.0
O646 O 0.17994 0.30467 0.33359 0.0
O647 O 0.20188 0.32305 0.37001 0.0
O648 O 0.1382 0.33697 0.3831 0.0
O649 O 0.20435 0.33833 0.40534 0.0
C650 C 0.21917 0.38286 0.3326 0.0
C651 C 0.17188 0.31519 0.25708 0.0
C652 C 0.16502 0.3253 0.21627 0.0
C653 C 0.17656 0.33562 0.2389 0.0
C654 C 0.14937 0.29443 0.21208 0.0
C655 C 0.15603 0.28453 0.25217 0.0
C656 C 0.1449 0.27432 0.22988 0.0
C657 C 0.15909 0.3852 0.34558 0.0
C658 C 0.18444 0.32529 0.28089 0.0
C659 C 0.04385 0.27658 0.29193 0.0
C660 C 0.05168 0.30467 0.28288 0.0
C661 C 0.12985 0.31955 0.36545 0.0
C662 C 0.19171 0.34263 0.44427 0.0
C663 C 0.18087 0.32206 0.463 0.0
C664 C 0.19088 0.33164 0.48608 0.0
C665 C 0.2113 0.36211 0.48999 0.0
C666 C 0.21214 0.37277 0.44882 0.0
C667 C 0.22173 0.38242 0.47154 0.0
C668 C 0.1948 0.30414 0.35245 0.0
C669 C 0.18236 0.33259 0.41999 0.0
H670 H 0.18876 0.35932 0.24237 0.0
H671 H 0.14075 0.28571 0.19486 0.0
H672 H 0.1524 0.26828 0.26556 0.0
H673 H 0.13287 0.25066 0.22632 0.0
H674 H 0.16527 0.29869 0.45957 0.0
H675 H 0.21903 0.37037 0.50746 0.0
H676 H 0.22086 0.38885 0.43482 0.0
H677 H 0.23743 0.40577 0.47485 0.0
Tb678 Tb 0.69898 0.8357 0.32915 0.0
C679 C 0.60668 0.80253 0.40924 0.0
C680 C 0.58963 0.83853 0.40501 0.0
C681 C 0.5556 0.79011 0.42228 0.0
C682 C 0.61218 0.83014 0.40199 0.0
C683 C 0.57861 0.78238 0.41994 0.0
C684 C 0.56108 0.81815 0.41479 0.0
C685 C 0.59919 0.74964 0.42695 0.0
N686 N 0.62951 0.796 0.40672 0.0
C687 C 0.62668 0.77048 0.41631 0.0
C688 C 0.57489 0.75544 0.42852 0.0
Tb689 Tb 0.67366 0.83139 0.38903 0.0
N690 N 0.64008 0.84916 0.39269 0.0
C691 C 0.64754 0.87778 0.38737 0.0
C692 C 0.59664 0.86727 0.39846 0.0
C693 C 0.62585 0.88707 0.38984 0.0
H694 H 0.64538 0.76584 0.41509 0.0
H695 H 0.63168 0.90951 0.38504 0.0
H696 H 0.54335 0.82406 0.41705 0.0
H697 H 0.59679 0.72916 0.43396 0.0
H698 H 0.66987 0.89343 0.38054 0.0
H699 H 0.74401 0.75985 0.32992 0.0
H700 H 0.57991 0.87454 0.40037 0.0
H701 H 0.72492 0.89897 0.3 0.0
H702 H 0.70389 0.7737 0.33299 0.0
H703 H 0.7743 0.93793 0.2835 0.0
H704 H 0.53374 0.77484 0.43027 0.0
H705 H 0.79749 0.79811 0.32067 0.0
H706 H 0.83472 0.85091 0.30879 0.0
H707 H 0.55366 0.73933 0.43686 0.0
H708 H 0.84316 0.89996 0.2962 0.0
N709 N 0.73422 0.81981 0.32603 0.0
C710 C 0.72698 0.79075 0.32878 0.0
C711 C 0.77993 0.8044 0.32197 0.0
C712 C 0.78678 0.83365 0.31756 0.0
C713 C 0.74974 0.78272 0.32707 0.0
C714 C 0.76306 0.84063 0.31958 0.0
H715 H 0.82046 0.93242 0.28607 0.0
N716 N 0.74346 0.87256 0.31276 0.0
C717 C 0.7729 0.91853 0.29187 0.0
C718 C 0.76791 0.86815 0.31271 0.0
C719 C 0.74499 0.89642 0.30115 0.0
C720 C 0.79895 0.91542 0.29347 0.0
C721 C 0.79644 0.88955 0.30337 0.0
O722 O 0.68041 0.84151 0.29796 0.0
O723 O 0.66482 0.83435 0.35259 0.0
O724 O 0.63975 0.79009 0.37236 0.0
O725 O 0.6662 0.78884 0.33916 0.0
O726 O 0.6748 0.86107 0.32427 0.0
O727 O 0.68553 0.80308 0.30294 0.0
O728 O 0.69021 0.82376 0.42061 0.0
O729 O 0.70782 0.83239 0.36562 0.0
O730 O 0.73159 0.87811 0.345 0.0
O731 O 0.70752 0.87811 0.38003 0.0
O732 O 0.69472 0.80334 0.3929 0.0
O733 O 0.69136 0.86534 0.41416 0.0
C734 C 0.65692 0.85095 0.34209 0.0
C735 C 0.69198 0.82273 0.26467 0.0
C736 C 0.68637 0.82489 0.22237 0.0
C737 C 0.67344 0.81813 0.24499 0.0
C738 C 0.71839 0.83708 0.22008 0.0
C739 C 0.7234 0.83317 0.26162 0.0
C740 C 0.73658 0.84072 0.23953 0.0
C741 C 0.64269 0.77618 0.35401 0.0
C742 C 0.6786 0.81804 0.28824 0.0
C743 C 0.82089 0.88363 0.30297 0.0
C744 C 0.81606 0.85569 0.3101 0.0
C745 C 0.71327 0.81369 0.37551 0.0
C746 C 0.68425 0.84813 0.45322 0.0
C747 C 0.70164 0.84831 0.47252 0.0
C748 C 0.69116 0.84773 0.49544 0.0
C749 C 0.6627 0.84636 0.49868 0.0
C750 C 0.65621 0.8473 0.45696 0.0
C751 C 0.64542 0.84617 0.47955 0.0
C752 C 0.72919 0.89141 0.3639 0.0
C753 C 0.69584 0.84913 0.42941 0.0
H754 H 0.64897 0.8089 0.24746 0.0
H755 H 0.72957 0.84378 0.20327 0.0
H756 H 0.73784 0.83566 0.27626 0.0
H757 H 0.76103 0.84948 0.23747 0.0
H758 H 0.72361 0.84959 0.46964 0.0
H759 H 0.65371 0.84535 0.51604 0.0
H760 H 0.64275 0.8478 0.44251 0.0
H761 H 0.62366 0.84533 0.48225 0.0
Tb762 Tb 0.20919 0.84737 0.38561 0.0
C763 C 0.1526 0.88635 0.30719 0.0
C764 C 0.09813 0.85164 0.31013 0.0
C765 C 0.11601 0.90127 0.29448 0.0
C766 C 0.12888 0.85876 0.31348 0.0
C767 C 0.14655 0.90782 0.29721 0.0
C768 C 0.09181 0.87321 0.30094 0.0
C769 C 0.20119 0.93959 0.29177 0.0
N770 N 0.18168 0.89169 0.31004 0.0
C771 C 0.20593 0.91745 0.30159 0.0
C772 C 0.17137 0.9349 0.2898 0.0
Tb773 Tb 0.18739 0.85428 0.3264 0.0
N774 N 0.13602 0.83866 0.3224 0.0
C775 C 0.11317 0.81023 0.32714 0.0
C776 C 0.07471 0.823 0.31593 0.0
C777 C 0.0823 0.80214 0.32427 0.0
H778 H 0.22907 0.92125 0.30306 0.0
H779 H 0.06436 0.7798 0.32857 0.0
H780 H 0.06834 0.86826 0.29845 0.0
H781 H 0.22052 0.96022 0.28567 0.0
H782 H 0.11835 0.79374 0.33376 0.0
H783 H 0.33338 0.91275 0.38398 0.0
H784 H 0.05078 0.81667 0.31376 0.0
H785 H 0.16461 0.78417 0.4134 0.0
H786 H 0.28085 0.90459 0.38166 0.0
H787 H 0.1687 0.74203 0.42971 0.0
H788 H 0.11085 0.91754 0.28702 0.0
H789 H 0.34201 0.87072 0.39295 0.0
H790 H 0.31972 0.81708 0.40507 0.0
H791 H 0.16772 0.95202 0.28208 0.0
H792 H 0.27456 0.77025 0.41778 0.0
N793 N 0.25933 0.85793 0.3884 0.0
C794 C 0.28402 0.88593 0.38566 0.0
C795 C 0.31879 0.86692 0.39188 0.0
C796 C 0.29355 0.83883 0.39649 0.0
C797 C 0.314 0.89072 0.38694 0.0
C798 C 0.26383 0.83512 0.39474 0.0
H799 H 0.2181 0.74229 0.42768 0.0
N800 N 0.21102 0.80766 0.40173 0.0
C801 C 0.18853 0.76064 0.42176 0.0
C802 C 0.23867 0.80896 0.40183 0.0
C803 C 0.18632 0.78459 0.41258 0.0
C804 C 0.21641 0.7608 0.42048 0.0
C805 C 0.24215 0.7855 0.41091 0.0
O806 O 0.18774 0.84383 0.41801 0.0
O807 O 0.1765 0.85034 0.363 0.0
O808 O 0.19794 0.89504 0.34481 0.0
O809 O 0.22894 0.89455 0.37507 0.0
O810 O 0.15903 0.82468 0.39172 0.0
O811 O 0.23168 0.88176 0.41017 0.0
O812 O 0.21148 0.86184 0.29472 0.0
O813 O 0.22051 0.85138 0.3488 0.0
O814 O 0.19711 0.80555 0.36834 0.0
O815 O 0.17082 0.80714 0.33506 0.0
O816 O 0.23714 0.88106 0.32183 0.0
O817 O 0.16943 0.82068 0.30099 0.0
C818 C 0.15163 0.83478 0.37386 0.0
C819 C 0.2219 0.86573 0.44948 0.0
C820 C 0.22305 0.87268 0.49182 0.0
C821 C 0.213 0.87546 0.46939 0.0
C822 C 0.24165 0.8595 0.49386 0.0
C823 C 0.24112 0.85348 0.4521 0.0
C824 C 0.25071 0.85018 0.47413 0.0
C825 C 0.21811 0.90828 0.36177 0.0
C826 C 0.21082 0.86809 0.42614 0.0
C827 C 0.2714 0.78817 0.41116 0.0
C828 C 0.29711 0.81483 0.40392 0.0
C829 C 0.24507 0.86985 0.33862 0.0
C830 C 0.18079 0.83782 0.26199 0.0
C831 C 0.19769 0.83637 0.243 0.0
C832 C 0.18842 0.83716 0.21993 0.0
C833 C 0.16217 0.83983 0.21621 0.0
C834 C 0.15455 0.84021 0.25784 0.0
C835 C 0.14542 0.84134 0.23507 0.0
C836 C 0.17964 0.7931 0.34986 0.0
C837 C 0.19084 0.83662 0.28589 0.0
H838 H 0.19871 0.88555 0.46731 0.0
H839 H 0.24913 0.85618 0.51076 0.0
H840 H 0.24878 0.84647 0.43717 0.0
H841 H 0.26524 0.84033 0.47593 0.0
H842 H 0.2177 0.83408 0.24623 0.0
H843 H 0.15471 0.84098 0.19871 0.0
H844 H 0.14101 0.841 0.27213 0.0
H845 H 0.12523 0.84333 0.23201 0.0
Tb846 Tb 0.83671 0.66259 0.65928 0.0
C847 C 0.87943 0.7568 0.73672 0.0
C848 C 0.93444 0.77725 0.73663 0.0
C849 C 0.91288 0.80802 0.74871 0.0
C850 C 0.90452 0.75347 0.73256 0.0
C851 C 0.88314 0.78381 0.74545 0.0
C852 C 0.93852 0.80476 0.74427 0.0
C853 C 0.82798 0.75992 0.74919 0.0
N854 N 0.85123 0.7328 0.73354 0.0
C855 C 0.82556 0.73359 0.74053 0.0
C856 C 0.85689 0.7853 0.75133 0.0
Tb857 Tb 0.84921 0.69073 0.7188 0.0
N858 N 0.89947 0.72651 0.72525 0.0
C859 C 0.92356 0.72131 0.72321 0.0
C860 C 0.95924 0.77246 0.73332 0.0
C861 C 0.95373 0.74425 0.72685 0.0
H862 H 0.8031 0.71413 0.73876 0.0
H863 H 0.97271 0.74015 0.72461 0.0
H864 H 0.96134 0.8234 0.74729 0.0
H865 H 0.80755 0.76064 0.75414 0.0
H866 H 0.91994 0.69979 0.71809 0.0
H867 H 0.71334 0.61045 0.64925 0.0
H868 H 0.98262 0.79017 0.73615 0.0
H869 H 0.88423 0.64095 0.63913 0.0
H870 H 0.76556 0.65223 0.65539 0.0
H871 H 0.88147 0.5942 0.62603 0.0
H872 H 0.91628 0.8291 0.75518 0.0
H873 H 0.70489 0.55978 0.64232 0.0
H874 H 0.72766 0.52676 0.63521 0.0
H875 H 0.85872 0.80565 0.7581 0.0
H876 H 0.77371 0.52225 0.62881 0.0
N877 N 0.78699 0.62561 0.65274 0.0
C878 C 0.7625 0.63038 0.65231 0.0
C879 C 0.72799 0.57807 0.64505 0.0
C880 C 0.7533 0.57372 0.64381 0.0
C881 C 0.73269 0.60667 0.64885 0.0
C882 C 0.78283 0.59829 0.6476 0.0
H883 H 0.83133 0.54752 0.62483 0.0
N884 N 0.83633 0.6206 0.64615 0.0
C885 C 0.86077 0.59425 0.63124 0.0
C886 C 0.80851 0.59567 0.64413 0.0
C887 C 0.86225 0.62069 0.63859 0.0
C888 C 0.83245 0.56792 0.63068 0.0
C889 C 0.80573 0.56855 0.63662 0.0
O890 O 0.86457 0.68035 0.62946 0.0
O891 O 0.86504 0.69765 0.68317 0.0
O892 O 0.8389 0.72032 0.698 0.0
O893 O 0.81648 0.6915 0.66465 0.0
O894 O 0.88724 0.68783 0.65835 0.0
O895 O 0.81901 0.67428 0.63036 0.0
O896 O 0.82222 0.67456 0.74931 0.0
O897 O 0.82019 0.65606 0.69479 0.0
O898 O 0.84607 0.63271 0.67991 0.0
O899 O 0.86823 0.66061 0.71369 0.0
O900 O 0.79907 0.66838 0.71911 0.0
O901 O 0.86466 0.67424 0.74607 0.0
C902 C 0.89144 0.70604 0.67503 0.0
C903 C 0.83801 0.66954 0.5938 0.0
C904 C 0.84751 0.67722 0.55185 0.0
C905 C 0.85129 0.68876 0.57462 0.0
C906 C 0.83033 0.64623 0.5486 0.0
C907 C 0.82047 0.63877 0.59003 0.0
C908 C 0.81682 0.6272 0.56758 0.0
C909 C 0.82363 0.71502 0.67802 0.0
C910 C 0.84326 0.68179 0.6176 0.0
C911 C 0.77638 0.54344 0.63427 0.0
C912 C 0.75017 0.54601 0.6379 0.0
C913 C 0.79415 0.65016 0.70233 0.0
C914 C 0.84982 0.67936 0.78406 0.0
C915 C 0.83837 0.65893 0.8028 0.0
C916 C 0.8474 0.6687 0.82593 0.0
C917 C 0.86741 0.69919 0.82999 0.0
C918 C 0.86984 0.70957 0.78869 0.0
C919 C 0.87841 0.71941 0.8115 0.0
C920 C 0.86157 0.63788 0.69959 0.0
C921 C 0.84178 0.66891 0.75977 0.0
H922 H 0.86475 0.71258 0.57742 0.0
H923 H 0.82674 0.63676 0.53128 0.0
H924 H 0.80953 0.62366 0.60436 0.0
H925 H 0.8033 0.6034 0.56487 0.0
H926 H 0.82317 0.63547 0.79933 0.0
H927 H 0.87446 0.70743 0.84756 0.0
H928 H 0.87914 0.72553 0.77469 0.0
H929 H 0.89386 0.74281 0.81486 0.0
Tb930 Tb 0.36991 0.18331 0.65253 0.0
C931 C 0.26444 0.12888 0.72268 0.0
C932 C 0.2454 0.16351 0.72296 0.0
C933 C 0.21054 0.11102 0.73077 0.0
C934 C 0.26949 0.15733 0.71967 0.0
C935 C 0.23519 0.1055 0.72904 0.0
C936 C 0.21563 0.14003 0.72769 0.0
C937 C 0.25778 0.07411 0.73412 0.0
N938 N 0.28897 0.12469 0.72111 0.0
C939 C 0.28633 0.09803 0.72757 0.0
C940 C 0.23195 0.07769 0.73442 0.0
Tb941 Tb 0.33466 0.16491 0.70984 0.0
N942 N 0.29867 0.17932 0.71553 0.0
C943 C 0.30581 0.20846 0.71668 0.0
C944 C 0.25224 0.1932 0.72246 0.0
C945 C 0.28271 0.2158 0.71984 0.0
H946 H 0.30605 0.09493 0.72708 0.0
H947 H 0.28841 0.2389 0.72004 0.0
H948 H 0.19669 0.14424 0.72989 0.0
H949 H 0.25567 0.05288 0.73872 0.0
H950 H 0.32916 0.22623 0.7144 0.0
H951 H 0.41412 0.10729 0.64405 0.0
H952 H 0.23441 0.19894 0.72487 0.0
H953 H 0.40026 0.25352 0.6355 0.0
H954 H 0.3741 0.12091 0.64897 0.0
H955 H 0.45149 0.29522 0.6251 0.0
H956 H 0.18774 0.09328 0.7353 0.0
H957 H 0.46832 0.14644 0.63862 0.0
H958 H 0.5068 0.20079 0.633 0.0
H959 H 0.20988 0.05914 0.73945 0.0
H960 H 0.5171 0.25223 0.62788 0.0
N961 N 0.4051 0.16775 0.64695 0.0
C962 C 0.3975 0.13842 0.64649 0.0
C963 C 0.45078 0.15264 0.64074 0.0
C964 C 0.45817 0.18246 0.63973 0.0
C965 C 0.42021 0.13049 0.64372 0.0
C966 C 0.43446 0.18928 0.64273 0.0
H967 H 0.49646 0.28767 0.62452 0.0
N968 N 0.41626 0.22294 0.64162 0.0
C969 C 0.44871 0.27364 0.62939 0.0
C970 C 0.4403 0.21802 0.64 0.0
C971 C 0.4197 0.24994 0.63524 0.0
C972 C 0.47405 0.26933 0.62917 0.0
C973 C 0.46992 0.24105 0.63401 0.0
O974 O 0.35642 0.19671 0.62218 0.0
O975 O 0.3327 0.17822 0.67451 0.0
O976 O 0.30292 0.12954 0.68632 0.0
O977 O 0.3363 0.13527 0.65585 0.0
O978 O 0.34976 0.21256 0.65141 0.0
O979 O 0.35671 0.15528 0.62325 0.0
O980 O 0.34627 0.15147 0.74117 0.0
O981 O 0.37181 0.17012 0.68785 0.0
O982 O 0.40113 0.21879 0.67559 0.0
O983 O 0.36876 0.21308 0.70702 0.0
O984 O 0.35557 0.13629 0.71119 0.0
O985 O 0.35001 0.19461 0.73806 0.0
C986 C 0.32896 0.19916 0.66704 0.0
C987 C 0.36509 0.17919 0.58676 0.0
C988 C 0.35631 0.17408 0.54472 0.0
C989 C 0.34496 0.16861 0.56772 0.0
C990 C 0.38829 0.19034 0.54116 0.0
C991 C 0.39685 0.19509 0.58287 0.0
C992 C 0.40836 0.20066 0.56014 0.0
C993 C 0.30963 0.12001 0.66694 0.0
C994 C 0.35223 0.17354 0.61042 0.0
C995 C 0.49406 0.2348 0.6322 0.0
C996 C 0.48819 0.20551 0.63509 0.0
C997 C 0.37629 0.14976 0.69554 0.0
C998 C 0.3392 0.17273 0.7754 0.0
C999 C 0.35853 0.18117 0.79501 0.0
C1000 C 0.34656 0.17935 0.81757 0.0
C1001 C 0.31489 0.16871 0.82015 0.0
C1002 C 0.30775 0.16225 0.77841 0.0
C1003 C 0.29568 0.16019 0.80068 0.0
C1004 C 0.39469 0.22836 0.69498 0.0
C1005 C 0.35239 0.17592 0.75195 0.0
H1006 H 0.32044 0.1558 0.57091 0.0
H1007 H 0.39783 0.19537 0.52372 0.0
H1008 H 0.41273 0.20322 0.59727 0.0
H1009 H 0.43291 0.21311 0.55723 0.0
H1010 H 0.38292 0.18964 0.79264 0.0
H1011 H 0.30487 0.1666 0.83726 0.0
H1012 H 0.29256 0.15584 0.76362 0.0
H1013 H 0.27135 0.15201 0.80287 0.0
Tb1014 Tb 0.87165 0.18536 0.71297 0.0
C1015 C 0.81956 0.22337 0.63156 0.0
C1016 C 0.76528 0.18739 0.63236 0.0
C1017 C 0.78276 0.23721 0.61727 0.0
C1018 C 0.79602 0.1953 0.63695 0.0
C1019 C 0.81336 0.24453 0.62119 0.0
C1020 C 0.75874 0.20867 0.62288 0.0
C1021 C 0.86809 0.27749 0.61755 0.0
N1022 N 0.84871 0.22942 0.63547 0.0
C1023 C 0.873 0.25563 0.62772 0.0
C1024 C 0.83812 0.27207 0.61451 0.0
Tb1025 Tb 0.85464 0.19253 0.65261 0.0
N1026 N 0.80338 0.17547 0.64613 0.0
C1027 C 0.78091 0.14659 0.64984 0.0
C1028 C 0.74214 0.15826 0.63719 0.0
C1029 C 0.75005 0.13771 0.64574 0.0
H1030 H 0.89624 0.26001 0.63006 0.0
H1031 H 0.73236 0.115 0.64925 0.0
H1032 H 0.73526 0.20312 0.61943 0.0
H1033 H 0.8874 0.29847 0.612 0.0
H1034 H 0.78637 0.13033 0.65656 0.0
H1035 H 0.99528 0.25458 0.71773 0.0
H1036 H 0.71823 0.15132 0.63404 0.0
H1037 H 0.8252 0.11891 0.73586 0.0
H1038 H 0.94248 0.24425 0.7113 0.0
H1039 H 0.82955 0.07769 0.75365 0.0
H1040 H 0.77748 0.25324 0.60951 0.0
H1041 H 1.00488 0.21427 0.73054 0.0
H1042 H 0.98329 0.16116 0.74381 0.0
H1043 H 0.83436 0.28896 0.6065 0.0
H1044 H 0.93808 0.11299 0.75395 0.0
N1045 N 0.92186 0.19801 0.71946 0.0
C1046 C 0.94607 0.2263 0.71686 0.0
C1047 C 0.98154 0.2095 0.72763 0.0
C1048 C 0.9566 0.18106 0.73175 0.0
C1049 C 0.9762 0.23233 0.72049 0.0
C1050 C 0.92673 0.17604 0.72753 0.0
H1051 H 0.88059 0.08184 0.75817 0.0
N1052 N 0.87326 0.14592 0.72981 0.0
C1053 C 0.84997 0.0976 0.74785 0.0
C1054 C 0.90149 0.14906 0.73315 0.0
C1055 C 0.8476 0.12103 0.73779 0.0
C1056 C 0.87882 0.10001 0.75034 0.0
C1057 C 0.90511 0.12615 0.74325 0.0
O1058 O 0.84529 0.17985 0.7431 0.0
O1059 O 0.84021 0.18759 0.68848 0.0
O1060 O 0.86197 0.23269 0.67083 0.0
O1061 O 0.89063 0.23257 0.70297 0.0
O1062 O 0.82102 0.15949 0.71567 0.0
O1063 O 0.89031 0.21798 0.73933 0.0
O1064 O 0.88097 0.20125 0.62194 0.0
O1065 O 0.88671 0.19109 0.67698 0.0
O1066 O 0.86642 0.14623 0.69489 0.0
O1067 O 0.83911 0.14533 0.66166 0.0
O1068 O 0.90469 0.22068 0.65026 0.0
O1069 O 0.83959 0.15922 0.62696 0.0
C1070 C 0.81456 0.17024 0.69773 0.0
C1071 C 0.87361 0.19919 0.77762 0.0
C1072 C 0.8648 0.19993 0.81969 0.0
C1073 C 0.85967 0.20558 0.79641 0.0
C1074 C 0.88333 0.18692 0.82353 0.0
C1075 C 0.89306 0.18764 0.78227 0.0
C1076 C 0.89756 0.18121 0.805 0.0
C1077 C 0.88028 0.24598 0.68882 0.0
C1078 C 0.8669 0.20344 0.75324 0.0
C1079 C 0.93478 0.13043 0.74647 0.0
C1080 C 0.96051 0.15785 0.74067 0.0
C1081 C 0.91194 0.21001 0.66786 0.0
C1082 C 0.85314 0.1766 0.58816 0.0
C1083 C 0.86885 0.17151 0.57004 0.0
C1084 C 0.86097 0.17227 0.54651 0.0
C1085 C 0.83719 0.17836 0.54149 0.0
C1086 C 0.82937 0.18235 0.58265 0.0
C1087 C 0.82156 0.18335 0.55946 0.0
C1088 C 0.85009 0.13275 0.67613 0.0
C1089 C 0.8618 0.17576 0.61262 0.0
H1090 H 0.84527 0.21525 0.79285 0.0
H1091 H 0.88693 0.18106 0.84091 0.0
H1092 H 0.90471 0.18344 0.76837 0.0
H1093 H 0.91215 0.17169 0.80828 0.0
H1094 H 0.88731 0.16715 0.57427 0.0
H1095 H 0.83022 0.17868 0.52366 0.0
H1096 H 0.81668 0.18586 0.5962 0.0
H1097 H 0.80312 0.18775 0.5554 0.0
H1098 H 0.34706 0.84636 0.04891 0.0
H1099 H 0.30301 0.89569 0.07108 0.0
H1100 H 0.34858 0.94222 0.06022 0.0
H1101 H 0.40235 0.9694 0.04675 0.0
H1102 H 0.44552 0.92003 0.02336 0.0
H1103 H 0.39875 0.87323 0.03161 0.0
C1104 C 0.34705 0.86716 0.05096 0.0
C1105 C 0.32159 0.86728 0.06129 0.0
C1106 C 0.37327 0.89399 0.04434 0.0
C1107 C 0.32244 0.89474 0.06387 0.0
C1108 C 0.34847 0.92146 0.05748 0.0
C1109 C 0.40127 0.94833 0.04318 0.0
C1110 C 0.42727 0.94825 0.03418 0.0
C1111 C 0.37424 0.92141 0.04814 0.0
C1112 C 0.42576 0.92084 0.02982 0.0
C1113 C 0.399 0.89399 0.03475 0.0
H1114 H 0.17895 0.49873 0.058 0.0
H1115 H 0.12661 0.40605 0.07772 0.0
H1116 H 0.07926 0.40461 0.06589 0.0
H1117 H 0.05214 0.43003 0.05216 0.0
H1118 H 0.10298 0.52279 0.03316 0.0
H1119 H 0.15145 0.52383 0.04203 0.0
C1120 C 0.15721 0.47815 0.05943 0.0
C1121 C 0.15638 0.4526 0.06905 0.0
C1122 C 0.12979 0.4775 0.05269 0.0
C1123 C 0.12794 0.42617 0.07084 0.0
C1124 C 0.10081 0.42527 0.06397 0.0
C1125 C 0.07391 0.45039 0.04971 0.0
C1126 C 0.07409 0.47613 0.04165 0.0
C1127 C 0.1014 0.45087 0.05525 0.0
C1128 C 0.10233 0.50252 0.03886 0.0
C1129 C 0.12999 0.50313 0.04413 0.0
H1130 H 0.54697 0.69446 0.03649 0.0
H1131 H 0.57178 0.68175 0.10599 0.0
H1132 H 0.56748 0.63477 0.09436 0.0
H1133 H 0.55647 0.59697 0.06488 0.0
H1134 H 0.52664 0.60639 0.99648 0.0
H1135 H 0.53288 0.65462 1.00729 0.0
C1136 C 0.55116 0.68132 0.04916 0.0
C1137 C 0.5604 0.69223 0.07198 0.0
C1138 C 0.54789 0.65366 0.04254 0.0
C1139 C 0.56566 0.67465 0.0881 0.0
C1140 C 0.56296 0.64753 0.08154 0.0
C1141 C 0.55158 0.60958 0.05217 0.0
C1142 C 0.54171 0.59812 0.02962 0.0
C1143 C 0.5543 0.63691 0.05879 0.0
C1144 C 0.53479 0.6147 0.01375 0.0
C1145 C 0.5382 0.64232 0.02001 0.0
H1146 H 0.89865 0.3066 0.97717 0.0
H1147 H 0.82522 0.32276 0.99727 0.0
H1148 H 0.8622 0.3696 0.01513 0.0
H1149 H 0.91569 0.40813 0.02247 0.0
H1150 H 0.98926 0.39498 0.99783 0.0
H1151 H 0.95203 0.34516 0.98423 0.0
C1152 C 0.89059 0.32038 0.98523 0.0
C1153 C 0.8589 0.31073 0.98576 0.0
C1154 C 0.91214 0.34809 0.99465 0.0
C1155 C 0.84923 0.32894 0.99688 0.0
C1156 C 0.87045 0.35604 1.00696 0.0
C1157 C 0.92357 0.39425 0.01434 0.0
C1158 C 0.9552 0.40529 0.0111 0.0
C1159 C 0.90199 0.36606 1.00566 0.0
C1160 C 0.96503 0.38706 1.00043 0.0
C1161 C 0.94374 0.35857 0.9926 0.0
H1162 H 0.70788 0.57732 0.97247 0.0
H1163 H 0.67698 0.48391 0.9818 0.0
H1164 H 0.62735 0.47559 0.996 0.0
H1165 H 0.59053 0.49414 1.00217 0.0
H1166 H 0.62166 0.58715 0.99043 0.0
H1167 H 0.6728 0.59612 0.98045 0.0
C1168 C 0.69033 0.55507 0.97752 0.0
C1169 C 0.69634 0.5313 0.97574 0.0
C1170 C 0.66154 0.55028 0.98513 0.0
C1171 C 0.67334 0.50279 0.98304 0.0
C1172 C 0.64472 0.49792 0.991 0.0
C1173 C 0.60877 0.51642 0.99793 0.0
C1174 C 0.60252 0.54013 0.99754 0.0
C1175 C 0.63826 0.52138 0.99167 0.0
C1176 C 0.62607 0.56869 0.9912 0.0
C1177 C 0.65531 0.57382 0.98542 0.0
H1178 H 0.50612 0.16901 0.98681 0.0
H1179 H 0.41756 0.11351 0.95492 0.0
H1180 H 0.41845 0.06909 0.96785 0.0
H1181 H 0.44523 0.0457 0.98697 0.0
H1182 H 0.53191 0.10148 0.02117 0.0
H1183 H 0.53021 0.1458 0.00925 0.0
C1184 C 0.4866 0.1473 0.98306 0.0
C1185 C 0.46204 0.14497 0.9695 0.0
C1186 C 0.48681 0.12168 0.99107 0.0
C1187 C 0.43728 0.11632 0.96469 0.0
C1188 C 0.43759 0.09075 0.97227 0.0
C1189 C 0.4636 0.06754 0.992 0.0
C1190 C 0.48868 0.07013 1.00489 0.0
C1191 C 0.46243 0.09314 0.9852 0.0
C1192 C 0.51217 0.09866 0.01141 0.0
C1193 C 0.51135 0.12414 1.00445 0.0
H1194 H 0.63812 0.15972 0.98033 0.0
H1195 H 0.70795 0.13549 0.99144 0.0
H1196 H 0.66809 0.08283 0.99359 0.0
H1197 H 0.61244 0.04369 0.99443 0.0
H1198 H 0.54459 0.07087 0.98737 0.0
H1199 H 0.5844 0.12229 0.98228 0.0
C1200 C 0.64489 0.14316 0.98369 0.0
C1201 C 0.67619 0.15193 0.98616 0.0
C1202 C 0.62198 0.11334 0.98612 0.0
C1203 C 0.68416 0.12963 0.98935 0.0
C1204 C 0.66131 0.09946 0.9908 0.0
C1205 C 0.60659 0.06109 0.99233 0.0
C1206 C 0.57555 0.05379 0.99318 0.0
C1207 C 0.63003 0.09107 0.98962 0.0
C1208 C 0.56818 0.07618 0.98882 0.0
C1209 C 0.59102 0.10558 0.98537 0.0
H1210 H 0.84461 0.46513 1.00326 0.0
H1211 H 0.87472 0.54566 0.96301 0.0
H1212 H 0.92818 0.55906 0.96977 0.0
H1213 H 0.96673 0.54599 0.98488 0.0
H1214 H 0.93394 0.46079 0.01811 0.0
H1215 H 0.88158 0.4507 0.01555 0.0
C1216 C 0.86254 0.48536 0.99534 0.0
C1217 C 0.85494 0.50392 0.98218 0.0
C1218 C 0.89316 0.49209 0.99804 0.0
C1219 C 0.87929 0.53078 0.97334 0.0
C1220 C 0.91007 0.53837 0.97699 0.0
C1221 C 0.94807 0.52534 0.99172 0.0
C1222 C 0.95473 0.50481 1.00285 0.0
C1223 C 0.91732 0.51893 0.989 0.0
C1224 C 0.93009 0.47767 0.01061 0.0
C1225 C 0.89984 0.47172 0.0089 0.0
H1226 H 0.4903 0.32534 0.02096 0.0
H1227 H 0.51242 0.33985 0.94787 0.0
H1228 H 0.51199 0.38708 0.94943 0.0
H1229 H 0.5115 0.4271 0.9731 0.0
H1230 H 0.48751 0.4108 0.04584 0.0
H1231 H 0.48259 0.36164 0.0431 0.0
C1232 C 0.49423 0.33854 1.00527 0.0
C1233 C 0.50129 0.32927 0.98434 0.0
C1234 C 0.49427 0.36566 1.00642 0.0
C1235 C 0.50659 0.34651 0.96411 0.0
C1236 C 0.50663 0.37361 0.96508 0.0
C1237 C 0.50465 0.41249 0.98819 0.0
C1238 C 0.5012 0.42301 0.00996 0.0
C1239 C 0.50141 0.38387 0.98632 0.0
C1240 C 0.49198 0.40382 0.02928 0.0
C1241 C 0.4887 0.37551 0.02762 0.0
H1242 H 0.16706 0.68344 0.01465 0.0
H1243 H 0.18743 0.66687 0.08415 0.0
H1244 H 0.13906 0.61918 0.08527 0.0
H1245 H 0.09383 0.57961 0.06437 0.0
H1246 H 0.07351 0.59732 0.99518 0.0
H1247 H 0.11863 0.64703 0.99591 0.0
C1248 C 0.16043 0.66961 0.03019 0.0
C1249 C 0.18047 0.67846 0.04931 0.0
C1250 C 0.13278 0.64226 0.03059 0.0
C1251 C 0.17204 0.66043 0.06933 0.0
C1252 C 0.14453 0.63314 0.0699 0.0
C1253 C 0.09894 0.59473 0.04976 0.0
C1254 C 0.08094 0.58466 0.02947 0.0
C1255 C 0.12505 0.62344 0.05038 0.0
C1256 C 0.08773 0.6043 0.01061 0.0
C1257 C 0.1134 0.6328 0.0111 0.0
H1258 H 0.38062 0.53367 0.04478 0.0
H1259 H 0.31839 0.43928 0.05241 0.0
H1260 H 0.36204 0.43041 0.0512 0.0
H1261 H 0.41836 0.44969 0.04586 0.0
H1262 H 0.47773 0.54373 0.0345 0.0
H1263 H 0.4348 0.55229 0.03839 0.0
C1264 C 0.37621 0.51096 0.04573 0.0
C1265 C 0.34586 0.4872 0.04831 0.0
C1266 C 0.40111 0.50591 0.04401 0.0
C1267 C 0.34131 0.45816 0.05056 0.0
C1268 C 0.36632 0.45303 0.04966 0.0
C1269 C 0.42172 0.47198 0.04415 0.0
C1270 C 0.45124 0.4959 0.03887 0.0
C1271 C 0.39637 0.47674 0.0461 0.0
C1272 C 0.45535 0.52472 0.0373 0.0
C1273 C 0.4307 0.52972 0.03987 0.0
H1274 H 0.49052 0.82152 0.02591 0.0
H1275 H 0.54942 0.85833 0.08568 0.0
H1276 H 0.55687 0.9079 0.07628 0.0
H1277 H 0.54291 0.93984 0.05244 0.0
H1278 H 0.48187 0.90009 0.99383 0.0
H1279 H 0.47923 0.85311 1.00133 0.0
C1280 C 0.50514 0.84043 0.03683 0.0
C1281 C 0.51909 0.83622 0.05659 0.0
C1282 C 0.5089 0.8685 0.03153 0.0
C1283 C 0.53844 0.86103 0.07033 0.0
C1284 C 0.54252 0.88931 0.06504 0.0
C1285 C 0.52933 0.92099 0.04117 0.0
C1286 C 0.51287 0.92401 0.02236 0.0
C1287 C 0.52731 0.89322 0.04589 0.0
C1288 C 0.4953 0.89908 0.00811 0.0
C1289 C 0.49349 0.87184 0.0125 0.0
H1290 H 0.99161 0.22285 0.38171 0.0
H1291 H 0.03321 0.16974 0.3988 0.0
H1292 H 0.08363 0.21068 0.38732 0.0
H1293 H 0.11666 0.26339 0.37591 0.0
H1294 H 0.07513 0.31609 0.35767 0.0
H1295 H 0.02401 0.27372 0.36594 0.0
C1296 C 1.01171 0.2202 0.38264 0.0
C1297 C 1.00872 0.19338 0.39124 0.0
C1298 C 0.04064 0.24382 0.37583 0.0
C1299 C 0.03489 0.19011 0.39217 0.0
C1300 C 0.06375 0.21358 0.38573 0.0
C1301 C 0.09626 0.26519 0.37312 0.0
C1302 C 0.09939 0.29242 0.36556 0.0
C1303 C 0.06701 0.24074 0.37797 0.0
C1304 C 0.07304 0.29502 0.36288 0.0
C1305 C 0.04389 0.27089 0.36777 0.0
H1306 H 0.85022 0.84201 0.39166 0.0
H1307 H 0.80221 0.74718 0.40398 0.0
H1308 H 0.75364 0.74418 0.39384 0.0
H1309 H 0.72388 0.7688 0.38488 0.0
H1310 H 0.77072 0.86306 0.3711 0.0
H1311 H 0.82041 0.86605 0.37827 0.0
C1312 C 0.82922 0.82064 0.39164 0.0
C1313 C 0.8299 0.79493 0.39902 0.0
C1314 C 0.80102 0.81901 0.38578 0.0
C1315 C 0.80235 0.76741 0.39886 0.0
C1316 C 0.77449 0.76564 0.39307 0.0
C1317 C 0.74506 0.78992 0.38318 0.0
C1318 C 0.7437 0.81555 0.37716 0.0
C1319 C 0.77342 0.79136 0.38714 0.0
C1320 C 0.77121 0.84289 0.37527 0.0
C1321 C 0.79962 0.8446 0.37948 0.0
H1322 H 0.27152 0.04007 0.39679 0.0
H1323 H 0.17864 0.01888 0.38027 0.0
H1324 H 0.16834 0.9718 0.36389 0.0
H1325 H 0.1839 0.93486 0.35663 0.0
H1326 H 0.27277 0.95125 0.37961 0.0
H1327 H 0.28618 1.00173 0.39148 0.0
C1328 C 0.24883 0.02514 0.38999 0.0
C1329 C 0.22617 0.03373 0.3897 0.0
C1330 C 0.2422 0.99699 0.38183 0.0
C1331 C 0.19713 0.01385 0.38019 0.0
C1332 C 0.19093 0.98651 0.37103 0.0
C1333 C 0.20624 0.94947 0.36416 0.0
C1334 C 0.2273 0.93939 0.3673 0.0
C1335 C 0.21313 0.97772 0.37201 0.0
C1336 C 0.25615 0.95856 0.37713 0.0
C1337 C 0.26378 0.98736 0.38392 0.0
H1338 H 0.51779 0.65642 0.33548 0.0
H1339 H 0.57673 0.64292 0.28821 0.0
H1340 H 0.62043 0.68981 0.30027 0.0
H1341 H 0.64224 0.73566 0.32334 0.0
H1342 H 0.58445 0.74846 0.37219 0.0
H1343 H 0.54067 0.70087 0.36087 0.0
C1344 C 0.54022 0.66353 0.32797 0.0
C1345 C 0.54345 0.64622 0.31043 0.0
C1346 C 0.56577 0.69052 0.33537 0.0
C1347 C 0.57297 0.65604 0.30109 0.0
C1348 C 0.59824 0.68284 0.30816 0.0
C1349 C 0.62015 0.72799 0.33165 0.0
C1350 C 0.61686 0.74584 0.34858 0.0
C1351 C 0.5949 0.70045 0.32509 0.0
C1352 C 0.58794 0.73528 0.35921 0.0
C1353 C 0.56271 0.70802 0.35264 0.0
H1354 H 0.35139 0.84158 0.31609 0.0
H1355 H 0.39928 0.93621 0.30263 0.0
H1356 H 0.35483 0.93924 0.31585 0.0
H1357 H 0.30098 0.91473 0.32812 0.0
H1358 H 0.25222 0.82051 0.34216 0.0
H1359 H 0.29829 0.8176 0.33226 0.0
C1360 C 0.35228 0.86293 0.31645 0.0
C1361 C 0.3786 0.88856 0.30791 0.0
C1362 C 0.32638 0.86458 0.32412 0.0
C1363 C 0.37919 0.91602 0.30853 0.0
C1364 C 0.35378 0.91782 0.31618 0.0
C1365 C 0.30065 0.89365 0.32934 0.0
C1366 C 0.27347 0.86799 0.33615 0.0
C1367 C 0.32704 0.89219 0.32347 0.0
C1368 C 0.27309 0.84069 0.33741 0.0
C1369 C 0.29938 0.83902 0.33157 0.0
H1370 H 0.11673 0.47108 0.30319 0.0
H1371 H 0.21284 0.53428 0.31384 0.0
H1372 H 0.2197 0.49638 0.33361 0.0
H1373 H 0.19956 0.44436 0.34556 0.0
H1374 H 0.10482 0.38 0.33196 0.0
H1375 H 0.09628 0.41908 0.31582 0.0
C1376 C 0.1392 0.47655 0.30972 0.0
C1377 C 0.16409 0.50568 0.3071 0.0
C1378 C 0.14327 0.45438 0.32069 0.0
C1379 C 0.19301 0.5123 0.31596 0.0
C1380 C 0.19708 0.49056 0.32719 0.0
C1381 C 0.17691 0.4391 0.33955 0.0
C1382 C 0.15281 0.40949 0.34005 0.0
C1383 C 0.17247 0.46147 0.3295 0.0
C1384 C 0.12367 0.40276 0.33183 0.0
C1385 C 0.11884 0.42504 0.32245 0.0
H1386 H 0.36398 0.44654 0.33083 0.0
H1387 H 0.35448 0.52472 0.3329 0.0
H1388 H 0.2983 0.49335 0.33262 0.0
H1389 H 0.25172 0.44319 0.33363 0.0
H1390 H 0.26168 0.36538 0.32974 0.0
H1391 H 0.31771 0.39686 0.32841 0.0
C1392 C 0.34953 0.45665 0.33079 0.0
C1393 C 0.36325 0.48786 0.33177 0.0
C1394 C 0.31736 0.43848 0.3305 0.0
C1395 C 0.34439 0.50076 0.33184 0.0
C1396 C 0.3123 0.48282 0.33188 0.0
C1397 C 0.26632 0.43328 0.3327 0.0
C1398 C 0.25289 0.40209 0.33297 0.0
C1399 C 0.29852 0.45162 0.3316 0.0
C1400 C 0.27173 0.38935 0.33056 0.0
C1401 C 0.30369 0.40734 0.3296 0.0
H1402 H 0.51525 0.80848 0.34246 0.0
H1403 H 0.54585 0.88577 0.298 0.0
H1404 H 0.59902 0.89852 0.30456 0.0
H1405 H 0.63719 0.88588 0.32098 0.0
H1406 H 0.60351 0.80264 0.35759 0.0
H1407 H 0.55161 0.79362 0.35528 0.0
C1408 C 0.53312 0.82775 0.3335 0.0
C1409 C 0.52567 0.84569 0.31938 0.0
C1410 C 0.56359 0.83396 0.336 0.0
C1411 C 0.55017 0.87142 0.3092 0.0
C1412 C 0.58084 0.87864 0.31272 0.0
C1413 C 0.61846 0.86589 0.3286 0.0
C1414 C 0.62486 0.84578 0.3407 0.0
C1415 C 0.58785 0.85983 0.32585 0.0
C1416 C 0.60003 0.81938 0.3494 0.0
C1417 C 0.56998 0.81398 0.34781 0.0
H1418 H 0.17638 0.67085 0.34386 0.0
H1419 H 0.20918 0.70366 0.27467 0.0
H1420 H 0.19977 0.74532 0.28082 0.0
H1421 H 0.18875 0.77569 0.30785 0.0
H1422 H 0.15819 0.74402 0.37765 0.0
H1423 H 0.15995 0.69855 0.36951 0.0
C1424 C 0.18065 0.68678 0.33001 0.0
C1425 C 0.19316 0.68436 0.30882 0.0
C1426 C 0.17599 0.71101 0.33397 0.0
C1427 C 0.19924 0.70519 0.29101 0.0
C1428 C 0.19403 0.72901 0.2946 0.0
C1429 C 0.18164 0.75839 0.32102 0.0
C1430 C 0.17382 0.76323 0.34345 0.0
C1431 C 0.18328 0.73262 0.31625 0.0
C1432 C 0.16506 0.74099 0.3605 0.0
C1433 C 0.16591 0.71496 0.35578 0.0
H1434 H 0.84692 0.01862 0.35986 0.0
H1435 H 0.85719 0.99392 0.4296 0.0
H1436 H 0.80648 0.94904 0.42734 0.0
H1437 H 0.76196 0.91388 0.40367 0.0
H1438 H 0.75255 0.93801 0.33351 0.0
H1439 H 0.79985 0.98581 0.33759 0.0
C1440 C 0.83756 1.00375 0.37472 0.0
C1441 C 0.8554 0.0096 0.39497 0.0
C1442 C 0.80875 0.9776 0.37302 0.0
C1443 C 0.84353 0.98994 0.41398 0.0
C1444 C 0.81468 0.9642 0.41261 0.0
C1445 C 0.76996 0.92996 0.38952 0.0
C1446 C 0.75418 0.92225 0.36813 0.0
C1447 C 0.79742 0.95736 0.39198 0.0
C1448 C 0.76485 0.9431 0.34985 0.0
C1449 C 0.79179 0.97054 0.35226 0.0
H1450 H 0.05331 0.8766 0.36856 0.0
H1451 H 1.00073 0.79728 0.4103 0.0
H1452 H 0.04178 0.78541 0.40639 0.0
H1453 H 0.09453 0.799 0.39276 0.0
H1454 H 0.14917 0.8839 0.35925 0.0
H1455 H 0.10634 0.89285 0.35953 0.0
C1456 C 0.05064 0.85713 0.37766 0.0
C1457 C 0.02333 0.83834 0.39008 0.0
C1458 C 0.07522 0.85141 0.37687 0.0
C1459 C 0.0208 0.81234 0.40031 0.0
C1460 C 0.04463 0.80559 0.39835 0.0
C1461 C 0.09692 0.81936 0.3854 0.0
C1462 C 0.12489 0.84003 0.37464 0.0
C1463 C 0.07218 0.82516 0.38685 0.0
C1464 C 0.12787 0.86687 0.36638 0.0
C1465 C 0.10322 0.87216 0.36678 0.0
H1466 H 0.19131 0.18177 0.34702 0.0
H1467 H 0.2078 0.19708 0.42069 0.0
H1468 H 0.21529 0.24747 0.4161 0.0
H1469 H 0.21024 0.28421 0.39164 0.0
H1470 H 0.19305 0.26754 0.31783 0.0
H1471 H 0.19324 0.22092 0.32189 0.0
C1472 C 0.19722 0.19649 0.36193 0.0
C1473 C 0.19888 0.18601 0.38412 0.0
C1474 C 0.20107 0.22503 0.35915 0.0
C1475 C 0.20656 0.20498 0.40343 0.0
C1476 C 0.21061 0.23362 0.40081 0.0
C1477 C 0.20721 0.2707 0.37637 0.0
C1478 C 0.20106 0.27915 0.35456 0.0
C1479 C 0.20693 0.24352 0.37883 0.0
C1480 C 0.19731 0.2614 0.33493 0.0
C1481 C 0.19738 0.23466 0.33719 0.0
H1482 H 0.68949 0.5184 0.72164 0.0
H1483 H 0.63634 0.56307 0.72529 0.0
H1484 H 0.68112 0.60978 0.7137 0.0
H1485 H 0.7364 0.63905 0.70617 0.0
H1486 H 0.79003 0.59522 0.70157 0.0
H1487 H 0.74405 0.54702 0.70937 0.0
C1488 C 0.68754 0.5382 0.71944 0.0
C1489 C 0.65966 0.53728 0.72488 0.0
C1490 C 0.71351 0.56518 0.71264 0.0
C1491 C 0.65766 0.56325 0.7219 0.0
C1492 C 0.68323 0.58999 0.71515 0.0
C1493 C 0.73781 0.61879 0.70648 0.0
C1494 C 0.76631 0.6205 0.70304 0.0
C1495 C 0.71143 0.59138 0.71111 0.0
C1496 C 0.76815 0.59431 0.70373 0.0
C1497 C 0.74191 0.56682 0.70837 0.0
H1498 H 0.51153 0.1753 0.71637 0.0
H1499 H 0.46238 0.07953 0.72258 0.0
H1500 H 0.41487 0.07791 0.71098 0.0
H1501 H 0.38609 0.10363 0.70196 0.0
H1502 H 0.43425 0.19919 0.69582 0.0
H1503 H 0.48299 0.20098 0.7041 0.0
C1504 C 0.49054 0.15407 0.71478 0.0
C1505 C 0.4906 0.1276 0.72072 0.0
C1506 C 0.46293 0.15325 0.70817 0.0
C1507 C 0.46302 0.1003 0.7186 0.0
C1508 C 0.43576 0.09932 0.7119 0.0
C1509 C 0.40736 0.1248 0.70214 0.0
C1510 C 0.40653 0.15115 0.69784 0.0
C1511 C 0.43526 0.12564 0.70717 0.0
C1512 C 0.43421 0.17849 0.69849 0.0
C1513 C 0.46214 0.17952 0.70342 0.0
H1514 H 0.93018 0.37579 0.72691 0.0
H1515 H 0.83528 0.35133 0.71558 0.0
H1516 H 0.82601 0.30567 0.69668 0.0
H1517 H 0.8432 0.27014 0.68666 0.0
H1518 H 0.9351 0.29055 0.70434 0.0
H1519 H 0.94697 0.33995 0.71786 0.0
C1520 C 0.90727 0.36044 0.72068 0.0
C1521 C 0.88356 0.36746 0.72297 0.0
C1522 C 0.90145 0.33319 0.71105 0.0
C1523 C 0.85437 0.3473 0.71386 0.0
C1524 C 0.84883 0.32081 0.70322 0.0
C1525 C 0.86589 0.28552 0.69327 0.0
C1526 C 0.88827 0.27679 0.69452 0.0
C1527 C 0.87201 0.31324 0.70214 0.0
C1528 C 0.91751 0.29682 0.70328 0.0
C1529 C 0.92426 0.32501 0.71104 0.0
H1530 H 0.22139 0.00655 0.6075 0.0
H1531 H 0.17049 0.98159 0.67233 0.0
H1532 H 0.20797 0.0288 0.68941 0.0
H1533 H 0.2554 0.07719 0.68612 0.0
H1534 H 0.31007 0.09827 0.62357 0.0
H1535 H 0.27111 0.05231 0.60568 0.0
C1536 C 0.21857 0.01075 0.62555 0.0
C1537 C 0.19253 0.99 0.63832 0.0
C1538 C 0.24108 0.03743 0.63581 0.0
C1539 C 0.18952 0.99704 0.66158 0.0
C1540 C 0.21124 0.02406 0.67157 0.0
C1541 C 0.25922 0.07155 0.66883 0.0
C1542 C 0.28606 0.09127 0.65653 0.0
C1543 C 0.23714 0.04442 0.65886 0.0
C1544 C 0.28992 0.08365 0.63371 0.0
C1545 C 0.26754 0.05728 0.62338 0.0
H1546 H 0.01949 0.18106 0.65246 0.0
H1547 H 0.06553 0.2728 0.62992 0.0
H1548 H 0.02117 0.27713 0.64154 0.0
H1549 H 0.96779 0.25407 0.65525 0.0
H1550 H 0.92043 0.162 0.67644 0.0
H1551 H 0.96669 0.15875 0.66884 0.0
C1552 C 0.02 0.20213 0.65045 0.0
C1553 C 0.04588 0.2265 0.64004 0.0
C1554 C 0.99407 0.20443 0.65699 0.0
C1555 C 0.04589 0.25355 0.63746 0.0
C1556 C 0.02051 0.25609 0.64419 0.0
C1557 C 0.96779 0.23342 0.65856 0.0
C1558 C 0.9408 0.2085 0.66682 0.0
C1559 C 0.99425 0.23155 0.65352 0.0
C1560 C 0.94099 0.18174 0.67065 0.0
C1561 C 0.96744 0.17982 0.66604 0.0
H1562 H 0.79753 0.80452 0.62089 0.0
H1563 H 0.82924 0.85445 0.68499 0.0
H1564 H 0.83534 0.81473 0.70232 0.0
H1565 H 0.83378 0.76674 0.69881 0.0
H1566 H 0.79752 0.71492 0.63606 0.0
H1567 H 0.79055 0.75424 0.61904 0.0
C1568 C 0.80514 0.80663 0.63882 0.0
C1569 C 0.81336 0.83298 0.65132 0.0
C1570 C 0.8078 0.78326 0.64904 0.0
C1571 C 0.82359 0.83503 0.67451 0.0
C1572 C 0.82684 0.81213 0.6846 0.0
C1573 C 0.82376 0.76367 0.68163 0.0
C1574 C 0.81623 0.73769 0.6689 0.0
C1575 C 0.81936 0.78628 0.67194 0.0
C1576 C 0.80363 0.73454 0.64643 0.0
C1577 C 0.79966 0.75712 0.63657 0.0
H1578 H 0.97888 0.84496 0.66717 0.0
H1579 H 0.03579 0.81693 0.63112 0.0
H1580 H 0.99946 0.76521 0.6411 0.0
H1581 H 0.94905 0.72723 0.65742 0.0
H1582 H 0.88911 0.75659 0.6857 0.0
H1583 H 0.92844 0.80796 0.68096 0.0
C1584 C 0.98336 0.82774 0.66094 0.0
C1585 C 1.0102 0.83538 0.64801 0.0
C1586 C 0.96152 0.7979 0.66545 0.0
C1587 C 1.0157 0.81226 0.64126 0.0
C1588 C 0.99467 0.78245 0.64676 0.0
C1589 C 0.94479 0.74494 0.66277 0.0
C1590 C 0.91638 0.73771 0.67308 0.0
C1591 C 0.96718 0.77493 0.6585 0.0
C1592 C 0.91091 0.761 0.67892 0.0
C1593 C 0.93346 0.79067 0.67589 0.0
H1594 H 0.21465 0.21983 0.65808 0.0
H1595 H 0.1671 0.12384 0.65466 0.0
H1596 H 0.21539 0.12406 0.65859 0.0
H1597 H 0.27124 0.151 0.66397 0.0
H1598 H 0.32033 0.24683 0.66414 0.0
H1599 H 0.27183 0.24722 0.66014 0.0
C1600 C 0.21491 0.19903 0.65777 0.0
C1601 C 0.18691 0.17186 0.65658 0.0
C1602 C 0.24318 0.19921 0.65963 0.0
C1603 C 0.188 0.14513 0.65617 0.0
C1604 C 0.21572 0.14516 0.65834 0.0
C1605 C 0.27129 0.17195 0.66339 0.0
C1606 C 0.29923 0.19884 0.66523 0.0
C1607 C 0.24341 0.17198 0.66046 0.0
C1608 C 0.29899 0.22582 0.66331 0.0
C1609 C 0.27126 0.22604 0.66095 0.0
H1610 H 0.83964 0.01524 0.63284 0.0
H1611 H 0.89626 0.02586 0.69271 0.0
H1612 H 0.89143 0.06805 0.70586 0.0
H1613 H 0.87522 0.1041 0.69871 0.0
H1614 H 0.81908 0.09571 0.63912 0.0
H1615 H 0.81967 0.05045 0.62738 0.0
C1616 C 0.85045 0.02658 0.64893 0.0
C1617 C 0.86854 0.01766 0.66169 0.0
C1618 C 0.84792 0.05129 0.65628 0.0
C1619 C 0.88257 0.03257 0.68246 0.0
C1620 C 0.8798 0.05666 0.69 0.0
C1621 C 0.86242 0.09221 0.68347 0.0
C1622 C 0.84699 0.10343 0.67 0.0
C1623 C 0.86311 0.06656 0.6768 0.0
C1624 C 0.83115 0.08768 0.64993 0.0
C1625 C 0.83154 0.0618 0.64317 0.0
H1626 H 0.51463 0.32588 0.74361 0.0
H1627 H 0.5197 0.37381 0.68074 0.0
H1628 H 0.46917 0.33343 0.66861 0.0
H1629 H 0.4255 0.28279 0.67469 0.0
H1630 H 0.42004 0.23504 0.73771 0.0
H1631 H 0.46816 0.27736 0.75157 0.0
C1632 C 0.50431 0.32755 0.72747 0.0
C1633 C 0.52063 0.35253 0.71298 0.0
C1634 C 0.47521 0.3044 0.72077 0.0
C1635 C 0.5073 0.35473 0.69212 0.0
C1636 C 0.47853 0.33165 0.68518 0.0
C1637 C 0.43484 0.28185 0.69148 0.0
C1638 C 0.41963 0.25591 0.70509 0.0
C1639 C 0.46257 0.30614 0.69916 0.0
C1640 C 0.43135 0.25501 0.7271 0.0
C1641 C 0.45898 0.27904 0.73488 0.0
H1642 H 0.71416 0.20961 0.69161 0.0
H1643 H 0.66205 0.12943 0.73245 0.0
H1644 H 0.70377 0.11841 0.72862 0.0
H1645 H 0.75706 0.13318 0.71559 0.0
H1646 H 0.81095 0.21861 0.68264 0.0
H1647 H 0.76741 0.22653 0.68252 0.0
C1648 C 0.71174 0.19006 0.70044 0.0
C1649 C 0.68442 0.17082 0.71269 0.0
C1650 C 0.73664 0.18479 0.69962 0.0
C1651 C 0.68217 0.14481 0.72264 0.0
C1652 C 0.70637 0.13857 0.72071 0.0
C1653 C 0.75913 0.15342 0.70824 0.0
C1654 C 0.7872 0.17463 0.69789 0.0
C1655 C 0.73396 0.15861 0.70947 0.0
C1656 C 0.78968 0.20125 0.68956 0.0
C1657 C 0.76461 0.20593 0.68972 0.0
H1658 H 0.8762 0.52488 0.70848 0.0
H1659 H 0.82213 0.51311 0.77006 0.0
H1660 H 0.82822 0.56267 0.7647 0.0
H1661 H 0.84298 0.60635 0.73953 0.0
H1662 H 0.89434 0.61691 0.6767 0.0
H1663 H 0.89549 0.57114 0.68537 0.0
C1664 C 0.8665 0.53359 0.721 0.0
C1665 C 0.84878 0.51552 0.73963 0.0
C1666 C 0.86925 0.56173 0.71735 0.0
C1667 C 0.83585 0.52673 0.75559 0.0
C1668 C 0.83922 0.55498 0.75248 0.0
C1669 C 0.85517 0.599 0.72815 0.0
C1670 C 0.86835 0.61465 0.70743 0.0
C1671 C 0.85504 0.57229 0.73302 0.0
C1672 C 0.88361 0.6048 0.69254 0.0
C1673 C 0.88433 0.5787 0.69754 0.0
H1674 H 0.50073 0.93127 0.24864 0.0
H1675 H 0.40766 0.9033 0.22778 0.0
H1676 H 0.42601 0.92858 0.19038 0.0
H1677 H 0.46873 0.96007 0.16383 0.0
H1678 H 0.56157 0.98679 0.1844 0.0
H1679 H 0.54304 0.96029 0.22133 0.0
C1680 C 0.4844 0.93039 0.23584 0.0
C1681 C 0.45285 0.91562 0.24127 0.0
C1682 C 0.49508 0.9448 0.21419 0.0
C1683 C 0.43213 0.91503 0.22441 0.0
C1684 C 0.44258 0.9293 0.20287 0.0
C1685 C 0.48485 0.95974 0.17626 0.0
C1686 C 0.51653 0.97567 0.17137 0.0
C1687 C 0.47403 0.94447 0.19761 0.0
C1688 C 0.5371 0.97516 0.18782 0.0
C1689 C 0.52652 0.95993 0.20896 0.0
H1690 H 0.08231 0.50144 0.25386 0.0
H1691 H 0.15938 0.57727 0.22184 0.0
H1692 H 0.1295 0.57001 0.18643 0.0
H1693 H 0.08065 0.54377 0.1652 0.0
H1694 H 1.00328 0.46812 0.1971 0.0
H1695 H 0.03403 0.47356 0.23174 0.0
C1696 C 0.09264 0.51612 0.23901 0.0
C1697 C 0.12293 0.54003 0.24061 0.0
C1698 C 0.0752 0.51196 0.21868 0.0
C1699 C 0.13593 0.559 0.22125 0.0
C1700 C 0.11891 0.5548 0.20093 0.0
C1701 C 0.07065 0.5282 0.17958 0.0
C1702 C 0.03965 0.50566 0.17856 0.0
C1703 C 0.08839 0.53161 0.19955 0.0
C1704 C 0.02697 0.48592 0.19753 0.0
C1705 C 0.04457 0.48895 0.21733 0.0
H1706 H 0.54829 0.59546 0.24928 0.0
H1707 H 0.45052 0.54599 0.23721 0.0
H1708 H 0.45937 0.52918 0.19952 0.0
H1709 H 0.49546 0.52747 0.17044 0.0
H1710 H 0.59294 0.57872 0.18345 0.0
H1711 H 0.58356 0.59665 0.21999 0.0
C1712 C 0.52877 0.5816 0.23827 0.0
C1713 C 0.49875 0.57235 0.24612 0.0
C1714 C 0.53403 0.57234 0.21668 0.0
C1715 C 0.47389 0.55341 0.23176 0.0
C1716 C 0.47896 0.54391 0.21013 0.0
C1717 C 0.51457 0.54288 0.18117 0.0
C1718 C 0.54487 0.55147 0.17435 0.0
C1719 C 0.50899 0.55309 0.20244 0.0
C1720 C 0.56942 0.57138 0.18846 0.0
C1721 C 0.56409 0.58168 0.20936 0.0
H1722 H 0.90905 0.45078 0.81067 0.0
H1723 H 0.97073 0.43424 0.76907 0.0
H1724 H 1.00564 0.44709 0.802 0.0
H1725 H 0.0178 0.46106 0.8428 0.0
H1726 H 0.9591 0.48254 0.88361 0.0
H1727 H 0.92381 0.46936 0.8508 0.0
C1728 C 0.93038 0.4505 0.80862 0.0
C1729 C 0.93693 0.44114 0.78739 0.0
C1730 C 0.95077 0.45845 0.82757 0.0
C1731 C 0.96463 0.44066 0.78529 0.0
C1732 C 0.98475 0.44816 0.8041 0.0
C1733 C 0.99768 0.46353 0.84453 0.0
C1734 C 0.99129 0.47271 0.8659 0.0
C1735 C 0.9779 0.45678 0.82538 0.0
C1736 C 0.9645 0.47493 0.86768 0.0
C1737 C 0.94437 0.46767 0.84879 0.0
H1738 H 0.57582 0.45692 0.80498 0.0
H1739 H 0.57134 0.52764 0.7685 0.0
H1740 H 0.54557 0.53489 0.80191 0.0
H1741 H 0.52475 0.52147 0.84162 0.0
H1742 H 0.52901 0.45064 0.87813 0.0
H1743 H 0.55459 0.44323 0.84467 0.0
C1744 C 0.5689 0.47371 0.80428 0.0
C1745 C 0.57541 0.49167 0.78427 0.0
C1746 C 0.55425 0.47786 0.82361 0.0
C1747 C 0.56679 0.51368 0.78376 0.0
C1748 C 0.55199 0.51778 0.80283 0.0
C1749 C 0.53104 0.50424 0.84218 0.0
C1750 C 0.52493 0.48663 0.86237 0.0
C1751 C 0.54567 0.50006 0.82286 0.0
C1752 C 0.53374 0.46474 0.86294 0.0
C1753 C 0.5482 0.46036 0.84375 0.0
H1754 H 0.51719 0.11444 0.80224 0.0
H1755 H 0.55228 0.06435 0.76669 0.0
H1756 H 0.54089 0.03196 0.80089 0.0
H1757 H 0.5181 0.01622 0.84011 0.0
H1758 H 0.48507 0.06769 0.87629 0.0
H1759 H 0.4988 0.10149 0.84283 0.0
C1760 C 0.52247 0.0965 0.80212 0.0
C1761 C 0.53522 0.09147 0.78199 0.0
C1762 C 0.51623 0.0783 0.82194 0.0
C1763 C 0.54242 0.06852 0.78203 0.0
C1764 C 0.53583 0.05 0.80153 0.0
C1765 C 0.51419 0.03502 0.84069 0.0
C1766 C 0.50041 0.03939 0.86053 0.0
C1767 C 0.52233 0.05442 0.82145 0.0
C1768 C 0.49576 0.06398 0.86123 0.0
C1769 C 0.50343 0.08317 0.84207 0.0
H1770 H 0.16725 0.26567 0.5835 0.0
H1771 H 0.0736 0.22509 0.55954 0.0
H1772 H 0.09093 0.25033 0.52196 0.0
H1773 H 0.13244 0.28761 0.49697 0.0
H1774 H 0.22604 0.32868 0.52117 0.0
H1775 H 0.20914 0.29961 0.55715 0.0
C1776 C 0.15071 0.26193 0.56989 0.0
C1777 C 0.11914 0.24374 0.57451 0.0
C1778 C 0.16084 0.27691 0.54829 0.0
C1779 C 0.09802 0.23933 0.55665 0.0
C1780 C 0.10791 0.25375 0.53509 0.0
C1781 C 0.14917 0.28976 0.50992 0.0
C1782 C 0.18046 0.31061 0.50638 0.0
C1783 C 0.13922 0.27316 0.53086 0.0
C1784 C 0.20177 0.31319 0.52352 0.0
C1785 C 0.19212 0.29651 0.54415 0.0
H1786 H 0.77681 0.84248 0.57433 0.0
H1787 H 0.75427 0.90425 0.60679 0.0
H1788 H 0.72166 0.89998 0.57367 0.0
H1789 H 0.7012 0.88027 0.53492 0.0
H1790 H 0.72368 0.81862 0.50211 0.0
H1791 H 0.75495 0.82152 0.5358 0.0
C1792 C 0.76437 0.85463 0.57427 0.0
C1793 C 0.76787 0.8736 0.59299 0.0
C1794 C 0.74597 0.85237 0.55501 0.0
C1795 C 0.75205 0.88963 0.59253 0.0
C1796 C 0.73342 0.8872 0.57361 0.0
C1797 C 0.7126 0.86715 0.53524 0.0
C1798 C 0.71002 0.84921 0.516 0.0
C1799 C 0.73046 0.86888 0.55466 0.0
C1800 C 0.72552 0.83286 0.51654 0.0
C1801 C 0.74325 0.83436 0.53588 0.0
H1802 H 0.20721 0.92053 0.58928 0.0
H1803 H 0.11841 0.89562 0.55983 0.0
H1804 H 0.13144 0.87789 0.52479 0.0
H1805 H 0.16838 0.8702 0.50193 0.0
H1806 H 0.25894 0.89995 0.52993 0.0
H1807 H 0.24494 0.9154 0.56573 0.0
C1808 C 0.19074 0.91158 0.57516 0.0
C1809 C 0.16173 0.90936 0.57753 0.0
C1810 C 0.19873 0.90233 0.55458 0.0
C1811 C 0.14064 0.89705 0.55899 0.0
C1812 C 0.1482 0.88718 0.5387 0.0
C1813 C 0.18522 0.8804 0.5157 0.0
C1814 C 0.21459 0.88351 0.51316 0.0
C1815 C 0.17726 0.88987 0.53622 0.0
C1816 C 0.23591 0.89654 0.53146 0.0
C1817 C 0.22801 0.90561 0.55197 0.0
H1818 H 0.58533 0.79053 0.14393 0.0
H1819 H 0.65145 0.77766 0.10506 0.0
H1820 H 0.6863 0.79486 0.13826 0.0
H1821 H 0.69566 0.80861 0.17916 0.0
H1822 H 0.63228 0.82633 0.2174 0.0
H1823 H 0.59843 0.81155 0.1836 0.0
C1824 C 0.60769 0.79222 0.14249 0.0
C1825 C 0.6155 0.78229 0.12214 0.0
C1826 C 0.62781 0.80235 0.16166 0.0
C1827 C 0.64454 0.7845 0.12069 0.0
C1828 C 0.66451 0.79437 0.13966 0.0
C1829 C 0.67496 0.81018 0.18013 0.0
C1830 C 0.66666 0.81837 0.20117 0.0
C1831 C 0.65603 0.80258 0.16042 0.0
C1832 C 0.63911 0.81936 0.20183 0.0
C1833 C 0.6198 0.81121 0.18236 0.0
H1834 H 0.2797 0.8436 0.14089 0.0
H1835 H 0.19369 0.78416 0.10729 0.0
H1836 H 0.16557 0.7857 0.14144 0.0
H1837 H 0.16518 0.80453 0.18049 0.0
H1838 H 0.25084 0.86488 0.21404 0.0
H1839 H 0.27928 0.86227 0.18035 0.0
C1840 C 0.2548 0.83113 0.141 0.0
C1841 C 0.23886 0.81379 0.12152 0.0
C1842 C 0.23869 0.83224 0.1607 0.0
C1843 C 0.20658 0.7974 0.12212 0.0
C1844 C 0.19044 0.7984 0.1416 0.0
C1845 C 0.19008 0.81731 0.18037 0.0
C1846 C 0.20582 0.83501 0.19973 0.0
C1847 C 0.20624 0.81584 0.16092 0.0
C1848 C 0.23812 0.8509 0.19947 0.0
C1849 C 0.2544 0.84955 0.18015 0.0
H1850 H 0.1596 0.38791 0.12358 0.0
H1851 H 0.25341 0.45048 0.14225 0.0
H1852 H 0.2479 0.42181 0.17769 0.0
H1853 H 0.21624 0.37807 0.20332 0.0
H1854 H 0.1214 0.31888 0.1851 0.0
H1855 H 0.12734 0.3479 0.15013 0.0
C1856 C 0.1788 0.39593 0.13554 0.0
C1857 C 0.20687 0.42163 0.12999 0.0
C1858 C 0.17523 0.37993 0.15621 0.0
C1859 C 0.2316 0.43064 0.14563 0.0
C1860 C 0.22838 0.41438 0.16612 0.0
C1861 C 0.19678 0.37184 0.19187 0.0
C1862 C 0.16853 0.34593 0.19672 0.0
C1863 C 0.20027 0.38889 0.17161 0.0
C1864 C 0.14359 0.33824 0.18162 0.0
C1865 C 0.14693 0.35488 0.16158 0.0
H1866 H 0.82348 0.59717 0.92051 0.0
H1867 H 0.72969 0.55854 0.89707 0.0
H1868 H 0.74691 0.58787 0.86121 0.0
H1869 H 0.78867 0.62586 0.83677 0.0
H1870 H 0.88228 0.66465 0.86051 0.0
H1871 H 0.8652 0.63368 0.89558 0.0
C1872 C 0.80682 0.59497 0.90748 0.0
C1873 C 0.77529 0.57584 0.9117 0.0
C1874 C 0.81688 0.61194 0.8868 0.0
C1875 C 0.75406 0.57351 0.8946 0.0
C1876 C 0.7639 0.59013 0.87395 0.0
C1877 C 0.8053 0.6272 0.8495 0.0
C1878 C 0.83669 0.64762 0.84605 0.0
C1879 C 0.79525 0.60959 0.86989 0.0
C1880 C 0.85796 0.64932 0.86284 0.0
C1881 C 0.84821 0.63161 0.88291 0.0
H1882 H 0.41381 0.21778 0.91509 0.0
H1883 H 0.45814 0.17106 0.88796 0.0
H1884 H 0.43075 0.16294 0.85105 0.0
H1885 H 0.39159 0.16616 0.82745 0.0
H1886 H 0.34669 0.21229 0.85477 0.0
H1887 H 0.37688 0.22361 0.89053 0.0
C1888 C 0.41781 0.20625 0.90094 0.0
C1889 C 0.4378 0.19487 0.9043 0.0
C1890 C 0.40166 0.2013 0.87986 0.0
C1891 C 0.44256 0.17971 0.8859 0.0
C1892 C 0.42695 0.17509 0.86478 0.0
C1893 C 0.38875 0.17908 0.84108 0.0
C1894 C 0.36674 0.18816 0.83848 0.0
C1895 C 0.40603 0.18532 0.86171 0.0
C1896 C 0.36313 0.20462 0.85646 0.0
C1897 C 0.38048 0.21122 0.87689 0.0
H1898 H 0.7929 0.22679 0.89901 0.0
H1899 H 0.87456 0.24496 0.9372 0.0
H1900 H 0.89516 0.23353 0.90293 0.0
H1901 H 0.89131 0.22022 0.86211 0.0
H1902 H 0.80869 0.19781 0.82362 0.0
H1903 H 0.78766 0.20987 0.85775 0.0
C1904 C 0.81499 0.22785 0.89988 0.0
C1905 C 0.83231 0.23719 0.92066 0.0
C1906 C 0.82681 0.22093 0.87996 0.0
C1907 C 0.86098 0.23849 0.92138 0.0
C1908 C 0.87281 0.23187 0.90178 0.0
C1909 C 0.8684 0.21729 0.86113 0.0
C1910 C 0.85165 0.20779 0.84016 0.0
C1911 C 0.8561 0.22337 0.88095 0.0
C1912 C 0.82242 0.20534 0.83932 0.0
C1913 C 0.8102 0.21197 0.85896 0.0
H1914 H 0.25053 0.12686 0.46933 0.0
H1915 H 0.31393 0.10744 0.43313 0.0
H1916 H 0.34995 0.12777 0.46555 0.0
H1917 H 0.3631 0.15019 0.50441 0.0
H1918 H 0.30104 0.17216 0.53974 0.0
H1919 H 0.26492 0.15172 0.50738 0.0
C1920 C 0.27241 0.12745 0.46835 0.0
C1921 C 0.27939 0.11549 0.44882 0.0
C1922 C 0.29323 0.1395 0.48695 0.0
C1923 C 0.30769 0.11604 0.4481 0.0
C1924 C 0.32841 0.12782 0.46657 0.0
C1925 C 0.3419 0.15094 0.50492 0.0
C1926 C 0.33482 0.16261 0.52459 0.0
C1927 C 0.32137 0.13949 0.48612 0.0
C1928 C 0.30692 0.16286 0.52505 0.0
C1929 C 0.2863 0.15135 0.50646 0.0
H1930 H 0.92108 0.1264 0.47218 0.0
H1931 H 0.92383 0.19845 0.43229 0.0
H1932 H 0.90126 0.21108 0.46504 0.0
H1933 H 0.88024 0.20132 0.50485 0.0
H1934 H 0.87709 0.12899 0.54465 0.0
H1935 H 0.90061 0.11702 0.51221 0.0
C1936 C 0.91647 0.1447 0.47059 0.0
C1937 C 0.92391 0.16132 0.44975 0.0
C1938 C 0.90362 0.15191 0.48953 0.0
C1939 C 0.91841 0.18537 0.44815 0.0
C1940 C 0.90544 0.19256 0.46685 0.0
C1941 C 0.88455 0.18284 0.50639 0.0
C1942 C 0.87679 0.16604 0.52717 0.0
C1943 C 0.89789 0.17594 0.4876 0.0
C1944 C 0.8831 0.14251 0.529 0.0
C1945 C 0.89635 0.1355 0.51037 0.0
H1946 H 0.89624 0.74094 0.45438 0.0
H1947 H 0.85643 0.7924 0.48006 0.0
H1948 H 0.84513 0.76625 0.51744 0.0
H1949 H 0.84281 0.72604 0.54173 0.0
H1950 H 0.88019 0.67267 0.51558 0.0
H1951 H 0.89631 0.7022 0.47966 0.0
C1952 C 0.8855 0.74663 0.46833 0.0
C1953 C 0.87702 0.76839 0.46451 0.0
C1954 C 0.87843 0.731 0.48964 0.0
C1955 C 0.8629 0.77549 0.4826 0.0
C1956 C 0.85645 0.76058 0.50396 0.0
C1957 C 0.85497 0.72125 0.52833 0.0
C1958 C 0.86025 0.69721 0.53127 0.0
C1959 C 0.86356 0.73789 0.50753 0.0
C1960 C 0.87565 0.69095 0.51362 0.0
C1961 C 0.88489 0.70783 0.49309 0.0
loop_
_geom_bond_atom_site_label_1
_geom_bond_atom_site_label_2
_geom_bond_distance
_geom_bond_site_symmetry_2
_ccdc_geom_bond_type
H0 C1 0.949 . S
C1 H0 0.949 . S
C1 C2 1.395 . S
C1 C3 1.391 . S
C2 C1 1.395 . S
C2 C5 1.390 . S
C3 C1 1.391 . S
C3 C7 1.387 . S
C3 C8 1.491 . S
H4 C5 0.950 . S
C5 C2 1.390 . S
C5 H4 0.950 . S
C5 C6 1.378 . S
C6 C5 1.378 . S
C6 C7 1.409 . S
C7 C3 1.387 . S
C7 C6 1.409 . S
C7 H9 0.951 . S
C8 C3 1.491 . S
C8 C10 1.382 . S
C8 C12 1.404 . S
H9 C7 0.951 . S
C10 C8 1.382 . S
C10 C11 1.390 . S
C10 H15 0.949 . S
C11 C10 1.390 . S
C11 C16 1.399 . S
C12 C8 1.404 . S
C12 H13 0.950 . S
C12 C14 1.375 . S
H13 C12 0.950 . S
C14 C12 1.375 . S
C14 C16 1.382 . S
C14 H18 0.950 . S
H15 C10 0.949 . S
C16 C11 1.399 . S
C16 C14 1.382 . S
C16 H17 0.952 . S
H17 C16 0.952 . S
H18 C14 0.950 . S
H19 C20 0.949 . S
C20 H19 0.949 . S
C20 C21 1.395 . S
C20 C22 1.391 . S
C21 C20 1.395 . S
C21 C24 1.390 . S
C22 C20 1.391 . S
C22 C26 1.387 . S
C22 C27 1.491 . S
H23 C24 0.950 . S
C24 C21 1.390 . S
C24 H23 0.950 . S
C24 C25 1.378 . S
C25 C24 1.378 . S
C25 C26 1.409 . S
C26 C22 1.387 . S
C26 C25 1.409 . S
C26 H28 0.951 . S
C27 C22 1.491 . S
C27 C29 1.382 . S
C27 C31 1.404 . S
H28 C26 0.951 . S
C29 C27 1.382 . S
C29 C30 1.390 . S
C29 H34 0.949 . S
C30 C29 1.390 . S
C30 C35 1.411 . S
C31 C27 1.404 . S
C31 H32 0.950 . S
C31 C33 1.375 . S
H32 C31 0.950 . S
C33 C31 1.375 . S
C33 C35 1.386 . S
C33 H37 0.950 . S
H34 C29 0.949 . S
C35 C30 1.411 . S
C35 C33 1.386 . S
C35 H36 0.937 1_545 S
H36 C35 0.937 1_565 S
H37 C33 0.950 . S
H38 C39 0.949 . S
C39 H38 0.949 . S
C39 C40 1.395 . S
C39 C41 1.391 . S
C40 C39 1.395 . S
C40 C43 1.390 . S
C41 C39 1.391 . S
C41 C45 1.387 . S
C41 C46 1.491 . S
H42 C43 0.950 . S
C43 C40 1.390 . S
C43 H42 0.950 . S
C43 C44 1.378 . S
C44 C43 1.378 . S
C44 C45 1.409 . S
C45 C41 1.387 . S
C45 C44 1.409 . S
C45 H47 0.951 . S
C46 C41 1.491 . S
C46 C48 1.382 . S
C46 C50 1.404 . S
H47 C45 0.951 . S
C48 C46 1.382 . S
C48 C49 1.390 1_655 S
C48 H53 0.949 . S
C49 C48 1.390 1_455 S
C49 C54 1.399 . S
C50 C46 1.404 . S
C50 H51 0.950 . S
C50 C52 1.375 . S
H51 C50 0.950 . S
C52 C50 1.375 . S
C52 C54 1.382 1_655 S
C52 H56 0.944 . S
H53 C48 0.949 . S
C54 C49 1.399 . S
C54 C52 1.382 1_455 S
C54 H55 0.952 . S
H55 C54 0.952 . S
H56 C52 0.944 . S
H57 C58 0.949 . S
C58 H57 0.949 . S
C58 C59 1.395 . S
C58 C60 1.391 . S
C59 C58 1.395 . S
C59 C62 1.390 . S
C60 C58 1.391 . S
C60 C64 1.387 . S
C60 C65 1.491 . S
H61 C62 0.950 . S
C62 C59 1.390 . S
C62 H61 0.950 . S
C62 C63 1.378 . S
C63 C62 1.378 . S
C63 C64 1.409 . S
C64 C60 1.387 . S
C64 C63 1.409 . S
C64 H66 0.951 . S
C65 C60 1.491 . S
C65 C67 1.382 . S
C65 C69 1.404 . S
H66 C64 0.951 . S
C67 C65 1.382 . S
C67 C68 1.390 . S
C67 H72 0.949 . S
C68 C67 1.390 . S
C68 C73 1.399 . S
C69 C65 1.404 . S
C69 H70 0.950 . S
C69 C71 1.375 . S
H70 C69 0.950 . S
C71 C69 1.375 . S
C71 C73 1.382 . S
C71 H75 0.950 . S
H72 C67 0.949 . S
C73 C68 1.399 . S
C73 C71 1.382 . S
C73 H74 0.952 . S
H74 C73 0.952 . S
H75 C71 0.950 . S
H76 C77 0.949 . S
C77 H76 0.949 . S
C77 C78 1.395 . S
C77 C79 1.391 . S
C78 C77 1.395 . S
C78 C81 1.390 . S
C79 C77 1.391 . S
C79 C83 1.387 . S
C79 C84 1.491 . S
H80 C81 0.950 . S
C81 C78 1.390 . S
C81 H80 0.950 . S
C81 C82 1.378 . S
C82 C81 1.378 . S
C82 C83 1.409 . S
C83 C79 1.387 . S
C83 C82 1.409 . S
C83 H85 0.951 . S
C84 C79 1.491 . S
C84 C86 1.382 . S
C84 C88 1.404 . S
H85 C83 0.951 . S
C86 C84 1.382 . S
C86 C87 1.390 . S
C86 H91 0.949 . S
C87 C86 1.390 . S
C87 C92 1.399 1_565 S
C88 C84 1.404 . S
C88 H89 0.950 . S
C88 C90 1.375 . S
H89 C88 0.950 . S
C90 C88 1.375 . S
C90 C92 1.382 1_565 S
C90 H94 0.950 . S
H91 C86 0.949 . S
C92 C87 1.399 1_545 S
C92 C90 1.382 1_545 S
C92 H93 0.952 . S
H93 C92 0.952 . S
H94 C90 0.950 . S
H95 C96 0.949 . S
C96 H95 0.949 . S
C96 C97 1.395 . S
C96 C98 1.391 . S
C97 C96 1.395 . S
C97 C100 1.390 . S
C98 C96 1.391 . S
C98 C102 1.387 . S
C98 C103 1.491 . S
H99 C100 0.950 . S
C100 C97 1.390 . S
C100 H99 0.950 . S
C100 C101 1.378 . S
C101 C100 1.378 . S
C101 C102 1.409 . S
C102 C98 1.387 . S
C102 C101 1.409 . S
C102 H104 0.951 . S
C103 C98 1.491 . S
C103 C105 1.382 . S
C103 C107 1.404 . S
H104 C102 0.951 . S
C105 C103 1.382 . S
C105 C106 1.390 . S
C105 H110 0.949 . S
C106 C105 1.390 . S
C106 C111 1.399 1_455 S
C107 C103 1.404 . S
C107 H108 0.950 . S
C107 C109 1.375 . S
H108 C107 0.950 . S
C109 C107 1.375 . S
C109 C111 1.382 1_455 S
C109 H113 0.950 . S
H110 C105 0.949 . S
C111 C106 1.399 1_655 S
C111 C109 1.382 1_655 S
C111 H112 0.952 . S
H112 C111 0.952 . S
H113 C109 0.950 . S
H114 C115 0.949 . S
C115 H114 0.949 . S
C115 C116 1.395 . S
C115 C117 1.391 . S
C116 C115 1.395 . S
C116 C119 1.390 . S
C117 C115 1.391 . S
C117 C121 1.387 . S
C117 C122 1.491 . S
H118 C119 0.950 . S
C119 C116 1.390 . S
C119 H118 0.950 . S
C119 C120 1.378 . S
C120 C119 1.378 . S
C120 C121 1.409 . S
C121 C117 1.387 . S
C121 C120 1.409 . S
C121 H123 0.951 . S
C122 C117 1.491 . S
C122 C124 1.382 . S
C122 C126 1.404 . S
H123 C121 0.951 . S
C124 C122 1.382 . S
C124 C125 1.390 . S
C124 H129 0.949 . S
C125 C124 1.390 . S
C125 C130 1.399 . S
C126 C122 1.404 . S
C126 H127 0.950 . S
C126 C128 1.375 . S
H127 C126 0.950 . S
C128 C126 1.375 . S
C128 C130 1.382 . S
C128 H132 0.950 . S
H129 C124 0.949 . S
C130 C125 1.399 . S
C130 C128 1.382 . S
C130 H131 0.952 . S
H131 C130 0.952 . S
H132 C128 0.950 . S
H133 C134 0.949 . S
C134 H133 0.949 . S
C134 C135 1.395 . S
C134 C136 1.391 . S
C135 C134 1.395 . S
C135 C138 1.390 . S
C136 C134 1.391 . S
C136 C140 1.387 . S
C136 C141 1.491 . S
H137 C138 0.950 . S
C138 C135 1.390 . S
C138 H137 0.950 . S
C138 C139 1.378 . S
C139 C138 1.378 . S
C139 C140 1.409 . S
C140 C136 1.387 . S
C140 C139 1.409 . S
C140 H142 0.951 . S
C141 C136 1.491 . S
C141 C143 1.382 . S
C141 C145 1.404 . S
H142 C140 0.951 . S
C143 C141 1.382 . S
C143 C144 1.390 . S
C143 H148 0.949 . S
C144 C143 1.390 . S
C144 C149 1.399 . S
C145 C141 1.404 . S
C145 H146 0.950 . S
C145 C147 1.375 . S
H146 C145 0.950 . S
C147 C145 1.375 . S
C147 C149 1.382 . S
C147 H151 0.950 . S
H148 C143 0.949 . S
C149 C144 1.399 . S
C149 C147 1.382 . S
C149 H150 0.952 . S
H150 C149 0.952 . S
H151 C147 0.950 . S
H152 C153 0.949 . S
C153 H152 0.949 . S
C153 C154 1.395 . S
C153 C155 1.391 . S
C154 C153 1.395 . S
C154 C157 1.390 . S
C155 C153 1.391 . S
C155 C159 1.387 . S
C155 C160 1.491 . S
H156 C157 0.950 . S
C157 C154 1.390 . S
C157 H156 0.950 . S
C157 C158 1.378 . S
C158 C157 1.378 . S
C158 C159 1.409 . S
C159 C155 1.387 . S
C159 C158 1.409 . S
C159 H161 0.951 . S
C160 C155 1.491 . S
C160 C162 1.382 . S
C160 C164 1.404 . S
H161 C159 0.951 . S
C162 C160 1.382 . S
C162 C163 1.390 . S
C162 H167 0.949 . S
C163 C162 1.390 . S
C163 C168 1.399 . S
C164 C160 1.404 . S
C164 H165 0.950 . S
C164 C166 1.375 . S
H165 C164 0.950 . S
C166 C164 1.375 . S
C166 C168 1.382 . S
C166 H170 0.950 . S
H167 C162 0.949 . S
C168 C163 1.399 . S
C168 C166 1.382 . S
C168 H169 0.952 . S
H169 C168 0.952 . S
H170 C166 0.950 . S
H171 C172 0.949 . S
C172 H171 0.949 . S
C172 C173 1.395 . S
C172 C174 1.391 . S
C173 C172 1.395 . S
C173 C176 1.390 . S
C174 C172 1.391 . S
C174 C178 1.387 . S
C174 C179 1.491 . S
H175 C176 0.950 . S
C176 C173 1.390 . S
C176 H175 0.950 . S
C176 C177 1.378 . S
C177 C176 1.378 . S
C177 C178 1.409 . S
C178 C174 1.387 . S
C178 C177 1.409 . S
C178 H180 0.951 . S
C179 C174 1.491 . S
C179 C181 1.382 . S
C179 C183 1.404 . S
H180 C178 0.951 . S
C181 C179 1.382 . S
C181 C182 1.390 . S
C181 H186 0.949 . S
C182 C181 1.390 . S
C182 C187 1.399 . S
C183 C179 1.404 . S
C183 H184 0.950 . S
C183 C185 1.375 . S
H184 C183 0.950 . S
C185 C183 1.375 . S
C185 C187 1.382 . S
C185 H189 0.951 1_556 S
H186 C181 0.949 . S
C187 C182 1.399 . S
C187 C185 1.382 . S
C187 H188 0.952 . S
H188 C187 0.952 . S
H189 C185 0.951 1_554 S
H190 C191 0.949 . S
C191 H190 0.949 . S
C191 C192 1.395 . S
C191 C193 1.391 . S
C192 C191 1.395 . S
C192 C195 1.390 . S
C193 C191 1.391 . S
C193 C197 1.387 . S
C193 C198 1.491 . S
H194 C195 0.950 . S
C195 C192 1.390 . S
C195 H194 0.950 . S
C195 C196 1.378 . S
C196 C195 1.378 . S
C196 C197 1.409 . S
C197 C193 1.387 . S
C197 C196 1.409 . S
C197 H199 0.951 . S
C198 C193 1.491 . S
C198 C200 1.382 . S
C198 C202 1.404 . S
H199 C197 0.951 . S
C200 C198 1.382 . S
C200 C201 1.390 . S
C200 H205 0.949 . S
C201 C200 1.390 . S
C201 C206 1.396 1_556 S
C202 C198 1.404 . S
C202 H203 0.950 . S
C202 C204 1.375 1_556 S
H203 C202 0.950 . S
C204 C202 1.375 1_554 S
C204 C206 1.383 . S
C204 H208 0.950 . S
H205 C200 0.949 . S
C206 C201 1.396 1_554 S
C206 C204 1.383 . S
C206 H207 0.954 . S
H207 C206 0.954 . S
H208 C204 0.950 . S
H209 C210 0.949 . S
C210 H209 0.949 . S
C210 C211 1.395 . S
C210 C212 1.391 . S
C211 C210 1.395 . S
C211 C214 1.390 . S
C212 C210 1.391 . S
C212 C216 1.387 . S
C212 C217 1.491 . S
H213 C214 0.950 . S
C214 C211 1.390 . S
C214 H213 0.950 . S
C214 C215 1.378 . S
C215 C214 1.378 . S
C215 C216 1.409 . S
C216 C212 1.387 . S
C216 C215 1.409 . S
C216 H218 0.951 . S
C217 C212 1.491 . S
C217 C219 1.382 . S
C217 C221 1.404 . S
H218 C216 0.951 . S
C219 C217 1.382 . S
C219 C220 1.390 . S
C219 H224 0.949 . S
C220 C219 1.390 . S
C220 C225 1.399 . S
C221 C217 1.404 . S
C221 H222 0.950 . S
C221 C223 1.375 . S
H222 C221 0.950 . S
C223 C221 1.375 . S
C223 C225 1.382 . S
C223 H227 0.950 1_556 S
H224 C219 0.949 . S
C225 C220 1.399 . S
C225 C223 1.382 . S
C225 H226 0.952 1_556 S
H226 C225 0.952 1_554 S
H227 C223 0.950 1_554 S
H228 C229 0.949 . S
C229 H228 0.949 . S
C229 C230 1.395 . S
C229 C231 1.391 . S
C230 C229 1.395 . S
C230 C233 1.390 . S
C231 C229 1.391 . S
C231 C235 1.387 . S
C231 C236 1.491 . S
H232 C233 0.950 . S
C233 C230 1.390 . S
C233 H232 0.950 . S
C233 C234 1.378 . S
C234 C233 1.378 . S
C234 C235 1.409 . S
C235 C231 1.387 . S
C235 C234 1.409 . S
C235 H237 0.951 . S
C236 C231 1.491 . S
C236 C238 1.382 . S
C236 C240 1.404 . S
H237 C235 0.951 . S
C238 C236 1.382 . S
C238 C239 1.390 . S
C238 H243 0.949 . S
C239 C238 1.390 . S
C239 C244 1.399 . S
C240 C236 1.404 . S
C240 H241 0.950 . S
C240 C242 1.375 . S
H241 C240 0.950 . S
C242 C240 1.375 . S
C242 C244 1.382 . S
C242 H246 0.950 . S
H243 C238 0.949 . S
C244 C239 1.399 . S
C244 C242 1.382 . S
C244 H245 0.952 . S
H245 C244 0.952 . S
H246 C242 0.950 . S
H247 C248 0.949 . S
C248 H247 0.949 . S
C248 C249 1.395 . S
C248 C250 1.391 . S
C249 C248 1.395 . S
C249 C252 1.390 . S
C250 C248 1.391 . S
C250 C254 1.387 . S
C250 C255 1.491 . S
H251 C252 0.950 . S
C252 C249 1.390 . S
C252 H251 0.950 . S
C252 C253 1.378 . S
C253 C252 1.378 . S
C253 C254 1.409 . S
C254 C250 1.387 . S
C254 C253 1.409 . S
C254 H256 0.951 . S
C255 C250 1.491 . S
C255 C257 1.382 . S
C255 C259 1.404 . S
H256 C254 0.951 . S
C257 C255 1.382 . S
C257 C258 1.390 . S
C257 H262 0.949 . S
C258 C257 1.390 . S
C258 C263 1.399 . S
C259 C255 1.404 . S
C259 H260 0.950 . S
C259 C261 1.375 . S
H260 C259 0.950 . S
C261 C259 1.375 . S
C261 C263 1.382 . S
C261 H265 0.950 . S
H262 C257 0.949 . S
C263 C258 1.399 . S
C263 C261 1.382 . S
C263 H264 0.952 . S
H264 C263 0.952 . S
H265 C261 0.950 . S
H266 C267 0.949 . S
C267 H266 0.949 . S
C267 C268 1.395 . S
C267 C269 1.391 . S
C268 C267 1.395 . S
C268 C271 1.390 . S
C269 C267 1.391 . S
C269 C273 1.387 . S
C269 C274 1.491 . S
H270 C271 0.950 . S
C271 C268 1.390 . S
C271 H270 0.950 . S
C271 C272 1.378 . S
C272 C271 1.378 . S
C272 C273 1.409 . S
C273 C269 1.387 . S
C273 C272 1.409 . S
C273 H275 0.951 . S
C274 C269 1.491 . S
C274 C276 1.382 . S
C274 C278 1.404 . S
H275 C273 0.951 . S
C276 C274 1.382 . S
C276 C277 1.390 . S
C276 H281 0.949 . S
C277 C276 1.390 . S
C277 C282 1.399 . S
C278 C274 1.404 . S
C278 H279 0.950 . S
C278 C280 1.375 . S
H279 C278 0.950 . S
C280 C278 1.375 . S
C280 C282 1.382 . S
C280 H284 0.950 . S
H281 C276 0.949 . S
C282 C277 1.399 . S
C282 C280 1.382 . S
C282 H283 0.952 . S
H283 C282 0.952 . S
H284 C280 0.950 . S
H285 C286 0.949 . S
C286 H285 0.949 . S
C286 C287 1.395 . S
C286 C288 1.391 . S
C287 C286 1.395 . S
C287 C290 1.390 . S
C288 C286 1.391 . S
C288 C292 1.387 . S
C288 C293 1.491 . S
H289 C290 0.950 . S
C290 C287 1.390 . S
C290 H289 0.950 . S
C290 C291 1.378 . S
C291 C290 1.378 . S
C291 C292 1.409 . S
C292 C288 1.387 . S
C292 C291 1.409 . S
C292 H294 0.951 . S
C293 C288 1.491 . S
C293 C295 1.382 . S
C293 C297 1.404 . S
H294 C292 0.951 . S
C295 C293 1.382 . S
C295 C296 1.390 . S
C295 H300 0.949 . S
C296 C295 1.390 . S
C296 C301 1.399 . S
C297 C293 1.404 . S
C297 H298 0.950 . S
C297 C299 1.375 . S
H298 C297 0.950 . S
C299 C297 1.375 . S
C299 C301 1.382 . S
C299 H303 0.950 . S
H300 C295 0.949 . S
C301 C296 1.399 . S
C301 C299 1.382 . S
C301 H302 0.952 . S
H302 C301 0.952 . S
H303 C299 0.950 . S
H304 C305 0.949 . S
C305 H304 0.949 . S
C305 C306 1.395 . S
C305 C307 1.391 . S
C306 C305 1.395 . S
C306 C309 1.390 . S
C307 C305 1.391 . S
C307 C311 1.387 . S
C307 C312 1.491 . S
H308 C309 0.950 . S
C309 C306 1.390 . S
C309 H308 0.950 . S
C309 C310 1.378 . S
C310 C309 1.378 . S
C310 C311 1.409 . S
C311 C307 1.387 . S
C311 C310 1.409 . S
C311 H313 0.951 . S
C312 C307 1.491 . S
C312 C314 1.382 . S
C312 C316 1.404 . S
H313 C311 0.951 . S
C314 C312 1.382 . S
C314 C315 1.390 . S
C314 H319 0.949 . S
C315 C314 1.390 . S
C315 C320 1.399 . S
C316 C312 1.404 . S
C316 H317 0.950 . S
C316 C318 1.375 . S
H317 C316 0.950 . S
C318 C316 1.375 . S
C318 C320 1.382 . S
C318 H322 0.950 . S
H319 C314 0.949 . S
C320 C315 1.399 . S
C320 C318 1.382 . S
C320 H321 0.952 . S
H321 C320 0.952 . S
H322 C318 0.950 . S
H323 C324 0.949 . S
C324 H323 0.949 . S
C324 C325 1.395 . S
C324 C326 1.391 . S
C325 C324 1.395 . S
C325 C328 1.390 . S
C326 C324 1.391 . S
C326 C330 1.387 . S
C326 C331 1.491 . S
H327 C328 0.950 . S
C328 C325 1.390 . S
C328 H327 0.950 . S
C328 C329 1.378 . S
C329 C328 1.378 . S
C329 C330 1.409 . S
C330 C326 1.387 . S
C330 C329 1.409 . S
C330 H332 0.951 . S
C331 C326 1.491 . S
C331 C333 1.382 . S
C331 C335 1.404 . S
H332 C330 0.951 . S
C333 C331 1.382 . S
C333 C334 1.390 . S
C333 H338 0.949 . S
C334 C333 1.390 . S
C334 C339 1.399 . S
C335 C331 1.404 . S
C335 H336 0.950 . S
C335 C337 1.375 . S
H336 C335 0.950 . S
C337 C335 1.375 . S
C337 C339 1.382 . S
C337 H341 0.950 . S
H338 C333 0.949 . S
C339 C334 1.399 . S
C339 C337 1.382 . S
C339 H340 0.952 . S
H340 C339 0.952 . S
H341 C337 0.950 . S
Tb342 N373 2.660 . S
Tb342 N380 2.600 . S
Tb342 O386 2.546 . S
Tb342 O387 2.610 1_566 S
Tb342 O389 2.320 1_565 S
Tb342 O390 2.552 1_565 S
Tb342 O391 2.413 1_565 S
Tb342 O393 2.362 1_556 S
Tb342 O394 2.421 . S
Tb342 C406 2.833 1_565 S
C343 C346 1.432 . S
C343 C347 1.414 . S
C343 N350 1.359 . S
C344 C346 1.417 . S
C344 C348 1.432 . S
C344 C356 1.410 . S
C345 C347 1.444 . S
C345 C348 1.317 . S
C345 H368 0.929 . S
C346 C343 1.432 . S
C346 C344 1.417 . S
C346 N354 1.360 . S
C347 C343 1.414 . S
C347 C345 1.444 . S
C347 C352 1.385 . S
C348 C344 1.432 . S
C348 C345 1.317 . S
C348 H360 0.930 . S
C349 C351 1.392 . S
C349 C352 1.370 . S
C349 H361 0.931 . S
N350 C343 1.359 . S
N350 C351 1.327 . S
N350 Tb353 2.600 . S
C351 C349 1.392 . S
C351 N350 1.327 . S
C351 H358 0.930 . S
C352 C347 1.385 . S
C352 C349 1.370 . S
C352 H371 0.930 . S
Tb353 N350 2.600 . S
Tb353 N354 2.660 . S
Tb353 O387 2.362 . S
Tb353 O388 2.421 . S
Tb353 O392 2.546 . S
Tb353 O393 2.610 1_545 S
Tb353 O395 2.320 1_545 S
Tb353 O396 2.552 1_545 S
Tb353 O397 2.413 1_545 S
Tb353 C417 2.832 1_545 S
N354 C346 1.360 . S
N354 Tb353 2.660 . S
N354 C355 1.305 . S
C355 N354 1.305 . S
C355 C357 1.407 . S
C355 H362 0.930 . S
C356 C344 1.410 . S
C356 C357 1.345 . S
C356 H364 0.930 . S
C357 C355 1.407 . S
C357 C356 1.345 . S
C357 H359 0.930 . S
H358 C351 0.930 . S
H359 C357 0.930 . S
H360 C348 0.930 . S
H361 C349 0.931 . S
H362 C355 0.930 . S
H363 C377 0.930 . S
H364 C356 0.930 . S
H365 C383 0.930 . S
H366 C374 0.930 . S
H367 C381 0.931 . S
H368 C345 0.929 . S
H369 C375 0.930 . S
H370 C408 0.930 . S
H371 C352 0.930 . S
H372 C407 0.929 . S
N373 Tb342 2.660 . S
N373 C374 1.305 . S
N373 C378 1.360 . S
C374 H366 0.930 . S
C374 N373 1.305 . S
C374 C377 1.407 . S
C375 H369 0.930 . S
C375 C376 1.410 . S
C375 C377 1.345 . S
C376 C375 1.410 . S
C376 C378 1.417 . S
C376 C408 1.432 . S
C377 H363 0.930 . S
C377 C374 1.407 . S
C377 C375 1.345 . S
C378 N373 1.360 . S
C378 C376 1.417 . S
C378 C382 1.432 . S
H379 C384 0.930 . S
N380 Tb342 2.600 . S
N380 C382 1.359 . S
N380 C383 1.327 . S
C381 H367 0.931 . S
C381 C383 1.392 . S
C381 C384 1.370 . S
C382 C378 1.432 . S
C382 N380 1.359 . S
C382 C385 1.414 . S
C383 H365 0.930 . S
C383 N380 1.327 . S
C383 C381 1.392 . S
C384 H379 0.930 . S
C384 C381 1.370 . S
C384 C385 1.385 . S
C385 C382 1.414 . S
C385 C384 1.385 . S
C385 C407 1.444 . S
O386 Tb342 2.546 . S
O386 C406 1.251 1_565 S
O387 Tb342 2.610 1_544 S
O387 Tb353 2.362 . S
O387 C398 1.283 1_554 S
O388 Tb353 2.421 . S
O388 C405 1.262 . S
O389 Tb342 2.320 1_545 S
O389 C405 1.260 1_556 S
O390 Tb342 2.552 1_545 S
O390 C398 1.243 . S
O391 Tb342 2.413 1_545 S
O391 C406 1.256 . S
O392 Tb353 2.546 . S
O392 C417 1.246 1_545 S
O393 Tb342 2.362 1_554 S
O393 Tb353 2.610 1_565 S
O393 C409 1.283 . S
O394 Tb342 2.421 . S
O394 C416 1.262 1_556 S
O395 Tb353 2.320 1_565 S
O395 C416 1.260 . S
O396 Tb353 2.552 1_565 S
O396 C409 1.243 . S
O397 Tb353 2.413 1_565 S
O397 C417 1.260 . S
C398 O387 1.283 1_556 S
C398 O390 1.243 . S
C399 C401 1.382 . S
C399 C403 1.393 1_545 S
C399 C406 1.500 . S
C400 C401 1.400 . S
C400 C402 1.384 . S
C401 C399 1.382 . S
C401 C400 1.400 . S
C401 H418 0.930 . S
C402 C400 1.384 . S
C402 C404 1.392 . S
C402 H419 0.931 . S
C403 C399 1.393 1_565 S
C403 C404 1.401 1_565 S
C403 H420 0.930 . S
C404 C402 1.392 . S
C404 C403 1.401 1_545 S
C404 H421 0.930 1_545 S
C405 O388 1.262 . S
C405 O389 1.260 1_554 S
C406 Tb342 2.833 1_545 S
C406 O386 1.251 1_545 S
C406 O391 1.256 . S
C406 C399 1.500 . S
C407 H372 0.929 . S
C407 C385 1.444 . S
C407 C408 1.317 . S
C408 H370 0.930 . S
C408 C376 1.432 . S
C408 C407 1.317 . S
C409 O393 1.283 . S
C409 O396 1.243 . S
C410 C411 1.382 . S
C410 C414 1.393 1_565 S
C410 C417 1.501 . S
C411 C410 1.382 . S
C411 C412 1.400 . S
C411 H422 0.930 . S
C412 C411 1.400 . S
C412 C413 1.384 . S
C413 C412 1.384 . S
C413 C415 1.392 . S
C413 H423 0.931 . S
C414 C410 1.393 1_545 S
C414 C415 1.401 1_545 S
C414 H424 0.930 . S
C415 C413 1.392 . S
C415 C414 1.401 1_565 S
C415 H425 0.930 1_565 S
C416 O394 1.262 1_554 S
C416 O395 1.260 . S
C417 Tb353 2.832 1_565 S
C417 O392 1.246 1_565 S
C417 O397 1.260 . S
C417 C410 1.501 . S
H418 C401 0.930 . S
H419 C402 0.931 . S
H420 C403 0.930 . S
H421 C404 0.930 1_565 S
H422 C411 0.930 . S
H423 C413 0.931 . S
H424 C414 0.930 . S
H425 C415 0.930 1_545 S
Tb426 N457 2.660 . S
Tb426 N464 2.600 . S
Tb426 O470 2.546 . S
Tb426 O471 2.610 1_456 S
Tb426 O473 2.320 1_455 S
Tb426 O474 2.552 1_455 S
Tb426 O475 2.413 1_455 S
Tb426 O477 2.362 1_556 S
Tb426 O478 2.421 . S
Tb426 C490 2.833 . S
C427 C430 1.432 . S
C427 C431 1.414 . S
C427 N434 1.359 . S
C428 C430 1.417 . S
C428 C432 1.432 . S
C428 C440 1.410 . S
C429 C431 1.444 . S
C429 C432 1.317 . S
C429 H452 0.929 . S
C430 C427 1.432 . S
C430 C428 1.417 . S
C430 N438 1.360 . S
C431 C427 1.414 . S
C431 C429 1.444 . S
C431 C436 1.385 . S
C432 C428 1.432 . S
C432 C429 1.317 . S
C432 H444 0.930 . S
C433 C435 1.392 . S
C433 C436 1.370 . S
C433 H445 0.931 . S
N434 C427 1.359 . S
N434 C435 1.327 . S
N434 Tb437 2.600 . S
C435 C433 1.392 . S
C435 N434 1.327 . S
C435 H442 0.930 . S
C436 C431 1.385 . S
C436 C433 1.370 . S
C436 H455 0.930 . S
Tb437 N434 2.600 . S
Tb437 N438 2.660 . S
Tb437 O471 2.362 . S
Tb437 O472 2.421 . S
Tb437 O476 2.546 . S
Tb437 O477 2.610 1_655 S
Tb437 O479 2.320 1_655 S
Tb437 O480 2.552 1_655 S
Tb437 O481 2.413 1_655 S
Tb437 C501 2.833 1_655 S
N438 C430 1.360 . S
N438 Tb437 2.660 . S
N438 C439 1.305 . S
C439 N438 1.305 . S
C439 C441 1.407 . S
C439 H446 0.957 . S
C440 C428 1.410 . S
C440 C441 1.345 . S
C440 H448 0.930 . S
C441 C439 1.407 . S
C441 C440 1.345 . S
C441 H443 0.930 . S
H442 C435 0.930 . S
H443 C441 0.930 . S
H444 C432 0.930 . S
H445 C433 0.931 . S
H446 C439 0.957 . S
H447 C461 0.930 . S
H448 C440 0.930 . S
H449 C467 0.930 . S
H450 C458 0.930 . S
H451 C465 0.931 . S
H452 C429 0.929 . S
H453 C459 0.930 . S
H454 C492 0.930 . S
H455 C436 0.930 . S
H456 C491 0.929 . S
N457 Tb426 2.660 . S
N457 C458 1.305 . S
N457 C462 1.360 . S
C458 H450 0.930 . S
C458 N457 1.305 . S
C458 C461 1.407 . S
C459 H453 0.930 . S
C459 C460 1.410 . S
C459 C461 1.345 . S
C460 C459 1.410 . S
C460 C462 1.417 . S
C460 C492 1.432 . S
C461 H447 0.930 . S
C461 C458 1.407 . S
C461 C459 1.345 . S
C462 N457 1.360 . S
C462 C460 1.417 . S
C462 C466 1.432 . S
H463 C468 0.930 . S
N464 Tb426 2.600 . S
N464 C466 1.359 . S
N464 C467 1.327 . S
C465 H451 0.931 . S
C465 C467 1.392 . S
C465 C468 1.370 . S
C466 C462 1.432 . S
C466 N464 1.359 . S
C466 C469 1.414 . S
C467 H449 0.930 . S
C467 N464 1.327 . S
C467 C465 1.392 . S
C468 H463 0.930 . S
C468 C465 1.370 . S
C468 C469 1.385 . S
C469 C466 1.414 . S
C469 C468 1.385 . S
C469 C491 1.444 . S
O470 Tb426 2.546 . S
O470 C490 1.251 . S
O471 Tb426 2.610 1_654 S
O471 Tb437 2.362 . S
O471 C482 1.283 1_554 S
O472 Tb437 2.421 . S
O472 C489 1.262 . S
O473 Tb426 2.320 1_655 S
O473 C489 1.260 1_556 S
O474 Tb426 2.552 1_655 S
O474 C482 1.243 . S
O475 Tb426 2.413 1_655 S
O475 C490 1.256 1_655 S
O476 Tb437 2.546 . S
O476 C501 1.251 1_655 S
O477 Tb426 2.362 1_554 S
O477 Tb437 2.610 1_455 S
O477 C493 1.283 . S
O478 Tb426 2.421 . S
O478 C500 1.262 1_556 S
O479 Tb437 2.320 1_455 S
O479 C500 1.260 . S
O480 Tb437 2.552 1_455 S
O480 C493 1.243 . S
O481 Tb437 2.413 1_455 S
O481 C501 1.256 . S
C482 O471 1.283 1_556 S
C482 O474 1.243 . S
C483 C485 1.382 . S
C483 C487 1.393 1_655 S
C483 C490 1.500 1_655 S
C484 C485 1.400 . S
C484 C486 1.384 . S
C485 C483 1.382 . S
C485 C484 1.400 . S
C485 H502 0.930 . S
C486 C484 1.384 . S
C486 C488 1.392 1_655 S
C486 H503 0.931 . S
C487 C483 1.393 1_455 S
C487 C488 1.401 . S
C487 H504 0.930 . S
C488 C486 1.392 1_455 S
C488 C487 1.401 . S
C488 H505 0.930 . S
C489 O472 1.262 . S
C489 O473 1.260 1_554 S
C490 Tb426 2.833 . S
C490 O470 1.251 . S
C490 O475 1.256 1_455 S
C490 C483 1.500 1_455 S
C491 H456 0.929 . S
C491 C469 1.444 . S
C491 C492 1.317 . S
C492 H454 0.930 . S
C492 C460 1.432 . S
C492 C491 1.317 . S
C493 O477 1.283 . S
C493 O480 1.243 . S
C494 C495 1.382 . S
C494 C498 1.393 1_455 S
C494 C501 1.500 . S
C495 C494 1.382 . S
C495 C496 1.400 . S
C495 H506 0.930 . S
C496 C495 1.400 . S
C496 C497 1.384 . S
C497 C496 1.384 . S
C497 C499 1.392 . S
C497 H507 0.931 . S
C498 C494 1.393 1_655 S
C498 C499 1.401 1_655 S
C498 H508 0.930 . S
C499 C497 1.392 . S
C499 C498 1.401 1_455 S
C499 H509 0.930 1_455 S
C500 O478 1.262 1_554 S
C500 O479 1.260 . S
C501 Tb437 2.833 1_455 S
C501 O476 1.251 1_455 S
C501 O481 1.256 . S
C501 C494 1.500 . S
H502 C485 0.930 . S
H503 C486 0.931 . S
H504 C487 0.930 . S
H505 C488 0.930 . S
H506 C495 0.930 . S
H507 C497 0.931 . S
H508 C498 0.930 . S
H509 C499 0.930 1_655 S
Tb510 N541 2.660 . S
Tb510 N548 2.600 . S
Tb510 O554 2.546 . S
Tb510 O555 2.610 . S
Tb510 O557 2.320 . S
Tb510 O558 2.552 . S
Tb510 O559 2.413 . S
Tb510 O561 2.362 . S
Tb510 O562 2.421 . S
Tb510 C574 2.833 . S
C511 C514 1.432 . S
C511 C515 1.414 . S
C511 N518 1.359 . S
C512 C514 1.417 . S
C512 C516 1.432 . S
C512 C524 1.410 . S
C513 C515 1.444 . S
C513 C516 1.317 . S
C513 H536 0.929 . S
C514 C511 1.432 . S
C514 C512 1.417 . S
C514 N522 1.360 . S
C515 C511 1.414 . S
C515 C513 1.444 . S
C515 C520 1.385 . S
C516 C512 1.432 . S
C516 C513 1.317 . S
C516 H528 0.930 . S
C517 C519 1.392 . S
C517 C520 1.370 . S
C517 H529 0.931 . S
N518 C511 1.359 . S
N518 C519 1.327 . S
N518 Tb521 2.600 . S
C519 C517 1.392 . S
C519 N518 1.327 . S
C519 H526 0.930 . S
C520 C515 1.385 . S
C520 C517 1.370 . S
C520 H539 0.930 . S
Tb521 N518 2.600 . S
Tb521 N522 2.660 . S
Tb521 O555 2.362 1_556 S
Tb521 O556 2.421 . S
Tb521 O560 2.546 . S
Tb521 O561 2.610 1_556 S
Tb521 O563 2.320 . S
Tb521 O564 2.552 . S
Tb521 O565 2.413 . S
Tb521 C585 2.833 . S
N522 C514 1.360 . S
N522 Tb521 2.660 . S
N522 C523 1.305 . S
C523 N522 1.305 . S
C523 C525 1.407 . S
C523 H530 0.930 . S
C524 C512 1.410 . S
C524 C525 1.345 . S
C524 H532 0.930 . S
C525 C523 1.407 . S
C525 C524 1.345 . S
C525 H527 0.930 . S
H526 C519 0.930 . S
H527 C525 0.930 . S
H528 C516 0.930 . S
H529 C517 0.931 . S
H530 C523 0.930 . S
H531 C545 0.930 . S
H532 C524 0.930 . S
H533 C551 0.930 . S
H534 C542 0.930 . S
H535 C549 0.931 . S
H536 C513 0.929 . S
H537 C543 0.930 . S
H538 C576 0.930 . S
H539 C520 0.930 . S
H540 C575 0.929 . S
N541 Tb510 2.660 . S
N541 C542 1.305 . S
N541 C546 1.360 . S
C542 H534 0.930 . S
C542 N541 1.305 . S
C542 C545 1.407 . S
C543 H537 0.930 . S
C543 C544 1.410 . S
C543 C545 1.345 . S
C544 C543 1.410 . S
C544 C546 1.417 . S
C544 C576 1.432 . S
C545 H531 0.930 . S
C545 C542 1.407 . S
C545 C543 1.345 . S
C546 N541 1.360 . S
C546 C544 1.417 . S
C546 C550 1.432 . S
H547 C552 0.930 . S
N548 Tb510 2.600 . S
N548 C550 1.359 . S
N548 C551 1.327 . S
C549 H535 0.931 . S
C549 C551 1.392 . S
C549 C552 1.370 . S
C550 C546 1.432 . S
C550 N548 1.359 . S
C550 C553 1.414 . S
C551 H533 0.930 . S
C551 N548 1.327 . S
C551 C549 1.392 . S
C552 H547 0.930 . S
C552 C549 1.370 . S
C552 C553 1.385 . S
C553 C550 1.414 . S
C553 C552 1.385 . S
C553 C575 1.444 . S
O554 Tb510 2.546 . S
O554 C574 1.251 . S
O555 Tb510 2.610 . S
O555 Tb521 2.362 1_554 S
O555 C566 1.283 . S
O556 Tb521 2.421 . S
O556 C573 1.262 1_556 S
O557 Tb510 2.320 . S
O557 C573 1.260 . S
O558 Tb510 2.552 . S
O558 C566 1.243 . S
O559 Tb510 2.413 . S
O559 C574 1.256 . S
O560 Tb521 2.546 . S
O560 C585 1.251 . S
O561 Tb510 2.362 . S
O561 Tb521 2.610 1_554 S
O561 C577 1.283 1_554 S
O562 Tb510 2.421 . S
O562 C584 1.262 . S
O563 Tb521 2.320 . S
O563 C584 1.260 1_556 S
O564 Tb521 2.552 . S
O564 C577 1.243 . S
O565 Tb521 2.413 . S
O565 C585 1.256 . S
C566 O555 1.283 . S
C566 O558 1.243 . S
C567 C569 1.382 . S
C567 C571 1.393 . S
C567 C574 1.500 . S
C568 C569 1.400 . S
C568 C570 1.384 . S
C569 C567 1.382 . S
C569 C568 1.400 . S
C569 H586 0.930 . S
C570 C568 1.384 . S
C570 C572 1.392 . S
C570 H587 0.931 . S
C571 C567 1.393 . S
C571 C572 1.401 . S
C571 H588 0.930 . S
C572 C570 1.392 . S
C572 C571 1.401 . S
C572 H589 0.930 . S
C573 O556 1.262 1_554 S
C573 O557 1.260 . S
C574 Tb510 2.833 . S
C574 O554 1.251 . S
C574 O559 1.256 . S
C574 C567 1.500 . S
C575 H540 0.929 . S
C575 C553 1.444 . S
C575 C576 1.317 . S
C576 H538 0.930 . S
C576 C544 1.432 . S
C576 C575 1.317 . S
C577 O561 1.283 1_556 S
C577 O564 1.243 . S
C578 C579 1.382 . S
C578 C582 1.393 . S
C578 C585 1.500 . S
C579 C578 1.382 . S
C579 C580 1.400 . S
C579 H590 0.930 . S
C580 C579 1.400 . S
C580 C581 1.384 . S
C581 C580 1.384 . S
C581 C583 1.392 . S
C581 H591 0.931 . S
C582 C578 1.393 . S
C582 C583 1.401 . S
C582 H592 0.930 . S
C583 C581 1.392 . S
C583 C582 1.401 . S
C583 H593 0.930 . S
C584 O562 1.262 . S
C584 O563 1.260 1_554 S
C585 Tb521 2.833 . S
C585 O560 1.251 . S
C585 O565 1.256 . S
C585 C578 1.500 . S
H586 C569 0.930 . S
H587 C570 0.931 . S
H588 C571 0.930 . S
H589 C572 0.930 . S
H590 C579 0.930 . S
H591 C581 0.931 . S
H592 C582 0.930 . S
H593 C583 0.930 . S
Tb594 N625 2.660 . S
Tb594 N632 2.600 . S
Tb594 O638 2.546 . S
Tb594 O639 2.610 . S
Tb594 O641 2.320 . S
Tb594 O642 2.552 . S
Tb594 O643 2.413 . S
Tb594 O645 2.362 . S
Tb594 O646 2.421 . S
Tb594 C658 2.833 . S
C595 C598 1.432 . S
C595 C599 1.414 . S
C595 N602 1.359 . S
C596 C598 1.417 . S
C596 C600 1.432 . S
C596 C608 1.410 . S
C597 C599 1.444 . S
C597 C600 1.317 . S
C597 H620 0.929 . S
C598 C595 1.432 . S
C598 C596 1.417 . S
C598 N606 1.360 . S
C599 C595 1.414 . S
C599 C597 1.444 . S
C599 C604 1.385 . S
C600 C596 1.432 . S
C600 C597 1.317 . S
C600 H612 0.930 . S
C601 C603 1.392 . S
C601 C604 1.370 . S
C601 H613 0.931 . S
N602 C595 1.359 . S
N602 C603 1.327 . S
N602 Tb605 2.600 . S
C603 C601 1.392 . S
C603 N602 1.327 . S
C603 H610 0.930 . S
C604 C599 1.385 . S
C604 C601 1.370 . S
C604 H623 0.930 . S
Tb605 N602 2.600 . S
Tb605 N606 2.660 . S
Tb605 O639 2.362 . S
Tb605 O640 2.421 . S
Tb605 O644 2.546 . S
Tb605 O645 2.610 . S
Tb605 O647 2.320 . S
Tb605 O648 2.552 . S
Tb605 O649 2.413 . S
Tb605 C669 2.833 . S
N606 C598 1.360 . S
N606 Tb605 2.660 . S
N606 C607 1.305 . S
C607 N606 1.305 . S
C607 C609 1.407 . S
C607 H614 0.930 . S
C608 C596 1.410 . S
C608 C609 1.345 . S
C608 H616 0.930 . S
C609 C607 1.407 . S
C609 C608 1.345 . S
C609 H611 0.930 . S
H610 C603 0.930 . S
H611 C609 0.930 . S
H612 C600 0.930 . S
H613 C601 0.931 . S
H614 C607 0.930 . S
H615 C629 0.935 . S
H616 C608 0.930 . S
H617 C635 0.930 . S
H618 C626 0.930 . S
H619 C633 0.931 . S
H620 C597 0.929 . S
H621 C627 0.930 . S
H622 C660 0.930 . S
H623 C604 0.930 . S
H624 C659 0.929 . S
N625 Tb594 2.660 . S
N625 C626 1.305 . S
N625 C630 1.360 . S
C626 H618 0.930 . S
C626 N625 1.305 . S
C626 C629 1.407 . S
C627 H621 0.930 . S
C627 C628 1.410 1_655 S
C627 C629 1.345 1_655 S
C628 C627 1.410 1_455 S
C628 C630 1.417 . S
C628 C660 1.432 1_455 S
C629 H615 0.935 . S
C629 C626 1.407 . S
C629 C627 1.345 1_455 S
C630 N625 1.360 . S
C630 C628 1.417 . S
C630 C634 1.432 . S
H631 C636 0.930 . S
N632 Tb594 2.600 . S
N632 C634 1.359 . S
N632 C635 1.327 . S
C633 H619 0.931 . S
C633 C635 1.392 . S
C633 C636 1.370 . S
C634 C630 1.432 . S
C634 N632 1.359 . S
C634 C637 1.414 . S
C635 H617 0.930 . S
C635 N632 1.327 . S
C635 C633 1.392 . S
C636 H631 0.930 . S
C636 C633 1.370 . S
C636 C637 1.385 . S
C637 C634 1.414 . S
C637 C636 1.385 . S
C637 C659 1.444 . S
O638 Tb594 2.546 . S
O638 C658 1.251 . S
O639 Tb594 2.610 . S
O639 Tb605 2.362 . S
O639 C650 1.283 . S
O640 Tb605 2.421 . S
O640 C657 1.262 . S
O641 Tb594 2.320 . S
O641 C657 1.260 . S
O642 Tb594 2.552 . S
O642 C650 1.243 . S
O643 Tb594 2.413 . S
O643 C658 1.256 . S
O644 Tb605 2.546 . S
O644 C669 1.251 . S
O645 Tb594 2.362 . S
O645 Tb605 2.610 . S
O645 C661 1.283 . S
O646 Tb594 2.421 . S
O646 C668 1.262 . S
O647 Tb605 2.320 . S
O647 C668 1.260 . S
O648 Tb605 2.552 . S
O648 C661 1.243 . S
O649 Tb605 2.413 . S
O649 C669 1.256 . S
C650 O639 1.283 . S
C650 O642 1.243 . S
C651 C653 1.382 . S
C651 C655 1.393 . S
C651 C658 1.500 . S
C652 C653 1.400 . S
C652 C654 1.384 . S
C653 C651 1.382 . S
C653 C652 1.400 . S
C653 H670 0.930 . S
C654 C652 1.384 . S
C654 C656 1.392 . S
C654 H671 0.931 . S
C655 C651 1.393 . S
C655 C656 1.401 . S
C655 H672 0.930 . S
C656 C654 1.392 . S
C656 C655 1.401 . S
C656 H673 0.930 . S
C657 O640 1.262 . S
C657 O641 1.260 . S
C658 Tb594 2.833 . S
C658 O638 1.251 . S
C658 O643 1.256 . S
C658 C651 1.500 . S
C659 H624 0.929 . S
C659 C637 1.444 . S
C659 C660 1.317 1_455 S
C660 H622 0.930 . S
C660 C628 1.432 1_655 S
C660 C659 1.317 1_655 S
C661 O645 1.283 . S
C661 O648 1.243 . S
C662 C663 1.382 . S
C662 C666 1.393 . S
C662 C669 1.500 . S
C663 C662 1.382 . S
C663 C664 1.400 . S
C663 H674 0.930 . S
C664 C663 1.400 . S
C664 C665 1.384 . S
C665 C664 1.384 . S
C665 C667 1.392 . S
C665 H675 0.931 . S
C666 C662 1.393 . S
C666 C667 1.401 . S
C666 H676 0.930 . S
C667 C665 1.392 . S
C667 C666 1.401 . S
C667 H677 0.930 . S
C668 O646 1.262 . S
C668 O647 1.260 . S
C669 Tb605 2.833 . S
C669 O644 1.251 . S
C669 O649 1.256 . S
C669 C662 1.500 . S
H670 C653 0.930 . S
H671 C654 0.931 . S
H672 C655 0.930 . S
H673 C656 0.930 . S
H674 C663 0.930 . S
H675 C665 0.931 . S
H676 C666 0.930 . S
H677 C667 0.930 . S
Tb678 N709 2.660 . S
Tb678 N716 2.600 . S
Tb678 O722 2.546 . S
Tb678 O723 2.610 . S
Tb678 O725 2.320 . S
Tb678 O726 2.552 . S
Tb678 O727 2.413 . S
Tb678 O729 2.362 . S
Tb678 O730 2.421 . S
Tb678 C742 2.833 . S
C679 C682 1.432 . S
C679 C683 1.414 . S
C679 N686 1.359 . S
C680 C682 1.417 . S
C680 C684 1.432 . S
C680 C692 1.410 . S
C681 C683 1.444 . S
C681 C684 1.317 . S
C681 H704 0.929 . S
C682 C679 1.432 . S
C682 C680 1.417 . S
C682 N690 1.360 . S
C683 C679 1.414 . S
C683 C681 1.444 . S
C683 C688 1.385 . S
C684 C680 1.432 . S
C684 C681 1.317 . S
C684 H696 0.930 . S
C685 C687 1.392 . S
C685 C688 1.370 . S
C685 H697 0.931 . S
N686 C679 1.359 . S
N686 C687 1.327 . S
N686 Tb689 2.600 . S
C687 C685 1.392 . S
C687 N686 1.327 . S
C687 H694 0.930 . S
C688 C683 1.385 . S
C688 C685 1.370 . S
C688 H707 0.930 . S
Tb689 N686 2.600 . S
Tb689 N690 2.660 . S
Tb689 O723 2.362 . S
Tb689 O724 2.421 . S
Tb689 O728 2.546 . S
Tb689 O729 2.610 . S
Tb689 O731 2.320 . S
Tb689 O732 2.552 . S
Tb689 O733 2.413 . S
Tb689 C753 2.833 . S
N690 C682 1.360 . S
N690 Tb689 2.660 . S
N690 C691 1.305 . S
C691 N690 1.305 . S
C691 C693 1.407 . S
C691 H698 0.930 . S
C692 C680 1.410 . S
C692 C693 1.345 . S
C692 H700 0.930 . S
C693 C691 1.407 . S
C693 C692 1.345 . S
C693 H695 0.930 . S
H694 C687 0.930 . S
H695 C693 0.930 . S
H696 C684 0.930 . S
H697 C685 0.931 . S
H698 C691 0.930 . S
H699 C713 0.930 . S
H700 C692 0.930 . S
H701 C719 0.930 . S
H702 C710 0.930 . S
H703 C717 0.931 . S
H704 C681 0.929 . S
H705 C711 0.930 . S
H706 C744 0.930 . S
H707 C688 0.930 . S
H708 C743 0.929 . S
N709 Tb678 2.660 . S
N709 C710 1.305 . S
N709 C714 1.360 . S
C710 H702 0.930 . S
C710 N709 1.305 . S
C710 C713 1.407 . S
C711 H705 0.930 . S
C711 C712 1.410 . S
C711 C713 1.345 . S
C712 C711 1.410 . S
C712 C714 1.417 . S
C712 C744 1.432 . S
C713 H699 0.930 . S
C713 C710 1.407 . S
C713 C711 1.345 . S
C714 N709 1.360 . S
C714 C712 1.417 . S
C714 C718 1.432 . S
H715 C720 0.930 . S
N716 Tb678 2.600 . S
N716 C718 1.359 . S
N716 C719 1.327 . S
C717 H703 0.931 . S
C717 C719 1.392 . S
C717 C720 1.370 . S
C718 C714 1.432 . S
C718 N716 1.359 . S
C718 C721 1.414 . S
C719 H701 0.930 . S
C719 N716 1.327 . S
C719 C717 1.392 . S
C720 H715 0.930 . S
C720 C717 1.370 . S
C720 C721 1.385 . S
C721 C718 1.414 . S
C721 C720 1.385 . S
C721 C743 1.444 . S
O722 Tb678 2.546 . S
O722 C742 1.251 . S
O723 Tb678 2.610 . S
O723 Tb689 2.362 . S
O723 C734 1.283 . S
O724 Tb689 2.421 . S
O724 C741 1.262 . S
O725 Tb678 2.320 . S
O725 C741 1.260 . S
O726 Tb678 2.552 . S
O726 C734 1.243 . S
O727 Tb678 2.413 . S
O727 C742 1.256 . S
O728 Tb689 2.546 . S
O728 C753 1.251 . S
O729 Tb678 2.362 . S
O729 Tb689 2.610 . S
O729 C745 1.283 . S
O730 Tb678 2.421 . S
O730 C752 1.262 . S
O731 Tb689 2.320 . S
O731 C752 1.260 . S
O732 Tb689 2.552 . S
O732 C745 1.243 . S
O733 Tb689 2.413 . S
O733 C753 1.256 . S
C734 O723 1.283 . S
C734 O726 1.243 . S
C735 C737 1.382 . S
C735 C739 1.393 . S
C735 C742 1.500 . S
C736 C737 1.400 . S
C736 C738 1.384 . S
C737 C735 1.382 . S
C737 C736 1.400 . S
C737 H754 0.930 . S
C738 C736 1.384 . S
C738 C740 1.392 . S
C738 H755 0.931 . S
C739 C735 1.393 . S
C739 C740 1.401 . S
C739 H756 0.930 . S
C740 C738 1.392 . S
C740 C739 1.401 . S
C740 H757 0.930 . S
C741 O724 1.262 . S
C741 O725 1.260 . S
C742 Tb678 2.833 . S
C742 O722 1.251 . S
C742 O727 1.256 . S
C742 C735 1.500 . S
C743 H708 0.929 . S
C743 C721 1.444 . S
C743 C744 1.317 . S
C744 H706 0.930 . S
C744 C712 1.432 . S
C744 C743 1.317 . S
C745 O729 1.283 . S
C745 O732 1.243 . S
C746 C747 1.382 . S
C746 C750 1.393 . S
C746 C753 1.500 . S
C747 C746 1.382 . S
C747 C748 1.400 . S
C747 H758 0.930 . S
C748 C747 1.400 . S
C748 C749 1.384 . S
C749 C748 1.384 . S
C749 C751 1.392 . S
C749 H759 0.931 . S
C750 C746 1.393 . S
C750 C751 1.401 . S
C750 H760 0.930 . S
C751 C749 1.392 . S
C751 C750 1.401 . S
C751 H761 0.930 . S
C752 O730 1.262 . S
C752 O731 1.260 . S
C753 Tb689 2.833 . S
C753 O728 1.251 . S
C753 O733 1.256 . S
C753 C746 1.500 . S
H754 C737 0.930 . S
H755 C738 0.931 . S
H756 C739 0.930 . S
H757 C740 0.930 . S
H758 C747 0.930 . S
H759 C749 0.931 . S
H760 C750 0.930 . S
H761 C751 0.930 . S
Tb762 N793 2.660 . S
Tb762 N800 2.600 . S
Tb762 O806 2.546 . S
Tb762 O807 2.610 . S
Tb762 O809 2.320 . S
Tb762 O810 2.552 . S
Tb762 O811 2.413 . S
Tb762 O813 2.362 . S
Tb762 O814 2.421 . S
Tb762 C826 2.833 . S
C763 C766 1.432 . S
C763 C767 1.414 . S
C763 N770 1.359 . S
C764 C766 1.417 . S
C764 C768 1.432 . S
C764 C776 1.410 . S
C765 C767 1.444 . S
C765 C768 1.317 . S
C765 H788 0.929 . S
C766 C763 1.432 . S
C766 C764 1.417 . S
C766 N774 1.360 . S
C767 C763 1.414 . S
C767 C765 1.444 . S
C767 C772 1.385 . S
C768 C764 1.432 . S
C768 C765 1.317 . S
C768 H780 0.930 . S
C769 C771 1.392 . S
C769 C772 1.370 . S
C769 H781 0.931 . S
N770 C763 1.359 . S
N770 C771 1.327 . S
N770 Tb773 2.600 . S
C771 C769 1.392 . S
C771 N770 1.327 . S
C771 H778 0.930 . S
C772 C767 1.385 . S
C772 C769 1.370 . S
C772 H791 0.930 . S
Tb773 N770 2.600 . S
Tb773 N774 2.660 . S
Tb773 O807 2.362 . S
Tb773 O808 2.421 . S
Tb773 O812 2.546 . S
Tb773 O813 2.610 . S
Tb773 O815 2.320 . S
Tb773 O816 2.552 . S
Tb773 O817 2.413 . S
Tb773 C837 2.833 . S
N774 C766 1.360 . S
N774 Tb773 2.660 . S
N774 C775 1.305 . S
C775 N774 1.305 . S
C775 C777 1.407 . S
C775 H782 0.930 . S
C776 C764 1.410 . S
C776 C777 1.345 . S
C776 H784 0.930 . S
C777 C775 1.407 . S
C777 C776 1.345 . S
C777 H779 0.930 . S
H778 C771 0.930 . S
H779 C777 0.930 . S
H780 C768 0.930 . S
H781 C769 0.931 . S
H782 C775 0.930 . S
H783 C797 0.930 . S
H784 C776 0.930 . S
H785 C803 0.930 . S
H786 C794 0.930 . S
H787 C801 0.931 . S
H788 C765 0.929 . S
H789 C795 0.930 . S
H790 C828 0.930 . S
H791 C772 0.930 . S
H792 C827 0.929 . S
N793 Tb762 2.660 . S
N793 C794 1.305 . S
N793 C798 1.360 . S
C794 H786 0.930 . S
C794 N793 1.305 . S
C794 C797 1.407 . S
C795 H789 0.930 . S
C795 C796 1.410 . S
C795 C797 1.345 . S
C796 C795 1.410 . S
C796 C798 1.417 . S
C796 C828 1.432 . S
C797 H783 0.930 . S
C797 C794 1.407 . S
C797 C795 1.345 . S
C798 N793 1.360 . S
C798 C796 1.417 . S
C798 C802 1.432 . S
H799 C804 0.930 . S
N800 Tb762 2.600 . S
N800 C802 1.359 . S
N800 C803 1.327 . S
C801 H787 0.931 . S
C801 C803 1.392 . S
C801 C804 1.370 . S
C802 C798 1.432 . S
C802 N800 1.359 . S
C802 C805 1.414 . S
C803 H785 0.930 . S
C803 N800 1.327 . S
C803 C801 1.392 . S
C804 H799 0.930 . S
C804 C801 1.370 . S
C804 C805 1.385 . S
C805 C802 1.414 . S
C805 C804 1.385 . S
C805 C827 1.444 . S
O806 Tb762 2.546 . S
O806 C826 1.251 . S
O807 Tb762 2.610 . S
O807 Tb773 2.362 . S
O807 C818 1.283 . S
O808 Tb773 2.421 . S
O808 C825 1.262 . S
O809 Tb762 2.320 . S
O809 C825 1.260 . S
O810 Tb762 2.552 . S
O810 C818 1.243 . S
O811 Tb762 2.413 . S
O811 C826 1.256 . S
O812 Tb773 2.546 . S
O812 C837 1.251 . S
O813 Tb762 2.362 . S
O813 Tb773 2.610 . S
O813 C829 1.283 . S
O814 Tb762 2.421 . S
O814 C836 1.262 . S
O815 Tb773 2.320 . S
O815 C836 1.260 . S
O816 Tb773 2.552 . S
O816 C829 1.243 . S
O817 Tb773 2.413 . S
O817 C837 1.256 . S
C818 O807 1.283 . S
C818 O810 1.243 . S
C819 C821 1.382 . S
C819 C823 1.393 . S
C819 C826 1.500 . S
C820 C821 1.400 . S
C820 C822 1.384 . S
C821 C819 1.382 . S
C821 C820 1.400 . S
C821 H838 0.930 . S
C822 C820 1.384 . S
C822 C824 1.392 . S
C822 H839 0.931 . S
C823 C819 1.393 . S
C823 C824 1.401 . S
C823 H840 0.930 . S
C824 C822 1.392 . S
C824 C823 1.401 . S
C824 H841 0.930 . S
C825 O808 1.262 . S
C825 O809 1.260 . S
C826 Tb762 2.833 . S
C826 O806 1.251 . S
C826 O811 1.256 . S
C826 C819 1.500 . S
C827 H792 0.929 . S
C827 C805 1.444 . S
C827 C828 1.317 . S
C828 H790 0.930 . S
C828 C796 1.432 . S
C828 C827 1.317 . S
C829 O813 1.283 . S
C829 O816 1.243 . S
C830 C831 1.382 . S
C830 C834 1.393 . S
C830 C837 1.500 . S
C831 C830 1.382 . S
C831 C832 1.400 . S
C831 H842 0.930 . S
C832 C831 1.400 . S
C832 C833 1.384 . S
C833 C832 1.384 . S
C833 C835 1.392 . S
C833 H843 0.931 . S
C834 C830 1.393 . S
C834 C835 1.401 . S
C834 H844 0.930 . S
C835 C833 1.392 . S
C835 C834 1.401 . S
C835 H845 0.930 . S
C836 O814 1.262 . S
C836 O815 1.260 . S
C837 Tb773 2.833 . S
C837 O812 1.251 . S
C837 O817 1.256 . S
C837 C830 1.500 . S
H838 C821 0.930 . S
H839 C822 0.931 . S
H840 C823 0.930 . S
H841 C824 0.930 . S
H842 C831 0.930 . S
H843 C833 0.931 . S
H844 C834 0.930 . S
H845 C835 0.930 . S
Tb846 N877 2.660 . S
Tb846 N884 2.600 . S
Tb846 O890 2.546 . S
Tb846 O891 2.610 . S
Tb846 O893 2.320 . S
Tb846 O894 2.552 . S
Tb846 O895 2.413 . S
Tb846 O897 2.362 . S
Tb846 O898 2.421 . S
Tb846 C910 2.833 . S
C847 C850 1.432 . S
C847 C851 1.414 . S
C847 N854 1.359 . S
C848 C850 1.417 . S
C848 C852 1.432 . S
C848 C860 1.410 . S
C849 C851 1.444 . S
C849 C852 1.317 . S
C849 H872 0.929 . S
C850 C847 1.432 . S
C850 C848 1.417 . S
C850 N858 1.360 . S
C851 C847 1.414 . S
C851 C849 1.444 . S
C851 C856 1.385 . S
C852 C848 1.432 . S
C852 C849 1.317 . S
C852 H864 0.930 . S
C853 C855 1.392 . S
C853 C856 1.370 . S
C853 H865 0.931 . S
N854 C847 1.359 . S
N854 C855 1.327 . S
N854 Tb857 2.600 . S
C855 C853 1.392 . S
C855 N854 1.327 . S
C855 H862 0.930 . S
C856 C851 1.385 . S
C856 C853 1.370 . S
C856 H875 0.930 . S
Tb857 N854 2.600 . S
Tb857 N858 2.660 . S
Tb857 O891 2.362 . S
Tb857 O892 2.421 . S
Tb857 O896 2.546 . S
Tb857 O897 2.610 . S
Tb857 O899 2.320 . S
Tb857 O900 2.552 . S
Tb857 O901 2.413 . S
Tb857 C921 2.833 . S
N858 C850 1.360 . S
N858 Tb857 2.660 . S
N858 C859 1.305 . S
C859 N858 1.305 . S
C859 C861 1.407 . S
C859 H866 0.930 . S
C860 C848 1.410 . S
C860 C861 1.345 . S
C860 H868 0.930 . S
C861 C859 1.407 . S
C861 C860 1.345 . S
C861 H863 0.930 . S
H862 C855 0.930 . S
H863 C861 0.930 . S
H864 C852 0.930 . S
H865 C853 0.931 . S
H866 C859 0.930 . S
H867 C881 0.930 . S
H868 C860 0.930 . S
H869 C887 0.930 . S
H870 C878 0.930 . S
H871 C885 0.931 . S
H872 C849 0.929 . S
H873 C879 0.930 . S
H874 C912 0.930 . S
H875 C856 0.930 . S
H876 C911 0.929 . S
N877 Tb846 2.660 . S
N877 C878 1.305 . S
N877 C882 1.360 . S
C878 H870 0.930 . S
C878 N877 1.305 . S
C878 C881 1.407 . S
C879 H873 0.930 . S
C879 C880 1.410 . S
C879 C881 1.345 . S
C880 C879 1.410 . S
C880 C882 1.417 . S
C880 C912 1.432 . S
C881 H867 0.930 . S
C881 C878 1.407 . S
C881 C879 1.345 . S
C882 N877 1.360 . S
C882 C880 1.417 . S
C882 C886 1.432 . S
H883 C888 0.930 . S
N884 Tb846 2.600 . S
N884 C886 1.359 . S
N884 C887 1.327 . S
C885 H871 0.931 . S
C885 C887 1.392 . S
C885 C888 1.370 . S
C886 C882 1.432 . S
C886 N884 1.359 . S
C886 C889 1.414 . S
C887 H869 0.930 . S
C887 N884 1.327 . S
C887 C885 1.392 . S
C888 H883 0.930 . S
C888 C885 1.370 . S
C888 C889 1.385 . S
C889 C886 1.414 . S
C889 C888 1.385 . S
C889 C911 1.444 . S
O890 Tb846 2.546 . S
O890 C910 1.251 . S
O891 Tb846 2.610 . S
O891 Tb857 2.362 . S
O891 C902 1.283 . S
O892 Tb857 2.421 . S
O892 C909 1.262 . S
O893 Tb846 2.320 . S
O893 C909 1.260 . S
O894 Tb846 2.552 . S
O894 C902 1.243 . S
O895 Tb846 2.413 . S
O895 C910 1.256 . S
O896 Tb857 2.546 . S
O896 C921 1.251 . S
O897 Tb846 2.362 . S
O897 Tb857 2.610 . S
O897 C913 1.283 . S
O898 Tb846 2.421 . S
O898 C920 1.262 . S
O899 Tb857 2.320 . S
O899 C920 1.260 . S
O900 Tb857 2.552 . S
O900 C913 1.243 . S
O901 Tb857 2.413 . S
O901 C921 1.256 . S
C902 O891 1.283 . S
C902 O894 1.243 . S
C903 C905 1.382 . S
C903 C907 1.393 . S
C903 C910 1.500 . S
C904 C905 1.400 . S
C904 C906 1.384 . S
C905 C903 1.382 . S
C905 C904 1.400 . S
C905 H922 0.930 . S
C906 C904 1.384 . S
C906 C908 1.392 . S
C906 H923 0.931 . S
C907 C903 1.393 . S
C907 C908 1.401 . S
C907 H924 0.930 . S
C908 C906 1.392 . S
C908 C907 1.401 . S
C908 H925 0.930 . S
C909 O892 1.262 . S
C909 O893 1.260 . S
C910 Tb846 2.833 . S
C910 O890 1.251 . S
C910 O895 1.256 . S
C910 C903 1.500 . S
C911 H876 0.929 . S
C911 C889 1.444 . S
C911 C912 1.317 . S
C912 H874 0.930 . S
C912 C880 1.432 . S
C912 C911 1.317 . S
C913 O897 1.283 . S
C913 O900 1.243 . S
C914 C915 1.382 . S
C914 C918 1.393 . S
C914 C921 1.500 . S
C915 C914 1.382 . S
C915 C916 1.400 . S
C915 H926 0.930 . S
C916 C915 1.400 . S
C916 C917 1.384 . S
C917 C916 1.384 . S
C917 C919 1.392 . S
C917 H927 0.931 . S
C918 C914 1.393 . S
C918 C919 1.401 . S
C918 H928 0.930 . S
C919 C917 1.392 . S
C919 C918 1.401 . S
C919 H929 0.930 . S
C920 O898 1.262 . S
C920 O899 1.260 . S
C921 Tb857 2.833 . S
C921 O896 1.251 . S
C921 O901 1.256 . S
C921 C914 1.500 . S
H922 C905 0.930 . S
H923 C906 0.931 . S
H924 C907 0.930 . S
H925 C908 0.930 . S
H926 C915 0.930 . S
H927 C917 0.931 . S
H928 C918 0.930 . S
H929 C919 0.930 . S
Tb930 N961 2.660 . S
Tb930 N968 2.600 . S
Tb930 O974 2.546 . S
Tb930 O975 2.610 . S
Tb930 O977 2.320 . S
Tb930 O978 2.552 . S
Tb930 O979 2.413 . S
Tb930 O981 2.362 . S
Tb930 O982 2.421 . S
Tb930 C994 2.833 . S
C931 C934 1.432 . S
C931 C935 1.414 . S
C931 N938 1.359 . S
C932 C934 1.417 . S
C932 C936 1.432 . S
C932 C944 1.410 . S
C933 C935 1.444 . S
C933 C936 1.317 . S
C933 H956 0.929 . S
C934 C931 1.432 . S
C934 C932 1.417 . S
C934 N942 1.360 . S
C935 C931 1.414 . S
C935 C933 1.444 . S
C935 C940 1.385 . S
C936 C932 1.432 . S
C936 C933 1.317 . S
C936 H948 0.930 . S
C937 C939 1.392 . S
C937 C940 1.370 . S
C937 H949 0.931 . S
N938 C931 1.359 . S
N938 C939 1.327 . S
N938 Tb941 2.600 . S
C939 C937 1.392 . S
C939 N938 1.327 . S
C939 H946 0.930 . S
C940 C935 1.385 . S
C940 C937 1.370 . S
C940 H959 0.930 . S
Tb941 N938 2.600 . S
Tb941 N942 2.660 . S
Tb941 O975 2.362 . S
Tb941 O976 2.421 . S
Tb941 O980 2.546 . S
Tb941 O981 2.610 . S
Tb941 O983 2.320 . S
Tb941 O984 2.552 . S
Tb941 O985 2.413 . S
Tb941 C1005 2.833 . S
N942 C934 1.360 . S
N942 Tb941 2.660 . S
N942 C943 1.305 . S
C943 N942 1.305 . S
C943 C945 1.407 . S
C943 H950 0.930 . S
C944 C932 1.410 . S
C944 C945 1.345 . S
C944 H952 0.930 . S
C945 C943 1.407 . S
C945 C944 1.345 . S
C945 H947 0.930 . S
H946 C939 0.930 . S
H947 C945 0.930 . S
H948 C936 0.930 . S
H949 C937 0.931 . S
H950 C943 0.930 . S
H951 C965 0.930 . S
H952 C944 0.930 . S
H953 C971 0.930 . S
H954 C962 0.930 . S
H955 C969 0.931 . S
H956 C933 0.929 . S
H957 C963 0.930 . S
H958 C996 0.930 . S
H959 C940 0.930 . S
H960 C995 0.929 . S
N961 Tb930 2.660 . S
N961 C962 1.305 . S
N961 C966 1.360 . S
C962 H954 0.930 . S
C962 N961 1.305 . S
C962 C965 1.407 . S
C963 H957 0.930 . S
C963 C964 1.410 . S
C963 C965 1.345 . S
C964 C963 1.410 . S
C964 C966 1.417 . S
C964 C996 1.432 . S
C965 H951 0.930 . S
C965 C962 1.407 . S
C965 C963 1.345 . S
C966 N961 1.360 . S
C966 C964 1.417 . S
C966 C970 1.432 . S
H967 C972 0.930 . S
N968 Tb930 2.600 . S
N968 C970 1.359 . S
N968 C971 1.327 . S
C969 H955 0.931 . S
C969 C971 1.392 . S
C969 C972 1.370 . S
C970 C966 1.432 . S
C970 N968 1.359 . S
C970 C973 1.414 . S
C971 H953 0.930 . S
C971 N968 1.327 . S
C971 C969 1.392 . S
C972 H967 0.930 . S
C972 C969 1.370 . S
C972 C973 1.385 . S
C973 C970 1.414 . S
C973 C972 1.385 . S
C973 C995 1.444 . S
O974 Tb930 2.546 . S
O974 C994 1.251 . S
O975 Tb930 2.610 . S
O975 Tb941 2.362 . S
O975 C986 1.283 . S
O976 Tb941 2.421 . S
O976 C993 1.262 . S
O977 Tb930 2.320 . S
O977 C993 1.260 . S
O978 Tb930 2.552 . S
O978 C986 1.243 . S
O979 Tb930 2.413 . S
O979 C994 1.256 . S
O980 Tb941 2.546 . S
O980 C1005 1.251 . S
O981 Tb930 2.362 . S
O981 Tb941 2.610 . S
O981 C997 1.283 . S
O982 Tb930 2.421 . S
O982 C1004 1.262 . S
O983 Tb941 2.320 . S
O983 C1004 1.260 . S
O984 Tb941 2.552 . S
O984 C997 1.243 . S
O985 Tb941 2.413 . S
O985 C1005 1.256 . S
C986 O975 1.283 . S
C986 O978 1.243 . S
C987 C989 1.382 . S
C987 C991 1.393 . S
C987 C994 1.500 . S
C988 C989 1.400 . S
C988 C990 1.384 . S
C989 C987 1.382 . S
C989 C988 1.400 . S
C989 H1006 0.930 . S
C990 C988 1.384 . S
C990 C992 1.392 . S
C990 H1007 0.931 . S
C991 C987 1.393 . S
C991 C992 1.401 . S
C991 H1008 0.930 . S
C992 C990 1.392 . S
C992 C991 1.401 . S
C992 H1009 0.930 . S
C993 O976 1.262 . S
C993 O977 1.260 . S
C994 Tb930 2.833 . S
C994 O974 1.251 . S
C994 O979 1.256 . S
C994 C987 1.500 . S
C995 H960 0.929 . S
C995 C973 1.444 . S
C995 C996 1.317 . S
C996 H958 0.930 . S
C996 C964 1.432 . S
C996 C995 1.317 . S
C997 O981 1.283 . S
C997 O984 1.243 . S
C998 C999 1.382 . S
C998 C1002 1.393 . S
C998 C1005 1.500 . S
C999 C998 1.382 . S
C999 C1000 1.400 . S
C999 H1010 0.930 . S
C1000 C999 1.400 . S
C1000 C1001 1.384 . S
C1001 C1000 1.384 . S
C1001 C1003 1.392 . S
C1001 H1011 0.931 . S
C1002 C998 1.393 . S
C1002 C1003 1.401 . S
C1002 H1012 0.930 . S
C1003 C1001 1.392 . S
C1003 C1002 1.401 . S
C1003 H1013 0.930 . S
C1004 O982 1.262 . S
C1004 O983 1.260 . S
C1005 Tb941 2.833 . S
C1005 O980 1.251 . S
C1005 O985 1.256 . S
C1005 C998 1.500 . S
H1006 C989 0.930 . S
H1007 C990 0.931 . S
H1008 C991 0.930 . S
H1009 C992 0.930 . S
H1010 C999 0.930 . S
H1011 C1001 0.931 . S
H1012 C1002 0.930 . S
H1013 C1003 0.930 . S
Tb1014 N1045 2.660 . S
Tb1014 N1052 2.600 . S
Tb1014 O1058 2.546 . S
Tb1014 O1059 2.610 . S
Tb1014 O1061 2.320 . S
Tb1014 O1062 2.552 . S
Tb1014 O1063 2.413 . S
Tb1014 O1065 2.362 . S
Tb1014 O1066 2.421 . S
Tb1014 C1078 2.833 . S
C1015 C1018 1.432 . S
C1015 C1019 1.414 . S
C1015 N1022 1.359 . S
C1016 C1018 1.417 . S
C1016 C1020 1.432 . S
C1016 C1028 1.410 . S
C1017 C1019 1.444 . S
C1017 C1020 1.317 . S
C1017 H1040 0.929 . S
C1018 C1015 1.432 . S
C1018 C1016 1.417 . S
C1018 N1026 1.360 . S
C1019 C1015 1.414 . S
C1019 C1017 1.444 . S
C1019 C1024 1.385 . S
C1020 C1016 1.432 . S
C1020 C1017 1.317 . S
C1020 H1032 0.930 . S
C1021 C1023 1.392 . S
C1021 C1024 1.370 . S
C1021 H1033 0.931 . S
N1022 C1015 1.359 . S
N1022 C1023 1.327 . S
N1022 Tb1025 2.600 . S
C1023 C1021 1.392 . S
C1023 N1022 1.327 . S
C1023 H1030 0.930 . S
C1024 C1019 1.385 . S
C1024 C1021 1.370 . S
C1024 H1043 0.930 . S
Tb1025 N1022 2.600 . S
Tb1025 N1026 2.660 . S
Tb1025 O1059 2.362 . S
Tb1025 O1060 2.421 . S
Tb1025 O1064 2.546 . S
Tb1025 O1065 2.610 . S
Tb1025 O1067 2.320 . S
Tb1025 O1068 2.552 . S
Tb1025 O1069 2.413 . S
Tb1025 C1089 2.833 . S
N1026 C1018 1.360 . S
N1026 Tb1025 2.660 . S
N1026 C1027 1.305 . S
C1027 N1026 1.305 . S
C1027 C1029 1.407 . S
C1027 H1034 0.930 . S
C1028 C1016 1.410 . S
C1028 C1029 1.345 . S
C1028 H1036 0.930 . S
C1029 C1027 1.407 . S
C1029 C1028 1.345 . S
C1029 H1031 0.930 . S
H1030 C1023 0.930 . S
H1031 C1029 0.930 . S
H1032 C1020 0.930 . S
H1033 C1021 0.931 . S
H1034 C1027 0.930 . S
H1035 C1049 0.930 1_455 S
H1036 C1028 0.930 . S
H1037 C1055 0.930 . S
H1038 C1046 0.930 . S
H1039 C1053 0.931 . S
H1040 C1017 0.929 . S
H1041 C1047 0.930 . S
H1042 C1080 0.930 . S
H1043 C1024 0.930 . S
H1044 C1079 0.929 1_455 S
N1045 Tb1014 2.660 . S
N1045 C1046 1.305 . S
N1045 C1050 1.360 . S
C1046 H1038 0.930 . S
C1046 N1045 1.305 . S
C1046 C1049 1.407 . S
C1047 H1041 0.930 . S
C1047 C1048 1.410 1_455 S
C1047 C1049 1.345 1_455 S
C1048 C1047 1.410 1_655 S
C1048 C1050 1.417 . S
C1048 C1080 1.432 1_655 S
C1049 H1035 0.930 1_655 S
C1049 C1046 1.407 . S
C1049 C1047 1.345 1_655 S
C1050 N1045 1.360 . S
C1050 C1048 1.417 . S
C1050 C1054 1.432 . S
H1051 C1056 0.930 . S
N1052 Tb1014 2.600 . S
N1052 C1054 1.359 . S
N1052 C1055 1.327 . S
C1053 H1039 0.931 . S
C1053 C1055 1.392 . S
C1053 C1056 1.370 . S
C1054 C1050 1.432 . S
C1054 N1052 1.359 . S
C1054 C1057 1.414 . S
C1055 H1037 0.930 . S
C1055 N1052 1.327 . S
C1055 C1053 1.392 . S
C1056 H1051 0.930 . S
C1056 C1053 1.370 . S
C1056 C1057 1.385 . S
C1057 C1054 1.414 . S
C1057 C1056 1.385 . S
C1057 C1079 1.444 . S
O1058 Tb1014 2.546 . S
O1058 C1078 1.251 . S
O1059 Tb1014 2.610 . S
O1059 Tb1025 2.362 . S
O1059 C1070 1.283 . S
O1060 Tb1025 2.421 . S
O1060 C1077 1.262 . S
O1061 Tb1014 2.320 . S
O1061 C1077 1.260 . S
O1062 Tb1014 2.552 . S
O1062 C1070 1.243 . S
O1063 Tb1014 2.413 . S
O1063 C1078 1.256 . S
O1064 Tb1025 2.546 . S
O1064 C1089 1.251 . S
O1065 Tb1014 2.362 . S
O1065 Tb1025 2.610 . S
O1065 C1081 1.283 . S
O1066 Tb1014 2.421 . S
O1066 C1088 1.262 . S
O1067 Tb1025 2.320 . S
O1067 C1088 1.260 . S
O1068 Tb1025 2.552 . S
O1068 C1081 1.243 . S
O1069 Tb1025 2.413 . S
O1069 C1089 1.256 . S
C1070 O1059 1.283 . S
C1070 O1062 1.243 . S
C1071 C1073 1.382 . S
C1071 C1075 1.393 . S
C1071 C1078 1.500 . S
C1072 C1073 1.400 . S
C1072 C1074 1.384 . S
C1073 C1071 1.382 . S
C1073 C1072 1.400 . S
C1073 H1090 0.930 . S
C1074 C1072 1.384 . S
C1074 C1076 1.392 . S
C1074 H1091 0.931 . S
C1075 C1071 1.393 . S
C1075 C1076 1.401 . S
C1075 H1092 0.930 . S
C1076 C1074 1.392 . S
C1076 C1075 1.401 . S
C1076 H1093 0.930 . S
C1077 O1060 1.262 . S
C1077 O1061 1.260 . S
C1078 Tb1014 2.833 . S
C1078 O1058 1.251 . S
C1078 O1063 1.256 . S
C1078 C1071 1.500 . S
C1079 H1044 0.929 1_655 S
C1079 C1057 1.444 . S
C1079 C1080 1.317 1_655 S
C1080 H1042 0.930 . S
C1080 C1048 1.432 1_455 S
C1080 C1079 1.317 1_455 S
C1081 O1065 1.283 . S
C1081 O1068 1.243 . S
C1082 C1083 1.382 . S
C1082 C1086 1.393 . S
C1082 C1089 1.500 . S
C1083 C1082 1.382 . S
C1083 C1084 1.400 . S
C1083 H1094 0.930 . S
C1084 C1083 1.400 . S
C1084 C1085 1.384 . S
C1085 C1084 1.384 . S
C1085 C1087 1.392 . S
C1085 H1095 0.931 . S
C1086 C1082 1.393 . S
C1086 C1087 1.401 . S
C1086 H1096 0.930 . S
C1087 C1085 1.392 . S
C1087 C1086 1.401 . S
C1087 H1097 0.930 . S
C1088 O1066 1.262 . S
C1088 O1067 1.260 . S
C1089 Tb1025 2.833 . S
C1089 O1064 1.251 . S
C1089 O1069 1.256 . S
C1089 C1082 1.500 . S
H1090 C1073 0.930 . S
H1091 C1074 0.931 . S
H1092 C1075 0.930 . S
H1093 C1076 0.930 . S
H1094 C1083 0.930 . S
H1095 C1085 0.931 . S
H1096 C1086 0.930 . S
H1097 C1087 0.930 . S
H1098 C1104 0.930 . S
H1099 C1107 0.930 . S
H1100 C1108 0.930 1_556 S
H1101 C1109 0.949 . S
H1102 C1112 0.930 . S
H1103 C1113 0.930 . S
C1104 H1098 0.930 . S
C1104 C1105 1.355 . S
C1104 C1106 1.415 . S
C1105 C1104 1.355 . S
C1105 C1107 1.419 . S
C1106 C1104 1.415 . S
C1106 C1111 1.425 . S
C1106 C1113 1.409 . S
C1107 H1099 0.930 . S
C1107 C1105 1.419 . S
C1107 C1108 1.362 . S
C1108 H1100 0.930 1_554 S
C1108 C1107 1.362 . S
C1108 C1111 1.409 . S
C1109 H1101 0.949 . S
C1109 C1110 1.355 . S
C1109 C1111 1.415 . S
C1110 C1109 1.355 . S
C1110 C1112 1.419 . S
C1111 C1106 1.425 . S
C1111 C1108 1.409 . S
C1111 C1109 1.415 . S
C1112 H1102 0.930 . S
C1112 C1110 1.419 . S
C1112 C1113 1.362 . S
C1113 H1103 0.930 . S
C1113 C1106 1.409 . S
C1113 C1112 1.362 . S
H1114 C1120 0.930 . S
H1115 C1123 0.930 . S
H1116 C1124 0.930 . S
H1117 C1125 0.930 . S
H1118 C1128 0.930 . S
H1119 C1129 0.930 . S
C1120 H1114 0.930 . S
C1120 C1121 1.355 . S
C1120 C1122 1.415 . S
C1121 C1120 1.355 . S
C1121 C1123 1.419 . S
C1122 C1120 1.415 . S
C1122 C1127 1.425 . S
C1122 C1129 1.409 . S
C1123 H1115 0.930 . S
C1123 C1121 1.419 . S
C1123 C1124 1.362 . S
C1124 H1116 0.930 . S
C1124 C1123 1.362 . S
C1124 C1127 1.409 . S
C1125 H1117 0.930 . S
C1125 C1126 1.355 . S
C1125 C1127 1.415 . S
C1126 C1125 1.355 . S
C1126 C1128 1.419 . S
C1127 C1122 1.425 . S
C1127 C1124 1.409 . S
C1127 C1125 1.415 . S
C1128 H1118 0.930 . S
C1128 C1126 1.419 . S
C1128 C1129 1.362 . S
C1129 H1119 0.930 . S
C1129 C1122 1.409 . S
C1129 C1128 1.362 . S
H1130 C1136 0.930 . S
H1131 C1139 0.930 . S
H1132 C1140 0.930 . S
H1133 C1141 0.930 . S
H1134 C1144 0.930 . S
H1135 C1145 0.930 . S
C1136 H1130 0.930 . S
C1136 C1137 1.355 . S
C1136 C1138 1.415 . S
C1137 C1136 1.355 . S
C1137 C1139 1.419 . S
C1138 C1136 1.415 . S
C1138 C1143 1.425 . S
C1138 C1145 1.409 . S
C1139 H1131 0.930 . S
C1139 C1137 1.419 . S
C1139 C1140 1.362 . S
C1140 H1132 0.930 . S
C1140 C1139 1.362 . S
C1140 C1143 1.409 . S
C1141 H1133 0.930 . S
C1141 C1142 1.355 . S
C1141 C1143 1.415 . S
C1142 C1141 1.355 . S
C1142 C1144 1.419 . S
C1143 C1138 1.425 . S
C1143 C1140 1.409 . S
C1143 C1141 1.415 . S
C1144 H1134 0.930 . S
C1144 C1142 1.419 . S
C1144 C1145 1.362 . S
C1145 H1135 0.930 . S
C1145 C1138 1.409 . S
C1145 C1144 1.362 . S
H1146 C1152 0.930 . S
H1147 C1155 0.930 . S
H1148 C1156 0.927 1_554 S
H1149 C1157 0.930 1_554 S
H1150 C1160 0.930 . S
H1151 C1161 0.930 . S
C1152 H1146 0.930 . S
C1152 C1153 1.355 . S
C1152 C1154 1.415 . S
C1153 C1152 1.355 . S
C1153 C1155 1.419 . S
C1154 C1152 1.415 . S
C1154 C1159 1.425 . S
C1154 C1161 1.409 . S
C1155 H1147 0.930 . S
C1155 C1153 1.419 . S
C1155 C1156 1.362 . S
C1156 H1148 0.927 1_556 S
C1156 C1155 1.362 . S
C1156 C1159 1.409 . S
C1157 H1149 0.930 1_556 S
C1157 C1158 1.355 . S
C1157 C1159 1.415 . S
C1158 C1157 1.355 . S
C1158 C1160 1.419 . S
C1159 C1154 1.425 . S
C1159 C1156 1.409 . S
C1159 C1157 1.415 . S
C1160 H1150 0.930 . S
C1160 C1158 1.419 . S
C1160 C1161 1.362 . S
C1161 H1151 0.930 . S
C1161 C1154 1.409 . S
C1161 C1160 1.362 . S
H1162 C1168 0.930 . S
H1163 C1171 0.930 . S
H1164 C1172 0.930 . S
H1165 C1173 0.930 . S
H1166 C1176 0.930 . S
H1167 C1177 0.930 . S
C1168 H1162 0.930 . S
C1168 C1169 1.355 . S
C1168 C1170 1.415 . S
C1169 C1168 1.355 . S
C1169 C1171 1.419 . S
C1170 C1168 1.415 . S
C1170 C1175 1.425 . S
C1170 C1177 1.409 . S
C1171 H1163 0.930 . S
C1171 C1169 1.419 . S
C1171 C1172 1.362 1_556 S
C1172 H1164 0.930 . S
C1172 C1171 1.362 1_554 S
C1172 C1175 1.409 1_554 S
C1173 H1165 0.930 . S
C1173 C1174 1.355 1_554 S
C1173 C1175 1.415 1_554 S
C1174 C1173 1.355 1_556 S
C1174 C1176 1.419 . S
C1175 C1170 1.425 . S
C1175 C1172 1.409 1_556 S
C1175 C1173 1.415 1_556 S
C1176 H1166 0.930 . S
C1176 C1174 1.419 . S
C1176 C1177 1.362 . S
C1177 H1167 0.930 . S
C1177 C1170 1.409 . S
C1177 C1176 1.362 . S
H1178 C1184 0.930 . S
H1179 C1187 0.930 . S
H1180 C1188 0.930 . S
H1181 C1189 0.930 . S
H1182 C1192 0.935 . S
H1183 C1193 0.930 . S
C1184 H1178 0.930 . S
C1184 C1185 1.355 . S
C1184 C1186 1.415 . S
C1185 C1184 1.355 . S
C1185 C1187 1.419 . S
C1186 C1184 1.415 . S
C1186 C1191 1.425 . S
C1186 C1193 1.409 . S
C1187 H1179 0.930 . S
C1187 C1185 1.419 . S
C1187 C1188 1.362 . S
C1188 H1180 0.930 . S
C1188 C1187 1.362 . S
C1188 C1191 1.409 . S
C1189 H1181 0.930 . S
C1189 C1190 1.355 . S
C1189 C1191 1.415 . S
C1190 C1189 1.355 . S
C1190 C1192 1.418 1_556 S
C1191 C1186 1.425 . S
C1191 C1188 1.409 . S
C1191 C1189 1.415 . S
C1192 H1182 0.935 . S
C1192 C1190 1.418 1_554 S
C1192 C1193 1.359 1_554 S
C1193 H1183 0.930 . S
C1193 C1186 1.409 . S
C1193 C1192 1.359 1_556 S
H1194 C1200 0.930 . S
H1195 C1203 0.930 . S
H1196 C1204 0.930 . S
H1197 C1205 0.930 . S
H1198 C1208 0.930 . S
H1199 C1209 0.930 . S
C1200 H1194 0.930 . S
C1200 C1201 1.355 . S
C1200 C1202 1.415 . S
C1201 C1200 1.355 . S
C1201 C1203 1.419 1_556 S
C1202 C1200 1.415 . S
C1202 C1207 1.405 1_556 S
C1202 C1209 1.409 . S
C1203 H1195 0.930 . S
C1203 C1201 1.419 1_554 S
C1203 C1204 1.362 . S
C1204 H1196 0.930 . S
C1204 C1203 1.362 . S
C1204 C1207 1.422 . S
C1205 H1197 0.930 . S
C1205 C1206 1.355 1_554 S
C1205 C1207 1.421 . S
C1206 C1205 1.355 1_556 S
C1206 C1208 1.419 . S
C1207 C1202 1.405 1_554 S
C1207 C1204 1.422 . S
C1207 C1205 1.421 . S
C1208 H1198 0.930 . S
C1208 C1206 1.419 . S
C1208 C1209 1.362 . S
C1209 H1199 0.930 . S
C1209 C1202 1.409 . S
C1209 C1208 1.362 . S
H1210 C1216 0.930 1_554 S
H1211 C1219 0.930 . S
H1212 C1220 0.930 . S
H1213 C1221 0.930 . S
H1214 C1224 0.930 . S
H1215 C1225 0.930 . S
C1216 H1210 0.930 1_556 S
C1216 C1217 1.355 . S
C1216 C1218 1.415 . S
C1217 C1216 1.355 . S
C1217 C1219 1.419 . S
C1218 C1216 1.415 . S
C1218 C1223 1.425 . S
C1218 C1225 1.409 1_556 S
C1219 H1211 0.930 . S
C1219 C1217 1.419 . S
C1219 C1220 1.362 . S
C1220 H1212 0.930 . S
C1220 C1219 1.362 . S
C1220 C1223 1.409 . S
C1221 H1213 0.930 . S
C1221 C1222 1.355 . S
C1221 C1223 1.415 . S
C1222 C1221 1.355 . S
C1222 C1224 1.419 1_556 S
C1223 C1218 1.425 . S
C1223 C1220 1.409 . S
C1223 C1221 1.415 . S
C1224 H1214 0.930 . S
C1224 C1222 1.419 1_554 S
C1224 C1225 1.362 . S
C1225 H1215 0.930 . S
C1225 C1218 1.409 1_554 S
C1225 C1224 1.362 . S
H1226 C1232 0.930 . S
H1227 C1235 0.930 . S
H1228 C1236 0.930 . S
H1229 C1237 0.930 . S
H1230 C1240 0.930 . S
H1231 C1241 0.936 . S
C1232 H1226 0.930 . S
C1232 C1233 1.355 . S
C1232 C1234 1.415 . S
C1233 C1232 1.355 . S
C1233 C1235 1.419 . S
C1234 C1232 1.415 . S
C1234 C1239 1.425 . S
C1234 C1241 1.401 1_556 S
C1235 H1227 0.930 . S
C1235 C1233 1.419 . S
C1235 C1236 1.362 . S
C1236 H1228 0.930 . S
C1236 C1235 1.362 . S
C1236 C1239 1.409 . S
C1237 H1229 0.930 . S
C1237 C1238 1.354 1_556 S
C1237 C1239 1.415 . S
C1238 C1237 1.354 1_554 S
C1238 C1240 1.419 . S
C1239 C1234 1.425 . S
C1239 C1236 1.409 . S
C1239 C1237 1.415 . S
C1240 H1230 0.930 . S
C1240 C1238 1.419 . S
C1240 C1241 1.366 . S
C1241 H1231 0.936 . S
C1241 C1234 1.401 1_554 S
C1241 C1240 1.366 . S
H1242 C1248 0.930 . S
H1243 C1251 0.930 . S
H1244 C1252 0.930 . S
H1245 C1253 0.930 . S
H1246 C1256 0.930 . S
H1247 C1257 0.930 . S
C1248 H1242 0.930 . S
C1248 C1249 1.355 . S
C1248 C1250 1.415 . S
C1249 C1248 1.355 . S
C1249 C1251 1.419 . S
C1250 C1248 1.415 . S
C1250 C1255 1.425 . S
C1250 C1257 1.409 . S
C1251 H1243 0.930 . S
C1251 C1249 1.419 . S
C1251 C1252 1.362 . S
C1252 H1244 0.930 . S
C1252 C1251 1.362 . S
C1252 C1255 1.409 . S
C1253 H1245 0.930 . S
C1253 C1254 1.355 . S
C1253 C1255 1.415 . S
C1254 C1253 1.355 . S
C1254 C1256 1.419 . S
C1255 C1250 1.425 . S
C1255 C1252 1.409 . S
C1255 C1253 1.415 . S
C1256 H1246 0.930 . S
C1256 C1254 1.419 . S
C1256 C1257 1.362 . S
C1257 H1247 0.930 . S
C1257 C1250 1.409 . S
C1257 C1256 1.362 . S
H1258 C1264 0.930 . S
H1259 C1267 0.930 . S
H1260 C1268 0.930 . S
H1261 C1269 0.930 . S
H1262 C1272 0.930 . S
H1263 C1273 0.930 . S
C1264 H1258 0.930 . S
C1264 C1265 1.355 . S
C1264 C1266 1.415 . S
C1265 C1264 1.355 . S
C1265 C1267 1.419 . S
C1266 C1264 1.415 . S
C1266 C1271 1.425 . S
C1266 C1273 1.409 . S
C1267 H1259 0.930 . S
C1267 C1265 1.419 . S
C1267 C1268 1.362 . S
C1268 H1260 0.930 . S
C1268 C1267 1.362 . S
C1268 C1271 1.409 . S
C1269 H1261 0.930 . S
C1269 C1270 1.355 . S
C1269 C1271 1.415 . S
C1270 C1269 1.355 . S
C1270 C1272 1.419 . S
C1271 C1266 1.425 . S
C1271 C1268 1.409 . S
C1271 C1269 1.415 . S
C1272 H1262 0.930 . S
C1272 C1270 1.419 . S
C1272 C1273 1.362 . S
C1273 H1263 0.930 . S
C1273 C1266 1.409 . S
C1273 C1272 1.362 . S
H1274 C1280 0.930 . S
H1275 C1283 0.930 . S
H1276 C1284 0.930 . S
H1277 C1285 0.930 . S
H1278 C1288 0.930 . S
H1279 C1289 0.930 . S
C1280 H1274 0.930 . S
C1280 C1281 1.355 . S
C1280 C1282 1.415 . S
C1281 C1280 1.355 . S
C1281 C1283 1.419 . S
C1282 C1280 1.415 . S
C1282 C1287 1.425 . S
C1282 C1289 1.409 . S
C1283 H1275 0.930 . S
C1283 C1281 1.419 . S
C1283 C1284 1.362 . S
C1284 H1276 0.930 . S
C1284 C1283 1.362 . S
C1284 C1287 1.409 . S
C1285 H1277 0.930 . S
C1285 C1286 1.355 . S
C1285 C1287 1.415 . S
C1286 C1285 1.355 . S
C1286 C1288 1.419 . S
C1287 C1282 1.425 . S
C1287 C1284 1.409 . S
C1287 C1285 1.415 . S
C1288 H1278 0.930 . S
C1288 C1286 1.419 . S
C1288 C1289 1.362 . S
C1289 H1279 0.930 . S
C1289 C1282 1.409 . S
C1289 C1288 1.362 . S
H1290 C1296 0.930 . S
H1291 C1299 0.930 . S
H1292 C1300 0.930 . S
H1293 C1301 0.930 . S
H1294 C1304 0.930 . S
H1295 C1305 0.930 . S
C1296 H1290 0.930 . S
C1296 C1297 1.355 . S
C1296 C1298 1.415 . S
C1297 C1296 1.355 . S
C1297 C1299 1.419 . S
C1298 C1296 1.415 . S
C1298 C1303 1.425 1_655 S
C1298 C1305 1.409 . S
C1299 H1291 0.930 . S
C1299 C1297 1.419 . S
C1299 C1300 1.362 1_655 S
C1300 H1292 0.930 . S
C1300 C1299 1.362 1_455 S
C1300 C1303 1.409 . S
C1301 H1293 0.930 . S
C1301 C1302 1.355 . S
C1301 C1303 1.415 . S
C1302 C1301 1.355 . S
C1302 C1304 1.419 . S
C1303 C1298 1.425 1_455 S
C1303 C1300 1.409 . S
C1303 C1301 1.415 . S
C1304 H1294 0.930 . S
C1304 C1302 1.419 . S
C1304 C1305 1.362 1_455 S
C1305 H1295 0.930 . S
C1305 C1298 1.409 . S
C1305 C1304 1.362 1_655 S
H1306 C1312 0.930 . S
H1307 C1315 0.930 . S
H1308 C1316 0.930 . S
H1309 C1317 0.930 . S
H1310 C1320 0.930 . S
H1311 C1321 0.930 . S
C1312 H1306 0.930 . S
C1312 C1313 1.355 . S
C1312 C1314 1.415 . S
C1313 C1312 1.355 . S
C1313 C1315 1.419 . S
C1314 C1312 1.415 . S
C1314 C1319 1.425 . S
C1314 C1321 1.409 . S
C1315 H1307 0.930 . S
C1315 C1313 1.419 . S
C1315 C1316 1.362 . S
C1316 H1308 0.930 . S
C1316 C1315 1.362 . S
C1316 C1319 1.409 . S
C1317 H1309 0.930 . S
C1317 C1318 1.355 . S
C1317 C1319 1.415 . S
C1318 C1317 1.355 . S
C1318 C1320 1.419 . S
C1319 C1314 1.425 . S
C1319 C1316 1.409 . S
C1319 C1317 1.415 . S
C1320 H1310 0.930 . S
C1320 C1318 1.419 . S
C1320 C1321 1.362 . S
C1321 H1311 0.930 . S
C1321 C1314 1.409 . S
C1321 C1320 1.362 . S
H1322 C1328 0.930 . S
H1323 C1331 0.930 . S
H1324 C1332 0.930 1_565 S
H1325 C1333 0.930 . S
H1326 C1336 0.930 . S
H1327 C1337 0.930 . S
C1328 H1322 0.930 . S
C1328 C1329 1.355 . S
C1328 C1330 1.415 . S
C1329 C1328 1.355 . S
C1329 C1331 1.419 . S
C1330 C1328 1.415 . S
C1330 C1335 1.425 1_545 S
C1330 C1337 1.409 . S
C1331 H1323 0.930 . S
C1331 C1329 1.419 . S
C1331 C1332 1.362 . S
C1332 H1324 0.930 1_545 S
C1332 C1331 1.362 . S
C1332 C1335 1.409 1_545 S
C1333 H1325 0.930 . S
C1333 C1334 1.355 . S
C1333 C1335 1.415 . S
C1334 C1333 1.355 . S
C1334 C1336 1.419 . S
C1335 C1330 1.425 1_565 S
C1335 C1332 1.409 1_565 S
C1335 C1333 1.415 . S
C1336 H1326 0.930 . S
C1336 C1334 1.419 . S
C1336 C1337 1.362 1_565 S
C1337 H1327 0.930 . S
C1337 C1330 1.409 . S
C1337 C1336 1.362 1_545 S
H1338 C1344 0.930 . S
H1339 C1347 0.930 . S
H1340 C1348 0.930 . S
H1341 C1349 0.930 . S
H1342 C1352 0.930 . S
H1343 C1353 0.930 . S
C1344 H1338 0.930 . S
C1344 C1345 1.355 . S
C1344 C1346 1.415 . S
C1345 C1344 1.355 . S
C1345 C1347 1.419 . S
C1346 C1344 1.415 . S
C1346 C1351 1.425 . S
C1346 C1353 1.409 . S
C1347 H1339 0.930 . S
C1347 C1345 1.419 . S
C1347 C1348 1.362 . S
C1348 H1340 0.930 . S
C1348 C1347 1.362 . S
C1348 C1351 1.409 . S
C1349 H1341 0.930 . S
C1349 C1350 1.355 . S
C1349 C1351 1.415 . S
C1350 C1349 1.355 . S
C1350 C1352 1.419 . S
C1351 C1346 1.425 . S
C1351 C1348 1.409 . S
C1351 C1349 1.415 . S
C1352 H1342 0.930 . S
C1352 C1350 1.419 . S
C1352 C1353 1.362 . S
C1353 H1343 0.930 . S
C1353 C1346 1.409 . S
C1353 C1352 1.362 . S
H1354 C1360 0.930 . S
H1355 C1363 0.930 . S
H1356 C1364 0.930 . S
H1357 C1365 0.930 . S
H1358 C1368 0.930 . S
H1359 C1369 0.930 . S
C1360 H1354 0.930 . S
C1360 C1361 1.355 . S
C1360 C1362 1.415 . S
C1361 C1360 1.355 . S
C1361 C1363 1.419 . S
C1362 C1360 1.415 . S
C1362 C1367 1.425 . S
C1362 C1369 1.409 . S
C1363 H1355 0.930 . S
C1363 C1361 1.419 . S
C1363 C1364 1.362 . S
C1364 H1356 0.930 . S
C1364 C1363 1.362 . S
C1364 C1367 1.409 . S
C1365 H1357 0.930 . S
C1365 C1366 1.355 . S
C1365 C1367 1.415 . S
C1366 C1365 1.355 . S
C1366 C1368 1.419 . S
C1367 C1362 1.425 . S
C1367 C1364 1.409 . S
C1367 C1365 1.415 . S
C1368 H1358 0.930 . S
C1368 C1366 1.419 . S
C1368 C1369 1.362 . S
C1369 H1359 0.930 . S
C1369 C1362 1.409 . S
C1369 C1368 1.362 . S
H1370 C1376 0.930 . S
H1371 C1379 0.930 . S
H1372 C1380 0.930 . S
H1373 C1381 0.930 . S
H1374 C1384 0.930 . S
H1375 C1385 0.930 . S
C1376 H1370 0.930 . S
C1376 C1377 1.355 . S
C1376 C1378 1.415 . S
C1377 C1376 1.355 . S
C1377 C1379 1.419 . S
C1378 C1376 1.415 . S
C1378 C1383 1.425 . S
C1378 C1385 1.409 . S
C1379 H1371 0.930 . S
C1379 C1377 1.419 . S
C1379 C1380 1.362 . S
C1380 H1372 0.930 . S
C1380 C1379 1.362 . S
C1380 C1383 1.409 . S
C1381 H1373 0.930 . S
C1381 C1382 1.355 . S
C1381 C1383 1.415 . S
C1382 C1381 1.355 . S
C1382 C1384 1.419 . S
C1383 C1378 1.425 . S
C1383 C1380 1.409 . S
C1383 C1381 1.415 . S
C1384 H1374 0.930 . S
C1384 C1382 1.419 . S
C1384 C1385 1.362 . S
C1385 H1375 0.930 . S
C1385 C1378 1.409 . S
C1385 C1384 1.362 . S
H1386 C1392 0.930 . S
H1387 C1395 0.930 . S
H1388 C1396 0.930 . S
H1389 C1397 0.930 . S
H1390 C1400 0.930 . S
H1391 C1401 0.930 . S
C1392 H1386 0.930 . S
C1392 C1393 1.355 . S
C1392 C1394 1.415 . S
C1393 C1392 1.355 . S
C1393 C1395 1.419 . S
C1394 C1392 1.415 . S
C1394 C1399 1.425 . S
C1394 C1401 1.409 . S
C1395 H1387 0.930 . S
C1395 C1393 1.419 . S
C1395 C1396 1.362 . S
C1396 H1388 0.930 . S
C1396 C1395 1.362 . S
C1396 C1399 1.409 . S
C1397 H1389 0.930 . S
C1397 C1398 1.355 . S
C1397 C1399 1.415 . S
C1398 C1397 1.355 . S
C1398 C1400 1.419 . S
C1399 C1394 1.425 . S
C1399 C1396 1.409 . S
C1399 C1397 1.415 . S
C1400 H1390 0.930 . S
C1400 C1398 1.419 . S
C1400 C1401 1.362 . S
C1401 H1391 0.930 . S
C1401 C1394 1.409 . S
C1401 C1400 1.362 . S
H1402 C1408 0.930 . S
H1403 C1411 0.930 . S
H1404 C1412 0.930 . S
H1405 C1413 0.930 . S
H1406 C1416 0.930 . S
H1407 C1417 0.930 . S
C1408 H1402 0.930 . S
C1408 C1409 1.355 . S
C1408 C1410 1.415 . S
C1409 C1408 1.355 . S
C1409 C1411 1.419 . S
C1410 C1408 1.415 . S
C1410 C1415 1.425 . S
C1410 C1417 1.409 . S
C1411 H1403 0.930 . S
C1411 C1409 1.419 . S
C1411 C1412 1.362 . S
C1412 H1404 0.930 . S
C1412 C1411 1.362 . S
C1412 C1415 1.409 . S
C1413 H1405 0.930 . S
C1413 C1414 1.355 . S
C1413 C1415 1.415 . S
C1414 C1413 1.355 . S
C1414 C1416 1.419 . S
C1415 C1410 1.425 . S
C1415 C1412 1.409 . S
C1415 C1413 1.415 . S
C1416 H1406 0.930 . S
C1416 C1414 1.419 . S
C1416 C1417 1.362 . S
C1417 H1407 0.930 . S
C1417 C1410 1.409 . S
C1417 C1416 1.362 . S
H1418 C1424 0.930 . S
H1419 C1427 0.930 . S
H1420 C1428 0.930 . S
H1421 C1429 0.930 . S
H1422 C1432 0.930 . S
H1423 C1433 0.930 . S
C1424 H1418 0.930 . S
C1424 C1425 1.355 . S
C1424 C1426 1.415 . S
C1425 C1424 1.355 . S
C1425 C1427 1.419 . S
C1426 C1424 1.415 . S
C1426 C1431 1.425 . S
C1426 C1433 1.409 . S
C1427 H1419 0.930 . S
C1427 C1425 1.419 . S
C1427 C1428 1.362 . S
C1428 H1420 0.930 . S
C1428 C1427 1.362 . S
C1428 C1431 1.409 . S
C1429 H1421 0.930 . S
C1429 C1430 1.355 . S
C1429 C1431 1.415 . S
C1430 C1429 1.355 . S
C1430 C1432 1.419 . S
C1431 C1426 1.425 . S
C1431 C1428 1.409 . S
C1431 C1429 1.415 . S
C1432 H1422 0.930 . S
C1432 C1430 1.419 . S
C1432 C1433 1.362 . S
C1433 H1423 0.930 . S
C1433 C1426 1.409 . S
C1433 C1432 1.362 . S
H1434 C1440 0.930 . S
H1435 C1443 0.930 . S
H1436 C1444 0.930 . S
H1437 C1445 0.930 . S
H1438 C1448 0.930 . S
H1439 C1449 0.930 . S
C1440 H1434 0.930 . S
C1440 C1441 1.355 . S
C1440 C1442 1.415 . S
C1441 C1440 1.355 . S
C1441 C1443 1.419 . S
C1442 C1440 1.415 . S
C1442 C1447 1.425 . S
C1442 C1449 1.409 . S
C1443 H1435 0.930 . S
C1443 C1441 1.419 . S
C1443 C1444 1.362 . S
C1444 H1436 0.930 . S
C1444 C1443 1.362 . S
C1444 C1447 1.409 . S
C1445 H1437 0.930 . S
C1445 C1446 1.355 . S
C1445 C1447 1.415 . S
C1446 C1445 1.355 . S
C1446 C1448 1.419 . S
C1447 C1442 1.425 . S
C1447 C1444 1.409 . S
C1447 C1445 1.415 . S
C1448 H1438 0.930 . S
C1448 C1446 1.419 . S
C1448 C1449 1.362 . S
C1449 H1439 0.930 . S
C1449 C1442 1.409 . S
C1449 C1448 1.362 . S
H1450 C1456 0.930 . S
H1451 C1459 0.930 . S
H1452 C1460 0.930 . S
H1453 C1461 0.930 . S
H1454 C1464 0.930 . S
H1455 C1465 0.930 . S
C1456 H1450 0.930 . S
C1456 C1457 1.355 . S
C1456 C1458 1.415 . S
C1457 C1456 1.355 . S
C1457 C1459 1.419 . S
C1458 C1456 1.415 . S
C1458 C1463 1.425 . S
C1458 C1465 1.409 . S
C1459 H1451 0.930 . S
C1459 C1457 1.419 . S
C1459 C1460 1.362 . S
C1460 H1452 0.930 . S
C1460 C1459 1.362 . S
C1460 C1463 1.409 . S
C1461 H1453 0.930 . S
C1461 C1462 1.355 . S
C1461 C1463 1.415 . S
C1462 C1461 1.355 . S
C1462 C1464 1.419 . S
C1463 C1458 1.425 . S
C1463 C1460 1.409 . S
C1463 C1461 1.415 . S
C1464 H1454 0.930 . S
C1464 C1462 1.419 . S
C1464 C1465 1.362 . S
C1465 H1455 0.930 . S
C1465 C1458 1.409 . S
C1465 C1464 1.362 . S
H1466 C1472 0.930 . S
H1467 C1475 0.930 . S
H1468 C1476 0.930 . S
H1469 C1477 0.930 . S
H1470 C1480 0.930 . S
H1471 C1481 0.930 . S
C1472 H1466 0.930 . S
C1472 C1473 1.355 . S
C1472 C1474 1.415 . S
C1473 C1472 1.355 . S
C1473 C1475 1.419 . S
C1474 C1472 1.415 . S
C1474 C1479 1.425 . S
C1474 C1481 1.409 . S
C1475 H1467 0.930 . S
C1475 C1473 1.419 . S
C1475 C1476 1.362 . S
C1476 H1468 0.930 . S
C1476 C1475 1.362 . S
C1476 C1479 1.409 . S
C1477 H1469 0.930 . S
C1477 C1478 1.355 . S
C1477 C1479 1.415 . S
C1478 C1477 1.355 . S
C1478 C1480 1.419 . S
C1479 C1474 1.425 . S
C1479 C1476 1.409 . S
C1479 C1477 1.415 . S
C1480 H1470 0.930 . S
C1480 C1478 1.419 . S
C1480 C1481 1.362 . S
C1481 H1471 0.930 . S
C1481 C1474 1.409 . S
C1481 C1480 1.362 . S
H1482 C1488 0.930 . S
H1483 C1491 0.930 . S
H1484 C1492 0.930 . S
H1485 C1493 0.930 . S
H1486 C1496 0.930 . S
H1487 C1497 0.930 . S
C1488 H1482 0.930 . S
C1488 C1489 1.355 . S
C1488 C1490 1.415 . S
C1489 C1488 1.355 . S
C1489 C1491 1.419 . S
C1490 C1488 1.415 . S
C1490 C1495 1.425 . S
C1490 C1497 1.409 . S
C1491 H1483 0.930 . S
C1491 C1489 1.419 . S
C1491 C1492 1.362 . S
C1492 H1484 0.930 . S
C1492 C1491 1.362 . S
C1492 C1495 1.409 . S
C1493 H1485 0.930 . S
C1493 C1494 1.355 . S
C1493 C1495 1.415 . S
C1494 C1493 1.355 . S
C1494 C1496 1.419 . S
C1495 C1490 1.425 . S
C1495 C1492 1.409 . S
C1495 C1493 1.415 . S
C1496 H1486 0.930 . S
C1496 C1494 1.419 . S
C1496 C1497 1.362 . S
C1497 H1487 0.930 . S
C1497 C1490 1.409 . S
C1497 C1496 1.362 . S
H1498 C1504 0.930 . S
H1499 C1507 0.930 . S
H1500 C1508 0.930 . S
H1501 C1509 0.930 . S
H1502 C1512 0.930 . S
H1503 C1513 0.930 . S
C1504 H1498 0.930 . S
C1504 C1505 1.355 . S
C1504 C1506 1.415 . S
C1505 C1504 1.355 . S
C1505 C1507 1.419 . S
C1506 C1504 1.415 . S
C1506 C1511 1.425 . S
C1506 C1513 1.409 . S
C1507 H1499 0.930 . S
C1507 C1505 1.419 . S
C1507 C1508 1.362 . S
C1508 H1500 0.930 . S
C1508 C1507 1.362 . S
C1508 C1511 1.409 . S
C1509 H1501 0.930 . S
C1509 C1510 1.355 . S
C1509 C1511 1.415 . S
C1510 C1509 1.355 . S
C1510 C1512 1.419 . S
C1511 C1506 1.425 . S
C1511 C1508 1.409 . S
C1511 C1509 1.415 . S
C1512 H1502 0.930 . S
C1512 C1510 1.419 . S
C1512 C1513 1.362 . S
C1513 H1503 0.930 . S
C1513 C1506 1.409 . S
C1513 C1512 1.362 . S
H1514 C1520 0.930 . S
H1515 C1523 0.930 . S
H1516 C1524 0.930 . S
H1517 C1525 0.930 . S
H1518 C1528 0.930 . S
H1519 C1529 0.930 . S
C1520 H1514 0.930 . S
C1520 C1521 1.355 . S
C1520 C1522 1.415 . S
C1521 C1520 1.355 . S
C1521 C1523 1.419 . S
C1522 C1520 1.415 . S
C1522 C1527 1.425 . S
C1522 C1529 1.409 . S
C1523 H1515 0.930 . S
C1523 C1521 1.419 . S
C1523 C1524 1.362 . S
C1524 H1516 0.930 . S
C1524 C1523 1.362 . S
C1524 C1527 1.409 . S
C1525 H1517 0.930 . S
C1525 C1526 1.355 . S
C1525 C1527 1.415 . S
C1526 C1525 1.355 . S
C1526 C1528 1.419 . S
C1527 C1522 1.425 . S
C1527 C1524 1.409 . S
C1527 C1525 1.415 . S
C1528 H1518 0.930 . S
C1528 C1526 1.419 . S
C1528 C1529 1.362 . S
C1529 H1519 0.930 . S
C1529 C1522 1.409 . S
C1529 C1528 1.362 . S
H1530 C1536 0.930 . S
H1531 C1539 0.930 . S
H1532 C1540 0.930 . S
H1533 C1541 0.930 . S
H1534 C1544 0.930 . S
H1535 C1545 0.930 . S
C1536 H1530 0.930 . S
C1536 C1537 1.355 . S
C1536 C1538 1.415 1_565 S
C1537 C1536 1.355 . S
C1537 C1539 1.419 . S
C1538 C1536 1.415 1_545 S
C1538 C1543 1.425 1_545 S
C1538 C1545 1.409 . S
C1539 H1531 0.930 . S
C1539 C1537 1.419 . S
C1539 C1540 1.362 . S
C1540 H1532 0.930 . S
C1540 C1539 1.362 . S
C1540 C1543 1.409 . S
C1541 H1533 0.930 . S
C1541 C1542 1.355 . S
C1541 C1543 1.415 1_545 S
C1542 C1541 1.355 . S
C1542 C1544 1.419 . S
C1543 C1538 1.425 1_565 S
C1543 C1540 1.409 . S
C1543 C1541 1.415 1_565 S
C1544 H1534 0.930 . S
C1544 C1542 1.419 . S
C1544 C1545 1.362 . S
C1545 H1535 0.930 . S
C1545 C1538 1.409 . S
C1545 C1544 1.362 . S
H1546 C1552 0.930 . S
H1547 C1555 0.930 . S
H1548 C1556 0.930 . S
H1549 C1557 0.930 . S
H1550 C1560 0.930 . S
H1551 C1561 0.930 . S
C1552 H1546 0.930 . S
C1552 C1553 1.355 . S
C1552 C1554 1.415 1_455 S
C1553 C1552 1.355 . S
C1553 C1555 1.419 . S
C1554 C1552 1.415 1_655 S
C1554 C1559 1.425 1_655 S
C1554 C1561 1.409 . S
C1555 H1547 0.930 . S
C1555 C1553 1.419 . S
C1555 C1556 1.362 . S
C1556 H1548 0.930 . S
C1556 C1555 1.362 . S
C1556 C1559 1.409 . S
C1557 H1549 0.930 . S
C1557 C1558 1.355 . S
C1557 C1559 1.415 1_655 S
C1558 C1557 1.355 . S
C1558 C1560 1.419 . S
C1559 C1554 1.425 1_455 S
C1559 C1556 1.409 . S
C1559 C1557 1.415 1_455 S
C1560 H1550 0.930 . S
C1560 C1558 1.419 . S
C1560 C1561 1.362 . S
C1561 H1551 0.930 . S
C1561 C1554 1.409 . S
C1561 C1560 1.362 . S
H1562 C1568 0.930 . S
H1563 C1571 0.930 . S
H1564 C1572 0.930 . S
H1565 C1573 0.930 . S
H1566 C1576 0.930 . S
H1567 C1577 0.930 . S
C1568 H1562 0.930 . S
C1568 C1569 1.355 . S
C1568 C1570 1.415 . S
C1569 C1568 1.355 . S
C1569 C1571 1.419 . S
C1570 C1568 1.415 . S
C1570 C1575 1.425 . S
C1570 C1577 1.409 . S
C1571 H1563 0.930 . S
C1571 C1569 1.419 . S
C1571 C1572 1.362 . S
C1572 H1564 0.930 . S
C1572 C1571 1.362 . S
C1572 C1575 1.409 . S
C1573 H1565 0.930 . S
C1573 C1574 1.355 . S
C1573 C1575 1.415 . S
C1574 C1573 1.355 . S
C1574 C1576 1.419 . S
C1575 C1570 1.425 . S
C1575 C1572 1.409 . S
C1575 C1573 1.415 . S
C1576 H1566 0.930 . S
C1576 C1574 1.419 . S
C1576 C1577 1.362 . S
C1577 H1567 0.930 . S
C1577 C1570 1.409 . S
C1577 C1576 1.362 . S
H1578 C1584 0.930 . S
H1579 C1587 0.930 . S
H1580 C1588 0.930 . S
H1581 C1589 0.930 . S
H1582 C1592 0.930 . S
H1583 C1593 0.930 . S
C1584 H1578 0.930 . S
C1584 C1585 1.355 . S
C1584 C1586 1.415 . S
C1585 C1584 1.355 . S
C1585 C1587 1.419 . S
C1586 C1584 1.415 . S
C1586 C1591 1.425 . S
C1586 C1593 1.409 . S
C1587 H1579 0.930 . S
C1587 C1585 1.419 . S
C1587 C1588 1.362 . S
C1588 H1580 0.930 . S
C1588 C1587 1.362 . S
C1588 C1591 1.409 . S
C1589 H1581 0.930 . S
C1589 C1590 1.355 . S
C1589 C1591 1.415 . S
C1590 C1589 1.355 . S
C1590 C1592 1.419 . S
C1591 C1586 1.425 . S
C1591 C1588 1.409 . S
C1591 C1589 1.415 . S
C1592 H1582 0.930 . S
C1592 C1590 1.419 . S
C1592 C1593 1.362 . S
C1593 H1583 0.930 . S
C1593 C1586 1.409 . S
C1593 C1592 1.362 . S
H1594 C1600 0.930 . S
H1595 C1603 0.930 . S
H1596 C1604 0.930 . S
H1597 C1605 0.930 . S
H1598 C1608 0.930 . S
H1599 C1609 0.930 . S
C1600 H1594 0.930 . S
C1600 C1601 1.355 . S
C1600 C1602 1.415 . S
C1601 C1600 1.355 . S
C1601 C1603 1.419 . S
C1602 C1600 1.415 . S
C1602 C1607 1.425 . S
C1602 C1609 1.409 . S
C1603 H1595 0.930 . S
C1603 C1601 1.419 . S
C1603 C1604 1.362 . S
C1604 H1596 0.930 . S
C1604 C1603 1.362 . S
C1604 C1607 1.409 . S
C1605 H1597 0.930 . S
C1605 C1606 1.355 . S
C1605 C1607 1.415 . S
C1606 C1605 1.355 . S
C1606 C1608 1.419 . S
C1607 C1602 1.425 . S
C1607 C1604 1.409 . S
C1607 C1605 1.415 . S
C1608 H1598 0.930 . S
C1608 C1606 1.419 . S
C1608 C1609 1.362 . S
C1609 H1599 0.930 . S
C1609 C1602 1.409 . S
C1609 C1608 1.362 . S
H1610 C1616 0.930 . S
H1611 C1619 0.930 . S
H1612 C1620 0.930 . S
H1613 C1621 0.930 . S
H1614 C1624 0.930 . S
H1615 C1625 0.930 . S
C1616 H1610 0.930 . S
C1616 C1617 1.355 . S
C1616 C1618 1.415 . S
C1617 C1616 1.355 . S
C1617 C1619 1.419 . S
C1618 C1616 1.415 . S
C1618 C1623 1.425 . S
C1618 C1625 1.409 . S
C1619 H1611 0.930 . S
C1619 C1617 1.419 . S
C1619 C1620 1.362 . S
C1620 H1612 0.930 . S
C1620 C1619 1.362 . S
C1620 C1623 1.409 . S
C1621 H1613 0.930 . S
C1621 C1622 1.355 . S
C1621 C1623 1.415 . S
C1622 C1621 1.355 . S
C1622 C1624 1.419 . S
C1623 C1618 1.425 . S
C1623 C1620 1.409 . S
C1623 C1621 1.415 . S
C1624 H1614 0.930 . S
C1624 C1622 1.419 . S
C1624 C1625 1.362 . S
C1625 H1615 0.930 . S
C1625 C1618 1.409 . S
C1625 C1624 1.362 . S
H1626 C1632 0.930 . S
H1627 C1635 0.930 . S
H1628 C1636 0.930 . S
H1629 C1637 0.930 . S
H1630 C1640 0.930 . S
H1631 C1641 0.930 . S
C1632 H1626 0.930 . S
C1632 C1633 1.355 . S
C1632 C1634 1.415 . S
C1633 C1632 1.355 . S
C1633 C1635 1.419 . S
C1634 C1632 1.415 . S
C1634 C1639 1.425 . S
C1634 C1641 1.409 . S
C1635 H1627 0.930 . S
C1635 C1633 1.419 . S
C1635 C1636 1.362 . S
C1636 H1628 0.930 . S
C1636 C1635 1.362 . S
C1636 C1639 1.409 . S
C1637 H1629 0.930 . S
C1637 C1638 1.355 . S
C1637 C1639 1.415 . S
C1638 C1637 1.355 . S
C1638 C1640 1.419 . S
C1639 C1634 1.425 . S
C1639 C1636 1.409 . S
C1639 C1637 1.415 . S
C1640 H1630 0.930 . S
C1640 C1638 1.419 . S
C1640 C1641 1.362 . S
C1641 H1631 0.930 . S
C1641 C1634 1.409 . S
C1641 C1640 1.362 . S
H1642 C1648 0.930 . S
H1643 C1651 0.930 . S
H1644 C1652 0.930 . S
H1645 C1653 0.930 . S
H1646 C1656 0.930 . S
H1647 C1657 0.930 . S
C1648 H1642 0.930 . S
C1648 C1649 1.355 . S
C1648 C1650 1.415 . S
C1649 C1648 1.355 . S
C1649 C1651 1.419 . S
C1650 C1648 1.415 . S
C1650 C1655 1.425 . S
C1650 C1657 1.409 . S
C1651 H1643 0.930 . S
C1651 C1649 1.419 . S
C1651 C1652 1.362 . S
C1652 H1644 0.930 . S
C1652 C1651 1.362 . S
C1652 C1655 1.409 . S
C1653 H1645 0.930 . S
C1653 C1654 1.355 . S
C1653 C1655 1.415 . S
C1654 C1653 1.355 . S
C1654 C1656 1.419 . S
C1655 C1650 1.425 . S
C1655 C1652 1.409 . S
C1655 C1653 1.415 . S
C1656 H1646 0.930 . S
C1656 C1654 1.419 . S
C1656 C1657 1.362 . S
C1657 H1647 0.930 . S
C1657 C1650 1.409 . S
C1657 C1656 1.362 . S
H1658 C1664 0.930 . S
H1659 C1667 0.930 . S
H1660 C1668 0.930 . S
H1661 C1669 0.930 . S
H1662 C1672 0.930 . S
H1663 C1673 0.930 . S
C1664 H1658 0.930 . S
C1664 C1665 1.355 . S
C1664 C1666 1.415 . S
C1665 C1664 1.355 . S
C1665 C1667 1.419 . S
C1666 C1664 1.415 . S
C1666 C1671 1.425 . S
C1666 C1673 1.409 . S
C1667 H1659 0.930 . S
C1667 C1665 1.419 . S
C1667 C1668 1.362 . S
C1668 H1660 0.930 . S
C1668 C1667 1.362 . S
C1668 C1671 1.409 . S
C1669 H1661 0.930 . S
C1669 C1670 1.355 . S
C1669 C1671 1.415 . S
C1670 C1669 1.355 . S
C1670 C1672 1.419 . S
C1671 C1666 1.425 . S
C1671 C1668 1.409 . S
C1671 C1669 1.415 . S
C1672 H1662 0.930 . S
C1672 C1670 1.419 . S
C1672 C1673 1.362 . S
C1673 H1663 0.930 . S
C1673 C1666 1.409 . S
C1673 C1672 1.362 . S
H1674 C1680 0.930 . S
H1675 C1683 0.930 . S
H1676 C1684 0.930 . S
H1677 C1685 0.930 . S
H1678 C1688 0.930 . S
H1679 C1689 0.930 . S
C1680 H1674 0.930 . S
C1680 C1681 1.355 . S
C1680 C1682 1.415 . S
C1681 C1680 1.355 . S
C1681 C1683 1.419 . S
C1682 C1680 1.415 . S
C1682 C1687 1.425 . S
C1682 C1689 1.409 . S
C1683 H1675 0.930 . S
C1683 C1681 1.419 . S
C1683 C1684 1.362 . S
C1684 H1676 0.930 . S
C1684 C1683 1.362 . S
C1684 C1687 1.409 . S
C1685 H1677 0.930 . S
C1685 C1686 1.355 . S
C1685 C1687 1.415 . S
C1686 C1685 1.355 . S
C1686 C1688 1.419 . S
C1687 C1682 1.425 . S
C1687 C1684 1.409 . S
C1687 C1685 1.415 . S
C1688 H1678 0.930 . S
C1688 C1686 1.419 . S
C1688 C1689 1.362 . S
C1689 H1679 0.930 . S
C1689 C1682 1.409 . S
C1689 C1688 1.362 . S
H1690 C1696 0.930 . S
H1691 C1699 0.930 . S
H1692 C1700 0.930 . S
H1693 C1701 0.930 . S
H1694 C1704 0.930 . S
H1695 C1705 0.930 . S
C1696 H1690 0.930 . S
C1696 C1697 1.355 . S
C1696 C1698 1.415 . S
C1697 C1696 1.355 . S
C1697 C1699 1.419 . S
C1698 C1696 1.415 . S
C1698 C1703 1.425 . S
C1698 C1705 1.409 . S
C1699 H1691 0.930 . S
C1699 C1697 1.419 . S
C1699 C1700 1.362 . S
C1700 H1692 0.930 . S
C1700 C1699 1.362 . S
C1700 C1703 1.409 . S
C1701 H1693 0.930 . S
C1701 C1702 1.355 . S
C1701 C1703 1.415 . S
C1702 C1701 1.355 . S
C1702 C1704 1.419 . S
C1703 C1698 1.425 . S
C1703 C1700 1.409 . S
C1703 C1701 1.415 . S
C1704 H1694 0.930 . S
C1704 C1702 1.419 . S
C1704 C1705 1.362 . S
C1705 H1695 0.930 . S
C1705 C1698 1.409 . S
C1705 C1704 1.362 . S
H1706 C1712 0.930 . S
H1707 C1715 0.930 . S
H1708 C1716 0.930 . S
H1709 C1717 0.930 . S
H1710 C1720 0.930 . S
H1711 C1721 0.930 . S
C1712 H1706 0.930 . S
C1712 C1713 1.355 . S
C1712 C1714 1.415 . S
C1713 C1712 1.355 . S
C1713 C1715 1.419 . S
C1714 C1712 1.415 . S
C1714 C1719 1.425 . S
C1714 C1721 1.409 . S
C1715 H1707 0.930 . S
C1715 C1713 1.419 . S
C1715 C1716 1.362 . S
C1716 H1708 0.930 . S
C1716 C1715 1.362 . S
C1716 C1719 1.409 . S
C1717 H1709 0.930 . S
C1717 C1718 1.355 . S
C1717 C1719 1.415 . S
C1718 C1717 1.355 . S
C1718 C1720 1.419 . S
C1719 C1714 1.425 . S
C1719 C1716 1.409 . S
C1719 C1717 1.415 . S
C1720 H1710 0.930 . S
C1720 C1718 1.419 . S
C1720 C1721 1.362 . S
C1721 H1711 0.930 . S
C1721 C1714 1.409 . S
C1721 C1720 1.362 . S
H1722 C1728 0.930 . S
H1723 C1731 0.930 . S
H1724 C1732 0.930 . S
H1725 C1733 0.930 . S
H1726 C1736 0.930 . S
H1727 C1737 0.930 . S
C1728 H1722 0.930 . S
C1728 C1729 1.355 . S
C1728 C1730 1.415 . S
C1729 C1728 1.355 . S
C1729 C1731 1.419 . S
C1730 C1728 1.415 . S
C1730 C1735 1.425 . S
C1730 C1737 1.409 . S
C1731 H1723 0.930 . S
C1731 C1729 1.419 . S
C1731 C1732 1.362 . S
C1732 H1724 0.930 . S
C1732 C1731 1.362 . S
C1732 C1735 1.409 . S
C1733 H1725 0.930 . S
C1733 C1734 1.355 . S
C1733 C1735 1.415 . S
C1734 C1733 1.355 . S
C1734 C1736 1.419 . S
C1735 C1730 1.425 . S
C1735 C1732 1.409 . S
C1735 C1733 1.415 . S
C1736 H1726 0.930 . S
C1736 C1734 1.419 . S
C1736 C1737 1.362 . S
C1737 H1727 0.930 . S
C1737 C1730 1.409 . S
C1737 C1736 1.362 . S
H1738 C1744 0.930 . S
H1739 C1747 0.930 . S
H1740 C1748 0.930 . S
H1741 C1749 0.930 . S
H1742 C1752 0.930 . S
H1743 C1753 0.930 . S
C1744 H1738 0.930 . S
C1744 C1745 1.355 . S
C1744 C1746 1.415 . S
C1745 C1744 1.355 . S
C1745 C1747 1.419 . S
C1746 C1744 1.415 . S
C1746 C1751 1.425 . S
C1746 C1753 1.409 . S
C1747 H1739 0.930 . S
C1747 C1745 1.419 . S
C1747 C1748 1.362 . S
C1748 H1740 0.930 . S
C1748 C1747 1.362 . S
C1748 C1751 1.409 . S
C1749 H1741 0.930 . S
C1749 C1750 1.355 . S
C1749 C1751 1.415 . S
C1750 C1749 1.355 . S
C1750 C1752 1.419 . S
C1751 C1746 1.425 . S
C1751 C1748 1.409 . S
C1751 C1749 1.415 . S
C1752 H1742 0.930 . S
C1752 C1750 1.419 . S
C1752 C1753 1.362 . S
C1753 H1743 0.930 . S
C1753 C1746 1.409 . S
C1753 C1752 1.362 . S
H1754 C1760 0.930 . S
H1755 C1763 0.930 . S
H1756 C1764 0.930 . S
H1757 C1765 0.930 . S
H1758 C1768 0.930 . S
H1759 C1769 0.930 . S
C1760 H1754 0.930 . S
C1760 C1761 1.355 . S
C1760 C1762 1.415 . S
C1761 C1760 1.355 . S
C1761 C1763 1.419 . S
C1762 C1760 1.415 . S
C1762 C1767 1.425 . S
C1762 C1769 1.409 . S
C1763 H1755 0.930 . S
C1763 C1761 1.419 . S
C1763 C1764 1.362 . S
C1764 H1756 0.930 . S
C1764 C1763 1.362 . S
C1764 C1767 1.409 . S
C1765 H1757 0.930 . S
C1765 C1766 1.355 . S
C1765 C1767 1.415 . S
C1766 C1765 1.355 . S
C1766 C1768 1.419 . S
C1767 C1762 1.425 . S
C1767 C1764 1.409 . S
C1767 C1765 1.415 . S
C1768 H1758 0.930 . S
C1768 C1766 1.419 . S
C1768 C1769 1.362 . S
C1769 H1759 0.930 . S
C1769 C1762 1.409 . S
C1769 C1768 1.362 . S
H1770 C1776 0.930 . S
H1771 C1779 0.930 . S
H1772 C1780 0.930 . S
H1773 C1781 0.930 . S
H1774 C1784 0.930 . S
H1775 C1785 0.930 . S
C1776 H1770 0.930 . S
C1776 C1777 1.355 . S
C1776 C1778 1.415 . S
C1777 C1776 1.355 . S
C1777 C1779 1.419 . S
C1778 C1776 1.415 . S
C1778 C1783 1.425 . S
C1778 C1785 1.409 . S
C1779 H1771 0.930 . S
C1779 C1777 1.419 . S
C1779 C1780 1.362 . S
C1780 H1772 0.930 . S
C1780 C1779 1.362 . S
C1780 C1783 1.409 . S
C1781 H1773 0.930 . S
C1781 C1782 1.355 . S
C1781 C1783 1.415 . S
C1782 C1781 1.355 . S
C1782 C1784 1.419 . S
C1783 C1778 1.425 . S
C1783 C1780 1.409 . S
C1783 C1781 1.415 . S
C1784 H1774 0.930 . S
C1784 C1782 1.419 . S
C1784 C1785 1.362 . S
C1785 H1775 0.930 . S
C1785 C1778 1.409 . S
C1785 C1784 1.362 . S
H1786 C1792 0.930 . S
H1787 C1795 0.930 . S
H1788 C1796 0.930 . S
H1789 C1797 0.930 . S
H1790 C1800 0.930 . S
H1791 C1801 0.930 . S
C1792 H1786 0.930 . S
C1792 C1793 1.355 . S
C1792 C1794 1.415 . S
C1793 C1792 1.355 . S
C1793 C1795 1.419 . S
C1794 C1792 1.415 . S
C1794 C1799 1.425 . S
C1794 C1801 1.409 . S
C1795 H1787 0.930 . S
C1795 C1793 1.419 . S
C1795 C1796 1.362 . S
C1796 H1788 0.930 . S
C1796 C1795 1.362 . S
C1796 C1799 1.409 . S
C1797 H1789 0.930 . S
C1797 C1798 1.355 . S
C1797 C1799 1.415 . S
C1798 C1797 1.355 . S
C1798 C1800 1.419 . S
C1799 C1794 1.425 . S
C1799 C1796 1.409 . S
C1799 C1797 1.415 . S
C1800 H1790 0.930 . S
C1800 C1798 1.419 . S
C1800 C1801 1.362 . S
C1801 H1791 0.930 . S
C1801 C1794 1.409 . S
C1801 C1800 1.362 . S
H1802 C1808 0.930 . S
H1803 C1811 0.930 . S
H1804 C1812 0.930 . S
H1805 C1813 0.930 . S
H1806 C1816 0.930 . S
H1807 C1817 0.930 . S
C1808 H1802 0.930 . S
C1808 C1809 1.355 . S
C1808 C1810 1.415 . S
C1809 C1808 1.355 . S
C1809 C1811 1.419 . S
C1810 C1808 1.415 . S
C1810 C1815 1.425 . S
C1810 C1817 1.409 . S
C1811 H1803 0.930 . S
C1811 C1809 1.419 . S
C1811 C1812 1.362 . S
C1812 H1804 0.930 . S
C1812 C1811 1.362 . S
C1812 C1815 1.409 . S
C1813 H1805 0.930 . S
C1813 C1814 1.355 . S
C1813 C1815 1.415 . S
C1814 C1813 1.355 . S
C1814 C1816 1.419 . S
C1815 C1810 1.425 . S
C1815 C1812 1.409 . S
C1815 C1813 1.415 . S
C1816 H1806 0.930 . S
C1816 C1814 1.419 . S
C1816 C1817 1.362 . S
C1817 H1807 0.930 . S
C1817 C1810 1.409 . S
C1817 C1816 1.362 . S
H1818 C1824 0.930 . S
H1819 C1827 0.930 . S
H1820 C1828 0.930 . S
H1821 C1829 0.930 . S
H1822 C1832 0.930 . S
H1823 C1833 0.930 . S
C1824 H1818 0.930 . S
C1824 C1825 1.355 . S
C1824 C1826 1.415 . S
C1825 C1824 1.355 . S
C1825 C1827 1.419 . S
C1826 C1824 1.415 . S
C1826 C1831 1.425 . S
C1826 C1833 1.409 . S
C1827 H1819 0.930 . S
C1827 C1825 1.419 . S
C1827 C1828 1.362 . S
C1828 H1820 0.930 . S
C1828 C1827 1.362 . S
C1828 C1831 1.409 . S
C1829 H1821 0.930 . S
C1829 C1830 1.355 . S
C1829 C1831 1.415 . S
C1830 C1829 1.355 . S
C1830 C1832 1.419 . S
C1831 C1826 1.425 . S
C1831 C1828 1.409 . S
C1831 C1829 1.415 . S
C1832 H1822 0.930 . S
C1832 C1830 1.419 . S
C1832 C1833 1.362 . S
C1833 H1823 0.930 . S
C1833 C1826 1.409 . S
C1833 C1832 1.362 . S
H1834 C1840 0.930 . S
H1835 C1843 0.930 . S
H1836 C1844 0.930 . S
H1837 C1845 0.930 . S
H1838 C1848 0.930 . S
H1839 C1849 0.930 . S
C1840 H1834 0.930 . S
C1840 C1841 1.355 . S
C1840 C1842 1.415 . S
C1841 C1840 1.355 . S
C1841 C1843 1.419 . S
C1842 C1840 1.415 . S
C1842 C1847 1.425 . S
C1842 C1849 1.409 . S
C1843 H1835 0.930 . S
C1843 C1841 1.419 . S
C1843 C1844 1.362 . S
C1844 H1836 0.930 . S
C1844 C1843 1.362 . S
C1844 C1847 1.409 . S
C1845 H1837 0.930 . S
C1845 C1846 1.355 . S
C1845 C1847 1.415 . S
C1846 C1845 1.355 . S
C1846 C1848 1.419 . S
C1847 C1842 1.425 . S
C1847 C1844 1.409 . S
C1847 C1845 1.415 . S
C1848 H1838 0.930 . S
C1848 C1846 1.419 . S
C1848 C1849 1.362 . S
C1849 H1839 0.930 . S
C1849 C1842 1.409 . S
C1849 C1848 1.362 . S
H1850 C1856 0.930 . S
H1851 C1859 0.930 . S
H1852 C1860 0.930 . S
H1853 C1861 0.930 . S
H1854 C1864 0.930 . S
H1855 C1865 0.930 . S
C1856 H1850 0.930 . S
C1856 C1857 1.355 . S
C1856 C1858 1.415 . S
C1857 C1856 1.355 . S
C1857 C1859 1.419 . S
C1858 C1856 1.415 . S
C1858 C1863 1.425 . S
C1858 C1865 1.409 . S
C1859 H1851 0.930 . S
C1859 C1857 1.419 . S
C1859 C1860 1.362 . S
C1860 H1852 0.930 . S
C1860 C1859 1.362 . S
C1860 C1863 1.409 . S
C1861 H1853 0.930 . S
C1861 C1862 1.355 . S
C1861 C1863 1.415 . S
C1862 C1861 1.355 . S
C1862 C1864 1.419 . S
C1863 C1858 1.425 . S
C1863 C1860 1.409 . S
C1863 C1861 1.415 . S
C1864 H1854 0.930 . S
C1864 C1862 1.419 . S
C1864 C1865 1.362 . S
C1865 H1855 0.930 . S
C1865 C1858 1.409 . S
C1865 C1864 1.362 . S
H1866 C1872 0.930 . S
H1867 C1875 0.930 . S
H1868 C1876 0.930 . S
H1869 C1877 0.930 . S
H1870 C1880 0.930 . S
H1871 C1881 0.930 . S
C1872 H1866 0.930 . S
C1872 C1873 1.355 . S
C1872 C1874 1.415 . S
C1873 C1872 1.355 . S
C1873 C1875 1.419 . S
C1874 C1872 1.415 . S
C1874 C1879 1.425 . S
C1874 C1881 1.409 . S
C1875 H1867 0.930 . S
C1875 C1873 1.419 . S
C1875 C1876 1.362 . S
C1876 H1868 0.930 . S
C1876 C1875 1.362 . S
C1876 C1879 1.409 . S
C1877 H1869 0.930 . S
C1877 C1878 1.355 . S
C1877 C1879 1.415 . S
C1878 C1877 1.355 . S
C1878 C1880 1.419 . S
C1879 C1874 1.425 . S
C1879 C1876 1.409 . S
C1879 C1877 1.415 . S
C1880 H1870 0.930 . S
C1880 C1878 1.419 . S
C1880 C1881 1.362 . S
C1881 H1871 0.930 . S
C1881 C1874 1.409 . S
C1881 C1880 1.362 . S
H1882 C1888 0.930 . S
H1883 C1891 0.930 . S
H1884 C1892 0.930 . S
H1885 C1893 0.930 . S
H1886 C1896 0.930 . S
H1887 C1897 0.930 . S
C1888 H1882 0.930 . S
C1888 C1889 1.355 . S
C1888 C1890 1.415 . S
C1889 C1888 1.355 . S
C1889 C1891 1.419 . S
C1890 C1888 1.415 . S
C1890 C1895 1.425 . S
C1890 C1897 1.409 . S
C1891 H1883 0.930 . S
C1891 C1889 1.419 . S
C1891 C1892 1.362 . S
C1892 H1884 0.930 . S
C1892 C1891 1.362 . S
C1892 C1895 1.409 . S
C1893 H1885 0.930 . S
C1893 C1894 1.355 . S
C1893 C1895 1.415 . S
C1894 C1893 1.355 . S
C1894 C1896 1.419 . S
C1895 C1890 1.425 . S
C1895 C1892 1.409 . S
C1895 C1893 1.415 . S
C1896 H1886 0.930 . S
C1896 C1894 1.419 . S
C1896 C1897 1.362 . S
C1897 H1887 0.930 . S
C1897 C1890 1.409 . S
C1897 C1896 1.362 . S
H1898 C1904 0.930 . S
H1899 C1907 0.930 . S
H1900 C1908 0.930 . S
H1901 C1909 0.930 . S
H1902 C1912 0.930 . S
H1903 C1913 0.930 . S
C1904 H1898 0.930 . S
C1904 C1905 1.355 . S
C1904 C1906 1.415 . S
C1905 C1904 1.355 . S
C1905 C1907 1.419 . S
C1906 C1904 1.415 . S
C1906 C1911 1.425 . S
C1906 C1913 1.409 . S
C1907 H1899 0.930 . S
C1907 C1905 1.419 . S
C1907 C1908 1.362 . S
C1908 H1900 0.930 . S
C1908 C1907 1.362 . S
C1908 C1911 1.409 . S
C1909 H1901 0.930 . S
C1909 C1910 1.355 . S
C1909 C1911 1.415 . S
C1910 C1909 1.355 . S
C1910 C1912 1.419 . S
C1911 C1906 1.425 . S
C1911 C1908 1.409 . S
C1911 C1909 1.415 . S
C1912 H1902 0.930 . S
C1912 C1910 1.419 . S
C1912 C1913 1.362 . S
C1913 H1903 0.930 . S
C1913 C1906 1.409 . S
C1913 C1912 1.362 . S
H1914 C1920 0.930 . S
H1915 C1923 0.930 . S
H1916 C1924 0.930 . S
H1917 C1925 0.930 . S
H1918 C1928 0.930 . S
H1919 C1929 0.930 . S
C1920 H1914 0.930 . S
C1920 C1921 1.355 . S
C1920 C1922 1.415 . S
C1921 C1920 1.355 . S
C1921 C1923 1.419 . S
C1922 C1920 1.415 . S
C1922 C1927 1.425 . S
C1922 C1929 1.409 . S
C1923 H1915 0.930 . S
C1923 C1921 1.419 . S
C1923 C1924 1.362 . S
C1924 H1916 0.930 . S
C1924 C1923 1.362 . S
C1924 C1927 1.409 . S
C1925 H1917 0.930 . S
C1925 C1926 1.355 . S
C1925 C1927 1.415 . S
C1926 C1925 1.355 . S
C1926 C1928 1.419 . S
C1927 C1922 1.425 . S
C1927 C1924 1.409 . S
C1927 C1925 1.415 . S
C1928 H1918 0.930 . S
C1928 C1926 1.419 . S
C1928 C1929 1.362 . S
C1929 H1919 0.930 . S
C1929 C1922 1.409 . S
C1929 C1928 1.362 . S
H1930 C1936 0.930 . S
H1931 C1939 0.930 . S
H1932 C1940 0.930 . S
H1933 C1941 0.930 . S
H1934 C1944 0.930 . S
H1935 C1945 0.930 . S
C1936 H1930 0.930 . S
C1936 C1937 1.355 . S
C1936 C1938 1.415 . S
C1937 C1936 1.355 . S
C1937 C1939 1.419 . S
C1938 C1936 1.415 . S
C1938 C1943 1.425 . S
C1938 C1945 1.409 . S
C1939 H1931 0.930 . S
C1939 C1937 1.419 . S
C1939 C1940 1.362 . S
C1940 H1932 0.930 . S
C1940 C1939 1.362 . S
C1940 C1943 1.409 . S
C1941 H1933 0.930 . S
C1941 C1942 1.355 . S
C1941 C1943 1.415 . S
C1942 C1941 1.355 . S
C1942 C1944 1.419 . S
C1943 C1938 1.425 . S
C1943 C1940 1.409 . S
C1943 C1941 1.415 . S
C1944 H1934 0.930 . S
C1944 C1942 1.419 . S
C1944 C1945 1.362 . S
C1945 H1935 0.930 . S
C1945 C1938 1.409 . S
C1945 C1944 1.362 . S
H1946 C1952 0.930 . S
H1947 C1955 0.930 . S
H1948 C1956 0.930 . S
H1949 C1957 0.930 . S
H1950 C1960 0.930 . S
H1951 C1961 0.930 . S
C1952 H1946 0.930 . S
C1952 C1953 1.355 . S
C1952 C1954 1.415 . S
C1953 C1952 1.355 . S
C1953 C1955 1.419 . S
C1954 C1952 1.415 . S
C1954 C1959 1.425 . S
C1954 C1961 1.409 . S
C1955 H1947 0.930 . S
C1955 C1953 1.419 . S
C1955 C1956 1.362 . S
C1956 H1948 0.930 . S
C1956 C1955 1.362 . S
C1956 C1959 1.409 . S
C1957 H1949 0.930 . S
C1957 C1958 1.355 . S
C1957 C1959 1.415 . S
C1958 C1957 1.355 . S
C1958 C1960 1.419 . S
C1959 C1954 1.425 . S
C1959 C1956 1.409 . S
C1959 C1957 1.415 . S
C1960 H1950 0.930 . S
C1960 C1958 1.419 . S
C1960 C1961 1.362 . S
C1961 H1951 0.930 . S
C1961 C1954 1.409 . S
C1961 C1960 1.362 . S
C1105 C253 1.481 . S
C1110 C409 1.383 . S
C1121 C272 1.499 . S
C1126 C493 1.444 . S
C1137 C234 1.464 . S
C1142 C573 1.465 . S
C1153 C215 1.476 . S
C1158 C489 1.469 1_556 S
C1174 C577 1.374 . S
C1169 C177 1.488 . S
C1185 C196 1.417 . S
C1190 C405 1.442 1_556 S
C1206 C398 1.461 . S
C1201 C220 1.456 . S
C1222 C482 1.541 . S
C1217 C182 1.528 . S
C1233 C201 1.437 . S
C1238 C584 1.472 . S
C1249 C258 1.407 . S
C1254 C500 1.446 . S
C1265 C277 1.446 . S
C1270 C566 1.443 . S
C1286 C416 1.426 . S
C1281 C239 1.389 . S
C1302 C661 1.410 . S
C1297 C25 1.486 . S
C1313 C44 1.501 . S
C1318 C745 1.438 . S
C1329 C6 1.482 . S
C1334 C825 1.477 . S
C1345 C329 1.442 . S
C1350 C741 1.465 . S
C1361 C291 1.461 . S
C1366 C829 1.451 . S
C1377 C310 1.441 . S
C1382 C657 1.433 . S
C1393 C334 1.455 . S
C1398 C650 1.507 . S
C1409 C296 1.511 . S
C1414 C734 1.545 . S
C1430 C836 1.473 . S
C1425 C315 1.428 . S
C1441 C30 1.464 1_565 S
C1446 C752 1.471 . S
C1462 C818 1.489 . S
C1457 C49 1.484 . S
C1473 C11 1.423 . S
C1478 C668 1.440 . S
C1494 C913 1.442 . S
C1489 C139 1.460 . S
C1505 C158 1.496 . S
C1510 C997 1.453 . S
C1526 C1077 1.467 . S
C1521 C120 1.471 . S
C1542 C993 1.474 . S
C1537 C101 1.451 . S
C1558 C1081 1.391 . S
C1553 C63 1.468 . S
C1569 C82 1.426 . S
C1574 C909 1.446 . S
C1585 C106 1.501 1_655 S
C1590 C902 1.525 . S
C1601 C68 1.450 . S
C1606 C986 1.499 . S
C1622 C1088 1.496 . S
C1617 C87 1.432 1_545 S
C1633 C144 1.401 . S
C1638 C1004 1.455 . S
C1649 C163 1.484 . S
C1654 C1070 1.491 . S
C1665 C125 1.413 . S
C1670 C920 1.435 . S
C1681 C287 1.652 . S
C1686 C412 1.488 . S
C1702 C496 1.522 . S
C1697 C306 1.719 . S
C1713 C325 1.653 . S
C1718 C568 1.393 . S
C1729 C116 1.671 . S
C1734 C484 1.507 . S
C1745 C135 1.651 . S
C1750 C580 1.582 . S
C1766 C400 1.454 . S
C1761 C154 1.632 . S
C1777 C59 1.636 . S
C1782 C664 1.498 . S
C1793 C78 1.725 . S
C1798 C748 1.530 . S
C1809 C97 1.668 . S
C1814 C820 1.428 . S
C1825 C230 1.649 . S
C1830 C736 1.467 . S
C1846 C832 1.547 . S
C1841 C249 1.688 . S
C1857 C268 1.612 . S
C1862 C652 1.367 . S
C1873 C173 1.622 . S
C1878 C916 1.565 . S
C1889 C192 1.694 . S
C1894 C1000 1.528 . S
C1910 C1072 1.497 . S
C1905 C211 1.644 . S
C1921 C2 1.646 . S
C1926 C988 1.458 . S
C1937 C21 1.649 . S
C1942 C1084 1.580 . S
C1953 C40 1.582 . S
C1958 C904 1.377 . S
