# Generated by pormake.
# Topology ptr, (4,4)-cn, num edge types: 1
# Building blocks:
#     Node 0, Type 0, BuildingBlock: QUQFOY_clean_sbu_3, # of connection points: 4
#     Node 1, Type 0, BuildingBlock: QUQFOY_clean_sbu_3, # of connection points: 4
#     Node 2, Type 0, BuildingBlock: QUQFOY_clean_sbu_3, # of connection points: 4
#     Node 3, Type 0, BuildingBlock: QUQFOY_clean_sbu_3, # of connection points: 4
#     Node 4, Type 0, BuildingBlock: QUQFOY_clean_sbu_3, # of connection points: 4
#     Node 5, Type 0, BuildingBlock: QUQFOY_clean_sbu_3, # of connection points: 4
#     Node 6, Type 0, BuildingBlock: QUQFOY_clean_sbu_3, # of connection points: 4
#     Node 7, Type 0, BuildingBlock: QUQFOY_clean_sbu_3, # of connection points: 4
#     Node 8, Type 0, BuildingBlock: QUQFOY_clean_sbu_3, # of connection points: 4
#     Node 9, Type 0, BuildingBlock: QUQFOY_clean_sbu_3, # of connection points: 4
#     Node 10, Type 0, BuildingBlock: QUQFOY_clean_sbu_3, # of connection points: 4
#     Node 11, Type 0, BuildingBlock: QUQFOY_clean_sbu_3, # of connection points: 4
#     Node 12, Type 0, BuildingBlock: QUQFOY_clean_sbu_3, # of connection points: 4
#     Node 13, Type 0, BuildingBlock: QUQFOY_clean_sbu_3, # of connection points: 4
#     Node 14, Type 0, BuildingBlock: QUQFOY_clean_sbu_3, # of connection points: 4
#     Node 15, Type 0, BuildingBlock: QUQFOY_clean_sbu_3, # of connection points: 4
#     Node 16, Type 0, BuildingBlock: QUQFOY_clean_sbu_3, # of connection points: 4
#     Node 17, Type 0, BuildingBlock: QUQFOY_clean_sbu_3, # of connection points: 4
#     Node 18, Type 1, BuildingBlock: KUFVIS_clean_linker_0, # of connection points: 4
#     Node 19, Type 1, BuildingBlock: KUFVIS_clean_linker_0, # of connection points: 4
#     Node 20, Type 1, BuildingBlock: KUFVIS_clean_linker_0, # of connection points: 4
#     Node 21, Type 1, BuildingBlock: KUFVIS_clean_linker_0, # of connection points: 4
#     Node 22, Type 1, BuildingBlock: KUFVIS_clean_linker_0, # of connection points: 4
#     Node 23, Type 1, BuildingBlock: KUFVIS_clean_linker_0, # of connection points: 4
#     Node 24, Type 1, BuildingBlock: KUFVIS_clean_linker_0, # of connection points: 4
#     Node 25, Type 1, BuildingBlock: KUFVIS_clean_linker_0, # of connection points: 4
#     Node 26, Type 1, BuildingBlock: KUFVIS_clean_linker_0, # of connection points: 4
#     Node 27, Type 1, BuildingBlock: KUFVIS_clean_linker_0, # of connection points: 4
#     Node 28, Type 1, BuildingBlock: KUFVIS_clean_linker_0, # of connection points: 4
#     Node 29, Type 1, BuildingBlock: KUFVIS_clean_linker_0, # of connection points: 4
#     Node 30, Type 1, BuildingBlock: KUFVIS_clean_linker_0, # of connection points: 4
#     Node 31, Type 1, BuildingBlock: KUFVIS_clean_linker_0, # of connection points: 4
#     Node 32, Type 1, BuildingBlock: KUFVIS_clean_linker_0, # of connection points: 4
#     Node 33, Type 1, BuildingBlock: KUFVIS_clean_linker_0, # of connection points: 4
#     Node 34, Type 1, BuildingBlock: KUFVIS_clean_linker_0, # of connection points: 4
#     Node 35, Type 1, BuildingBlock: KUFVIS_clean_linker_0, # of connection points: 4
#     Edge 36, Type (0, 1), BuildingBlock: KIFKEQ_clean_linker_1, # of connection points: 2
#     Edge 37, Type (0, 1), BuildingBlock: KIFKEQ_clean_linker_1, # of connection points: 2
#     Edge 38, Type (0, 1), BuildingBlock: KIFKEQ_clean_linker_1, # of connection points: 2
#     Edge 39, Type (0, 1), BuildingBlock: KIFKEQ_clean_linker_1, # of connection points: 2
#     Edge 40, Type (0, 1), BuildingBlock: KIFKEQ_clean_linker_1, # of connection points: 2
#     Edge 41, Type (0, 1), BuildingBlock: KIFKEQ_clean_linker_1, # of connection points: 2
#     Edge 42, Type (0, 1), BuildingBlock: KIFKEQ_clean_linker_1, # of connection points: 2
#     Edge 43, Type (0, 1), BuildingBlock: KIFKEQ_clean_linker_1, # of connection points: 2
#     Edge 44, Type (0, 1), BuildingBlock: KIFKEQ_clean_linker_1, # of connection points: 2
#     Edge 45, Type (0, 1), BuildingBlock: KIFKEQ_clean_linker_1, # of connection points: 2
#     Edge 46, Type (0, 1), BuildingBlock: KIFKEQ_clean_linker_1, # of connection points: 2
#     Edge 47, Type (0, 1), BuildingBlock: KIFKEQ_clean_linker_1, # of connection points: 2
#     Edge 48, Type (0, 1), BuildingBlock: KIFKEQ_clean_linker_1, # of connection points: 2
#     Edge 49, Type (0, 1), BuildingBlock: KIFKEQ_clean_linker_1, # of connection points: 2
#     Edge 50, Type (0, 1), BuildingBlock: KIFKEQ_clean_linker_1, # of connection points: 2
#     Edge 51, Type (0, 1), BuildingBlock: KIFKEQ_clean_linker_1, # of connection points: 2
#     Edge 52, Type (0, 1), BuildingBlock: KIFKEQ_clean_linker_1, # of connection points: 2
#     Edge 53, Type (0, 1), BuildingBlock: KIFKEQ_clean_linker_1, # of connection points: 2
#     Edge 54, Type (0, 1), BuildingBlock: KIFKEQ_clean_linker_1, # of connection points: 2
#     Edge 55, Type (0, 1), BuildingBlock: KIFKEQ_clean_linker_1, # of connection points: 2
#     Edge 56, Type (0, 1), BuildingBlock: KIFKEQ_clean_linker_1, # of connection points: 2
#     Edge 57, Type (0, 1), BuildingBlock: KIFKEQ_clean_linker_1, # of connection points: 2
#     Edge 58, Type (0, 1), BuildingBlock: KIFKEQ_clean_linker_1, # of connection points: 2
#     Edge 59, Type (0, 1), BuildingBlock: KIFKEQ_clean_linker_1, # of connection points: 2
#     Edge 60, Type (0, 1), BuildingBlock: KIFKEQ_clean_linker_1, # of connection points: 2
#     Edge 61, Type (0, 1), BuildingBlock: KIFKEQ_clean_linker_1, # of connection points: 2
#     Edge 62, Type (0, 1), BuildingBlock: KIFKEQ_clean_linker_1, # of connection points: 2
#     Edge 63, Type (0, 1), BuildingBlock: KIFKEQ_clean_linker_1, # of connection points: 2
#     Edge 64, Type (0, 1), BuildingBlock: KIFKEQ_clean_linker_1, # of connection points: 2
#     Edge 65, Type (0, 1), BuildingBlock: KIFKEQ_clean_linker_1, # of connection points: 2
#     Edge 66, Type (0, 1), BuildingBlock: KIFKEQ_clean_linker_1, # of connection points: 2
#     Edge 67, Type (0, 1), BuildingBlock: KIFKEQ_clean_linker_1, # of connection points: 2
#     Edge 68, Type (0, 1), BuildingBlock: KIFKEQ_clean_linker_1, # of connection points: 2
#     Edge 69, Type (0, 1), BuildingBlock: KIFKEQ_clean_linker_1, # of connection points: 2
#     Edge 70, Type (0, 1), BuildingBlock: KIFKEQ_clean_linker_1, # of connection points: 2
#     Edge 71, Type (0, 1), BuildingBlock: KIFKEQ_clean_linker_1, # of connection points: 2
#     Edge 72, Type (0, 1), BuildingBlock: KIFKEQ_clean_linker_1, # of connection points: 2
#     Edge 73, Type (0, 1), BuildingBlock: KIFKEQ_clean_linker_1, # of connection points: 2
#     Edge 74, Type (0, 1), BuildingBlock: KIFKEQ_clean_linker_1, # of connection points: 2
#     Edge 75, Type (0, 1), BuildingBlock: KIFKEQ_clean_linker_1, # of connection points: 2
#     Edge 76, Type (0, 1), BuildingBlock: KIFKEQ_clean_linker_1, # of connection points: 2
#     Edge 77, Type (0, 1), BuildingBlock: KIFKEQ_clean_linker_1, # of connection points: 2
#     Edge 78, Type (0, 1), BuildingBlock: KIFKEQ_clean_linker_1, # of connection points: 2
#     Edge 79, Type (0, 1), BuildingBlock: KIFKEQ_clean_linker_1, # of connection points: 2
#     Edge 80, Type (0, 1), BuildingBlock: KIFKEQ_clean_linker_1, # of connection points: 2
#     Edge 81, Type (0, 1), BuildingBlock: KIFKEQ_clean_linker_1, # of connection points: 2
#     Edge 82, Type (0, 1), BuildingBlock: KIFKEQ_clean_linker_1, # of connection points: 2
#     Edge 83, Type (0, 1), BuildingBlock: KIFKEQ_clean_linker_1, # of connection points: 2
#     Edge 84, Type (0, 1), BuildingBlock: KIFKEQ_clean_linker_1, # of connection points: 2
#     Edge 85, Type (0, 1), BuildingBlock: KIFKEQ_clean_linker_1, # of connection points: 2
#     Edge 86, Type (0, 1), BuildingBlock: KIFKEQ_clean_linker_1, # of connection points: 2
#     Edge 87, Type (0, 1), BuildingBlock: KIFKEQ_clean_linker_1, # of connection points: 2
#     Edge 88, Type (0, 1), BuildingBlock: KIFKEQ_clean_linker_1, # of connection points: 2
#     Edge 89, Type (0, 1), BuildingBlock: KIFKEQ_clean_linker_1, # of connection points: 2
#     Edge 90, Type (0, 1), BuildingBlock: KIFKEQ_clean_linker_1, # of connection points: 2
#     Edge 91, Type (0, 1), BuildingBlock: KIFKEQ_clean_linker_1, # of connection points: 2
#     Edge 92, Type (0, 1), BuildingBlock: KIFKEQ_clean_linker_1, # of connection points: 2
#     Edge 93, Type (0, 1), BuildingBlock: KIFKEQ_clean_linker_1, # of connection points: 2
#     Edge 94, Type (0, 1), BuildingBlock: KIFKEQ_clean_linker_1, # of connection points: 2
#     Edge 95, Type (0, 1), BuildingBlock: KIFKEQ_clean_linker_1, # of connection points: 2
#     Edge 96, Type (0, 1), BuildingBlock: KIFKEQ_clean_linker_1, # of connection points: 2
#     Edge 97, Type (0, 1), BuildingBlock: KIFKEQ_clean_linker_1, # of connection points: 2
#     Edge 98, Type (0, 1), BuildingBlock: KIFKEQ_clean_linker_1, # of connection points: 2
#     Edge 99, Type (0, 1), BuildingBlock: KIFKEQ_clean_linker_1, # of connection points: 2
#     Edge 100, Type (0, 1), BuildingBlock: KIFKEQ_clean_linker_1, # of connection points: 2
#     Edge 101, Type (0, 1), BuildingBlock: KIFKEQ_clean_linker_1, # of connection points: 2
#     Edge 102, Type (0, 1), BuildingBlock: KIFKEQ_clean_linker_1, # of connection points: 2
#     Edge 103, Type (0, 1), BuildingBlock: KIFKEQ_clean_linker_1, # of connection points: 2
#     Edge 104, Type (0, 1), BuildingBlock: KIFKEQ_clean_linker_1, # of connection points: 2
#     Edge 105, Type (0, 1), BuildingBlock: KIFKEQ_clean_linker_1, # of connection points: 2
#     Edge 106, Type (0, 1), BuildingBlock: KIFKEQ_clean_linker_1, # of connection points: 2
#     Edge 107, Type (0, 1), BuildingBlock: KIFKEQ_clean_linker_1, # of connection points: 2
# Relax obj value: 0.043
# Max RMSD: 0.106
# Mean RMSD: 0.078
data_MOF--net-ptr--node1-QUQFOY_clean_sbu_3--node2-KUFVIS_clean_linker_0--edge1-KIFKEQ_clean_linker_1
_symmetry_space_group_name_H-M    P1
_symmetry_Int_Tables_number       1
_symmetry_cell_setting            triclinic
loop_
_symmetry_equiv_pos_as_xyz
'x, y, z'
_cell_length_a     80.834174
_cell_length_b     81.325892
_cell_length_c     51.002423
_cell_angle_alpha  90.18666
_cell_angle_beta   89.715
_cell_angle_gamma 120.53164
loop_
_atom_site_label
_atom_site_type_symbol
_atom_site_fract_x
_atom_site_fract_y
_atom_site_fract_z
_atom_type_partial_charge
C0 C 0.95555 0.32433 0.01363 0.0
O1 O 0.94932 0.33434 0.02414 0.0
Cd2 Cd 0.96868 0.3672 0.03751 0.0
O3 O 0.97357 0.33133 0.01012 0.0
Cd4 Cd 0.00439 0.36199 0.01913 0.0
C5 C 0.99199 0.38767 0.97936 0.0
O6 O 0.9957 0.37088 0.06095 0.0
O7 O 0.02182 0.39239 0.04245 0.0
O8 O 0.01928 0.34409 0.03493 0.0
C9 C 0.0103 0.3876 0.06165 0.0
O10 O 0.9804 0.38609 -0.00245 0.0
C11 C 0.034 0.35214 0.02017 0.0
O12 O 1.00155 0.37912 0.98091 0.0
O13 O 0.03471 0.36437 0.00403 0.0
C14 C 0.63801 0.68103 0.00994 0.0
O15 O 0.62037 0.67115 0.00377 0.0
Cd16 Cd 0.6038 0.63903 0.98746 0.0
O17 O 0.64882 0.6738 0.00886 0.0
Cd18 Cd 0.64534 0.64212 -0.00295 0.0
C19 C 0.60858 0.61496 0.03947 0.0
O20 O 0.62599 0.63774 0.95834 0.0
O21 O 0.62964 0.61405 0.96747 0.0
O22 O 0.67865 0.65988 0.98128 0.0
C23 C 0.62245 0.62115 0.95249 0.0
O24 O 0.59774 0.61733 0.02381 0.0
C25 C 0.68406 0.64948 0.99245 0.0
O26 O 0.62676 0.62381 0.03609 0.0
O27 O 0.67158 0.63581 0.00634 0.0
C28 C 0.3413 0.96455 0.00445 0.0
O29 O 0.35302 0.95925 -0.0023 0.0
Cd30 Cd 0.38583 0.98012 0.98458 0.0
O31 O 0.34674 0.98226 0.00604 0.0
Cd32 Cd 0.37745 0.01356 0.00026 0.0
C33 C 0.40422 0.00397 0.04212 0.0
O34 O 0.38657 0.00493 0.95901 0.0
O35 O 0.40764 0.03191 0.97544 0.0
O36 O 0.35807 0.02741 0.98682 0.0
C37 C 0.40285 0.01997 0.95691 0.0
O38 O 0.40466 0.99328 0.02417 0.0
C39 C 0.36703 0.04246 0.00057 0.0
O40 O 0.39389 0.01162 0.03975 0.0
O41 O 0.38041 0.04379 0.015 0.0
C42 C 0.96324 0.63802 0.00818 0.0
O43 O 0.95573 0.62132 0.01774 0.0
Cd44 Cd 0.97208 0.60488 0.02973 0.0
O45 O 0.98141 0.64823 0.00474 0.0
Cd46 Cd 0.0111 0.6464 0.01373 0.0
C47 C 0.99705 0.60838 0.97242 0.0
O48 O 0.99861 0.62826 0.05372 0.0
O49 O 0.02595 0.63238 0.04181 0.0
O50 O 0.02729 0.67987 0.02762 0.0
C51 C 0.01211 0.62507 0.05801 0.0
O52 O 0.98392 0.59838 0.98905 0.0
C53 C 0.04212 0.68546 0.01335 0.0
O54 O 0.00826 0.62627 0.97587 0.0
O55 O 0.0425 0.67292 -0.00117 0.0
C56 C 0.32877 0.37407 -0.00422 0.0
O57 O 0.33853 0.39027 0.98485 0.0
Cd58 Cd 0.37198 0.40446 0.97329 0.0
O59 O 0.33628 0.36385 0.00028 0.0
Cd60 Cd 0.36707 0.3644 -0.00671 0.0
C61 C 0.39075 0.40308 0.03312 0.0
O62 O 0.37605 0.3809 0.95111 0.0
O63 O 0.39783 0.37737 0.96999 0.0
O64 O 0.34836 0.33096 0.98026 0.0
C65 C 0.3929 0.38349 0.95049 0.0
O66 O 0.38976 0.41291 0.01445 0.0
C67 C 0.35658 0.32501 -0.0045 0.0
O68 O 0.38256 0.38494 0.03143 0.0
O69 O 0.36954 0.33736 0.01037 0.0
C70 C 0.67581 0.04014 0.00228 0.0
O71 O 0.66538 0.04635 0.01149 0.0
Cd72 Cd 0.63198 0.02703 0.02301 0.0
O73 O 0.66891 0.02223 -0.0009 0.0
Cd74 Cd 0.6377 0.99167 0.00811 0.0
C75 C 0.61201 0.00223 0.96564 0.0
O76 O 0.62902 1.00152 0.04893 0.0
O77 O 0.60706 0.97503 0.03232 0.0
O78 O 0.6571 0.97892 0.02538 0.0
C79 C 0.61224 0.98713 0.05073 0.0
O80 O 0.61319 0.01402 0.98311 0.0
C81 C 0.6485 0.96305 0.01339 0.0
O82 O 0.62099 0.99316 0.96819 0.0
O83 O 0.63518 0.96057 -0.00216 0.0
C84 C 0.62044 0.65605 0.34547 0.0
O85 O 0.61329 0.66593 0.35352 0.0
Cd86 Cd 0.63067 0.69815 0.36968 0.0
O87 O 0.63863 0.66317 0.34457 0.0
Cd88 Cd 0.66853 0.69462 0.35409 0.0
C89 C 0.65619 0.7205 0.31387 0.0
O90 O 0.65654 0.70076 0.39464 0.0
O91 O 0.68366 0.7239 0.38133 0.0
O92 O 0.68432 0.67724 0.36893 0.0
C93 C 0.67034 0.71759 0.3983 0.0
O94 O 0.64399 0.71849 0.33135 0.0
C95 C 0.69935 0.68633 0.35495 0.0
O96 O 0.66581 0.71204 0.31584 0.0
O97 O 0.7 0.69911 0.33996 0.0
C98 C 0.30604 0.01422 0.34364 0.0
O99 O 0.28893 0.00522 0.3351 0.0
Cd100 Cd 0.27153 0.97232 0.32243 0.0
O101 O 0.31592 0.00601 0.34541 0.0
Cd102 Cd 0.31242 0.9742 0.33372 0.0
C103 C 0.27558 0.94931 0.37688 0.0
O104 O 0.29335 0.96923 0.29453 0.0
O105 O 0.29681 0.94561 0.30507 0.0
O106 O 0.3457 0.99156 0.31806 0.0
C107 C 0.28971 0.95247 0.28952 0.0
O108 O 0.26524 0.95283 0.36178 0.0
C109 C 0.3512 0.98167 0.33046 0.0
O110 O 0.2934 0.95614 0.3721 0.0
O111 O 0.33873 0.96839 0.34486 0.0
C112 C 1.00236 0.29629 0.33714 0.0
O113 O 0.01345 0.29045 0.32941 0.0
Cd114 Cd 0.04649 0.31048 0.31729 0.0
O115 O 0.0085 0.31412 0.33957 0.0
Cd116 Cd 0.03919 0.34543 0.33349 0.0
C117 C 0.06477 0.33429 0.37568 0.0
O118 O 0.04834 0.3363 0.29297 0.0
O119 O 0.06932 0.3637 0.30844 0.0
O120 O 0.01991 0.35877 0.31794 0.0
C121 C 0.06468 0.35124 0.29063 0.0
O122 O 0.06353 0.32237 0.35842 0.0
C123 C 0.02758 0.37346 0.33253 0.0
O124 O 0.05647 0.34395 0.3725 0.0
O125 O 0.04037 0.37493 0.34834 0.0
C126 C 0.62883 0.96778 0.3408 0.0
O127 O 0.6222 0.95076 0.34877 0.0
Cd128 Cd 0.64045 0.93669 0.36355 0.0
O129 O 0.64694 0.97931 0.33931 0.0
Cd130 Cd 0.67738 0.97912 0.34806 0.0
C131 C 0.66684 0.94136 0.30784 0.0
O132 O 0.66586 0.9609 0.38826 0.0
O133 O 0.69375 0.96667 0.3759 0.0
O134 O 0.69194 0.01229 0.36268 0.0
C135 C 0.68013 0.95884 0.39237 0.0
O136 O 0.65468 0.93078 0.32515 0.0
C137 C 0.70691 0.01873 0.34848 0.0
O138 O 0.67583 0.95953 0.30983 0.0
O139 O 0.70803 0.00682 0.33349 0.0
C140 C 0.99836 0.71055 0.33004 0.0
O141 O 0.00858 0.72718 0.32049 0.0
Cd142 Cd 0.04169 0.74168 0.3078 0.0
O143 O 0.00536 0.69969 0.33313 0.0
Cd144 Cd 0.03652 0.70071 0.32462 0.0
C145 C 0.06094 0.73828 0.3661 0.0
O146 O 0.04419 0.71812 0.2834 0.0
O147 O 0.06684 0.71469 0.29928 0.0
O148 O 0.01849 0.66709 0.31134 0.0
C149 C 0.06105 0.72098 0.28098 0.0
O150 O 0.06006 0.74878 0.34832 0.0
C151 C 0.02812 0.66187 0.32501 0.0
O152 O 0.05241 0.7202 0.36341 0.0
O153 O 0.04128 0.67457 0.33927 0.0
C154 C 0.3462 0.3752 0.33291 0.0
O155 O 0.33565 0.38189 0.33983 0.0
Cd156 Cd 0.30268 0.36365 0.35391 0.0
O157 O 0.33938 0.35717 0.33228 0.0
Cd158 Cd 0.30762 0.32729 0.34165 0.0
C159 C 0.28095 0.33654 0.29894 0.0
O160 O 0.29986 0.339 0.38168 0.0
O161 O 0.27757 0.3119 0.36697 0.0
O162 O 0.32622 0.31387 0.35975 0.0
C163 C 0.28308 0.32471 0.38442 0.0
O164 O 0.28255 0.34885 0.31579 0.0
C165 C 0.31724 0.29788 0.3481 0.0
O166 O 0.29019 0.32772 0.30153 0.0
O167 O 0.30407 0.29565 0.33243 0.0
C168 C 0.28682 0.9894 0.68047 0.0
O169 O 0.27981 0.99957 0.68777 0.0
Cd170 Cd 0.29723 0.03184 0.70359 0.0
O171 O 0.30498 0.99626 0.68009 0.0
Cd172 Cd 0.33497 0.02768 0.68957 0.0
C173 C 0.32367 0.05385 0.64824 0.0
O174 O 0.32254 0.03405 0.72943 0.0
O175 O 0.34989 0.05708 0.71665 0.0
O176 O 0.35091 0.01078 0.70597 0.0
C177 C 0.33635 0.05084 0.73328 0.0
O178 O 0.31127 0.05203 0.66528 0.0
C179 C 0.36587 0.01954 0.69177 0.0
O180 O 0.33307 0.0452 0.6508 0.0
O181 O 0.36635 0.03181 0.67593 0.0
C182 C 0.9715 0.34673 0.68188 0.0
O183 O 0.95385 0.33705 0.67579 0.0
Cd184 Cd 0.93675 0.30467 0.66105 0.0
O185 O 0.98207 0.33921 0.68108 0.0
Cd186 Cd 0.97824 0.30719 0.6695 0.0
C187 C 0.94224 0.28149 0.71391 0.0
O188 O 0.95827 0.30251 0.63139 0.0
O189 O 0.96227 0.27898 0.64024 0.0
O190 O 0.01127 0.32481 0.65261 0.0
C191 C 0.95477 0.28593 0.62555 0.0
O192 O 0.93152 0.28475 0.69925 0.0
C193 C 0.01692 0.31456 0.66365 0.0
O194 O 0.96009 0.28879 0.70875 0.0
O195 O 0.00472 0.30105 0.678 0.0
C196 C 0.66844 0.63 0.67385 0.0
O197 O 0.67867 0.62357 0.66458 0.0
Cd198 Cd 0.71163 0.64157 0.65184 0.0
O199 O 0.67543 0.64797 0.67696 0.0
Cd200 Cd 0.70665 0.67867 0.66816 0.0
C201 C 0.73228 0.66682 0.70896 0.0
O202 O 0.71299 0.66712 0.62807 0.0
O203 O 0.73568 0.69485 0.63969 0.0
O204 O 0.68804 0.69347 0.65532 0.0
C205 C 0.72951 0.6812 0.62345 0.0
O206 O 0.72989 0.6541 0.69227 0.0
C207 C 0.69801 0.70882 0.66816 0.0
O208 O 0.72463 0.67706 0.70573 0.0
O209 O 0.71163 0.7099 0.68183 0.0
C210 C 0.29239 0.30037 0.676 0.0
O211 O 0.28538 0.28323 0.68365 0.0
Cd212 Cd 0.30334 0.26883 0.69858 0.0
O213 O 0.31056 0.31162 0.67487 0.0
Cd214 Cd 0.34045 0.31047 0.68374 0.0
C215 C 0.32965 0.27278 0.64332 0.0
O216 O 0.32884 0.29231 0.72428 0.0
O217 O 0.35637 0.29746 0.71112 0.0
O218 O 0.35567 0.34368 0.69847 0.0
C219 C 0.34301 0.29002 0.72801 0.0
O220 O 0.31737 0.26227 0.66055 0.0
C221 C 0.37059 0.34986 0.68421 0.0
O222 O 0.33877 0.29095 0.64537 0.0
O223 O 0.37138 0.33778 0.66919 0.0
C224 C 0.66382 0.04334 0.66115 0.0
O225 O 0.67486 0.06044 0.65371 0.0
Cd226 Cd 0.7082 0.07415 0.64282 0.0
O227 O 0.67017 0.03192 0.66387 0.0
Cd228 Cd 0.70131 0.03235 0.65893 0.0
C229 C 0.72557 0.06948 0.70189 0.0
O230 O 0.71114 0.05066 0.61828 0.0
O231 O 0.73183 0.04457 0.63501 0.0
O232 O 0.68275 0.99925 0.64389 0.0
C233 C 0.72752 0.05221 0.61674 0.0
O234 O 0.72459 0.08024 0.68465 0.0
C235 C 0.6903 0.99272 0.65935 0.0
O236 O 0.71761 0.05151 0.69821 0.0
O237 O 0.70277 0.00456 0.67522 0.0
C238 C 0.01262 0.70597 0.66587 0.0
O239 O 1.00326 0.71331 0.67525 0.0
Cd240 Cd 0.96978 0.69609 0.68597 0.0
O241 O 0.00446 0.68791 0.66249 0.0
Cd242 Cd 0.97209 0.65856 0.67231 0.0
C243 C 0.94839 0.67112 0.62896 0.0
O244 O 0.96538 0.67041 0.71297 0.0
O245 O 0.94208 0.64399 0.69822 0.0
O246 O 0.99023 0.64408 0.68871 0.0
C247 C 0.94832 0.65669 0.71588 0.0
O248 O 0.95155 0.68424 0.64536 0.0
C249 C 0.98031 0.62808 0.67737 0.0
O250 O 0.95502 0.66003 0.63282 0.0
O251 O 0.96682 0.62629 0.66272 0.0
H252 H 0.22646 0.33094 0.11764 0.0
H253 H 0.19171 0.34836 0.07685 0.0
H254 H 0.18002 0.33087 0.15825 0.0
H255 H 0.17031 0.35142 0.15956 0.0
H256 H 0.12604 0.35589 0.12082 0.0
H257 H 0.15975 0.33847 0.07659 0.0
C258 C 0.21406 0.33276 0.11747 0.0
C259 C 0.20395 0.3306 0.14072 0.0
C260 C 0.20947 0.33885 0.09443 0.0
C261 C 0.19439 0.34273 0.0945 0.0
C262 C 0.18331 0.33985 0.1174 0.0
C263 C 0.18821 0.33348 0.14034 0.0
C264 C 0.16741 0.3444 0.11792 0.0
C265 C 0.16251 0.34993 0.1417 0.0
C266 C 0.1475 0.35381 0.14287 0.0
C267 C 0.13786 0.35315 0.11993 0.0
C268 C 0.14238 0.34791 0.09604 0.0
C269 C 0.1569 0.34319 0.09504 0.0
H270 H 0.67419 0.89276 0.12672 0.0
H271 H 0.66463 0.84281 0.08519 0.0
H272 H 0.67925 0.84991 0.16786 0.0
H273 H 0.66316 0.81902 0.16864 0.0
H274 H 0.67131 0.77677 0.13075 0.0
H275 H 0.67669 0.82352 0.08561 0.0
C276 C 0.67389 0.87926 0.12661 0.0
C277 C 0.67663 0.87209 0.14996 0.0
C278 C 0.66987 0.86888 0.10328 0.0
C279 C 0.66848 0.8509 0.10325 0.0
C280 C 0.67178 0.84349 0.12657 0.0
C281 C 0.67609 0.85458 0.14973 0.0
C282 C 0.67077 0.82443 0.12721 0.0
C283 C 0.66692 0.81415 0.1511 0.0
C284 C 0.66732 0.7971 0.15259 0.0
C285 C 0.67102 0.78993 0.12981 0.0
C286 C 0.67385 0.79906 0.10562 0.0
C287 C 0.67388 0.81636 0.10434 0.0
H288 H 0.235 0.89854 0.11648 0.0
H289 H 0.19926 0.84926 0.0701 0.0
H290 H 0.18435 0.85315 0.15103 0.0
H291 H 0.16835 0.8231 0.15093 0.0
H292 H 0.12598 0.77721 0.10514 0.0
H293 H 0.16929 0.82692 0.0658 0.0
C294 C 0.22193 0.88479 0.11458 0.0
C295 C 0.21024 0.87657 0.1365 0.0
C296 C 0.21763 0.87533 0.09047 0.0
C297 C 0.20168 0.85669 0.08856 0.0
C298 C 0.18917 0.84797 0.11033 0.0
C299 C 0.19364 0.85854 0.1341 0.0
C300 C 0.17171 0.82808 0.10861 0.0
C301 C 0.16267 0.81755 0.13176 0.0
C302 C 0.1457 0.79969 0.13063 0.0
C303 C 0.13867 0.79134 0.10623 0.0
C304 C 0.14733 0.80097 0.08306 0.0
C305 C 0.16351 0.81947 0.08409 0.0
H306 H 0.34275 0.11598 0.90084 0.0
H307 H 0.35351 0.16636 0.94142 0.0
H308 H 0.33296 0.15636 0.86098 0.0
H309 H 0.3449 0.18652 0.85858 0.0
H310 H 0.34366 0.23116 0.90123 0.0
H311 H 0.34237 0.18551 0.94384 0.0
C312 C 0.34263 0.12927 0.90086 0.0
C313 C 0.33771 0.13527 0.87812 0.0
C314 C 0.34781 0.14024 0.92364 0.0
C315 C 0.34863 0.15789 0.92373 0.0
C316 C 0.3434 0.16437 0.90114 0.0
C317 C 0.33775 0.15257 0.87845 0.0
C318 C 0.34369 0.18313 0.90119 0.0
C319 C 0.34412 0.19233 0.8773 0.0
C320 C 0.34326 0.20916 0.8772 0.0
C321 C 0.34349 0.21773 0.90106 0.0
C322 C 0.34358 0.2094 0.92483 0.0
C323 C 0.34322 0.19198 0.92503 0.0
H324 H 0.77596 0.11088 0.88983 0.0
H325 H 0.82201 0.15352 0.93563 0.0
H326 H 0.8242 0.15636 0.85058 0.0
H327 H 0.8544 0.17282 0.85453 0.0
H328 H 0.89426 0.22449 0.89348 0.0
H329 H 0.84339 0.18411 0.93406 0.0
C330 C 0.79011 0.1236 0.8906 0.0
C331 C 0.79975 0.13228 0.86735 0.0
C332 C 0.79795 0.13138 0.91499 0.0
C333 C 0.81609 0.14813 0.91644 0.0
C334 C 0.82629 0.15754 0.89324 0.0
C335 C 0.81749 0.14945 0.8688 0.0
C336 C 0.84576 0.17574 0.89407 0.0
C337 C 0.858 0.18175 0.87172 0.0
C338 C 0.87518 0.1995 0.87096 0.0
C339 C 0.88116 0.21065 0.89368 0.0
C340 C 0.87005 0.20478 0.91651 0.0
C341 C 0.85216 0.18768 0.91658 0.0
H342 H 0.78455 0.67278 0.89036 0.0
H343 H 0.82237 0.66043 0.93288 0.0
H344 H 0.83552 0.6807 0.85269 0.0
H345 H 0.8474 0.66201 0.85007 0.0
H346 H 0.89275 0.66024 0.89 0.0
H347 H 0.854 0.67095 0.93426 0.0
C348 C 0.7979 0.67267 0.89101 0.0
C349 C 0.80927 0.67691 0.86847 0.0
C350 C 0.80294 0.66737 0.91431 0.0
C351 C 0.81934 0.66557 0.91506 0.0
C352 C 0.83128 0.66994 0.89261 0.0
C353 C 0.8263 0.6763 0.86979 0.0
C354 C 0.8484 0.66724 0.89223 0.0
C355 C 0.85491 0.66357 0.86823 0.0
C356 C 0.87096 0.66126 0.86735 0.0
C357 C 0.88036 0.66208 0.89057 0.0
C358 C 0.87413 0.66532 0.91457 0.0
C359 C 0.8583 0.66805 0.9155 0.0
H360 H 0.89582 0.66927 0.44838 0.0
H361 H 0.85817 0.68229 0.40686 0.0
H362 H 0.84491 0.66092 0.48665 0.0
H363 H 0.83024 0.67665 0.48915 0.0
H364 H 0.78544 0.67848 0.44787 0.0
H365 H 0.82696 0.67184 0.40415 0.0
C366 C 0.88245 0.66936 0.44795 0.0
C367 C 0.87113 0.66489 0.47056 0.0
C368 C 0.87747 0.67505 0.42495 0.0
C369 C 0.86108 0.67685 0.42448 0.0
C370 C 0.84891 0.67194 0.44673 0.0
C371 C 0.85406 0.66553 0.4695 0.0
C372 C 0.8313 0.67396 0.44665 0.0
C373 C 0.8235 0.67596 0.47063 0.0
C374 C 0.80658 0.67675 0.47117 0.0
C375 C 0.79817 0.67719 0.44758 0.0
C376 C 0.80563 0.67579 0.42356 0.0
C377 C 0.82193 0.67375 0.42296 0.0
H378 H 0.33875 0.22503 0.46316 0.0
H379 H 0.33051 0.17612 0.42037 0.0
H380 H 0.34435 0.18223 0.50339 0.0
H381 H 0.33097 0.15186 0.50375 0.0
H382 H 0.33923 0.1105 0.46316 0.0
H383 H 0.3407 0.15594 0.41964 0.0
C384 C 0.33866 0.21164 0.46276 0.0
C385 C 0.34135 0.20427 0.48594 0.0
C386 C 0.33508 0.20164 0.43918 0.0
C387 C 0.33404 0.18383 0.43872 0.0
C388 C 0.33732 0.17619 0.46186 0.0
C389 C 0.34118 0.18694 0.48531 0.0
C390 C 0.3369 0.15734 0.4619 0.0
C391 C 0.33432 0.1472 0.48568 0.0
C392 C 0.33535 0.13044 0.48643 0.0
C393 C 0.33837 0.12338 0.46301 0.0
C394 C 0.33955 0.13215 0.43906 0.0
C395 C 0.33911 0.1492 0.43844 0.0
H396 H 0.89693 0.23342 0.4525 0.0
H397 H 0.86183 0.18302 0.40747 0.0
H398 H 0.84815 0.18668 0.48886 0.0
H399 H 0.83743 0.15646 0.48934 0.0
H400 H 0.79421 0.10844 0.4474 0.0
H401 H 0.83083 0.16007 0.40545 0.0
C402 C 0.88414 0.21941 0.45101 0.0
C403 C 0.87311 0.21097 0.47343 0.0
C404 C 0.87976 0.20973 0.42701 0.0
C405 C 0.86439 0.19073 0.42573 0.0
C406 C 0.85272 0.18182 0.44806 0.0
C407 C 0.85706 0.19252 0.4716 0.0
C408 C 0.83657 0.16132 0.44741 0.0
C409 C 0.83037 0.15051 0.47088 0.0
C410 C 0.81494 0.13166 0.47103 0.0
C411 C 0.80629 0.12298 0.44738 0.0
C412 C 0.81223 0.13306 0.42379 0.0
C413 C 0.82705 0.1523 0.42377 0.0
H414 H 0.02105 0.45572 0.22835 0.0
H415 H 0.01188 0.49574 0.27102 0.0
H416 H 0.01972 0.50031 0.18638 0.0
H417 H 0.00499 0.51594 0.18772 0.0
H418 H 0.0105 0.56474 0.22761 0.0
H419 H 0.02169 0.52621 0.26974 0.0
C420 C 0.01978 0.46838 0.22842 0.0
C421 C 0.02012 0.47708 0.20477 0.0
C422 C 0.01712 0.4753 0.25217 0.0
C423 C 0.01466 0.49121 0.2524 0.0
C424 C 0.01561 0.50083 0.22875 0.0
C425 C 0.01844 0.49342 0.20496 0.0
C426 C 0.01369 0.51839 0.22871 0.0
C427 C 0.00856 0.5243 0.20548 0.0
C428 C 0.00765 0.54109 0.20484 0.0
C429 C 0.01097 0.55163 0.22786 0.0
C430 C 0.0155 0.54598 0.2512 0.0
C431 C 0.01727 0.52968 0.25163 0.0
H432 H 0.4451 0.44355 0.21755 0.0
H433 H 0.49188 0.4857 0.26356 0.0
H434 H 0.4885 0.49363 0.17993 0.0
H435 H 0.51892 0.5085 0.18013 0.0
H436 H 0.56351 0.55677 0.21932 0.0
H437 H 0.51392 0.51666 0.26337 0.0
C438 C 0.45861 0.45697 0.21887 0.0
C439 C 0.46653 0.46759 0.19617 0.0
C440 C 0.46731 0.46367 0.24327 0.0
C441 C 0.48495 0.48113 0.24471 0.0
C442 C 0.4936 0.49208 0.22168 0.0
C443 C 0.4834 0.48538 0.19777 0.0
C444 C 0.51329 0.50996 0.22181 0.0
C445 C 0.52405 0.51646 0.19818 0.0
C446 C 0.54186 0.53341 0.1972 0.0
C447 C 0.54988 0.54344 0.22029 0.0
C448 C 0.54015 0.53724 0.2443 0.0
C449 C 0.52163 0.52079 0.24494 0.0
H450 H 0.45124 0.00616 0.23299 0.0
H451 H 0.48774 0.98945 0.27025 0.0
H452 H 0.49517 0.00466 0.18789 0.0
H453 H 0.50668 0.9859 0.18539 0.0
H454 H 0.55492 0.98659 0.21994 0.0
H455 H 0.51956 0.99995 0.26782 0.0
C456 C 0.46315 0.0036 0.23167 0.0
C457 C 0.47195 0.00508 0.20745 0.0
C458 C 0.46886 0.99813 0.2542 0.0
C459 C 0.48407 0.99446 0.25284 0.0
C460 C 0.49413 0.997 0.22894 0.0
C461 C 0.48792 0.00259 0.20647 0.0
C462 C 0.51069 0.99348 0.22696 0.0
C463 C 0.5154 0.98838 0.2026 0.0
C464 C 0.53141 0.98614 0.20004 0.0
C465 C 0.54253 0.98834 0.222 0.0
C466 C 0.53827 0.99317 0.24642 0.0
C467 C 0.52234 0.99569 0.24896 0.0
H468 H 0.56137 0.99881 0.77785 0.0
H469 H 0.52491 0.01459 0.73822 0.0
H470 H 0.51845 0.00282 0.82165 0.0
H471 H 0.50783 0.02215 0.82239 0.0
H472 H 0.462 0.02525 0.78643 0.0
H473 H 0.49382 0.00644 0.74055 0.0
C474 C 0.5495 1.00143 0.77845 0.0
C475 C 0.54117 1.00119 0.80261 0.0
C476 C 0.54362 0.00601 0.75519 0.0
C477 C 0.52869 0.01015 0.75607 0.0
C478 C 0.51907 0.00891 0.77994 0.0
C479 C 0.52538 0.004 0.80303 0.0
C480 C 0.50326 0.01365 0.7812 0.0
C481 C 0.49934 0.02001 0.80505 0.0
C482 C 0.48433 0.02384 0.80709 0.0
C483 C 0.47379 0.02253 0.78483 0.0
C484 C 0.47736 0.01661 0.76082 0.0
C485 C 0.4918 0.01178 0.75903 0.0
H486 H 0.99913 0.55551 0.79099 0.0
H487 H 0.99647 0.50791 0.75109 0.0
H488 H 0.01416 0.51942 0.83249 0.0
H489 H 1.00117 0.48897 0.83611 0.0
H490 H 0.01083 0.44736 0.79998 0.0
H491 H 0.00975 0.48997 0.75187 0.0
C492 C 1.00117 0.54331 0.79137 0.0
C493 C 0.00651 0.5383 0.81466 0.0
C494 C 0.99814 0.53275 0.76842 0.0
C495 C 0.99968 0.51626 0.76885 0.0
C496 C 0.00489 0.51062 0.79225 0.0
C497 C 0.00891 0.52236 0.81472 0.0
C498 C 0.00608 0.49266 0.7938 0.0
C499 C 0.00445 0.48383 0.81841 0.0
C500 C 0.00702 0.4681 0.82067 0.0
C501 C 0.00995 0.46019 0.79814 0.0
C502 C 0.01036 0.46762 0.77327 0.0
C503 C 0.00874 0.48404 0.77115 0.0
H504 H 0.56072 0.56588 0.78261 0.0
H505 H 0.52697 0.51359 0.74091 0.0
H506 H 0.51254 0.51954 0.82106 0.0
H507 H 0.50235 0.48922 0.8231 0.0
H508 H 0.45974 0.43994 0.78244 0.0
H509 H 0.49533 0.49114 0.73902 0.0
C510 C 0.54815 0.55166 0.78199 0.0
C511 C 0.53724 0.54373 0.80469 0.0
C512 C 0.54419 0.54103 0.75893 0.0
C513 C 0.52909 0.52194 0.75847 0.0
C514 C 0.51725 0.5137 0.78083 0.0
C515 C 0.52139 0.52507 0.80369 0.0
C516 C 0.5013 0.49314 0.78095 0.0
C517 C 0.49533 0.48278 0.80478 0.0
C518 C 0.48024 0.46376 0.80542 0.0
C519 C 0.4716 0.45459 0.782 0.0
C520 C 0.47718 0.46431 0.75813 0.0
C521 C 0.49174 0.48365 0.75756 0.0
H522 H 0.67808 0.7839 0.56614 0.0
H523 H 0.68787 0.83419 0.60612 0.0
H524 H 0.66769 0.82365 0.52553 0.0
H525 H 0.68007 0.85399 0.52281 0.0
H526 H 0.6774 0.89824 0.56444 0.0
H527 H 0.67603 0.85287 0.60795 0.0
C528 C 0.67778 0.79709 0.56593 0.0
C529 C 0.67272 0.80283 0.54305 0.0
C530 C 0.68273 0.80815 0.58863 0.0
C531 C 0.68322 0.82565 0.58848 0.0
C532 C 0.678 0.83192 0.56569 0.0
C533 C 0.67254 0.82002 0.54311 0.0
C534 C 0.67808 0.85056 0.56541 0.0
C535 C 0.67886 0.85974 0.54136 0.0
C536 C 0.67778 0.87645 0.54089 0.0
C537 C 0.67742 0.8849 0.56457 0.0
C538 C 0.67718 0.87662 0.58852 0.0
C539 C 0.6771 0.85933 0.58907 0.0
H540 H 0.11364 0.77476 0.55316 0.0
H541 H 0.15878 0.81814 0.5998 0.0
H542 H 0.15746 0.82473 0.5155 0.0
H543 H 0.18787 0.84053 0.51716 0.0
H544 H 0.22942 0.89079 0.55675 0.0
H545 H 0.1806 0.84879 0.59965 0.0
C546 C 0.12705 0.78829 0.55444 0.0
C547 C 0.13534 0.79873 0.53168 0.0
C548 C 0.13507 0.79558 0.57897 0.0
C549 C 0.15253 0.81315 0.58066 0.0
C550 C 0.16167 0.82381 0.55763 0.0
C551 C 0.15208 0.81664 0.53341 0.0
C552 C 0.18098 0.84214 0.5582 0.0
C553 C 0.1922 0.84888 0.53495 0.0
C554 C 0.20937 0.86655 0.53408 0.0
C555 C 0.21638 0.87692 0.55726 0.0
C556 C 0.20653 0.8702 0.58105 0.0
C557 C 0.1885 0.85318 0.58138 0.0
H558 H 0.11614 0.33789 0.55853 0.0
H559 H 0.15459 0.32568 0.59976 0.0
H560 H 0.16667 0.34579 0.51947 0.0
H561 H 0.17803 0.32654 0.51636 0.0
H562 H 0.22474 0.3261 0.55409 0.0
H563 H 0.1867 0.33696 0.60011 0.0
C564 C 0.12949 0.33778 0.55875 0.0
C565 C 0.14059 0.34205 0.53594 0.0
C566 C 0.13483 0.33251 0.58184 0.0
C567 C 0.15126 0.33074 0.58209 0.0
C568 C 0.1629 0.33506 0.55935 0.0
C569 C 0.15763 0.3414 0.53675 0.0
C570 C 0.18002 0.33237 0.55841 0.0
C571 C 0.186 0.32842 0.53419 0.0
C572 C 0.20215 0.32635 0.53264 0.0
C573 C 0.21227 0.32778 0.55538 0.0
C574 C 0.20676 0.33151 0.57968 0.0
C575 C 0.19059 0.33373 0.58127 0.0
H576 H 0.04221 0.42203 0.07195 0.0
H577 H 0.98331 0.38531 0.0964 0.0
H578 H 0.04568 0.44598 0.104 0.0
H579 H 0.98678 0.40937 0.12833 0.0
H580 H 0.99447 0.4643 0.16464 0.0
H581 H 0.99248 0.44348 0.12838 0.0
H582 H 0.04542 0.44781 0.15388 0.0
H583 H 0.04726 0.46844 0.19014 0.0
C584 C 0.03001 0.41907 0.08418 0.0
C585 C 0.01251 0.40175 0.08174 0.0
C586 C 0.03201 0.43279 0.10251 0.0
C587 C 0.01647 0.4296 0.1185 0.0
C588 C 0.99893 0.41231 0.11599 0.0
C589 C 0.99701 0.39847 0.09792 0.0
C590 C 0.0059 0.46117 0.16201 0.0
C591 C 0.02105 0.46798 0.18004 0.0
C592 C 0.00466 0.4491 0.14151 0.0
C593 C 0.0187 0.44389 0.13849 0.0
C594 C 0.03443 0.45164 0.15566 0.0
C595 C 0.03551 0.46344 0.17636 0.0
H596 H 0.57293 0.58353 0.04069 0.0
H597 H 0.62394 0.61541 0.0875 0.0
H598 H 0.55729 0.56133 0.07659 0.0
H599 H 0.60789 0.5939 0.12432 0.0
H600 H 0.57915 0.54619 0.18294 0.0
H601 H 0.59575 0.56402 0.14348 0.0
H602 H 0.54278 0.5591 0.11626 0.0
H603 H 0.52624 0.54046 0.15488 0.0
C604 C 0.58074 0.58588 0.05884 0.0
C605 C 0.5996 0.60131 0.06138 0.0
C606 C 0.57172 0.57319 0.07956 0.0
C607 C 0.58112 0.57584 0.10369 0.0
C608 C 0.60019 0.59114 0.10602 0.0
C609 C 0.6094 0.60361 0.08499 0.0
C610 C 0.57108 0.54865 0.16815 0.0
C611 C 0.55141 0.54187 0.17182 0.0
C612 C 0.5806 0.55906 0.14567 0.0
C613 C 0.57074 0.56325 0.12657 0.0
C614 C 0.5509 0.55594 0.13009 0.0
C615 C 0.54134 0.54524 0.15231 0.0
H616 H 0.39954 0.01595 0.0904 0.0
H617 H 0.43518 0.99945 0.04776 0.0
H618 H 0.41743 0.01897 0.1305 0.0
H619 H 0.45309 0.00269 0.08771 0.0
H620 H 0.4902 0.02584 0.16283 0.0
H621 H 0.47515 0.0281 0.12247 0.0
H622 H 0.41913 0.99271 0.15702 0.0
H623 H 0.43382 0.98956 0.19653 0.0
C624 C 0.41132 0.01321 0.08951 0.0
C625 C 0.41582 0.00726 0.06601 0.0
C626 C 0.42152 0.01492 0.11242 0.0
C627 C 0.43662 0.01106 0.11212 0.0
C628 C 0.44163 0.0059 0.08841 0.0
C629 C 0.43125 0.00388 0.06563 0.0
C630 C 0.47468 0.01846 0.1618 0.0
C631 C 0.46329 0.00764 0.18315 0.0
C632 C 0.4661 0.01987 0.13876 0.0
C633 C 0.446 0.01075 0.13682 0.0
C634 C 0.43466 1.00022 0.15821 0.0
C635 C 0.44316 0.99852 0.18094 0.0
H636 H 0.4005 0.99246 0.92395 0.0
H637 H 0.43647 0.05215 0.94353 0.0
H638 H 0.42376 0.99556 0.8908 0.0
H639 H 0.45973 0.05525 0.91003 0.0
H640 H 0.47635 0.00216 0.85089 0.0
H641 H 0.45855 0.00259 0.88954 0.0
H642 H 0.45902 0.05239 0.85944 0.0
H643 H 0.47683 0.05194 0.82076 0.0
C644 C 0.41335 0.00626 0.92111 0.0
C645 C 0.41666 0.02208 0.93627 0.0
C646 C 0.42675 0.00797 0.90234 0.0
C647 C 0.44361 0.0256 0.89808 0.0
C648 C 0.44685 0.0415 0.913 0.0
C649 C 0.43356 0.03972 0.9321 0.0
C650 C 0.47318 0.01354 0.85296 0.0
C651 C 0.47787 0.02697 0.83286 0.0
C652 C 0.46283 0.01366 0.87489 0.0
C653 C 0.45721 0.02736 0.87723 0.0
C654 C 0.4632 0.04169 0.85812 0.0
C655 C 0.47335 0.04143 0.83601 0.0
H656 H 0.00989 0.39023 0.93237 0.0
H657 H 0.9801 0.41351 0.97502 0.0
H658 H 0.01389 0.41077 0.89526 0.0
H659 H 0.98475 0.43454 0.93851 0.0
H660 H 0.97793 0.45417 0.85678 0.0
H661 H 0.97442 0.43499 0.89549 0.0
H662 H 0.0307 0.44276 0.88077 0.0
H663 H 0.0337 0.46123 0.84164 0.0
C664 C 0.00431 0.39981 0.93391 0.0
C665 C 0.9946 0.40013 0.95664 0.0
C666 C 0.00673 0.41173 0.91269 0.0
C667 C 0.99969 0.42443 0.91382 0.0
C668 C 0.99009 0.42477 0.93667 0.0
C669 C 0.9875 0.41273 0.95772 0.0
C670 C 0.98962 0.452 0.86218 0.0
C671 C 0.00605 0.45911 0.84629 0.0
C672 C 0.98766 0.441 0.88433 0.0
C673 C 1.0022 0.43709 0.89118 0.0
C674 C 0.019 0.44502 0.8758 0.0
C675 C 0.02084 0.45579 0.85355 0.0
H676 H 0.6146 0.58679 0.93242 0.0
H677 H 0.59759 0.62914 0.92745 0.0
H678 H 0.59079 0.56756 0.89947 0.0
H679 H 0.57319 0.60959 0.89531 0.0
H680 H 0.55149 0.58181 0.81388 0.0
H681 H 0.57057 0.60016 0.85119 0.0
H682 H 0.55761 0.54787 0.89043 0.0
H683 H 0.53949 0.52961 0.85229 0.0
C684 C 0.60566 0.59191 0.92441 0.0
C685 C 0.60809 0.60954 0.93234 0.0
C686 C 0.59182 0.58079 0.90572 0.0
C687 C 0.57992 0.58693 0.89475 0.0
C688 C 0.58223 0.6045 0.90302 0.0
C689 C 0.59622 0.61572 0.92148 0.0
C690 C 0.55252 0.57422 0.83062 0.0
C691 C 0.54425 0.55427 0.82989 0.0
C692 C 0.56336 0.58474 0.85217 0.0
C693 C 0.566 0.57555 0.8737 0.0
C694 C 0.55633 0.55547 0.8739 0.0
C695 C 0.54562 0.54495 0.8522 0.0
H696 H 0.02757 0.62241 0.93825 0.0
H697 H 0.97238 0.57242 0.95445 0.0
H698 H 0.03222 0.60575 0.90165 0.0
H699 H 0.97668 0.55607 0.91749 0.0
H700 H 0.99462 0.5243 0.86427 0.0
H701 H 0.99423 0.54164 0.90304 0.0
H702 H 0.02118 0.5942 0.8587 0.0
H703 H 0.02268 0.57706 0.82046 0.0
C704 C 0.01635 0.60794 0.93386 0.0
C705 C 0.99961 0.59876 0.94932 0.0
C706 C 0.019 0.59838 0.91283 0.0
C707 C 0.0049 0.57947 0.90665 0.0
C708 C 0.98807 0.57043 0.92198 0.0
C709 C 0.98551 0.5799 0.94308 0.0
C710 C 1.00092 0.53963 0.86296 0.0
C711 C 0.00849 0.54923 0.83912 0.0
C712 C 1.00042 0.54955 0.88511 0.0
C713 C 0.00734 0.5693 0.88394 0.0
C714 C 0.01575 0.57903 0.86043 0.0
C715 C 0.0164 0.56914 0.83836 0.0
H716 H 0.42775 0.38707 0.94013 0.0
H717 H 0.39001 0.40711 0.91532 0.0
H718 H 0.4516 0.40778 0.90759 0.0
H719 H 0.41391 0.42789 0.88305 0.0
H720 H 0.47283 0.4284 0.82011 0.0
H721 H 0.45299 0.40942 0.85713 0.0
H722 H 0.44805 0.45727 0.88341 0.0
H723 H 0.46797 0.47627 0.84644 0.0
C724 C 0.42455 0.39589 0.92772 0.0
C725 C 0.40699 0.39544 0.93019 0.0
C726 C 0.43819 0.40772 0.90915 0.0
C727 C 0.43465 0.41955 0.89302 0.0
C728 C 0.41711 0.41911 0.89552 0.0
C729 C 0.40336 0.40708 0.9138 0.0
C730 C 0.46787 0.43496 0.8342 0.0
C731 C 0.47189 0.45376 0.83049 0.0
C732 C 0.45655 0.42414 0.85534 0.0
C733 C 0.44882 0.43183 0.8729 0.0
C734 C 0.45367 0.45095 0.86996 0.0
C735 C 0.46523 0.46187 0.84902 0.0
H736 H 0.58209 0.00854 0.96171 0.0
H737 H 0.61454 0.98926 0.91685 0.0
H738 H 0.5634 0.00589 0.92282 0.0
H739 H 0.59593 0.98693 0.87773 0.0
H740 H 0.57949 0.01685 0.81264 0.0
H741 H 0.59481 0.01395 0.85165 0.0
H742 H 0.53948 0.98045 0.88885 0.0
H743 H 0.52372 0.98238 0.84892 0.0
C744 C 0.58517 0.00363 0.94356 0.0
C745 C 0.59993 0.99927 0.94229 0.0
C746 C 0.57433 1.00197 0.92138 0.0
C747 C 0.57823 0.99623 0.89729 0.0
C748 C 0.59268 0.99144 0.89609 0.0
C749 C 0.6033 0.99275 0.91845 0.0
C750 C 0.57039 0.00837 0.82874 0.0
C751 C 0.55023 0.99952 0.82723 0.0
C752 C 0.57928 0.00682 0.85119 0.0
C753 C 0.56834 0.99678 0.87313 0.0
C754 C 0.54823 0.98823 0.8721 0.0
C755 C 0.53924 0.98946 0.84931 0.0
H756 H 0.61567 0.0154 0.08323 0.0
H757 H 0.57773 0.956 0.06394 0.0
H758 H 0.59271 0.01346 0.11618 0.0
H759 H 0.55483 0.95404 0.09717 0.0
H760 H 0.53799 0.95761 0.18608 0.0
H761 H 0.55569 0.95681 0.1475 0.0
H762 H 0.5584 0.00787 0.11817 0.0
H763 H 0.54052 0.00853 0.15673 0.0
C764 C 0.60244 1.00192 0.08606 0.0
C765 C 0.59852 0.98582 0.07108 0.0
C766 C 0.58923 1.00087 0.10472 0.0
C767 C 0.57193 0.98364 0.10905 0.0
C768 C 0.56805 0.9675 0.0942 0.0
C769 C 0.58115 0.96862 0.07522 0.0
C770 C 0.54189 0.96831 0.17096 0.0
C771 C 0.5379 0.98311 0.17425 0.0
C772 C 0.55201 0.96787 0.14894 0.0
C773 C 0.55859 0.9824 0.13003 0.0
C774 C 0.55365 0.9966 0.13261 0.0
C775 C 0.54326 0.99687 0.15446 0.0
H776 H 0.03991 0.61813 0.07556 0.0
H777 H 0.97987 0.59989 0.0849 0.0
H778 H 0.03664 0.59497 0.1085 0.0
H779 H 0.97633 0.57618 0.11687 0.0
H780 H 0.98432 0.55583 0.19723 0.0
H781 H 0.98461 0.57471 0.16032 0.0
H782 H 0.02375 0.56217 0.11894 0.0
H783 H 0.02423 0.54407 0.15679 0.0
C784 C 0.02598 0.60906 0.08452 0.0
C785 C 0.01022 0.61099 0.07787 0.0
C786 C 0.02403 0.59561 0.10319 0.0
C787 C 0.0062 0.58362 0.11543 0.0
C788 C 0.99036 0.58535 0.10827 0.0
C789 C 0.99238 0.59895 0.08988 0.0
C790 C 0.99284 0.55694 0.18013 0.0
C791 C 0.00448 0.5487 0.18009 0.0
C792 C 0.99289 0.56766 0.1588 0.0
C793 C 0.00442 0.57024 0.13667 0.0
C794 C 0.01504 0.56086 0.13588 0.0
C795 C 0.01508 0.55021 0.15739 0.0
H796 H 0.39029 0.38752 0.08077 0.0
H797 H 0.41667 0.44112 0.03893 0.0
H798 H 0.40903 0.40387 0.11944 0.0
H799 H 0.43603 0.45737 0.07722 0.0
H800 H 0.45355 0.48315 0.16001 0.0
H801 H 0.43506 0.46783 0.12036 0.0
H802 H 0.44061 0.41855 0.13558 0.0
H803 H 0.45827 0.4336 0.17553 0.0
C804 C 0.40019 0.40278 0.07977 0.0
C805 C 0.40198 0.413 0.05677 0.0
C806 C 0.41107 0.41216 0.1019 0.0
C807 C 0.4242 0.43197 0.10146 0.0
C808 C 0.4259 0.44218 0.07844 0.0
C809 C 0.41485 0.43283 0.05641 0.0
C810 C 0.4509 0.46912 0.1546 0.0
C811 C 0.45716 0.45946 0.17076 0.0
C812 C 0.44036 0.46033 0.13192 0.0
C813 C 0.43612 0.44181 0.12488 0.0
C814 C 0.44311 0.43256 0.1407 0.0
C815 C 0.45338 0.44123 0.16345 0.0
H816 H 0.6987 0.75325 0.41286 0.0
H817 H 0.63955 0.71074 0.42866 0.0
H818 H 0.69694 0.77424 0.44555 0.0
H819 H 0.63751 0.73196 0.46062 0.0
H820 H 0.64995 0.76415 0.53919 0.0
H821 H 0.64842 0.74394 0.50304 0.0
H822 H 0.68396 0.79408 0.45614 0.0
H823 H 0.68624 0.81436 0.4931 0.0
C824 C 0.68528 0.74844 0.42322 0.0
C825 C 0.66933 0.73026 0.41836 0.0
C826 C 0.68419 0.76057 0.44177 0.0
C827 C 0.66706 0.75488 0.45575 0.0
C828 C 0.65103 0.73675 0.45056 0.0
C829 C 0.65219 0.72456 0.4322 0.0
C830 C 0.65728 0.77086 0.52105 0.0
C831 C 0.66845 0.79085 0.51913 0.0
C832 C 0.65628 0.75926 0.50018 0.0
C833 C 0.66628 0.76733 0.47669 0.0
C834 C 0.67642 0.78736 0.47414 0.0
C835 C 0.67749 0.79901 0.49516 0.0
H836 H 0.28967 0.9309 0.40608 0.0
H837 H 0.24058 0.93823 0.39874 0.0
H838 H 0.27366 0.9083 0.44177 0.0
H839 H 0.22493 0.91633 0.43497 0.0
H840 H 0.19329 0.86576 0.48659 0.0
H841 H 0.20949 0.88398 0.44743 0.0
H842 H 0.26431 0.90634 0.48599 0.0
H843 H 0.2482 0.88711 0.52439 0.0
C844 C 0.27556 0.92786 0.41228 0.0
C845 C 0.26642 0.93639 0.39956 0.0
C846 C 0.26636 0.91489 0.43279 0.0
C847 C 0.24789 0.91031 0.44124 0.0
C848 C 0.23891 0.91908 0.42865 0.0
C849 C 0.248 0.93184 0.408 0.0
C850 C 0.20883 0.87411 0.48644 0.0
C851 C 0.2194 0.87514 0.50882 0.0
C852 C 0.21813 0.88485 0.46411 0.0
C853 C 0.23822 0.89703 0.46366 0.0
C854 C 0.24885 0.89716 0.48549 0.0
C855 C 0.23957 0.88626 0.5077 0.0
H856 H 0.07481 0.30967 0.39556 0.0
H857 H 0.08135 0.36512 0.40902 0.0
H858 H 0.09504 0.31415 0.43294 0.0
H859 H 0.1025 0.37009 0.44608 0.0
H860 H 0.12106 0.36124 0.52824 0.0
H861 H 0.10341 0.36051 0.48939 0.0
H862 H 0.12686 0.3307 0.44724 0.0
H863 H 0.14316 0.33 0.48663 0.0
C864 C 0.08072 0.32292 0.40644 0.0
C865 C 0.07648 0.33705 0.3993 0.0
C866 C 0.09254 0.32561 0.42778 0.0
C867 C 0.10076 0.34263 0.4424 0.0
C868 C 0.09636 0.35673 0.43542 0.0
C869 C 0.08425 0.35392 0.41418 0.0
C870 C 0.12243 0.35448 0.5107 0.0
C871 C 0.13323 0.34529 0.51087 0.0
C872 C 0.11247 0.35429 0.48824 0.0
C873 C 0.11331 0.34517 0.46523 0.0
C874 C 0.12536 0.33734 0.46481 0.0
C875 C 0.13505 0.33726 0.48736 0.0
H876 H 0.09862 0.383 0.27708 0.0
H877 H 0.06219 0.32316 0.25868 0.0
H878 H 0.12186 0.38544 0.24405 0.0
H879 H 0.08543 0.32562 0.22591 0.0
H880 H 0.13993 0.38193 0.156 0.0
H881 H 0.12164 0.38244 0.19404 0.0
H882 H 0.11975 0.33201 0.22439 0.0
H883 H 0.13802 0.3315 0.18632 0.0
C884 C 0.0956 0.37039 0.26601 0.0
C885 C 0.07856 0.3529 0.27037 0.0
C886 C 0.10888 0.3718 0.24716 0.0
C887 C 0.10551 0.35568 0.23264 0.0
C888 C 0.08853 0.3382 0.23713 0.0
C889 C 0.07514 0.33684 0.25569 0.0
C890 C 0.13598 0.37124 0.17115 0.0
C891 C 0.14029 0.35663 0.16824 0.0
C892 C 0.12556 0.37155 0.1929 0.0
C893 C 0.1191 0.35712 0.21194 0.0
C894 C 0.12439 0.34317 0.2098 0.0
C895 C 0.13501 0.343 0.18821 0.0
H896 H 0.64872 0.74956 0.31129 0.0
H897 H 0.66967 0.71935 0.26484 0.0
H898 H 0.65137 0.76894 0.27324 0.0
H899 H 0.67198 0.73861 0.22659 0.0
H900 H 0.64674 0.75844 0.16044 0.0
H901 H 0.64543 0.74091 0.19975 0.0
H902 H 0.67857 0.79397 0.24163 0.0
H903 H 0.68071 0.81176 0.20177 0.0
C904 C 0.65393 0.74709 0.29296 0.0
C905 C 0.65889 0.73284 0.29101 0.0
C906 C 0.65554 0.75826 0.27126 0.0
C907 C 0.66178 0.75519 0.24701 0.0
C908 C 0.66699 0.74115 0.24508 0.0
C909 C 0.66576 0.7302 0.26695 0.0
C910 C 0.65391 0.76646 0.17792 0.0
C911 C 0.66416 0.78657 0.17775 0.0
C912 C 0.65313 0.75637 0.20042 0.0
C913 C 0.66218 0.7661 0.22353 0.0
C914 C 0.67154 0.78615 0.22396 0.0
C915 C 0.67262 0.79631 0.20122 0.0
H916 H 0.26521 0.96006 0.26275 0.0
H917 H 0.28266 0.91817 0.27016 0.0
H918 H 0.24207 0.94058 0.22926 0.0
H919 H 0.26014 0.89901 0.23585 0.0
H920 H 0.21095 0.86153 0.18414 0.0
H921 H 0.2275 0.87913 0.22366 0.0
H922 H 0.24173 0.93207 0.18524 0.0
H923 H 0.22433 0.9144 0.14658 0.0
C924 C 0.26419 0.94674 0.25706 0.0
C925 C 0.27586 0.94071 0.26893 0.0
C926 C 0.25093 0.93556 0.23781 0.0
C927 C 0.24919 0.91818 0.22971 0.0
C928 C 0.26077 0.9121 0.24186 0.0
C929 C 0.27387 0.92318 0.26135 0.0
C930 C 0.21708 0.87686 0.18452 0.0
C931 C 0.21655 0.8866 0.16214 0.0
C932 C 0.22685 0.887 0.20701 0.0
C933 C 0.23634 0.90709 0.20754 0.0
C934 C 0.23459 0.91664 0.18574 0.0
C935 C 0.22472 0.90651 0.16341 0.0
H936 H 0.6791 0.95538 0.25825 0.0
H937 H 0.66351 0.90645 0.30733 0.0
H938 H 0.6833 0.93882 0.22108 0.0
H939 H 0.6688 0.89035 0.27094 0.0
H940 H 0.65533 0.85741 0.19413 0.0
H941 H 0.65443 0.87464 0.23259 0.0
H942 H 0.70112 0.9271 0.20061 0.0
H943 H 0.70118 0.90976 0.16143 0.0
C944 C 0.67687 0.9412 0.26115 0.0
C945 C 0.67072 0.93211 0.28556 0.0
C946 C 0.67941 0.93172 0.23991 0.0
C947 C 0.67625 0.91309 0.24279 0.0
C948 C 0.67085 0.90441 0.26762 0.0
C949 C 0.66792 0.9137 0.2886 0.0
C950 C 0.66561 0.87256 0.19559 0.0
C951 C 0.67833 0.88226 0.17488 0.0
C952 C 0.66516 0.88251 0.2177 0.0
C953 C 0.67768 0.90239 0.21987 0.0
C954 C 0.69097 0.91192 0.19949 0.0
C955 C 0.69118 0.90198 0.17715 0.0
H956 H 0.05646 0.74536 0.24965 0.0
H957 H 0.09542 0.72504 0.26575 0.0
H958 H 0.07811 0.76636 0.21585 0.0
H959 H 0.11679 0.74543 0.23091 0.0
H960 H 0.15846 0.79494 0.17862 0.0
H961 H 0.13879 0.77734 0.2166 0.0
H962 H 0.08754 0.76403 0.17343 0.0
H963 H 0.10705 0.78243 0.13666 0.0
C964 C 0.06958 0.74524 0.24573 0.0
C965 C 0.07416 0.73342 0.26015 0.0
C966 C 0.08201 0.75725 0.22628 0.0
C967 C 0.09917 0.7575 0.22039 0.0
C968 C 0.10385 0.74582 0.23509 0.0
C969 C 0.09152 0.73398 0.25488 0.0
C970 C 0.14301 0.7885 0.17753 0.0
C971 C 0.13433 0.78991 0.15451 0.0
C972 C 0.13171 0.77822 0.19914 0.0
C973 C 0.11152 0.76918 0.19812 0.0
C974 C 0.103 0.77098 0.17522 0.0
C975 C 0.11422 0.78132 0.15388 0.0
H976 H 0.28281 0.32437 0.24911 0.0
H977 H 0.24895 0.3393 0.29858 0.0
H978 H 0.26222 0.32068 0.21186 0.0
H979 H 0.22782 0.33462 0.26217 0.0
H980 H 0.21041 0.35064 0.186 0.0
H981 H 0.22774 0.35013 0.22439 0.0
H982 H 0.23233 0.30374 0.19059 0.0
H983 H 0.21553 0.3049 0.15155 0.0
C984 C 0.27078 0.32654 0.2521 0.0
C985 C 0.26769 0.33242 0.27664 0.0
C986 C 0.25886 0.32432 0.23081 0.0
C987 C 0.24339 0.32759 0.23376 0.0
C988 C 0.23986 0.33254 0.25876 0.0
C989 C 0.25194 0.33511 0.27977 0.0
C990 C 0.21473 0.34004 0.18703 0.0
C991 C 0.21153 0.32778 0.16578 0.0
C992 C 0.22473 0.33972 0.20911 0.0
C993 C 0.23159 0.3269 0.21078 0.0
C994 C 0.22765 0.31407 0.1899 0.0
C995 C 0.21785 0.31458 0.16761 0.0
H996 H 0.24836 0.29432 0.39865 0.0
H997 H 0.28742 0.35386 0.41597 0.0
H998 H 0.22597 0.29349 0.43178 0.0
H999 H 0.26497 0.35302 0.44896 0.0
H1000 H 0.20861 0.29769 0.51928 0.0
H1001 H 0.22668 0.2966 0.48138 0.0
H1002 H 0.23131 0.34847 0.45177 0.0
H1003 H 0.21306 0.34943 0.48975 0.0
C1004 C 0.25215 0.30722 0.40951 0.0
C1005 C 0.2697 0.32413 0.40481 0.0
C1006 C 0.23933 0.30673 0.42845 0.0
C1007 C 0.24367 0.32321 0.4428 0.0
C1008 C 0.26113 0.34017 0.43792 0.0
C1009 C 0.27406 0.34059 0.41924 0.0
C1010 C 0.21309 0.30856 0.50429 0.0
C1011 C 0.20945 0.32362 0.5073 0.0
C1012 C 0.22342 0.30796 0.48264 0.0
C1013 C 0.23056 0.32256 0.46378 0.0
C1014 C 0.22613 0.33714 0.46617 0.0
C1015 C 0.21554 0.33759 0.48768 0.0
H1016 H 0.64848 0.93074 0.41699 0.0
H1017 H 0.71004 0.95613 0.41224 0.0
H1018 H 0.64685 0.90806 0.44924 0.0
H1019 H 0.70863 0.93404 0.44576 0.0
H1020 H 0.6995 0.88405 0.49583 0.0
H1021 H 0.69939 0.90214 0.45753 0.0
H1022 H 0.65387 0.90783 0.49314 0.0
H1023 H 0.65327 0.889 0.53008 0.0
C1024 C 0.66172 0.93161 0.4231 0.0
C1025 C 0.67942 0.94536 0.41233 0.0
C1026 C 0.66081 0.91861 0.44168 0.0
C1027 C 0.67763 0.91927 0.45043 0.0
C1028 C 0.69535 0.93289 0.43931 0.0
C1029 C 0.6962 0.94571 0.4203 0.0
C1030 C 0.68921 0.88882 0.49504 0.0
C1031 C 0.67655 0.88529 0.51607 0.0
C1032 C 0.6893 0.89941 0.4733 0.0
C1033 C 0.67672 0.90664 0.47223 0.0
C1034 C 0.66361 0.90237 0.49292 0.0
C1035 C 0.66341 0.89173 0.51436 0.0
H1036 H 0.08829 0.77572 0.37309 0.0
H1037 H 0.05931 0.7214 0.41307 0.0
H1038 H 0.10744 0.79069 0.41199 0.0
H1039 H 0.07781 0.73649 0.45244 0.0
H1040 H 0.1257 0.76416 0.51126 0.0
H1041 H 0.10861 0.74988 0.47061 0.0
H1042 H 0.10601 0.80076 0.4548 0.0
H1043 H 0.12392 0.81525 0.495 0.0
C1044 C 0.08588 0.76701 0.3903 0.0
C1045 C 0.07229 0.74736 0.38999 0.0
C1046 C 0.0968 0.77562 0.41269 0.0
C1047 C 0.09423 0.76485 0.43546 0.0
C1048 C 0.0805 0.7452 0.43515 0.0
C1049 C 0.06976 0.73653 0.41263 0.0
C1050 C 0.12157 0.77229 0.49889 0.0
C1051 C 0.12607 0.79076 0.50615 0.0
C1052 C 0.11164 0.76407 0.47572 0.0
C1053 C 0.1057 0.77405 0.45946 0.0
C1054 C 0.11055 0.79272 0.4666 0.0
C1055 C 0.12075 0.80104 0.48964 0.0
H1056 H 0.36464 0.08639 0.74838 0.0
H1057 H 0.30517 0.04408 0.7626 0.0
H1058 H 0.36256 0.10729 0.78095 0.0
H1059 H 0.30282 0.06521 0.7944 0.0
H1060 H 0.31459 0.09669 0.87353 0.0
H1061 H 0.31325 0.07674 0.83714 0.0
H1062 H 0.3496 0.12721 0.79128 0.0
H1063 H 0.35166 0.14722 0.82848 0.0
C1064 C 0.35109 0.08161 0.75835 0.0
C1065 C 0.33514 0.06351 0.75312 0.0
C1066 C 0.34981 0.09368 0.77682 0.0
C1067 C 0.3325 0.088 0.79033 0.0
C1068 C 0.31647 0.06998 0.78471 0.0
C1069 C 0.3178 0.05785 0.76644 0.0
C1070 C 0.32212 0.10352 0.85555 0.0
C1071 C 0.33346 0.12352 0.85399 0.0
C1072 C 0.32123 0.09207 0.83455 0.0
C1073 C 0.33154 0.10032 0.8113 0.0
C1074 C 0.34182 0.12037 0.80909 0.0
C1075 C 0.34278 0.13185 0.83024 0.0
H1076 H 0.95756 0.26465 0.74447 0.0
H1077 H 0.90673 0.26881 0.73483 0.0
H1078 H 0.94183 0.24201 0.78042 0.0
H1079 H 0.89138 0.24688 0.77093 0.0
H1080 H 0.86041 0.19659 0.82183 0.0
H1081 H 0.87729 0.21439 0.78281 0.0
H1082 H 0.93106 0.23984 0.82473 0.0
H1083 H 0.91432 0.22103 0.86328 0.0
C1084 C 0.94312 0.26087 0.75013 0.0
C1085 C 0.93341 0.26852 0.73669 0.0
C1086 C 0.9341 0.24789 0.77075 0.0
C1087 C 0.91521 0.24237 0.77844 0.0
C1088 C 0.9057 0.25031 0.76517 0.0
C1089 C 0.91462 0.26311 0.74456 0.0
C1090 C 0.87591 0.20548 0.82255 0.0
C1091 C 0.88593 0.20755 0.84592 0.0
C1092 C 0.88558 0.21599 0.80024 0.0
C1093 C 0.9055 0.22899 0.80076 0.0
C1094 C 0.91572 0.23004 0.82355 0.0
C1095 C 0.90607 0.21938 0.8458 0.0
H1096 H 0.74275 0.64248 0.72902 0.0
H1097 H 0.75 0.69841 0.7406 0.0
H1098 H 0.76365 0.64766 0.76593 0.0
H1099 H 0.77175 0.70403 0.77702 0.0
H1100 H 0.79014 0.69631 0.85971 0.0
H1101 H 0.77253 0.69509 0.8206 0.0
H1102 H 0.79562 0.66435 0.77999 0.0
H1103 H 0.81194 0.6642 0.81973 0.0
C1104 C 0.74896 0.65598 0.73935 0.0
C1105 C 0.74467 0.67001 0.73193 0.0
C1106 C 0.76115 0.65906 0.76039 0.0
C1107 C 0.76965 0.67638 0.77437 0.0
C1108 C 0.76534 0.69045 0.76692 0.0
C1109 C 0.75289 0.68724 0.74602 0.0
C1110 C 0.79147 0.68929 0.84243 0.0
C1111 C 0.80214 0.67999 0.84314 0.0
C1112 C 0.78154 0.6888 0.81982 0.0
C1113 C 0.78228 0.67926 0.7972 0.0
C1114 C 0.79423 0.67133 0.79727 0.0
C1115 C 0.80392 0.67156 0.81999 0.0
H1116 H 0.72448 0.64962 0.59798 0.0
H1117 H 0.76292 0.71058 0.6033 0.0
H1118 H 0.7448 0.64767 0.5644 0.0
H1119 H 0.78293 0.70881 0.56856 0.0
H1120 H 0.82215 0.69763 0.51631 0.0
H1121 H 0.80468 0.69813 0.5555 0.0
H1122 H 0.75128 0.65575 0.52004 0.0
H1123 H 0.76869 0.65457 0.48208 0.0
C1124 C 0.73721 0.66266 0.59176 0.0
C1125 C 0.74199 0.68029 0.603 0.0
C1126 C 0.74887 0.66155 0.57245 0.0
C1127 C 0.76541 0.67811 0.5635 0.0
C1128 C 0.77042 0.69575 0.57516 0.0
C1129 C 0.75887 0.6968 0.59486 0.0
C1130 C 0.80673 0.6882 0.51727 0.0
C1131 C 0.79675 0.67622 0.49606 0.0
C1132 C 0.79669 0.68863 0.53952 0.0
C1133 C 0.77654 0.67704 0.54092 0.0
C1134 C 0.76678 0.66468 0.51994 0.0
C1135 C 0.77675 0.66418 0.49796 0.0
H1136 H 0.3166 0.08313 0.64471 0.0
H1137 H 0.33795 0.0526 0.59981 0.0
H1138 H 0.32002 0.10254 0.60638 0.0
H1139 H 0.34106 0.07192 0.56124 0.0
H1140 H 0.3162 0.09171 0.49399 0.0
H1141 H 0.31524 0.07433 0.53323 0.0
H1142 H 0.34731 0.12743 0.57534 0.0
H1143 H 0.34914 0.14512 0.53554 0.0
C1144 C 0.32208 0.0806 0.62667 0.0
C1145 C 0.3269 0.06624 0.62523 0.0
C1146 C 0.32414 0.09181 0.6048 0.0
C1147 C 0.33073 0.08868 0.58088 0.0
C1148 C 0.33583 0.07453 0.57947 0.0
C1149 C 0.33413 0.06354 0.60152 0.0
C1150 C 0.32332 0.09979 0.51144 0.0
C1151 C 0.33306 0.1199 0.51138 0.0
C1152 C 0.32271 0.08978 0.53394 0.0
C1153 C 0.33144 0.09954 0.55716 0.0
C1154 C 0.3405 0.11957 0.5576 0.0
C1155 C 0.34142 0.12967 0.53488 0.0
H1156 H 0.92982 0.29369 0.60029 0.0
H1157 H 0.94775 0.252 0.60482 0.0
H1158 H 0.90631 0.27452 0.56697 0.0
H1159 H 0.92484 0.23318 0.57072 0.0
H1160 H 0.8749 0.19584 0.52047 0.0
H1161 H 0.89202 0.21327 0.5597 0.0
H1162 H 0.90521 0.26631 0.52255 0.0
H1163 H 0.88716 0.24878 0.48414 0.0
C1164 C 0.92883 0.28048 0.59401 0.0
C1165 C 0.94072 0.2744 0.60504 0.0
C1166 C 0.91536 0.26948 0.57486 0.0
C1167 C 0.91361 0.25225 0.56606 0.0
C1168 C 0.92546 0.24615 0.57732 0.0
C1169 C 0.93877 0.25704 0.59668 0.0
C1170 C 0.88091 0.21115 0.52105 0.0
C1171 C 0.87988 0.22095 0.49905 0.0
C1172 C 0.89102 0.2212 0.54338 0.0
C1173 C 0.90041 0.24127 0.54415 0.0
C1174 C 0.89818 0.25089 0.52281 0.0
C1175 C 0.88794 0.24084 0.50063 0.0
H1176 H 0.32568 0.23758 0.64283 0.0
H1177 H 0.3427 0.28695 0.59401 0.0
H1178 H 0.33137 0.22154 0.60673 0.0
H1179 H 0.3473 0.27047 0.55712 0.0
H1180 H 0.36595 0.24171 0.49833 0.0
H1181 H 0.36532 0.25874 0.5375 0.0
H1182 H 0.31787 0.20613 0.5679 0.0
H1183 H 0.31938 0.18918 0.52947 0.0
C1184 C 0.33047 0.24494 0.62421 0.0
C1185 C 0.33359 0.26346 0.62117 0.0
C1186 C 0.33364 0.23568 0.6034 0.0
C1187 C 0.3396 0.24452 0.57873 0.0
C1188 C 0.343 0.26324 0.57584 0.0
C1189 C 0.34022 0.27268 0.59692 0.0
C1190 C 0.35568 0.23382 0.51373 0.0
C1191 C 0.34279 0.21414 0.51102 0.0
C1192 C 0.35514 0.24359 0.53605 0.0
C1193 C 0.34143 0.23394 0.55595 0.0
C1194 C 0.32889 0.21409 0.55338 0.0
C1195 C 0.32969 0.2043 0.5313 0.0
H1196 H 0.72587 0.07757 0.58358 0.0
H1197 H 0.76128 0.05391 0.60444 0.0
H1198 H 0.74971 0.09793 0.55098 0.0
H1199 H 0.78508 0.07423 0.57161 0.0
H1200 H 0.80557 0.09539 0.48429 0.0
H1201 H 0.78576 0.07661 0.52143 0.0
H1202 H 0.78438 0.12586 0.55033 0.0
H1203 H 0.80419 0.14463 0.51319 0.0
C1204 C 0.73872 0.07669 0.58115 0.0
C1205 C 0.7417 0.06412 0.5965 0.0
C1206 C 0.75244 0.08846 0.56267 0.0
C1207 C 0.76929 0.08774 0.55894 0.0
C1208 C 0.7722 0.07505 0.5741 0.0
C1209 C 0.7586 0.06345 0.59286 0.0
C1210 C 0.80135 0.10227 0.49892 0.0
C1211 C 0.80635 0.12143 0.4959 0.0
C1212 C 0.79007 0.09156 0.52015 0.0
C1213 C 0.78338 0.09975 0.53855 0.0
C1214 C 0.78918 0.11916 0.53624 0.0
C1215 C 0.80068 0.12994 0.51519 0.0
H1216 H 0.93891 0.6964 0.60952 0.0
H1217 H 0.9301 0.64004 0.59609 0.0
H1218 H 0.91812 0.69229 0.57295 0.0
H1219 H 0.90852 0.63555 0.55981 0.0
H1220 H 0.88967 0.64475 0.47803 0.0
H1221 H 0.90745 0.64511 0.51652 0.0
H1222 H 0.88605 0.67658 0.55906 0.0
H1223 H 0.86936 0.67738 0.51996 0.0
C1224 C 0.93242 0.68303 0.59883 0.0
C1225 C 0.93623 0.66856 0.60577 0.0
C1226 C 0.92026 0.68057 0.57794 0.0
C1227 C 0.91132 0.66346 0.56348 0.0
C1228 C 0.91523 0.64899 0.5703 0.0
C1229 C 0.92761 0.65154 0.59113 0.0
C1230 C 0.88871 0.65172 0.49562 0.0
C1231 C 0.87836 0.66139 0.49562 0.0
C1232 C 0.89878 0.65174 0.51787 0.0
C1233 C 0.89859 0.66122 0.54089 0.0
C1234 C 0.88703 0.66961 0.5415 0.0
C1235 C 0.87713 0.66977 0.51914 0.0
H1236 H 0.95434 0.68634 0.74756 0.0
H1237 H 0.91361 0.62697 0.73163 0.0
H1238 H 0.93315 0.6864 0.78187 0.0
H1239 H 0.89251 0.62703 0.76619 0.0
H1240 H 0.87777 0.63271 0.85462 0.0
H1241 H 0.89511 0.63095 0.81626 0.0
H1242 H 0.8995 0.6825 0.78579 0.0
H1243 H 0.88196 0.68412 0.82417 0.0
C1244 C 0.94088 0.6733 0.75143 0.0
C1245 C 0.93566 0.65663 0.73698 0.0
C1246 C 0.92869 0.67339 0.77089 0.0
C1247 C 0.91115 0.65675 0.77656 0.0
C1248 C 0.90596 0.64004 0.76223 0.0
C1249 C 0.91803 0.64003 0.74247 0.0
C1250 C 0.88213 0.64343 0.83944 0.0
C1251 C 0.87857 0.65855 0.84226 0.0
C1252 C 0.892 0.64242 0.8175 0.0
C1253 C 0.89877 0.65668 0.79818 0.0
C1254 C 0.89458 0.67142 0.80053 0.0
C1255 C 0.88441 0.67226 0.8223 0.0
H1256 H 0.37307 0.28705 0.74657 0.0
H1257 H 0.31186 0.26301 0.75487 0.0
H1258 H 0.37223 0.26549 0.78047 0.0
H1259 H 0.31076 0.24083 0.78763 0.0
H1260 H 0.31916 0.22251 0.86797 0.0
H1261 H 0.31907 0.24107 0.8311 0.0
H1262 H 0.36273 0.23369 0.7928 0.0
H1263 H 0.3636 0.21591 0.83098 0.0
C1264 C 0.35942 0.27704 0.75552 0.0
C1265 C 0.34258 0.2769 0.74837 0.0
C1266 C 0.35888 0.26452 0.77475 0.0
C1267 C 0.34143 0.25141 0.78699 0.0
C1268 C 0.32454 0.25099 0.77917 0.0
C1269 C 0.32514 0.2637 0.76031 0.0
C1270 C 0.32878 0.22484 0.8517 0.0
C1271 C 0.34162 0.218 0.8526 0.0
C1272 C 0.32855 0.23531 0.8303 0.0
C1273 C 0.34094 0.23901 0.80885 0.0
C1274 C 0.35322 0.23141 0.80916 0.0
C1275 C 0.35355 0.221 0.83084 0.0
H1276 H 0.73322 0.10302 0.72432 0.0
H1277 H 0.74312 0.05599 0.7338 0.0
H1278 H 0.75204 0.11816 0.76333 0.0
H1279 H 0.76297 0.07161 0.77205 0.0
H1280 H 0.78004 0.09427 0.85507 0.0
H1281 H 0.76225 0.07917 0.81555 0.0
H1282 H 0.78273 0.13473 0.78087 0.0
H1283 H 0.79916 0.14984 0.82149 0.0
C1284 C 0.73958 0.09599 0.73468 0.0
C1285 C 0.73662 0.07827 0.72608 0.0
C1286 C 0.75058 0.10478 0.75695 0.0
C1287 C 0.75925 0.09627 0.77093 0.0
C1288 C 0.7563 0.07852 0.76217 0.0
C1289 C 0.74496 0.06954 0.74016 0.0
C1290 C 0.7806 0.10331 0.83914 0.0
C1291 C 0.79082 0.12332 0.84175 0.0
C1292 C 0.7706 0.09461 0.81619 0.0
C1293 C 0.77085 0.10565 0.79487 0.0
C1294 C 0.78179 0.1257 0.79703 0.0
C1295 C 0.79154 0.13442 0.82023 0.0
H1296 H 0.03547 0.32593 0.05188 0.0
H1297 H 0.06927 0.3704 -0.00409 0.0
H1298 H 0.06325 0.32305 0.06201 0.0
H1299 H 0.09715 0.36731 0.00577 0.0
H1300 H 0.14415 0.37723 0.06882 0.0
H1301 H 0.11809 0.37613 0.04357 0.0
H1302 H 0.08674 0.31455 0.04852 0.0
H1303 H 0.11292 0.31588 0.07423 0.0
C1304 C 0.04874 0.33484 0.04132 0.0
C1305 C 0.05017 0.34853 0.02328 0.0
C1306 C 0.06469 0.33307 0.04698 0.0
C1307 C 0.08254 0.34499 0.03479 0.0
C1308 C 0.0837 0.35804 0.01574 0.0
C1309 C 0.06769 0.35976 0.01 0.0
C1310 C 0.13208 0.36345 0.06339 0.0
C1311 C 0.13061 0.34663 0.07315 0.0
C1312 C 0.11706 0.36278 0.04901 0.0
C1313 C 0.10013 0.34525 0.0443 0.0
C1314 C 0.09944 0.32831 0.05213 0.0
C1315 C 0.11454 0.329 0.06646 0.0
H1316 H 0.61789 0.69837 0.02356 0.0
H1317 H 0.67583 0.70931 0.01516 0.0
H1318 H 0.63014 0.73064 0.03919 0.0
H1319 H 0.68829 0.74215 0.02982 0.0
H1320 H 0.69759 0.78492 0.09744 0.0
H1321 H 0.69101 0.75842 0.06879 0.0
H1322 H 0.64591 0.76353 0.0314 0.0
H1323 H 0.65193 0.78944 0.06142 0.0
C1324 C 0.63331 0.70778 0.02467 0.0
C1325 C 0.64586 0.70114 0.01838 0.0
C1326 C 0.6404 0.72648 0.03335 0.0
C1327 C 0.66028 0.73922 0.03572 0.0
C1328 C 0.67288 0.73274 0.02861 0.0
C1329 C 0.66575 0.71389 0.02019 0.0
C1330 C 0.68669 0.78075 0.0825 0.0
C1331 C 0.675 0.78895 0.08201 0.0
C1332 C 0.68289 0.76552 0.06595 0.0
C1333 C 0.66747 0.75832 0.04823 0.0
C1334 C 0.65746 0.76823 0.04543 0.0
C1335 C 0.66113 0.78336 0.06227 0.0
H1336 H 0.30896 0.967 -0.00059 0.0
H1337 H 0.32838 0.92892 0.02401 0.0
H1338 H 0.27615 0.94315 0.01137 0.0
H1339 H 0.296 0.90561 0.03787 0.0
H1340 H 0.2364 0.86279 0.0583 0.0
H1341 H 0.26434 0.88285 0.03066 0.0
H1342 H 0.25764 0.93133 0.04777 0.0
H1343 H 0.22928 0.91103 0.07337 0.0
C1344 C 0.3062 0.95355 0.00758 0.0
C1345 C 0.32125 0.94991 0.01104 0.0
C1346 C 0.28737 0.93983 0.01458 0.0
C1347 C 0.2832 0.92234 0.02599 0.0
C1348 C 0.29833 0.91862 0.02876 0.0
C1349 C 0.31704 0.93213 0.0211 0.0
C1350 C 0.24054 0.87756 0.05514 0.0
C1351 C 0.23086 0.88542 0.06823 0.0
C1352 C 0.25679 0.88921 0.03972 0.0
C1353 C 0.26378 0.90898 0.03741 0.0
C1354 C 0.25291 0.91629 0.04872 0.0
C1355 C 0.2366 0.90463 0.06365 0.0
H1356 H 0.33613 0.04143 0.97765 0.0
H1357 H 0.38924 0.0794 0.01741 0.0
H1358 H 0.33179 0.06828 0.96793 0.0
H1359 H 0.38489 0.10641 0.00756 0.0
H1360 H 0.38217 0.14483 0.93797 0.0
H1361 H 0.38643 0.12233 0.96465 0.0
H1362 H 0.3264 0.09359 0.98616 0.0
H1363 H 0.32227 0.11612 0.9593 0.0
C1364 C 0.3467 0.05547 0.98475 0.0
C1365 C 0.36309 0.0583 -0.00187 0.0
C1366 C 0.34414 0.07087 0.97936 0.0
C1367 C 0.35801 0.08951 0.987 0.0
C1368 C 0.37401 0.09224 0.00136 0.0
C1369 C 0.37645 0.07675 0.00705 0.0
C1370 C 0.37019 0.13432 0.94955 0.0
C1371 C 0.35197 0.13228 0.94694 0.0
C1372 C 0.37255 0.12134 0.96471 0.0
C1373 C 0.35666 0.106 0.97719 0.0
C1374 C 0.33884 0.10513 0.97652 0.0
C1375 C 0.33652 0.11816 0.96148 0.0
H1376 H 0.96304 0.29931 0.98735 0.0
H1377 H 0.91636 0.30471 0.0191 0.0
H1378 H 0.94001 0.26814 0.96954 0.0
H1379 H 0.89333 0.27331 0.00176 0.0
H1380 H 0.89704 0.20811 0.95074 0.0
H1381 H 0.91662 0.23546 0.97917 0.0
H1382 H 0.88111 0.25925 0.95938 0.0
H1383 H 0.86137 0.23158 0.93156 0.0
C1384 C 0.94788 0.29376 0.99086 0.0
C1385 C 0.94161 0.30465 0.00452 0.0
C1386 C 0.93463 0.27576 0.9808 0.0
C1387 C 0.91473 0.26813 0.98419 0.0
C1388 C 0.90849 0.2788 -0.0015 0.0
C1389 C 0.92175 0.29681 0.00853 0.0
C1390 C 0.893 0.21883 0.95346 0.0
C1391 C 0.87754 0.21765 0.93943 0.0
C1392 C 0.90438 0.23466 0.96934 0.0
C1393 C 0.90067 0.24977 0.97127 0.0
C1394 C 0.88433 0.24786 0.9586 0.0
C1395 C 0.87291 0.23197 0.94277 0.0
H1396 H 0.6978 0.62606 0.00635 0.0
H1397 H 0.71452 0.6798 0.96868 0.0
H1398 H 0.72911 0.62991 -0.00462 0.0
H1399 H 0.74558 0.68359 0.95767 0.0
H1400 H 0.80352 0.69282 0.94903 0.0
H1401 H 0.77609 0.68865 0.97491 0.0
H1402 H 0.74461 0.62895 0.95368 0.0
H1403 H 0.77222 0.63324 0.92816 0.0
C1404 C 0.70824 0.63881 -0.00394 0.0
C1405 C 0.70363 0.65258 0.98825 0.0
C1406 C 0.72615 0.64098 0.98972 0.0
C1407 C 0.7399 0.65707 0.97571 0.0
C1408 C 0.73549 0.67116 0.96884 0.0
C1409 C 0.71758 0.66892 0.97496 0.0
C1410 C 0.79106 0.67864 0.95105 0.0
C1411 C 0.79002 0.66328 0.93701 0.0
C1412 C 0.77524 0.67629 0.96549 0.0
C1413 C 0.75802 0.65854 0.96599 0.0
C1414 C 0.75766 0.64278 0.95388 0.0
C1415 C 0.77351 0.64517 0.93939 0.0
H1416 H 0.92702 0.62603 0.02601 0.0
H1417 H 0.97053 0.66649 0.97325 0.0
H1418 H 0.90477 0.63576 0.01096 0.0
H1419 H 0.94801 0.67564 0.95718 0.0
H1420 H 0.86448 0.63498 0.94559 0.0
H1421 H 0.88635 0.63066 0.97336 0.0
H1422 H 0.92943 0.69021 0.96315 0.0
H1423 H 0.90753 0.69407 0.93433 0.0
C1424 C 0.93185 0.63705 0.01119 0.0
C1425 C 0.95047 0.64532 0.00057 0.0
C1426 C 0.91905 0.6426 0.00248 0.0
C1427 C 0.92441 0.65635 0.98259 0.0
C1428 C 0.94336 0.6652 0.97278 0.0
C1429 C 0.95628 0.65985 0.98181 0.0
C1430 C 0.87832 0.64729 0.95028 0.0
C1431 C 0.88429 0.66489 0.93823 0.0
C1432 C 0.89097 0.64485 0.96612 0.0
C1433 C 0.90987 0.66003 0.97027 0.0
C1434 C 0.91517 0.6781 0.95996 0.0
C1435 C 0.90254 0.68046 0.94388 0.0
H1436 H 0.37526 0.30911 0.02008 0.0
H1437 H 0.32793 0.29556 0.96819 0.0
H1438 H 0.37039 0.27715 0.01321 0.0
H1439 H 0.32328 0.26398 0.96101 0.0
H1440 H 0.31328 0.20709 0.95119 0.0
H1441 H 0.31445 0.23283 0.97755 0.0
H1442 H 0.37647 0.26241 0.97567 0.0
H1443 H 0.37509 0.23642 0.94998 0.0
C1444 C 0.36362 0.29922 0.00757 0.0
C1445 C 0.35212 0.30494 -0.00556 0.0
C1446 C 0.36087 0.28093 0.00358 0.0
C1447 C 0.34647 0.26796 0.98651 0.0
C1448 C 0.33431 0.27341 0.97461 0.0
C1449 C 0.33711 0.29165 0.97851 0.0
C1450 C 0.32709 0.2186 0.95775 0.0
C1451 C 0.3441 0.21976 0.94888 0.0
C1452 C 0.3278 0.23351 0.97245 0.0
C1453 C 0.34556 0.24992 0.97822 0.0
C1454 C 0.36255 0.25 0.97175 0.0
C1455 C 0.3618 0.23505 0.95714 0.0
H1456 H 0.69735 0.07768 0.01653 0.0
H1457 H 0.70023 0.03409 0.97162 0.0
H1458 H 0.72989 0.10099 0.0029 0.0
H1459 H 0.73249 0.05756 0.95701 0.0
H1460 H 0.7931 0.09966 0.93963 0.0
H1461 H 0.76529 0.07781 0.96625 0.0
H1462 H 0.74582 0.11847 0.96538 0.0
H1463 H 0.77402 0.14038 0.93985 0.0
C1464 C 0.70493 0.07306 0.00369 0.0
C1465 C 0.69608 0.05401 -0.00501 0.0
C1466 C 0.72363 0.08649 -0.00422 0.0
C1467 C 0.73395 0.08133 0.97866 0.0
C1468 C 0.72524 0.06211 0.97054 0.0
C1469 C 0.70661 0.04862 0.97873 0.0
C1470 C 0.78331 0.10421 0.94635 0.0
C1471 C 0.78585 0.12182 0.93821 0.0
C1472 C 0.76714 0.09156 0.96111 0.0
C1473 C 0.75297 0.09611 0.96762 0.0
C1474 C 0.75639 0.11442 0.96108 0.0
C1475 C 0.77266 0.12712 0.94656 0.0
H1476 H 0.6789 0.96636 0.04076 0.0
H1477 H 0.62804 0.92517 -0.0007 0.0
H1478 H 0.68428 0.94102 0.05516 0.0
H1479 H 0.63354 0.8996 0.01362 0.0
H1480 H 0.63577 0.86249 0.08431 0.0
H1481 H 0.63125 0.88414 0.05606 0.0
H1482 H 0.69251 0.91726 0.04266 0.0
H1483 H 0.69686 0.89574 0.07138 0.0
C1484 C 0.66904 0.95191 0.03431 0.0
C1485 C 0.65298 0.9478 0.019 0.0
C1486 C 0.6722 0.93734 0.04242 0.0
C1487 C 0.65935 0.9182 0.03556 0.0
C1488 C 0.64365 0.91415 0.01941 0.0
C1489 C 0.64056 0.92882 0.01109 0.0
C1490 C 0.64811 0.87391 0.07432 0.0
C1491 C 0.66662 0.87735 0.07967 0.0
C1492 C 0.64558 0.88639 0.05823 0.0
C1493 C 0.66156 0.90265 0.04738 0.0
C1494 C 0.67992 0.90508 0.05103 0.0
C1495 C 0.68243 0.89262 0.06714 0.0
H1496 H 0.0774 0.70069 0.98944 0.0
H1497 H 0.04406 0.71527 0.04065 0.0
H1498 H 0.10541 0.73254 -0.00412 0.0
H1499 H 0.07192 0.74679 0.04738 0.0
H1500 H 0.12032 0.80378 0.05549 0.0
H1501 H 0.09513 0.7777 0.02981 0.0
H1502 H 0.12662 0.74788 0.03294 0.0
H1503 H 0.1518 0.77414 0.05803 0.0
C1504 C 0.07597 0.71076 0.00177 0.0
C1505 C 0.05854 0.70537 0.01475 0.0
C1506 C 0.09203 0.72901 0.0055 0.0
C1507 C 0.09099 0.74229 0.02214 0.0
C1508 C 0.07325 0.73712 0.03406 0.0
C1509 C 0.05726 0.71892 0.03043 0.0
C1510 C 0.12234 0.79217 0.04925 0.0
C1511 C 0.13804 0.79101 0.05845 0.0
C1512 C 0.10776 0.77704 0.035 0.0
C1513 C 0.10859 0.76045 0.02988 0.0
C1514 C 0.12547 0.7604 0.03641 0.0
C1515 C 0.14003 0.77554 0.05062 0.0
H1516 H 0.30674 0.39016 0.98564 0.0
H1517 H 0.30561 0.34295 0.02594 0.0
H1518 H 0.27486 0.38045 0.00289 0.0
H1519 H 0.27423 0.33367 0.04386 0.0
H1520 H 0.23371 0.37337 0.07259 0.0
H1521 H 0.26089 0.38099 0.04378 0.0
H1522 H 0.24117 0.32081 0.03631 0.0
H1523 H 0.21457 0.31347 0.06613 0.0
C1524 C 0.29967 0.37766 -0.00192 0.0
C1525 C 0.30881 0.3674 0.00452 0.0
C1526 C 0.28141 0.37213 0.00806 0.0
C1527 C 0.2719 0.35628 0.02485 0.0
C1528 C 0.28086 0.34574 0.03062 0.0
C1529 C 0.29901 0.35116 0.0205 0.0
C1530 C 0.23492 0.36181 0.06403 0.0
C1531 C 0.22215 0.34287 0.07145 0.0
C1532 C 0.2505 0.36613 0.04754 0.0
C1533 C 0.25348 0.35154 0.03805 0.0
C1534 C 0.23964 0.33245 0.04377 0.0
C1535 C 0.22425 0.32819 0.06053 0.0
H1536 H 0.73486 0.70588 0.33133 0.0
H1537 H 0.7009 0.65901 0.38399 0.0
H1538 H 0.76253 0.7019 0.33867 0.0
H1539 H 0.72844 0.65524 0.39165 0.0
H1540 H 0.77636 0.64546 0.3988 0.0
H1541 H 0.75076 0.64645 0.37482 0.0
H1542 H 0.78426 0.70808 0.37483 0.0
H1543 H 0.80985 0.70687 0.39823 0.0
C1544 C 0.73322 0.69458 0.34422 0.0
C1545 C 0.71567 0.68285 0.35721 0.0
C1546 C 0.74911 0.69234 0.3485 0.0
C1547 C 0.74781 0.67824 0.36575 0.0
C1548 C 0.72999 0.66605 0.37788 0.0
C1549 C 0.71418 0.66832 0.37368 0.0
C1550 C 0.77865 0.65913 0.39228 0.0
C1551 C 0.79519 0.67607 0.39997 0.0
C1552 C 0.76383 0.65975 0.37903 0.0
C1553 C 0.7652 0.67736 0.37339 0.0
C1554 C 0.78266 0.69425 0.37868 0.0
C1555 C 0.79747 0.6936 0.39189 0.0
H1556 H 0.29599 0.0396 0.32637 0.0
H1557 H 0.33474 0.03449 0.37907 0.0
H1558 H 0.3076 0.072 0.3417 0.0
H1559 H 0.34563 0.06648 0.39567 0.0
H1560 H 0.3673 0.12557 0.42042 0.0
H1561 H 0.36205 0.09949 0.3912 0.0
H1562 H 0.30389 0.08685 0.378 0.0
H1563 H 0.30976 0.11353 0.4059 0.0
C1564 C 0.30701 0.04543 0.34131 0.0
C1565 C 0.3143 0.03441 0.35173 0.0
C1566 C 0.31363 0.06402 0.35021 0.0
C1567 C 0.32745 0.07198 0.37022 0.0
C1568 C 0.33523 0.06112 0.37996 0.0
C1569 C 0.32886 0.04263 0.37064 0.0
C1570 C 0.35376 0.11773 0.41014 0.0
C1571 C 0.33899 0.12163 0.41509 0.0
C1572 C 0.35056 0.10252 0.39383 0.0
C1573 C 0.33236 0.09062 0.38264 0.0
C1574 C 0.31815 0.09565 0.38595 0.0
C1575 C 0.3215 0.11106 0.40189 0.0
H1576 H 0.97074 0.30012 0.33387 0.0
H1577 H 0.98865 0.26036 0.35583 0.0
H1578 H 0.93787 0.27701 0.34672 0.0
H1579 H 0.95632 0.2378 0.37061 0.0
H1580 H 0.89706 0.19649 0.39327 0.0
H1581 H 0.92438 0.21593 0.36445 0.0
H1582 H 0.91995 0.26546 0.38362 0.0
H1583 H 0.89202 0.24576 0.41029 0.0
C1584 C 0.96763 0.28645 0.34163 0.0
C1585 C 0.98227 0.28211 0.3441 0.0
C1586 C 0.94878 0.27317 0.34914 0.0
C1587 C 0.94423 0.25544 0.3601 0.0
C1588 C 0.95893 0.25102 0.36186 0.0
C1589 C 0.97763 0.26409 0.35367 0.0
C1590 C 0.90152 0.21137 0.39037 0.0
C1591 C 0.89265 0.21969 0.4044 0.0
C1592 C 0.91744 0.22266 0.37425 0.0
C1593 C 0.92494 0.24253 0.37218 0.0
C1594 C 0.91482 0.25032 0.3844 0.0
C1595 C 0.89879 0.23901 0.4 0.0
H1596 H 0.99974 0.37297 0.30202 0.0
H1597 H 0.04506 0.40876 0.35589 0.0
H1598 H 0.99527 0.39956 0.29152 0.0
H1599 H 0.04036 0.43547 0.34566 0.0
H1600 H 0.98585 0.4467 0.27656 0.0
H1601 H 0.98592 0.42232 0.30451 0.0
H1602 H 0.04795 0.4552 0.30671 0.0
H1603 H 0.04763 0.47954 0.27932 0.0
C1604 C 0.00848 0.38643 0.31207 0.0
C1605 C 0.02292 0.3888 0.32954 0.0
C1606 C 0.0058 0.40168 0.30623 0.0
C1607 C 0.0175 0.41973 0.31767 0.0
C1608 C 0.03123 0.42181 0.3363 0.0
C1609 C 0.03388 0.40649 0.34223 0.0
C1610 C 0.99937 0.44909 0.28422 0.0
C1611 C 0.01672 0.46502 0.27615 0.0
C1612 C 0.99948 0.43503 0.29987 0.0
C1613 C 0.01696 0.43661 0.30748 0.0
C1614 C 0.03421 0.45353 0.30144 0.0
C1615 C 0.03408 0.46756 0.28583 0.0
H1616 H 0.58425 0.64123 0.3262 0.0
H1617 H 0.62694 0.62611 0.34418 0.0
H1618 H 0.56348 0.60967 0.30812 0.0
H1619 H 0.60563 0.59391 0.32778 0.0
H1620 H 0.57688 0.55121 0.26027 0.0
H1621 H 0.5952 0.57804 0.2891 0.0
H1622 H 0.54305 0.5772 0.31148 0.0
H1623 H 0.52495 0.55101 0.28069 0.0
C1624 C 0.58903 0.63098 0.32675 0.0
C1625 C 0.60735 0.63625 0.33628 0.0
C1626 C 0.57698 0.61269 0.31663 0.0
C1627 C 0.58272 0.59899 0.31625 0.0
C1628 C 0.60077 0.60408 0.32701 0.0
C1629 C 0.61302 0.62256 0.33656 0.0
C1630 C 0.56927 0.55655 0.27172 0.0
C1631 C 0.54955 0.54927 0.26777 0.0
C1632 C 0.57979 0.57195 0.28854 0.0
C1633 C 0.57082 0.5803 0.3024 0.0
C1634 C 0.55065 0.57165 0.30052 0.0
C1635 C 0.54014 0.55636 0.28325 0.0
H1636 H 0.36555 0.95953 0.34808 0.0
H1637 H 0.38139 0.01118 0.30512 0.0
H1638 H 0.39717 0.96359 0.33873 0.0
H1639 H 0.41268 0.01512 0.29564 0.0
H1640 H 0.44002 0.96451 0.27284 0.0
H1641 H 0.41285 0.9609 0.29868 0.0
H1642 H 0.44336 0.02166 0.31319 0.0
H1643 H 0.47028 0.02515 0.2868 0.0
C1644 C 0.37585 0.97187 0.33696 0.0
C1645 C 0.37091 0.98497 0.32719 0.0
C1646 C 0.39394 0.97416 0.33156 0.0
C1647 C 0.40752 0.98971 0.31651 0.0
C1648 C 0.40276 0.00316 0.30768 0.0
C1649 C 0.3847 1.00081 0.3129 0.0
C1650 C 0.44127 0.97689 0.28276 0.0
C1651 C 0.45724 0.99506 0.27809 0.0
C1652 C 0.42565 0.97488 0.29742 0.0
C1653 C 0.42576 0.99106 0.30753 0.0
C1654 C 0.44268 0.00897 0.30524 0.0
C1655 C 0.45824 0.01095 0.29053 0.0
H1656 H 0.63646 0.00422 0.33143 0.0
H1657 H 0.59029 0.94543 0.33226 0.0
H1658 H 0.61417 0.01404 0.31635 0.0
H1659 H 0.56829 0.95503 0.31618 0.0
H1660 H 0.52841 0.97373 0.29291 0.0
H1661 H 0.55032 0.97023 0.32224 0.0
H1662 H 0.59865 0.01263 0.27718 0.0
H1663 H 0.57683 0.0166 0.24904 0.0
C1664 C 0.62156 0.99339 0.32839 0.0
C1665 C 0.61523 0.97402 0.33279 0.0
C1666 C 0.60875 0.99901 0.31971 0.0
C1667 C 0.58934 0.98536 0.31488 0.0
C1668 C 0.58296 0.96605 0.3201 0.0
C1669 C 0.5957 0.96049 0.32906 0.0
C1670 C 0.54376 0.98285 0.29012 0.0
C1671 C 0.55096 0.9953 0.26864 0.0
C1672 C 0.55633 0.98064 0.3066 0.0
C1673 C 0.5763 0.99077 0.30174 0.0
C1674 C 0.58346 0.00459 0.28175 0.0
C1675 C 0.57093 0.00687 0.26549 0.0
H1676 H 0.99849 0.63096 0.30108 0.0
H1677 H 0.05107 0.6487 0.34345 0.0
H1678 H 0.99558 0.60019 0.29217 0.0
H1679 H 0.04811 0.61772 0.33455 0.0
H1680 H 0.04888 0.57649 0.26767 0.0
H1681 H 0.05139 0.6031 0.29332 0.0
H1682 H 0.99065 0.57004 0.31049 0.0
H1683 H 0.98828 0.54358 0.28454 0.0
C1684 C 0.00925 0.62816 0.30891 0.0
C1685 C 0.02508 0.64234 0.3228 0.0
C1686 C 0.00751 0.61043 0.30399 0.0
C1687 C 0.02162 0.60646 0.31267 0.0
C1688 C 0.03706 0.62036 0.3275 0.0
C1689 C 0.0387 0.63808 0.33266 0.0
C1690 C 0.03633 0.57461 0.27812 0.0
C1691 C 0.01845 0.55798 0.27449 0.0
C1692 C 0.0377 0.58988 0.29268 0.0
C1693 C 0.02114 0.5888 0.30359 0.0
C1694 C 0.00361 0.5714 0.30203 0.0
C1695 C 1.00228 0.55614 0.28754 0.0
H1696 H 0.3625 0.41283 0.32 0.0
H1697 H 0.37602 0.36819 0.32906 0.0
H1698 H 0.39511 0.43469 0.30572 0.0
H1699 H 0.40917 0.39041 0.31603 0.0
H1700 H 0.4545 0.42618 0.25215 0.0
H1701 H 0.42697 0.40499 0.27889 0.0
H1702 H 0.42771 0.45387 0.31395 0.0
H1703 H 0.45475 0.475 0.28567 0.0
C1704 C 0.37255 0.40775 0.31935 0.0
C1705 C 0.36653 0.38866 0.32539 0.0
C1706 C 0.39145 0.42042 0.31143 0.0
C1707 C 0.40505 0.41451 0.30968 0.0
C1708 C 0.39915 0.39552 0.31664 0.0
C1709 C 0.3801 0.38273 0.32417 0.0
C1710 C 0.44918 0.43239 0.26628 0.0
C1711 C 0.4566 0.45222 0.26658 0.0
C1712 C 0.43329 0.42021 0.2817 0.0
C1713 C 0.42456 0.42756 0.29818 0.0
C1714 C 0.43356 0.44758 0.30084 0.0
C1715 C 0.44936 0.45979 0.28507 0.0
H1716 H 0.29589 0.25998 0.33453 0.0
H1717 H 0.34715 0.30044 0.37593 0.0
H1718 H 0.30044 0.23392 0.34935 0.0
H1719 H 0.3516 0.27459 0.39081 0.0
H1720 H 0.36246 0.228 0.40719 0.0
H1721 H 0.35892 0.25004 0.37846 0.0
H1722 H 0.29765 0.21861 0.39218 0.0
H1723 H 0.30135 0.19648 0.42052 0.0
C1724 C 0.30829 0.26335 0.34642 0.0
C1725 C 0.32111 0.28229 0.35415 0.0
C1726 C 0.31084 0.24841 0.35502 0.0
C1727 C 0.32638 0.25211 0.37128 0.0
C1728 C 0.33962 0.27118 0.378 0.0
C1729 C 0.33699 0.28604 0.36962 0.0
C1730 C 0.34818 0.22536 0.40303 0.0
C1731 C 0.33214 0.21042 0.41565 0.0
C1732 C 0.34615 0.23812 0.38692 0.0
C1733 C 0.32803 0.23629 0.38332 0.0
C1734 C 0.31179 0.22038 0.39431 0.0
C1735 C 0.31386 0.20762 0.41045 0.0
H1736 H 0.70775 0.04708 0.37822 0.0
H1737 H 0.74217 0.03579 0.32428 0.0
H1738 H 0.73515 0.07851 0.38718 0.0
H1739 H 0.76967 0.06756 0.33291 0.0
H1740 H 0.78378 0.13561 0.39955 0.0
H1741 H 0.75845 0.1104 0.37283 0.0
H1742 H 0.79026 0.08084 0.37078 0.0
H1743 H 0.81551 0.10619 0.39694 0.0
C1744 C 0.72108 0.05146 0.36784 0.0
C1745 C 0.72283 0.03881 0.35081 0.0
C1746 C 0.7368 0.06962 0.37279 0.0
C1747 C 0.75471 0.07562 0.36083 0.0
C1748 C 0.75616 0.06334 0.34266 0.0
C1749 C 0.74038 0.04515 0.33767 0.0
C1750 C 0.78574 0.12421 0.39213 0.0
C1751 C 0.80161 0.12286 0.39999 0.0
C1752 C 0.77112 0.10961 0.37721 0.0
C1753 C 0.77211 0.09338 0.37008 0.0
C1754 C 0.78901 0.09312 0.37572 0.0
C1755 C 0.80357 0.1077 0.39062 0.0
H1756 H 0.97359 0.67825 0.35743 0.0
H1757 H 0.97788 0.72848 0.32201 0.0
H1758 H 0.94199 0.66935 0.3746 0.0
H1759 H 0.94602 0.71929 0.33856 0.0
H1760 H 0.88163 0.65061 0.39337 0.0
H1761 H 0.90912 0.65839 0.36504 0.0
H1762 H 0.93169 0.71843 0.38011 0.0
H1763 H 0.90378 0.71045 0.40766 0.0
C1764 C 0.96768 0.68724 0.35294 0.0
C1765 C 0.97839 0.70416 0.33853 0.0
C1766 C 0.94944 0.68206 0.36262 0.0
C1767 C 0.94139 0.69361 0.358 0.0
C1768 C 0.95185 0.71019 0.34282 0.0
C1769 C 0.97012 0.71542 0.33324 0.0
C1770 C 0.89213 0.66547 0.38966 0.0
C1771 C 0.89057 0.67997 0.4023 0.0
C1772 C 0.90803 0.66995 0.37382 0.0
C1773 C 0.92285 0.68903 0.37064 0.0
C1774 C 0.92053 0.70359 0.38189 0.0
C1775 C 0.90452 0.69909 0.39759 0.0
H1776 H 0.36862 0.99449 0.72451 0.0
H1777 H 0.40064 0.03765 0.66616 0.0
H1778 H 0.39672 0.99185 0.73334 0.0
H1779 H 0.42878 0.03474 0.67461 0.0
H1780 H 0.47852 0.04525 0.73259 0.0
H1781 H 0.45146 0.04399 0.70987 0.0
H1782 H 0.41929 0.98267 0.71894 0.0
H1783 H 0.44647 0.98419 0.74221 0.0
C1784 C 0.38157 0.00319 0.71321 0.0
C1785 C 0.38239 0.01641 0.6948 0.0
C1786 C 0.3977 1.00155 0.71811 0.0
C1787 C 0.41514 0.0131 0.70473 0.0
C1788 C 0.4157 0.02577 0.6855 0.0
C1789 C 0.39953 0.02739 0.68058 0.0
C1790 C 0.466 0.03143 0.72856 0.0
C1791 C 0.46467 0.0148 0.7388 0.0
C1792 C 0.45038 0.03068 0.71566 0.0
C1793 C 0.43298 0.01324 0.71289 0.0
C1794 C 0.43232 0.99638 0.72111 0.0
C1795 C 0.448 0.99716 0.734 0.0
H1796 H 0.00947 0.37511 0.68539 0.0
H1797 H 0.95174 0.36421 0.69644 0.0
H1798 H 0.02223 0.40822 0.69902 0.0
H1799 H 0.96429 0.3967 0.71114 0.0
H1800 H 0.98635 0.45597 0.73097 0.0
H1801 H 0.97942 0.4292 0.70218 0.0
H1802 H 0.02633 0.42584 0.73686 0.0
H1803 H 0.03391 0.45328 0.76407 0.0
C1804 C 0.99951 0.37975 0.69082 0.0
C1805 C 0.97959 0.36695 0.68997 0.0
C1806 C 0.00681 0.39876 0.69866 0.0
C1807 C 0.99436 0.40535 0.70619 0.0
C1808 C 0.97443 0.3925 0.70491 0.0
C1809 C 0.96718 0.37366 0.69677 0.0
C1810 C 0.9957 0.45005 0.7315 0.0
C1811 C 0.01042 0.45646 0.75014 0.0
C1812 C 0.99151 0.43443 0.71538 0.0
C1813 C 1.00181 0.42476 0.71783 0.0
C1814 C 0.01794 0.43269 0.73435 0.0
C1815 C 0.02228 0.44845 0.75011 0.0
H1816 H 0.64347 0.63668 0.7022 0.0
H1817 H 0.64754 0.59201 0.66198 0.0
H1818 H 0.61107 0.61336 0.71659 0.0
H1819 H 0.61498 0.56885 0.67562 0.0
H1820 H 0.54987 0.57148 0.73029 0.0
H1821 H 0.57845 0.59245 0.70443 0.0
H1822 H 0.59885 0.55299 0.71491 0.0
H1823 H 0.5699 0.53185 0.73993 0.0
C1824 C 0.63736 0.62195 0.69611 0.0
C1825 C 0.64821 0.61622 0.68118 0.0
C1826 C 0.61869 0.60856 0.70417 0.0
C1827 C 0.61034 0.58914 0.6973 0.0
C1828 C 0.621 0.58358 0.68163 0.0
C1829 C 0.6397 0.59692 0.67375 0.0
C1830 C 0.56014 0.56699 0.72602 0.0
C1831 C 0.55769 0.55003 0.7368 0.0
C1832 C 0.57666 0.57913 0.71163 0.0
C1833 C 0.5912 0.57466 0.70804 0.0
C1834 C 0.58795 0.55689 0.7171 0.0
C1835 C 0.57131 0.54467 0.73131 0.0
H1836 H 0.72193 0.74591 0.68326 0.0
H1837 H 0.66725 0.70881 0.64649 0.0
H1838 H 0.71882 0.77358 0.67286 0.0
H1839 H 0.66415 0.73633 0.63618 0.0
H1840 H 0.65741 0.78578 0.6258 0.0
H1841 H 0.66076 0.7631 0.65343 0.0
H1842 H 0.72012 0.78869 0.62949 0.0
H1843 H 0.71663 0.81132 0.60205 0.0
C1844 C 0.70907 0.74361 0.67345 0.0
C1845 C 0.6949 0.72519 0.66549 0.0
C1846 C 0.70733 0.75947 0.66744 0.0
C1847 C 0.69126 0.75717 0.6537 0.0
C1848 C 0.6766 0.7386 0.6471 0.0
C1849 C 0.67844 0.72282 0.65282 0.0
C1850 C 0.6714 0.78713 0.62759 0.0
C1851 C 0.68684 0.80038 0.61216 0.0
C1852 C 0.67327 0.774 0.64308 0.0
C1853 C 0.69062 0.77392 0.64333 0.0
C1854 C 0.70661 0.78846 0.6299 0.0
C1855 C 0.70468 0.8015 0.6143 0.0
H1856 H 0.25096 0.97488 0.6602 0.0
H1857 H 0.29265 0.95903 0.68113 0.0
H1858 H 0.22992 0.94312 0.6429 0.0
H1859 H 0.27105 0.92667 0.66551 0.0
H1860 H 0.24271 0.8835 0.59831 0.0
H1861 H 0.26094 0.91041 0.62704 0.0
H1862 H 0.20899 0.91074 0.64696 0.0
H1863 H 0.191 0.88436 0.61632 0.0
C1864 C 0.25546 0.96443 0.66156 0.0
C1865 C 0.27359 0.96955 0.67167 0.0
C1866 C 0.24325 0.94604 0.65189 0.0
C1867 C 0.24864 0.93208 0.65258 0.0
C1868 C 0.26647 0.93703 0.66393 0.0
C1869 C 0.2789 0.9556 0.67302 0.0
C1870 C 0.23511 0.88907 0.60931 0.0
C1871 C 0.21552 0.88207 0.60473 0.0
C1872 C 0.24558 0.90453 0.62603 0.0
C1873 C 0.23665 0.91326 0.6391 0.0
C1874 C 0.21655 0.90488 0.63662 0.0
C1875 C 0.2061 0.8895 0.61945 0.0
H1876 H 0.04694 0.34479 0.63907 0.0
H1877 H 0.03097 0.29127 0.67687 0.0
H1878 H 0.07786 0.34861 0.62704 0.0
H1879 H 0.06214 0.29515 0.66485 0.0
H1880 H 0.10435 0.29838 0.59627 0.0
H1881 H 0.07705 0.29408 0.62259 0.0
H1882 H 0.10866 0.35385 0.64342 0.0
H1883 H 0.13578 0.35803 0.61677 0.0
C1884 C 0.05014 0.33396 0.64515 0.0
C1885 C 0.03643 0.31768 0.6588 0.0
C1886 C 0.06797 0.33623 0.63845 0.0
C1887 C 0.07254 0.32221 0.64505 0.0
C1888 C 0.05904 0.30616 0.65938 0.0
C1889 C 0.04122 0.30398 0.66633 0.0
C1890 C 0.10575 0.31033 0.60757 0.0
C1891 C 0.1222 0.32846 0.60488 0.0
C1892 C 0.09008 0.30793 0.62252 0.0
C1893 C 0.09055 0.3237 0.63477 0.0
C1894 C 0.10773 0.34148 0.63391 0.0
C1895 C 0.12338 0.34384 0.61902 0.0
H1896 H 0.25423 0.27874 0.66445 0.0
H1897 H 0.30063 0.33726 0.6695 0.0
H1898 H 0.23307 0.28937 0.64816 0.0
H1899 H 0.27917 0.34808 0.65438 0.0
H1900 H 0.24503 0.35481 0.58637 0.0
H1901 H 0.2654 0.3491 0.61505 0.0
H1902 H 0.21498 0.30429 0.65402 0.0
H1903 H 0.19458 0.30957 0.62401 0.0
C1904 C 0.25984 0.29394 0.66252 0.0
C1905 C 0.27922 0.30713 0.66792 0.0
C1906 C 0.24759 0.30009 0.65344 0.0
C1907 C 0.2543 0.31965 0.64983 0.0
C1908 C 0.27351 0.33289 0.6564 0.0
C1909 C 0.28585 0.3267 0.66512 0.0
C1910 C 0.23834 0.34416 0.60166 0.0
C1911 C 0.21826 0.33248 0.60281 0.0
C1912 C 0.25003 0.34086 0.61823 0.0
C1913 C 0.24192 0.32589 0.6366 0.0
C1914 C 0.22176 0.31558 0.63962 0.0
C1915 C 0.21002 0.3188 0.62278 0.0
H1916 H 0.70756 0.97575 0.68492 0.0
H1917 H 0.66269 0.96423 0.62951 0.0
H1918 H 0.70237 0.94372 0.67754 0.0
H1919 H 0.65772 0.93256 0.62187 0.0
H1920 H 0.64643 0.87505 0.61247 0.0
H1921 H 0.64744 0.90096 0.63821 0.0
H1922 H 0.70936 0.92908 0.64062 0.0
H1923 H 0.70811 0.90291 0.61551 0.0
C1924 C 0.6964 0.9663 0.67149 0.0
C1925 C 0.68566 0.97261 0.65761 0.0
C1926 C 0.69346 0.94796 0.66721 0.0
C1927 C 0.67964 0.93552 0.6491 0.0
C1928 C 0.66828 0.94157 0.63629 0.0
C1929 C 0.67126 0.95986 0.64047 0.0
C1930 C 0.66012 0.88627 0.61984 0.0
C1931 C 0.67718 0.88695 0.61234 0.0
C1932 C 0.66076 0.90128 0.63417 0.0
C1933 C 0.67851 0.91734 0.64097 0.0
C1934 C 0.69544 0.91694 0.63587 0.0
C1935 C 0.69476 0.90189 0.62161 0.0
H1936 H 0.03463 0.69922 0.63127 0.0
H1937 H 0.03708 0.74175 0.6845 0.0
H1938 H 0.06727 0.7216 0.61667 0.0
H1939 H 0.07 0.76382 0.67107 0.0
H1940 H 0.11447 0.80539 0.61038 0.0
H1941 H 0.08632 0.78334 0.63579 0.0
H1942 H 0.10033 0.7391 0.62383 0.0
H1943 H 0.12797 0.76117 0.59721 0.0
C1944 C 0.04228 0.71323 0.64023 0.0
C1945 C 0.03314 0.71877 0.65876 0.0
C1946 C 0.06113 0.72609 0.63204 0.0
C1947 C 0.07144 0.74473 0.64252 0.0
C1948 C 0.0625 0.74984 0.66203 0.0
C1949 C 0.04359 0.73712 0.66985 0.0
C1950 C 0.11196 0.7912 0.61422 0.0
C1951 C 0.12348 0.78503 0.60213 0.0
C1952 C 0.0957 0.77841 0.62868 0.0
C1953 C 0.09067 0.75917 0.63156 0.0
C1954 C 0.10335 0.75359 0.6215 0.0
C1955 C 0.11946 0.76634 0.60672 0.0
H1956 H 0.0114 0.62971 0.70066 0.0
H1957 H 0.95641 0.59 0.6667 0.0
H1958 H 0.0151 0.60321 0.71481 0.0
H1959 H 0.96013 0.56331 0.68097 0.0
H1960 H 0.02314 0.55467 0.73047 0.0
H1961 H 0.01905 0.57614 0.70116 0.0
H1962 H 0.95975 0.55028 0.72547 0.0
H1963 H 0.96398 0.52889 0.7546 0.0
C1964 C 1.00023 0.61532 0.69581 0.0
C1965 C 0.98356 0.61198 0.68269 0.0
C1966 C 1.00242 0.60009 0.70375 0.0
C1967 C 0.98791 0.5811 0.69902 0.0
C1968 C 0.97153 0.57776 0.68501 0.0
C1969 C 0.96944 0.59305 0.67675 0.0
C1970 C 0.00902 0.553 0.72849 0.0
C1971 C 0.99379 0.53998 0.74443 0.0
C1972 C 0.00673 0.56546 0.71204 0.0
C1973 C 0.98915 0.56511 0.71125 0.0
C1974 C 0.97344 0.55085 0.72542 0.0
C1975 C 0.97578 0.5385 0.742 0.0
H1976 H 0.4059 0.36619 0.6603 0.0
H1977 H 0.37194 0.37866 0.71347 0.0
H1978 H 0.43375 0.39778 0.6687 0.0
H1979 H 0.3997 0.40994 0.72216 0.0
H1980 H 0.44903 0.467 0.73321 0.0
H1981 H 0.42344 0.44163 0.70697 0.0
H1982 H 0.45422 0.41103 0.70691 0.0
H1983 H 0.47971 0.4365 0.73265 0.0
C1984 C 0.40429 0.37577 0.67346 0.0
C1985 C 0.38676 0.36982 0.68645 0.0
C1986 C 0.42027 0.39386 0.67831 0.0
C1987 C 0.41903 0.40642 0.69618 0.0
C1988 C 0.40117 0.40081 0.708 0.0
C1989 C 0.38525 0.38275 0.70321 0.0
C1990 C 0.45071 0.45531 0.72634 0.0
C1991 C 0.46635 0.45371 0.73465 0.0
C1992 C 0.43594 0.44063 0.7117 0.0
C1993 C 0.43658 0.4241 0.70524 0.0
C1994 C 0.45325 0.42355 0.71133 0.0
C1995 C 0.46794 0.43818 0.72599 0.0
H1996 H 0.64959 0.06509 0.67961 0.0
H1997 H 0.63247 0.00735 0.65763 0.0
H1998 H 0.61727 0.0546 0.69471 0.0
H1999 H 0.59954 0.99683 0.67077 0.0
H2000 H 0.55452 0.98167 0.73602 0.0
H2001 H 0.58162 0.99002 0.7076 0.0
H2002 H 0.58533 0.04382 0.6898 0.0
H2003 H 0.55907 0.03592 0.72043 0.0
C2004 C 0.63873 0.05017 0.67745 0.0
C2005 C 0.64361 0.03699 0.66784 0.0
C2006 C 0.62001 0.04411 0.68583 0.0
C2007 C 0.6055 0.02474 0.68423 0.0
C2008 C 0.61027 0.01176 0.6731 0.0
C2009 C 0.62916 0.01776 0.66541 0.0
C2010 C 0.56091 0.99515 0.72562 0.0
C2011 C 0.55503 0.00836 0.73106 0.0
C2012 C 0.57648 0.99995 0.70902 0.0
C2013 C 0.5863 0.01795 0.69681 0.0
C2014 C 0.57873 0.03015 0.69964 0.0
C2015 C 0.56336 0.02548 0.7168 0.0
loop_
_geom_bond_atom_site_label_1
_geom_bond_atom_site_label_2
_geom_bond_distance
_geom_bond_site_symmetry_2
_ccdc_geom_bond_type
C0 O1 1.306 1_556 S
C0 O3 1.160 . S
O1 C0 1.306 1_554 S
O1 Cd2 2.228 . S
Cd2 O1 2.228 . S
Cd2 O6 2.273 . S
Cd2 O10 2.277 1_554 S
O3 C0 1.160 . S
O3 Cd4 2.203 1_656 S
Cd4 O3 2.203 1_454 S
Cd4 O6 2.411 1_455 S
Cd4 O7 2.333 . S
Cd4 O8 2.352 . S
Cd4 O12 2.277 1_554 S
Cd4 O13 2.356 . S
C5 O10 1.209 1_455 S
C5 O12 1.226 . S
O6 Cd2 2.273 . S
O6 Cd4 2.411 1_655 S
O6 C9 1.320 1_655 S
O7 Cd4 2.333 . S
O7 C9 1.214 . S
O8 Cd4 2.352 . S
O8 C11 1.258 . S
C9 O6 1.320 1_455 S
C9 O7 1.214 . S
O10 Cd2 2.277 1_556 S
O10 C5 1.209 1_655 S
C11 O8 1.258 . S
C11 O13 1.282 . S
O12 Cd4 2.277 1_556 S
O12 C5 1.226 . S
O13 Cd4 2.356 . S
O13 C11 1.282 . S
C14 O15 1.306 . S
C14 O17 1.160 . S
O15 C14 1.306 . S
O15 Cd16 2.228 . S
Cd16 O15 2.228 . S
Cd16 O20 2.273 1_554 S
Cd16 O24 2.277 . S
O17 C14 1.160 . S
O17 Cd18 2.203 . S
Cd18 O17 2.203 . S
Cd18 O20 2.411 1_554 S
Cd18 O21 2.333 1_554 S
Cd18 O22 2.352 1_554 S
Cd18 O26 2.277 . S
Cd18 O27 2.356 . S
C19 O24 1.209 . S
C19 O26 1.226 . S
O20 Cd16 2.273 1_556 S
O20 Cd18 2.411 1_556 S
O20 C23 1.320 . S
O21 Cd18 2.333 1_556 S
O21 C23 1.214 . S
O22 Cd18 2.352 1_556 S
O22 C25 1.258 . S
C23 O20 1.320 . S
C23 O21 1.214 . S
O24 Cd16 2.277 . S
O24 C19 1.209 . S
C25 O22 1.258 . S
C25 O27 1.282 1_556 S
O26 Cd18 2.277 . S
O26 C19 1.226 . S
O27 Cd18 2.356 . S
O27 C25 1.282 1_554 S
C28 O29 1.306 . S
C28 O31 1.160 . S
O29 C28 1.306 . S
O29 Cd30 2.228 . S
Cd30 O29 2.228 . S
Cd30 O34 2.273 1_554 S
Cd30 O38 2.277 . S
O31 C28 1.160 . S
O31 Cd32 2.203 1_565 S
Cd32 O31 2.203 1_545 S
Cd32 O34 2.411 1_544 S
Cd32 O35 2.333 1_554 S
Cd32 O36 2.352 1_554 S
Cd32 O40 2.277 . S
Cd32 O41 2.356 . S
C33 O38 1.209 1_545 S
C33 O40 1.226 . S
O34 Cd30 2.273 1_556 S
O34 Cd32 2.411 1_566 S
O34 C37 1.320 1_565 S
O35 Cd32 2.333 1_556 S
O35 C37 1.214 . S
O36 Cd32 2.352 1_556 S
O36 C39 1.258 . S
C37 O34 1.320 1_545 S
C37 O35 1.214 . S
O38 Cd30 2.277 . S
O38 C33 1.209 1_565 S
C39 O36 1.258 . S
C39 O41 1.282 1_556 S
O40 Cd32 2.277 . S
O40 C33 1.226 . S
O41 Cd32 2.356 . S
O41 C39 1.282 1_554 S
C42 O43 1.306 1_556 S
C42 O45 1.160 . S
O43 C42 1.306 1_554 S
O43 Cd44 2.228 . S
Cd44 O43 2.228 . S
Cd44 O48 2.273 . S
Cd44 O52 2.277 1_554 S
O45 C42 1.160 . S
O45 Cd46 2.203 1_656 S
Cd46 O45 2.203 1_454 S
Cd46 O48 2.411 1_455 S
Cd46 O49 2.333 . S
Cd46 O50 2.352 . S
Cd46 O54 2.277 1_554 S
Cd46 O55 2.356 . S
C47 O52 1.209 1_455 S
C47 O54 1.226 . S
O48 Cd44 2.273 . S
O48 Cd46 2.411 1_655 S
O48 C51 1.268 1_655 S
O49 Cd46 2.333 . S
O49 C51 1.255 . S
O50 Cd46 2.352 . S
O50 C53 1.258 . S
C51 O48 1.268 1_455 S
C51 O49 1.255 . S
O52 Cd44 2.277 1_556 S
O52 C47 1.209 1_655 S
C53 O50 1.258 . S
C53 O55 1.282 . S
O54 Cd46 2.277 1_556 S
O54 C47 1.226 . S
O55 Cd46 2.356 . S
O55 C53 1.282 . S
C56 O57 1.306 . S
C56 O59 1.160 . S
O57 C56 1.306 . S
O57 Cd58 2.228 . S
Cd58 O57 2.228 . S
Cd58 O62 2.273 1_554 S
Cd58 O66 2.277 . S
O59 C56 1.160 . S
O59 Cd60 2.203 . S
Cd60 O59 2.203 . S
Cd60 O62 2.411 1_554 S
Cd60 O63 2.333 1_554 S
Cd60 O64 2.352 1_554 S
Cd60 O68 2.277 . S
Cd60 O69 2.356 . S
C61 O66 1.209 . S
C61 O68 1.226 . S
O62 Cd58 2.273 1_556 S
O62 Cd60 2.411 1_556 S
O62 C65 1.320 . S
O63 Cd60 2.333 1_556 S
O63 C65 1.214 . S
O64 Cd60 2.352 1_556 S
O64 C67 1.258 . S
C65 O62 1.320 . S
C65 O63 1.214 . S
O66 Cd58 2.277 . S
O66 C61 1.209 . S
C67 O64 1.258 . S
C67 O69 1.282 1_556 S
O68 Cd60 2.277 . S
O68 C61 1.226 . S
O69 Cd60 2.356 . S
O69 C67 1.282 1_554 S
C70 O71 1.306 1_556 S
C70 O73 1.160 . S
O71 C70 1.306 1_554 S
O71 Cd72 2.228 . S
Cd72 O71 2.228 . S
Cd72 O76 2.273 . S
Cd72 O80 2.277 1_554 S
O73 C70 1.160 . S
O73 Cd74 2.203 1_546 S
Cd74 O73 2.203 1_564 S
Cd74 O76 2.411 1_565 S
Cd74 O77 2.333 . S
Cd74 O78 2.352 . S
Cd74 O82 2.277 1_554 S
Cd74 O83 2.356 . S
C75 O80 1.175 1_565 S
C75 O82 1.274 . S
O76 Cd72 2.273 . S
O76 Cd74 2.411 1_545 S
O76 C79 1.343 . S
O77 Cd74 2.333 . S
O77 C79 1.167 1_565 S
O78 Cd74 2.352 . S
O78 C81 1.258 . S
C79 O76 1.343 . S
C79 O77 1.167 1_545 S
O80 Cd72 2.277 1_556 S
O80 C75 1.175 1_545 S
C81 O78 1.258 . S
C81 O83 1.282 . S
O82 Cd74 2.277 1_556 S
O82 C75 1.274 . S
O83 Cd74 2.356 . S
O83 C81 1.282 . S
C84 O85 1.306 . S
C84 O87 1.160 . S
O85 C84 1.306 . S
O85 Cd86 2.228 . S
Cd86 O85 2.228 . S
Cd86 O90 2.273 . S
Cd86 O94 2.277 . S
O87 C84 1.160 . S
O87 Cd88 2.203 . S
Cd88 O87 2.203 . S
Cd88 O90 2.411 . S
Cd88 O91 2.333 . S
Cd88 O92 2.352 . S
Cd88 O96 2.277 . S
Cd88 O97 2.356 . S
C89 O94 1.209 . S
C89 O96 1.226 . S
O90 Cd86 2.273 . S
O90 Cd88 2.411 . S
O90 C93 1.320 . S
O91 Cd88 2.333 . S
O91 C93 1.214 . S
O92 Cd88 2.352 . S
O92 C95 1.258 . S
C93 O90 1.320 . S
C93 O91 1.214 . S
O94 Cd86 2.277 . S
O94 C89 1.209 . S
C95 O92 1.258 . S
C95 O97 1.282 . S
O96 Cd88 2.277 . S
O96 C89 1.226 . S
O97 Cd88 2.356 . S
O97 C95 1.282 . S
C98 O99 1.306 . S
C98 O101 1.160 . S
O99 C98 1.306 . S
O99 Cd100 2.228 1_545 S
Cd100 O99 2.228 1_565 S
Cd100 O104 2.273 . S
Cd100 O108 2.277 . S
O101 C98 1.160 . S
O101 Cd102 2.203 1_545 S
Cd102 O101 2.203 1_565 S
Cd102 O104 2.411 . S
Cd102 O105 2.333 . S
Cd102 O106 2.364 . S
Cd102 O110 2.277 . S
Cd102 O111 2.356 . S
C103 O108 1.209 . S
C103 O110 1.226 . S
O104 Cd100 2.273 . S
O104 Cd102 2.411 . S
O104 C107 1.320 . S
O105 Cd102 2.333 . S
O105 C107 1.214 . S
O106 Cd102 2.364 . S
O106 C109 1.313 . S
C107 O104 1.320 . S
C107 O105 1.214 . S
O108 Cd100 2.277 . S
O108 C103 1.209 . S
C109 O106 1.313 . S
C109 O111 1.282 . S
O110 Cd102 2.277 . S
O110 C103 1.226 . S
O111 Cd102 2.356 . S
O111 C109 1.282 . S
C112 O113 1.306 . S
C112 O115 1.160 . S
O113 C112 1.306 . S
O113 Cd114 2.228 1_655 S
Cd114 O113 2.228 1_455 S
Cd114 O118 2.273 . S
Cd114 O122 2.277 . S
O115 C112 1.160 . S
O115 Cd116 2.203 1_655 S
Cd116 O115 2.203 1_455 S
Cd116 O118 2.411 . S
Cd116 O119 2.333 . S
Cd116 O120 2.352 . S
Cd116 O124 2.277 . S
Cd116 O125 2.356 . S
C117 O122 1.209 . S
C117 O124 1.226 . S
O118 Cd114 2.273 . S
O118 Cd116 2.411 . S
O118 C121 1.320 . S
O119 Cd116 2.333 . S
O119 C121 1.214 . S
O120 Cd116 2.352 . S
O120 C123 1.258 . S
C121 O118 1.320 . S
C121 O119 1.214 . S
O122 Cd114 2.277 . S
O122 C117 1.209 . S
C123 O120 1.258 . S
C123 O125 1.282 . S
O124 Cd116 2.277 . S
O124 C117 1.226 . S
O125 Cd116 2.356 . S
O125 C123 1.282 . S
C126 O127 1.306 . S
C126 O129 1.160 . S
O127 C126 1.306 . S
O127 Cd128 2.228 . S
Cd128 O127 2.228 . S
Cd128 O132 2.273 . S
Cd128 O136 2.277 . S
O129 C126 1.160 . S
O129 Cd130 2.203 . S
Cd130 O129 2.203 . S
Cd130 O132 2.411 . S
Cd130 O133 2.333 . S
Cd130 O134 2.352 1_565 S
Cd130 O138 2.277 . S
Cd130 O139 2.356 1_565 S
C131 O136 1.209 . S
C131 O138 1.226 . S
O132 Cd128 2.273 . S
O132 Cd130 2.411 . S
O132 C135 1.320 . S
O133 Cd130 2.333 . S
O133 C135 1.214 . S
O134 Cd130 2.352 1_545 S
O134 C137 1.258 . S
C135 O132 1.320 . S
C135 O133 1.214 . S
O136 Cd128 2.277 . S
O136 C131 1.209 . S
C137 O134 1.258 . S
C137 O139 1.282 . S
O138 Cd130 2.277 . S
O138 C131 1.226 . S
O139 Cd130 2.356 1_545 S
O139 C137 1.282 . S
C140 O141 1.306 . S
C140 O143 1.160 . S
O141 C140 1.306 . S
O141 Cd142 2.228 1_655 S
Cd142 O141 2.228 1_455 S
Cd142 O146 2.273 . S
Cd142 O150 2.277 . S
O143 C140 1.160 . S
O143 Cd144 2.203 1_655 S
Cd144 O143 2.203 1_455 S
Cd144 O146 2.411 . S
Cd144 O147 2.333 . S
Cd144 O148 2.352 . S
Cd144 O152 2.277 . S
Cd144 O153 2.356 . S
C145 O150 1.209 . S
C145 O152 1.226 . S
O146 Cd142 2.273 . S
O146 Cd144 2.411 . S
O146 C149 1.320 . S
O147 Cd144 2.333 . S
O147 C149 1.214 . S
O148 Cd144 2.352 . S
O148 C151 1.258 . S
C149 O146 1.320 . S
C149 O147 1.214 . S
O150 Cd142 2.277 . S
O150 C145 1.209 . S
C151 O148 1.258 . S
C151 O153 1.282 . S
O152 Cd144 2.277 . S
O152 C145 1.226 . S
O153 Cd144 2.356 . S
O153 C151 1.282 . S
C154 O155 1.306 . S
C154 O157 1.160 . S
O155 C154 1.306 . S
O155 Cd156 2.228 . S
Cd156 O155 2.228 . S
Cd156 O160 2.273 . S
Cd156 O164 2.277 . S
O157 C154 1.160 . S
O157 Cd158 2.203 . S
Cd158 O157 2.203 . S
Cd158 O160 2.411 . S
Cd158 O161 2.333 . S
Cd158 O162 2.352 . S
Cd158 O166 2.277 . S
Cd158 O167 2.356 . S
C159 O164 1.209 . S
C159 O166 1.226 . S
O160 Cd156 2.273 . S
O160 Cd158 2.411 . S
O160 C163 1.320 . S
O161 Cd158 2.333 . S
O161 C163 1.214 . S
O162 Cd158 2.352 . S
O162 C165 1.258 . S
C163 O160 1.320 . S
C163 O161 1.214 . S
O164 Cd156 2.277 . S
O164 C159 1.209 . S
C165 O162 1.258 . S
C165 O167 1.282 . S
O166 Cd158 2.277 . S
O166 C159 1.226 . S
O167 Cd158 2.356 . S
O167 C165 1.282 . S
C168 O169 1.306 . S
C168 O171 1.160 . S
O169 C168 1.306 . S
O169 Cd170 2.228 1_565 S
Cd170 O169 2.228 1_545 S
Cd170 O174 2.273 . S
Cd170 O178 2.277 . S
O171 C168 1.160 . S
O171 Cd172 2.203 1_565 S
Cd172 O171 2.203 1_545 S
Cd172 O174 2.411 . S
Cd172 O175 2.333 . S
Cd172 O176 2.352 . S
Cd172 O180 2.277 . S
Cd172 O181 2.356 . S
C173 O178 1.209 . S
C173 O180 1.226 . S
O174 Cd170 2.273 . S
O174 Cd172 2.411 . S
O174 C177 1.320 . S
O175 Cd172 2.333 . S
O175 C177 1.214 . S
O176 Cd172 2.352 . S
O176 C179 1.258 . S
C177 O174 1.320 . S
C177 O175 1.214 . S
O178 Cd170 2.277 . S
O178 C173 1.209 . S
C179 O176 1.258 . S
C179 O181 1.282 . S
O180 Cd172 2.277 . S
O180 C173 1.226 . S
O181 Cd172 2.356 . S
O181 C179 1.282 . S
C182 O183 1.306 . S
C182 O185 1.160 . S
O183 C182 1.306 . S
O183 Cd184 2.228 . S
Cd184 O183 2.228 . S
Cd184 O188 2.273 . S
Cd184 O192 2.277 . S
O185 C182 1.160 . S
O185 Cd186 2.203 . S
Cd186 O185 2.203 . S
Cd186 O188 2.411 . S
Cd186 O189 2.333 . S
Cd186 O190 2.352 1_655 S
Cd186 O194 2.277 . S
Cd186 O195 2.356 1_655 S
C187 O192 1.209 . S
C187 O194 1.226 . S
O188 Cd184 2.273 . S
O188 Cd186 2.411 . S
O188 C191 1.320 . S
O189 Cd186 2.333 . S
O189 C191 1.214 . S
O190 Cd186 2.352 1_455 S
O190 C193 1.258 . S
C191 O188 1.320 . S
C191 O189 1.214 . S
O192 Cd184 2.277 . S
O192 C187 1.209 . S
C193 O190 1.258 . S
C193 O195 1.282 . S
O194 Cd186 2.277 . S
O194 C187 1.226 . S
O195 Cd186 2.356 1_455 S
O195 C193 1.282 . S
C196 O197 1.306 . S
C196 O199 1.160 . S
O197 C196 1.306 . S
O197 Cd198 2.228 . S
Cd198 O197 2.228 . S
Cd198 O202 2.273 . S
Cd198 O206 2.277 . S
O199 C196 1.160 . S
O199 Cd200 2.203 . S
Cd200 O199 2.203 . S
Cd200 O202 2.411 . S
Cd200 O203 2.333 . S
Cd200 O204 2.352 . S
Cd200 O208 2.277 . S
Cd200 O209 2.356 . S
C201 O206 1.209 . S
C201 O208 1.226 . S
O202 Cd198 2.273 . S
O202 Cd200 2.411 . S
O202 C205 1.320 . S
O203 Cd200 2.333 . S
O203 C205 1.214 . S
O204 Cd200 2.352 . S
O204 C207 1.258 . S
C205 O202 1.320 . S
C205 O203 1.214 . S
O206 Cd198 2.277 . S
O206 C201 1.209 . S
C207 O204 1.258 . S
C207 O209 1.282 . S
O208 Cd200 2.277 . S
O208 C201 1.226 . S
O209 Cd200 2.356 . S
O209 C207 1.282 . S
C210 O211 1.306 . S
C210 O213 1.160 . S
O211 C210 1.306 . S
O211 Cd212 2.228 . S
Cd212 O211 2.228 . S
Cd212 O216 2.273 . S
Cd212 O220 2.277 . S
O213 C210 1.160 . S
O213 Cd214 2.203 . S
Cd214 O213 2.203 . S
Cd214 O216 2.411 . S
Cd214 O217 2.333 . S
Cd214 O218 2.352 . S
Cd214 O222 2.277 . S
Cd214 O223 2.356 . S
C215 O220 1.209 . S
C215 O222 1.226 . S
O216 Cd212 2.273 . S
O216 Cd214 2.411 . S
O216 C219 1.320 . S
O217 Cd214 2.333 . S
O217 C219 1.214 . S
O218 Cd214 2.352 . S
O218 C221 1.258 . S
C219 O216 1.320 . S
C219 O217 1.214 . S
O220 Cd212 2.277 . S
O220 C215 1.209 . S
C221 O218 1.258 . S
C221 O223 1.282 . S
O222 Cd214 2.277 . S
O222 C215 1.226 . S
O223 Cd214 2.356 . S
O223 C221 1.282 . S
C224 O225 1.306 . S
C224 O227 1.160 . S
O225 C224 1.306 . S
O225 Cd226 2.228 . S
Cd226 O225 2.228 . S
Cd226 O230 2.273 . S
Cd226 O234 2.277 . S
O227 C224 1.160 . S
O227 Cd228 2.203 . S
Cd228 O227 2.203 . S
Cd228 O230 2.411 . S
Cd228 O231 2.333 . S
Cd228 O232 2.352 1_545 S
Cd228 O236 2.277 . S
Cd228 O237 2.356 1_545 S
C229 O234 1.209 . S
C229 O236 1.226 . S
O230 Cd226 2.273 . S
O230 Cd228 2.411 . S
O230 C233 1.320 . S
O231 Cd228 2.333 . S
O231 C233 1.214 . S
O232 Cd228 2.352 1_565 S
O232 C235 1.258 . S
C233 O230 1.320 . S
C233 O231 1.214 . S
O234 Cd226 2.277 . S
O234 C229 1.209 . S
C235 O232 1.258 . S
C235 O237 1.282 . S
O236 Cd228 2.277 . S
O236 C229 1.226 . S
O237 Cd228 2.356 1_565 S
O237 C235 1.282 . S
C238 O239 1.306 . S
C238 O241 1.160 . S
O239 C238 1.306 . S
O239 Cd240 2.228 1_455 S
Cd240 O239 2.228 1_655 S
Cd240 O244 2.273 . S
Cd240 O248 2.277 . S
O241 C238 1.160 . S
O241 Cd242 2.203 1_455 S
Cd242 O241 2.203 1_655 S
Cd242 O244 2.411 . S
Cd242 O245 2.333 . S
Cd242 O246 2.395 . S
Cd242 O250 2.277 . S
Cd242 O251 2.356 . S
C243 O248 1.209 . S
C243 O250 1.226 . S
O244 Cd240 2.273 . S
O244 Cd242 2.411 . S
O244 C247 1.320 . S
O245 Cd242 2.333 . S
O245 C247 1.214 . S
O246 Cd242 2.395 . S
O246 C249 1.260 . S
C247 O244 1.320 . S
C247 O245 1.214 . S
O248 Cd240 2.277 . S
O248 C243 1.209 . S
C249 O246 1.260 . S
C249 O251 1.282 . S
O250 Cd242 2.277 . S
O250 C243 1.226 . S
O251 Cd242 2.356 . S
O251 C249 1.282 . S
H252 C258 0.930 . S
H253 C261 0.931 . S
H254 C263 0.931 . S
H255 C265 0.930 . S
H256 C267 0.930 . S
H257 C269 0.931 . S
C258 H252 0.930 . S
C258 C259 1.380 . S
C258 C260 1.394 . S
C259 C258 1.380 . S
C259 C263 1.382 . S
C260 C258 1.394 . S
C260 C261 1.400 . S
C261 H253 0.931 . S
C261 C260 1.400 . S
C261 C262 1.375 . S
C262 C261 1.375 . S
C262 C263 1.415 . S
C262 C264 1.501 . S
C263 H254 0.931 . S
C263 C259 1.382 . S
C263 C262 1.415 . S
C264 C262 1.501 . S
C264 C265 1.384 . S
C264 C269 1.408 . S
C265 H255 0.930 . S
C265 C264 1.384 . S
C265 C266 1.389 . S
C266 C265 1.389 . S
C266 C267 1.405 . S
C267 H256 0.930 . S
C267 C266 1.405 . S
C267 C268 1.364 . S
C268 C267 1.364 . S
C268 C269 1.400 . S
C269 H257 0.931 . S
C269 C264 1.408 . S
C269 C268 1.400 . S
H270 C276 0.930 . S
H271 C279 0.931 . S
H272 C281 0.931 . S
H273 C283 0.930 . S
H274 C285 0.930 . S
H275 C287 0.931 . S
C276 H270 0.930 . S
C276 C277 1.380 . S
C276 C278 1.394 . S
C277 C276 1.380 . S
C277 C281 1.382 . S
C278 C276 1.394 . S
C278 C279 1.400 . S
C279 H271 0.931 . S
C279 C278 1.400 . S
C279 C280 1.375 . S
C280 C279 1.375 . S
C280 C281 1.415 . S
C280 C282 1.501 . S
C281 H272 0.931 . S
C281 C277 1.382 . S
C281 C280 1.415 . S
C282 C280 1.501 . S
C282 C283 1.384 . S
C282 C287 1.408 . S
C283 H273 0.930 . S
C283 C282 1.384 . S
C283 C284 1.389 . S
C284 C283 1.389 . S
C284 C285 1.405 . S
C285 H274 0.930 . S
C285 C284 1.405 . S
C285 C286 1.364 . S
C286 C285 1.364 . S
C286 C287 1.400 . S
C287 H275 0.931 . S
C287 C282 1.408 . S
C287 C286 1.400 . S
H288 C294 0.930 . S
H289 C297 0.931 . S
H290 C299 0.931 . S
H291 C301 0.930 . S
H292 C303 0.930 . S
H293 C305 0.931 . S
C294 H288 0.930 . S
C294 C295 1.380 . S
C294 C296 1.394 . S
C295 C294 1.380 . S
C295 C299 1.382 . S
C296 C294 1.394 . S
C296 C297 1.400 . S
C297 H289 0.931 . S
C297 C296 1.400 . S
C297 C298 1.375 . S
C298 C297 1.375 . S
C298 C299 1.415 . S
C298 C300 1.501 . S
C299 H290 0.931 . S
C299 C295 1.382 . S
C299 C298 1.415 . S
C300 C298 1.501 . S
C300 C301 1.384 . S
C300 C305 1.408 . S
C301 H291 0.930 . S
C301 C300 1.384 . S
C301 C302 1.389 . S
C302 C301 1.389 . S
C302 C303 1.405 . S
C303 H292 0.930 . S
C303 C302 1.405 . S
C303 C304 1.364 . S
C304 C303 1.364 . S
C304 C305 1.400 . S
C305 H293 0.931 . S
C305 C300 1.408 . S
C305 C304 1.400 . S
H306 C312 0.930 . S
H307 C315 0.931 . S
H308 C317 0.931 . S
H309 C319 0.930 . S
H310 C321 0.930 . S
H311 C323 0.931 . S
C312 H306 0.930 . S
C312 C313 1.380 . S
C312 C314 1.394 . S
C313 C312 1.380 . S
C313 C317 1.382 . S
C314 C312 1.394 . S
C314 C315 1.400 . S
C315 H307 0.931 . S
C315 C314 1.400 . S
C315 C316 1.375 . S
C316 C315 1.375 . S
C316 C317 1.415 . S
C316 C318 1.501 . S
C317 H308 0.931 . S
C317 C313 1.382 . S
C317 C316 1.415 . S
C318 C316 1.501 . S
C318 C319 1.384 . S
C318 C323 1.408 . S
C319 H309 0.930 . S
C319 C318 1.384 . S
C319 C320 1.389 . S
C320 C319 1.389 . S
C320 C321 1.405 . S
C321 H310 0.930 . S
C321 C320 1.405 . S
C321 C322 1.364 . S
C322 C321 1.364 . S
C322 C323 1.400 . S
C323 H311 0.931 . S
C323 C318 1.408 . S
C323 C322 1.400 . S
H324 C330 0.930 . S
H325 C333 0.931 . S
H326 C335 0.931 . S
H327 C337 0.930 . S
H328 C339 0.930 . S
H329 C341 0.931 . S
C330 H324 0.930 . S
C330 C331 1.380 . S
C330 C332 1.394 . S
C331 C330 1.380 . S
C331 C335 1.382 . S
C332 C330 1.394 . S
C332 C333 1.400 . S
C333 H325 0.931 . S
C333 C332 1.400 . S
C333 C334 1.375 . S
C334 C333 1.375 . S
C334 C335 1.415 . S
C334 C336 1.501 . S
C335 H326 0.931 . S
C335 C331 1.382 . S
C335 C334 1.415 . S
C336 C334 1.501 . S
C336 C337 1.384 . S
C336 C341 1.408 . S
C337 H327 0.930 . S
C337 C336 1.384 . S
C337 C338 1.389 . S
C338 C337 1.389 . S
C338 C339 1.405 . S
C339 H328 0.930 . S
C339 C338 1.405 . S
C339 C340 1.364 . S
C340 C339 1.364 . S
C340 C341 1.400 . S
C341 H329 0.931 . S
C341 C336 1.408 . S
C341 C340 1.400 . S
H342 C348 0.930 . S
H343 C351 0.931 . S
H344 C353 0.931 . S
H345 C355 0.930 . S
H346 C357 0.930 . S
H347 C359 0.931 . S
C348 H342 0.930 . S
C348 C349 1.380 . S
C348 C350 1.394 . S
C349 C348 1.380 . S
C349 C353 1.382 . S
C350 C348 1.394 . S
C350 C351 1.400 . S
C351 H343 0.931 . S
C351 C350 1.400 . S
C351 C352 1.375 . S
C352 C351 1.375 . S
C352 C353 1.415 . S
C352 C354 1.501 . S
C353 H344 0.931 . S
C353 C349 1.382 . S
C353 C352 1.415 . S
C354 C352 1.501 . S
C354 C355 1.384 . S
C354 C359 1.408 . S
C355 H345 0.930 . S
C355 C354 1.384 . S
C355 C356 1.389 . S
C356 C355 1.389 . S
C356 C357 1.405 . S
C357 H346 0.930 . S
C357 C356 1.405 . S
C357 C358 1.364 . S
C358 C357 1.364 . S
C358 C359 1.400 . S
C359 H347 0.931 . S
C359 C354 1.408 . S
C359 C358 1.400 . S
H360 C366 0.930 . S
H361 C369 0.931 . S
H362 C371 0.931 . S
H363 C373 0.930 . S
H364 C375 0.930 . S
H365 C377 0.931 . S
C366 H360 0.930 . S
C366 C367 1.380 . S
C366 C368 1.394 . S
C367 C366 1.380 . S
C367 C371 1.382 . S
C368 C366 1.394 . S
C368 C369 1.400 . S
C369 H361 0.931 . S
C369 C368 1.400 . S
C369 C370 1.375 . S
C370 C369 1.375 . S
C370 C371 1.415 . S
C370 C372 1.501 . S
C371 H362 0.931 . S
C371 C367 1.382 . S
C371 C370 1.415 . S
C372 C370 1.501 . S
C372 C373 1.384 . S
C372 C377 1.408 . S
C373 H363 0.930 . S
C373 C372 1.384 . S
C373 C374 1.389 . S
C374 C373 1.389 . S
C374 C375 1.405 . S
C375 H364 0.930 . S
C375 C374 1.405 . S
C375 C376 1.364 . S
C376 C375 1.364 . S
C376 C377 1.400 . S
C377 H365 0.931 . S
C377 C372 1.408 . S
C377 C376 1.400 . S
H378 C384 0.930 . S
H379 C387 0.931 . S
H380 C389 0.931 . S
H381 C391 0.930 . S
H382 C393 0.930 . S
H383 C395 0.931 . S
C384 H378 0.930 . S
C384 C385 1.380 . S
C384 C386 1.394 . S
C385 C384 1.380 . S
C385 C389 1.382 . S
C386 C384 1.394 . S
C386 C387 1.400 . S
C387 H379 0.931 . S
C387 C386 1.400 . S
C387 C388 1.375 . S
C388 C387 1.375 . S
C388 C389 1.415 . S
C388 C390 1.501 . S
C389 H380 0.931 . S
C389 C385 1.382 . S
C389 C388 1.415 . S
C390 C388 1.501 . S
C390 C391 1.384 . S
C390 C395 1.408 . S
C391 H381 0.930 . S
C391 C390 1.384 . S
C391 C392 1.389 . S
C392 C391 1.389 . S
C392 C393 1.405 . S
C393 H382 0.930 . S
C393 C392 1.405 . S
C393 C394 1.364 . S
C394 C393 1.364 . S
C394 C395 1.400 . S
C395 H383 0.931 . S
C395 C390 1.408 . S
C395 C394 1.400 . S
H396 C402 0.930 . S
H397 C405 0.931 . S
H398 C407 0.931 . S
H399 C409 0.930 . S
H400 C411 0.930 . S
H401 C413 0.931 . S
C402 H396 0.930 . S
C402 C403 1.380 . S
C402 C404 1.394 . S
C403 C402 1.380 . S
C403 C407 1.382 . S
C404 C402 1.394 . S
C404 C405 1.400 . S
C405 H397 0.931 . S
C405 C404 1.400 . S
C405 C406 1.375 . S
C406 C405 1.375 . S
C406 C407 1.415 . S
C406 C408 1.501 . S
C407 H398 0.931 . S
C407 C403 1.382 . S
C407 C406 1.415 . S
C408 C406 1.501 . S
C408 C409 1.384 . S
C408 C413 1.408 . S
C409 H399 0.930 . S
C409 C408 1.384 . S
C409 C410 1.389 . S
C410 C409 1.389 . S
C410 C411 1.405 . S
C411 H400 0.930 . S
C411 C410 1.405 . S
C411 C412 1.364 . S
C412 C411 1.364 . S
C412 C413 1.400 . S
C413 H401 0.931 . S
C413 C408 1.408 . S
C413 C412 1.400 . S
H414 C420 0.925 . S
H415 C423 0.931 . S
H416 C425 0.931 . S
H417 C427 0.930 . S
H418 C429 0.930 . S
H419 C431 0.939 1_655 S
C420 H414 0.925 . S
C420 C421 1.384 . S
C420 C422 1.395 1_655 S
C421 C420 1.384 . S
C421 C425 1.382 . S
C422 C420 1.395 1_455 S
C422 C423 1.400 . S
C423 H415 0.931 . S
C423 C422 1.400 . S
C423 C424 1.375 . S
C424 C423 1.375 . S
C424 C425 1.415 1_455 S
C424 C426 1.501 . S
C425 H416 0.931 . S
C425 C421 1.382 . S
C425 C424 1.415 1_655 S
C426 C424 1.501 . S
C426 C427 1.384 . S
C426 C431 1.420 . S
C427 H417 0.930 . S
C427 C426 1.384 . S
C427 C428 1.389 . S
C428 C427 1.389 . S
C428 C429 1.405 . S
C429 H418 0.930 . S
C429 C428 1.405 . S
C429 C430 1.360 . S
C430 C429 1.360 . S
C430 C431 1.391 . S
C431 H419 0.939 1_455 S
C431 C426 1.420 . S
C431 C430 1.391 . S
H432 C438 0.930 . S
H433 C441 0.931 . S
H434 C443 0.931 . S
H435 C445 0.930 . S
H436 C447 0.930 . S
H437 C449 0.931 . S
C438 H432 0.930 . S
C438 C439 1.380 . S
C438 C440 1.394 . S
C439 C438 1.380 . S
C439 C443 1.382 . S
C440 C438 1.394 . S
C440 C441 1.400 . S
C441 H433 0.931 . S
C441 C440 1.400 . S
C441 C442 1.375 . S
C442 C441 1.375 . S
C442 C443 1.415 . S
C442 C444 1.501 . S
C443 H434 0.931 . S
C443 C439 1.382 . S
C443 C442 1.415 . S
C444 C442 1.501 . S
C444 C445 1.384 . S
C444 C449 1.408 . S
C445 H435 0.930 . S
C445 C444 1.384 . S
C445 C446 1.389 . S
C446 C445 1.389 . S
C446 C447 1.405 . S
C447 H436 0.930 . S
C447 C446 1.405 . S
C447 C448 1.364 . S
C448 C447 1.364 . S
C448 C449 1.400 . S
C449 H437 0.931 . S
C449 C444 1.408 . S
C449 C448 1.400 . S
H450 C456 0.959 . S
H451 C459 0.931 . S
H452 C461 0.931 . S
H453 C463 0.930 . S
H454 C465 0.930 . S
H455 C467 0.916 . S
C456 H450 0.959 . S
C456 C457 1.374 . S
C456 C458 1.374 1_545 S
C457 C456 1.374 . S
C457 C461 1.382 . S
C458 C456 1.374 1_565 S
C458 C459 1.400 . S
C459 H451 0.931 . S
C459 C458 1.400 . S
C459 C460 1.375 . S
C460 C459 1.375 . S
C460 C461 1.415 1_565 S
C460 C462 1.501 . S
C461 H452 0.931 . S
C461 C457 1.382 . S
C461 C460 1.415 1_545 S
C462 C460 1.501 . S
C462 C463 1.384 . S
C462 C467 1.397 . S
C463 H453 0.930 . S
C463 C462 1.384 . S
C463 C464 1.389 . S
C464 C463 1.389 . S
C464 C465 1.405 . S
C465 H454 0.930 . S
C465 C464 1.405 . S
C465 C466 1.380 . S
C466 C465 1.380 . S
C466 C467 1.402 . S
C467 H455 0.916 . S
C467 C462 1.397 . S
C467 C466 1.402 . S
H468 C474 0.918 . S
H469 C477 0.931 . S
H470 C479 0.927 1_545 S
H471 C481 0.930 . S
H472 C483 0.900 . S
H473 C485 0.931 . S
C474 H468 0.918 . S
C474 C475 1.381 . S
C474 C476 1.416 1_545 S
C475 C474 1.381 . S
C475 C479 1.399 1_545 S
C476 C474 1.416 1_565 S
C476 C477 1.371 . S
C477 H469 0.931 . S
C477 C476 1.371 . S
C477 C478 1.375 . S
C478 C477 1.375 . S
C478 C479 1.412 . S
C478 C480 1.501 . S
C479 H470 0.927 1_565 S
C479 C475 1.399 1_565 S
C479 C478 1.412 . S
C480 C478 1.501 . S
C480 C481 1.384 . S
C480 C485 1.408 1_565 S
C481 H471 0.930 . S
C481 C480 1.384 . S
C481 C482 1.389 . S
C482 C481 1.389 . S
C482 C483 1.431 . S
C483 H472 0.900 . S
C483 C482 1.431 . S
C483 C484 1.373 1_565 S
C484 C483 1.373 1_545 S
C484 C485 1.400 . S
C485 H473 0.931 . S
C485 C480 1.408 1_545 S
C485 C484 1.400 . S
H486 C492 0.958 . S
H487 C495 0.931 . S
H488 C497 0.934 1_655 S
H489 C499 0.930 . S
H490 C501 0.930 . S
H491 C503 0.931 . S
C492 H486 0.958 . S
C492 C493 1.378 . S
C492 C494 1.366 1_655 S
C493 C492 1.378 . S
C493 C497 1.360 1_655 S
C494 C492 1.366 1_455 S
C494 C495 1.433 . S
C495 H487 0.931 . S
C495 C494 1.433 . S
C495 C496 1.375 . S
C496 C495 1.375 . S
C496 C497 1.415 . S
C496 C498 1.501 . S
C497 H488 0.934 1_455 S
C497 C493 1.360 1_455 S
C497 C496 1.415 . S
C498 C496 1.501 . S
C498 C499 1.384 . S
C498 C503 1.408 1_455 S
C499 H489 0.930 . S
C499 C498 1.384 . S
C499 C500 1.389 . S
C500 C499 1.389 . S
C500 C501 1.405 . S
C501 H490 0.930 . S
C501 C500 1.405 . S
C501 C502 1.364 1_455 S
C502 C501 1.364 1_655 S
C502 C503 1.400 . S
C503 H491 0.931 . S
C503 C498 1.408 1_655 S
C503 C502 1.400 . S
H504 C510 0.930 . S
H505 C513 0.931 . S
H506 C515 0.931 . S
H507 C517 0.930 . S
H508 C519 0.930 . S
H509 C521 0.931 . S
C510 H504 0.930 . S
C510 C511 1.380 . S
C510 C512 1.394 . S
C511 C510 1.380 . S
C511 C515 1.382 . S
C512 C510 1.394 . S
C512 C513 1.400 . S
C513 H505 0.931 . S
C513 C512 1.400 . S
C513 C514 1.375 . S
C514 C513 1.375 . S
C514 C515 1.415 . S
C514 C516 1.501 . S
C515 H506 0.931 . S
C515 C511 1.382 . S
C515 C514 1.415 . S
C516 C514 1.501 . S
C516 C517 1.384 . S
C516 C521 1.408 . S
C517 H507 0.930 . S
C517 C516 1.384 . S
C517 C518 1.389 . S
C518 C517 1.389 . S
C518 C519 1.405 . S
C519 H508 0.930 . S
C519 C518 1.405 . S
C519 C520 1.364 . S
C520 C519 1.364 . S
C520 C521 1.400 . S
C521 H509 0.931 . S
C521 C516 1.408 . S
C521 C520 1.400 . S
H522 C528 0.930 . S
H523 C531 0.931 . S
H524 C533 0.931 . S
H525 C535 0.930 . S
H526 C537 0.930 . S
H527 C539 0.931 . S
C528 H522 0.930 . S
C528 C529 1.380 . S
C528 C530 1.394 . S
C529 C528 1.380 . S
C529 C533 1.382 . S
C530 C528 1.394 . S
C530 C531 1.400 . S
C531 H523 0.931 . S
C531 C530 1.400 . S
C531 C532 1.375 . S
C532 C531 1.375 . S
C532 C533 1.415 . S
C532 C534 1.501 . S
C533 H524 0.931 . S
C533 C529 1.382 . S
C533 C532 1.415 . S
C534 C532 1.501 . S
C534 C535 1.384 . S
C534 C539 1.408 . S
C535 H525 0.930 . S
C535 C534 1.384 . S
C535 C536 1.389 . S
C536 C535 1.389 . S
C536 C537 1.405 . S
C537 H526 0.930 . S
C537 C536 1.405 . S
C537 C538 1.364 . S
C538 C537 1.364 . S
C538 C539 1.400 . S
C539 H527 0.931 . S
C539 C534 1.408 . S
C539 C538 1.400 . S
H540 C546 0.930 . S
H541 C549 0.931 . S
H542 C551 0.931 . S
H543 C553 0.930 . S
H544 C555 0.930 . S
H545 C557 0.931 . S
C546 H540 0.930 . S
C546 C547 1.380 . S
C546 C548 1.394 . S
C547 C546 1.380 . S
C547 C551 1.382 . S
C548 C546 1.394 . S
C548 C549 1.400 . S
C549 H541 0.931 . S
C549 C548 1.400 . S
C549 C550 1.375 . S
C550 C549 1.375 . S
C550 C551 1.415 . S
C550 C552 1.501 . S
C551 H542 0.931 . S
C551 C547 1.382 . S
C551 C550 1.415 . S
C552 C550 1.501 . S
C552 C553 1.384 . S
C552 C557 1.408 . S
C553 H543 0.930 . S
C553 C552 1.384 . S
C553 C554 1.389 . S
C554 C553 1.389 . S
C554 C555 1.405 . S
C555 H544 0.930 . S
C555 C554 1.405 . S
C555 C556 1.364 . S
C556 C555 1.364 . S
C556 C557 1.400 . S
C557 H545 0.931 . S
C557 C552 1.408 . S
C557 C556 1.400 . S
H558 C564 0.930 . S
H559 C567 0.931 . S
H560 C569 0.931 . S
H561 C571 0.930 . S
H562 C573 0.930 . S
H563 C575 0.931 . S
C564 H558 0.930 . S
C564 C565 1.380 . S
C564 C566 1.394 . S
C565 C564 1.380 . S
C565 C569 1.382 . S
C566 C564 1.394 . S
C566 C567 1.400 . S
C567 H559 0.931 . S
C567 C566 1.400 . S
C567 C568 1.375 . S
C568 C567 1.375 . S
C568 C569 1.415 . S
C568 C570 1.501 . S
C569 H560 0.931 . S
C569 C565 1.382 . S
C569 C568 1.415 . S
C570 C568 1.501 . S
C570 C571 1.384 . S
C570 C575 1.408 . S
C571 H561 0.930 . S
C571 C570 1.384 . S
C571 C572 1.389 . S
C572 C571 1.389 . S
C572 C573 1.405 . S
C573 H562 0.930 . S
C573 C572 1.405 . S
C573 C574 1.364 . S
C574 C573 1.364 . S
C574 C575 1.400 . S
C575 H563 0.931 . S
C575 C570 1.408 . S
C575 C574 1.400 . S
H576 C584 0.950 . S
H577 C589 0.950 . S
H578 C586 0.950 . S
H579 C588 0.950 . S
H580 C590 0.950 . S
H581 C592 0.950 . S
H582 C594 0.950 . S
H583 C595 0.950 . S
C584 H576 0.950 . S
C584 C585 1.386 1_455 S
C584 C586 1.391 . S
C585 C584 1.386 1_655 S
C585 C589 1.393 . S
C586 H578 0.950 . S
C586 C584 1.391 . S
C586 C587 1.400 1_455 S
C587 C586 1.400 1_655 S
C587 C588 1.398 . S
C587 C593 1.491 . S
C588 H579 0.950 . S
C588 C587 1.398 . S
C588 C589 1.391 . S
C589 H577 0.950 . S
C589 C585 1.393 . S
C589 C588 1.391 . S
C590 H580 0.950 . S
C590 C591 1.386 . S
C590 C592 1.391 . S
C591 C590 1.386 . S
C591 C595 1.393 1_655 S
C592 H581 0.950 . S
C592 C590 1.391 . S
C592 C593 1.400 . S
C593 C587 1.491 . S
C593 C592 1.400 . S
C593 C594 1.398 1_655 S
C594 H582 0.950 . S
C594 C593 1.398 1_455 S
C594 C595 1.391 . S
C595 H583 0.950 . S
C595 C591 1.393 1_455 S
C595 C594 1.391 . S
H596 C604 0.950 . S
H597 C609 0.950 . S
H598 C606 0.950 . S
H599 C608 0.950 . S
H600 C610 0.950 . S
H601 C612 0.950 . S
H602 C614 0.950 . S
H603 C615 0.950 . S
C604 H596 0.950 . S
C604 C605 1.386 . S
C604 C606 1.391 . S
C605 C604 1.386 . S
C605 C609 1.393 . S
C606 H598 0.950 . S
C606 C604 1.391 . S
C606 C607 1.400 . S
C607 C606 1.400 . S
C607 C608 1.398 . S
C607 C613 1.491 . S
C608 H599 0.950 . S
C608 C607 1.398 . S
C608 C609 1.391 . S
C609 H597 0.950 . S
C609 C605 1.393 . S
C609 C608 1.391 . S
C610 H600 0.950 . S
C610 C611 1.386 . S
C610 C612 1.391 . S
C611 C610 1.386 . S
C611 C615 1.393 . S
C612 H601 0.950 . S
C612 C610 1.391 . S
C612 C613 1.400 . S
C613 C607 1.491 . S
C613 C612 1.400 . S
C613 C614 1.398 . S
C614 H602 0.950 . S
C614 C613 1.398 . S
C614 C615 1.391 . S
C615 H603 0.950 . S
C615 C611 1.393 . S
C615 C614 1.391 . S
H616 C624 0.949 . S
H617 C629 0.950 . S
H618 C626 0.950 1_565 S
H619 C628 0.950 . S
H620 C630 0.950 . S
H621 C632 0.950 . S
H622 C634 0.950 1_565 S
H623 C635 0.950 1_565 S
C624 H616 0.949 . S
C624 C625 1.386 1_565 S
C624 C626 1.391 1_565 S
C625 C624 1.386 1_545 S
C625 C629 1.393 . S
C626 H618 0.950 1_545 S
C626 C624 1.391 1_545 S
C626 C627 1.401 . S
C627 C626 1.401 . S
C627 C628 1.398 . S
C627 C633 1.491 . S
C628 H619 0.950 . S
C628 C627 1.398 . S
C628 C629 1.391 . S
C629 H617 0.950 . S
C629 C625 1.393 . S
C629 C628 1.391 . S
C630 H620 0.950 . S
C630 C631 1.386 . S
C630 C632 1.391 . S
C631 C630 1.386 . S
C631 C635 1.393 . S
C632 H621 0.950 . S
C632 C630 1.391 . S
C632 C633 1.400 . S
C633 C627 1.491 . S
C633 C632 1.400 . S
C633 C634 1.398 . S
C634 H622 0.950 1_545 S
C634 C633 1.398 . S
C634 C635 1.391 . S
C635 H623 0.950 1_545 S
C635 C631 1.393 . S
C635 C634 1.391 . S
H636 C644 0.950 . S
H637 C649 0.950 . S
H638 C646 0.950 . S
H639 C648 0.950 . S
H640 C650 0.950 . S
H641 C652 0.950 . S
H642 C654 0.950 . S
H643 C655 0.961 . S
C644 H636 0.950 . S
C644 C645 1.388 1_545 S
C644 C646 1.391 . S
C645 C644 1.388 1_565 S
C645 C649 1.388 . S
C646 H638 0.950 . S
C646 C644 1.391 . S
C646 C647 1.400 1_545 S
C647 C646 1.400 1_565 S
C647 C648 1.398 . S
C647 C653 1.491 . S
C648 H639 0.950 . S
C648 C647 1.398 . S
C648 C649 1.391 . S
C649 H637 0.950 . S
C649 C645 1.388 . S
C649 C648 1.391 . S
C650 H640 0.950 . S
C650 C651 1.386 . S
C650 C652 1.391 . S
C651 C650 1.386 . S
C651 C655 1.368 1_565 S
C652 H641 0.950 . S
C652 C650 1.391 . S
C652 C653 1.400 . S
C653 C647 1.491 . S
C653 C652 1.400 . S
C653 C654 1.398 1_565 S
C654 H642 0.950 . S
C654 C653 1.398 1_545 S
C654 C655 1.406 . S
C655 H643 0.961 . S
C655 C651 1.368 1_545 S
C655 C654 1.406 . S
H656 C664 0.950 . S
H657 C669 0.950 . S
H658 C666 0.950 . S
H659 C668 0.950 . S
H660 C670 0.950 . S
H661 C672 0.950 . S
H662 C674 0.950 . S
H663 C675 0.950 . S
C664 H656 0.950 . S
C664 C665 1.386 . S
C664 C666 1.391 . S
C665 C664 1.386 . S
C665 C669 1.393 1_455 S
C666 H658 0.950 . S
C666 C664 1.391 . S
C666 C667 1.400 . S
C667 C666 1.400 . S
C667 C668 1.398 1_455 S
C667 C673 1.491 . S
C668 H659 0.950 . S
C668 C667 1.398 1_655 S
C668 C669 1.391 . S
C669 H657 0.950 . S
C669 C665 1.393 1_655 S
C669 C668 1.391 . S
C670 H660 0.950 . S
C670 C671 1.386 1_655 S
C670 C672 1.391 . S
C671 C670 1.386 1_455 S
C671 C675 1.393 . S
C672 H661 0.950 . S
C672 C670 1.391 . S
C672 C673 1.400 1_655 S
C673 C667 1.491 . S
C673 C672 1.400 1_455 S
C673 C674 1.398 . S
C674 H662 0.950 . S
C674 C673 1.398 . S
C674 C675 1.391 . S
C675 H663 0.950 . S
C675 C671 1.393 . S
C675 C674 1.391 . S
H676 C684 0.950 . S
H677 C689 0.950 . S
H678 C686 0.950 . S
H679 C688 0.950 . S
H680 C690 0.950 . S
H681 C692 0.950 . S
H682 C694 0.950 . S
H683 C695 0.950 . S
C684 H676 0.950 . S
C684 C685 1.386 . S
C684 C686 1.391 . S
C685 C684 1.386 . S
C685 C689 1.393 . S
C686 H678 0.950 . S
C686 C684 1.391 . S
C686 C687 1.400 . S
C687 C686 1.400 . S
C687 C688 1.398 . S
C687 C693 1.491 . S
C688 H679 0.950 . S
C688 C687 1.398 . S
C688 C689 1.391 . S
C689 H677 0.950 . S
C689 C685 1.393 . S
C689 C688 1.391 . S
C690 H680 0.950 . S
C690 C691 1.386 . S
C690 C692 1.391 . S
C691 C690 1.386 . S
C691 C695 1.393 . S
C692 H681 0.950 . S
C692 C690 1.391 . S
C692 C693 1.400 . S
C693 C687 1.491 . S
C693 C692 1.400 . S
C693 C694 1.398 . S
C694 H682 0.950 . S
C694 C693 1.398 . S
C694 C695 1.391 . S
C695 H683 0.950 . S
C695 C691 1.393 . S
C695 C694 1.391 . S
H696 C704 0.950 . S
H697 C709 0.950 . S
H698 C706 0.950 . S
H699 C708 0.950 . S
H700 C710 0.950 . S
H701 C712 0.950 . S
H702 C714 0.950 . S
H703 C715 0.950 . S
C704 H696 0.950 . S
C704 C705 1.386 . S
C704 C706 1.391 . S
C705 C704 1.386 . S
C705 C709 1.393 1_455 S
C706 H698 0.950 . S
C706 C704 1.391 . S
C706 C707 1.400 . S
C707 C706 1.400 . S
C707 C708 1.398 1_455 S
C707 C713 1.491 . S
C708 H699 0.950 . S
C708 C707 1.398 1_655 S
C708 C709 1.391 . S
C709 H697 0.950 . S
C709 C705 1.393 1_655 S
C709 C708 1.391 . S
C710 H700 0.950 . S
C710 C711 1.397 . S
C710 C712 1.391 . S
C711 C710 1.397 . S
C711 C715 1.386 1_655 S
C712 H701 0.950 . S
C712 C710 1.391 . S
C712 C713 1.400 1_655 S
C713 C707 1.491 . S
C713 C712 1.400 1_455 S
C713 C714 1.398 . S
C714 H702 0.950 . S
C714 C713 1.398 . S
C714 C715 1.391 . S
C715 H703 0.950 . S
C715 C711 1.386 1_455 S
C715 C714 1.391 . S
H716 C724 0.950 . S
H717 C729 0.950 . S
H718 C726 0.950 . S
H719 C728 0.950 . S
H720 C730 0.950 . S
H721 C732 0.950 . S
H722 C734 0.950 . S
H723 C735 0.950 . S
C724 H716 0.950 . S
C724 C725 1.386 . S
C724 C726 1.391 . S
C725 C724 1.386 . S
C725 C729 1.393 . S
C726 H718 0.950 . S
C726 C724 1.391 . S
C726 C727 1.400 . S
C727 C726 1.400 . S
C727 C728 1.398 . S
C727 C733 1.491 . S
C728 H719 0.950 . S
C728 C727 1.398 . S
C728 C729 1.391 . S
C729 H717 0.950 . S
C729 C725 1.393 . S
C729 C728 1.391 . S
C730 H720 0.950 . S
C730 C731 1.386 . S
C730 C732 1.391 . S
C731 C730 1.386 . S
C731 C735 1.393 . S
C732 H721 0.950 . S
C732 C730 1.391 . S
C732 C733 1.400 . S
C733 C727 1.491 . S
C733 C732 1.400 . S
C733 C734 1.398 . S
C734 H722 0.950 . S
C734 C733 1.398 . S
C734 C735 1.391 . S
C735 H723 0.950 . S
C735 C731 1.393 . S
C735 C734 1.391 . S
H736 C744 0.950 . S
H737 C749 0.950 . S
H738 C746 0.950 . S
H739 C748 0.950 . S
H740 C750 0.950 . S
H741 C752 0.950 . S
H742 C754 0.950 . S
H743 C755 0.950 . S
C744 H736 0.950 . S
C744 C745 1.374 . S
C744 C746 1.391 . S
C745 C744 1.374 . S
C745 C749 1.389 1_565 S
C746 H738 0.950 . S
C746 C744 1.391 . S
C746 C747 1.401 . S
C747 C746 1.401 . S
C747 C748 1.401 1_565 S
C747 C753 1.502 . S
C748 H739 0.950 . S
C748 C747 1.401 1_545 S
C748 C749 1.391 . S
C749 H737 0.950 . S
C749 C745 1.389 1_545 S
C749 C748 1.391 . S
C750 H740 0.950 . S
C750 C751 1.389 1_545 S
C750 C752 1.391 . S
C751 C750 1.389 1_565 S
C751 C755 1.394 . S
C752 H741 0.950 . S
C752 C750 1.391 . S
C752 C753 1.396 1_545 S
C753 C747 1.502 . S
C753 C752 1.396 1_565 S
C753 C754 1.388 . S
C754 H742 0.950 . S
C754 C753 1.388 . S
C754 C755 1.391 . S
C755 H743 0.950 . S
C755 C751 1.394 . S
C755 C754 1.391 . S
H756 C764 0.950 . S
H757 C769 0.950 . S
H758 C766 0.950 . S
H759 C768 0.950 . S
H760 C770 0.950 . S
H761 C772 0.950 . S
H762 C774 0.950 . S
H763 C775 0.950 . S
C764 H756 0.950 . S
C764 C765 1.386 . S
C764 C766 1.391 . S
C765 C764 1.386 . S
C765 C769 1.393 1_545 S
C766 H758 0.950 . S
C766 C764 1.391 . S
C766 C767 1.400 . S
C767 C766 1.400 . S
C767 C768 1.398 1_545 S
C767 C773 1.476 . S
C768 H759 0.950 . S
C768 C767 1.398 1_565 S
C768 C769 1.391 . S
C769 H757 0.950 . S
C769 C765 1.393 1_565 S
C769 C768 1.391 . S
C770 H760 0.950 . S
C770 C771 1.423 . S
C770 C772 1.391 . S
C771 C770 1.423 . S
C771 C775 1.376 1_565 S
C772 H761 0.950 . S
C772 C770 1.391 . S
C772 C773 1.386 1_565 S
C773 C767 1.476 . S
C773 C772 1.386 1_545 S
C773 C774 1.428 . S
C774 H762 0.950 . S
C774 C773 1.428 . S
C774 C775 1.391 . S
C775 H763 0.950 . S
C775 C771 1.376 1_545 S
C775 C774 1.391 . S
H776 C784 0.950 . S
H777 C789 0.950 . S
H778 C786 0.950 . S
H779 C788 0.950 . S
H780 C790 0.950 . S
H781 C792 0.950 . S
H782 C794 0.950 . S
H783 C795 0.950 . S
C784 H776 0.950 . S
C784 C785 1.386 1_455 S
C784 C786 1.391 . S
C785 C784 1.386 1_655 S
C785 C789 1.393 . S
C786 H778 0.950 . S
C786 C784 1.391 . S
C786 C787 1.376 1_455 S
C787 C786 1.376 1_655 S
C787 C788 1.444 . S
C787 C793 1.479 . S
C788 H779 0.950 . S
C788 C787 1.444 . S
C788 C789 1.391 . S
C789 H777 0.950 . S
C789 C785 1.393 . S
C789 C788 1.391 . S
C790 H780 0.950 . S
C790 C791 1.366 1_655 S
C790 C792 1.391 . S
C791 C790 1.366 1_455 S
C791 C795 1.404 . S
C792 H781 0.950 . S
C792 C790 1.391 . S
C792 C793 1.411 . S
C793 C787 1.479 . S
C793 C792 1.411 . S
C793 C794 1.379 1_655 S
C794 H782 0.950 . S
C794 C793 1.379 1_455 S
C794 C795 1.391 . S
C795 H783 0.950 . S
C795 C791 1.404 . S
C795 C794 1.391 . S
H796 C804 0.950 . S
H797 C809 0.950 . S
H798 C806 0.950 . S
H799 C808 0.950 . S
H800 C810 0.950 . S
H801 C812 0.950 . S
H802 C814 0.950 . S
H803 C815 0.950 . S
C804 H796 0.950 . S
C804 C805 1.386 . S
C804 C806 1.391 . S
C805 C804 1.386 . S
C805 C809 1.393 . S
C806 H798 0.950 . S
C806 C804 1.391 . S
C806 C807 1.400 . S
C807 C806 1.400 . S
C807 C808 1.398 . S
C807 C813 1.491 . S
C808 H799 0.950 . S
C808 C807 1.398 . S
C808 C809 1.391 . S
C809 H797 0.950 . S
C809 C805 1.393 . S
C809 C808 1.391 . S
C810 H800 0.950 . S
C810 C811 1.386 . S
C810 C812 1.391 . S
C811 C810 1.386 . S
C811 C815 1.393 . S
C812 H801 0.950 . S
C812 C810 1.391 . S
C812 C813 1.400 . S
C813 C807 1.491 . S
C813 C812 1.400 . S
C813 C814 1.398 . S
C814 H802 0.950 . S
C814 C813 1.398 . S
C814 C815 1.391 . S
C815 H803 0.950 . S
C815 C811 1.393 . S
C815 C814 1.391 . S
H816 C824 0.950 . S
H817 C829 0.950 . S
H818 C826 0.950 . S
H819 C828 0.950 . S
H820 C830 0.950 . S
H821 C832 0.950 . S
H822 C834 0.950 . S
H823 C835 0.950 . S
C824 H816 0.950 . S
C824 C825 1.386 . S
C824 C826 1.391 . S
C825 C824 1.386 . S
C825 C829 1.393 . S
C826 H818 0.950 . S
C826 C824 1.391 . S
C826 C827 1.400 . S
C827 C826 1.400 . S
C827 C828 1.398 . S
C827 C833 1.491 . S
C828 H819 0.950 . S
C828 C827 1.398 . S
C828 C829 1.391 . S
C829 H817 0.950 . S
C829 C825 1.393 . S
C829 C828 1.391 . S
C830 H820 0.950 . S
C830 C831 1.386 . S
C830 C832 1.391 . S
C831 C830 1.386 . S
C831 C835 1.393 . S
C832 H821 0.950 . S
C832 C830 1.391 . S
C832 C833 1.400 . S
C833 C827 1.491 . S
C833 C832 1.400 . S
C833 C834 1.398 . S
C834 H822 0.950 . S
C834 C833 1.398 . S
C834 C835 1.391 . S
C835 H823 0.950 . S
C835 C831 1.393 . S
C835 C834 1.391 . S
H836 C844 0.950 . S
H837 C849 0.950 . S
H838 C846 0.950 . S
H839 C848 0.950 . S
H840 C850 0.950 . S
H841 C852 0.950 . S
H842 C854 0.950 . S
H843 C855 0.950 . S
C844 H836 0.950 . S
C844 C845 1.386 . S
C844 C846 1.391 . S
C845 C844 1.386 . S
C845 C849 1.393 . S
C846 H838 0.950 . S
C846 C844 1.391 . S
C846 C847 1.400 . S
C847 C846 1.400 . S
C847 C848 1.398 . S
C847 C853 1.491 . S
C848 H839 0.950 . S
C848 C847 1.398 . S
C848 C849 1.391 . S
C849 H837 0.950 . S
C849 C845 1.393 . S
C849 C848 1.391 . S
C850 H840 0.950 . S
C850 C851 1.386 . S
C850 C852 1.391 . S
C851 C850 1.386 . S
C851 C855 1.393 . S
C852 H841 0.950 . S
C852 C850 1.391 . S
C852 C853 1.400 . S
C853 C847 1.491 . S
C853 C852 1.400 . S
C853 C854 1.398 . S
C854 H842 0.950 . S
C854 C853 1.398 . S
C854 C855 1.391 . S
C855 H843 0.950 . S
C855 C851 1.393 . S
C855 C854 1.391 . S
H856 C864 0.950 . S
H857 C869 0.950 . S
H858 C866 0.950 . S
H859 C868 0.950 . S
H860 C870 0.950 . S
H861 C872 0.950 . S
H862 C874 0.950 . S
H863 C875 0.950 . S
C864 H856 0.950 . S
C864 C865 1.386 . S
C864 C866 1.391 . S
C865 C864 1.386 . S
C865 C869 1.393 . S
C866 H858 0.950 . S
C866 C864 1.391 . S
C866 C867 1.400 . S
C867 C866 1.400 . S
C867 C868 1.398 . S
C867 C873 1.491 . S
C868 H859 0.950 . S
C868 C867 1.398 . S
C868 C869 1.391 . S
C869 H857 0.950 . S
C869 C865 1.393 . S
C869 C868 1.391 . S
C870 H860 0.950 . S
C870 C871 1.386 . S
C870 C872 1.391 . S
C871 C870 1.386 . S
C871 C875 1.393 . S
C872 H861 0.950 . S
C872 C870 1.391 . S
C872 C873 1.400 . S
C873 C867 1.491 . S
C873 C872 1.400 . S
C873 C874 1.398 . S
C874 H862 0.950 . S
C874 C873 1.398 . S
C874 C875 1.391 . S
C875 H863 0.950 . S
C875 C871 1.393 . S
C875 C874 1.391 . S
H876 C884 0.950 . S
H877 C889 0.950 . S
H878 C886 0.950 . S
H879 C888 0.950 . S
H880 C890 0.950 . S
H881 C892 0.950 . S
H882 C894 0.950 . S
H883 C895 0.950 . S
C884 H876 0.950 . S
C884 C885 1.386 . S
C884 C886 1.391 . S
C885 C884 1.386 . S
C885 C889 1.393 . S
C886 H878 0.950 . S
C886 C884 1.391 . S
C886 C887 1.400 . S
C887 C886 1.400 . S
C887 C888 1.398 . S
C887 C893 1.491 . S
C888 H879 0.950 . S
C888 C887 1.398 . S
C888 C889 1.391 . S
C889 H877 0.950 . S
C889 C885 1.393 . S
C889 C888 1.391 . S
C890 H880 0.950 . S
C890 C891 1.386 . S
C890 C892 1.391 . S
C891 C890 1.386 . S
C891 C895 1.393 . S
C892 H881 0.950 . S
C892 C890 1.391 . S
C892 C893 1.400 . S
C893 C887 1.491 . S
C893 C892 1.400 . S
C893 C894 1.398 . S
C894 H882 0.950 . S
C894 C893 1.398 . S
C894 C895 1.391 . S
C895 H883 0.950 . S
C895 C891 1.393 . S
C895 C894 1.391 . S
H896 C904 0.950 . S
H897 C909 0.950 . S
H898 C906 0.950 . S
H899 C908 0.950 . S
H900 C910 0.950 . S
H901 C912 0.950 . S
H902 C914 0.950 . S
H903 C915 0.950 . S
C904 H896 0.950 . S
C904 C905 1.386 . S
C904 C906 1.391 . S
C905 C904 1.386 . S
C905 C909 1.393 . S
C906 H898 0.950 . S
C906 C904 1.391 . S
C906 C907 1.400 . S
C907 C906 1.400 . S
C907 C908 1.398 . S
C907 C913 1.491 . S
C908 H899 0.950 . S
C908 C907 1.398 . S
C908 C909 1.391 . S
C909 H897 0.950 . S
C909 C905 1.393 . S
C909 C908 1.391 . S
C910 H900 0.950 . S
C910 C911 1.386 . S
C910 C912 1.391 . S
C911 C910 1.386 . S
C911 C915 1.393 . S
C912 H901 0.950 . S
C912 C910 1.391 . S
C912 C913 1.400 . S
C913 C907 1.491 . S
C913 C912 1.400 . S
C913 C914 1.398 . S
C914 H902 0.950 . S
C914 C913 1.398 . S
C914 C915 1.391 . S
C915 H903 0.950 . S
C915 C911 1.393 . S
C915 C914 1.391 . S
H916 C924 0.950 . S
H917 C929 0.950 . S
H918 C926 0.950 . S
H919 C928 0.950 . S
H920 C930 0.950 . S
H921 C932 0.950 . S
H922 C934 0.950 . S
H923 C935 0.950 . S
C924 H916 0.950 . S
C924 C925 1.386 . S
C924 C926 1.391 . S
C925 C924 1.386 . S
C925 C929 1.393 . S
C926 H918 0.950 . S
C926 C924 1.391 . S
C926 C927 1.400 . S
C927 C926 1.400 . S
C927 C928 1.398 . S
C927 C933 1.491 . S
C928 H919 0.950 . S
C928 C927 1.398 . S
C928 C929 1.391 . S
C929 H917 0.950 . S
C929 C925 1.393 . S
C929 C928 1.391 . S
C930 H920 0.950 . S
C930 C931 1.386 . S
C930 C932 1.391 . S
C931 C930 1.386 . S
C931 C935 1.393 . S
C932 H921 0.950 . S
C932 C930 1.391 . S
C932 C933 1.400 . S
C933 C927 1.491 . S
C933 C932 1.400 . S
C933 C934 1.398 . S
C934 H922 0.950 . S
C934 C933 1.398 . S
C934 C935 1.391 . S
C935 H923 0.950 . S
C935 C931 1.393 . S
C935 C934 1.391 . S
H936 C944 0.950 . S
H937 C949 0.950 . S
H938 C946 0.950 . S
H939 C948 0.950 . S
H940 C950 0.950 . S
H941 C952 0.950 . S
H942 C954 0.950 . S
H943 C955 0.950 . S
C944 H936 0.950 . S
C944 C945 1.386 . S
C944 C946 1.391 . S
C945 C944 1.386 . S
C945 C949 1.393 . S
C946 H938 0.950 . S
C946 C944 1.391 . S
C946 C947 1.400 . S
C947 C946 1.400 . S
C947 C948 1.398 . S
C947 C953 1.491 . S
C948 H939 0.950 . S
C948 C947 1.398 . S
C948 C949 1.391 . S
C949 H937 0.950 . S
C949 C945 1.393 . S
C949 C948 1.391 . S
C950 H940 0.950 . S
C950 C951 1.386 . S
C950 C952 1.391 . S
C951 C950 1.386 . S
C951 C955 1.393 . S
C952 H941 0.950 . S
C952 C950 1.391 . S
C952 C953 1.400 . S
C953 C947 1.491 . S
C953 C952 1.400 . S
C953 C954 1.398 . S
C954 H942 0.950 . S
C954 C953 1.398 . S
C954 C955 1.391 . S
C955 H943 0.950 . S
C955 C951 1.393 . S
C955 C954 1.391 . S
H956 C964 0.950 . S
H957 C969 0.950 . S
H958 C966 0.950 . S
H959 C968 0.950 . S
H960 C970 0.950 . S
H961 C972 0.950 . S
H962 C974 0.950 . S
H963 C975 0.950 . S
C964 H956 0.950 . S
C964 C965 1.386 . S
C964 C966 1.391 . S
C965 C964 1.386 . S
C965 C969 1.393 . S
C966 H958 0.950 . S
C966 C964 1.391 . S
C966 C967 1.400 . S
C967 C966 1.400 . S
C967 C968 1.398 . S
C967 C973 1.491 . S
C968 H959 0.950 . S
C968 C967 1.398 . S
C968 C969 1.391 . S
C969 H957 0.950 . S
C969 C965 1.393 . S
C969 C968 1.391 . S
C970 H960 0.950 . S
C970 C971 1.386 . S
C970 C972 1.391 . S
C971 C970 1.386 . S
C971 C975 1.393 . S
C972 H961 0.950 . S
C972 C970 1.391 . S
C972 C973 1.400 . S
C973 C967 1.491 . S
C973 C972 1.400 . S
C973 C974 1.398 . S
C974 H962 0.950 . S
C974 C973 1.398 . S
C974 C975 1.391 . S
C975 H963 0.950 . S
C975 C971 1.393 . S
C975 C974 1.391 . S
H976 C984 0.950 . S
H977 C989 0.950 . S
H978 C986 0.950 . S
H979 C988 0.950 . S
H980 C990 0.950 . S
H981 C992 0.950 . S
H982 C994 0.950 . S
H983 C995 0.950 . S
C984 H976 0.950 . S
C984 C985 1.386 . S
C984 C986 1.391 . S
C985 C984 1.386 . S
C985 C989 1.393 . S
C986 H978 0.950 . S
C986 C984 1.391 . S
C986 C987 1.400 . S
C987 C986 1.400 . S
C987 C988 1.398 . S
C987 C993 1.491 . S
C988 H979 0.950 . S
C988 C987 1.398 . S
C988 C989 1.391 . S
C989 H977 0.950 . S
C989 C985 1.393 . S
C989 C988 1.391 . S
C990 H980 0.950 . S
C990 C991 1.386 . S
C990 C992 1.391 . S
C991 C990 1.386 . S
C991 C995 1.393 . S
C992 H981 0.950 . S
C992 C990 1.391 . S
C992 C993 1.400 . S
C993 C987 1.491 . S
C993 C992 1.400 . S
C993 C994 1.398 . S
C994 H982 0.950 . S
C994 C993 1.398 . S
C994 C995 1.391 . S
C995 H983 0.950 . S
C995 C991 1.393 . S
C995 C994 1.391 . S
H996 C1004 0.950 . S
H997 C1009 0.950 . S
H998 C1006 0.950 . S
H999 C1008 0.950 . S
H1000 C1010 0.950 . S
H1001 C1012 0.950 . S
H1002 C1014 0.950 . S
H1003 C1015 0.950 . S
C1004 H996 0.950 . S
C1004 C1005 1.386 . S
C1004 C1006 1.391 . S
C1005 C1004 1.386 . S
C1005 C1009 1.393 . S
C1006 H998 0.950 . S
C1006 C1004 1.391 . S
C1006 C1007 1.400 . S
C1007 C1006 1.400 . S
C1007 C1008 1.398 . S
C1007 C1013 1.491 . S
C1008 H999 0.950 . S
C1008 C1007 1.398 . S
C1008 C1009 1.391 . S
C1009 H997 0.950 . S
C1009 C1005 1.393 . S
C1009 C1008 1.391 . S
C1010 H1000 0.950 . S
C1010 C1011 1.386 . S
C1010 C1012 1.391 . S
C1011 C1010 1.386 . S
C1011 C1015 1.393 . S
C1012 H1001 0.950 . S
C1012 C1010 1.391 . S
C1012 C1013 1.400 . S
C1013 C1007 1.491 . S
C1013 C1012 1.400 . S
C1013 C1014 1.398 . S
C1014 H1002 0.950 . S
C1014 C1013 1.398 . S
C1014 C1015 1.391 . S
C1015 H1003 0.950 . S
C1015 C1011 1.393 . S
C1015 C1014 1.391 . S
H1016 C1024 0.950 . S
H1017 C1029 0.950 . S
H1018 C1026 0.950 . S
H1019 C1028 0.950 . S
H1020 C1030 0.950 . S
H1021 C1032 0.950 . S
H1022 C1034 0.950 . S
H1023 C1035 0.950 . S
C1024 H1016 0.950 . S
C1024 C1025 1.386 . S
C1024 C1026 1.391 . S
C1025 C1024 1.386 . S
C1025 C1029 1.393 . S
C1026 H1018 0.950 . S
C1026 C1024 1.391 . S
C1026 C1027 1.400 . S
C1027 C1026 1.400 . S
C1027 C1028 1.398 . S
C1027 C1033 1.491 . S
C1028 H1019 0.950 . S
C1028 C1027 1.398 . S
C1028 C1029 1.391 . S
C1029 H1017 0.950 . S
C1029 C1025 1.393 . S
C1029 C1028 1.391 . S
C1030 H1020 0.950 . S
C1030 C1031 1.386 . S
C1030 C1032 1.391 . S
C1031 C1030 1.386 . S
C1031 C1035 1.393 . S
C1032 H1021 0.950 . S
C1032 C1030 1.391 . S
C1032 C1033 1.400 . S
C1033 C1027 1.491 . S
C1033 C1032 1.400 . S
C1033 C1034 1.398 . S
C1034 H1022 0.950 . S
C1034 C1033 1.398 . S
C1034 C1035 1.391 . S
C1035 H1023 0.950 . S
C1035 C1031 1.393 . S
C1035 C1034 1.391 . S
H1036 C1044 0.950 . S
H1037 C1049 0.950 . S
H1038 C1046 0.950 . S
H1039 C1048 0.950 . S
H1040 C1050 0.950 . S
H1041 C1052 0.950 . S
H1042 C1054 0.950 . S
H1043 C1055 0.950 . S
C1044 H1036 0.950 . S
C1044 C1045 1.386 . S
C1044 C1046 1.391 . S
C1045 C1044 1.386 . S
C1045 C1049 1.393 . S
C1046 H1038 0.950 . S
C1046 C1044 1.391 . S
C1046 C1047 1.400 . S
C1047 C1046 1.400 . S
C1047 C1048 1.398 . S
C1047 C1053 1.491 . S
C1048 H1039 0.950 . S
C1048 C1047 1.398 . S
C1048 C1049 1.391 . S
C1049 H1037 0.950 . S
C1049 C1045 1.393 . S
C1049 C1048 1.391 . S
C1050 H1040 0.950 . S
C1050 C1051 1.386 . S
C1050 C1052 1.391 . S
C1051 C1050 1.386 . S
C1051 C1055 1.393 . S
C1052 H1041 0.950 . S
C1052 C1050 1.391 . S
C1052 C1053 1.400 . S
C1053 C1047 1.491 . S
C1053 C1052 1.400 . S
C1053 C1054 1.398 . S
C1054 H1042 0.950 . S
C1054 C1053 1.398 . S
C1054 C1055 1.391 . S
C1055 H1043 0.950 . S
C1055 C1051 1.393 . S
C1055 C1054 1.391 . S
H1056 C1064 0.950 . S
H1057 C1069 0.950 . S
H1058 C1066 0.950 . S
H1059 C1068 0.950 . S
H1060 C1070 0.950 . S
H1061 C1072 0.950 . S
H1062 C1074 0.950 . S
H1063 C1075 0.950 . S
C1064 H1056 0.950 . S
C1064 C1065 1.386 . S
C1064 C1066 1.391 . S
C1065 C1064 1.386 . S
C1065 C1069 1.393 . S
C1066 H1058 0.950 . S
C1066 C1064 1.391 . S
C1066 C1067 1.400 . S
C1067 C1066 1.400 . S
C1067 C1068 1.398 . S
C1067 C1073 1.491 . S
C1068 H1059 0.950 . S
C1068 C1067 1.398 . S
C1068 C1069 1.391 . S
C1069 H1057 0.950 . S
C1069 C1065 1.393 . S
C1069 C1068 1.391 . S
C1070 H1060 0.950 . S
C1070 C1071 1.386 . S
C1070 C1072 1.391 . S
C1071 C1070 1.386 . S
C1071 C1075 1.393 . S
C1072 H1061 0.950 . S
C1072 C1070 1.391 . S
C1072 C1073 1.400 . S
C1073 C1067 1.491 . S
C1073 C1072 1.400 . S
C1073 C1074 1.398 . S
C1074 H1062 0.950 . S
C1074 C1073 1.398 . S
C1074 C1075 1.391 . S
C1075 H1063 0.950 . S
C1075 C1071 1.393 . S
C1075 C1074 1.391 . S
H1076 C1084 0.950 . S
H1077 C1089 0.950 . S
H1078 C1086 0.950 . S
H1079 C1088 0.950 . S
H1080 C1090 0.950 . S
H1081 C1092 0.950 . S
H1082 C1094 0.950 . S
H1083 C1095 0.950 . S
C1084 H1076 0.950 . S
C1084 C1085 1.386 . S
C1084 C1086 1.391 . S
C1085 C1084 1.386 . S
C1085 C1089 1.393 . S
C1086 H1078 0.950 . S
C1086 C1084 1.391 . S
C1086 C1087 1.400 . S
C1087 C1086 1.400 . S
C1087 C1088 1.398 . S
C1087 C1093 1.491 . S
C1088 H1079 0.950 . S
C1088 C1087 1.398 . S
C1088 C1089 1.391 . S
C1089 H1077 0.950 . S
C1089 C1085 1.393 . S
C1089 C1088 1.391 . S
C1090 H1080 0.950 . S
C1090 C1091 1.386 . S
C1090 C1092 1.391 . S
C1091 C1090 1.386 . S
C1091 C1095 1.393 . S
C1092 H1081 0.950 . S
C1092 C1090 1.391 . S
C1092 C1093 1.400 . S
C1093 C1087 1.491 . S
C1093 C1092 1.400 . S
C1093 C1094 1.398 . S
C1094 H1082 0.950 . S
C1094 C1093 1.398 . S
C1094 C1095 1.391 . S
C1095 H1083 0.950 . S
C1095 C1091 1.393 . S
C1095 C1094 1.391 . S
H1096 C1104 0.950 . S
H1097 C1109 0.950 . S
H1098 C1106 0.950 . S
H1099 C1108 0.950 . S
H1100 C1110 0.950 . S
H1101 C1112 0.950 . S
H1102 C1114 0.950 . S
H1103 C1115 0.950 . S
C1104 H1096 0.950 . S
C1104 C1105 1.386 . S
C1104 C1106 1.391 . S
C1105 C1104 1.386 . S
C1105 C1109 1.393 . S
C1106 H1098 0.950 . S
C1106 C1104 1.391 . S
C1106 C1107 1.400 . S
C1107 C1106 1.400 . S
C1107 C1108 1.398 . S
C1107 C1113 1.491 . S
C1108 H1099 0.950 . S
C1108 C1107 1.398 . S
C1108 C1109 1.391 . S
C1109 H1097 0.950 . S
C1109 C1105 1.393 . S
C1109 C1108 1.391 . S
C1110 H1100 0.950 . S
C1110 C1111 1.386 . S
C1110 C1112 1.391 . S
C1111 C1110 1.386 . S
C1111 C1115 1.393 . S
C1112 H1101 0.950 . S
C1112 C1110 1.391 . S
C1112 C1113 1.400 . S
C1113 C1107 1.491 . S
C1113 C1112 1.400 . S
C1113 C1114 1.398 . S
C1114 H1102 0.950 . S
C1114 C1113 1.398 . S
C1114 C1115 1.391 . S
C1115 H1103 0.950 . S
C1115 C1111 1.393 . S
C1115 C1114 1.391 . S
H1116 C1124 0.950 . S
H1117 C1129 0.950 . S
H1118 C1126 0.950 . S
H1119 C1128 0.950 . S
H1120 C1130 0.950 . S
H1121 C1132 0.950 . S
H1122 C1134 0.950 . S
H1123 C1135 0.950 . S
C1124 H1116 0.950 . S
C1124 C1125 1.386 . S
C1124 C1126 1.391 . S
C1125 C1124 1.386 . S
C1125 C1129 1.393 . S
C1126 H1118 0.950 . S
C1126 C1124 1.391 . S
C1126 C1127 1.400 . S
C1127 C1126 1.400 . S
C1127 C1128 1.398 . S
C1127 C1133 1.491 . S
C1128 H1119 0.950 . S
C1128 C1127 1.398 . S
C1128 C1129 1.391 . S
C1129 H1117 0.950 . S
C1129 C1125 1.393 . S
C1129 C1128 1.391 . S
C1130 H1120 0.950 . S
C1130 C1131 1.386 . S
C1130 C1132 1.391 . S
C1131 C1130 1.386 . S
C1131 C1135 1.393 . S
C1132 H1121 0.950 . S
C1132 C1130 1.391 . S
C1132 C1133 1.400 . S
C1133 C1127 1.491 . S
C1133 C1132 1.400 . S
C1133 C1134 1.398 . S
C1134 H1122 0.950 . S
C1134 C1133 1.398 . S
C1134 C1135 1.391 . S
C1135 H1123 0.950 . S
C1135 C1131 1.393 . S
C1135 C1134 1.391 . S
H1136 C1144 0.950 . S
H1137 C1149 0.950 . S
H1138 C1146 0.950 . S
H1139 C1148 0.950 . S
H1140 C1150 0.950 . S
H1141 C1152 0.950 . S
H1142 C1154 0.950 . S
H1143 C1155 0.950 . S
C1144 H1136 0.950 . S
C1144 C1145 1.386 . S
C1144 C1146 1.391 . S
C1145 C1144 1.386 . S
C1145 C1149 1.393 . S
C1146 H1138 0.950 . S
C1146 C1144 1.391 . S
C1146 C1147 1.400 . S
C1147 C1146 1.400 . S
C1147 C1148 1.398 . S
C1147 C1153 1.491 . S
C1148 H1139 0.950 . S
C1148 C1147 1.398 . S
C1148 C1149 1.391 . S
C1149 H1137 0.950 . S
C1149 C1145 1.393 . S
C1149 C1148 1.391 . S
C1150 H1140 0.950 . S
C1150 C1151 1.386 . S
C1150 C1152 1.391 . S
C1151 C1150 1.386 . S
C1151 C1155 1.393 . S
C1152 H1141 0.950 . S
C1152 C1150 1.391 . S
C1152 C1153 1.400 . S
C1153 C1147 1.491 . S
C1153 C1152 1.400 . S
C1153 C1154 1.398 . S
C1154 H1142 0.950 . S
C1154 C1153 1.398 . S
C1154 C1155 1.391 . S
C1155 H1143 0.950 . S
C1155 C1151 1.393 . S
C1155 C1154 1.391 . S
H1156 C1164 0.950 . S
H1157 C1169 0.950 . S
H1158 C1166 0.950 . S
H1159 C1168 0.950 . S
H1160 C1170 0.950 . S
H1161 C1172 0.950 . S
H1162 C1174 0.950 . S
H1163 C1175 0.950 . S
C1164 H1156 0.950 . S
C1164 C1165 1.386 . S
C1164 C1166 1.391 . S
C1165 C1164 1.386 . S
C1165 C1169 1.393 . S
C1166 H1158 0.950 . S
C1166 C1164 1.391 . S
C1166 C1167 1.400 . S
C1167 C1166 1.400 . S
C1167 C1168 1.398 . S
C1167 C1173 1.491 . S
C1168 H1159 0.950 . S
C1168 C1167 1.398 . S
C1168 C1169 1.391 . S
C1169 H1157 0.950 . S
C1169 C1165 1.393 . S
C1169 C1168 1.391 . S
C1170 H1160 0.950 . S
C1170 C1171 1.386 . S
C1170 C1172 1.391 . S
C1171 C1170 1.386 . S
C1171 C1175 1.393 . S
C1172 H1161 0.950 . S
C1172 C1170 1.391 . S
C1172 C1173 1.400 . S
C1173 C1167 1.491 . S
C1173 C1172 1.400 . S
C1173 C1174 1.398 . S
C1174 H1162 0.950 . S
C1174 C1173 1.398 . S
C1174 C1175 1.391 . S
C1175 H1163 0.950 . S
C1175 C1171 1.393 . S
C1175 C1174 1.391 . S
H1176 C1184 0.950 . S
H1177 C1189 0.950 . S
H1178 C1186 0.950 . S
H1179 C1188 0.950 . S
H1180 C1190 0.950 . S
H1181 C1192 0.950 . S
H1182 C1194 0.950 . S
H1183 C1195 0.950 . S
C1184 H1176 0.950 . S
C1184 C1185 1.386 . S
C1184 C1186 1.391 . S
C1185 C1184 1.386 . S
C1185 C1189 1.393 . S
C1186 H1178 0.950 . S
C1186 C1184 1.391 . S
C1186 C1187 1.400 . S
C1187 C1186 1.400 . S
C1187 C1188 1.398 . S
C1187 C1193 1.491 . S
C1188 H1179 0.950 . S
C1188 C1187 1.398 . S
C1188 C1189 1.391 . S
C1189 H1177 0.950 . S
C1189 C1185 1.393 . S
C1189 C1188 1.391 . S
C1190 H1180 0.950 . S
C1190 C1191 1.386 . S
C1190 C1192 1.391 . S
C1191 C1190 1.386 . S
C1191 C1195 1.393 . S
C1192 H1181 0.950 . S
C1192 C1190 1.391 . S
C1192 C1193 1.400 . S
C1193 C1187 1.491 . S
C1193 C1192 1.400 . S
C1193 C1194 1.398 . S
C1194 H1182 0.950 . S
C1194 C1193 1.398 . S
C1194 C1195 1.391 . S
C1195 H1183 0.950 . S
C1195 C1191 1.393 . S
C1195 C1194 1.391 . S
H1196 C1204 0.950 . S
H1197 C1209 0.950 . S
H1198 C1206 0.950 . S
H1199 C1208 0.950 . S
H1200 C1210 0.950 . S
H1201 C1212 0.950 . S
H1202 C1214 0.950 . S
H1203 C1215 0.950 . S
C1204 H1196 0.950 . S
C1204 C1205 1.386 . S
C1204 C1206 1.391 . S
C1205 C1204 1.386 . S
C1205 C1209 1.393 . S
C1206 H1198 0.950 . S
C1206 C1204 1.391 . S
C1206 C1207 1.400 . S
C1207 C1206 1.400 . S
C1207 C1208 1.398 . S
C1207 C1213 1.491 . S
C1208 H1199 0.950 . S
C1208 C1207 1.398 . S
C1208 C1209 1.391 . S
C1209 H1197 0.950 . S
C1209 C1205 1.393 . S
C1209 C1208 1.391 . S
C1210 H1200 0.950 . S
C1210 C1211 1.386 . S
C1210 C1212 1.391 . S
C1211 C1210 1.386 . S
C1211 C1215 1.393 . S
C1212 H1201 0.950 . S
C1212 C1210 1.391 . S
C1212 C1213 1.400 . S
C1213 C1207 1.491 . S
C1213 C1212 1.400 . S
C1213 C1214 1.398 . S
C1214 H1202 0.950 . S
C1214 C1213 1.398 . S
C1214 C1215 1.391 . S
C1215 H1203 0.950 . S
C1215 C1211 1.393 . S
C1215 C1214 1.391 . S
H1216 C1224 0.950 . S
H1217 C1229 0.950 . S
H1218 C1226 0.950 . S
H1219 C1228 0.950 . S
H1220 C1230 0.950 . S
H1221 C1232 0.950 . S
H1222 C1234 0.950 . S
H1223 C1235 0.950 . S
C1224 H1216 0.950 . S
C1224 C1225 1.386 . S
C1224 C1226 1.391 . S
C1225 C1224 1.386 . S
C1225 C1229 1.393 . S
C1226 H1218 0.950 . S
C1226 C1224 1.391 . S
C1226 C1227 1.400 . S
C1227 C1226 1.400 . S
C1227 C1228 1.398 . S
C1227 C1233 1.491 . S
C1228 H1219 0.950 . S
C1228 C1227 1.398 . S
C1228 C1229 1.391 . S
C1229 H1217 0.950 . S
C1229 C1225 1.393 . S
C1229 C1228 1.391 . S
C1230 H1220 0.950 . S
C1230 C1231 1.386 . S
C1230 C1232 1.391 . S
C1231 C1230 1.386 . S
C1231 C1235 1.393 . S
C1232 H1221 0.950 . S
C1232 C1230 1.391 . S
C1232 C1233 1.400 . S
C1233 C1227 1.491 . S
C1233 C1232 1.400 . S
C1233 C1234 1.398 . S
C1234 H1222 0.950 . S
C1234 C1233 1.398 . S
C1234 C1235 1.391 . S
C1235 H1223 0.950 . S
C1235 C1231 1.393 . S
C1235 C1234 1.391 . S
H1236 C1244 0.950 . S
H1237 C1249 0.950 . S
H1238 C1246 0.950 . S
H1239 C1248 0.950 . S
H1240 C1250 0.950 . S
H1241 C1252 0.950 . S
H1242 C1254 0.950 . S
H1243 C1255 0.950 . S
C1244 H1236 0.950 . S
C1244 C1245 1.386 . S
C1244 C1246 1.391 . S
C1245 C1244 1.386 . S
C1245 C1249 1.393 . S
C1246 H1238 0.950 . S
C1246 C1244 1.391 . S
C1246 C1247 1.400 . S
C1247 C1246 1.400 . S
C1247 C1248 1.398 . S
C1247 C1253 1.491 . S
C1248 H1239 0.950 . S
C1248 C1247 1.398 . S
C1248 C1249 1.391 . S
C1249 H1237 0.950 . S
C1249 C1245 1.393 . S
C1249 C1248 1.391 . S
C1250 H1240 0.950 . S
C1250 C1251 1.386 . S
C1250 C1252 1.391 . S
C1251 C1250 1.386 . S
C1251 C1255 1.393 . S
C1252 H1241 0.950 . S
C1252 C1250 1.391 . S
C1252 C1253 1.400 . S
C1253 C1247 1.491 . S
C1253 C1252 1.400 . S
C1253 C1254 1.398 . S
C1254 H1242 0.950 . S
C1254 C1253 1.398 . S
C1254 C1255 1.391 . S
C1255 H1243 0.950 . S
C1255 C1251 1.393 . S
C1255 C1254 1.391 . S
H1256 C1264 0.950 . S
H1257 C1269 0.950 . S
H1258 C1266 0.950 . S
H1259 C1268 0.950 . S
H1260 C1270 0.950 . S
H1261 C1272 0.950 . S
H1262 C1274 0.950 . S
H1263 C1275 0.950 . S
C1264 H1256 0.950 . S
C1264 C1265 1.386 . S
C1264 C1266 1.391 . S
C1265 C1264 1.386 . S
C1265 C1269 1.393 . S
C1266 H1258 0.950 . S
C1266 C1264 1.391 . S
C1266 C1267 1.400 . S
C1267 C1266 1.400 . S
C1267 C1268 1.398 . S
C1267 C1273 1.491 . S
C1268 H1259 0.950 . S
C1268 C1267 1.398 . S
C1268 C1269 1.391 . S
C1269 H1257 0.950 . S
C1269 C1265 1.393 . S
C1269 C1268 1.391 . S
C1270 H1260 0.950 . S
C1270 C1271 1.386 . S
C1270 C1272 1.391 . S
C1271 C1270 1.386 . S
C1271 C1275 1.393 . S
C1272 H1261 0.950 . S
C1272 C1270 1.391 . S
C1272 C1273 1.400 . S
C1273 C1267 1.491 . S
C1273 C1272 1.400 . S
C1273 C1274 1.398 . S
C1274 H1262 0.950 . S
C1274 C1273 1.398 . S
C1274 C1275 1.391 . S
C1275 H1263 0.950 . S
C1275 C1271 1.393 . S
C1275 C1274 1.391 . S
H1276 C1284 0.950 . S
H1277 C1289 0.950 . S
H1278 C1286 0.950 . S
H1279 C1288 0.950 . S
H1280 C1290 0.950 . S
H1281 C1292 0.950 . S
H1282 C1294 0.950 . S
H1283 C1295 0.950 . S
C1284 H1276 0.950 . S
C1284 C1285 1.386 . S
C1284 C1286 1.391 . S
C1285 C1284 1.386 . S
C1285 C1289 1.393 . S
C1286 H1278 0.950 . S
C1286 C1284 1.391 . S
C1286 C1287 1.400 . S
C1287 C1286 1.400 . S
C1287 C1288 1.398 . S
C1287 C1293 1.491 . S
C1288 H1279 0.950 . S
C1288 C1287 1.398 . S
C1288 C1289 1.391 . S
C1289 H1277 0.950 . S
C1289 C1285 1.393 . S
C1289 C1288 1.391 . S
C1290 H1280 0.950 . S
C1290 C1291 1.386 . S
C1290 C1292 1.391 . S
C1291 C1290 1.386 . S
C1291 C1295 1.393 . S
C1292 H1281 0.950 . S
C1292 C1290 1.391 . S
C1292 C1293 1.400 . S
C1293 C1287 1.491 . S
C1293 C1292 1.400 . S
C1293 C1294 1.398 . S
C1294 H1282 0.950 . S
C1294 C1293 1.398 . S
C1294 C1295 1.391 . S
C1295 H1283 0.950 . S
C1295 C1291 1.393 . S
C1295 C1294 1.391 . S
H1296 C1304 0.950 . S
H1297 C1309 0.950 . S
H1298 C1306 0.950 . S
H1299 C1308 0.950 . S
H1300 C1310 0.950 . S
H1301 C1312 0.950 . S
H1302 C1314 0.950 . S
H1303 C1315 0.950 . S
C1304 H1296 0.950 . S
C1304 C1305 1.386 . S
C1304 C1306 1.391 . S
C1305 C1304 1.386 . S
C1305 C1309 1.393 . S
C1306 H1298 0.950 . S
C1306 C1304 1.391 . S
C1306 C1307 1.400 . S
C1307 C1306 1.400 . S
C1307 C1308 1.398 . S
C1307 C1313 1.491 . S
C1308 H1299 0.950 . S
C1308 C1307 1.398 . S
C1308 C1309 1.391 . S
C1309 H1297 0.950 . S
C1309 C1305 1.393 . S
C1309 C1308 1.391 . S
C1310 H1300 0.950 . S
C1310 C1311 1.386 . S
C1310 C1312 1.391 . S
C1311 C1310 1.386 . S
C1311 C1315 1.393 . S
C1312 H1301 0.950 . S
C1312 C1310 1.391 . S
C1312 C1313 1.400 . S
C1313 C1307 1.491 . S
C1313 C1312 1.400 . S
C1313 C1314 1.398 . S
C1314 H1302 0.950 . S
C1314 C1313 1.398 . S
C1314 C1315 1.391 . S
C1315 H1303 0.950 . S
C1315 C1311 1.393 . S
C1315 C1314 1.391 . S
H1316 C1324 0.950 . S
H1317 C1329 0.950 . S
H1318 C1326 0.950 . S
H1319 C1328 0.950 . S
H1320 C1330 0.950 . S
H1321 C1332 0.950 . S
H1322 C1334 0.950 . S
H1323 C1335 0.950 . S
C1324 H1316 0.950 . S
C1324 C1325 1.386 . S
C1324 C1326 1.391 . S
C1325 C1324 1.386 . S
C1325 C1329 1.393 . S
C1326 H1318 0.950 . S
C1326 C1324 1.391 . S
C1326 C1327 1.400 . S
C1327 C1326 1.400 . S
C1327 C1328 1.398 . S
C1327 C1333 1.491 . S
C1328 H1319 0.950 . S
C1328 C1327 1.398 . S
C1328 C1329 1.391 . S
C1329 H1317 0.950 . S
C1329 C1325 1.393 . S
C1329 C1328 1.391 . S
C1330 H1320 0.950 . S
C1330 C1331 1.386 . S
C1330 C1332 1.391 . S
C1331 C1330 1.386 . S
C1331 C1335 1.393 . S
C1332 H1321 0.950 . S
C1332 C1330 1.391 . S
C1332 C1333 1.400 . S
C1333 C1327 1.491 . S
C1333 C1332 1.400 . S
C1333 C1334 1.398 . S
C1334 H1322 0.950 . S
C1334 C1333 1.398 . S
C1334 C1335 1.391 . S
C1335 H1323 0.950 . S
C1335 C1331 1.393 . S
C1335 C1334 1.391 . S
H1336 C1344 0.950 . S
H1337 C1349 0.950 . S
H1338 C1346 0.950 . S
H1339 C1348 0.950 . S
H1340 C1350 0.950 . S
H1341 C1352 0.950 . S
H1342 C1354 0.950 . S
H1343 C1355 0.950 . S
C1344 H1336 0.950 . S
C1344 C1345 1.386 . S
C1344 C1346 1.391 . S
C1345 C1344 1.386 . S
C1345 C1349 1.393 . S
C1346 H1338 0.950 . S
C1346 C1344 1.391 . S
C1346 C1347 1.400 . S
C1347 C1346 1.400 . S
C1347 C1348 1.398 . S
C1347 C1353 1.491 . S
C1348 H1339 0.950 . S
C1348 C1347 1.398 . S
C1348 C1349 1.391 . S
C1349 H1337 0.950 . S
C1349 C1345 1.393 . S
C1349 C1348 1.391 . S
C1350 H1340 0.950 . S
C1350 C1351 1.386 . S
C1350 C1352 1.391 . S
C1351 C1350 1.386 . S
C1351 C1355 1.393 . S
C1352 H1341 0.950 . S
C1352 C1350 1.391 . S
C1352 C1353 1.400 . S
C1353 C1347 1.491 . S
C1353 C1352 1.400 . S
C1353 C1354 1.398 . S
C1354 H1342 0.950 . S
C1354 C1353 1.398 . S
C1354 C1355 1.391 . S
C1355 H1343 0.950 . S
C1355 C1351 1.393 . S
C1355 C1354 1.391 . S
H1356 C1364 0.950 . S
H1357 C1369 0.950 1_554 S
H1358 C1366 0.950 . S
H1359 C1368 0.950 . S
H1360 C1370 0.950 . S
H1361 C1372 0.950 . S
H1362 C1374 0.950 . S
H1363 C1375 0.950 . S
C1364 H1356 0.950 . S
C1364 C1365 1.386 . S
C1364 C1366 1.391 . S
C1365 C1364 1.386 . S
C1365 C1369 1.393 . S
C1366 H1358 0.950 . S
C1366 C1364 1.391 . S
C1366 C1367 1.400 . S
C1367 C1366 1.400 . S
C1367 C1368 1.398 . S
C1367 C1373 1.491 . S
C1368 H1359 0.950 . S
C1368 C1367 1.398 . S
C1368 C1369 1.391 . S
C1369 H1357 0.950 1_556 S
C1369 C1365 1.393 . S
C1369 C1368 1.391 . S
C1370 H1360 0.950 . S
C1370 C1371 1.386 . S
C1370 C1372 1.391 . S
C1371 C1370 1.386 . S
C1371 C1375 1.393 . S
C1372 H1361 0.950 . S
C1372 C1370 1.391 . S
C1372 C1373 1.400 . S
C1373 C1367 1.491 . S
C1373 C1372 1.400 . S
C1373 C1374 1.398 . S
C1374 H1362 0.950 . S
C1374 C1373 1.398 . S
C1374 C1375 1.391 . S
C1375 H1363 0.950 . S
C1375 C1371 1.393 . S
C1375 C1374 1.391 . S
H1376 C1384 0.950 . S
H1377 C1389 0.922 1_554 S
H1378 C1386 0.950 . S
H1379 C1388 0.973 . S
H1380 C1390 0.950 . S
H1381 C1392 0.950 . S
H1382 C1394 0.950 . S
H1383 C1395 0.950 . S
C1384 H1376 0.950 . S
C1384 C1385 1.386 . S
C1384 C1386 1.391 . S
C1385 C1384 1.386 . S
C1385 C1389 1.409 . S
C1386 H1378 0.950 . S
C1386 C1384 1.391 . S
C1386 C1387 1.400 . S
C1387 C1386 1.400 . S
C1387 C1388 1.398 . S
C1387 C1393 1.491 . S
C1388 H1379 0.973 . S
C1388 C1387 1.398 . S
C1388 C1389 1.403 . S
C1389 H1377 0.922 1_556 S
C1389 C1385 1.409 . S
C1389 C1388 1.403 . S
C1390 H1380 0.950 . S
C1390 C1391 1.386 . S
C1390 C1392 1.391 . S
C1391 C1390 1.386 . S
C1391 C1395 1.393 . S
C1392 H1381 0.950 . S
C1392 C1390 1.391 . S
C1392 C1393 1.400 . S
C1393 C1387 1.491 . S
C1393 C1392 1.400 . S
C1393 C1394 1.398 . S
C1394 H1382 0.950 . S
C1394 C1393 1.398 . S
C1394 C1395 1.391 . S
C1395 H1383 0.950 . S
C1395 C1391 1.393 . S
C1395 C1394 1.391 . S
H1396 C1404 0.950 . S
H1397 C1409 0.950 . S
H1398 C1406 0.950 . S
H1399 C1408 0.950 . S
H1400 C1410 0.950 . S
H1401 C1412 0.950 . S
H1402 C1414 0.950 . S
H1403 C1415 0.950 . S
C1404 H1396 0.950 . S
C1404 C1405 1.386 . S
C1404 C1406 1.391 . S
C1405 C1404 1.386 . S
C1405 C1409 1.393 . S
C1406 H1398 0.950 . S
C1406 C1404 1.391 . S
C1406 C1407 1.400 . S
C1407 C1406 1.400 . S
C1407 C1408 1.398 . S
C1407 C1413 1.491 . S
C1408 H1399 0.950 . S
C1408 C1407 1.398 . S
C1408 C1409 1.391 . S
C1409 H1397 0.950 . S
C1409 C1405 1.393 . S
C1409 C1408 1.391 . S
C1410 H1400 0.950 . S
C1410 C1411 1.386 . S
C1410 C1412 1.391 . S
C1411 C1410 1.386 . S
C1411 C1415 1.393 . S
C1412 H1401 0.950 . S
C1412 C1410 1.391 . S
C1412 C1413 1.400 . S
C1413 C1407 1.491 . S
C1413 C1412 1.400 . S
C1413 C1414 1.398 . S
C1414 H1402 0.950 . S
C1414 C1413 1.398 . S
C1414 C1415 1.391 . S
C1415 H1403 0.950 . S
C1415 C1411 1.393 . S
C1415 C1414 1.391 . S
H1416 C1424 0.950 1_554 S
H1417 C1429 0.950 . S
H1418 C1426 0.950 . S
H1419 C1428 0.950 . S
H1420 C1430 0.950 . S
H1421 C1432 0.950 . S
H1422 C1434 0.950 . S
H1423 C1435 0.950 . S
C1424 H1416 0.950 1_556 S
C1424 C1425 1.386 . S
C1424 C1426 1.391 . S
C1425 C1424 1.386 . S
C1425 C1429 1.393 . S
C1426 H1418 0.950 . S
C1426 C1424 1.391 . S
C1426 C1427 1.400 . S
C1427 C1426 1.400 . S
C1427 C1428 1.398 . S
C1427 C1433 1.491 . S
C1428 H1419 0.950 . S
C1428 C1427 1.398 . S
C1428 C1429 1.391 . S
C1429 H1417 0.950 . S
C1429 C1425 1.393 . S
C1429 C1428 1.391 . S
C1430 H1420 0.950 . S
C1430 C1431 1.386 . S
C1430 C1432 1.391 . S
C1431 C1430 1.386 . S
C1431 C1435 1.393 . S
C1432 H1421 0.950 . S
C1432 C1430 1.391 . S
C1432 C1433 1.400 . S
C1433 C1427 1.491 . S
C1433 C1432 1.400 . S
C1433 C1434 1.398 . S
C1434 H1422 0.950 . S
C1434 C1433 1.398 . S
C1434 C1435 1.391 . S
C1435 H1423 0.950 . S
C1435 C1431 1.393 . S
C1435 C1434 1.391 . S
H1436 C1444 0.950 1_554 S
H1437 C1449 0.950 . S
H1438 C1446 0.950 . S
H1439 C1448 0.950 . S
H1440 C1450 0.950 . S
H1441 C1452 0.950 . S
H1442 C1454 0.950 . S
H1443 C1455 0.950 . S
C1444 H1436 0.950 1_556 S
C1444 C1445 1.386 . S
C1444 C1446 1.391 . S
C1445 C1444 1.386 . S
C1445 C1449 1.393 . S
C1446 H1438 0.950 . S
C1446 C1444 1.391 . S
C1446 C1447 1.400 . S
C1447 C1446 1.400 . S
C1447 C1448 1.398 . S
C1447 C1453 1.491 . S
C1448 H1439 0.950 . S
C1448 C1447 1.398 . S
C1448 C1449 1.391 . S
C1449 H1437 0.950 . S
C1449 C1445 1.393 . S
C1449 C1448 1.391 . S
C1450 H1440 0.950 . S
C1450 C1451 1.386 . S
C1450 C1452 1.391 . S
C1451 C1450 1.386 . S
C1451 C1455 1.393 . S
C1452 H1441 0.950 . S
C1452 C1450 1.391 . S
C1452 C1453 1.400 . S
C1453 C1447 1.491 . S
C1453 C1452 1.400 . S
C1453 C1454 1.398 . S
C1454 H1442 0.950 . S
C1454 C1453 1.398 . S
C1454 C1455 1.391 . S
C1455 H1443 0.950 . S
C1455 C1451 1.393 . S
C1455 C1454 1.391 . S
H1456 C1464 0.950 . S
H1457 C1469 0.950 . S
H1458 C1466 0.950 . S
H1459 C1468 0.950 . S
H1460 C1470 0.950 . S
H1461 C1472 0.950 . S
H1462 C1474 0.950 . S
H1463 C1475 0.950 . S
C1464 H1456 0.950 . S
C1464 C1465 1.386 . S
C1464 C1466 1.391 . S
C1465 C1464 1.386 . S
C1465 C1469 1.393 . S
C1466 H1458 0.950 . S
C1466 C1464 1.391 . S
C1466 C1467 1.400 . S
C1467 C1466 1.400 . S
C1467 C1468 1.398 . S
C1467 C1473 1.491 . S
C1468 H1459 0.950 . S
C1468 C1467 1.398 . S
C1468 C1469 1.391 . S
C1469 H1457 0.950 . S
C1469 C1465 1.393 . S
C1469 C1468 1.391 . S
C1470 H1460 0.950 . S
C1470 C1471 1.386 . S
C1470 C1472 1.391 . S
C1471 C1470 1.386 . S
C1471 C1475 1.393 . S
C1472 H1461 0.950 . S
C1472 C1470 1.391 . S
C1472 C1473 1.400 . S
C1473 C1467 1.491 . S
C1473 C1472 1.400 . S
C1473 C1474 1.398 . S
C1474 H1462 0.950 . S
C1474 C1473 1.398 . S
C1474 C1475 1.391 . S
C1475 H1463 0.950 . S
C1475 C1471 1.393 . S
C1475 C1474 1.391 . S
H1476 C1484 0.950 . S
H1477 C1489 0.950 . S
H1478 C1486 0.950 . S
H1479 C1488 0.950 . S
H1480 C1490 0.950 . S
H1481 C1492 0.950 . S
H1482 C1494 0.950 . S
H1483 C1495 0.950 . S
C1484 H1476 0.950 . S
C1484 C1485 1.386 . S
C1484 C1486 1.391 . S
C1485 C1484 1.386 . S
C1485 C1489 1.393 . S
C1486 H1478 0.950 . S
C1486 C1484 1.391 . S
C1486 C1487 1.400 . S
C1487 C1486 1.400 . S
C1487 C1488 1.398 . S
C1487 C1493 1.491 . S
C1488 H1479 0.950 . S
C1488 C1487 1.398 . S
C1488 C1489 1.391 . S
C1489 H1477 0.950 . S
C1489 C1485 1.393 . S
C1489 C1488 1.391 . S
C1490 H1480 0.950 . S
C1490 C1491 1.386 . S
C1490 C1492 1.391 . S
C1491 C1490 1.386 . S
C1491 C1495 1.393 . S
C1492 H1481 0.950 . S
C1492 C1490 1.391 . S
C1492 C1493 1.400 . S
C1493 C1487 1.491 . S
C1493 C1492 1.400 . S
C1493 C1494 1.398 . S
C1494 H1482 0.950 . S
C1494 C1493 1.398 . S
C1494 C1495 1.391 . S
C1495 H1483 0.950 . S
C1495 C1491 1.393 . S
C1495 C1494 1.391 . S
H1496 C1504 0.950 . S
H1497 C1509 0.950 . S
H1498 C1506 0.950 . S
H1499 C1508 0.950 . S
H1500 C1510 0.950 . S
H1501 C1512 0.950 . S
H1502 C1514 0.950 . S
H1503 C1515 0.950 . S
C1504 H1496 0.950 . S
C1504 C1505 1.386 . S
C1504 C1506 1.391 . S
C1505 C1504 1.386 . S
C1505 C1509 1.393 . S
C1506 H1498 0.950 . S
C1506 C1504 1.391 . S
C1506 C1507 1.400 . S
C1507 C1506 1.400 . S
C1507 C1508 1.398 . S
C1507 C1513 1.491 . S
C1508 H1499 0.950 . S
C1508 C1507 1.398 . S
C1508 C1509 1.391 . S
C1509 H1497 0.950 . S
C1509 C1505 1.393 . S
C1509 C1508 1.391 . S
C1510 H1500 0.950 . S
C1510 C1511 1.386 . S
C1510 C1512 1.391 . S
C1511 C1510 1.386 . S
C1511 C1515 1.393 . S
C1512 H1501 0.950 . S
C1512 C1510 1.391 . S
C1512 C1513 1.400 . S
C1513 C1507 1.491 . S
C1513 C1512 1.400 . S
C1513 C1514 1.398 . S
C1514 H1502 0.950 . S
C1514 C1513 1.398 . S
C1514 C1515 1.391 . S
C1515 H1503 0.950 . S
C1515 C1511 1.393 . S
C1515 C1514 1.391 . S
H1516 C1524 0.950 . S
H1517 C1529 0.950 . S
H1518 C1526 0.950 . S
H1519 C1528 0.950 . S
H1520 C1530 0.950 . S
H1521 C1532 0.950 . S
H1522 C1534 0.950 . S
H1523 C1535 0.950 . S
C1524 H1516 0.950 . S
C1524 C1525 1.386 . S
C1524 C1526 1.391 . S
C1525 C1524 1.386 . S
C1525 C1529 1.393 . S
C1526 H1518 0.950 . S
C1526 C1524 1.391 . S
C1526 C1527 1.400 . S
C1527 C1526 1.400 . S
C1527 C1528 1.398 . S
C1527 C1533 1.491 . S
C1528 H1519 0.950 . S
C1528 C1527 1.398 . S
C1528 C1529 1.391 . S
C1529 H1517 0.950 . S
C1529 C1525 1.393 . S
C1529 C1528 1.391 . S
C1530 H1520 0.950 . S
C1530 C1531 1.386 . S
C1530 C1532 1.391 . S
C1531 C1530 1.386 . S
C1531 C1535 1.393 . S
C1532 H1521 0.950 . S
C1532 C1530 1.391 . S
C1532 C1533 1.400 . S
C1533 C1527 1.491 . S
C1533 C1532 1.400 . S
C1533 C1534 1.398 . S
C1534 H1522 0.950 . S
C1534 C1533 1.398 . S
C1534 C1535 1.391 . S
C1535 H1523 0.950 . S
C1535 C1531 1.393 . S
C1535 C1534 1.391 . S
H1536 C1544 0.950 . S
H1537 C1549 0.950 . S
H1538 C1546 0.950 . S
H1539 C1548 0.950 . S
H1540 C1550 0.950 . S
H1541 C1552 0.950 . S
H1542 C1554 0.950 . S
H1543 C1555 0.950 . S
C1544 H1536 0.950 . S
C1544 C1545 1.386 . S
C1544 C1546 1.391 . S
C1545 C1544 1.386 . S
C1545 C1549 1.393 . S
C1546 H1538 0.950 . S
C1546 C1544 1.391 . S
C1546 C1547 1.400 . S
C1547 C1546 1.400 . S
C1547 C1548 1.398 . S
C1547 C1553 1.491 . S
C1548 H1539 0.950 . S
C1548 C1547 1.398 . S
C1548 C1549 1.391 . S
C1549 H1537 0.950 . S
C1549 C1545 1.393 . S
C1549 C1548 1.391 . S
C1550 H1540 0.950 . S
C1550 C1551 1.386 . S
C1550 C1552 1.391 . S
C1551 C1550 1.386 . S
C1551 C1555 1.393 . S
C1552 H1541 0.950 . S
C1552 C1550 1.391 . S
C1552 C1553 1.400 . S
C1553 C1547 1.491 . S
C1553 C1552 1.400 . S
C1553 C1554 1.398 . S
C1554 H1542 0.950 . S
C1554 C1553 1.398 . S
C1554 C1555 1.391 . S
C1555 H1543 0.950 . S
C1555 C1551 1.393 . S
C1555 C1554 1.391 . S
H1556 C1564 0.950 . S
H1557 C1569 0.950 . S
H1558 C1566 0.950 . S
H1559 C1568 0.950 . S
H1560 C1570 0.950 . S
H1561 C1572 0.950 . S
H1562 C1574 0.950 . S
H1563 C1575 0.950 . S
C1564 H1556 0.950 . S
C1564 C1565 1.386 . S
C1564 C1566 1.391 . S
C1565 C1564 1.386 . S
C1565 C1569 1.393 . S
C1566 H1558 0.950 . S
C1566 C1564 1.391 . S
C1566 C1567 1.400 . S
C1567 C1566 1.400 . S
C1567 C1568 1.398 . S
C1567 C1573 1.491 . S
C1568 H1559 0.950 . S
C1568 C1567 1.398 . S
C1568 C1569 1.391 . S
C1569 H1557 0.950 . S
C1569 C1565 1.393 . S
C1569 C1568 1.391 . S
C1570 H1560 0.950 . S
C1570 C1571 1.386 . S
C1570 C1572 1.391 . S
C1571 C1570 1.386 . S
C1571 C1575 1.393 . S
C1572 H1561 0.950 . S
C1572 C1570 1.391 . S
C1572 C1573 1.400 . S
C1573 C1567 1.491 . S
C1573 C1572 1.400 . S
C1573 C1574 1.398 . S
C1574 H1562 0.950 . S
C1574 C1573 1.398 . S
C1574 C1575 1.391 . S
C1575 H1563 0.950 . S
C1575 C1571 1.393 . S
C1575 C1574 1.391 . S
H1576 C1584 0.950 . S
H1577 C1589 0.950 . S
H1578 C1586 0.950 . S
H1579 C1588 0.950 . S
H1580 C1590 0.950 . S
H1581 C1592 0.950 . S
H1582 C1594 0.950 . S
H1583 C1595 0.950 . S
C1584 H1576 0.950 . S
C1584 C1585 1.386 . S
C1584 C1586 1.391 . S
C1585 C1584 1.386 . S
C1585 C1589 1.393 . S
C1586 H1578 0.950 . S
C1586 C1584 1.391 . S
C1586 C1587 1.400 . S
C1587 C1586 1.400 . S
C1587 C1588 1.398 . S
C1587 C1593 1.491 . S
C1588 H1579 0.950 . S
C1588 C1587 1.398 . S
C1588 C1589 1.391 . S
C1589 H1577 0.950 . S
C1589 C1585 1.393 . S
C1589 C1588 1.391 . S
C1590 H1580 0.950 . S
C1590 C1591 1.386 . S
C1590 C1592 1.391 . S
C1591 C1590 1.386 . S
C1591 C1595 1.393 . S
C1592 H1581 0.950 . S
C1592 C1590 1.391 . S
C1592 C1593 1.400 . S
C1593 C1587 1.491 . S
C1593 C1592 1.400 . S
C1593 C1594 1.398 . S
C1594 H1582 0.950 . S
C1594 C1593 1.398 . S
C1594 C1595 1.391 . S
C1595 H1583 0.950 . S
C1595 C1591 1.393 . S
C1595 C1594 1.391 . S
H1596 C1604 0.950 . S
H1597 C1609 0.950 . S
H1598 C1606 0.950 . S
H1599 C1608 0.950 . S
H1600 C1610 0.950 . S
H1601 C1612 0.950 . S
H1602 C1614 0.950 . S
H1603 C1615 0.950 . S
C1604 H1596 0.950 . S
C1604 C1605 1.386 . S
C1604 C1606 1.391 . S
C1605 C1604 1.386 . S
C1605 C1609 1.393 1_455 S
C1606 H1598 0.950 . S
C1606 C1604 1.391 . S
C1606 C1607 1.400 . S
C1607 C1606 1.400 . S
C1607 C1608 1.398 1_455 S
C1607 C1613 1.491 . S
C1608 H1599 0.950 . S
C1608 C1607 1.398 1_655 S
C1608 C1609 1.391 . S
C1609 H1597 0.950 . S
C1609 C1605 1.393 1_655 S
C1609 C1608 1.391 . S
C1610 H1600 0.950 . S
C1610 C1611 1.386 1_655 S
C1610 C1612 1.391 . S
C1611 C1610 1.386 1_455 S
C1611 C1615 1.393 . S
C1612 H1601 0.950 . S
C1612 C1610 1.391 . S
C1612 C1613 1.400 1_655 S
C1613 C1607 1.491 . S
C1613 C1612 1.400 1_455 S
C1613 C1614 1.398 . S
C1614 H1602 0.950 . S
C1614 C1613 1.398 . S
C1614 C1615 1.391 . S
C1615 H1603 0.950 . S
C1615 C1611 1.393 . S
C1615 C1614 1.391 . S
H1616 C1624 0.950 . S
H1617 C1629 0.950 . S
H1618 C1626 0.950 . S
H1619 C1628 0.950 . S
H1620 C1630 0.950 . S
H1621 C1632 0.950 . S
H1622 C1634 0.950 . S
H1623 C1635 0.950 . S
C1624 H1616 0.950 . S
C1624 C1625 1.386 . S
C1624 C1626 1.391 . S
C1625 C1624 1.386 . S
C1625 C1629 1.393 . S
C1626 H1618 0.950 . S
C1626 C1624 1.391 . S
C1626 C1627 1.400 . S
C1627 C1626 1.400 . S
C1627 C1628 1.398 . S
C1627 C1633 1.491 . S
C1628 H1619 0.950 . S
C1628 C1627 1.398 . S
C1628 C1629 1.391 . S
C1629 H1617 0.950 . S
C1629 C1625 1.393 . S
C1629 C1628 1.391 . S
C1630 H1620 0.950 . S
C1630 C1631 1.386 . S
C1630 C1632 1.391 . S
C1631 C1630 1.386 . S
C1631 C1635 1.393 . S
C1632 H1621 0.950 . S
C1632 C1630 1.391 . S
C1632 C1633 1.400 . S
C1633 C1627 1.491 . S
C1633 C1632 1.400 . S
C1633 C1634 1.398 . S
C1634 H1622 0.950 . S
C1634 C1633 1.398 . S
C1634 C1635 1.391 . S
C1635 H1623 0.950 . S
C1635 C1631 1.393 . S
C1635 C1634 1.391 . S
H1636 C1644 0.950 1_545 S
H1637 C1649 0.950 . S
H1638 C1646 0.961 1_545 S
H1639 C1648 0.950 . S
H1640 C1650 0.950 . S
H1641 C1652 0.950 . S
H1642 C1654 0.950 . S
H1643 C1655 0.950 . S
C1644 H1636 0.950 1_565 S
C1644 C1645 1.386 . S
C1644 C1646 1.366 . S
C1645 C1644 1.386 . S
C1645 C1649 1.393 . S
C1646 H1638 0.961 1_565 S
C1646 C1644 1.366 . S
C1646 C1647 1.419 . S
C1647 C1646 1.419 . S
C1647 C1648 1.398 . S
C1647 C1653 1.491 . S
C1648 H1639 0.950 . S
C1648 C1647 1.398 . S
C1648 C1649 1.391 . S
C1649 H1637 0.950 . S
C1649 C1645 1.393 . S
C1649 C1648 1.391 . S
C1650 H1640 0.950 . S
C1650 C1651 1.386 . S
C1650 C1652 1.391 . S
C1651 C1650 1.386 . S
C1651 C1655 1.393 1_565 S
C1652 H1641 0.950 . S
C1652 C1650 1.391 . S
C1652 C1653 1.400 . S
C1653 C1647 1.491 . S
C1653 C1652 1.400 . S
C1653 C1654 1.398 1_565 S
C1654 H1642 0.950 . S
C1654 C1653 1.398 1_545 S
C1654 C1655 1.391 . S
C1655 H1643 0.950 . S
C1655 C1651 1.393 1_545 S
C1655 C1654 1.391 . S
H1656 C1664 0.950 . S
H1657 C1669 0.950 . S
H1658 C1666 0.950 . S
H1659 C1668 0.950 . S
H1660 C1670 0.950 . S
H1661 C1672 0.950 . S
H1662 C1674 0.950 . S
H1663 C1675 0.950 . S
C1664 H1656 0.950 . S
C1664 C1665 1.386 1_545 S
C1664 C1666 1.391 . S
C1665 C1664 1.386 1_565 S
C1665 C1669 1.393 . S
C1666 H1658 0.950 . S
C1666 C1664 1.391 . S
C1666 C1667 1.400 1_545 S
C1667 C1666 1.400 1_565 S
C1667 C1668 1.398 . S
C1667 C1673 1.491 . S
C1668 H1659 0.950 . S
C1668 C1667 1.398 . S
C1668 C1669 1.391 . S
C1669 H1657 0.950 . S
C1669 C1665 1.393 . S
C1669 C1668 1.391 . S
C1670 H1660 0.950 . S
C1670 C1671 1.429 . S
C1670 C1672 1.391 . S
C1671 C1670 1.429 . S
C1671 C1675 1.374 1_565 S
C1672 H1661 0.950 . S
C1672 C1670 1.391 . S
C1672 C1673 1.400 . S
C1673 C1667 1.491 . S
C1673 C1672 1.400 . S
C1673 C1674 1.398 1_565 S
C1674 H1662 0.950 . S
C1674 C1673 1.398 1_545 S
C1674 C1675 1.391 . S
C1675 H1663 0.950 . S
C1675 C1671 1.374 1_545 S
C1675 C1674 1.391 . S
H1676 C1684 0.950 . S
H1677 C1689 0.950 . S
H1678 C1686 0.950 . S
H1679 C1688 0.950 . S
H1680 C1690 0.950 . S
H1681 C1692 0.950 . S
H1682 C1694 0.950 . S
H1683 C1695 0.950 . S
C1684 H1676 0.950 . S
C1684 C1685 1.386 1_655 S
C1684 C1686 1.391 . S
C1685 C1684 1.386 1_455 S
C1685 C1689 1.393 . S
C1686 H1678 0.950 . S
C1686 C1684 1.391 . S
C1686 C1687 1.400 1_655 S
C1687 C1686 1.400 1_455 S
C1687 C1688 1.398 . S
C1687 C1693 1.491 . S
C1688 H1679 0.950 . S
C1688 C1687 1.398 . S
C1688 C1689 1.391 . S
C1689 H1677 0.950 . S
C1689 C1685 1.393 . S
C1689 C1688 1.391 . S
C1690 H1680 0.950 . S
C1690 C1691 1.389 1_455 S
C1690 C1692 1.391 . S
C1691 C1690 1.389 1_655 S
C1691 C1695 1.387 . S
C1692 H1681 0.950 . S
C1692 C1690 1.391 . S
C1692 C1693 1.400 . S
C1693 C1687 1.491 . S
C1693 C1692 1.400 . S
C1693 C1694 1.398 1_455 S
C1694 H1682 0.950 . S
C1694 C1693 1.398 1_655 S
C1694 C1695 1.391 . S
C1695 H1683 0.950 . S
C1695 C1691 1.387 . S
C1695 C1694 1.391 . S
H1696 C1704 0.950 . S
H1697 C1709 0.950 . S
H1698 C1706 0.950 . S
H1699 C1708 0.950 . S
H1700 C1710 0.950 . S
H1701 C1712 0.950 . S
H1702 C1714 0.950 . S
H1703 C1715 0.950 . S
C1704 H1696 0.950 . S
C1704 C1705 1.386 . S
C1704 C1706 1.391 . S
C1705 C1704 1.386 . S
C1705 C1709 1.393 . S
C1706 H1698 0.950 . S
C1706 C1704 1.391 . S
C1706 C1707 1.400 . S
C1707 C1706 1.400 . S
C1707 C1708 1.398 . S
C1707 C1713 1.491 . S
C1708 H1699 0.950 . S
C1708 C1707 1.398 . S
C1708 C1709 1.391 . S
C1709 H1697 0.950 . S
C1709 C1705 1.393 . S
C1709 C1708 1.391 . S
C1710 H1700 0.950 . S
C1710 C1711 1.386 . S
C1710 C1712 1.391 . S
C1711 C1710 1.386 . S
C1711 C1715 1.393 . S
C1712 H1701 0.950 . S
C1712 C1710 1.391 . S
C1712 C1713 1.400 . S
C1713 C1707 1.491 . S
C1713 C1712 1.400 . S
C1713 C1714 1.398 . S
C1714 H1702 0.950 . S
C1714 C1713 1.398 . S
C1714 C1715 1.391 . S
C1715 H1703 0.950 . S
C1715 C1711 1.393 . S
C1715 C1714 1.391 . S
H1716 C1724 0.950 . S
H1717 C1729 0.950 . S
H1718 C1726 0.950 . S
H1719 C1728 0.950 . S
H1720 C1730 0.950 . S
H1721 C1732 0.950 . S
H1722 C1734 0.950 . S
H1723 C1735 0.950 . S
C1724 H1716 0.950 . S
C1724 C1725 1.386 . S
C1724 C1726 1.391 . S
C1725 C1724 1.386 . S
C1725 C1729 1.393 . S
C1726 H1718 0.950 . S
C1726 C1724 1.391 . S
C1726 C1727 1.400 . S
C1727 C1726 1.400 . S
C1727 C1728 1.398 . S
C1727 C1733 1.491 . S
C1728 H1719 0.950 . S
C1728 C1727 1.398 . S
C1728 C1729 1.391 . S
C1729 H1717 0.950 . S
C1729 C1725 1.393 . S
C1729 C1728 1.391 . S
C1730 H1720 0.950 . S
C1730 C1731 1.386 . S
C1730 C1732 1.391 . S
C1731 C1730 1.386 . S
C1731 C1735 1.393 . S
C1732 H1721 0.950 . S
C1732 C1730 1.391 . S
C1732 C1733 1.400 . S
C1733 C1727 1.491 . S
C1733 C1732 1.400 . S
C1733 C1734 1.398 . S
C1734 H1722 0.950 . S
C1734 C1733 1.398 . S
C1734 C1735 1.391 . S
C1735 H1723 0.950 . S
C1735 C1731 1.393 . S
C1735 C1734 1.391 . S
H1736 C1744 0.950 . S
H1737 C1749 0.950 . S
H1738 C1746 0.950 . S
H1739 C1748 0.950 . S
H1740 C1750 0.950 . S
H1741 C1752 0.950 . S
H1742 C1754 0.950 . S
H1743 C1755 0.950 . S
C1744 H1736 0.950 . S
C1744 C1745 1.386 . S
C1744 C1746 1.391 . S
C1745 C1744 1.386 . S
C1745 C1749 1.393 . S
C1746 H1738 0.950 . S
C1746 C1744 1.391 . S
C1746 C1747 1.400 . S
C1747 C1746 1.400 . S
C1747 C1748 1.398 . S
C1747 C1753 1.491 . S
C1748 H1739 0.950 . S
C1748 C1747 1.398 . S
C1748 C1749 1.391 . S
C1749 H1737 0.950 . S
C1749 C1745 1.393 . S
C1749 C1748 1.391 . S
C1750 H1740 0.950 . S
C1750 C1751 1.386 . S
C1750 C1752 1.391 . S
C1751 C1750 1.386 . S
C1751 C1755 1.393 . S
C1752 H1741 0.950 . S
C1752 C1750 1.391 . S
C1752 C1753 1.400 . S
C1753 C1747 1.491 . S
C1753 C1752 1.400 . S
C1753 C1754 1.398 . S
C1754 H1742 0.950 . S
C1754 C1753 1.398 . S
C1754 C1755 1.391 . S
C1755 H1743 0.950 . S
C1755 C1751 1.393 . S
C1755 C1754 1.391 . S
H1756 C1764 0.950 . S
H1757 C1769 0.950 . S
H1758 C1766 0.950 . S
H1759 C1768 0.950 . S
H1760 C1770 0.950 . S
H1761 C1772 0.950 . S
H1762 C1774 0.950 . S
H1763 C1775 0.950 . S
C1764 H1756 0.950 . S
C1764 C1765 1.386 . S
C1764 C1766 1.391 . S
C1765 C1764 1.386 . S
C1765 C1769 1.393 . S
C1766 H1758 0.950 . S
C1766 C1764 1.391 . S
C1766 C1767 1.400 . S
C1767 C1766 1.400 . S
C1767 C1768 1.398 . S
C1767 C1773 1.491 . S
C1768 H1759 0.950 . S
C1768 C1767 1.398 . S
C1768 C1769 1.391 . S
C1769 H1757 0.950 . S
C1769 C1765 1.393 . S
C1769 C1768 1.391 . S
C1770 H1760 0.950 . S
C1770 C1771 1.386 . S
C1770 C1772 1.391 . S
C1771 C1770 1.386 . S
C1771 C1775 1.393 . S
C1772 H1761 0.950 . S
C1772 C1770 1.391 . S
C1772 C1773 1.400 . S
C1773 C1767 1.491 . S
C1773 C1772 1.400 . S
C1773 C1774 1.398 . S
C1774 H1762 0.950 . S
C1774 C1773 1.398 . S
C1774 C1775 1.391 . S
C1775 H1763 0.950 . S
C1775 C1771 1.393 . S
C1775 C1774 1.391 . S
H1776 C1784 0.950 . S
H1777 C1789 0.950 . S
H1778 C1786 0.950 . S
H1779 C1788 0.950 . S
H1780 C1790 0.950 . S
H1781 C1792 0.950 . S
H1782 C1794 0.950 . S
H1783 C1795 0.950 . S
C1784 H1776 0.950 . S
C1784 C1785 1.386 1_565 S
C1784 C1786 1.391 . S
C1785 C1784 1.386 1_545 S
C1785 C1789 1.393 . S
C1786 H1778 0.950 . S
C1786 C1784 1.391 . S
C1786 C1787 1.400 1_565 S
C1787 C1786 1.400 1_545 S
C1787 C1788 1.398 . S
C1787 C1793 1.491 . S
C1788 H1779 0.950 . S
C1788 C1787 1.398 . S
C1788 C1789 1.391 . S
C1789 H1777 0.950 . S
C1789 C1785 1.393 . S
C1789 C1788 1.391 . S
C1790 H1780 0.950 . S
C1790 C1791 1.386 . S
C1790 C1792 1.391 . S
C1791 C1790 1.386 . S
C1791 C1795 1.393 1_545 S
C1792 H1781 0.950 . S
C1792 C1790 1.391 . S
C1792 C1793 1.400 . S
C1793 C1787 1.491 . S
C1793 C1792 1.400 . S
C1793 C1794 1.398 1_545 S
C1794 H1782 0.950 . S
C1794 C1793 1.398 1_565 S
C1794 C1795 1.391 . S
C1795 H1783 0.950 . S
C1795 C1791 1.393 1_565 S
C1795 C1794 1.391 . S
H1796 C1804 0.950 . S
H1797 C1809 0.950 . S
H1798 C1806 0.950 . S
H1799 C1808 0.950 . S
H1800 C1810 0.950 . S
H1801 C1812 0.950 . S
H1802 C1814 0.950 . S
H1803 C1815 0.950 . S
C1804 H1796 0.950 . S
C1804 C1805 1.386 1_455 S
C1804 C1806 1.391 . S
C1805 C1804 1.386 1_655 S
C1805 C1809 1.393 . S
C1806 H1798 0.950 . S
C1806 C1804 1.391 . S
C1806 C1807 1.400 1_455 S
C1807 C1806 1.400 1_655 S
C1807 C1808 1.398 . S
C1807 C1813 1.491 . S
C1808 H1799 0.950 . S
C1808 C1807 1.398 . S
C1808 C1809 1.391 . S
C1809 H1797 0.950 . S
C1809 C1805 1.393 . S
C1809 C1808 1.391 . S
C1810 H1800 0.950 . S
C1810 C1811 1.386 . S
C1810 C1812 1.391 . S
C1811 C1810 1.386 . S
C1811 C1815 1.393 1_655 S
C1812 H1801 0.950 . S
C1812 C1810 1.391 . S
C1812 C1813 1.400 . S
C1813 C1807 1.491 . S
C1813 C1812 1.400 . S
C1813 C1814 1.398 1_655 S
C1814 H1802 0.950 . S
C1814 C1813 1.398 1_455 S
C1814 C1815 1.391 . S
C1815 H1803 0.950 . S
C1815 C1811 1.393 1_455 S
C1815 C1814 1.391 . S
H1816 C1824 0.950 . S
H1817 C1829 0.950 . S
H1818 C1826 0.950 . S
H1819 C1828 0.950 . S
H1820 C1830 0.950 . S
H1821 C1832 0.950 . S
H1822 C1834 0.950 . S
H1823 C1835 0.950 . S
C1824 H1816 0.950 . S
C1824 C1825 1.386 . S
C1824 C1826 1.391 . S
C1825 C1824 1.386 . S
C1825 C1829 1.393 . S
C1826 H1818 0.950 . S
C1826 C1824 1.391 . S
C1826 C1827 1.400 . S
C1827 C1826 1.400 . S
C1827 C1828 1.398 . S
C1827 C1833 1.491 . S
C1828 H1819 0.950 . S
C1828 C1827 1.398 . S
C1828 C1829 1.391 . S
C1829 H1817 0.950 . S
C1829 C1825 1.393 . S
C1829 C1828 1.391 . S
C1830 H1820 0.950 . S
C1830 C1831 1.386 . S
C1830 C1832 1.391 . S
C1831 C1830 1.386 . S
C1831 C1835 1.393 . S
C1832 H1821 0.950 . S
C1832 C1830 1.391 . S
C1832 C1833 1.400 . S
C1833 C1827 1.491 . S
C1833 C1832 1.400 . S
C1833 C1834 1.398 . S
C1834 H1822 0.950 . S
C1834 C1833 1.398 . S
C1834 C1835 1.391 . S
C1835 H1823 0.950 . S
C1835 C1831 1.393 . S
C1835 C1834 1.391 . S
H1836 C1844 0.950 . S
H1837 C1849 0.950 . S
H1838 C1846 0.950 . S
H1839 C1848 0.950 . S
H1840 C1850 0.950 . S
H1841 C1852 0.950 . S
H1842 C1854 0.950 . S
H1843 C1855 0.950 . S
C1844 H1836 0.950 . S
C1844 C1845 1.386 . S
C1844 C1846 1.391 . S
C1845 C1844 1.386 . S
C1845 C1849 1.393 . S
C1846 H1838 0.950 . S
C1846 C1844 1.391 . S
C1846 C1847 1.400 . S
C1847 C1846 1.400 . S
C1847 C1848 1.398 . S
C1847 C1853 1.491 . S
C1848 H1839 0.950 . S
C1848 C1847 1.398 . S
C1848 C1849 1.391 . S
C1849 H1837 0.950 . S
C1849 C1845 1.393 . S
C1849 C1848 1.391 . S
C1850 H1840 0.950 . S
C1850 C1851 1.386 . S
C1850 C1852 1.391 . S
C1851 C1850 1.386 . S
C1851 C1855 1.393 . S
C1852 H1841 0.950 . S
C1852 C1850 1.391 . S
C1852 C1853 1.400 . S
C1853 C1847 1.491 . S
C1853 C1852 1.400 . S
C1853 C1854 1.398 . S
C1854 H1842 0.950 . S
C1854 C1853 1.398 . S
C1854 C1855 1.391 . S
C1855 H1843 0.950 . S
C1855 C1851 1.393 . S
C1855 C1854 1.391 . S
H1856 C1864 0.950 . S
H1857 C1869 0.950 . S
H1858 C1866 0.950 . S
H1859 C1868 0.950 . S
H1860 C1870 0.950 . S
H1861 C1872 0.950 . S
H1862 C1874 0.950 . S
H1863 C1875 0.950 . S
C1864 H1856 0.950 . S
C1864 C1865 1.386 . S
C1864 C1866 1.391 . S
C1865 C1864 1.386 . S
C1865 C1869 1.393 . S
C1866 H1858 0.950 . S
C1866 C1864 1.391 . S
C1866 C1867 1.400 . S
C1867 C1866 1.400 . S
C1867 C1868 1.398 . S
C1867 C1873 1.491 . S
C1868 H1859 0.950 . S
C1868 C1867 1.398 . S
C1868 C1869 1.391 . S
C1869 H1857 0.950 . S
C1869 C1865 1.393 . S
C1869 C1868 1.391 . S
C1870 H1860 0.950 . S
C1870 C1871 1.386 . S
C1870 C1872 1.391 . S
C1871 C1870 1.386 . S
C1871 C1875 1.393 . S
C1872 H1861 0.950 . S
C1872 C1870 1.391 . S
C1872 C1873 1.400 . S
C1873 C1867 1.491 . S
C1873 C1872 1.400 . S
C1873 C1874 1.398 . S
C1874 H1862 0.950 . S
C1874 C1873 1.398 . S
C1874 C1875 1.391 . S
C1875 H1863 0.950 . S
C1875 C1871 1.393 . S
C1875 C1874 1.391 . S
H1876 C1884 0.950 . S
H1877 C1889 0.950 . S
H1878 C1886 0.950 . S
H1879 C1888 0.950 . S
H1880 C1890 0.950 . S
H1881 C1892 0.950 . S
H1882 C1894 0.950 . S
H1883 C1895 0.950 . S
C1884 H1876 0.950 . S
C1884 C1885 1.386 . S
C1884 C1886 1.391 . S
C1885 C1884 1.386 . S
C1885 C1889 1.393 . S
C1886 H1878 0.950 . S
C1886 C1884 1.391 . S
C1886 C1887 1.400 . S
C1887 C1886 1.400 . S
C1887 C1888 1.398 . S
C1887 C1893 1.491 . S
C1888 H1879 0.950 . S
C1888 C1887 1.398 . S
C1888 C1889 1.391 . S
C1889 H1877 0.950 . S
C1889 C1885 1.393 . S
C1889 C1888 1.391 . S
C1890 H1880 0.950 . S
C1890 C1891 1.386 . S
C1890 C1892 1.391 . S
C1891 C1890 1.386 . S
C1891 C1895 1.393 . S
C1892 H1881 0.950 . S
C1892 C1890 1.391 . S
C1892 C1893 1.400 . S
C1893 C1887 1.491 . S
C1893 C1892 1.400 . S
C1893 C1894 1.398 . S
C1894 H1882 0.950 . S
C1894 C1893 1.398 . S
C1894 C1895 1.391 . S
C1895 H1883 0.950 . S
C1895 C1891 1.393 . S
C1895 C1894 1.391 . S
H1896 C1904 0.950 . S
H1897 C1909 0.950 . S
H1898 C1906 0.950 . S
H1899 C1908 0.950 . S
H1900 C1910 0.950 . S
H1901 C1912 0.950 . S
H1902 C1914 0.950 . S
H1903 C1915 0.950 . S
C1904 H1896 0.950 . S
C1904 C1905 1.386 . S
C1904 C1906 1.391 . S
C1905 C1904 1.386 . S
C1905 C1909 1.393 . S
C1906 H1898 0.950 . S
C1906 C1904 1.391 . S
C1906 C1907 1.400 . S
C1907 C1906 1.400 . S
C1907 C1908 1.398 . S
C1907 C1913 1.491 . S
C1908 H1899 0.950 . S
C1908 C1907 1.398 . S
C1908 C1909 1.391 . S
C1909 H1897 0.950 . S
C1909 C1905 1.393 . S
C1909 C1908 1.391 . S
C1910 H1900 0.950 . S
C1910 C1911 1.386 . S
C1910 C1912 1.391 . S
C1911 C1910 1.386 . S
C1911 C1915 1.393 . S
C1912 H1901 0.950 . S
C1912 C1910 1.391 . S
C1912 C1913 1.400 . S
C1913 C1907 1.491 . S
C1913 C1912 1.400 . S
C1913 C1914 1.398 . S
C1914 H1902 0.950 . S
C1914 C1913 1.398 . S
C1914 C1915 1.391 . S
C1915 H1903 0.950 . S
C1915 C1911 1.393 . S
C1915 C1914 1.391 . S
H1916 C1924 0.950 . S
H1917 C1929 0.950 . S
H1918 C1926 0.950 . S
H1919 C1928 0.950 . S
H1920 C1930 0.950 . S
H1921 C1932 0.950 . S
H1922 C1934 0.950 . S
H1923 C1935 0.950 . S
C1924 H1916 0.950 . S
C1924 C1925 1.386 . S
C1924 C1926 1.391 . S
C1925 C1924 1.386 . S
C1925 C1929 1.393 . S
C1926 H1918 0.950 . S
C1926 C1924 1.391 . S
C1926 C1927 1.400 . S
C1927 C1926 1.400 . S
C1927 C1928 1.398 . S
C1927 C1933 1.491 . S
C1928 H1919 0.950 . S
C1928 C1927 1.398 . S
C1928 C1929 1.391 . S
C1929 H1917 0.950 . S
C1929 C1925 1.393 . S
C1929 C1928 1.391 . S
C1930 H1920 0.950 . S
C1930 C1931 1.386 . S
C1930 C1932 1.391 . S
C1931 C1930 1.386 . S
C1931 C1935 1.393 . S
C1932 H1921 0.950 . S
C1932 C1930 1.391 . S
C1932 C1933 1.400 . S
C1933 C1927 1.491 . S
C1933 C1932 1.400 . S
C1933 C1934 1.398 . S
C1934 H1922 0.950 . S
C1934 C1933 1.398 . S
C1934 C1935 1.391 . S
C1935 H1923 0.950 . S
C1935 C1931 1.393 . S
C1935 C1934 1.391 . S
H1936 C1944 0.950 . S
H1937 C1949 0.950 . S
H1938 C1946 0.950 . S
H1939 C1948 0.950 . S
H1940 C1950 0.950 . S
H1941 C1952 0.950 . S
H1942 C1954 0.950 . S
H1943 C1955 0.950 . S
C1944 H1936 0.950 . S
C1944 C1945 1.386 . S
C1944 C1946 1.391 . S
C1945 C1944 1.386 . S
C1945 C1949 1.393 . S
C1946 H1938 0.950 . S
C1946 C1944 1.391 . S
C1946 C1947 1.400 . S
C1947 C1946 1.400 . S
C1947 C1948 1.398 . S
C1947 C1953 1.491 . S
C1948 H1939 0.950 . S
C1948 C1947 1.398 . S
C1948 C1949 1.391 . S
C1949 H1937 0.950 . S
C1949 C1945 1.393 . S
C1949 C1948 1.391 . S
C1950 H1940 0.950 . S
C1950 C1951 1.386 . S
C1950 C1952 1.391 . S
C1951 C1950 1.386 . S
C1951 C1955 1.393 . S
C1952 H1941 0.950 . S
C1952 C1950 1.391 . S
C1952 C1953 1.400 . S
C1953 C1947 1.491 . S
C1953 C1952 1.400 . S
C1953 C1954 1.398 . S
C1954 H1942 0.950 . S
C1954 C1953 1.398 . S
C1954 C1955 1.391 . S
C1955 H1943 0.950 . S
C1955 C1951 1.393 . S
C1955 C1954 1.391 . S
H1956 C1964 0.950 . S
H1957 C1969 0.950 . S
H1958 C1966 0.950 . S
H1959 C1968 0.950 . S
H1960 C1970 0.950 . S
H1961 C1972 0.950 . S
H1962 C1974 0.950 . S
H1963 C1975 0.950 . S
C1964 H1956 0.950 . S
C1964 C1965 1.386 . S
C1964 C1966 1.391 . S
C1965 C1964 1.386 . S
C1965 C1969 1.393 1_655 S
C1966 H1958 0.950 . S
C1966 C1964 1.391 . S
C1966 C1967 1.400 . S
C1967 C1966 1.400 . S
C1967 C1968 1.398 1_655 S
C1967 C1973 1.491 . S
C1968 H1959 0.950 . S
C1968 C1967 1.398 1_455 S
C1968 C1969 1.391 . S
C1969 H1957 0.950 . S
C1969 C1965 1.393 1_455 S
C1969 C1968 1.391 . S
C1970 H1960 0.950 . S
C1970 C1971 1.393 . S
C1970 C1972 1.391 . S
C1971 C1970 1.393 . S
C1971 C1975 1.376 1_455 S
C1972 H1961 0.950 . S
C1972 C1970 1.391 . S
C1972 C1973 1.400 1_455 S
C1973 C1967 1.491 . S
C1973 C1972 1.400 1_655 S
C1973 C1974 1.398 . S
C1974 H1962 0.950 . S
C1974 C1973 1.398 . S
C1974 C1975 1.391 . S
C1975 H1963 0.950 . S
C1975 C1971 1.376 1_655 S
C1975 C1974 1.391 . S
H1976 C1984 0.950 . S
H1977 C1989 0.950 . S
H1978 C1986 0.950 . S
H1979 C1988 0.950 . S
H1980 C1990 0.950 . S
H1981 C1992 0.950 . S
H1982 C1994 0.950 . S
H1983 C1995 0.950 . S
C1984 H1976 0.950 . S
C1984 C1985 1.386 . S
C1984 C1986 1.391 . S
C1985 C1984 1.386 . S
C1985 C1989 1.393 . S
C1986 H1978 0.950 . S
C1986 C1984 1.391 . S
C1986 C1987 1.400 . S
C1987 C1986 1.400 . S
C1987 C1988 1.398 . S
C1987 C1993 1.491 . S
C1988 H1979 0.950 . S
C1988 C1987 1.398 . S
C1988 C1989 1.391 . S
C1989 H1977 0.950 . S
C1989 C1985 1.393 . S
C1989 C1988 1.391 . S
C1990 H1980 0.950 . S
C1990 C1991 1.386 . S
C1990 C1992 1.391 . S
C1991 C1990 1.386 . S
C1991 C1995 1.393 . S
C1992 H1981 0.950 . S
C1992 C1990 1.391 . S
C1992 C1993 1.400 . S
C1993 C1987 1.491 . S
C1993 C1992 1.400 . S
C1993 C1994 1.398 . S
C1994 H1982 0.950 . S
C1994 C1993 1.398 . S
C1994 C1995 1.391 . S
C1995 H1983 0.950 . S
C1995 C1991 1.393 . S
C1995 C1994 1.391 . S
H1996 C2004 0.950 . S
H1997 C2009 0.950 1_565 S
H1998 C2006 0.950 . S
H1999 C2008 0.950 1_565 S
H2000 C2010 0.950 . S
H2001 C2012 0.950 . S
H2002 C2014 0.950 . S
H2003 C2015 0.950 . S
C2004 H1996 0.950 . S
C2004 C2005 1.386 . S
C2004 C2006 1.391 . S
C2005 C2004 1.386 . S
C2005 C2009 1.393 . S
C2006 H1998 0.950 . S
C2006 C2004 1.391 . S
C2006 C2007 1.400 . S
C2007 C2006 1.400 . S
C2007 C2008 1.396 . S
C2007 C2013 1.491 . S
C2008 H1999 0.950 1_545 S
C2008 C2007 1.396 . S
C2008 C2009 1.393 . S
C2009 H1997 0.950 1_545 S
C2009 C2005 1.393 . S
C2009 C2008 1.393 . S
C2010 H2000 0.950 . S
C2010 C2011 1.390 . S
C2010 C2012 1.391 . S
C2011 C2010 1.390 . S
C2011 C2015 1.392 1_565 S
C2012 H2001 0.950 . S
C2012 C2010 1.391 . S
C2012 C2013 1.400 1_565 S
C2013 C2007 1.491 . S
C2013 C2012 1.400 1_545 S
C2013 C2014 1.398 . S
C2014 H2002 0.950 . S
C2014 C2013 1.398 . S
C2014 C2015 1.391 . S
C2015 H2003 0.950 . S
C2015 C2011 1.392 1_545 S
C2015 C2014 1.391 . S
C585 C9 1.544 1_655 S
C591 C421 1.506 . S
C605 C19 1.563 . S
C611 C446 1.535 . S
C631 C457 1.543 . S
C625 C33 1.568 . S
C645 C37 1.550 1_565 S
C651 C482 1.529 . S
C665 C5 1.529 . S
C671 C500 1.518 . S
C685 C23 1.589 . S
C691 C511 1.553 . S
C705 C47 1.533 . S
C711 C493 1.515 . S
C731 C518 1.551 . S
C725 C65 1.571 . S
C751 C475 1.497 1_565 S
C745 C75 1.525 . S
C765 C79 1.519 . S
C771 C464 1.454 . S
C791 C428 1.554 . S
C785 C51 1.573 1_655 S
C805 C61 1.549 . S
C811 C439 1.524 . S
C825 C93 1.646 . S
C831 C529 1.594 . S
C845 C103 1.604 . S
C851 C554 1.584 . S
C871 C565 1.584 . S
C865 C117 1.627 . S
C885 C121 1.612 . S
C891 C266 1.581 . S
C905 C89 1.607 . S
C911 C284 1.579 . S
C925 C107 1.618 . S
C931 C295 1.586 . S
C945 C131 1.562 . S
C951 C277 1.536 . S
C965 C149 1.589 . S
C971 C302 1.565 . S
C991 C259 1.540 . S
C985 C159 1.566 . S
C1011 C572 1.558 . S
C1005 C163 1.577 . S
C1031 C536 1.574 . S
C1025 C135 1.607 . S
C1051 C547 1.567 . S
C1045 C145 1.586 . S
C1065 C177 1.605 . S
C1071 C313 1.559 . S
C1085 C187 1.585 . S
C1091 C338 1.566 . S
C1105 C201 1.629 . S
C1111 C349 1.583 . S
C1125 C205 1.652 . S
C1131 C374 1.624 . S
C1151 C392 1.577 . S
C1145 C173 1.606 . S
C1171 C403 1.602 . S
C1165 C191 1.640 . S
C1191 C385 1.594 . S
C1185 C215 1.611 . S
C1211 C410 1.582 . S
C1205 C233 1.614 . S
C1225 C243 1.568 . S
C1231 C367 1.549 . S
C1251 C356 1.505 . S
C1245 C247 1.534 . S
C1265 C219 1.614 . S
C1271 C320 1.594 . S
C1291 C331 1.565 . S
C1285 C229 1.580 . S
C1311 C268 1.413 . S
C1305 C11 1.492 . S
C1325 C14 1.459 . S
C1331 C286 1.409 . S
C1351 C296 1.457 . S
C1345 C28 1.534 . S
C1371 C314 1.454 . S
C1365 C39 1.532 . S
C1391 C340 1.432 . S
C1385 C0 1.502 . S
C1411 C350 1.379 . S
C1405 C25 1.428 . S
C1425 C42 1.577 . S
C1431 C358 1.485 . S
C1445 C67 1.505 . S
C1451 C322 1.405 . S
C1465 C70 1.489 . S
C1471 C332 1.396 . S
C1485 C81 1.507 . S
C1491 C278 1.449 . S
C1511 C304 1.447 . S
C1505 C53 1.550 . S
C1525 C56 1.519 . S
C1531 C260 1.443 . S
C1551 C376 1.423 . S
C1545 C95 1.480 . S
C1565 C98 1.520 . S
C1571 C394 1.470 . S
C1585 C112 1.575 . S
C1591 C404 1.506 . S
C1611 C422 1.417 . S
C1605 C123 1.462 . S
C1625 C84 1.499 . S
C1631 C448 1.444 . S
C1645 C109 1.409 . S
C1651 C458 1.359 . S
C1665 C126 1.493 . S
C1671 C466 1.441 . S
C1685 C151 1.454 . S
C1691 C430 1.401 1_655 S
C1711 C440 1.412 . S
C1705 C154 1.501 . S
C1725 C165 1.492 . S
C1731 C386 1.398 . S
C1745 C137 1.576 . S
C1751 C412 1.478 . S
C1771 C368 1.507 . S
C1765 C140 1.578 . S
C1791 C484 1.372 . S
C1785 C179 1.443 . S
C1805 C182 1.434 . S
C1811 C502 1.370 . S
C1825 C196 1.538 . S
C1831 C512 1.470 . S
C1851 C530 1.460 . S
C1845 C207 1.516 . S
C1871 C556 1.472 . S
C1865 C168 1.538 . S
C1885 C193 1.504 . S
C1891 C566 1.423 . S
C1905 C210 1.569 . S
C1911 C574 1.461 . S
C1925 C235 1.571 . S
C1931 C538 1.468 . S
C1951 C548 1.463 . S
C1945 C238 1.531 . S
C1971 C494 1.332 . S
C1965 C249 1.409 . S
C1991 C520 1.438 . S
C1985 C221 1.540 . S
C2005 C224 1.469 . S
C2011 C476 1.431 . S
