# Generated by pormake.
# Topology sit, (3,6)-cn, num edge types: 1
# Building blocks:
#     Node 0, Type 0, BuildingBlock: BETDIP_clean_linker_0, # of connection points: 3
#     Node 1, Type 0, BuildingBlock: BETDIP_clean_linker_0, # of connection points: 3
#     Node 2, Type 0, BuildingBlock: BETDIP_clean_linker_0, # of connection points: 3
#     Node 3, Type 0, BuildingBlock: BETDIP_clean_linker_0, # of connection points: 3
#     Node 4, Type 1, BuildingBlock: MIDCAF_clean_sbu_0, # of connection points: 6
#     Node 5, Type 1, BuildingBlock: MIDCAF_clean_sbu_0, # of connection points: 6
#     Edge 6, Type (0, 1), BuildingBlock: EZIPEK_clean_linker_0, # of connection points: 2
#     Edge 7, Type (0, 1), BuildingBlock: EZIPEK_clean_linker_0, # of connection points: 2
#     Edge 8, Type (0, 1), BuildingBlock: EZIPEK_clean_linker_0, # of connection points: 2
#     Edge 9, Type (0, 1), BuildingBlock: EZIPEK_clean_linker_0, # of connection points: 2
#     Edge 10, Type (0, 1), BuildingBlock: EZIPEK_clean_linker_0, # of connection points: 2
#     Edge 11, Type (0, 1), BuildingBlock: EZIPEK_clean_linker_0, # of connection points: 2
#     Edge 12, Type (0, 1), BuildingBlock: EZIPEK_clean_linker_0, # of connection points: 2
#     Edge 13, Type (0, 1), BuildingBlock: EZIPEK_clean_linker_0, # of connection points: 2
#     Edge 14, Type (0, 1), BuildingBlock: EZIPEK_clean_linker_0, # of connection points: 2
#     Edge 15, Type (0, 1), BuildingBlock: EZIPEK_clean_linker_0, # of connection points: 2
#     Edge 16, Type (0, 1), BuildingBlock: EZIPEK_clean_linker_0, # of connection points: 2
#     Edge 17, Type (0, 1), BuildingBlock: EZIPEK_clean_linker_0, # of connection points: 2
# Relax obj value: 0.072
# Max RMSD: 0.182
# Mean RMSD: 0.107
data_MOF--net-sit--node1-MIDCAF_clean_sbu_0--node2-BETDIP_clean_linker_0--edge1-EZIPEK_clean_linker_0
_symmetry_space_group_name_H-M    P1
_symmetry_Int_Tables_number       1
_symmetry_cell_setting            triclinic
loop_
_symmetry_equiv_pos_as_xyz
'x, y, z'
_cell_length_a     16.508734
_cell_length_b     21.176272
_cell_length_c     28.176066
_cell_angle_alpha  89.910119
_cell_angle_beta   86.46658
_cell_angle_gamma 81.618126
loop_
_atom_site_label
_atom_site_type_symbol
_atom_site_fract_x
_atom_site_fract_y
_atom_site_fract_z
_atom_type_partial_charge
H0 H 0.90014 0.40406 0.02468 0.0
H1 H 0.16002 0.35588 0.03794 0.0
H2 H 0.06521 0.52821 0.96707 0.0
H3 H 0.12242 0.25462 0.04576 0.0
C4 C 0.06747 0.26474 0.06923 0.0
C5 C -0.03831 0.41597 0.01913 0.0
C6 C -0.0251 0.47099 -0.00642 0.0
C7 C 0.02747 0.37468 0.03606 0.0
C8 C 0.10781 0.38823 0.02678 0.0
C9 C 0.12107 0.44324 0.0014 0.0
C10 C 0.05444 0.48619 -0.01276 0.0
N11 N 0.01031 0.3205 0.06246 0.0
H12 H 0.83148 0.84705 0.03938 0.0
H13 H 0.09503 0.80555 0.02591 0.0
H14 H -0.05042 0.68424 0.95772 0.0
H15 H 0.08182 0.91375 0.0411 0.0
C16 C 0.03455 0.9182 0.06989 0.0
C17 C 0.88699 0.81633 0.02682 0.0
C18 C 0.88214 0.76397 -0.00266 0.0
C19 C -0.03654 0.83167 0.03754 0.0
C20 C 0.03532 0.79384 0.01862 0.0
C21 C 0.03053 0.74062 -0.01028 0.0
C22 C -0.04635 0.72435 0.98096 0.0
N23 N -0.03401 0.88505 0.06755 0.0
H24 H 0.3828 0.90164 0.52512 0.0
H25 H 0.64387 0.85345 0.53324 0.0
H26 H 0.54504 1.02572 0.46383 0.0
H27 H 0.60665 0.75241 0.54275 0.0
C28 C 0.55398 0.76334 0.56788 0.0
C29 C 0.44411 0.91353 0.51823 0.0
C30 C 0.45584 0.96854 0.49215 0.0
C31 C 0.51101 0.87233 0.5341 0.0
C32 C 0.59093 0.8857 0.52293 0.0
C33 C 0.60284 0.94051 0.49701 0.0
C34 C 0.53529 0.98363 0.48419 0.0
N35 N 0.49563 0.81855 0.56158 0.0
H36 H 0.31912 0.34197 0.53651 0.0
H37 H 0.58126 0.2926 0.51711 0.0
H38 H 0.42474 0.17839 0.45158 0.0
H39 H 0.58553 0.34504 0.58299 0.0
C40 C 0.5283 0.37626 0.59122 0.0
C41 C 0.37265 0.31 0.52269 0.0
C42 C 0.36335 0.25906 0.49275 0.0
C43 C 0.45101 0.32087 0.53371 0.0
C44 C 0.5201 0.28217 0.51233 0.0
C45 C 0.51085 0.23079 0.48266 0.0
C46 C 0.43221 0.2175 0.47501 0.0
N47 N 0.45794 0.37165 0.56547 0.0
Zn48 Zn -0.05766 0.22712 0.34518 0.0
Zn49 Zn 0.06135 0.96641 0.35607 0.0
Zn50 Zn 0.00165 0.097 0.35233 0.0
C51 C 0.04891 1.0035 0.26049 0.0
C52 C 0.9057 0.99065 0.40397 0.0
O53 O 0.07883 0.15172 0.39037 0.0
O54 O 0.02444 0.25389 0.38705 0.0
C55 C -0.0064 0.17727 0.25399 0.0
O56 O 0.02613 1.0587 0.27993 0.0
O57 O 0.06821 0.95472 0.28555 0.0
O58 O -0.0366 0.94564 0.39434 0.0
O59 O 0.90994 1.04792 0.38983 0.0
O60 O -0.03489 0.22913 0.27498 0.0
O61 O 0.00721 0.12481 0.27724 0.0
O62 O 0.87723 0.11225 0.38487 0.0
O63 O 0.83236 0.2147 0.37296 0.0
C64 C 0.82066 0.1608 0.38897 0.0
O65 O 0.11167 1.08708 0.39223 0.0
O66 O 0.15833 0.9833 0.3897 0.0
C67 C 0.07848 0.21072 0.40119 0.0
C68 C 0.16467 1.03932 0.40272 0.0
Zn69 Zn 0.46325 0.72976 0.84897 0.0
Zn70 Zn 0.57664 0.472 0.86062 0.0
Zn71 Zn 0.5181 0.59987 0.85542 0.0
C72 C 0.55217 0.50406 0.76513 0.0
C73 C 0.425 0.49586 0.91174 0.0
O74 O 0.5998 0.65322 0.89148 0.0
O75 O 0.54831 0.75603 0.88861 0.0
C76 C 0.50473 0.67957 0.75697 0.0
O77 O 0.53284 0.56061 0.78283 0.0
O78 O 0.5733 0.45685 0.79132 0.0
O79 O 0.48364 0.45134 0.90296 0.0
O80 O 0.42726 0.55242 0.89548 0.0
O81 O 0.48053 0.73174 0.77854 0.0
O82 O 0.51849 0.62681 0.77989 0.0
O83 O 0.3962 0.61723 0.89126 0.0
O84 O 0.35429 0.72018 0.87946 0.0
C85 C 0.34159 0.66695 0.89632 0.0
O86 O 0.63216 0.58854 0.89237 0.0
O87 O 0.67937 0.48494 0.88901 0.0
C88 C 0.6018 0.712 0.90209 0.0
C89 C 0.68662 0.54097 0.90139 0.0
C90 C -0.02467 0.20811 0.12269 0.0
C91 C 0.05461 0.22425 0.11134 0.0
C92 C 0.09961 0.18087 0.1876 0.0
C93 C 0.01648 0.17907 0.2026 0.0
N94 N 0.87479 0.18649 0.18478 0.0
N95 N 0.19449 0.22446 0.1321 0.0
C96 C -0.04574 0.19048 0.16999 0.0
C97 C 0.11818 0.20854 0.14296 0.0
N98 N 0.92121 0.20844 0.08788 0.0
N99 N 0.16042 0.15753 0.21648 0.0
H100 H 0.21151 0.24388 0.09966 0.0
H101 H 0.23996 0.22199 0.15632 0.0
H102 H 0.14866 0.1385 0.24991 0.0
H103 H 0.22253 0.15159 0.20566 0.0
H104 H 0.86483 0.19205 0.09284 0.0
H105 H -0.06333 0.2189 0.05255 0.0
H106 H 0.82508 0.20143 0.16443 0.0
H107 H 0.85837 0.17045 0.21859 0.0
C108 C -0.02375 0.9933 0.13578 0.0
C109 C 0.04475 0.95332 0.11413 0.0
C110 C 0.12318 0.96847 0.18314 0.0
C111 C 0.04956 0.99564 0.20838 0.0
N112 N 0.9032 1.0307 0.20966 0.0
N113 N 0.18494 0.90151 0.11722 0.0
C114 C -0.02457 1.00838 0.18482 0.0
C115 C 0.1194 0.94153 0.13733 0.0
N116 N 0.9127 1.01768 0.10921 0.0
N117 N 0.19659 0.96899 0.20294 0.0
H118 H 0.18552 0.88096 0.08361 0.0
H119 H 0.23707 0.88518 0.13525 0.0
H120 H 0.20091 0.98941 0.23623 0.0
H121 H 0.25309 0.95528 0.18455 0.0
H122 H 0.86467 1.052 0.1221 0.0
H123 H 0.9131 1.00898 0.07273 0.0
H124 H 0.84632 1.03385 0.19503 0.0
H125 H 0.89894 1.04148 0.24587 0.0
C126 C 0.47071 0.70642 0.62664 0.0
C127 C 0.54726 0.72541 0.61195 0.0
C128 C 0.60263 0.6875 0.68732 0.0
C129 C 0.5221 0.68125 0.70505 0.0
N130 N 0.37965 0.68013 0.69242 0.0
N131 N 0.68781 0.73345 0.62749 0.0
C132 C 0.45628 0.68847 0.6747 0.0
C133 C 0.61451 0.7142 0.64153 0.0
N134 N 0.4129 0.70427 0.59422 0.0
N135 N 0.66728 0.66907 0.71478 0.0
H136 H 0.69984 0.75266 0.59419 0.0
H137 H 0.73559 0.73409 0.64983 0.0
H138 H 0.65994 0.65073 0.74891 0.0
H139 H 0.72839 0.66632 0.70235 0.0
H140 H 0.35824 0.68607 0.60155 0.0
H141 H 0.42334 0.71501 0.55841 0.0
H142 H 0.32685 0.69208 0.67403 0.0
H143 H 0.36863 0.66329 0.72672 0.0
C144 C 0.59319 0.45569 0.63593 0.0
C145 C 0.5257 0.42175 0.63155 0.0
C146 C 0.46285 0.46941 0.70645 0.0
C147 C 0.53745 0.49105 0.71533 0.0
N148 N 0.67435 0.50668 0.68938 0.0
N149 N 0.40167 0.38838 0.66788 0.0
C150 C 0.60263 0.48558 0.68001 0.0
C151 C 0.46077 0.42741 0.66763 0.0
N152 N 0.64757 0.45976 0.59785 0.0
N153 N 0.39487 0.48733 0.73618 0.0
H154 H 0.40142 0.35197 0.64319 0.0
H155 H 0.35803 0.38696 0.69604 0.0
H156 H 0.39524 0.51816 0.76502 0.0
H157 H 0.33679 0.4773 0.72917 0.0
H158 H 0.69389 0.48831 0.59765 0.0
H159 H 0.64151 0.43932 0.56482 0.0
H160 H 0.72768 0.49764 0.66723 0.0
H161 H 0.68125 0.53083 0.72081 0.0
C162 C 0.22518 0.43122 0.93343 0.0
C163 C 0.2038 0.45051 0.98128 0.0
C164 C 0.3339 0.49191 -0.01437 0.0
C165 C 0.34936 0.48045 0.93611 0.0
N166 N 0.30645 0.44649 0.86111 0.0
N167 N 0.23358 0.50201 0.05297 0.0
C168 C 0.29417 0.45201 0.90949 0.0
C169 C 0.25717 0.48147 0.00759 0.0
N170 N 0.18061 0.39162 0.91132 0.0
N171 N 0.39315 0.5114 0.01157 0.0
H172 H 0.17854 0.49351 0.07028 0.0
H173 H 0.26615 0.53032 0.07251 0.0
H174 H 0.4494 0.52049 -0.00381 0.0
H175 H 0.38892 0.51465 0.04852 0.0
H176 H 0.19817 0.37085 0.87809 0.0
H177 H 0.13017 0.37441 0.92804 0.0
H178 H 0.26306 0.43311 0.8393 0.0
H179 H 0.35728 0.46019 0.84218 0.0
C180 C 0.74546 0.72465 0.00035 0.0
C181 C 0.80455 0.75699 0.97594 0.0
C182 C 0.73125 0.75855 0.90322 0.0
C183 C 0.67018 0.72873 0.92801 0.0
N184 N 0.60844 0.69556 0.00189 0.0
N185 N 0.84184 0.82071 0.90921 0.0
C186 C 0.67396 0.71538 0.97722 0.0
C187 C 0.79373 0.77895 0.92888 0.0
N188 N 0.75871 0.70166 0.04497 0.0
N189 N 0.73138 0.76527 0.85492 0.0
H190 H 0.88678 0.83836 0.92762 0.0
H191 H 0.83157 0.84293 0.87668 0.0
H192 H 0.68645 0.75085 0.83465 0.0
H193 H 0.77984 0.78004 0.83448 0.0
H194 H 0.72157 0.67256 0.06293 0.0
H195 H 0.8099 0.70884 0.06308 0.0
H196 H 0.60409 0.69104 0.03872 0.0
H197 H 0.55544 0.68788 -0.01424 0.0
C198 C 0.83331 0.5327 -0.00146 0.0
C199 C 0.9055 0.50901 0.97034 0.0
C200 C 0.83484 0.5434 0.89889 0.0
C201 C 0.75976 0.55005 0.92612 0.0
N202 N 0.68468 0.55239 0.00218 0.0
N203 N -0.02794 0.4865 0.89145 0.0
C204 C 0.75807 0.54658 0.97627 0.0
C205 C 0.90657 0.51447 0.91984 0.0
N206 N 0.8369 0.54058 0.04642 0.0
N207 N 0.83636 0.56189 0.85245 0.0
H208 H 0.02392 0.45994 0.90432 0.0
H209 H -0.0286 0.48401 0.85455 0.0
H210 H 0.78334 0.5827 0.83671 0.0
H211 H 0.89061 0.56289 0.83166 0.0
H212 H 0.78707 0.56088 0.06852 0.0
H213 H 0.89209 0.53213 0.06317 0.0
H214 H 0.67933 0.54323 0.03848 0.0
H215 H 0.62869 0.56359 -0.01341 0.0
C216 C 0.17136 0.67811 -0.00707 0.0
C217 C 0.10631 0.70571 0.96538 0.0
C218 C 0.19217 0.67556 0.89289 0.0
C219 C 0.26101 0.66323 0.92042 0.0
N220 N 0.31879 0.65331 -0.00303 0.0
N221 N 0.05913 0.73773 0.88772 0.0
C222 C 0.25141 0.66328 0.97067 0.0
C223 C 0.11696 0.70512 0.91482 0.0
N224 N 0.15647 0.66669 0.04014 0.0
N225 N 0.19986 0.66102 0.84547 0.0
H226 H 0.00558 0.76477 0.90191 0.0
H227 H 0.06842 0.74364 0.85117 0.0
H228 H 0.25524 0.63933 0.82885 0.0
H229 H 0.14989 0.66411 0.82427 0.0
H230 H 0.20046 0.64291 0.06134 0.0
H231 H 0.09777 0.67578 0.05694 0.0
H232 H 0.31611 0.65989 0.03369 0.0
H233 H 0.37818 0.64156 0.98157 0.0
C234 C 0.70279 0.93099 0.4269 0.0
C235 C 0.68486 0.9476 0.47553 0.0
C236 C 0.81817 0.98421 0.47895 0.0
C237 C 0.83009 0.97604 0.42892 0.0
N238 N 0.78013 0.94967 0.35385 0.0
N239 N 0.72191 0.99238 0.5482 0.0
C240 C 0.77139 0.95166 0.40244 0.0
C241 C 0.74177 0.97465 0.50185 0.0
N242 N 0.65582 0.89346 0.40459 0.0
N243 N 0.88028 1.0 0.5044 0.0
H244 H 0.66703 0.98466 0.5661 0.0
H245 H 0.75732 1.01799 0.56808 0.0
H246 H -0.06373 1.00871 0.48841 0.0
H247 H 0.87852 1.00059 0.54138 0.0
H248 H 0.67067 0.87484 0.37045 0.0
H249 H 0.60657 0.87539 0.42197 0.0
H250 H 0.73432 0.93917 0.3326 0.0
H251 H 0.83041 0.96369 0.33451 0.0
C252 C 0.2253 0.22214 0.4978 0.0
C253 C 0.28366 0.25479 0.47299 0.0
C254 C 0.2064 0.25953 0.40166 0.0
C255 C 0.14646 0.22879 0.42679 0.0
N256 N 0.08823 0.19291 0.50073 0.0
N257 N 0.31928 0.31969 0.40664 0.0
C258 C 0.15258 0.21377 0.4756 0.0
C259 C 0.27072 0.27841 0.42657 0.0
N260 N 0.2406 0.19771 0.5418 0.0
N261 N 0.20416 0.26794 0.35357 0.0
H262 H 0.36656 0.33535 0.42422 0.0
H263 H 0.30766 0.34328 0.37476 0.0
H264 H 0.158 0.25462 0.33374 0.0
H265 H 0.25175 0.28318 0.33265 0.0
H266 H 0.20424 0.16809 0.55982 0.0
H267 H 0.29262 0.20437 0.55932 0.0
H268 H 0.08561 0.18693 0.53744 0.0
H269 H 0.03437 0.18598 0.48521 0.0
C270 C 0.38456 1.01411 0.41971 0.0
C271 C 0.38496 1.00663 0.47006 0.0
C272 C 0.23718 1.04319 0.47751 0.0
C273 C 0.2377 1.0486 0.42751 0.0
N274 N 0.31262 1.06479 0.35404 0.0
N275 N 0.31771 1.03565 0.54699 0.0
C276 C 0.31222 1.04393 0.39991 0.0
C277 C 0.31311 1.02899 0.49908 0.0
N278 N 0.44902 0.98703 0.39022 0.0
N279 N 0.16432 1.04789 0.50384 0.0
H280 H 0.37338 1.02722 0.56324 0.0
H281 H 0.26815 1.05515 0.56961 0.0
H282 H 0.108 1.0596 0.48868 0.0
H283 H 0.15984 1.03747 0.53996 0.0
H284 H 0.44723 0.98633 0.35332 0.0
H285 H 0.50071 0.95909 0.40202 0.0
H286 H 0.36648 1.06715 0.33319 0.0
H287 H 0.25912 1.08613 0.33906 0.0
C288 C 0.59526 0.19631 0.40677 0.0
C289 C 0.58447 0.19437 0.45725 0.0
C290 C 0.72949 0.15189 0.46226 0.0
C291 C 0.73979 0.15523 0.41212 0.0
N292 N 0.67978 0.15698 0.33661 0.0
N293 N 0.63359 0.15071 0.53092 0.0
C294 C 0.67119 0.16868 0.38444 0.0
C295 C 0.64913 0.16491 0.48426 0.0
N296 N 0.53689 0.22948 0.3803 0.0
N297 N 0.79638 0.14094 0.48892 0.0
H298 H 0.57454 0.1586 0.54737 0.0
H299 H 0.67736 0.12598 0.55179 0.0
H300 H 0.85616 0.13083 0.47383 0.0
H301 H 0.79289 0.14519 0.52583 0.0
H302 H 0.54636 0.23759 0.34404 0.0
H303 H 0.48205 0.25432 0.39481 0.0
H304 H 0.63021 0.1609 0.31507 0.0
H305 H 0.73565 0.13674 0.31976 0.0
loop_
_geom_bond_atom_site_label_1
_geom_bond_atom_site_label_2
_geom_bond_distance
_geom_bond_site_symmetry_2
_ccdc_geom_bond_type
H0 C5 0.930 1_655 S
H1 C8 0.930 . S
H2 C10 0.930 . S
H3 C4 1.016 . S
C4 H3 1.016 . S
C4 N11 1.286 . S
C5 H0 0.930 1_455 S
C5 C6 1.397 1_554 S
C5 C7 1.361 . S
C6 C5 1.397 1_556 S
C6 C10 1.390 . S
C7 C5 1.361 . S
C7 C8 1.393 . S
C7 N11 1.413 . S
C8 H1 0.930 . S
C8 C7 1.393 . S
C8 C9 1.399 1_554 S
C9 C8 1.399 1_556 S
C9 C10 1.381 . S
C10 H2 0.930 . S
C10 C6 1.390 . S
C10 C9 1.381 . S
N11 C4 1.286 . S
N11 C7 1.413 . S
H12 C17 0.930 . S
H13 C20 0.930 . S
H14 C22 0.930 . S
H15 C16 1.016 . S
C16 H15 1.016 . S
C16 N23 1.286 1_455 S
C17 H12 0.930 . S
C17 C18 1.397 1_554 S
C17 C19 1.361 . S
C18 C17 1.397 1_556 S
C18 C22 1.390 1_655 S
C19 C17 1.361 . S
C19 C20 1.393 1_655 S
C19 N23 1.413 . S
C20 H13 0.930 . S
C20 C19 1.393 1_455 S
C20 C21 1.399 1_554 S
C21 C20 1.399 1_556 S
C21 C22 1.381 . S
C22 H14 0.930 . S
C22 C18 1.390 1_455 S
C22 C21 1.381 . S
N23 C16 1.286 1_655 S
N23 C19 1.413 . S
H24 C29 0.930 . S
H25 C32 0.930 . S
H26 C34 0.930 . S
H27 C28 1.016 . S
C28 H27 1.016 . S
C28 N35 1.286 . S
C29 H24 0.930 . S
C29 C30 1.397 . S
C29 C31 1.361 . S
C30 C29 1.397 . S
C30 C34 1.390 . S
C31 C29 1.361 . S
C31 C32 1.393 . S
C31 N35 1.413 . S
C32 H25 0.930 . S
C32 C31 1.393 . S
C32 C33 1.399 . S
C33 C32 1.399 . S
C33 C34 1.381 . S
C34 H26 0.930 . S
C34 C30 1.390 . S
C34 C33 1.381 . S
N35 C28 1.286 . S
N35 C31 1.413 . S
H36 C41 0.930 . S
H37 C44 0.930 . S
H38 C46 0.930 . S
H39 C40 1.016 . S
C40 H39 1.016 . S
C40 N47 1.286 . S
C41 H36 0.930 . S
C41 C42 1.397 . S
C41 C43 1.361 . S
C42 C41 1.397 . S
C42 C46 1.390 . S
C43 C41 1.361 . S
C43 C44 1.393 . S
C43 N47 1.413 . S
C44 H37 0.930 . S
C44 C43 1.393 . S
C44 C45 1.399 . S
C45 C44 1.399 . S
C45 C46 1.381 . S
C46 H38 0.930 . S
C46 C42 1.390 . S
C46 C45 1.381 . S
N47 C40 1.286 . S
N47 C43 1.413 . S
Zn48 O54 1.920 . S
Zn48 O60 1.898 . S
Zn48 O63 1.905 1_455 S
Zn49 O57 1.905 . S
Zn49 O58 1.898 1_455 S
Zn49 O66 1.920 . S
Zn50 O53 2.080 . S
Zn50 O56 2.114 1_545 S
Zn50 O59 2.120 1_545 S
Zn50 O61 2.120 . S
Zn50 O62 2.114 1_455 S
Zn50 O65 2.080 1_545 S
C51 O56 1.166 . S
C51 O57 1.182 . S
C52 O58 1.167 . S
C52 O59 1.299 1_655 S
O53 Zn50 2.080 . S
O53 C67 1.305 . S
O54 Zn48 1.920 . S
O54 C67 1.234 . S
C55 O60 1.167 . S
C55 O61 1.299 . S
O56 Zn50 2.114 1_565 S
O56 C51 1.166 . S
O57 Zn49 1.905 . S
O57 C51 1.182 . S
O58 Zn49 1.898 1_655 S
O58 C52 1.167 . S
O59 Zn50 2.120 1_565 S
O59 C52 1.299 1_455 S
O60 Zn48 1.898 . S
O60 C55 1.167 . S
O61 Zn50 2.120 . S
O61 C55 1.299 . S
O62 Zn50 2.114 1_655 S
O62 C64 1.166 . S
O63 Zn48 1.905 1_655 S
O63 C64 1.182 . S
C64 O62 1.166 . S
C64 O63 1.182 . S
O65 Zn50 2.080 1_565 S
O65 C68 1.305 . S
O66 Zn49 1.920 . S
O66 C68 1.234 . S
C67 O53 1.305 . S
C67 O54 1.234 . S
C68 O65 1.305 . S
C68 O66 1.234 . S
Zn69 O75 1.920 . S
Zn69 O81 1.898 . S
Zn69 O84 1.905 . S
Zn70 O78 1.905 . S
Zn70 O79 1.898 . S
Zn70 O87 1.920 . S
Zn71 O74 2.080 . S
Zn71 O77 2.114 . S
Zn71 O80 2.120 . S
Zn71 O82 2.120 . S
Zn71 O83 2.114 . S
Zn71 O86 2.080 . S
C72 O77 1.166 . S
C72 O78 1.182 . S
C73 O79 1.167 . S
C73 O80 1.299 . S
O74 Zn71 2.080 . S
O74 C88 1.305 . S
O75 Zn69 1.920 . S
O75 C88 1.234 . S
C76 O81 1.167 . S
C76 O82 1.299 . S
O77 Zn71 2.114 . S
O77 C72 1.166 . S
O78 Zn70 1.905 . S
O78 C72 1.182 . S
O79 Zn70 1.898 . S
O79 C73 1.167 . S
O80 Zn71 2.120 . S
O80 C73 1.299 . S
O81 Zn69 1.898 . S
O81 C76 1.167 . S
O82 Zn71 2.120 . S
O82 C76 1.299 . S
O83 Zn71 2.114 . S
O83 C85 1.166 . S
O84 Zn69 1.905 . S
O84 C85 1.182 . S
C85 O83 1.166 . S
C85 O84 1.182 . S
O86 Zn71 2.080 . S
O86 C89 1.305 . S
O87 Zn70 1.920 . S
O87 C89 1.234 . S
C88 O74 1.305 . S
C88 O75 1.234 . S
C89 O86 1.305 . S
C89 O87 1.234 . S
C90 C91 1.363 . S
C90 C96 1.379 . S
C90 N98 1.356 . S
C91 C90 1.363 . S
C91 C97 1.363 . S
C92 C93 1.363 . S
C92 C97 1.379 . S
C92 N99 1.356 . S
C93 C92 1.363 . S
C93 C96 1.363 . S
N94 C96 1.356 . S
N94 H106 0.984 . S
N94 H107 0.985 . S
N95 C97 1.356 . S
N95 H100 0.984 . S
N95 H101 0.985 . S
C96 C90 1.379 . S
C96 C93 1.363 . S
C96 N94 1.356 . S
C97 C91 1.363 . S
C97 C92 1.379 . S
C97 N95 1.356 . S
N98 C90 1.356 . S
N98 H104 0.984 . S
N98 H105 0.984 . S
N99 C92 1.356 . S
N99 H102 0.984 . S
N99 H103 0.985 . S
H100 N95 0.984 . S
H101 N95 0.985 . S
H102 N99 0.984 . S
H103 N99 0.985 . S
H104 N98 0.984 . S
H105 N98 0.984 . S
H106 N94 0.984 . S
H107 N94 0.985 . S
C108 C109 1.363 1_655 S
C108 C114 1.379 . S
C108 N116 1.356 . S
C109 C108 1.363 1_455 S
C109 C115 1.363 . S
C110 C111 1.363 . S
C110 C115 1.379 . S
C110 N117 1.356 . S
C111 C110 1.363 . S
C111 C114 1.363 1_455 S
N112 C114 1.356 . S
N112 H124 0.984 1_565 S
N112 H125 0.985 . S
N113 C115 1.356 . S
N113 H118 0.984 . S
N113 H119 0.985 . S
C114 C108 1.379 . S
C114 C111 1.363 1_655 S
C114 N112 1.356 . S
C115 C109 1.363 . S
C115 C110 1.379 . S
C115 N113 1.356 . S
N116 C108 1.356 . S
N116 H122 0.984 . S
N116 H123 0.984 . S
N117 C110 1.356 . S
N117 H120 0.984 . S
N117 H121 0.985 . S
H118 N113 0.984 . S
H119 N113 0.985 . S
H120 N117 0.984 . S
H121 N117 0.985 . S
H122 N116 0.984 . S
H123 N116 0.984 . S
H124 N112 0.984 1_545 S
H125 N112 0.985 . S
C126 C127 1.363 . S
C126 C132 1.379 . S
C126 N134 1.356 . S
C127 C126 1.363 . S
C127 C133 1.363 . S
C128 C129 1.363 . S
C128 C133 1.379 . S
C128 N135 1.356 . S
C129 C128 1.363 . S
C129 C132 1.363 . S
N130 C132 1.356 . S
N130 H142 0.984 . S
N130 H143 0.985 . S
N131 C133 1.356 . S
N131 H136 0.984 . S
N131 H137 0.985 . S
C132 C126 1.379 . S
C132 C129 1.363 . S
C132 N130 1.356 . S
C133 C127 1.363 . S
C133 C128 1.379 . S
C133 N131 1.356 . S
N134 C126 1.356 . S
N134 H140 0.984 . S
N134 H141 0.984 . S
N135 C128 1.356 . S
N135 H138 0.984 . S
N135 H139 0.985 . S
H136 N131 0.984 . S
H137 N131 0.985 . S
H138 N135 0.984 . S
H139 N135 0.985 . S
H140 N134 0.984 . S
H141 N134 0.984 . S
H142 N130 0.984 . S
H143 N130 0.985 . S
C144 C145 1.363 . S
C144 C150 1.379 . S
C144 N152 1.356 . S
C145 C144 1.363 . S
C145 C151 1.363 . S
C146 C147 1.363 . S
C146 C151 1.379 . S
C146 N153 1.356 . S
C147 C146 1.363 . S
C147 C150 1.363 . S
N148 C150 1.356 . S
N148 H160 0.984 . S
N148 H161 0.985 . S
N149 C151 1.356 . S
N149 H154 0.984 . S
N149 H155 0.985 . S
C150 C144 1.379 . S
C150 C147 1.363 . S
C150 N148 1.356 . S
C151 C145 1.363 . S
C151 C146 1.379 . S
C151 N149 1.356 . S
N152 C144 1.356 . S
N152 H158 0.984 . S
N152 H159 0.984 . S
N153 C146 1.356 . S
N153 H156 0.984 . S
N153 H157 0.985 . S
H154 N149 0.984 . S
H155 N149 0.985 . S
H156 N153 0.984 . S
H157 N153 0.985 . S
H158 N152 0.984 . S
H159 N152 0.984 . S
H160 N148 0.984 . S
H161 N148 0.985 . S
C162 C163 1.363 . S
C162 C168 1.379 . S
C162 N170 1.356 . S
C163 C162 1.363 . S
C163 C169 1.363 1_556 S
C164 C165 1.376 . S
C164 C169 1.376 1_556 S
C164 N171 1.350 1_556 S
C165 C164 1.376 . S
C165 C168 1.363 . S
N166 C168 1.356 . S
N166 H178 0.984 . S
N166 H179 0.985 . S
N167 C169 1.356 . S
N167 H172 0.984 . S
N167 H173 0.985 . S
C168 C162 1.379 . S
C168 C165 1.363 . S
C168 N166 1.356 . S
C169 C163 1.363 1_554 S
C169 C164 1.376 1_554 S
C169 N167 1.356 . S
N170 C162 1.356 . S
N170 H176 0.984 . S
N170 H177 0.984 . S
N171 C164 1.350 1_554 S
N171 H174 0.984 . S
N171 H175 0.985 . S
H172 N167 0.984 . S
H173 N167 0.985 . S
H174 N171 0.984 . S
H175 N171 0.985 . S
H176 N170 0.984 . S
H177 N170 0.984 . S
H178 N166 0.984 . S
H179 N166 0.985 . S
C180 C181 1.363 1_554 S
C180 C186 1.379 1_554 S
C180 N188 1.356 . S
C181 C180 1.363 1_556 S
C181 C187 1.363 . S
C182 C183 1.363 . S
C182 C187 1.379 . S
C182 N189 1.356 . S
C183 C182 1.363 . S
C183 C186 1.363 . S
N184 C186 1.356 1_554 S
N184 H196 0.984 . S
N184 H197 0.985 1_554 S
N185 C187 1.356 . S
N185 H190 0.984 . S
N185 H191 0.985 . S
C186 C180 1.379 1_556 S
C186 C183 1.363 . S
C186 N184 1.356 1_556 S
C187 C181 1.363 . S
C187 C182 1.379 . S
C187 N185 1.356 . S
N188 C180 1.356 . S
N188 H194 0.984 . S
N188 H195 0.984 . S
N189 C182 1.356 . S
N189 H192 0.984 . S
N189 H193 0.985 . S
H190 N185 0.984 . S
H191 N185 0.985 . S
H192 N189 0.984 . S
H193 N189 0.985 . S
H194 N188 0.984 . S
H195 N188 0.984 . S
H196 N184 0.984 . S
H197 N184 0.985 1_556 S
C198 C199 1.363 . S
C198 C204 1.379 . S
C198 N206 1.356 1_556 S
C199 C198 1.363 . S
C199 C205 1.363 . S
C200 C201 1.363 . S
C200 C205 1.379 . S
C200 N207 1.356 . S
C201 C200 1.363 . S
C201 C204 1.363 . S
N202 C204 1.356 . S
N202 H214 0.984 . S
N202 H215 0.985 . S
N203 C205 1.356 1_455 S
N203 H208 0.984 . S
N203 H209 0.985 . S
C204 C198 1.379 . S
C204 C201 1.363 . S
C204 N202 1.356 . S
C205 C199 1.363 . S
C205 C200 1.379 . S
C205 N203 1.356 1_655 S
N206 C198 1.356 1_554 S
N206 H212 0.984 . S
N206 H213 0.984 1_655 S
N207 C200 1.356 . S
N207 H210 0.984 . S
N207 H211 0.985 . S
H208 N203 0.984 . S
H209 N203 0.985 . S
H210 N207 0.984 . S
H211 N207 0.985 . S
H212 N206 0.984 . S
H213 N206 0.984 1_455 S
H214 N202 0.984 . S
H215 N202 0.985 . S
C216 C217 1.363 . S
C216 C222 1.379 . S
C216 N224 1.356 1_556 S
C217 C216 1.363 . S
C217 C223 1.363 . S
C218 C219 1.363 . S
C218 C223 1.379 . S
C218 N225 1.356 . S
C219 C218 1.363 . S
C219 C222 1.363 . S
N220 C222 1.356 . S
N220 H232 0.984 . S
N220 H233 0.985 . S
N221 C223 1.356 . S
N221 H226 0.984 . S
N221 H227 0.985 . S
C222 C216 1.379 . S
C222 C219 1.363 . S
C222 N220 1.356 . S
C223 C217 1.363 . S
C223 C218 1.379 . S
C223 N221 1.356 . S
N224 C216 1.356 1_554 S
N224 H230 0.984 . S
N224 H231 0.984 . S
N225 C218 1.356 . S
N225 H228 0.984 . S
N225 H229 0.985 . S
H226 N221 0.984 . S
H227 N221 0.985 . S
H228 N225 0.984 . S
H229 N225 0.985 . S
H230 N224 0.984 . S
H231 N224 0.984 . S
H232 N220 0.984 . S
H233 N220 0.985 . S
C234 C235 1.363 . S
C234 C240 1.379 . S
C234 N242 1.356 . S
C235 C234 1.363 . S
C235 C241 1.363 . S
C236 C237 1.363 . S
C236 C241 1.379 . S
C236 N243 1.356 . S
C237 C236 1.363 . S
C237 C240 1.363 . S
N238 C240 1.356 . S
N238 H250 0.984 1_655 S
N238 H251 0.985 1_655 S
N239 C241 1.356 . S
N239 H244 0.984 . S
N239 H245 0.985 . S
C240 C234 1.379 . S
C240 C237 1.363 . S
C240 N238 1.356 . S
C241 C235 1.363 . S
C241 C236 1.379 . S
C241 N239 1.356 . S
N242 C234 1.356 . S
N242 H248 0.984 . S
N242 H249 0.984 . S
N243 C236 1.356 . S
N243 H246 0.984 . S
N243 H247 0.985 . S
H244 N239 0.984 . S
H245 N239 0.985 . S
H246 N243 0.984 . S
H247 N243 0.985 . S
H248 N242 0.984 . S
H249 N242 0.984 . S
H250 N238 0.984 1_455 S
H251 N238 0.985 1_455 S
C252 C253 1.363 . S
C252 C258 1.379 . S
C252 N260 1.356 . S
C253 C252 1.363 . S
C253 C259 1.363 . S
C254 C255 1.363 . S
C254 C259 1.379 . S
C254 N261 1.356 . S
C255 C254 1.363 . S
C255 C258 1.363 . S
N256 C258 1.356 . S
N256 H268 0.984 . S
N256 H269 0.985 . S
N257 C259 1.356 . S
N257 H262 0.984 . S
N257 H263 0.985 . S
C258 C252 1.379 . S
C258 C255 1.363 . S
C258 N256 1.356 . S
C259 C253 1.363 . S
C259 C254 1.379 . S
C259 N257 1.356 . S
N260 C252 1.356 . S
N260 H266 0.984 . S
N260 H267 0.984 . S
N261 C254 1.356 . S
N261 H264 0.984 . S
N261 H265 0.985 . S
H262 N257 0.984 . S
H263 N257 0.985 . S
H264 N261 0.984 . S
H265 N261 0.985 . S
H266 N260 0.984 . S
H267 N260 0.984 . S
H268 N256 0.984 . S
H269 N256 0.985 . S
C270 C271 1.363 . S
C270 C276 1.379 . S
C270 N278 1.356 . S
C271 C270 1.363 . S
C271 C277 1.363 . S
C272 C273 1.363 . S
C272 C277 1.379 . S
C272 N279 1.356 . S
C273 C272 1.363 . S
C273 C276 1.363 . S
N274 C276 1.356 . S
N274 H286 0.984 . S
N274 H287 0.985 . S
N275 C277 1.356 . S
N275 H280 0.984 . S
N275 H281 0.985 . S
C276 C270 1.379 . S
C276 C273 1.363 . S
C276 N274 1.356 . S
C277 C271 1.363 . S
C277 C272 1.379 . S
C277 N275 1.356 . S
N278 C270 1.356 . S
N278 H284 0.984 . S
N278 H285 0.984 . S
N279 C272 1.356 . S
N279 H282 0.984 . S
N279 H283 0.985 . S
H280 N275 0.984 . S
H281 N275 0.985 . S
H282 N279 0.984 . S
H283 N279 0.985 . S
H284 N278 0.984 . S
H285 N278 0.984 . S
H286 N274 0.984 . S
H287 N274 0.985 . S
C288 C289 1.363 . S
C288 C294 1.379 . S
C288 N296 1.356 . S
C289 C288 1.363 . S
C289 C295 1.363 . S
C290 C291 1.363 . S
C290 C295 1.379 . S
C290 N297 1.356 . S
C291 C290 1.363 . S
C291 C294 1.363 . S
N292 C294 1.356 . S
N292 H304 0.984 . S
N292 H305 0.985 . S
N293 C295 1.356 . S
N293 H298 0.984 . S
N293 H299 0.985 . S
C294 C288 1.379 . S
C294 C291 1.363 . S
C294 N292 1.356 . S
C295 C289 1.363 . S
C295 C290 1.379 . S
C295 N293 1.356 . S
N296 C288 1.356 . S
N296 H302 0.984 . S
N296 H303 0.984 . S
N297 C290 1.356 . S
N297 H300 0.984 . S
N297 H301 0.985 . S
H298 N293 0.984 . S
H299 N293 0.985 . S
H300 N297 0.984 . S
H301 N297 0.985 . S
H302 N296 0.984 . S
H303 N296 0.984 . S
H304 N292 0.984 . S
H305 N292 0.985 . S
C93 C55 1.431 . S
C91 C4 1.539 . S
C111 C51 1.419 . S
C109 C16 1.498 . S
C129 C76 1.431 . S
C127 C28 1.539 . S
C145 C40 1.498 . S
C147 C72 1.419 . S
C163 C9 1.355 . S
C165 C73 1.188 . S
C183 C88 1.197 . S
C181 C18 1.372 . S
C199 C6 1.683 1_655 S
C201 C89 1.540 . S
C219 C85 1.566 . S
C217 C21 1.699 . S
C237 C52 1.188 . S
C235 C33 1.355 . S
C253 C42 1.372 . S
C255 C67 1.197 . S
C273 C68 1.540 . S
C271 C30 1.683 . S
C291 C64 1.566 . S
C289 C45 1.699 . S
