# Generated by pormake.
# Topology zzz, (3,6)-cn, num edge types: 1
# Building blocks:
#     Node 0, Type 0, BuildingBlock: BETDAH_clean_linker_0, # of connection points: 3
#     Node 1, Type 0, BuildingBlock: BETDAH_clean_linker_0, # of connection points: 3
#     Node 2, Type 0, BuildingBlock: BETDAH_clean_linker_0, # of connection points: 3
#     Node 3, Type 0, BuildingBlock: BETDAH_clean_linker_0, # of connection points: 3
#     Node 4, Type 0, BuildingBlock: BETDAH_clean_linker_0, # of connection points: 3
#     Node 5, Type 0, BuildingBlock: BETDAH_clean_linker_0, # of connection points: 3
#     Node 6, Type 0, BuildingBlock: BETDAH_clean_linker_0, # of connection points: 3
#     Node 7, Type 0, BuildingBlock: BETDAH_clean_linker_0, # of connection points: 3
#     Node 8, Type 1, BuildingBlock: PAMTOO_clean_sbu_0, # of connection points: 6
#     Node 9, Type 1, BuildingBlock: PAMTOO_clean_sbu_0, # of connection points: 6
#     Node 10, Type 1, BuildingBlock: PAMTOO_clean_sbu_0, # of connection points: 6
#     Node 11, Type 1, BuildingBlock: PAMTOO_clean_sbu_0, # of connection points: 6
#     Edge 12, Type (0, 1), BuildingBlock: ZUJKAS_clean_linker_0, # of connection points: 2
#     Edge 13, Type (0, 1), BuildingBlock: ZUJKAS_clean_linker_0, # of connection points: 2
#     Edge 14, Type (0, 1), BuildingBlock: ZUJKAS_clean_linker_0, # of connection points: 2
#     Edge 15, Type (0, 1), BuildingBlock: ZUJKAS_clean_linker_0, # of connection points: 2
#     Edge 16, Type (0, 1), BuildingBlock: ZUJKAS_clean_linker_0, # of connection points: 2
#     Edge 17, Type (0, 1), BuildingBlock: ZUJKAS_clean_linker_0, # of connection points: 2
#     Edge 18, Type (0, 1), BuildingBlock: ZUJKAS_clean_linker_0, # of connection points: 2
#     Edge 19, Type (0, 1), BuildingBlock: ZUJKAS_clean_linker_0, # of connection points: 2
#     Edge 20, Type (0, 1), BuildingBlock: ZUJKAS_clean_linker_0, # of connection points: 2
#     Edge 21, Type (0, 1), BuildingBlock: ZUJKAS_clean_linker_0, # of connection points: 2
#     Edge 22, Type (0, 1), BuildingBlock: ZUJKAS_clean_linker_0, # of connection points: 2
#     Edge 23, Type (0, 1), BuildingBlock: ZUJKAS_clean_linker_0, # of connection points: 2
#     Edge 24, Type (0, 1), BuildingBlock: ZUJKAS_clean_linker_0, # of connection points: 2
#     Edge 25, Type (0, 1), BuildingBlock: ZUJKAS_clean_linker_0, # of connection points: 2
#     Edge 26, Type (0, 1), BuildingBlock: ZUJKAS_clean_linker_0, # of connection points: 2
#     Edge 27, Type (0, 1), BuildingBlock: ZUJKAS_clean_linker_0, # of connection points: 2
#     Edge 28, Type (0, 1), BuildingBlock: ZUJKAS_clean_linker_0, # of connection points: 2
#     Edge 29, Type (0, 1), BuildingBlock: ZUJKAS_clean_linker_0, # of connection points: 2
#     Edge 30, Type (0, 1), BuildingBlock: ZUJKAS_clean_linker_0, # of connection points: 2
#     Edge 31, Type (0, 1), BuildingBlock: ZUJKAS_clean_linker_0, # of connection points: 2
#     Edge 32, Type (0, 1), BuildingBlock: ZUJKAS_clean_linker_0, # of connection points: 2
#     Edge 33, Type (0, 1), BuildingBlock: ZUJKAS_clean_linker_0, # of connection points: 2
#     Edge 34, Type (0, 1), BuildingBlock: ZUJKAS_clean_linker_0, # of connection points: 2
#     Edge 35, Type (0, 1), BuildingBlock: ZUJKAS_clean_linker_0, # of connection points: 2
# Relax obj value: 0.187
# Max RMSD: 0.230
# Mean RMSD: 0.120
data_MOF--net-zzz--node1-PAMTOO_clean_sbu_0--node2-BETDAH_clean_linker_0--edge1-ZUJKAS_clean_linker_0
_symmetry_space_group_name_H-M    P1
_symmetry_Int_Tables_number       1
_symmetry_cell_setting            triclinic
loop_
_symmetry_equiv_pos_as_xyz
'x, y, z'
_cell_length_a     72.372617
_cell_length_b     64.841895
_cell_length_c     20.807685
_cell_angle_alpha  90.872865
_cell_angle_beta   82.550978
_cell_angle_gamma 86.023148
loop_
_atom_site_label
_atom_site_type_symbol
_atom_site_fract_x
_atom_site_fract_y
_atom_site_fract_z
_atom_type_partial_charge
H0 H 0.83053 0.50685 0.36534 0.0
H1 H 0.77413 0.50895 0.32276 0.0
H2 H 0.78532 0.52445 0.51587 0.0
C3 C 0.81569 0.50969 0.38137 0.0
C4 C 0.80965 0.51605 0.44581 0.0
C5 C 0.80292 0.50696 0.33728 0.0
C6 C 0.78381 0.51103 0.35736 0.0
C7 C 0.77719 0.51729 0.42167 0.0
C8 C 0.79024 0.51959 0.46619 0.0
N9 N 0.75762 0.52131 0.44206 0.0
C10 C 0.74387 0.51975 0.40079 0.0
H11 H 0.99399 0.77986 0.34994 0.0
H12 H 1.00346 0.71872 0.26688 0.0
H13 H 0.0169 0.73087 0.45942 0.0
C14 C 0.99797 0.76358 0.35513 0.0
C15 C 1.0051 0.75712 0.41145 0.0
C16 C 0.99757 0.7498 0.30301 0.0
C17 C 1.00354 0.72901 0.30809 0.0
C18 C 1.01011 0.72179 0.36495 0.0
C19 C 1.01123 0.73608 0.4163 0.0
N20 N 0.01611 0.70051 0.37053 0.0
C21 C 0.01552 0.68532 0.32227 0.0
H22 H 0.72851 0.00817 0.23728 0.0
H23 H 0.78607 -0.00064 0.15594 0.0
H24 H 0.76975 0.98853 0.35937 0.0
C25 C 0.74297 0.00444 0.2441 0.0
C26 C 0.7472 -0.00137 0.30537 0.0
C27 C 0.75685 0.00463 0.19057 0.0
C28 C 0.77551 -0.00079 0.19779 0.0
C29 C 0.78044 0.99366 0.25879 0.0
C30 C 0.76611 0.99303 0.31236 0.0
N31 N 0.79954 0.98867 0.26736 0.0
C32 C 0.815 0.98998 0.21945 0.0
H33 H 0.53601 0.67939 0.15327 0.0
H34 H 0.53065 0.74077 0.08031 0.0
H35 H 0.55362 0.7302 0.25965 0.0
C36 C 0.53813 0.69573 0.15792 0.0
C37 C 0.54567 0.70301 0.2118 0.0
C38 C 0.53257 0.70923 0.1111 0.0
C39 C 0.53495 0.73044 0.11688 0.0
C40 C 0.54283 0.73811 0.17023 0.0
C41 C 0.54783 0.72433 0.2181 0.0
N42 N 0.54587 0.75945 0.17762 0.0
C43 C 0.54291 0.77469 0.13259 0.0
H44 H 0.2168 0.48761 0.07413 0.0
H45 H 0.27326 0.48203 0.11576 0.0
H46 H 0.26127 0.46971 0.92117 0.0
C47 C 0.23151 0.48389 0.05761 0.0
C48 C 0.23727 0.47864 -0.00788 0.0
C49 C 0.24444 0.48508 0.10186 0.0
C50 C 0.26346 0.48083 0.08096 0.0
C51 C 0.26976 0.47505 0.01596 0.0
C52 C 0.25653 0.47382 0.97156 0.0
N53 N 0.28925 0.47084 -0.00547 0.0
C54 C 0.30315 0.47266 0.03494 0.0
H55 H 0.01896 0.22425 0.11041 0.0
H56 H 0.03009 0.28398 0.1816 0.0
H57 H 0.04714 0.26629 0.98053 0.0
C58 C 0.02429 0.23933 0.10153 0.0
C59 C 0.03279 0.24357 0.03932 0.0
C60 C 0.02342 0.25374 0.15298 0.0
C61 C 0.03088 0.27292 0.14167 0.0
C62 C 0.03933 0.27774 0.07946 0.0
C63 C 0.04046 0.26283 0.02842 0.0
N64 N 0.04685 0.2973 0.06743 0.0
C65 C 0.04607 0.31309 0.11456 0.0
H66 H 0.31991 0.99471 0.20905 0.0
H67 H 0.26179 0.00226 0.28273 0.0
H68 H 0.27987 0.01171 0.07956 0.0
C69 C 0.30559 0.99788 0.19978 0.0
C70 C 0.30194 0.00282 0.13707 0.0
C71 C 0.29125 0.99757 0.25173 0.0
C72 C 0.27271 0.00246 0.24196 0.0
C73 C 0.26837 0.00745 0.17978 0.0
C74 C 0.28312 0.00785 0.1275 0.0
N75 N 0.24944 0.012 0.16857 0.0
C76 C 0.23363 0.01085 0.21501 0.0
H77 H 0.51643 0.31576 0.24859 0.0
H78 H 0.51279 0.25753 0.34402 0.0
H79 H 0.49366 0.26543 0.15691 0.0
C80 C 0.51289 0.29976 0.24875 0.0
C81 C 0.50489 0.29206 0.19672 0.0
C82 C 0.51587 0.28746 0.30174 0.0
C83 C 0.51069 0.26694 0.30267 0.0
C84 C 0.50284 0.25876 0.2499 0.0
C85 C 0.49988 0.27151 0.19721 0.0
N86 N 0.49755 0.23801 0.24823 0.0
C87 C 0.50093 0.22295 0.29339 0.0
Dy88 Dy 1.01229 0.00963 0.65533 0.0
Dy89 Dy 0.03469 0.99209 0.77005 0.0
C90 C 0.05744 0.00435 0.63641 0.0
O91 O 1.00791 0.97569 0.65366 0.0
O92 O 0.03344 0.96516 0.70212 0.0
O93 O 1.01065 0.01521 0.55394 0.0
O94 O 0.98737 0.02494 0.62607 0.0
O95 O 1.00465 0.98551 0.79945 0.0
O96 O 0.9915 0.01178 0.7459 0.0
O97 O 0.02958 0.02603 0.79414 0.0
O98 O 0.02409 0.03764 0.69429 0.0
O99 O 0.03659 0.98836 0.87205 0.0
O100 O 0.05794 0.97371 0.8002 0.0
C101 C 0.01988 0.96096 0.66883 0.0
O102 O 0.04211 0.00219 0.60981 0.0
O103 O 0.05688 0.00504 0.69982 0.0
C104 C 0.99545 0.04809 0.54469 0.0
C105 C 0.99461 0.09076 0.52151 0.0
C106 C 1.01089 0.08017 0.53785 0.0
C107 C 1.01128 0.05907 0.54959 0.0
C108 C 0.9793 0.05844 0.52708 0.0
C109 C 0.97888 0.07963 0.51538 0.0
C110 C 0.99507 0.02673 0.5666 0.0
C111 C 0.99012 0.99805 0.79163 0.0
C112 C 0.02763 0.0412 0.75371 0.0
C113 C 0.04562 0.95368 0.88487 0.0
C114 C 0.03477 0.91526 0.93063 0.0
C115 C 0.02699 0.92426 0.87855 0.0
C116 C 0.03229 0.9433 0.85624 0.0
C117 C 0.05383 0.94466 0.93595 0.0
C118 C 0.04843 0.92545 0.95877 0.0
C119 C 0.0502 0.97398 0.86044 0.0
H120 H 0.02335 0.0882 0.54179 0.0
H121 H 0.02383 0.05144 0.5641 0.0
H122 H 0.96685 0.05027 0.52432 0.0
H123 H 0.9661 0.08741 0.5033 0.0
H124 H 0.01669 0.91663 0.85519 0.0
H125 H 0.02577 0.95004 0.81682 0.0
H126 H 0.06413 0.95252 0.95853 0.0
H127 H 0.05456 0.91885 -0.00069 0.0
Dy128 Dy 0.51788 0.98741 0.65301 0.0
Dy129 Dy 0.5306 0.0111 0.77702 0.0
C130 C 0.51773 0.03647 0.6575 0.0
O131 O 0.54777 0.99386 0.61988 0.0
O132 O 0.55726 0.99709 0.7201 0.0
O133 O 0.51369 0.98565 0.55213 0.0
O134 O 0.50627 0.9606 0.61581 0.0
O135 O 0.52461 0.97905 0.80751 0.0
O136 O 0.53188 0.9629 0.70877 0.0
O137 O 0.4993 0.0166 0.79519 0.0
O138 O 0.49214 0.99098 0.72682 0.0
O139 O 0.53621 0.01098 0.87649 0.0
O140 O 0.54157 0.03774 0.81855 0.0
C141 C 0.5612 0.99487 0.65668 0.0
O142 O 0.50847 0.02071 0.64307 0.0
O143 O 0.52969 0.03468 0.6997 0.0
C144 C 0.48506 0.97131 0.54607 0.0
C145 C 0.44689 0.97371 0.53127 0.0
C146 C 0.454 0.98853 0.56947 0.0
C147 C 0.4729 0.98734 0.57672 0.0
C148 C 0.47815 0.9566 0.50723 0.0
C149 C 0.45917 0.95786 0.49954 0.0
C150 C 0.50438 0.96915 0.56055 0.0
C151 C 0.52938 0.96213 0.77227 0.0
C152 C 0.48711 0.00485 0.77387 0.0
C153 C 0.56399 0.02685 0.88439 0.0
C154 C 0.60212 0.02546 0.89955 0.0
C155 C 0.59507 0.00946 0.86594 0.0
C156 C 0.57619 0.01013 0.85856 0.0
C157 C 0.57087 0.04281 0.9184 0.0
C158 C 0.58982 0.04208 0.92627 0.0
C159 C 0.54452 0.02816 0.87116 0.0
H160 H 0.44495 0.0011 0.59364 0.0
H161 H 0.47798 -0.00124 0.60734 0.0
H162 H 0.48733 0.94398 0.48398 0.0
H163 H 0.45403 0.94618 0.47003 0.0
H164 H 0.60413 0.99629 0.84581 0.0
H165 H 0.57115 0.99763 0.83215 0.0
H166 H 0.56167 0.05593 0.93803 0.0
H167 H 0.59493 0.05466 0.95218 0.0
Dy168 Dy 0.54409 0.50192 0.74699 0.0
Dy169 Dy 0.50132 0.50024 0.69324 0.0
C170 C 0.51315 0.47372 0.81578 0.0
O171 O 0.54323 0.47256 0.69072 0.0
O172 O 0.52293 0.48364 0.62101 0.0
O173 O 0.56865 0.48589 0.77764 0.0
O174 O 0.5675 0.51904 0.7675 0.0
O175 O 0.51452 0.52706 0.64598 0.0
O176 O 0.54573 0.51852 0.65204 0.0
O177 O 0.49601 0.52078 0.78205 0.0
O178 O 0.52614 0.52792 0.79772 0.0
O179 O 0.47498 0.51439 0.6694 0.0
O180 O 0.4813 0.48137 0.6565 0.0
C181 C 0.53524 0.46974 0.63851 0.0
O182 O 0.52647 0.48594 0.82471 0.0
O183 O 0.50378 0.47529 0.76563 0.0
C184 C 0.5884 0.50452 0.83777 0.0
C185 C 0.6113 0.50689 0.93863 0.0
C186 C 0.59181 0.50548 0.95304 0.0
C187 C 0.58047 0.50424 0.90307 0.0
C188 C 0.6077 0.50622 0.82343 0.0
C189 C 0.61899 0.50738 0.87298 0.0
C190 C 0.57728 0.50268 0.78307 0.0
C191 C 0.53229 0.52997 0.6295 0.0
C192 C 0.50789 0.53162 0.80876 0.0
C193 C 0.45929 0.49708 0.59154 0.0
C194 C 0.43668 0.49447 0.48958 0.0
C195 C 0.45407 0.48293 0.4863 0.0
C196 C 0.46522 0.48419 0.53665 0.0
C197 C 0.4422 0.50892 0.59418 0.0
C198 C 0.43107 0.50767 0.5441 0.0
C199 C 0.46943 0.49698 0.64944 0.0
H200 H 0.58537 0.50493 0.00288 0.0
H201 H 0.5656 0.5029 0.91536 0.0
H202 H 0.61413 0.50655 0.77347 0.0
H203 H 0.6338 0.50885 0.85967 0.0
H204 H 0.45906 0.47282 0.4449 0.0
H205 H 0.47829 0.47478 0.53314 0.0
H206 H 0.43714 0.51877 0.63623 0.0
H207 H 0.41772 0.51656 0.54938 0.0
Dy208 Dy 0.02955 0.51664 0.67508 0.0
Dy209 Dy 0.01638 0.48082 0.77435 0.0
C210 C 0.03021 0.46997 0.6236 0.0
O211 O 1.00033 0.51224 0.65555 0.0
O212 O 0.98978 0.49768 0.75181 0.0
O213 O 0.034 0.5305 0.581 0.0
O214 O 0.04074 0.54659 0.66597 0.0
O215 O 0.02244 0.50805 0.83393 0.0
O216 O 1.01401 0.53249 0.76457 0.0
O217 O 0.04756 0.47506 0.76305 0.0
O218 O 0.05485 0.50669 0.72245 0.0
O219 O 1.00875 0.471 0.87242 0.0
O220 O 1.00655 0.45035 0.79192 0.0
C221 C 0.98658 0.50618 0.69692 0.0
O222 O 0.03905 0.48704 0.61924 0.0
O223 O 0.01834 0.46656 0.6749 0.0
C224 C 0.06229 0.54713 0.57258 0.0
C225 C 0.10115 0.5474 0.53681 0.0
C226 C 0.09152 0.53033 0.52084 0.0
C227 C 0.07234 0.53012 0.5389 0.0
C228 C 0.07167 0.56463 0.58589 0.0
C229 C 0.09097 0.56478 0.56814 0.0
C230 C 0.04296 0.54537 0.60285 0.0
C231 C 0.01717 0.52727 0.82298 0.0
C232 C 0.05972 0.48898 0.74795 0.0
C233 C 0.98109 0.45403 0.87348 0.0
C234 C 0.94191 0.45367 0.89271 0.0
C235 C 0.95045 0.47245 0.89019 0.0
C236 C 0.96979 0.47264 0.88061 0.0
C237 C 0.97267 0.43517 0.87733 0.0
C238 C 0.95315 0.43497 0.88741 0.0
C239 C 1.00125 0.4547 0.85307 0.0
H240 H 0.09886 0.51692 0.49505 0.0
H241 H 0.06556 0.5163 0.52849 0.0
H242 H 0.06419 0.5778 0.6126 0.0
H243 H 0.09799 0.57816 0.58104 0.0
H244 H 0.94216 0.4871 0.89566 0.0
H245 H 0.97588 0.48744 0.87708 0.0
H246 H 0.98115 0.42066 0.87088 0.0
H247 H 0.94686 0.42029 0.88959 0.0
H248 H 0.22866 0.01238 0.34725 0.0
H249 H 0.19906 0.01097 0.41976 0.0
H250 H 0.16954 0.00653 0.25344 0.0
H251 H 0.19911 0.0076 0.18134 0.0
H252 H 0.16692 0.03662 0.43369 0.0
H253 H 0.15018 0.95864 0.35741 0.0
H254 H 0.17291 0.96825 0.33573 0.0
H255 H 0.15396 0.97585 0.29105 0.0
C256 C 0.21584 0.01095 0.32637 0.0
C257 C 0.21618 0.00992 0.25872 0.0
C258 C 0.1989 0.0102 0.36781 0.0
C259 C 0.18193 0.00825 0.34251 0.0
C260 C 0.18236 0.00749 0.27464 0.0
H261 H 0.06431 0.00331 0.50296 0.0
H262 H 0.09426 0.00477 0.43388 0.0
C263 C 0.19927 0.00823 0.23333 0.0
C264 C 0.1638 0.0075 0.38674 0.0
H265 H 0.12597 0.97875 0.42327 0.0
C266 C 0.15805 0.02387 0.43163 0.0
C267 C 0.15205 0.99094 0.38443 0.0
C268 C 0.15764 0.97232 0.34004 0.0
C269 C 0.14085 0.0244 0.47271 0.0
C270 C 0.12905 0.00789 0.47015 0.0
C271 C 0.13485 0.99148 0.42546 0.0
C272 C 0.11067 0.00733 0.51306 0.0
C273 C 0.13524 0.04299 0.51718 0.0
C274 C 0.10969 0.00806 0.58108 0.0
C275 C 0.0925 0.00726 0.62091 0.0
C276 C 0.07576 0.00555 0.59394 0.0
C277 C 0.0768 0.00468 0.5258 0.0
C278 C 0.094 0.00548 0.48604 0.0
H279 H 0.14294 0.05659 0.50065 0.0
H280 H 0.12002 0.04728 0.52043 0.0
H281 H 0.13854 0.0393 0.5665 0.0
H282 H 0.12229 0.00899 0.6036 0.0
H283 H 0.09238 0.00782 0.673 0.0
H284 H 0.49008 0.22051 0.42284 0.0
H285 H 0.49317 0.18971 0.48959 0.0
H286 H 0.52015 0.15474 0.32112 0.0
H287 H 0.5173 0.18553 0.25502 0.0
H288 H 0.47879 0.15185 0.47831 0.0
H289 H 0.55603 0.14167 0.45171 0.0
H290 H 0.54372 0.16511 0.4295 0.0
H291 H 0.54703 0.14287 0.37535 0.0
C292 C 0.49689 0.20628 0.40055 0.0
C293 C 0.50367 0.20534 0.33421 0.0
C294 C 0.49858 0.18868 0.43852 0.0
C295 C 0.50716 0.16991 0.41075 0.0
C296 C 0.51389 0.16909 0.34418 0.0
H297 H 0.49629 0.04554 0.56027 0.0
H298 H 0.49323 0.07802 0.50291 0.0
C299 C 0.5122 0.18665 0.30636 0.0
C300 C 0.50855 0.151 0.4506 0.0
H301 H 0.53956 0.11339 0.49538 0.0
C302 C 0.4921 0.14352 0.48235 0.0
C303 C 0.5259 0.14019 0.4567 0.0
C304 C 0.54419 0.14796 0.42706 0.0
C305 C 0.49248 0.12534 0.51863 0.0
C306 C 0.50978 0.11407 0.52251 0.0
C307 C 0.52626 0.12183 0.49197 0.0
C308 C 0.51118 0.09434 0.55848 0.0
C309 C 0.47436 0.1186 0.55328 0.0
C310 C 0.5226 0.09239 0.60808 0.0
C311 C 0.52451 0.07374 0.64062 0.0
C312 C 0.51511 0.0565 0.62425 0.0
C313 C 0.50364 0.05849 0.57462 0.0
C314 C 0.50178 0.07715 0.54194 0.0
H315 H 0.46347 0.13166 0.5611 0.0
H316 H 0.46909 0.10655 0.52334 0.0
H317 H 0.47635 0.11196 0.60098 0.0
H318 H 0.53007 0.10534 0.62169 0.0
H319 H 0.53349 0.07285 0.67844 0.0
H320 H 0.32835 0.44311 0.06802 0.0
H321 H 0.35143 0.44685 0.14371 0.0
H322 H 0.33265 0.51125 0.17482 0.0
H323 H 0.30939 0.50735 0.10014 0.0
H324 H 0.38087 0.47124 0.14171 0.0
H325 H 0.3299 0.49194 0.35923 0.0
H326 H 0.32299 0.4818 0.28542 0.0
H327 H 0.32732 0.50868 0.29264 0.0
C328 C 0.32918 0.45802 0.09124 0.0
C329 C 0.31711 0.47493 0.0786 0.0
C330 C 0.34238 0.46018 0.13442 0.0
C331 C 0.34367 0.47926 0.16615 0.0
C332 C 0.33172 0.49624 0.15243 0.0
H333 H 0.41374 0.52463 0.44153 0.0
H334 H 0.39194 0.5207 0.36247 0.0
C335 C 0.31852 0.49407 0.10935 0.0
C336 C 0.3576 0.48143 0.21285 0.0
H337 H 0.36183 0.49578 0.3691 0.0
C338 C 0.37667 0.4765 0.19151 0.0
C339 C 0.35224 0.48829 0.27808 0.0
C340 C 0.33199 0.49279 0.30551 0.0
C341 C 0.39045 0.47864 0.23288 0.0
C342 C 0.38508 0.48562 0.29793 0.0
C343 C 0.36602 0.49051 0.31929 0.0
C344 C 0.39894 0.48797 0.34472 0.0
C345 C 0.4107 0.47388 0.20606 0.0
C346 C 0.4102 0.47089 0.36171 0.0
C347 C 0.42265 0.47304 0.40753 0.0
C348 C 0.42412 0.49235 0.43791 0.0
C349 C 0.4129 0.50945 0.42021 0.0
C350 C 0.40044 0.50726 0.37458 0.0
H351 H 0.41287 0.47396 0.15221 0.0
H352 H 0.41964 0.48521 0.22478 0.0
H353 H 0.41538 0.45826 0.22136 0.0
H354 H 0.40908 0.45573 0.3406 0.0
H355 H 0.43071 0.4594 0.42046 0.0
H356 H 0.03125 0.35237 0.10867 0.0
H357 H 0.02974 0.38008 0.19161 0.0
H358 H 0.05708 0.33818 0.31446 0.0
H359 H 0.05874 0.31058 0.23113 0.0
H360 H 1.01236 0.3822 0.3165 0.0
H361 H 0.08839 0.38793 0.31596 0.0
H362 H 0.0789 0.37419 0.25308 0.0
H363 H 0.0812 0.36223 0.32935 0.0
C364 C 0.03701 0.34918 0.15331 0.0
C365 C 0.04522 0.32947 0.16359 0.0
C366 C 0.03614 0.36499 0.2007 0.0
C367 C 0.04358 0.36142 0.25909 0.0
C368 C 0.05164 0.34155 0.26938 0.0
H369 H 0.0159 0.43204 0.62055 0.0
H370 H 0.01948 0.40665 0.53142 0.0
C371 C 0.05249 0.32574 0.22199 0.0
C372 C 0.04232 0.37822 0.30993 0.0
H373 H 0.06838 0.40566 0.40249 0.0
C374 C 0.02463 0.38737 0.33501 0.0
C375 C 0.05832 0.38532 0.33363 0.0
C376 C 0.07779 0.37708 0.30623 0.0
C377 C 0.02246 0.40291 0.38402 0.0
C378 C 0.03839 0.40934 0.4098 0.0
C379 C 0.05613 0.40063 0.38345 0.0
C380 C 0.03682 0.42478 0.46484 0.0
C381 C 1.00308 0.41245 0.40715 0.0
C382 C 0.04595 0.44325 0.45846 0.0
C383 C 0.04406 0.45788 0.50996 0.0
C384 C 0.03306 0.45429 0.56915 0.0
C385 C 0.02433 0.43553 0.5757 0.0
C386 C 0.02627 0.42097 0.52443 0.0
H387 H 0.99346 0.41051 0.37033 0.0
H388 H 0.99733 0.40469 0.45175 0.0
H389 H 1.00331 0.42921 0.41867 0.0
H390 H 0.0543 0.44652 0.41321 0.0
H391 H 0.05103 0.47208 0.50308 0.0
H392 H 0.83146 0.9601 0.13358 0.0
H393 H 0.86107 0.96108 0.06105 0.0
H394 H 0.86666 0.02317 0.12932 0.0
H395 H 0.83721 0.02202 0.20236 0.0
H396 H 0.87256 0.98576 0.9606 0.0
H397 H 0.917 0.99556 0.15488 0.0
H398 H 0.89316 0.98863 0.17146 0.0
H399 H 0.8981 0.01513 0.1575 0.0
C400 C 0.83902 0.97396 0.13287 0.0
C401 C 0.83206 0.99097 0.17364 0.0
C402 C 0.85598 0.97453 0.09139 0.0
C403 C 0.86647 0.99207 0.09011 0.0
C404 C 0.85922 0.00925 0.13012 0.0
H405 H 0.95677 0.02086 0.78745 0.0
H406 H 0.92721 0.01905 0.85835 0.0
C407 C 0.84226 0.00867 0.17154 0.0
C408 C 0.88483 0.99242 0.04674 0.0
H409 H 0.93135 -0.00035 0.04682 0.0
C410 C 0.88539 0.98877 0.97964 0.0
C411 C 0.9018 0.996 0.07105 0.0
C412 C 0.9026 -0.00115 0.1427 0.0
C413 C 0.90217 0.98902 0.93653 0.0
C414 C 0.91901 0.99334 0.96058 0.0
C415 C 0.91852 0.99656 0.02783 0.0
C416 C 0.93723 0.99447 0.91696 0.0
C417 C 0.90173 0.98425 0.8656 0.0
C418 C 0.95311 0.98165 0.92659 0.0
C419 C 0.97017 0.98271 0.88601 0.0
C420 C 0.97192 0.99676 0.83488 0.0
C421 C 0.95605 0.00973 0.82584 0.0
C422 C 0.939 0.00863 0.8663 0.0
H423 H 0.88942 0.97566 0.85781 0.0
H424 H 0.90084 -0.00105 0.83922 0.0
H425 H 0.91459 0.97497 0.84418 0.0
H426 H 0.95228 0.97065 0.96533 0.0
H427 H 0.98202 0.9725 0.89489 0.0
H428 H 0.53327 0.81402 0.17235 0.0
H429 H 0.5313 0.8446 0.10478 0.0
H430 H 0.5465 0.80593 0.93291 0.0
H431 H 0.54826 0.77525 0.00086 0.0
H432 H 0.55972 0.8596 0.01929 0.0
H433 H 0.50056 0.84061 0.88875 0.0
H434 H 0.50576 0.82742 0.96077 0.0
H435 H 0.51951 0.82098 0.88397 0.0
C436 C 0.53596 0.81208 0.12008 0.0
C437 C 0.54075 0.79238 0.09156 0.0
C438 C 0.5349 0.82953 0.08151 0.0
C439 C 0.53853 0.82762 0.01358 0.0
C440 C 0.54327 0.80781 0.98503 0.0
H441 H 0.53833 0.92319 0.71704 0.0
H442 H 0.54154 0.89028 0.77269 0.0
C443 C 0.54434 0.79031 0.02378 0.0
C444 C 0.53807 0.84651 0.97341 0.0
H445 H 0.51568 0.87072 0.85715 0.0
C446 C 0.55008 0.862 0.98384 0.0
C447 C 0.52562 0.84965 0.92667 0.0
C448 C 0.512 0.8339 0.9145 0.0
C449 C 0.54996 0.88047 0.94919 0.0
C450 C 0.5372 0.88386 0.90359 0.0
C451 C 0.52545 0.86819 0.8921 0.0
C452 C 0.53535 0.90385 0.86939 0.0
C453 C 0.56371 0.8961 0.96131 0.0
C454 C 0.53055 0.92246 0.90496 0.0
C455 C 0.52875 0.94127 0.87337 0.0
C456 C 0.53155 0.94198 0.80521 0.0
C457 C 0.53615 0.92329 0.76952 0.0
C458 C 0.53796 0.90442 0.8013 0.0
H459 H 0.57596 0.88878 0.9816 0.0
H460 H 0.56876 0.90398 0.91603 0.0
H461 H 0.55675 0.90799 -0.00297 0.0
H462 H 0.52803 0.92244 0.95741 0.0
H463 H 0.52506 0.95526 0.90264 0.0
H464 H 0.70969 0.54038 0.41112 0.0
H465 H 0.68588 0.53775 0.3376 0.0
H466 H 0.72273 0.49338 0.21769 0.0
H467 H 0.7462 0.49557 0.29209 0.0
H468 H 0.68629 0.54644 0.21128 0.0
H469 H 0.67585 0.4632 0.24006 0.0
H470 H 0.68862 0.47733 0.29295 0.0
H471 H 0.69981 0.46783 0.21471 0.0
C472 C 0.71259 0.52997 0.36925 0.0
C473 C 0.72973 0.51814 0.35735 0.0
C474 C 0.699 0.52849 0.32714 0.0
C475 C 0.70225 0.51507 0.27235 0.0
C476 C 0.71957 0.50344 0.26027 0.0
H477 H 0.64632 0.48766 0.93976 0.0
H478 H 0.66733 0.49028 0.02198 0.0
C479 C 0.73309 0.50485 0.30254 0.0
C480 C 0.68782 0.51367 0.22702 0.0
H481 H 0.66297 0.4795 0.15216 0.0
C482 C 0.68108 0.53181 0.1989 0.0
C483 C 0.68087 0.49462 0.2106 0.0
C484 C 0.68651 0.47468 0.24165 0.0
C485 C 0.66816 0.53135 0.15364 0.0
C486 C 0.66151 0.51225 0.13633 0.0
C487 C 0.66806 0.49415 0.16505 0.0
C488 C 0.64828 0.5106 0.08697 0.0
C489 C 0.66221 0.55127 0.12312 0.0
C490 C 0.63031 0.52084 0.09615 0.0
C491 C 0.61819 0.51942 0.04883 0.0
C492 C 0.62374 0.50773 -0.00897 0.0
C493 C 0.64161 0.49714 0.98285 0.0
C494 C 0.65365 0.4985 0.03018 0.0
H495 H 0.67175 0.56361 0.12984 0.0
H496 H 0.66173 0.54889 0.07042 0.0
H497 H 0.64799 0.55678 0.14608 0.0
H498 H 0.62563 0.52996 0.14 0.0
H499 H 0.60461 0.52784 0.05697 0.0
H500 H 0.0295 0.64554 0.32334 0.0
H501 H 0.02926 0.61853 0.23907 0.0
H502 H 1.00027 0.66198 0.12552 0.0
H503 H 1.00046 0.68885 0.2094 0.0
H504 H 0.99797 0.60282 0.18702 0.0
H505 H 0.04559 0.63889 -0.00286 0.0
H506 H 0.0436 0.64645 0.08177 0.0
H507 H 0.026 0.65551 0.0334 0.0
C508 C 0.02312 0.64928 0.28027 0.0
C509 C 0.01516 0.66931 0.27263 0.0
C510 C 0.02296 0.63386 0.2322 0.0
C511 C 0.01499 0.63826 0.17533 0.0
C512 C 1.00682 0.65827 0.16824 0.0
H513 H 1.00493 0.56833 0.82034 0.0
H514 H 1.00359 0.59472 0.90664 0.0
C515 C 1.0069 0.67364 0.2164 0.0
C516 C 0.01502 0.62193 0.12383 0.0
H517 H 0.03104 0.60955 0.96499 0.0
C518 C 1.00527 0.60424 0.13854 0.0
C519 C 0.02443 0.6238 0.06037 0.0
C520 C 0.03564 0.64208 0.04207 0.0
C521 C 1.00438 0.58861 0.0914 0.0
C522 C 1.01394 0.59038 0.02795 0.0
C523 C 0.02368 0.6081 0.01336 0.0
C524 C 1.01417 0.57401 0.97616 0.0
C525 C 0.99276 0.57064 0.10973 0.0
C526 C 0.02066 0.5535 0.98583 0.0
C527 C 0.0213 0.53832 0.93666 0.0
C528 C 0.0157 0.54329 0.87609 0.0
C529 C 1.0093 0.56387 0.86632 0.0
C530 C 1.00856 0.57902 0.9157 0.0
H531 H 0.98196 0.57466 0.15186 0.0
H532 H 0.98572 0.56547 0.0686 0.0
H533 H 1.00197 0.55751 0.1236 0.0
H534 H 0.02557 0.54924 0.03113 0.0
H535 H 0.0265 0.52272 0.94589 0.0
H536 H 0.99155 0.23462 0.18998 0.0
H537 H 0.98377 0.21689 0.29094 0.0
H538 H 0.0305 0.24171 0.36738 0.0
H539 H 0.03884 0.25886 0.2648 0.0
H540 H 0.03349 0.20142 0.36604 0.0
H541 H 0.96189 0.22504 0.47582 0.0
H542 H 0.96173 0.22014 0.39101 0.0
H543 H 0.97478 0.24074 0.41726 0.0
C544 C 0.99988 0.23674 0.22894 0.0
C545 C 0.01598 0.24778 0.2192 0.0
C546 C 0.99524 0.22686 0.28718 0.0
C547 C 1.00645 0.2281 0.33715 0.0
C548 C 0.02158 0.24067 0.32964 0.0
H549 H 1.0091 0.12052 0.59108 0.0
H550 H 1.01147 0.15703 0.56474 0.0
C551 C 0.02631 0.2505 0.27107 0.0
C552 C 1.00467 0.21286 0.38947 0.0
H553 H 0.97166 0.18774 0.48384 0.0
C554 C 0.02014 0.19886 0.39381 0.0
C555 C 0.98728 0.20952 0.42589 0.0
C556 C 0.97058 0.22486 0.42767 0.0
C557 C 0.0182 0.18052 0.42787 0.0
C558 C 1.00036 0.17622 0.45866 0.0
C559 C 0.98527 0.19104 0.45941 0.0
C560 C 0.99672 0.15527 0.48108 0.0
C561 C 0.03485 0.16503 0.42595 0.0
C562 C 0.98725 0.14247 0.44354 0.0
C563 C 0.98605 0.12164 0.45788 0.0
C564 C 0.99427 0.11328 0.51018 0.0
C565 C 1.00296 0.12643 0.54964 0.0
C566 C 1.0042 0.14728 0.5351 0.0
H567 H 0.04742 0.17016 0.39568 0.0
H568 H 0.03829 0.16265 0.47587 0.0
H569 H 0.03151 0.14988 0.40646 0.0
H570 H 0.98152 0.14841 0.40133 0.0
H571 H 0.9794 0.1119 0.4263 0.0
H572 H 0.30819 0.96197 0.28755 0.0
H573 H 0.32669 0.95839 0.37694 0.0
H574 H 0.30565 0.01944 0.44911 0.0
H575 H 0.28723 0.0231 0.35834 0.0
H576 H 0.34221 0.01721 0.4144 0.0
H577 H 0.3268 0.95054 0.56757 0.0
H578 H 0.32763 0.94291 0.48409 0.0
H579 H 0.31 0.96228 0.51948 0.0
C580 C 0.30682 0.97418 0.32439 0.0
C581 C 0.29644 0.99282 0.31631 0.0
C582 C 0.3173 0.97209 0.37583 0.0
C583 C 0.31753 0.98862 0.42006 0.0
C584 C 0.30557 0.00645 0.41581 0.0
H585 H 0.41718 0.98144 0.6262 0.0
H586 H 0.38401 0.98651 0.61237 0.0
C587 C 0.29501 0.00851 0.3642 0.0
C588 C 0.33334 0.98902 0.45856 0.0
H589 H 0.36019 0.95755 0.54517 0.0
C590 C 0.34582 0.00452 0.44485 0.0
C591 C 0.33812 0.97255 0.49851 0.0
C592 C 0.32478 0.95628 0.51874 0.0
C593 C 0.36359 0.00292 0.46481 0.0
C594 C 0.36904 0.98533 0.49878 0.0
C595 C 0.35603 0.97082 0.51787 0.0
C596 C 0.38872 0.98091 0.50867 0.0
C597 C 0.3768 0.01948 0.44625 0.0
C598 C 0.40215 0.97569 0.45501 0.0
C599 C 0.42102 0.97279 0.46261 0.0
C600 C 0.42675 0.97515 0.52406 0.0
C601 C 0.41316 0.9798 0.57811 0.0
C602 C 0.39425 0.98257 0.57047 0.0
H603 H 0.3692 0.0342 0.43503 0.0
H604 H 0.3853 0.02249 0.48575 0.0
H605 H 0.38649 0.01421 0.4024 0.0
H606 H 0.39804 0.97424 0.40698 0.0
H607 H 0.43116 0.96937 0.42011 0.0
H608 H 0.54754 0.30755 0.29674 0.0
H609 H 0.55394 0.33367 0.37428 0.0
H610 H 0.5072 0.31639 0.50821 0.0
H611 H 0.50026 0.29069 0.42856 0.0
H612 H 0.503 0.35519 0.48502 0.0
H613 H 0.57524 0.34125 0.53743 0.0
H614 H 0.57531 0.34039 0.45139 0.0
H615 H 0.56333 0.32151 0.50072 0.0
C616 C 0.53909 0.30878 0.34379 0.0
C617 C 0.52334 0.29727 0.35661 0.0
C618 C 0.54283 0.32365 0.38844 0.0
C619 C 0.53112 0.32703 0.44745 0.0
C620 C 0.51645 0.31406 0.46301 0.0
H621 H 0.55029 0.43415 0.68478 0.0
H622 H 0.54914 0.39902 0.64318 0.0
C623 C 0.51259 0.29924 0.41784 0.0
C624 C 0.53223 0.34625 0.48616 0.0
H625 H 0.56333 0.37763 0.53956 0.0
C626 C 0.51614 0.35987 0.49824 0.0
C627 C 0.54925 0.35242 0.50429 0.0
C628 C 0.56667 0.33796 0.49837 0.0
C629 C 0.5168 0.3798 0.52456 0.0
C630 C 0.5342 0.38664 0.53683 0.0
C631 C 0.55008 0.37264 0.52837 0.0
C632 C 0.53612 0.40817 0.55909 0.0
C633 C 0.4988 0.39324 0.53896 0.0
C634 C 0.52984 0.42514 0.52438 0.0
C635 C 0.53023 0.44533 0.54856 0.0
C636 C 0.53736 0.44893 0.60706 0.0
C637 C 0.54475 0.43198 0.63944 0.0
C638 C 0.54405 0.41182 0.61584 0.0
H639 H 0.48655 0.38374 0.54743 0.0
H640 H 0.49887 0.40345 0.58223 0.0
H641 H 0.49694 0.40304 0.49671 0.0
H642 H 0.52426 0.42275 0.47923 0.0
H643 H 0.52456 0.45806 0.52227 0.0
H644 H 0.2175 0.46917 0.18566 0.0
H645 H 0.20173 0.48547 0.28678 0.0
H646 H 0.24016 0.53362 0.2692 0.0
H647 H 0.25617 0.5172 0.16801 0.0
H648 H 0.21934 0.50999 0.41446 0.0
H649 H 0.17989 0.55188 0.23701 0.0
H650 H 0.1886 0.52545 0.21861 0.0
H651 H 0.20469 0.54522 0.21992 0.0
C652 C 0.22292 0.48285 0.20455 0.0
C653 C 0.23784 0.49212 0.16911 0.0
C654 C 0.21404 0.49204 0.26234 0.0
C655 C 0.21986 0.51067 0.28499 0.0
C656 C 0.23567 0.5191 0.25252 0.0
H657 H 0.12247 0.57847 0.48887 0.0
H658 H 0.15558 0.57523 0.44514 0.0
C659 C 0.24472 0.50977 0.19486 0.0
C660 C 0.20709 0.52301 0.3339 0.0
H661 H 0.16598 0.55232 0.34524 0.0
C662 C 0.20788 0.51973 0.39988 0.0
C663 C 0.19243 0.53591 0.31435 0.0
C664 C 0.19125 0.53999 0.24367 0.0
C665 C 0.1935 0.528 0.44696 0.0
C666 C 0.17781 0.53917 0.42679 0.0
C667 C 0.17794 0.54379 0.36103 0.0
C668 C 0.15984 0.54305 0.46958 0.0
C669 C 0.195 0.5241 0.51739 0.0
C670 C 0.1514 0.52633 0.50033 0.0
C671 C 0.13262 0.52825 0.52621 0.0
C672 C 0.12173 0.54677 0.52039 0.0
C673 C 0.13047 0.56398 0.49398 0.0
C674 C 0.1494 0.56214 0.46892 0.0
H675 H 0.20975 0.52428 0.52681 0.0
H676 H 0.18632 0.53578 0.54987 0.0
H677 H 0.19036 0.50851 0.52958 0.0
H678 H 0.15891 0.51129 0.50023 0.0
H679 H 0.1264 0.51486 0.54785 0.0
H680 H 0.96667 0.77283 0.27654 0.0
H681 H 0.96576 0.79642 0.18614 0.0
H682 H 0.02034 0.77081 0.10185 0.0
H683 H 0.02085 0.74678 0.19035 0.0
H684 H 0.99063 0.82361 0.18621 0.0
H685 H 0.99951 0.78785 0.94089 0.0
H686 H 0.99149 0.77378 0.01226 0.0
H687 H 0.01611 0.77594 -0.01182 0.0
C688 C 0.97796 0.77156 0.23673 0.0
C689 C 0.9939 0.75824 0.24027 0.0
C690 C 0.97746 0.785 0.1852 0.0
C691 C 0.99302 0.78548 0.13738 0.0
C692 C 1.008 0.77051 0.13727 0.0
H693 H 0.05539 0.88124 0.96565 0.0
H694 H 0.04354 0.84902 0.00951 0.0
C695 C 1.00835 0.75682 0.18818 0.0
C696 C 0.99581 0.80433 0.09932 0.0
H697 H 1.01263 0.82145 0.95015 0.0
C698 C 0.99494 0.82317 0.13426 0.0
C699 C 1.00173 0.80374 0.03176 0.0
C700 C 1.00208 0.78423 -0.00885 0.0
C701 C 1.00063 0.84119 0.10415 0.0
C702 C 1.00734 0.84035 0.03745 0.0
C703 C 1.00762 0.82182 0.00163 0.0
C704 C 0.01453 0.85871 0.00526 0.0
C705 C 1.00018 0.86088 0.14421 0.0
C706 C 1.00203 0.87458 -0.01107 0.0
C707 C 1.00868 0.89294 0.96473 0.0
C708 C 0.02796 0.89567 0.95641 0.0
C709 C 0.04048 0.87959 0.97219 0.0
C710 C 0.03378 0.86116 -0.00362 0.0
H711 H 0.99584 0.85853 0.19662 0.0
H712 H 1.01419 0.86712 0.13813 0.0
H713 H 0.99023 0.87271 0.12701 0.0
H714 H 0.98711 0.87293 -0.00361 0.0
H715 H 0.99869 0.90519 0.95377 0.0
H716 H 0.7614 0.97961 0.08278 0.0
H717 H 0.743 0.98294 -0.0081 0.0
H718 H 0.71976 0.04288 0.06742 0.0
H719 H 0.73818 0.03962 0.15724 0.0
H720 H 0.70591 0.98411 0.02564 0.0
H721 H 0.72127 0.0516 0.87547 0.0
H722 H 0.73793 0.03975 0.9239 0.0
H723 H 0.71993 0.05866 0.95964 0.0
C724 C 0.75307 0.9939 0.07786 0.0
C725 C 0.75105 0.00934 0.12674 0.0
C726 C 0.74253 0.99577 0.02616 0.0
C727 C 0.73006 0.0132 0.02264 0.0
C728 C 0.72956 0.02951 0.06812 0.0
H729 H 0.61731 0.03323 0.00985 0.0
H730 H 0.65028 0.02898 0.02552 0.0
C731 C 0.73998 0.02759 0.11977 0.0
C732 C 0.71463 0.01251 0.98259 0.0
H733 H 0.68822 0.04347 0.89313 0.0
C734 C 0.70238 0.99674 -0.00519 0.0
C735 C 0.70998 0.02893 0.94232 0.0
C736 C 0.72312 0.04556 0.92408 0.0
C737 C 0.68487 0.99797 0.97282 0.0
C738 C 0.67952 0.01542 0.93808 0.0
C739 C 0.69234 0.03027 0.92078 0.0
C740 C 0.66 0.01945 0.92612 0.0
C741 C 0.67171 0.98127 -0.00973 0.0
C742 C 0.65477 0.01582 0.86472 0.0
C743 C 0.63595 0.01822 0.85562 0.0
C744 C 0.62217 0.02441 0.90778 0.0
C745 C 0.62762 0.02864 0.9687 0.0
C746 C 0.64639 0.02613 0.97779 0.0
H747 H 0.67917 0.96694 0.0052 0.0
H748 H 0.6611 0.9869 0.03124 0.0
H749 H 0.66425 0.97749 0.94867 0.0
H750 H 0.66517 0.01069 0.8244 0.0
H751 H 0.63214 0.01507 0.80796 0.0
H752 H 0.54973 0.68762 0.00555 0.0
H753 H 0.53528 0.6628 0.94192 0.0
H754 H 0.4809 0.68425 0.0393 0.0
H755 H 0.4955 0.70912 0.10334 0.0
H756 H 0.48955 0.64352 0.05738 0.0
H757 H 0.50349 0.6587 0.79599 0.0
H758 H 0.52423 0.6602 0.83399 0.0
H759 H 0.50448 0.67843 0.85754 0.0
C760 C 0.53462 0.68777 0.01069 0.0
C761 C 0.52365 0.7004 0.05832 0.0
C762 C 0.52634 0.67358 0.97439 0.0
C763 C 0.50696 0.67176 0.9854 0.0
C764 C 0.49584 0.68554 0.02955 0.0
H765 H 0.47839 0.55865 0.79133 0.0
H766 H 0.47208 0.59386 0.83817 0.0
C767 C 0.50414 0.69983 0.06568 0.0
C768 C 0.4992 0.65307 0.96067 0.0
H769 H 0.50136 0.62243 0.82479 0.0
C770 C 0.4916 0.63916 0.00627 0.0
C771 C 0.5017 0.64739 0.89407 0.0
C772 C 0.50874 0.66209 0.8426 0.0
C773 C 0.48804 0.6191 0.98756 0.0
C774 C 0.49228 0.61279 0.92176 0.0
C775 C 0.49826 0.62725 0.87542 0.0
C776 C 0.49349 0.5907 0.90156 0.0
C777 C 0.48069 0.60446 0.03878 0.0
C778 C 0.50731 0.5772 0.92284 0.0
C779 C 0.51104 0.55729 0.89593 0.0
C780 C 0.5009 0.55043 0.84758 0.0
C781 C 0.48622 0.56346 0.82926 0.0
C782 C 0.48269 0.58359 0.85556 0.0
H783 H 0.4728 0.61299 0.0816 0.0
H784 H 0.47146 0.59359 0.01931 0.0
H785 H 0.49262 0.59527 0.05535 0.0
H786 H 0.516 0.58248 0.95755 0.0
H787 H 0.52249 0.5476 0.91064 0.0
H788 H 0.82834 0.47493 0.29931 0.0
H789 H 0.84208 0.46489 0.18903 0.0
H790 H 0.80632 0.51195 0.11317 0.0
H791 H 0.79268 0.52242 0.22418 0.0
H792 H 0.82628 0.45295 0.07177 0.0
H793 H 0.86076 0.52748 0.055 0.0
H794 H 0.85026 0.51853 0.13195 0.0
H795 H 0.83574 0.52796 0.07355 0.0
C796 C 0.82334 0.48308 0.25915 0.0
C797 C 0.80971 0.49967 0.27016 0.0
C798 C 0.83101 0.47718 0.19624 0.0
C799 C 0.82525 0.48777 0.14323 0.0
C800 C 0.81096 0.50368 0.15366 0.0
H801 H 0.91689 0.47725 0.83263 0.0
H802 H 0.88348 0.48393 0.86908 0.0
C803 C 0.8032 0.50959 0.21689 0.0
C804 C 0.83602 0.48345 0.07877 0.0
H805 H 0.87375 0.50046 0.98515 0.0
C806 C 0.83631 0.46352 0.05128 0.0
C807 C 0.84887 0.4974 0.0517 0.0
C808 C 0.84905 0.51905 0.07932 0.0
C809 C 0.85034 0.4565 0.00133 0.0
C810 C 0.86454 0.46964 0.97976 0.0
C811 C 0.86294 0.49031 0.00213 0.0
C812 C 0.88283 0.46154 0.9453 0.0
C813 C 0.85041 0.43474 0.97478 0.0
C814 C 0.89341 0.44618 0.97438 0.0
C815 C 0.91247 0.44235 0.9536 0.0
C816 C 0.92129 0.45404 0.90404 0.0
C817 C 0.91042 0.4682 0.87147 0.0
C818 C 0.89133 0.47194 0.89197 0.0
H819 H 0.8359 0.43027 0.97383 0.0
H820 H 0.85813 0.43296 0.92505 0.0
H821 H 0.85715 0.42389 0.00693 0.0
H822 H 0.88733 0.43835 0.01673 0.0
H823 H 0.92055 0.43149 0.97987 0.0
H824 H 0.06351 0.21991 0.98241 0.0
H825 H 0.06355 0.18704 0.92208 0.0
H826 H 1.00385 0.1963 0.92489 0.0
H827 H 1.00381 0.22874 0.98673 0.0
H828 H 1.01254 0.15965 0.96872 0.0
H829 H 0.05907 0.16881 0.73964 0.0
H830 H 0.07 0.17437 0.80994 0.0
H831 H 0.05006 0.19049 0.79269 0.0
C832 C 0.05054 0.21526 0.96788 0.0
C833 C 0.0337 0.22705 -0.01175 0.0
C834 C 0.05054 0.19642 0.93346 0.0
C835 C 0.03371 0.18909 0.91816 0.0
C836 C 0.01704 0.20149 0.93577 0.0
H837 H 0.02197 0.07714 0.6878 0.0
H838 H 0.02351 0.11279 0.72618 0.0
C839 C 0.01703 0.22016 0.97059 0.0
C840 C 0.03306 0.1677 0.89037 0.0
H841 H 0.05163 0.13428 0.76581 0.0
C842 C 0.02104 0.15422 0.92408 0.0
C843 C 0.04395 0.16046 0.83176 0.0
C844 C 0.05636 0.17435 0.79102 0.0
C845 C 0.01979 0.13383 0.9017 0.0
C846 C 0.03125 0.1263 0.8446 0.0
C847 C 0.04301 0.13986 0.81003 0.0
C848 C 0.03107 0.10446 0.82015 0.0
C849 C 1.0059 0.12067 0.93904 0.0
C850 C 0.03515 0.08772 0.85942 0.0
C851 C 0.03417 0.06728 0.83776 0.0
C852 C 0.02929 0.06298 0.77585 0.0
C853 C 0.02572 0.07976 0.73583 0.0
C854 C 0.02663 0.10023 0.75769 0.0
H855 H 0.99462 0.1303 0.96923 0.0
H856 H 0.99941 0.11062 0.90593 0.0
H857 H 1.01319 0.11065 0.97199 0.0
H858 H 0.03905 0.09046 0.90716 0.0
H859 H 0.0372 0.05484 0.86981 0.0
H860 H 0.33153 0.97394 0.11432 0.0
H861 H 0.36102 0.97638 0.04539 0.0
H862 H 0.33935 0.03292 0.96712 0.0
H863 H 0.3099 0.03121 0.04014 0.0
H864 H 0.37298 0.97548 0.92618 0.0
H865 H 0.38595 0.05334 0.01621 0.0
H866 H 0.36674 0.03933 0.05221 0.0
H867 H 0.36508 0.05306 0.97832 0.0
C868 C 0.33295 0.987 0.08264 0.0
C869 C 0.31832 0.00263 0.08422 0.0
C870 C 0.34994 0.98833 0.04268 0.0
C871 C 0.35294 0.00518 0.00186 0.0
C872 C 0.33786 0.02011 -0.00034 0.0
H873 H 0.45628 0.99441 0.7203 0.0
H874 H 0.42376 0.99594 0.77023 0.0
C875 C 0.32081 0.01893 0.04064 0.0
C876 C 0.37192 0.0068 0.96308 0.0
H877 H 0.40817 0.03819 0.93275 0.0
C878 C 0.38061 0.98927 0.92773 0.0
C879 C 0.38227 0.02458 0.96532 0.0
C880 C 0.37465 0.04358 0.00553 0.0
C881 C 0.39911 0.98882 0.89605 0.0
C882 C 0.40929 0.00678 0.89673 0.0
C883 C 0.40054 0.02442 0.93136 0.0
C884 C 0.42914 0.00734 0.86398 0.0
C885 C 0.40776 0.96864 0.86488 0.0
C886 C 0.44322 0.01446 0.89786 0.0
C887 C 0.4619 0.01424 0.86836 0.0
C888 C 0.46709 0.00665 0.80434 0.0
C889 C 0.45293 6e-05 0.76995 0.0
C890 C 0.43424 0.00073 0.7989 0.0
H891 H 0.4007 0.95522 0.88649 0.0
H892 H 0.40621 0.96856 0.81252 0.0
H893 H 0.42284 0.96642 0.87003 0.0
H894 H 0.43986 0.01981 0.94784 0.0
H895 H 0.47237 0.01946 0.89641 0.0
H896 H 0.47483 0.319 0.19088 0.0
H897 H 0.47337 0.34915 0.12127 0.0
H898 H 0.52759 0.32917 0.01972 0.0
H899 H 0.52888 0.29893 0.0889 0.0
H900 H 0.4979 0.37933 0.1188 0.0
H901 H 0.49922 0.34656 0.87069 0.0
H902 H 0.49359 0.33169 0.94237 0.0
H903 H 0.51755 0.33539 0.91245 0.0
C904 C 0.48602 0.32063 0.15176 0.0
C905 C 0.50172 0.30639 0.14388 0.0
C906 C 0.48531 0.33797 0.11254 0.0
C907 C 0.5003 0.34141 0.06475 0.0
C908 C 0.51566 0.32667 0.05511 0.0
H909 H 0.5333 0.45982 0.91212 0.0
H910 H 0.52945 0.42834 0.97455 0.0
C911 C 0.51637 0.30933 0.09439 0.0
C912 C 0.50072 0.36133 0.02976 0.0
H913 H 0.50594 0.38197 0.87885 0.0
C914 C 0.49951 0.3799 0.06631 0.0
C915 C 0.5027 0.36216 0.96131 0.0
C916 C 0.50316 0.34291 0.91935 0.0
C917 C 0.50059 0.39918 0.0364 0.0
C918 C 0.50326 0.39996 0.9679 0.0
C919 C 0.50408 0.38141 0.93135 0.0
C920 C 0.50505 0.4198 0.933 0.0
C921 C 0.4986 0.41856 0.07853 0.0
C922 C 0.49271 0.42553 0.88855 0.0
C923 C 0.49492 0.44347 0.85261 0.0
C924 C 0.5096 0.45613 0.85995 0.0
C925 C 0.52172 0.45062 0.90561 0.0
C926 C 0.51951 0.4326 0.9415 0.0
H927 H 0.49153 0.41585 0.12804 0.0
H928 H 0.51268 0.42369 0.08324 0.0
H929 H 0.49054 0.43125 0.05688 0.0
H930 H 0.48146 0.41596 0.88105 0.0
H931 H 0.48531 0.44713 0.81795 0.0
H932 H 0.22833 0.44766 0.9112 0.0
H933 H 0.19989 0.44712 0.85762 0.0
H934 H 0.18426 0.51016 0.9219 0.0
H935 H 0.21241 0.51073 0.97498 0.0
H936 H 0.15644 0.48304 0.95792 0.0
H937 H 0.18222 0.47473 0.69467 0.0
H938 H 0.1927 0.45672 0.74672 0.0
H939 H 0.19647 0.48369 0.75308 0.0
C940 C 0.21911 0.46157 0.91202 0.0
C941 C 0.22264 0.47923 0.94734 0.0
C942 C 0.2028 0.46125 0.8816 0.0
C943 C 0.18981 0.47861 0.88568 0.0
C944 C 0.19393 0.49654 0.91807 0.0
H945 H 0.08971 0.51179 0.71055 0.0
H946 H 0.12121 0.5075 0.74145 0.0
C947 C 0.2101 0.49687 0.94823 0.0
C948 C 0.17119 0.47786 0.86178 0.0
H949 H 0.14962 0.47405 0.72529 0.0
C950 C 0.15499 0.48094 0.90705 0.0
C951 C 0.16919 0.47531 0.79537 0.0
C952 C 0.18602 0.47257 0.74432 0.0
C953 C 0.13698 0.48168 0.88798 0.0
C954 C 0.13492 0.47902 0.82164 0.0
C955 C 0.15112 0.4759 0.7762 0.0
C956 C 0.11608 0.48044 0.79871 0.0
C957 C 0.12026 0.48597 0.93897 0.0
C958 C 0.10267 0.46639 0.81921 0.0
C959 C 0.08456 0.46878 0.80149 0.0
C960 C 0.07937 0.48532 0.7629 0.0
C961 C 0.09305 0.49896 0.74076 0.0
C962 C 0.11116 0.49648 0.75819 0.0
H963 H 0.12427 0.4921 0.98498 0.0
H964 H 0.10989 0.49726 0.92158 0.0
H965 H 0.11341 0.47139 0.94956 0.0
H966 H 0.10615 0.45369 0.8497 0.0
H967 H 0.0745 0.45791 0.81931 0.0
H968 H 0.03754 0.77105 0.44355 0.0
H969 H 0.04101 0.80413 0.49864 0.0
H970 H 0.9811 0.81426 0.53915 0.0
H971 H 0.97766 0.78138 0.48378 0.0
H972 H 0.02572 0.8425 0.45378 0.0
H973 H 0.99929 0.83125 0.71242 0.0
H974 H 1.00728 0.80991 0.65657 0.0
H975 H 0.98453 0.82275 0.65561 0.0
C976 C 0.02516 0.77994 0.46664 0.0
C977 C 1.00733 0.77342 0.46054 0.0
C978 C 0.02713 0.79897 0.49743 0.0
C979 C 1.01132 0.81172 0.52349 0.0
C980 C 0.99353 0.80464 0.52053 0.0
H981 H 0.99814 0.94597 0.58168 0.0
H982 H 0.99627 0.90988 0.54727 0.0
C983 C 0.99156 0.78577 0.48916 0.0
C984 C 1.01326 0.83324 0.5475 0.0
H985 H 1.0032 0.86593 0.68018 0.0
C986 C 0.0209 0.84757 0.5034 0.0
C987 C 1.007 0.83994 0.61225 0.0
C988 C 0.9992 0.82516 0.66227 0.0
C989 C 0.02209 0.86839 0.52185 0.0
C990 C 0.01539 0.87523 0.58614 0.0
C991 C 1.00815 0.8608 0.63071 0.0
C992 C 0.01613 0.8972 0.60808 0.0
C993 C 0.03065 0.88294 0.47247 0.0
C994 C 0.02766 0.90216 0.65452 0.0
C995 C 0.02886 0.92279 0.67394 0.0
C996 C 0.01835 0.93902 0.64807 0.0
C997 C 1.00649 0.93396 0.6025 0.0
C998 C 1.00545 0.9133 0.58259 0.0
H999 H 0.03857 0.87449 0.42956 0.0
H1000 H 0.0194 0.89315 0.4556 0.0
H1001 H 0.04019 0.8929 0.49427 0.0
H1002 H 0.03598 0.89006 0.67514 0.0
H1003 H 0.03805 0.92598 0.70946 0.0
H1004 H 0.72031 0.02954 0.34278 0.0
H1005 H 0.69067 0.02734 0.41207 0.0
H1006 H 0.70731 0.96474 0.45806 0.0
H1007 H 0.73708 0.96679 0.38675 0.0
H1008 H 0.67254 0.96701 0.42493 0.0
H1009 H 0.67531 0.03004 0.60367 0.0
H1010 H 0.67928 0.03917 0.52254 0.0
H1011 H 0.69567 0.02014 0.54989 0.0
C1012 C 0.71789 0.01543 0.36885 0.0
C1013 C 0.73123 -0.00162 0.35935 0.0
C1014 C 0.70086 0.01421 0.40888 0.0
C1015 C 0.69658 0.99596 0.44146 0.0
C1016 C 0.71016 0.97909 0.43396 0.0
H1017 H 0.59294 0.99437 0.71729 0.0
H1018 H 0.62558 0.9932 0.66776 0.0
C1019 C 0.72733 0.98032 0.39372 0.0
C1020 C 0.67748 0.99421 0.47892 0.0
H1021 H 0.64474 0.01904 0.59331 0.0
C1022 C 0.66658 0.97828 0.46223 0.0
C1023 C 0.66952 0.00867 0.52851 0.0
C1024 C 0.68064 0.02532 0.5527 0.0
C1025 C 0.64798 0.97687 0.49167 0.0
C1026 C 0.63966 0.99206 0.53844 0.0
C1027 C 0.65079 0.00753 0.55688 0.0
C1028 C 0.61951 0.99227 0.56863 0.0
C1029 C 0.63755 0.95885 0.47273 0.0
C1030 C 0.60488 0.99236 0.53009 0.0
C1031 C 0.58608 0.99291 0.55838 0.0
C1032 C 0.58129 0.99363 0.62631 0.0
C1033 C 0.59595 0.99374 0.66482 0.0
C1034 C 0.61474 0.9931 0.63649 0.0
H1035 H 0.64731 0.9455 0.45387 0.0
H1036 H 0.62794 0.95371 0.51442 0.0
H1037 H 0.6292 0.96358 0.43361 0.0
H1038 H 0.60794 0.99234 0.47774 0.0
H1039 H 0.57532 0.99304 0.52692 0.0
H1040 H 0.56878 0.66795 0.19263 0.0
H1041 H 0.57108 0.63915 0.26655 0.0
H1042 H 0.53456 0.6743 0.41531 0.0
H1043 H 0.53255 0.70342 0.34151 0.0
H1044 H 0.56312 0.64922 0.46455 0.0
H1045 H 0.52586 0.60448 0.29854 0.0
H1046 H 0.54726 0.6139 0.26068 0.0
H1047 H 0.52802 0.63192 0.29144 0.0
C1048 C 0.56163 0.66972 0.24169 0.0
C1049 C 0.55041 0.68788 0.26127 0.0
C1050 C 0.56284 0.6532 0.28373 0.0
C1051 C 0.55262 0.65432 0.34598 0.0
C1052 C 0.54249 0.67301 0.36738 0.0
H1053 H 0.50805 0.55511 0.57064 0.0
H1054 H 0.51466 0.58477 0.50376 0.0
C1055 C 0.54141 0.68969 0.32535 0.0
C1056 C 0.5512 0.63548 0.38613 0.0
H1057 H 0.53592 0.58674 0.38723 0.0
C1058 C 0.55724 0.63552 0.44765 0.0
C1059 C 0.54329 0.61767 0.36443 0.0
C1060 C 0.53556 0.61696 0.30047 0.0
C1061 C 0.55561 0.61824 0.48787 0.0
C1062 C 0.54794 0.60034 0.46565 0.0
C1063 C 0.54198 0.60034 0.40406 0.0
C1064 C 0.54447 0.58206 0.50714 0.0
C1065 C 0.56152 0.61955 0.55461 0.0
C1066 C 0.55908 0.57029 0.53098 0.0
C1067 C 0.55533 0.5531 0.56978 0.0
C1068 C 0.5369 0.5473 0.58519 0.0
C1069 C 0.52243 0.55898 0.56012 0.0
C1070 C 0.52618 0.57605 0.52168 0.0
H1071 H 0.5633 0.63574 0.56955 0.0
H1072 H 0.55112 0.61296 0.59113 0.0
H1073 H 0.57509 0.61047 0.5547 0.0
H1074 H 0.57337 0.57432 0.51939 0.0
H1075 H 0.56682 0.54451 0.58813 0.0
H1076 H 0.83752 0.54218 0.42969 0.0
H1077 H 0.86567 0.54144 0.48348 0.0
H1078 H 0.84405 0.49442 0.61061 0.0
H1079 H 0.81555 0.49535 0.55693 0.0
H1080 H 0.86436 0.52451 0.6727 0.0
H1081 H 0.90469 0.49216 0.44461 0.0
H1082 H 0.89147 0.51607 0.43444 0.0
H1083 H 0.8795 0.49349 0.45876 0.0
C1084 C 0.83854 0.53207 0.47026 0.0
C1085 C 0.82427 0.51887 0.48915 0.0
C1086 C 0.85474 0.5315 0.50061 0.0
C1087 C 0.85727 0.51753 0.55021 0.0
C1088 C 0.84252 0.50526 0.57222 0.0
H1089 H 0.95537 0.48839 0.75495 0.0
H1090 H 0.92389 0.4907 0.72323 0.0
C1091 C 0.82616 0.5059 0.54188 0.0
C1092 C 0.87578 0.51495 0.57539 0.0
H1093 H 0.9223 0.50272 0.52619 0.0
C1094 C 0.87702 0.51961 0.64084 0.0
C1095 C 0.89237 0.50843 0.53409 0.0
C1096 C 0.892 0.50204 0.46423 0.0
C1097 C 0.8944 0.51874 0.66528 0.0
C1098 C 0.91107 0.51269 0.62343 0.0
C1099 C 0.90969 0.50758 0.55838 0.0
C1100 C 0.93013 0.51179 0.6451 0.0
C1101 C 0.89476 0.52501 0.7352 0.0
C1102 C 0.94451 0.52237 0.61095 0.0
C1103 C 0.96266 0.5208 0.62832 0.0
C1104 C 0.96699 0.50864 0.68059 0.0
C1105 C 0.95256 0.49817 0.71513 0.0
C1106 C 0.93443 0.49958 0.69726 0.0
H1107 H 0.88199 0.53471 0.75508 0.0
H1108 H 0.89543 0.51092 0.76468 0.0
H1109 H 0.90716 0.53371 0.74082 0.0
H1110 H 0.94172 0.53182 0.57033 0.0
H1111 H 0.97334 0.52908 0.60041 0.0
loop_
_geom_bond_atom_site_label_1
_geom_bond_atom_site_label_2
_geom_bond_distance
_geom_bond_site_symmetry_2
_ccdc_geom_bond_type
H0 C3 0.929 . S
H1 C6 0.929 . S
H2 C8 0.930 . S
C3 H0 0.929 . S
C3 C4 1.398 . S
C3 C5 1.396 . S
C4 C3 1.398 . S
C4 C8 1.407 . S
C5 C3 1.396 . S
C5 C6 1.394 . S
C6 H1 0.929 . S
C6 C5 1.394 . S
C6 C7 1.382 . S
C7 C6 1.382 . S
C7 C8 1.392 . S
C7 N9 1.420 . S
C8 H2 0.930 . S
C8 C4 1.407 . S
C8 C7 1.392 . S
N9 C7 1.420 . S
N9 C10 1.244 . S
C10 N9 1.244 . S
H11 C14 0.929 . S
H12 C17 0.929 . S
H13 C19 0.933 . S
C14 H11 0.929 . S
C14 C15 1.398 . S
C14 C16 1.396 . S
C15 C14 1.398 . S
C15 C19 1.407 . S
C16 C14 1.396 . S
C16 C17 1.394 . S
C17 H12 0.929 . S
C17 C16 1.394 . S
C17 C18 1.382 . S
C18 C17 1.382 . S
C18 C19 1.392 . S
C18 N20 1.418 1_655 S
C19 H13 0.933 . S
C19 C15 1.407 . S
C19 C18 1.392 . S
N20 C18 1.418 1_455 S
N20 C21 1.209 1_455 S
C21 N20 1.209 1_655 S
H22 C25 0.929 . S
H23 C28 0.929 . S
H24 C30 0.930 . S
C25 H22 0.929 . S
C25 C26 1.398 . S
C25 C27 1.396 . S
C26 C25 1.398 . S
C26 C30 1.407 1_565 S
C27 C25 1.396 . S
C27 C28 1.394 1_565 S
C28 H23 0.929 . S
C28 C27 1.394 1_545 S
C28 C29 1.382 . S
C29 C28 1.382 . S
C29 C30 1.392 . S
C29 N31 1.420 . S
C30 H24 0.930 . S
C30 C26 1.407 1_545 S
C30 C29 1.392 . S
N31 C29 1.420 . S
N31 C32 1.244 1_545 S
C32 N31 1.244 1_565 S
H33 C36 0.929 . S
H34 C39 0.929 . S
H35 C41 0.930 . S
C36 H33 0.929 . S
C36 C37 1.398 . S
C36 C38 1.396 . S
C37 C36 1.398 . S
C37 C41 1.407 . S
C38 C36 1.396 . S
C38 C39 1.394 . S
C39 H34 0.929 . S
C39 C38 1.394 . S
C39 C40 1.382 . S
C40 C39 1.382 . S
C40 C41 1.392 . S
C40 N42 1.420 . S
C41 H35 0.930 . S
C41 C37 1.407 . S
C41 C40 1.392 . S
N42 C40 1.420 . S
N42 C43 1.244 . S
C43 N42 1.244 . S
H44 C47 0.929 . S
H45 C50 0.929 . S
H46 C52 0.930 . S
C47 H44 0.929 . S
C47 C48 1.398 . S
C47 C49 1.396 1_556 S
C48 C47 1.398 . S
C48 C52 1.407 . S
C49 C47 1.396 1_554 S
C49 C50 1.394 . S
C50 H45 0.929 . S
C50 C49 1.394 . S
C50 C51 1.382 1_554 S
C51 C50 1.382 1_556 S
C51 C52 1.392 . S
C51 N53 1.420 . S
C52 H46 0.930 . S
C52 C48 1.407 . S
C52 C51 1.392 . S
N53 C51 1.420 . S
N53 C54 1.244 1_556 S
C54 N53 1.244 1_554 S
H55 C58 0.929 . S
H56 C61 0.929 . S
H57 C63 0.930 . S
C58 H55 0.929 . S
C58 C59 1.398 . S
C58 C60 1.396 . S
C59 C58 1.398 . S
C59 C63 1.407 . S
C60 C58 1.396 . S
C60 C61 1.394 . S
C61 H56 0.929 . S
C61 C60 1.394 . S
C61 C62 1.382 . S
C62 C61 1.382 . S
C62 C63 1.392 . S
C62 N64 1.420 . S
C63 H57 0.930 . S
C63 C59 1.407 . S
C63 C62 1.392 . S
N64 C62 1.420 . S
N64 C65 1.244 . S
C65 N64 1.244 . S
H66 C69 0.929 . S
H67 C72 0.929 . S
H68 C74 0.930 . S
C69 H66 0.929 . S
C69 C70 1.398 . S
C69 C71 1.396 . S
C70 C69 1.398 . S
C70 C74 1.407 . S
C71 C69 1.396 . S
C71 C72 1.394 . S
C72 H67 0.929 . S
C72 C71 1.394 . S
C72 C73 1.382 . S
C73 C72 1.382 . S
C73 C74 1.392 . S
C73 N75 1.420 . S
C74 H68 0.930 . S
C74 C70 1.407 . S
C74 C73 1.392 . S
N75 C73 1.420 . S
N75 C76 1.244 . S
C76 N75 1.244 . S
H77 C80 0.929 . S
H78 C83 0.929 . S
H79 C85 0.930 . S
C80 H77 0.929 . S
C80 C81 1.398 . S
C80 C82 1.396 . S
C81 C80 1.398 . S
C81 C85 1.407 . S
C82 C80 1.396 . S
C82 C83 1.394 . S
C83 H78 0.929 . S
C83 C82 1.394 . S
C83 C84 1.382 . S
C84 C83 1.382 . S
C84 C85 1.392 . S
C84 N86 1.420 . S
C85 H79 0.930 . S
C85 C81 1.407 . S
C85 C84 1.392 . S
N86 C84 1.420 . S
N86 C87 1.244 . S
C87 N86 1.244 . S
Dy88 O91 2.307 1_545 S
Dy88 O93 2.395 1_655 S
Dy88 O94 2.379 . S
Dy88 O96 2.339 . S
Dy88 O98 2.298 1_655 S
Dy88 O102 2.275 1_655 S
Dy88 C110 2.738 . S
Dy89 O92 2.298 . S
Dy89 O95 2.275 1_455 S
Dy89 O97 2.307 1_565 S
Dy89 O99 2.395 . S
Dy89 O100 2.379 . S
Dy89 O103 2.339 . S
Dy89 C119 2.738 . S
C90 O102 1.249 1_565 S
C90 O103 1.269 . S
O91 Dy88 2.307 1_565 S
O91 C101 1.266 1_655 S
O92 Dy89 2.298 . S
O92 C101 1.236 . S
O93 Dy88 2.395 1_455 S
O93 C110 1.255 1_455 S
O94 Dy88 2.379 . S
O94 C110 1.249 . S
O95 Dy89 2.275 1_655 S
O95 C111 1.254 1_565 S
O96 Dy88 2.339 . S
O96 C111 1.257 . S
O97 Dy89 2.307 1_545 S
O97 C112 1.266 . S
O98 Dy88 2.298 1_455 S
O98 C112 1.236 . S
O99 Dy89 2.395 . S
O99 C119 1.255 . S
O100 Dy89 2.379 . S
O100 C119 1.249 . S
C101 O91 1.266 1_455 S
C101 O92 1.236 . S
O102 Dy88 2.275 1_455 S
O102 C90 1.249 1_545 S
O103 Dy89 2.339 . S
O103 C90 1.269 . S
C104 C107 1.344 1_655 S
C104 C108 1.328 . S
C104 C110 1.516 . S
C105 C106 1.287 1_655 S
C105 C109 1.341 . S
C106 C105 1.287 1_455 S
C106 C107 1.371 . S
C106 H120 0.930 . S
C107 C104 1.344 1_455 S
C107 C106 1.371 . S
C107 H121 0.931 . S
C108 C104 1.328 . S
C108 C109 1.433 . S
C108 H122 0.931 . S
C109 C105 1.341 . S
C109 C108 1.433 . S
C109 H123 0.933 . S
C110 Dy88 2.738 . S
C110 O93 1.255 1_655 S
C110 O94 1.249 . S
C110 C104 1.516 . S
C111 O95 1.254 1_545 S
C111 O96 1.257 . S
C112 O97 1.266 . S
C112 O98 1.236 . S
C113 C116 1.344 . S
C113 C117 1.328 . S
C113 C119 1.516 . S
C114 C115 1.304 . S
C114 C118 1.323 . S
C115 C114 1.304 . S
C115 C116 1.371 . S
C115 H124 0.930 1_455 S
C116 C113 1.344 . S
C116 C115 1.371 . S
C116 H125 0.931 1_455 S
C117 C113 1.328 . S
C117 C118 1.433 . S
C117 H126 0.931 . S
C118 C114 1.323 . S
C118 C117 1.433 . S
C118 H127 0.933 . S
C119 Dy89 2.738 . S
C119 O99 1.255 . S
C119 O100 1.249 . S
C119 C113 1.516 . S
H120 C106 0.930 . S
H121 C107 0.931 . S
H122 C108 0.931 . S
H123 C109 0.933 . S
H124 C115 0.930 1_655 S
H125 C116 0.931 1_655 S
H126 C117 0.931 . S
H127 C118 0.933 . S
Dy128 O131 2.307 . S
Dy128 O133 2.395 1_565 S
Dy128 O134 2.379 . S
Dy128 O136 2.339 . S
Dy128 O138 2.298 . S
Dy128 O142 2.275 1_565 S
Dy128 C150 2.738 . S
Dy129 O132 2.298 . S
Dy129 O135 2.275 1_545 S
Dy129 O137 2.307 . S
Dy129 O139 2.395 1_545 S
Dy129 O140 2.379 . S
Dy129 O143 2.339 . S
Dy129 C159 2.738 . S
C130 O142 1.254 . S
C130 O143 1.257 . S
O131 Dy128 2.307 . S
O131 C141 1.266 . S
O132 Dy129 2.298 . S
O132 C141 1.236 1_545 S
O133 Dy128 2.395 1_545 S
O133 C150 1.255 1_545 S
O134 Dy128 2.379 . S
O134 C150 1.249 . S
O135 Dy129 2.275 1_565 S
O135 C151 1.254 . S
O136 Dy128 2.339 . S
O136 C151 1.257 . S
O137 Dy129 2.307 . S
O137 C152 1.266 . S
O138 Dy128 2.298 . S
O138 C152 1.236 1_565 S
O139 Dy129 2.395 1_565 S
O139 C159 1.255 1_565 S
O140 Dy129 2.379 . S
O140 C159 1.249 . S
C141 O131 1.266 . S
C141 O132 1.236 1_565 S
O142 Dy128 2.275 1_545 S
O142 C130 1.254 . S
O143 Dy129 2.339 . S
O143 C130 1.257 . S
C144 C147 1.344 1_565 S
C144 C148 1.328 . S
C144 C150 1.516 . S
C145 C146 1.304 1_565 S
C145 C149 1.323 . S
C146 C145 1.304 1_545 S
C146 C147 1.371 . S
C146 H160 0.930 . S
C147 C144 1.344 1_545 S
C147 C146 1.371 . S
C147 H161 0.931 . S
C148 C144 1.328 . S
C148 C149 1.433 . S
C148 H162 0.931 . S
C149 C145 1.323 . S
C149 C148 1.433 . S
C149 H163 0.933 . S
C150 Dy128 2.738 . S
C150 O133 1.255 1_565 S
C150 O134 1.249 . S
C150 C144 1.516 . S
C151 O135 1.254 . S
C151 O136 1.257 . S
C152 O137 1.266 . S
C152 O138 1.236 1_545 S
C153 C156 1.344 1_545 S
C153 C157 1.328 . S
C153 C159 1.516 . S
C154 C155 1.304 1_545 S
C154 C158 1.323 . S
C155 C154 1.304 1_565 S
C155 C156 1.371 . S
C155 H164 0.930 . S
C156 C153 1.344 1_565 S
C156 C155 1.371 . S
C156 H165 0.931 . S
C157 C153 1.328 . S
C157 C158 1.433 . S
C157 H166 0.931 . S
C158 C154 1.323 . S
C158 C157 1.433 . S
C158 H167 0.933 . S
C159 Dy129 2.738 . S
C159 O139 1.255 1_545 S
C159 O140 1.249 . S
C159 C153 1.516 . S
H160 C146 0.930 . S
H161 C147 0.931 . S
H162 C148 0.931 . S
H163 C149 0.933 . S
H164 C155 0.930 . S
H165 C156 0.931 . S
H166 C157 0.931 . S
H167 C158 0.933 . S
Dy168 O171 2.307 . S
Dy168 O173 2.395 . S
Dy168 O174 2.379 . S
Dy168 O176 2.339 . S
Dy168 O178 2.298 . S
Dy168 O182 2.275 . S
Dy168 C190 2.738 . S
Dy169 O172 2.298 . S
Dy169 O175 2.275 . S
Dy169 O177 2.307 . S
Dy169 O179 2.395 . S
Dy169 O180 2.379 . S
Dy169 O183 2.339 . S
Dy169 C199 2.738 . S
C170 O182 1.254 . S
C170 O183 1.257 . S
O171 Dy168 2.307 . S
O171 C181 1.266 . S
O172 Dy169 2.298 . S
O172 C181 1.236 . S
O173 Dy168 2.395 . S
O173 C190 1.255 . S
O174 Dy168 2.379 . S
O174 C190 1.249 . S
O175 Dy169 2.275 . S
O175 C191 1.254 . S
O176 Dy168 2.339 . S
O176 C191 1.257 . S
O177 Dy169 2.307 . S
O177 C192 1.266 . S
O178 Dy168 2.298 . S
O178 C192 1.236 . S
O179 Dy169 2.395 . S
O179 C199 1.255 . S
O180 Dy169 2.379 . S
O180 C199 1.249 . S
C181 O171 1.266 . S
C181 O172 1.236 . S
O182 Dy168 2.275 . S
O182 C170 1.254 . S
O183 Dy169 2.339 . S
O183 C170 1.257 . S
C184 C187 1.344 . S
C184 C188 1.328 . S
C184 C190 1.516 . S
C185 C186 1.304 . S
C185 C189 1.323 . S
C186 C185 1.304 . S
C186 C187 1.371 . S
C186 H200 0.930 . S
C187 C184 1.344 . S
C187 C186 1.371 . S
C187 H201 0.931 . S
C188 C184 1.328 . S
C188 C189 1.433 . S
C188 H202 0.931 . S
C189 C185 1.323 . S
C189 C188 1.433 . S
C189 H203 0.933 . S
C190 Dy168 2.738 . S
C190 O173 1.255 . S
C190 O174 1.249 . S
C190 C184 1.516 . S
C191 O175 1.254 . S
C191 O176 1.257 . S
C192 O177 1.266 . S
C192 O178 1.236 . S
C193 C196 1.344 . S
C193 C197 1.328 . S
C193 C199 1.516 . S
C194 C195 1.304 . S
C194 C198 1.323 . S
C195 C194 1.304 . S
C195 C196 1.371 . S
C195 H204 0.930 . S
C196 C193 1.344 . S
C196 C195 1.371 . S
C196 H205 0.931 . S
C197 C193 1.328 . S
C197 C198 1.433 . S
C197 H206 0.931 . S
C198 C194 1.323 . S
C198 C197 1.433 . S
C198 H207 0.933 . S
C199 Dy169 2.738 . S
C199 O179 1.255 . S
C199 O180 1.249 . S
C199 C193 1.516 . S
H200 C186 0.930 . S
H201 C187 0.931 . S
H202 C188 0.931 . S
H203 C189 0.933 . S
H204 C195 0.930 . S
H205 C196 0.931 . S
H206 C197 0.931 . S
H207 C198 0.933 . S
Dy208 O211 2.307 1_455 S
Dy208 O213 2.395 . S
Dy208 O214 2.379 . S
Dy208 O216 2.339 . S
Dy208 O218 2.298 . S
Dy208 O222 2.275 . S
Dy208 C230 2.738 . S
Dy209 O212 2.298 . S
Dy209 O215 2.275 1_655 S
Dy209 O217 2.307 1_655 S
Dy209 O219 2.395 . S
Dy209 O220 2.379 . S
Dy209 O223 2.339 . S
Dy209 C239 2.738 . S
C210 O222 1.254 . S
C210 O223 1.257 1_455 S
O211 Dy208 2.307 1_655 S
O211 C221 1.266 . S
O212 Dy209 2.298 . S
O212 C221 1.236 . S
O213 Dy208 2.395 . S
O213 C230 1.255 . S
O214 Dy208 2.379 . S
O214 C230 1.249 . S
O215 Dy209 2.275 1_455 S
O215 C231 1.254 . S
O216 Dy208 2.339 . S
O216 C231 1.257 . S
O217 Dy209 2.307 1_455 S
O217 C232 1.266 . S
O218 Dy208 2.298 . S
O218 C232 1.236 . S
O219 Dy209 2.395 . S
O219 C239 1.255 . S
O220 Dy209 2.379 . S
O220 C239 1.249 . S
C221 O211 1.266 . S
C221 O212 1.236 . S
O222 Dy208 2.275 . S
O222 C210 1.254 . S
O223 Dy209 2.339 . S
O223 C210 1.257 1_655 S
C224 C227 1.344 . S
C224 C228 1.328 . S
C224 C230 1.516 . S
C225 C226 1.304 . S
C225 C229 1.323 . S
C226 C225 1.304 . S
C226 C227 1.371 . S
C226 H240 0.930 . S
C227 C224 1.344 . S
C227 C226 1.371 . S
C227 H241 0.931 . S
C228 C224 1.328 . S
C228 C229 1.433 . S
C228 H242 0.931 . S
C229 C225 1.323 . S
C229 C228 1.433 . S
C229 H243 0.933 . S
C230 Dy208 2.738 . S
C230 O213 1.255 . S
C230 O214 1.249 . S
C230 C224 1.516 . S
C231 O215 1.254 . S
C231 O216 1.257 . S
C232 O217 1.266 . S
C232 O218 1.236 . S
C233 C236 1.344 . S
C233 C237 1.328 . S
C233 C239 1.516 . S
C234 C235 1.304 1_554 S
C234 C238 1.323 1_554 S
C235 C234 1.304 1_556 S
C235 C236 1.371 . S
C235 H244 0.930 1_556 S
C236 C233 1.344 . S
C236 C235 1.371 . S
C236 H245 0.931 . S
C237 C233 1.328 . S
C237 C238 1.433 . S
C237 H246 0.931 . S
C238 C234 1.323 1_556 S
C238 C237 1.433 . S
C238 H247 0.935 . S
C239 Dy209 2.738 . S
C239 O219 1.255 . S
C239 O220 1.249 . S
C239 C233 1.516 . S
H240 C226 0.930 . S
H241 C227 0.931 . S
H242 C228 0.931 . S
H243 C229 0.933 . S
H244 C235 0.930 1_554 S
H245 C236 0.931 . S
H246 C237 0.931 . S
H247 C238 0.935 . S
H248 C256 0.928 1_565 S
H249 C258 0.927 1_565 S
H250 C260 0.930 . S
H251 C263 0.929 . S
H252 C266 0.930 . S
H253 C268 0.960 . S
H254 C268 0.960 . S
H255 C268 0.960 . S
C256 H248 0.928 1_545 S
C256 C257 1.377 . S
C256 C258 1.384 . S
C257 C256 1.377 . S
C257 C263 1.390 . S
C258 H249 0.927 1_545 S
C258 C256 1.384 . S
C258 C259 1.372 . S
C259 C258 1.372 . S
C259 C260 1.400 . S
C259 C264 1.490 . S
C260 H250 0.930 . S
C260 C259 1.400 . S
C260 C263 1.386 . S
H261 C277 0.930 . S
H262 C278 0.931 . S
C263 H251 0.929 . S
C263 C257 1.390 . S
C263 C260 1.386 . S
C264 C259 1.490 . S
C264 C266 1.395 . S
C264 C267 1.403 1_545 S
H265 C271 0.930 . S
C266 H252 0.930 . S
C266 C264 1.395 . S
C266 C269 1.403 . S
C267 C264 1.403 1_565 S
C267 C268 1.524 . S
C267 C271 1.400 . S
C268 H253 0.960 . S
C268 H254 0.960 . S
C268 H255 0.960 . S
C268 C267 1.524 . S
C269 C266 1.403 . S
C269 C270 1.392 . S
C269 C273 1.495 . S
C270 C269 1.392 . S
C270 C271 1.385 1_545 S
C270 C272 1.478 . S
C271 H265 0.930 . S
C271 C267 1.400 . S
C271 C270 1.385 1_565 S
C272 C270 1.478 . S
C272 C274 1.381 . S
C272 C278 1.383 . S
C273 C269 1.495 . S
C273 H279 0.959 . S
C273 H280 0.961 . S
C273 H281 0.960 . S
C274 C272 1.381 . S
C274 C275 1.394 1_545 S
C274 H282 0.930 1_545 S
C275 C274 1.394 1_565 S
C275 C276 1.383 1_565 S
C275 H283 0.930 . S
C276 C275 1.383 1_545 S
C276 C277 1.377 . S
C277 H261 0.930 . S
C277 C276 1.377 . S
C277 C278 1.379 . S
C278 H262 0.931 . S
C278 C272 1.383 . S
C278 C277 1.379 . S
H279 C273 0.959 . S
H280 C273 0.961 . S
H281 C273 0.960 . S
H282 C274 0.930 1_565 S
H283 C275 0.930 . S
H284 C292 0.929 . S
H285 C294 0.930 . S
H286 C296 0.930 . S
H287 C299 0.929 . S
H288 C302 0.930 . S
H289 C304 0.960 . S
H290 C304 0.960 . S
H291 C304 0.960 . S
C292 H284 0.929 . S
C292 C293 1.377 . S
C292 C294 1.384 . S
C293 C292 1.377 . S
C293 C299 1.390 . S
C294 H285 0.930 . S
C294 C292 1.384 . S
C294 C295 1.372 . S
C295 C294 1.372 . S
C295 C296 1.400 . S
C295 C300 1.490 . S
C296 H286 0.930 . S
C296 C295 1.400 . S
C296 C299 1.386 . S
H297 C313 0.930 . S
H298 C314 0.931 . S
C299 H287 0.929 . S
C299 C293 1.390 . S
C299 C296 1.386 . S
C300 C295 1.490 . S
C300 C302 1.395 . S
C300 C303 1.403 . S
H301 C307 0.930 . S
C302 H288 0.930 . S
C302 C300 1.395 . S
C302 C305 1.403 . S
C303 C300 1.403 . S
C303 C304 1.524 . S
C303 C307 1.400 . S
C304 H289 0.960 . S
C304 H290 0.960 . S
C304 H291 0.960 . S
C304 C303 1.524 . S
C305 C302 1.403 . S
C305 C306 1.392 . S
C305 C309 1.495 . S
C306 C305 1.392 . S
C306 C307 1.385 . S
C306 C308 1.478 . S
C307 H301 0.930 . S
C307 C303 1.400 . S
C307 C306 1.385 . S
C308 C306 1.478 . S
C308 C310 1.381 . S
C308 C314 1.383 . S
C309 C305 1.495 . S
C309 H315 0.959 . S
C309 H316 0.961 . S
C309 H317 0.960 . S
C310 C308 1.381 . S
C310 C311 1.394 . S
C310 H318 0.930 . S
C311 C310 1.394 . S
C311 C312 1.383 . S
C311 H319 0.929 . S
C312 C311 1.383 . S
C312 C313 1.377 . S
C313 H297 0.930 . S
C313 C312 1.377 . S
C313 C314 1.379 . S
C314 H298 0.931 . S
C314 C308 1.383 . S
C314 C313 1.379 . S
H315 C309 0.959 . S
H316 C309 0.961 . S
H317 C309 0.960 . S
H318 C310 0.930 . S
H319 C311 0.929 . S
H320 C328 0.929 . S
H321 C330 0.930 . S
H322 C332 0.930 . S
H323 C335 0.929 . S
H324 C338 0.930 . S
H325 C340 0.960 . S
H326 C340 0.960 . S
H327 C340 0.960 . S
C328 H320 0.929 . S
C328 C329 1.377 . S
C328 C330 1.384 . S
C329 C328 1.377 . S
C329 C335 1.390 . S
C330 H321 0.930 . S
C330 C328 1.384 . S
C330 C331 1.372 . S
C331 C330 1.372 . S
C331 C332 1.400 . S
C331 C336 1.490 . S
C332 H322 0.930 . S
C332 C331 1.400 . S
C332 C335 1.386 . S
H333 C349 0.930 . S
H334 C350 0.931 . S
C335 H323 0.929 . S
C335 C329 1.390 . S
C335 C332 1.386 . S
C336 C331 1.490 . S
C336 C338 1.395 . S
C336 C339 1.403 . S
H337 C343 0.930 . S
C338 H324 0.930 . S
C338 C336 1.395 . S
C338 C341 1.403 . S
C339 C336 1.403 . S
C339 C340 1.524 . S
C339 C343 1.400 . S
C340 H325 0.960 . S
C340 H326 0.960 . S
C340 H327 0.960 . S
C340 C339 1.524 . S
C341 C338 1.403 . S
C341 C342 1.392 . S
C341 C345 1.495 . S
C342 C341 1.392 . S
C342 C343 1.385 . S
C342 C344 1.478 . S
C343 H337 0.930 . S
C343 C339 1.400 . S
C343 C342 1.385 . S
C344 C342 1.478 . S
C344 C346 1.381 . S
C344 C350 1.383 . S
C345 C341 1.495 . S
C345 H351 0.959 . S
C345 H352 0.961 . S
C345 H353 0.960 . S
C346 C344 1.381 . S
C346 C347 1.394 . S
C346 H354 0.930 . S
C347 C346 1.394 . S
C347 C348 1.383 . S
C347 H355 0.929 . S
C348 C347 1.383 . S
C348 C349 1.377 . S
C349 H333 0.930 . S
C349 C348 1.377 . S
C349 C350 1.379 . S
C350 H334 0.931 . S
C350 C344 1.383 . S
C350 C349 1.379 . S
H351 C345 0.959 . S
H352 C345 0.961 . S
H353 C345 0.960 . S
H354 C346 0.930 . S
H355 C347 0.929 . S
H356 C364 0.883 1_655 S
H357 C366 0.930 1_655 S
H358 C368 0.930 . S
H359 C371 0.929 . S
H360 C374 0.896 1_655 S
H361 C376 0.960 . S
H362 C376 0.960 . S
H363 C376 0.960 . S
C364 H356 0.883 1_455 S
C364 C365 1.377 . S
C364 C366 1.384 . S
C365 C364 1.377 . S
C365 C371 1.390 . S
C366 H357 0.930 1_455 S
C366 C364 1.384 . S
C366 C367 1.372 . S
C367 C366 1.372 . S
C367 C368 1.400 . S
C367 C372 1.490 . S
C368 H358 0.930 . S
C368 C367 1.400 . S
C368 C371 1.386 . S
H369 C385 0.930 . S
H370 C386 0.931 . S
C371 H359 0.929 . S
C371 C365 1.390 . S
C371 C368 1.386 . S
C372 C367 1.490 . S
C372 C374 1.427 . S
C372 C375 1.403 . S
H373 C379 0.930 . S
C374 H360 0.896 1_455 S
C374 C372 1.427 . S
C374 C377 1.405 1_455 S
C375 C372 1.403 . S
C375 C376 1.524 . S
C375 C379 1.400 . S
C376 H361 0.960 . S
C376 H362 0.960 . S
C376 H363 0.960 . S
C376 C375 1.524 . S
C377 C374 1.405 1_655 S
C377 C378 1.392 1_655 S
C377 C381 1.495 . S
C378 C377 1.392 1_455 S
C378 C379 1.385 . S
C378 C380 1.478 . S
C379 H373 0.930 . S
C379 C375 1.400 . S
C379 C378 1.385 . S
C380 C378 1.478 . S
C380 C382 1.381 1_455 S
C380 C386 1.383 . S
C381 C377 1.495 . S
C381 H387 0.959 . S
C381 H388 0.961 . S
C381 H389 0.960 . S
C382 C380 1.381 1_655 S
C382 C383 1.394 . S
C382 H390 0.930 . S
C383 C382 1.394 . S
C383 C384 1.383 1_655 S
C383 H391 0.929 . S
C384 C383 1.383 1_455 S
C384 C385 1.377 . S
C385 H369 0.930 . S
C385 C384 1.377 . S
C385 C386 1.379 . S
C386 H370 0.931 . S
C386 C380 1.383 . S
C386 C385 1.379 . S
H387 C381 0.959 . S
H388 C381 0.961 . S
H389 C381 0.960 . S
H390 C382 0.930 . S
H391 C383 0.929 . S
H392 C400 0.929 . S
H393 C402 0.930 . S
H394 C404 0.930 . S
H395 C407 0.929 . S
H396 C410 0.930 . S
H397 C412 0.960 . S
H398 C412 0.960 1_565 S
H399 C412 0.960 . S
C400 H392 0.929 . S
C400 C401 1.377 . S
C400 C402 1.384 . S
C401 C400 1.377 . S
C401 C407 1.390 1_565 S
C402 H393 0.930 . S
C402 C400 1.384 . S
C402 C403 1.372 . S
C403 C402 1.372 . S
C403 C404 1.400 1_565 S
C403 C408 1.490 . S
C404 H394 0.930 . S
C404 C403 1.400 1_545 S
C404 C407 1.386 . S
H405 C421 0.930 . S
H406 C422 0.931 . S
C407 H395 0.929 . S
C407 C401 1.390 1_545 S
C407 C404 1.386 . S
C408 C403 1.490 . S
C408 C410 1.395 1_554 S
C408 C411 1.403 1_565 S
H409 C415 0.930 . S
C410 H396 0.930 . S
C410 C408 1.395 1_556 S
C410 C413 1.403 . S
C411 C408 1.403 1_545 S
C411 C412 1.524 . S
C411 C415 1.400 . S
C412 H397 0.960 . S
C412 H398 0.960 1_545 S
C412 H399 0.960 . S
C412 C411 1.524 . S
C413 C410 1.403 . S
C413 C414 1.392 . S
C413 C417 1.495 . S
C414 C413 1.392 . S
C414 C415 1.385 1_566 S
C414 C416 1.478 . S
C415 H409 0.930 . S
C415 C411 1.400 . S
C415 C414 1.385 1_544 S
C416 C414 1.478 . S
C416 C418 1.381 . S
C416 C422 1.383 1_565 S
C417 C413 1.495 . S
C417 H423 0.959 . S
C417 H424 0.961 . S
C417 H425 0.960 . S
C418 C416 1.381 . S
C418 C419 1.394 . S
C418 H426 0.930 . S
C419 C418 1.394 . S
C419 C420 1.376 1_565 S
C419 H427 0.929 . S
C420 C419 1.376 1_545 S
C420 C421 1.383 . S
C421 H405 0.930 . S
C421 C420 1.383 . S
C421 C422 1.379 . S
C422 H406 0.931 . S
C422 C416 1.383 1_545 S
C422 C421 1.379 . S
H423 C417 0.959 . S
H424 C417 0.961 . S
H425 C417 0.960 . S
H426 C418 0.930 . S
H427 C419 0.929 . S
H428 C436 0.929 . S
H429 C438 0.930 . S
H430 C440 0.930 . S
H431 C443 0.929 . S
H432 C446 0.930 1_554 S
H433 C448 0.960 . S
H434 C448 0.960 . S
H435 C448 0.960 . S
C436 H428 0.929 . S
C436 C437 1.377 . S
C436 C438 1.384 . S
C437 C436 1.377 . S
C437 C443 1.390 1_554 S
C438 H429 0.930 . S
C438 C436 1.384 . S
C438 C439 1.372 1_554 S
C439 C438 1.372 1_556 S
C439 C440 1.400 . S
C439 C444 1.490 . S
C440 H430 0.930 . S
C440 C439 1.400 . S
C440 C443 1.386 . S
H441 C457 0.930 . S
H442 C458 0.931 . S
C443 H431 0.929 . S
C443 C437 1.390 1_556 S
C443 C440 1.386 . S
C444 C439 1.490 . S
C444 C446 1.395 . S
C444 C447 1.403 . S
H445 C451 0.930 . S
C446 H432 0.930 1_556 S
C446 C444 1.395 . S
C446 C449 1.403 . S
C447 C444 1.403 . S
C447 C448 1.524 . S
C447 C451 1.400 . S
C448 H433 0.960 . S
C448 H434 0.960 . S
C448 H435 0.960 . S
C448 C447 1.524 . S
C449 C446 1.403 . S
C449 C450 1.392 . S
C449 C453 1.495 . S
C450 C449 1.392 . S
C450 C451 1.385 . S
C450 C452 1.478 . S
C451 H445 0.930 . S
C451 C447 1.400 . S
C451 C450 1.385 . S
C452 C450 1.478 . S
C452 C454 1.381 . S
C452 C458 1.383 . S
C453 C449 1.495 . S
C453 H459 0.959 1_556 S
C453 H460 0.961 . S
C453 H461 0.960 1_556 S
C454 C452 1.381 . S
C454 C455 1.394 . S
C454 H462 0.930 . S
C455 C454 1.394 . S
C455 C456 1.383 . S
C455 H463 0.929 . S
C456 C455 1.383 . S
C456 C457 1.377 . S
C457 H441 0.930 . S
C457 C456 1.377 . S
C457 C458 1.379 . S
C458 H442 0.931 . S
C458 C452 1.383 . S
C458 C457 1.379 . S
H459 C453 0.959 1_554 S
H460 C453 0.961 . S
H461 C453 0.960 1_554 S
H462 C454 0.930 . S
H463 C455 0.929 . S
H464 C472 0.929 . S
H465 C474 0.930 . S
H466 C476 0.930 . S
H467 C479 0.929 . S
H468 C482 0.930 . S
H469 C484 0.960 . S
H470 C484 0.960 . S
H471 C484 0.960 . S
C472 H464 0.929 . S
C472 C473 1.377 . S
C472 C474 1.384 . S
C473 C472 1.377 . S
C473 C479 1.390 . S
C474 H465 0.930 . S
C474 C472 1.384 . S
C474 C475 1.372 . S
C475 C474 1.372 . S
C475 C476 1.400 . S
C475 C480 1.490 . S
C476 H466 0.930 . S
C476 C475 1.400 . S
C476 C479 1.386 . S
H477 C493 0.930 . S
H478 C494 0.931 . S
C479 H467 0.929 . S
C479 C473 1.390 . S
C479 C476 1.386 . S
C480 C475 1.490 . S
C480 C482 1.395 . S
C480 C483 1.403 . S
H481 C487 0.930 . S
C482 H468 0.930 . S
C482 C480 1.395 . S
C482 C485 1.403 . S
C483 C480 1.403 . S
C483 C484 1.524 . S
C483 C487 1.400 . S
C484 H469 0.960 . S
C484 H470 0.960 . S
C484 H471 0.960 . S
C484 C483 1.524 . S
C485 C482 1.403 . S
C485 C486 1.392 . S
C485 C489 1.495 . S
C486 C485 1.392 . S
C486 C487 1.385 . S
C486 C488 1.478 . S
C487 H481 0.930 . S
C487 C483 1.400 . S
C487 C486 1.385 . S
C488 C486 1.478 . S
C488 C490 1.381 . S
C488 C494 1.383 . S
C489 C485 1.495 . S
C489 H495 0.959 . S
C489 H496 0.961 . S
C489 H497 0.960 . S
C490 C488 1.381 . S
C490 C491 1.394 . S
C490 H498 0.930 . S
C491 C490 1.394 . S
C491 C492 1.383 1_554 S
C491 H499 0.929 . S
C492 C491 1.383 1_556 S
C492 C493 1.377 . S
C493 H477 0.930 . S
C493 C492 1.377 . S
C493 C494 1.379 1_556 S
C494 H478 0.931 . S
C494 C488 1.383 . S
C494 C493 1.379 1_554 S
H495 C489 0.959 . S
H496 C489 0.961 . S
H497 C489 0.960 . S
H498 C490 0.930 . S
H499 C491 0.929 . S
H500 C508 0.929 . S
H501 C510 0.930 . S
H502 C512 0.930 . S
H503 C515 0.929 . S
H504 C518 0.930 . S
H505 C520 0.960 1_556 S
H506 C520 0.960 . S
H507 C520 0.960 1_655 S
C508 H500 0.929 . S
C508 C509 1.377 1_455 S
C508 C510 1.384 . S
C509 C508 1.377 1_655 S
C509 C515 1.390 . S
C510 H501 0.930 . S
C510 C508 1.384 . S
C510 C511 1.372 1_455 S
C511 C510 1.372 1_655 S
C511 C512 1.400 . S
C511 C516 1.490 . S
C512 H502 0.930 . S
C512 C511 1.400 . S
C512 C515 1.386 . S
H513 C529 0.930 . S
H514 C530 0.931 . S
C515 H503 0.929 . S
C515 C509 1.390 . S
C515 C512 1.386 . S
C516 C511 1.490 . S
C516 C518 1.395 . S
C516 C519 1.403 1_655 S
H517 C523 0.928 . S
C518 H504 0.930 . S
C518 C516 1.395 . S
C518 C521 1.403 . S
C519 C516 1.403 1_455 S
C519 C520 1.524 . S
C519 C523 1.407 1_554 S
C520 H505 0.960 1_554 S
C520 H506 0.960 . S
C520 H507 0.960 1_455 S
C520 C519 1.524 . S
C521 C518 1.403 . S
C521 C522 1.397 1_655 S
C521 C525 1.494 . S
C522 C521 1.397 1_455 S
C522 C523 1.385 1_554 S
C522 C524 1.472 1_554 S
C523 H517 0.928 . S
C523 C519 1.407 1_556 S
C523 C522 1.385 1_556 S
C524 C522 1.472 1_556 S
C524 C526 1.381 . S
C524 C530 1.383 1_455 S
C525 C521 1.494 . S
C525 H531 0.957 . S
C525 H532 0.985 . S
C525 H533 0.939 1_655 S
C526 C524 1.381 . S
C526 C527 1.394 . S
C526 H534 0.930 . S
C527 C526 1.394 . S
C527 C528 1.383 . S
C527 H535 0.929 . S
C528 C527 1.383 . S
C528 C529 1.377 1_455 S
C529 H513 0.930 . S
C529 C528 1.377 1_655 S
C529 C530 1.379 . S
C530 H514 0.931 . S
C530 C524 1.383 1_655 S
C530 C529 1.379 . S
H531 C525 0.957 . S
H532 C525 0.985 . S
H533 C525 0.939 1_455 S
H534 C526 0.930 . S
H535 C527 0.929 . S
H536 C544 0.886 1_655 S
H537 C546 0.930 1_655 S
H538 C548 0.930 . S
H539 C551 0.929 . S
H540 C554 0.930 . S
H541 C556 0.960 . S
H542 C556 0.960 . S
H543 C556 0.960 . S
C544 H536 0.886 1_455 S
C544 C545 1.377 . S
C544 C546 1.384 . S
C545 C544 1.377 . S
C545 C551 1.390 . S
C546 H537 0.930 1_455 S
C546 C544 1.384 . S
C546 C547 1.372 . S
C547 C546 1.372 . S
C547 C548 1.400 . S
C547 C552 1.490 . S
C548 H538 0.930 . S
C548 C547 1.400 . S
C548 C551 1.386 . S
H549 C565 0.930 . S
H550 C566 0.931 . S
C551 H539 0.929 . S
C551 C545 1.390 . S
C551 C548 1.386 . S
C552 C547 1.490 . S
C552 C554 1.395 . S
C552 C555 1.403 . S
H553 C559 0.930 . S
C554 H540 0.930 . S
C554 C552 1.395 . S
C554 C557 1.403 . S
C555 C552 1.403 . S
C555 C556 1.524 . S
C555 C559 1.400 . S
C556 H541 0.960 . S
C556 H542 0.960 . S
C556 H543 0.960 . S
C556 C555 1.524 . S
C557 C554 1.403 . S
C557 C558 1.392 . S
C557 C561 1.495 . S
C558 C557 1.392 . S
C558 C559 1.385 . S
C558 C560 1.478 . S
C559 H553 0.930 . S
C559 C555 1.400 . S
C559 C558 1.385 . S
C560 C558 1.478 . S
C560 C562 1.381 1_455 S
C560 C566 1.383 . S
C561 C557 1.495 . S
C561 H567 0.959 . S
C561 H568 0.961 . S
C561 H569 0.960 1_455 S
C562 C560 1.381 1_655 S
C562 C563 1.394 . S
C562 H570 0.930 . S
C563 C562 1.394 . S
C563 C564 1.383 . S
C563 H571 0.929 . S
C564 C563 1.383 . S
C564 C565 1.377 1_655 S
C565 H549 0.930 . S
C565 C564 1.377 1_455 S
C565 C566 1.379 . S
C566 H550 0.931 . S
C566 C560 1.383 . S
C566 C565 1.379 . S
H567 C561 0.959 . S
H568 C561 0.961 . S
H569 C561 0.960 1_655 S
H570 C562 0.930 . S
H571 C563 0.929 . S
H572 C580 0.929 . S
H573 C582 0.930 . S
H574 C584 0.930 . S
H575 C587 0.929 . S
H576 C590 0.930 . S
H577 C592 0.960 . S
H578 C592 0.960 . S
H579 C592 0.960 . S
C580 H572 0.929 . S
C580 C581 1.377 1_565 S
C580 C582 1.384 . S
C581 C580 1.377 1_545 S
C581 C587 1.390 . S
C582 H573 0.930 . S
C582 C580 1.384 . S
C582 C583 1.365 1_565 S
C583 C582 1.365 1_545 S
C583 C584 1.408 . S
C583 C588 1.489 1_545 S
C584 H574 0.930 . S
C584 C583 1.408 . S
C584 C587 1.386 . S
H585 C601 0.930 . S
H586 C602 0.931 . S
C587 H575 0.929 . S
C587 C581 1.390 . S
C587 C584 1.386 . S
C588 C583 1.489 1_565 S
C588 C590 1.395 1_565 S
C588 C591 1.403 . S
H589 C595 0.930 . S
C590 H576 0.930 . S
C590 C588 1.395 1_545 S
C590 C593 1.403 . S
C591 C588 1.403 . S
C591 C592 1.524 . S
C591 C595 1.400 . S
C592 H577 0.960 . S
C592 H578 0.960 . S
C592 H579 0.960 . S
C592 C591 1.524 . S
C593 C590 1.403 . S
C593 C594 1.393 1_545 S
C593 C597 1.495 . S
C594 C593 1.393 1_565 S
C594 C595 1.385 . S
C594 C596 1.478 . S
C595 H589 0.930 . S
C595 C591 1.400 . S
C595 C594 1.385 . S
C596 C594 1.478 . S
C596 C598 1.381 . S
C596 C602 1.383 1_565 S
C597 C593 1.495 . S
C597 H603 0.959 . S
C597 H604 0.961 . S
C597 H605 0.960 1_545 S
C598 C596 1.381 . S
C598 C599 1.394 . S
C598 H606 0.930 . S
C599 C598 1.394 . S
C599 C600 1.383 . S
C599 H607 0.929 . S
C600 C599 1.383 . S
C600 C601 1.377 1_565 S
C601 H585 0.930 . S
C601 C600 1.377 1_545 S
C601 C602 1.379 . S
C602 H586 0.931 . S
C602 C596 1.383 1_545 S
C602 C601 1.379 . S
H603 C597 0.959 . S
H604 C597 0.961 . S
H605 C597 0.960 1_565 S
H606 C598 0.930 . S
H607 C599 0.929 . S
H608 C616 0.929 . S
H609 C618 0.930 . S
H610 C620 0.930 . S
H611 C623 0.929 . S
H612 C626 0.930 . S
H613 C628 0.960 . S
H614 C628 0.960 . S
H615 C628 0.960 . S
C616 H608 0.929 . S
C616 C617 1.377 . S
C616 C618 1.384 . S
C617 C616 1.377 . S
C617 C623 1.390 . S
C618 H609 0.930 . S
C618 C616 1.384 . S
C618 C619 1.372 . S
C619 C618 1.372 . S
C619 C620 1.400 . S
C619 C624 1.490 . S
C620 H610 0.930 . S
C620 C619 1.400 . S
C620 C623 1.386 . S
H621 C637 0.930 . S
H622 C638 0.931 . S
C623 H611 0.929 . S
C623 C617 1.390 . S
C623 C620 1.386 . S
C624 C619 1.490 . S
C624 C626 1.395 . S
C624 C627 1.403 . S
H625 C631 0.930 . S
C626 H612 0.930 . S
C626 C624 1.395 . S
C626 C629 1.403 . S
C627 C624 1.403 . S
C627 C628 1.524 . S
C627 C631 1.400 . S
C628 H613 0.960 . S
C628 H614 0.960 . S
C628 H615 0.960 . S
C628 C627 1.524 . S
C629 C626 1.403 . S
C629 C630 1.392 . S
C629 C633 1.495 . S
C630 C629 1.392 . S
C630 C631 1.385 . S
C630 C632 1.478 . S
C631 H625 0.930 . S
C631 C627 1.400 . S
C631 C630 1.385 . S
C632 C630 1.478 . S
C632 C634 1.381 . S
C632 C638 1.383 . S
C633 C629 1.495 . S
C633 H639 0.959 . S
C633 H640 0.961 . S
C633 H641 0.960 . S
C634 C632 1.381 . S
C634 C635 1.394 . S
C634 H642 0.930 . S
C635 C634 1.394 . S
C635 C636 1.383 . S
C635 H643 0.929 . S
C636 C635 1.383 . S
C636 C637 1.377 . S
C637 H621 0.930 . S
C637 C636 1.377 . S
C637 C638 1.379 . S
C638 H622 0.931 . S
C638 C632 1.383 . S
C638 C637 1.379 . S
H639 C633 0.959 . S
H640 C633 0.961 . S
H641 C633 0.960 . S
H642 C634 0.930 . S
H643 C635 0.929 . S
H644 C652 0.929 . S
H645 C654 0.930 . S
H646 C656 0.930 . S
H647 C659 0.913 1_556 S
H648 C662 0.930 . S
H649 C664 0.960 . S
H650 C664 0.960 . S
H651 C664 0.960 . S
C652 H644 0.929 . S
C652 C653 1.377 . S
C652 C654 1.384 . S
C653 C652 1.377 . S
C653 C659 1.390 . S
C654 H645 0.930 . S
C654 C652 1.384 . S
C654 C655 1.372 . S
C655 C654 1.372 . S
C655 C656 1.400 . S
C655 C660 1.490 . S
C656 H646 0.930 . S
C656 C655 1.400 . S
C656 C659 1.386 . S
H657 C673 0.930 . S
H658 C674 0.931 . S
C659 H647 0.913 1_554 S
C659 C653 1.390 . S
C659 C656 1.386 . S
C660 C655 1.490 . S
C660 C662 1.395 . S
C660 C663 1.403 . S
H661 C667 0.930 . S
C662 H648 0.930 . S
C662 C660 1.395 . S
C662 C665 1.403 . S
C663 C660 1.403 . S
C663 C664 1.524 . S
C663 C667 1.400 . S
C664 H649 0.960 . S
C664 H650 0.960 . S
C664 H651 0.960 . S
C664 C663 1.524 . S
C665 C662 1.403 . S
C665 C666 1.392 . S
C665 C669 1.495 . S
C666 C665 1.392 . S
C666 C667 1.385 . S
C666 C668 1.478 . S
C667 H661 0.930 . S
C667 C663 1.400 . S
C667 C666 1.385 . S
C668 C666 1.478 . S
C668 C670 1.381 . S
C668 C674 1.383 . S
C669 C665 1.495 . S
C669 H675 0.959 . S
C669 H676 0.961 . S
C669 H677 0.960 . S
C670 C668 1.381 . S
C670 C671 1.394 . S
C670 H678 0.930 . S
C671 C670 1.394 . S
C671 C672 1.383 . S
C671 H679 0.929 . S
C672 C671 1.383 . S
C672 C673 1.377 . S
C673 H657 0.930 . S
C673 C672 1.377 . S
C673 C674 1.379 . S
C674 H658 0.931 . S
C674 C668 1.383 . S
C674 C673 1.379 . S
H675 C669 0.959 . S
H676 C669 0.961 . S
H677 C669 0.960 . S
H678 C670 0.930 . S
H679 C671 0.929 . S
H680 C688 0.929 . S
H681 C690 0.930 . S
H682 C692 0.930 . S
H683 C695 0.929 . S
H684 C698 0.930 1_655 S
H685 C700 0.960 . S
H686 C700 0.960 1_655 S
H687 C700 0.960 . S
C688 H680 0.929 . S
C688 C689 1.377 . S
C688 C690 1.384 . S
C689 C688 1.377 . S
C689 C695 1.390 1_655 S
C690 H681 0.930 . S
C690 C688 1.384 . S
C690 C691 1.372 . S
C691 C690 1.372 . S
C691 C692 1.400 1_655 S
C691 C696 1.490 1_655 S
C692 H682 0.930 . S
C692 C691 1.400 1_455 S
C692 C695 1.386 . S
H693 C709 0.930 . S
H694 C710 0.931 . S
C695 H683 0.929 . S
C695 C689 1.390 1_455 S
C695 C692 1.386 . S
C696 C691 1.490 1_455 S
C696 C698 1.395 . S
C696 C699 1.403 . S
H697 C703 0.930 . S
C698 H684 0.930 1_455 S
C698 C696 1.395 . S
C698 C701 1.403 . S
C699 C696 1.403 . S
C699 C700 1.524 . S
C699 C703 1.400 . S
C700 H685 0.960 . S
C700 H686 0.960 1_455 S
C700 H687 0.960 . S
C700 C699 1.524 . S
C701 C698 1.403 . S
C701 C702 1.392 . S
C701 C705 1.495 . S
C702 C701 1.392 . S
C702 C703 1.385 . S
C702 C704 1.478 . S
C703 H697 0.930 . S
C703 C699 1.400 . S
C703 C702 1.385 . S
C704 C702 1.478 . S
C704 C706 1.341 1_455 S
C704 C710 1.383 . S
C705 C701 1.495 . S
C705 H711 0.959 . S
C705 H712 0.961 . S
C705 H713 0.960 1_455 S
C706 C704 1.341 1_655 S
C706 C707 1.387 1_655 S
C706 H714 0.981 . S
C707 C706 1.387 1_455 S
C707 C708 1.383 1_554 S
C707 H715 0.929 1_455 S
C708 C707 1.383 1_556 S
C708 C709 1.377 . S
C709 H693 0.930 . S
C709 C708 1.377 . S
C709 C710 1.379 1_556 S
C710 H694 0.931 . S
C710 C704 1.383 . S
C710 C709 1.379 1_554 S
H711 C705 0.959 . S
H712 C705 0.961 . S
H713 C705 0.960 1_655 S
H714 C706 0.981 . S
H715 C707 0.929 1_655 S
H716 C724 0.929 . S
H717 C726 0.930 . S
H718 C728 0.930 . S
H719 C731 0.929 . S
H720 C734 0.930 . S
H721 C736 0.960 1_556 S
H722 C736 0.960 . S
H723 C736 0.960 . S
C724 H716 0.929 . S
C724 C725 1.377 . S
C724 C726 1.384 . S
C725 C724 1.377 . S
C725 C731 1.390 1_565 S
C726 H717 0.930 . S
C726 C724 1.384 . S
C726 C727 1.372 1_565 S
C727 C726 1.372 1_545 S
C727 C728 1.400 . S
C727 C732 1.490 . S
C728 H718 0.930 . S
C728 C727 1.400 . S
C728 C731 1.386 . S
H729 C745 0.930 1_554 S
H730 C746 0.931 . S
C731 H719 0.929 . S
C731 C725 1.390 1_545 S
C731 C728 1.386 . S
C732 C727 1.490 . S
C732 C734 1.395 1_545 S
C732 C735 1.403 . S
H733 C739 0.930 1_556 S
C734 H720 0.930 . S
C734 C732 1.395 1_565 S
C734 C737 1.403 . S
C735 C732 1.403 . S
C735 C736 1.524 . S
C735 C739 1.400 . S
C736 H721 0.960 1_554 S
C736 H722 0.960 . S
C736 H723 0.960 . S
C736 C735 1.524 . S
C737 C734 1.403 . S
C737 C738 1.392 1_565 S
C737 C741 1.495 . S
C738 C737 1.392 1_545 S
C738 C739 1.385 . S
C738 C740 1.478 . S
C739 H733 0.930 1_554 S
C739 C735 1.400 . S
C739 C738 1.385 . S
C740 C738 1.478 . S
C740 C742 1.381 1_544 S
C740 C746 1.383 . S
C741 C737 1.495 . S
C741 H747 0.959 . S
C741 H748 0.961 . S
C741 H749 0.960 . S
C742 C740 1.381 1_566 S
C742 C743 1.394 . S
C742 H750 0.930 . S
C743 C742 1.394 . S
C743 C744 1.383 1_565 S
C743 H751 0.929 . S
C744 C743 1.383 1_545 S
C744 C745 1.377 . S
C745 H729 0.930 1_556 S
C745 C744 1.377 . S
C745 C746 1.379 1_556 S
C746 H730 0.931 . S
C746 C740 1.383 . S
C746 C745 1.379 1_554 S
H747 C741 0.959 . S
H748 C741 0.961 . S
H749 C741 0.960 . S
H750 C742 0.930 . S
H751 C743 0.929 . S
H752 C760 0.929 . S
H753 C762 0.930 . S
H754 C764 0.930 . S
H755 C767 0.928 1_556 S
H756 C770 0.930 . S
H757 C772 0.960 . S
H758 C772 0.960 . S
H759 C772 0.960 . S
C760 H752 0.929 . S
C760 C761 1.377 . S
C760 C762 1.384 . S
C761 C760 1.377 . S
C761 C767 1.392 . S
C762 H753 0.930 . S
C762 C760 1.384 . S
C762 C763 1.367 1_554 S
C763 C762 1.367 1_556 S
C763 C764 1.402 . S
C763 C768 1.492 . S
C764 H754 0.930 . S
C764 C763 1.402 . S
C764 C767 1.385 1_556 S
H765 C781 0.930 . S
H766 C782 0.931 . S
C767 H755 0.928 1_554 S
C767 C761 1.392 . S
C767 C764 1.385 1_554 S
C768 C763 1.492 . S
C768 C770 1.395 1_556 S
C768 C771 1.403 . S
H769 C775 0.930 . S
C770 H756 0.930 . S
C770 C768 1.395 1_554 S
C770 C773 1.403 1_554 S
C771 C768 1.403 . S
C771 C772 1.524 . S
C771 C775 1.400 . S
C772 H757 0.960 . S
C772 H758 0.960 . S
C772 H759 0.960 . S
C772 C771 1.524 . S
C773 C770 1.403 1_556 S
C773 C774 1.392 . S
C773 C777 1.495 1_556 S
C774 C773 1.392 . S
C774 C775 1.385 . S
C774 C776 1.478 . S
C775 H769 0.930 . S
C775 C771 1.400 . S
C775 C774 1.385 . S
C776 C774 1.478 . S
C776 C778 1.381 . S
C776 C782 1.383 . S
C777 C773 1.495 1_554 S
C777 H783 0.959 . S
C777 H784 0.961 . S
C777 H785 0.960 . S
C778 C776 1.381 . S
C778 C779 1.394 . S
C778 H786 0.930 . S
C779 C778 1.394 . S
C779 C780 1.383 . S
C779 H787 0.929 . S
C780 C779 1.383 . S
C780 C781 1.377 . S
C781 H765 0.930 . S
C781 C780 1.377 . S
C781 C782 1.379 . S
C782 H766 0.931 . S
C782 C776 1.383 . S
C782 C781 1.379 . S
H783 C777 0.959 . S
H784 C777 0.961 . S
H785 C777 0.960 . S
H786 C778 0.930 . S
H787 C779 0.929 . S
H788 C796 0.929 . S
H789 C798 0.930 . S
H790 C800 0.930 . S
H791 C803 0.929 . S
H792 C806 0.930 . S
H793 C808 0.960 . S
H794 C808 0.960 . S
H795 C808 0.960 . S
C796 H788 0.929 . S
C796 C797 1.377 . S
C796 C798 1.384 . S
C797 C796 1.377 . S
C797 C803 1.390 . S
C798 H789 0.930 . S
C798 C796 1.384 . S
C798 C799 1.372 . S
C799 C798 1.372 . S
C799 C800 1.400 . S
C799 C804 1.490 . S
C800 H790 0.930 . S
C800 C799 1.400 . S
C800 C803 1.386 . S
H801 C817 0.930 1_556 S
H802 C818 0.931 . S
C803 H791 0.929 . S
C803 C797 1.390 . S
C803 C800 1.386 . S
C804 C799 1.490 . S
C804 C806 1.395 . S
C804 C807 1.403 . S
H805 C811 0.930 . S
C806 H792 0.930 . S
C806 C804 1.395 . S
C806 C809 1.403 . S
C807 C804 1.403 . S
C807 C808 1.524 . S
C807 C811 1.400 . S
C808 H793 0.960 . S
C808 H794 0.960 . S
C808 H795 0.960 . S
C808 C807 1.524 . S
C809 C806 1.403 . S
C809 C810 1.392 . S
C809 C813 1.495 . S
C810 C809 1.392 . S
C810 C811 1.385 . S
C810 C812 1.478 . S
C811 H805 0.930 . S
C811 C807 1.400 . S
C811 C810 1.385 . S
C812 C810 1.478 . S
C812 C814 1.381 . S
C812 C818 1.383 . S
C813 C809 1.495 . S
C813 H819 0.959 . S
C813 H820 0.961 . S
C813 H821 0.960 . S
C814 C812 1.381 . S
C814 C815 1.394 . S
C814 H822 0.930 . S
C815 C814 1.394 . S
C815 C816 1.383 . S
C815 H823 0.929 . S
C816 C815 1.383 . S
C816 C817 1.377 . S
C817 H801 0.930 1_554 S
C817 C816 1.377 . S
C817 C818 1.379 . S
C818 H802 0.931 . S
C818 C812 1.383 . S
C818 C817 1.379 . S
H819 C813 0.959 . S
H820 C813 0.961 . S
H821 C813 0.960 . S
H822 C814 0.930 . S
H823 C815 0.929 . S
H824 C832 0.929 . S
H825 C834 0.938 . S
H826 C836 0.930 . S
H827 C839 0.929 . S
H828 C842 0.930 1_554 S
H829 C844 0.960 . S
H830 C844 0.960 . S
H831 C844 0.960 . S
C832 H824 0.929 . S
C832 C833 1.377 1_554 S
C832 C834 1.387 . S
C833 C832 1.377 1_556 S
C833 C839 1.390 . S
C834 H825 0.938 . S
C834 C832 1.387 . S
C834 C835 1.360 1_554 S
C835 C834 1.360 1_556 S
C835 C836 1.400 . S
C835 C840 1.490 . S
C836 H826 0.930 . S
C836 C835 1.400 . S
C836 C839 1.386 . S
H837 C853 0.930 . S
H838 C854 0.931 . S
C839 H827 0.929 . S
C839 C833 1.390 . S
C839 C836 1.386 . S
C840 C835 1.490 . S
C840 C842 1.395 . S
C840 C843 1.403 . S
H841 C847 0.930 . S
C842 H828 0.930 1_556 S
C842 C840 1.395 . S
C842 C845 1.403 . S
C843 C840 1.403 . S
C843 C844 1.524 . S
C843 C847 1.400 . S
C844 H829 0.960 . S
C844 H830 0.960 . S
C844 H831 0.960 . S
C844 C843 1.524 . S
C845 C842 1.403 . S
C845 C846 1.392 . S
C845 C849 1.495 1_455 S
C846 C845 1.392 . S
C846 C847 1.385 . S
C846 C848 1.478 . S
C847 H841 0.930 . S
C847 C843 1.400 . S
C847 C846 1.385 . S
C848 C846 1.478 . S
C848 C850 1.381 . S
C848 C854 1.383 . S
C849 C845 1.495 1_655 S
C849 H855 0.959 1_556 S
C849 H856 0.961 . S
C849 H857 0.943 1_656 S
C850 C848 1.381 . S
C850 C851 1.394 . S
C850 H858 0.930 . S
C851 C850 1.394 . S
C851 C852 1.383 . S
C851 H859 0.929 . S
C852 C851 1.383 . S
C852 C853 1.377 . S
C853 H837 0.930 . S
C853 C852 1.377 . S
C853 C854 1.379 . S
C854 H838 0.931 . S
C854 C848 1.383 . S
C854 C853 1.379 . S
H855 C849 0.959 1_554 S
H856 C849 0.961 . S
H857 C849 0.943 1_454 S
H858 C850 0.930 . S
H859 C851 0.929 . S
H860 C868 0.929 . S
H861 C870 0.930 . S
H862 C872 0.930 . S
H863 C875 0.929 1_556 S
H864 C878 0.930 . S
H865 C880 0.960 . S
H866 C880 0.960 1_554 S
H867 C880 0.960 . S
C868 H860 0.929 . S
C868 C869 1.377 1_565 S
C868 C870 1.384 . S
C869 C868 1.377 1_545 S
C869 C875 1.390 . S
C870 H861 0.930 . S
C870 C868 1.384 . S
C870 C871 1.372 1_565 S
C871 C870 1.372 1_545 S
C871 C872 1.400 1_554 S
C871 C876 1.490 1_554 S
C872 H862 0.930 . S
C872 C871 1.400 1_556 S
C872 C875 1.386 1_556 S
H873 C889 0.930 . S
H874 C890 0.931 . S
C875 H863 0.929 1_554 S
C875 C869 1.390 . S
C875 C872 1.386 1_554 S
C876 C871 1.490 1_556 S
C876 C878 1.395 1_545 S
C876 C879 1.403 . S
H877 C883 0.930 . S
C878 H864 0.930 . S
C878 C876 1.395 1_565 S
C878 C881 1.403 . S
C879 C876 1.403 . S
C879 C880 1.524 . S
C879 C883 1.400 . S
C880 H865 0.960 . S
C880 H866 0.960 1_556 S
C880 H867 0.960 . S
C880 C879 1.524 . S
C881 C878 1.403 . S
C881 C882 1.392 1_565 S
C881 C885 1.495 . S
C882 C881 1.392 1_545 S
C882 C883 1.385 . S
C882 C884 1.478 . S
C883 H877 0.930 . S
C883 C879 1.400 . S
C883 C882 1.385 . S
C884 C882 1.478 . S
C884 C886 1.381 1_545 S
C884 C890 1.383 . S
C885 C881 1.495 . S
C885 H891 0.959 . S
C885 H892 0.961 . S
C885 H893 0.960 . S
C886 C884 1.381 1_565 S
C886 C887 1.394 . S
C886 H894 0.930 . S
C887 C886 1.394 . S
C887 C888 1.383 1_565 S
C887 H895 0.929 . S
C888 C887 1.383 1_545 S
C888 C889 1.377 . S
C889 H873 0.930 . S
C889 C888 1.377 . S
C889 C890 1.379 . S
C890 H874 0.931 . S
C890 C884 1.383 . S
C890 C889 1.379 . S
H891 C885 0.959 . S
H892 C885 0.961 . S
H893 C885 0.960 . S
H894 C886 0.930 . S
H895 C887 0.929 . S
H896 C904 0.929 . S
H897 C906 0.930 . S
H898 C908 0.930 . S
H899 C911 0.929 . S
H900 C914 0.930 . S
H901 C916 0.960 . S
H902 C916 0.960 . S
H903 C916 0.960 1_554 S
C904 H896 0.929 . S
C904 C905 1.377 . S
C904 C906 1.384 . S
C905 C904 1.377 . S
C905 C911 1.390 . S
C906 H897 0.930 . S
C906 C904 1.384 . S
C906 C907 1.372 . S
C907 C906 1.372 . S
C907 C908 1.400 . S
C907 C912 1.490 . S
C908 H898 0.930 . S
C908 C907 1.400 . S
C908 C911 1.386 . S
H909 C925 0.930 . S
H910 C926 0.931 . S
C911 H899 0.929 . S
C911 C905 1.390 . S
C911 C908 1.386 . S
C912 C907 1.490 . S
C912 C914 1.395 . S
C912 C915 1.403 . S
H913 C919 0.930 . S
C914 H900 0.930 . S
C914 C912 1.395 . S
C914 C917 1.403 . S
C915 C912 1.403 . S
C915 C916 1.524 1_554 S
C915 C919 1.400 1_554 S
C916 H901 0.960 . S
C916 H902 0.960 . S
C916 H903 0.960 1_556 S
C916 C915 1.524 1_556 S
C917 C914 1.403 . S
C917 C918 1.392 . S
C917 C921 1.495 . S
C918 C917 1.392 . S
C918 C919 1.385 1_554 S
C918 C920 1.478 1_554 S
C919 H913 0.930 . S
C919 C915 1.400 1_556 S
C919 C918 1.385 1_556 S
C920 C918 1.478 1_556 S
C920 C922 1.381 . S
C920 C926 1.383 . S
C921 C917 1.495 . S
C921 H927 0.959 . S
C921 H928 0.961 . S
C921 H929 0.960 . S
C922 C920 1.381 . S
C922 C923 1.394 . S
C922 H930 0.930 . S
C923 C922 1.394 . S
C923 C924 1.383 . S
C923 H931 0.929 . S
C924 C923 1.383 . S
C924 C925 1.377 . S
C925 H909 0.930 . S
C925 C924 1.377 . S
C925 C926 1.379 . S
C926 H910 0.931 . S
C926 C920 1.383 . S
C926 C925 1.379 . S
H927 C921 0.959 . S
H928 C921 0.961 . S
H929 C921 0.960 . S
H930 C922 0.930 . S
H931 C923 0.929 . S
H932 C940 0.929 . S
H933 C942 0.930 . S
H934 C944 0.930 . S
H935 C947 0.929 . S
H936 C950 0.930 . S
H937 C952 0.960 . S
H938 C952 0.960 . S
H939 C952 0.960 . S
C940 H932 0.929 . S
C940 C941 1.377 . S
C940 C942 1.384 . S
C941 C940 1.377 . S
C941 C947 1.390 . S
C942 H933 0.930 . S
C942 C940 1.384 . S
C942 C943 1.372 . S
C943 C942 1.372 . S
C943 C944 1.400 . S
C943 C948 1.490 . S
C944 H934 0.930 . S
C944 C943 1.400 . S
C944 C947 1.386 . S
H945 C961 0.930 . S
H946 C962 0.931 . S
C947 H935 0.929 . S
C947 C941 1.390 . S
C947 C944 1.386 . S
C948 C943 1.490 . S
C948 C950 1.395 . S
C948 C951 1.403 . S
H949 C955 0.930 . S
C950 H936 0.930 . S
C950 C948 1.395 . S
C950 C953 1.403 . S
C951 C948 1.403 . S
C951 C952 1.524 . S
C951 C955 1.400 . S
C952 H937 0.960 . S
C952 H938 0.960 . S
C952 H939 0.960 . S
C952 C951 1.524 . S
C953 C950 1.403 . S
C953 C954 1.392 . S
C953 C957 1.495 . S
C954 C953 1.392 . S
C954 C955 1.385 . S
C954 C956 1.478 . S
C955 H949 0.930 . S
C955 C951 1.400 . S
C955 C954 1.385 . S
C956 C954 1.478 . S
C956 C958 1.381 . S
C956 C962 1.383 . S
C957 C953 1.495 . S
C957 H963 0.959 . S
C957 H964 0.961 . S
C957 H965 0.960 . S
C958 C956 1.381 . S
C958 C959 1.394 . S
C958 H966 0.930 . S
C959 C958 1.394 . S
C959 C960 1.383 . S
C959 H967 0.929 . S
C960 C959 1.383 . S
C960 C961 1.377 . S
C961 H945 0.930 . S
C961 C960 1.377 . S
C961 C962 1.379 . S
C962 H946 0.931 . S
C962 C956 1.383 . S
C962 C961 1.379 . S
H963 C957 0.959 . S
H964 C957 0.961 . S
H965 C957 0.960 . S
H966 C958 0.930 . S
H967 C959 0.929 . S
H968 C976 0.929 . S
H969 C978 0.930 . S
H970 C980 0.930 . S
H971 C983 0.929 . S
H972 C986 0.938 1_455 S
H973 C988 0.960 . S
H974 C988 0.960 1_455 S
H975 C988 0.960 . S
C976 H968 0.929 . S
C976 C977 1.377 1_455 S
C976 C978 1.384 . S
C977 C976 1.377 1_655 S
C977 C983 1.390 . S
C978 H969 0.930 . S
C978 C976 1.384 . S
C978 C979 1.372 1_455 S
C979 C978 1.372 1_655 S
C979 C980 1.400 . S
C979 C984 1.490 . S
C980 H970 0.930 . S
C980 C979 1.400 . S
C980 C983 1.386 . S
H981 C997 0.930 . S
H982 C998 0.931 . S
C983 H971 0.929 . S
C983 C977 1.390 . S
C983 C980 1.386 . S
C984 C979 1.490 . S
C984 C986 1.396 . S
C984 C987 1.403 . S
H985 C991 0.930 . S
C986 H972 0.938 1_655 S
C986 C984 1.396 . S
C986 C989 1.400 1_655 S
C987 C984 1.403 . S
C987 C988 1.524 . S
C987 C991 1.400 . S
C988 H973 0.960 . S
C988 H974 0.960 1_655 S
C988 H975 0.960 . S
C988 C987 1.524 . S
C989 C986 1.400 1_455 S
C989 C990 1.393 1_455 S
C989 C993 1.496 . S
C990 C989 1.393 1_655 S
C990 C991 1.385 . S
C990 C992 1.478 . S
C991 H985 0.930 . S
C991 C987 1.400 . S
C991 C990 1.385 . S
C992 C990 1.478 . S
C992 C994 1.381 1_655 S
C992 C998 1.383 . S
C993 C989 1.496 . S
C993 H999 0.959 . S
C993 H1000 0.961 1_455 S
C993 H1001 0.960 . S
C994 C992 1.381 1_455 S
C994 C995 1.394 . S
C994 H1002 0.930 . S
C995 C994 1.394 . S
C995 C996 1.356 1_455 S
C995 H1003 0.929 . S
C996 C995 1.356 1_655 S
C996 C997 1.409 . S
C997 H981 0.930 . S
C997 C996 1.409 . S
C997 C998 1.379 . S
C998 H982 0.931 . S
C998 C992 1.383 . S
C998 C997 1.379 . S
H999 C993 0.959 . S
H1000 C993 0.961 1_655 S
H1001 C993 0.960 . S
H1002 C994 0.930 . S
H1003 C995 0.929 . S
H1004 C1012 0.929 . S
H1005 C1014 0.930 . S
H1006 C1016 0.930 . S
H1007 C1019 0.929 . S
H1008 C1022 0.930 . S
H1009 C1024 0.960 . S
H1010 C1024 0.960 . S
H1011 C1024 0.960 . S
C1012 H1004 0.929 . S
C1012 C1013 1.377 1_545 S
C1012 C1014 1.384 . S
C1013 C1012 1.377 1_565 S
C1013 C1019 1.390 . S
C1014 H1005 0.930 . S
C1014 C1012 1.384 . S
C1014 C1015 1.372 1_545 S
C1015 C1014 1.372 1_565 S
C1015 C1016 1.400 . S
C1015 C1020 1.490 . S
C1016 H1006 0.930 . S
C1016 C1015 1.400 . S
C1016 C1019 1.386 . S
H1017 C1033 0.930 . S
H1018 C1034 0.931 . S
C1019 H1007 0.929 . S
C1019 C1013 1.390 . S
C1019 C1016 1.386 . S
C1020 C1015 1.490 . S
C1020 C1022 1.395 . S
C1020 C1023 1.403 1_565 S
H1021 C1027 0.930 . S
C1022 H1008 0.930 . S
C1022 C1020 1.395 . S
C1022 C1025 1.403 . S
C1023 C1020 1.403 1_545 S
C1023 C1024 1.524 . S
C1023 C1027 1.400 . S
C1024 H1009 0.960 . S
C1024 H1010 0.960 . S
C1024 H1011 0.960 . S
C1024 C1023 1.524 . S
C1025 C1022 1.403 . S
C1025 C1026 1.392 . S
C1025 C1029 1.495 . S
C1026 C1025 1.392 . S
C1026 C1027 1.385 1_565 S
C1026 C1028 1.478 . S
C1027 H1021 0.930 . S
C1027 C1023 1.400 . S
C1027 C1026 1.385 1_545 S
C1028 C1026 1.478 . S
C1028 C1030 1.381 1_565 S
C1028 C1034 1.383 . S
C1029 C1025 1.495 . S
C1029 H1035 0.959 . S
C1029 H1036 0.961 . S
C1029 H1037 0.960 . S
C1030 C1028 1.381 1_545 S
C1030 C1031 1.394 . S
C1030 H1038 0.930 . S
C1031 C1030 1.394 . S
C1031 C1032 1.383 1_545 S
C1031 H1039 0.929 . S
C1032 C1031 1.383 1_565 S
C1032 C1033 1.377 . S
C1033 H1017 0.930 . S
C1033 C1032 1.377 . S
C1033 C1034 1.379 . S
C1034 H1018 0.931 . S
C1034 C1028 1.383 . S
C1034 C1033 1.379 . S
H1035 C1029 0.959 . S
H1036 C1029 0.961 . S
H1037 C1029 0.960 . S
H1038 C1030 0.930 . S
H1039 C1031 0.929 . S
H1040 C1048 0.929 . S
H1041 C1050 0.930 . S
H1042 C1052 0.930 . S
H1043 C1055 0.929 . S
H1044 C1058 0.930 . S
H1045 C1060 0.960 . S
H1046 C1060 0.960 . S
H1047 C1060 0.960 . S
C1048 H1040 0.929 . S
C1048 C1049 1.377 . S
C1048 C1050 1.384 . S
C1049 C1048 1.377 . S
C1049 C1055 1.390 . S
C1050 H1041 0.930 . S
C1050 C1048 1.384 . S
C1050 C1051 1.372 . S
C1051 C1050 1.372 . S
C1051 C1052 1.400 . S
C1051 C1056 1.490 . S
C1052 H1042 0.930 . S
C1052 C1051 1.400 . S
C1052 C1055 1.386 . S
H1053 C1069 0.930 . S
H1054 C1070 0.931 . S
C1055 H1043 0.929 . S
C1055 C1049 1.390 . S
C1055 C1052 1.386 . S
C1056 C1051 1.490 . S
C1056 C1058 1.395 . S
C1056 C1059 1.403 . S
H1057 C1063 0.930 . S
C1058 H1044 0.930 . S
C1058 C1056 1.395 . S
C1058 C1061 1.403 . S
C1059 C1056 1.403 . S
C1059 C1060 1.524 . S
C1059 C1063 1.400 . S
C1060 H1045 0.960 . S
C1060 H1046 0.960 . S
C1060 H1047 0.960 . S
C1060 C1059 1.524 . S
C1061 C1058 1.403 . S
C1061 C1062 1.392 . S
C1061 C1065 1.495 . S
C1062 C1061 1.392 . S
C1062 C1063 1.385 . S
C1062 C1064 1.478 . S
C1063 H1057 0.930 . S
C1063 C1059 1.400 . S
C1063 C1062 1.385 . S
C1064 C1062 1.478 . S
C1064 C1066 1.381 . S
C1064 C1070 1.383 . S
C1065 C1061 1.495 . S
C1065 H1071 0.959 . S
C1065 H1072 0.961 . S
C1065 H1073 0.960 . S
C1066 C1064 1.381 . S
C1066 C1067 1.394 . S
C1066 H1074 0.930 . S
C1067 C1066 1.394 . S
C1067 C1068 1.383 . S
C1067 H1075 0.929 . S
C1068 C1067 1.383 . S
C1068 C1069 1.377 . S
C1069 H1053 0.930 . S
C1069 C1068 1.377 . S
C1069 C1070 1.379 . S
C1070 H1054 0.931 . S
C1070 C1064 1.383 . S
C1070 C1069 1.379 . S
H1071 C1065 0.959 . S
H1072 C1065 0.961 . S
H1073 C1065 0.960 . S
H1074 C1066 0.930 . S
H1075 C1067 0.929 . S
H1076 C1084 0.929 . S
H1077 C1086 0.930 . S
H1078 C1088 0.930 . S
H1079 C1091 0.929 . S
H1080 C1094 0.930 . S
H1081 C1096 0.960 . S
H1082 C1096 0.960 . S
H1083 C1096 0.960 . S
C1084 H1076 0.929 . S
C1084 C1085 1.377 . S
C1084 C1086 1.384 . S
C1085 C1084 1.377 . S
C1085 C1091 1.390 . S
C1086 H1077 0.930 . S
C1086 C1084 1.384 . S
C1086 C1087 1.372 . S
C1087 C1086 1.372 . S
C1087 C1088 1.400 . S
C1087 C1092 1.490 . S
C1088 H1078 0.930 . S
C1088 C1087 1.400 . S
C1088 C1091 1.386 . S
H1089 C1105 0.930 . S
H1090 C1106 0.931 . S
C1091 H1079 0.929 . S
C1091 C1085 1.390 . S
C1091 C1088 1.386 . S
C1092 C1087 1.490 . S
C1092 C1094 1.395 . S
C1092 C1095 1.403 . S
H1093 C1099 0.930 . S
C1094 H1080 0.930 . S
C1094 C1092 1.395 . S
C1094 C1097 1.403 . S
C1095 C1092 1.403 . S
C1095 C1096 1.524 . S
C1095 C1099 1.400 . S
C1096 H1081 0.960 . S
C1096 H1082 0.960 . S
C1096 H1083 0.960 . S
C1096 C1095 1.524 . S
C1097 C1094 1.403 . S
C1097 C1098 1.392 . S
C1097 C1101 1.495 . S
C1098 C1097 1.392 . S
C1098 C1099 1.385 . S
C1098 C1100 1.478 . S
C1099 H1093 0.930 . S
C1099 C1095 1.400 . S
C1099 C1098 1.385 . S
C1100 C1098 1.478 . S
C1100 C1102 1.381 . S
C1100 C1106 1.383 . S
C1101 C1097 1.495 . S
C1101 H1107 0.959 . S
C1101 H1108 0.961 . S
C1101 H1109 0.960 . S
C1102 C1100 1.381 . S
C1102 C1103 1.394 . S
C1102 H1110 0.930 . S
C1103 C1102 1.394 . S
C1103 C1104 1.383 . S
C1103 H1111 0.929 . S
C1104 C1103 1.383 . S
C1104 C1105 1.377 . S
C1105 H1089 0.930 . S
C1105 C1104 1.377 . S
C1105 C1106 1.379 . S
C1106 H1090 0.931 . S
C1106 C1100 1.383 . S
C1106 C1105 1.379 . S
H1107 C1101 0.959 . S
H1108 C1101 0.961 . S
H1109 C1101 0.960 . S
H1110 C1102 0.930 . S
H1111 C1103 0.929 . S
C257 C76 1.858 . S
C276 C90 1.900 1_545 S
C312 C130 2.065 . S
C293 C87 2.037 . S
C348 C194 1.815 . S
C329 C54 1.749 . S
C384 C210 1.442 . S
C365 C65 1.368 . S
C420 C111 1.899 . S
C401 C32 1.864 . S
C437 C43 2.046 . S
C456 C151 2.067 . S
C473 C10 1.760 . S
C492 C185 1.837 . S
C509 C21 1.359 . S
C528 C231 1.451 . S
C564 C105 0.327 . S
C545 C60 0.303 . S
C600 C145 0.573 . S
C581 C71 0.586 . S
C636 C181 0.454 . S
C617 C82 0.433 . S
C653 C49 0.410 . S
C672 C225 0.512 . S
C689 C16 0.334 . S
C708 C114 0.320 . S
C744 C154 0.563 . S
C725 C27 0.600 . S
C780 C192 0.518 . S
C761 C38 0.466 . S
C797 C5 0.416 . S
C816 C234 0.539 . S
C833 C59 1.792 1_556 S
C852 C112 1.945 . S
C869 C70 1.761 . S
C888 C152 1.881 . S
C924 C170 1.497 . S
C905 C81 1.482 . S
C960 C232 2.293 . S
C941 C48 2.106 . S
C977 C15 1.795 . S
C996 C101 1.943 1_655 S
C1032 C141 1.900 . S
C1013 C26 1.767 . S
C1068 C191 1.471 . S
C1049 C37 1.464 . S
C1085 C4 2.097 . S
C1104 C221 2.292 . S
