# Generated by pormake.
# Topology zzz, (3,6)-cn, num edge types: 1
# Building blocks:
#     Node 0, Type 0, BuildingBlock: CUQRIR_clean_linker_1, # of connection points: 3
#     Node 1, Type 0, BuildingBlock: CUQRIR_clean_linker_1, # of connection points: 3
#     Node 2, Type 0, BuildingBlock: CUQRIR_clean_linker_1, # of connection points: 3
#     Node 3, Type 0, BuildingBlock: CUQRIR_clean_linker_1, # of connection points: 3
#     Node 4, Type 0, BuildingBlock: CUQRIR_clean_linker_1, # of connection points: 3
#     Node 5, Type 0, BuildingBlock: CUQRIR_clean_linker_1, # of connection points: 3
#     Node 6, Type 0, BuildingBlock: CUQRIR_clean_linker_1, # of connection points: 3
#     Node 7, Type 0, BuildingBlock: CUQRIR_clean_linker_1, # of connection points: 3
#     Node 8, Type 1, BuildingBlock: BETFEN_clean_sbu_0, # of connection points: 6
#     Node 9, Type 1, BuildingBlock: BETFEN_clean_sbu_0, # of connection points: 6
#     Node 10, Type 1, BuildingBlock: BETFEN_clean_sbu_0, # of connection points: 6
#     Node 11, Type 1, BuildingBlock: BETFEN_clean_sbu_0, # of connection points: 6
#     Edge 12, Type (0, 1), BuildingBlock: AJUNOK_clean_linker_0, # of connection points: 2
#     Edge 13, Type (0, 1), BuildingBlock: AJUNOK_clean_linker_0, # of connection points: 2
#     Edge 14, Type (0, 1), BuildingBlock: AJUNOK_clean_linker_0, # of connection points: 2
#     Edge 15, Type (0, 1), BuildingBlock: AJUNOK_clean_linker_0, # of connection points: 2
#     Edge 16, Type (0, 1), BuildingBlock: AJUNOK_clean_linker_0, # of connection points: 2
#     Edge 17, Type (0, 1), BuildingBlock: AJUNOK_clean_linker_0, # of connection points: 2
#     Edge 18, Type (0, 1), BuildingBlock: AJUNOK_clean_linker_0, # of connection points: 2
#     Edge 19, Type (0, 1), BuildingBlock: AJUNOK_clean_linker_0, # of connection points: 2
#     Edge 20, Type (0, 1), BuildingBlock: AJUNOK_clean_linker_0, # of connection points: 2
#     Edge 21, Type (0, 1), BuildingBlock: AJUNOK_clean_linker_0, # of connection points: 2
#     Edge 22, Type (0, 1), BuildingBlock: AJUNOK_clean_linker_0, # of connection points: 2
#     Edge 23, Type (0, 1), BuildingBlock: AJUNOK_clean_linker_0, # of connection points: 2
#     Edge 24, Type (0, 1), BuildingBlock: AJUNOK_clean_linker_0, # of connection points: 2
#     Edge 25, Type (0, 1), BuildingBlock: AJUNOK_clean_linker_0, # of connection points: 2
#     Edge 26, Type (0, 1), BuildingBlock: AJUNOK_clean_linker_0, # of connection points: 2
#     Edge 27, Type (0, 1), BuildingBlock: AJUNOK_clean_linker_0, # of connection points: 2
#     Edge 28, Type (0, 1), BuildingBlock: AJUNOK_clean_linker_0, # of connection points: 2
#     Edge 29, Type (0, 1), BuildingBlock: AJUNOK_clean_linker_0, # of connection points: 2
#     Edge 30, Type (0, 1), BuildingBlock: AJUNOK_clean_linker_0, # of connection points: 2
#     Edge 31, Type (0, 1), BuildingBlock: AJUNOK_clean_linker_0, # of connection points: 2
#     Edge 32, Type (0, 1), BuildingBlock: AJUNOK_clean_linker_0, # of connection points: 2
#     Edge 33, Type (0, 1), BuildingBlock: AJUNOK_clean_linker_0, # of connection points: 2
#     Edge 34, Type (0, 1), BuildingBlock: AJUNOK_clean_linker_0, # of connection points: 2
#     Edge 35, Type (0, 1), BuildingBlock: AJUNOK_clean_linker_0, # of connection points: 2
# Relax obj value: 0.452
# Max RMSD: 0.223
# Mean RMSD: 0.156
data_MOF--net-zzz--node1-BETFEN_clean_sbu_0--node2-CUQRIR_clean_linker_1--edge1-AJUNOK_clean_linker_0
_symmetry_space_group_name_H-M    P1
_symmetry_Int_Tables_number       1
_symmetry_cell_setting            triclinic
loop_
_symmetry_equiv_pos_as_xyz
'x, y, z'
_cell_length_a     35.480067
_cell_length_b     35.412966
_cell_length_c     9.2314329
_cell_angle_alpha  89.380327
_cell_angle_beta   89.771933
_cell_angle_gamma 90.006692
loop_
_atom_site_label
_atom_site_type_symbol
_atom_site_fract_x
_atom_site_fract_y
_atom_site_fract_z
_atom_type_partial_charge
C0 C 0.76618 0.53018 0.39004 0.0
N1 N 0.79783 0.50807 0.41115 0.0
N2 N 0.74206 0.51503 0.28803 0.0
C3 C 0.75889 0.56636 0.46787 0.0
C4 C 0.76098 0.48347 0.24711 0.0
N5 N 0.79321 0.47891 0.32326 0.0
C6 C 0.74837 0.45704 0.12853 0.0
H7 H 0.77369 0.56692 0.57318 0.0
H8 H 0.7282 0.57041 0.48519 0.0
H9 H 0.76971 0.59019 0.40074 0.0
H10 H 0.72915 0.47123 0.05087 0.0
H11 H 0.73419 0.43213 0.17822 0.0
H12 H 0.77203 0.44622 0.0635 0.0
C13 C 1.01398 0.75392 0.40053 0.0
N14 N 0.02 0.79231 0.38427 0.0
N15 N 1.01287 0.73583 0.26817 0.0
C16 C 1.01262 0.73393 0.54395 0.0
C17 C 1.01665 0.76525 0.17454 0.0
N18 N 0.02431 0.79786 0.24274 0.0
C19 C 1.01481 0.76253 0.01159 0.0
H20 H 0.0419 0.72811 0.57977 0.0
H21 H 0.99745 0.70666 0.53522 0.0
H22 H 0.99896 0.75205 0.62629 0.0
H23 H 1.00047 0.7363 0.977 0.0
H24 H 0.04363 0.7636 0.96471 0.0
H25 H 0.99938 0.78733 0.96731 0.0
C26 C 0.78301 1.00848 0.4137 0.0
N27 N 0.75541 0.03352 0.45588 0.0
N28 N 0.8119 0.02621 0.33883 0.0
C29 C 0.78036 0.96668 0.43571 0.0
C30 C 0.80042 0.06267 0.33696 0.0
N31 N 0.76706 0.06709 0.40684 0.0
C32 C 0.82027 0.09403 0.25553 0.0
H33 H 0.76711 0.96013 0.54217 0.0
H34 H 0.80865 0.95344 0.4288 0.0
H35 H 0.76221 0.95478 0.34987 0.0
H36 H 0.8062 0.09894 0.15002 0.0
H37 H 0.84996 0.08687 0.23206 0.0
H38 H 0.8188 0.1206 0.31799 0.0
C39 C 0.54111 0.78545 0.42632 0.0
N40 N 0.51664 0.75796 0.47662 0.0
N41 N 0.52281 0.81281 0.34516 0.0
C42 C 0.5828 0.78427 0.44821 0.0
C43 C 0.48678 0.80032 0.34725 0.0
N44 N 0.48294 0.76816 0.4268 0.0
C45 C 0.45668 0.81478 0.24621 0.0
H46 H 0.58939 0.77212 0.55652 0.0
H47 H 0.59511 0.81297 0.43671 0.0
H48 H 0.59553 0.76579 0.36495 0.0
H49 H 0.45734 0.79803 0.14532 0.0
H50 H 0.46149 0.84467 0.21587 0.0
H51 H 0.42838 0.81114 0.29596 0.0
C52 C 0.28643 0.51492 0.30445 0.0
N53 N 0.25988 0.53839 0.24088 0.0
N54 N 0.31415 0.53494 0.3761 0.0
C55 C 0.2841 0.47273 0.30403 0.0
C56 C 0.30274 0.57116 0.35277 0.0
N57 N 0.27053 0.57316 0.27499 0.0
C58 C 0.32154 0.60568 0.41353 0.0
H59 H 0.25447 0.46321 0.29312 0.0
H60 H 0.29658 0.46068 0.40441 0.0
H61 H 0.30033 0.46207 0.21001 0.0
H62 H 0.35068 0.5996 0.44556 0.0
H63 H 0.30655 0.61539 0.51162 0.0
H64 H 0.32087 0.62913 0.33284 0.0
C65 C 0.03452 0.29249 0.2283 0.0
N66 N 0.02921 0.25388 0.24506 0.0
N67 N 0.03755 0.31052 0.36107 0.0
C68 C 0.03411 0.31256 0.08509 0.0
C69 C 0.03537 0.28097 0.45434 0.0
N70 N 0.027 0.24861 0.38701 0.0
C71 C 0.04048 0.28296 0.61644 0.0
H72 H 0.04845 0.29522 1.00198 0.0
H73 H 0.04773 0.34067 0.09294 0.0
H74 H 1.00442 0.31658 0.05086 0.0
H75 H 1.01269 0.28149 0.67172 0.0
H76 H 0.05546 0.30904 0.64861 0.0
H77 H 0.05679 0.25801 0.65421 0.0
C78 C 0.25642 0.02466 0.29491 0.0
N79 N 0.29108 1.00632 0.29066 0.0
N80 N 0.23411 1.01264 0.41114 0.0
C81 C 0.24412 0.05376 0.18606 0.0
C82 C 0.25745 0.98795 0.47936 0.0
N83 N 0.2897 0.98277 0.40416 0.0
C84 C 0.25025 0.97015 0.62714 0.0
H85 H 0.26839 0.07153 0.15182 0.0
H86 H 0.22165 0.07209 0.22946 0.0
H87 H 0.2326 0.03925 0.09001 0.0
H88 H 0.24509 0.93943 0.61572 0.0
H89 H 0.2268 0.98387 0.68622 0.0
H90 H 0.2751 0.97235 0.69701 0.0
C91 C 0.49928 0.24318 0.21223 0.0
N92 N 0.49989 0.28228 0.2192 0.0
N93 N 0.49817 0.2264 0.3493 0.0
C94 C 0.50334 0.22156 0.07491 0.0
C95 C 0.49777 0.25693 0.43605 0.0
N96 N 0.50091 0.28936 0.35993 0.0
C97 C 0.49796 0.25562 0.5995 0.0
H98 H 0.49823 0.24002 0.97905 0.0
H99 H 0.48347 0.19736 0.07561 0.0
H100 H 0.53235 0.20996 0.06856 0.0
H101 H 0.52749 0.25411 0.63843 0.0
H102 H 0.48223 0.23068 0.64136 0.0
H103 H 0.48516 0.28174 0.64347 0.0
Pr104 Pr 0.04111 1.01394 0.92709 0.0
Pr105 Pr 0.993 0.02558 0.75153 0.0
C106 C 0.09035 0.99126 0.12955 0.0
C107 C 0.12088 0.96399 0.12953 0.0
C108 C 0.13796 0.95286 0.99922 0.0
C109 C 0.15119 0.91579 0.98737 0.0
C110 C 0.14612 0.89097 0.10522 0.0
C111 C 0.14237 0.90658 0.24296 0.0
C112 C 0.12494 0.9416 0.25254 0.0
C113 C 0.08296 0.03548 0.67564 0.0
C114 C 0.02091 0.93859 0.71041 0.0
C115 C 0.94267 0.04586 0.54737 0.0
C116 C 0.91531 0.07626 0.53513 0.0
C117 C 0.90406 0.0952 0.66105 0.0
C118 C 0.89809 0.13405 0.65387 0.0
C119 C 0.90515 0.15294 0.52244 0.0
C120 C 0.90374 0.13241 0.39363 0.0
C121 C 0.91113 0.09389 0.40001 0.0
C122 C 0.95168 1.00158 1.00187 0.0
C123 C 1.01713 0.10233 0.95681 0.0
O124 O 0.05665 0.97666 0.11725 0.0
O125 O 0.09545 0.0212 0.04947 0.0
O126 O 0.05587 1.01179 0.68053 0.0
O127 O 0.08365 0.05342 0.79671 0.0
O128 O 1.00322 0.96602 0.64305 0.0
O129 O 0.03686 0.94825 0.83542 0.0
O130 O 0.97787 0.05663 0.54503 0.0
O131 O 0.93585 1.02053 0.64664 0.0
O132 O 0.97807 0.02615 1.00005 0.0
O133 O 0.95172 0.98462 0.87848 0.0
O134 O 0.03403 0.07499 0.02783 0.0
O135 O 0.99959 0.09162 0.83646 0.0
H136 H 0.13582 0.97042 0.90318 0.0
H137 H 0.15707 0.90458 0.88135 0.0
H138 H 0.14038 0.88789 0.33638 0.0
H139 H 0.10947 0.94868 0.3492 0.0
H140 H 0.90653 0.08182 0.76667 0.0
H141 H 0.89696 0.14961 0.75408 0.0
H142 H 0.90717 0.14676 0.29003 0.0
H143 H 0.9193 0.07966 0.30151 0.0
Pr144 Pr 0.52716 0.0407 0.93499 0.0
Pr145 Pr 0.51221 0.99673 0.73671 0.0
C146 C 0.54714 0.08124 0.16785 0.0
C147 C 0.57283 0.1083 0.2324 0.0
C148 C 0.58802 0.13887 0.15401 0.0
C149 C 0.61976 0.1575 0.20719 0.0
C150 C 0.637 0.14455 0.33575 0.0
C151 C 0.6178 0.11798 0.42303 0.0
C152 C 0.58612 0.09983 0.37093 0.0
C153 C 0.50478 0.08575 0.68544 0.0
C154 C 0.60071 0.02316 0.71782 0.0
C155 C 0.49047 0.95747 0.50317 0.0
C156 C 0.46766 0.92559 0.4582 0.0
C157 C 0.45851 0.89597 0.55416 0.0
C158 C 0.4279 0.87265 0.52311 0.0
C159 C 0.40482 0.88197 0.40414 0.0
C160 C 0.42048 0.90435 0.29194 0.0
C161 C 0.45129 0.92709 0.32112 0.0
C162 C 0.53607 0.94826 0.9697 0.0
C163 C 0.43973 1.01497 0.96797 0.0
O164 O 0.56118 0.0481 0.13838 0.0
O165 O 0.52302 0.09329 0.07199 0.0
O166 O 0.52884 0.0593 0.68791 0.0
O167 O 0.48938 0.08728 0.81284 0.0
O168 O 0.57212 1.0135 0.63603 0.0
O169 O 0.59205 0.03158 0.85371 0.0
O170 O 0.4723 0.98711 0.54974 0.0
O171 O 0.52048 0.94965 0.57802 0.0
O172 O 0.51349 0.97621 0.98176 0.0
O173 O 0.54895 0.94769 0.83867 0.0
O174 O 0.46892 0.02477 0.04507 0.0
O175 O 0.44735 1.00621 0.83073 0.0
H176 H 0.5776 0.14606 0.04706 0.0
H177 H 0.63383 0.17812 0.13829 0.0
H178 H 0.62989 0.10716 0.52264 0.0
H179 H 0.57411 0.07672 0.43362 0.0
H180 H 0.47223 0.8934 0.65842 0.0
H181 H 0.41752 0.85383 0.60756 0.0
H182 H 0.40499 0.91036 0.19352 0.0
H183 H 0.45972 0.94845 0.24253 0.0
Pr184 Pr 0.50374 0.52846 0.96692 0.0
Pr185 Pr 0.54523 0.51715 0.79054 0.0
C186 C 0.4683 0.53897 0.22106 0.0
C187 C 0.4407 0.56544 0.277 0.0
C188 C 0.41369 0.58148 0.18452 0.0
C189 C 0.39763 0.61604 0.21947 0.0
C190 C 0.4084 0.63419 0.34743 0.0
C191 C 0.42994 0.61457 0.45081 0.0
C192 C 0.44699 0.58078 0.41347 0.0
C193 C 0.45184 0.5262 0.73452 0.0
C194 C 0.52048 0.6039 0.7559 0.0
C195 C 0.59904 0.50751 0.58859 0.0
C196 C 0.60536 0.4841 0.46421 0.0
C197 C 0.63211 0.45527 0.47879 0.0
C198 C 0.62512 0.42082 0.41514 0.0
C199 C 0.59178 0.41628 0.33632 0.0
C200 C 0.57192 0.44817 0.28789 0.0
C201 C 0.57751 0.48203 0.35749 0.0
C202 C 0.5909 0.53963 0.02871 0.0
C203 C 0.51529 0.43556 0.9413 0.0
O204 O 0.50107 0.55384 0.18987 0.0
O205 O 0.45655 0.5156 0.12316 0.0
O206 O 0.48014 0.50354 0.74555 0.0
O207 O 0.45406 0.55253 0.83039 0.0
O208 O 0.52746 0.57474 0.67469 0.0
O209 O 0.51415 0.59491 0.89399 0.0
O210 O 0.57258 0.53283 0.57734 0.0
O211 O 0.59758 0.48879 0.71087 0.0
O212 O 0.56644 0.51368 0.02647 0.0
O213 O 0.58496 0.56095 0.9169 0.0
O214 O 0.49707 0.46184 0.01287 0.0
O215 O 0.53757 0.4487 0.83585 0.0
H216 H 0.40848 0.56987 0.0784 0.0
H217 H 0.38118 0.63093 0.13835 0.0
H218 H 0.43893 0.6282 0.54945 0.0
H219 H 0.46826 0.56891 0.48418 0.0
H220 H 0.65445 0.45716 0.55822 0.0
H221 H 0.64168 0.3969 0.45137 0.0
H222 H 0.54719 0.44522 0.22092 0.0
H223 H 0.55729 0.50456 0.34069 0.0
Pr224 Pr 0.02101 0.49897 0.92733 0.0
Pr225 Pr 0.03574 0.54498 0.7251 0.0
C226 C 1.003 0.45867 0.1663 0.0
C227 C 0.9793 0.43022 0.23552 0.0
C228 C 0.969 0.39669 0.16649 0.0
C229 C 0.9383 0.37593 0.21946 0.0
C230 C 0.91682 0.39035 0.33503 0.0
C231 C 0.93236 0.41926 0.41937 0.0
C232 C 0.96305 0.43951 0.36806 0.0
C233 C 0.04185 0.45437 0.67931 0.0
C234 C 0.94729 0.51846 0.70997 0.0
C235 C 0.05366 0.58504 0.48496 0.0
C236 C 0.07784 0.61218 0.40968 0.0
C237 C 0.08795 0.64702 0.46944 0.0
C238 C 0.11857 0.667 0.41112 0.0
C239 C 0.14005 0.65081 0.29926 0.0
C240 C 0.12504 0.61992 0.22432 0.0
C241 C 0.09418 0.60069 0.27981 0.0
C242 C 1.01335 0.58939 0.96972 0.0
C243 C 0.10895 0.52586 0.95071 0.0
O244 O 0.98678 0.49066 0.13151 0.0
O245 O 0.02801 0.44765 0.07225 0.0
O246 O 1.01887 0.48191 0.68133 0.0
O247 O 0.05691 0.45165 0.80655 0.0
O248 O 0.97583 0.52959 0.62956 0.0
O249 O 0.9557 0.50813 0.84519 0.0
O250 O 0.06845 0.55218 0.51678 0.0
O251 O 0.03038 0.59724 0.58332 0.0
O252 O 0.03706 0.56243 0.96964 0.0
O253 O 0.99818 0.59132 0.84249 0.0
O254 O 0.08024 0.51374 0.02751 0.0
O255 O 0.1009 0.53688 0.81547 0.0
H256 H 0.98204 0.38866 0.06513 0.0
H257 H 0.92727 0.35324 0.1542 0.0
H258 H 0.91736 0.43059 0.51164 0.0
H259 H 0.97191 0.46451 0.42542 0.0
H260 H 0.07464 0.65699 0.56763 0.0
H261 H 0.12904 0.69137 0.46832 0.0
H262 H 0.14015 0.60717 0.13512 0.0
H263 H 0.08532 0.57481 0.22864 0.0
C264 C 0.17841 0.05525 0.47523 0.0
C265 C 0.19389 1.01883 0.45229 0.0
C266 C 0.14204 0.0606 0.54003 0.0
C267 C 0.11928 0.02997 0.58858 0.0
H268 H 0.19519 0.07999 0.4507 0.0
H269 H 0.13224 0.08918 0.55711 0.0
S270 S 0.1496 0.9299 0.58968 0.0
N271 N 0.1826 0.95177 0.49453 0.0
N272 N 0.11851 0.96265 0.63116 0.0
C273 C 0.13486 0.99385 0.57127 0.0
C274 C 0.1707 0.98817 0.49953 0.0
C275 C 0.47747 0.15926 0.39144 0.0
C276 C 0.50519 0.18776 0.40659 0.0
C277 C 0.47746 0.12569 0.47568 0.0
C278 C 0.50531 0.11936 0.57953 0.0
H279 H 0.45418 0.16425 0.31833 0.0
H280 H 0.45491 0.10541 0.46279 0.0
S281 S 0.59362 0.18368 0.69019 0.0
N282 N 0.55408 0.16285 0.61685 0.0
N283 N 0.56222 0.14854 0.68131 0.0
C284 C 0.53512 0.15024 0.58932 0.0
C285 C 0.53629 0.18405 0.50514 0.0
C286 C 0.3485 0.54107 0.61238 0.0
C287 C 0.34519 0.52365 0.47569 0.0
C288 C 0.38238 0.54068 0.69331 0.0
C289 C 0.415 0.52078 0.64898 0.0
H290 H 0.32519 0.55759 0.65333 0.0
H291 H 0.38305 0.55707 0.79164 0.0
S292 S 0.41775 0.45879 0.32712 0.0
N293 N 0.37601 0.47935 0.31465 0.0
N294 N 0.43802 0.47549 0.47407 0.0
C295 C 0.41055 0.49878 0.52283 0.0
C296 C 0.37625 0.50073 0.4355 0.0
C297 C 0.06355 0.3769 0.3905 0.0
C298 C 0.03415 0.3502 0.40982 0.0
C299 C 0.06528 0.41107 0.47248 0.0
C300 C 0.03824 0.42002 0.58075 0.0
H301 H 0.08642 0.37051 0.31684 0.0
H302 H 0.08885 0.42998 0.4545 0.0
S303 S 0.95656 0.35952 0.68062 0.0
N304 N 0.97653 0.33701 0.54461 0.0
N305 N 0.98218 0.39784 0.70508 0.0
C306 C 1.00895 0.39365 0.60074 0.0
C307 C 1.00618 0.36004 0.51356 0.0
C308 C 0.87965 1.00463 0.32465 0.0
C309 C 0.84459 1.01177 0.2569 0.0
C310 C 0.91406 1.00115 0.24402 0.0
C311 C 0.91518 1.00441 0.09098 0.0
H312 H 0.8806 1.00333 0.44165 0.0
H313 H 0.94008 0.9963 0.30217 0.0
S314 S 0.83094 1.02047 0.85953 0.0
N315 N 0.81361 1.02029 0.02589 0.0
N316 N 0.87661 1.01284 0.87633 0.0
C317 C 0.87989 1.00964 0.02244 0.0
C318 C 0.84526 1.01355 0.10422 0.0
C319 C 0.53866 0.88171 0.31147 0.0
C320 C 0.53612 0.84483 0.25459 0.0
C321 C 0.53928 0.91481 0.22089 0.0
C322 C 0.53716 0.91294 0.06806 0.0
H323 H 0.53835 0.88501 0.4278 0.0
H324 H 0.54079 0.94222 0.27115 0.0
S325 S 0.53288 0.82321 0.8621 0.0
N326 N 0.53361 0.80898 0.0331 0.0
N327 N 0.53504 0.86978 0.86525 0.0
C328 C 0.53669 0.87603 0.01003 0.0
C329 C 0.53603 0.84258 0.10196 0.0
C330 C 0.67656 0.49547 0.22279 0.0
C331 C 0.70326 0.52468 0.24049 0.0
C332 C 0.64213 0.5006 0.14922 0.0
C333 C 0.62915 0.53626 0.10406 0.0
H334 H 0.6832 0.46725 0.25982 0.0
H335 H 0.6258 0.47579 0.12486 0.0
S336 S 0.68688 0.62382 0.11891 0.0
N337 N 0.71452 0.59143 0.19306 0.0
N338 N 0.64713 0.60219 0.07723 0.0
C339 C 0.65481 0.56652 0.12331 0.0
C340 C 0.69179 0.5607 0.1887 0.0
C341 C 0.98709 0.66951 0.23989 0.0
C342 C 1.01685 0.69589 0.22418 0.0
C343 C 0.98674 0.63451 0.16342 0.0
C344 C 1.01587 0.62419 0.0657 0.0
H345 H 0.96291 0.67681 0.30571 0.0
H346 H 0.96267 0.61598 0.17693 0.0
S347 S 0.0992 0.68356 0.97741 0.0
N348 N 0.07676 0.70768 0.10321 0.0
N349 N 0.07421 0.64479 0.95364 0.0
C350 C 0.04567 0.65016 0.04992 0.0
C351 C 0.04673 0.68489 0.13076 0.0
C352 C 0.95961 0.24012 0.42961 0.0
C353 C 0.99684 0.2268 0.4441 0.0
C354 C 0.92909 0.21727 0.46829 0.0
C355 C 0.93547 0.18091 0.52302 0.0
H356 H 0.95434 0.26765 0.38156 0.0
H357 H 0.90068 0.22706 0.44738 0.0
S358 S 0.02865 0.13448 0.5763 0.0
N359 N 0.03894 0.17718 0.51637 0.0
N360 N 0.98218 0.13307 0.58812 0.0
C361 C 0.97301 0.16836 0.54275 0.0
C362 C 1.00368 0.1917 0.50345 0.0
C363 C 0.3335 0.94341 0.54402 0.0
C364 C 0.31213 0.94937 0.41918 0.0
C365 C 0.35791 0.9129 0.55453 0.0
C366 C 0.36467 0.88975 0.43361 0.0
H367 H 0.33381 0.96401 0.62917 0.0
H368 H 0.37614 0.91202 0.64837 0.0
S369 S 0.30781 0.88791 0.09844 0.0
N370 N 0.29157 0.92462 0.18848 0.0
N371 N 0.34087 0.86878 0.20143 0.0
C372 C 0.33922 0.89195 0.31758 0.0
C373 C 0.31304 0.92229 0.30968 0.0
C374 C 0.51013 0.35364 0.43309 0.0
C375 C 0.52519 0.31815 0.40819 0.0
C376 C 0.53251 0.38528 0.41281 0.0
C377 C 0.57002 0.38193 0.36165 0.0
H378 H 0.48032 0.35695 0.45529 0.0
H379 H 0.51971 0.41255 0.43189 0.0
S380 S 0.62278 0.29321 0.3043 0.0
N381 N 0.5802 0.27981 0.35606 0.0
N382 N 0.62207 0.33984 0.30441 0.0
C383 C 0.58616 0.3461 0.35013 0.0
C384 C 0.56376 0.31395 0.3783 0.0
C385 C 0.23272 0.62421 0.16383 0.0
C386 C 0.24469 0.60407 0.28674 0.0
C387 C 0.20162 0.64854 0.17258 0.0
C388 C 0.18158 0.65232 0.30406 0.0
H389 H 0.24546 0.61877 0.05936 0.0
H390 H 0.18976 0.65959 0.07277 0.0
S391 S 0.209 0.61294 0.66233 0.0
N392 N 0.23873 0.59407 0.54612 0.0
N393 N 0.18265 0.64195 0.56544 0.0
C394 C 0.19806 0.63774 0.43135 0.0
C395 C 0.22851 0.61209 0.42149 0.0
C396 C 0.05024 0.85117 0.10464 0.0
C397 C 0.05572 0.81904 0.1898 0.0
C398 C 0.08124 0.87179 0.05521 0.0
C399 C 0.11859 0.86045 0.08771 0.0
H400 H 0.022 0.86123 0.08248 0.0
H401 H 0.07577 0.89894 1.00487 0.0
S402 S 0.14667 0.77448 0.29013 0.0
N403 N 0.10013 0.77386 0.29223 0.0
N404 N 0.15871 0.81274 0.19692 0.0
C405 C 0.12408 0.82625 0.16134 0.0
C406 C 0.09254 0.80566 0.214 0.0
C407 C 0.72935 0.10714 0.24739 0.0
C408 C 0.74276 0.09897 0.38667 0.0
C409 C 0.69828 0.13054 0.22746 0.0
C410 C 0.67853 0.14481 0.34767 0.0
H411 H 0.74049 0.09229 0.15487 0.0
H412 H 0.68643 0.13201 0.11955 0.0
S413 S 0.71062 0.14147 0.72918 0.0
N414 N 0.74109 0.11472 0.64135 0.0
N415 N 0.68109 0.15793 0.60566 0.0
C416 C 0.69581 0.14219 0.48448 0.0
C417 C 0.72794 0.11868 0.50418 0.0
C418 C 0.46085 0.71991 0.26792 0.0
C419 C 0.45505 0.74083 0.39268 0.0
C420 C 0.4396 0.68805 0.24138 0.0
C421 C 0.41321 0.67504 0.34369 0.0
H422 H 0.48445 0.7267 0.1979 0.0
H423 H 0.44782 0.67057 0.15109 0.0
S424 S 0.38335 0.72396 0.67707 0.0
N425 N 0.41685 0.75119 0.60731 0.0
N426 N 0.37878 0.68793 0.56594 0.0
C427 C 0.40476 0.69755 0.46372 0.0
C428 C 0.42556 0.73127 0.48708 0.0
C429 C 0.83641 0.43762 0.19132 0.0
C430 C 0.81712 0.44633 0.31889 0.0
C431 C 0.86358 0.40944 0.18937 0.0
C432 C 0.87557 0.3923 0.31962 0.0
H433 H 0.83274 0.45461 0.09499 0.0
H434 H 0.87983 0.40665 0.09038 0.0
S435 S 0.82791 0.39932 0.67582 0.0
N436 N 0.80516 0.42963 0.5705 0.0
N437 N 0.86027 0.37945 0.57222 0.0
C438 C 0.85293 0.39685 0.44356 0.0
C439 C 0.82363 0.4243 0.44327 0.0
C440 C 0.05395 0.19012 0.17257 0.0
C441 C 0.02888 0.22062 0.14566 0.0
C442 C 0.04993 0.15357 0.10979 0.0
C443 C 0.02045 0.14395 0.01314 0.0
H444 H 0.07658 0.19418 0.24915 0.0
H445 H 0.0703 0.13217 0.14022 0.0
S446 S 0.94549 0.21239 0.90476 0.0
N447 N 0.97212 0.23746 0.01453 0.0
N448 N 0.96504 0.17008 0.89484 0.0
C449 C 0.99531 0.17442 0.98213 0.0
C450 C 0.99926 0.21194 0.04825 0.0
C451 C 0.36231 1.00937 0.27135 0.0
C452 C 0.32658 1.0119 0.20257 0.0
C453 C 0.39735 1.01005 0.19502 0.0
C454 C 0.40015 1.01352 0.04217 0.0
H455 H 0.36345 1.00692 0.38812 0.0
H456 H 0.42286 1.00784 0.25844 0.0
S457 S 0.31719 0.03036 0.80569 0.0
N458 N 0.29782 0.02278 0.96651 0.0
N459 N 0.36315 0.02578 0.82693 0.0
C460 C 0.36502 1.01825 0.97105 0.0
C461 C 0.32879 1.01719 0.04927 0.0
C462 C 0.53545 0.32757 0.04523 0.0
C463 C 0.50129 0.31423 0.11026 0.0
C464 C 0.53961 0.36525 0.98393 0.0
C465 C 0.51016 0.39274 0.98548 0.0
H466 H 0.56005 0.30954 0.04943 0.0
H467 H 0.56699 0.37351 0.94226 0.0
S468 S 0.41414 0.37214 0.13153 0.0
N469 N 0.43716 0.3324 0.16251 0.0
N470 N 0.44444 0.401 0.0511 0.0
C471 C 0.4757 0.37896 0.0449 0.0
C472 C 0.47149 0.34083 0.10535 0.0
C473 C 0.21826 0.53948 0.01665 0.0
C474 C 0.22378 0.53007 0.16536 0.0
C475 C 0.18207 0.53774 0.94735 0.0
C476 C 0.14871 0.52703 0.02253 0.0
H477 H 0.24222 0.54912 0.95337 0.0
H478 H 0.18023 0.54527 0.83373 0.0
S479 S 0.14688 0.50173 0.41705 0.0
N480 N 0.19172 0.51129 0.3856 0.0
N481 N 0.12517 0.50727 0.26032 0.0
C482 C 0.15418 0.51759 0.17195 0.0
C483 C 0.19093 0.51942 0.2416 0.0
C484 C 0.99019 0.85241 0.47346 0.0
C485 C 1.01865 0.82455 0.48722 0.0
C486 C 0.99108 0.88757 0.54841 0.0
C487 C 0.02081 0.89824 0.64242 0.0
H488 H 0.96713 0.84736 0.3997 0.0
H489 H 0.9681 0.90713 0.52967 0.0
S490 S 0.10555 0.83794 0.70403 0.0
N491 N 0.07927 0.81182 0.59691 0.0
N492 N 0.08163 0.87727 0.73258 0.0
C493 C 0.04995 0.87075 0.65552 0.0
C494 C 0.04881 0.83453 0.57955 0.0
C495 C 0.68489 0.02266 0.43966 0.0
C496 C 0.71788 0.0266 0.52385 0.0
C497 C 0.64797 0.02117 0.50278 0.0
C498 C 0.64129 0.02455 0.6543 0.0
H499 H 0.68758 0.02136 0.32295 0.0
H500 H 0.62421 1.01805 0.43064 0.0
S501 S 0.71787 0.03659 0.92425 0.0
N502 N 0.74082 0.03413 0.76849 0.0
N503 N 0.67264 0.03249 0.88533 0.0
C504 C 0.67421 0.0288 0.73923 0.0
C505 C 0.71183 0.0296 0.67497 0.0
C506 C 0.53973 0.68966 0.48851 0.0
C507 C 0.52322 0.72151 0.55528 0.0
C508 C 0.53895 0.65264 0.55411 0.0
C509 C 0.52154 0.64474 0.69081 0.0
H510 H 0.55218 0.69302 0.38193 0.0
H511 H 0.55186 0.62971 0.49524 0.0
S512 S 0.47116 0.71764 0.90326 0.0
N513 N 0.48758 0.7417 0.76304 0.0
N514 N 0.48551 0.67359 0.88377 0.0
C515 C 0.50485 0.67652 0.75723 0.0
C516 C 0.50576 0.71407 0.69044 0.0
C517 C 0.86828 0.51686 0.41585 0.0
C518 C 0.8335 0.51516 0.49117 0.0
C519 C 0.90374 0.51825 0.48764 0.0
C520 C 0.90746 0.51696 0.64087 0.0
H521 H 0.8681 0.51662 0.29856 0.0
H522 H 0.92879 0.51977 0.42055 0.0
S523 S 0.82527 0.51387 0.89272 0.0
N524 N 0.80546 0.51304 0.73113 0.0
N525 N 0.87134 0.51539 0.86512 0.0
C526 C 0.87279 0.51555 0.71826 0.0
C527 C 0.83636 0.51467 0.64438 0.0
loop_
_geom_bond_atom_site_label_1
_geom_bond_atom_site_label_2
_geom_bond_distance
_geom_bond_site_symmetry_2
_ccdc_geom_bond_type
C0 N1 1.317 . S
C0 N2 1.348 . S
C0 C3 1.485 . S
N1 C0 1.317 . S
N1 N5 1.370 . S
N2 C0 1.348 . S
N2 C4 1.346 . S
C3 C0 1.485 . S
C3 H7 0.960 . S
C3 H8 0.961 . S
C3 H9 0.960 . S
C4 N2 1.346 . S
C4 N5 1.307 . S
C4 C6 1.486 . S
N5 N1 1.370 . S
N5 C4 1.307 . S
C6 C4 1.486 . S
C6 H10 0.960 . S
C6 H11 0.960 . S
C6 H12 0.959 . S
H7 C3 0.960 . S
H8 C3 0.961 . S
H9 C3 0.960 . S
H10 C6 0.960 . S
H11 C6 0.960 . S
H12 C6 0.959 . S
C13 N14 1.317 . S
C13 N15 1.348 . S
C13 C16 1.485 . S
N14 C13 1.317 . S
N14 N18 1.371 . S
N15 C13 1.348 . S
N15 C17 1.346 1_655 S
C16 C13 1.485 . S
C16 H20 0.960 1_655 S
C16 H21 0.961 . S
C16 H22 0.960 . S
C17 N15 1.346 1_455 S
C17 N18 1.307 1_455 S
C17 C19 1.486 . S
N18 N14 1.371 . S
N18 C17 1.307 1_655 S
C19 C17 1.486 . S
C19 H23 0.960 1_455 S
C19 H24 0.960 . S
C19 H25 0.959 . S
H20 C16 0.960 1_455 S
H21 C16 0.961 . S
H22 C16 0.960 . S
H23 C19 0.960 1_655 S
H24 C19 0.960 . S
H25 C19 0.959 . S
C26 N27 1.317 . S
C26 N28 1.348 . S
C26 C29 1.485 . S
N27 C26 1.317 . S
N27 N31 1.371 . S
N28 C26 1.348 . S
N28 C30 1.346 1_565 S
C29 C26 1.485 . S
C29 H33 0.960 1_565 S
C29 H34 0.961 . S
C29 H35 0.960 . S
C30 N28 1.346 1_545 S
C30 N31 1.307 1_545 S
C30 C32 1.486 . S
N31 N27 1.371 . S
N31 C30 1.307 1_565 S
C32 C30 1.486 . S
C32 H36 0.960 1_545 S
C32 H37 0.960 . S
C32 H38 0.959 . S
H33 C29 0.960 1_545 S
H34 C29 0.961 . S
H35 C29 0.960 . S
H36 C32 0.960 1_565 S
H37 C32 0.960 . S
H38 C32 0.959 . S
C39 N40 1.317 . S
C39 N41 1.348 . S
C39 C42 1.485 . S
N40 C39 1.317 . S
N40 N44 1.370 . S
N41 C39 1.348 . S
N41 C43 1.346 . S
C42 C39 1.485 . S
C42 H46 0.960 . S
C42 H47 0.961 . S
C42 H48 0.960 . S
C43 N41 1.346 . S
C43 N44 1.307 . S
C43 C45 1.486 . S
N44 N40 1.370 . S
N44 C43 1.307 . S
C45 C43 1.486 . S
C45 H49 0.960 . S
C45 H50 0.960 . S
C45 H51 0.959 . S
H46 C42 0.960 . S
H47 C42 0.961 . S
H48 C42 0.960 . S
H49 C45 0.960 . S
H50 C45 0.960 . S
H51 C45 0.959 . S
C52 N53 1.317 . S
C52 N54 1.348 1_556 S
C52 C55 1.485 . S
N53 C52 1.317 . S
N53 N57 1.370 1_556 S
N54 C52 1.348 1_554 S
N54 C56 1.346 . S
C55 C52 1.485 . S
C55 H59 0.960 . S
C55 H60 0.961 . S
C55 H61 0.960 . S
C56 N54 1.346 . S
C56 N57 1.307 . S
C56 C58 1.486 . S
N57 N53 1.370 1_554 S
N57 C56 1.307 . S
C58 C56 1.486 . S
C58 H62 0.960 . S
C58 H63 0.960 . S
C58 H64 0.959 . S
H59 C55 0.960 . S
H60 C55 0.961 . S
H61 C55 0.960 . S
H62 C58 0.960 . S
H63 C58 0.960 . S
H64 C58 0.959 . S
C65 N66 1.317 . S
C65 N67 1.350 1_556 S
C65 C68 1.485 . S
N66 C65 1.317 . S
N66 N70 1.371 1_556 S
N67 C65 1.350 1_554 S
N67 C69 1.345 1_655 S
C68 C65 1.485 . S
C68 H72 0.960 1_655 S
C68 H73 0.961 . S
C68 H74 0.960 . S
C69 N67 1.345 1_455 S
C69 N70 1.307 1_455 S
C69 C71 1.487 . S
N70 N66 1.371 1_554 S
N70 C69 1.307 1_655 S
C71 C69 1.487 . S
C71 H75 0.960 1_455 S
C71 H76 0.960 . S
C71 H77 0.959 . S
H72 C68 0.960 1_455 S
H73 C68 0.961 . S
H74 C68 0.960 . S
H75 C71 0.960 1_655 S
H76 C71 0.960 . S
H77 C71 0.959 . S
C78 N79 1.317 . S
C78 N80 1.350 1_556 S
C78 C81 1.485 . S
N79 C78 1.317 . S
N79 N83 1.371 1_556 S
N80 C78 1.350 1_554 S
N80 C82 1.345 1_565 S
C81 C78 1.485 . S
C81 H85 0.960 1_565 S
C81 H86 0.961 . S
C81 H87 0.960 . S
C82 N80 1.345 1_545 S
C82 N83 1.307 1_545 S
C82 C84 1.487 . S
N83 N79 1.371 1_554 S
N83 C82 1.307 1_565 S
C84 C82 1.487 . S
C84 H88 0.960 1_545 S
C84 H89 0.960 . S
C84 H90 0.959 . S
H85 C81 0.960 1_545 S
H86 C81 0.961 . S
H87 C81 0.960 . S
H88 C84 0.960 1_565 S
H89 C84 0.960 . S
H90 C84 0.959 . S
C91 N92 1.317 . S
C91 N93 1.348 1_556 S
C91 C94 1.485 . S
N92 C91 1.317 . S
N92 N96 1.370 1_556 S
N93 C91 1.348 1_554 S
N93 C95 1.346 . S
C94 C91 1.485 . S
C94 H98 0.960 . S
C94 H99 0.961 . S
C94 H100 0.960 . S
C95 N93 1.346 . S
C95 N96 1.307 . S
C95 C97 1.486 . S
N96 N92 1.370 1_554 S
N96 C95 1.307 . S
C97 C95 1.486 . S
C97 H101 0.960 . S
C97 H102 0.960 . S
C97 H103 0.959 . S
H98 C94 0.960 . S
H99 C94 0.961 . S
H100 C94 0.960 . S
H101 C97 0.960 . S
H102 C97 0.960 . S
H103 C97 0.959 . S
Pr104 C106 2.880 1_556 S
Pr104 O124 2.562 1_556 S
Pr104 O125 2.490 1_556 S
Pr104 O126 2.695 1_565 S
Pr104 O127 2.512 . S
Pr104 O129 2.437 . S
Pr104 O132 2.436 1_455 S
Pr104 O134 2.438 1_565 S
Pr105 C115 2.880 . S
Pr105 O126 2.436 1_655 S
Pr105 O128 2.438 1_545 S
Pr105 O130 2.562 . S
Pr105 O131 2.490 . S
Pr105 O132 2.695 1_545 S
Pr105 O133 2.512 . S
Pr105 O135 2.437 . S
C106 Pr104 2.880 1_554 S
C106 C107 1.491 . S
C106 O124 1.254 . S
C106 O125 1.225 . S
C107 C106 1.491 . S
C107 C108 1.392 . S
C107 C112 1.356 . S
C108 C107 1.392 . S
C108 C109 1.368 . S
C108 H136 0.929 . S
C109 C108 1.368 . S
C109 C110 1.386 . S
C109 H137 0.929 . S
C110 C109 1.386 . S
C110 C111 1.373 . S
C111 C110 1.373 . S
C111 C112 1.409 . S
C111 H138 0.931 . S
C112 C107 1.356 . S
C112 C111 1.409 . S
C112 H139 0.930 1_455 S
C113 O126 1.270 1_565 S
C113 O127 1.248 . S
C114 O128 1.267 . S
C114 O129 1.278 1_655 S
C115 Pr105 2.880 . S
C115 C116 1.491 . S
C115 O130 1.254 . S
C115 O131 1.225 . S
C116 C115 1.491 . S
C116 C117 1.392 . S
C116 C121 1.356 . S
C117 C116 1.392 . S
C117 C118 1.368 . S
C117 H140 0.929 . S
C118 C117 1.368 . S
C118 C119 1.386 . S
C118 H141 0.929 . S
C119 C118 1.386 . S
C119 C120 1.373 . S
C120 C119 1.373 . S
C120 C121 1.409 . S
C120 H142 0.931 . S
C121 C116 1.356 . S
C121 C120 1.409 . S
C121 H143 0.930 1_655 S
C122 O132 1.270 1_545 S
C122 O133 1.248 . S
C123 O134 1.267 . S
C123 O135 1.278 1_455 S
O124 Pr104 2.562 1_554 S
O124 C106 1.254 . S
O125 Pr104 2.490 1_554 S
O125 C106 1.225 . S
O126 Pr104 2.695 1_545 S
O126 Pr105 2.436 1_455 S
O126 C113 1.270 1_545 S
O127 Pr104 2.512 . S
O127 C113 1.248 . S
O128 Pr105 2.438 1_565 S
O128 C114 1.267 . S
O129 Pr104 2.437 . S
O129 C114 1.278 1_455 S
O130 Pr105 2.562 . S
O130 C115 1.254 . S
O131 Pr105 2.490 . S
O131 C115 1.225 . S
O132 Pr104 2.436 1_655 S
O132 Pr105 2.695 1_565 S
O132 C122 1.270 1_565 S
O133 Pr105 2.512 . S
O133 C122 1.248 . S
O134 Pr104 2.438 1_545 S
O134 C123 1.267 . S
O135 Pr105 2.437 . S
O135 C123 1.278 1_655 S
H136 C108 0.929 . S
H137 C109 0.929 . S
H138 C111 0.931 . S
H139 C112 0.930 1_655 S
H140 C117 0.929 . S
H141 C118 0.929 . S
H142 C120 0.931 . S
H143 C121 0.930 1_455 S
Pr144 C146 2.880 1_556 S
Pr144 O164 2.562 1_556 S
Pr144 O165 2.490 1_556 S
Pr144 O166 2.695 . S
Pr144 O167 2.512 . S
Pr144 O169 2.437 . S
Pr144 O172 2.436 1_545 S
Pr144 O174 2.438 . S
Pr145 C155 2.880 . S
Pr145 O166 2.436 1_565 S
Pr145 O168 2.438 . S
Pr145 O170 2.562 . S
Pr145 O171 2.490 . S
Pr145 O172 2.695 . S
Pr145 O173 2.512 . S
Pr145 O175 2.437 . S
C146 Pr144 2.880 1_554 S
C146 C147 1.491 . S
C146 O164 1.254 . S
C146 O165 1.225 . S
C147 C146 1.491 . S
C147 C148 1.392 . S
C147 C152 1.356 . S
C148 C147 1.392 . S
C148 C149 1.368 . S
C148 H176 0.929 . S
C149 C148 1.368 . S
C149 C150 1.386 . S
C149 H177 0.929 . S
C150 C149 1.386 . S
C150 C151 1.373 . S
C151 C150 1.373 . S
C151 C152 1.409 . S
C151 H178 0.931 . S
C152 C147 1.356 . S
C152 C151 1.409 . S
C152 H179 0.930 1_545 S
C153 O166 1.270 . S
C153 O167 1.248 . S
C154 O168 1.267 . S
C154 O169 1.278 1_565 S
C155 Pr145 2.880 . S
C155 C156 1.491 . S
C155 O170 1.254 . S
C155 O171 1.225 . S
C156 C155 1.491 . S
C156 C157 1.392 . S
C156 C161 1.356 . S
C157 C156 1.392 . S
C157 C158 1.368 . S
C157 H180 0.929 . S
C158 C157 1.368 . S
C158 C159 1.386 . S
C158 H181 0.929 . S
C159 C158 1.386 . S
C159 C160 1.373 . S
C160 C159 1.373 . S
C160 C161 1.409 . S
C160 H182 0.931 . S
C161 C156 1.356 . S
C161 C160 1.409 . S
C161 H183 0.930 1_565 S
C162 O172 1.270 . S
C162 O173 1.248 . S
C163 O174 1.267 . S
C163 O175 1.278 1_545 S
O164 Pr144 2.562 1_554 S
O164 C146 1.254 . S
O165 Pr144 2.490 1_554 S
O165 C146 1.225 . S
O166 Pr144 2.695 . S
O166 Pr145 2.436 1_545 S
O166 C153 1.270 . S
O167 Pr144 2.512 . S
O167 C153 1.248 . S
O168 Pr145 2.438 . S
O168 C154 1.267 . S
O169 Pr144 2.437 . S
O169 C154 1.278 1_545 S
O170 Pr145 2.562 . S
O170 C155 1.254 . S
O171 Pr145 2.490 . S
O171 C155 1.225 . S
O172 Pr144 2.436 1_565 S
O172 Pr145 2.695 . S
O172 C162 1.270 . S
O173 Pr145 2.512 . S
O173 C162 1.248 . S
O174 Pr144 2.438 . S
O174 C163 1.267 . S
O175 Pr145 2.437 . S
O175 C163 1.278 1_565 S
H176 C148 0.929 . S
H177 C149 0.929 . S
H178 C151 0.931 . S
H179 C152 0.930 1_565 S
H180 C157 0.929 . S
H181 C158 0.929 . S
H182 C160 0.931 . S
H183 C161 0.930 1_545 S
Pr184 C186 2.880 1_556 S
Pr184 O204 2.562 1_556 S
Pr184 O205 2.490 1_556 S
Pr184 O206 2.695 . S
Pr184 O207 2.512 . S
Pr184 O209 2.437 . S
Pr184 O212 2.436 . S
Pr184 O214 2.438 . S
Pr185 C195 2.880 . S
Pr185 O206 2.436 . S
Pr185 O208 2.438 . S
Pr185 O210 2.562 . S
Pr185 O211 2.490 . S
Pr185 O212 2.695 . S
Pr185 O213 2.512 . S
Pr185 O215 2.437 . S
C186 Pr184 2.880 1_554 S
C186 C187 1.491 . S
C186 O204 1.254 . S
C186 O205 1.225 . S
C187 C186 1.491 . S
C187 C188 1.392 . S
C187 C192 1.356 . S
C188 C187 1.392 . S
C188 C189 1.368 . S
C188 H216 0.929 . S
C189 C188 1.368 . S
C189 C190 1.386 . S
C189 H217 0.929 . S
C190 C189 1.386 . S
C190 C191 1.373 . S
C191 C190 1.373 . S
C191 C192 1.409 . S
C191 H218 0.931 . S
C192 C187 1.356 . S
C192 C191 1.409 . S
C192 H219 0.930 . S
C193 O206 1.270 . S
C193 O207 1.248 . S
C194 O208 1.267 . S
C194 O209 1.278 . S
C195 Pr185 2.880 . S
C195 C196 1.491 . S
C195 O210 1.254 . S
C195 O211 1.225 . S
C196 C195 1.491 . S
C196 C197 1.392 . S
C196 C201 1.356 . S
C197 C196 1.392 . S
C197 C198 1.368 . S
C197 H220 0.929 . S
C198 C197 1.368 . S
C198 C199 1.386 . S
C198 H221 0.929 . S
C199 C198 1.386 . S
C199 C200 1.373 . S
C200 C199 1.373 . S
C200 C201 1.409 . S
C200 H222 0.931 . S
C201 C196 1.356 . S
C201 C200 1.409 . S
C201 H223 0.930 . S
C202 O212 1.270 . S
C202 O213 1.248 . S
C203 O214 1.267 . S
C203 O215 1.278 . S
O204 Pr184 2.562 1_554 S
O204 C186 1.254 . S
O205 Pr184 2.490 1_554 S
O205 C186 1.225 . S
O206 Pr184 2.695 . S
O206 Pr185 2.436 . S
O206 C193 1.270 . S
O207 Pr184 2.512 . S
O207 C193 1.248 . S
O208 Pr185 2.438 . S
O208 C194 1.267 . S
O209 Pr184 2.437 . S
O209 C194 1.278 . S
O210 Pr185 2.562 . S
O210 C195 1.254 . S
O211 Pr185 2.490 . S
O211 C195 1.225 . S
O212 Pr184 2.436 . S
O212 Pr185 2.695 . S
O212 C202 1.270 . S
O213 Pr185 2.512 . S
O213 C202 1.248 . S
O214 Pr184 2.438 . S
O214 C203 1.267 . S
O215 Pr185 2.437 . S
O215 C203 1.278 . S
H216 C188 0.929 . S
H217 C189 0.929 . S
H218 C191 0.931 . S
H219 C192 0.930 . S
H220 C197 0.929 . S
H221 C198 0.929 . S
H222 C200 0.931 . S
H223 C201 0.930 . S
Pr224 C226 2.880 1_556 S
Pr224 O244 2.562 1_556 S
Pr224 O245 2.490 1_556 S
Pr224 O246 2.695 1_655 S
Pr224 O247 2.512 . S
Pr224 O249 2.437 . S
Pr224 O252 2.436 . S
Pr224 O254 2.438 1_655 S
Pr225 C235 2.880 . S
Pr225 O246 2.436 . S
Pr225 O248 2.438 1_455 S
Pr225 O250 2.562 . S
Pr225 O251 2.490 . S
Pr225 O252 2.695 1_455 S
Pr225 O253 2.512 . S
Pr225 O255 2.437 . S
C226 Pr224 2.880 1_554 S
C226 C227 1.491 . S
C226 O244 1.254 . S
C226 O245 1.225 . S
C227 C226 1.491 . S
C227 C228 1.392 . S
C227 C232 1.356 . S
C228 C227 1.392 . S
C228 C229 1.368 . S
C228 H256 0.929 . S
C229 C228 1.368 . S
C229 C230 1.386 . S
C229 H257 0.929 . S
C230 C229 1.386 . S
C230 C231 1.373 . S
C231 C230 1.373 . S
C231 C232 1.409 . S
C231 H258 0.931 . S
C232 C227 1.356 . S
C232 C231 1.409 . S
C232 H259 0.930 . S
C233 O246 1.264 1_655 S
C233 O247 1.258 . S
C234 O248 1.267 . S
C234 O249 1.278 . S
C235 Pr225 2.880 . S
C235 C236 1.491 . S
C235 O250 1.254 . S
C235 O251 1.225 . S
C236 C235 1.491 . S
C236 C237 1.392 . S
C236 C241 1.356 . S
C237 C236 1.392 . S
C237 C238 1.368 . S
C237 H260 0.929 . S
C238 C237 1.368 . S
C238 C239 1.386 . S
C238 H261 0.929 . S
C239 C238 1.386 . S
C239 C240 1.373 . S
C240 C239 1.373 . S
C240 C241 1.409 . S
C240 H262 0.931 . S
C241 C236 1.356 . S
C241 C240 1.409 . S
C241 H263 0.930 . S
C242 O252 1.262 1_455 S
C242 O253 1.261 . S
C243 O254 1.267 . S
C243 O255 1.278 . S
O244 Pr224 2.562 1_554 S
O244 C226 1.254 . S
O245 Pr224 2.490 1_554 S
O245 C226 1.225 . S
O246 Pr224 2.695 1_455 S
O246 Pr225 2.436 . S
O246 C233 1.264 1_455 S
O247 Pr224 2.512 . S
O247 C233 1.258 . S
O248 Pr225 2.438 1_655 S
O248 C234 1.267 . S
O249 Pr224 2.437 . S
O249 C234 1.278 . S
O250 Pr225 2.562 . S
O250 C235 1.254 . S
O251 Pr225 2.490 . S
O251 C235 1.225 . S
O252 Pr224 2.436 . S
O252 Pr225 2.695 1_655 S
O252 C242 1.262 1_655 S
O253 Pr225 2.512 . S
O253 C242 1.261 . S
O254 Pr224 2.438 1_455 S
O254 C243 1.267 . S
O255 Pr225 2.437 . S
O255 C243 1.278 . S
H256 C228 0.929 . S
H257 C229 0.929 . S
H258 C231 0.931 . S
H259 C232 0.930 . S
H260 C237 0.929 . S
H261 C238 0.929 . S
H262 C240 0.931 . S
H263 C241 0.930 . S
C264 C265 1.363 1_545 S
C264 C266 1.419 . S
C264 H268 0.930 . S
C265 C264 1.363 1_565 S
C265 C274 1.435 . S
C266 C264 1.419 . S
C266 C267 1.362 1_545 S
C266 H269 0.929 . S
C267 C266 1.362 1_565 S
C267 C273 1.430 . S
H268 C264 0.930 . S
H269 C266 0.929 . S
S270 N271 1.613 . S
S270 N272 1.610 . S
N271 S270 1.613 . S
N271 C274 1.350 . S
N272 S270 1.610 . S
N272 C273 1.351 . S
C273 C267 1.430 . S
C273 N272 1.351 . S
C273 C274 1.434 . S
C274 C265 1.435 . S
C274 N271 1.350 . S
C274 C273 1.434 . S
C275 C276 1.369 . S
C275 C277 1.419 . S
C275 H279 0.930 . S
C276 C275 1.369 . S
C276 C285 1.429 . S
C277 C275 1.419 . S
C277 C278 1.363 . S
C277 H280 0.929 . S
C278 C277 1.363 . S
C278 C284 1.428 . S
H279 C275 0.930 . S
H280 C277 0.929 . S
S281 N282 1.613 . S
S281 N283 1.610 . S
N282 S281 1.613 . S
N282 C285 1.350 . S
N283 S281 1.610 . S
N283 C284 1.351 . S
C284 C278 1.428 . S
C284 N283 1.351 . S
C284 C285 1.434 . S
C285 C276 1.429 . S
C285 N282 1.350 . S
C285 C284 1.434 . S
C286 C287 1.369 . S
C286 C288 1.419 . S
C286 H290 0.930 . S
C287 C286 1.369 . S
C287 C296 1.429 . S
C288 C286 1.419 . S
C288 C289 1.363 . S
C288 H291 0.929 . S
C289 C288 1.363 . S
C289 C295 1.428 . S
H290 C286 0.930 . S
H291 C288 0.929 . S
S292 N293 1.613 . S
S292 N294 1.610 . S
N293 S292 1.613 . S
N293 C296 1.350 . S
N294 S292 1.610 . S
N294 C295 1.351 . S
C295 C289 1.428 . S
C295 N294 1.351 . S
C295 C296 1.434 . S
C296 C287 1.429 . S
C296 N293 1.350 . S
C296 C295 1.434 . S
C297 C298 1.374 . S
C297 C299 1.419 . S
C297 H301 0.930 . S
C298 C297 1.374 . S
C298 C307 1.424 1_455 S
C299 C297 1.419 . S
C299 C300 1.363 . S
C299 H302 0.929 . S
C300 C299 1.363 . S
C300 C306 1.428 1_455 S
H301 C297 0.930 . S
H302 C299 0.929 . S
S303 N304 1.613 . S
S303 N305 1.610 . S
N304 S303 1.613 . S
N304 C307 1.350 . S
N305 S303 1.610 . S
N305 C306 1.351 . S
C306 C300 1.428 1_655 S
C306 N305 1.351 . S
C306 C307 1.434 . S
C307 C298 1.424 1_655 S
C307 N304 1.350 . S
C307 C306 1.434 . S
C308 C309 1.367 1_545 S
C308 C310 1.419 . S
C308 H312 0.930 . S
C309 C308 1.367 1_565 S
C309 C318 1.430 . S
C310 C308 1.419 . S
C310 C311 1.360 1_545 S
C310 H313 0.929 . S
C311 C310 1.360 1_565 S
C311 C317 1.431 . S
H312 C308 0.930 . S
H313 C310 0.929 . S
S314 N315 1.613 . S
S314 N316 1.610 . S
N315 S314 1.613 . S
N315 C318 1.350 . S
N316 S314 1.610 . S
N316 C317 1.351 . S
C317 C311 1.431 . S
C317 N316 1.351 . S
C317 C318 1.434 . S
C318 C309 1.430 . S
C318 N315 1.350 . S
C318 C317 1.434 . S
C319 C320 1.369 . S
C319 C321 1.419 . S
C319 H323 0.930 . S
C320 C319 1.369 . S
C320 C329 1.429 . S
C321 C319 1.419 . S
C321 C322 1.363 . S
C321 H324 0.929 . S
C322 C321 1.363 . S
C322 C328 1.428 . S
H323 C319 0.930 . S
H324 C321 0.929 . S
S325 N326 1.613 . S
S325 N327 1.610 . S
N326 S325 1.613 . S
N326 C329 1.350 . S
N327 S325 1.610 . S
N327 C328 1.351 . S
C328 C322 1.428 . S
C328 N327 1.351 . S
C328 C329 1.434 . S
C329 C320 1.429 . S
C329 N326 1.350 . S
C329 C328 1.434 . S
C330 C331 1.369 . S
C330 C332 1.419 . S
C330 H334 0.930 . S
C331 C330 1.369 . S
C331 C340 1.429 . S
C332 C330 1.419 . S
C332 C333 1.363 . S
C332 H335 0.929 . S
C333 C332 1.363 . S
C333 C339 1.428 . S
H334 C330 0.930 . S
H335 C332 0.929 . S
S336 N337 1.613 . S
S336 N338 1.610 . S
N337 S336 1.613 . S
N337 C340 1.350 . S
N338 S336 1.610 . S
N338 C339 1.351 . S
C339 C333 1.428 . S
C339 N338 1.351 . S
C339 C340 1.434 . S
C340 C331 1.429 . S
C340 N337 1.350 . S
C340 C339 1.434 . S
C341 C342 1.379 . S
C341 C343 1.419 . S
C341 H345 0.930 . S
C342 C341 1.379 . S
C342 C351 1.419 1_655 S
C343 C341 1.419 . S
C343 C344 1.363 . S
C343 H346 0.929 . S
C344 C343 1.363 . S
C344 C350 1.428 1_655 S
H345 C341 0.930 . S
H346 C343 0.929 . S
S347 N348 1.613 . S
S347 N349 1.610 . S
N348 S347 1.613 . S
N348 C351 1.350 . S
N349 S347 1.610 . S
N349 C350 1.351 . S
C350 C344 1.428 1_455 S
C350 N349 1.351 . S
C350 C351 1.434 . S
C351 C342 1.419 1_455 S
C351 N348 1.350 . S
C351 C350 1.434 . S
C352 C353 1.369 . S
C352 C354 1.419 . S
C352 H356 0.930 1_554 S
C353 C352 1.369 . S
C353 C362 1.429 . S
C354 C352 1.419 . S
C354 C355 1.363 . S
C354 H357 0.929 . S
C355 C354 1.363 . S
C355 C361 1.428 . S
H356 C352 0.930 1_556 S
H357 C354 0.929 . S
S358 N359 1.613 . S
S358 N360 1.610 . S
N359 S358 1.613 . S
N359 C362 1.350 . S
N360 S358 1.610 . S
N360 C361 1.351 . S
C361 C355 1.428 . S
C361 N360 1.351 . S
C361 C362 1.434 . S
C362 C353 1.429 . S
C362 N359 1.350 . S
C362 C361 1.434 . S
C363 C364 1.369 . S
C363 C365 1.419 . S
C363 H367 0.930 . S
C364 C363 1.369 . S
C364 C373 1.429 . S
C365 C363 1.419 . S
C365 C366 1.363 . S
C365 H368 0.929 . S
C366 C365 1.363 . S
C366 C372 1.428 . S
H367 C363 0.930 . S
H368 C365 0.929 . S
S369 N370 1.613 . S
S369 N371 1.610 1_556 S
N370 S369 1.613 . S
N370 C373 1.350 1_556 S
N371 S369 1.610 1_554 S
N371 C372 1.351 . S
C372 C366 1.428 . S
C372 N371 1.351 . S
C372 C373 1.434 . S
C373 C364 1.429 . S
C373 N370 1.350 1_554 S
C373 C372 1.434 . S
C374 C375 1.369 . S
C374 C376 1.419 . S
C374 H378 0.930 . S
C375 C374 1.369 . S
C375 C384 1.429 . S
C376 C374 1.419 . S
C376 C377 1.363 . S
C376 H379 0.929 . S
C377 C376 1.363 . S
C377 C383 1.428 . S
H378 C374 0.930 . S
H379 C376 0.929 . S
S380 N381 1.613 . S
S380 N382 1.610 . S
N381 S380 1.613 . S
N381 C384 1.350 . S
N382 S380 1.610 . S
N382 C383 1.351 . S
C383 C377 1.428 . S
C383 N382 1.351 . S
C383 C384 1.434 . S
C384 C375 1.429 . S
C384 N381 1.350 . S
C384 C383 1.434 . S
C385 C386 1.369 . S
C385 C387 1.419 . S
C385 H389 0.930 1_554 S
C386 C385 1.369 . S
C386 C395 1.429 . S
C387 C385 1.419 . S
C387 C388 1.363 . S
C387 H390 0.929 . S
C388 C387 1.363 . S
C388 C394 1.428 . S
H389 C385 0.930 1_556 S
H390 C387 0.929 . S
S391 N392 1.613 . S
S391 N393 1.610 . S
N392 S391 1.613 . S
N392 C395 1.350 . S
N393 S391 1.610 . S
N393 C394 1.351 . S
C394 C388 1.428 . S
C394 N393 1.351 . S
C394 C395 1.434 . S
C395 C386 1.429 . S
C395 N392 1.350 . S
C395 C394 1.434 . S
C396 C397 1.369 1_655 S
C396 C398 1.419 1_655 S
C396 H400 0.930 . S
C397 C396 1.369 1_455 S
C397 C406 1.429 . S
C398 C396 1.419 1_455 S
C398 C399 1.363 . S
C398 H401 0.929 . S
C399 C398 1.363 . S
C399 C405 1.428 . S
H400 C396 0.930 . S
H401 C398 0.929 . S
S402 N403 1.613 . S
S402 N404 1.610 . S
N403 S402 1.613 . S
N403 C406 1.350 . S
N404 S402 1.610 . S
N404 C405 1.351 . S
C405 C399 1.428 . S
C405 N404 1.351 . S
C405 C406 1.434 . S
C406 C397 1.429 . S
C406 N403 1.350 . S
C406 C405 1.434 . S
C407 C408 1.369 1_565 S
C407 C409 1.419 1_565 S
C407 H411 0.930 . S
C408 C407 1.369 1_545 S
C408 C417 1.429 . S
C409 C407 1.419 1_545 S
C409 C410 1.363 . S
C409 H412 0.929 . S
C410 C409 1.363 . S
C410 C416 1.428 . S
H411 C407 0.930 . S
H412 C409 0.929 . S
S413 N414 1.613 . S
S413 N415 1.610 . S
N414 S413 1.613 . S
N414 C417 1.350 . S
N415 S413 1.610 . S
N415 C416 1.351 . S
C416 C410 1.428 . S
C416 N415 1.351 . S
C416 C417 1.434 . S
C417 C408 1.429 . S
C417 N414 1.350 . S
C417 C416 1.434 . S
C418 C419 1.369 . S
C418 C420 1.419 . S
C418 H422 0.930 . S
C419 C418 1.369 . S
C419 C428 1.429 . S
C420 C418 1.419 . S
C420 C421 1.363 . S
C420 H423 0.929 . S
C421 C420 1.363 . S
C421 C427 1.428 . S
H422 C418 0.930 . S
H423 C420 0.929 . S
S424 N425 1.613 . S
S424 N426 1.610 . S
N425 S424 1.613 . S
N425 C428 1.350 . S
N426 S424 1.610 . S
N426 C427 1.351 . S
C427 C421 1.428 . S
C427 N426 1.351 . S
C427 C428 1.434 . S
C428 C419 1.429 . S
C428 N425 1.350 . S
C428 C427 1.434 . S
C429 C430 1.369 . S
C429 C431 1.419 . S
C429 H433 0.930 . S
C430 C429 1.369 . S
C430 C439 1.429 . S
C431 C429 1.419 . S
C431 C432 1.363 . S
C431 H434 0.929 . S
C432 C431 1.363 . S
C432 C438 1.428 . S
H433 C429 0.930 . S
H434 C431 0.929 . S
S435 N436 1.613 . S
S435 N437 1.610 . S
N436 S435 1.613 . S
N436 C439 1.350 . S
N437 S435 1.610 . S
N437 C438 1.351 . S
C438 C432 1.428 . S
C438 N437 1.351 . S
C438 C439 1.434 . S
C439 C430 1.429 . S
C439 N436 1.350 . S
C439 C438 1.434 . S
C440 C441 1.369 . S
C440 C442 1.419 . S
C440 H444 0.930 . S
C441 C440 1.369 . S
C441 C450 1.429 1_455 S
C442 C440 1.419 . S
C442 C443 1.363 . S
C442 H445 0.929 . S
C443 C442 1.363 . S
C443 C449 1.428 1_455 S
H444 C440 0.930 . S
H445 C442 0.929 . S
S446 N447 1.613 . S
S446 N448 1.610 . S
N447 S446 1.613 . S
N447 C450 1.350 1_554 S
N448 S446 1.610 . S
N448 C449 1.351 1_554 S
C449 C443 1.428 1_655 S
C449 N448 1.351 1_556 S
C449 C450 1.434 . S
C450 C441 1.429 1_655 S
C450 N447 1.350 1_556 S
C450 C449 1.434 . S
C451 C452 1.369 1_554 S
C451 C453 1.419 . S
C451 H455 0.930 . S
C452 C451 1.369 1_556 S
C452 C461 1.426 1_545 S
C453 C451 1.419 . S
C453 C454 1.363 1_554 S
C453 H456 0.929 . S
C454 C453 1.363 1_556 S
C454 C460 1.428 . S
H455 C451 0.930 . S
H456 C453 0.929 . S
S457 N458 1.613 . S
S457 N459 1.610 . S
N458 S457 1.613 . S
N458 C461 1.354 . S
N459 S457 1.610 . S
N459 C460 1.351 1_565 S
C460 C454 1.428 . S
C460 N459 1.351 1_545 S
C460 C461 1.432 1_545 S
C461 C452 1.426 1_565 S
C461 N458 1.354 . S
C461 C460 1.432 1_565 S
C462 C463 1.369 . S
C462 C464 1.419 . S
C462 H466 0.930 1_556 S
C463 C462 1.369 . S
C463 C472 1.429 . S
C464 C462 1.419 . S
C464 C465 1.363 . S
C464 H467 0.929 1_556 S
C465 C464 1.363 . S
C465 C471 1.428 . S
H466 C462 0.930 1_554 S
H467 C464 0.929 1_554 S
S468 N469 1.613 . S
S468 N470 1.610 . S
N469 S468 1.613 . S
N469 C472 1.350 . S
N470 S468 1.610 . S
N470 C471 1.351 . S
C471 C465 1.428 . S
C471 N470 1.351 . S
C471 C472 1.434 . S
C472 C463 1.429 . S
C472 N469 1.350 . S
C472 C471 1.434 . S
C473 C474 1.369 1_554 S
C473 C475 1.419 . S
C473 H477 0.930 . S
C474 C473 1.369 1_556 S
C474 C483 1.429 . S
C475 C473 1.419 . S
C475 C476 1.363 1_554 S
C475 H478 0.929 . S
C476 C475 1.363 1_556 S
C476 C482 1.428 . S
H477 C473 0.930 . S
H478 C475 0.929 . S
S479 N480 1.613 . S
S479 N481 1.610 . S
N480 S479 1.613 . S
N480 C483 1.350 . S
N481 S479 1.610 . S
N481 C482 1.351 . S
C482 C476 1.428 . S
C482 N481 1.351 . S
C482 C483 1.434 . S
C483 C474 1.429 . S
C483 N480 1.350 . S
C483 C482 1.434 . S
C484 C485 1.369 . S
C484 C486 1.419 . S
C484 H488 0.930 . S
C485 C484 1.369 . S
C485 C494 1.429 1_655 S
C486 C484 1.419 . S
C486 C487 1.363 . S
C486 H489 0.929 . S
C487 C486 1.363 . S
C487 C493 1.428 1_655 S
H488 C484 0.930 . S
H489 C486 0.929 . S
S490 N491 1.613 . S
S490 N492 1.610 . S
N491 S490 1.613 . S
N491 C494 1.350 . S
N492 S490 1.610 . S
N492 C493 1.351 . S
C493 C487 1.428 1_455 S
C493 N492 1.351 . S
C493 C494 1.434 . S
C494 C485 1.429 1_455 S
C494 N491 1.350 . S
C494 C493 1.434 . S
C495 C496 1.369 . S
C495 C497 1.419 . S
C495 H499 0.930 . S
C496 C495 1.369 . S
C496 C505 1.429 1_565 S
C497 C495 1.419 . S
C497 C498 1.363 . S
C497 H500 0.929 . S
C498 C497 1.363 . S
C498 C504 1.428 1_565 S
H499 C495 0.930 . S
H500 C497 0.929 . S
S501 N502 1.613 1_554 S
S501 N503 1.610 1_554 S
N502 S501 1.613 1_556 S
N502 C505 1.350 . S
N503 S501 1.610 1_556 S
N503 C504 1.351 . S
C504 C498 1.428 1_545 S
C504 N503 1.351 . S
C504 C505 1.434 . S
C505 C496 1.429 1_545 S
C505 N502 1.350 . S
C505 C504 1.434 . S
C506 C507 1.369 . S
C506 C508 1.419 . S
C506 H510 0.930 . S
C507 C506 1.369 . S
C507 C516 1.429 . S
C508 C506 1.419 . S
C508 C509 1.363 . S
C508 H511 0.929 . S
C509 C508 1.363 . S
C509 C515 1.428 . S
H510 C506 0.930 . S
H511 C508 0.929 . S
S512 N513 1.613 . S
S512 N514 1.610 . S
N513 S512 1.613 . S
N513 C516 1.350 . S
N514 S512 1.610 . S
N514 C515 1.351 . S
C515 C509 1.428 . S
C515 N514 1.351 . S
C515 C516 1.434 . S
C516 C507 1.429 . S
C516 N513 1.350 . S
C516 C515 1.434 . S
C517 C518 1.369 . S
C517 C519 1.419 . S
C517 H521 0.930 . S
C518 C517 1.369 . S
C518 C527 1.429 . S
C519 C517 1.419 . S
C519 C520 1.363 . S
C519 H522 0.929 . S
C520 C519 1.363 . S
C520 C526 1.428 . S
H521 C517 0.930 . S
H522 C519 0.929 . S
S523 N524 1.613 1_554 S
S523 N525 1.608 1_554 S
N524 S523 1.613 1_556 S
N524 C527 1.350 . S
N525 S523 1.608 1_556 S
N525 C526 1.354 . S
C526 C520 1.428 . S
C526 N525 1.354 . S
C526 C527 1.434 . S
C527 C518 1.429 . S
C527 N524 1.350 . S
C527 C526 1.434 . S
C265 N80 1.995 . S
C267 C113 2.163 . S
C278 C153 2.184 . S
C276 N93 2.012 . S
C289 C193 2.199 . S
C287 N54 2.041 . S
C300 C233 2.179 1_455 S
C298 N67 2.013 1_455 S
C311 C122 2.166 1_564 S
C309 N28 2.000 . S
C320 N41 2.017 . S
C322 C162 2.186 1_554 S
C331 N2 2.034 . S
C333 C202 2.198 1_554 S
C342 N15 2.008 . S
C344 C242 2.179 1_654 S
C355 C119 0.821 . S
C353 N70 0.844 . S
C366 C159 0.825 . S
C364 N83 0.832 . S
C377 C199 0.822 . S
C375 N96 0.823 . S
C386 N57 0.843 . S
C388 C239 0.806 . S
C397 N18 0.835 1_455 S
C399 C110 0.837 . S
C410 C150 0.831 . S
C408 N31 0.827 1_545 S
C421 C190 0.822 . S
C419 N44 0.829 . S
C430 N5 0.836 . S
C432 C230 0.823 . S
C441 N66 2.406 1_455 S
C443 C123 2.521 . S
C452 N79 2.367 1_545 S
C454 C163 2.476 . S
C465 C203 2.461 . S
C463 N92 2.356 . S
C476 C243 2.511 . S
C474 N53 2.399 . S
C485 N14 2.395 . S
C487 C114 2.529 . S
C498 C154 2.476 . S
C496 N27 2.354 . S
C509 C194 2.458 . S
C507 N40 2.332 . S
C518 N1 2.381 . S
C520 C234 2.513 . S
