# Generated by pormake.
# Topology tsx, (6,3)-cn, num edge types: 1
# Building blocks:
#     Node 0, Type 0, BuildingBlock: FUNLAD_clean_sbu_0, # of connection points: 6
#     Node 1, Type 0, BuildingBlock: FUNLAD_clean_sbu_0, # of connection points: 6
#     Node 2, Type 1, BuildingBlock: ESEHIV_clean_linker_0, # of connection points: 3
#     Node 3, Type 1, BuildingBlock: ESEHIV_clean_linker_0, # of connection points: 3
#     Node 4, Type 1, BuildingBlock: ESEHIV_clean_linker_0, # of connection points: 3
#     Node 5, Type 1, BuildingBlock: ESEHIV_clean_linker_0, # of connection points: 3
#     Edge 6, Type (0, 1), BuildingBlock: ZUJKAS_clean_linker_0, # of connection points: 2
#     Edge 7, Type (0, 1), BuildingBlock: ZUJKAS_clean_linker_0, # of connection points: 2
#     Edge 8, Type (0, 1), BuildingBlock: ZUJKAS_clean_linker_0, # of connection points: 2
#     Edge 9, Type (0, 1), BuildingBlock: ZUJKAS_clean_linker_0, # of connection points: 2
#     Edge 10, Type (0, 1), BuildingBlock: ZUJKAS_clean_linker_0, # of connection points: 2
#     Edge 11, Type (0, 1), BuildingBlock: ZUJKAS_clean_linker_0, # of connection points: 2
#     Edge 12, Type (0, 1), BuildingBlock: ZUJKAS_clean_linker_0, # of connection points: 2
#     Edge 13, Type (0, 1), BuildingBlock: ZUJKAS_clean_linker_0, # of connection points: 2
#     Edge 14, Type (0, 1), BuildingBlock: ZUJKAS_clean_linker_0, # of connection points: 2
#     Edge 15, Type (0, 1), BuildingBlock: ZUJKAS_clean_linker_0, # of connection points: 2
#     Edge 16, Type (0, 1), BuildingBlock: ZUJKAS_clean_linker_0, # of connection points: 2
#     Edge 17, Type (0, 1), BuildingBlock: ZUJKAS_clean_linker_0, # of connection points: 2
# Relax obj value: 0.165
# Max RMSD: 0.155
# Mean RMSD: 0.089
data_MOF--net-tsx--node1-FUNLAD_clean_sbu_0--node2-ESEHIV_clean_linker_0--edge1-ZUJKAS_clean_linker_0
_symmetry_space_group_name_H-M    P1
_symmetry_Int_Tables_number       1
_symmetry_cell_setting            triclinic
loop_
_symmetry_equiv_pos_as_xyz
'x, y, z'
_cell_length_a     23.515389
_cell_length_b     26.477577
_cell_length_c     50.574163
_cell_angle_alpha  91.125233
_cell_angle_beta   91.861721
_cell_angle_gamma 89.765042
loop_
_atom_site_label
_atom_site_type_symbol
_atom_site_fract_x
_atom_site_fract_y
_atom_site_fract_z
_atom_type_partial_charge
C0 C 0.93159 0.92587 0.00102 0.0
N1 N 0.01484 0.00096 0.06462 0.0
C2 C 0.96406 0.00128 0.07677 0.0
C3 C 0.96227 0.00068 0.10431 0.0
C4 C 0.01324 -0.00038 0.11956 0.0
C5 C 0.06508 -0.00046 0.10651 0.0
C6 C 0.0649 0.00031 0.07889 0.0
Zn7 Zn 0.01518 1e-05 0.02421 0.0
C8 C 0.09731 0.92531 0.0033 0.0
N9 N 0.01409 -0.00273 0.93969 0.0
C10 C 0.96424 -0.00056 0.92533 0.0
C11 C 0.0649 -0.00553 0.92762 0.0
C12 C 0.06693 -0.0064 0.90007 0.0
C13 C 0.0162 -0.00397 0.88467 0.0
C14 C 0.96432 -0.00099 0.89769 0.0
Zn15 Zn 0.0136 -0.00152 0.98014 0.0
O16 O 0.95223 0.94359 0.02279 0.0
C17 C 0.93127 0.07303 0.00133 0.0
O18 O 0.94957 0.94222 0.97937 0.0
H19 H 0.10407 -0.0072 0.93939 0.0
H20 H 0.92475 0.00156 0.06507 0.0
H21 H 0.9243 0.00171 0.93531 0.0
O22 O 0.95124 0.05647 0.02314 0.0
O23 O 0.95023 0.0555 0.97974 0.0
H24 H 0.1048 0.00017 0.06884 0.0
O25 O 0.07739 0.05468 0.98144 0.0
O26 O 0.07842 0.05644 0.02485 0.0
O27 O 0.07706 0.94148 0.98144 0.0
O28 O 0.07884 0.94343 0.02483 0.0
C29 C 0.09727 0.07255 0.00331 0.0
H30 H 0.92136 0.00011 0.11354 0.0
H31 H 0.10535 -0.0007 0.11751 0.0
H32 H 0.10788 -0.00956 0.89098 0.0
H33 H 0.92418 0.00166 0.8867 0.0
C34 C 0.42394 0.42953 0.50103 0.0
N35 N 0.50766 0.50413 0.56463 0.0
C36 C 0.4568 0.50447 0.57671 0.0
C37 C 0.45478 0.50258 0.60421 0.0
C38 C 0.50558 0.50001 0.61955 0.0
C39 C 0.55753 0.50019 0.60655 0.0
C40 C 0.55759 0.50234 0.57896 0.0
Zn41 Zn 0.50777 0.50418 0.52418 0.0
C42 C 0.58925 0.42997 0.50241 0.0
N43 N 0.50487 0.50256 0.43959 0.0
C44 C 0.45503 0.50265 0.42514 0.0
C45 C 0.55584 0.50226 0.4276 0.0
C46 C 0.55807 0.50201 0.40006 0.0
C47 C 0.50736 0.50209 0.38459 0.0
C48 C 0.4553 0.50247 0.3975 0.0
Zn49 Zn 0.50459 0.50306 0.48008 0.0
O50 O 0.44528 0.44723 0.52266 0.0
C51 C 0.42216 0.57654 0.50176 0.0
O52 O 0.4408 0.4463 0.47925 0.0
H53 H 0.59499 0.50236 0.43942 0.0
H54 H 0.41757 0.50588 0.56498 0.0
H55 H 0.41498 0.50279 0.43507 0.0
O56 O 0.44305 0.56023 0.52347 0.0
O57 O 0.44092 0.55944 0.48004 0.0
H58 H 0.59755 0.50197 0.56895 0.0
O59 O 0.56848 0.55969 0.48158 0.0
O60 O 0.57068 0.56102 0.525 0.0
O61 O 0.56789 0.44644 0.48084 0.0
O62 O 0.57204 0.44787 0.52424 0.0
C63 C 0.58904 0.57731 0.5034 0.0
H64 H 0.41377 0.5034 0.61335 0.0
H65 H 0.59774 0.49769 0.61751 0.0
H66 H 0.59915 0.50246 0.39099 0.0
H67 H 0.41517 0.50197 0.38637 0.0
H68 H 0.93278 0.04904 0.40519 0.0
H69 H 0.0286 0.91047 0.4074 0.0
H70 H 0.97522 0.98123 0.47973 0.0
C71 C 0.95328 0.01911 0.41634 0.0
C72 C 0.95089 0.01982 0.44404 0.0
C73 C 0.98086 0.97964 0.40288 0.0
C74 C 0.00557 0.94022 0.41752 0.0
C75 C 0.00365 0.94049 0.44529 0.0
C76 C 0.97615 0.98039 0.45836 0.0
H77 H 0.98734 0.91708 0.59475 0.0
H78 H 0.07864 0.0576 0.59862 0.0
H79 H 0.02422 -0.00634 0.52326 0.0
C80 C 0.00655 0.94851 0.58497 0.0
C81 C 0.0033 0.95052 0.55724 0.0
C82 C 0.03291 0.98731 0.60017 0.0
C83 C 0.05779 0.02765 0.58713 0.0
C84 C 0.05561 0.02986 0.55935 0.0
C85 C 0.02758 -0.00855 0.54459 0.0
H86 H 0.42615 0.5412 0.90648 0.0
H87 H 0.53722 0.41182 0.90669 0.0
H88 H 0.4804 0.47552 0.98009 0.0
C89 C 0.45003 0.51256 0.91716 0.0
C90 C 0.44975 0.51263 0.94493 0.0
C91 C 0.48137 0.47627 0.90312 0.0
C92 C 0.51164 0.43918 0.91727 0.0
C93 C 0.51146 0.43858 0.94507 0.0
C94 C 0.48085 0.47577 0.95874 0.0
H95 H 0.4717 0.43393 0.09574 0.0
H96 H 0.56751 0.57191 0.09749 0.0
H97 H 0.51598 0.50236 0.02295 0.0
C98 C 0.49225 0.46402 0.08545 0.0
C99 C 0.49093 0.46351 0.05767 0.0
C100 C 0.51932 0.50319 0.10003 0.0
C101 C 0.54599 0.54178 0.0864 0.0
C102 C 0.54522 0.54167 0.05856 0.0
C103 C 0.51721 0.50253 0.04436 0.0
H104 H 0.14552 0.11664 0.96097 0.0
H105 H 0.21704 0.1837 0.96197 0.0
H106 H 0.22087 0.18424 0.04729 0.0
H107 H 0.14917 0.11778 0.04656 0.0
H108 H 0.20641 0.28027 0.02444 0.0
H109 H 0.38892 0.17406 0.98287 0.0
H110 H 0.32252 0.17132 0.96419 0.0
H111 H 0.32819 0.14282 0.99607 0.0
C112 C 0.16181 0.13086 0.97995 0.0
C113 C 0.1416 0.11197 0.00371 0.0
C114 C 0.20288 0.16893 0.98045 0.0
C115 C 0.22452 0.18845 0.00469 0.0
C116 C 0.20471 0.16947 0.02838 0.0
H117 H 0.49947 0.36211 0.06494 0.0
H118 H 0.43685 0.29649 0.04584 0.0
C119 C 0.16373 0.13152 0.02792 0.0
C120 C 0.26591 0.23034 0.0057 0.0
H121 H 0.40423 0.2597 0.99456 0.0
C122 C 0.24951 0.27608 0.01765 0.0
C123 C 0.32199 0.2244 0.99684 0.0
C124 C 0.34191 0.17546 0.98441 0.0
C125 C 0.28826 0.31564 0.02188 0.0
C126 C 0.34469 0.30955 0.01341 0.0
C127 C 0.36073 0.26432 0.00072 0.0
C128 C 0.38885 0.34739 0.02057 0.0
C129 C 0.26924 0.36256 0.03665 0.0
C130 C 0.3841 0.39723 0.01178 0.0
C131 C 0.41926 0.43487 0.02297 0.0
C132 C 0.46005 0.42293 0.04281 0.0
C133 C 0.46766 0.37233 0.04999 0.0
C134 C 0.43233 0.33483 0.03893 0.0
H135 H 0.22764 0.35725 0.04601 0.0
H136 H 0.30123 0.37368 0.0523 0.0
H137 H 0.26464 0.39417 0.02265 0.0
H138 H 0.35129 0.40744 0.99731 0.0
H139 H 0.41247 0.47365 0.01715 0.0
H140 H 0.14151 0.875 0.04612 0.0
H141 H 0.21211 0.80665 0.04611 0.0
H142 H 0.22276 0.81689 0.96142 0.0
H143 H 0.15261 0.88507 0.96119 0.0
H144 H 0.20034 0.71352 0.01839 0.0
H145 H 0.39058 0.81692 0.98769 0.0
H146 H 0.32912 0.8485 0.00093 0.0
H147 H 0.32911 0.82867 0.96669 0.0
C148 C 0.1593 0.863 0.02752 0.0
C149 C 0.14144 0.8854 0.00363 0.0
C150 C 0.19961 0.82403 0.02758 0.0
C151 C 0.22322 0.80736 0.00383 0.0
C152 C 0.2059 0.82998 0.98003 0.0
H153 H 0.34046 0.54203 0.93498 0.0
H154 H 0.28912 0.6116 0.95595 0.0
C155 C 0.16545 0.86867 0.97992 0.0
C156 C 0.26281 0.76387 0.00334 0.0
H157 H 0.39115 0.72664 0.98003 0.0
C158 C 0.24256 0.71647 0.01054 0.0
C159 C 0.31819 0.76797 0.99355 0.0
C160 C 0.34332 0.81837 0.98703 0.0
C161 C 0.27464 0.67248 0.00625 0.0
C162 C 0.32787 0.67618 0.99426 0.0
C163 C 0.35001 0.72392 0.98899 0.0
C164 C 0.35761 0.6311 0.98388 0.0
C165 C 0.25048 0.62222 0.01367 0.0
C166 C 0.41325 0.61923 0.99261 0.0
C167 C 0.44276 0.57944 0.98058 0.0
C168 C 0.41726 0.55172 0.95937 0.0
C169 C 0.36119 0.5631 0.95112 0.0
C170 C 0.33167 0.60244 0.96326 0.0
H171 H 0.21948 0.62665 0.02968 0.0
H172 H 0.2278 0.60506 0.99615 0.0
H173 H 0.2847 0.59582 0.02023 0.0
H174 H 0.43412 0.6413 0.00834 0.0
H175 H 0.48614 0.57159 0.98717 0.0
H176 H 0.89126 0.87846 0.04384 0.0
H177 H 0.82049 0.81146 0.04431 0.0
H178 H 0.80094 0.81623 0.95934 0.0
H179 H 0.87224 0.88366 0.95855 0.0
H180 H 0.69427 0.81448 0.9908 0.0
H181 H 0.85076 0.66351 0.01508 0.0
H182 H 0.85825 0.71987 0.03527 0.0
H183 H 0.87064 0.72235 0.00045 0.0
C184 C 0.87201 0.86542 0.0252 0.0
C185 C 0.88766 0.88615 0.00112 0.0
C186 C 0.83167 0.82707 0.02553 0.0
C187 C 0.80615 0.80873 0.00185 0.0
C188 C 0.82054 0.8299 0.97778 0.0
H189 H 0.61315 0.53026 0.01601 0.0
H190 H 0.67013 0.59496 0.99557 0.0
C191 C 0.86129 0.86824 0.97739 0.0
C192 C 0.76485 0.76705 0.00264 0.0
H193 H 0.75337 0.64568 0.02285 0.0
C194 C 0.70706 0.77723 0.99735 0.0
C195 C 0.78196 0.71844 0.01077 0.0
C196 C 0.84384 0.70505 0.0155 0.0
C197 C 0.66542 0.74065 0.00158 0.0
C198 C 0.68231 0.69322 0.01164 0.0
C199 C 0.74042 0.68218 0.01531 0.0
C200 C 0.64088 0.65603 0.0208 0.0
C201 C 0.60377 0.75341 0.99574 0.0
C202 C 0.60493 0.6691 0.04148 0.0
C203 C 0.57214 0.6323 0.05309 0.0
C204 C 0.57514 0.58166 0.0444 0.0
C205 C 0.60952 0.56902 0.02299 0.0
C206 C 0.64224 0.60589 0.01135 0.0
H207 H 0.59943 0.78262 0.98032 0.0
H208 H 0.5793 0.71945 0.98906 0.0
H209 H 0.58466 0.76884 0.01399 0.0
H210 H 0.60411 0.70735 0.04946 0.0
H211 H 0.54547 0.64327 0.06932 0.0
H212 H 0.88614 0.12238 0.95861 0.0
H213 H 0.81142 0.18678 0.9582 0.0
H214 H 0.79888 0.17615 0.04277 0.0
H215 H 0.8738 0.11151 0.04346 0.0
H216 H 0.69101 0.17426 0.01205 0.0
H217 H 0.83047 0.33438 0.98807 0.0
H218 H 0.83872 0.27965 0.96694 0.0
H219 H 0.85777 0.27609 0.00157 0.0
C220 C 0.86767 0.13376 0.97715 0.0
C221 C 0.88613 0.11205 0.00108 0.0
C222 C 0.82513 0.17066 0.97689 0.0
C223 C 0.80027 0.18649 0.0005 0.0
C224 C 0.81789 0.16451 0.02439 0.0
H225 H 0.58075 0.45304 0.98903 0.0
H226 H 0.6456 0.39155 0.00954 0.0
C227 C 0.86074 0.12773 0.02472 0.0
C228 C 0.75546 0.22573 -9e-05 0.0
H229 H 0.73046 0.34675 0.98087 0.0
C230 C 0.6996 0.21226 0.00565 0.0
C231 C 0.76712 0.27544 0.99207 0.0
C232 C 0.82686 0.29255 0.98704 0.0
C233 C 0.65438 0.24652 0.00209 0.0
C234 C 0.66557 0.29501 0.99231 0.0
C235 C 0.72193 0.30941 0.98822 0.0
C236 C 0.61956 0.32956 0.98343 0.0
C237 C 0.59495 0.23024 0.00827 0.0
C238 C 0.58274 0.31475 0.96233 0.0
C239 C 0.54577 0.34971 0.95062 0.0
C240 C 0.54523 0.40019 0.95969 0.0
C241 C 0.58006 0.41435 0.98171 0.0
C242 C 0.61718 0.37934 0.99339 0.0
H243 H 0.59565 0.20012 0.02328 0.0
H244 H 0.56927 0.26256 0.01564 0.0
H245 H 0.57362 0.21476 0.98999 0.0
H246 H 0.58459 0.27678 0.95403 0.0
H247 H 0.51881 0.3376 0.93393 0.0
H248 H 0.64021 0.62412 0.54645 0.0
H249 H 0.71445 0.68838 0.54688 0.0
H250 H 0.71502 0.68251 0.46164 0.0
H251 H 0.64078 0.61774 0.46093 0.0
H252 H 0.82626 0.68259 0.48736 0.0
H253 H 0.68735 0.83621 0.52445 0.0
H254 H 0.68608 0.78048 0.54409 0.0
H255 H 0.65946 0.77786 0.51034 0.0
C256 C 0.65597 0.63647 0.52776 0.0
C257 C 0.63422 0.61609 0.50364 0.0
C258 C 0.69831 0.67328 0.52805 0.0
C259 C 0.7196 0.69058 0.50428 0.0
C260 C 0.69889 0.66974 0.48017 0.0
H261 H 0.92093 0.96526 0.51926 0.0
H262 H 0.8574 0.90193 0.49861 0.0
C263 C 0.65637 0.6329 0.47984 0.0
C264 C 0.76314 0.73081 0.50486 0.0
H265 H 0.78746 0.85075 0.52796 0.0
C266 C 0.81775 0.71965 0.49588 0.0
C267 C 0.75153 0.7794 0.51544 0.0
C268 C 0.69277 0.7945 0.52389 0.0
C269 C 0.86202 0.7551 0.49863 0.0
C270 C 0.85129 0.80241 0.51101 0.0
C271 C 0.79585 0.81437 0.51861 0.0
C272 C 0.89721 0.83864 0.5185 0.0
C273 C 0.91986 0.7413 0.48858 0.0
C274 C 0.94187 0.82395 0.53583 0.0
C275 C 0.97864 0.86005 0.5473 0.0
C276 C 0.971 0.91147 0.54183 0.0
C277 C 0.92828 0.92579 0.52341 0.0
C278 C 0.89178 0.88968 0.51178 0.0
H279 H 0.91631 0.71375 0.47176 0.0
H280 H 0.94311 0.77509 0.48212 0.0
H281 H 0.94536 0.72325 0.50467 0.0
H282 H 0.9463 0.78501 0.54175 0.0
H283 H 0.01152 0.84804 0.56134 0.0
H284 H 0.63136 0.38203 0.45906 0.0
H285 H 0.698 0.31125 0.45803 0.0
H286 H 0.71145 0.31429 0.54326 0.0
H287 H 0.64444 0.38555 0.54461 0.0
H288 H 0.81997 0.30381 0.51389 0.0
H289 H 0.65168 0.1665 0.48307 0.0
H290 H 0.65165 0.22303 0.46396 0.0
H291 H 0.63618 0.2269 0.49851 0.0
C292 C 0.64857 0.36792 0.47763 0.0
C293 C 0.63222 0.38913 0.50194 0.0
C294 C 0.68656 0.32744 0.47698 0.0
C295 C 0.70889 0.30737 0.50057 0.0
C296 C 0.6943 0.3293 0.52488 0.0
H297 H 0.8753 0.01364 0.48367 0.0
H298 H 0.82205 0.08285 0.50421 0.0
C299 C 0.65601 0.36985 0.52558 0.0
C300 C 0.74621 0.26252 0.49947 0.0
H301 H 0.74766 0.14057 0.47679 0.0
C302 C 0.80424 0.26779 0.5062 0.0
C303 C 0.72517 0.21551 0.48991 0.0
C304 C 0.66265 0.2073 0.48366 0.0
C305 C 0.84252 0.22778 0.50205 0.0
C306 C 0.822 0.18192 0.49058 0.0
C307 C 0.76341 0.17586 0.48542 0.0
C308 C 0.86049 0.14132 0.48146 0.0
C309 C 0.90458 0.23524 0.50955 0.0
C310 C 0.90007 0.15135 0.46208 0.0
C311 C 0.93072 0.112 0.4505 0.0
C312 C 0.92193 0.06186 0.45792 0.0
C313 C 0.8835 0.052 0.47787 0.0
C314 C 0.85293 0.09143 0.48951 0.0
H315 H 0.91013 0.26386 0.52578 0.0
H316 H 0.92495 0.19934 0.51586 0.0
H317 H 0.92709 0.24914 0.49218 0.0
H318 H 0.9056 0.18937 0.4551 0.0
H319 H 0.96046 0.12068 0.43533 0.0
H320 H 0.38617 0.38161 0.54422 0.0
H321 H 0.31758 0.31294 0.54534 0.0
H322 H 0.29465 0.31694 0.4605 0.0
H323 H 0.36388 0.38604 0.45905 0.0
H324 H 0.18864 0.31225 0.49442 0.0
H325 H 0.35345 0.16574 0.51427 0.0
H326 H 0.36051 0.22246 0.53424 0.0
H327 H 0.36913 0.22516 0.49914 0.0
C328 C 0.36657 0.36812 0.52574 0.0
C329 C 0.38078 0.3891 0.50151 0.0
C330 C 0.32743 0.32884 0.52646 0.0
C331 C 0.3016 0.30979 0.503 0.0
C332 C 0.31443 0.33121 0.47878 0.0
H333 H 0.12163 0.02388 0.51592 0.0
H334 H 0.17484 0.09194 0.49614 0.0
C335 C 0.35401 0.37051 0.47801 0.0
C336 C 0.26215 0.26672 0.50419 0.0
H337 H 0.25781 0.14399 0.52301 0.0
C338 C 0.20359 0.27515 0.50023 0.0
C339 C 0.28205 0.21837 0.5114 0.0
C340 C 0.34476 0.20702 0.51481 0.0
C341 C 0.16404 0.2369 0.50479 0.0
C342 C 0.18386 0.18953 0.51382 0.0
C343 C 0.24263 0.18041 0.51625 0.0
C344 C 0.14496 0.15015 0.52298 0.0
C345 C 0.10148 0.24779 0.50033 0.0
C346 C 0.10999 0.16045 0.54441 0.0
C347 C 0.07935 0.12172 0.55565 0.0
C348 C 0.08351 0.07187 0.54581 0.0
C349 C 0.11706 0.06197 0.52376 0.0
C350 C 0.14765 0.10076 0.51251 0.0
H351 H 0.09442 0.27789 0.48557 0.0
H352 H 0.07801 0.21341 0.49345 0.0
H353 H 0.08336 0.26119 0.51921 0.0
H354 H 0.10819 0.19804 0.55318 0.0
H355 H 0.05333 0.13062 0.57241 0.0
H356 H 0.37349 0.62352 0.45912 0.0
H357 H 0.29647 0.68565 0.4589 0.0
H358 H 0.28778 0.67689 0.5437 0.0
H359 H 0.36509 0.61441 0.54421 0.0
H360 H 0.17767 0.67307 0.51304 0.0
H361 H 0.31602 0.83383 0.48875 0.0
H362 H 0.32463 0.77889 0.46781 0.0
H363 H 0.34374 0.77587 0.50245 0.0
C364 C 0.35537 0.63478 0.47776 0.0
C365 C 0.37572 0.61432 0.50171 0.0
C366 C 0.3114 0.67029 0.47759 0.0
C367 C 0.28696 0.68601 0.50131 0.0
C368 C 0.30635 0.6652 0.52523 0.0
H369 H 0.07467 0.95416 0.48837 0.0
H370 H 0.13566 0.89125 0.50983 0.0
C371 C 0.35063 0.62975 0.52546 0.0
C372 C 0.24173 0.72486 0.50083 0.0
H373 H 0.21613 0.84568 0.48182 0.0
C374 C 0.18598 0.71111 0.50663 0.0
C375 C 0.25307 0.77458 0.49297 0.0
C376 C 0.31269 0.79198 0.48787 0.0
C377 C 0.14053 0.74526 0.5032 0.0
C378 C 0.15143 0.79383 0.49343 0.0
C379 C 0.20772 0.80833 0.48918 0.0
C380 C 0.10541 0.82884 0.485 0.0
C381 C 0.08131 0.72884 0.50965 0.0
C382 C 0.06678 0.81432 0.46452 0.0
C383 C 0.03129 0.85015 0.45249 0.0
C384 C 0.03427 0.90114 0.4606 0.0
C385 C 0.07069 0.91503 0.48207 0.0
C386 C 0.10586 0.87917 0.49421 0.0
H387 H 0.08243 0.69925 0.52494 0.0
H388 H 0.05536 0.7612 0.51677 0.0
H389 H 0.05998 0.71254 0.49155 0.0
H390 H 0.06643 0.77594 0.45672 0.0
H391 H 0.0032 0.83838 0.43614 0.0
H392 H 0.94416 0.05313 0.1525 0.0
H393 H 0.9409 0.04893 0.2007 0.0
H394 H 0.07596 0.93824 0.20112 0.0
H395 H 0.07944 0.94212 0.1529 0.0
H396 H 0.91865 0.96592 0.2313 0.0
H397 H 0.13334 0.04356 0.25581 0.0
H398 H 0.0996 0.04878 0.22341 0.0
H399 H 0.13301 -0.00946 0.23311 0.0
C400 C 0.97309 0.0278 0.16284 0.0
C401 C 0.01218 -0.00195 0.14888 0.0
C402 C 0.97131 0.02559 0.19038 0.0
C403 C 0.00867 -0.00623 0.20449 0.0
C404 C 0.0476 0.96387 0.19065 0.0
H405 H 0.96833 0.9006 0.36732 0.0
H406 H 0.97587 0.90267 0.31917 0.0
C407 C 0.04953 0.96614 0.1631 0.0
C408 C 0.0057 -0.00904 0.23364 0.0
H409 H 0.08276 0.01015 0.29131 0.0
C410 C 0.95448 0.97562 0.24445 0.0
C411 C 0.05236 0.00415 0.25071 0.0
C412 C 0.10756 0.02314 0.24025 0.0
C413 C 0.94875 0.97276 0.27192 0.0
C414 C 0.99584 0.98478 0.28896 0.0
C415 C 0.04693 0.00049 0.27816 0.0
C416 C 0.99238 0.98295 0.31811 0.0
C417 C 0.89198 0.95801 0.28246 0.0
C418 C 0.00068 0.0271 0.33349 0.0
C419 C -0.00298 0.02594 0.36097 0.0
C420 C 0.98517 0.98051 0.37364 0.0
C421 C 0.97772 0.93614 0.35818 0.0
C422 C 0.98143 0.93735 0.33066 0.0
H423 H 0.857 0.96205 0.26734 0.0
H424 H 0.89374 0.91788 0.28838 0.0
H425 H 0.88168 0.98139 0.30015 0.0
H426 H 0.0096 0.0626 0.32419 0.0
H427 H 0.00404 0.06059 0.37233 0.0
H428 H 0.09326 0.04176 0.85338 0.0
H429 H 0.09643 0.03908 0.8051 0.0
H430 H 0.94503 0.94775 0.80084 0.0
H431 H 0.94232 0.94872 0.84916 0.0
H432 H 0.09648 0.94365 0.7708 0.0
H433 H 0.91463 0.07468 0.75166 0.0
H434 H 0.95422 0.07429 0.78289 0.0
H435 H 0.90427 0.02493 0.77477 0.0
C436 C 0.06091 0.02061 0.84226 0.0
C437 C 0.01753 -0.0046 0.85524 0.0
C438 C 0.06265 0.01942 0.81466 0.0
C439 C 0.02075 -0.00645 0.79952 0.0
C440 C 0.97735 0.96843 0.81226 0.0
H441 H 0.94612 0.95912 0.63147 0.0
H442 H 0.94543 0.9582 0.6797 0.0
C443 C 0.97575 0.96927 0.83987 0.0
C444 C 0.02292 -0.00778 0.77034 0.0
H445 H 0.95602 0.03614 0.71448 0.0
C446 C 0.06595 0.96391 0.7584 0.0
C447 C 0.98277 0.01852 0.7544 0.0
C448 C 0.93644 0.05016 0.76644 0.0
C449 C 0.06937 0.9605 0.73076 0.0
C450 C 0.02955 0.9873 0.71473 0.0
C451 C 0.98654 0.01567 0.72677 0.0
C452 C 0.03133 0.98624 0.68542 0.0
C453 C 0.11464 0.92716 0.71902 0.0
C454 C 0.0798 0.00253 0.67256 0.0
C455 C 0.0807 0.0023 0.64493 0.0
C456 C 0.03282 0.98642 0.62959 0.0
C457 C 0.98416 0.97061 0.6426 0.0
C458 C 0.98348 0.9705 0.6702 0.0
H459 H 0.13031 0.89842 0.73325 0.0
H460 H 0.09844 0.90741 0.70074 0.0
H461 H 0.1514 0.95078 0.71388 0.0
H462 H 0.11679 0.01593 0.68389 0.0
H463 H 0.11901 0.01441 0.6356 0.0
H464 H 0.43156 0.44629 0.64879 0.0
H465 H 0.42778 0.44255 0.69694 0.0
H466 H 0.57316 0.54091 0.70499 0.0
H467 H 0.57663 0.54593 0.65679 0.0
H468 H 0.57689 0.45043 0.73735 0.0
H469 H 0.37733 0.56195 0.74648 0.0
H470 H 0.37452 0.51041 0.72278 0.0
H471 H 0.4199 0.56334 0.71741 0.0
C472 C 0.46236 0.46768 0.66075 0.0
C473 C 0.50415 0.49676 0.64887 0.0
C474 C 0.46022 0.46531 0.68827 0.0
C475 C 0.49979 0.49189 0.70445 0.0
C476 C 0.54219 0.5202 0.69277 0.0
H477 H 0.49111 0.55966 0.87242 0.0
H478 H 0.49591 0.56254 0.82426 0.0
C479 C 0.54425 0.5228 0.66523 0.0
C480 C 0.497 0.49 0.73359 0.0
H481 H 0.41449 0.52394 0.78538 0.0
C482 C 0.54148 0.46651 0.7479 0.0
C483 C 0.45092 0.51143 0.74722 0.0
C484 C 0.40306 0.5386 0.7328 0.0
C485 C 0.54071 0.46328 0.77557 0.0
C486 C 0.49404 0.48381 0.78914 0.0
C487 C 0.44996 0.50791 0.77485 0.0
C488 C 0.49071 0.48158 0.81827 0.0
C489 C 0.59012 0.43861 0.79013 0.0
C490 C 0.48543 0.43509 0.83077 0.0
C491 C 0.48211 0.4333 0.85829 0.0
C492 C 0.48389 0.47803 0.87379 0.0
C493 C 0.48877 0.52456 0.86109 0.0
C494 C 0.49189 0.52629 0.83358 0.0
H495 H 0.62779 0.43447 0.77755 0.0
H496 H 0.60254 0.46084 0.80824 0.0
H497 H 0.57734 0.40041 0.79629 0.0
H498 H 0.48343 0.40022 0.81922 0.0
H499 H 0.4775 0.39693 0.86741 0.0
H500 H 0.57842 0.44794 0.3528 0.0
H501 H 0.58285 0.44949 0.30457 0.0
H502 H 0.44346 0.55576 0.30157 0.0
H503 H 0.43982 0.55566 0.34987 0.0
H504 H 0.4987 0.4243 0.26659 0.0
H505 H 0.56513 0.62415 0.25835 0.0
H506 H 0.56905 0.59102 0.28923 0.0
H507 H 0.50216 0.61568 0.27693 0.0
C508 C 0.54912 0.47212 0.34192 0.0
C509 C 0.50901 0.50196 0.35522 0.0
C510 C 0.55149 0.4727 0.31435 0.0
C511 C 0.51407 0.50331 0.29954 0.0
C512 C 0.47342 0.53257 0.31267 0.0
H513 H 0.43073 0.48201 0.13169 0.0
H514 H 0.43101 0.48111 0.18001 0.0
C515 C 0.47097 0.532 0.34025 0.0
C516 C 0.51691 0.50379 0.27031 0.0
H517 H 0.53857 0.58086 0.21824 0.0
C518 C 0.50758 0.45847 0.256 0.0
C519 C 0.52932 0.54829 0.2566 0.0
C520 C 0.54254 0.59749 0.27103 0.0
C521 C 0.50915 0.45666 0.22828 0.0
C522 C 0.51954 0.50153 0.21452 0.0
C523 C 0.53008 0.54663 0.22885 0.0
C524 C 0.51943 0.50243 0.18523 0.0
C525 C 0.50036 0.40661 0.21397 0.0
C526 C 0.5687 0.51593 0.17216 0.0
C527 C 0.56872 0.51644 0.14451 0.0
C528 C 0.51932 0.5037 0.12944 0.0
C529 C 0.46979 0.49103 0.14268 0.0
C530 C 0.46984 0.49052 0.17029 0.0
H531 H 0.50765 0.37431 0.22738 0.0
H532 H 0.45589 0.40445 0.20601 0.0
H533 H 0.52927 0.4026 0.19712 0.0
H534 H 0.60736 0.52543 0.18337 0.0
H535 H 0.60768 0.52595 0.13493 0.0
loop_
_geom_bond_atom_site_label_1
_geom_bond_atom_site_label_2
_geom_bond_distance
_geom_bond_site_symmetry_2
_ccdc_geom_bond_type
C0 O16 1.251 . S
C0 O18 1.254 1_554 S
N1 C2 1.333 1_445 S
N1 C6 1.307 . S
N1 Zn7 2.020 . S
C2 N1 1.333 1_665 S
C2 C3 1.379 . S
C2 H20 0.952 . S
C3 C2 1.379 . S
C3 C4 1.390 1_665 S
C3 H30 0.949 . S
C4 C3 1.390 1_445 S
C4 C5 1.357 . S
C5 C4 1.357 . S
C5 C6 1.370 . S
C5 H31 0.950 . S
C6 N1 1.307 . S
C6 C5 1.370 . S
C6 H24 0.948 . S
Zn7 N1 2.020 . S
Zn7 O16 2.039 1_445 S
Zn7 O22 2.034 1_455 S
Zn7 O26 2.025 . S
Zn7 O28 2.024 1_545 S
C8 O27 1.246 1_554 S
C8 O28 1.249 . S
N9 C10 1.307 1_445 S
N9 C11 1.333 . S
N9 Zn15 2.020 . S
C10 N9 1.307 1_665 S
C10 C14 1.370 . S
C10 H21 0.948 . S
C11 N9 1.333 . S
C11 C12 1.379 . S
C11 H19 0.952 . S
C12 C11 1.379 . S
C12 C13 1.390 . S
C12 H32 0.949 . S
C13 C12 1.390 . S
C13 C14 1.357 1_445 S
C14 C10 1.370 . S
C14 C13 1.357 1_665 S
C14 H33 0.950 . S
Zn15 N9 2.020 . S
Zn15 O18 2.025 1_445 S
Zn15 O23 2.024 1_455 S
Zn15 O25 2.039 . S
Zn15 O27 2.034 1_545 S
O16 C0 1.251 . S
O16 Zn7 2.039 1_665 S
C17 O22 1.246 . S
C17 O23 1.249 1_554 S
O18 C0 1.254 1_556 S
O18 Zn15 2.025 1_665 S
H19 C11 0.952 . S
H20 C2 0.952 . S
H21 C10 0.948 . S
O22 Zn7 2.034 1_655 S
O22 C17 1.246 . S
O23 Zn15 2.024 1_655 S
O23 C17 1.249 1_556 S
H24 C6 0.948 . S
O25 Zn15 2.039 . S
O25 C29 1.251 1_556 S
O26 Zn7 2.025 . S
O26 C29 1.254 . S
O27 C8 1.246 1_556 S
O27 Zn15 2.034 1_565 S
O28 Zn7 2.024 1_565 S
O28 C8 1.249 . S
C29 O25 1.251 1_554 S
C29 O26 1.254 . S
H30 C3 0.949 . S
H31 C5 0.950 . S
H32 C12 0.949 . S
H33 C14 0.950 . S
C34 O50 1.251 . S
C34 O52 1.254 . S
N35 C36 1.333 . S
N35 C40 1.307 . S
N35 Zn41 2.020 . S
C36 N35 1.333 . S
C36 C37 1.379 . S
C36 H54 0.952 . S
C37 C36 1.379 . S
C37 C38 1.390 . S
C37 H64 0.949 . S
C38 C37 1.390 . S
C38 C39 1.357 . S
C39 C38 1.357 . S
C39 C40 1.370 . S
C39 H65 0.950 . S
C40 N35 1.307 . S
C40 C39 1.370 . S
C40 H58 0.948 . S
Zn41 N35 2.020 . S
Zn41 O50 2.039 . S
Zn41 O56 2.034 . S
Zn41 O60 2.025 . S
Zn41 O62 2.024 . S
C42 O61 1.246 . S
C42 O62 1.249 . S
N43 C44 1.307 . S
N43 C45 1.333 . S
N43 Zn49 2.020 . S
C44 N43 1.307 . S
C44 C48 1.370 . S
C44 H55 0.948 . S
C45 N43 1.333 . S
C45 C46 1.379 . S
C45 H53 0.952 . S
C46 C45 1.379 . S
C46 C47 1.390 . S
C46 H66 0.949 . S
C47 C46 1.390 . S
C47 C48 1.357 . S
C48 C44 1.370 . S
C48 C47 1.357 . S
C48 H67 0.950 . S
Zn49 N43 2.020 . S
Zn49 O52 2.025 . S
Zn49 O57 2.024 . S
Zn49 O59 2.039 . S
Zn49 O61 2.034 . S
O50 C34 1.251 . S
O50 Zn41 2.039 . S
C51 O56 1.246 . S
C51 O57 1.249 . S
O52 C34 1.254 . S
O52 Zn49 2.025 . S
H53 C45 0.952 . S
H54 C36 0.952 . S
H55 C44 0.948 . S
O56 Zn41 2.034 . S
O56 C51 1.246 . S
O57 Zn49 2.024 . S
O57 C51 1.249 . S
H58 C40 0.948 . S
O59 Zn49 2.039 . S
O59 C63 1.251 . S
O60 Zn41 2.025 . S
O60 C63 1.254 . S
O61 C42 1.246 . S
O61 Zn49 2.034 . S
O62 Zn41 2.024 . S
O62 C42 1.249 . S
C63 O59 1.251 . S
C63 O60 1.254 . S
H64 C37 0.949 . S
H65 C39 0.950 . S
H66 C46 0.949 . S
H67 C48 0.950 . S
H68 C71 0.931 . S
H69 C74 0.928 . S
H70 C76 0.930 . S
C71 H68 0.931 . S
C71 C72 1.413 . S
C71 C73 1.369 1_545 S
C72 C71 1.413 . S
C72 C76 1.416 1_645 S
C73 C71 1.369 1_565 S
C73 C74 1.364 1_655 S
C74 H69 0.928 . S
C74 C73 1.364 1_455 S
C74 C75 1.404 . S
C75 C74 1.404 . S
C75 C76 1.404 . S
C76 H70 0.930 . S
C76 C72 1.416 1_465 S
C76 C75 1.404 . S
H77 C80 0.931 . S
H78 C83 0.928 . S
H79 C85 0.930 . S
C80 H77 0.931 . S
C80 C81 1.413 . S
C80 C82 1.360 1_665 S
C81 C80 1.413 . S
C81 C85 1.429 1_665 S
C82 C80 1.360 1_445 S
C82 C83 1.372 . S
C83 H78 0.928 . S
C83 C82 1.372 . S
C83 C84 1.404 . S
C84 C83 1.404 . S
C84 C85 1.391 . S
C85 H79 0.930 . S
C85 C81 1.429 1_445 S
C85 C84 1.391 . S
H86 C89 0.931 . S
H87 C92 0.928 . S
H88 C94 0.930 . S
C89 H86 0.931 . S
C89 C90 1.413 . S
C89 C91 1.360 . S
C90 C89 1.413 . S
C90 C94 1.429 . S
C91 C89 1.360 . S
C91 C92 1.372 . S
C92 H87 0.928 . S
C92 C91 1.372 . S
C92 C93 1.404 . S
C93 C92 1.404 . S
C93 C94 1.391 . S
C94 H88 0.930 . S
C94 C90 1.429 . S
C94 C93 1.391 . S
H95 C98 0.931 . S
H96 C101 0.928 . S
H97 C103 0.930 . S
C98 H95 0.931 . S
C98 C99 1.413 . S
C98 C100 1.360 . S
C99 C98 1.413 . S
C99 C103 1.429 . S
C100 C98 1.360 . S
C100 C101 1.372 . S
C101 H96 0.928 . S
C101 C100 1.372 . S
C101 C102 1.404 . S
C102 C101 1.404 . S
C102 C103 1.391 . S
C103 H97 0.930 . S
C103 C99 1.429 . S
C103 C102 1.391 . S
H104 C112 0.943 . S
H105 C114 0.930 . S
H106 C116 0.930 . S
H107 C119 0.929 . S
H108 C122 0.930 . S
H109 C124 0.960 . S
H110 C124 0.960 . S
H111 C124 0.960 . S
C112 H104 0.943 . S
C112 C113 1.371 1_556 S
C112 C114 1.378 1_556 S
C113 C112 1.371 1_554 S
C113 C119 1.390 . S
C114 H105 0.930 . S
C114 C112 1.378 1_554 S
C114 C115 1.372 . S
C115 C114 1.372 . S
C115 C116 1.400 . S
C115 C120 1.490 . S
C116 H106 0.930 . S
C116 C115 1.400 . S
C116 C119 1.386 . S
H117 C133 0.930 . S
H118 C134 0.931 . S
C119 H107 0.929 . S
C119 C113 1.390 . S
C119 C116 1.386 . S
C120 C115 1.490 . S
C120 C122 1.395 . S
C120 C123 1.403 . S
H121 C127 0.930 . S
C122 H108 0.930 . S
C122 C120 1.395 . S
C122 C125 1.403 . S
C123 C120 1.403 . S
C123 C124 1.524 1_554 S
C123 C127 1.400 . S
C124 H109 0.960 . S
C124 H110 0.960 . S
C124 H111 0.960 . S
C124 C123 1.524 1_556 S
C125 C122 1.403 . S
C125 C126 1.392 . S
C125 C129 1.495 . S
C126 C125 1.392 . S
C126 C127 1.385 . S
C126 C128 1.478 . S
C127 H121 0.930 . S
C127 C123 1.400 . S
C127 C126 1.385 . S
C128 C126 1.478 . S
C128 C130 1.381 . S
C128 C134 1.383 . S
C129 C125 1.495 . S
C129 H135 0.959 . S
C129 H136 0.961 . S
C129 H137 0.960 . S
C130 C128 1.381 . S
C130 C131 1.394 . S
C130 H138 0.930 . S
C131 C130 1.394 . S
C131 C132 1.383 . S
C131 H139 0.929 . S
C132 C131 1.383 . S
C132 C133 1.377 . S
C133 H117 0.930 . S
C133 C132 1.377 . S
C133 C134 1.379 . S
C134 H118 0.931 . S
C134 C128 1.383 . S
C134 C133 1.379 . S
H135 C129 0.959 . S
H136 C129 0.961 . S
H137 C129 0.960 . S
H138 C130 0.930 . S
H139 C131 0.929 . S
H140 C148 0.929 . S
H141 C150 0.930 . S
H142 C152 0.930 . S
H143 C155 0.929 . S
H144 C158 0.930 . S
H145 C160 0.960 . S
H146 C160 0.960 . S
H147 C160 0.960 . S
C148 H140 0.929 . S
C148 C149 1.377 1_554 S
C148 C150 1.384 . S
C149 C148 1.377 1_556 S
C149 C155 1.390 . S
C150 H141 0.930 . S
C150 C148 1.384 . S
C150 C151 1.372 1_554 S
C151 C150 1.372 1_556 S
C151 C152 1.400 . S
C151 C156 1.490 . S
C152 H142 0.930 . S
C152 C151 1.400 . S
C152 C155 1.386 . S
H153 C169 0.930 . S
H154 C170 0.931 . S
C155 H143 0.929 . S
C155 C149 1.390 . S
C155 C152 1.386 . S
C156 C151 1.490 . S
C156 C158 1.395 1_556 S
C156 C159 1.403 . S
H157 C163 0.930 . S
C158 H144 0.930 . S
C158 C156 1.395 1_554 S
C158 C161 1.403 . S
C159 C156 1.403 . S
C159 C160 1.524 . S
C159 C163 1.400 . S
C160 H145 0.960 . S
C160 H146 0.960 . S
C160 H147 0.960 . S
C160 C159 1.524 . S
C161 C158 1.403 . S
C161 C162 1.392 1_554 S
C161 C165 1.495 . S
C162 C161 1.392 1_556 S
C162 C163 1.385 . S
C162 C164 1.478 . S
C163 H157 0.930 . S
C163 C159 1.400 . S
C163 C162 1.385 . S
C164 C162 1.478 . S
C164 C166 1.381 . S
C164 C170 1.383 . S
C165 C161 1.495 . S
C165 H171 0.959 . S
C165 H172 0.961 . S
C165 H173 0.960 . S
C166 C164 1.381 . S
C166 C167 1.394 . S
C166 H174 0.930 . S
C167 C166 1.394 . S
C167 C168 1.383 . S
C167 H175 0.929 . S
C168 C167 1.383 . S
C168 C169 1.377 . S
C169 H153 0.930 . S
C169 C168 1.377 . S
C169 C170 1.379 . S
C170 H154 0.931 . S
C170 C164 1.383 . S
C170 C169 1.379 . S
H171 C165 0.959 . S
H172 C165 0.961 . S
H173 C165 0.960 . S
H174 C166 0.930 . S
H175 C167 0.929 . S
H176 C184 0.929 . S
H177 C186 0.930 . S
H178 C188 0.930 1_556 S
H179 C191 0.929 . S
H180 C194 0.930 . S
H181 C196 0.960 . S
H182 C196 0.960 . S
H183 C196 0.960 . S
C184 H176 0.929 . S
C184 C185 1.377 . S
C184 C186 1.384 . S
C185 C184 1.377 . S
C185 C191 1.390 1_554 S
C186 H177 0.930 . S
C186 C184 1.384 . S
C186 C187 1.372 . S
C187 C186 1.372 . S
C187 C188 1.400 . S
C187 C192 1.490 . S
C188 H178 0.930 1_554 S
C188 C187 1.400 . S
C188 C191 1.386 1_554 S
H189 C205 0.930 . S
H190 C206 0.931 . S
C191 H179 0.929 . S
C191 C185 1.390 1_556 S
C191 C188 1.386 1_556 S
C192 C187 1.490 . S
C192 C194 1.395 . S
C192 C195 1.403 . S
H193 C199 0.930 . S
C194 H180 0.930 . S
C194 C192 1.395 . S
C194 C197 1.403 . S
C195 C192 1.403 . S
C195 C196 1.524 . S
C195 C199 1.400 . S
C196 H181 0.960 . S
C196 H182 0.960 . S
C196 H183 0.960 . S
C196 C195 1.524 . S
C197 C194 1.403 . S
C197 C198 1.392 . S
C197 C201 1.495 . S
C198 C197 1.392 . S
C198 C199 1.385 . S
C198 C200 1.478 . S
C199 H193 0.930 . S
C199 C195 1.400 . S
C199 C198 1.385 . S
C200 C198 1.478 . S
C200 C202 1.381 . S
C200 C206 1.383 . S
C201 C197 1.495 . S
C201 H207 0.959 1_554 S
C201 H208 0.961 1_554 S
C201 H209 0.960 . S
C202 C200 1.381 . S
C202 C203 1.394 . S
C202 H210 0.930 . S
C203 C202 1.394 . S
C203 C204 1.383 . S
C203 H211 0.929 . S
C204 C203 1.383 . S
C204 C205 1.377 . S
C205 H189 0.930 . S
C205 C204 1.377 . S
C205 C206 1.379 . S
C206 H190 0.931 . S
C206 C200 1.383 . S
C206 C205 1.379 . S
H207 C201 0.959 1_556 S
H208 C201 0.961 1_556 S
H209 C201 0.960 . S
H210 C202 0.930 . S
H211 C203 0.929 . S
H212 C220 0.929 . S
H213 C222 0.930 . S
H214 C224 0.930 . S
H215 C227 0.929 . S
H216 C230 0.930 1_554 S
H217 C232 0.960 . S
H218 C232 0.960 . S
H219 C232 0.960 . S
C220 H212 0.929 . S
C220 C221 1.374 1_556 S
C220 C222 1.384 . S
C221 C220 1.374 1_554 S
C221 C227 1.392 . S
C222 H213 0.930 . S
C222 C220 1.384 . S
C222 C223 1.372 . S
C223 C222 1.372 . S
C223 C224 1.400 1_556 S
C223 C228 1.490 . S
C224 H214 0.930 . S
C224 C223 1.400 1_554 S
C224 C227 1.386 . S
H225 C241 0.930 . S
H226 C242 0.931 . S
C227 H215 0.929 . S
C227 C221 1.392 . S
C227 C224 1.386 . S
C228 C223 1.490 . S
C228 C230 1.395 . S
C228 C231 1.403 . S
H229 C235 0.930 . S
C230 H216 0.930 1_556 S
C230 C228 1.395 . S
C230 C233 1.403 . S
C231 C228 1.403 . S
C231 C232 1.524 . S
C231 C235 1.400 . S
C232 H217 0.960 . S
C232 H218 0.960 . S
C232 H219 0.960 . S
C232 C231 1.524 . S
C233 C230 1.403 . S
C233 C234 1.392 . S
C233 C237 1.495 1_556 S
C234 C233 1.392 . S
C234 C235 1.385 . S
C234 C236 1.478 . S
C235 H229 0.930 . S
C235 C231 1.400 . S
C235 C234 1.385 . S
C236 C234 1.478 . S
C236 C238 1.381 . S
C236 C242 1.383 . S
C237 C233 1.495 1_554 S
C237 H243 0.959 . S
C237 H244 0.961 . S
C237 H245 0.960 1_554 S
C238 C236 1.381 . S
C238 C239 1.394 . S
C238 H246 0.930 . S
C239 C238 1.394 . S
C239 C240 1.383 . S
C239 H247 0.929 . S
C240 C239 1.383 . S
C240 C241 1.377 . S
C241 H225 0.930 . S
C241 C240 1.377 . S
C241 C242 1.379 . S
C242 H226 0.931 . S
C242 C236 1.383 . S
C242 C241 1.379 . S
H243 C237 0.959 . S
H244 C237 0.961 . S
H245 C237 0.960 1_556 S
H246 C238 0.930 . S
H247 C239 0.929 . S
H248 C256 0.929 . S
H249 C258 0.930 . S
H250 C260 0.930 . S
H251 C263 0.929 . S
H252 C266 0.930 . S
H253 C268 0.960 . S
H254 C268 0.960 . S
H255 C268 0.960 . S
C256 H248 0.929 . S
C256 C257 1.377 . S
C256 C258 1.384 . S
C257 C256 1.377 . S
C257 C263 1.390 . S
C258 H249 0.930 . S
C258 C256 1.384 . S
C258 C259 1.372 . S
C259 C258 1.372 . S
C259 C260 1.400 . S
C259 C264 1.490 . S
C260 H250 0.930 . S
C260 C259 1.400 . S
C260 C263 1.386 . S
H261 C277 0.930 . S
H262 C278 0.931 . S
C263 H251 0.929 . S
C263 C257 1.390 . S
C263 C260 1.386 . S
C264 C259 1.490 . S
C264 C266 1.395 . S
C264 C267 1.403 . S
H265 C271 0.930 . S
C266 H252 0.930 . S
C266 C264 1.395 . S
C266 C269 1.403 . S
C267 C264 1.403 . S
C267 C268 1.524 . S
C267 C271 1.400 . S
C268 H253 0.960 . S
C268 H254 0.960 . S
C268 H255 0.960 . S
C268 C267 1.524 . S
C269 C266 1.403 . S
C269 C270 1.392 . S
C269 C273 1.495 . S
C270 C269 1.392 . S
C270 C271 1.385 . S
C270 C272 1.478 . S
C271 H265 0.930 . S
C271 C267 1.400 . S
C271 C270 1.385 . S
C272 C270 1.478 . S
C272 C274 1.381 . S
C272 C278 1.383 . S
C273 C269 1.495 . S
C273 H279 0.959 . S
C273 H280 0.961 . S
C273 H281 0.960 . S
C274 C272 1.381 . S
C274 C275 1.394 . S
C274 H282 0.930 . S
C275 C274 1.394 . S
C275 C276 1.383 . S
C275 H283 0.929 1_655 S
C276 C275 1.383 . S
C276 C277 1.377 . S
C277 H261 0.930 . S
C277 C276 1.377 . S
C277 C278 1.379 . S
C278 H262 0.931 . S
C278 C272 1.383 . S
C278 C277 1.379 . S
H279 C273 0.959 . S
H280 C273 0.961 . S
H281 C273 0.960 . S
H282 C274 0.930 . S
H283 C275 0.929 1_455 S
H284 C292 0.929 . S
H285 C294 0.930 . S
H286 C296 0.930 . S
H287 C299 0.929 . S
H288 C302 0.930 . S
H289 C304 0.960 . S
H290 C304 0.960 . S
H291 C304 0.960 . S
C292 H284 0.929 . S
C292 C293 1.377 . S
C292 C294 1.384 . S
C293 C292 1.377 . S
C293 C299 1.390 . S
C294 H285 0.930 . S
C294 C292 1.384 . S
C294 C295 1.372 . S
C295 C294 1.372 . S
C295 C296 1.400 . S
C295 C300 1.490 . S
C296 H286 0.930 . S
C296 C295 1.400 . S
C296 C299 1.386 . S
H297 C313 0.930 . S
H298 C314 0.931 . S
C299 H287 0.929 . S
C299 C293 1.390 . S
C299 C296 1.386 . S
C300 C295 1.490 . S
C300 C302 1.395 . S
C300 C303 1.403 . S
H301 C307 0.930 . S
C302 H288 0.930 . S
C302 C300 1.395 . S
C302 C305 1.403 . S
C303 C300 1.403 . S
C303 C304 1.524 . S
C303 C307 1.400 . S
C304 H289 0.960 . S
C304 H290 0.960 . S
C304 H291 0.960 . S
C304 C303 1.524 . S
C305 C302 1.403 . S
C305 C306 1.392 . S
C305 C309 1.495 . S
C306 C305 1.392 . S
C306 C307 1.385 . S
C306 C308 1.478 . S
C307 H301 0.930 . S
C307 C303 1.400 . S
C307 C306 1.385 . S
C308 C306 1.478 . S
C308 C310 1.381 . S
C308 C314 1.383 . S
C309 C305 1.495 . S
C309 H315 0.959 . S
C309 H316 0.961 . S
C309 H317 0.960 . S
C310 C308 1.381 . S
C310 C311 1.394 . S
C310 H318 0.930 . S
C311 C310 1.394 . S
C311 C312 1.383 . S
C311 H319 0.929 . S
C312 C311 1.383 . S
C312 C313 1.377 . S
C313 H297 0.930 . S
C313 C312 1.377 . S
C313 C314 1.379 . S
C314 H298 0.931 . S
C314 C308 1.383 . S
C314 C313 1.379 . S
H315 C309 0.959 . S
H316 C309 0.961 . S
H317 C309 0.960 . S
H318 C310 0.930 . S
H319 C311 0.929 . S
H320 C328 0.929 . S
H321 C330 0.930 . S
H322 C332 0.930 . S
H323 C335 0.929 . S
H324 C338 0.930 . S
H325 C340 0.960 . S
H326 C340 0.960 . S
H327 C340 0.960 . S
C328 H320 0.929 . S
C328 C329 1.377 . S
C328 C330 1.384 . S
C329 C328 1.377 . S
C329 C335 1.390 . S
C330 H321 0.930 . S
C330 C328 1.384 . S
C330 C331 1.372 . S
C331 C330 1.372 . S
C331 C332 1.400 . S
C331 C336 1.490 . S
C332 H322 0.930 . S
C332 C331 1.400 . S
C332 C335 1.386 . S
H333 C349 0.930 . S
H334 C350 0.931 . S
C335 H323 0.929 . S
C335 C329 1.390 . S
C335 C332 1.386 . S
C336 C331 1.490 . S
C336 C338 1.395 . S
C336 C339 1.403 . S
H337 C343 0.930 . S
C338 H324 0.930 . S
C338 C336 1.395 . S
C338 C341 1.403 . S
C339 C336 1.403 . S
C339 C340 1.524 . S
C339 C343 1.400 . S
C340 H325 0.960 . S
C340 H326 0.960 . S
C340 H327 0.960 . S
C340 C339 1.524 . S
C341 C338 1.403 . S
C341 C342 1.392 . S
C341 C345 1.495 . S
C342 C341 1.392 . S
C342 C343 1.385 . S
C342 C344 1.478 . S
C343 H337 0.930 . S
C343 C339 1.400 . S
C343 C342 1.385 . S
C344 C342 1.478 . S
C344 C346 1.381 . S
C344 C350 1.383 . S
C345 C341 1.495 . S
C345 H351 0.959 . S
C345 H352 0.961 . S
C345 H353 0.960 . S
C346 C344 1.381 . S
C346 C347 1.394 . S
C346 H354 0.930 . S
C347 C346 1.394 . S
C347 C348 1.383 . S
C347 H355 0.929 . S
C348 C347 1.383 . S
C348 C349 1.377 . S
C349 H333 0.930 . S
C349 C348 1.377 . S
C349 C350 1.379 . S
C350 H334 0.931 . S
C350 C344 1.383 . S
C350 C349 1.379 . S
H351 C345 0.959 . S
H352 C345 0.961 . S
H353 C345 0.960 . S
H354 C346 0.930 . S
H355 C347 0.929 . S
H356 C364 0.929 . S
H357 C366 0.930 . S
H358 C368 0.930 . S
H359 C371 0.929 . S
H360 C374 0.930 . S
H361 C376 0.960 . S
H362 C376 0.960 . S
H363 C376 0.960 . S
C364 H356 0.929 . S
C364 C365 1.377 . S
C364 C366 1.384 . S
C365 C364 1.377 . S
C365 C371 1.390 . S
C366 H357 0.930 . S
C366 C364 1.384 . S
C366 C367 1.372 . S
C367 C366 1.372 . S
C367 C368 1.400 . S
C367 C372 1.490 . S
C368 H358 0.930 . S
C368 C367 1.400 . S
C368 C371 1.386 . S
H369 C385 0.930 . S
H370 C386 0.931 . S
C371 H359 0.929 . S
C371 C365 1.390 . S
C371 C368 1.386 . S
C372 C367 1.490 . S
C372 C374 1.395 . S
C372 C375 1.403 . S
H373 C379 0.930 . S
C374 H360 0.930 . S
C374 C372 1.395 . S
C374 C377 1.403 . S
C375 C372 1.403 . S
C375 C376 1.524 . S
C375 C379 1.400 . S
C376 H361 0.960 . S
C376 H362 0.960 . S
C376 H363 0.960 . S
C376 C375 1.524 . S
C377 C374 1.403 . S
C377 C378 1.392 . S
C377 C381 1.495 . S
C378 C377 1.392 . S
C378 C379 1.385 . S
C378 C380 1.478 . S
C379 H373 0.930 . S
C379 C375 1.400 . S
C379 C378 1.385 . S
C380 C378 1.478 . S
C380 C382 1.381 . S
C380 C386 1.383 . S
C381 C377 1.495 . S
C381 H387 0.959 . S
C381 H388 0.961 . S
C381 H389 0.960 . S
C382 C380 1.381 . S
C382 C383 1.394 . S
C382 H390 0.930 . S
C383 C382 1.394 . S
C383 C384 1.383 . S
C383 H391 0.929 . S
C384 C383 1.383 . S
C384 C385 1.377 . S
C385 H369 0.930 . S
C385 C384 1.377 . S
C385 C386 1.379 . S
C386 H370 0.931 . S
C386 C380 1.383 . S
C386 C385 1.379 . S
H387 C381 0.959 . S
H388 C381 0.961 . S
H389 C381 0.960 . S
H390 C382 0.930 . S
H391 C383 0.929 . S
H392 C400 0.929 . S
H393 C402 0.930 . S
H394 C404 0.930 . S
H395 C407 0.929 . S
H396 C410 0.930 . S
H397 C412 0.960 . S
H398 C412 0.960 . S
H399 C412 0.960 1_565 S
C400 H392 0.929 . S
C400 C401 1.377 1_655 S
C400 C402 1.384 . S
C401 C400 1.377 1_455 S
C401 C407 1.390 1_545 S
C402 H393 0.930 . S
C402 C400 1.384 . S
C402 C403 1.372 1_655 S
C403 C402 1.372 1_455 S
C403 C404 1.400 1_545 S
C403 C408 1.490 . S
C404 H394 0.930 . S
C404 C403 1.400 1_565 S
C404 C407 1.386 . S
H405 C421 0.930 . S
H406 C422 0.931 . S
C407 H395 0.929 . S
C407 C401 1.390 1_565 S
C407 C404 1.386 . S
C408 C403 1.490 . S
C408 C410 1.390 1_455 S
C408 C411 1.407 . S
H409 C415 0.930 . S
C410 H396 0.930 . S
C410 C408 1.390 1_655 S
C410 C413 1.403 . S
C411 C408 1.407 . S
C411 C412 1.524 . S
C411 C415 1.400 . S
C412 H397 0.960 . S
C412 H398 0.960 . S
C412 H399 0.960 1_545 S
C412 C411 1.524 . S
C413 C410 1.403 . S
C413 C414 1.392 . S
C413 C417 1.495 . S
C414 C413 1.392 . S
C414 C415 1.385 1_655 S
C414 C416 1.478 . S
C415 H409 0.930 . S
C415 C411 1.400 . S
C415 C414 1.385 1_455 S
C416 C414 1.478 . S
C416 C418 1.381 . S
C416 C422 1.383 1_645 S
C417 C413 1.495 . S
C417 H423 0.959 . S
C417 H424 0.961 1_545 S
C417 H425 0.960 . S
C418 C416 1.381 . S
C418 C419 1.394 . S
C418 H426 0.930 . S
C419 C418 1.394 . S
C419 C420 1.396 . S
C419 H427 0.929 . S
C420 C419 1.396 . S
C420 C421 1.365 1_645 S
C421 H405 0.930 . S
C421 C420 1.365 1_465 S
C421 C422 1.379 . S
C422 H406 0.931 . S
C422 C416 1.383 1_465 S
C422 C421 1.379 . S
H423 C417 0.959 . S
H424 C417 0.961 1_565 S
H425 C417 0.960 . S
H426 C418 0.930 . S
H427 C419 0.929 . S
H428 C436 0.929 . S
H429 C438 0.930 . S
H430 C440 0.930 . S
H431 C443 0.929 . S
H432 C446 0.930 . S
H433 C448 0.960 . S
H434 C448 0.960 . S
H435 C448 0.960 . S
C436 H428 0.929 . S
C436 C437 1.377 . S
C436 C438 1.384 . S
C437 C436 1.377 . S
C437 C443 1.390 1_445 S
C438 H429 0.930 . S
C438 C436 1.384 . S
C438 C439 1.372 . S
C439 C438 1.372 . S
C439 C440 1.400 1_445 S
C439 C444 1.490 . S
C440 H430 0.930 . S
C440 C439 1.400 1_665 S
C440 C443 1.386 . S
H441 C457 0.930 . S
H442 C458 0.931 . S
C443 H431 0.929 . S
C443 C437 1.390 1_665 S
C443 C440 1.386 . S
C444 C439 1.490 . S
C444 C446 1.395 1_545 S
C444 C447 1.403 1_455 S
H445 C451 0.930 . S
C446 H432 0.930 . S
C446 C444 1.395 1_565 S
C446 C449 1.403 . S
C447 C444 1.403 1_655 S
C447 C448 1.524 . S
C447 C451 1.400 . S
C448 H433 0.960 . S
C448 H434 0.960 . S
C448 H435 0.960 . S
C448 C447 1.524 . S
C449 C446 1.403 . S
C449 C450 1.392 1_565 S
C449 C453 1.495 . S
C450 C449 1.392 1_545 S
C450 C451 1.385 1_455 S
C450 C452 1.478 . S
C451 H445 0.930 . S
C451 C447 1.400 . S
C451 C450 1.385 1_655 S
C452 C450 1.478 . S
C452 C454 1.381 . S
C452 C458 1.383 1_445 S
C453 C449 1.495 . S
C453 H459 0.959 . S
C453 H460 0.961 . S
C453 H461 0.960 . S
C454 C452 1.381 . S
C454 C455 1.394 . S
C454 H462 0.930 . S
C455 C454 1.394 . S
C455 C456 1.383 . S
C455 H463 0.929 . S
C456 C455 1.383 . S
C456 C457 1.377 1_445 S
C457 H441 0.930 . S
C457 C456 1.377 1_665 S
C457 C458 1.379 . S
C458 H442 0.931 . S
C458 C452 1.383 1_665 S
C458 C457 1.379 . S
H459 C453 0.959 . S
H460 C453 0.961 . S
H461 C453 0.960 . S
H462 C454 0.930 . S
H463 C455 0.929 . S
H464 C472 0.929 . S
H465 C474 0.930 . S
H466 C476 0.930 . S
H467 C479 0.929 . S
H468 C482 0.930 . S
H469 C484 0.960 . S
H470 C484 0.960 . S
H471 C484 0.960 . S
C472 H464 0.929 . S
C472 C473 1.377 . S
C472 C474 1.384 . S
C473 C472 1.377 . S
C473 C479 1.390 . S
C474 H465 0.930 . S
C474 C472 1.384 . S
C474 C475 1.372 . S
C475 C474 1.372 . S
C475 C476 1.400 . S
C475 C480 1.490 . S
C476 H466 0.930 . S
C476 C475 1.400 . S
C476 C479 1.386 . S
H477 C493 0.930 . S
H478 C494 0.931 . S
C479 H467 0.929 . S
C479 C473 1.390 . S
C479 C476 1.386 . S
C480 C475 1.490 . S
C480 C482 1.395 . S
C480 C483 1.403 . S
H481 C487 0.930 . S
C482 H468 0.930 . S
C482 C480 1.395 . S
C482 C485 1.403 . S
C483 C480 1.403 . S
C483 C484 1.524 . S
C483 C487 1.400 . S
C484 H469 0.960 . S
C484 H470 0.960 . S
C484 H471 0.960 . S
C484 C483 1.524 . S
C485 C482 1.403 . S
C485 C486 1.392 . S
C485 C489 1.495 . S
C486 C485 1.392 . S
C486 C487 1.385 . S
C486 C488 1.478 . S
C487 H481 0.930 . S
C487 C483 1.400 . S
C487 C486 1.385 . S
C488 C486 1.478 . S
C488 C490 1.381 . S
C488 C494 1.383 . S
C489 C485 1.495 . S
C489 H495 0.959 . S
C489 H496 0.961 . S
C489 H497 0.960 . S
C490 C488 1.381 . S
C490 C491 1.394 . S
C490 H498 0.930 . S
C491 C490 1.394 . S
C491 C492 1.383 . S
C491 H499 0.929 . S
C492 C491 1.383 . S
C492 C493 1.377 . S
C493 H477 0.930 . S
C493 C492 1.377 . S
C493 C494 1.379 . S
C494 H478 0.931 . S
C494 C488 1.383 . S
C494 C493 1.379 . S
H495 C489 0.959 . S
H496 C489 0.961 . S
H497 C489 0.960 . S
H498 C490 0.930 . S
H499 C491 0.929 . S
H500 C508 0.929 . S
H501 C510 0.930 . S
H502 C512 0.930 . S
H503 C515 0.929 . S
H504 C518 0.930 . S
H505 C520 0.960 . S
H506 C520 0.960 . S
H507 C520 0.960 . S
C508 H500 0.929 . S
C508 C509 1.377 . S
C508 C510 1.384 . S
C509 C508 1.377 . S
C509 C515 1.390 . S
C510 H501 0.930 . S
C510 C508 1.384 . S
C510 C511 1.372 . S
C511 C510 1.372 . S
C511 C512 1.400 . S
C511 C516 1.490 . S
C512 H502 0.930 . S
C512 C511 1.400 . S
C512 C515 1.386 . S
H513 C529 0.930 . S
H514 C530 0.931 . S
C515 H503 0.929 . S
C515 C509 1.390 . S
C515 C512 1.386 . S
C516 C511 1.490 . S
C516 C518 1.395 . S
C516 C519 1.403 . S
H517 C523 0.930 . S
C518 H504 0.930 . S
C518 C516 1.395 . S
C518 C521 1.403 . S
C519 C516 1.403 . S
C519 C520 1.524 . S
C519 C523 1.400 . S
C520 H505 0.960 . S
C520 H506 0.960 . S
C520 H507 0.960 . S
C520 C519 1.524 . S
C521 C518 1.403 . S
C521 C522 1.392 . S
C521 C525 1.495 . S
C522 C521 1.392 . S
C522 C523 1.385 . S
C522 C524 1.478 . S
C523 H517 0.930 . S
C523 C519 1.400 . S
C523 C522 1.385 . S
C524 C522 1.478 . S
C524 C526 1.381 . S
C524 C530 1.383 . S
C525 C521 1.495 . S
C525 H531 0.959 . S
C525 H532 0.961 . S
C525 H533 0.960 . S
C526 C524 1.381 . S
C526 C527 1.394 . S
C526 H534 0.930 . S
C527 C526 1.394 . S
C527 C528 1.383 . S
C527 H535 0.929 . S
C528 C527 1.383 . S
C528 C529 1.377 . S
C529 H513 0.930 . S
C529 C528 1.377 . S
C529 C530 1.379 . S
C530 H514 0.931 . S
C530 C524 1.383 . S
C530 C529 1.379 . S
H531 C525 0.959 . S
H532 C525 0.961 . S
H533 C525 0.960 . S
H534 C526 0.930 . S
H535 C527 0.929 . S
C132 C99 1.273 . S
C113 C29 1.305 . S
C149 C8 1.309 1_556 S
C168 C90 1.313 . S
C185 C0 1.306 . S
C204 C102 1.301 . S
C221 C17 1.297 . S
C240 C93 1.300 . S
C257 C63 1.300 . S
C276 C81 1.307 . S
C293 C42 1.309 . S
C312 C72 1.302 . S
C348 C84 1.291 . S
C329 C34 1.307 . S
C384 C75 1.285 . S
C365 C51 1.299 . S
C401 C4 1.483 . S
C420 C73 1.483 1_545 S
C437 C13 1.484 . S
C456 C82 1.483 . S
C492 C91 1.482 . S
C473 C38 1.485 . S
C509 C47 1.484 . S
C528 C100 1.483 . S
