# Generated by pormake.
# Topology hwx, (6,3)-cn, num edge types: 1
# Building blocks:
#     Node 0, Type 0, BuildingBlock: IZENUY_clean_sbu_0, # of connection points: 6
#     Node 1, Type 0, BuildingBlock: IZENUY_clean_sbu_0, # of connection points: 6
#     Node 2, Type 0, BuildingBlock: IZENUY_clean_sbu_0, # of connection points: 6
#     Node 3, Type 0, BuildingBlock: IZENUY_clean_sbu_0, # of connection points: 6
#     Node 4, Type 1, BuildingBlock: MIDCAF_clean_linker_0, # of connection points: 3
#     Node 5, Type 1, BuildingBlock: MIDCAF_clean_linker_0, # of connection points: 3
#     Node 6, Type 1, BuildingBlock: MIDCAF_clean_linker_0, # of connection points: 3
#     Node 7, Type 1, BuildingBlock: MIDCAF_clean_linker_0, # of connection points: 3
#     Node 8, Type 1, BuildingBlock: MIDCAF_clean_linker_0, # of connection points: 3
#     Node 9, Type 1, BuildingBlock: MIDCAF_clean_linker_0, # of connection points: 3
#     Node 10, Type 1, BuildingBlock: MIDCAF_clean_linker_0, # of connection points: 3
#     Node 11, Type 1, BuildingBlock: MIDCAF_clean_linker_0, # of connection points: 3
#     Edge 12, Type (0, 1), BuildingBlock: KIFKEQ_clean_linker_1, # of connection points: 2
#     Edge 13, Type (0, 1), BuildingBlock: KIFKEQ_clean_linker_1, # of connection points: 2
#     Edge 14, Type (0, 1), BuildingBlock: KIFKEQ_clean_linker_1, # of connection points: 2
#     Edge 15, Type (0, 1), BuildingBlock: KIFKEQ_clean_linker_1, # of connection points: 2
#     Edge 16, Type (0, 1), BuildingBlock: KIFKEQ_clean_linker_1, # of connection points: 2
#     Edge 17, Type (0, 1), BuildingBlock: KIFKEQ_clean_linker_1, # of connection points: 2
#     Edge 18, Type (0, 1), BuildingBlock: KIFKEQ_clean_linker_1, # of connection points: 2
#     Edge 19, Type (0, 1), BuildingBlock: KIFKEQ_clean_linker_1, # of connection points: 2
#     Edge 20, Type (0, 1), BuildingBlock: KIFKEQ_clean_linker_1, # of connection points: 2
#     Edge 21, Type (0, 1), BuildingBlock: KIFKEQ_clean_linker_1, # of connection points: 2
#     Edge 22, Type (0, 1), BuildingBlock: KIFKEQ_clean_linker_1, # of connection points: 2
#     Edge 23, Type (0, 1), BuildingBlock: KIFKEQ_clean_linker_1, # of connection points: 2
#     Edge 24, Type (0, 1), BuildingBlock: KIFKEQ_clean_linker_1, # of connection points: 2
#     Edge 25, Type (0, 1), BuildingBlock: KIFKEQ_clean_linker_1, # of connection points: 2
#     Edge 26, Type (0, 1), BuildingBlock: KIFKEQ_clean_linker_1, # of connection points: 2
#     Edge 27, Type (0, 1), BuildingBlock: KIFKEQ_clean_linker_1, # of connection points: 2
#     Edge 28, Type (0, 1), BuildingBlock: KIFKEQ_clean_linker_1, # of connection points: 2
#     Edge 29, Type (0, 1), BuildingBlock: KIFKEQ_clean_linker_1, # of connection points: 2
#     Edge 30, Type (0, 1), BuildingBlock: KIFKEQ_clean_linker_1, # of connection points: 2
#     Edge 31, Type (0, 1), BuildingBlock: KIFKEQ_clean_linker_1, # of connection points: 2
#     Edge 32, Type (0, 1), BuildingBlock: KIFKEQ_clean_linker_1, # of connection points: 2
#     Edge 33, Type (0, 1), BuildingBlock: KIFKEQ_clean_linker_1, # of connection points: 2
#     Edge 34, Type (0, 1), BuildingBlock: KIFKEQ_clean_linker_1, # of connection points: 2
#     Edge 35, Type (0, 1), BuildingBlock: KIFKEQ_clean_linker_1, # of connection points: 2
# Relax obj value: 0.053
# Max RMSD: 0.077
# Mean RMSD: 0.069
data_MOF--net-hwx--node1-IZENUY_clean_sbu_0--node2-MIDCAF_clean_linker_0--edge1-KIFKEQ_clean_linker_1
_symmetry_space_group_name_H-M    P1
_symmetry_Int_Tables_number       1
_symmetry_cell_setting            triclinic
loop_
_symmetry_equiv_pos_as_xyz
'x, y, z'
_cell_length_a     58.389388
_cell_length_b     58.304713
_cell_length_c     28.402247
_cell_angle_alpha  89.776456
_cell_angle_beta   90.121628
_cell_angle_gamma 90.028118
loop_
_atom_site_label
_atom_site_type_symbol
_atom_site_fract_x
_atom_site_fract_y
_atom_site_fract_z
_atom_type_partial_charge
Fe0 Fe 0.23678 0.21037 0.05545 0.0
Fe1 Fe 0.2395 0.20979 0.94772 0.0
O2 O 0.23158 0.1963 0.00129 0.0
Fe3 Fe 0.21849 0.16884 0.00037 0.0
O4 O 0.19314 0.17934 0.03008 0.0
O5 O 0.21133 0.19883 0.0848 0.0
O6 O 0.21926 0.23475 0.03819 0.0
C7 C 0.2229 0.24682 0.00209 0.0
C8 C 0.24842 0.16632 0.07923 0.0
O9 O 0.23489 0.23916 0.96862 0.0
C10 C 0.2507 0.16322 0.93184 0.0
O11 O 0.2633 0.22441 0.0357 0.0
O12 O 0.26935 0.21047 0.96497 0.0
O13 O 0.23137 0.15909 0.05595 0.0
O14 O 0.25454 0.18704 0.0768 0.0
C15 C 0.19787 0.19217 0.92323 0.0
O16 O 0.24575 0.18303 0.91659 0.0
O17 O 0.2429 0.15624 0.97069 0.0
C18 C 0.27672 0.2199 0.00192 0.0
O19 O 0.2101 0.20991 0.92723 0.0
O20 O 0.20319 0.17377 0.94457 0.0
C21 C 0.19318 0.18988 0.06877 0.0
Fe22 Fe 0.26243 0.70896 0.55522 0.0
Fe23 Fe 0.28139 0.66782 0.49994 0.0
O24 O 0.2686 0.69543 0.50088 0.0
Fe25 Fe 0.26194 0.70953 0.44719 0.0
O26 O 0.26676 0.73857 0.4696 0.0
O27 O 0.28035 0.73346 0.54093 0.0
O28 O 0.28724 0.6969 0.5862 0.0
C29 C 0.30559 0.68795 0.57129 0.0
C30 C 0.22375 0.71953 0.49846 0.0
O31 O 0.30625 0.67779 0.5322 0.0
C32 C 0.25033 0.66328 0.42858 0.0
O33 O 0.24408 0.68554 0.57381 0.0
O34 O 0.26743 0.65765 0.55398 0.0
O35 O 0.23179 0.71058 0.46167 0.0
O36 O 0.23647 0.72342 0.53377 0.0
C37 C 0.30371 0.69154 0.42552 0.0
O38 O 0.25738 0.65581 0.4677 0.0
O39 O 0.25581 0.68316 0.41453 0.0
C40 C 0.25001 0.66477 0.57601 0.0
O41 O 0.29777 0.67303 0.44565 0.0
O42 O 0.29168 0.70939 0.4293 0.0
C43 C 0.27801 0.74577 0.50466 0.0
Fe44 Fe 0.76145 0.80121 0.94363 0.0
Fe45 Fe 0.76208 0.79943 0.05143 0.0
O46 O 0.76885 0.81382 0.99818 0.0
Fe47 Fe 0.78291 0.84082 -0.00019 0.0
O48 O 0.7597 0.85485 0.96859 0.0
O49 O 0.75562 0.82853 0.9138 0.0
O50 O 0.73127 0.80056 0.95879 0.0
C51 C 0.72331 0.79056 0.99457 0.0
C52 C 0.8039 0.81843 0.92267 0.0
O53 O 0.73615 0.78551 0.02895 0.0
C54 C 0.80581 0.81841 0.06997 0.0
O55 O 0.76598 0.77156 0.96389 0.0
O56 O 0.77962 0.77498 0.03578 0.0
O57 O 0.799 0.83644 0.94523 0.0
O58 O 0.79105 0.80105 0.92444 0.0
C59 C 0.75087 0.84347 0.0743 0.0
O60 O 0.78681 0.81051 0.084 0.0
O61 O 0.80727 0.82884 0.03113 0.0
C62 C 0.77709 0.76346 0.99858 0.0
O63 O 0.74404 0.82303 0.07027 0.0
O64 O 0.76922 0.85005 0.0547 0.0
C65 C 0.7516 0.84838 0.92967 0.0
Fe66 Fe 0.71728 0.33905 0.50483 0.0
Fe67 Fe 0.73666 0.29629 0.55389 0.0
O68 O 0.73048 0.31174 0.50165 0.0
Fe69 Fe 0.73742 0.29977 0.44622 0.0
O70 O 0.75612 0.3236 0.43206 0.0
O71 O 0.73198 0.3507 0.45274 0.0
O72 O 0.74059 0.35061 0.53975 0.0
C73 C 0.74734 0.34222 0.57833 0.0
C74 C 0.69454 0.32118 0.42943 0.0
O75 O 0.7423 0.32181 0.5897 0.0
C76 C 0.72089 0.26186 0.49166 0.0
O77 O 0.70027 0.33233 0.55751 0.0
O78 O 0.70678 0.29574 0.57052 0.0
O79 O 0.71331 0.31305 0.41478 0.0
O80 O 0.69297 0.32945 0.47021 0.0
C81 C 0.77536 0.2876 0.50349 0.0
O82 O 0.73209 0.26791 0.52776 0.0
O83 O 0.71909 0.2751 0.45661 0.0
C84 C 0.69443 0.31328 0.57549 0.0
O85 O 0.76697 0.29579 0.54065 0.0
O86 O 0.76294 0.28443 0.46747 0.0
C87 C 0.74997 0.34434 0.43151 0.0
C88 C 0.18418 0.57371 0.13076 0.0
C89 C 0.18791 0.56218 0.17365 0.0
C90 C 0.18753 0.53808 0.17422 0.0
C91 C 0.18418 0.52579 0.13261 0.0
H92 H 0.19619 0.46218 0.07561 0.0
H93 H 0.20088 0.42061 0.07633 0.0
H94 H 0.17208 0.41681 0.93657 0.0
H95 H 0.16768 0.45861 0.9352 0.0
H96 H 0.19086 0.50708 0.87461 0.0
H97 H 0.1978 0.5289 0.8025 0.0
H98 H 0.17887 0.59133 0.87374 0.0
H99 H 0.17184 0.56966 0.94576 0.0
H100 H 0.17859 0.57095 0.05665 0.0
H101 H 0.18462 0.59226 0.12899 0.0
H102 H 0.19008 0.5287 0.20681 0.0
H103 H 0.18443 0.50723 0.1343 0.0
N104 N 0.18015 0.50107 0.045 0.0
N105 N 0.17969 0.50059 0.96238 0.0
N106 N 0.17931 0.53562 0.00273 0.0
C107 C 0.17999 0.48906 0.00411 0.0
C108 C 0.17932 0.52392 0.96144 0.0
C109 C 0.17966 0.52435 0.04466 0.0
C110 C 0.18162 0.46372 0.00524 0.0
C111 C 0.19068 0.45253 0.04509 0.0
C112 C 0.19346 0.42875 0.04552 0.0
C113 C 0.18685 0.41561 0.00652 0.0
C114 C 0.17719 0.42662 0.96716 0.0
C115 C 0.1748 0.45051 0.96633 0.0
C116 C 0.18098 0.53662 0.91619 0.0
C117 C 0.18785 0.52541 0.87479 0.0
C118 C 0.19196 0.53791 0.83352 0.0
C119 C 0.18902 0.56183 0.83258 0.0
C120 C 0.18114 0.57289 0.87328 0.0
C121 C 0.17725 0.56045 0.91466 0.0
C122 C 0.18121 0.53732 0.08941 0.0
C123 C 0.18087 0.56144 0.08915 0.0
C124 C 0.91437 0.83664 0.62531 0.0
C125 C 0.92275 0.82688 0.66723 0.0
C126 C 0.9448 0.81722 0.66753 0.0
C127 C 0.95797 0.81685 0.62644 0.0
H128 H 0.02374 0.80579 0.57347 0.0
H129 H 0.06222 0.78965 0.5735 0.0
H130 H 0.05867 0.78141 0.42264 0.0
H131 H 0.02011 0.79734 0.42235 0.0
H132 H 0.97305 0.80802 0.36904 0.0
H133 H 0.9494 0.8096 0.29821 0.0
H134 H 0.90039 0.85205 0.3711 0.0
H135 H 0.92358 0.84993 0.44212 0.0
H136 H 0.92018 0.84347 0.55244 0.0
H137 H 0.89736 0.844 0.62376 0.0
H138 H 0.95181 0.80979 0.69946 0.0
H139 H 0.97471 0.80889 0.62768 0.0
N140 N 0.98394 0.81564 0.5392 0.0
N141 N 0.98424 0.81672 0.45657 0.0
N142 N 0.95161 0.8284 0.49783 0.0
C143 C 0.99516 0.8122 0.49791 0.0
C144 C 0.9625 0.82497 0.4563 0.0
C145 C 0.96214 0.82375 0.53943 0.0
C146 C 0.01876 0.80286 0.49791 0.0
C147 C 0.03111 0.80056 0.54024 0.0
C148 C 0.05322 0.79143 0.54028 0.0
C149 C 0.06342 0.78425 0.49808 0.0
C150 C 0.05114 0.78658 0.45577 0.0
C151 C 0.02909 0.79585 0.45564 0.0
C152 C 0.95001 0.82852 0.41148 0.0
C153 C 0.95738 0.81795 0.36975 0.0
C154 C 0.94387 0.81894 0.32905 0.0
C155 C 0.92282 0.83065 0.32922 0.0
C156 C 0.91622 0.84239 0.37014 0.0
C157 C 0.92958 0.84124 0.41083 0.0
C158 C 0.94927 0.82599 0.58411 0.0
C159 C 0.92745 0.83619 0.58427 0.0
C160 C 0.81213 0.43275 0.8836 0.0
C161 C 0.80527 0.44291 0.84091 0.0
C162 C 0.80389 0.46696 0.83812 0.0
C163 C 0.80828 0.48046 0.8778 0.0
H164 H 0.81034 0.54727 0.92521 0.0
H165 H 0.8069 0.58889 0.92242 0.0
H166 H 0.81648 0.59192 0.07306 0.0
H167 H 0.82021 0.55035 0.07605 0.0
H168 H 0.80596 0.50344 0.13364 0.0
H169 H 0.80006 0.48246 0.20722 0.0
H170 H 0.82061 0.41965 0.13933 0.0
H171 H 0.82656 0.44047 0.06587 0.0
H172 H 0.8212 0.43763 0.95569 0.0
H173 H 0.81384 0.41431 0.88666 0.0
H174 H 0.79855 0.47531 0.80579 0.0
H175 H 0.80633 0.49888 0.87485 0.0
N176 N 0.81594 0.50733 0.96278 0.0
N177 N 0.81719 0.50893 0.04534 0.0
N178 N 0.81714 0.4734 0.00719 0.0
C179 C 0.81656 0.51992 0.00301 0.0
C180 C 0.81756 0.48566 0.04768 0.0
C181 C 0.81632 0.48403 0.9646 0.0
C182 C 0.81546 0.54535 0.0009 0.0
C183 C 0.81186 0.55676 0.95778 0.0
C184 C 0.80976 0.58063 0.95615 0.0
C185 C 0.81133 0.59369 0.99753 0.0
C186 C 0.81541 0.58236 0.04049 0.0
C187 C 0.8174 0.55848 0.04219 0.0
C188 C 0.81654 0.47361 0.09369 0.0
C189 C 0.80956 0.48523 0.13453 0.0
C190 C 0.80606 0.47321 0.17663 0.0
C191 C 0.80976 0.44942 0.17892 0.0
C192 C 0.81778 0.43801 0.13874 0.0
C193 C 0.82103 0.44995 0.09654 0.0
C194 C 0.8141 0.47017 0.92111 0.0
C195 C 0.81645 0.44618 0.92318 0.0
C196 C 0.08217 0.17267 0.35907 0.0
C197 C 0.07296 0.18268 0.31815 0.0
C198 C 0.05154 0.19356 0.32056 0.0
C199 C 0.03985 0.19497 0.36336 0.0
H200 H 0.97564 0.20493 0.42287 0.0
H201 H 0.93659 0.21938 0.42595 0.0
H202 H 0.94326 0.22963 0.57585 0.0
H203 H 0.98247 0.21543 0.57297 0.0
H204 H 0.02861 0.20262 0.62392 0.0
H205 H 0.05229 0.20118 0.69468 0.0
H206 H 0.10839 0.17392 0.61336 0.0
H207 H 0.08477 0.17497 0.54286 0.0
H208 H 0.07852 0.16691 0.43305 0.0
H209 H 0.09875 0.16436 0.35835 0.0
H210 H 0.044 0.2013 0.28945 0.0
H211 H 0.02361 0.20392 0.36421 0.0
N212 N 0.01625 0.19645 0.45331 0.0
N213 N 0.01876 0.1981 0.53566 0.0
N214 N 0.0505 0.18654 0.49136 0.0
C215 C 0.00629 0.20079 0.49555 0.0
C216 C 0.04088 0.19093 0.53387 0.0
C217 C 0.03833 0.18926 0.45093 0.0
C218 C 0.98229 0.20903 0.49766 0.0
C219 C 0.96884 0.21021 0.45658 0.0
C220 C 0.94638 0.21838 0.45833 0.0
C221 C 0.93687 0.22565 0.50113 0.0
C222 C 0.95022 0.22439 0.54226 0.0
C223 C 0.97266 0.21611 0.54059 0.0
C224 C 0.05476 0.18898 0.57752 0.0
C225 C 0.04593 0.19615 0.62111 0.0
C226 C 0.05954 0.19546 0.66167 0.0
C227 C 0.08222 0.18749 0.6596 0.0
C228 C 0.09089 0.17991 0.61626 0.0
C229 C 0.07735 0.18066 0.57572 0.0
C230 C 0.04952 0.18579 0.40475 0.0
C231 C 0.07064 0.1743 0.40195 0.0
C232 C 0.69166 0.93481 0.37217 0.0
C233 C 0.68773 0.94469 0.32768 0.0
C234 C 0.68095 0.96784 0.32523 0.0
C235 C 0.67867 0.98088 0.36629 0.0
H236 H 0.67277 0.04776 0.41582 0.0
H237 H 0.67364 0.08948 0.41185 0.0
H238 H 0.68441 0.09236 0.56225 0.0
H239 H 0.683 0.05078 0.56655 0.0
H240 H 0.67336 0.99943 0.62705 0.0
H241 H 0.67959 0.97785 0.70015 0.0
H242 H 0.71445 0.92505 0.62139 0.0
H243 H 0.70734 0.94587 0.54912 0.0
H244 H 0.69284 0.93945 0.44643 0.0
H245 H 0.69738 0.91722 0.37557 0.0
H246 H 0.67754 0.97594 0.29157 0.0
H247 H 0.67372 0.99872 0.36317 0.0
N248 N 0.67919 0.00788 0.45309 0.0
N249 N 0.68228 0.00943 0.53562 0.0
N250 N 0.68503 0.97424 0.49664 0.0
C251 C 0.67932 0.02037 0.49354 0.0
C252 C 0.68516 0.98633 0.53729 0.0
C253 C 0.68195 0.98474 0.45447 0.0
C254 C 0.67796 0.04579 0.49149 0.0
C255 C 0.6751 0.05726 0.44817 0.0
C256 C 0.67573 0.08121 0.44581 0.0
C257 C 0.67924 0.0943 0.48666 0.0
C258 C 0.6814 0.08287 0.53013 0.0
C259 C 0.68072 0.05894 0.53254 0.0
C260 C 0.68957 0.97421 0.58227 0.0
C261 C 0.68231 0.98318 0.6256 0.0
C262 C 0.68596 0.97085 0.66746 0.0
C263 C 0.69721 0.94948 0.66673 0.0
C264 C 0.70505 0.94102 0.62337 0.0
C265 C 0.7011 0.95309 0.58176 0.0
C266 C 0.68302 0.971 0.41067 0.0
C267 C 0.68924 0.94772 0.41302 0.0
C268 C 0.59002 0.32377 0.8813 0.0
C269 C 0.57998 0.31767 0.83818 0.0
C270 C 0.55628 0.31355 0.83633 0.0
C271 C 0.54303 0.31477 0.87726 0.0
H272 H 0.48114 0.29504 0.93175 0.0
H273 H 0.44247 0.27956 0.93225 0.0
H274 H 0.43699 0.29409 0.08075 0.0
H275 H 0.47567 0.30985 0.08047 0.0
H276 H 0.52182 0.32199 0.13819 0.0
H277 H 0.54331 0.32722 0.21132 0.0
H278 H 0.60421 0.34236 0.13072 0.0
H279 H 0.58288 0.33791 0.05846 0.0
H280 H 0.58531 0.32959 0.95467 0.0
H281 H 0.60818 0.32742 0.8836 0.0
H282 H 0.54812 0.30876 0.80352 0.0
H283 H 0.5249 0.31103 0.87489 0.0
N284 N 0.51752 0.31337 0.96514 0.0
N285 N 0.51616 0.31774 0.04729 0.0
N286 N 0.54998 0.32573 0.00621 0.0
C287 C 0.50557 0.31216 0.00614 0.0
C288 C 0.5384 0.32461 0.04752 0.0
C289 C 0.53974 0.32021 0.96489 0.0
C290 C 0.48163 0.30365 0.00613 0.0
C291 C 0.47173 0.29508 0.96455 0.0
C292 C 0.44959 0.28605 0.96484 0.0
C293 C 0.43676 0.28548 0.00659 0.0
C294 C 0.44642 0.29444 0.04797 0.0
C295 C 0.46864 0.30337 0.04779 0.0
C296 C 0.5506 0.3294 0.09229 0.0
C297 C 0.53973 0.32673 0.13615 0.0
C298 C 0.55207 0.32961 0.17809 0.0
C299 C 0.57549 0.33524 0.17699 0.0
C300 C 0.58611 0.33847 0.1331 0.0
C301 C 0.57385 0.33568 0.09142 0.0
C302 C 0.55322 0.32031 0.92072 0.0
C303 C 0.57682 0.32513 0.92201 0.0
C304 C 0.31722 0.07207 0.63934 0.0
C305 C 0.313 0.06019 0.68158 0.0
C306 C 0.31241 0.03609 0.68093 0.0
C307 C 0.31526 0.02418 0.63869 0.0
H308 H 0.3214 0.95929 0.58261 0.0
H309 H 0.31761 0.91768 0.58158 0.0
H310 H 0.30979 0.91948 0.4304 0.0
H311 H 0.31326 0.96106 0.4312 0.0
H312 H 0.30492 0.0087 0.3803 0.0
H313 H 0.29749 0.03116 0.30924 0.0
H314 H 0.31606 0.09306 0.38301 0.0
H315 H 0.32359 0.07073 0.45407 0.0
H316 H 0.32261 0.07002 0.56514 0.0
H317 H 0.31752 0.09064 0.63849 0.0
H318 H 0.30943 0.02645 0.71301 0.0
H319 H 0.31419 0.00564 0.63933 0.0
N320 N 0.31927 1.00047 0.54945 0.0
N321 N 0.31725 0.00131 0.46695 0.0
N322 N 0.31831 0.03567 0.50939 0.0
C323 C 0.31839 0.98909 0.50779 0.0
C324 C 0.31731 0.02462 0.46745 0.0
C325 C 0.31928 0.02377 0.55056 0.0
C326 C 0.31748 0.96364 0.50701 0.0
C327 C 0.31898 0.95086 0.54906 0.0
C328 C 0.31695 0.92696 0.5485 0.0
C329 C 0.31328 0.9153 0.50595 0.0
C330 C 0.31228 0.928 0.46384 0.0
C331 C 0.31439 0.95187 0.46433 0.0
C332 C 0.3147 0.03791 0.4231 0.0
C333 C 0.30768 0.02706 0.38133 0.0
C334 C 0.3033 0.03993 0.34064 0.0
C335 C 0.30609 0.06387 0.34065 0.0
C336 C 0.31392 0.07462 0.38183 0.0
C337 C 0.31808 0.0618 0.42265 0.0
C338 C 0.3186 0.03613 0.5961 0.0
C339 C 0.31997 0.06021 0.59713 0.0
C340 C 0.41089 0.68045 0.12137 0.0
C341 C 0.41988 0.68831 0.16431 0.0
C342 C 0.44236 0.69693 0.16532 0.0
C343 C 0.45547 0.6979 0.12417 0.0
H344 H 0.51412 0.72906 0.06359 0.0
H345 H 0.55302 0.74472 0.06242 0.0
H346 H 0.56554 0.71129 0.92966 0.0
H347 H 0.52665 0.69587 0.93025 0.0
H348 H 0.47564 0.70219 0.866 0.0
H349 H 0.45451 0.69877 0.79217 0.0
H350 H 0.40016 0.66309 0.86472 0.0
H351 H 0.42115 0.66645 0.93865 0.0
H352 H 0.41626 0.67546 0.04783 0.0
H353 H 0.39352 0.67401 0.11921 0.0
H354 H 0.44986 0.70291 0.19797 0.0
H355 H 0.47266 0.70481 0.12617 0.0
N356 N 0.48161 0.70016 0.03736 0.0
N357 N 0.48345 0.69685 0.95513 0.0
N358 N 0.44982 0.68679 0.99496 0.0
C359 C 0.49362 0.70234 0.99662 0.0
C360 C 0.46154 0.68909 0.95398 0.0
C361 C 0.4597 0.69223 0.03682 0.0
C362 C 0.51732 0.71125 0.99699 0.0
C363 C 0.52519 0.72499 0.03424 0.0
C364 C 0.54736 0.73407 0.03346 0.0
C365 C 0.56216 0.7292 0.99591 0.0
C366 C 0.55444 0.7152 0.95908 0.0
C367 C 0.53217 0.70647 0.95939 0.0
C368 C 0.44999 0.68479 0.90839 0.0
C369 C 0.45934 0.69332 0.8662 0.0
C370 C 0.44723 0.69146 0.82391 0.0
C371 C 0.42569 0.68076 0.82281 0.0
C372 C 0.41682 0.67127 0.86449 0.0
C373 C 0.42879 0.67335 0.90689 0.0
C374 C 0.44632 0.69035 0.08104 0.0
C375 C 0.42393 0.68145 0.08029 0.0
H376 H 0.15695 0.15995 0.06626 0.0
H377 H 0.18279 0.2196 0.13895 0.0
H378 H 0.12461 0.15815 0.12105 0.0
H379 H 0.15054 0.21787 0.19314 0.0
H380 H 0.08093 0.21943 0.261 0.0
H381 H 0.10716 0.22165 0.19422 0.0
H382 H 0.12241 0.14957 0.21003 0.0
H383 H 0.09604 0.1473 0.27674 0.0
C384 C 0.15555 0.17284 0.09346 0.0
C385 C 0.17247 0.18982 0.09857 0.0
C386 C 0.13714 0.17174 0.12486 0.0
C387 C 0.13511 0.18787 0.16126 0.0
C388 C 0.15156 0.20534 0.16513 0.0
C389 C 0.1701 0.20623 0.13432 0.0
C390 C 0.08949 0.20396 0.24955 0.0
C391 C 0.08655 0.18321 0.27415 0.0
C392 C 0.10461 0.20527 0.21159 0.0
C393 C 0.11687 0.18581 0.19718 0.0
C394 C 0.11305 0.1648 0.22023 0.0
C395 C 0.09813 0.16354 0.25857 0.0
H396 H 0.25218 0.61803 0.57853 0.0
H397 H 0.22112 0.67587 0.64831 0.0
H398 H 0.2351 0.5922 0.63609 0.0
H399 H 0.20478 0.65016 0.70707 0.0
H400 H 0.16541 0.59697 0.79036 0.0
H401 H 0.17778 0.62095 0.72443 0.0
H402 H 0.24058 0.58193 0.71564 0.0
H403 H 0.22786 0.55774 0.78039 0.0
C404 C 0.2417 0.62524 0.60621 0.0
C405 C 0.23817 0.64903 0.60904 0.0
C406 C 0.232 0.61042 0.63943 0.0
C407 C 0.21874 0.61904 0.6767 0.0
C408 C 0.21465 0.64282 0.67865 0.0
C409 C 0.22414 0.65762 0.64506 0.0
C410 C 0.18178 0.59348 0.774 0.0
C411 C 0.19564 0.57545 0.79045 0.0
C412 C 0.18893 0.60727 0.73636 0.0
C413 C 0.21024 0.60348 0.71462 0.0
C414 C 0.22388 0.58515 0.73074 0.0
C415 C 0.21663 0.57126 0.76801 0.0
H416 H 0.84463 0.84506 0.06752 0.0
H417 H 0.81135 0.79121 0.14693 0.0
H418 H 0.87433 0.84765 0.12818 0.0
H419 H 0.84115 0.7934 0.20655 0.0
H420 H 0.8766 0.82476 0.33173 0.0
H421 H 0.85022 0.82126 0.2662 0.0
H422 H 0.90642 0.82806 0.16842 0.0
H423 H 0.93297 0.83263 0.23461 0.0
C424 C 0.84387 0.83353 0.09747 0.0
C425 C 0.82545 0.8182 0.10287 0.0
C426 C 0.86091 0.83497 0.13212 0.0
C427 C 0.85985 0.82102 0.17257 0.0
C428 C 0.84213 0.80482 0.17644 0.0
C429 C 0.82509 0.80349 0.14214 0.0
C430 C 0.88337 0.82591 0.29633 0.0
C431 C 0.90691 0.82913 0.28847 0.0
C432 C 0.86826 0.82352 0.25869 0.0
C433 C 0.87625 0.82409 0.21207 0.0
C434 C 0.89974 0.82759 0.20396 0.0
C435 C 0.91495 0.83003 0.24183 0.0
H436 H 0.75315 0.38898 0.57545 0.0
H437 H 0.76743 0.32913 0.66086 0.0
H438 H 0.76866 0.41348 0.63738 0.0
H439 H 0.78334 0.3535 0.72197 0.0
H440 H 0.77945 0.40403 0.84346 0.0
H441 H 0.76757 0.38001 0.77819 0.0
H442 H 0.80312 0.42472 0.68112 0.0
H443 H 0.81504 0.44898 0.74696 0.0
C444 C 0.75987 0.38102 0.60712 0.0
C445 C 0.75875 0.3571 0.61346 0.0
C446 C 0.76885 0.39506 0.64252 0.0
C447 C 0.77698 0.38547 0.68488 0.0
C448 C 0.77675 0.36149 0.69023 0.0
C449 C 0.76771 0.3475 0.65505 0.0
C450 C 0.78504 0.4086 0.80831 0.0
C451 C 0.79838 0.42831 0.80049 0.0
C452 C 0.77822 0.39481 0.77082 0.0
C453 C 0.78457 0.4003 0.72443 0.0
C454 C 0.79781 0.42011 0.71642 0.0
C455 C 0.80463 0.43398 0.75409 0.0
H456 H 0.69684 0.32199 0.33392 0.0
H457 H 0.6489 0.32666 0.44925 0.0
H458 H 0.66568 0.32779 0.27802 0.0
H459 H 0.61746 0.33204 0.39256 0.0
H460 H 0.57295 0.30746 0.25516 0.0
H461 H 0.59999 0.30569 0.32102 0.0
H462 H 0.63721 0.36302 0.26275 0.0
H463 H 0.60983 0.36553 0.19801 0.0
C464 C 0.67962 0.3241 0.34735 0.0
C465 C 0.67531 0.32389 0.39599 0.0
C466 C 0.66184 0.32758 0.31533 0.0
C467 C 0.63929 0.33053 0.33116 0.0
C468 C 0.63477 0.32986 0.37968 0.0
C469 C 0.65271 0.32683 0.41194 0.0
C470 C 0.58646 0.32015 0.2571 0.0
C471 C 0.58943 0.3364 0.22082 0.0
C472 C 0.60195 0.31905 0.29472 0.0
C473 C 0.62076 0.33402 0.29638 0.0
C474 C 0.62298 0.3511 0.26177 0.0
C475 C 0.60737 0.35242 0.22463 0.0
H476 H 0.27176 0.17339 0.84886 0.0
H477 H 0.25831 0.11706 0.94429 0.0
H478 H 0.2897 0.14715 0.79405 0.0
H479 H 0.27674 0.09071 0.88936 0.0
H480 H 0.27932 0.05123 0.74578 0.0
H481 H 0.26737 0.0751 0.81151 0.0
H482 H 0.32253 0.12234 0.78166 0.0
H483 H 0.33445 0.09846 0.71573 0.0
C484 C 0.27285 0.15542 0.85843 0.0
C485 C 0.26337 0.14731 0.9008 0.0
C486 C 0.28334 0.14038 0.82711 0.0
C487 C 0.28465 0.11681 0.83729 0.0
C488 C 0.27579 0.10874 0.8803 0.0
C489 C 0.26533 0.12385 0.91184 0.0
C490 C 0.28923 0.06643 0.7539 0.0
C491 C 0.30771 0.07307 0.72525 0.0
C492 C 0.28238 0.08011 0.79163 0.0
C493 C 0.29386 0.10074 0.80155 0.0
C494 C 0.31306 0.10677 0.77437 0.0
C495 C 0.31989 0.0931 0.73663 0.0
H496 H 0.33247 0.65589 0.4052 0.0
H497 H 0.31928 0.72695 0.37059 0.0
H498 H 0.36285 0.65493 0.34655 0.0
H499 H 0.34931 0.72579 0.31134 0.0
H500 H 0.416 0.72181 0.23112 0.0
H501 H 0.39037 0.72249 0.29888 0.0
H502 H 0.36485 0.65543 0.26125 0.0
H503 H 0.39105 0.6544 0.1947 0.0
C504 C 0.33608 0.67134 0.38524 0.0
C505 C 0.32327 0.69144 0.39234 0.0
C506 C 0.35344 0.67074 0.35146 0.0
C507 C 0.3584 0.69023 0.32402 0.0
C508 C 0.34609 0.71054 0.33218 0.0
C509 C 0.32875 0.71115 0.36598 0.0
C510 C 0.40522 0.70704 0.23785 0.0
C511 C 0.40548 0.6881 0.20738 0.0
C512 C 0.39036 0.70754 0.27637 0.0
C513 C 0.37547 0.68908 0.28534 0.0
C514 C 0.37623 0.66985 0.25564 0.0
C515 C 0.39106 0.66937 0.21715 0.0
H516 H 0.76153 0.89362 0.91616 0.0
H517 H 0.71474 0.84018 0.87429 0.0
H518 H 0.74524 0.91914 0.85672 0.0
H519 H 0.69713 0.86602 0.81729 0.0
H520 H 0.69518 0.9029 0.6769 0.0
H521 H 0.70587 0.88009 0.74438 0.0
H522 H 0.71618 0.94187 0.82564 0.0
H523 H 0.70746 0.96487 0.75605 0.0
C524 C 0.7473 0.88761 0.895 0.0
C525 C 0.73956 0.86491 0.89915 0.0
C526 C 0.73781 0.90226 0.86105 0.0
C527 C 0.72002 0.89463 0.83134 0.0
C528 C 0.7113 0.87234 0.83819 0.0
C529 C 0.72121 0.85754 0.87114 0.0
C530 C 0.69997 0.91172 0.70893 0.0
C531 C 0.70094 0.93579 0.71051 0.0
C532 C 0.70568 0.89854 0.74825 0.0
C533 C 0.71199 0.909 0.79091 0.0
C534 C 0.71184 0.93314 0.79327 0.0
C535 C 0.7065 0.94638 0.75346 0.0
H536 H 0.81752 0.78479 0.86156 0.0
H537 H 0.835 0.85287 0.90965 0.0
H538 H 0.84822 0.78682 0.80363 0.0
H539 H 0.86589 0.85466 0.8524 0.0
H540 H 0.89546 0.86078 0.70235 0.0
H541 H 0.86837 0.85806 0.76724 0.0
H542 H 0.88986 0.78828 0.79371 0.0
H543 H 0.91646 0.79077 0.72763 0.0
C544 C 0.82804 0.80008 0.86016 0.0
C545 C 0.82361 0.81877 0.88992 0.0
C546 C 0.84574 0.80118 0.82714 0.0
C547 C 0.8594 0.82097 0.82322 0.0
C548 C 0.85543 0.83933 0.85401 0.0
C549 C 0.83776 0.83825 0.88697 0.0
C550 C 0.89442 0.84487 0.72207 0.0
C551 C 0.908 0.82595 0.70969 0.0
C552 C 0.87907 0.84338 0.75957 0.0
C553 C 0.87692 0.82293 0.78557 0.0
C554 C 0.89095 0.80419 0.77403 0.0
C555 C 0.90636 0.80571 0.73653 0.0
H556 H 0.74657 0.39105 0.43115 0.0
H557 H 0.78043 0.33488 0.36112 0.0
H558 H 0.76367 0.41795 0.3756 0.0
H559 H 0.79678 0.36159 0.30445 0.0
H560 H 0.8347 0.41582 0.22298 0.0
H561 H 0.82292 0.39175 0.28922 0.0
H562 H 0.75867 0.42845 0.29593 0.0
H563 H 0.77081 0.45278 0.23091 0.0
C564 C 0.7577 0.38445 0.40392 0.0
C565 C 0.76198 0.36081 0.40033 0.0
C566 C 0.76742 0.39986 0.37187 0.0
C567 C 0.78144 0.39198 0.3351 0.0
C568 C 0.78633 0.36838 0.33257 0.0
C569 C 0.77682 0.353 0.36496 0.0
C570 C 0.81817 0.41882 0.23904 0.0
C571 C 0.80367 0.43616 0.22181 0.0
C572 C 0.81135 0.40498 0.27684 0.0
C573 C 0.78976 0.40802 0.2979 0.0
C574 C 0.77557 0.42582 0.2813 0.0
C575 C 0.78249 0.43977 0.24387 0.0
H576 H 0.16945 0.15642 0.90158 0.0
H577 H 0.18306 0.22738 0.86667 0.0
H578 H 0.1397 0.15524 0.84142 0.0
H579 H 0.15355 0.226 0.80595 0.0
H580 H 0.11203 0.15425 0.68916 0.0
H581 H 0.13849 0.15573 0.75554 0.0
H582 H 0.11219 0.22242 0.7932 0.0
H583 H 0.08621 0.22126 0.72577 0.0
C584 C 0.16607 0.1718 0.88121 0.0
C585 C 0.1788 0.19195 0.88873 0.0
C586 C 0.14908 0.17107 0.84656 0.0
C587 C 0.14437 0.19047 0.81868 0.0
C588 C 0.15661 0.21082 0.82711 0.0
C589 C 0.17364 0.21155 0.86175 0.0
C590 C 0.11192 0.16924 0.71156 0.0
C591 C 0.09711 0.18768 0.70206 0.0
C592 C 0.12691 0.16999 0.74991 0.0
C593 C 0.12746 0.18921 0.77962 0.0
C594 C 0.11233 0.20747 0.77068 0.0
C595 C 0.09728 0.20669 0.73237 0.0
H596 H 0.23135 0.6744 0.34379 0.0
H597 H 0.24104 0.61735 0.43947 0.0
H598 H 0.21357 0.64893 0.28703 0.0
H599 H 0.22277 0.59182 0.38257 0.0
H600 H 0.22081 0.55248 0.23934 0.0
H601 H 0.23292 0.57609 0.30543 0.0
H602 H 0.18006 0.62534 0.27168 0.0
H603 H 0.16796 0.6017 0.2054 0.0
C604 C 0.22948 0.65644 0.35296 0.0
C605 C 0.23785 0.64789 0.39603 0.0
C606 C 0.21908 0.64186 0.3205 0.0
C607 C 0.21677 0.61833 0.33023 0.0
C608 C 0.22453 0.60983 0.37385 0.0
C609 C 0.2349 0.62448 0.4065 0.0
C610 C 0.21145 0.56809 0.2466 0.0
C611 C 0.19354 0.5753 0.21688 0.0
C612 C 0.21839 0.58163 0.28454 0.0
C613 C 0.20757 0.60268 0.29361 0.0
C614 C 0.18901 0.6094 0.26511 0.0
C615 C 0.18208 0.59588 0.22715 0.0
H616 H 0.34162 0.65783 0.57043 0.0
H617 H 0.3151 0.71711 0.64309 0.0
H618 H 0.37347 0.65581 0.62667 0.0
H619 H 0.34693 0.71518 0.69865 0.0
H620 H 0.41735 0.71724 0.76529 0.0
H621 H 0.39069 0.71921 0.69899 0.0
H622 H 0.37513 0.6473 0.71671 0.0
H623 H 0.4019 0.64528 0.78313 0.0
C624 C 0.34275 0.67056 0.598 0.0
C625 C 0.32582 0.68755 0.60258 0.0
C626 C 0.36088 0.66934 0.63021 0.0
C627 C 0.36261 0.68535 0.66686 0.0
C628 C 0.3461 0.70275 0.67045 0.0
C629 C 0.32782 0.70375 0.63884 0.0
C630 C 0.40859 0.70175 0.75441 0.0
C631 C 0.41161 0.68112 0.77938 0.0
C632 C 0.39324 0.70293 0.71673 0.0
C633 C 0.38083 0.68344 0.70296 0.0
C634 C 0.38462 0.66254 0.72648 0.0
C635 C 0.39977 0.66142 0.7646 0.0
H636 H 0.70809 0.83868 0.11286 0.0
H637 H 0.7665 0.88418 0.10857 0.0
H638 H 0.68911 0.86446 0.16792 0.0
H639 H 0.74811 0.9093 0.16471 0.0
H640 H 0.70706 0.95928 0.24484 0.0
H641 H 0.71872 0.93599 0.17826 0.0
H642 H 0.69175 0.87562 0.24751 0.0
H643 H 0.6786 0.89916 0.31234 0.0
C644 C 0.71689 0.85415 0.12374 0.0
C645 C 0.73885 0.8593 0.10652 0.0
C646 C 0.70606 0.8689 0.15543 0.0
C647 C 0.71704 0.88902 0.17093 0.0
C648 C 0.73886 0.89427 0.15297 0.0
C649 C 0.74955 0.87969 0.12099 0.0
C650 C 0.70301 0.94116 0.2453 0.0
C651 C 0.69216 0.93108 0.28439 0.0
C652 C 0.71003 0.9277 0.20736 0.0
C653 C 0.70662 0.9038 0.20779 0.0
C654 C 0.69464 0.89394 0.2457 0.0
C655 C 0.68738 0.90743 0.28334 0.0
H656 H 0.67907 0.27636 0.62616 0.0
H657 H 0.66498 0.34798 0.59853 0.0
H658 H 0.649 0.27578 0.68547 0.0
H659 H 0.6351 0.34738 0.65834 0.0
H660 H 0.57188 0.33395 0.74903 0.0
H661 H 0.59714 0.33117 0.68049 0.0
H662 H 0.64612 0.29315 0.76407 0.0
H663 H 0.62081 0.29552 0.83184 0.0
C664 C 0.66946 0.29194 0.63243 0.0
C665 C 0.67466 0.31231 0.60802 0.0
C666 C 0.65228 0.29161 0.66654 0.0
C667 C 0.63985 0.31159 0.67687 0.0
C668 C 0.64429 0.33167 0.65094 0.0
C669 C 0.66152 0.33203 0.61689 0.0
C670 C 0.58792 0.32476 0.75241 0.0
C671 C 0.59448 0.3151 0.79579 0.0
C672 C 0.60243 0.32331 0.71337 0.0
C673 C 0.62361 0.31195 0.71693 0.0
C674 C 0.62982 0.30179 0.76003 0.0
C675 C 0.61544 0.30337 0.799 0.0
H676 H 0.24588 0.11963 0.08302 0.0
H677 H 0.27614 0.17782 0.15345 0.0
H678 H 0.26194 0.09411 0.14248 0.0
H679 H 0.29146 0.15242 0.21406 0.0
H680 H 0.32994 0.09922 0.3 0.0
H681 H 0.3182 0.12321 0.23352 0.0
H682 H 0.25537 0.08433 0.22196 0.0
H683 H 0.26746 0.06011 0.28731 0.0
C684 C 0.25595 0.12698 0.11127 0.0
C685 C 0.25958 0.15078 0.11369 0.0
C686 C 0.26506 0.11235 0.14558 0.0
C687 C 0.27781 0.12117 0.18352 0.0
C688 C 0.28197 0.14494 0.18515 0.0
C689 C 0.27307 0.15955 0.15049 0.0
C690 C 0.31368 0.0958 0.28299 0.0
C691 C 0.29965 0.07776 0.29875 0.0
C692 C 0.30689 0.10958 0.24501 0.0
C693 C 0.2858 0.10578 0.22225 0.0
C694 C 0.27192 0.08753 0.23786 0.0
C695 C 0.27882 0.07365 0.27547 0.0
H696 H 0.2414 0.28133 0.94975 0.0
H697 H 0.18894 0.2675 0.05321 0.0
H698 H 0.23164 0.32199 0.95125 0.0
H699 H 0.17889 0.30841 0.05377 0.0
H700 H 0.15615 0.38127 0.98875 0.0
H701 H 0.16362 0.33975 0.98801 0.0
H702 H 0.23457 0.35249 0.02182 0.0
H703 H 0.22705 0.39376 0.02351 0.0
C704 C 0.22762 0.28692 0.97246 0.0
C705 C 0.21597 0.27122 0.00151 0.0
C706 C 0.22213 0.3102 0.9734 0.0
C707 C 0.20459 0.31822 0.00269 0.0
C708 C 0.19245 0.30254 0.0308 0.0
C709 C 0.19826 0.27923 0.0306 0.0
C710 C 0.17329 0.37509 0.99612 0.0
C711 C 0.19104 0.39059 0.00624 0.0
C712 C 0.17751 0.35145 0.99594 0.0
C713 C 0.19965 0.34306 0.00479 0.0
C714 C 0.21738 0.35859 0.01472 0.0
C715 C 0.21307 0.38212 0.01587 0.0
H716 H 0.19359 0.72148 0.42455 0.0
H717 H 0.19966 0.73628 0.57308 0.0
H718 H 0.15484 0.73692 0.42452 0.0
H719 H 0.16071 0.75109 0.57332 0.0
H720 H 0.10119 0.7999 0.54478 0.0
H721 H 0.13964 0.78365 0.54488 0.0
H722 H 0.11667 0.72958 0.45236 0.0
H723 H 0.07831 0.74613 0.45172 0.0
C724 C 0.1866 0.72783 0.45729 0.0
C725 C 0.19979 0.72779 0.49875 0.0
C726 C 0.16432 0.73658 0.45733 0.0
C727 C 0.15469 0.74535 0.49888 0.0
C728 C 0.16775 0.74488 0.5405 0.0
C729 C 0.19005 0.73625 0.54042 0.0
C730 C 0.10436 0.78447 0.52472 0.0
C731 C 0.08677 0.77429 0.49824 0.0
C732 C 0.12636 0.7751 0.52484 0.0
C733 C 0.13124 0.75526 0.49872 0.0
C734 C 0.1136 0.74506 0.4723 0.0
C735 C 0.09162 0.75451 0.47197 0.0
H736 H 0.79335 0.7371 0.07156 0.0
H737 H 0.77795 0.73487 0.92273 0.0
H738 H 0.80282 0.69639 0.07026 0.0
H739 H 0.78803 0.6944 0.92118 0.0
H740 H 0.77883 0.61765 0.94877 0.0
H741 H 0.77227 0.65886 0.94828 0.0
H742 H 0.82968 0.66817 0.04259 0.0
H743 H 0.83603 0.62677 0.04351 0.0
C744 C 0.79225 0.72801 0.03844 0.0
C745 C 0.78466 0.73921 0.99735 0.0
C746 C 0.7978 0.70467 0.03764 0.0
C747 C 0.79601 0.69203 0.99568 0.0
C748 C 0.78914 0.70346 0.95432 0.0
C749 C 0.78348 0.72673 0.95517 0.0
C750 C 0.79022 0.62851 0.96896 0.0
C751 C 0.80796 0.61894 0.99612 0.0
C752 C 0.78649 0.65217 0.96864 0.0
C753 C 0.80048 0.66689 0.9953 0.0
C754 C 0.81838 0.65733 0.02217 0.0
C755 C 0.82204 0.63361 0.02265 0.0
H756 H 0.80552 0.28601 0.57751 0.0
H757 H 0.79953 0.27052 0.42925 0.0
H758 H 0.84443 0.2709 0.57772 0.0
H759 H 0.83857 0.25597 0.42927 0.0
H760 H 0.89885 0.20834 0.45776 0.0
H761 H 0.86001 0.22363 0.45888 0.0
H762 H 0.88254 0.27894 0.54867 0.0
H763 H 0.92135 0.26346 0.5479 0.0
C764 C 0.81254 0.27954 0.54489 0.0
C765 C 0.79934 0.27935 0.50343 0.0
C766 C 0.8349 0.27098 0.54497 0.0
C767 C 0.84458 0.26211 0.50357 0.0
C768 C 0.83149 0.26227 0.46198 0.0
C769 C 0.80913 0.27075 0.46192 0.0
C770 C 0.89551 0.22383 0.47754 0.0
C771 C 0.91315 0.23472 0.50266 0.0
C772 C 0.87327 0.23262 0.47812 0.0
C773 C 0.86818 0.25258 0.5037 0.0
C774 C 0.88581 0.26338 0.52913 0.0
C775 C 0.90804 0.25452 0.52867 0.0
H776 H 0.70407 0.23892 0.41457 0.0
H777 H 0.71724 0.23104 0.56358 0.0
H778 H 0.69105 0.19906 0.41107 0.0
H779 H 0.7045 0.19139 0.55989 0.0
H780 H 0.6626 0.12667 0.54749 0.0
H781 H 0.67004 0.16784 0.54688 0.0
H782 H 0.70914 0.1606 0.41892 0.0
H783 H 0.70195 0.11942 0.41972 0.0
C784 C 0.70408 0.22876 0.44658 0.0
C785 C 0.71185 0.23813 0.48928 0.0
C786 C 0.69672 0.20592 0.44452 0.0
C787 C 0.69675 0.19208 0.4852 0.0
C788 C 0.70399 0.20166 0.52803 0.0
C789 C 0.71149 0.22436 0.53003 0.0
C790 C 0.67277 0.13385 0.5192 0.0
C791 C 0.68182 0.11968 0.48387 0.0
C792 C 0.67699 0.15744 0.51881 0.0
C793 C 0.6903 0.16745 0.48301 0.0
C794 C 0.69861 0.15345 0.4467 0.0
C795 C 0.69446 0.12983 0.44717 0.0
H796 H 0.29913 0.23906 0.07664 0.0
H797 H 0.30851 0.21961 0.93122 0.0
H798 H 0.33803 0.25409 0.07881 0.0
H799 H 0.34718 0.23521 0.93307 0.0
H800 H 0.42286 0.24551 0.9658 0.0
H801 H 0.38462 0.22874 0.96588 0.0
H802 H 0.35982 0.28582 0.04791 0.0
H803 H 0.39819 0.30239 0.04834 0.0
C804 C 0.30947 0.23803 0.04509 0.0
C805 C 0.30066 0.2282 0.0037 0.0
C806 C 0.33173 0.24678 0.04627 0.0
C807 C 0.34569 0.24598 0.00605 0.0
C808 C 0.33699 0.23586 0.96485 0.0
C809 C 0.31476 0.22701 0.96372 0.0
C810 C 0.40919 0.25452 0.98362 0.0
C811 C 0.41349 0.27529 0.00697 0.0
C812 C 0.38727 0.24493 0.98363 0.0
C813 C 0.36912 0.25594 0.00683 0.0
C814 C 0.37347 0.27669 0.03034 0.0
C815 C 0.39544 0.28622 0.03051 0.0
H816 H 0.28093 0.77486 0.42967 0.0
H817 H 0.29324 0.77129 0.57962 0.0
H818 H 0.29126 0.81523 0.42972 0.0
H819 H 0.303 0.81203 0.57987 0.0
H820 H 0.33693 0.88222 0.55491 0.0
H821 H 0.33041 0.84079 0.55442 0.0
H822 H 0.27444 0.85025 0.45646 0.0
H823 H 0.28113 0.8914 0.45661 0.0
C824 C 0.28584 0.7827 0.46272 0.0
C825 C 0.28602 0.76989 0.50474 0.0
C826 C 0.29165 0.80591 0.46277 0.0
C827 C 0.29765 0.81699 0.5049 0.0
C828 C 0.2986 0.80401 0.54674 0.0
C829 C 0.2929 0.78067 0.54664 0.0
C830 C 0.32322 0.8754 0.53339 0.0
C831 C 0.30964 0.89007 0.50556 0.0
C832 C 0.31946 0.85168 0.53315 0.0
C833 C 0.30199 0.84215 0.50518 0.0
C834 C 0.28838 0.85691 0.47761 0.0
C835 C 0.29219 0.88053 0.47771 0.0
H836 H 0.68734 0.80631 0.94154 0.0
H837 H 0.70536 0.75591 0.0473 0.0
H838 H 0.64784 0.79191 0.94152 0.0
H839 H 0.66617 0.74144 0.04655 0.0
H840 H 0.60191 0.70578 0.98305 0.0
H841 H 0.64091 0.72123 0.98202 0.0
H842 H 0.61428 0.78931 0.00514 0.0
H843 H 0.57521 0.77378 0.00679 0.0
C844 C 0.68288 0.79217 0.96463 0.0
C845 C 0.69941 0.78223 0.9944 0.0
C846 C 0.66033 0.78403 0.96475 0.0
C847 C 0.6541 0.76555 0.99392 0.0
C848 C 0.67062 0.7556 0.02352 0.0
C849 C 0.693 0.76398 0.02407 0.0
C850 C 0.60443 0.72404 0.9878 0.0
C851 C 0.58566 0.73862 0.99512 0.0
C852 C 0.62667 0.73284 0.98739 0.0
C853 C 0.63049 0.75643 0.99346 0.0
C854 C 0.61171 0.77108 0.00011 0.0
C855 C 0.58946 0.76221 0.00139 0.0
loop_
_geom_bond_atom_site_label_1
_geom_bond_atom_site_label_2
_geom_bond_distance
_geom_bond_site_symmetry_2
_ccdc_geom_bond_type
Fe0 O2 1.918 . S
Fe0 O5 1.997 . S
Fe0 O6 2.002 . S
Fe0 O11 1.976 . S
Fe0 O14 1.996 . S
Fe1 O2 1.918 1_556 S
Fe1 O9 1.997 . S
Fe1 O12 1.996 . S
Fe1 O16 1.976 . S
Fe1 O19 2.002 . S
O2 Fe0 1.918 . S
O2 Fe1 1.918 1_554 S
O2 Fe3 1.918 . S
Fe3 O2 1.918 . S
Fe3 O4 2.018 . S
Fe3 O13 1.992 . S
Fe3 O17 1.979 1_554 S
Fe3 O20 1.980 1_554 S
O4 Fe3 2.018 . S
O4 C21 1.295 . S
O5 Fe0 1.997 . S
O5 C21 1.235 . S
O6 Fe0 2.002 . S
O6 C7 1.295 . S
C7 O6 1.295 . S
C7 O9 1.235 1_554 S
C8 O13 1.287 . S
C8 O14 1.255 . S
O9 Fe1 1.997 . S
O9 C7 1.235 1_556 S
C10 O16 1.287 . S
C10 O17 1.255 . S
O11 Fe0 1.976 . S
O11 C18 1.287 1_554 S
O12 Fe1 1.996 . S
O12 C18 1.254 . S
O13 Fe3 1.992 . S
O13 C8 1.287 . S
O14 Fe0 1.996 . S
O14 C8 1.255 . S
C15 O19 1.295 . S
C15 O20 1.235 . S
O16 Fe1 1.976 . S
O16 C10 1.287 . S
O17 Fe3 1.979 1_556 S
O17 C10 1.255 . S
C18 O11 1.287 1_556 S
C18 O12 1.254 . S
O19 Fe1 2.002 . S
O19 C15 1.295 . S
O20 Fe3 1.980 1_556 S
O20 C15 1.235 . S
C21 O4 1.295 . S
C21 O5 1.235 . S
Fe22 O24 1.918 . S
Fe22 O27 1.997 . S
Fe22 O28 2.002 . S
Fe22 O33 1.976 . S
Fe22 O36 1.996 . S
Fe23 O24 1.918 . S
Fe23 O31 1.997 . S
Fe23 O34 1.996 . S
Fe23 O38 1.976 . S
Fe23 O41 2.002 . S
O24 Fe22 1.918 . S
O24 Fe23 1.918 . S
O24 Fe25 1.918 . S
Fe25 O24 1.918 . S
Fe25 O26 2.002 . S
Fe25 O35 1.976 . S
Fe25 O39 1.996 . S
Fe25 O42 1.997 . S
O26 Fe25 2.002 . S
O26 C43 1.295 . S
O27 Fe22 1.997 . S
O27 C43 1.235 . S
O28 Fe22 2.002 . S
O28 C29 1.295 . S
C29 O28 1.295 . S
C29 O31 1.235 . S
C30 O35 1.287 . S
C30 O36 1.255 . S
O31 Fe23 1.997 . S
O31 C29 1.235 . S
C32 O38 1.287 . S
C32 O39 1.255 . S
O33 Fe22 1.976 . S
O33 C40 1.287 . S
O34 Fe23 1.996 . S
O34 C40 1.255 . S
O35 Fe25 1.976 . S
O35 C30 1.287 . S
O36 Fe22 1.996 . S
O36 C30 1.255 . S
C37 O41 1.295 . S
C37 O42 1.235 . S
O38 Fe23 1.976 . S
O38 C32 1.287 . S
O39 Fe25 1.996 . S
O39 C32 1.255 . S
C40 O33 1.287 . S
C40 O34 1.255 . S
O41 Fe23 2.002 . S
O41 C37 1.295 . S
O42 Fe25 1.997 . S
O42 C37 1.235 . S
C43 O26 1.295 . S
C43 O27 1.235 . S
Fe44 O46 1.900 1_556 S
Fe44 O49 1.997 . S
Fe44 O50 2.002 . S
Fe44 O55 1.976 . S
Fe44 O58 1.996 . S
Fe45 O46 1.936 . S
Fe45 O53 1.997 . S
Fe45 O56 1.996 . S
Fe45 O60 1.976 . S
Fe45 O63 2.002 . S
O46 Fe44 1.900 1_554 S
O46 Fe45 1.936 . S
O46 Fe47 1.918 . S
Fe47 O46 1.918 . S
Fe47 O48 2.002 1_554 S
Fe47 O57 1.976 1_554 S
Fe47 O61 1.996 . S
Fe47 O64 1.997 . S
O48 Fe47 2.002 1_556 S
O48 C65 1.295 . S
O49 Fe44 1.997 . S
O49 C65 1.235 . S
O50 Fe44 2.002 . S
O50 C51 1.303 . S
C51 O50 1.303 . S
C51 O53 1.227 1_556 S
C52 O57 1.287 . S
C52 O58 1.255 . S
O53 Fe45 1.997 . S
O53 C51 1.227 1_554 S
C54 O60 1.287 . S
C54 O61 1.255 . S
O55 Fe44 1.976 . S
O55 C62 1.287 1_556 S
O56 Fe45 1.996 . S
O56 C62 1.255 . S
O57 Fe47 1.976 1_556 S
O57 C52 1.287 . S
O58 Fe44 1.996 . S
O58 C52 1.255 . S
C59 O63 1.295 . S
C59 O64 1.235 . S
O60 Fe45 1.976 . S
O60 C54 1.287 . S
O61 Fe47 1.996 . S
O61 C54 1.255 . S
C62 O55 1.287 1_554 S
C62 O56 1.255 . S
O63 Fe45 2.002 . S
O63 C59 1.295 . S
O64 Fe47 1.997 . S
O64 C59 1.235 . S
C65 O48 1.295 . S
C65 O49 1.235 . S
Fe66 O68 1.918 . S
Fe66 O71 1.997 . S
Fe66 O72 2.002 . S
Fe66 O77 1.976 . S
Fe66 O80 1.996 . S
Fe67 O68 1.918 . S
Fe67 O75 1.997 . S
Fe67 O78 1.996 . S
Fe67 O82 1.976 . S
Fe67 O85 2.002 . S
O68 Fe66 1.918 . S
O68 Fe67 1.918 . S
O68 Fe69 1.918 . S
Fe69 O68 1.918 . S
Fe69 O70 2.002 . S
Fe69 O79 1.976 . S
Fe69 O83 1.996 . S
Fe69 O86 1.997 . S
O70 Fe69 2.002 . S
O70 C87 1.295 . S
O71 Fe66 1.997 . S
O71 C87 1.235 . S
O72 Fe66 2.002 . S
O72 C73 1.295 . S
C73 O72 1.295 . S
C73 O75 1.235 . S
C74 O79 1.287 . S
C74 O80 1.255 . S
O75 Fe67 1.997 . S
O75 C73 1.235 . S
C76 O82 1.287 . S
C76 O83 1.255 . S
O77 Fe66 1.976 . S
O77 C84 1.287 . S
O78 Fe67 1.996 . S
O78 C84 1.255 . S
O79 Fe69 1.976 . S
O79 C74 1.287 . S
O80 Fe66 1.996 . S
O80 C74 1.255 . S
C81 O85 1.295 . S
C81 O86 1.235 . S
O82 Fe67 1.976 . S
O82 C76 1.287 . S
O83 Fe69 1.996 . S
O83 C76 1.255 . S
C84 O77 1.287 . S
C84 O78 1.255 . S
O85 Fe67 2.002 . S
O85 C81 1.295 . S
O86 Fe69 1.997 . S
O86 C81 1.235 . S
C87 O70 1.295 . S
C87 O71 1.235 . S
C88 C89 1.384 . S
C88 H101 0.947 . S
C88 C123 1.382 . S
C89 C88 1.384 . S
C89 C90 1.378 . S
C90 C89 1.378 . S
C90 C91 1.378 . S
C90 H102 0.952 . S
C91 C90 1.378 . S
C91 H103 0.950 . S
C91 C122 1.383 . S
H92 C111 0.947 . S
H93 C112 0.946 . S
H94 C114 0.953 . S
H95 C115 0.945 . S
H96 C117 0.952 . S
H97 C118 0.949 . S
H98 C120 0.950 . S
H99 C121 0.948 . S
H100 C123 0.951 . S
H101 C88 0.947 . S
H102 C90 0.952 . S
H103 C91 0.950 . S
N104 C107 1.373 1_554 S
N104 C109 1.363 . S
N105 C107 1.380 . S
N105 C108 1.372 . S
N106 C108 1.361 . S
N106 C109 1.377 1_556 S
C107 N104 1.373 1_556 S
C107 N105 1.380 . S
C107 C110 1.480 . S
C108 N105 1.372 . S
C108 N106 1.361 . S
C108 C116 1.457 . S
C109 N104 1.363 . S
C109 N106 1.377 1_554 S
C109 C122 1.479 . S
C110 C107 1.480 . S
C110 C111 1.383 1_556 S
C110 C115 1.385 . S
C111 H92 0.947 . S
C111 C110 1.383 1_554 S
C111 C112 1.388 . S
C112 H93 0.946 . S
C112 C111 1.388 . S
C112 C113 1.384 1_554 S
C113 C112 1.384 1_556 S
C113 C114 1.377 . S
C114 H94 0.953 . S
C114 C113 1.377 . S
C114 C115 1.369 . S
C115 H95 0.945 . S
C115 C110 1.385 . S
C115 C114 1.369 . S
C116 C108 1.457 . S
C116 C117 1.372 . S
C116 C121 1.364 . S
C117 H96 0.952 . S
C117 C116 1.372 . S
C117 C118 1.389 . S
C118 H97 0.949 . S
C118 C117 1.389 . S
C118 C119 1.387 . S
C119 C118 1.387 . S
C119 C120 1.372 . S
C120 H98 0.950 . S
C120 C119 1.372 . S
C120 C121 1.379 . S
C121 H99 0.948 . S
C121 C116 1.364 . S
C121 C120 1.379 . S
C122 C91 1.383 . S
C122 C109 1.479 . S
C122 C123 1.398 . S
C123 C88 1.382 . S
C123 H100 0.951 . S
C123 C122 1.398 . S
C124 C125 1.384 . S
C124 H137 0.947 . S
C124 C159 1.382 . S
C125 C124 1.384 . S
C125 C126 1.378 . S
C126 C125 1.378 . S
C126 C127 1.378 . S
C126 H138 0.952 . S
C127 C126 1.378 . S
C127 H139 0.950 . S
C127 C158 1.383 . S
H128 C147 0.947 . S
H129 C148 0.946 . S
H130 C150 0.953 . S
H131 C151 0.945 . S
H132 C153 0.952 . S
H133 C154 0.949 . S
H134 C156 0.950 . S
H135 C157 0.948 . S
H136 C159 0.951 . S
H137 C124 0.947 . S
H138 C126 0.952 . S
H139 C127 0.950 . S
N140 C143 1.382 1_655 S
N140 C145 1.363 . S
N141 C143 1.371 1_655 S
N141 C144 1.372 . S
N142 C144 1.361 . S
N142 C145 1.377 . S
C143 N140 1.382 1_455 S
C143 N141 1.371 1_455 S
C143 C146 1.480 . S
C144 N141 1.372 . S
C144 N142 1.361 . S
C144 C152 1.457 . S
C145 N140 1.363 . S
C145 N142 1.377 . S
C145 C158 1.479 . S
C146 C143 1.480 . S
C146 C147 1.383 . S
C146 C151 1.385 . S
C147 H128 0.947 . S
C147 C146 1.383 . S
C147 C148 1.388 . S
C148 H129 0.946 . S
C148 C147 1.388 . S
C148 C149 1.384 . S
C149 C148 1.384 . S
C149 C150 1.377 . S
C150 H130 0.953 . S
C150 C149 1.377 . S
C150 C151 1.369 . S
C151 H131 0.945 . S
C151 C146 1.385 . S
C151 C150 1.369 . S
C152 C144 1.457 . S
C152 C153 1.372 . S
C152 C157 1.364 . S
C153 H132 0.952 . S
C153 C152 1.372 . S
C153 C154 1.389 . S
C154 H133 0.949 . S
C154 C153 1.389 . S
C154 C155 1.387 . S
C155 C154 1.387 . S
C155 C156 1.372 . S
C156 H134 0.950 . S
C156 C155 1.372 . S
C156 C157 1.379 . S
C157 H135 0.948 . S
C157 C152 1.364 . S
C157 C156 1.379 . S
C158 C127 1.383 . S
C158 C145 1.479 . S
C158 C159 1.398 . S
C159 C124 1.382 . S
C159 H136 0.951 . S
C159 C158 1.398 . S
C160 C161 1.384 . S
C160 H173 0.947 . S
C160 C195 1.382 . S
C161 C160 1.384 . S
C161 C162 1.378 . S
C162 C161 1.378 . S
C162 C163 1.378 . S
C162 H174 0.952 . S
C163 C162 1.378 . S
C163 H175 0.950 . S
C163 C194 1.383 . S
H164 C183 0.947 . S
H165 C184 0.946 . S
H166 C186 0.953 . S
H167 C187 0.945 . S
H168 C189 0.952 . S
H169 C190 0.949 . S
H170 C192 0.950 . S
H171 C193 0.948 . S
H172 C195 0.951 . S
H173 C160 0.947 . S
H174 C162 0.952 . S
H175 C163 0.950 . S
N176 C179 1.382 1_556 S
N176 C181 1.363 . S
N177 C179 1.371 . S
N177 C180 1.372 . S
N178 C180 1.361 . S
N178 C181 1.377 1_554 S
C179 N176 1.382 1_554 S
C179 N177 1.371 . S
C179 C182 1.480 . S
C180 N177 1.372 . S
C180 N178 1.361 . S
C180 C188 1.457 . S
C181 N176 1.363 . S
C181 N178 1.377 1_556 S
C181 C194 1.479 . S
C182 C179 1.480 . S
C182 C183 1.383 1_554 S
C182 C187 1.385 . S
C183 H164 0.947 . S
C183 C182 1.383 1_556 S
C183 C184 1.388 . S
C184 H165 0.946 . S
C184 C183 1.388 . S
C184 C185 1.384 1_556 S
C185 C184 1.384 1_554 S
C185 C186 1.377 . S
C186 H166 0.953 . S
C186 C185 1.377 . S
C186 C187 1.369 . S
C187 H167 0.945 . S
C187 C182 1.385 . S
C187 C186 1.369 . S
C188 C180 1.457 . S
C188 C189 1.372 . S
C188 C193 1.364 . S
C189 H168 0.952 . S
C189 C188 1.372 . S
C189 C190 1.389 . S
C190 H169 0.949 . S
C190 C189 1.389 . S
C190 C191 1.387 . S
C191 C190 1.387 . S
C191 C192 1.372 . S
C192 H170 0.950 . S
C192 C191 1.372 . S
C192 C193 1.379 . S
C193 H171 0.948 . S
C193 C188 1.364 . S
C193 C192 1.379 . S
C194 C163 1.383 . S
C194 C181 1.479 . S
C194 C195 1.398 . S
C195 C160 1.382 . S
C195 H172 0.951 . S
C195 C194 1.398 . S
C196 C197 1.384 . S
C196 H209 0.947 . S
C196 C231 1.382 . S
C197 C196 1.384 . S
C197 C198 1.378 . S
C198 C197 1.378 . S
C198 C199 1.378 . S
C198 H210 0.952 . S
C199 C198 1.378 . S
C199 H211 0.950 . S
C199 C230 1.383 . S
H200 C219 0.947 . S
H201 C220 0.946 . S
H202 C222 0.953 . S
H203 C223 0.945 . S
H204 C225 0.952 . S
H205 C226 0.949 . S
H206 C228 0.950 . S
H207 C229 0.948 . S
H208 C231 0.951 . S
H209 C196 0.947 . S
H210 C198 0.952 . S
H211 C199 0.950 . S
N212 C215 1.359 1_455 S
N212 C217 1.363 . S
N213 C215 1.350 1_455 S
N213 C216 1.372 . S
N214 C216 1.361 . S
N214 C217 1.377 . S
C215 N212 1.359 1_655 S
C215 N213 1.350 1_655 S
C215 C218 1.528 . S
C216 N213 1.372 . S
C216 N214 1.361 . S
C216 C224 1.457 . S
C217 N212 1.363 . S
C217 N214 1.377 . S
C217 C230 1.479 . S
C218 C215 1.528 . S
C218 C219 1.383 . S
C218 C223 1.385 . S
C219 H200 0.947 . S
C219 C218 1.383 . S
C219 C220 1.388 . S
C220 H201 0.946 . S
C220 C219 1.388 . S
C220 C221 1.384 . S
C221 C220 1.384 . S
C221 C222 1.377 . S
C222 H202 0.953 . S
C222 C221 1.377 . S
C222 C223 1.369 . S
C223 H203 0.945 . S
C223 C218 1.385 . S
C223 C222 1.369 . S
C224 C216 1.457 . S
C224 C225 1.372 . S
C224 C229 1.364 . S
C225 H204 0.952 . S
C225 C224 1.372 . S
C225 C226 1.389 . S
C226 H205 0.949 . S
C226 C225 1.389 . S
C226 C227 1.387 . S
C227 C226 1.387 . S
C227 C228 1.372 . S
C228 H206 0.950 . S
C228 C227 1.372 . S
C228 C229 1.379 . S
C229 H207 0.948 . S
C229 C224 1.364 . S
C229 C228 1.379 . S
C230 C199 1.383 . S
C230 C217 1.479 . S
C230 C231 1.398 . S
C231 C196 1.382 . S
C231 H208 0.951 . S
C231 C230 1.398 . S
C232 C233 1.384 . S
C232 H245 0.947 . S
C232 C267 1.382 . S
C233 C232 1.384 . S
C233 C234 1.378 . S
C234 C233 1.378 . S
C234 C235 1.378 . S
C234 H246 0.952 . S
C235 C234 1.378 . S
C235 H247 0.950 . S
C235 C266 1.383 . S
H236 C255 0.947 . S
H237 C256 0.946 . S
H238 C258 0.953 . S
H239 C259 0.945 . S
H240 C261 0.952 . S
H241 C262 0.949 . S
H242 C264 0.950 . S
H243 C265 0.948 . S
H244 C267 0.951 . S
H245 C232 0.947 . S
H246 C234 0.952 . S
H247 C235 0.950 . S
N248 C251 1.382 . S
N248 C253 1.363 1_545 S
N249 C251 1.371 . S
N249 C252 1.372 1_545 S
N250 C252 1.361 . S
N250 C253 1.377 . S
C251 N248 1.382 . S
C251 N249 1.371 . S
C251 C254 1.480 . S
C252 N249 1.372 1_565 S
C252 N250 1.361 . S
C252 C260 1.457 . S
C253 N248 1.363 1_565 S
C253 N250 1.377 . S
C253 C266 1.479 . S
C254 C251 1.480 . S
C254 C255 1.383 . S
C254 C259 1.385 . S
C255 H236 0.947 . S
C255 C254 1.383 . S
C255 C256 1.388 . S
C256 H237 0.946 . S
C256 C255 1.388 . S
C256 C257 1.384 . S
C257 C256 1.384 . S
C257 C258 1.377 . S
C258 H238 0.953 . S
C258 C257 1.377 . S
C258 C259 1.369 . S
C259 H239 0.945 . S
C259 C254 1.385 . S
C259 C258 1.369 . S
C260 C252 1.457 . S
C260 C261 1.372 . S
C260 C265 1.364 . S
C261 H240 0.952 . S
C261 C260 1.372 . S
C261 C262 1.389 . S
C262 H241 0.949 . S
C262 C261 1.389 . S
C262 C263 1.387 . S
C263 C262 1.387 . S
C263 C264 1.372 . S
C264 H242 0.950 . S
C264 C263 1.372 . S
C264 C265 1.379 . S
C265 H243 0.948 . S
C265 C260 1.364 . S
C265 C264 1.379 . S
C266 C235 1.383 . S
C266 C253 1.479 . S
C266 C267 1.398 . S
C267 C232 1.382 . S
C267 H244 0.951 . S
C267 C266 1.398 . S
C268 C269 1.384 . S
C268 H281 0.947 . S
C268 C303 1.382 . S
C269 C268 1.384 . S
C269 C270 1.378 . S
C270 C269 1.378 . S
C270 C271 1.378 . S
C270 H282 0.952 . S
C271 C270 1.378 . S
C271 H283 0.950 . S
C271 C302 1.383 . S
H272 C291 0.947 . S
H273 C292 0.946 . S
H274 C294 0.953 . S
H275 C295 0.945 . S
H276 C297 0.952 . S
H277 C298 0.949 . S
H278 C300 0.950 . S
H279 C301 0.948 . S
H280 C303 0.951 . S
H281 C268 0.947 . S
H282 C270 0.952 . S
H283 C271 0.950 . S
N284 C287 1.382 1_556 S
N284 C289 1.363 . S
N285 C287 1.371 . S
N285 C288 1.372 . S
N286 C288 1.361 . S
N286 C289 1.377 1_554 S
C287 N284 1.382 1_554 S
C287 N285 1.371 . S
C287 C290 1.480 . S
C288 N285 1.372 . S
C288 N286 1.361 . S
C288 C296 1.457 . S
C289 N284 1.363 . S
C289 N286 1.377 1_556 S
C289 C302 1.479 . S
C290 C287 1.480 . S
C290 C291 1.383 1_554 S
C290 C295 1.385 . S
C291 H272 0.947 . S
C291 C290 1.383 1_556 S
C291 C292 1.388 . S
C292 H273 0.946 . S
C292 C291 1.388 . S
C292 C293 1.384 1_556 S
C293 C292 1.384 1_554 S
C293 C294 1.377 . S
C294 H274 0.953 . S
C294 C293 1.377 . S
C294 C295 1.369 . S
C295 H275 0.945 . S
C295 C290 1.385 . S
C295 C294 1.369 . S
C296 C288 1.457 . S
C296 C297 1.372 . S
C296 C301 1.364 . S
C297 H276 0.952 . S
C297 C296 1.372 . S
C297 C298 1.389 . S
C298 H277 0.949 . S
C298 C297 1.389 . S
C298 C299 1.387 . S
C299 C298 1.387 . S
C299 C300 1.372 . S
C300 H278 0.950 . S
C300 C299 1.372 . S
C300 C301 1.379 . S
C301 H279 0.948 . S
C301 C296 1.364 . S
C301 C300 1.379 . S
C302 C271 1.383 . S
C302 C289 1.479 . S
C302 C303 1.398 . S
C303 C268 1.382 . S
C303 H280 0.951 . S
C303 C302 1.398 . S
C304 C305 1.384 . S
C304 H317 0.947 . S
C304 C339 1.382 . S
C305 C304 1.384 . S
C305 C306 1.378 . S
C306 C305 1.378 . S
C306 C307 1.378 . S
C306 H318 0.952 . S
C307 C306 1.378 . S
C307 H319 0.950 . S
C307 C338 1.383 . S
H308 C327 0.947 . S
H309 C328 0.946 . S
H310 C330 0.953 . S
H311 C331 0.945 . S
H312 C333 0.952 . S
H313 C334 0.949 . S
H314 C336 0.950 . S
H315 C337 0.948 . S
H316 C339 0.951 . S
H317 C304 0.947 . S
H318 C306 0.952 . S
H319 C307 0.950 . S
N320 C323 1.382 1_545 S
N320 C325 1.363 . S
N321 C323 1.358 1_545 S
N321 C324 1.399 . S
N322 C324 1.361 . S
N322 C325 1.377 . S
C323 N320 1.382 1_565 S
C323 N321 1.358 1_565 S
C323 C326 1.480 . S
C324 N321 1.399 . S
C324 N322 1.361 . S
C324 C332 1.457 . S
C325 N320 1.363 . S
C325 N322 1.377 . S
C325 C338 1.479 . S
C326 C323 1.480 . S
C326 C327 1.383 . S
C326 C331 1.385 . S
C327 H308 0.947 . S
C327 C326 1.383 . S
C327 C328 1.388 . S
C328 H309 0.946 . S
C328 C327 1.388 . S
C328 C329 1.384 . S
C329 C328 1.384 . S
C329 C330 1.377 . S
C330 H310 0.953 . S
C330 C329 1.377 . S
C330 C331 1.369 . S
C331 H311 0.945 . S
C331 C326 1.385 . S
C331 C330 1.369 . S
C332 C324 1.457 . S
C332 C333 1.372 . S
C332 C337 1.364 . S
C333 H312 0.952 . S
C333 C332 1.372 . S
C333 C334 1.389 . S
C334 H313 0.949 . S
C334 C333 1.389 . S
C334 C335 1.387 . S
C335 C334 1.387 . S
C335 C336 1.372 . S
C336 H314 0.950 . S
C336 C335 1.372 . S
C336 C337 1.379 . S
C337 H315 0.948 . S
C337 C332 1.364 . S
C337 C336 1.379 . S
C338 C307 1.383 . S
C338 C325 1.479 . S
C338 C339 1.398 . S
C339 C304 1.382 . S
C339 H316 0.951 . S
C339 C338 1.398 . S
C340 C341 1.384 . S
C340 H353 0.947 . S
C340 C375 1.382 . S
C341 C340 1.384 . S
C341 C342 1.378 . S
C342 C341 1.378 . S
C342 C343 1.378 . S
C342 H354 0.952 . S
C343 C342 1.378 . S
C343 H355 0.950 . S
C343 C374 1.383 . S
H344 C363 0.947 . S
H345 C364 0.946 . S
H346 C366 0.953 . S
H347 C367 0.945 . S
H348 C369 0.952 . S
H349 C370 0.949 . S
H350 C372 0.950 . S
H351 C373 0.948 . S
H352 C375 0.951 . S
H353 C340 0.947 . S
H354 C342 0.952 . S
H355 C343 0.950 . S
N356 C359 1.389 . S
N356 C361 1.363 . S
N357 C359 1.364 1_556 S
N357 C360 1.372 . S
N358 C360 1.361 . S
N358 C361 1.377 1_556 S
C359 N356 1.389 . S
C359 N357 1.364 1_554 S
C359 C362 1.479 1_554 S
C360 N357 1.372 . S
C360 N358 1.361 . S
C360 C368 1.457 . S
C361 N356 1.363 . S
C361 N358 1.377 1_554 S
C361 C374 1.479 . S
C362 C359 1.479 1_556 S
C362 C363 1.366 1_556 S
C362 C367 1.401 . S
C363 H344 0.947 . S
C363 C362 1.366 1_554 S
C363 C364 1.388 . S
C364 H345 0.946 . S
C364 C363 1.388 . S
C364 C365 1.371 1_554 S
C365 C364 1.371 1_556 S
C365 C366 1.390 . S
C366 H346 0.953 . S
C366 C365 1.390 . S
C366 C367 1.369 . S
C367 H347 0.945 . S
C367 C362 1.401 . S
C367 C366 1.369 . S
C368 C360 1.457 . S
C368 C369 1.372 . S
C368 C373 1.364 . S
C369 H348 0.952 . S
C369 C368 1.372 . S
C369 C370 1.389 . S
C370 H349 0.949 . S
C370 C369 1.389 . S
C370 C371 1.387 . S
C371 C370 1.387 . S
C371 C372 1.372 . S
C372 H350 0.950 . S
C372 C371 1.372 . S
C372 C373 1.379 . S
C373 H351 0.948 . S
C373 C368 1.364 . S
C373 C372 1.379 . S
C374 C343 1.383 . S
C374 C361 1.479 . S
C374 C375 1.398 . S
C375 C340 1.382 . S
C375 H352 0.951 . S
C375 C374 1.398 . S
H376 C384 0.950 . S
H377 C389 0.950 . S
H378 C386 0.950 . S
H379 C388 0.950 . S
H380 C390 0.950 . S
H381 C392 0.950 . S
H382 C394 0.950 . S
H383 C395 0.950 . S
C384 H376 0.950 . S
C384 C385 1.386 . S
C384 C386 1.391 . S
C385 C384 1.386 . S
C385 C389 1.393 . S
C386 H378 0.950 . S
C386 C384 1.391 . S
C386 C387 1.400 . S
C387 C386 1.400 . S
C387 C388 1.398 . S
C387 C393 1.491 . S
C388 H379 0.950 . S
C388 C387 1.398 . S
C388 C389 1.391 . S
C389 H377 0.950 . S
C389 C385 1.393 . S
C389 C388 1.391 . S
C390 H380 0.950 . S
C390 C391 1.386 . S
C390 C392 1.391 . S
C391 C390 1.386 . S
C391 C395 1.393 . S
C392 H381 0.950 . S
C392 C390 1.391 . S
C392 C393 1.400 . S
C393 C387 1.491 . S
C393 C392 1.400 . S
C393 C394 1.398 . S
C394 H382 0.950 . S
C394 C393 1.398 . S
C394 C395 1.391 . S
C395 H383 0.950 . S
C395 C391 1.393 . S
C395 C394 1.391 . S
H396 C404 0.950 . S
H397 C409 0.950 . S
H398 C406 0.950 . S
H399 C408 0.950 . S
H400 C410 0.950 . S
H401 C412 0.950 . S
H402 C414 0.950 . S
H403 C415 0.950 . S
C404 H396 0.950 . S
C404 C405 1.386 . S
C404 C406 1.391 . S
C405 C404 1.386 . S
C405 C409 1.393 . S
C406 H398 0.950 . S
C406 C404 1.391 . S
C406 C407 1.400 . S
C407 C406 1.400 . S
C407 C408 1.398 . S
C407 C413 1.491 . S
C408 H399 0.950 . S
C408 C407 1.398 . S
C408 C409 1.391 . S
C409 H397 0.950 . S
C409 C405 1.393 . S
C409 C408 1.391 . S
C410 H400 0.950 . S
C410 C411 1.386 . S
C410 C412 1.391 . S
C411 C410 1.386 . S
C411 C415 1.393 . S
C412 H401 0.950 . S
C412 C410 1.391 . S
C412 C413 1.400 . S
C413 C407 1.491 . S
C413 C412 1.400 . S
C413 C414 1.398 . S
C414 H402 0.950 . S
C414 C413 1.398 . S
C414 C415 1.391 . S
C415 H403 0.950 . S
C415 C411 1.393 . S
C415 C414 1.391 . S
H416 C424 0.950 . S
H417 C429 0.950 . S
H418 C426 0.950 . S
H419 C428 0.950 . S
H420 C430 0.950 . S
H421 C432 0.950 . S
H422 C434 0.950 . S
H423 C435 0.950 . S
C424 H416 0.950 . S
C424 C425 1.386 . S
C424 C426 1.391 . S
C425 C424 1.386 . S
C425 C429 1.393 . S
C426 H418 0.950 . S
C426 C424 1.391 . S
C426 C427 1.400 . S
C427 C426 1.400 . S
C427 C428 1.398 . S
C427 C433 1.491 . S
C428 H419 0.950 . S
C428 C427 1.398 . S
C428 C429 1.391 . S
C429 H417 0.950 . S
C429 C425 1.393 . S
C429 C428 1.391 . S
C430 H420 0.950 . S
C430 C431 1.386 . S
C430 C432 1.391 . S
C431 C430 1.386 . S
C431 C435 1.393 . S
C432 H421 0.950 . S
C432 C430 1.391 . S
C432 C433 1.400 . S
C433 C427 1.491 . S
C433 C432 1.400 . S
C433 C434 1.398 . S
C434 H422 0.950 . S
C434 C433 1.398 . S
C434 C435 1.391 . S
C435 H423 0.950 . S
C435 C431 1.393 . S
C435 C434 1.391 . S
H436 C444 0.950 . S
H437 C449 0.950 . S
H438 C446 0.950 . S
H439 C448 0.950 . S
H440 C450 0.950 . S
H441 C452 0.950 . S
H442 C454 0.950 . S
H443 C455 0.950 . S
C444 H436 0.950 . S
C444 C445 1.386 . S
C444 C446 1.391 . S
C445 C444 1.386 . S
C445 C449 1.393 . S
C446 H438 0.950 . S
C446 C444 1.391 . S
C446 C447 1.400 . S
C447 C446 1.400 . S
C447 C448 1.398 . S
C447 C453 1.491 . S
C448 H439 0.950 . S
C448 C447 1.398 . S
C448 C449 1.391 . S
C449 H437 0.950 . S
C449 C445 1.393 . S
C449 C448 1.391 . S
C450 H440 0.950 . S
C450 C451 1.386 . S
C450 C452 1.391 . S
C451 C450 1.386 . S
C451 C455 1.393 . S
C452 H441 0.950 . S
C452 C450 1.391 . S
C452 C453 1.400 . S
C453 C447 1.491 . S
C453 C452 1.400 . S
C453 C454 1.398 . S
C454 H442 0.950 . S
C454 C453 1.398 . S
C454 C455 1.391 . S
C455 H443 0.950 . S
C455 C451 1.393 . S
C455 C454 1.391 . S
H456 C464 0.950 . S
H457 C469 0.950 . S
H458 C466 0.950 . S
H459 C468 0.950 . S
H460 C470 0.950 . S
H461 C472 0.950 . S
H462 C474 0.950 . S
H463 C475 0.950 . S
C464 H456 0.950 . S
C464 C465 1.386 . S
C464 C466 1.391 . S
C465 C464 1.386 . S
C465 C469 1.393 . S
C466 H458 0.950 . S
C466 C464 1.391 . S
C466 C467 1.400 . S
C467 C466 1.400 . S
C467 C468 1.398 . S
C467 C473 1.491 . S
C468 H459 0.950 . S
C468 C467 1.398 . S
C468 C469 1.391 . S
C469 H457 0.950 . S
C469 C465 1.393 . S
C469 C468 1.391 . S
C470 H460 0.950 . S
C470 C471 1.386 . S
C470 C472 1.391 . S
C471 C470 1.386 . S
C471 C475 1.393 . S
C472 H461 0.950 . S
C472 C470 1.391 . S
C472 C473 1.400 . S
C473 C467 1.491 . S
C473 C472 1.400 . S
C473 C474 1.398 . S
C474 H462 0.950 . S
C474 C473 1.398 . S
C474 C475 1.391 . S
C475 H463 0.950 . S
C475 C471 1.393 . S
C475 C474 1.391 . S
H476 C484 0.950 . S
H477 C489 0.950 . S
H478 C486 0.950 . S
H479 C488 0.950 . S
H480 C490 0.950 . S
H481 C492 0.950 . S
H482 C494 0.950 . S
H483 C495 0.950 . S
C484 H476 0.950 . S
C484 C485 1.386 . S
C484 C486 1.391 . S
C485 C484 1.386 . S
C485 C489 1.393 . S
C486 H478 0.950 . S
C486 C484 1.391 . S
C486 C487 1.400 . S
C487 C486 1.400 . S
C487 C488 1.398 . S
C487 C493 1.491 . S
C488 H479 0.950 . S
C488 C487 1.398 . S
C488 C489 1.391 . S
C489 H477 0.950 . S
C489 C485 1.393 . S
C489 C488 1.391 . S
C490 H480 0.950 . S
C490 C491 1.386 . S
C490 C492 1.391 . S
C491 C490 1.386 . S
C491 C495 1.393 . S
C492 H481 0.950 . S
C492 C490 1.391 . S
C492 C493 1.400 . S
C493 C487 1.491 . S
C493 C492 1.400 . S
C493 C494 1.398 . S
C494 H482 0.950 . S
C494 C493 1.398 . S
C494 C495 1.391 . S
C495 H483 0.950 . S
C495 C491 1.393 . S
C495 C494 1.391 . S
H496 C504 0.950 . S
H497 C509 0.950 . S
H498 C506 0.950 . S
H499 C508 0.950 . S
H500 C510 0.950 . S
H501 C512 0.950 . S
H502 C514 0.950 . S
H503 C515 0.950 . S
C504 H496 0.950 . S
C504 C505 1.386 . S
C504 C506 1.391 . S
C505 C504 1.386 . S
C505 C509 1.393 . S
C506 H498 0.950 . S
C506 C504 1.391 . S
C506 C507 1.400 . S
C507 C506 1.400 . S
C507 C508 1.398 . S
C507 C513 1.491 . S
C508 H499 0.950 . S
C508 C507 1.398 . S
C508 C509 1.391 . S
C509 H497 0.950 . S
C509 C505 1.393 . S
C509 C508 1.391 . S
C510 H500 0.950 . S
C510 C511 1.386 . S
C510 C512 1.391 . S
C511 C510 1.386 . S
C511 C515 1.393 . S
C512 H501 0.950 . S
C512 C510 1.391 . S
C512 C513 1.400 . S
C513 C507 1.491 . S
C513 C512 1.400 . S
C513 C514 1.398 . S
C514 H502 0.950 . S
C514 C513 1.398 . S
C514 C515 1.391 . S
C515 H503 0.950 . S
C515 C511 1.393 . S
C515 C514 1.391 . S
H516 C524 0.950 . S
H517 C529 0.950 . S
H518 C526 0.950 . S
H519 C528 0.950 . S
H520 C530 0.950 . S
H521 C532 0.950 . S
H522 C534 0.950 . S
H523 C535 0.950 . S
C524 H516 0.950 . S
C524 C525 1.386 . S
C524 C526 1.391 . S
C525 C524 1.386 . S
C525 C529 1.393 . S
C526 H518 0.950 . S
C526 C524 1.391 . S
C526 C527 1.400 . S
C527 C526 1.400 . S
C527 C528 1.398 . S
C527 C533 1.491 . S
C528 H519 0.950 . S
C528 C527 1.398 . S
C528 C529 1.391 . S
C529 H517 0.950 . S
C529 C525 1.393 . S
C529 C528 1.391 . S
C530 H520 0.950 . S
C530 C531 1.386 . S
C530 C532 1.391 . S
C531 C530 1.386 . S
C531 C535 1.393 . S
C532 H521 0.950 . S
C532 C530 1.391 . S
C532 C533 1.400 . S
C533 C527 1.491 . S
C533 C532 1.400 . S
C533 C534 1.398 . S
C534 H522 0.950 . S
C534 C533 1.398 . S
C534 C535 1.391 . S
C535 H523 0.950 . S
C535 C531 1.393 . S
C535 C534 1.391 . S
H536 C544 0.950 . S
H537 C549 0.950 . S
H538 C546 0.950 . S
H539 C548 0.950 . S
H540 C550 0.950 . S
H541 C552 0.950 . S
H542 C554 0.950 . S
H543 C555 0.950 . S
C544 H536 0.950 . S
C544 C545 1.386 . S
C544 C546 1.391 . S
C545 C544 1.386 . S
C545 C549 1.393 . S
C546 H538 0.950 . S
C546 C544 1.391 . S
C546 C547 1.400 . S
C547 C546 1.400 . S
C547 C548 1.398 . S
C547 C553 1.491 . S
C548 H539 0.950 . S
C548 C547 1.398 . S
C548 C549 1.391 . S
C549 H537 0.950 . S
C549 C545 1.393 . S
C549 C548 1.391 . S
C550 H540 0.950 . S
C550 C551 1.386 . S
C550 C552 1.391 . S
C551 C550 1.386 . S
C551 C555 1.393 . S
C552 H541 0.950 . S
C552 C550 1.391 . S
C552 C553 1.400 . S
C553 C547 1.491 . S
C553 C552 1.400 . S
C553 C554 1.398 . S
C554 H542 0.950 . S
C554 C553 1.398 . S
C554 C555 1.391 . S
C555 H543 0.950 . S
C555 C551 1.393 . S
C555 C554 1.391 . S
H556 C564 0.950 . S
H557 C569 0.950 . S
H558 C566 0.950 . S
H559 C568 0.950 . S
H560 C570 0.950 . S
H561 C572 0.950 . S
H562 C574 0.950 . S
H563 C575 0.950 . S
C564 H556 0.950 . S
C564 C565 1.386 . S
C564 C566 1.391 . S
C565 C564 1.386 . S
C565 C569 1.393 . S
C566 H558 0.950 . S
C566 C564 1.391 . S
C566 C567 1.400 . S
C567 C566 1.400 . S
C567 C568 1.398 . S
C567 C573 1.491 . S
C568 H559 0.950 . S
C568 C567 1.398 . S
C568 C569 1.391 . S
C569 H557 0.950 . S
C569 C565 1.393 . S
C569 C568 1.391 . S
C570 H560 0.950 . S
C570 C571 1.386 . S
C570 C572 1.391 . S
C571 C570 1.386 . S
C571 C575 1.393 . S
C572 H561 0.950 . S
C572 C570 1.391 . S
C572 C573 1.400 . S
C573 C567 1.491 . S
C573 C572 1.400 . S
C573 C574 1.398 . S
C574 H562 0.950 . S
C574 C573 1.398 . S
C574 C575 1.391 . S
C575 H563 0.950 . S
C575 C571 1.393 . S
C575 C574 1.391 . S
H576 C584 0.950 . S
H577 C589 0.950 . S
H578 C586 0.950 . S
H579 C588 0.950 . S
H580 C590 0.950 . S
H581 C592 0.950 . S
H582 C594 0.950 . S
H583 C595 0.950 . S
C584 H576 0.950 . S
C584 C585 1.386 . S
C584 C586 1.391 . S
C585 C584 1.386 . S
C585 C589 1.393 . S
C586 H578 0.950 . S
C586 C584 1.391 . S
C586 C587 1.400 . S
C587 C586 1.400 . S
C587 C588 1.398 . S
C587 C593 1.491 . S
C588 H579 0.950 . S
C588 C587 1.398 . S
C588 C589 1.391 . S
C589 H577 0.950 . S
C589 C585 1.393 . S
C589 C588 1.391 . S
C590 H580 0.950 . S
C590 C591 1.386 . S
C590 C592 1.391 . S
C591 C590 1.386 . S
C591 C595 1.393 . S
C592 H581 0.950 . S
C592 C590 1.391 . S
C592 C593 1.400 . S
C593 C587 1.491 . S
C593 C592 1.400 . S
C593 C594 1.398 . S
C594 H582 0.950 . S
C594 C593 1.398 . S
C594 C595 1.391 . S
C595 H583 0.950 . S
C595 C591 1.393 . S
C595 C594 1.391 . S
H596 C604 0.950 . S
H597 C609 0.950 . S
H598 C606 0.950 . S
H599 C608 0.950 . S
H600 C610 0.950 . S
H601 C612 0.950 . S
H602 C614 0.950 . S
H603 C615 0.950 . S
C604 H596 0.950 . S
C604 C605 1.386 . S
C604 C606 1.391 . S
C605 C604 1.386 . S
C605 C609 1.393 . S
C606 H598 0.950 . S
C606 C604 1.391 . S
C606 C607 1.400 . S
C607 C606 1.400 . S
C607 C608 1.398 . S
C607 C613 1.491 . S
C608 H599 0.950 . S
C608 C607 1.398 . S
C608 C609 1.391 . S
C609 H597 0.950 . S
C609 C605 1.393 . S
C609 C608 1.391 . S
C610 H600 0.950 . S
C610 C611 1.386 . S
C610 C612 1.391 . S
C611 C610 1.386 . S
C611 C615 1.393 . S
C612 H601 0.950 . S
C612 C610 1.391 . S
C612 C613 1.400 . S
C613 C607 1.491 . S
C613 C612 1.400 . S
C613 C614 1.398 . S
C614 H602 0.950 . S
C614 C613 1.398 . S
C614 C615 1.391 . S
C615 H603 0.950 . S
C615 C611 1.393 . S
C615 C614 1.391 . S
H616 C624 0.950 . S
H617 C629 0.950 . S
H618 C626 0.950 . S
H619 C628 0.950 . S
H620 C630 0.950 . S
H621 C632 0.950 . S
H622 C634 0.950 . S
H623 C635 0.950 . S
C624 H616 0.950 . S
C624 C625 1.386 . S
C624 C626 1.391 . S
C625 C624 1.386 . S
C625 C629 1.393 . S
C626 H618 0.950 . S
C626 C624 1.391 . S
C626 C627 1.400 . S
C627 C626 1.400 . S
C627 C628 1.398 . S
C627 C633 1.491 . S
C628 H619 0.950 . S
C628 C627 1.398 . S
C628 C629 1.391 . S
C629 H617 0.950 . S
C629 C625 1.393 . S
C629 C628 1.391 . S
C630 H620 0.950 . S
C630 C631 1.386 . S
C630 C632 1.391 . S
C631 C630 1.386 . S
C631 C635 1.393 . S
C632 H621 0.950 . S
C632 C630 1.391 . S
C632 C633 1.400 . S
C633 C627 1.491 . S
C633 C632 1.400 . S
C633 C634 1.398 . S
C634 H622 0.950 . S
C634 C633 1.398 . S
C634 C635 1.391 . S
C635 H623 0.950 . S
C635 C631 1.393 . S
C635 C634 1.391 . S
H636 C644 0.950 . S
H637 C649 0.950 . S
H638 C646 0.950 . S
H639 C648 0.950 . S
H640 C650 0.950 . S
H641 C652 0.950 . S
H642 C654 0.950 . S
H643 C655 0.950 . S
C644 H636 0.950 . S
C644 C645 1.386 . S
C644 C646 1.391 . S
C645 C644 1.386 . S
C645 C649 1.393 . S
C646 H638 0.950 . S
C646 C644 1.391 . S
C646 C647 1.400 . S
C647 C646 1.400 . S
C647 C648 1.398 . S
C647 C653 1.491 . S
C648 H639 0.950 . S
C648 C647 1.398 . S
C648 C649 1.391 . S
C649 H637 0.950 . S
C649 C645 1.393 . S
C649 C648 1.391 . S
C650 H640 0.950 . S
C650 C651 1.386 . S
C650 C652 1.391 . S
C651 C650 1.386 . S
C651 C655 1.393 . S
C652 H641 0.950 . S
C652 C650 1.391 . S
C652 C653 1.400 . S
C653 C647 1.491 . S
C653 C652 1.400 . S
C653 C654 1.398 . S
C654 H642 0.950 . S
C654 C653 1.398 . S
C654 C655 1.391 . S
C655 H643 0.950 . S
C655 C651 1.393 . S
C655 C654 1.391 . S
H656 C664 0.950 . S
H657 C669 0.950 . S
H658 C666 0.950 . S
H659 C668 0.950 . S
H660 C670 0.950 . S
H661 C672 0.950 . S
H662 C674 0.950 . S
H663 C675 0.950 . S
C664 H656 0.950 . S
C664 C665 1.386 . S
C664 C666 1.391 . S
C665 C664 1.386 . S
C665 C669 1.393 . S
C666 H658 0.950 . S
C666 C664 1.391 . S
C666 C667 1.400 . S
C667 C666 1.400 . S
C667 C668 1.398 . S
C667 C673 1.491 . S
C668 H659 0.950 . S
C668 C667 1.398 . S
C668 C669 1.391 . S
C669 H657 0.950 . S
C669 C665 1.393 . S
C669 C668 1.391 . S
C670 H660 0.950 . S
C670 C671 1.386 . S
C670 C672 1.391 . S
C671 C670 1.386 . S
C671 C675 1.393 . S
C672 H661 0.950 . S
C672 C670 1.391 . S
C672 C673 1.400 . S
C673 C667 1.491 . S
C673 C672 1.400 . S
C673 C674 1.398 . S
C674 H662 0.950 . S
C674 C673 1.398 . S
C674 C675 1.391 . S
C675 H663 0.950 . S
C675 C671 1.393 . S
C675 C674 1.391 . S
H676 C684 0.950 . S
H677 C689 0.950 . S
H678 C686 0.950 . S
H679 C688 0.950 . S
H680 C690 0.950 . S
H681 C692 0.950 . S
H682 C694 0.950 . S
H683 C695 0.950 . S
C684 H676 0.950 . S
C684 C685 1.386 . S
C684 C686 1.391 . S
C685 C684 1.386 . S
C685 C689 1.393 . S
C686 H678 0.950 . S
C686 C684 1.391 . S
C686 C687 1.400 . S
C687 C686 1.400 . S
C687 C688 1.398 . S
C687 C693 1.491 . S
C688 H679 0.950 . S
C688 C687 1.398 . S
C688 C689 1.391 . S
C689 H677 0.950 . S
C689 C685 1.393 . S
C689 C688 1.391 . S
C690 H680 0.950 . S
C690 C691 1.386 . S
C690 C692 1.391 . S
C691 C690 1.386 . S
C691 C695 1.393 . S
C692 H681 0.950 . S
C692 C690 1.391 . S
C692 C693 1.400 . S
C693 C687 1.491 . S
C693 C692 1.400 . S
C693 C694 1.398 . S
C694 H682 0.950 . S
C694 C693 1.398 . S
C694 C695 1.391 . S
C695 H683 0.950 . S
C695 C691 1.393 . S
C695 C694 1.391 . S
H696 C704 0.949 . S
H697 C709 0.950 . S
H698 C706 0.950 . S
H699 C708 0.950 . S
H700 C710 0.950 . S
H701 C712 0.950 . S
H702 C714 0.950 . S
H703 C715 0.950 . S
C704 H696 0.949 . S
C704 C705 1.386 . S
C704 C706 1.391 1_556 S
C705 C704 1.386 . S
C705 C709 1.393 . S
C706 H698 0.950 . S
C706 C704 1.391 1_554 S
C706 C707 1.400 . S
C707 C706 1.400 . S
C707 C708 1.398 1_554 S
C707 C713 1.491 . S
C708 H699 0.950 . S
C708 C707 1.398 1_556 S
C708 C709 1.391 . S
C709 H697 0.950 . S
C709 C705 1.393 . S
C709 C708 1.391 . S
C710 H700 0.950 . S
C710 C711 1.386 . S
C710 C712 1.391 . S
C711 C710 1.386 . S
C711 C715 1.393 . S
C712 H701 0.950 . S
C712 C710 1.391 . S
C712 C713 1.400 . S
C713 C707 1.491 . S
C713 C712 1.400 . S
C713 C714 1.398 . S
C714 H702 0.950 . S
C714 C713 1.398 . S
C714 C715 1.391 . S
C715 H703 0.950 . S
C715 C711 1.393 . S
C715 C714 1.391 . S
H716 C724 0.950 . S
H717 C729 0.950 . S
H718 C726 0.950 . S
H719 C728 0.950 . S
H720 C730 0.950 . S
H721 C732 0.950 . S
H722 C734 0.950 . S
H723 C735 0.950 . S
C724 H716 0.950 . S
C724 C725 1.386 . S
C724 C726 1.391 . S
C725 C724 1.386 . S
C725 C729 1.393 . S
C726 H718 0.950 . S
C726 C724 1.391 . S
C726 C727 1.400 . S
C727 C726 1.400 . S
C727 C728 1.398 . S
C727 C733 1.491 . S
C728 H719 0.950 . S
C728 C727 1.398 . S
C728 C729 1.391 . S
C729 H717 0.950 . S
C729 C725 1.393 . S
C729 C728 1.391 . S
C730 H720 0.950 . S
C730 C731 1.386 . S
C730 C732 1.391 . S
C731 C730 1.386 . S
C731 C735 1.393 . S
C732 H721 0.950 . S
C732 C730 1.391 . S
C732 C733 1.400 . S
C733 C727 1.491 . S
C733 C732 1.400 . S
C733 C734 1.398 . S
C734 H722 0.950 . S
C734 C733 1.398 . S
C734 C735 1.391 . S
C735 H723 0.950 . S
C735 C731 1.393 . S
C735 C734 1.391 . S
H736 C744 0.950 . S
H737 C749 0.950 . S
H738 C746 0.950 . S
H739 C748 0.950 . S
H740 C750 0.950 . S
H741 C752 0.950 . S
H742 C754 0.950 . S
H743 C755 0.950 . S
C744 H736 0.950 . S
C744 C745 1.386 . S
C744 C746 1.391 . S
C745 C744 1.386 . S
C745 C749 1.393 1_554 S
C746 H738 0.950 . S
C746 C744 1.391 . S
C746 C747 1.400 . S
C747 C746 1.400 . S
C747 C748 1.398 1_554 S
C747 C753 1.492 . S
C748 H739 0.950 . S
C748 C747 1.398 1_556 S
C748 C749 1.391 . S
C749 H737 0.950 . S
C749 C745 1.393 1_556 S
C749 C748 1.391 . S
C750 H740 0.950 . S
C750 C751 1.381 1_556 S
C750 C752 1.391 . S
C751 C750 1.381 1_554 S
C751 C755 1.397 . S
C752 H741 0.950 . S
C752 C750 1.391 . S
C752 C753 1.388 1_556 S
C753 C747 1.492 . S
C753 C752 1.388 1_554 S
C753 C754 1.410 . S
C754 H742 0.950 . S
C754 C753 1.410 . S
C754 C755 1.391 . S
C755 H743 0.950 . S
C755 C751 1.397 . S
C755 C754 1.391 . S
H756 C764 0.950 . S
H757 C769 0.950 . S
H758 C766 0.950 . S
H759 C768 0.950 . S
H760 C770 0.950 . S
H761 C772 0.950 . S
H762 C774 0.950 . S
H763 C775 0.950 . S
C764 H756 0.950 . S
C764 C765 1.386 . S
C764 C766 1.391 . S
C765 C764 1.386 . S
C765 C769 1.393 . S
C766 H758 0.950 . S
C766 C764 1.391 . S
C766 C767 1.400 . S
C767 C766 1.400 . S
C767 C768 1.398 . S
C767 C773 1.491 . S
C768 H759 0.950 . S
C768 C767 1.398 . S
C768 C769 1.391 . S
C769 H757 0.950 . S
C769 C765 1.393 . S
C769 C768 1.391 . S
C770 H760 0.950 . S
C770 C771 1.386 . S
C770 C772 1.391 . S
C771 C770 1.386 . S
C771 C775 1.393 . S
C772 H761 0.950 . S
C772 C770 1.391 . S
C772 C773 1.400 . S
C773 C767 1.491 . S
C773 C772 1.400 . S
C773 C774 1.398 . S
C774 H762 0.950 . S
C774 C773 1.398 . S
C774 C775 1.391 . S
C775 H763 0.950 . S
C775 C771 1.393 . S
C775 C774 1.391 . S
H776 C784 0.950 . S
H777 C789 0.950 . S
H778 C786 0.950 . S
H779 C788 0.950 . S
H780 C790 0.950 . S
H781 C792 0.950 . S
H782 C794 0.950 . S
H783 C795 0.950 . S
C784 H776 0.950 . S
C784 C785 1.386 . S
C784 C786 1.391 . S
C785 C784 1.386 . S
C785 C789 1.393 . S
C786 H778 0.950 . S
C786 C784 1.391 . S
C786 C787 1.400 . S
C787 C786 1.400 . S
C787 C788 1.398 . S
C787 C793 1.491 . S
C788 H779 0.950 . S
C788 C787 1.398 . S
C788 C789 1.391 . S
C789 H777 0.950 . S
C789 C785 1.393 . S
C789 C788 1.391 . S
C790 H780 0.950 . S
C790 C791 1.386 . S
C790 C792 1.391 . S
C791 C790 1.386 . S
C791 C795 1.393 . S
C792 H781 0.950 . S
C792 C790 1.391 . S
C792 C793 1.400 . S
C793 C787 1.491 . S
C793 C792 1.400 . S
C793 C794 1.398 . S
C794 H782 0.950 . S
C794 C793 1.398 . S
C794 C795 1.391 . S
C795 H783 0.950 . S
C795 C791 1.393 . S
C795 C794 1.391 . S
H796 C804 0.950 . S
H797 C809 0.950 . S
H798 C806 0.950 . S
H799 C808 0.950 . S
H800 C810 0.950 . S
H801 C812 0.950 . S
H802 C814 0.950 . S
H803 C815 0.950 . S
C804 H796 0.950 . S
C804 C805 1.386 . S
C804 C806 1.391 . S
C805 C804 1.386 . S
C805 C809 1.393 1_554 S
C806 H798 0.950 . S
C806 C804 1.391 . S
C806 C807 1.400 . S
C807 C806 1.400 . S
C807 C808 1.398 1_554 S
C807 C813 1.491 . S
C808 H799 0.950 . S
C808 C807 1.398 1_556 S
C808 C809 1.391 . S
C809 H797 0.950 . S
C809 C805 1.393 1_556 S
C809 C808 1.391 . S
C810 H800 0.950 . S
C810 C811 1.391 . S
C810 C812 1.391 . S
C811 C810 1.391 . S
C811 C815 1.388 1_556 S
C812 H801 0.950 . S
C812 C810 1.391 . S
C812 C813 1.400 1_556 S
C813 C807 1.491 . S
C813 C812 1.400 1_554 S
C813 C814 1.398 . S
C814 H802 0.950 . S
C814 C813 1.398 . S
C814 C815 1.391 . S
C815 H803 0.950 . S
C815 C811 1.388 1_554 S
C815 C814 1.391 . S
H816 C824 0.950 . S
H817 C829 0.950 . S
H818 C826 0.950 . S
H819 C828 0.950 . S
H820 C830 0.950 . S
H821 C832 0.950 . S
H822 C834 0.950 . S
H823 C835 0.950 . S
C824 H816 0.950 . S
C824 C825 1.386 . S
C824 C826 1.391 . S
C825 C824 1.386 . S
C825 C829 1.393 . S
C826 H818 0.950 . S
C826 C824 1.391 . S
C826 C827 1.400 . S
C827 C826 1.400 . S
C827 C828 1.398 . S
C827 C833 1.491 . S
C828 H819 0.950 . S
C828 C827 1.398 . S
C828 C829 1.391 . S
C829 H817 0.950 . S
C829 C825 1.393 . S
C829 C828 1.391 . S
C830 H820 0.950 . S
C830 C831 1.386 . S
C830 C832 1.391 . S
C831 C830 1.386 . S
C831 C835 1.393 . S
C832 H821 0.950 . S
C832 C830 1.391 . S
C832 C833 1.400 . S
C833 C827 1.491 . S
C833 C832 1.400 . S
C833 C834 1.398 . S
C834 H822 0.950 . S
C834 C833 1.398 . S
C834 C835 1.391 . S
C835 H823 0.950 . S
C835 C831 1.393 . S
C835 C834 1.391 . S
H836 C844 0.950 . S
H837 C849 0.950 . S
H838 C846 0.950 . S
H839 C848 0.950 . S
H840 C850 0.950 . S
H841 C852 0.950 . S
H842 C854 0.950 . S
H843 C855 0.950 . S
C844 H836 0.950 . S
C844 C845 1.386 1_554 S
C844 C846 1.391 . S
C845 C844 1.386 1_556 S
C845 C849 1.393 . S
C846 H838 0.950 . S
C846 C844 1.391 . S
C846 C847 1.400 1_554 S
C847 C846 1.400 1_556 S
C847 C848 1.399 . S
C847 C853 1.490 1_556 S
C848 H839 0.950 . S
C848 C847 1.399 . S
C848 C849 1.391 . S
C849 H837 0.950 . S
C849 C845 1.393 . S
C849 C848 1.391 . S
C850 H840 0.950 . S
C850 C851 1.386 1_556 S
C850 C852 1.391 . S
C851 C850 1.386 1_554 S
C851 C855 1.393 . S
C852 H841 0.950 . S
C852 C850 1.391 . S
C852 C853 1.400 1_556 S
C853 C847 1.490 1_554 S
C853 C852 1.400 1_554 S
C853 C854 1.398 . S
C854 H842 0.950 . S
C854 C853 1.398 . S
C854 C855 1.391 . S
C855 H843 0.950 . S
C855 C851 1.393 . S
C855 C854 1.391 . S
C385 C21 1.612 . S
C391 C197 1.596 . S
C405 C40 1.736 . S
C411 C119 1.653 . S
C431 C155 1.574 . S
C425 C54 1.586 . S
C445 C73 1.772 . S
C451 C161 1.748 . S
C471 C299 1.584 . S
C465 C74 1.595 . S
C491 C305 1.689 . S
C485 C10 1.731 . S
C511 C341 1.601 . S
C505 C37 1.617 . S
C531 C263 1.688 . S
C525 C65 1.772 . S
C545 C52 1.593 . S
C551 C125 1.586 . S
C565 C87 1.775 . S
C571 C191 1.731 . S
C585 C15 1.624 . S
C591 C227 1.592 . S
C611 C89 1.663 . S
C605 C32 1.729 . S
C625 C29 1.627 . S
C631 C371 1.570 . S
C651 C233 1.706 . S
C645 C59 1.767 . S
C671 C269 1.575 . S
C665 C84 1.588 . S
C685 C8 1.728 . S
C691 C335 1.685 . S
C711 C113 1.756 1_554 S
C705 C7 1.847 1_556 S
C731 C149 1.684 . S
C725 C30 1.684 . S
C745 C62 1.863 . S
C751 C185 1.840 . S
C765 C81 1.658 . S
C771 C221 1.633 . S
C791 C257 1.783 . S
C785 C76 1.865 . S
C805 C18 1.685 1_554 S
C811 C293 1.685 1_556 S
C825 C43 1.846 . S
C831 C329 1.824 . S
C845 C51 1.663 . S
C851 C365 1.639 1_554 S
