# Generated by pormake.
# Topology anh, (6,3)-cn, num edge types: 1
# Building blocks:
#     Node 0, Type 0, BuildingBlock: VOLQOD_clean_sbu_1, # of connection points: 6
#     Node 1, Type 0, BuildingBlock: VOLQOD_clean_sbu_1, # of connection points: 6
#     Node 2, Type 0, BuildingBlock: VOLQOD_clean_sbu_1, # of connection points: 6
#     Node 3, Type 1, BuildingBlock: BETDIP_clean_linker_0, # of connection points: 3
#     Node 4, Type 1, BuildingBlock: BETDIP_clean_linker_0, # of connection points: 3
#     Node 5, Type 1, BuildingBlock: BETDIP_clean_linker_0, # of connection points: 3
#     Node 6, Type 1, BuildingBlock: BETDIP_clean_linker_0, # of connection points: 3
#     Node 7, Type 1, BuildingBlock: BETDIP_clean_linker_0, # of connection points: 3
#     Node 8, Type 1, BuildingBlock: BETDIP_clean_linker_0, # of connection points: 3
#     Edge 9, Type (0, 1), BuildingBlock: AJUNOK_clean_linker_0, # of connection points: 2
#     Edge 10, Type (0, 1), BuildingBlock: AJUNOK_clean_linker_0, # of connection points: 2
#     Edge 11, Type (0, 1), BuildingBlock: AJUNOK_clean_linker_0, # of connection points: 2
#     Edge 12, Type (0, 1), BuildingBlock: AJUNOK_clean_linker_0, # of connection points: 2
#     Edge 13, Type (0, 1), BuildingBlock: AJUNOK_clean_linker_0, # of connection points: 2
#     Edge 14, Type (0, 1), BuildingBlock: AJUNOK_clean_linker_0, # of connection points: 2
#     Edge 15, Type (0, 1), BuildingBlock: AJUNOK_clean_linker_0, # of connection points: 2
#     Edge 16, Type (0, 1), BuildingBlock: AJUNOK_clean_linker_0, # of connection points: 2
#     Edge 17, Type (0, 1), BuildingBlock: AJUNOK_clean_linker_0, # of connection points: 2
#     Edge 18, Type (0, 1), BuildingBlock: AJUNOK_clean_linker_0, # of connection points: 2
#     Edge 19, Type (0, 1), BuildingBlock: AJUNOK_clean_linker_0, # of connection points: 2
#     Edge 20, Type (0, 1), BuildingBlock: AJUNOK_clean_linker_0, # of connection points: 2
#     Edge 21, Type (0, 1), BuildingBlock: AJUNOK_clean_linker_0, # of connection points: 2
#     Edge 22, Type (0, 1), BuildingBlock: AJUNOK_clean_linker_0, # of connection points: 2
#     Edge 23, Type (0, 1), BuildingBlock: AJUNOK_clean_linker_0, # of connection points: 2
#     Edge 24, Type (0, 1), BuildingBlock: AJUNOK_clean_linker_0, # of connection points: 2
#     Edge 25, Type (0, 1), BuildingBlock: AJUNOK_clean_linker_0, # of connection points: 2
#     Edge 26, Type (0, 1), BuildingBlock: AJUNOK_clean_linker_0, # of connection points: 2
# Relax obj value: 0.174
# Max RMSD: 0.216
# Mean RMSD: 0.150
data_MOF--net-anh--node1-VOLQOD_clean_sbu_1--node2-BETDIP_clean_linker_0--edge1-AJUNOK_clean_linker_0
_symmetry_space_group_name_H-M    P1
_symmetry_Int_Tables_number       1
_symmetry_cell_setting            triclinic
loop_
_symmetry_equiv_pos_as_xyz
'x, y, z'
_cell_length_a     22.273261
_cell_length_b     22.074792
_cell_length_c     42.044864
_cell_angle_alpha  94.297189
_cell_angle_beta   90.282336
_cell_angle_gamma 120.37674
loop_
_atom_site_label
_atom_site_type_symbol
_atom_site_fract_x
_atom_site_fract_y
_atom_site_fract_z
_atom_type_partial_charge
O0 O -0.00272 0.60759 0.24229 0.0
Zn1 Zn -0.00108 0.63625 0.19756 0.0
O2 O 0.0067 0.56934 0.16726 0.0
Zn3 Zn 0.92444 0.51169 0.14077 0.0
Zn4 Zn 0.02802 0.50791 0.18942 0.0
Zn5 Zn 0.0745 0.62095 0.13738 0.0
O6 O 0.94139 0.50739 0.09387 0.0
O7 O 0.03479 0.61345 0.09305 0.0
O8 O 0.91215 0.64096 0.18584 0.0
O9 O 0.86791 0.55628 0.14554 0.0
O10 O 0.86888 0.41526 0.15513 0.0
O11 O 0.94356 0.4094 0.18789 0.0
O12 O 0.11068 0.50566 0.17023 0.0
O13 O 0.08689 0.73277 0.19796 0.0
O14 O 0.13583 0.58088 0.13329 0.0
O15 O 0.1364 0.72054 0.15434 0.0
C16 C 0.02361 0.57404 0.25413 0.0
C17 C 0.98432 0.55819 0.0785 0.0
C18 C 0.88337 0.3814 0.17389 0.0
C19 C 0.86653 0.60471 0.16324 0.0
C20 C 0.14704 0.5381 0.14722 0.0
C21 C 0.13696 0.75753 0.1791 0.0
O22 O 0.04538 0.54045 0.23634 0.0
O23 O 0.48262 0.0385 0.43815 0.0
Zn24 Zn 0.46693 0.03278 0.48533 0.0
O25 O 0.5357 0.01662 0.50601 0.0
Zn26 Zn 0.5973 0.09542 0.53538 0.0
Zn27 Zn 0.59163 0.00346 0.47423 0.0
Zn28 Zn 0.48961 0.93589 0.53043 0.0
O29 O 0.59731 0.06964 0.57995 0.0
O30 O 0.50057 0.96496 0.57786 0.0
O31 O 0.47002 0.12154 0.50534 0.0
O32 O 0.56107 0.16024 0.53932 0.0
O33 O 0.69335 0.15205 0.51963 0.0
O34 O 0.68573 0.09094 0.47409 0.0
O35 O 0.60543 0.92282 0.48359 0.0
O36 O 0.37085 0.94781 0.48739 0.0
O37 O 0.5321 0.87556 0.52234 0.0
O38 O 0.38873 0.87805 0.51646 0.0
C39 C 0.5114 0.0137 0.41938 0.0
C40 C 0.55013 0.01865 0.59384 0.0
C41 C 0.71965 0.14507 0.49382 0.0
C42 C 0.51208 0.16618 0.52737 0.0
C43 C 0.57726 0.87668 0.50358 0.0
C44 C 0.34837 0.88951 0.49966 0.0
O45 O 0.54872 0.99033 0.43014 0.0
O46 O 0.4738 0.52236 0.75306 0.0
Zn47 Zn 0.44358 0.48555 0.79566 0.0
O48 O 0.51366 0.54804 0.8289 0.0
Zn49 Zn 0.47799 0.5974 0.85513 0.0
Zn50 Zn 0.599 0.61636 0.80944 0.0
Zn51 Zn 0.53203 0.49109 0.85606 0.0
O52 O 0.48332 0.5849 0.90164 0.0
O53 O 0.50503 0.49737 0.90135 0.0
O54 O 0.34867 0.47544 0.80326 0.0
O55 O 0.37681 0.55645 0.84425 0.0
O56 O 0.52724 0.70041 0.84811 0.0
O57 O 0.61549 0.71508 0.81886 0.0
O58 O 0.6832 0.61089 0.82483 0.0
O59 O 0.439 0.39126 0.79201 0.0
O60 O 0.63352 0.524 0.85678 0.0
O61 O 0.48796 0.39034 0.83798 0.0
C62 C 0.53306 0.56325 0.74234 0.0
C63 C 0.49004 0.54005 0.91625 0.0
C64 C 0.58157 0.73998 0.83351 0.0
C65 C 0.33226 0.50935 0.82385 0.0
C66 C 0.68678 0.56981 0.84355 0.0
C67 C 0.45728 0.36041 0.81099 0.0
O68 O 0.58712 0.59844 0.76108 0.0
H69 H 0.45344 0.03973 0.19284 0.0
H70 H 0.58285 0.1006 0.27873 0.0
H71 H 0.36591 0.94476 0.27968 0.0
H72 H 0.66467 0.11438 0.24317 0.0
C73 C 0.65315 0.13728 0.22373 0.0
C74 C 0.45902 0.03405 0.21788 0.0
C75 C 0.40112 0.98637 0.23411 0.0
C76 C 0.52515 0.07281 0.23334 0.0
C77 C 0.53271 0.06814 0.26609 0.0
C78 C 0.47514 0.02279 0.28296 0.0
C79 C 0.40964 0.98195 0.26686 0.0
N80 N 0.58292 0.11618 0.21535 0.0
H81 H 0.56942 0.46838 0.51869 0.0
H82 H 0.59973 0.6326 0.59019 0.0
H83 H 0.50192 0.41819 0.61379 0.0
H84 H 0.70338 0.69566 0.54984 0.0
C85 C 0.65771 0.67656 0.53386 0.0
C86 C 0.56306 0.48433 0.54286 0.0
C87 C 0.53462 0.43464 0.56547 0.0
C88 C 0.58663 0.55551 0.55151 0.0
C89 C 0.58167 0.57759 0.58321 0.0
C90 C 0.55087 0.52789 0.6057 0.0
C91 C 0.52589 0.45651 0.5964 0.0
N92 N 0.61169 0.60306 0.52747 0.0
H93 H 0.9594 0.52459 0.84714 0.0
H94 H 0.03913 0.5056 0.93698 0.0
H95 H 0.89183 0.57645 0.93557 0.0
H96 H 0.04728 0.51347 0.82617 0.0
C97 C 0.07029 0.49673 0.84378 0.0
C98 C 0.96252 0.5306 0.87296 0.0
C99 C 0.92101 0.55305 0.88926 0.0
C100 C 0.00596 0.51428 0.89034 0.0
C101 C 0.00645 0.51926 0.92368 0.0
C102 C 0.96623 0.54239 0.94008 0.0
C103 C 0.92444 0.56035 0.92285 0.0
N104 N 0.04973 0.49188 0.87585 0.0
H105 H 0.06219 0.58394 0.48499 0.0
H106 H 0.96646 0.46908 0.39458 0.0
H107 H 0.1237 0.68809 0.39829 0.0
H108 H 0.9674 0.38062 0.42073 0.0
C109 C 0.95019 0.38844 0.44403 0.0
C110 C 0.05683 0.58302 0.45927 0.0
C111 C 0.09767 0.64448 0.44396 0.0
C112 C 0.01139 0.51931 0.44162 0.0
C113 C 0.00369 0.51754 0.40831 0.0
C114 C 0.04349 0.57865 0.39262 0.0
C115 C 0.09042 0.64186 0.41057 0.0
N116 N 0.97418 0.45787 0.45803 0.0
H117 H 0.53046 0.12084 0.82001 0.0
H118 H 0.57245 0.00261 0.7466 0.0
H119 H 0.48631 0.12808 0.72078 0.0
H120 H 0.66881 0.04359 0.78936 0.0
C121 C 0.62812 0.01354 0.80542 0.0
C122 C 0.52895 0.10431 0.79494 0.0
C123 C 0.50714 0.13243 0.77146 0.0
C124 C 0.55259 0.05759 0.78617 0.0
C125 C 0.55347 0.03788 0.75366 0.0
C126 C 0.53051 0.06418 0.73015 0.0
C127 C 0.50572 0.10961 0.7392 0.0
N128 N 0.57469 0.03009 0.81018 0.0
H129 H 0.42763 0.52383 0.14444 0.0
H130 H 0.54709 0.53756 0.06239 0.0
H131 H 0.34104 0.50283 0.04966 0.0
H132 H 0.59455 0.49549 0.09444 0.0
C133 C 0.60192 0.52778 0.11656 0.0
C134 C 0.4312 0.51999 0.11874 0.0
C135 C 0.37675 0.51169 0.09853 0.0
C136 C 0.49195 0.52691 0.10595 0.0
C137 C 0.49868 0.52719 0.07264 0.0
C138 C 0.44459 0.51862 0.05226 0.0
C139 C 0.38316 0.50938 0.06532 0.0
N140 N 0.54778 0.53911 0.127 0.0
C141 C 0.24761 0.57168 0.1129 0.0
C142 C 0.20495 0.52861 0.13604 0.0
C143 C 0.3025 0.56522 0.10109 0.0
C144 C 0.31743 0.51545 0.11182 0.0
H145 H 0.23905 0.61138 0.10369 0.0
H146 H 0.3341 0.6002 0.08357 0.0
S147 S 0.22268 0.38938 0.17185 0.0
N148 N 0.18185 0.43401 0.16929 0.0
N149 N 0.28608 0.42198 0.14671 0.0
C150 C 0.2761 0.47215 0.13505 0.0
C151 C 0.21957 0.47861 0.1472 0.0
C152 C 0.81029 0.20074 0.45377 0.0
C153 C 0.78611 0.20501 0.48429 0.0
C154 C 0.86529 0.26007 0.44166 0.0
C155 C 0.8982 0.326 0.45948 0.0
H156 H 0.78477 0.15191 0.43843 0.0
H157 H 0.88032 0.25478 0.41759 0.0
S158 S 0.8623 0.36384 0.54251 0.0
N159 N 0.80505 0.27953 0.53348 0.0
N160 N 0.90827 0.39089 0.51057 0.0
C161 C 0.87785 0.33039 0.49079 0.0
C162 C 0.82191 0.26985 0.50324 0.0
C163 C 0.55438 0.83729 0.8405 0.0
C164 C 0.60049 0.81427 0.83045 0.0
C165 C 0.56493 0.90306 0.8336 0.0
C166 C 0.62219 0.94861 0.81649 0.0
H167 H 0.50798 0.80314 0.85267 0.0
H168 H 0.52655 0.91702 0.8408 0.0
S169 S 0.7631 0.91833 0.7882 0.0
N170 N 0.70941 0.84604 0.80503 0.0
N171 N 0.72888 0.96946 0.79215 0.0
C172 C 0.67084 0.92835 0.80796 0.0
C173 C 0.66015 0.86134 0.81491 0.0
C174 C 0.75286 0.59228 0.17634 0.0
C175 C 0.80883 0.61599 0.15601 0.0
C176 C 0.6852 0.56951 0.16408 0.0
C177 C 0.67261 0.56908 0.13126 0.0
H178 H 0.75993 0.58403 0.20083 0.0
H179 H 0.64204 0.54595 0.17963 0.0
S180 S 0.80371 0.63836 0.06982 0.0
N181 N 0.84901 0.64834 0.10299 0.0
N182 N 0.72192 0.6037 0.07985 0.0
C183 C 0.72914 0.5996 0.11162 0.0
C184 C 0.79758 0.62399 0.12413 0.0
C185 C 0.25937 0.76141 0.49716 0.0
C186 C 0.27729 0.82987 0.49025 0.0
C187 C 0.19924 0.70207 0.48332 0.0
C188 C 0.15409 0.7086 0.46223 0.0
H189 H 0.29393 0.75291 0.51195 0.0
H190 H 0.1903 0.65053 0.48784 0.0
S191 S 0.16959 0.87578 0.44094 0.0
N192 N 0.23983 0.9009 0.46407 0.0
N193 N 0.12584 0.78876 0.43853 0.0
C194 C 0.16818 0.77666 0.45707 0.0
C195 C 0.22984 0.83739 0.47104 0.0
C196 C 0.43778 0.23955 0.8165 0.0
C197 C 0.46035 0.29786 0.79855 0.0
C198 C 0.45135 0.18525 0.8072 0.0
C199 C 0.48987 0.18854 0.78019 0.0
H200 H 0.41041 0.23647 0.8381 0.0
H201 H 0.43232 0.14088 0.82153 0.0
S202 S 0.56771 0.33559 0.72762 0.0
N203 N 0.52523 0.35774 0.75356 0.0
N204 N 0.55501 0.259 0.73724 0.0
C205 C 0.51368 0.2477 0.76245 0.0
C206 C 0.49791 0.30152 0.77136 0.0
C207 C 0.54912 0.75422 0.50938 0.0
C208 C 0.59954 0.82508 0.50673 0.0
C209 C 0.56857 0.70549 0.5166 0.0
C210 C 0.63905 0.72661 0.52232 0.0
H211 H 0.49418 0.7367 0.5065 0.0
H212 H 0.52785 0.65175 0.51917 0.0
S213 S 0.79087 0.90583 0.51764 0.0
N214 N 0.72273 0.91363 0.5091 0.0
N215 N 0.75932 0.82229 0.52401 0.0
C216 C 0.68998 0.79696 0.51914 0.0
C217 C 0.67023 0.84621 0.51093 0.0
C218 C 0.8096 0.62938 0.86588 0.0
C219 C 0.75259 0.57089 0.84915 0.0
C220 C 0.86642 0.62476 0.87736 0.0
C221 C 0.86832 0.56198 0.87189 0.0
H222 H 0.80829 0.67729 0.87182 0.0
H223 H 0.90778 0.6695 0.89172 0.0
S224 S 0.73375 0.39619 0.82707 0.0
N225 N 0.70282 0.45008 0.82609 0.0
N226 N 0.80995 0.44177 0.84703 0.0
C227 C 0.81338 0.50474 0.85351 0.0
C228 C 0.75531 0.5091 0.84233 0.0
C229 C 0.20597 0.86605 0.21691 0.0
C230 C 0.20242 0.8249 0.18891 0.0
C231 C 0.27011 0.92092 0.23042 0.0
C232 C 0.33331 0.93655 0.21663 0.0
H233 H 0.15921 0.85389 0.22933 0.0
H234 H 0.27037 0.94966 0.25252 0.0
S235 S 0.35277 0.84834 0.14191 0.0
N236 N 0.26804 0.80809 0.14633 0.0
N237 N 0.388 0.90851 0.17254 0.0
C238 C 0.33027 0.89844 0.1877 0.0
C239 C 0.26502 0.84339 0.17365 0.0
C240 C 0.48033 0.25821 0.51918 0.0
C241 C 0.50761 0.22856 0.53907 0.0
C242 C 0.48684 0.32388 0.5283 0.0
C243 C 0.52051 0.36175 0.55765 0.0
H244 H 0.45673 0.23221 0.49585 0.0
H245 H 0.4669 0.34594 0.51195 0.0
S246 S 0.59532 0.30358 0.61951 0.0
N247 N 0.56373 0.23888 0.5907 0.0
N248 N 0.57888 0.36305 0.60705 0.0
C249 C 0.54513 0.33094 0.57831 0.0
C250 C 0.53787 0.26413 0.56922 0.0
C251 C 0.2275 0.47534 0.85471 0.0
C252 C 0.25987 0.4935 0.82562 0.0
C253 C 0.16426 0.4727 0.85973 0.0
C254 C 0.13166 0.48975 0.83603 0.0
H255 H 0.25254 0.46538 0.87416 0.0
H256 H 0.14254 0.45991 0.88292 0.0
S257 S 0.19447 0.53782 0.75508 0.0
N258 N 0.25394 0.52546 0.7722 0.0
N259 N 0.13513 0.52203 0.78175 0.0
C260 C 0.16219 0.50519 0.8063 0.0
C261 C 0.2264 0.50683 0.80106 0.0
C262 C 0.83549 0.28399 0.21015 0.0
C263 C 0.82647 0.3124 0.18285 0.0
C264 C 0.7793 0.22568 0.22237 0.0
C265 C 0.71196 0.19372 0.20791 0.0
H266 H 0.88562 0.3087 0.22308 0.0
H267 H 0.78817 0.20718 0.24408 0.0
S268 S 0.66228 0.24039 0.13312 0.0
N269 N 0.74606 0.2985 0.13959 0.0
N270 N 0.64068 0.18937 0.16278 0.0
C271 C 0.70283 0.21863 0.17953 0.0
C272 C 0.76008 0.2778 0.16695 0.0
C273 C -3e-05 0.61394 0.02715 0.0
C274 C 0.97628 0.55267 0.04325 0.0
C275 C -0.00547 0.61015 0.9937 0.0
C276 C 0.96652 0.54515 0.97529 0.0
H277 H 0.0228 0.6652 0.04049 0.0
H278 H 0.01388 0.65844 0.98213 0.0
S279 S 0.89685 0.3695 0.00545 0.0
N280 N 0.92264 0.42491 0.03798 0.0
N281 N 0.91401 0.41837 0.97514 0.0
C282 C 0.94224 0.48359 0.99096 0.0
C283 C 0.94665 0.48718 0.02496 0.0
C284 C 0.45043 0.02572 0.37212 0.0
C285 C 0.50179 0.01312 0.38434 0.0
C286 C 0.44132 0.02751 0.33928 0.0
C287 C 0.48368 0.01752 0.31741 0.0
H288 H 0.41692 0.0345 0.38802 0.0
H289 H 0.40173 0.03816 0.33097 0.0
S290 S 0.62358 0.97976 0.33637 0.0
N291 N 0.59429 0.98835 0.37142 0.0
N292 N 0.57675 0.99178 0.30974 0.0
C293 C 0.53444 0.00383 0.32907 0.0
C294 C 0.54353 0.00152 0.36249 0.0
C295 C 0.47851 0.52327 0.68699 0.0
C296 C 0.53882 0.56488 0.70713 0.0
C297 C 0.48251 0.51522 0.65391 0.0
C298 C 0.54679 0.54893 0.6395 0.0
H299 H 0.42774 0.49415 0.69685 0.0
H300 H 0.43516 0.48007 0.63956 0.0
S301 S 0.71946 0.6692 0.68045 0.0
N302 N 0.66459 0.64484 0.70955 0.0
N303 N 0.67154 0.62922 0.64714 0.0
C304 C 0.60702 0.59409 0.65886 0.0
C305 C 0.60318 0.60217 0.69272 0.0
C306 C 0.58259 0.09532 0.64491 0.0
C307 C 0.54874 0.02692 0.62908 0.0
C308 C 0.57677 0.1064 0.67762 0.0
C309 C 0.53771 0.04957 0.69593 0.0
H310 H 0.61207 0.14115 0.6318 0.0
H311 H 0.60261 0.16003 0.68867 0.0
S312 S 0.44227 0.86012 0.66681 0.0
N313 N 0.4767 0.90121 0.63464 0.0
N314 N 0.4668 0.92249 0.69653 0.0
C315 C 0.50545 0.98081 0.68085 0.0
C316 C 0.51058 0.96939 0.64731 0.0
C317 C 0.48912 0.48899 0.96768 0.0
C318 C 0.47841 0.53609 0.95101 0.0
C319 C 0.47767 0.48333 0.00034 0.0
C320 C 0.45453 0.52407 0.01756 0.0
H321 H 0.5066 0.45612 0.95549 0.0
H322 H 0.48661 0.44647 0.0122 0.0
S323 S 0.42065 0.65695 0.98599 0.0
N324 N 0.44427 0.62531 0.95481 0.0
N325 N 0.42341 0.61461 0.01617 0.0
C326 C 0.44387 0.57154 0.00142 0.0
C327 C 0.45571 0.57762 0.96819 0.0
C328 C 0.02194 0.62384 0.30951 0.0
C329 C 0.02877 0.57391 0.28937 0.0
C330 C 0.02696 0.62517 0.34284 0.0
C331 C 0.03812 0.57609 0.35732 0.0
H332 H 0.0132 0.66272 0.29951 0.0
H333 H 0.02147 0.66453 0.35742 0.0
S334 S 0.06024 0.4349 0.31581 0.0
N335 N 0.0476 0.47408 0.28672 0.0
N336 N 0.05722 0.47713 0.3493 0.0
C337 C 0.04502 0.52591 0.33762 0.0
C338 C 0.04038 0.52473 0.30369 0.0
loop_
_geom_bond_atom_site_label_1
_geom_bond_atom_site_label_2
_geom_bond_distance
_geom_bond_site_symmetry_2
_ccdc_geom_bond_type
O0 Zn1 1.953 . S
O0 C16 1.225 . S
Zn1 O0 1.953 . S
Zn1 O2 1.949 . S
Zn1 O8 1.919 1_455 S
Zn1 O13 1.924 . S
O2 Zn1 1.949 . S
O2 Zn3 1.923 1_455 S
O2 Zn4 1.950 . S
O2 Zn5 1.945 . S
Zn3 O2 1.923 1_655 S
Zn3 O6 1.933 1_655 S
Zn3 O9 1.941 . S
Zn3 O10 1.965 . S
Zn4 O2 1.950 . S
Zn4 O11 1.938 1_455 S
Zn4 O12 1.906 . S
Zn4 O22 1.953 . S
Zn5 O2 1.945 . S
Zn5 O7 1.932 . S
Zn5 O14 1.977 . S
Zn5 O15 1.910 . S
O6 Zn3 1.933 1_455 S
O6 C17 1.226 . S
O7 Zn5 1.932 . S
O7 C17 1.307 . S
O8 Zn1 1.919 1_655 S
O8 C19 1.253 . S
O9 Zn3 1.941 . S
O9 C19 1.283 . S
O10 Zn3 1.965 . S
O10 C18 1.303 . S
O11 Zn4 1.938 1_655 S
O11 C18 1.247 . S
O12 Zn4 1.906 . S
O12 C20 1.304 . S
O13 Zn1 1.924 . S
O13 C21 1.311 . S
O14 Zn5 1.977 . S
O14 C20 1.272 . S
O15 Zn5 1.910 . S
O15 C21 1.231 . S
C16 O0 1.225 . S
C16 O22 1.298 . S
C17 O6 1.226 . S
C17 O7 1.307 . S
C18 O10 1.303 . S
C18 O11 1.247 . S
C19 O8 1.253 . S
C19 O9 1.283 . S
C20 O12 1.304 . S
C20 O14 1.272 . S
C21 O13 1.311 . S
C21 O15 1.231 . S
O22 Zn4 1.953 . S
O22 C16 1.298 . S
O23 Zn24 1.953 . S
O23 C39 1.225 . S
Zn24 O23 1.953 . S
Zn24 O25 1.949 . S
Zn24 O31 1.919 . S
Zn24 O36 1.924 1_545 S
O25 Zn24 1.949 . S
O25 Zn26 1.923 . S
O25 Zn27 1.950 . S
O25 Zn28 1.945 1_545 S
Zn26 O25 1.923 . S
Zn26 O29 1.933 . S
Zn26 O32 1.941 . S
Zn26 O33 1.965 . S
Zn27 O25 1.950 . S
Zn27 O34 1.938 . S
Zn27 O35 1.906 1_545 S
Zn27 O45 1.953 . S
Zn28 O25 1.945 1_565 S
Zn28 O30 1.932 . S
Zn28 O37 1.977 . S
Zn28 O38 1.910 . S
O29 Zn26 1.933 . S
O29 C40 1.226 . S
O30 Zn28 1.932 . S
O30 C40 1.307 1_565 S
O31 Zn24 1.919 . S
O31 C42 1.253 . S
O32 Zn26 1.941 . S
O32 C42 1.283 . S
O33 Zn26 1.965 . S
O33 C41 1.303 . S
O34 Zn27 1.938 . S
O34 C41 1.247 . S
O35 Zn27 1.906 1_565 S
O35 C43 1.304 . S
O36 Zn24 1.924 1_565 S
O36 C44 1.311 . S
O37 Zn28 1.977 . S
O37 C43 1.272 . S
O38 Zn28 1.910 . S
O38 C44 1.231 . S
C39 O23 1.225 . S
C39 O45 1.298 . S
C40 O29 1.226 . S
C40 O30 1.307 1_545 S
C41 O33 1.303 . S
C41 O34 1.247 . S
C42 O31 1.253 . S
C42 O32 1.283 . S
C43 O35 1.304 . S
C43 O37 1.272 . S
C44 O36 1.311 . S
C44 O38 1.231 . S
O45 Zn27 1.953 . S
O45 C39 1.298 . S
O46 Zn47 1.953 . S
O46 C62 1.225 . S
Zn47 O46 1.953 . S
Zn47 O48 1.949 . S
Zn47 O54 1.919 . S
Zn47 O59 1.924 . S
O48 Zn47 1.949 . S
O48 Zn49 1.923 . S
O48 Zn50 1.950 . S
O48 Zn51 1.945 . S
Zn49 O48 1.923 . S
Zn49 O52 1.933 . S
Zn49 O55 1.941 . S
Zn49 O56 1.965 . S
Zn50 O48 1.950 . S
Zn50 O57 1.938 . S
Zn50 O58 1.906 . S
Zn50 O68 1.953 . S
Zn51 O48 1.945 . S
Zn51 O53 1.932 . S
Zn51 O60 1.977 . S
Zn51 O61 1.910 . S
O52 Zn49 1.933 . S
O52 C63 1.226 . S
O53 Zn51 1.932 . S
O53 C63 1.307 . S
O54 Zn47 1.919 . S
O54 C65 1.253 . S
O55 Zn49 1.941 . S
O55 C65 1.283 . S
O56 Zn49 1.965 . S
O56 C64 1.303 . S
O57 Zn50 1.938 . S
O57 C64 1.247 . S
O58 Zn50 1.906 . S
O58 C66 1.304 . S
O59 Zn47 1.924 . S
O59 C67 1.311 . S
O60 Zn51 1.977 . S
O60 C66 1.272 . S
O61 Zn51 1.910 . S
O61 C67 1.231 . S
C62 O46 1.225 . S
C62 O68 1.298 . S
C63 O52 1.226 . S
C63 O53 1.307 . S
C64 O56 1.303 . S
C64 O57 1.247 . S
C65 O54 1.253 . S
C65 O55 1.283 . S
C66 O58 1.304 . S
C66 O60 1.272 . S
C67 O59 1.311 . S
C67 O61 1.231 . S
O68 Zn50 1.953 . S
O68 C62 1.298 . S
H69 C74 0.930 . S
H70 C77 0.930 . S
H71 C79 0.930 . S
H72 C73 1.016 . S
C73 H72 1.016 . S
C73 N80 1.286 . S
C74 H69 0.930 . S
C74 C75 1.397 1_545 S
C74 C76 1.361 . S
C75 C74 1.397 1_565 S
C75 C79 1.390 . S
C76 C74 1.361 . S
C76 C77 1.393 . S
C76 N80 1.413 . S
C77 H70 0.930 . S
C77 C76 1.393 . S
C77 C78 1.399 . S
C78 C77 1.399 . S
C78 C79 1.381 1_545 S
C79 H71 0.930 . S
C79 C75 1.390 . S
C79 C78 1.381 1_565 S
N80 C73 1.286 . S
N80 C76 1.413 . S
H81 C86 0.930 . S
H82 C89 0.930 . S
H83 C91 0.930 . S
H84 C85 1.016 . S
C85 H84 1.016 . S
C85 N92 1.286 . S
C86 H81 0.930 . S
C86 C87 1.397 . S
C86 C88 1.361 . S
C87 C86 1.397 . S
C87 C91 1.390 . S
C88 C86 1.361 . S
C88 C89 1.393 . S
C88 N92 1.413 . S
C89 H82 0.930 . S
C89 C88 1.393 . S
C89 C90 1.399 . S
C90 C89 1.399 . S
C90 C91 1.381 . S
C91 H83 0.930 . S
C91 C87 1.390 . S
C91 C90 1.381 . S
N92 C85 1.286 . S
N92 C88 1.413 . S
H93 C98 0.930 . S
H94 C101 0.930 . S
H95 C103 0.930 . S
H96 C97 1.016 . S
C97 H96 1.016 . S
C97 N104 1.286 . S
C98 H93 0.930 . S
C98 C99 1.397 . S
C98 C100 1.361 1_655 S
C99 C98 1.397 . S
C99 C103 1.390 . S
C100 C98 1.361 1_455 S
C100 C101 1.393 . S
C100 N104 1.413 . S
C101 H94 0.930 . S
C101 C100 1.393 . S
C101 C102 1.399 . S
C102 C101 1.399 . S
C102 C103 1.381 1_455 S
C103 H95 0.930 . S
C103 C99 1.390 . S
C103 C102 1.381 1_655 S
N104 C97 1.286 . S
N104 C100 1.413 . S
H105 C110 0.930 . S
H106 C113 0.930 . S
H107 C115 0.930 . S
H108 C109 1.016 . S
C109 H108 1.016 . S
C109 N116 1.286 . S
C110 H105 0.930 . S
C110 C111 1.397 . S
C110 C112 1.361 . S
C111 C110 1.397 . S
C111 C115 1.390 . S
C112 C110 1.361 . S
C112 C113 1.393 1_455 S
C112 N116 1.413 1_455 S
C113 H106 0.930 . S
C113 C112 1.393 1_655 S
C113 C114 1.399 1_655 S
C114 C113 1.399 1_455 S
C114 C115 1.381 . S
C115 H107 0.930 . S
C115 C111 1.390 . S
C115 C114 1.381 . S
N116 C109 1.286 . S
N116 C112 1.413 1_655 S
H117 C122 0.930 . S
H118 C125 0.930 1_565 S
H119 C127 0.930 . S
H120 C121 1.016 . S
C121 H120 1.016 . S
C121 N128 1.286 . S
C122 H117 0.930 . S
C122 C123 1.397 . S
C122 C124 1.361 . S
C123 C122 1.397 . S
C123 C127 1.390 . S
C124 C122 1.361 . S
C124 C125 1.393 . S
C124 N128 1.413 1_545 S
C125 H118 0.930 1_545 S
C125 C124 1.393 . S
C125 C126 1.399 . S
C126 C125 1.399 . S
C126 C127 1.381 . S
C127 H119 0.930 . S
C127 C123 1.390 . S
C127 C126 1.381 . S
N128 C121 1.286 . S
N128 C124 1.413 1_565 S
H129 C134 0.930 . S
H130 C137 0.930 . S
H131 C139 0.930 . S
H132 C133 1.016 . S
C133 H132 1.016 . S
C133 N140 1.286 . S
C134 H129 0.930 . S
C134 C135 1.397 . S
C134 C136 1.361 . S
C135 C134 1.397 . S
C135 C139 1.390 . S
C136 C134 1.361 . S
C136 C137 1.393 . S
C136 N140 1.413 . S
C137 H130 0.930 . S
C137 C136 1.393 . S
C137 C138 1.399 . S
C138 C137 1.399 . S
C138 C139 1.381 . S
C139 H131 0.930 . S
C139 C135 1.390 . S
C139 C138 1.381 . S
N140 C133 1.286 . S
N140 C136 1.413 . S
C141 C142 1.369 . S
C141 C143 1.419 . S
C141 H145 0.930 . S
C142 C141 1.369 . S
C142 C151 1.429 . S
C143 C141 1.419 . S
C143 C144 1.363 . S
C143 H146 0.929 . S
C144 C143 1.363 . S
C144 C150 1.428 . S
H145 C141 0.930 . S
H146 C143 0.929 . S
S147 N148 1.613 . S
S147 N149 1.610 . S
N148 S147 1.613 . S
N148 C151 1.350 . S
N149 S147 1.610 . S
N149 C150 1.351 . S
C150 C144 1.428 . S
C150 N149 1.351 . S
C150 C151 1.434 . S
C151 C142 1.429 . S
C151 N148 1.350 . S
C151 C150 1.434 . S
C152 C153 1.369 . S
C152 C154 1.419 . S
C152 H156 0.930 . S
C153 C152 1.369 . S
C153 C162 1.429 . S
C154 C152 1.419 . S
C154 C155 1.363 . S
C154 H157 0.929 . S
C155 C154 1.363 . S
C155 C161 1.428 . S
H156 C152 0.930 . S
H157 C154 0.929 . S
S158 N159 1.613 . S
S158 N160 1.610 . S
N159 S158 1.613 . S
N159 C162 1.350 . S
N160 S158 1.610 . S
N160 C161 1.351 . S
C161 C155 1.428 . S
C161 N160 1.351 . S
C161 C162 1.434 . S
C162 C153 1.429 . S
C162 N159 1.350 . S
C162 C161 1.434 . S
C163 C164 1.369 . S
C163 C165 1.419 . S
C163 H167 0.930 . S
C164 C163 1.369 . S
C164 C173 1.429 . S
C165 C163 1.419 . S
C165 C166 1.363 . S
C165 H168 0.929 . S
C166 C165 1.363 . S
C166 C172 1.428 . S
H167 C163 0.930 . S
H168 C165 0.929 . S
S169 N170 1.613 . S
S169 N171 1.610 . S
N170 S169 1.613 . S
N170 C173 1.350 . S
N171 S169 1.610 . S
N171 C172 1.351 . S
C172 C166 1.428 . S
C172 N171 1.351 . S
C172 C173 1.434 . S
C173 C164 1.429 . S
C173 N170 1.350 . S
C173 C172 1.434 . S
C174 C175 1.369 . S
C174 C176 1.419 . S
C174 H178 0.930 . S
C175 C174 1.369 . S
C175 C184 1.429 . S
C176 C174 1.419 . S
C176 C177 1.363 . S
C176 H179 0.929 . S
C177 C176 1.363 . S
C177 C183 1.428 . S
H178 C174 0.930 . S
H179 C176 0.929 . S
S180 N181 1.613 . S
S180 N182 1.610 . S
N181 S180 1.613 . S
N181 C184 1.350 . S
N182 S180 1.610 . S
N182 C183 1.351 . S
C183 C177 1.428 . S
C183 N182 1.351 . S
C183 C184 1.434 . S
C184 C175 1.429 . S
C184 N181 1.350 . S
C184 C183 1.434 . S
C185 C186 1.369 . S
C185 C187 1.419 . S
C185 H189 0.930 . S
C186 C185 1.369 . S
C186 C195 1.429 . S
C187 C185 1.419 . S
C187 C188 1.363 . S
C187 H190 0.929 . S
C188 C187 1.363 . S
C188 C194 1.428 . S
H189 C185 0.930 . S
H190 C187 0.929 . S
S191 N192 1.613 . S
S191 N193 1.610 . S
N192 S191 1.613 . S
N192 C195 1.350 . S
N193 S191 1.610 . S
N193 C194 1.351 . S
C194 C188 1.428 . S
C194 N193 1.351 . S
C194 C195 1.434 . S
C195 C186 1.429 . S
C195 N192 1.350 . S
C195 C194 1.434 . S
C196 C197 1.369 . S
C196 C198 1.419 . S
C196 H200 0.930 . S
C197 C196 1.369 . S
C197 C206 1.429 . S
C198 C196 1.419 . S
C198 C199 1.363 . S
C198 H201 0.929 . S
C199 C198 1.363 . S
C199 C205 1.428 . S
H200 C196 0.930 . S
H201 C198 0.929 . S
S202 N203 1.613 . S
S202 N204 1.610 . S
N203 S202 1.613 . S
N203 C206 1.350 . S
N204 S202 1.610 . S
N204 C205 1.351 . S
C205 C199 1.428 . S
C205 N204 1.351 . S
C205 C206 1.434 . S
C206 C197 1.429 . S
C206 N203 1.350 . S
C206 C205 1.434 . S
C207 C208 1.369 . S
C207 C209 1.419 . S
C207 H211 0.930 . S
C208 C207 1.369 . S
C208 C217 1.429 . S
C209 C207 1.419 . S
C209 C210 1.363 . S
C209 H212 0.929 . S
C210 C209 1.363 . S
C210 C216 1.428 . S
H211 C207 0.930 . S
H212 C209 0.929 . S
S213 N214 1.613 . S
S213 N215 1.610 . S
N214 S213 1.613 . S
N214 C217 1.350 . S
N215 S213 1.610 . S
N215 C216 1.351 . S
C216 C210 1.428 . S
C216 N215 1.351 . S
C216 C217 1.434 . S
C217 C208 1.429 . S
C217 N214 1.350 . S
C217 C216 1.434 . S
C218 C219 1.369 . S
C218 C220 1.419 . S
C218 H222 0.930 . S
C219 C218 1.369 . S
C219 C228 1.429 . S
C220 C218 1.419 . S
C220 C221 1.363 . S
C220 H223 0.929 . S
C221 C220 1.363 . S
C221 C227 1.428 . S
H222 C218 0.930 . S
H223 C220 0.929 . S
S224 N225 1.613 . S
S224 N226 1.610 . S
N225 S224 1.613 . S
N225 C228 1.350 . S
N226 S224 1.610 . S
N226 C227 1.351 . S
C227 C221 1.428 . S
C227 N226 1.351 . S
C227 C228 1.434 . S
C228 C219 1.429 . S
C228 N225 1.350 . S
C228 C227 1.434 . S
C229 C230 1.369 . S
C229 C231 1.419 . S
C229 H233 0.930 . S
C230 C229 1.369 . S
C230 C239 1.429 . S
C231 C229 1.419 . S
C231 C232 1.363 . S
C231 H234 0.929 . S
C232 C231 1.363 . S
C232 C238 1.428 . S
H233 C229 0.930 . S
H234 C231 0.929 . S
S235 N236 1.613 . S
S235 N237 1.610 . S
N236 S235 1.613 . S
N236 C239 1.350 . S
N237 S235 1.610 . S
N237 C238 1.351 . S
C238 C232 1.428 . S
C238 N237 1.351 . S
C238 C239 1.434 . S
C239 C230 1.429 . S
C239 N236 1.350 . S
C239 C238 1.434 . S
C240 C241 1.369 . S
C240 C242 1.419 . S
C240 H244 0.930 . S
C241 C240 1.369 . S
C241 C250 1.429 . S
C242 C240 1.419 . S
C242 C243 1.363 . S
C242 H245 0.929 . S
C243 C242 1.363 . S
C243 C249 1.428 . S
H244 C240 0.930 . S
H245 C242 0.929 . S
S246 N247 1.613 . S
S246 N248 1.610 . S
N247 S246 1.613 . S
N247 C250 1.350 . S
N248 S246 1.610 . S
N248 C249 1.351 . S
C249 C243 1.428 . S
C249 N248 1.351 . S
C249 C250 1.434 . S
C250 C241 1.429 . S
C250 N247 1.350 . S
C250 C249 1.434 . S
C251 C252 1.369 . S
C251 C253 1.419 . S
C251 H255 0.930 . S
C252 C251 1.369 . S
C252 C261 1.429 . S
C253 C251 1.419 . S
C253 C254 1.363 . S
C253 H256 0.929 . S
C254 C253 1.363 . S
C254 C260 1.428 . S
H255 C251 0.930 . S
H256 C253 0.929 . S
S257 N258 1.613 . S
S257 N259 1.610 . S
N258 S257 1.613 . S
N258 C261 1.350 . S
N259 S257 1.610 . S
N259 C260 1.351 . S
C260 C254 1.428 . S
C260 N259 1.351 . S
C260 C261 1.434 . S
C261 C252 1.429 . S
C261 N258 1.350 . S
C261 C260 1.434 . S
C262 C263 1.369 . S
C262 C264 1.419 . S
C262 H266 0.930 . S
C263 C262 1.369 . S
C263 C272 1.429 . S
C264 C262 1.419 . S
C264 C265 1.363 . S
C264 H267 0.929 . S
C265 C264 1.363 . S
C265 C271 1.428 . S
H266 C262 0.930 . S
H267 C264 0.929 . S
S268 N269 1.613 . S
S268 N270 1.610 . S
N269 S268 1.613 . S
N269 C272 1.350 . S
N270 S268 1.610 . S
N270 C271 1.351 . S
C271 C265 1.428 . S
C271 N270 1.351 . S
C271 C272 1.434 . S
C272 C263 1.429 . S
C272 N269 1.350 . S
C272 C271 1.434 . S
C273 C274 1.369 . S
C273 C275 1.419 1_554 S
C273 H277 0.930 . S
C274 C273 1.369 . S
C274 C283 1.429 . S
C275 C273 1.419 1_556 S
C275 C276 1.363 . S
C275 H278 0.929 . S
C276 C275 1.363 . S
C276 C282 1.428 . S
H277 C273 0.930 . S
H278 C275 0.929 . S
S279 N280 1.613 . S
S279 N281 1.610 1_554 S
N280 S279 1.613 . S
N280 C283 1.350 . S
N281 S279 1.610 1_556 S
N281 C282 1.351 . S
C282 C276 1.428 . S
C282 N281 1.351 . S
C282 C283 1.434 1_556 S
C283 C274 1.429 . S
C283 N280 1.350 . S
C283 C282 1.434 1_554 S
C284 C285 1.369 . S
C284 C286 1.419 . S
C284 H288 0.930 . S
C285 C284 1.369 . S
C285 C294 1.429 1_545 S
C286 C284 1.419 . S
C286 C287 1.363 . S
C286 H289 0.929 . S
C287 C286 1.363 . S
C287 C293 1.428 1_545 S
H288 C284 0.930 . S
H289 C286 0.929 . S
S290 N291 1.613 . S
S290 N292 1.610 . S
N291 S290 1.613 . S
N291 C294 1.350 . S
N292 S290 1.610 . S
N292 C293 1.351 . S
C293 C287 1.428 1_565 S
C293 N292 1.351 . S
C293 C294 1.434 . S
C294 C285 1.429 1_565 S
C294 N291 1.350 . S
C294 C293 1.434 . S
C295 C296 1.369 . S
C295 C297 1.419 . S
C295 H299 0.930 . S
C296 C295 1.369 . S
C296 C305 1.429 . S
C297 C295 1.419 . S
C297 C298 1.363 . S
C297 H300 0.929 . S
C298 C297 1.363 . S
C298 C304 1.428 . S
H299 C295 0.930 . S
H300 C297 0.929 . S
S301 N302 1.613 . S
S301 N303 1.610 . S
N302 S301 1.613 . S
N302 C305 1.350 . S
N303 S301 1.610 . S
N303 C304 1.351 . S
C304 C298 1.428 . S
C304 N303 1.351 . S
C304 C305 1.434 . S
C305 C296 1.429 . S
C305 N302 1.350 . S
C305 C304 1.434 . S
C306 C307 1.369 . S
C306 C308 1.419 . S
C306 H310 0.930 . S
C307 C306 1.369 . S
C307 C316 1.429 1_545 S
C308 C306 1.419 . S
C308 C309 1.363 . S
C308 H311 0.929 . S
C309 C308 1.363 . S
C309 C315 1.428 1_545 S
H310 C306 0.930 . S
H311 C308 0.929 . S
S312 N313 1.613 . S
S312 N314 1.610 . S
N313 S312 1.613 . S
N313 C316 1.350 . S
N314 S312 1.610 . S
N314 C315 1.351 . S
C315 C309 1.428 1_565 S
C315 N314 1.351 . S
C315 C316 1.434 . S
C316 C307 1.429 1_565 S
C316 N313 1.350 . S
C316 C315 1.434 . S
C317 C318 1.369 . S
C317 C319 1.419 1_556 S
C317 H321 0.930 . S
C318 C317 1.369 . S
C318 C327 1.429 . S
C319 C317 1.419 1_554 S
C319 C320 1.363 . S
C319 H322 0.929 . S
C320 C319 1.363 . S
C320 C326 1.428 . S
H321 C317 0.930 . S
H322 C319 0.929 . S
S323 N324 1.613 . S
S323 N325 1.610 1_556 S
N324 S323 1.613 . S
N324 C327 1.350 . S
N325 S323 1.610 1_554 S
N325 C326 1.351 . S
C326 C320 1.428 . S
C326 N325 1.351 . S
C326 C327 1.434 1_554 S
C327 C318 1.429 . S
C327 N324 1.350 . S
C327 C326 1.434 1_556 S
C328 C329 1.369 . S
C328 C330 1.419 . S
C328 H332 0.930 . S
C329 C328 1.369 . S
C329 C338 1.429 . S
C330 C328 1.419 . S
C330 C331 1.363 . S
C330 H333 0.929 . S
C331 C330 1.363 . S
C331 C337 1.428 . S
H332 C328 0.930 . S
H333 C330 0.929 . S
S334 N335 1.613 . S
S334 N336 1.610 . S
N335 S334 1.613 . S
N335 C338 1.350 . S
N336 S334 1.610 . S
N336 C337 1.351 . S
C337 C331 1.428 . S
C337 N336 1.351 . S
C337 C338 1.434 . S
C338 C329 1.429 . S
C338 N335 1.350 . S
C338 C337 1.434 . S
C142 C20 1.522 . S
C144 C135 1.578 . S
C153 C41 1.396 . S
C155 C109 1.375 . S
C164 C64 1.420 . S
C166 C121 1.394 . S
C175 C19 1.196 . S
C177 C133 1.236 . S
C188 C111 1.428 . S
C186 C44 1.410 . S
C199 C123 1.381 . S
C197 C67 1.368 . S
C208 C43 1.351 . S
C210 C85 1.363 . S
C219 C66 1.517 . S
C221 C99 1.577 . S
C230 C21 1.378 . S
C232 C75 1.404 . S
C243 C87 1.445 . S
C241 C42 1.353 . S
C254 C97 1.243 . S
C252 C65 1.186 . S
C263 C18 1.404 . S
C265 C73 1.383 . S
C276 C102 1.537 . S
C274 C17 1.533 . S
C285 C39 1.541 . S
C287 C78 1.536 . S
C296 C62 1.537 . S
C298 C90 1.534 . S
C309 C126 1.528 . S
C307 C40 1.520 . S
C320 C138 1.537 . S
C318 C63 1.532 . S
C329 C16 1.519 . S
C331 C114 1.516 . S
