# Generated by pormake.
# Topology pyr, (3,6)-cn, num edge types: 1
# Building blocks:
#     Node 0, Type 0, BuildingBlock: MIDCAF_clean_linker_0, # of connection points: 3
#     Node 1, Type 0, BuildingBlock: MIDCAF_clean_linker_0, # of connection points: 3
#     Node 2, Type 0, BuildingBlock: MIDCAF_clean_linker_0, # of connection points: 3
#     Node 3, Type 0, BuildingBlock: MIDCAF_clean_linker_0, # of connection points: 3
#     Node 4, Type 0, BuildingBlock: MIDCAF_clean_linker_0, # of connection points: 3
#     Node 5, Type 0, BuildingBlock: MIDCAF_clean_linker_0, # of connection points: 3
#     Node 6, Type 0, BuildingBlock: MIDCAF_clean_linker_0, # of connection points: 3
#     Node 7, Type 0, BuildingBlock: MIDCAF_clean_linker_0, # of connection points: 3
#     Node 8, Type 1, BuildingBlock: BETFEN_clean_sbu_0, # of connection points: 6
#     Node 9, Type 1, BuildingBlock: BETFEN_clean_sbu_0, # of connection points: 6
#     Node 10, Type 1, BuildingBlock: BETFEN_clean_sbu_0, # of connection points: 6
#     Node 11, Type 1, BuildingBlock: BETFEN_clean_sbu_0, # of connection points: 6
#     Edge 12, Type (0, 1), BuildingBlock: AJUNOK_clean_linker_0, # of connection points: 2
#     Edge 13, Type (0, 1), BuildingBlock: AJUNOK_clean_linker_0, # of connection points: 2
#     Edge 14, Type (0, 1), BuildingBlock: AJUNOK_clean_linker_0, # of connection points: 2
#     Edge 15, Type (0, 1), BuildingBlock: AJUNOK_clean_linker_0, # of connection points: 2
#     Edge 16, Type (0, 1), BuildingBlock: AJUNOK_clean_linker_0, # of connection points: 2
#     Edge 17, Type (0, 1), BuildingBlock: AJUNOK_clean_linker_0, # of connection points: 2
#     Edge 18, Type (0, 1), BuildingBlock: AJUNOK_clean_linker_0, # of connection points: 2
#     Edge 19, Type (0, 1), BuildingBlock: AJUNOK_clean_linker_0, # of connection points: 2
#     Edge 20, Type (0, 1), BuildingBlock: AJUNOK_clean_linker_0, # of connection points: 2
#     Edge 21, Type (0, 1), BuildingBlock: AJUNOK_clean_linker_0, # of connection points: 2
#     Edge 22, Type (0, 1), BuildingBlock: AJUNOK_clean_linker_0, # of connection points: 2
#     Edge 23, Type (0, 1), BuildingBlock: AJUNOK_clean_linker_0, # of connection points: 2
#     Edge 24, Type (0, 1), BuildingBlock: AJUNOK_clean_linker_0, # of connection points: 2
#     Edge 25, Type (0, 1), BuildingBlock: AJUNOK_clean_linker_0, # of connection points: 2
#     Edge 26, Type (0, 1), BuildingBlock: AJUNOK_clean_linker_0, # of connection points: 2
#     Edge 27, Type (0, 1), BuildingBlock: AJUNOK_clean_linker_0, # of connection points: 2
#     Edge 28, Type (0, 1), BuildingBlock: AJUNOK_clean_linker_0, # of connection points: 2
#     Edge 29, Type (0, 1), BuildingBlock: AJUNOK_clean_linker_0, # of connection points: 2
#     Edge 30, Type (0, 1), BuildingBlock: AJUNOK_clean_linker_0, # of connection points: 2
#     Edge 31, Type (0, 1), BuildingBlock: AJUNOK_clean_linker_0, # of connection points: 2
#     Edge 32, Type (0, 1), BuildingBlock: AJUNOK_clean_linker_0, # of connection points: 2
#     Edge 33, Type (0, 1), BuildingBlock: AJUNOK_clean_linker_0, # of connection points: 2
#     Edge 34, Type (0, 1), BuildingBlock: AJUNOK_clean_linker_0, # of connection points: 2
#     Edge 35, Type (0, 1), BuildingBlock: AJUNOK_clean_linker_0, # of connection points: 2
# Relax obj value: 0.170
# Max RMSD: 0.259
# Mean RMSD: 0.125
data_MOF--net-pyr--node1-BETFEN_clean_sbu_0--node2-MIDCAF_clean_linker_0--edge1-AJUNOK_clean_linker_0
_symmetry_space_group_name_H-M    P1
_symmetry_Int_Tables_number       1
_symmetry_cell_setting            triclinic
loop_
_symmetry_equiv_pos_as_xyz
'x, y, z'
_cell_length_a     35.132279
_cell_length_b     39.185623
_cell_length_c     35.539493
_cell_angle_alpha  91.236863
_cell_angle_beta   98.519999
_cell_angle_gamma 110.55747
loop_
_atom_site_label
_atom_site_type_symbol
_atom_site_fract_x
_atom_site_fract_y
_atom_site_fract_z
_atom_type_partial_charge
C0 C 0.34892 0.34355 0.43771 0.0
C1 C 0.3484 0.30883 0.44739 0.0
C2 C 0.37806 0.29613 0.43617 0.0
C3 C 0.40435 0.31563 0.41198 0.0
H4 H 0.48819 0.30697 0.34691 0.0
H5 H 0.50194 0.2581 0.31449 0.0
H6 H 0.4697 0.29608 0.20552 0.0
H7 H 0.45681 0.34539 0.2376 0.0
H8 H 0.40945 0.39661 0.22982 0.0
H9 H 0.35993 0.41442 0.18693 0.0
H10 H 0.31408 0.44464 0.28364 0.0
H11 H 0.36372 0.4274 0.32675 0.0
H12 H 0.37256 0.38841 0.40397 0.0
H13 H 0.32719 0.3545 0.44696 0.0
H14 H 0.37863 0.26956 0.44335 0.0
H15 H 0.42455 0.3035 0.40158 0.0
N16 N 0.44289 0.34648 0.34899 0.0
N17 N 0.43666 0.3752 0.29254 0.0
N18 N 0.40432 0.38466 0.34279 0.0
C19 C 0.4521 0.35296 0.31344 0.0
C20 C 0.41311 0.39152 0.30713 0.0
C21 C 0.41921 0.36231 0.36404 0.0
C22 C 0.47038 0.32962 0.29485 0.0
C23 C 0.48492 0.30548 0.31607 0.0
C24 C 0.49258 0.27733 0.29755 0.0
C25 C 0.48565 0.27271 0.25752 0.0
C26 C 0.47502 0.29888 0.23644 0.0
C27 C 0.46757 0.32714 0.25492 0.0
C28 C 0.39008 0.40985 0.28181 0.0
C29 C 0.38953 0.40784 0.24212 0.0
C30 C 0.36099 0.41778 0.21746 0.0
C31 C 0.33264 0.43007 0.232 0.0
C32 C 0.3355 0.43507 0.27169 0.0
C33 C 0.36391 0.42505 0.29637 0.0
C34 C 0.40135 0.34819 0.39834 0.0
C35 C 0.37508 0.36303 0.41325 0.0
C36 C 0.19977 0.90403 0.67431 0.0
C37 C 0.19684 0.91273 0.63621 0.0
C38 C 0.21866 0.90099 0.61184 0.0
C39 C 0.2436 0.88136 0.62565 0.0
H40 H 0.33895 0.8308 0.60226 0.0
H41 H 0.37575 0.79842 0.57054 0.0
H42 H 0.36634 0.7265 0.66184 0.0
H43 H 0.3302 0.7585 0.69318 0.0
H44 H 0.39704 0.85715 0.76435 0.0
H45 H 0.43153 0.88068 0.82881 0.0
H46 H 0.31543 0.87575 0.86017 0.0
H47 H 0.28156 0.85498 0.79422 0.0
H48 H 0.22693 0.87912 0.71795 0.0
H49 H 0.18317 0.91273 0.6936 0.0
H50 H 0.21638 0.90699 0.58216 0.0
H51 H 0.2606 0.87311 0.60645 0.0
N52 N 0.28988 0.83544 0.65743 0.0
N53 N 0.33078 0.82514 0.71132 0.0
N54 N 0.29031 0.86032 0.71841 0.0
C55 C 0.31671 0.81964 0.67322 0.0
C56 C 0.3178 0.84543 0.734 0.0
C57 C 0.27619 0.85556 0.68022 0.0
C58 C 0.33188 0.79709 0.65011 0.0
C59 C 0.34386 0.80743 0.61481 0.0
C60 C 0.36503 0.78913 0.59687 0.0
C61 C 0.37348 0.75982 0.61363 0.0
C62 C 0.35957 0.74853 0.64792 0.0
C63 C 0.33913 0.76701 0.66598 0.0
C64 C 0.33672 0.85438 0.77443 0.0
C65 C 0.37876 0.86047 0.78521 0.0
C66 C 0.39845 0.87356 0.82242 0.0
C67 C 0.37618 0.87958 0.85005 0.0
C68 C 0.33355 0.87166 0.83956 0.0
C69 C 0.3141 0.85967 0.80193 0.0
C70 C 0.24745 0.87358 0.66416 0.0
C71 C 0.22495 0.88487 0.6882 0.0
C72 C 0.5854 0.23689 0.9225 0.0
C73 C 0.56901 0.20311 0.90075 0.0
C74 C 0.56469 0.20315 0.8606 0.0
C75 C 0.57867 0.23624 0.84295 0.0
H76 H 0.55746 0.34538 0.76779 0.0
H77 H 0.54325 0.38126 0.71522 0.0
H78 H 0.67127 0.41814 0.70199 0.0
H79 H 0.68548 0.38348 0.75471 0.0
H80 H 0.74334 0.41883 0.84293 0.0
H81 H 0.80969 0.45279 0.88301 0.0
H82 H 0.77964 0.37574 0.96873 0.0
H83 H 0.7136 0.34226 0.92955 0.0
H84 H 0.61324 0.29493 0.92311 0.0
H85 H 0.58852 0.238 0.95334 0.0
H86 H 0.55238 0.17758 0.84297 0.0
H87 H 0.57726 0.23537 0.81228 0.0
N88 N 0.60927 0.31522 0.81476 0.0
N89 N 0.67091 0.36691 0.82444 0.0
N90 N 0.65806 0.32494 0.87072 0.0
C91 C 0.63424 0.347 0.80229 0.0
C92 C 0.68298 0.35615 0.8587 0.0
C93 C 0.62153 0.30416 0.84935 0.0
C94 C 0.62264 0.36168 0.76567 0.0
C95 C 0.58225 0.36039 0.75293 0.0
C96 C 0.57415 0.38098 0.72272 0.0
C97 C 0.6062 0.40291 0.70435 0.0
C98 C 0.64593 0.40212 0.7157 0.0
C99 C 0.65403 0.38203 0.74591 0.0
C100 C 0.72292 0.3778 0.88296 0.0
C101 C 0.75068 0.40934 0.8705 0.0
C102 C 0.78867 0.42883 0.89341 0.0
C103 C 0.79946 0.41743 0.92936 0.0
C104 C 0.77173 0.38595 0.94173 0.0
C105 C 0.73394 0.36649 0.91895 0.0
C106 C 0.59728 0.2698 0.86519 0.0
C107 C 0.59926 0.2696 0.90505 0.0
C108 C 0.79008 0.62658 0.43592 0.0
C109 C 0.75298 0.59993 0.4177 0.0
C110 C 0.75075 0.58736 0.37962 0.0
C111 C 0.78396 0.60292 0.35965 0.0
H112 H 0.87737 0.58641 0.28614 0.0
H113 H 0.90113 0.56043 0.23491 0.0
H114 H 0.97223 0.66899 0.20904 0.0
H115 H 0.94879 0.69505 0.26011 0.0
H116 H 0.98108 0.74807 0.3873 0.0
H117 H 1.00744 0.80906 0.42092 0.0
H118 H 0.89344 0.824 0.37656 0.0
H119 H 0.86639 0.76197 0.34573 0.0
H120 H 0.85016 0.66362 0.43101 0.0
H121 H 0.79351 0.63614 0.4655 0.0
H122 H 0.7227 0.56666 0.36478 0.0
H123 H 0.78067 0.59397 0.32991 0.0
N124 N 0.86527 0.63821 0.32716 0.0
N125 N 0.91543 0.69592 0.32129 0.0
N126 N 0.87176 0.68947 0.36668 0.0
C127 C 0.89673 0.65943 0.30949 0.0
C128 C 0.90272 0.71102 0.34974 0.0
C129 C 0.85292 0.65322 0.35608 0.0
C130 C 0.91087 0.64307 0.27767 0.0
C131 C 0.89796 0.60489 0.26953 0.0
C132 C 0.91174 0.58988 0.24011 0.0
C133 C 0.93837 0.61246 0.21729 0.0
C134 C 0.95121 0.65059 0.22536 0.0
C135 C 0.93788 0.66559 0.25504 0.0
C136 C 0.9219 0.75043 0.36349 0.0
C137 C 0.96202 0.76471 0.38438 0.0
C138 C 0.97699 0.79975 0.4038 0.0
C139 C 0.95244 0.82175 0.40249 0.0
C140 C 0.9129 0.80779 0.37991 0.0
C141 C 0.89763 0.77243 0.36137 0.0
C142 C 0.81991 0.63144 0.37741 0.0
C143 C 0.82276 0.64223 0.41609 0.0
C144 C 0.58552 0.77252 0.79919 0.0
C145 C 0.581 0.76948 0.83771 0.0
C146 C 0.58176 0.73766 0.85479 0.0
C147 C 0.59013 0.71079 0.83469 0.0
H148 H 0.66358 0.6528 0.86366 0.0
H149 H 0.71274 0.63325 0.90511 0.0
H150 H 0.74295 0.58878 0.80634 0.0
H151 H 0.69379 0.60787 0.76486 0.0
H152 H 0.69836 0.65593 0.69136 0.0
H153 H 0.74703 0.69052 0.6514 0.0
H154 H 0.69643 0.77618 0.65261 0.0
H155 H 0.64699 0.74139 0.69116 0.0
H156 H 0.59907 0.74991 0.74998 0.0
H157 H 0.5858 0.79693 0.78533 0.0
H158 H 0.57791 0.73442 0.88436 0.0
H159 H 0.59276 0.6876 0.84941 0.0
N160 N 0.63019 0.66858 0.79976 0.0
N161 N 0.66339 0.65878 0.75031 0.0
N162 N 0.62685 0.69857 0.74374 0.0
C163 C 0.65339 0.65165 0.78554 0.0
C164 C 0.65017 0.68209 0.7291 0.0
C165 C 0.61632 0.69176 0.77882 0.0
C166 C 0.67509 0.63231 0.81083 0.0
C167 C 0.6797 0.63784 0.85077 0.0
C168 C 0.70799 0.62683 0.87456 0.0
C169 C 0.73165 0.60961 0.85891 0.0
C170 C 0.72474 0.60157 0.81923 0.0
C171 C 0.69673 0.61276 0.79544 0.0
C172 C 0.66971 0.69646 0.69566 0.0
C173 C 0.69673 0.68162 0.68214 0.0
C174 C 0.72484 0.70153 0.65947 0.0
C175 C 0.72662 0.73668 0.65026 0.0
C176 C 0.69616 0.74933 0.65963 0.0
C177 C 0.66783 0.72934 0.68195 0.0
C178 C 0.59789 0.71522 0.79705 0.0
C179 C 0.59352 0.74555 0.77898 0.0
C180 C 0.73527 0.15928 0.24222 0.0
C181 C 0.70615 0.17344 0.22452 0.0
C182 C 0.6979 0.20054 0.24471 0.0
C183 C 0.71599 0.21122 0.2828 0.0
H184 H 0.66369 0.2117 0.38006 0.0
H185 H 0.62352 0.23947 0.41111 0.0
H186 H 0.72321 0.28088 0.50642 0.0
H187 H 0.76409 0.25263 0.47503 0.0
H188 H 0.8003 0.16661 0.47214 0.0
H189 H 0.84416 0.133 0.49799 0.0
H190 H 0.89383 0.14079 0.39315 0.0
H191 H 0.85086 0.17453 0.36749 0.0
H192 H 0.77424 0.15722 0.29363 0.0
H193 H 0.7417 0.13788 0.22761 0.0
H194 H 0.67578 0.21207 0.23159 0.0
H195 H 0.70741 0.23086 0.29813 0.0
N196 N 0.73452 0.21463 0.36467 0.0
N197 N 0.77135 0.20383 0.42102 0.0
N198 N 0.78402 0.18819 0.36107 0.0
C199 C 0.74231 0.21643 0.40335 0.0
C200 C 0.79246 0.18973 0.39977 0.0
C201 C 0.75529 0.20075 0.34331 0.0
C202 C 0.71718 0.23023 0.42502 0.0
C203 C 0.67702 0.2263 0.40787 0.0
C204 C 0.65376 0.24187 0.42583 0.0
C205 C 0.6701 0.26194 0.46133 0.0
C206 C 0.70991 0.26527 0.47912 0.0
C207 C 0.73316 0.2491 0.46127 0.0
C208 C 0.82185 0.17306 0.41766 0.0
C209 C 0.82096 0.16154 0.45482 0.0
C210 C 0.84566 0.14197 0.46946 0.0
C211 C 0.87183 0.13384 0.44727 0.0
C212 C 0.87384 0.14659 0.41079 0.0
C213 C 0.8491 0.16586 0.39612 0.0
C214 C 0.7428 0.19506 0.30139 0.0
C215 C 0.75366 0.17018 0.28023 0.0
C216 C 0.29193 0.62054 0.17698 0.0
C217 C 0.27321 0.63751 0.14942 0.0
C218 C 0.29287 0.67495 0.14559 0.0
C219 C 0.3301 0.69508 0.16895 0.0
H220 H 0.41109 0.80508 0.21926 0.0
H221 H 0.43755 0.86097 0.18743 0.0
H222 H 0.55288 0.84413 0.18957 0.0
H223 H 0.52644 0.78841 0.22292 0.0
H224 H 0.51639 0.70926 0.30913 0.0
H225 H 0.53244 0.67372 0.36135 0.0
H226 H 0.40466 0.63394 0.37572 0.0
H227 H 0.38866 0.66787 0.32308 0.0
H228 H 0.34272 0.62694 0.22165 0.0
H229 H 0.27799 0.59155 0.18008 0.0
H230 H 0.27908 0.6889 0.12489 0.0
H231 H 0.34404 0.72395 0.16526 0.0
N232 N 0.40993 0.7343 0.21322 0.0
N233 N 0.46114 0.74113 0.2667 0.0
N234 N 0.40251 0.68693 0.25343 0.0
C235 C 0.44624 0.75493 0.23507 0.0
C236 C 0.43872 0.70696 0.27618 0.0
C237 C 0.3881 0.70023 0.22176 0.0
C238 C 0.46683 0.79253 0.22398 0.0
C239 C 0.44257 0.81389 0.21395 0.0
C240 C 0.4576 0.84576 0.19527 0.0
C241 C 0.49728 0.85714 0.18552 0.0
C242 C 0.5224 0.83664 0.19709 0.0
C243 C 0.50738 0.80473 0.21632 0.0
C244 C 0.45121 0.69116 0.31168 0.0
C245 C 0.49203 0.69345 0.32402 0.0
C246 C 0.50119 0.67315 0.35411 0.0
C247 C 0.46979 0.65066 0.37285 0.0
C248 C 0.42955 0.65033 0.36171 0.0
C249 C 0.42039 0.66997 0.33152 0.0
C250 C 0.34862 0.67837 0.19696 0.0
C251 C 0.32913 0.6408 0.20067 0.0
C252 C 0.15121 0.25512 0.65545 0.0
C253 C 0.12199 0.22785 0.67186 0.0
C254 C 0.10894 0.23827 0.70459 0.0
C255 C 0.12531 0.27482 0.72072 0.0
H256 H 0.12709 0.35356 0.81194 0.0
H257 H 0.10298 0.37825 0.86363 0.0
H258 H 0.17606 0.4877 0.84199 0.0
H259 H 0.2003 0.46318 0.79028 0.0
H260 H 0.29425 0.46039 0.74397 0.0
H261 H 0.35279 0.48943 0.71051 0.0
H262 H 0.28614 0.41936 0.60889 0.0
H263 H 0.22882 0.39039 0.64196 0.0
H264 H 0.18991 0.31101 0.65737 0.0
H265 H 0.16107 0.24873 0.62959 0.0
H266 H 0.08625 0.21806 0.71794 0.0
H267 H 0.11479 0.28173 0.74596 0.0
N268 N 0.16191 0.35472 0.75068 0.0
N269 N 0.21145 0.4134 0.74666 0.0
N270 N 0.20446 0.36426 0.70411 0.0
C271 C 0.18033 0.39097 0.76394 0.0
C272 C 0.2235 0.4 0.71649 0.0
C273 C 0.17401 0.3412 0.72057 0.0
C274 C 0.16598 0.40613 0.79651 0.0
C275 C 0.13831 0.38292 0.81815 0.0
C276 C 0.1246 0.39714 0.84818 0.0
C277 C 0.13773 0.43513 0.85757 0.0
C278 C 0.16513 0.45835 0.8358 0.0
C279 C 0.17922 0.44415 0.80606 0.0
C280 C 0.25681 0.42276 0.69591 0.0
C281 C 0.29188 0.45178 0.71428 0.0
C282 C 0.32544 0.4684 0.69504 0.0
C283 C 0.32448 0.45653 0.65694 0.0
C284 C 0.28848 0.42885 0.6383 0.0
C285 C 0.25539 0.41228 0.65738 0.0
C286 C 0.15505 0.30194 0.70441 0.0
C287 C 0.1675 0.29129 0.67143 0.0
Pr288 Pr 1.00461 1.00603 0.56428 0.0
Pr289 Pr 0.06291 0.03919 0.5213 0.0
C290 C 0.95271 0.96431 0.60836 0.0
C291 C 0.92425 0.927 0.61095 0.0
C292 C 0.91692 0.91511 0.64692 0.0
C293 C 0.88761 0.88085 0.6501 0.0
C294 C 0.86535 0.85773 0.61729 0.0
C295 C 0.87324 0.8695 0.58121 0.0
C296 C 0.90257 0.90392 0.57811 0.0
C297 C 0.04657 0.08 0.59322 0.0
C298 C 0.09142 0.99345 0.58223 0.0
C299 C 0.11768 0.08345 0.48144 0.0
C300 C 0.1514 0.1193 0.4857 0.0
C301 C 0.19029 0.12105 0.4788 0.0
C302 C 0.22215 0.15474 0.47988 0.0
C303 C 0.21558 0.18733 0.48756 0.0
C304 C 0.1771 0.18563 0.49583 0.0
C305 C 0.14522 0.15182 0.49504 0.0
C306 C 1.02163 0.96566 0.49092 0.0
C307 C 0.97493 0.05118 0.50253 0.0
O308 O 0.9417 0.98252 0.58129 0.0
O309 O 0.992 0.96982 0.61354 0.0
O310 O 0.06415 0.05884 0.58338 0.0
O311 O 1.00719 0.06325 0.58805 0.0
O312 O 0.10542 0.02647 0.5709 0.0
O313 O 0.05143 0.97561 0.57608 0.0
O314 O 0.12463 0.05793 0.50103 0.0
O315 O 0.08009 0.08286 0.47974 0.0
O316 O 1.00344 0.986 0.50184 0.0
O317 O 0.06084 0.98322 0.49541 0.0
O318 O 0.96063 1.01932 0.51642 0.0
O319 O 1.015 0.06804 0.50642 0.0
H320 H 0.93311 0.93277 0.67258 0.0
H321 H 0.88138 0.87299 0.67824 0.0
H322 H 0.85638 0.85232 0.5555 0.0
H323 H 0.90769 0.91291 0.55017 0.0
H324 H 0.19573 0.09631 0.47158 0.0
H325 H 0.25145 0.15539 0.47306 0.0
H326 H 0.17148 0.21045 0.50206 0.0
H327 H 0.11562 0.15123 0.5009 0.0
Pr328 Pr 0.50253 0.03216 0.0514 0.0
Pr329 Pr 0.57091 1.02137 1.02618 0.0
C330 C 0.45194 0.04697 0.09374 0.0
C331 C 0.45598 0.07882 0.11928 0.0
C332 C 0.44972 0.10972 0.10429 0.0
C333 C 0.45635 0.14067 0.12826 0.0
C334 C 0.46906 0.14128 0.16771 0.0
C335 C 0.47481 0.11031 0.18283 0.0
C336 C 0.46816 0.07932 0.15887 0.0
C337 C 0.52704 0.07529 0.99076 0.0
C338 C 0.59732 0.08419 0.09258 0.0
C339 C 0.62148 1.00565 0.98485 0.0
C340 C 0.61787 0.97096 0.96511 0.0
C341 C 0.60606 0.93825 0.98335 0.0
C342 C 0.59838 0.9049 0.96324 0.0
C343 C 0.6016 0.9036 0.92441 0.0
C344 C 0.61374 0.93627 0.90622 0.0
C345 C 0.62192 0.96974 0.92648 0.0
C346 C 0.54596 0.97803 0.08646 0.0
C347 C 0.47593 0.96934 0.9846 0.0
O348 O 0.47502 0.02816 0.10552 0.0
O349 O 0.44989 0.0514 0.05725 0.0
O350 O 0.55137 0.07163 1.01911 0.0
O351 O 0.48914 0.05583 0.99295 0.0
O352 O 0.61 0.07567 0.06206 0.0
O353 O 0.5589 0.06737 0.09732 0.0
O354 O 0.59439 1.01972 0.97046 0.0
O355 O 0.62756 1.00754 1.02216 0.0
O356 O 0.52187 0.98184 0.05802 0.0
O357 O 0.58397 0.99733 0.08452 0.0
O358 O 0.46193 0.97989 1.01316 0.0
O359 O 0.51501 0.98397 0.9811 0.0
H360 H 0.44015 0.11025 0.07397 0.0
H361 H 0.45129 0.1641 0.11599 0.0
H362 H 0.48499 0.11024 0.21312 0.0
H363 H 0.4732 0.05595 0.17131 0.0
H364 H 0.60186 0.93827 1.01295 0.0
H365 H 0.58897 0.87999 0.97776 0.0
H366 H 0.61695 0.93589 0.87639 0.0
H367 H 0.63052 0.99459 0.91178 0.0
Pr368 Pr 0.55918 0.56719 0.56598 0.0
Pr369 Pr 0.52112 0.48907 0.51252 0.0
C370 C 0.57292 0.63583 0.59269 0.0
C371 C 0.5476 0.65866 0.58696 0.0
C372 C 0.5556 0.68911 0.61234 0.0
C373 C 0.52782 0.70754 0.61026 0.0
C374 C 0.49163 0.69559 0.58283 0.0
C375 C 0.4849 0.6662 0.55622 0.0
C376 C 0.51246 0.64765 0.55852 0.0
C377 C 0.58297 0.51288 0.60304 0.0
C378 C 0.4658 0.50675 0.57421 0.0
C379 C 0.50572 0.42024 0.48487 0.0
C380 C 0.52705 0.39409 0.48922 0.0
C381 C 0.51464 0.36359 0.46294 0.0
C382 C 0.53688 0.34018 0.46459 0.0
C383 C 0.57199 0.34694 0.49264 0.0
C384 C 0.58408 0.37739 0.51928 0.0
C385 C 0.5618 0.40085 0.51753 0.0
C386 C 0.49677 0.54296 0.47547 0.0
C387 C 0.61356 0.5509 0.50279 0.0
O388 O 0.58725 0.62839 0.56279 0.0
O389 O 0.5579 0.60734 0.61183 0.0
O390 O 0.56166 0.5099 0.5705 0.0
O391 O 0.59585 0.54676 0.61674 0.0
O392 O 0.47263 0.48132 0.55386 0.0
O393 O 0.49067 0.54153 0.5776 0.0
O394 O 0.49141 0.42786 0.51469 0.0
O395 O 0.52358 0.44902 0.46719 0.0
O396 O 0.51842 0.54626 0.50793 0.0
O397 O 0.48395 0.50904 0.46197 0.0
O398 O 0.60699 0.57554 0.52442 0.0
O399 O 0.58912 0.51589 0.49895 0.0
H400 H 0.58235 0.69765 0.63473 0.0
H401 H 0.53357 0.72998 0.63128 0.0
H402 H 0.45759 0.65676 0.53448 0.0
H403 H 0.50547 0.62379 0.53907 0.0
H404 H 0.48856 0.3586 0.44036 0.0
H405 H 0.52755 0.31761 0.44294 0.0
H406 H 0.61116 0.38338 0.54098 0.0
H407 H 0.5723 0.42476 0.53759 0.0
Pr408 Pr 0.03318 0.55145 1.01169 0.0
Pr409 Pr 0.04131 0.49472 0.06333 0.0
C410 C 1.00477 0.59553 0.96808 0.0
C411 C 0.96398 0.59835 0.95852 0.0
C412 C 0.95909 0.62646 0.93701 0.0
C413 C 0.91978 0.62755 0.92541 0.0
C414 C 0.8848 0.60039 0.93499 0.0
C415 C 0.88998 0.57283 0.95754 0.0
C416 C 0.92933 0.57184 0.96926 0.0
C417 C 0.11276 0.57002 0.05341 0.0
C418 C 1.00184 0.55052 0.09701 0.0
C419 C 0.06674 0.44903 0.10713 0.0
C420 C 0.10664 0.44517 0.1192 0.0
C421 C 0.10857 0.41499 0.1386 0.0
C422 C 0.14675 0.41251 0.15255 0.0
C423 C 0.18349 0.44028 0.14732 0.0
C424 C 0.1814 0.47026 0.12733 0.0
C425 C 0.14318 0.47255 0.11309 0.0
C426 C 0.96177 0.47744 1.0224 0.0
C427 C 0.07376 0.49619 0.97833 0.0
O428 O 1.00757 0.56542 0.95453 0.0
O429 O 1.02312 0.60508 1.00347 0.0
O430 O 0.07973 0.55563 0.06625 0.0
O431 O 0.10545 0.57786 1.01839 0.0
O432 O 1.0236 0.52984 0.10733 0.0
O433 O 0.99571 0.55758 0.06075 0.0
O434 O 0.0635 0.47888 0.12079 0.0
O435 O 0.05098 0.44085 0.07098 0.0
O436 O 0.99461 0.49058 1.00899 0.0
O437 O 0.9691 0.47026 0.0576 0.0
O438 O 0.05262 0.5174 0.96802 0.0
O439 O 0.07913 0.48852 1.01448 0.0
H440 H 0.98553 0.64707 0.92849 0.0
H441 H 0.91658 0.64899 0.90791 0.0
H442 H 0.86362 0.5519 0.96578 0.0
H443 H 0.93268 0.54999 0.98604 0.0
H444 H 0.08061 0.39375 0.14368 0.0
H445 H 0.14759 0.38947 0.1685 0.0
H446 H 0.20929 0.49201 0.12301 0.0
H447 H 0.14212 0.49599 0.09796 0.0
C448 C 0.32082 0.26094 0.49205 0.0
C449 C 0.31346 0.28319 0.46341 0.0
C450 C 0.28853 0.23111 0.50154 0.0
C451 C 0.24774 0.22269 0.48293 0.0
H452 H 0.35202 0.26558 0.50592 0.0
H453 H 0.29571 0.21361 0.52243 0.0
S454 S 0.21175 0.27274 0.40674 0.0
N455 N 0.26196 0.29509 0.41725 0.0
N456 N 0.20141 0.23945 0.43564 0.0
C457 C 0.23961 0.2458 0.45579 0.0
C458 C 0.27244 0.276 0.44591 0.0
C459 C 0.38807 0.92647 0.90374 0.0
C460 C 0.39824 0.89801 0.88817 0.0
C461 C 0.41207 0.94813 0.93659 0.0
C462 C 0.44751 0.94257 0.95447 0.0
H463 H 0.36265 0.93341 0.88942 0.0
H464 H 0.40423 0.97071 0.9467 0.0
S465 S 0.48436 0.86876 0.92935 0.0
N466 N 0.44319 0.86247 0.89686 0.0
N467 N 0.48977 0.90498 0.95724 0.0
C468 C 0.45707 0.91334 0.94061 0.0
C469 C 0.43205 0.89059 0.90779 0.0
C470 C 0.62823 0.46565 0.68015 0.0
C471 C 0.5999 0.42935 0.67622 0.0
C472 C 0.62295 0.49181 0.65553 0.0
C473 C 0.58935 0.48297 0.62546 0.0
H474 H 0.6543 0.47435 0.70321 0.0
H475 H 0.64522 0.51947 0.66053 0.0
S476 S 0.50614 0.39204 0.60225 0.0
N477 N 0.53703 0.38591 0.63914 0.0
N478 N 0.52684 0.43534 0.59345 0.0
C479 C 0.56096 0.44677 0.62077 0.0
C480 C 0.56622 0.41999 0.64602 0.0
C481 C 0.96972 0.56859 0.19258 0.0
C482 C 0.95325 0.59639 0.18575 0.0
C483 C 0.98507 0.55403 0.16396 0.0
C484 C 0.9842 0.56604 0.1267 0.0
H485 H 0.97155 0.55843 0.22063 0.0
H486 H 0.99781 0.53311 0.17127 0.0
S487 S 0.94196 0.63682 0.093 0.0
N488 N 0.93571 0.63435 0.13814 0.0
N489 N 0.96384 0.60702 0.08463 0.0
C490 C 0.96698 0.59332 0.11928 0.0
C491 C 0.95182 0.60845 0.14859 0.0
C492 C 0.50471 0.24069 0.20561 0.0
C493 C 0.48489 0.2388 0.23752 0.0
C494 C 0.50024 0.20894 0.18368 0.0
C495 C 0.47578 0.1742 0.19289 0.0
H496 H 0.52324 0.26695 0.19717 0.0
H497 H 0.51566 0.2116 0.15907 0.0
S498 S 0.41628 0.15445 0.27276 0.0
N499 N 0.43927 0.19935 0.27678 0.0
N500 N 0.43111 0.13975 0.23564 0.0
C501 C 0.45637 0.17186 0.22506 0.0
C502 C 0.46087 0.20415 0.24736 0.0
C503 C 0.12943 0.92204 0.62735 0.0
C504 C 0.17089 0.93403 0.6223 0.0
C505 C 0.10426 0.94185 0.61489 0.0
C506 C 0.11975 0.97468 0.59739 0.0
H507 H 0.11622 0.89687 0.64061 0.0
H508 H 0.07235 0.93119 0.61891 0.0
S509 S 0.22699 1.0185 0.57905 0.0
N510 N 0.22682 0.98109 0.59967 0.0
N511 N 0.17971 1.01864 0.57637 0.0
C512 C 0.16146 0.98732 0.59279 0.0
C513 C 0.18695 0.96686 0.60513 0.0
C514 C 0.87641 0.44571 0.93655 0.0
C515 C 0.8405 0.43679 0.95311 0.0
C516 C 0.91565 0.46001 0.95907 0.0
C517 C 0.92033 0.46548 0.99898 0.0
H518 H 0.87426 0.4403 0.90608 0.0
H519 H 0.94242 0.46554 0.94524 0.0
S520 S 0.83647 0.4524 0.05561 0.0
N521 N 0.81237 0.43903 1.01131 0.0
N522 N 0.88615 0.46493 0.05367 0.0
C523 C 0.88484 0.45853 1.01571 0.0
C524 C 0.8449 0.4444 0.99274 0.0
C525 C 0.69396 0.54995 0.44023 0.0
C526 C 0.71652 0.58736 0.43822 0.0
C527 C 0.66104 0.5383 0.46122 0.0
C528 C 0.64913 0.56355 0.48106 0.0
H529 H 0.70229 0.52949 0.42605 0.0
H530 H 0.645 0.50921 0.46205 0.0
S531 S 0.69572 0.66485 0.48141 0.0
N532 N 0.7225 0.64954 0.45553 0.0
N533 N 0.66162 0.62814 0.49483 0.0
C534 C 0.67097 0.60109 0.47835 0.0
C535 C 0.70427 0.61282 0.45702 0.0
C536 C 0.28786 0.46588 0.21038 0.0
C537 C 0.29748 0.43418 0.20634 0.0
C538 C 0.25177 0.46831 0.18977 0.0
C539 C 0.22381 0.43891 0.16486 0.0
H540 H 0.3079 0.48858 0.23028 0.0
H541 H 0.24484 0.49273 0.19459 0.0
S542 S 0.23567 0.35071 0.14263 0.0
N543 N 0.27687 0.37337 0.17439 0.0
N544 N 0.2092 0.37812 0.13554 0.0
C545 C 0.23375 0.40762 0.15955 0.0
C546 C 0.27059 0.40523 0.18029 0.0
C547 C 0.58698 0.16478 0.95151 0.0
C548 C 0.5586 0.16849 0.92079 0.0
C549 C 0.57716 0.13405 0.97304 0.0
C550 C 0.53832 0.10576 0.96511 0.0
H551 H 0.61703 0.1861 0.95929 0.0
H552 H 0.59985 0.133 0.99677 0.0
S553 S 0.45354 0.1011 0.8867 0.0
N554 N 0.49047 0.14033 0.88277 0.0
N555 N 0.47191 0.08271 0.92309 0.0
C556 C 0.51006 0.10856 0.93378 0.0
C557 C 0.52022 0.13979 0.91166 0.0
C558 C 1.01022 0.88132 0.42775 0.0
C559 C 0.96834 0.8589 0.42452 0.0
C560 C 1.02653 0.91549 0.44895 0.0
C561 C 1.00185 0.92956 0.4677 0.0
H562 H 1.03085 0.87256 0.41359 0.0
H563 H 0.05907 0.93109 0.45049 0.0
S564 S 0.89028 0.88248 0.46897 0.0
N565 N 0.90259 0.8535 0.4433 0.0
N566 N 0.93306 0.91848 0.48127 0.0
C567 C 0.95981 0.90797 0.46436 0.0
C568 C 0.94316 0.87264 0.44326 0.0
C569 C 0.44066 0.76525 0.59414 0.0
C570 C 0.40041 0.74313 0.59827 0.0
C571 C 0.46971 0.7497 0.58758 0.0
C572 C 0.45933 0.71154 0.58455 0.0
H573 H 0.45044 0.79475 0.59818 0.0
H574 H 0.50086 0.76765 0.58604 0.0
S575 S 0.35703 0.64182 0.59047 0.0
N576 N 0.35082 0.68134 0.59634 0.0
N577 N 0.4054 0.65204 0.5845 0.0
C578 C 0.41856 0.68916 0.58672 0.0
C579 C 0.38911 0.70499 0.59347 0.0
C580 C 0.75832 0.7856 0.60797 0.0
C581 C 0.76325 0.76256 0.63666 0.0
C582 C 0.79204 0.81513 0.60019 0.0
C583 C 0.83184 0.82277 0.62096 0.0
H584 H 0.7279 0.7817 0.59259 0.0
H585 H 0.78648 0.83327 0.57928 0.0
S586 S 0.86209 0.76881 0.69626 0.0
N587 N 0.81172 0.74818 0.68419 0.0
N588 N 0.87505 0.80297 0.66863 0.0
C589 C 0.83763 0.79864 0.64796 0.0
C590 C 0.80337 0.76867 0.65598 0.0
C591 C 0.6367 0.14371 0.18533 0.0
C592 C 0.67975 0.15577 0.18782 0.0
C593 C 0.61044 0.12186 0.15364 0.0
C594 C 0.62614 0.11112 0.12309 0.0
H595 H 0.62308 0.14967 0.20891 0.0
H596 H 0.57754 0.1124 0.1538 0.0
S597 S 0.73666 0.13927 0.11374 0.0
N598 N 0.73703 0.15845 0.1557 0.0
N599 N 0.68764 0.11696 0.09589 0.0
C600 C 0.66914 0.12468 0.12421 0.0
C601 C 0.69595 0.14701 0.15668 0.0
C602 C 0.44925 0.5885 0.39842 0.0
C603 C 0.47729 0.62488 0.40132 0.0
C604 C 0.45533 0.56297 0.42346 0.0
C605 C 0.48959 0.57245 0.4529 0.0
H606 H 0.4227 0.57923 0.37585 0.0
H607 H 0.43318 0.53523 0.41924 0.0
S608 S 0.57263 0.66372 0.47334 0.0
N609 N 0.54071 0.66908 0.43683 0.0
N610 N 0.55256 0.62065 0.48314 0.0
C611 C 0.51783 0.60868 0.45654 0.0
C612 C 0.51166 0.63489 0.43091 0.0
C613 C 0.10737 0.47942 0.88312 0.0
C614 C 0.12235 0.4506 0.88924 0.0
C615 C 0.09205 0.49386 0.91185 0.0
C616 C 0.09142 0.48071 0.94858 0.0
H617 H 0.10678 0.4906 0.85552 0.0
H618 H 0.08057 0.51566 0.90504 0.0
S619 S 0.129 0.40664 0.9804 0.0
N620 N 0.13661 0.41023 0.93566 0.0
N621 N 0.10847 0.43731 0.98937 0.0
C622 C 0.10699 0.45228 0.95531 0.0
C623 C 0.12214 0.43728 0.92585 0.0
C624 C 0.60917 0.81291 0.89604 0.0
C625 C 0.58162 0.80151 0.86124 0.0
C626 C 0.61468 0.84556 0.91671 0.0
C627 C 0.59317 0.86819 0.90318 0.0
H628 H 0.62792 0.79725 0.90669 0.0
H629 H 0.637 0.85379 0.94284 0.0
S630 S 0.51372 0.84883 0.81641 0.0
N631 N 0.52959 0.81382 0.81619 0.0
N632 N 0.5408 0.87579 0.85479 0.0
C633 C 0.56443 0.85661 0.86926 0.0
C634 C 0.55845 0.82313 0.84836 0.0
C635 C 0.93941 0.12493 0.45978 0.0
C636 C 0.89708 0.112 0.46162 0.0
C637 C 0.96394 0.1046 0.47227 0.0
C638 C 0.94711 0.07037 0.48693 0.0
H639 H 0.95382 0.15122 0.44896 0.0
H640 H 0.99651 0.11612 0.47069 0.0
S641 S 0.83715 0.02349 0.49581 0.0
N642 N 0.83882 0.06235 0.47773 0.0
N643 N 0.88486 0.024 0.50144 0.0
C644 C 0.90456 0.05682 0.48833 0.0
C645 C 0.8796 0.07771 0.47573 0.0
C646 C 0.22724 0.62154 0.08557 0.0
C647 C 0.23289 0.6169 0.12494 0.0
C648 C 0.18855 0.60539 0.06243 0.0
C649 C 0.15394 0.58413 0.07778 0.0
H650 H 0.25286 0.63823 0.07259 0.0
H651 H 0.18563 0.61032 1.03245 0.0
S652 S 0.15251 0.56193 0.17874 0.0
N653 N 0.20074 0.58831 0.17796 0.0
N654 N 0.12816 0.55779 0.13449 0.0
C655 C 0.15939 0.5782 0.11683 0.0
C656 C 0.19883 0.59458 0.14038 0.0
C657 C 0.37314 0.44597 0.61643 0.0
C658 C 0.36116 0.47075 0.63678 0.0
C659 C 0.40639 0.4579 0.5962 0.0
C660 C 0.42956 0.49534 0.59514 0.0
H661 H 0.35682 0.41681 0.61637 0.0
H662 H 0.41411 0.43733 0.58153 0.0
S663 S 0.4102 0.5719 0.64254 0.0
N664 N 0.3747 0.53478 0.65377 0.0
N665 N 0.43722 0.55737 0.61612 0.0
C666 C 0.41788 0.52057 0.61533 0.0
C667 C 0.38388 0.50829 0.63605 0.0
C668 C 0.79729 0.63468 0.90541 0.0
C669 C 0.76724 0.60455 0.88295 0.0
C670 C 0.83462 0.63266 0.9234 0.0
C671 C 0.84311 0.60035 0.91988 0.0
H672 H 0.79281 0.6606 0.90753 0.0
H673 H 0.85751 0.65689 0.93935 0.0
S674 S 0.77307 0.51291 0.86693 0.0
N675 N 0.74712 0.54078 0.86034 0.0
N676 N 0.81748 0.53693 0.89396 0.0
C677 C 0.81248 0.56947 0.89908 0.0
C678 C 0.77454 0.57162 0.8806 0.0
C679 C 0.48308 0.8919 0.12941 0.0
C680 C 0.51066 0.88876 0.1612 0.0
C681 C 0.49441 0.92104 0.1059 0.0
C682 C 0.53397 0.94834 0.1129 0.0
H683 H 0.45248 0.87129 0.1222 0.0
H684 H 0.47212 0.92181 0.08167 0.0
S685 S 0.61712 0.95451 0.19356 0.0
N686 N 0.57884 0.91686 0.19927 0.0
N687 N 0.60037 0.97113 0.15488 0.0
C688 C 0.56175 0.94587 0.14478 0.0
C689 C 0.55013 0.91624 0.16885 0.0
C690 C 0.06117 0.17024 0.64751 0.0
C691 C 0.10408 0.18925 0.65359 0.0
C692 C 0.04327 0.13514 0.62815 0.0
C693 C 0.06735 0.11711 0.61413 0.0
H694 H 0.04101 0.18295 0.65694 0.0
H695 H 1.01003 0.12214 0.62394 0.0
S696 S 0.18136 0.15389 0.62376 0.0
N697 N 0.17045 0.18643 0.645 0.0
N698 N 0.13667 0.12084 0.60842 0.0
C699 C 0.11033 0.13547 0.62041 0.0
C700 C 0.12866 0.17133 0.64011 0.0
C701 C 0.66448 0.32031 0.48448 0.0
C702 C 0.64667 0.28212 0.47718 0.0
C703 C 0.64047 0.341 0.49158 0.0
C704 C 0.59787 0.32417 0.49165 0.0
H705 H 0.69658 0.33451 0.48233 0.0
H706 H 0.65491 0.37053 0.49484 0.0
S707 S 0.53818 0.22448 0.48057 0.0
N708 N 0.58521 0.22791 0.47504 0.0
N709 N 0.54011 0.26677 0.48865 0.0
C710 C 0.58041 0.2858 0.48712 0.0
C711 C 0.60482 0.26479 0.47985 0.0
loop_
_geom_bond_atom_site_label_1
_geom_bond_atom_site_label_2
_geom_bond_distance
_geom_bond_site_symmetry_2
_ccdc_geom_bond_type
C0 C1 1.384 . S
C0 H13 0.947 . S
C0 C35 1.382 . S
C1 C0 1.384 . S
C1 C2 1.378 . S
C2 C1 1.378 . S
C2 C3 1.378 . S
C2 H14 0.952 . S
C3 C2 1.378 . S
C3 H15 0.950 . S
C3 C34 1.383 . S
H4 C23 0.947 . S
H5 C24 0.946 . S
H6 C26 0.953 . S
H7 C27 0.945 . S
H8 C29 0.952 . S
H9 C30 0.949 . S
H10 C32 0.950 . S
H11 C33 0.948 . S
H12 C35 0.951 . S
H13 C0 0.947 . S
H14 C2 0.952 . S
H15 C3 0.950 . S
N16 C19 1.382 . S
N16 C21 1.363 . S
N17 C19 1.371 . S
N17 C20 1.372 . S
N18 C20 1.361 . S
N18 C21 1.377 . S
C19 N16 1.382 . S
C19 N17 1.371 . S
C19 C22 1.480 . S
C20 N17 1.372 . S
C20 N18 1.361 . S
C20 C28 1.457 . S
C21 N16 1.363 . S
C21 N18 1.377 . S
C21 C34 1.479 . S
C22 C19 1.480 . S
C22 C23 1.383 . S
C22 C27 1.385 . S
C23 H4 0.947 . S
C23 C22 1.383 . S
C23 C24 1.388 . S
C24 H5 0.946 . S
C24 C23 1.388 . S
C24 C25 1.384 . S
C25 C24 1.384 . S
C25 C26 1.377 . S
C26 H6 0.953 . S
C26 C25 1.377 . S
C26 C27 1.369 . S
C27 H7 0.945 . S
C27 C22 1.385 . S
C27 C26 1.369 . S
C28 C20 1.457 . S
C28 C29 1.372 . S
C28 C33 1.364 . S
C29 H8 0.952 . S
C29 C28 1.372 . S
C29 C30 1.389 . S
C30 H9 0.949 . S
C30 C29 1.389 . S
C30 C31 1.387 . S
C31 C30 1.387 . S
C31 C32 1.372 . S
C32 H10 0.950 . S
C32 C31 1.372 . S
C32 C33 1.379 . S
C33 H11 0.948 . S
C33 C28 1.364 . S
C33 C32 1.379 . S
C34 C3 1.383 . S
C34 C21 1.479 . S
C34 C35 1.398 . S
C35 C0 1.382 . S
C35 H12 0.951 . S
C35 C34 1.398 . S
C36 C37 1.384 . S
C36 H49 0.947 . S
C36 C71 1.382 . S
C37 C36 1.384 . S
C37 C38 1.378 . S
C38 C37 1.378 . S
C38 C39 1.378 . S
C38 H50 0.952 . S
C39 C38 1.378 . S
C39 H51 0.950 . S
C39 C70 1.383 . S
H40 C59 0.947 . S
H41 C60 0.946 . S
H42 C62 0.953 . S
H43 C63 0.945 . S
H44 C65 0.952 . S
H45 C66 0.949 . S
H46 C68 0.950 . S
H47 C69 0.948 . S
H48 C71 0.951 . S
H49 C36 0.947 . S
H50 C38 0.952 . S
H51 C39 0.950 . S
N52 C55 1.382 . S
N52 C57 1.363 . S
N53 C55 1.371 . S
N53 C56 1.372 . S
N54 C56 1.361 . S
N54 C57 1.377 . S
C55 N52 1.382 . S
C55 N53 1.371 . S
C55 C58 1.480 . S
C56 N53 1.372 . S
C56 N54 1.361 . S
C56 C64 1.457 . S
C57 N52 1.363 . S
C57 N54 1.377 . S
C57 C70 1.479 . S
C58 C55 1.480 . S
C58 C59 1.383 . S
C58 C63 1.385 . S
C59 H40 0.947 . S
C59 C58 1.383 . S
C59 C60 1.388 . S
C60 H41 0.946 . S
C60 C59 1.388 . S
C60 C61 1.384 . S
C61 C60 1.384 . S
C61 C62 1.377 . S
C62 H42 0.953 . S
C62 C61 1.377 . S
C62 C63 1.369 . S
C63 H43 0.945 . S
C63 C58 1.385 . S
C63 C62 1.369 . S
C64 C56 1.457 . S
C64 C65 1.372 . S
C64 C69 1.364 . S
C65 H44 0.952 . S
C65 C64 1.372 . S
C65 C66 1.389 . S
C66 H45 0.949 . S
C66 C65 1.389 . S
C66 C67 1.387 . S
C67 C66 1.387 . S
C67 C68 1.372 . S
C68 H46 0.950 . S
C68 C67 1.372 . S
C68 C69 1.379 . S
C69 H47 0.948 . S
C69 C64 1.364 . S
C69 C68 1.379 . S
C70 C39 1.383 . S
C70 C57 1.479 . S
C70 C71 1.398 . S
C71 C36 1.382 . S
C71 H48 0.951 . S
C71 C70 1.398 . S
C72 C73 1.384 . S
C72 H85 0.947 . S
C72 C107 1.382 . S
C73 C72 1.384 . S
C73 C74 1.378 . S
C74 C73 1.378 . S
C74 C75 1.378 . S
C74 H86 0.952 . S
C75 C74 1.378 . S
C75 H87 0.950 . S
C75 C106 1.383 . S
H76 C95 0.947 . S
H77 C96 0.946 . S
H78 C98 0.953 . S
H79 C99 0.945 . S
H80 C101 0.952 . S
H81 C102 0.949 . S
H82 C104 0.950 . S
H83 C105 0.948 . S
H84 C107 0.951 . S
H85 C72 0.947 . S
H86 C74 0.952 . S
H87 C75 0.950 . S
N88 C91 1.382 . S
N88 C93 1.363 . S
N89 C91 1.371 . S
N89 C92 1.372 . S
N90 C92 1.361 . S
N90 C93 1.377 . S
C91 N88 1.382 . S
C91 N89 1.371 . S
C91 C94 1.480 . S
C92 N89 1.372 . S
C92 N90 1.361 . S
C92 C100 1.457 . S
C93 N88 1.363 . S
C93 N90 1.377 . S
C93 C106 1.479 . S
C94 C91 1.480 . S
C94 C95 1.383 . S
C94 C99 1.385 . S
C95 H76 0.947 . S
C95 C94 1.383 . S
C95 C96 1.388 . S
C96 H77 0.946 . S
C96 C95 1.388 . S
C96 C97 1.384 . S
C97 C96 1.384 . S
C97 C98 1.377 . S
C98 H78 0.953 . S
C98 C97 1.377 . S
C98 C99 1.369 . S
C99 H79 0.945 . S
C99 C94 1.385 . S
C99 C98 1.369 . S
C100 C92 1.457 . S
C100 C101 1.372 . S
C100 C105 1.364 . S
C101 H80 0.952 . S
C101 C100 1.372 . S
C101 C102 1.389 . S
C102 H81 0.949 . S
C102 C101 1.389 . S
C102 C103 1.387 . S
C103 C102 1.387 . S
C103 C104 1.372 . S
C104 H82 0.950 . S
C104 C103 1.372 . S
C104 C105 1.379 . S
C105 H83 0.948 . S
C105 C100 1.364 . S
C105 C104 1.379 . S
C106 C75 1.383 . S
C106 C93 1.479 . S
C106 C107 1.398 . S
C107 C72 1.382 . S
C107 H84 0.951 . S
C107 C106 1.398 . S
C108 C109 1.384 . S
C108 H121 0.947 . S
C108 C143 1.382 . S
C109 C108 1.384 . S
C109 C110 1.378 . S
C110 C109 1.378 . S
C110 C111 1.378 . S
C110 H122 0.952 . S
C111 C110 1.378 . S
C111 H123 0.950 . S
C111 C142 1.383 . S
H112 C131 0.947 . S
H113 C132 0.946 . S
H114 C134 0.953 . S
H115 C135 0.945 . S
H116 C137 0.952 . S
H117 C138 0.949 . S
H118 C140 0.950 . S
H119 C141 0.948 . S
H120 C143 0.951 . S
H121 C108 0.947 . S
H122 C110 0.952 . S
H123 C111 0.950 . S
N124 C127 1.382 . S
N124 C129 1.363 . S
N125 C127 1.371 . S
N125 C128 1.372 . S
N126 C128 1.361 . S
N126 C129 1.377 . S
C127 N124 1.382 . S
C127 N125 1.371 . S
C127 C130 1.480 . S
C128 N125 1.372 . S
C128 N126 1.361 . S
C128 C136 1.457 . S
C129 N124 1.363 . S
C129 N126 1.377 . S
C129 C142 1.479 . S
C130 C127 1.480 . S
C130 C131 1.383 . S
C130 C135 1.385 . S
C131 H112 0.947 . S
C131 C130 1.383 . S
C131 C132 1.388 . S
C132 H113 0.946 . S
C132 C131 1.388 . S
C132 C133 1.384 . S
C133 C132 1.384 . S
C133 C134 1.377 . S
C134 H114 0.953 . S
C134 C133 1.377 . S
C134 C135 1.369 . S
C135 H115 0.945 . S
C135 C130 1.385 . S
C135 C134 1.369 . S
C136 C128 1.457 . S
C136 C137 1.372 . S
C136 C141 1.364 . S
C137 H116 0.952 . S
C137 C136 1.372 . S
C137 C138 1.389 . S
C138 H117 0.949 . S
C138 C137 1.389 . S
C138 C139 1.387 . S
C139 C138 1.387 . S
C139 C140 1.372 . S
C140 H118 0.950 . S
C140 C139 1.372 . S
C140 C141 1.379 . S
C141 H119 0.948 . S
C141 C136 1.364 . S
C141 C140 1.379 . S
C142 C111 1.383 . S
C142 C129 1.479 . S
C142 C143 1.398 . S
C143 C108 1.382 . S
C143 H120 0.951 . S
C143 C142 1.398 . S
C144 C145 1.384 . S
C144 H157 0.947 . S
C144 C179 1.382 . S
C145 C144 1.384 . S
C145 C146 1.378 . S
C146 C145 1.378 . S
C146 C147 1.378 . S
C146 H158 0.952 . S
C147 C146 1.378 . S
C147 H159 0.950 . S
C147 C178 1.383 . S
H148 C167 0.947 . S
H149 C168 0.946 . S
H150 C170 0.953 . S
H151 C171 0.945 . S
H152 C173 0.952 . S
H153 C174 0.949 . S
H154 C176 0.950 . S
H155 C177 0.948 . S
H156 C179 0.951 . S
H157 C144 0.947 . S
H158 C146 0.952 . S
H159 C147 0.950 . S
N160 C163 1.382 . S
N160 C165 1.363 . S
N161 C163 1.371 . S
N161 C164 1.372 . S
N162 C164 1.361 . S
N162 C165 1.377 . S
C163 N160 1.382 . S
C163 N161 1.371 . S
C163 C166 1.480 . S
C164 N161 1.372 . S
C164 N162 1.361 . S
C164 C172 1.457 . S
C165 N160 1.363 . S
C165 N162 1.377 . S
C165 C178 1.479 . S
C166 C163 1.480 . S
C166 C167 1.383 . S
C166 C171 1.385 . S
C167 H148 0.947 . S
C167 C166 1.383 . S
C167 C168 1.388 . S
C168 H149 0.946 . S
C168 C167 1.388 . S
C168 C169 1.384 . S
C169 C168 1.384 . S
C169 C170 1.377 . S
C170 H150 0.953 . S
C170 C169 1.377 . S
C170 C171 1.369 . S
C171 H151 0.945 . S
C171 C166 1.385 . S
C171 C170 1.369 . S
C172 C164 1.457 . S
C172 C173 1.372 . S
C172 C177 1.364 . S
C173 H152 0.952 . S
C173 C172 1.372 . S
C173 C174 1.389 . S
C174 H153 0.949 . S
C174 C173 1.389 . S
C174 C175 1.387 . S
C175 C174 1.387 . S
C175 C176 1.372 . S
C176 H154 0.950 . S
C176 C175 1.372 . S
C176 C177 1.379 . S
C177 H155 0.948 . S
C177 C172 1.364 . S
C177 C176 1.379 . S
C178 C147 1.383 . S
C178 C165 1.479 . S
C178 C179 1.398 . S
C179 C144 1.382 . S
C179 H156 0.951 . S
C179 C178 1.398 . S
C180 C181 1.384 . S
C180 H193 0.947 . S
C180 C215 1.382 . S
C181 C180 1.384 . S
C181 C182 1.378 . S
C182 C181 1.378 . S
C182 C183 1.378 . S
C182 H194 0.952 . S
C183 C182 1.378 . S
C183 H195 0.950 . S
C183 C214 1.383 . S
H184 C203 0.947 . S
H185 C204 0.946 . S
H186 C206 0.953 . S
H187 C207 0.945 . S
H188 C209 0.952 . S
H189 C210 0.949 . S
H190 C212 0.950 . S
H191 C213 0.948 . S
H192 C215 0.951 . S
H193 C180 0.947 . S
H194 C182 0.952 . S
H195 C183 0.950 . S
N196 C199 1.382 . S
N196 C201 1.363 . S
N197 C199 1.371 . S
N197 C200 1.372 . S
N198 C200 1.361 . S
N198 C201 1.377 . S
C199 N196 1.382 . S
C199 N197 1.371 . S
C199 C202 1.480 . S
C200 N197 1.372 . S
C200 N198 1.361 . S
C200 C208 1.457 . S
C201 N196 1.363 . S
C201 N198 1.377 . S
C201 C214 1.479 . S
C202 C199 1.480 . S
C202 C203 1.383 . S
C202 C207 1.385 . S
C203 H184 0.947 . S
C203 C202 1.383 . S
C203 C204 1.388 . S
C204 H185 0.946 . S
C204 C203 1.388 . S
C204 C205 1.384 . S
C205 C204 1.384 . S
C205 C206 1.377 . S
C206 H186 0.953 . S
C206 C205 1.377 . S
C206 C207 1.369 . S
C207 H187 0.945 . S
C207 C202 1.385 . S
C207 C206 1.369 . S
C208 C200 1.457 . S
C208 C209 1.372 . S
C208 C213 1.364 . S
C209 H188 0.952 . S
C209 C208 1.372 . S
C209 C210 1.389 . S
C210 H189 0.949 . S
C210 C209 1.389 . S
C210 C211 1.387 . S
C211 C210 1.387 . S
C211 C212 1.372 . S
C212 H190 0.950 . S
C212 C211 1.372 . S
C212 C213 1.379 . S
C213 H191 0.948 . S
C213 C208 1.364 . S
C213 C212 1.379 . S
C214 C183 1.383 . S
C214 C201 1.479 . S
C214 C215 1.398 . S
C215 C180 1.382 . S
C215 H192 0.951 . S
C215 C214 1.398 . S
C216 C217 1.384 . S
C216 H229 0.947 . S
C216 C251 1.382 . S
C217 C216 1.384 . S
C217 C218 1.378 . S
C218 C217 1.378 . S
C218 C219 1.378 . S
C218 H230 0.952 . S
C219 C218 1.378 . S
C219 H231 0.950 . S
C219 C250 1.383 . S
H220 C239 0.947 . S
H221 C240 0.946 . S
H222 C242 0.953 . S
H223 C243 0.945 . S
H224 C245 0.952 . S
H225 C246 0.949 . S
H226 C248 0.950 . S
H227 C249 0.948 . S
H228 C251 0.951 . S
H229 C216 0.947 . S
H230 C218 0.952 . S
H231 C219 0.950 . S
N232 C235 1.382 . S
N232 C237 1.363 . S
N233 C235 1.371 . S
N233 C236 1.372 . S
N234 C236 1.361 . S
N234 C237 1.377 . S
C235 N232 1.382 . S
C235 N233 1.371 . S
C235 C238 1.480 . S
C236 N233 1.372 . S
C236 N234 1.361 . S
C236 C244 1.457 . S
C237 N232 1.363 . S
C237 N234 1.377 . S
C237 C250 1.479 . S
C238 C235 1.480 . S
C238 C239 1.383 . S
C238 C243 1.385 . S
C239 H220 0.947 . S
C239 C238 1.383 . S
C239 C240 1.388 . S
C240 H221 0.946 . S
C240 C239 1.388 . S
C240 C241 1.384 . S
C241 C240 1.384 . S
C241 C242 1.377 . S
C242 H222 0.953 . S
C242 C241 1.377 . S
C242 C243 1.369 . S
C243 H223 0.945 . S
C243 C238 1.385 . S
C243 C242 1.369 . S
C244 C236 1.457 . S
C244 C245 1.372 . S
C244 C249 1.364 . S
C245 H224 0.952 . S
C245 C244 1.372 . S
C245 C246 1.389 . S
C246 H225 0.949 . S
C246 C245 1.389 . S
C246 C247 1.387 . S
C247 C246 1.387 . S
C247 C248 1.372 . S
C248 H226 0.950 . S
C248 C247 1.372 . S
C248 C249 1.379 . S
C249 H227 0.948 . S
C249 C244 1.364 . S
C249 C248 1.379 . S
C250 C219 1.383 . S
C250 C237 1.479 . S
C250 C251 1.398 . S
C251 C216 1.382 . S
C251 H228 0.951 . S
C251 C250 1.398 . S
C252 C253 1.384 . S
C252 H265 0.947 . S
C252 C287 1.382 . S
C253 C252 1.384 . S
C253 C254 1.378 . S
C254 C253 1.378 . S
C254 C255 1.378 . S
C254 H266 0.952 . S
C255 C254 1.378 . S
C255 H267 0.950 . S
C255 C286 1.383 . S
H256 C275 0.947 . S
H257 C276 0.946 . S
H258 C278 0.953 . S
H259 C279 0.945 . S
H260 C281 0.952 . S
H261 C282 0.949 . S
H262 C284 0.950 . S
H263 C285 0.948 . S
H264 C287 0.951 . S
H265 C252 0.947 . S
H266 C254 0.952 . S
H267 C255 0.950 . S
N268 C271 1.382 . S
N268 C273 1.363 . S
N269 C271 1.371 . S
N269 C272 1.372 . S
N270 C272 1.361 . S
N270 C273 1.377 . S
C271 N268 1.382 . S
C271 N269 1.371 . S
C271 C274 1.480 . S
C272 N269 1.372 . S
C272 N270 1.361 . S
C272 C280 1.457 . S
C273 N268 1.363 . S
C273 N270 1.377 . S
C273 C286 1.479 . S
C274 C271 1.480 . S
C274 C275 1.383 . S
C274 C279 1.385 . S
C275 H256 0.947 . S
C275 C274 1.383 . S
C275 C276 1.388 . S
C276 H257 0.946 . S
C276 C275 1.388 . S
C276 C277 1.384 . S
C277 C276 1.384 . S
C277 C278 1.377 . S
C278 H258 0.953 . S
C278 C277 1.377 . S
C278 C279 1.369 . S
C279 H259 0.945 . S
C279 C274 1.385 . S
C279 C278 1.369 . S
C280 C272 1.457 . S
C280 C281 1.372 . S
C280 C285 1.364 . S
C281 H260 0.952 . S
C281 C280 1.372 . S
C281 C282 1.389 . S
C282 H261 0.949 . S
C282 C281 1.389 . S
C282 C283 1.387 . S
C283 C282 1.387 . S
C283 C284 1.372 . S
C284 H262 0.950 . S
C284 C283 1.372 . S
C284 C285 1.379 . S
C285 H263 0.948 . S
C285 C280 1.364 . S
C285 C284 1.379 . S
C286 C255 1.383 . S
C286 C273 1.479 . S
C286 C287 1.398 . S
C287 C252 1.382 . S
C287 H264 0.951 . S
C287 C286 1.398 . S
Pr288 C290 2.880 . S
Pr288 O308 2.562 . S
Pr288 O309 2.490 . S
Pr288 O310 2.695 1_665 S
Pr288 O311 2.512 1_665 S
Pr288 O313 2.437 1_655 S
Pr288 O316 2.436 . S
Pr288 O318 2.438 1_565 S
Pr289 C299 2.880 . S
Pr289 O310 2.436 . S
Pr289 O312 2.438 1_545 S
Pr289 O314 2.562 . S
Pr289 O315 2.490 . S
Pr289 O316 2.695 1_445 S
Pr289 O317 2.512 1_545 S
Pr289 O319 2.437 1_455 S
C290 Pr288 2.880 . S
C290 C291 1.491 . S
C290 O308 1.254 . S
C290 O309 1.225 . S
C291 C290 1.491 . S
C291 C292 1.392 . S
C291 C296 1.356 . S
C292 C291 1.392 . S
C292 C293 1.368 . S
C292 H320 0.929 . S
C293 C292 1.368 . S
C293 C294 1.386 . S
C293 H321 0.929 . S
C294 C293 1.386 . S
C294 C295 1.373 . S
C295 C294 1.373 . S
C295 C296 1.409 . S
C295 H322 0.931 . S
C296 C291 1.356 . S
C296 C295 1.409 . S
C296 H323 0.930 . S
C297 O310 1.270 . S
C297 O311 1.248 . S
C298 O312 1.267 . S
C298 O313 1.278 . S
C299 Pr289 2.880 . S
C299 C300 1.491 . S
C299 O314 1.254 . S
C299 O315 1.225 . S
C300 C299 1.491 . S
C300 C301 1.392 . S
C300 C305 1.356 . S
C301 C300 1.392 . S
C301 C302 1.368 . S
C301 H324 0.929 . S
C302 C301 1.368 . S
C302 C303 1.386 . S
C302 H325 0.929 . S
C303 C302 1.386 . S
C303 C304 1.373 . S
C304 C303 1.373 . S
C304 C305 1.409 . S
C304 H326 0.931 . S
C305 C300 1.356 . S
C305 C304 1.409 . S
C305 H327 0.930 . S
C306 O316 1.270 . S
C306 O317 1.248 1_655 S
C307 O318 1.267 . S
C307 O319 1.278 . S
O308 Pr288 2.562 . S
O308 C290 1.254 . S
O309 Pr288 2.490 . S
O309 C290 1.225 . S
O310 Pr288 2.695 1_445 S
O310 Pr289 2.436 . S
O310 C297 1.270 . S
O311 Pr288 2.512 1_445 S
O311 C297 1.248 . S
O312 Pr289 2.438 1_565 S
O312 C298 1.267 . S
O313 Pr288 2.437 1_455 S
O313 C298 1.278 . S
O314 Pr289 2.562 . S
O314 C299 1.254 . S
O315 Pr289 2.490 . S
O315 C299 1.225 . S
O316 Pr288 2.436 . S
O316 Pr289 2.695 1_665 S
O316 C306 1.270 . S
O317 Pr289 2.512 1_565 S
O317 C306 1.248 1_455 S
O318 Pr288 2.438 1_545 S
O318 C307 1.267 . S
O319 Pr289 2.437 1_655 S
O319 C307 1.278 . S
H320 C292 0.929 . S
H321 C293 0.929 . S
H322 C295 0.931 . S
H323 C296 0.930 . S
H324 C301 0.929 . S
H325 C302 0.929 . S
H326 C304 0.931 . S
H327 C305 0.930 . S
Pr328 C330 2.880 . S
Pr328 O348 2.562 . S
Pr328 O349 2.490 . S
Pr328 O350 2.695 1_554 S
Pr328 O351 2.512 1_554 S
Pr328 O353 2.437 . S
Pr328 O356 2.436 1_545 S
Pr328 O358 2.438 1_544 S
Pr329 C339 2.880 1_554 S
Pr329 O350 2.435 1_564 S
Pr329 O352 2.438 1_565 S
Pr329 O354 2.562 1_554 S
Pr329 O355 2.490 1_554 S
Pr329 O356 2.695 . S
Pr329 O357 2.513 . S
Pr329 O359 2.437 1_554 S
C330 Pr328 2.880 . S
C330 C331 1.491 . S
C330 O348 1.254 . S
C330 O349 1.225 . S
C331 C330 1.491 . S
C331 C332 1.392 . S
C331 C336 1.356 . S
C332 C331 1.392 . S
C332 C333 1.368 . S
C332 H360 0.929 . S
C333 C332 1.368 . S
C333 C334 1.386 . S
C333 H361 0.929 . S
C334 C333 1.386 . S
C334 C335 1.373 . S
C335 C334 1.373 . S
C335 C336 1.409 . S
C335 H362 0.931 . S
C336 C331 1.356 . S
C336 C335 1.409 . S
C336 H363 0.930 . S
C337 O350 1.270 . S
C337 O351 1.248 . S
C338 O352 1.267 . S
C338 O353 1.278 . S
C339 Pr329 2.880 1_556 S
C339 C340 1.491 . S
C339 O354 1.254 . S
C339 O355 1.225 . S
C340 C339 1.491 . S
C340 C341 1.392 . S
C340 C345 1.356 . S
C341 C340 1.392 . S
C341 C342 1.368 . S
C341 H364 0.929 . S
C342 C341 1.368 . S
C342 C343 1.386 . S
C342 H365 0.929 . S
C343 C342 1.386 . S
C343 C344 1.373 . S
C344 C343 1.373 . S
C344 C345 1.409 . S
C344 H366 0.931 . S
C345 C340 1.356 . S
C345 C344 1.409 . S
C345 H367 0.930 . S
C346 O356 1.270 . S
C346 O357 1.248 . S
C347 O358 1.267 . S
C347 O359 1.278 . S
O348 Pr328 2.562 . S
O348 C330 1.254 . S
O349 Pr328 2.490 . S
O349 C330 1.225 . S
O350 Pr328 2.695 1_556 S
O350 Pr329 2.435 1_546 S
O350 C337 1.270 . S
O351 Pr328 2.512 1_556 S
O351 C337 1.248 . S
O352 Pr329 2.438 1_545 S
O352 C338 1.267 . S
O353 Pr328 2.437 . S
O353 C338 1.278 . S
O354 Pr329 2.562 1_556 S
O354 C339 1.254 . S
O355 Pr329 2.490 1_556 S
O355 C339 1.225 . S
O356 Pr328 2.436 1_565 S
O356 Pr329 2.695 . S
O356 C346 1.270 . S
O357 Pr329 2.513 . S
O357 C346 1.248 . S
O358 Pr328 2.438 1_566 S
O358 C347 1.267 . S
O359 Pr329 2.437 1_556 S
O359 C347 1.278 . S
H360 C332 0.929 . S
H361 C333 0.929 . S
H362 C335 0.931 . S
H363 C336 0.930 . S
H364 C341 0.929 . S
H365 C342 0.929 . S
H366 C344 0.931 . S
H367 C345 0.930 . S
Pr368 C370 2.880 . S
Pr368 O388 2.562 . S
Pr368 O389 2.490 . S
Pr368 O390 2.695 . S
Pr368 O391 2.512 . S
Pr368 O393 2.437 . S
Pr368 O396 2.436 . S
Pr368 O398 2.438 . S
Pr369 C379 2.880 . S
Pr369 O390 2.436 . S
Pr369 O392 2.438 . S
Pr369 O394 2.562 . S
Pr369 O395 2.490 . S
Pr369 O396 2.695 . S
Pr369 O397 2.512 . S
Pr369 O399 2.437 . S
C370 Pr368 2.880 . S
C370 C371 1.491 . S
C370 O388 1.254 . S
C370 O389 1.225 . S
C371 C370 1.491 . S
C371 C372 1.392 . S
C371 C376 1.356 . S
C372 C371 1.392 . S
C372 C373 1.368 . S
C372 H400 0.929 . S
C373 C372 1.368 . S
C373 C374 1.386 . S
C373 H401 0.929 . S
C374 C373 1.386 . S
C374 C375 1.373 . S
C375 C374 1.373 . S
C375 C376 1.409 . S
C375 H402 0.931 . S
C376 C371 1.356 . S
C376 C375 1.409 . S
C376 H403 0.930 . S
C377 O390 1.270 . S
C377 O391 1.248 . S
C378 O392 1.267 . S
C378 O393 1.278 . S
C379 Pr369 2.880 . S
C379 C380 1.491 . S
C379 O394 1.254 . S
C379 O395 1.225 . S
C380 C379 1.491 . S
C380 C381 1.392 . S
C380 C385 1.356 . S
C381 C380 1.392 . S
C381 C382 1.368 . S
C381 H404 0.929 . S
C382 C381 1.368 . S
C382 C383 1.386 . S
C382 H405 0.929 . S
C383 C382 1.386 . S
C383 C384 1.373 . S
C384 C383 1.373 . S
C384 C385 1.409 . S
C384 H406 0.931 . S
C385 C380 1.356 . S
C385 C384 1.409 . S
C385 H407 0.930 . S
C386 O396 1.270 . S
C386 O397 1.248 . S
C387 O398 1.267 . S
C387 O399 1.278 . S
O388 Pr368 2.562 . S
O388 C370 1.254 . S
O389 Pr368 2.490 . S
O389 C370 1.225 . S
O390 Pr368 2.695 . S
O390 Pr369 2.436 . S
O390 C377 1.270 . S
O391 Pr368 2.512 . S
O391 C377 1.248 . S
O392 Pr369 2.438 . S
O392 C378 1.267 . S
O393 Pr368 2.437 . S
O393 C378 1.278 . S
O394 Pr369 2.562 . S
O394 C379 1.254 . S
O395 Pr369 2.490 . S
O395 C379 1.225 . S
O396 Pr368 2.436 . S
O396 Pr369 2.695 . S
O396 C386 1.270 . S
O397 Pr369 2.512 . S
O397 C386 1.248 . S
O398 Pr368 2.438 . S
O398 C387 1.267 . S
O399 Pr369 2.437 . S
O399 C387 1.278 . S
H400 C372 0.929 . S
H401 C373 0.929 . S
H402 C375 0.931 . S
H403 C376 0.930 . S
H404 C381 0.929 . S
H405 C382 0.929 . S
H406 C384 0.931 . S
H407 C385 0.930 . S
Pr408 C410 2.902 . S
Pr408 O428 2.589 . S
Pr408 O429 2.503 . S
Pr408 O430 2.680 1_656 S
Pr408 O431 2.498 1_656 S
Pr408 O433 2.453 1_556 S
Pr408 O436 2.445 . S
Pr408 O438 2.415 1_655 S
Pr409 C419 2.880 . S
Pr409 O430 2.436 . S
Pr409 O432 2.438 1_455 S
Pr409 O434 2.562 . S
Pr409 O435 2.490 . S
Pr409 O436 2.695 1_454 S
Pr409 O437 2.512 1_454 S
Pr409 O439 2.437 1_554 S
C410 Pr408 2.902 . S
C410 C411 1.491 . S
C410 O428 1.254 . S
C410 O429 1.225 . S
C411 C410 1.491 . S
C411 C412 1.392 . S
C411 C416 1.356 . S
C412 C411 1.392 . S
C412 C413 1.368 . S
C412 H440 0.929 . S
C413 C412 1.368 . S
C413 C414 1.386 . S
C413 H441 0.929 . S
C414 C413 1.386 . S
C414 C415 1.373 . S
C415 C414 1.373 . S
C415 C416 1.409 . S
C415 H442 0.931 . S
C416 C411 1.356 . S
C416 C415 1.409 . S
C416 H443 0.930 . S
C417 O430 1.270 . S
C417 O431 1.248 . S
C418 O432 1.267 . S
C418 O433 1.278 . S
C419 Pr409 2.880 . S
C419 C420 1.491 . S
C419 O434 1.254 . S
C419 O435 1.225 . S
C420 C419 1.491 . S
C420 C421 1.392 . S
C420 C425 1.356 . S
C421 C420 1.392 . S
C421 C422 1.368 . S
C421 H444 0.929 . S
C422 C421 1.368 . S
C422 C423 1.386 . S
C422 H445 0.929 . S
C423 C422 1.386 . S
C423 C424 1.373 . S
C424 C423 1.373 . S
C424 C425 1.409 . S
C424 H446 0.931 . S
C425 C420 1.356 . S
C425 C424 1.409 . S
C425 H447 0.930 . S
C426 O436 1.270 . S
C426 O437 1.248 . S
C427 O438 1.267 . S
C427 O439 1.278 . S
O428 Pr408 2.589 . S
O428 C410 1.254 . S
O429 Pr408 2.503 . S
O429 C410 1.225 . S
O430 Pr408 2.680 1_454 S
O430 Pr409 2.436 . S
O430 C417 1.270 . S
O431 Pr408 2.498 1_454 S
O431 C417 1.248 . S
O432 Pr409 2.438 1_655 S
O432 C418 1.267 . S
O433 Pr408 2.453 1_554 S
O433 C418 1.278 . S
O434 Pr409 2.562 . S
O434 C419 1.254 . S
O435 Pr409 2.490 . S
O435 C419 1.225 . S
O436 Pr408 2.445 . S
O436 Pr409 2.695 1_656 S
O436 C426 1.270 . S
O437 Pr409 2.512 1_656 S
O437 C426 1.248 . S
O438 Pr408 2.415 1_455 S
O438 C427 1.267 . S
O439 Pr409 2.437 1_556 S
O439 C427 1.278 . S
H440 C412 0.929 . S
H441 C413 0.929 . S
H442 C415 0.931 . S
H443 C416 0.930 . S
H444 C421 0.929 . S
H445 C422 0.929 . S
H446 C424 0.931 . S
H447 C425 0.930 . S
C448 C449 1.369 . S
C448 C450 1.419 . S
C448 H452 0.930 . S
C449 C448 1.369 . S
C449 C458 1.429 . S
C450 C448 1.419 . S
C450 C451 1.363 . S
C450 H453 0.929 . S
C451 C450 1.363 . S
C451 C457 1.428 . S
H452 C448 0.930 . S
H453 C450 0.929 . S
S454 N455 1.613 . S
S454 N456 1.610 . S
N455 S454 1.613 . S
N455 C458 1.350 . S
N456 S454 1.610 . S
N456 C457 1.351 . S
C457 C451 1.428 . S
C457 N456 1.351 . S
C457 C458 1.434 . S
C458 C449 1.429 . S
C458 N455 1.350 . S
C458 C457 1.434 . S
C459 C460 1.369 . S
C459 C461 1.419 . S
C459 H463 0.930 . S
C460 C459 1.369 . S
C460 C469 1.429 . S
C461 C459 1.419 . S
C461 C462 1.363 . S
C461 H464 0.929 . S
C462 C461 1.363 . S
C462 C468 1.428 . S
H463 C459 0.930 . S
H464 C461 0.929 . S
S465 N466 1.613 . S
S465 N467 1.610 . S
N466 S465 1.613 . S
N466 C469 1.350 . S
N467 S465 1.610 . S
N467 C468 1.351 . S
C468 C462 1.428 . S
C468 N467 1.351 . S
C468 C469 1.434 . S
C469 C460 1.429 . S
C469 N466 1.350 . S
C469 C468 1.434 . S
C470 C471 1.369 . S
C470 C472 1.419 . S
C470 H474 0.930 . S
C471 C470 1.369 . S
C471 C480 1.429 . S
C472 C470 1.419 . S
C472 C473 1.363 . S
C472 H475 0.929 . S
C473 C472 1.363 . S
C473 C479 1.428 . S
H474 C470 0.930 . S
H475 C472 0.929 . S
S476 N477 1.613 . S
S476 N478 1.610 . S
N477 S476 1.613 . S
N477 C480 1.350 . S
N478 S476 1.610 . S
N478 C479 1.351 . S
C479 C473 1.428 . S
C479 N478 1.351 . S
C479 C480 1.434 . S
C480 C471 1.429 . S
C480 N477 1.350 . S
C480 C479 1.434 . S
C481 C482 1.369 . S
C481 C483 1.419 . S
C481 H485 0.930 . S
C482 C481 1.369 . S
C482 C491 1.429 . S
C483 C481 1.419 . S
C483 C484 1.363 . S
C483 H486 0.929 . S
C484 C483 1.363 . S
C484 C490 1.428 . S
H485 C481 0.930 . S
H486 C483 0.929 . S
S487 N488 1.613 . S
S487 N489 1.610 . S
N488 S487 1.613 . S
N488 C491 1.350 . S
N489 S487 1.610 . S
N489 C490 1.351 . S
C490 C484 1.428 . S
C490 N489 1.351 . S
C490 C491 1.434 . S
C491 C482 1.429 . S
C491 N488 1.350 . S
C491 C490 1.434 . S
C492 C493 1.369 . S
C492 C494 1.419 . S
C492 H496 0.930 . S
C493 C492 1.369 . S
C493 C502 1.429 . S
C494 C492 1.419 . S
C494 C495 1.363 . S
C494 H497 0.929 . S
C495 C494 1.363 . S
C495 C501 1.428 . S
H496 C492 0.930 . S
H497 C494 0.929 . S
S498 N499 1.613 . S
S498 N500 1.610 . S
N499 S498 1.613 . S
N499 C502 1.350 . S
N500 S498 1.610 . S
N500 C501 1.351 . S
C501 C495 1.428 . S
C501 N500 1.351 . S
C501 C502 1.434 . S
C502 C493 1.429 . S
C502 N499 1.350 . S
C502 C501 1.434 . S
C503 C504 1.369 . S
C503 C505 1.419 . S
C503 H507 0.930 . S
C504 C503 1.369 . S
C504 C513 1.429 . S
C505 C503 1.419 . S
C505 C506 1.363 . S
C505 H508 0.929 . S
C506 C505 1.363 . S
C506 C512 1.428 . S
H507 C503 0.930 . S
H508 C505 0.929 . S
S509 N510 1.613 . S
S509 N511 1.610 . S
N510 S509 1.613 . S
N510 C513 1.350 . S
N511 S509 1.610 . S
N511 C512 1.351 . S
C512 C506 1.428 . S
C512 N511 1.351 . S
C512 C513 1.434 . S
C513 C504 1.429 . S
C513 N510 1.350 . S
C513 C512 1.434 . S
C514 C515 1.369 . S
C514 C516 1.419 . S
C514 H518 0.930 . S
C515 C514 1.369 . S
C515 C524 1.429 . S
C516 C514 1.419 . S
C516 C517 1.363 . S
C516 H519 0.929 . S
C517 C516 1.363 . S
C517 C523 1.428 . S
H518 C514 0.930 . S
H519 C516 0.929 . S
S520 N521 1.613 . S
S520 N522 1.610 . S
N521 S520 1.613 . S
N521 C524 1.350 . S
N522 S520 1.610 . S
N522 C523 1.351 . S
C523 C517 1.428 . S
C523 N522 1.351 . S
C523 C524 1.434 . S
C524 C515 1.429 . S
C524 N521 1.350 . S
C524 C523 1.434 . S
C525 C526 1.369 . S
C525 C527 1.419 . S
C525 H529 0.930 . S
C526 C525 1.369 . S
C526 C535 1.429 . S
C527 C525 1.419 . S
C527 C528 1.363 . S
C527 H530 0.929 . S
C528 C527 1.363 . S
C528 C534 1.428 . S
H529 C525 0.930 . S
H530 C527 0.929 . S
S531 N532 1.613 . S
S531 N533 1.610 . S
N532 S531 1.613 . S
N532 C535 1.350 . S
N533 S531 1.610 . S
N533 C534 1.351 . S
C534 C528 1.428 . S
C534 N533 1.351 . S
C534 C535 1.434 . S
C535 C526 1.429 . S
C535 N532 1.350 . S
C535 C534 1.434 . S
C536 C537 1.369 . S
C536 C538 1.419 . S
C536 H540 0.930 . S
C537 C536 1.369 . S
C537 C546 1.429 . S
C538 C536 1.419 . S
C538 C539 1.363 . S
C538 H541 0.929 . S
C539 C538 1.363 . S
C539 C545 1.428 . S
H540 C536 0.930 . S
H541 C538 0.929 . S
S542 N543 1.613 . S
S542 N544 1.610 . S
N543 S542 1.613 . S
N543 C546 1.350 . S
N544 S542 1.610 . S
N544 C545 1.351 . S
C545 C539 1.428 . S
C545 N544 1.351 . S
C545 C546 1.434 . S
C546 C537 1.429 . S
C546 N543 1.350 . S
C546 C545 1.434 . S
C547 C548 1.369 . S
C547 C549 1.419 . S
C547 H551 0.930 . S
C548 C547 1.369 . S
C548 C557 1.429 . S
C549 C547 1.419 . S
C549 C550 1.363 . S
C549 H552 0.929 . S
C550 C549 1.363 . S
C550 C556 1.428 . S
H551 C547 0.930 . S
H552 C549 0.929 . S
S553 N554 1.613 . S
S553 N555 1.610 . S
N554 S553 1.613 . S
N554 C557 1.350 . S
N555 S553 1.610 . S
N555 C556 1.351 . S
C556 C550 1.428 . S
C556 N555 1.351 . S
C556 C557 1.434 . S
C557 C548 1.429 . S
C557 N554 1.350 . S
C557 C556 1.434 . S
C558 C559 1.369 . S
C558 C560 1.419 . S
C558 H562 0.930 . S
C559 C558 1.369 . S
C559 C568 1.429 . S
C560 C558 1.419 . S
C560 C561 1.363 . S
C560 H563 0.929 . S
C561 C560 1.363 . S
C561 C567 1.428 . S
H562 C558 0.930 . S
H563 C560 0.929 . S
S564 N565 1.613 . S
S564 N566 1.610 . S
N565 S564 1.613 . S
N565 C568 1.350 . S
N566 S564 1.610 . S
N566 C567 1.351 . S
C567 C561 1.428 . S
C567 N566 1.351 . S
C567 C568 1.434 . S
C568 C559 1.429 . S
C568 N565 1.350 . S
C568 C567 1.434 . S
C569 C570 1.369 . S
C569 C571 1.419 . S
C569 H573 0.930 . S
C570 C569 1.369 . S
C570 C579 1.429 . S
C571 C569 1.419 . S
C571 C572 1.363 . S
C571 H574 0.929 . S
C572 C571 1.363 . S
C572 C578 1.428 . S
H573 C569 0.930 . S
H574 C571 0.929 . S
S575 N576 1.613 . S
S575 N577 1.610 . S
N576 S575 1.613 . S
N576 C579 1.350 . S
N577 S575 1.610 . S
N577 C578 1.351 . S
C578 C572 1.428 . S
C578 N577 1.351 . S
C578 C579 1.434 . S
C579 C570 1.429 . S
C579 N576 1.350 . S
C579 C578 1.434 . S
C580 C581 1.369 . S
C580 C582 1.419 . S
C580 H584 0.930 . S
C581 C580 1.369 . S
C581 C590 1.429 . S
C582 C580 1.419 . S
C582 C583 1.363 . S
C582 H585 0.929 . S
C583 C582 1.363 . S
C583 C589 1.428 . S
H584 C580 0.930 . S
H585 C582 0.929 . S
S586 N587 1.613 . S
S586 N588 1.610 . S
N587 S586 1.613 . S
N587 C590 1.350 . S
N588 S586 1.610 . S
N588 C589 1.351 . S
C589 C583 1.428 . S
C589 N588 1.351 . S
C589 C590 1.434 . S
C590 C581 1.429 . S
C590 N587 1.350 . S
C590 C589 1.434 . S
C591 C592 1.369 . S
C591 C593 1.419 . S
C591 H595 0.930 . S
C592 C591 1.369 . S
C592 C601 1.429 . S
C593 C591 1.419 . S
C593 C594 1.363 . S
C593 H596 0.929 . S
C594 C593 1.363 . S
C594 C600 1.428 . S
H595 C591 0.930 . S
H596 C593 0.929 . S
S597 N598 1.613 . S
S597 N599 1.610 . S
N598 S597 1.613 . S
N598 C601 1.350 . S
N599 S597 1.610 . S
N599 C600 1.351 . S
C600 C594 1.428 . S
C600 N599 1.351 . S
C600 C601 1.434 . S
C601 C592 1.429 . S
C601 N598 1.350 . S
C601 C600 1.434 . S
C602 C603 1.369 . S
C602 C604 1.419 . S
C602 H606 0.930 . S
C603 C602 1.369 . S
C603 C612 1.429 . S
C604 C602 1.419 . S
C604 C605 1.363 . S
C604 H607 0.929 . S
C605 C604 1.363 . S
C605 C611 1.428 . S
H606 C602 0.930 . S
H607 C604 0.929 . S
S608 N609 1.613 . S
S608 N610 1.610 . S
N609 S608 1.613 . S
N609 C612 1.350 . S
N610 S608 1.610 . S
N610 C611 1.351 . S
C611 C605 1.428 . S
C611 N610 1.351 . S
C611 C612 1.434 . S
C612 C603 1.429 . S
C612 N609 1.350 . S
C612 C611 1.434 . S
C613 C614 1.369 . S
C613 C615 1.419 . S
C613 H617 0.930 . S
C614 C613 1.369 . S
C614 C623 1.429 . S
C615 C613 1.419 . S
C615 C616 1.363 . S
C615 H618 0.929 . S
C616 C615 1.363 . S
C616 C622 1.428 . S
H617 C613 0.930 . S
H618 C615 0.929 . S
S619 N620 1.613 . S
S619 N621 1.610 . S
N620 S619 1.613 . S
N620 C623 1.350 . S
N621 S619 1.610 . S
N621 C622 1.351 . S
C622 C616 1.428 . S
C622 N621 1.351 . S
C622 C623 1.434 . S
C623 C614 1.429 . S
C623 N620 1.350 . S
C623 C622 1.434 . S
C624 C625 1.369 . S
C624 C626 1.419 . S
C624 H628 0.930 . S
C625 C624 1.369 . S
C625 C634 1.429 . S
C626 C624 1.419 . S
C626 C627 1.363 . S
C626 H629 0.929 . S
C627 C626 1.363 . S
C627 C633 1.428 . S
H628 C624 0.930 . S
H629 C626 0.929 . S
S630 N631 1.613 . S
S630 N632 1.610 . S
N631 S630 1.613 . S
N631 C634 1.350 . S
N632 S630 1.610 . S
N632 C633 1.351 . S
C633 C627 1.428 . S
C633 N632 1.351 . S
C633 C634 1.434 . S
C634 C625 1.429 . S
C634 N631 1.350 . S
C634 C633 1.434 . S
C635 C636 1.369 . S
C635 C637 1.419 . S
C635 H639 0.930 . S
C636 C635 1.369 . S
C636 C645 1.429 . S
C637 C635 1.419 . S
C637 C638 1.363 . S
C637 H640 0.929 . S
C638 C637 1.363 . S
C638 C644 1.428 . S
H639 C635 0.930 . S
H640 C637 0.929 . S
S641 N642 1.613 . S
S641 N643 1.610 . S
N642 S641 1.613 . S
N642 C645 1.350 . S
N643 S641 1.610 . S
N643 C644 1.351 . S
C644 C638 1.428 . S
C644 N643 1.351 . S
C644 C645 1.434 . S
C645 C636 1.429 . S
C645 N642 1.350 . S
C645 C644 1.434 . S
C646 C647 1.369 . S
C646 C648 1.419 . S
C646 H650 0.930 . S
C647 C646 1.369 . S
C647 C656 1.429 . S
C648 C646 1.419 . S
C648 C649 1.363 . S
C648 H651 0.929 . S
C649 C648 1.363 . S
C649 C655 1.428 . S
H650 C646 0.930 . S
H651 C648 0.929 . S
S652 N653 1.613 . S
S652 N654 1.610 . S
N653 S652 1.613 . S
N653 C656 1.350 . S
N654 S652 1.610 . S
N654 C655 1.351 . S
C655 C649 1.428 . S
C655 N654 1.351 . S
C655 C656 1.434 . S
C656 C647 1.429 . S
C656 N653 1.350 . S
C656 C655 1.434 . S
C657 C658 1.369 . S
C657 C659 1.419 . S
C657 H661 0.930 . S
C658 C657 1.369 . S
C658 C667 1.429 . S
C659 C657 1.419 . S
C659 C660 1.363 . S
C659 H662 0.929 . S
C660 C659 1.363 . S
C660 C666 1.428 . S
H661 C657 0.930 . S
H662 C659 0.929 . S
S663 N664 1.613 . S
S663 N665 1.610 . S
N664 S663 1.613 . S
N664 C667 1.350 . S
N665 S663 1.610 . S
N665 C666 1.351 . S
C666 C660 1.428 . S
C666 N665 1.351 . S
C666 C667 1.434 . S
C667 C658 1.429 . S
C667 N664 1.350 . S
C667 C666 1.434 . S
C668 C669 1.369 . S
C668 C670 1.419 . S
C668 H672 0.930 . S
C669 C668 1.369 . S
C669 C678 1.429 . S
C670 C668 1.419 . S
C670 C671 1.363 . S
C670 H673 0.929 . S
C671 C670 1.363 . S
C671 C677 1.428 . S
H672 C668 0.930 . S
H673 C670 0.929 . S
S674 N675 1.613 . S
S674 N676 1.610 . S
N675 S674 1.613 . S
N675 C678 1.350 . S
N676 S674 1.610 . S
N676 C677 1.351 . S
C677 C671 1.428 . S
C677 N676 1.351 . S
C677 C678 1.434 . S
C678 C669 1.429 . S
C678 N675 1.350 . S
C678 C677 1.434 . S
C679 C680 1.369 . S
C679 C681 1.419 . S
C679 H683 0.930 . S
C680 C679 1.369 . S
C680 C689 1.429 . S
C681 C679 1.419 . S
C681 C682 1.363 . S
C681 H684 0.929 . S
C682 C681 1.363 . S
C682 C688 1.428 . S
H683 C679 0.930 . S
H684 C681 0.929 . S
S685 N686 1.613 . S
S685 N687 1.610 . S
N686 S685 1.613 . S
N686 C689 1.350 . S
N687 S685 1.610 . S
N687 C688 1.351 . S
C688 C682 1.428 . S
C688 N687 1.351 . S
C688 C689 1.434 . S
C689 C680 1.429 . S
C689 N686 1.350 . S
C689 C688 1.434 . S
C690 C691 1.369 . S
C690 C692 1.419 . S
C690 H694 0.930 . S
C691 C690 1.369 . S
C691 C700 1.429 . S
C692 C690 1.419 . S
C692 C693 1.363 . S
C692 H695 0.929 . S
C693 C692 1.363 . S
C693 C699 1.428 . S
H694 C690 0.930 . S
H695 C692 0.929 . S
S696 N697 1.613 . S
S696 N698 1.610 . S
N697 S696 1.613 . S
N697 C700 1.350 . S
N698 S696 1.610 . S
N698 C699 1.351 . S
C699 C693 1.428 . S
C699 N698 1.351 . S
C699 C700 1.434 . S
C700 C691 1.429 . S
C700 N697 1.350 . S
C700 C699 1.434 . S
C701 C702 1.369 . S
C701 C703 1.419 . S
C701 H705 0.930 . S
C702 C701 1.369 . S
C702 C711 1.429 . S
C703 C701 1.419 . S
C703 C704 1.363 . S
C703 H706 0.929 . S
C704 C703 1.363 . S
C704 C710 1.428 . S
H705 C701 0.930 . S
H706 C703 0.929 . S
S707 N708 1.613 . S
S707 N709 1.610 . S
N708 S707 1.613 . S
N708 C711 1.350 . S
N709 S707 1.610 . S
N709 C710 1.351 . S
C710 C704 1.428 . S
C710 N709 1.351 . S
C710 C711 1.434 . S
C711 C702 1.429 . S
C711 N708 1.350 . S
C711 C710 1.434 . S
C449 C1 1.420 . S
C451 C303 1.438 . S
C460 C67 1.731 . S
C462 C347 1.689 . S
C473 C377 2.367 . S
C471 C97 2.304 . S
C482 C133 2.771 . S
C484 C418 2.759 . S
C495 C334 1.044 . S
C493 C25 1.005 . S
C506 C298 2.516 . S
C504 C37 2.458 . S
C517 C426 1.260 . S
C515 C103 1.244 . S
C528 C387 2.408 . S
C526 C109 2.454 . S
C537 C31 1.646 . S
C539 C423 1.654 . S
C550 C337 2.131 . S
C548 C73 2.172 . S
C559 C139 2.069 . S
C561 C306 2.053 . S
C570 C61 2.075 . S
C572 C374 2.078 . S
C583 C294 1.435 . S
C581 C175 1.307 . S
C592 C181 1.703 . S
C594 C338 1.673 . S
C603 C247 2.295 . S
C605 C386 2.388 . S
C614 C277 2.768 . S
C616 C427 2.752 . S
C625 C145 0.970 . S
C627 C343 1.034 . S
C638 C307 2.523 . S
C636 C211 2.456 . S
C649 C417 1.249 . S
C647 C217 1.211 . S
C660 C378 2.430 . S
C658 C283 2.436 . S
C669 C169 1.505 . S
C671 C414 1.642 . S
C682 C346 2.155 . S
C680 C241 2.163 . S
C693 C297 2.033 . S
C691 C253 2.076 . S
C702 C205 2.109 . S
C704 C383 2.087 . S
