# Generated by pormake.
# Topology pth, (4,4)-cn, num edge types: 1
# Building blocks:
#     Node 0, Type 0, BuildingBlock: CEKHIL_clean_sbu_0, # of connection points: 4
#     Node 1, Type 0, BuildingBlock: CEKHIL_clean_sbu_0, # of connection points: 4
#     Node 2, Type 0, BuildingBlock: CEKHIL_clean_sbu_0, # of connection points: 4
#     Node 3, Type 1, BuildingBlock: NAWXER_clean_linker_0, # of connection points: 4
#     Node 4, Type 1, BuildingBlock: NAWXER_clean_linker_0, # of connection points: 4
#     Node 5, Type 1, BuildingBlock: NAWXER_clean_linker_0, # of connection points: 4
#     Edge 6, Type (0, 1), BuildingBlock: XIVTED_clean_linker_0, # of connection points: 2
#     Edge 7, Type (0, 1), BuildingBlock: XIVTED_clean_linker_0, # of connection points: 2
#     Edge 8, Type (0, 1), BuildingBlock: XIVTED_clean_linker_0, # of connection points: 2
#     Edge 9, Type (0, 1), BuildingBlock: XIVTED_clean_linker_0, # of connection points: 2
#     Edge 10, Type (0, 1), BuildingBlock: XIVTED_clean_linker_0, # of connection points: 2
#     Edge 11, Type (0, 1), BuildingBlock: XIVTED_clean_linker_0, # of connection points: 2
#     Edge 12, Type (0, 1), BuildingBlock: XIVTED_clean_linker_0, # of connection points: 2
#     Edge 13, Type (0, 1), BuildingBlock: XIVTED_clean_linker_0, # of connection points: 2
#     Edge 14, Type (0, 1), BuildingBlock: XIVTED_clean_linker_0, # of connection points: 2
#     Edge 15, Type (0, 1), BuildingBlock: XIVTED_clean_linker_0, # of connection points: 2
#     Edge 16, Type (0, 1), BuildingBlock: XIVTED_clean_linker_0, # of connection points: 2
#     Edge 17, Type (0, 1), BuildingBlock: XIVTED_clean_linker_0, # of connection points: 2
# Relax obj value: 0.006
# Max RMSD: 0.048
# Mean RMSD: 0.037
data_MOF--net-pth--node1-CEKHIL_clean_sbu_0--node2-NAWXER_clean_linker_0--edge1-XIVTED_clean_linker_0
_symmetry_space_group_name_H-M    P1
_symmetry_Int_Tables_number       1
_symmetry_cell_setting            triclinic
loop_
_symmetry_equiv_pos_as_xyz
'x, y, z'
_cell_length_a     28.699083
_cell_length_b     28.78236
_cell_length_c     66.565985
_cell_angle_alpha  91.05656
_cell_angle_beta   89.990686
_cell_angle_gamma 120.31908
loop_
_atom_site_label
_atom_site_type_symbol
_atom_site_fract_x
_atom_site_fract_y
_atom_site_fract_z
_atom_type_partial_charge
Co0 Co 0.02247 0.03538 0.05964 0.0
O1 O 0.98727 0.98075 0.0793 0.0
O2 O 0.05595 0.99143 0.06076 0.0
C3 C 0.02967 0.10284 0.07956 0.0
O4 O 0.07095 0.08922 0.0387 0.0
Co5 Co 0.96822 0.0966 0.04338 0.0
O6 O 0.0414 0.14691 0.03338 0.0
C7 C 0.93265 0.98696 0.02786 0.0
C8 C 0.02192 0.96586 0.07501 0.0
C9 C 0.07663 0.13276 0.03122 0.0
O10 O 0.97007 0.98628 0.03826 0.0
O11 O 0.92341 0.02609 0.02857 0.0
O12 O 0.06477 0.08717 0.0808 0.0
O13 O 0.9892 0.07478 0.06751 0.0
Co14 Co 0.0047 0.03992 0.37837 0.0
O15 O 0.97193 0.06233 0.35866 0.0
O16 O 0.03801 0.11786 0.37928 0.0
C17 C 0.0151 0.9834 0.35745 0.0
O18 O 0.04969 0.03057 0.39994 0.0
Co19 Co 0.94739 0.91996 0.39054 0.0
O20 O 0.01983 0.94187 0.40181 0.0
C21 C 0.9071 0.99011 0.40564 0.0
C22 C 0.00571 0.11141 0.36438 0.0
C23 C 0.05446 0.99088 0.40599 0.0
O24 O 0.94907 0.03168 0.39875 0.0
O25 O 0.89669 0.94177 0.4024 0.0
O26 O 0.05029 0.03454 0.35779 0.0
O27 O 0.97304 0.969 0.36842 0.0
Co28 Co 0.00217 0.03397 0.71409 0.0
O29 O 0.05451 0.0684 0.69347 0.0
O30 O 0.04447 0.99891 0.71072 0.0
C31 C 0.93323 0.02938 0.69622 0.0
O32 O 0.95045 0.98636 0.73575 0.0
Co33 Co 0.94587 0.09066 0.73346 0.0
O34 O 0.8958 0.01839 0.7439 0.0
C35 C 0.05579 0.12124 0.74684 0.0
C36 C 0.06905 0.03317 0.69651 0.0
C37 C 0.90888 0.98227 0.74481 0.0
O38 O 0.0548 0.08487 0.73503 0.0
O39 O 0.01737 0.13156 0.74783 0.0
O40 O 0.94694 0.99302 0.69383 0.0
O41 O 0.96381 0.06932 0.70818 0.0
C42 C 0.00589 0.38724 0.25704 0.0
C43 C 0.04688 0.40004 0.27141 0.0
C44 C 0.00983 0.42575 0.24363 0.0
C45 C 0.05473 0.47803 0.24429 0.0
C46 C 0.09184 0.45261 0.27203 0.0
C47 C 0.09543 0.49133 0.25871 0.0
C48 C 0.05698 0.51988 0.2311 0.0
C49 C 0.07965 0.40998 0.18746 0.0
C50 C 0.03634 0.38219 0.17376 0.0
C51 C 0.08264 0.45097 0.19997 0.0
C52 C 0.04262 0.46517 0.19891 0.0
C53 C 0.99546 0.39553 0.17331 0.0
C54 C -0.00106 0.437 0.18558 0.0
C55 C 0.04844 0.51248 0.21015 0.0
C56 C 0.08593 0.72928 0.18406 0.0
C57 C 0.05017 0.71078 0.16755 0.0
C58 C 0.08713 0.69276 0.19732 0.0
C59 C 0.05124 0.63713 0.19469 0.0
C60 C 0.0154 0.65527 0.16457 0.0
C61 C 0.01579 0.61886 0.17805 0.0
C62 C 0.05251 0.59716 0.20814 0.0
C63 C 0.01485 0.69746 0.25059 0.0
C64 C 0.05474 0.72632 0.26535 0.0
C65 C 0.01729 0.65873 0.23841 0.0
C66 C 0.0598 0.64835 0.24072 0.0
C67 C 0.09762 0.71633 0.26745 0.0
C68 C 0.09983 0.67731 0.25536 0.0
C69 C 0.06003 0.6041 0.22923 0.0
H70 H 0.96997 0.34774 0.25641 0.0
H71 H 0.977 0.41501 0.23309 0.0
H72 H 0.12445 0.46385 0.2827 0.0
H73 H 0.13014 0.53167 0.25961 0.0
H74 H 0.11235 0.40153 0.18804 0.0
H75 H 0.11726 0.47297 0.20989 0.0
H76 H 0.96088 0.3743 0.16333 0.0
H77 H 0.96765 0.44744 0.18456 0.0
H78 H 0.11365 0.77195 0.18648 0.0
H79 H 0.11674 0.70814 0.20939 0.0
H80 H 0.98728 0.64009 0.152 0.0
H81 H 0.98811 0.57623 0.17547 0.0
H82 H 0.9815 0.70453 0.24857 0.0
H83 H 0.98526 0.63599 0.22753 0.0
H84 H 0.12854 0.73748 0.27886 0.0
H85 H 0.13255 0.66936 0.25755 0.0
N86 N 0.06248 0.56544 0.23983 0.0
N87 N 0.04668 0.55136 0.19953 0.0
C88 C 0.67063 0.0667 0.51503 0.0
C89 C 0.65588 0.0217 0.50224 0.0
C90 C 0.63335 0.0674 0.52841 0.0
C91 C 0.58054 0.02342 0.5291 0.0
C92 C 0.60315 0.97719 0.5035 0.0
C93 C 0.56575 0.97842 0.51656 0.0
C94 C 0.5393 0.02538 0.54172 0.0
C95 C 0.6462 0.00143 0.58495 0.0
C96 C 0.66754 0.03883 0.6011 0.0
C97 C 0.6072 0.00041 0.57209 0.0
C98 C 0.5895 0.03755 0.57483 0.0
C99 C 0.64993 0.07611 0.60371 0.0
C100 C 0.61135 0.0754 0.59074 0.0
C101 C 0.5444 0.03391 0.56274 0.0
C102 C 0.32368 0.99228 0.58623 0.0
C103 C 0.33944 0.02608 0.60339 0.0
C104 C 0.36241 0.99427 0.57297 0.0
C105 C 0.41757 0.03141 0.57629 0.0
C106 C 0.39445 0.06261 0.60689 0.0
C107 C 0.43308 0.06537 0.59344 0.0
C108 C 0.45988 0.03155 0.5634 0.0
C109 C 0.36368 0.06564 0.51756 0.0
C110 C 0.33582 0.02344 0.50336 0.0
C111 C 0.40118 0.06503 0.53085 0.0
C112 C 0.41167 0.0224 0.53011 0.0
C113 C 0.34541 0.98002 0.50322 0.0
C114 C 0.3834 0.97992 0.51625 0.0
C115 C 0.45546 0.02403 0.5423 0.0
H116 H 0.71045 0.10207 0.51436 0.0
H117 H 0.64525 0.1029 0.53778 0.0
H118 H 0.59048 0.94119 0.49437 0.0
H119 H 0.52512 0.94407 0.5169 0.0
H120 H 0.65913 0.97241 0.58236 0.0
H121 H 0.58972 0.96939 0.56046 0.0
H122 H 0.66462 0.10486 0.61617 0.0
H123 H 0.59781 0.10395 0.59338 0.0
H124 H 0.28147 0.96324 0.58338 0.0
H125 H 0.34909 0.96556 0.56054 0.0
H126 H 0.40755 0.08931 0.61997 0.0
H127 H 0.47529 0.09387 0.59655 0.0
H128 H 0.35794 0.10004 0.518 0.0
H129 H 0.42332 0.09872 0.54122 0.0
H130 H 0.32381 0.94606 0.49294 0.0
H131 H 0.39097 0.94666 0.51545 0.0
N132 N 0.49507 0.02073 0.53235 0.0
N133 N 0.50444 0.03658 0.57269 0.0
C134 C 0.38551 0.32698 0.85588 0.0
C135 C 0.36762 0.34351 0.83932 0.0
C136 C 0.42864 0.365 0.86782 0.0
C137 C 0.45304 0.42028 0.86382 0.0
C138 C 0.39279 0.39835 0.83501 0.0
C139 C 0.43478 0.43632 0.84718 0.0
C140 C 0.49922 0.46213 0.87592 0.0
C141 C 0.36717 0.38009 0.92133 0.0
C142 C 0.3789 0.35533 0.937 0.0
C143 C 0.40738 0.41374 0.90809 0.0
C144 C 0.46005 0.42276 0.91002 0.0
C145 C 0.43161 0.36415 0.93884 0.0
C146 C 0.47188 0.3979 0.92556 0.0
C147 C 0.50374 0.46188 0.8971 0.0
C148 C 0.66661 0.68565 0.91935 0.0
C149 C 0.70132 0.68003 0.93277 0.0
C150 C 0.63043 0.64246 0.90709 0.0
C151 C 0.62786 0.59259 0.90804 0.0
C152 C 0.69888 0.62994 0.93347 0.0
C153 C 0.66204 0.58649 0.92139 0.0
C154 C 0.58668 0.54595 0.89621 0.0
C155 C 0.70997 0.65807 0.85187 0.0
C156 C 0.68835 0.67707 0.83736 0.0
C157 C 0.67578 0.61582 0.86436 0.0
C158 C 0.61945 0.59206 0.86255 0.0
C159 C 0.63199 0.6525 0.83543 0.0
C160 C 0.59803 0.61046 0.84783 0.0
C161 C 0.58181 0.54658 0.87515 0.0
H162 H 0.36683 0.28467 0.8593 0.0
H163 H 0.4431 0.35101 0.87999 0.0
H164 H 0.37938 0.41192 0.82235 0.0
H165 H 0.45288 0.47848 0.84359 0.0
H166 H 0.32691 0.37381 0.91938 0.0
H167 H 0.39752 0.43362 0.89659 0.0
H168 H 0.44214 0.34629 0.95091 0.0
H169 H 0.51247 0.40504 0.92754 0.0
H170 H 0.66617 0.72297 0.91866 0.0
H171 H 0.6034 0.6476 0.89724 0.0
H172 H 0.7254 0.62415 0.94335 0.0
H173 H 0.6603 0.54812 0.92242 0.0
H174 H 0.75324 0.67621 0.85373 0.0
H175 H 0.69337 0.60146 0.87524 0.0
H176 H 0.61397 0.66541 0.82415 0.0
H177 H 0.55475 0.59249 0.84597 0.0
N178 N 0.53845 0.5046 0.86593 0.0
N179 N 0.54762 0.50357 0.90636 0.0
H180 H 0.09601 0.15052 0.11198 0.0
H181 H -0.00025 0.36127 0.13459 0.0
H182 H 0.97125 0.15396 0.07698 0.0
H183 H 0.07004 0.3093 0.18005 0.0
H184 H 0.99835 0.29416 0.11129 0.0
H185 H 0.09792 0.21895 0.13481 0.0
C186 C 0.06929 0.166 0.10901 0.0
C187 C 0.03329 0.14651 0.0926 0.0
C188 C 0.01392 0.29746 0.1264 0.0
C189 C 0.03539 0.22476 0.11863 0.0
C190 C 0.01442 0.33552 0.1398 0.0
C191 C 0.0348 0.341 0.15946 0.0
C192 C 0.03471 0.26512 0.13252 0.0
C193 C 0.05465 0.30728 0.16502 0.0
C194 C 0.07019 0.20477 0.12211 0.0
C195 C -0.00055 0.16782 0.08951 0.0
N196 N 0.0543 0.27096 0.1516 0.0
N197 N 0.00142 0.20599 0.10239 0.0
H198 H 0.79905 0.92201 0.41001 0.0
H199 H 0.76671 0.06849 0.50574 0.0
H200 H 0.93019 0.0758 0.43075 0.0
H201 H 0.63399 0.97435 0.4645 0.0
H202 H 0.82845 0.06531 0.48114 0.0
H203 H 0.73834 0.93302 0.43284 0.0
C204 C 0.815 0.95817 0.41934 0.0
C205 C 0.86967 0.99809 0.4185 0.0
C206 C 0.78576 0.0456 0.47755 0.0
C207 C 0.80072 0.01042 0.44485 0.0
C208 C 0.75039 0.04751 0.49153 0.0
C209 C 0.69463 0.02125 0.48739 0.0
C210 C 0.7652 0.01644 0.45945 0.0
C211 C 0.6762 0.99396 0.46875 0.0
C212 C 0.78034 0.96449 0.43229 0.0
C213 C 0.8882 0.04425 0.43087 0.0
N214 N 0.71127 0.99182 0.4556 0.0
N215 N 0.85389 0.0489 0.44376 0.0
H216 H 0.81498 0.95721 0.76379 0.0
H217 H 0.78123 0.6962 0.81809 0.0
H218 H 0.92752 0.90065 0.75547 0.0
H219 H 0.67622 0.76151 0.8267 0.0
H220 H 0.83593 0.76968 0.79519 0.0
H221 H 0.76332 0.88373 0.78634 0.0
C222 C 0.82891 0.92926 0.76664 0.0
C223 C 0.87599 0.93546 0.75771 0.0
C224 C 0.80092 0.76784 0.80212 0.0
C225 C 0.8165 0.85058 0.78381 0.0
C226 C 0.76991 0.72616 0.81529 0.0
C227 C 0.72383 0.72247 0.82422 0.0
C228 C 0.78574 0.80608 0.79793 0.0
C229 C 0.71078 0.76212 0.8199 0.0
C230 C 0.79925 0.88716 0.77961 0.0
C231 C 0.89153 0.89751 0.762 0.0
N232 N 0.74144 0.80205 0.80707 0.0
N233 N 0.86191 0.85671 0.77481 0.0
H234 H 0.07499 0.91039 0.06675 0.0
H235 H 0.03876 0.79687 0.17704 0.0
H236 H 0.97678 0.92993 0.11141 0.0
H237 H 0.05706 0.71166 0.12653 0.0
H238 H 0.03189 0.85817 0.15376 0.0
H239 H 0.08309 0.84729 0.089 0.0
C240 C 0.05499 0.90122 0.08114 0.0
C241 C 0.02506 0.92523 0.08724 0.0
C242 C 0.0375 0.82608 0.14779 0.0
C243 C 0.03517 0.85468 0.11273 0.0
C244 C 0.04176 0.79144 0.16104 0.0
C245 C 0.04832 0.74927 0.15362 0.0
C246 C 0.04083 0.81907 0.12701 0.0
C247 C 0.05161 0.74359 0.13276 0.0
C248 C 0.05959 0.86533 0.09377 0.0
C249 C 1e-05 0.91213 0.10605 0.0
N250 N 0.04814 0.77836 0.12012 0.0
N251 N 0.00608 0.8782 0.11819 0.0
H252 H 0.10535 0.93307 0.40721 0.0
H253 H 0.26697 0.06374 0.50811 0.0
H254 H 0.1084 0.07209 0.43413 0.0
H255 H 0.31859 0.98726 0.4641 0.0
H256 H 0.20325 0.06233 0.48327 0.0
H257 H 0.17762 0.94612 0.43013 0.0
C258 C 0.12147 0.96652 0.41792 0.0
C259 C 0.10089 0.00152 0.41883 0.0
C260 C 0.22887 0.04619 0.47912 0.0
C261 C 0.18299 0.01617 0.4453 0.0
C262 C 0.26539 0.04706 0.49325 0.0
C263 C 0.29797 0.02491 0.48837 0.0
C264 C 0.22431 0.02232 0.4601 0.0
C265 C 0.29339 0.00333 0.46886 0.0
C266 C 0.16282 0.97406 0.43093 0.0
C267 C 0.12342 0.0444 0.43291 0.0
N268 N 0.25691 0.00207 0.45556 0.0
N269 N 0.16288 0.05015 0.44583 0.0
H270 H 0.15955 0.14325 0.74136 0.0
H271 H 0.26396 0.27454 0.85039 0.0
H272 H 0.0586 0.16693 0.78346 0.0
H273 H 0.36894 0.32474 0.79917 0.0
H274 H 0.18722 0.21667 0.82799 0.0
H275 H 0.23658 0.19316 0.76447 0.0
C276 C 0.15359 0.15881 0.75547 0.0
C277 C 0.10279 0.15139 0.76045 0.0
C278 C 0.22719 0.24005 0.82173 0.0
C279 C 0.19005 0.20717 0.78697 0.0
C280 C 0.2708 0.27259 0.83447 0.0
C281 C 0.32242 0.3042 0.82649 0.0
C282 C 0.23573 0.23853 0.80101 0.0
C283 C 0.3295 0.30091 0.80578 0.0
C284 C 0.19746 0.18725 0.76858 0.0
C285 C 0.09723 0.17231 0.77893 0.0
N286 N 0.28657 0.26849 0.79371 0.0
N287 N 0.14028 0.19899 0.79159 0.0
H288 H 0.8569 0.946 0.67332 0.0
H289 H 0.75474 0.1244 0.61997 0.0
H290 H 0.91133 0.1106 0.6912 0.0
H291 H 0.6688 0.95069 0.61561 0.0
H292 H 0.81605 0.12119 0.64458 0.0
H293 H 0.79058 0.94761 0.65073 0.0
C294 C 0.85457 0.98235 0.6726 0.0
C295 C 0.8897 0.0283 0.68408 0.0
C296 C 0.78367 0.0838 0.63826 0.0
C297 C 0.81452 0.03066 0.6581 0.0
C298 C 0.7485 0.08555 0.62422 0.0
C299 C 0.70637 0.03773 0.61563 0.0
C300 C 0.7771 0.03394 0.64364 0.0
C301 C 0.70114 0.98867 0.62151 0.0
C302 C 0.81674 0.98324 0.65971 0.0
C303 C 0.88494 0.07428 0.68261 0.0
N304 N 0.73616 0.98807 0.63509 0.0
N305 N 0.84836 0.07448 0.66969 0.0
H306 H 0.91468 0.88402 0.02941 0.0
H307 H 0.75556 0.7885 0.925 0.0
H308 H 0.87542 0.98518 0.99471 0.0
H309 H 0.73246 0.67649 0.97164 0.0
H310 H 0.81195 0.86283 0.94813 0.0
H311 H 0.86009 0.80887 0.00601 0.0
C312 C 0.89469 0.89046 0.01687 0.0
C313 C 0.89945 0.94091 0.01405 0.0
C314 C 0.79451 0.8219 0.95324 0.0
C315 C 0.83774 0.85548 0.98717 0.0
C316 C 0.76203 0.77932 0.94008 0.0
C317 C 0.73855 0.72577 0.94633 0.0
C318 C 0.80449 0.8111 0.97273 0.0
C319 C 0.75005 0.71683 0.96596 0.0
C320 C 0.86346 0.84756 0.00359 0.0
C321 C 0.87254 0.94691 0.99756 0.0
N322 N 0.78224 0.75902 0.97844 0.0
N323 N 0.84314 0.90481 0.98467 0.0
H324 H 0.94337 0.87624 0.35153 0.0
H325 H 0.13461 0.82725 0.2773 0.0
H326 H 0.10239 0.0021 0.33493 0.0
H327 H 0.96516 0.71318 0.2848 0.0
H328 H 0.12644 0.88962 0.30058 0.0
H329 H 0.95369 0.8133 0.32946 0.0
C330 C 0.98057 0.89056 0.3433 0.0
C331 C 0.02201 0.94447 0.34498 0.0
C332 C 0.09105 0.85098 0.29709 0.0
C333 C 0.0341 0.87276 0.3197 0.0
C334 C 0.09574 0.81534 0.28388 0.0
C335 C 0.05044 0.7651 0.27907 0.0
C336 C 0.04081 0.83601 0.30568 0.0
C337 C 0.00093 0.75181 0.28789 0.0
C338 C 0.98637 0.85467 0.33066 0.0
C339 C 0.06937 0.96087 0.33401 0.0
N340 N 0.99748 0.78698 0.30081 0.0
N341 N 0.07414 0.92513 0.32181 0.0
H342 H 0.10035 0.07727 0.65985 0.0
H343 H 0.3373 0.01566 0.64422 0.0
H344 H 0.12864 0.98374 0.70295 0.0
H345 H 0.24919 0.03088 0.59477 0.0
H346 H 0.27031 0.01462 0.66755 0.0
H347 H 0.16487 0.07261 0.63735 0.0
C348 C 0.12039 0.05593 0.66464 0.0
C349 C 0.10919 0.03086 0.68331 0.0
C350 C 0.2656 0.01784 0.65158 0.0
C351 C 0.18339 0.02568 0.65759 0.0
C352 C 0.30381 0.01875 0.63832 0.0
C353 C 0.29861 0.02349 0.6176 0.0
C354 C 0.22279 0.02293 0.64404 0.0
C355 C 0.25442 0.02694 0.61064 0.0
C356 C 0.15694 0.05302 0.65171 0.0
C357 C 0.13612 0.00348 0.68865 0.0
N358 N 0.21849 0.02718 0.62386 0.0
N359 N 0.17247 0.00195 0.67588 0.0
H360 H 0.10729 0.23221 0.01674 0.0
H361 H 0.35715 0.25954 0.95364 0.0
H362 H 0.15511 0.11198 0.01728 0.0
H363 H 0.3049 0.3763 0.95432 0.0
H364 H 0.28644 0.20611 0.97784 0.0
H365 H 0.18238 0.28654 0.99487 0.0
C366 C 0.13365 0.21715 0.01231 0.0
C367 C 0.12445 0.16708 0.01881 0.0
C368 C 0.29055 0.24345 0.97268 0.0
C369 C 0.21112 0.22963 0.99352 0.0
C370 C 0.33101 0.27406 0.95894 0.0
C371 C 0.33672 0.32231 0.9518 0.0
C372 C 0.25573 0.26134 0.97939 0.0
C373 C 0.30143 0.33893 0.95907 0.0
C374 C 0.1767 0.24837 0.99977 0.0
C375 C 0.16051 0.15022 0.01263 0.0
N376 N 0.26254 0.30852 0.9724 0.0
N377 N 0.20214 0.18132 1.00023 0.0
H378 H 0.07357 0.2207 0.37097 0.0
H379 H 0.00444 0.29192 0.26417 0.0
H380 H 0.94765 0.10529 0.33125 0.0
H381 H 0.079 0.41331 0.31127 0.0
H382 H 0.99282 0.2238 0.28792 0.0
H383 H 0.08437 0.29324 0.34891 0.0
C384 C 0.0479 0.21068 0.35778 0.0
C385 C 0.00981 0.15685 0.35291 0.0
C386 C 0.01161 0.26534 0.29309 0.0
C387 C 0.02261 0.239 0.3276 0.0
C388 C 0.01808 0.30437 0.27953 0.0
C389 C 0.04218 0.35862 0.2857 0.0
C390 C 0.02994 0.28038 0.313 0.0
C391 C 0.06059 0.37215 0.30574 0.0
C392 C 0.05415 0.25198 0.34522 0.0
C393 C 0.97768 0.1461 0.33561 0.0
N394 N 0.05414 0.33328 0.31869 0.0
N395 N 0.98517 0.18665 0.32353 0.0
loop_
_geom_bond_atom_site_label_1
_geom_bond_atom_site_label_2
_geom_bond_distance
_geom_bond_site_symmetry_2
_ccdc_geom_bond_type
Co0 O1 2.216 1_445 S
Co0 O2 2.091 1_545 S
Co0 O4 2.004 . S
Co0 O10 2.021 1_445 S
Co0 O12 2.137 . S
Co0 O13 2.244 1_455 S
O1 Co0 2.216 1_665 S
O1 C8 1.247 1_655 S
O2 Co0 2.091 1_565 S
O2 C8 1.261 . S
C3 O12 1.247 . S
C3 O13 1.272 1_455 S
O4 Co0 2.004 . S
O4 C9 1.259 . S
Co5 O6 2.061 1_655 S
Co5 O11 2.052 . S
Co5 O13 2.135 . S
O6 Co5 2.061 1_455 S
O6 C9 1.235 . S
C7 O10 1.238 . S
C7 O11 1.241 1_565 S
C8 O1 1.247 1_455 S
C8 O2 1.261 . S
C9 O4 1.259 . S
C9 O6 1.235 . S
O10 Co0 2.021 1_665 S
O10 C7 1.238 . S
O11 Co5 2.052 . S
O11 C7 1.241 1_545 S
O12 Co0 2.137 . S
O12 C3 1.247 . S
O13 Co0 2.244 1_655 S
O13 C3 1.272 1_655 S
O13 Co5 2.135 . S
Co14 O15 2.216 1_455 S
Co14 O16 2.091 . S
Co14 O18 2.004 . S
Co14 O24 2.008 1_455 S
Co14 O26 2.137 . S
Co14 O27 2.244 1_445 S
O15 Co14 2.216 1_655 S
O15 C22 1.247 1_655 S
O16 Co14 2.091 . S
O16 C22 1.261 . S
C17 O26 1.247 1_565 S
C17 O27 1.268 1_455 S
O18 Co14 2.004 . S
O18 C23 1.259 . S
Co19 O20 2.061 1_655 S
Co19 O25 2.052 . S
Co19 O27 2.135 . S
O20 Co19 2.061 1_455 S
O20 C23 1.235 1_565 S
C21 O24 1.247 . S
C21 O25 1.241 1_545 S
C22 O15 1.247 1_455 S
C22 O16 1.261 . S
C23 O18 1.259 . S
C23 O20 1.235 1_545 S
O24 Co14 2.008 1_655 S
O24 C21 1.247 . S
O25 Co19 2.052 . S
O25 C21 1.241 1_565 S
O26 Co14 2.137 . S
O26 C17 1.247 1_545 S
O27 Co14 2.244 1_665 S
O27 C17 1.268 1_655 S
O27 Co19 2.135 . S
Co28 O29 2.216 . S
Co28 O30 2.091 1_545 S
Co28 O32 2.004 1_445 S
Co28 O38 2.021 . S
Co28 O40 2.137 1_445 S
Co28 O41 2.244 1_455 S
O29 Co28 2.216 . S
O29 C36 1.247 . S
O30 Co28 2.091 1_565 S
O30 C36 1.261 1_565 S
C31 O40 1.247 1_545 S
C31 O41 1.272 . S
O32 Co28 2.004 1_665 S
O32 C37 1.259 . S
Co33 O34 2.064 . S
Co33 O39 2.052 1_655 S
Co33 O41 2.135 . S
O34 Co33 2.064 . S
O34 C37 1.232 1_545 S
C35 O38 1.238 . S
C35 O39 1.241 . S
C36 O29 1.247 . S
C36 O30 1.261 1_545 S
C37 O32 1.259 . S
C37 O34 1.232 1_565 S
O38 Co28 2.021 . S
O38 C35 1.238 . S
O39 Co33 2.052 1_455 S
O39 C35 1.241 . S
O40 Co28 2.137 1_665 S
O40 C31 1.247 1_565 S
O41 Co28 2.244 1_655 S
O41 C31 1.272 . S
O41 Co33 2.135 . S
C42 C43 1.384 1_655 S
C42 C44 1.384 . S
C42 H70 0.931 . S
C43 C42 1.384 1_455 S
C43 C46 1.382 . S
C44 C42 1.384 . S
C44 C45 1.381 1_655 S
C44 H71 0.930 . S
C45 C44 1.381 1_455 S
C45 C47 1.381 . S
C45 C48 1.487 . S
C46 C43 1.382 . S
C46 C47 1.387 . S
C46 H72 0.930 . S
C47 C45 1.381 . S
C47 C46 1.387 . S
C47 H73 0.931 . S
C48 C45 1.487 . S
C48 C55 1.399 . S
C48 N86 1.343 . S
C49 C50 1.384 . S
C49 C51 1.384 . S
C49 H74 0.931 . S
C50 C49 1.384 . S
C50 C53 1.382 1_455 S
C51 C49 1.384 . S
C51 C52 1.381 . S
C51 H75 0.930 . S
C52 C51 1.381 . S
C52 C54 1.381 1_455 S
C52 C55 1.487 . S
C53 C50 1.382 1_655 S
C53 C54 1.387 . S
C53 H76 0.930 . S
C54 C52 1.381 1_655 S
C54 C53 1.387 . S
C54 H77 0.931 . S
C55 C48 1.399 . S
C55 C52 1.487 . S
C55 N87 1.343 . S
C56 C57 1.384 . S
C56 C58 1.384 . S
C56 H78 0.931 . S
C57 C56 1.384 . S
C57 C60 1.382 1_455 S
C58 C56 1.384 . S
C58 C59 1.381 . S
C58 H79 0.930 . S
C59 C58 1.381 . S
C59 C61 1.381 1_455 S
C59 C62 1.487 . S
C60 C57 1.382 1_655 S
C60 C61 1.387 . S
C60 H80 0.930 . S
C61 C59 1.381 1_655 S
C61 C60 1.387 . S
C61 H81 0.931 . S
C62 C59 1.487 . S
C62 C69 1.399 . S
C62 N87 1.343 . S
C63 C64 1.384 1_655 S
C63 C65 1.384 . S
C63 H82 0.931 . S
C64 C63 1.384 1_455 S
C64 C67 1.382 . S
C65 C63 1.384 . S
C65 C66 1.381 1_655 S
C65 H83 0.930 . S
C66 C65 1.381 1_455 S
C66 C68 1.381 . S
C66 C69 1.487 . S
C67 C64 1.382 . S
C67 C68 1.387 . S
C67 H84 0.930 . S
C68 C66 1.381 . S
C68 C67 1.387 . S
C68 H85 0.931 . S
C69 C62 1.399 . S
C69 C66 1.487 . S
C69 N86 1.343 . S
H70 C42 0.931 . S
H71 C44 0.930 . S
H72 C46 0.930 . S
H73 C47 0.931 . S
H74 C49 0.931 . S
H75 C51 0.930 . S
H76 C53 0.930 . S
H77 C54 0.931 . S
H78 C56 0.931 . S
H79 C58 0.930 . S
H80 C60 0.930 . S
H81 C61 0.931 . S
H82 C63 0.931 . S
H83 C65 0.930 . S
H84 C67 0.930 . S
H85 C68 0.931 . S
N86 C48 1.343 . S
N86 C69 1.343 . S
N87 C55 1.343 . S
N87 C62 1.343 . S
C88 C89 1.384 . S
C88 C90 1.384 . S
C88 H116 0.931 . S
C89 C88 1.384 . S
C89 C92 1.382 1_545 S
C90 C88 1.384 . S
C90 C91 1.381 . S
C90 H117 0.930 . S
C91 C90 1.381 . S
C91 C93 1.381 1_545 S
C91 C94 1.487 . S
C92 C89 1.382 1_565 S
C92 C93 1.387 . S
C92 H118 0.930 . S
C93 C91 1.381 1_565 S
C93 C92 1.387 . S
C93 H119 0.931 . S
C94 C91 1.487 . S
C94 C101 1.399 . S
C94 N132 1.343 . S
C95 C96 1.384 1_565 S
C95 C97 1.384 . S
C95 H120 0.931 . S
C96 C95 1.384 1_545 S
C96 C99 1.382 . S
C97 C95 1.384 . S
C97 C98 1.381 1_565 S
C97 H121 0.930 . S
C98 C97 1.381 1_545 S
C98 C100 1.381 . S
C98 C101 1.487 . S
C99 C96 1.382 . S
C99 C100 1.387 . S
C99 H122 0.930 . S
C100 C98 1.381 . S
C100 C99 1.387 . S
C100 H123 0.931 . S
C101 C94 1.399 . S
C101 C98 1.487 . S
C101 N133 1.343 . S
C102 C103 1.384 1_565 S
C102 C104 1.384 . S
C102 H124 0.931 . S
C103 C102 1.384 1_545 S
C103 C106 1.382 . S
C104 C102 1.384 . S
C104 C105 1.381 1_565 S
C104 H125 0.930 . S
C105 C104 1.381 1_545 S
C105 C107 1.381 . S
C105 C108 1.487 . S
C106 C103 1.382 . S
C106 C107 1.387 . S
C106 H126 0.930 . S
C107 C105 1.381 . S
C107 C106 1.387 . S
C107 H127 0.931 . S
C108 C105 1.487 . S
C108 C115 1.399 . S
C108 N133 1.343 . S
C109 C110 1.384 . S
C109 C111 1.384 . S
C109 H128 0.931 . S
C110 C109 1.384 . S
C110 C113 1.382 1_545 S
C111 C109 1.384 . S
C111 C112 1.381 . S
C111 H129 0.930 . S
C112 C111 1.381 . S
C112 C114 1.381 1_545 S
C112 C115 1.487 . S
C113 C110 1.382 1_565 S
C113 C114 1.387 . S
C113 H130 0.930 . S
C114 C112 1.381 1_565 S
C114 C113 1.387 . S
C114 H131 0.931 . S
C115 C108 1.399 . S
C115 C112 1.487 . S
C115 N132 1.343 . S
H116 C88 0.931 . S
H117 C90 0.930 . S
H118 C92 0.930 . S
H119 C93 0.931 . S
H120 C95 0.931 . S
H121 C97 0.930 . S
H122 C99 0.930 . S
H123 C100 0.931 . S
H124 C102 0.931 . S
H125 C104 0.930 . S
H126 C106 0.930 . S
H127 C107 0.931 . S
H128 C109 0.931 . S
H129 C111 0.930 . S
H130 C113 0.930 . S
H131 C114 0.931 . S
N132 C94 1.343 . S
N132 C115 1.343 . S
N133 C101 1.343 . S
N133 C108 1.343 . S
C134 C135 1.384 . S
C134 C136 1.384 . S
C134 H162 0.931 . S
C135 C134 1.384 . S
C135 C138 1.382 . S
C136 C134 1.384 . S
C136 C137 1.381 . S
C136 H163 0.930 . S
C137 C136 1.381 . S
C137 C139 1.381 . S
C137 C140 1.487 . S
C138 C135 1.382 . S
C138 C139 1.387 . S
C138 H164 0.930 . S
C139 C137 1.381 . S
C139 C138 1.387 . S
C139 H165 0.931 . S
C140 C137 1.487 . S
C140 C147 1.399 . S
C140 N178 1.343 . S
C141 C142 1.384 . S
C141 C143 1.384 . S
C141 H166 0.931 . S
C142 C141 1.384 . S
C142 C145 1.382 . S
C143 C141 1.384 . S
C143 C144 1.381 . S
C143 H167 0.930 . S
C144 C143 1.381 . S
C144 C146 1.381 . S
C144 C147 1.487 . S
C145 C142 1.382 . S
C145 C146 1.387 . S
C145 H168 0.930 . S
C146 C144 1.381 . S
C146 C145 1.387 . S
C146 H169 0.931 . S
C147 C140 1.399 . S
C147 C144 1.487 . S
C147 N179 1.343 . S
C148 C149 1.384 . S
C148 C150 1.384 . S
C148 H170 0.931 . S
C149 C148 1.384 . S
C149 C152 1.382 . S
C150 C148 1.384 . S
C150 C151 1.381 . S
C150 H171 0.930 . S
C151 C150 1.381 . S
C151 C153 1.381 . S
C151 C154 1.487 . S
C152 C149 1.382 . S
C152 C153 1.387 . S
C152 H172 0.930 . S
C153 C151 1.381 . S
C153 C152 1.387 . S
C153 H173 0.931 . S
C154 C151 1.487 . S
C154 C161 1.399 . S
C154 N179 1.343 . S
C155 C156 1.384 . S
C155 C157 1.384 . S
C155 H174 0.931 . S
C156 C155 1.384 . S
C156 C159 1.382 . S
C157 C155 1.384 . S
C157 C158 1.381 . S
C157 H175 0.930 . S
C158 C157 1.381 . S
C158 C160 1.381 . S
C158 C161 1.487 . S
C159 C156 1.382 . S
C159 C160 1.387 . S
C159 H176 0.930 . S
C160 C158 1.381 . S
C160 C159 1.387 . S
C160 H177 0.931 . S
C161 C154 1.399 . S
C161 C158 1.487 . S
C161 N178 1.343 . S
H162 C134 0.931 . S
H163 C136 0.930 . S
H164 C138 0.930 . S
H165 C139 0.931 . S
H166 C141 0.931 . S
H167 C143 0.930 . S
H168 C145 0.930 . S
H169 C146 0.931 . S
H170 C148 0.931 . S
H171 C150 0.930 . S
H172 C152 0.930 . S
H173 C153 0.931 . S
H174 C155 0.931 . S
H175 C157 0.930 . S
H176 C159 0.930 . S
H177 C160 0.931 . S
N178 C140 1.343 . S
N178 C161 1.343 . S
N179 C147 1.343 . S
N179 C154 1.343 . S
H180 C186 0.930 . S
H181 C190 0.930 . S
H182 C195 0.929 . S
H183 C193 0.929 . S
H184 C188 0.929 . S
H185 C194 0.929 . S
C186 H180 0.930 . S
C186 C187 1.367 1_655 S
C186 C194 1.378 . S
C187 C186 1.367 1_455 S
C187 C195 1.433 . S
C188 H184 0.929 . S
C188 C190 1.378 . S
C188 C192 1.350 . S
C189 C192 1.463 . S
C189 C194 1.350 1_455 S
C189 N197 1.427 . S
C190 H181 0.930 . S
C190 C188 1.378 . S
C190 C191 1.367 . S
C191 C190 1.367 . S
C191 C193 1.433 1_455 S
C192 C188 1.350 . S
C192 C189 1.463 . S
C192 N196 1.427 1_455 S
C193 H183 0.929 . S
C193 C191 1.433 1_655 S
C193 N196 1.384 . S
C194 H185 0.929 . S
C194 C186 1.378 . S
C194 C189 1.350 1_655 S
C195 H182 0.929 . S
C195 C187 1.433 . S
C195 N197 1.384 . S
N196 C192 1.427 1_655 S
N196 C193 1.384 . S
N197 C189 1.427 . S
N197 C195 1.384 . S
H198 C204 0.930 1_565 S
H199 C208 0.930 . S
H200 C213 0.929 . S
H201 C211 0.929 . S
H202 C206 0.929 . S
H203 C212 0.928 1_565 S
C204 H198 0.930 1_545 S
C204 C205 1.367 . S
C204 C212 1.372 . S
C205 C204 1.367 . S
C205 C213 1.433 . S
C206 H202 0.929 . S
C206 C208 1.378 . S
C206 C210 1.350 . S
C207 C210 1.463 . S
C207 C212 1.357 . S
C207 N215 1.427 . S
C208 H199 0.930 . S
C208 C206 1.378 . S
C208 C209 1.367 . S
C209 C208 1.367 . S
C209 C211 1.433 1_545 S
C210 C206 1.350 . S
C210 C207 1.463 . S
C210 N214 1.427 1_545 S
C211 H201 0.929 . S
C211 C209 1.433 1_565 S
C211 N214 1.384 . S
C212 H203 0.928 1_545 S
C212 C204 1.372 . S
C212 C207 1.357 . S
C213 H200 0.929 . S
C213 C205 1.433 . S
C213 N215 1.384 . S
N214 C210 1.427 1_565 S
N214 C211 1.384 . S
N215 C207 1.427 . S
N215 C213 1.384 . S
H216 C222 0.930 . S
H217 C226 0.930 . S
H218 C231 0.929 . S
H219 C229 0.929 . S
H220 C224 0.929 . S
H221 C230 0.929 . S
C222 H216 0.930 . S
C222 C223 1.367 . S
C222 C230 1.378 . S
C223 C222 1.367 . S
C223 C231 1.433 . S
C224 H220 0.929 . S
C224 C226 1.378 . S
C224 C228 1.350 . S
C225 C228 1.463 . S
C225 C230 1.350 . S
C225 N233 1.427 . S
C226 H217 0.930 . S
C226 C224 1.378 . S
C226 C227 1.367 . S
C227 C226 1.367 . S
C227 C229 1.433 . S
C228 C224 1.350 . S
C228 C225 1.463 . S
C228 N232 1.427 . S
C229 H219 0.929 . S
C229 C227 1.433 . S
C229 N232 1.384 . S
C230 H221 0.929 . S
C230 C222 1.378 . S
C230 C225 1.350 . S
C231 H218 0.929 . S
C231 C223 1.433 . S
C231 N233 1.384 . S
N232 C228 1.427 . S
N232 C229 1.384 . S
N233 C225 1.427 . S
N233 C231 1.384 . S
H234 C240 0.930 . S
H235 C244 0.930 . S
H236 C249 0.929 . S
H237 C247 0.929 . S
H238 C242 0.929 . S
H239 C248 0.929 . S
C240 H234 0.930 . S
C240 C241 1.367 1_655 S
C240 C248 1.378 . S
C241 C240 1.367 1_455 S
C241 C249 1.433 . S
C242 H238 0.929 . S
C242 C244 1.378 . S
C242 C246 1.350 . S
C243 C246 1.463 . S
C243 C248 1.350 1_455 S
C243 N251 1.427 . S
C244 H235 0.930 . S
C244 C242 1.378 . S
C244 C245 1.367 . S
C245 C244 1.367 . S
C245 C247 1.433 1_455 S
C246 C242 1.350 . S
C246 C243 1.463 . S
C246 N250 1.427 1_455 S
C247 H237 0.929 . S
C247 C245 1.433 1_655 S
C247 N250 1.384 . S
C248 H239 0.929 . S
C248 C240 1.378 . S
C248 C243 1.350 1_655 S
C249 H236 0.929 . S
C249 C241 1.433 . S
C249 N251 1.384 . S
N250 C246 1.427 1_655 S
N250 C247 1.384 . S
N251 C243 1.427 . S
N251 C249 1.384 . S
H252 C258 0.930 1_565 S
H253 C262 0.930 . S
H254 C267 0.929 . S
H255 C265 0.929 . S
H256 C260 0.929 . S
H257 C266 0.929 1_565 S
C258 H252 0.930 1_545 S
C258 C259 1.367 . S
C258 C266 1.378 . S
C259 C258 1.367 . S
C259 C267 1.433 . S
C260 H256 0.929 . S
C260 C262 1.378 . S
C260 C264 1.350 . S
C261 C264 1.463 . S
C261 C266 1.350 . S
C261 N269 1.427 . S
C262 H253 0.930 . S
C262 C260 1.378 . S
C262 C263 1.367 . S
C263 C262 1.367 . S
C263 C265 1.433 1_545 S
C264 C260 1.350 . S
C264 C261 1.463 . S
C264 N268 1.427 1_545 S
C265 H255 0.929 . S
C265 C263 1.433 1_565 S
C265 N268 1.384 . S
C266 H257 0.929 1_545 S
C266 C258 1.378 . S
C266 C261 1.350 . S
C267 H254 0.929 . S
C267 C259 1.433 . S
C267 N269 1.384 . S
N268 C264 1.427 1_565 S
N268 C265 1.384 . S
N269 C261 1.427 . S
N269 C267 1.384 . S
H270 C276 0.930 . S
H271 C280 0.930 . S
H272 C285 0.929 . S
H273 C283 0.929 . S
H274 C278 0.929 . S
H275 C284 0.929 . S
C276 H270 0.930 . S
C276 C277 1.367 . S
C276 C284 1.378 . S
C277 C276 1.367 . S
C277 C285 1.433 . S
C278 H274 0.929 . S
C278 C280 1.378 . S
C278 C282 1.350 . S
C279 C282 1.463 . S
C279 C284 1.350 . S
C279 N287 1.427 . S
C280 H271 0.930 . S
C280 C278 1.378 . S
C280 C281 1.367 . S
C281 C280 1.367 . S
C281 C283 1.433 . S
C282 C278 1.350 . S
C282 C279 1.463 . S
C282 N286 1.427 . S
C283 H273 0.929 . S
C283 C281 1.433 . S
C283 N286 1.384 . S
C284 H275 0.929 . S
C284 C276 1.378 . S
C284 C279 1.350 . S
C285 H272 0.929 . S
C285 C277 1.433 . S
C285 N287 1.384 . S
N286 C282 1.427 . S
N286 C283 1.384 . S
N287 C279 1.427 . S
N287 C285 1.384 . S
H288 C294 0.930 . S
H289 C298 0.930 . S
H290 C303 0.929 . S
H291 C301 0.929 . S
H292 C296 0.929 . S
H293 C302 0.929 . S
C294 H288 0.930 . S
C294 C295 1.367 1_565 S
C294 C302 1.378 . S
C295 C294 1.367 1_545 S
C295 C303 1.433 . S
C296 H292 0.929 . S
C296 C298 1.378 . S
C296 C300 1.350 . S
C297 C300 1.463 . S
C297 C302 1.350 1_545 S
C297 N305 1.427 . S
C298 H289 0.930 . S
C298 C296 1.378 . S
C298 C299 1.367 . S
C299 C298 1.367 . S
C299 C301 1.433 1_545 S
C300 C296 1.350 . S
C300 C297 1.463 . S
C300 N304 1.427 1_545 S
C301 H291 0.929 . S
C301 C299 1.433 1_565 S
C301 N304 1.384 . S
C302 H293 0.929 . S
C302 C294 1.378 . S
C302 C297 1.350 1_565 S
C303 H290 0.929 . S
C303 C295 1.433 . S
C303 N305 1.384 . S
N304 C300 1.427 1_565 S
N304 C301 1.384 . S
N305 C297 1.427 . S
N305 C303 1.384 . S
H306 C312 0.930 . S
H307 C316 0.930 . S
H308 C321 0.929 . S
H309 C319 0.929 . S
H310 C314 0.929 . S
H311 C320 0.929 . S
C312 H306 0.930 . S
C312 C313 1.367 . S
C312 C320 1.378 . S
C313 C312 1.367 . S
C313 C321 1.433 1_554 S
C314 H310 0.929 . S
C314 C316 1.378 . S
C314 C318 1.350 . S
C315 C318 1.463 . S
C315 C320 1.350 1_556 S
C315 N323 1.427 . S
C316 H307 0.930 . S
C316 C314 1.378 . S
C316 C317 1.367 . S
C317 C316 1.367 . S
C317 C319 1.433 . S
C318 C314 1.350 . S
C318 C315 1.463 . S
C318 N322 1.427 . S
C319 H309 0.929 . S
C319 C317 1.433 . S
C319 N322 1.384 . S
C320 H311 0.929 . S
C320 C312 1.378 . S
C320 C315 1.350 1_554 S
C321 H308 0.929 . S
C321 C313 1.433 1_556 S
C321 N323 1.384 . S
N322 C318 1.427 . S
N322 C319 1.384 . S
N323 C315 1.427 . S
N323 C321 1.384 . S
H324 C330 0.930 . S
H325 C334 0.930 . S
H326 C339 0.929 . S
H327 C337 0.929 . S
H328 C332 0.929 . S
H329 C338 0.929 . S
C330 H324 0.930 . S
C330 C331 1.367 1_655 S
C330 C338 1.378 . S
C331 C330 1.367 1_455 S
C331 C339 1.433 . S
C332 H328 0.929 . S
C332 C334 1.378 . S
C332 C336 1.350 . S
C333 C336 1.463 . S
C333 C338 1.350 1_455 S
C333 N341 1.427 . S
C334 H325 0.930 . S
C334 C332 1.378 . S
C334 C335 1.367 . S
C335 C334 1.367 . S
C335 C337 1.433 1_455 S
C336 C332 1.350 . S
C336 C333 1.463 . S
C336 N340 1.427 1_455 S
C337 H327 0.929 . S
C337 C335 1.433 1_655 S
C337 N340 1.384 . S
C338 H329 0.929 . S
C338 C330 1.378 . S
C338 C333 1.350 1_655 S
C339 H326 0.929 . S
C339 C331 1.433 . S
C339 N341 1.384 . S
N340 C336 1.427 1_655 S
N340 C337 1.384 . S
N341 C333 1.427 . S
N341 C339 1.384 . S
H342 C348 0.930 . S
H343 C352 0.930 1_565 S
H344 C357 0.929 1_565 S
H345 C355 0.929 . S
H346 C350 0.929 1_565 S
H347 C356 0.929 . S
C348 H342 0.930 . S
C348 C349 1.367 . S
C348 C356 1.378 . S
C349 C348 1.367 . S
C349 C357 1.433 . S
C350 H346 0.929 1_545 S
C350 C352 1.378 . S
C350 C354 1.350 . S
C351 C354 1.463 . S
C351 C356 1.350 . S
C351 N359 1.427 . S
C352 H343 0.930 1_545 S
C352 C350 1.378 . S
C352 C353 1.367 . S
C353 C352 1.367 . S
C353 C355 1.433 . S
C354 C350 1.350 . S
C354 C351 1.463 . S
C354 N358 1.427 . S
C355 H345 0.929 . S
C355 C353 1.433 . S
C355 N358 1.384 . S
C356 H347 0.929 . S
C356 C348 1.378 . S
C356 C351 1.350 . S
C357 H344 0.929 1_545 S
C357 C349 1.433 . S
C357 N359 1.384 . S
N358 C354 1.427 . S
N358 C355 1.384 . S
N359 C351 1.427 . S
N359 C357 1.384 . S
H360 C366 0.930 . S
H361 C370 0.930 . S
H362 C375 0.929 . S
H363 C373 0.929 . S
H364 C368 0.929 . S
H365 C374 0.929 . S
C366 H360 0.930 . S
C366 C367 1.367 . S
C366 C374 1.378 . S
C367 C366 1.367 . S
C367 C375 1.433 1_554 S
C368 H364 0.929 . S
C368 C370 1.378 . S
C368 C372 1.350 . S
C369 C372 1.463 . S
C369 C374 1.350 1_556 S
C369 N377 1.427 . S
C370 H361 0.930 . S
C370 C368 1.378 . S
C370 C371 1.367 . S
C371 C370 1.367 . S
C371 C373 1.433 . S
C372 C368 1.350 . S
C372 C369 1.463 . S
C372 N376 1.427 . S
C373 H363 0.929 . S
C373 C371 1.433 . S
C373 N376 1.384 . S
C374 H365 0.929 . S
C374 C366 1.378 . S
C374 C369 1.350 1_554 S
C375 H362 0.929 . S
C375 C367 1.433 1_556 S
C375 N377 1.384 . S
N376 C372 1.427 . S
N376 C373 1.384 . S
N377 C369 1.427 . S
N377 C375 1.384 . S
H378 C384 0.930 . S
H379 C388 0.930 . S
H380 C393 0.929 . S
H381 C391 0.929 . S
H382 C386 0.929 . S
H383 C392 0.929 . S
C384 H378 0.930 . S
C384 C385 1.367 . S
C384 C392 1.378 . S
C385 C384 1.367 . S
C385 C393 1.433 1_455 S
C386 H382 0.929 . S
C386 C388 1.378 . S
C386 C390 1.350 1_655 S
C387 C390 1.463 . S
C387 C392 1.350 . S
C387 N395 1.427 1_455 S
C388 H379 0.930 . S
C388 C386 1.378 . S
C388 C389 1.367 1_655 S
C389 C388 1.367 1_455 S
C389 C391 1.433 . S
C390 C386 1.350 1_455 S
C390 C387 1.463 . S
C390 N394 1.427 . S
C391 H381 0.929 . S
C391 C389 1.433 . S
C391 N394 1.384 . S
C392 H383 0.929 . S
C392 C384 1.378 . S
C392 C387 1.350 . S
C393 H380 0.929 . S
C393 C385 1.433 1_655 S
C393 N395 1.384 . S
N394 C390 1.427 . S
N394 C391 1.384 . S
N395 C387 1.427 1_655 S
N395 C393 1.384 . S
C191 C50 1.496 . S
C187 C3 1.492 . S
C205 C21 1.508 . S
C209 C89 1.530 . S
C223 C37 1.483 . S
C227 C156 1.511 . S
C241 C8 1.501 . S
C245 C57 1.500 . S
C263 C110 1.514 . S
C259 C23 1.489 . S
C277 C35 1.489 . S
C281 C135 1.510 . S
C299 C96 1.487 . S
C295 C31 1.482 . S
C313 C7 1.490 . S
C317 C149 1.509 . S
C335 C64 1.495 . S
C331 C17 1.495 . S
C353 C103 1.475 . S
C349 C36 1.474 . S
C371 C142 1.508 . S
C367 C9 1.485 . S
C385 C22 1.501 . S
C389 C43 1.500 . S
