# Generated by pormake.
# Topology nom, (4,4)-cn, num edge types: 1
# Building blocks:
#     Node 0, Type 0, BuildingBlock: MIFKUJ_clean_linker_1, # of connection points: 4
#     Node 1, Type 0, BuildingBlock: MIFKUJ_clean_linker_1, # of connection points: 4
#     Node 2, Type 0, BuildingBlock: MIFKUJ_clean_linker_1, # of connection points: 4
#     Node 3, Type 0, BuildingBlock: MIFKUJ_clean_linker_1, # of connection points: 4
#     Node 4, Type 0, BuildingBlock: MIFKUJ_clean_linker_1, # of connection points: 4
#     Node 5, Type 0, BuildingBlock: MIFKUJ_clean_linker_1, # of connection points: 4
#     Node 6, Type 1, BuildingBlock: GALJAG_clean_sbu_0, # of connection points: 4
#     Node 7, Type 1, BuildingBlock: GALJAG_clean_sbu_0, # of connection points: 4
#     Node 8, Type 1, BuildingBlock: GALJAG_clean_sbu_0, # of connection points: 4
#     Node 9, Type 1, BuildingBlock: GALJAG_clean_sbu_0, # of connection points: 4
#     Node 10, Type 1, BuildingBlock: GALJAG_clean_sbu_0, # of connection points: 4
#     Node 11, Type 1, BuildingBlock: GALJAG_clean_sbu_0, # of connection points: 4
#     Edge 12, Type (0, 1), BuildingBlock: ZUJKAS_clean_linker_0, # of connection points: 2
#     Edge 13, Type (0, 1), BuildingBlock: ZUJKAS_clean_linker_0, # of connection points: 2
#     Edge 14, Type (0, 1), BuildingBlock: ZUJKAS_clean_linker_0, # of connection points: 2
#     Edge 15, Type (0, 1), BuildingBlock: ZUJKAS_clean_linker_0, # of connection points: 2
#     Edge 16, Type (0, 1), BuildingBlock: ZUJKAS_clean_linker_0, # of connection points: 2
#     Edge 17, Type (0, 1), BuildingBlock: ZUJKAS_clean_linker_0, # of connection points: 2
#     Edge 18, Type (0, 1), BuildingBlock: ZUJKAS_clean_linker_0, # of connection points: 2
#     Edge 19, Type (0, 1), BuildingBlock: ZUJKAS_clean_linker_0, # of connection points: 2
#     Edge 20, Type (0, 1), BuildingBlock: ZUJKAS_clean_linker_0, # of connection points: 2
#     Edge 21, Type (0, 1), BuildingBlock: ZUJKAS_clean_linker_0, # of connection points: 2
#     Edge 22, Type (0, 1), BuildingBlock: ZUJKAS_clean_linker_0, # of connection points: 2
#     Edge 23, Type (0, 1), BuildingBlock: ZUJKAS_clean_linker_0, # of connection points: 2
#     Edge 24, Type (0, 1), BuildingBlock: ZUJKAS_clean_linker_0, # of connection points: 2
#     Edge 25, Type (0, 1), BuildingBlock: ZUJKAS_clean_linker_0, # of connection points: 2
#     Edge 26, Type (0, 1), BuildingBlock: ZUJKAS_clean_linker_0, # of connection points: 2
#     Edge 27, Type (0, 1), BuildingBlock: ZUJKAS_clean_linker_0, # of connection points: 2
#     Edge 28, Type (0, 1), BuildingBlock: ZUJKAS_clean_linker_0, # of connection points: 2
#     Edge 29, Type (0, 1), BuildingBlock: ZUJKAS_clean_linker_0, # of connection points: 2
#     Edge 30, Type (0, 1), BuildingBlock: ZUJKAS_clean_linker_0, # of connection points: 2
#     Edge 31, Type (0, 1), BuildingBlock: ZUJKAS_clean_linker_0, # of connection points: 2
#     Edge 32, Type (0, 1), BuildingBlock: ZUJKAS_clean_linker_0, # of connection points: 2
#     Edge 33, Type (0, 1), BuildingBlock: ZUJKAS_clean_linker_0, # of connection points: 2
#     Edge 34, Type (0, 1), BuildingBlock: ZUJKAS_clean_linker_0, # of connection points: 2
#     Edge 35, Type (0, 1), BuildingBlock: ZUJKAS_clean_linker_0, # of connection points: 2
# Relax obj value: 0.004
# Max RMSD: 0.109
# Mean RMSD: 0.081
data_MOF--net-nom--node1-GALJAG_clean_sbu_0--node2-MIFKUJ_clean_linker_1--edge1-ZUJKAS_clean_linker_0
_symmetry_space_group_name_H-M    P1
_symmetry_Int_Tables_number       1
_symmetry_cell_setting            triclinic
loop_
_symmetry_equiv_pos_as_xyz
'x, y, z'
_cell_length_a     66.164393
_cell_length_b     66.036604
_cell_length_c     72.611655
_cell_angle_alpha  90.035929
_cell_angle_beta   89.993199
_cell_angle_gamma 120.06601
loop_
_atom_site_label
_atom_site_type_symbol
_atom_site_fract_x
_atom_site_fract_y
_atom_site_fract_z
_atom_type_partial_charge
H0 H 0.99699 0.51236 0.29028 0.0
H1 H 0.97023 0.49598 0.26421 0.0
H2 H 0.94184 0.54074 0.2769 0.0
H3 H 0.96905 0.55741 0.30284 0.0
H4 H 0.03126 0.55815 0.2961 0.0
H5 H 0.95852 0.50063 0.32548 0.0
H6 H 0.91738 0.48348 0.33397 0.0
H7 H 0.93283 0.54829 0.36052 0.0
H8 H 0.97368 0.56557 0.35135 0.0
H9 H 0.0409 0.59396 0.37127 0.0
H10 H 0.06707 0.60366 0.39771 0.0
H11 H 0.09121 0.5583 0.37643 0.0
H12 H 0.06547 0.54919 0.3499 0.0
H13 H 0.00513 0.55271 0.36084 0.0
H14 H 0.07472 0.61076 0.33431 0.0
H15 H 0.1155 0.63328 0.32476 0.0
H16 H 0.10713 0.57427 0.29289 0.0
H17 H 0.06624 0.55176 0.30252 0.0
C18 C 0.98491 0.53599 0.29856 0.0
C19 C 0.985 0.51865 0.28744 0.0
C20 C 0.96957 0.50917 0.27264 0.0
C21 C 0.95383 0.51698 0.26855 0.0
C22 C 0.95385 0.53447 0.27965 0.0
C23 C 0.96925 0.54388 0.29454 0.0
C24 C 0.00158 0.54596 0.31413 0.0
C25 C 0.02556 0.55669 0.31029 0.0
C26 C 0.99414 0.54513 0.33253 0.0
C27 C 0.96913 0.53449 0.33757 0.0
C28 C 0.95297 0.51123 0.33292 0.0
C29 C 0.9295 0.50136 0.33796 0.0
C30 C 0.92178 0.51452 0.3479 0.0
C31 C 0.93808 0.53777 0.35263 0.0
C32 C 0.96149 0.54762 0.34753 0.0
C33 C 0.05136 0.57101 0.35854 0.0
C34 C 0.05195 0.58623 0.37228 0.0
C35 C 0.06684 0.59166 0.38744 0.0
C36 C 0.08127 0.58175 0.38926 0.0
C37 C 0.08069 0.5666 0.37536 0.0
C38 C 0.06592 0.56131 0.36018 0.0
C39 C 0.03481 0.5643 0.34287 0.0
C40 C 0.01088 0.55423 0.34666 0.0
C41 C 0.04231 0.56628 0.32438 0.0
C42 C 0.06743 0.57946 0.31928 0.0
C43 C 0.08174 0.60251 0.32551 0.0
C44 C 0.10508 0.61539 0.32003 0.0
C45 C 0.11458 0.60557 0.30807 0.0
C46 C 0.10027 0.58243 0.30194 0.0
C47 C 0.07692 0.56952 0.30748 0.0
H48 H 0.42362 0.97326 0.51601 0.0
H49 H 0.40032 0.93222 0.52533 0.0
H50 H 0.45474 0.91963 0.50581 0.0
H51 H 0.478 0.9608 0.4965 0.0
H52 H 0.4701 0.00617 0.52851 0.0
H53 H 0.42914 0.96826 0.47088 0.0
H54 H 0.41919 0.94061 0.44531 0.0
H55 H 0.49251 0.97107 0.43242 0.0
H56 H 0.50231 0.99822 0.45819 0.0
H57 H 0.52996 0.06744 0.46899 0.0
H58 H 0.54719 0.10811 0.45897 0.0
H59 H 0.49757 0.11589 0.49256 0.0
H60 H 0.47984 0.07501 0.50192 0.0
H61 H 0.48938 0.03162 0.4635 0.0
H62 H 0.53295 0.06985 0.51544 0.0
H63 H 0.54977 0.09654 0.54141 0.0
H64 H 0.48175 0.06505 0.56715 0.0
H65 H 0.46478 0.0393 0.54057 0.0
C66 C 0.45245 0.96998 0.5055 0.0
C67 C 0.43048 0.96163 0.5137 0.0
C68 C 0.41716 0.93818 0.51891 0.0
C69 C 0.42572 0.92275 0.51626 0.0
C70 C 0.44779 0.93119 0.50811 0.0
C71 C 0.46101 0.95461 0.5027 0.0
C72 C 0.46649 0.99496 0.5003 0.0
C73 C 0.47405 0.01186 0.51429 0.0
C74 C 0.47281 0.00215 0.48185 0.0
C75 C 0.46648 0.98516 0.46653 0.0
C76 C 0.44305 0.96879 0.46265 0.0
C77 C 0.43739 0.95314 0.44795 0.0
C78 C 0.45507 0.9536 0.43687 0.0
C79 C 0.4785 0.97003 0.44084 0.0
C80 C 0.48412 0.98568 0.45547 0.0
C81 C 0.50369 0.06816 0.48631 0.0
C82 C 0.52278 0.07791 0.47417 0.0
C83 C 0.53274 0.10123 0.46858 0.0
C84 C 0.52377 0.11528 0.47496 0.0
C85 C 0.50474 0.1055 0.48721 0.0
C86 C 0.49476 0.08218 0.49275 0.0
C87 C 0.49245 0.04312 0.4917 0.0
C88 C 0.48547 0.02614 0.47777 0.0
C89 C 0.48751 0.03586 0.51031 0.0
C90 C 0.4975 0.0527 0.52588 0.0
C91 C 0.52153 0.069 0.52648 0.0
C92 C 0.53122 0.08405 0.54151 0.0
C93 C 0.51717 0.08292 0.55647 0.0
C94 C 0.49307 0.06666 0.55579 0.0
C95 C 0.48336 0.05175 0.54066 0.0
H96 H 0.50391 0.52238 0.70001 0.0
H97 H 0.49421 0.53874 0.72645 0.0
H98 H 0.42111 0.49863 0.71201 0.0
H99 H 0.43094 0.48217 0.68553 0.0
H100 H 0.49094 0.47754 0.69298 0.0
H101 H 0.47816 0.53721 0.6635 0.0
H102 H 0.45474 0.55504 0.65494 0.0
H103 H 0.40422 0.4903 0.62897 0.0
H104 H 0.42729 0.47244 0.63804 0.0
H105 H 0.46577 0.44631 0.61591 0.0
H106 H 0.48231 0.43751 0.58907 0.0
H107 H 0.55059 0.47367 0.61444 0.0
H108 H 0.53421 0.48354 0.64066 0.0
H109 H 0.47192 0.4852 0.62824 0.0
H110 H 0.47966 0.42454 0.65542 0.0
H111 H 0.49696 0.40096 0.66483 0.0
H112 H 0.55007 0.45986 0.69529 0.0
H113 H 0.53285 0.48346 0.68565 0.0
C114 C 0.46819 0.50117 0.6907 0.0
C115 C 0.48578 0.51708 0.70253 0.0
C116 C 0.4802 0.52636 0.71768 0.0
C117 C 0.45688 0.51992 0.72136 0.0
C118 C 0.43926 0.50412 0.70942 0.0
C119 C 0.44486 0.49471 0.69428 0.0
C120 C 0.4745 0.49097 0.67502 0.0
C121 C 0.48704 0.47947 0.67879 0.0
C122 C 0.4683 0.49234 0.6566 0.0
C123 C 0.45433 0.50342 0.65158 0.0
C124 C 0.46191 0.52682 0.65613 0.0
C125 C 0.44862 0.53704 0.65108 0.0
C126 C 0.42757 0.52406 0.64132 0.0
C127 C 0.42014 0.50067 0.63672 0.0
C128 C 0.43341 0.4905 0.64177 0.0
C129 C 0.49866 0.46542 0.63043 0.0
C130 C 0.4843 0.45233 0.61568 0.0
C131 C 0.49377 0.44712 0.6004 0.0
C132 C 0.51782 0.45489 0.59954 0.0
C133 C 0.53207 0.46767 0.61448 0.0
C134 C 0.52264 0.47303 0.62966 0.0
C135 C 0.48897 0.47233 0.64614 0.0
C136 C 0.47578 0.48316 0.64241 0.0
C137 C 0.49392 0.46972 0.66466 0.0
C138 C 0.50505 0.4558 0.66975 0.0
C139 C 0.49518 0.43245 0.66396 0.0
C140 C 0.50495 0.41894 0.66947 0.0
C141 C 0.52483 0.42856 0.68083 0.0
C142 C 0.53487 0.45204 0.6864 0.0
C143 C 0.52498 0.46549 0.68101 0.0
H144 H 0.03871 0.52626 0.79214 0.0
H145 H 0.06503 0.54383 0.76603 0.0
H146 H 0.0915 0.49647 0.77438 0.0
H147 H 0.06546 0.47943 0.80088 0.0
H148 H 0.00386 0.47929 0.7962 0.0
H149 H 0.07699 0.53565 0.82612 0.0
H150 H 0.11812 0.55231 0.83448 0.0
H151 H 0.10248 0.48626 0.85875 0.0
H152 H 0.06165 0.46951 0.84971 0.0
H153 H 0.99467 0.44093 0.87057 0.0
H154 H 0.96839 0.43036 0.89704 0.0
H155 H 0.94423 0.47628 0.87716 0.0
H156 H 0.97005 0.48625 0.85062 0.0
H157 H 0.03046 0.48229 0.86052 0.0
H158 H 0.96132 0.42494 0.83334 0.0
H159 H 0.92051 0.4022 0.82394 0.0
H160 H 0.92739 0.46211 0.79435 0.0
H161 H 0.96837 0.48478 0.80374 0.0
C162 C 0.05019 0.50162 0.79847 0.0
C163 C 0.05024 0.51972 0.78835 0.0
C164 C 0.06522 0.52965 0.77336 0.0
C165 C 0.08032 0.52149 0.76798 0.0
C166 C 0.08034 0.5034 0.77825 0.0
C167 C 0.06541 0.49356 0.79336 0.0
C168 C 0.03367 0.49089 0.81402 0.0
C169 C 0.00966 0.4802 0.81031 0.0
C170 C 0.04125 0.49093 0.83225 0.0
C171 C 0.06629 0.50124 0.83708 0.0
C172 C 0.0825 0.52468 0.83301 0.0
C173 C 0.10597 0.53426 0.83799 0.0
C174 C 0.11363 0.52061 0.84727 0.0
C175 C 0.09728 0.49716 0.85136 0.0
C176 C 0.07388 0.48761 0.84635 0.0
C177 C 0.98417 0.46421 0.85854 0.0
C178 C 0.9836 0.4486 0.87191 0.0
C179 C 0.96864 0.44267 0.88708 0.0
C180 C 0.95414 0.45245 0.88927 0.0
C181 C 0.95477 0.46804 0.87578 0.0
C182 C 0.9696 0.47383 0.86059 0.0
C183 C 1.00066 0.47135 0.84279 0.0
C184 C 0.02461 0.48129 0.84642 0.0
C185 C 0.99303 0.46996 0.8244 0.0
C186 C 0.96789 0.45665 0.81939 0.0
C187 C 0.95397 0.43331 0.82506 0.0
C188 C 0.93061 0.42031 0.81967 0.0
C189 C 0.92066 0.43033 0.8084 0.0
C190 C 0.93459 0.45378 0.80284 0.0
C191 C 0.95799 0.46679 0.80825 0.0
H192 H 0.61298 0.06362 0.01721 0.0
H193 H 0.63629 0.10466 0.02623 0.0
H194 H 0.58325 0.11778 0.00413 0.0
H195 H 0.56018 0.07669 0.99489 0.0
H196 H 0.56851 0.03122 0.02854 0.0
H197 H 0.60693 0.06917 0.97068 0.0
H198 H 0.61602 0.09546 0.9443 0.0
H199 H 0.54246 0.06277 0.93158 0.0
H200 H 0.5335 0.0367 0.95794 0.0
H201 H 0.50414 0.96857 0.97242 0.0
H202 H 0.48616 0.92759 0.96271 0.0
H203 H 0.54033 0.9216 0.99104 0.0
H204 H 0.55836 0.96257 1.0005 0.0
H205 H 0.54602 0.00453 0.96408 0.0
H206 H 0.50467 0.97033 0.01817 0.0
H207 H 0.4886 0.94467 0.04479 0.0
H208 H 0.55849 0.96953 0.06535 0.0
H209 H 0.57443 0.99563 0.03876 0.0
C210 C 0.58494 0.06714 0.00527 0.0
C211 C 0.6064 0.07537 0.01429 0.0
C212 C 0.61965 0.09881 0.01952 0.0
C213 C 0.61161 0.11453 0.01597 0.0
C214 C 0.5901 0.10624 0.00685 0.0
C215 C 0.57687 0.08275 0.00159 0.0
C216 C 0.57082 0.04205 1.00027 0.0
C217 C 0.5639 0.02537 0.01441 0.0
C218 C 0.56367 0.03448 0.98195 0.0
C219 C 0.56951 0.05106 0.96637 0.0
C220 C 0.59276 0.06788 0.96234 0.0
C221 C 0.59793 0.08288 0.94726 0.0
C222 C 0.57996 0.08112 0.93582 0.0
C223 C 0.55672 0.06434 0.93997 0.0
C224 C 0.55157 0.04947 0.95506 0.0
C225 C 0.53252 0.96859 0.98726 0.0
C226 C 0.51206 0.95838 0.97659 0.0
C227 C 0.50174 0.93496 0.97116 0.0
C228 C 0.51188 0.92143 0.97609 0.0
C229 C 0.53225 0.93165 0.98689 0.0
C230 C 0.54245 0.95499 0.99244 0.0
C231 C 0.54421 0.99374 0.99229 0.0
C232 C 0.55066 0.01039 0.97821 0.0
C233 C 0.5502 0.00135 0.01071 0.0
C234 C 0.54076 0.98477 0.02639 0.0
C235 C 0.51656 0.97003 0.02829 0.0
C236 C 0.50739 0.95531 0.04353 0.0
C237 C 0.52223 0.95496 0.05725 0.0
C238 C 0.54652 0.96957 0.05519 0.0
C239 C 0.55568 0.98442 0.03996 0.0
H240 H 0.53342 0.51359 0.19808 0.0
H241 H 0.54319 0.496 0.22366 0.0
H242 H 0.61659 0.54048 0.21174 0.0
H243 H 0.60666 0.55831 0.18626 0.0
H244 H 0.54614 0.56028 0.1935 0.0
H245 H 0.55886 0.50192 0.16144 0.0
H246 H 0.58201 0.48421 0.15189 0.0
H247 H 0.63477 0.55087 0.13001 0.0
H248 H 0.6113 0.56824 0.13928 0.0
H249 H 0.57069 0.59568 0.11776 0.0
H250 H 0.55332 0.60458 0.09143 0.0
H251 H 0.48468 0.56121 0.11475 0.0
H252 H 0.50207 0.55204 0.14081 0.0
H253 H 0.56571 0.55512 0.12837 0.0
H254 H 0.55419 0.61291 0.1548 0.0
H255 H 0.53603 0.63548 0.16455 0.0
H256 H 0.488 0.57794 0.19885 0.0
H257 H 0.50591 0.55514 0.18876 0.0
C258 C 0.5693 0.53715 0.19022 0.0
C259 C 0.55162 0.51954 0.20097 0.0
C260 C 0.55722 0.50938 0.21548 0.0
C261 C 0.58066 0.51678 0.21966 0.0
C262 C 0.59838 0.53451 0.20891 0.0
C263 C 0.59274 0.54459 0.19429 0.0
C264 C 0.56296 0.54786 0.175 0.0
C265 C 0.55011 0.55891 0.17921 0.0
C266 C 0.56935 0.54723 0.15652 0.0
C267 C 0.58345 0.53642 0.15116 0.0
C268 C 0.57549 0.51271 0.15469 0.0
C269 C 0.58879 0.50264 0.14926 0.0
C270 C 0.61027 0.5161 0.14015 0.0
C271 C 0.61816 0.53988 0.13671 0.0
C272 C 0.60483 0.54989 0.14208 0.0
C273 C 0.53771 0.57332 0.13132 0.0
C274 C 0.55192 0.58818 0.11722 0.0
C275 C 0.54198 0.59337 0.10225 0.0
C276 C 0.51763 0.58356 0.10101 0.0
C277 C 0.50348 0.56885 0.11523 0.0
C278 C 0.51342 0.56378 0.13022 0.0
C279 C 0.548 0.56676 0.14676 0.0
C280 C 0.56171 0.5566 0.14263 0.0
C281 C 0.54292 0.5688 0.16538 0.0
C282 C 0.53126 0.58216 0.17085 0.0
C283 C 0.53947 0.60493 0.16415 0.0
C284 C 0.52912 0.61787 0.16977 0.0
C285 C 0.51059 0.60846 0.18245 0.0
C286 C 0.5024 0.58571 0.18919 0.0
C287 C 0.5126 0.57267 0.18342 0.0
In288 In 0.63593 0.40023 0.40991 0.0
O289 O 0.67491 0.42435 0.41543 0.0
O290 O 0.66511 0.39984 0.39354 0.0
C291 C 0.61748 0.41157 0.43861 0.0
C292 C 0.62474 0.41786 0.38054 0.0
C293 C 0.62023 0.35488 0.41813 0.0
O294 O 0.63921 0.4202 0.43654 0.0
O295 O 0.60516 0.39752 0.42612 0.0
O296 O 0.61305 0.36106 0.4043 0.0
O297 O 0.63546 0.37156 0.42763 0.0
C298 C 0.68148 0.41619 0.40251 0.0
O299 O 0.61652 0.39617 0.38281 0.0
O300 O 0.63826 0.43051 0.39316 0.0
In301 In 0.2548 0.63621 0.57827 0.0
O302 O 0.26857 0.61096 0.57378 0.0
O303 O 0.28675 0.63902 0.59259 0.0
C304 C 0.22465 0.62291 0.54967 0.0
C305 C 0.2264 0.61873 0.60785 0.0
C306 C 0.283 0.68207 0.5705 0.0
O307 O 0.24198 0.61979 0.54986 0.0
O308 O 0.22231 0.63231 0.56402 0.0
O309 O 0.27377 0.67509 0.58614 0.0
O310 O 0.27807 0.66599 0.55895 0.0
C311 C 0.28527 0.62113 0.58502 0.0
O312 O 0.23579 0.64 0.60325 0.0
O313 O 0.23116 0.60639 0.59745 0.0
In314 In 0.6354 0.25537 0.7467 0.0
O315 O 0.67424 0.27043 0.74046 0.0
O316 O 0.66499 0.28406 0.76343 0.0
C317 C 0.61766 0.22689 0.71714 0.0
C318 C 0.62401 0.22653 0.77613 0.0
C319 C 0.61913 0.28465 0.73904 0.0
O320 O 0.63934 0.23899 0.72011 0.0
O321 O 0.60505 0.22897 0.72915 0.0
O322 O 0.6092 0.26801 0.75038 0.0
O323 O 0.63734 0.28664 0.73175 0.0
C324 C 0.68113 0.28459 0.75382 0.0
O325 O 0.61974 0.24311 0.77543 0.0
O326 O 0.63369 0.22432 0.76193 0.0
In327 In 0.39928 0.63659 0.91074 0.0
O328 O 0.3605 0.61028 0.91518 0.0
O329 O 0.36968 0.6364 0.89465 0.0
C330 C 0.41653 0.62591 0.9406 0.0
C331 C 0.41062 0.61943 0.88116 0.0
C332 C 0.41598 0.68235 0.91829 0.0
O333 O 0.39523 0.61991 0.93915 0.0
O334 O 0.42893 0.63697 0.92695 0.0
O335 O 0.42607 0.67545 0.9073 0.0
O336 O 0.39741 0.66622 0.92527 0.0
C337 C 0.3536 0.61885 0.9028 0.0
O338 O 0.4152 0.6404 0.88209 0.0
O339 O 0.40065 0.60729 0.89521 0.0
In340 In 0.78135 0.40132 0.07827 0.0
O341 O 0.79671 0.39758 0.10538 0.0
O342 O 0.80835 0.43193 0.09533 0.0
C343 C 0.75289 0.3555 0.07043 0.0
C344 C 0.75168 0.41721 0.08565 0.0
C345 C 0.81121 0.41326 0.04954 0.0
O346 O 0.76635 0.36229 0.0842 0.0
O347 O 0.75366 0.37175 0.06082 0.0
O348 O 0.79467 0.41758 0.04987 0.0
O349 O 0.81291 0.40331 0.06378 0.0
C350 C 0.80955 0.41934 0.10788 0.0
O351 O 0.76692 0.42589 0.07313 0.0
O352 O 0.75127 0.40042 0.09425 0.0
In353 In 0.39929 0.78197 0.24604 0.0
O354 O 0.42039 0.76418 0.25343 0.0
O355 O 0.40432 0.75741 0.22709 0.0
C356 C 0.40954 0.81014 0.27572 0.0
C357 C 0.41756 0.81232 0.21765 0.0
C358 C 0.35355 0.75155 0.2523 0.0
O359 O 0.41981 0.79876 0.27243 0.0
O360 O 0.39437 0.80748 0.26396 0.0
O361 O 0.3604 0.76809 0.24087 0.0
O362 O 0.36972 0.75026 0.26039 0.0
C363 C 0.41678 0.75371 0.23818 0.0
O364 O 0.39676 0.79554 0.21769 0.0
O365 O 0.42898 0.81403 0.23205 0.0
H366 H 0.15317 0.6352 0.32831 0.0
H367 H 0.1933 0.65951 0.3174 0.0
H368 H 0.17176 0.63219 0.26249 0.0
H369 H 0.13154 0.60789 0.27326 0.0
H370 H 0.21264 0.63344 0.27374 0.0
H371 H 0.21746 0.7187 0.28596 0.0
H372 H 0.20889 0.70008 0.30586 0.0
H373 H 0.19021 0.69127 0.28597 0.0
C374 C 0.15694 0.63449 0.31388 0.0
C375 C 0.13913 0.61969 0.30163 0.0
C376 C 0.17987 0.64841 0.30767 0.0
C377 C 0.18541 0.64794 0.28908 0.0
C378 C 0.16781 0.63287 0.27689 0.0
H379 H 0.31559 0.7513 0.23716 0.0
H380 H 0.27438 0.72529 0.24486 0.0
C381 C 0.14488 0.61891 0.28309 0.0
C382 C 0.20963 0.66301 0.28238 0.0
H383 H 0.25317 0.71996 0.27877 0.0
C384 C 0.22149 0.65236 0.27475 0.0
C385 C 0.22098 0.68771 0.28345 0.0
C386 C 0.20869 0.70017 0.29059 0.0
C387 C 0.24464 0.66574 0.26858 0.0
C388 C 0.25631 0.69038 0.27037 0.0
C389 C 0.24425 0.70106 0.27757 0.0
C390 C 0.28116 0.70543 0.26516 0.0
C391 C 0.25632 0.65339 0.26006 0.0
C392 C 0.29861 0.70296 0.27408 0.0
C393 C 0.32212 0.71774 0.26969 0.0
C394 C 0.32861 0.73539 0.25638 0.0
C395 C 0.31111 0.73782 0.24743 0.0
C396 C 0.28758 0.723 0.25183 0.0
H397 H 0.24332 0.63567 0.255 0.0
H398 H 0.26775 0.66363 0.24841 0.0
H399 H 0.2673 0.65132 0.2706 0.0
H400 H 0.29409 0.68985 0.28469 0.0
H401 H 0.33521 0.71553 0.2769 0.0
H402 H 0.50054 0.13835 0.46551 0.0
H403 H 0.51724 0.17885 0.45517 0.0
H404 H 0.58648 0.18841 0.45947 0.0
H405 H 0.56998 0.148 0.47008 0.0
H406 H 0.54958 0.2201 0.47385 0.0
H407 H 0.58415 0.21055 0.40667 0.0
H408 H 0.56284 0.18577 0.41978 0.0
H409 H 0.5931 0.20036 0.42627 0.0
C410 C 0.51934 0.1491 0.4644 0.0
C411 C 0.53392 0.1399 0.46862 0.0
C412 C 0.52883 0.17219 0.45839 0.0
C413 C 0.55305 0.1865 0.45633 0.0
C414 C 0.5677 0.17749 0.46061 0.0
H415 H 0.63189 0.33786 0.44801 0.0
H416 H 0.61557 0.29691 0.45707 0.0
C417 C 0.55823 0.15439 0.46666 0.0
C418 C 0.56298 0.21105 0.45015 0.0
H419 H 0.59476 0.24915 0.41583 0.0
C420 C 0.55943 0.22646 0.46115 0.0
C421 C 0.57557 0.21918 0.43347 0.0
C422 C 0.57902 0.2031 0.42074 0.0
C423 C 0.56847 0.24995 0.45607 0.0
C424 C 0.58162 0.25825 0.43966 0.0
C425 C 0.58484 0.24275 0.42849 0.0
C426 C 0.59204 0.28297 0.43383 0.0
C427 C 0.56362 0.26561 0.46818 0.0
C428 C 0.58465 0.28864 0.4175 0.0
C429 C 0.59398 0.31203 0.41226 0.0
C430 C 0.61099 0.3301 0.4232 0.0
C431 C 0.61873 0.32432 0.43933 0.0
C432 C 0.60936 0.30095 0.44458 0.0
H433 H 0.54883 0.25537 0.47774 0.0
H434 H 0.57935 0.27689 0.47656 0.0
H435 H 0.55957 0.27715 0.45974 0.0
H436 H 0.57138 0.27497 0.40898 0.0
H437 H 0.58773 0.31595 0.39973 0.0
H438 H 0.38007 0.50448 0.64259 0.0
H439 H 0.35672 0.52157 0.63217 0.0
H440 H 0.41961 0.58525 0.61757 0.0
H441 H 0.4431 0.56803 0.62744 0.0
H442 H 0.35734 0.5618 0.64448 0.0
H443 H 0.38036 0.56846 0.57031 0.0
H444 H 0.38605 0.55101 0.58633 0.0
H445 H 0.40498 0.5822 0.5856 0.0
C446 C 0.38894 0.52204 0.63699 0.0
C447 C 0.41345 0.53483 0.63571 0.0
C448 C 0.37557 0.53182 0.63115 0.0
C449 C 0.38642 0.55452 0.62384 0.0
C450 C 0.41088 0.56753 0.62286 0.0
H451 H 0.32183 0.64006 0.60909 0.0
H452 H 0.34673 0.62418 0.6182 0.0
C453 C 0.42428 0.55777 0.62871 0.0
C454 C 0.37206 0.56464 0.61751 0.0
H455 H 0.35843 0.58617 0.57968 0.0
C456 C 0.35756 0.56713 0.63031 0.0
C457 C 0.37216 0.57126 0.59897 0.0
C458 C 0.38654 0.56793 0.58444 0.0
C459 C 0.34335 0.57634 0.62513 0.0
C460 C 0.34395 0.58359 0.6067 0.0
C461 C 0.3582 0.58081 0.59383 0.0
C462 C 0.32963 0.59379 0.60051 0.0
C463 C 0.3275 0.57785 0.63933 0.0
C464 C 0.31226 0.58235 0.58708 0.0
C465 C 0.29807 0.59145 0.58176 0.0
C466 C 0.30112 0.6122 0.58973 0.0
C467 C 0.31897 0.62396 0.60278 0.0
C468 C 0.33313 0.61486 0.60808 0.0
H469 H 0.32482 0.56638 0.65136 0.0
H470 H 0.3355 0.59613 0.64439 0.0
H471 H 0.31021 0.57289 0.63329 0.0
H472 H 0.30938 0.56613 0.581 0.0
H473 H 0.2845 0.58204 0.57164 0.0
H474 H 0.88267 0.39892 0.82839 0.0
H475 H 0.84248 0.37447 0.81763 0.0
H476 H 0.86256 0.40525 0.76361 0.0
H477 H 0.90288 0.42959 0.77416 0.0
H478 H 0.82115 0.40236 0.77723 0.0
H479 H 0.81917 0.31756 0.78297 0.0
H480 H 0.82826 0.33492 0.80359 0.0
H481 H 0.84602 0.34537 0.78324 0.0
C482 C 0.87859 0.40035 0.81417 0.0
C483 C 0.89603 0.41613 0.80211 0.0
C484 C 0.85562 0.38637 0.80806 0.0
C485 C 0.84965 0.38781 0.78976 0.0
C486 C 0.86686 0.40384 0.77777 0.0
H487 H 0.71911 0.2877 0.73616 0.0
H488 H 0.76041 0.31353 0.74381 0.0
C489 C 0.88985 0.41782 0.78386 0.0
C490 C 0.82538 0.37276 0.78319 0.0
H491 H 0.78287 0.31573 0.77738 0.0
C492 C 0.81279 0.38342 0.77717 0.0
C493 C 0.81467 0.34809 0.78289 0.0
C494 C 0.82775 0.33575 0.78835 0.0
C495 C 0.78951 0.37001 0.77131 0.0
C496 C 0.77851 0.34531 0.7717 0.0
C497 C 0.79131 0.33467 0.77724 0.0
C498 C 0.7536 0.33018 0.76675 0.0
C499 C 0.77692 0.38237 0.76464 0.0
C500 C 0.73613 0.33087 0.77722 0.0
C501 C 0.7126 0.31616 0.77291 0.0
C502 C 0.70609 0.30041 0.75808 0.0
C503 C 0.7236 0.29971 0.74762 0.0
C504 C 0.74717 0.31441 0.75198 0.0
H505 H 0.78933 0.40074 0.76061 0.0
H506 H 0.76554 0.37309 0.75268 0.0
H507 H 0.76573 0.38269 0.77589 0.0
H508 H 0.74071 0.34259 0.78889 0.0
H509 H 0.6995 0.31702 0.78128 0.0
H510 H 0.53472 0.90046 0.96129 0.0
H511 H 0.51789 0.86013 0.9504 0.0
H512 H 0.44919 0.84656 0.96568 0.0
H513 H 0.46592 0.88703 0.97632 0.0
H514 H 0.49402 0.81959 0.96897 0.0
H515 H 0.43811 0.82265 0.91342 0.0
H516 H 0.46032 0.84867 0.92473 0.0
H517 H 0.43237 0.83087 0.93551 0.0
C518 C 0.51603 0.88886 0.96235 0.0
C519 C 0.50161 0.8969 0.9696 0.0
C520 C 0.50642 0.86585 0.95606 0.0
C521 C 0.48223 0.85043 0.95692 0.0
C522 C 0.46782 0.85832 0.9644 0.0
H523 H 0.39507 0.70134 0.93879 0.0
H524 H 0.41136 0.74241 0.94773 0.0
C525 C 0.4774 0.88141 0.97054 0.0
C526 C 0.47226 0.8259 0.95052 0.0
H527 H 0.43227 0.785 0.92112 0.0
C528 C 0.48064 0.81209 0.95842 0.0
C529 C 0.45482 0.81614 0.93671 0.0
C530 C 0.44603 0.8304 0.92696 0.0
C531 C 0.47178 0.78871 0.9531 0.0
C532 C 0.45415 0.77894 0.93953 0.0
C533 C 0.44576 0.79264 0.93158 0.0
C534 C 0.44414 0.75437 0.93352 0.0
C535 C 0.48101 0.77443 0.96218 0.0
C536 C 0.45712 0.74769 0.92238 0.0
C537 C 0.44783 0.7243 0.91714 0.0
C538 C 0.42544 0.70724 0.92307 0.0
C539 C 0.41238 0.71409 0.93405 0.0
C540 C 0.42162 0.7375 0.93915 0.0
H541 H 0.49238 0.78361 0.97418 0.0
H542 H 0.46632 0.75735 0.96685 0.0
H543 H 0.49134 0.7708 0.95204 0.0
H544 H 0.4745 0.76056 0.91784 0.0
H545 H 0.45829 0.71953 0.90868 0.0
H546 H 0.61754 0.48397 0.15851 0.0
H547 H 0.6409 0.46667 0.14846 0.0
H548 H 0.65847 0.50688 0.09831 0.0
H549 H 0.63476 0.52386 0.10799 0.0
H550 H 0.63603 0.44109 0.114 0.0
H551 H 0.72244 0.52202 0.12161 0.0
H552 H 0.69641 0.51827 0.13282 0.0
H553 H 0.70083 0.5249 0.10868 0.0
C554 C 0.62617 0.48898 0.14526 0.0
C555 C 0.62434 0.50542 0.1341 0.0
C556 C 0.63961 0.47917 0.1396 0.0
C557 C 0.65161 0.48574 0.12277 0.0
C558 C 0.64965 0.5019 0.1115 0.0
H559 H 0.74776 0.45168 0.06808 0.0
H560 H 0.72244 0.46745 0.07643 0.0
C561 C 0.63615 0.51165 0.1171 0.0
C562 C 0.66601 0.47552 0.11689 0.0
H563 H 0.72218 0.48927 0.10826 0.0
C564 C 0.65487 0.45156 0.11278 0.0
C565 C 0.69055 0.48932 0.11522 0.0
C566 C 0.70339 0.51503 0.11993 0.0
C567 C 0.66762 0.44103 0.10679 0.0
C568 C 0.69223 0.45477 0.10531 0.0
C569 C 0.70333 0.47877 0.10937 0.0
C570 C 0.70687 0.44456 0.09987 0.0
C571 C 0.65456 0.41542 0.10171 0.0
C572 C 0.70663 0.42658 0.11034 0.0
C573 C 0.72094 0.41747 0.10553 0.0
C574 C 0.73599 0.42636 0.09029 0.0
C575 C 0.7363 0.44444 0.07986 0.0
C576 C 0.72187 0.45347 0.08463 0.0
H577 H 0.636 0.40933 0.09834 0.0
H578 H 0.66276 0.41185 0.08975 0.0
H579 H 0.65484 0.40499 0.11358 0.0
H580 H 0.69564 0.41985 0.12243 0.0
H581 H 0.72046 0.40368 0.11393 0.0
H582 H 0.37946 0.89232 0.50997 0.0
H583 H 0.3562 0.8518 0.52047 0.0
H584 H 0.41702 0.85702 0.54694 0.0
H585 H 0.44049 0.89741 0.53607 0.0
H586 H 0.39362 0.81683 0.52891 0.0
H587 H 0.33122 0.82936 0.57129 0.0
H588 H 0.33179 0.83819 0.54786 0.0
H589 H 0.3575 0.8536 0.56198 0.0
C590 C 0.38781 0.88483 0.51812 0.0
C591 C 0.41174 0.89803 0.52229 0.0
C592 C 0.37449 0.86173 0.5242 0.0
C593 C 0.38472 0.85152 0.53487 0.0
C594 C 0.40871 0.86457 0.53882 0.0
H595 H 0.30163 0.71958 0.59394 0.0
H596 H 0.32757 0.76084 0.58605 0.0
C597 C 0.42211 0.8876 0.53256 0.0
C598 C 0.37057 0.82702 0.54147 0.0
H599 H 0.32072 0.78977 0.56477 0.0
C600 C 0.37778 0.81096 0.53688 0.0
C601 C 0.35013 0.81943 0.55218 0.0
C602 C 0.34233 0.83611 0.55879 0.0
C603 C 0.36479 0.78741 0.54223 0.0
C604 C 0.34363 0.77953 0.552 0.0
C605 C 0.33677 0.79573 0.55707 0.0
C606 C 0.32817 0.75452 0.55684 0.0
C607 C 0.3741 0.77132 0.53757 0.0
C608 C 0.3196 0.73731 0.54304 0.0
C609 C 0.30504 0.71379 0.54754 0.0
C610 C 0.29837 0.70703 0.5659 0.0
C611 C 0.30652 0.72429 0.57968 0.0
C612 C 0.32133 0.74784 0.57519 0.0
H613 H 0.39336 0.78123 0.53568 0.0
H614 H 0.36978 0.75799 0.54847 0.0
H615 H 0.36619 0.76216 0.52443 0.0
H616 H 0.32404 0.74209 0.52873 0.0
H617 H 0.29882 0.7009 0.53659 0.0
H618 H 0.50127 0.38395 0.69424 0.0
H619 H 0.51762 0.36011 0.70517 0.0
H620 H 0.58699 0.41618 0.69239 0.0
H621 H 0.57075 0.44023 0.68169 0.0
H622 H 0.54275 0.34438 0.68711 0.0
H623 H 0.59514 0.40153 0.74492 0.0
H624 H 0.57342 0.40546 0.733 0.0
H625 H 0.602 0.41642 0.72318 0.0
C626 C 0.52001 0.39117 0.69372 0.0
C627 C 0.53475 0.41399 0.68718 0.0
C628 C 0.52933 0.37757 0.70004 0.0
C629 C 0.55356 0.38651 0.69992 0.0
C630 C 0.5683 0.40915 0.6931 0.0
H631 H 0.63955 0.32367 0.71745 0.0
H632 H 0.62337 0.34844 0.70841 0.0
C633 C 0.559 0.42284 0.68692 0.0
C634 C 0.56329 0.37186 0.70648 0.0
H635 H 0.60186 0.37035 0.73698 0.0
C636 C 0.55555 0.35 0.6981 0.0
C637 C 0.57994 0.37918 0.72088 0.0
C638 C 0.58795 0.40182 0.73115 0.0
C639 C 0.56434 0.33549 0.7035 0.0
C640 C 0.58125 0.34304 0.71761 0.0
C641 C 0.58894 0.36476 0.72609 0.0
C642 C 0.59123 0.32853 0.72364 0.0
C643 C 0.55578 0.31229 0.69399 0.0
C644 C 0.57854 0.30937 0.73535 0.0
C645 C 0.58777 0.29528 0.74063 0.0
C646 C 0.60978 0.30011 0.73418 0.0
C647 C 0.62254 0.31951 0.72261 0.0
C648 C 0.61336 0.33367 0.71745 0.0
H649 H 0.54408 0.30986 0.68219 0.0
H650 H 0.57085 0.31084 0.68894 0.0
H651 H 0.54608 0.29789 0.70399 0.0
H652 H 0.56143 0.30524 0.74027 0.0
H653 H 0.57754 0.28044 0.74954 0.0
H654 H 0.14077 0.50012 0.84571 0.0
H655 H 0.18112 0.51633 0.85609 0.0
H656 H 0.1834 0.58059 0.87128 0.0
H657 H 0.14277 0.56421 0.86157 0.0
H658 H 0.22091 0.55533 0.84399 0.0
H659 H 0.20599 0.56394 0.91806 0.0
H660 H 0.18242 0.54699 0.90221 0.0
H661 H 0.19565 0.57832 0.90296 0.0
C662 C 0.14974 0.5176 0.85147 0.0
C663 C 0.13846 0.53079 0.85293 0.0
C664 C 0.17285 0.52689 0.85728 0.0
C665 C 0.18513 0.54951 0.86474 0.0
C666 C 0.1741 0.56291 0.86591 0.0
H667 H 0.33517 0.6351 0.87714 0.0
H668 H 0.29422 0.61799 0.86814 0.0
C669 C 0.15096 0.55362 0.86013 0.0
C670 C 0.20963 0.55922 0.87091 0.0
H671 H 0.24557 0.58181 0.90824 0.0
C672 C 0.2263 0.56105 0.85805 0.0
C673 C 0.21655 0.56635 0.88933 0.0
C674 C 0.1992 0.56362 0.904 0.0
C675 C 0.24979 0.57023 0.86301 0.0
C676 C 0.25687 0.57818 0.88125 0.0
C677 C 0.24013 0.57593 0.89422 0.0
C678 C 0.28158 0.5889 0.88712 0.0
C679 C 0.26676 0.57102 0.84874 0.0
C680 C 0.28797 0.57863 0.9012 0.0
C681 C 0.31137 0.58848 0.90648 0.0
C682 C 0.32873 0.60883 0.89781 0.0
C683 C 0.3222 0.61933 0.88399 0.0
C684 C 0.29883 0.6095 0.87875 0.0
H685 H 0.25763 0.55868 0.83722 0.0
H686 H 0.27661 0.58893 0.84291 0.0
H687 H 0.27949 0.56671 0.85493 0.0
H688 H 0.27488 0.5628 0.90791 0.0
H689 H 0.31587 0.58004 0.9172 0.0
H690 H 0.63568 0.13153 0.04827 0.0
H691 H 0.6591 0.17237 0.05791 0.0
H692 H 0.64234 0.19461 0.0072 0.0
H693 H 0.61916 0.1538 0.99726 0.0
H694 H 0.69818 0.20931 0.03905 0.0
H695 H 0.62544 0.22767 0.04789 0.0
H696 H 0.62077 0.1983 0.04672 0.0
H697 H 0.6262 0.21521 0.02606 0.0
C698 C 0.63709 0.14509 0.03908 0.0
C699 C 0.62553 0.13936 0.02197 0.0
C700 C 0.65037 0.16841 0.04468 0.0
C701 C 0.6522 0.18645 0.03337 0.0
C702 C 0.64076 0.18088 0.01628 0.0
H703 H 0.72457 0.33746 0.04047 0.0
H704 H 0.70047 0.29629 0.03187 0.0
C705 C 0.62751 0.15755 0.01063 0.0
C706 C 0.66661 0.21114 0.03928 0.0
H707 H 0.66388 0.25996 0.05036 0.0
C708 C 0.69071 0.22039 0.04162 0.0
C709 C 0.65676 0.2255 0.04256 0.0
C710 C 0.63085 0.21619 0.04085 0.0
C711 C 0.70535 0.24382 0.0468 0.0
C712 C 0.69551 0.2582 0.05011 0.0
C713 C 0.67137 0.24889 0.04783 0.0
C714 C 0.71 0.28308 0.05561 0.0
C715 C 0.7313 0.25312 0.04817 0.0
C716 C 0.7231 0.28931 0.07196 0.0
C717 C 0.73698 0.31286 0.07688 0.0
C718 C 0.73781 0.33055 0.0656 0.0
C719 C 0.72432 0.32423 0.04943 0.0
C720 C 0.71053 0.30072 0.0445 0.0
H721 H 0.7366 0.24188 0.04062 0.0
H722 H 0.74133 0.27119 0.04263 0.0
H723 H 0.73614 0.25355 0.06286 0.0
H724 H 0.72254 0.27596 0.08095 0.0
H725 H 0.74707 0.3172 0.08948 0.0
H726 H 0.49993 0.61414 0.21776 0.0
H727 H 0.48349 0.63817 0.22836 0.0
H728 H 0.48153 0.65877 0.17237 0.0
H729 H 0.49792 0.63477 0.16163 0.0
H730 H 0.50513 0.69195 0.2171 0.0
H731 H 0.41254 0.63004 0.19813 0.0
H732 H 0.43283 0.62014 0.20363 0.0
H733 H 0.43513 0.63433 0.18207 0.0
C734 C 0.4958 0.62362 0.2077 0.0
C735 C 0.50016 0.62256 0.18886 0.0
C736 C 0.48656 0.63741 0.21378 0.0
C737 C 0.48129 0.6501 0.20111 0.0
C738 C 0.48547 0.649 0.18231 0.0
H739 H 0.41576 0.73443 0.20482 0.0
H740 H 0.43208 0.70964 0.19669 0.0
C741 C 0.4949 0.6354 0.17623 0.0
C742 C 0.47166 0.66479 0.20752 0.0
H743 H 0.42136 0.6671 0.20929 0.0
C744 C 0.48681 0.68656 0.21552 0.0
C745 C 0.44782 0.65762 0.20528 0.0
C746 C 0.43097 0.63422 0.19689 0.0
C747 C 0.47878 0.7017 0.22101 0.0
C748 C 0.45483 0.69453 0.21884 0.0
C749 C 0.43968 0.67257 0.21098 0.0
C750 C 0.44522 0.70979 0.22402 0.0
C751 C 0.49617 0.72554 0.22845 0.0
C752 C 0.44698 0.71797 0.24215 0.0
C753 C 0.43785 0.73237 0.2468 0.0
C754 C 0.42648 0.73851 0.23346 0.0
C755 C 0.42443 0.73 0.21541 0.0
C756 C 0.43372 0.71581 0.21074 0.0
H757 H 0.51436 0.73067 0.22454 0.0
H758 H 0.49234 0.73912 0.22338 0.0
H759 H 0.49517 0.72518 0.24371 0.0
H760 H 0.45526 0.71308 0.25273 0.0
H761 H 0.43952 0.73853 0.26085 0.0
H762 H 0.89465 0.53507 0.3476 0.0
H763 H 0.85419 0.51829 0.35784 0.0
H764 H 0.85176 0.45329 0.3704 0.0
H765 H 0.89251 0.47021 0.36086 0.0
H766 H 0.81461 0.48012 0.34466 0.0
H767 H 0.82852 0.46722 0.41807 0.0
H768 H 0.85231 0.48499 0.40266 0.0
H769 H 0.83897 0.45364 0.40224 0.0
C770 C 0.88562 0.5173 0.35276 0.0
C771 C 0.89691 0.50405 0.35353 0.0
C772 C 0.86245 0.50769 0.35849 0.0
C773 C 0.85009 0.48468 0.36517 0.0
C774 C 0.86112 0.47124 0.36565 0.0
H775 H 0.69938 0.40036 0.376 0.0
H776 H 0.74034 0.41688 0.36719 0.0
C777 C 0.88433 0.48085 0.35996 0.0
C778 C 0.82551 0.47464 0.37123 0.0
H779 H 0.7891 0.4502 0.40807 0.0
C780 C 0.80903 0.47362 0.35853 0.0
C781 C 0.81834 0.4665 0.38942 0.0
C782 C 0.83548 0.46831 0.40396 0.0
C783 C 0.78551 0.46435 0.36343 0.0
C784 C 0.77819 0.45544 0.38142 0.0
C785 C 0.79472 0.45681 0.39422 0.0
C786 C 0.75347 0.44486 0.38726 0.0
C787 C 0.7688 0.46457 0.34939 0.0
C788 C 0.74735 0.45462 0.40191 0.0
C789 C 0.72396 0.44509 0.40709 0.0
C790 C 0.70632 0.42558 0.39774 0.0
C791 C 0.71257 0.4155 0.38338 0.0
C792 C 0.73594 0.425 0.37825 0.0
H793 H 0.77815 0.47748 0.33826 0.0
H794 H 0.75882 0.44701 0.34297 0.0
H795 H 0.75617 0.46877 0.35594 0.0
H796 H 0.76064 0.46988 0.40912 0.0
H797 H 0.71968 0.4532 0.41823 0.0
H798 H 0.12561 0.58826 0.39083 0.0
H799 H 0.14961 0.59453 0.41821 0.0
H800 H 0.09573 0.59328 0.45235 0.0
H801 H 0.07122 0.58627 0.42518 0.0
H802 H 0.14543 0.63286 0.45766 0.0
H803 H 0.13389 0.5434 0.45992 0.0
H804 H 0.14134 0.55818 0.43803 0.0
H805 H 0.11353 0.54967 0.44826 0.0
C806 C 0.11871 0.58906 0.40417 0.0
C807 C 0.09639 0.58664 0.40577 0.0
C808 C 0.13251 0.59274 0.41977 0.0
C809 C 0.12431 0.59414 0.43726 0.0
C810 C 0.10231 0.59221 0.43894 0.0
H811 H 0.18427 0.62443 0.54737 0.0
H812 H 0.15959 0.61704 0.52025 0.0
C813 C 0.08841 0.58837 0.42336 0.0
C814 C 0.13875 0.59774 0.45381 0.0
H815 H 0.15984 0.5708 0.48152 0.0
C816 C 0.14857 0.61932 0.46295 0.0
C817 C 0.14286 0.58004 0.46052 0.0
C818 C 0.13228 0.55642 0.45131 0.0
C819 C 0.16275 0.62383 0.47855 0.0
C820 C 0.16664 0.60601 0.48546 0.0
C821 C 0.1568 0.58442 0.47625 0.0
C822 C 0.18098 0.60946 0.50215 0.0
C823 C 0.17393 0.64786 0.48715 0.0
C824 C 0.20064 0.60666 0.50121 0.0
C825 C 0.21457 0.61051 0.51677 0.0
C826 C 0.20908 0.61725 0.53355 0.0
C827 C 0.18905 0.61945 0.53459 0.0
C828 C 0.17504 0.61541 0.51906 0.0
H829 H 0.17482 0.66116 0.4773 0.0
H830 H 0.16331 0.64748 0.49912 0.0
H831 H 0.19186 0.65346 0.49207 0.0
H832 H 0.20546 0.60191 0.48834 0.0
H833 H 0.22989 0.60866 0.51557 0.0
H834 H 0.55935 0.09586 0.57277 0.0
H835 H 0.57656 0.12072 0.59983 0.0
H836 H 0.51605 0.12872 0.60501 0.0
H837 H 0.49894 0.10453 0.57754 0.0
H838 H 0.58268 0.17043 0.60507 0.0
H839 H 0.52718 0.10257 0.65649 0.0
H840 H 0.53295 0.09509 0.63391 0.0
H841 H 0.51319 0.10604 0.63642 0.0
C842 C 0.54979 0.10315 0.57945 0.0
C843 C 0.52772 0.09817 0.5729 0.0
C844 C 0.55961 0.11722 0.59499 0.0
C845 C 0.54748 0.12636 0.60441 0.0
C846 C 0.52555 0.12159 0.59797 0.0
H847 H 0.57226 0.20418 0.7059 0.0
H848 H 0.55584 0.18036 0.67823 0.0
C849 C 0.51577 0.10766 0.58233 0.0
C850 C 0.55781 0.14096 0.62099 0.0
H851 H 0.55353 0.1402 0.66783 0.0
C852 C 0.5764 0.16389 0.61882 0.0
C853 C 0.54941 0.13229 0.63881 0.0
C854 C 0.52965 0.10761 0.64172 0.0
C855 C 0.58664 0.17862 0.63409 0.0
C856 C 0.57847 0.16987 0.65201 0.0
C857 C 0.55984 0.14687 0.65411 0.0
C858 C 0.58868 0.18438 0.66877 0.0
C859 C 0.60566 0.20357 0.63081 0.0
C860 C 0.61256 0.19431 0.67281 0.0
C861 C 0.62204 0.20812 0.68855 0.0
C862 C 0.60772 0.21193 0.70068 0.0
C863 C 0.58374 0.20156 0.69682 0.0
C864 C 0.57433 0.18794 0.68101 0.0
H865 H 0.60512 0.20931 0.61653 0.0
H866 H 0.6042 0.21573 0.64057 0.0
H867 H 0.62292 0.20494 0.63286 0.0
H868 H 0.62386 0.19129 0.66384 0.0
H869 H 0.64054 0.21574 0.69126 0.0
H870 H 0.47437 0.52497 0.75619 0.0
H871 H 0.46577 0.54165 0.78307 0.0
H872 H 0.41796 0.55336 0.75063 0.0
H873 H 0.42644 0.53657 0.72364 0.0
H874 H 0.47257 0.58584 0.78756 0.0
H875 H 0.37878 0.51945 0.79564 0.0
H876 H 0.39823 0.51482 0.78109 0.0
H877 H 0.38638 0.53253 0.77318 0.0
C878 C 0.46205 0.53113 0.75476 0.0
C879 C 0.45108 0.52946 0.73778 0.0
C880 C 0.45709 0.54058 0.77015 0.0
C881 C 0.44103 0.5485 0.76892 0.0
C882 C 0.43004 0.54689 0.752 0.0
H883 H 0.42929 0.64125 0.84842 0.0
H884 H 0.43686 0.62443 0.82101 0.0
C885 C 0.43491 0.53733 0.73658 0.0
C886 C 0.43641 0.55907 0.78526 0.0
H887 H 0.3934 0.55328 0.81449 0.0
C888 C 0.45526 0.57872 0.79347 0.0
C889 C 0.41388 0.54957 0.79307 0.0
C890 C 0.39317 0.5278 0.78542 0.0
C891 C 0.45217 0.58924 0.8092 0.0
C892 C 0.42953 0.58012 0.81672 0.0
C893 C 0.41071 0.56037 0.8086 0.0
C894 C 0.42507 0.59045 0.83329 0.0
C895 C 0.47327 0.60968 0.81787 0.0
C896 C 0.41548 0.5768 0.84914 0.0
C897 C 0.41098 0.5863 0.86475 0.0
C898 C 0.41593 0.60963 0.86477 0.0
C899 C 0.42547 0.62327 0.84886 0.0
C900 C 0.4299 0.61372 0.83322 0.0
H901 H 0.48977 0.61056 0.81344 0.0
H902 H 0.47404 0.62618 0.81361 0.0
H903 H 0.47224 0.60861 0.83313 0.0
H904 H 0.41155 0.55878 0.84946 0.0
H905 H 0.40356 0.57533 0.87678 0.0
H906 H 0.96394 0.44686 0.92501 0.0
H907 H 0.93924 0.43893 0.95214 0.0
H908 H 0.88583 0.4393 0.91834 0.0
H909 H 0.90983 0.44595 0.89101 0.0
H910 H 0.92325 0.46557 0.96705 0.0
H911 H 0.84811 0.37977 0.94698 0.0
H912 H 0.87562 0.39289 0.93489 0.0
H913 H 0.85473 0.40211 0.93014 0.0
C914 C 0.94673 0.44473 0.92325 0.0
C915 C 0.93886 0.44694 0.90576 0.0
C916 C 0.93271 0.44041 0.93882 0.0
C917 C 0.91054 0.43818 0.93726 0.0
C918 C 0.90265 0.44043 0.91985 0.0
H919 H 0.80698 0.42852 0.01557 0.0
H920 H 0.83171 0.43522 0.98849 0.0
C921 C 0.91657 0.44458 0.90426 0.0
C922 C 0.89612 0.43451 0.95394 0.0
H923 H 0.84242 0.3987 0.97283 0.0
C924 C 0.90564 0.45085 0.96836 0.0
C925 C 0.87313 0.41528 0.95566 0.0
C926 C 0.86237 0.39639 0.94117 0.0
C927 C 0.89266 0.4487 0.98428 0.0
C928 C 0.86962 0.42972 0.98581 0.0
C929 C 0.86008 0.41333 0.97148 0.0
C930 C 0.85521 0.4264 0.00233 0.0
C931 C 0.90347 0.46688 0.99926 0.0
C932 C 0.8603 0.41921 0.019 0.0
C933 C 0.84616 0.41524 0.03444 0.0
C934 C 0.82675 0.41849 0.03345 0.0
C935 C 0.82187 0.42597 0.01677 0.0
C936 C 0.83591 0.42974 1.00129 0.0
H937 H 0.92002 0.48242 0.99473 0.0
H938 H 0.89112 0.47268 0.00374 0.0
H939 H 0.90727 0.4591 0.01137 0.0
H940 H 0.87502 0.41636 0.01999 0.0
H941 H 0.85032 0.40944 0.0471 0.0
H942 H 0.48455 0.91044 0.05914 0.0
H943 H 0.4669 0.88678 0.0867 0.0
H944 H 0.51983 0.94123 0.12043 0.0
H945 H 0.53725 0.96542 0.09306 0.0
H946 H 0.50872 0.89063 0.12603 0.0
H947 H 0.43246 0.9046 0.12825 0.0
H948 H 0.4396 0.89692 0.10638 0.0
H949 H 0.45938 0.9246 0.11669 0.0
C950 C 0.49236 0.91752 0.07241 0.0
C951 C 0.51227 0.93994 0.07385 0.0
C952 C 0.48229 0.90392 0.08812 0.0
C953 C 0.49198 0.9124 0.10554 0.0
C954 C 0.51213 0.93445 0.10706 0.0
H955 H 0.46033 0.85189 0.21566 0.0
H956 H 0.47852 0.87669 0.18872 0.0
C957 C 0.52213 0.94815 0.09137 0.0
C958 C 0.48099 0.89825 0.1222 0.0
H959 H 0.43311 0.87834 0.14992 0.0
C960 C 0.49223 0.88796 0.13134 0.0
C961 C 0.45945 0.89478 0.12893 0.0
C962 C 0.44697 0.90587 0.11969 0.0
C963 C 0.48225 0.87385 0.14695 0.0
C964 C 0.46077 0.87054 0.15385 0.0
C965 C 0.44958 0.88093 0.14466 0.0
C966 C 0.44945 0.85613 0.17043 0.0
C967 C 0.49449 0.86209 0.15554 0.0
C968 C 0.42666 0.83692 0.16933 0.0
C969 C 0.41608 0.82295 0.18479 0.0
C970 C 0.42812 0.82794 0.20163 0.0
C971 C 0.45071 0.84751 0.20283 0.0
C972 C 0.46119 0.86158 0.1874 0.0
H973 H 0.50671 0.86087 0.1457 0.0
H974 H 0.50483 0.87252 0.16755 0.0
H975 H 0.48175 0.8442 0.16038 0.0
H976 H 0.4172 0.83248 0.15641 0.0
H977 H 0.39865 0.80799 0.18346 0.0
H978 H 0.6141 0.53935 0.24606 0.0
H979 H 0.6222 0.52211 0.27295 0.0
H980 H 0.56801 0.45353 0.25609 0.0
H981 H 0.56005 0.47054 0.22905 0.0
H982 H 0.58839 0.49457 0.30098 0.0
H983 H 0.62564 0.44571 0.26598 0.0
H984 H 0.62393 0.46937 0.25503 0.0
H985 H 0.59831 0.44097 0.25693 0.0
C986 C 0.60417 0.52055 0.24793 0.0
C987 C 0.58645 0.50629 0.23543 0.0
C988 C 0.60872 0.51077 0.26334 0.0
C989 C 0.59584 0.48655 0.26639 0.0
C990 C 0.57834 0.47223 0.25384 0.0
H991 H 0.59497 0.39426 0.35214 0.0
H992 H 0.58726 0.411 0.32474 0.0
C993 C 0.57369 0.482 0.2385 0.0
C994 C 0.59996 0.47635 0.28314 0.0
H995 H 0.61796 0.43887 0.2979 0.0
C996 C 0.59496 0.48247 0.30035 0.0
C997 C 0.60835 0.46046 0.28221 0.0
C998 C 0.61457 0.45381 0.26407 0.0
C999 C 0.5978 0.47283 0.3167 0.0
C1000 C 0.60639 0.45707 0.31581 0.0
C1001 C 0.61135 0.45093 0.29856 0.0
C1002 C 0.61067 0.44699 0.33261 0.0
C1003 C 0.59104 0.4792 0.33473 0.0
C1004 C 0.62651 0.46166 0.34604 0.0
C1005 C 0.63082 0.45216 0.36172 0.0
C1006 C 0.61956 0.42779 0.36417 0.0
C1007 C 0.60383 0.41311 0.35065 0.0
C1008 C 0.59945 0.42264 0.33499 0.0
H1009 H 0.57867 0.48575 0.33264 0.0
H1010 H 0.5829 0.46396 0.34419 0.0
H1011 H 0.60692 0.49332 0.34148 0.0
H1012 H 0.63579 0.48048 0.34428 0.0
H1013 H 0.64319 0.46392 0.37182 0.0
H1014 H 0.42048 0.94148 0.41128 0.0
H1015 H 0.41199 0.916 0.38441 0.0
H1016 H 0.46839 0.90428 0.39935 0.0
H1017 H 0.47666 0.92928 0.42644 0.0
H1018 H 0.44355 0.92274 0.35531 0.0
H1019 H 0.41288 0.83775 0.39078 0.0
H1020 H 0.41452 0.86285 0.40218 0.0
H1021 H 0.44052 0.86116 0.39867 0.0
C1022 C 0.43082 0.93316 0.40901 0.0
C1023 C 0.44922 0.93737 0.42101 0.0
C1024 C 0.42605 0.91874 0.3936 0.0
C1025 C 0.4394 0.90807 0.39001 0.0
C1026 C 0.45764 0.91207 0.40202 0.0
H1027 H 0.44191 0.81933 0.30266 0.0
H1028 H 0.44958 0.84373 0.33013 0.0
C1029 C 0.46249 0.92654 0.41739 0.0
C1030 C 0.43493 0.89359 0.37327 0.0
H1031 H 0.41922 0.8385 0.35857 0.0
C1032 C 0.43811 0.90429 0.356 0.0
C1033 C 0.42797 0.86958 0.37425 0.0
C1034 C 0.42356 0.85704 0.39245 0.0
C1035 C 0.43489 0.89169 0.33963 0.0
C1036 C 0.42783 0.86764 0.34059 0.0
C1037 C 0.42466 0.85695 0.35788 0.0
C1038 C 0.42341 0.85319 0.32381 0.0
C1039 C 0.43959 0.9044 0.32147 0.0
C1040 C 0.40602 0.85025 0.31125 0.0
C1041 C 0.40168 0.83642 0.29555 0.0
C1042 C 0.41452 0.8251 0.29219 0.0
C1043 C 0.4318 0.8279 0.30485 0.0
C1044 C 0.43617 0.84179 0.32055 0.0
H1045 H 0.45088 0.92362 0.32321 0.0
H1046 H 0.44811 0.89817 0.31159 0.0
H1047 H 0.4228 0.90103 0.3154 0.0
H1048 H 0.39561 0.85845 0.3137 0.0
H1049 H 0.38812 0.83445 0.28612 0.0
H1050 H 0.49923 0.41511 0.57826 0.0
H1051 H 0.51613 0.40815 0.55062 0.0
H1052 H 0.57676 0.47679 0.55582 0.0
H1053 H 0.55979 0.48433 0.58304 0.0
H1054 H 0.53638 0.44464 0.51656 0.0
H1055 H 0.59684 0.42237 0.553 0.0
H1056 H 0.56975 0.41717 0.56325 0.0
H1057 H 0.59383 0.44645 0.56136 0.0
C1058 C 0.51605 0.42884 0.57345 0.0
C1059 C 0.52815 0.45028 0.58295 0.0
C1060 C 0.52571 0.42476 0.55773 0.0
C1061 C 0.54769 0.44193 0.55133 0.0
C1062 C 0.55984 0.46328 0.5607 0.0
H1063 H 0.64022 0.44413 0.46557 0.0
H1064 H 0.623 0.45221 0.49246 0.0
C1065 C 0.55016 0.46746 0.57633 0.0
C1066 C 0.55789 0.43769 0.53469 0.0
H1067 H 0.59858 0.42372 0.52061 0.0
C1068 C 0.54993 0.43999 0.51737 0.0
C1069 C 0.57569 0.43191 0.53593 0.0
C1070 C 0.5846 0.4292 0.55434 0.0
C1071 C 0.55954 0.43685 0.50111 0.0
C1072 C 0.57712 0.43064 0.50229 0.0
C1073 C 0.58509 0.42844 0.5197 0.0
C1074 C 0.5874 0.42619 0.48568 0.0
C1075 C 0.55115 0.4408 0.48286 0.0
C1076 C 0.57314 0.40878 0.473 0.0
C1077 C 0.58291 0.4043 0.45756 0.0
C1078 C 0.60717 0.4169 0.45465 0.0
C1079 C 0.62146 0.43418 0.46743 0.0
C1080 C 0.61165 0.43879 0.4828 0.0
H1081 H 0.54325 0.45212 0.48437 0.0
H1082 H 0.56566 0.44901 0.47275 0.0
H1083 H 0.53756 0.42373 0.47722 0.0
H1084 H 0.55447 0.3984 0.47517 0.0
H1085 H 0.57148 0.39072 0.44805 0.0
H1086 H 0.12545 0.53087 0.76326 0.0
H1087 H 0.15025 0.54731 0.73609 0.0
H1088 H 0.09511 0.55229 0.70863 0.0
H1089 H 0.06981 0.53476 0.73528 0.0
H1090 H 0.11471 0.5348 0.68618 0.0
H1091 H 0.18412 0.61492 0.71995 0.0
H1092 H 0.17904 0.58843 0.73093 0.0
H1093 H 0.1564 0.59596 0.73083 0.0
C1094 C 0.11851 0.53526 0.75139 0.0
C1095 C 0.09565 0.53162 0.75155 0.0
C1096 C 0.13285 0.54498 0.73595 0.0
C1097 C 0.12472 0.5515 0.72046 0.0
C1098 C 0.10184 0.54761 0.72049 0.0
H1099 H 0.21017 0.64052 0.63055 0.0
H1100 H 0.18493 0.62402 0.65759 0.0
C1101 C 0.08746 0.53776 0.73583 0.0
C1102 C 0.13975 0.56183 0.70399 0.0
H1103 H 0.19203 0.60727 0.68957 0.0
C1104 C 0.13159 0.55069 0.68692 0.0
C1105 C 0.16161 0.58277 0.7049 0.0
C1106 C 0.17074 0.59637 0.7226 0.0
C1107 C 0.14478 0.55971 0.67077 0.0
C1108 C 0.16704 0.58014 0.6718 0.0
C1109 C 0.17507 0.59148 0.68883 0.0
C1110 C 0.18223 0.59006 0.65537 0.0
C1111 C 0.1345 0.54751 0.65273 0.0
C1112 C 0.18932 0.57655 0.64528 0.0
C1113 C 0.20353 0.58586 0.62977 0.0
C1114 C 0.21122 0.60898 0.6242 0.0
C1115 C 0.20445 0.62263 0.63448 0.0
C1116 C 0.19008 0.61324 0.64994 0.0
H1117 H 0.11515 0.53674 0.65344 0.0
H1118 H 0.13927 0.56028 0.64131 0.0
H1119 H 0.14134 0.53565 0.64944 0.0
H1120 H 0.18399 0.55884 0.64948 0.0
H1121 H 0.20865 0.57498 0.62224 0.0
H1122 H 0.56118 0.06852 0.90136 0.0
H1123 H 0.56926 0.09366 0.87446 0.0
H1124 H 0.61865 0.15335 0.90617 0.0
H1125 H 0.61071 0.12824 0.93318 0.0
H1126 H 0.5631 0.13143 0.87023 0.0
H1127 H 0.65625 0.15762 0.86044 0.0
H1128 H 0.63697 0.13377 0.87527 0.0
H1129 H 0.64949 0.16351 0.88306 0.0
C1130 C 0.57373 0.08702 0.90263 0.0
C1131 C 0.58532 0.0964 0.91941 0.0
C1132 C 0.57838 0.10134 0.88723 0.0
C1133 C 0.59475 0.12532 0.88824 0.0
C1134 C 0.60632 0.1348 0.90497 0.0
H1135 H 0.60617 0.22996 0.80918 0.0
H1136 H 0.59883 0.20553 0.83651 0.0
C1137 C 0.60175 0.12044 0.92039 0.0
C1138 C 0.59914 0.1404 0.87187 0.0
H1139 H 0.64163 0.17708 0.84198 0.0
C1140 C 0.58026 0.1414 0.86403 0.0
C1141 C 0.62149 0.15316 0.86368 0.0
C1142 C 0.64219 0.15185 0.87091 0.0
C1143 C 0.58313 0.15494 0.8483 0.0
C1144 C 0.6056 0.16819 0.84041 0.0
C1145 C 0.62446 0.16706 0.84816 0.0
C1146 C 0.60986 0.18296 0.82386 0.0
C1147 C 0.56198 0.15449 0.84004 0.0
C1148 C 0.61895 0.17869 0.80781 0.0
C1149 C 0.62333 0.19272 0.79224 0.0
C1150 C 0.61875 0.21133 0.79246 0.0
C1151 C 0.60969 0.21562 0.80855 0.0
C1152 C 0.60539 0.20162 0.82415 0.0
H1153 H 0.54548 0.13897 0.84468 0.0
H1154 H 0.56158 0.17038 0.84444 0.0
H1155 H 0.56262 0.15438 0.82476 0.0
H1156 H 0.6226 0.16443 0.80731 0.0
H1157 H 0.63038 0.18904 0.78006 0.0
H1158 H 0.47942 0.55195 0.08149 0.0
H1159 H 0.46203 0.55923 0.05436 0.0
H1160 H 0.51431 0.6324 0.05628 0.0
H1161 H 0.53167 0.62534 0.08362 0.0
H1162 H 0.4661 0.62182 0.05148 0.0
H1163 H 0.49243 0.57497 0.00198 0.0
H1164 H 0.47783 0.55897 0.02243 0.0
H1165 H 0.50606 0.5848 0.02426 0.0
C1166 C 0.48712 0.56963 0.07623 0.0
C1167 C 0.50694 0.58808 0.08468 0.0
C1168 C 0.47728 0.57371 0.06065 0.0
C1169 C 0.48705 0.59629 0.05324 0.0
C1170 C 0.50661 0.61483 0.06176 0.0
H1171 H 0.4618 0.63767 0.94649 0.0
H1172 H 0.47853 0.63058 0.97409 0.0
C1173 C 0.51657 0.61074 0.0773 0.0
C1174 C 0.47678 0.60055 0.03661 0.0
H1175 H 0.46719 0.58786 0.99075 0.0
C1176 C 0.46633 0.61444 0.03818 0.0
C1177 C 0.47736 0.59106 0.01929 0.0
C1178 C 0.48917 0.57676 0.01674 0.0
C1179 C 0.45613 0.61886 0.02288 0.0
C1180 C 0.45622 0.60891 0.00563 0.0
C1181 C 0.46697 0.59528 0.00403 0.0
C1182 C 0.44581 0.61295 0.98895 0.0
C1183 C 0.44571 0.63446 0.02522 0.0
C1184 C 0.4218 0.60508 0.98806 0.0
C1185 C 0.41218 0.60911 0.97229 0.0
C1186 C 0.42641 0.62098 0.95712 0.0
C1187 C 0.45039 0.62851 0.95796 0.0
C1188 C 0.45997 0.62447 0.97371 0.0
H1189 H 0.45189 0.64502 0.03804 0.0
H1190 H 0.4501 0.6465 0.01331 0.0
H1191 H 0.42642 0.62347 0.02598 0.0
H1192 H 0.41049 0.59576 0.99955 0.0
H1193 H 0.39363 0.60301 0.97201 0.0
H1194 H 0.92812 0.4711 0.25814 0.0
H1195 H 0.90332 0.45507 0.23086 0.0
H1196 H 0.91809 0.52428 0.21569 0.0
H1197 H 0.94329 0.54054 0.24277 0.0
H1198 H 0.86322 0.4588 0.22022 0.0
H1199 H 0.9357 0.49925 0.16939 0.0
H1200 H 0.94058 0.49662 0.19353 0.0
H1201 H 0.93455 0.51893 0.18592 0.0
C1202 C 0.92619 0.48292 0.24894 0.0
C1203 C 0.9378 0.50711 0.25254 0.0
C1204 C 0.91192 0.47372 0.23343 0.0
C1205 C 0.90915 0.48853 0.22115 0.0
C1206 C 0.92029 0.51261 0.22488 0.0
H1207 H 0.83639 0.46546 0.11696 0.0
H1208 H 0.85998 0.48206 0.14473 0.0
C1209 C 0.93449 0.52183 0.24044 0.0
C1210 C 0.89464 0.47873 0.20442 0.0
H1211 H 0.89733 0.47877 0.15747 0.0
C1212 C 0.87064 0.46311 0.20649 0.0
C1213 C 0.90442 0.48446 0.18656 0.0
C1214 C 0.93025 0.50058 0.18361 0.0
C1215 C 0.85603 0.45327 0.19111 0.0
C1216 C 0.86584 0.45882 0.17323 0.0
C1217 C 0.88986 0.47452 0.17119 0.0
C1218 C 0.85151 0.44859 0.15643 0.0
C1219 C 0.83017 0.43744 0.19416 0.0
C1220 C 0.83921 0.42427 0.15364 0.0
C1221 C 0.82564 0.41473 0.13781 0.0
C1222 C 0.82434 0.42937 0.1244 0.0
C1223 C 0.83702 0.45373 0.12706 0.0
C1224 C 0.85051 0.46324 0.14291 0.0
H1225 H 0.8247 0.44013 0.20799 0.0
H1226 H 0.81985 0.44041 0.18355 0.0
H1227 H 0.82591 0.41894 0.19323 0.0
H1228 H 0.84017 0.41266 0.16368 0.0
H1229 H 0.81618 0.3959 0.13609 0.0
loop_
_geom_bond_atom_site_label_1
_geom_bond_atom_site_label_2
_geom_bond_distance
_geom_bond_site_symmetry_2
_ccdc_geom_bond_type
H0 C19 0.949 . S
H1 C20 0.950 . S
H2 C22 0.950 . S
H3 C23 0.950 . S
H4 C25 0.950 . S
H5 C28 0.950 . S
H6 C29 0.950 . S
H7 C31 0.951 . S
H8 C32 0.949 . S
H9 C34 0.949 . S
H10 C35 0.950 . S
H11 C37 0.950 . S
H12 C38 0.950 . S
H13 C40 0.950 . S
H14 C43 0.950 . S
H15 C44 0.950 . S
H16 C46 0.951 . S
H17 C47 0.949 . S
C18 C19 1.376 . S
C18 C23 1.386 . S
C18 C24 1.462 1_655 S
C19 H0 0.949 . S
C19 C18 1.376 . S
C19 C20 1.397 . S
C20 H1 0.950 . S
C20 C19 1.397 . S
C20 C21 1.391 . S
C21 C20 1.391 . S
C21 C22 1.405 . S
C22 H2 0.950 . S
C22 C21 1.405 . S
C22 C23 1.367 . S
C23 H3 0.950 . S
C23 C18 1.386 . S
C23 C22 1.367 . S
C24 C18 1.462 1_455 S
C24 C25 1.416 . S
C24 C26 1.390 1_455 S
C25 H4 0.950 . S
C25 C24 1.416 . S
C25 C41 1.411 . S
C26 C24 1.390 1_655 S
C26 C27 1.489 . S
C26 C40 1.411 1_655 S
C27 C26 1.489 . S
C27 C28 1.383 . S
C27 C32 1.382 . S
C28 H5 0.950 . S
C28 C27 1.383 . S
C28 C29 1.395 . S
C29 H6 0.950 . S
C29 C28 1.395 . S
C29 C30 1.288 . S
C30 C29 1.288 . S
C30 C31 1.392 . S
C31 H7 0.951 . S
C31 C30 1.392 . S
C31 C32 1.392 . S
C32 H8 0.949 . S
C32 C27 1.382 . S
C32 C31 1.392 . S
C33 C34 1.376 . S
C33 C38 1.386 . S
C33 C39 1.483 . S
C34 H9 0.949 . S
C34 C33 1.376 . S
C34 C35 1.397 . S
C35 H10 0.950 . S
C35 C34 1.397 . S
C35 C36 1.391 . S
C36 C35 1.391 . S
C36 C37 1.405 . S
C37 H11 0.950 . S
C37 C36 1.405 . S
C37 C38 1.367 . S
C38 H12 0.950 . S
C38 C33 1.386 . S
C38 C37 1.367 . S
C39 C33 1.483 . S
C39 C40 1.382 . S
C39 C41 1.403 . S
C40 H13 0.950 . S
C40 C26 1.411 1_455 S
C40 C39 1.382 . S
C41 C25 1.411 . S
C41 C39 1.403 . S
C41 C42 1.489 . S
C42 C41 1.489 . S
C42 C43 1.383 . S
C42 C47 1.382 . S
C43 H14 0.950 . S
C43 C42 1.383 . S
C43 C44 1.395 . S
C44 H15 0.950 . S
C44 C43 1.395 . S
C44 C45 1.288 . S
C45 C44 1.288 . S
C45 C46 1.392 . S
C46 H16 0.951 . S
C46 C45 1.392 . S
C46 C47 1.392 . S
C47 H17 0.949 . S
C47 C42 1.382 . S
C47 C46 1.392 . S
H48 C67 0.949 . S
H49 C68 0.950 . S
H50 C70 0.950 . S
H51 C71 0.950 . S
H52 C73 0.950 . S
H53 C76 0.950 . S
H54 C77 0.950 . S
H55 C79 0.951 . S
H56 C80 0.937 1_545 S
H57 C82 0.949 . S
H58 C83 0.950 . S
H59 C85 0.950 . S
H60 C86 0.950 . S
H61 C88 0.950 . S
H62 C91 0.950 . S
H63 C92 0.950 . S
H64 C94 0.951 . S
H65 C95 0.949 . S
C66 C67 1.376 . S
C66 C71 1.386 . S
C66 C72 1.483 . S
C67 H48 0.949 . S
C67 C66 1.376 . S
C67 C68 1.397 . S
C68 H49 0.950 . S
C68 C67 1.397 . S
C68 C69 1.391 . S
C69 C68 1.391 . S
C69 C70 1.405 . S
C70 H50 0.950 . S
C70 C69 1.405 . S
C70 C71 1.367 . S
C71 H51 0.950 . S
C71 C66 1.386 . S
C71 C70 1.367 . S
C72 C66 1.483 . S
C72 C73 1.382 1_565 S
C72 C74 1.403 1_565 S
C73 H52 0.950 . S
C73 C72 1.382 1_545 S
C73 C89 1.411 . S
C74 C72 1.403 1_545 S
C74 C75 1.489 1_545 S
C74 C88 1.411 . S
C75 C74 1.489 1_565 S
C75 C76 1.383 . S
C75 C80 1.382 . S
C76 H53 0.950 . S
C76 C75 1.383 . S
C76 C77 1.395 . S
C77 H54 0.950 . S
C77 C76 1.395 . S
C77 C78 1.288 . S
C78 C77 1.288 . S
C78 C79 1.392 . S
C79 H55 0.951 . S
C79 C78 1.392 . S
C79 C80 1.392 . S
C80 H56 0.937 1_565 S
C80 C75 1.382 . S
C80 C79 1.392 . S
C81 C82 1.376 . S
C81 C86 1.386 . S
C81 C87 1.483 . S
C82 H57 0.949 . S
C82 C81 1.376 . S
C82 C83 1.397 . S
C83 H58 0.950 . S
C83 C82 1.397 . S
C83 C84 1.391 . S
C84 C83 1.391 . S
C84 C85 1.405 . S
C85 H59 0.950 . S
C85 C84 1.405 . S
C85 C86 1.367 . S
C86 H60 0.950 . S
C86 C81 1.386 . S
C86 C85 1.367 . S
C87 C81 1.483 . S
C87 C88 1.382 . S
C87 C89 1.403 . S
C88 H61 0.950 . S
C88 C74 1.411 . S
C88 C87 1.382 . S
C89 C73 1.411 . S
C89 C87 1.403 . S
C89 C90 1.489 . S
C90 C89 1.489 . S
C90 C91 1.383 . S
C90 C95 1.382 . S
C91 H62 0.950 . S
C91 C90 1.383 . S
C91 C92 1.395 . S
C92 H63 0.950 . S
C92 C91 1.395 . S
C92 C93 1.288 . S
C93 C92 1.288 . S
C93 C94 1.392 . S
C94 H64 0.951 . S
C94 C93 1.392 . S
C94 C95 1.392 . S
C95 H65 0.949 . S
C95 C90 1.382 . S
C95 C94 1.392 . S
H96 C115 0.949 . S
H97 C116 0.950 . S
H98 C118 0.950 . S
H99 C119 0.950 . S
H100 C121 0.950 . S
H101 C124 0.950 . S
H102 C125 0.950 . S
H103 C127 0.951 . S
H104 C128 0.949 . S
H105 C130 0.949 . S
H106 C131 0.950 . S
H107 C133 0.950 . S
H108 C134 0.950 . S
H109 C136 0.950 . S
H110 C139 0.950 . S
H111 C140 0.950 . S
H112 C142 0.951 . S
H113 C143 0.949 . S
C114 C115 1.376 . S
C114 C119 1.386 . S
C114 C120 1.483 . S
C115 H96 0.949 . S
C115 C114 1.376 . S
C115 C116 1.397 . S
C116 H97 0.950 . S
C116 C115 1.397 . S
C116 C117 1.391 . S
C117 C116 1.391 . S
C117 C118 1.405 . S
C118 H98 0.950 . S
C118 C117 1.405 . S
C118 C119 1.367 . S
C119 H99 0.950 . S
C119 C114 1.386 . S
C119 C118 1.367 . S
C120 C114 1.483 . S
C120 C121 1.382 . S
C120 C122 1.403 . S
C121 H100 0.950 . S
C121 C120 1.382 . S
C121 C137 1.411 . S
C122 C120 1.403 . S
C122 C123 1.489 . S
C122 C136 1.411 . S
C123 C122 1.489 . S
C123 C124 1.383 . S
C123 C128 1.382 . S
C124 H101 0.950 . S
C124 C123 1.383 . S
C124 C125 1.395 . S
C125 H102 0.950 . S
C125 C124 1.395 . S
C125 C126 1.288 . S
C126 C125 1.288 . S
C126 C127 1.392 . S
C127 H103 0.951 . S
C127 C126 1.392 . S
C127 C128 1.392 . S
C128 H104 0.949 . S
C128 C123 1.382 . S
C128 C127 1.392 . S
C129 C130 1.376 . S
C129 C134 1.386 . S
C129 C135 1.483 . S
C130 H105 0.949 . S
C130 C129 1.376 . S
C130 C131 1.397 . S
C131 H106 0.950 . S
C131 C130 1.397 . S
C131 C132 1.391 . S
C132 C131 1.391 . S
C132 C133 1.405 . S
C133 H107 0.950 . S
C133 C132 1.405 . S
C133 C134 1.367 . S
C134 H108 0.950 . S
C134 C129 1.386 . S
C134 C133 1.367 . S
C135 C129 1.483 . S
C135 C136 1.382 . S
C135 C137 1.403 . S
C136 H109 0.950 . S
C136 C122 1.411 . S
C136 C135 1.382 . S
C137 C121 1.411 . S
C137 C135 1.403 . S
C137 C138 1.489 . S
C138 C137 1.489 . S
C138 C139 1.383 . S
C138 C143 1.382 . S
C139 H110 0.950 . S
C139 C138 1.383 . S
C139 C140 1.395 . S
C140 H111 0.950 . S
C140 C139 1.395 . S
C140 C141 1.288 . S
C141 C140 1.288 . S
C141 C142 1.392 . S
C142 H112 0.951 . S
C142 C141 1.392 . S
C142 C143 1.392 . S
C143 H113 0.949 . S
C143 C138 1.382 . S
C143 C142 1.392 . S
H144 C163 0.949 . S
H145 C164 0.950 . S
H146 C166 0.950 . S
H147 C167 0.950 . S
H148 C169 0.950 . S
H149 C172 0.950 . S
H150 C173 0.950 . S
H151 C175 0.951 . S
H152 C176 0.949 . S
H153 C178 0.949 . S
H154 C179 0.950 . S
H155 C181 0.950 . S
H156 C182 0.950 . S
H157 C184 0.950 . S
H158 C187 0.950 . S
H159 C188 0.950 . S
H160 C190 0.951 . S
H161 C191 0.949 . S
C162 C163 1.376 . S
C162 C167 1.386 . S
C162 C168 1.483 . S
C163 H144 0.949 . S
C163 C162 1.376 . S
C163 C164 1.397 . S
C164 H145 0.950 . S
C164 C163 1.397 . S
C164 C165 1.391 . S
C165 C164 1.391 . S
C165 C166 1.405 . S
C166 H146 0.950 . S
C166 C165 1.405 . S
C166 C167 1.367 . S
C167 H147 0.950 . S
C167 C162 1.386 . S
C167 C166 1.367 . S
C168 C162 1.483 . S
C168 C169 1.382 . S
C168 C170 1.403 . S
C169 H148 0.950 . S
C169 C168 1.382 . S
C169 C185 1.411 1_455 S
C170 C168 1.403 . S
C170 C171 1.489 . S
C170 C184 1.411 . S
C171 C170 1.489 . S
C171 C172 1.383 . S
C171 C176 1.382 . S
C172 H149 0.950 . S
C172 C171 1.383 . S
C172 C173 1.395 . S
C173 H150 0.950 . S
C173 C172 1.395 . S
C173 C174 1.288 . S
C174 C173 1.288 . S
C174 C175 1.392 . S
C175 H151 0.951 . S
C175 C174 1.392 . S
C175 C176 1.392 . S
C176 H152 0.949 . S
C176 C171 1.382 . S
C176 C175 1.392 . S
C177 C178 1.376 . S
C177 C182 1.386 . S
C177 C183 1.481 1_655 S
C178 H153 0.949 . S
C178 C177 1.376 . S
C178 C179 1.397 . S
C179 H154 0.950 . S
C179 C178 1.397 . S
C179 C180 1.391 . S
C180 C179 1.391 . S
C180 C181 1.405 . S
C181 H155 0.950 . S
C181 C180 1.405 . S
C181 C182 1.367 . S
C182 H156 0.950 . S
C182 C177 1.386 . S
C182 C181 1.367 . S
C183 C177 1.481 1_455 S
C183 C184 1.385 . S
C183 C185 1.402 1_455 S
C184 H157 0.950 . S
C184 C170 1.411 . S
C184 C183 1.385 . S
C185 C169 1.411 1_655 S
C185 C183 1.402 1_655 S
C185 C186 1.489 . S
C186 C185 1.489 . S
C186 C187 1.383 . S
C186 C191 1.382 . S
C187 H158 0.950 . S
C187 C186 1.383 . S
C187 C188 1.395 . S
C188 H159 0.950 . S
C188 C187 1.395 . S
C188 C189 1.288 . S
C189 C188 1.288 . S
C189 C190 1.392 . S
C190 H160 0.951 . S
C190 C189 1.392 . S
C190 C191 1.392 . S
C191 H161 0.949 . S
C191 C186 1.382 . S
C191 C190 1.392 . S
H192 C211 0.949 . S
H193 C212 0.950 . S
H194 C214 0.950 . S
H195 C215 0.950 . S
H196 C217 0.950 . S
H197 C220 0.950 . S
H198 C221 0.950 . S
H199 C223 0.951 . S
H200 C224 0.949 . S
H201 C226 0.949 . S
H202 C227 0.950 . S
H203 C229 0.950 . S
H204 C230 0.950 . S
H205 C232 0.950 . S
H206 C235 0.950 . S
H207 C236 0.950 . S
H208 C238 0.951 . S
H209 C239 0.937 1_545 S
C210 C211 1.376 . S
C210 C215 1.386 1_554 S
C210 C216 1.483 1_554 S
C211 H192 0.949 . S
C211 C210 1.376 . S
C211 C212 1.397 . S
C212 H193 0.950 . S
C212 C211 1.397 . S
C212 C213 1.391 . S
C213 C212 1.391 . S
C213 C214 1.405 . S
C214 H194 0.950 . S
C214 C213 1.405 . S
C214 C215 1.367 1_554 S
C215 H195 0.950 . S
C215 C210 1.386 1_556 S
C215 C214 1.367 1_556 S
C216 C210 1.483 1_556 S
C216 C217 1.382 1_556 S
C216 C218 1.403 . S
C217 H196 0.950 . S
C217 C216 1.382 1_554 S
C217 C233 1.411 . S
C218 C216 1.403 . S
C218 C219 1.489 . S
C218 C232 1.411 . S
C219 C218 1.489 . S
C219 C220 1.383 . S
C219 C224 1.382 . S
C220 H197 0.950 . S
C220 C219 1.383 . S
C220 C221 1.395 . S
C221 H198 0.950 . S
C221 C220 1.395 . S
C221 C222 1.288 . S
C222 C221 1.288 . S
C222 C223 1.392 . S
C223 H199 0.951 . S
C223 C222 1.392 . S
C223 C224 1.392 . S
C224 H200 0.949 . S
C224 C219 1.382 . S
C224 C223 1.392 . S
C225 C226 1.376 . S
C225 C230 1.386 . S
C225 C231 1.483 . S
C226 H201 0.949 . S
C226 C225 1.376 . S
C226 C227 1.397 . S
C227 H202 0.950 . S
C227 C226 1.397 . S
C227 C228 1.391 . S
C228 C227 1.391 . S
C228 C229 1.405 . S
C229 H203 0.950 . S
C229 C228 1.405 . S
C229 C230 1.367 . S
C230 H204 0.950 . S
C230 C225 1.386 . S
C230 C229 1.367 . S
C231 C225 1.483 . S
C231 C232 1.382 1_565 S
C231 C233 1.403 1_566 S
C232 H205 0.950 . S
C232 C218 1.411 . S
C232 C231 1.382 1_545 S
C233 C217 1.411 . S
C233 C231 1.403 1_544 S
C233 C234 1.489 1_545 S
C234 C233 1.489 1_565 S
C234 C235 1.383 . S
C234 C239 1.382 . S
C235 H206 0.950 . S
C235 C234 1.383 . S
C235 C236 1.395 . S
C236 H207 0.950 . S
C236 C235 1.395 . S
C236 C237 1.288 . S
C237 C236 1.288 . S
C237 C238 1.392 . S
C238 H208 0.951 . S
C238 C237 1.392 . S
C238 C239 1.392 . S
C239 H209 0.937 1_565 S
C239 C234 1.382 . S
C239 C238 1.392 . S
H240 C259 0.949 . S
H241 C260 0.950 . S
H242 C262 0.950 . S
H243 C263 0.950 . S
H244 C265 0.950 . S
H245 C268 0.950 . S
H246 C269 0.950 . S
H247 C271 0.951 . S
H248 C272 0.949 . S
H249 C274 0.949 . S
H250 C275 0.950 . S
H251 C277 0.950 . S
H252 C278 0.950 . S
H253 C280 0.950 . S
H254 C283 0.950 . S
H255 C284 0.950 . S
H256 C286 0.951 . S
H257 C287 0.949 . S
C258 C259 1.376 . S
C258 C263 1.386 . S
C258 C264 1.483 . S
C259 H240 0.949 . S
C259 C258 1.376 . S
C259 C260 1.397 . S
C260 H241 0.950 . S
C260 C259 1.397 . S
C260 C261 1.391 . S
C261 C260 1.391 . S
C261 C262 1.405 . S
C262 H242 0.950 . S
C262 C261 1.405 . S
C262 C263 1.367 . S
C263 H243 0.950 . S
C263 C258 1.386 . S
C263 C262 1.367 . S
C264 C258 1.483 . S
C264 C265 1.382 . S
C264 C266 1.403 . S
C265 H244 0.950 . S
C265 C264 1.382 . S
C265 C281 1.411 . S
C266 C264 1.403 . S
C266 C267 1.489 . S
C266 C280 1.411 . S
C267 C266 1.489 . S
C267 C268 1.383 . S
C267 C272 1.382 . S
C268 H245 0.950 . S
C268 C267 1.383 . S
C268 C269 1.395 . S
C269 H246 0.950 . S
C269 C268 1.395 . S
C269 C270 1.288 . S
C270 C269 1.288 . S
C270 C271 1.392 . S
C271 H247 0.951 . S
C271 C270 1.392 . S
C271 C272 1.392 . S
C272 H248 0.949 . S
C272 C267 1.382 . S
C272 C271 1.392 . S
C273 C274 1.376 . S
C273 C278 1.386 . S
C273 C279 1.483 . S
C274 H249 0.949 . S
C274 C273 1.376 . S
C274 C275 1.397 . S
C275 H250 0.950 . S
C275 C274 1.397 . S
C275 C276 1.391 . S
C276 C275 1.391 . S
C276 C277 1.405 . S
C277 H251 0.950 . S
C277 C276 1.405 . S
C277 C278 1.367 . S
C278 H252 0.950 . S
C278 C273 1.386 . S
C278 C277 1.367 . S
C279 C273 1.483 . S
C279 C280 1.382 . S
C279 C281 1.403 . S
C280 H253 0.950 . S
C280 C266 1.411 . S
C280 C279 1.382 . S
C281 C265 1.411 . S
C281 C279 1.403 . S
C281 C282 1.489 . S
C282 C281 1.489 . S
C282 C283 1.383 . S
C282 C287 1.382 . S
C283 H254 0.950 . S
C283 C282 1.383 . S
C283 C284 1.395 . S
C284 H255 0.950 . S
C284 C283 1.395 . S
C284 C285 1.288 . S
C285 C284 1.288 . S
C285 C286 1.392 . S
C286 H256 0.951 . S
C286 C285 1.392 . S
C286 C287 1.392 . S
C287 H257 0.949 . S
C287 C282 1.382 . S
C287 C286 1.392 . S
In288 O289 2.294 . S
In288 O290 2.326 . S
In288 O294 2.266 . S
In288 O295 2.326 . S
In288 O296 2.266 . S
In288 O297 2.326 . S
In288 O299 2.294 . S
In288 O300 2.326 . S
O289 In288 2.294 . S
O289 C298 1.240 . S
O290 In288 2.326 . S
O290 C298 1.252 . S
C291 O294 1.252 . S
C291 O295 1.260 . S
C292 O299 1.240 . S
C292 O300 1.252 . S
C293 O296 1.252 . S
C293 O297 1.260 . S
O294 In288 2.266 . S
O294 C291 1.252 . S
O295 In288 2.326 . S
O295 C291 1.260 . S
O296 In288 2.266 . S
O296 C293 1.252 . S
O297 In288 2.326 . S
O297 C293 1.260 . S
C298 O289 1.240 . S
C298 O290 1.252 . S
O299 In288 2.294 . S
O299 C292 1.240 . S
O300 In288 2.326 . S
O300 C292 1.252 . S
In301 O302 2.294 . S
In301 O303 2.326 . S
In301 O307 2.266 . S
In301 O308 2.326 . S
In301 O309 2.266 . S
In301 O310 2.326 . S
In301 O312 2.294 . S
In301 O313 2.326 . S
O302 In301 2.294 . S
O302 C311 1.240 . S
O303 In301 2.326 . S
O303 C311 1.252 . S
C304 O307 1.252 . S
C304 O308 1.260 . S
C305 O312 1.240 . S
C305 O313 1.252 . S
C306 O309 1.252 . S
C306 O310 1.260 . S
O307 In301 2.266 . S
O307 C304 1.252 . S
O308 In301 2.326 . S
O308 C304 1.260 . S
O309 In301 2.266 . S
O309 C306 1.252 . S
O310 In301 2.326 . S
O310 C306 1.260 . S
C311 O302 1.240 . S
C311 O303 1.252 . S
O312 In301 2.294 . S
O312 C305 1.240 . S
O313 In301 2.326 . S
O313 C305 1.252 . S
In314 O315 2.294 . S
In314 O316 2.326 . S
In314 O320 2.266 . S
In314 O321 2.326 . S
In314 O322 2.266 . S
In314 O323 2.326 . S
In314 O325 2.294 . S
In314 O326 2.326 . S
O315 In314 2.294 . S
O315 C324 1.240 . S
O316 In314 2.326 . S
O316 C324 1.252 . S
C317 O320 1.252 . S
C317 O321 1.260 . S
C318 O325 1.240 . S
C318 O326 1.252 . S
C319 O322 1.252 . S
C319 O323 1.260 . S
O320 In314 2.266 . S
O320 C317 1.252 . S
O321 In314 2.326 . S
O321 C317 1.260 . S
O322 In314 2.266 . S
O322 C319 1.252 . S
O323 In314 2.326 . S
O323 C319 1.260 . S
C324 O315 1.240 . S
C324 O316 1.252 . S
O325 In314 2.294 . S
O325 C318 1.240 . S
O326 In314 2.326 . S
O326 C318 1.252 . S
In327 O328 2.294 . S
In327 O329 2.326 . S
In327 O333 2.266 . S
In327 O334 2.326 . S
In327 O335 2.266 . S
In327 O336 2.326 . S
In327 O338 2.294 . S
In327 O339 2.326 . S
O328 In327 2.294 . S
O328 C337 1.240 . S
O329 In327 2.326 . S
O329 C337 1.252 . S
C330 O333 1.252 . S
C330 O334 1.260 . S
C331 O338 1.240 . S
C331 O339 1.252 . S
C332 O335 1.252 . S
C332 O336 1.260 . S
O333 In327 2.266 . S
O333 C330 1.252 . S
O334 In327 2.326 . S
O334 C330 1.260 . S
O335 In327 2.266 . S
O335 C332 1.252 . S
O336 In327 2.326 . S
O336 C332 1.260 . S
C337 O328 1.240 . S
C337 O329 1.252 . S
O338 In327 2.294 . S
O338 C331 1.240 . S
O339 In327 2.326 . S
O339 C331 1.252 . S
In340 O341 2.294 . S
In340 O342 2.326 . S
In340 O346 2.266 . S
In340 O347 2.326 . S
In340 O348 2.266 . S
In340 O349 2.326 . S
In340 O351 2.294 . S
In340 O352 2.326 . S
O341 In340 2.294 . S
O341 C350 1.240 . S
O342 In340 2.326 . S
O342 C350 1.252 . S
C343 O346 1.252 . S
C343 O347 1.260 . S
C344 O351 1.240 . S
C344 O352 1.252 . S
C345 O348 1.252 . S
C345 O349 1.260 . S
O346 In340 2.266 . S
O346 C343 1.252 . S
O347 In340 2.326 . S
O347 C343 1.260 . S
O348 In340 2.266 . S
O348 C345 1.252 . S
O349 In340 2.326 . S
O349 C345 1.260 . S
C350 O341 1.240 . S
C350 O342 1.252 . S
O351 In340 2.294 . S
O351 C344 1.240 . S
O352 In340 2.326 . S
O352 C344 1.252 . S
In353 O354 2.294 . S
In353 O355 2.326 . S
In353 O359 2.266 . S
In353 O360 2.326 . S
In353 O361 2.266 . S
In353 O362 2.326 . S
In353 O364 2.294 . S
In353 O365 2.326 . S
O354 In353 2.294 . S
O354 C363 1.240 . S
O355 In353 2.326 . S
O355 C363 1.252 . S
C356 O359 1.252 . S
C356 O360 1.260 . S
C357 O364 1.240 . S
C357 O365 1.252 . S
C358 O361 1.252 . S
C358 O362 1.260 . S
O359 In353 2.266 . S
O359 C356 1.252 . S
O360 In353 2.326 . S
O360 C356 1.260 . S
O361 In353 2.266 . S
O361 C358 1.252 . S
O362 In353 2.326 . S
O362 C358 1.260 . S
C363 O354 1.240 . S
C363 O355 1.252 . S
O364 In353 2.294 . S
O364 C357 1.240 . S
O365 In353 2.326 . S
O365 C357 1.252 . S
H366 C374 0.929 . S
H367 C376 0.930 . S
H368 C378 0.930 . S
H369 C381 0.929 . S
H370 C384 0.930 . S
H371 C386 0.960 . S
H372 C386 0.960 . S
H373 C386 0.960 . S
C374 H366 0.929 . S
C374 C375 1.377 . S
C374 C376 1.384 . S
C375 C374 1.377 . S
C375 C381 1.390 . S
C376 H367 0.930 . S
C376 C374 1.384 . S
C376 C377 1.372 . S
C377 C376 1.372 . S
C377 C378 1.400 . S
C377 C382 1.490 . S
C378 H368 0.930 . S
C378 C377 1.400 . S
C378 C381 1.386 . S
H379 C395 0.930 . S
H380 C396 0.931 . S
C381 H369 0.929 . S
C381 C375 1.390 . S
C381 C378 1.386 . S
C382 C377 1.490 . S
C382 C384 1.395 . S
C382 C385 1.403 . S
H383 C389 0.930 . S
C384 H370 0.930 . S
C384 C382 1.395 . S
C384 C387 1.403 . S
C385 C382 1.403 . S
C385 C386 1.524 . S
C385 C389 1.400 . S
C386 H371 0.960 . S
C386 H372 0.960 . S
C386 H373 0.960 . S
C386 C385 1.524 . S
C387 C384 1.403 . S
C387 C388 1.392 . S
C387 C391 1.495 . S
C388 C387 1.392 . S
C388 C389 1.385 . S
C388 C390 1.478 . S
C389 H383 0.930 . S
C389 C385 1.400 . S
C389 C388 1.385 . S
C390 C388 1.478 . S
C390 C392 1.381 . S
C390 C396 1.383 . S
C391 C387 1.495 . S
C391 H397 0.959 . S
C391 H398 0.961 . S
C391 H399 0.960 . S
C392 C390 1.381 . S
C392 C393 1.394 . S
C392 H400 0.930 . S
C393 C392 1.394 . S
C393 C394 1.383 . S
C393 H401 0.929 . S
C394 C393 1.383 . S
C394 C395 1.377 . S
C395 H379 0.930 . S
C395 C394 1.377 . S
C395 C396 1.379 . S
C396 H380 0.931 . S
C396 C390 1.383 . S
C396 C395 1.379 . S
H397 C391 0.959 . S
H398 C391 0.961 . S
H399 C391 0.960 . S
H400 C392 0.930 . S
H401 C393 0.929 . S
H402 C410 0.929 . S
H403 C412 0.930 . S
H404 C414 0.930 . S
H405 C417 0.929 . S
H406 C420 0.930 . S
H407 C422 0.960 . S
H408 C422 0.960 . S
H409 C422 0.960 . S
C410 H402 0.929 . S
C410 C411 1.377 . S
C410 C412 1.384 . S
C411 C410 1.377 . S
C411 C417 1.390 . S
C412 H403 0.930 . S
C412 C410 1.384 . S
C412 C413 1.372 . S
C413 C412 1.372 . S
C413 C414 1.400 . S
C413 C418 1.490 . S
C414 H404 0.930 . S
C414 C413 1.400 . S
C414 C417 1.386 . S
H415 C431 0.930 . S
H416 C432 0.931 . S
C417 H405 0.929 . S
C417 C411 1.390 . S
C417 C414 1.386 . S
C418 C413 1.490 . S
C418 C420 1.395 . S
C418 C421 1.403 . S
H419 C425 0.930 . S
C420 H406 0.930 . S
C420 C418 1.395 . S
C420 C423 1.403 . S
C421 C418 1.403 . S
C421 C422 1.524 . S
C421 C425 1.400 . S
C422 H407 0.960 . S
C422 H408 0.960 . S
C422 H409 0.960 . S
C422 C421 1.524 . S
C423 C420 1.403 . S
C423 C424 1.392 . S
C423 C427 1.495 . S
C424 C423 1.392 . S
C424 C425 1.385 . S
C424 C426 1.478 . S
C425 H419 0.930 . S
C425 C421 1.400 . S
C425 C424 1.385 . S
C426 C424 1.478 . S
C426 C428 1.381 . S
C426 C432 1.383 . S
C427 C423 1.495 . S
C427 H433 0.959 . S
C427 H434 0.961 . S
C427 H435 0.960 . S
C428 C426 1.381 . S
C428 C429 1.394 . S
C428 H436 0.930 . S
C429 C428 1.394 . S
C429 C430 1.383 . S
C429 H437 0.929 . S
C430 C429 1.383 . S
C430 C431 1.377 . S
C431 H415 0.930 . S
C431 C430 1.377 . S
C431 C432 1.379 . S
C432 H416 0.931 . S
C432 C426 1.383 . S
C432 C431 1.379 . S
H433 C427 0.959 . S
H434 C427 0.961 . S
H435 C427 0.960 . S
H436 C428 0.930 . S
H437 C429 0.929 . S
H438 C446 0.929 . S
H439 C448 0.930 . S
H440 C450 0.930 . S
H441 C453 0.929 . S
H442 C456 0.930 . S
H443 C458 0.960 . S
H444 C458 0.960 . S
H445 C458 0.960 . S
C446 H438 0.929 . S
C446 C447 1.377 . S
C446 C448 1.384 . S
C447 C446 1.377 . S
C447 C453 1.390 . S
C448 H439 0.930 . S
C448 C446 1.384 . S
C448 C449 1.372 . S
C449 C448 1.372 . S
C449 C450 1.400 . S
C449 C454 1.490 . S
C450 H440 0.930 . S
C450 C449 1.400 . S
C450 C453 1.386 . S
H451 C467 0.930 . S
H452 C468 0.931 . S
C453 H441 0.929 . S
C453 C447 1.390 . S
C453 C450 1.386 . S
C454 C449 1.490 . S
C454 C456 1.395 . S
C454 C457 1.403 . S
H455 C461 0.930 . S
C456 H442 0.930 . S
C456 C454 1.395 . S
C456 C459 1.403 . S
C457 C454 1.403 . S
C457 C458 1.524 . S
C457 C461 1.400 . S
C458 H443 0.960 . S
C458 H444 0.960 . S
C458 H445 0.960 . S
C458 C457 1.524 . S
C459 C456 1.403 . S
C459 C460 1.392 . S
C459 C463 1.495 . S
C460 C459 1.392 . S
C460 C461 1.385 . S
C460 C462 1.478 . S
C461 H455 0.930 . S
C461 C457 1.400 . S
C461 C460 1.385 . S
C462 C460 1.478 . S
C462 C464 1.381 . S
C462 C468 1.383 . S
C463 C459 1.495 . S
C463 H469 0.959 . S
C463 H470 0.961 . S
C463 H471 0.960 . S
C464 C462 1.381 . S
C464 C465 1.394 . S
C464 H472 0.930 . S
C465 C464 1.394 . S
C465 C466 1.383 . S
C465 H473 0.929 . S
C466 C465 1.383 . S
C466 C467 1.377 . S
C467 H451 0.930 . S
C467 C466 1.377 . S
C467 C468 1.379 . S
C468 H452 0.931 . S
C468 C462 1.383 . S
C468 C467 1.379 . S
H469 C463 0.959 . S
H470 C463 0.961 . S
H471 C463 0.960 . S
H472 C464 0.930 . S
H473 C465 0.929 . S
H474 C482 0.929 . S
H475 C484 0.930 . S
H476 C486 0.930 . S
H477 C489 0.929 . S
H478 C492 0.930 . S
H479 C494 0.960 . S
H480 C494 0.960 . S
H481 C494 0.960 . S
C482 H474 0.929 . S
C482 C483 1.377 . S
C482 C484 1.384 . S
C483 C482 1.377 . S
C483 C489 1.390 . S
C484 H475 0.930 . S
C484 C482 1.384 . S
C484 C485 1.372 . S
C485 C484 1.372 . S
C485 C486 1.400 . S
C485 C490 1.490 . S
C486 H476 0.930 . S
C486 C485 1.400 . S
C486 C489 1.386 . S
H487 C503 0.930 . S
H488 C504 0.931 . S
C489 H477 0.929 . S
C489 C483 1.390 . S
C489 C486 1.386 . S
C490 C485 1.490 . S
C490 C492 1.395 . S
C490 C493 1.403 . S
H491 C497 0.930 . S
C492 H478 0.930 . S
C492 C490 1.395 . S
C492 C495 1.403 . S
C493 C490 1.403 . S
C493 C494 1.524 . S
C493 C497 1.400 . S
C494 H479 0.960 . S
C494 H480 0.960 . S
C494 H481 0.960 . S
C494 C493 1.524 . S
C495 C492 1.403 . S
C495 C496 1.392 . S
C495 C499 1.495 . S
C496 C495 1.392 . S
C496 C497 1.385 . S
C496 C498 1.478 . S
C497 H491 0.930 . S
C497 C493 1.400 . S
C497 C496 1.385 . S
C498 C496 1.478 . S
C498 C500 1.381 . S
C498 C504 1.383 . S
C499 C495 1.495 . S
C499 H505 0.959 . S
C499 H506 0.961 . S
C499 H507 0.960 . S
C500 C498 1.381 . S
C500 C501 1.394 . S
C500 H508 0.930 . S
C501 C500 1.394 . S
C501 C502 1.383 . S
C501 H509 0.929 . S
C502 C501 1.383 . S
C502 C503 1.377 . S
C503 H487 0.930 . S
C503 C502 1.377 . S
C503 C504 1.379 . S
C504 H488 0.931 . S
C504 C498 1.383 . S
C504 C503 1.379 . S
H505 C499 0.959 . S
H506 C499 0.961 . S
H507 C499 0.960 . S
H508 C500 0.930 . S
H509 C501 0.929 . S
H510 C518 0.929 . S
H511 C520 0.930 . S
H512 C522 0.930 . S
H513 C525 0.929 . S
H514 C528 0.930 . S
H515 C530 0.960 . S
H516 C530 0.960 . S
H517 C530 0.960 . S
C518 H510 0.929 . S
C518 C519 1.377 . S
C518 C520 1.384 . S
C519 C518 1.377 . S
C519 C525 1.390 . S
C520 H511 0.930 . S
C520 C518 1.384 . S
C520 C521 1.372 . S
C521 C520 1.372 . S
C521 C522 1.400 . S
C521 C526 1.490 . S
C522 H512 0.930 . S
C522 C521 1.400 . S
C522 C525 1.386 . S
H523 C539 0.930 . S
H524 C540 0.931 . S
C525 H513 0.929 . S
C525 C519 1.390 . S
C525 C522 1.386 . S
C526 C521 1.490 . S
C526 C528 1.395 . S
C526 C529 1.403 . S
H527 C533 0.930 . S
C528 H514 0.930 . S
C528 C526 1.395 . S
C528 C531 1.403 . S
C529 C526 1.403 . S
C529 C530 1.524 . S
C529 C533 1.400 . S
C530 H515 0.960 . S
C530 H516 0.960 . S
C530 H517 0.960 . S
C530 C529 1.524 . S
C531 C528 1.403 . S
C531 C532 1.392 . S
C531 C535 1.495 . S
C532 C531 1.392 . S
C532 C533 1.385 . S
C532 C534 1.478 . S
C533 H527 0.930 . S
C533 C529 1.400 . S
C533 C532 1.385 . S
C534 C532 1.478 . S
C534 C536 1.381 . S
C534 C540 1.383 . S
C535 C531 1.495 . S
C535 H541 0.959 . S
C535 H542 0.961 . S
C535 H543 0.960 . S
C536 C534 1.381 . S
C536 C537 1.394 . S
C536 H544 0.930 . S
C537 C536 1.394 . S
C537 C538 1.383 . S
C537 H545 0.929 . S
C538 C537 1.383 . S
C538 C539 1.377 . S
C539 H523 0.930 . S
C539 C538 1.377 . S
C539 C540 1.379 . S
C540 H524 0.931 . S
C540 C534 1.383 . S
C540 C539 1.379 . S
H541 C535 0.959 . S
H542 C535 0.961 . S
H543 C535 0.960 . S
H544 C536 0.930 . S
H545 C537 0.929 . S
H546 C554 0.929 . S
H547 C556 0.930 . S
H548 C558 0.930 . S
H549 C561 0.929 . S
H550 C564 0.930 . S
H551 C566 0.960 . S
H552 C566 0.960 . S
H553 C566 0.960 . S
C554 H546 0.929 . S
C554 C555 1.377 . S
C554 C556 1.384 . S
C555 C554 1.377 . S
C555 C561 1.390 . S
C556 H547 0.930 . S
C556 C554 1.384 . S
C556 C557 1.372 . S
C557 C556 1.372 . S
C557 C558 1.400 . S
C557 C562 1.490 . S
C558 H548 0.930 . S
C558 C557 1.400 . S
C558 C561 1.386 . S
H559 C575 0.930 . S
H560 C576 0.931 . S
C561 H549 0.929 . S
C561 C555 1.390 . S
C561 C558 1.386 . S
C562 C557 1.490 . S
C562 C564 1.395 . S
C562 C565 1.403 . S
H563 C569 0.930 . S
C564 H550 0.930 . S
C564 C562 1.395 . S
C564 C567 1.403 . S
C565 C562 1.403 . S
C565 C566 1.524 . S
C565 C569 1.400 . S
C566 H551 0.960 . S
C566 H552 0.960 . S
C566 H553 0.960 . S
C566 C565 1.524 . S
C567 C564 1.403 . S
C567 C568 1.392 . S
C567 C571 1.495 . S
C568 C567 1.392 . S
C568 C569 1.385 . S
C568 C570 1.478 . S
C569 H563 0.930 . S
C569 C565 1.400 . S
C569 C568 1.385 . S
C570 C568 1.478 . S
C570 C572 1.381 . S
C570 C576 1.383 . S
C571 C567 1.495 . S
C571 H577 0.959 . S
C571 H578 0.961 . S
C571 H579 0.960 . S
C572 C570 1.381 . S
C572 C573 1.394 . S
C572 H580 0.930 . S
C573 C572 1.394 . S
C573 C574 1.383 . S
C573 H581 0.929 . S
C574 C573 1.383 . S
C574 C575 1.377 . S
C575 H559 0.930 . S
C575 C574 1.377 . S
C575 C576 1.379 . S
C576 H560 0.931 . S
C576 C570 1.383 . S
C576 C575 1.379 . S
H577 C571 0.959 . S
H578 C571 0.961 . S
H579 C571 0.960 . S
H580 C572 0.930 . S
H581 C573 0.929 . S
H582 C590 0.929 . S
H583 C592 0.930 . S
H584 C594 0.930 . S
H585 C597 0.929 . S
H586 C600 0.930 . S
H587 C602 0.960 . S
H588 C602 0.960 . S
H589 C602 0.960 . S
C590 H582 0.929 . S
C590 C591 1.377 . S
C590 C592 1.384 . S
C591 C590 1.377 . S
C591 C597 1.390 . S
C592 H583 0.930 . S
C592 C590 1.384 . S
C592 C593 1.372 . S
C593 C592 1.372 . S
C593 C594 1.400 . S
C593 C598 1.490 . S
C594 H584 0.930 . S
C594 C593 1.400 . S
C594 C597 1.386 . S
H595 C611 0.930 . S
H596 C612 0.931 . S
C597 H585 0.929 . S
C597 C591 1.390 . S
C597 C594 1.386 . S
C598 C593 1.490 . S
C598 C600 1.395 . S
C598 C601 1.403 . S
H599 C605 0.930 . S
C600 H586 0.930 . S
C600 C598 1.395 . S
C600 C603 1.403 . S
C601 C598 1.403 . S
C601 C602 1.524 . S
C601 C605 1.400 . S
C602 H587 0.960 . S
C602 H588 0.960 . S
C602 H589 0.960 . S
C602 C601 1.524 . S
C603 C600 1.403 . S
C603 C604 1.392 . S
C603 C607 1.495 . S
C604 C603 1.392 . S
C604 C605 1.385 . S
C604 C606 1.478 . S
C605 H599 0.930 . S
C605 C601 1.400 . S
C605 C604 1.385 . S
C606 C604 1.478 . S
C606 C608 1.381 . S
C606 C612 1.383 . S
C607 C603 1.495 . S
C607 H613 0.959 . S
C607 H614 0.961 . S
C607 H615 0.960 . S
C608 C606 1.381 . S
C608 C609 1.394 . S
C608 H616 0.930 . S
C609 C608 1.394 . S
C609 C610 1.383 . S
C609 H617 0.929 . S
C610 C609 1.383 . S
C610 C611 1.377 . S
C611 H595 0.930 . S
C611 C610 1.377 . S
C611 C612 1.379 . S
C612 H596 0.931 . S
C612 C606 1.383 . S
C612 C611 1.379 . S
H613 C607 0.959 . S
H614 C607 0.961 . S
H615 C607 0.960 . S
H616 C608 0.930 . S
H617 C609 0.929 . S
H618 C626 0.929 . S
H619 C628 0.930 . S
H620 C630 0.930 . S
H621 C633 0.929 . S
H622 C636 0.930 . S
H623 C638 0.960 . S
H624 C638 0.960 . S
H625 C638 0.960 . S
C626 H618 0.929 . S
C626 C627 1.377 . S
C626 C628 1.384 . S
C627 C626 1.377 . S
C627 C633 1.390 . S
C628 H619 0.930 . S
C628 C626 1.384 . S
C628 C629 1.372 . S
C629 C628 1.372 . S
C629 C630 1.400 . S
C629 C634 1.490 . S
C630 H620 0.930 . S
C630 C629 1.400 . S
C630 C633 1.386 . S
H631 C647 0.930 . S
H632 C648 0.931 . S
C633 H621 0.929 . S
C633 C627 1.390 . S
C633 C630 1.386 . S
C634 C629 1.490 . S
C634 C636 1.395 . S
C634 C637 1.403 . S
H635 C641 0.930 . S
C636 H622 0.930 . S
C636 C634 1.395 . S
C636 C639 1.403 . S
C637 C634 1.403 . S
C637 C638 1.524 . S
C637 C641 1.400 . S
C638 H623 0.960 . S
C638 H624 0.960 . S
C638 H625 0.960 . S
C638 C637 1.524 . S
C639 C636 1.403 . S
C639 C640 1.392 . S
C639 C643 1.495 . S
C640 C639 1.392 . S
C640 C641 1.385 . S
C640 C642 1.478 . S
C641 H635 0.930 . S
C641 C637 1.400 . S
C641 C640 1.385 . S
C642 C640 1.478 . S
C642 C644 1.381 . S
C642 C648 1.383 . S
C643 C639 1.495 . S
C643 H649 0.959 . S
C643 H650 0.961 . S
C643 H651 0.960 . S
C644 C642 1.381 . S
C644 C645 1.394 . S
C644 H652 0.930 . S
C645 C644 1.394 . S
C645 C646 1.383 . S
C645 H653 0.929 . S
C646 C645 1.383 . S
C646 C647 1.377 . S
C647 H631 0.930 . S
C647 C646 1.377 . S
C647 C648 1.379 . S
C648 H632 0.931 . S
C648 C642 1.383 . S
C648 C647 1.379 . S
H649 C643 0.959 . S
H650 C643 0.961 . S
H651 C643 0.960 . S
H652 C644 0.930 . S
H653 C645 0.929 . S
H654 C662 0.929 . S
H655 C664 0.930 . S
H656 C666 0.930 . S
H657 C669 0.929 . S
H658 C672 0.930 . S
H659 C674 0.960 . S
H660 C674 0.960 . S
H661 C674 0.960 . S
C662 H654 0.929 . S
C662 C663 1.377 . S
C662 C664 1.384 . S
C663 C662 1.377 . S
C663 C669 1.390 . S
C664 H655 0.930 . S
C664 C662 1.384 . S
C664 C665 1.372 . S
C665 C664 1.372 . S
C665 C666 1.400 . S
C665 C670 1.490 . S
C666 H656 0.930 . S
C666 C665 1.400 . S
C666 C669 1.386 . S
H667 C683 0.930 . S
H668 C684 0.931 . S
C669 H657 0.929 . S
C669 C663 1.390 . S
C669 C666 1.386 . S
C670 C665 1.490 . S
C670 C672 1.395 . S
C670 C673 1.403 . S
H671 C677 0.930 . S
C672 H658 0.930 . S
C672 C670 1.395 . S
C672 C675 1.403 . S
C673 C670 1.403 . S
C673 C674 1.524 . S
C673 C677 1.400 . S
C674 H659 0.960 . S
C674 H660 0.960 . S
C674 H661 0.960 . S
C674 C673 1.524 . S
C675 C672 1.403 . S
C675 C676 1.392 . S
C675 C679 1.495 . S
C676 C675 1.392 . S
C676 C677 1.385 . S
C676 C678 1.478 . S
C677 H671 0.930 . S
C677 C673 1.400 . S
C677 C676 1.385 . S
C678 C676 1.478 . S
C678 C680 1.381 . S
C678 C684 1.383 . S
C679 C675 1.495 . S
C679 H685 0.959 . S
C679 H686 0.961 . S
C679 H687 0.960 . S
C680 C678 1.381 . S
C680 C681 1.394 . S
C680 H688 0.930 . S
C681 C680 1.394 . S
C681 C682 1.383 . S
C681 H689 0.929 . S
C682 C681 1.383 . S
C682 C683 1.377 . S
C683 H667 0.930 . S
C683 C682 1.377 . S
C683 C684 1.379 . S
C684 H668 0.931 . S
C684 C678 1.383 . S
C684 C683 1.379 . S
H685 C679 0.959 . S
H686 C679 0.961 . S
H687 C679 0.960 . S
H688 C680 0.930 . S
H689 C681 0.929 . S
H690 C698 0.929 . S
H691 C700 0.930 . S
H692 C702 0.930 . S
H693 C705 0.929 1_556 S
H694 C708 0.930 . S
H695 C710 0.960 . S
H696 C710 0.960 . S
H697 C710 0.960 . S
C698 H690 0.929 . S
C698 C699 1.377 . S
C698 C700 1.384 . S
C699 C698 1.377 . S
C699 C705 1.390 . S
C700 H691 0.930 . S
C700 C698 1.384 . S
C700 C701 1.372 . S
C701 C700 1.372 . S
C701 C702 1.400 . S
C701 C706 1.490 . S
C702 H692 0.930 . S
C702 C701 1.400 . S
C702 C705 1.386 . S
H703 C719 0.930 . S
H704 C720 0.931 . S
C705 H693 0.929 1_554 S
C705 C699 1.390 . S
C705 C702 1.386 . S
C706 C701 1.490 . S
C706 C708 1.395 . S
C706 C709 1.403 . S
H707 C713 0.930 . S
C708 H694 0.930 . S
C708 C706 1.395 . S
C708 C711 1.403 . S
C709 C706 1.403 . S
C709 C710 1.524 . S
C709 C713 1.400 . S
C710 H695 0.960 . S
C710 H696 0.960 . S
C710 H697 0.960 . S
C710 C709 1.524 . S
C711 C708 1.403 . S
C711 C712 1.392 . S
C711 C715 1.495 . S
C712 C711 1.392 . S
C712 C713 1.385 . S
C712 C714 1.478 . S
C713 H707 0.930 . S
C713 C709 1.400 . S
C713 C712 1.385 . S
C714 C712 1.478 . S
C714 C716 1.381 . S
C714 C720 1.383 . S
C715 C711 1.495 . S
C715 H721 0.959 . S
C715 H722 0.961 . S
C715 H723 0.960 . S
C716 C714 1.381 . S
C716 C717 1.394 . S
C716 H724 0.930 . S
C717 C716 1.394 . S
C717 C718 1.383 . S
C717 H725 0.929 . S
C718 C717 1.383 . S
C718 C719 1.377 . S
C719 H703 0.930 . S
C719 C718 1.377 . S
C719 C720 1.379 . S
C720 H704 0.931 . S
C720 C714 1.383 . S
C720 C719 1.379 . S
H721 C715 0.959 . S
H722 C715 0.961 . S
H723 C715 0.960 . S
H724 C716 0.930 . S
H725 C717 0.929 . S
H726 C734 0.929 . S
H727 C736 0.930 . S
H728 C738 0.930 . S
H729 C741 0.929 . S
H730 C744 0.930 . S
H731 C746 0.960 . S
H732 C746 0.960 . S
H733 C746 0.960 . S
C734 H726 0.929 . S
C734 C735 1.377 . S
C734 C736 1.384 . S
C735 C734 1.377 . S
C735 C741 1.390 . S
C736 H727 0.930 . S
C736 C734 1.384 . S
C736 C737 1.372 . S
C737 C736 1.372 . S
C737 C738 1.400 . S
C737 C742 1.490 . S
C738 H728 0.930 . S
C738 C737 1.400 . S
C738 C741 1.386 . S
H739 C755 0.930 . S
H740 C756 0.931 . S
C741 H729 0.929 . S
C741 C735 1.390 . S
C741 C738 1.386 . S
C742 C737 1.490 . S
C742 C744 1.395 . S
C742 C745 1.403 . S
H743 C749 0.930 . S
C744 H730 0.930 . S
C744 C742 1.395 . S
C744 C747 1.403 . S
C745 C742 1.403 . S
C745 C746 1.524 . S
C745 C749 1.400 . S
C746 H731 0.960 . S
C746 H732 0.960 . S
C746 H733 0.960 . S
C746 C745 1.524 . S
C747 C744 1.403 . S
C747 C748 1.392 . S
C747 C751 1.495 . S
C748 C747 1.392 . S
C748 C749 1.385 . S
C748 C750 1.478 . S
C749 H743 0.930 . S
C749 C745 1.400 . S
C749 C748 1.385 . S
C750 C748 1.478 . S
C750 C752 1.381 . S
C750 C756 1.383 . S
C751 C747 1.495 . S
C751 H757 0.959 . S
C751 H758 0.961 . S
C751 H759 0.960 . S
C752 C750 1.381 . S
C752 C753 1.394 . S
C752 H760 0.930 . S
C753 C752 1.394 . S
C753 C754 1.383 . S
C753 H761 0.929 . S
C754 C753 1.383 . S
C754 C755 1.377 . S
C755 H739 0.930 . S
C755 C754 1.377 . S
C755 C756 1.379 . S
C756 H740 0.931 . S
C756 C750 1.383 . S
C756 C755 1.379 . S
H757 C751 0.959 . S
H758 C751 0.961 . S
H759 C751 0.960 . S
H760 C752 0.930 . S
H761 C753 0.929 . S
H762 C770 0.929 . S
H763 C772 0.930 . S
H764 C774 0.930 . S
H765 C777 0.929 . S
H766 C780 0.930 . S
H767 C782 0.960 . S
H768 C782 0.960 . S
H769 C782 0.960 . S
C770 H762 0.929 . S
C770 C771 1.377 . S
C770 C772 1.384 . S
C771 C770 1.377 . S
C771 C777 1.390 . S
C772 H763 0.930 . S
C772 C770 1.384 . S
C772 C773 1.372 . S
C773 C772 1.372 . S
C773 C774 1.400 . S
C773 C778 1.490 . S
C774 H764 0.930 . S
C774 C773 1.400 . S
C774 C777 1.386 . S
H775 C791 0.930 . S
H776 C792 0.931 . S
C777 H765 0.929 . S
C777 C771 1.390 . S
C777 C774 1.386 . S
C778 C773 1.490 . S
C778 C780 1.395 . S
C778 C781 1.403 . S
H779 C785 0.930 . S
C780 H766 0.930 . S
C780 C778 1.395 . S
C780 C783 1.403 . S
C781 C778 1.403 . S
C781 C782 1.524 . S
C781 C785 1.400 . S
C782 H767 0.960 . S
C782 H768 0.960 . S
C782 H769 0.960 . S
C782 C781 1.524 . S
C783 C780 1.403 . S
C783 C784 1.392 . S
C783 C787 1.495 . S
C784 C783 1.392 . S
C784 C785 1.385 . S
C784 C786 1.478 . S
C785 H779 0.930 . S
C785 C781 1.400 . S
C785 C784 1.385 . S
C786 C784 1.478 . S
C786 C788 1.381 . S
C786 C792 1.383 . S
C787 C783 1.495 . S
C787 H793 0.959 . S
C787 H794 0.961 . S
C787 H795 0.960 . S
C788 C786 1.381 . S
C788 C789 1.394 . S
C788 H796 0.930 . S
C789 C788 1.394 . S
C789 C790 1.383 . S
C789 H797 0.929 . S
C790 C789 1.383 . S
C790 C791 1.377 . S
C791 H775 0.930 . S
C791 C790 1.377 . S
C791 C792 1.379 . S
C792 H776 0.931 . S
C792 C786 1.383 . S
C792 C791 1.379 . S
H793 C787 0.959 . S
H794 C787 0.961 . S
H795 C787 0.960 . S
H796 C788 0.930 . S
H797 C789 0.929 . S
H798 C806 0.929 . S
H799 C808 0.930 . S
H800 C810 0.930 . S
H801 C813 0.929 . S
H802 C816 0.930 . S
H803 C818 0.960 . S
H804 C818 0.960 . S
H805 C818 0.960 . S
C806 H798 0.929 . S
C806 C807 1.377 . S
C806 C808 1.384 . S
C807 C806 1.377 . S
C807 C813 1.390 . S
C808 H799 0.930 . S
C808 C806 1.384 . S
C808 C809 1.372 . S
C809 C808 1.372 . S
C809 C810 1.400 . S
C809 C814 1.490 . S
C810 H800 0.930 . S
C810 C809 1.400 . S
C810 C813 1.386 . S
H811 C827 0.930 . S
H812 C828 0.931 . S
C813 H801 0.929 . S
C813 C807 1.390 . S
C813 C810 1.386 . S
C814 C809 1.490 . S
C814 C816 1.395 . S
C814 C817 1.403 . S
H815 C821 0.930 . S
C816 H802 0.930 . S
C816 C814 1.395 . S
C816 C819 1.403 . S
C817 C814 1.403 . S
C817 C818 1.524 . S
C817 C821 1.400 . S
C818 H803 0.960 . S
C818 H804 0.960 . S
C818 H805 0.960 . S
C818 C817 1.524 . S
C819 C816 1.403 . S
C819 C820 1.392 . S
C819 C823 1.495 . S
C820 C819 1.392 . S
C820 C821 1.385 . S
C820 C822 1.478 . S
C821 H815 0.930 . S
C821 C817 1.400 . S
C821 C820 1.385 . S
C822 C820 1.478 . S
C822 C824 1.381 . S
C822 C828 1.383 . S
C823 C819 1.495 . S
C823 H829 0.959 . S
C823 H830 0.961 . S
C823 H831 0.960 . S
C824 C822 1.381 . S
C824 C825 1.394 . S
C824 H832 0.930 . S
C825 C824 1.394 . S
C825 C826 1.383 . S
C825 H833 0.929 . S
C826 C825 1.383 . S
C826 C827 1.377 . S
C827 H811 0.930 . S
C827 C826 1.377 . S
C827 C828 1.379 . S
C828 H812 0.931 . S
C828 C822 1.383 . S
C828 C827 1.379 . S
H829 C823 0.959 . S
H830 C823 0.961 . S
H831 C823 0.960 . S
H832 C824 0.930 . S
H833 C825 0.929 . S
H834 C842 0.929 . S
H835 C844 0.930 . S
H836 C846 0.930 . S
H837 C849 0.929 . S
H838 C852 0.930 . S
H839 C854 0.960 . S
H840 C854 0.960 . S
H841 C854 0.960 . S
C842 H834 0.929 . S
C842 C843 1.377 . S
C842 C844 1.384 . S
C843 C842 1.377 . S
C843 C849 1.390 . S
C844 H835 0.930 . S
C844 C842 1.384 . S
C844 C845 1.372 . S
C845 C844 1.372 . S
C845 C846 1.400 . S
C845 C850 1.490 . S
C846 H836 0.930 . S
C846 C845 1.400 . S
C846 C849 1.386 . S
H847 C863 0.930 . S
H848 C864 0.931 . S
C849 H837 0.929 . S
C849 C843 1.390 . S
C849 C846 1.386 . S
C850 C845 1.490 . S
C850 C852 1.395 . S
C850 C853 1.403 . S
H851 C857 0.930 . S
C852 H838 0.930 . S
C852 C850 1.395 . S
C852 C855 1.403 . S
C853 C850 1.403 . S
C853 C854 1.524 . S
C853 C857 1.400 . S
C854 H839 0.960 . S
C854 H840 0.960 . S
C854 H841 0.960 . S
C854 C853 1.524 . S
C855 C852 1.403 . S
C855 C856 1.392 . S
C855 C859 1.495 . S
C856 C855 1.392 . S
C856 C857 1.385 . S
C856 C858 1.478 . S
C857 H851 0.930 . S
C857 C853 1.400 . S
C857 C856 1.385 . S
C858 C856 1.478 . S
C858 C860 1.381 . S
C858 C864 1.383 . S
C859 C855 1.495 . S
C859 H865 0.959 . S
C859 H866 0.961 . S
C859 H867 0.960 . S
C860 C858 1.381 . S
C860 C861 1.394 . S
C860 H868 0.930 . S
C861 C860 1.394 . S
C861 C862 1.383 . S
C861 H869 0.929 . S
C862 C861 1.383 . S
C862 C863 1.377 . S
C863 H847 0.930 . S
C863 C862 1.377 . S
C863 C864 1.379 . S
C864 H848 0.931 . S
C864 C858 1.383 . S
C864 C863 1.379 . S
H865 C859 0.959 . S
H866 C859 0.961 . S
H867 C859 0.960 . S
H868 C860 0.930 . S
H869 C861 0.929 . S
H870 C878 0.929 . S
H871 C880 0.930 . S
H872 C882 0.930 . S
H873 C885 0.929 . S
H874 C888 0.930 . S
H875 C890 0.960 . S
H876 C890 0.960 . S
H877 C890 0.960 . S
C878 H870 0.929 . S
C878 C879 1.377 . S
C878 C880 1.384 . S
C879 C878 1.377 . S
C879 C885 1.390 . S
C880 H871 0.930 . S
C880 C878 1.384 . S
C880 C881 1.372 . S
C881 C880 1.372 . S
C881 C882 1.400 . S
C881 C886 1.490 . S
C882 H872 0.930 . S
C882 C881 1.400 . S
C882 C885 1.386 . S
H883 C899 0.930 . S
H884 C900 0.931 . S
C885 H873 0.929 . S
C885 C879 1.390 . S
C885 C882 1.386 . S
C886 C881 1.490 . S
C886 C888 1.395 . S
C886 C889 1.403 . S
H887 C893 0.930 . S
C888 H874 0.930 . S
C888 C886 1.395 . S
C888 C891 1.403 . S
C889 C886 1.403 . S
C889 C890 1.524 . S
C889 C893 1.400 . S
C890 H875 0.960 . S
C890 H876 0.960 . S
C890 H877 0.960 . S
C890 C889 1.524 . S
C891 C888 1.403 . S
C891 C892 1.392 . S
C891 C895 1.495 . S
C892 C891 1.392 . S
C892 C893 1.385 . S
C892 C894 1.478 . S
C893 H887 0.930 . S
C893 C889 1.400 . S
C893 C892 1.385 . S
C894 C892 1.478 . S
C894 C896 1.381 . S
C894 C900 1.383 . S
C895 C891 1.495 . S
C895 H901 0.959 . S
C895 H902 0.961 . S
C895 H903 0.960 . S
C896 C894 1.381 . S
C896 C897 1.394 . S
C896 H904 0.930 . S
C897 C896 1.394 . S
C897 C898 1.383 . S
C897 H905 0.929 . S
C898 C897 1.383 . S
C898 C899 1.377 . S
C899 H883 0.930 . S
C899 C898 1.377 . S
C899 C900 1.379 . S
C900 H884 0.931 . S
C900 C894 1.383 . S
C900 C899 1.379 . S
H901 C895 0.959 . S
H902 C895 0.961 . S
H903 C895 0.960 . S
H904 C896 0.930 . S
H905 C897 0.929 . S
H906 C914 0.929 . S
H907 C916 0.930 . S
H908 C918 0.930 . S
H909 C921 0.929 . S
H910 C924 0.930 . S
H911 C926 0.960 . S
H912 C926 0.960 . S
H913 C926 0.960 . S
C914 H906 0.929 . S
C914 C915 1.377 . S
C914 C916 1.384 . S
C915 C914 1.377 . S
C915 C921 1.390 . S
C916 H907 0.930 . S
C916 C914 1.384 . S
C916 C917 1.372 . S
C917 C916 1.372 . S
C917 C918 1.400 . S
C917 C922 1.490 . S
C918 H908 0.930 . S
C918 C917 1.400 . S
C918 C921 1.386 . S
H919 C935 0.930 . S
H920 C936 0.931 1_556 S
C921 H909 0.929 . S
C921 C915 1.390 . S
C921 C918 1.386 . S
C922 C917 1.490 . S
C922 C924 1.395 . S
C922 C925 1.403 . S
H923 C929 0.930 . S
C924 H910 0.930 . S
C924 C922 1.395 . S
C924 C927 1.403 . S
C925 C922 1.403 . S
C925 C926 1.524 . S
C925 C929 1.400 . S
C926 H911 0.960 . S
C926 H912 0.960 . S
C926 H913 0.960 . S
C926 C925 1.524 . S
C927 C924 1.403 . S
C927 C928 1.392 . S
C927 C931 1.495 1_556 S
C928 C927 1.392 . S
C928 C929 1.385 . S
C928 C930 1.478 1_556 S
C929 H923 0.930 . S
C929 C925 1.400 . S
C929 C928 1.385 . S
C930 C928 1.478 1_554 S
C930 C932 1.381 . S
C930 C936 1.383 . S
C931 C927 1.495 1_554 S
C931 H937 0.965 . S
C931 H938 0.961 . S
C931 H939 0.960 . S
C932 C930 1.381 . S
C932 C933 1.394 . S
C932 H940 0.930 . S
C933 C932 1.394 . S
C933 C934 1.383 . S
C933 H941 0.929 . S
C934 C933 1.383 . S
C934 C935 1.377 . S
C935 H919 0.930 . S
C935 C934 1.377 . S
C935 C936 1.379 . S
C936 H920 0.931 1_554 S
C936 C930 1.383 . S
C936 C935 1.379 . S
H937 C931 0.965 . S
H938 C931 0.961 . S
H939 C931 0.960 . S
H940 C932 0.930 . S
H941 C933 0.929 . S
H942 C950 0.929 . S
H943 C952 0.930 . S
H944 C954 0.930 . S
H945 C957 0.929 . S
H946 C960 0.930 . S
H947 C962 0.960 . S
H948 C962 0.960 . S
H949 C962 0.960 . S
C950 H942 0.929 . S
C950 C951 1.377 . S
C950 C952 1.384 . S
C951 C950 1.377 . S
C951 C957 1.390 . S
C952 H943 0.930 . S
C952 C950 1.384 . S
C952 C953 1.372 . S
C953 C952 1.372 . S
C953 C954 1.400 . S
C953 C958 1.490 . S
C954 H944 0.930 . S
C954 C953 1.400 . S
C954 C957 1.386 . S
H955 C971 0.930 . S
H956 C972 0.931 . S
C957 H945 0.929 . S
C957 C951 1.390 . S
C957 C954 1.386 . S
C958 C953 1.490 . S
C958 C960 1.395 . S
C958 C961 1.403 . S
H959 C965 0.930 . S
C960 H946 0.930 . S
C960 C958 1.395 . S
C960 C963 1.403 . S
C961 C958 1.403 . S
C961 C962 1.524 . S
C961 C965 1.400 . S
C962 H947 0.960 . S
C962 H948 0.960 . S
C962 H949 0.960 . S
C962 C961 1.524 . S
C963 C960 1.403 . S
C963 C964 1.392 . S
C963 C967 1.495 . S
C964 C963 1.392 . S
C964 C965 1.385 . S
C964 C966 1.478 . S
C965 H959 0.930 . S
C965 C961 1.400 . S
C965 C964 1.385 . S
C966 C964 1.478 . S
C966 C968 1.381 . S
C966 C972 1.383 . S
C967 C963 1.495 . S
C967 H973 0.959 . S
C967 H974 0.961 . S
C967 H975 0.960 . S
C968 C966 1.381 . S
C968 C969 1.394 . S
C968 H976 0.930 . S
C969 C968 1.394 . S
C969 C970 1.383 . S
C969 H977 0.929 . S
C970 C969 1.383 . S
C970 C971 1.377 . S
C971 H955 0.930 . S
C971 C970 1.377 . S
C971 C972 1.379 . S
C972 H956 0.931 . S
C972 C966 1.383 . S
C972 C971 1.379 . S
H973 C967 0.959 . S
H974 C967 0.961 . S
H975 C967 0.960 . S
H976 C968 0.930 . S
H977 C969 0.929 . S
H978 C986 0.929 . S
H979 C988 0.930 . S
H980 C990 0.930 . S
H981 C993 0.929 . S
H982 C996 0.930 . S
H983 C998 0.960 . S
H984 C998 0.960 . S
H985 C998 0.960 . S
C986 H978 0.929 . S
C986 C987 1.377 . S
C986 C988 1.384 . S
C987 C986 1.377 . S
C987 C993 1.390 . S
C988 H979 0.930 . S
C988 C986 1.384 . S
C988 C989 1.372 . S
C989 C988 1.372 . S
C989 C990 1.400 . S
C989 C994 1.490 . S
C990 H980 0.930 . S
C990 C989 1.400 . S
C990 C993 1.386 . S
H991 C1007 0.930 . S
H992 C1008 0.931 . S
C993 H981 0.929 . S
C993 C987 1.390 . S
C993 C990 1.386 . S
C994 C989 1.490 . S
C994 C996 1.395 . S
C994 C997 1.403 . S
H995 C1001 0.930 . S
C996 H982 0.930 . S
C996 C994 1.395 . S
C996 C999 1.403 . S
C997 C994 1.403 . S
C997 C998 1.524 . S
C997 C1001 1.400 . S
C998 H983 0.960 . S
C998 H984 0.960 . S
C998 H985 0.960 . S
C998 C997 1.524 . S
C999 C996 1.403 . S
C999 C1000 1.392 . S
C999 C1003 1.495 . S
C1000 C999 1.392 . S
C1000 C1001 1.385 . S
C1000 C1002 1.478 . S
C1001 H995 0.930 . S
C1001 C997 1.400 . S
C1001 C1000 1.385 . S
C1002 C1000 1.478 . S
C1002 C1004 1.381 . S
C1002 C1008 1.383 . S
C1003 C999 1.495 . S
C1003 H1009 0.959 . S
C1003 H1010 0.961 . S
C1003 H1011 0.960 . S
C1004 C1002 1.381 . S
C1004 C1005 1.394 . S
C1004 H1012 0.930 . S
C1005 C1004 1.394 . S
C1005 C1006 1.383 . S
C1005 H1013 0.929 . S
C1006 C1005 1.383 . S
C1006 C1007 1.377 . S
C1007 H991 0.930 . S
C1007 C1006 1.377 . S
C1007 C1008 1.379 . S
C1008 H992 0.931 . S
C1008 C1002 1.383 . S
C1008 C1007 1.379 . S
H1009 C1003 0.959 . S
H1010 C1003 0.961 . S
H1011 C1003 0.960 . S
H1012 C1004 0.930 . S
H1013 C1005 0.929 . S
H1014 C1022 0.929 . S
H1015 C1024 0.930 . S
H1016 C1026 0.930 . S
H1017 C1029 0.929 . S
H1018 C1032 0.930 . S
H1019 C1034 0.960 . S
H1020 C1034 0.960 . S
H1021 C1034 0.960 . S
C1022 H1014 0.929 . S
C1022 C1023 1.377 . S
C1022 C1024 1.384 . S
C1023 C1022 1.377 . S
C1023 C1029 1.390 . S
C1024 H1015 0.930 . S
C1024 C1022 1.384 . S
C1024 C1025 1.372 . S
C1025 C1024 1.372 . S
C1025 C1026 1.400 . S
C1025 C1030 1.490 . S
C1026 H1016 0.930 . S
C1026 C1025 1.400 . S
C1026 C1029 1.386 . S
H1027 C1043 0.930 . S
H1028 C1044 0.931 . S
C1029 H1017 0.929 . S
C1029 C1023 1.390 . S
C1029 C1026 1.386 . S
C1030 C1025 1.490 . S
C1030 C1032 1.395 . S
C1030 C1033 1.403 . S
H1031 C1037 0.930 . S
C1032 H1018 0.930 . S
C1032 C1030 1.395 . S
C1032 C1035 1.403 . S
C1033 C1030 1.403 . S
C1033 C1034 1.524 . S
C1033 C1037 1.400 . S
C1034 H1019 0.960 . S
C1034 H1020 0.960 . S
C1034 H1021 0.960 . S
C1034 C1033 1.524 . S
C1035 C1032 1.403 . S
C1035 C1036 1.392 . S
C1035 C1039 1.495 . S
C1036 C1035 1.392 . S
C1036 C1037 1.385 . S
C1036 C1038 1.478 . S
C1037 H1031 0.930 . S
C1037 C1033 1.400 . S
C1037 C1036 1.385 . S
C1038 C1036 1.478 . S
C1038 C1040 1.381 . S
C1038 C1044 1.383 . S
C1039 C1035 1.495 . S
C1039 H1045 0.959 . S
C1039 H1046 0.961 . S
C1039 H1047 0.960 . S
C1040 C1038 1.381 . S
C1040 C1041 1.394 . S
C1040 H1048 0.930 . S
C1041 C1040 1.394 . S
C1041 C1042 1.383 . S
C1041 H1049 0.929 . S
C1042 C1041 1.383 . S
C1042 C1043 1.377 . S
C1043 H1027 0.930 . S
C1043 C1042 1.377 . S
C1043 C1044 1.379 . S
C1044 H1028 0.931 . S
C1044 C1038 1.383 . S
C1044 C1043 1.379 . S
H1045 C1039 0.959 . S
H1046 C1039 0.961 . S
H1047 C1039 0.960 . S
H1048 C1040 0.930 . S
H1049 C1041 0.929 . S
H1050 C1058 0.929 . S
H1051 C1060 0.930 . S
H1052 C1062 0.930 . S
H1053 C1065 0.929 . S
H1054 C1068 0.930 . S
H1055 C1070 0.960 . S
H1056 C1070 0.960 . S
H1057 C1070 0.960 . S
C1058 H1050 0.929 . S
C1058 C1059 1.377 . S
C1058 C1060 1.384 . S
C1059 C1058 1.377 . S
C1059 C1065 1.390 . S
C1060 H1051 0.930 . S
C1060 C1058 1.384 . S
C1060 C1061 1.372 . S
C1061 C1060 1.372 . S
C1061 C1062 1.400 . S
C1061 C1066 1.490 . S
C1062 H1052 0.930 . S
C1062 C1061 1.400 . S
C1062 C1065 1.386 . S
H1063 C1079 0.930 . S
H1064 C1080 0.931 . S
C1065 H1053 0.929 . S
C1065 C1059 1.390 . S
C1065 C1062 1.386 . S
C1066 C1061 1.490 . S
C1066 C1068 1.395 . S
C1066 C1069 1.403 . S
H1067 C1073 0.930 . S
C1068 H1054 0.930 . S
C1068 C1066 1.395 . S
C1068 C1071 1.403 . S
C1069 C1066 1.403 . S
C1069 C1070 1.524 . S
C1069 C1073 1.400 . S
C1070 H1055 0.960 . S
C1070 H1056 0.960 . S
C1070 H1057 0.960 . S
C1070 C1069 1.524 . S
C1071 C1068 1.403 . S
C1071 C1072 1.392 . S
C1071 C1075 1.495 . S
C1072 C1071 1.392 . S
C1072 C1073 1.385 . S
C1072 C1074 1.478 . S
C1073 H1067 0.930 . S
C1073 C1069 1.400 . S
C1073 C1072 1.385 . S
C1074 C1072 1.478 . S
C1074 C1076 1.381 . S
C1074 C1080 1.383 . S
C1075 C1071 1.495 . S
C1075 H1081 0.959 . S
C1075 H1082 0.961 . S
C1075 H1083 0.960 . S
C1076 C1074 1.381 . S
C1076 C1077 1.394 . S
C1076 H1084 0.930 . S
C1077 C1076 1.394 . S
C1077 C1078 1.383 . S
C1077 H1085 0.929 . S
C1078 C1077 1.383 . S
C1078 C1079 1.377 . S
C1079 H1063 0.930 . S
C1079 C1078 1.377 . S
C1079 C1080 1.379 . S
C1080 H1064 0.931 . S
C1080 C1074 1.383 . S
C1080 C1079 1.379 . S
H1081 C1075 0.959 . S
H1082 C1075 0.961 . S
H1083 C1075 0.960 . S
H1084 C1076 0.930 . S
H1085 C1077 0.929 . S
H1086 C1094 0.929 . S
H1087 C1096 0.930 . S
H1088 C1098 0.930 . S
H1089 C1101 0.929 . S
H1090 C1104 0.930 . S
H1091 C1106 0.960 . S
H1092 C1106 0.960 . S
H1093 C1106 0.960 . S
C1094 H1086 0.929 . S
C1094 C1095 1.377 . S
C1094 C1096 1.384 . S
C1095 C1094 1.377 . S
C1095 C1101 1.390 . S
C1096 H1087 0.930 . S
C1096 C1094 1.384 . S
C1096 C1097 1.372 . S
C1097 C1096 1.372 . S
C1097 C1098 1.400 . S
C1097 C1102 1.490 . S
C1098 H1088 0.930 . S
C1098 C1097 1.400 . S
C1098 C1101 1.386 . S
H1099 C1115 0.930 . S
H1100 C1116 0.931 . S
C1101 H1089 0.929 . S
C1101 C1095 1.390 . S
C1101 C1098 1.386 . S
C1102 C1097 1.490 . S
C1102 C1104 1.395 . S
C1102 C1105 1.403 . S
H1103 C1109 0.930 . S
C1104 H1090 0.930 . S
C1104 C1102 1.395 . S
C1104 C1107 1.403 . S
C1105 C1102 1.403 . S
C1105 C1106 1.524 . S
C1105 C1109 1.400 . S
C1106 H1091 0.960 . S
C1106 H1092 0.960 . S
C1106 H1093 0.960 . S
C1106 C1105 1.524 . S
C1107 C1104 1.403 . S
C1107 C1108 1.392 . S
C1107 C1111 1.495 . S
C1108 C1107 1.392 . S
C1108 C1109 1.385 . S
C1108 C1110 1.478 . S
C1109 H1103 0.930 . S
C1109 C1105 1.400 . S
C1109 C1108 1.385 . S
C1110 C1108 1.478 . S
C1110 C1112 1.381 . S
C1110 C1116 1.383 . S
C1111 C1107 1.495 . S
C1111 H1117 0.959 . S
C1111 H1118 0.961 . S
C1111 H1119 0.960 . S
C1112 C1110 1.381 . S
C1112 C1113 1.394 . S
C1112 H1120 0.930 . S
C1113 C1112 1.394 . S
C1113 C1114 1.383 . S
C1113 H1121 0.929 . S
C1114 C1113 1.383 . S
C1114 C1115 1.377 . S
C1115 H1099 0.930 . S
C1115 C1114 1.377 . S
C1115 C1116 1.379 . S
C1116 H1100 0.931 . S
C1116 C1110 1.383 . S
C1116 C1115 1.379 . S
H1117 C1111 0.959 . S
H1118 C1111 0.961 . S
H1119 C1111 0.960 . S
H1120 C1112 0.930 . S
H1121 C1113 0.929 . S
H1122 C1130 0.929 . S
H1123 C1132 0.930 . S
H1124 C1134 0.930 . S
H1125 C1137 0.929 . S
H1126 C1140 0.930 . S
H1127 C1142 0.960 . S
H1128 C1142 0.960 . S
H1129 C1142 0.960 . S
C1130 H1122 0.929 . S
C1130 C1131 1.377 . S
C1130 C1132 1.384 . S
C1131 C1130 1.377 . S
C1131 C1137 1.390 . S
C1132 H1123 0.930 . S
C1132 C1130 1.384 . S
C1132 C1133 1.372 . S
C1133 C1132 1.372 . S
C1133 C1134 1.400 . S
C1133 C1138 1.490 . S
C1134 H1124 0.930 . S
C1134 C1133 1.400 . S
C1134 C1137 1.386 . S
H1135 C1151 0.930 . S
H1136 C1152 0.931 . S
C1137 H1125 0.929 . S
C1137 C1131 1.390 . S
C1137 C1134 1.386 . S
C1138 C1133 1.490 . S
C1138 C1140 1.395 . S
C1138 C1141 1.403 . S
H1139 C1145 0.930 . S
C1140 H1126 0.930 . S
C1140 C1138 1.395 . S
C1140 C1143 1.403 . S
C1141 C1138 1.403 . S
C1141 C1142 1.524 . S
C1141 C1145 1.400 . S
C1142 H1127 0.960 . S
C1142 H1128 0.960 . S
C1142 H1129 0.960 . S
C1142 C1141 1.524 . S
C1143 C1140 1.403 . S
C1143 C1144 1.392 . S
C1143 C1147 1.495 . S
C1144 C1143 1.392 . S
C1144 C1145 1.385 . S
C1144 C1146 1.478 . S
C1145 H1139 0.930 . S
C1145 C1141 1.400 . S
C1145 C1144 1.385 . S
C1146 C1144 1.478 . S
C1146 C1148 1.381 . S
C1146 C1152 1.383 . S
C1147 C1143 1.495 . S
C1147 H1153 0.959 . S
C1147 H1154 0.961 . S
C1147 H1155 0.960 . S
C1148 C1146 1.381 . S
C1148 C1149 1.394 . S
C1148 H1156 0.930 . S
C1149 C1148 1.394 . S
C1149 C1150 1.383 . S
C1149 H1157 0.929 . S
C1150 C1149 1.383 . S
C1150 C1151 1.377 . S
C1151 H1135 0.930 . S
C1151 C1150 1.377 . S
C1151 C1152 1.379 . S
C1152 H1136 0.931 . S
C1152 C1146 1.383 . S
C1152 C1151 1.379 . S
H1153 C1147 0.959 . S
H1154 C1147 0.961 . S
H1155 C1147 0.960 . S
H1156 C1148 0.930 . S
H1157 C1149 0.929 . S
H1158 C1166 0.929 . S
H1159 C1168 0.930 . S
H1160 C1170 0.930 . S
H1161 C1173 0.929 . S
H1162 C1176 0.930 . S
H1163 C1178 0.960 1_556 S
H1164 C1178 0.960 . S
H1165 C1178 0.960 . S
C1166 H1158 0.929 . S
C1166 C1167 1.377 . S
C1166 C1168 1.384 . S
C1167 C1166 1.377 . S
C1167 C1173 1.390 . S
C1168 H1159 0.930 . S
C1168 C1166 1.384 . S
C1168 C1169 1.372 . S
C1169 C1168 1.372 . S
C1169 C1170 1.400 . S
C1169 C1174 1.490 . S
C1170 H1160 0.930 . S
C1170 C1169 1.400 . S
C1170 C1173 1.386 . S
H1171 C1187 0.930 . S
H1172 C1188 0.931 . S
C1173 H1161 0.929 . S
C1173 C1167 1.390 . S
C1173 C1170 1.386 . S
C1174 C1169 1.490 . S
C1174 C1176 1.395 . S
C1174 C1177 1.403 . S
H1175 C1181 0.930 1_556 S
C1176 H1162 0.930 . S
C1176 C1174 1.395 . S
C1176 C1179 1.403 . S
C1177 C1174 1.403 . S
C1177 C1178 1.524 . S
C1177 C1181 1.400 . S
C1178 H1163 0.960 1_554 S
C1178 H1164 0.960 . S
C1178 H1165 0.960 . S
C1178 C1177 1.524 . S
C1179 C1176 1.403 . S
C1179 C1180 1.392 . S
C1179 C1183 1.495 . S
C1180 C1179 1.392 . S
C1180 C1181 1.385 . S
C1180 C1182 1.478 1_554 S
C1181 H1175 0.930 1_554 S
C1181 C1177 1.400 . S
C1181 C1180 1.385 . S
C1182 C1180 1.478 1_556 S
C1182 C1184 1.381 . S
C1182 C1188 1.383 . S
C1183 C1179 1.495 . S
C1183 H1189 0.959 . S
C1183 H1190 0.961 . S
C1183 H1191 0.960 . S
C1184 C1182 1.381 . S
C1184 C1185 1.394 . S
C1184 H1192 0.930 . S
C1185 C1184 1.394 . S
C1185 C1186 1.383 . S
C1185 H1193 0.929 . S
C1186 C1185 1.383 . S
C1186 C1187 1.377 . S
C1187 H1171 0.930 . S
C1187 C1186 1.377 . S
C1187 C1188 1.379 . S
C1188 H1172 0.931 . S
C1188 C1182 1.383 . S
C1188 C1187 1.379 . S
H1189 C1183 0.959 . S
H1190 C1183 0.961 . S
H1191 C1183 0.960 . S
H1192 C1184 0.930 . S
H1193 C1185 0.929 . S
H1194 C1202 0.929 . S
H1195 C1204 0.930 . S
H1196 C1206 0.930 . S
H1197 C1209 0.929 . S
H1198 C1212 0.930 . S
H1199 C1214 0.960 . S
H1200 C1214 0.960 . S
H1201 C1214 0.960 . S
C1202 H1194 0.929 . S
C1202 C1203 1.377 . S
C1202 C1204 1.384 . S
C1203 C1202 1.377 . S
C1203 C1209 1.390 . S
C1204 H1195 0.930 . S
C1204 C1202 1.384 . S
C1204 C1205 1.372 . S
C1205 C1204 1.372 . S
C1205 C1206 1.400 . S
C1205 C1210 1.490 . S
C1206 H1196 0.930 . S
C1206 C1205 1.400 . S
C1206 C1209 1.386 . S
H1207 C1223 0.930 . S
H1208 C1224 0.931 . S
C1209 H1197 0.929 . S
C1209 C1203 1.390 . S
C1209 C1206 1.386 . S
C1210 C1205 1.490 . S
C1210 C1212 1.395 . S
C1210 C1213 1.403 . S
H1211 C1217 0.930 . S
C1212 H1198 0.930 . S
C1212 C1210 1.395 . S
C1212 C1215 1.403 . S
C1213 C1210 1.403 . S
C1213 C1214 1.524 . S
C1213 C1217 1.400 . S
C1214 H1199 0.960 . S
C1214 H1200 0.960 . S
C1214 H1201 0.960 . S
C1214 C1213 1.524 . S
C1215 C1212 1.403 . S
C1215 C1216 1.392 . S
C1215 C1219 1.495 . S
C1216 C1215 1.392 . S
C1216 C1217 1.385 . S
C1216 C1218 1.478 . S
C1217 H1211 0.930 . S
C1217 C1213 1.400 . S
C1217 C1216 1.385 . S
C1218 C1216 1.478 . S
C1218 C1220 1.381 . S
C1218 C1224 1.383 . S
C1219 C1215 1.495 . S
C1219 H1225 0.959 . S
C1219 H1226 0.961 . S
C1219 H1227 0.960 . S
C1220 C1218 1.381 . S
C1220 C1221 1.394 . S
C1220 H1228 0.930 . S
C1221 C1220 1.394 . S
C1221 C1222 1.383 . S
C1221 H1229 0.929 . S
C1222 C1221 1.383 . S
C1222 C1223 1.377 . S
C1223 H1207 0.930 . S
C1223 C1222 1.377 . S
C1223 C1224 1.379 . S
C1224 H1208 0.931 . S
C1224 C1218 1.383 . S
C1224 C1223 1.379 . S
H1225 C1219 0.959 . S
H1226 C1219 0.961 . S
H1227 C1219 0.960 . S
H1228 C1220 0.930 . S
H1229 C1221 0.929 . S
C394 C358 1.596 . S
C375 C45 1.598 . S
C411 C84 1.601 . S
C430 C293 1.599 . S
C447 C126 1.583 . S
C466 C311 1.592 . S
C483 C189 1.587 . S
C502 C324 1.586 . S
C538 C332 1.600 . S
C519 C228 1.603 . S
C555 C270 1.583 . S
C574 C344 1.596 . S
C591 C69 1.595 . S
C610 C306 1.600 . S
C627 C141 1.597 . S
C646 C319 1.594 . S
C663 C174 1.581 . S
C682 C337 1.592 . S
C718 C343 1.600 . S
C699 C213 1.599 . S
C754 C363 1.580 . S
C735 C285 1.585 . S
C790 C298 1.593 . S
C771 C30 1.583 . S
C807 C36 1.611 . S
C826 C304 1.610 . S
C843 C93 1.617 . S
C862 C317 1.615 . S
C898 C331 1.613 . S
C879 C117 1.604 . S
C915 C180 1.620 . S
C934 C345 1.620 . S
C970 C357 1.601 . S
C951 C237 1.607 . S
C1006 C292 1.610 . S
C987 C261 1.601 . S
C1042 C356 1.614 . S
C1023 C78 1.595 . S
C1059 C132 1.612 . S
C1078 C291 1.611 . S
C1114 C305 1.609 . S
C1095 C165 1.600 . S
C1131 C222 1.584 . S
C1150 C318 1.606 . S
C1167 C276 1.618 . S
C1186 C330 1.619 . S
C1203 C21 1.599 . S
C1222 C350 1.607 . S
