# Generated by pormake.
# Topology zzz, (3,6)-cn, num edge types: 1
# Building blocks:
#     Node 0, Type 0, BuildingBlock: BELTOD_clean_linker_0, # of connection points: 3
#     Node 1, Type 0, BuildingBlock: BELTOD_clean_linker_0, # of connection points: 3
#     Node 2, Type 0, BuildingBlock: BELTOD_clean_linker_0, # of connection points: 3
#     Node 3, Type 0, BuildingBlock: BELTOD_clean_linker_0, # of connection points: 3
#     Node 4, Type 0, BuildingBlock: BELTOD_clean_linker_0, # of connection points: 3
#     Node 5, Type 0, BuildingBlock: BELTOD_clean_linker_0, # of connection points: 3
#     Node 6, Type 0, BuildingBlock: BELTOD_clean_linker_0, # of connection points: 3
#     Node 7, Type 0, BuildingBlock: BELTOD_clean_linker_0, # of connection points: 3
#     Node 8, Type 1, BuildingBlock: FUNLAD_clean_sbu_0, # of connection points: 6
#     Node 9, Type 1, BuildingBlock: FUNLAD_clean_sbu_0, # of connection points: 6
#     Node 10, Type 1, BuildingBlock: FUNLAD_clean_sbu_0, # of connection points: 6
#     Node 11, Type 1, BuildingBlock: FUNLAD_clean_sbu_0, # of connection points: 6
#     Edge 12, Type (0, 1), BuildingBlock: OJICUG_clean_linker_0, # of connection points: 2
#     Edge 13, Type (0, 1), BuildingBlock: OJICUG_clean_linker_0, # of connection points: 2
#     Edge 14, Type (0, 1), BuildingBlock: OJICUG_clean_linker_0, # of connection points: 2
#     Edge 15, Type (0, 1), BuildingBlock: OJICUG_clean_linker_0, # of connection points: 2
#     Edge 16, Type (0, 1), BuildingBlock: OJICUG_clean_linker_0, # of connection points: 2
#     Edge 17, Type (0, 1), BuildingBlock: OJICUG_clean_linker_0, # of connection points: 2
#     Edge 18, Type (0, 1), BuildingBlock: OJICUG_clean_linker_0, # of connection points: 2
#     Edge 19, Type (0, 1), BuildingBlock: OJICUG_clean_linker_0, # of connection points: 2
#     Edge 20, Type (0, 1), BuildingBlock: OJICUG_clean_linker_0, # of connection points: 2
#     Edge 21, Type (0, 1), BuildingBlock: OJICUG_clean_linker_0, # of connection points: 2
#     Edge 22, Type (0, 1), BuildingBlock: OJICUG_clean_linker_0, # of connection points: 2
#     Edge 23, Type (0, 1), BuildingBlock: OJICUG_clean_linker_0, # of connection points: 2
#     Edge 24, Type (0, 1), BuildingBlock: OJICUG_clean_linker_0, # of connection points: 2
#     Edge 25, Type (0, 1), BuildingBlock: OJICUG_clean_linker_0, # of connection points: 2
#     Edge 26, Type (0, 1), BuildingBlock: OJICUG_clean_linker_0, # of connection points: 2
#     Edge 27, Type (0, 1), BuildingBlock: OJICUG_clean_linker_0, # of connection points: 2
#     Edge 28, Type (0, 1), BuildingBlock: OJICUG_clean_linker_0, # of connection points: 2
#     Edge 29, Type (0, 1), BuildingBlock: OJICUG_clean_linker_0, # of connection points: 2
#     Edge 30, Type (0, 1), BuildingBlock: OJICUG_clean_linker_0, # of connection points: 2
#     Edge 31, Type (0, 1), BuildingBlock: OJICUG_clean_linker_0, # of connection points: 2
#     Edge 32, Type (0, 1), BuildingBlock: OJICUG_clean_linker_0, # of connection points: 2
#     Edge 33, Type (0, 1), BuildingBlock: OJICUG_clean_linker_0, # of connection points: 2
#     Edge 34, Type (0, 1), BuildingBlock: OJICUG_clean_linker_0, # of connection points: 2
#     Edge 35, Type (0, 1), BuildingBlock: OJICUG_clean_linker_0, # of connection points: 2
# Relax obj value: 0.239
# Max RMSD: 0.227
# Mean RMSD: 0.183
data_MOF--net-zzz--node1-FUNLAD_clean_sbu_0--node2-BELTOD_clean_linker_0--edge1-OJICUG_clean_linker_0
_symmetry_space_group_name_H-M    P1
_symmetry_Int_Tables_number       1
_symmetry_cell_setting            triclinic
loop_
_symmetry_equiv_pos_as_xyz
'x, y, z'
_cell_length_a     41.971494
_cell_length_b     46.919569
_cell_length_c     16.158491
_cell_angle_alpha  85.405221
_cell_angle_beta   85.602353
_cell_angle_gamma 92.154391
loop_
_atom_site_label
_atom_site_type_symbol
_atom_site_fract_x
_atom_site_fract_y
_atom_site_fract_z
_atom_type_partial_charge
P0 P 0.79051 0.38711 0.32118 0.0
H1 H 0.77915 0.37978 0.5034 0.0
H2 H 0.80591 0.40248 0.61205 0.0
H3 H 0.85235 0.46478 0.42601 0.0
H4 H 0.82643 0.44181 0.31831 0.0
H5 H 0.73691 0.36206 0.24304 0.0
H6 H 0.70066 0.38196 0.14433 0.0
H7 H 0.74398 0.46624 0.15858 0.0
H8 H 0.78018 0.44628 0.25597 0.0
H9 H 0.8576 0.38331 0.35805 0.0
H10 H 0.80348 0.38203 0.14148 0.0
O11 O 0.77734 0.35468 0.36254 0.0
H12 H 0.90731 0.38942 0.26766 0.0
H13 H 0.85318 0.38707 0.05159 0.0
C14 C 0.80065 0.40911 0.40263 0.0
C15 C 0.79416 0.39894 0.48637 0.0
C16 C 0.80948 0.4119 0.54842 0.0
C17 C 0.83136 0.43529 0.52736 0.0
C18 C 0.83527 0.4471 0.44444 0.0
C19 C 0.82021 0.434 0.38256 0.0
C20 C 0.7609 0.4027 0.25856 0.0
C21 C 0.73823 0.3849 0.22612 0.0
C22 C 0.7176 0.39628 0.16941 0.0
C23 C 0.71953 0.42568 0.14349 0.0
C24 C 0.74218 0.44346 0.17649 0.0
C25 C 0.76271 0.43205 0.23326 0.0
C26 C 0.82676 0.38355 0.25632 0.0
C27 C 0.85637 0.3838 0.29126 0.0
C28 C 0.88477 0.3871 0.23986 0.0
C29 C 0.88388 0.38901 0.15303 0.0
C30 C 0.8544 0.38563 0.11853 0.0
C31 C 0.82597 0.38297 0.16991 0.0
P32 P 0.02479 0.76506 0.19988 0.0
H33 H 0.02185 0.77017 0.37917 0.0
H34 H 0.99194 0.80225 0.46263 0.0
H35 H 0.93114 0.81992 0.262 0.0
H36 H 0.96214 0.78816 0.17753 0.0
H37 H 0.06171 0.73012 0.09356 0.0
H38 H 0.04862 0.68786 0.02226 0.0
H39 H 0.95017 0.68944 0.12151 0.0
H40 H 0.96344 0.73221 0.19208 0.0
H41 H 0.0481 0.82262 0.22043 0.0
H42 H 0.01927 0.77515 0.01873 0.0
O43 O 0.05757 0.75808 0.24885 0.0
H44 H 0.04969 0.86687 0.13031 0.0
H45 H 0.02278 0.81893 0.92669 0.0
C46 C 0.99438 0.77695 0.27199 0.0
C47 C 1.00128 0.77995 0.35425 0.0
C48 C 0.98396 0.79838 0.40221 0.0
C49 C 0.95944 0.81417 0.36846 0.0
C50 C 0.95026 0.80851 0.28926 0.0
C51 C 0.9677 0.79006 0.24128 0.0
C52 C 0.01368 0.734 0.14884 0.0
C53 C 0.03731 0.72135 0.1001 0.0
C54 C 0.02979 0.69722 0.05943 0.0
C55 C 0.99842 0.68519 0.067 0.0
C56 C 0.9745 0.69836 0.11426 0.0
C57 C 0.98211 0.72266 0.15507 0.0
C58 C 0.03372 0.79559 0.12635 0.0
C59 C 0.04319 0.82162 0.15584 0.0
C60 C 0.04417 0.84693 0.10401 0.0
C61 C 0.03605 0.8466 0.02122 0.0
C62 C 0.02847 0.82012 0.9906 0.0
C63 C 0.02692 0.79488 0.04301 0.0
P64 P 0.74448 0.05729 0.16273 0.0
H65 H 0.74449 0.06341 0.34134 0.0
H66 H 0.7054 0.04599 0.45537 0.0
H67 H 0.66385 0.98726 0.297 0.0
H68 H 0.70359 0.00429 0.18348 0.0
H69 H 0.80141 0.08924 0.08844 0.0
H70 H 0.85001 0.07585 0.01208 0.0
H71 H 0.81785 0.98692 0.0492 0.0
H72 H 0.76886 0.00058 0.12782 0.0
H73 H 0.68812 0.09117 0.15156 0.0
H74 H 0.73307 0.02563 0.01707 0.0
O75 O 0.75092 0.0904 0.19065 0.0
H76 H 0.64127 0.08701 0.07104 0.0
H77 H 0.68648 0.02138 0.9371 0.0
C78 C 0.72648 0.03573 0.25311 0.0
C79 C 0.72784 0.046 0.33187 0.0
C80 C 0.70527 0.03616 0.39697 0.0
C81 C 0.68091 0.01588 0.38435 0.0
C82 C 0.68215 0.00302 0.30859 0.0
C83 C 0.70491 0.01282 0.24346 0.0
C84 C 0.78173 0.04587 0.11538 0.0
C85 C 0.80494 0.06677 0.08192 0.0
C86 C 0.83277 0.0591 0.03791 0.0
C87 C 0.83786 0.03032 0.0249 0.0
C88 C 0.81453 0.00928 0.05817 0.0
C89 C 0.78672 0.017 0.10363 0.0
C90 C 0.71432 0.05905 0.08948 0.0
C91 C 0.68835 0.07653 0.10302 0.0
C92 C 0.66156 0.07408 0.05731 0.0
C93 C 0.66022 0.05371 0.99851 0.0
C94 C 0.68682 0.03706 0.98276 0.0
C95 C 0.71363 0.03968 0.02795 0.0
P96 P 0.49387 0.70573 0.2542 0.0
H97 H 0.4992 0.70192 0.4343 0.0
H98 H 0.53002 0.67023 0.52067 0.0
H99 H 0.58701 0.64939 0.30141 0.0
H100 H 0.5558 0.68117 0.21501 0.0
H101 H 0.45239 0.7481 0.18793 0.0
H102 H 0.46213 0.79088 0.09186 0.0
H103 H 0.56393 0.78041 0.09156 0.0
H104 H 0.55395 0.73722 0.18798 0.0
H105 H 0.48319 0.64404 0.28131 0.0
H106 H 0.49144 0.70754 0.07109 0.0
O107 O 0.45998 0.70752 0.31436 0.0
H108 H 0.48231 0.60605 0.18595 0.0
H109 H 0.49018 0.66976 0.97637 0.0
C110 C 0.52477 0.69343 0.31814 0.0
C111 C 0.51917 0.69152 0.40502 0.0
C112 C 0.53701 0.67341 0.45455 0.0
C113 C 0.5606 0.65684 0.4177 0.0
C114 C 0.56871 0.66158 0.33146 0.0
C115 C 0.55098 0.67987 0.28206 0.0
C116 C 0.50245 0.73986 0.19644 0.0
C117 C 0.47685 0.75529 0.16861 0.0
C118 C 0.48241 0.77949 0.11276 0.0
C119 C 0.51376 0.78877 0.08368 0.0
C120 C 0.53953 0.77372 0.11327 0.0
C121 C 0.53387 0.74918 0.16864 0.0
C122 C 0.48777 0.67861 0.18354 0.0
C123 C 0.48427 0.64983 0.21486 0.0
C124 C 0.48386 0.62818 0.16049 0.0
C125 C 0.48637 0.63505 0.07395 0.0
C126 C 0.488 0.66393 0.04287 0.0
C127 C 0.48886 0.68556 0.09725 0.0
P128 P 0.21476 0.50313 0.22287 0.0
H129 H 0.22867 0.46894 0.08132 0.0
H130 H 0.19992 0.46644 0.9568 0.0
H131 H 0.15729 0.54673 0.00464 0.0
H132 H 0.18846 0.55019 0.1231 0.0
H133 H 0.21994 0.52788 0.38131 0.0
H134 H 0.26575 0.54197 0.45262 0.0
H135 H 0.32781 0.53092 0.23278 0.0
H136 H 0.28099 0.51816 0.15898 0.0
H137 H 0.15953 0.46571 0.28194 0.0
H138 H 0.18562 0.55573 0.27401 0.0
O139 O 0.22169 0.4686 0.24383 0.0
H140 H 0.10837 0.47395 0.35496 0.0
H141 H 0.1338 0.56439 0.34611 0.0
C142 C 0.20955 0.50914 0.11357 0.0
C143 C 0.21433 0.48667 0.06252 0.0
C144 C 0.1973 0.48502 0.99193 0.0
C145 C 0.17461 0.50544 0.97292 0.0
C146 C 0.17394 0.53017 0.01712 0.0
C147 C 0.19178 0.53218 0.08601 0.0
C148 C 0.24679 0.52276 0.26356 0.0
C149 C 0.243 0.52998 0.3462 0.0
C150 C 0.26943 0.53757 0.38785 0.0
C151 C 0.3004 0.53709 0.34882 0.0
C152 C 0.30417 0.53168 0.26426 0.0
C153 C 0.27745 0.52444 0.22198 0.0
C154 C 0.17674 0.50993 0.27518 0.0
C155 C 0.15418 0.48731 0.29577 0.0
C156 C 0.12465 0.49218 0.3363 0.0
C157 C 0.11693 0.51992 0.35609 0.0
C158 C 0.13914 0.5428 0.33225 0.0
C159 C 0.16874 0.53784 0.29142 0.0
P160 P 0.15781 0.20307 0.34741 0.0
H161 H 0.19714 0.17317 0.22868 0.0
H162 H 0.18028 0.1474 0.11357 0.0
H163 H 0.09336 0.19387 0.11529 0.0
H164 H 0.10923 0.21797 0.23369 0.0
H165 H 0.16204 0.22497 0.50746 0.0
H166 H 0.14068 0.26699 0.56724 0.0
H167 H 0.11476 0.29916 0.32435 0.0
H168 H 0.1382 0.25793 0.26416 0.0
H169 H 0.15317 0.14113 0.38126 0.0
H170 H 0.09177 0.2119 0.41174 0.0
O171 O 0.19296 0.19246 0.37739 0.0
H172 H 0.10829 0.1076 0.4296 0.0
H173 H 0.04702 0.17854 0.46067 0.0
C174 C 0.15477 0.19795 0.23936 0.0
C175 C 0.17522 0.17893 0.20166 0.0
C176 C 0.16547 0.16405 0.13576 0.0
C177 C 0.13512 0.16811 0.10677 0.0
C178 C 0.11662 0.18989 0.1375 0.0
C179 C 0.12612 0.20435 0.20412 0.0
C180 C 0.15104 0.23799 0.38183 0.0
C181 C 0.15267 0.24152 0.46661 0.0
C182 C 0.13999 0.26535 0.50092 0.0
C183 C 0.12505 0.28597 0.45108 0.0
C184 C 0.12585 0.28356 0.36467 0.0
C185 C 0.13894 0.25976 0.3302 0.0
C186 C 0.12621 0.17901 0.39601 0.0
C187 C 0.13022 0.14946 0.39987 0.0
C188 C 0.10442 0.13035 0.42589 0.0
C189 C 0.0741 0.14052 0.44825 0.0
C190 C 0.07014 0.17015 0.44417 0.0
C191 C 0.09588 0.18922 0.41726 0.0
P192 P 0.27911 0.03785 0.26287 0.0
H193 H 0.28281 0.06408 0.09141 0.0
H194 H 0.32059 0.05624 0.97429 0.0
H195 H 0.34555 0.97672 0.10264 0.0
H196 H 0.30609 0.98376 0.21597 0.0
H197 H 0.23696 0.06758 0.37149 0.0
H198 H 0.18755 0.05408 0.45535 0.0
H199 H 0.18573 0.97144 0.35537 0.0
H200 H 0.23594 0.9855 0.26912 0.0
H201 H 0.34011 0.06456 0.29266 0.0
H202 H 0.28531 0.98675 0.37786 0.0
O203 O 0.28128 0.07357 0.2497 0.0
H204 H 0.38501 0.04751 0.36592 0.0
H205 H 0.3309 0.96877 0.44876 0.0
C206 C 0.29227 0.02498 0.16399 0.0
C207 C 0.29536 0.04432 0.09277 0.0
C208 C 0.31759 0.04006 0.02629 0.0
C209 C 0.33747 0.01652 0.03026 0.0
C210 C 0.33116 0.99533 0.09702 0.0
C211 C 0.30842 -0.00064 0.1626 0.0
C212 C 0.23992 0.02776 0.31282 0.0
C213 C 0.22579 0.04672 0.3659 0.0
C214 C 0.19762 0.03883 0.41483 0.0
C215 C 0.18292 0.01154 0.41296 0.0
C216 C 0.19651 0.99265 0.35793 0.0
C217 C 0.22508 0.00065 0.30857 0.0
C218 C 0.30914 0.02723 0.33127 0.0
C219 C 0.33756 0.04395 0.32833 0.0
C220 C 0.36351 0.03384 0.36891 0.0
C221 C 0.36187 0.00643 0.41182 0.0
C222 C 0.33297 0.98997 0.41653 0.0
C223 C 0.3068 0.00032 0.37648 0.0
P224 P 0.42645 0.3245 0.31214 0.0
H225 H 0.38684 0.36371 0.22061 0.0
H226 H 0.39944 0.39428 0.09242 0.0
H227 H 0.48274 0.34566 0.03717 0.0
H228 H 0.47065 0.31593 0.16704 0.0
H229 H 0.38735 0.27266 0.36845 0.0
H230 H 0.40134 0.22453 0.4168 0.0
H231 H 0.50103 0.247 0.34474 0.0
H232 H 0.48666 0.2947 0.29402 0.0
H233 H 0.44097 0.38604 0.29197 0.0
H234 H 0.47129 0.31371 0.44376 0.0
O235 O 0.38988 0.32868 0.35659 0.0
H236 H 0.47713 0.41739 0.35534 0.0
H237 H 0.50972 0.34467 0.50273 0.0
C238 C 0.4279 0.33758 0.20395 0.0
C239 C 0.40711 0.35886 0.17936 0.0
C240 C 0.41438 0.37643 0.10578 0.0
C241 C 0.44255 0.37288 0.05548 0.0
C242 C 0.4613 0.34944 0.07572 0.0
C243 C 0.45421 0.33214 0.14978 0.0
C244 C 0.436 0.28742 0.32866 0.0
C245 C 0.41214 0.26705 0.36136 0.0
C246 C 0.42023 0.23957 0.38984 0.0
C247 C 0.45242 0.23203 0.38658 0.0
C248 C 0.47599 0.25193 0.34805 0.0
C249 C 0.46779 0.2793 0.31873 0.0
C250 C 0.45412 0.3472 0.36018 0.0
C251 C 0.45609 0.37665 0.33709 0.0
C252 C 0.47727 0.39465 0.37301 0.0
C253 C 0.49724 0.38364 0.43294 0.0
C254 C 0.49493 0.35405 0.45667 0.0
C255 C 0.47314 0.33613 0.42184 0.0
C256 C 0.0204 0.95349 0.82758 0.0
N257 N 0.97297 0.9636 0.6103 0.0
C258 C 0.98299 0.96246 0.52867 0.0
C259 C 0.9721 0.94007 0.48473 0.0
C260 C 0.95045 0.91879 0.52501 0.0
C261 C 0.93844 0.92204 0.6071 0.0
C262 C 0.95031 0.94451 0.649 0.0
Zn263 Zn 0.99662 0.9899 0.68222 0.0
C264 C 0.95314 0.00869 0.82185 0.0
N265 N 0.04616 0.03982 0.8432 0.0
C266 C 0.07649 0.03563 0.86451 0.0
C267 C 0.03056 0.06354 0.86303 0.0
C268 C 0.0454 0.08427 0.9054 0.0
C269 C 0.07672 0.08073 0.92773 0.0
C270 C 0.09239 0.05603 0.90696 0.0
Zn271 Zn 0.02321 0.01329 0.77106 0.0
O272 O 0.00401 0.95357 0.76457 0.0
C273 C 0.06712 0.99547 0.63249 0.0
O274 O 0.03287 0.97684 0.84719 0.0
H275 H 0.00673 0.06682 0.84418 0.0
H276 H 1.00099 0.97785 0.49904 0.0
H277 H 0.08853 0.01672 0.84744 0.0
O278 O 0.04133 0.98383 0.61188 0.0
O279 O 0.06624 0.00919 0.69722 0.0
H280 H 0.94279 0.9456 0.71412 0.0
O281 O 0.01402 0.04941 0.69329 0.0
O282 O 0.99081 0.02648 0.59952 0.0
O283 O 0.97998 0.01717 0.84429 0.0
O284 O 0.95233 0.99687 0.75378 0.0
C285 C 0.00166 0.04975 0.62407 0.0
H286 H 0.98239 0.93844 0.42188 0.0
H287 H 0.92131 0.90653 0.64025 0.0
H288 H 0.03266 0.10321 0.91908 0.0
H289 H 0.1165 0.05248 0.92372 0.0
C290 C 0.46967 0.991 0.59602 0.0
N291 N 0.50231 0.07323 0.63538 0.0
C292 C 0.5046 0.07674 0.55067 0.0
C293 C 0.49808 0.10285 0.50948 0.0
C294 C 0.48929 0.12582 0.55565 0.0
C295 C 0.4881 0.12189 0.64315 0.0
C296 C 0.49462 0.09525 0.68193 0.0
Zn297 Zn 0.50758 0.03296 0.68944 0.0
C298 C 0.45535 0.01408 0.81679 0.0
N299 N 0.51631 0.94645 0.78367 0.0
C300 C 0.5199 0.92302 0.73986 0.0
C301 C 0.5157 0.94426 0.86829 0.0
C302 C 0.51896 0.91794 0.91221 0.0
C303 C 0.52242 0.89336 0.86909 0.0
C304 C 0.52277 0.89601 0.78172 0.0
Zn305 Zn 0.51127 0.98669 0.72847 0.0
O306 O 0.4784 0.01685 0.60237 0.0
C307 C 0.56334 0.00611 0.60051 0.0
O308 O 0.47977 0.97119 0.64419 0.0
H309 H 0.51235 0.96298 0.90227 0.0
H310 H 0.51063 0.05896 0.51468 0.0
H311 H 0.5203 0.92525 0.67263 0.0
O312 O 0.54882 0.02909 0.60926 0.0
O313 O 0.55233 0.98304 0.64153 0.0
H314 H 0.49292 0.09198 0.74918 0.0
O315 O 0.54268 0.00314 0.81196 0.0
O316 O 0.53713 0.04867 0.77655 0.0
O317 O 0.47016 0.991 0.81304 0.0
O318 O 0.46616 0.03629 0.7716 0.0
C319 C 0.54991 0.02924 0.82039 0.0
H320 H 0.49888 0.10464 0.44212 0.0
H321 H 0.48194 0.13911 0.68136 0.0
H322 H 0.51788 0.91673 0.97962 0.0
H323 H 0.52532 0.87746 0.74636 0.0
C324 C 0.54062 0.47198 0.61483 0.0
N325 N 0.46294 0.52406 0.63517 0.0
C326 C 0.4668 0.52665 0.55045 0.0
C327 C 0.44069 0.53152 0.50366 0.0
C328 C 0.41027 0.53391 0.54433 0.0
C329 C 0.40714 0.53194 0.63196 0.0
C330 C 0.4339 0.52686 0.67637 0.0
Zn331 Zn 0.50198 0.51553 0.69898 0.0
C332 C 0.49275 0.46809 0.82637 0.0
N333 N 0.58697 0.49827 0.81832 0.0
C334 C 0.6159 0.49185 0.78215 0.0
C335 C 0.58074 0.49535 0.90255 0.0
C336 C 0.6034 0.48466 0.9537 0.0
C337 C 0.63289 0.47663 0.9183 0.0
C338 C 0.63947 0.48101 0.83145 0.0
Zn339 Zn 0.54862 0.5078 0.75191 0.0
O340 O 0.51495 0.48537 0.61572 0.0
C341 C 0.55788 0.55466 0.62344 0.0
O342 O 0.56107 0.47688 0.66656 0.0
H343 H 0.55754 0.50015 0.93044 0.0
H344 H 0.49013 0.52449 0.51885 0.0
H345 H 0.62025 0.49407 0.71504 0.0
O346 O 0.52838 0.54779 0.62214 0.0
O347 O 0.57469 0.54128 0.67475 0.0
H348 H 0.43144 0.52489 0.74372 0.0
O349 O 0.53493 0.53812 0.83711 0.0
O350 O 0.48921 0.54581 0.78383 0.0
O351 O 0.52226 0.47495 0.82686 0.0
O352 O 0.47591 0.48237 0.7772 0.0
C353 C 0.50878 0.5509 0.83749 0.0
H354 H 0.44421 0.53247 0.43639 0.0
H355 H 0.38422 0.53406 0.66595 0.0
H356 H 0.59758 0.48212 0.02044 0.0
H357 H 0.66196 0.475 0.80181 0.0
C358 C 0.02147 0.50326 0.6149 0.0
N359 N 0.02285 0.41607 0.68548 0.0
C360 C 0.01932 0.41333 0.60342 0.0
C361 C 0.0343 0.39161 0.56309 0.0
C362 C 0.05273 0.37243 0.608 0.0
C363 C 0.0549 0.37508 0.69331 0.0
C364 C 0.03982 0.39724 0.7309 0.0
Zn365 Zn 0.00724 0.45142 0.73892 0.0
C366 C 0.05884 0.48052 0.81791 0.0
N367 N 0.97862 0.52893 0.83768 0.0
C368 C 0.96954 0.55311 0.79501 0.0
C369 C 0.98416 0.52867 0.91962 0.0
C370 C 0.98226 0.5535 0.96067 0.0
C371 C 0.97546 0.57925 0.91685 0.0
C372 C 0.9678 0.57876 0.83377 0.0
Zn373 Zn 0.9915 0.49306 0.78124 0.0
O374 O 0.02289 0.47638 0.62896 0.0
C375 C 0.94029 0.46409 0.70094 0.0
O376 O 0.00933 0.51794 0.67098 0.0
H377 H 0.9921 0.50962 0.95246 0.0
H378 H 0.00573 0.42855 0.56846 0.0
H379 H 0.96545 0.55293 0.72978 0.0
O380 O 0.96181 0.44579 0.69564 0.0
O381 O 0.94603 0.4875 0.73301 0.0
H382 H 0.04265 0.40002 0.79576 0.0
O383 O 0.97379 0.46689 0.89112 0.0
O384 O 0.99078 0.4266 0.84782 0.0
O385 O 0.03719 0.49844 0.82634 0.0
O386 O 0.05287 0.45762 0.78416 0.0
C387 C 0.97625 0.43998 0.90331 0.0
H388 H 0.03178 0.39002 0.49738 0.0
H389 H 0.06913 0.36085 0.72992 0.0
H390 H 0.98781 0.55283 0.02517 0.0
H391 H 0.96255 0.59824 0.79774 0.0
C392 C 0.15392 0.00994 0.55445 0.0
C393 C 0.15422 0.00322 0.47116 0.0
H394 H 0.12654 0.01248 0.67036 0.0
C395 C 0.1263 0.99086 0.44356 0.0
H396 H 0.1752 0.01897 0.57816 0.0
C397 C 0.09815 0.98699 0.49698 0.0
C398 C 0.09751 0.99535 0.5789 0.0
H399 H 0.12581 0.98549 0.37971 0.0
H400 H 0.0766 0.97862 0.47303 0.0
C401 C 0.12599 0.00612 0.60748 0.0
C402 C 0.48693 0.18924 0.39442 0.0
C403 C 0.46155 0.20445 0.42847 0.0
H404 H 0.51613 0.15306 0.40849 0.0
C405 C 0.44569 0.19373 0.50515 0.0
H406 H 0.49957 0.19674 0.3353 0.0
C407 C 0.45481 0.16841 0.54646 0.0
C408 C 0.48023 0.15323 0.5126 0.0
H409 H 0.42644 0.20511 0.5342 0.0
H410 H 0.44161 0.16058 0.60454 0.0
C411 C 0.49622 0.164 0.43609 0.0
C412 C 0.35669 0.55368 0.37084 0.0
C413 C 0.32826 0.5381 0.39977 0.0
H414 H 0.40475 0.56533 0.39497 0.0
C415 C 0.32679 0.52198 0.47726 0.0
H416 H 0.35843 0.56634 0.31146 0.0
C417 C 0.35315 0.52119 0.52453 0.0
C418 C 0.38173 0.53654 0.49573 0.0
H419 H 0.3055 0.50914 0.5004 0.0
H420 H 0.35139 0.50772 0.58248 0.0
C421 C 0.38316 0.55302 0.41859 0.0
C422 C 0.10651 0.33641 0.45224 0.0
C423 C 0.1066 0.30842 0.49042 0.0
H424 H 0.08939 0.37868 0.45976 0.0
C425 C 0.08805 0.30156 0.56618 0.0
H426 H 0.12067 0.34244 0.39418 0.0
C427 C 0.07035 0.32226 0.60371 0.0
C428 C 0.0705 0.35026 0.56604 0.0
H429 H 0.08681 0.28003 0.5962 0.0
H430 H 0.05629 0.31629 0.66198 0.0
C431 C 0.08857 0.35713 0.48965 0.0
C432 C 0.86606 0.00507 0.91005 0.0
C433 C 0.86741 0.02287 0.97585 0.0
H434 H 0.89201 0.98685 0.80868 0.0
C435 C 0.89716 0.03512 0.99167 0.0
H436 H 0.84341 0.99552 0.89603 0.0
C437 C 0.92481 0.03016 0.94217 0.0
C438 C 0.92349 0.013 0.8749 0.0
H439 H 0.89902 0.04874 0.04231 0.0
H440 H 0.94723 0.04021 0.95606 0.0
C441 C 0.89382 0.00031 0.85968 0.0
C442 C 0.54087 0.83641 0.03616 0.0
C443 C 0.51912 0.81413 0.02265 0.0
H444 H 0.55911 0.87906 0.9974 0.0
C445 C 0.50091 0.81699 0.95317 0.0
H446 H 0.55515 0.83476 0.08926 0.0
C447 C 0.5033 0.84219 0.90037 0.0
C448 C 0.5237 0.86512 0.91662 0.0
H449 H 0.48423 0.79995 0.94081 0.0
H450 H 0.48804 0.84425 0.8493 0.0
C451 C 0.54299 0.86175 0.98389 0.0
C452 C 0.70929 0.45846 0.01831 0.0
C453 C 0.69782 0.43785 0.08291 0.0
H454 H 0.69775 0.48685 0.91514 0.0
C455 C 0.66525 0.42932 0.09039 0.0
H456 H 0.73438 0.46517 0.01033 0.0
C457 C 0.64445 0.44156 0.03581 0.0
C458 C 0.65572 0.46263 0.97243 0.0
H459 H 0.65564 0.41363 0.13969 0.0
H460 H 0.61942 0.4346 0.04354 0.0
C461 C 0.68844 0.47066 0.96334 0.0
C462 C 0.01284 0.63593 0.03643 0.0
C463 C 0.99151 0.65813 0.02911 0.0
H464 H 0.02475 0.59415 0.00563 0.0
C465 C 0.96425 0.65426 0.985 0.0
H466 H 0.03384 0.63811 0.07083 0.0
C467 C 0.95878 0.62868 0.9479 0.0
C468 C 0.98029 0.60654 0.95545 0.0
H469 H 0.9475 0.67113 0.97808 0.0
H470 H 0.93771 0.62613 0.91403 0.0
C471 C 0.00738 0.61056 -0.00011 0.0
C472 C 0.03038 0.1244 0.55725 0.0
C473 C 0.04751 0.12014 0.48149 0.0
H474 H 1.00091 0.10493 0.662 0.0
C475 C 0.04189 0.0946 0.44392 0.0
H476 H 0.03419 0.14388 0.58757 0.0
C477 C 0.02223 0.07247 0.48588 0.0
C478 C 0.00848 0.07549 0.56649 0.0
H479 H 0.05442 0.09102 0.38476 0.0
H480 H 0.0209 0.05201 0.45935 0.0
C481 C 0.01112 0.10219 0.59961 0.0
C482 C 0.4212 0.0028 0.41445 0.0
C483 C 0.39027 0.99568 0.4521 0.0
H484 H 0.47123 0.0064 0.43153 0.0
C485 C 0.38702 0.98075 0.53161 0.0
H486 H 0.42467 0.01345 0.35224 0.0
C487 C 0.41399 0.97568 0.57562 0.0
C488 C 0.44438 0.98573 0.54093 0.0
H489 H 0.3636 0.97496 0.5625 0.0
H490 H 0.41072 0.96653 0.63959 0.0
C491 C 0.44795 -0.00174 0.45898 0.0
C492 C 0.52153 0.39854 0.56142 0.0
C493 C 0.51777 0.40355 0.47566 0.0
H494 H 0.53361 0.41677 0.6729 0.0
C495 C 0.53011 0.42964 0.43396 0.0
H496 H 0.51225 0.37894 0.59624 0.0
C497 C 0.54164 0.45154 0.47875 0.0
C498 C 0.54233 0.44729 0.56531 0.0
H499 H 0.52875 0.43396 0.36753 0.0
H500 H 0.5476 0.47247 0.44677 0.0
C501 C 0.53398 0.4202 0.60567 0.0
C502 C 0.08845 0.53982 0.47919 0.0
C503 C 0.0873 0.52385 0.40925 0.0
H504 H 0.06696 0.54629 0.60058 0.0
C505 C 0.05935 0.50745 0.39949 0.0
H506 H 0.10966 0.55266 0.48853 0.0
C507 C 0.03523 0.50358 0.46402 0.0
C508 C 0.03837 0.51662 0.53821 0.0
H509 H 0.05741 0.49554 0.34523 0.0
H510 H 0.01558 0.4883 0.45907 0.0
C511 C 0.06395 0.53631 0.54331 0.0
C512 C 0.0084 0.87654 0.91539 0.0
C513 C 0.03309 0.87385 0.96928 0.0
H514 H 0.98513 0.90371 0.82855 0.0
C515 C 0.05375 0.89776 0.97584 0.0
H516 H 0.9915 0.85889 0.91014 0.0
C517 C 0.04952 0.92378 0.93043 0.0
C518 C 0.02485 0.92629 0.87667 0.0
H519 H 0.07328 0.89639 0.01585 0.0
H520 H 0.06576 0.94183 0.93676 0.0
C521 C 0.0045 0.90237 0.86915 0.0
C522 C 0.61843 0.01991 0.95653 0.0
C523 C 0.63043 0.04816 0.95798 0.0
H524 H 0.58323 0.99189 0.91383 0.0
C525 C 0.61403 0.07062 0.92016 0.0
H526 H 0.63023 0.00225 0.98681 0.0
C527 C 0.58692 0.06472 0.87796 0.0
C528 C 0.57567 0.03629 0.87382 0.0
H529 H 0.62278 0.09261 0.92085 0.0
H530 H 0.57539 0.08232 0.84661 0.0
C531 C 0.59131 0.01404 0.91526 0.0
C532 C 0.47261 0.61214 0.94552 0.0
C533 C 0.49014 0.61232 0.01614 0.0
H534 H 0.46447 0.5922 0.83375 0.0
C535 C 0.51293 0.59161 0.02892 0.0
H536 H 0.45486 0.62789 0.93451 0.0
C537 C 0.51873 0.57153 0.97108 0.0
C538 C 0.50155 0.57153 0.89981 0.0
H539 H 0.52702 0.5915 0.08239 0.0
H540 H 0.53685 0.55612 0.98199 0.0
C541 C 0.47807 0.59173 0.88814 0.0
C542 C 0.92204 0.38415 0.02884 0.0
C543 C 0.91256 0.39883 0.09827 0.0
H544 H 0.9508 0.38551 0.91318 0.0
C545 C 0.92766 0.42537 0.10877 0.0
H546 H 0.91059 0.3637 0.01961 0.0
C547 C 0.95009 0.4381 0.0474 0.0
C548 C 0.95823 0.4242 0.97551 0.0
H549 H 0.92046 0.43718 0.16154 0.0
H550 H 0.95992 0.45939 0.0543 0.0
C551 C 0.94508 0.39659 0.96835 0.0
C552 C 0.08884 0.13626 0.08012 0.0
C553 C 0.12042 0.1466 0.05721 0.0
H554 H 0.05075 0.10707 0.05855 0.0
C555 C 0.13805 0.13453 0.99224 0.0
H556 H 0.07494 0.14429 0.13184 0.0
C557 C 0.12412 0.1128 0.95049 0.0
C558 C 0.0924 0.10283 0.97316 0.0
H559 H 0.16248 0.14196 0.97357 0.0
H560 H 0.13796 0.10412 0.89976 0.0
C561 C 0.07502 0.11471 0.03859 0.0
C562 C 0.37896 0.98962 0.94905 0.0
C563 C 0.36665 0.01574 0.971 0.0
H564 H 0.41665 0.96859 0.88444 0.0
C565 C 0.38393 0.04131 0.94071 0.0
H566 H 0.3663 0.96948 0.96979 0.0
C567 C 0.41255 0.04077 0.89051 0.0
C568 C 0.42507 0.01466 0.87033 0.0
H569 H 0.37592 0.06188 0.95758 0.0
H570 H 0.42519 0.06086 0.86879 0.0
C571 C 0.40789 0.98908 0.89993 0.0
C572 C 0.48753 0.40459 0.98649 0.0
C573 C 0.455 0.3959 0.99117 0.0
H574 H 0.52461 0.43392 0.932 0.0
C575 C 0.43465 0.41103 0.93972 0.0
H576 H 0.5038 0.39403 0.02657 0.0
C577 C 0.44667 0.43448 0.88535 0.0
C578 C 0.47918 0.44325 0.88199 0.0
H579 H 0.40946 0.40487 0.94189 0.0
H580 H 0.4305 0.44583 0.84669 0.0
C581 C 0.49942 0.42784 0.93274 0.0
C582 C 0.13638 0.47027 0.91768 0.0
C583 C 0.14828 0.49876 0.91926 0.0
H584 H 0.09898 0.4422 0.8835 0.0
C585 C 0.13178 0.52079 0.87912 0.0
H586 H 0.14774 0.45257 0.94888 0.0
C587 C 0.10295 0.51475 0.8449 0.0
C588 C 0.09054 0.48648 0.84739 0.0
H589 H 0.14046 0.54288 0.87647 0.0
H590 H 0.09012 0.53227 0.81738 0.0
C591 C 0.10807 0.4642 0.88112 0.0
C592 C 0.94521 0.83956 0.49638 0.0
C593 C 0.94816 0.8397 0.40917 0.0
H594 H 0.94407 0.86432 0.60139 0.0
C595 C 0.94582 0.86581 0.36113 0.0
H596 H 0.94631 0.81977 0.53526 0.0
C597 C 0.94377 0.89146 0.39917 0.0
C598 C 0.94435 0.89161 0.48599 0.0
H599 H 0.94811 0.86685 0.29374 0.0
H600 H 0.94362 0.9113 0.3601 0.0
C601 C 0.94353 0.86522 0.53437 0.0
C602 C 0.63758 0.03659 0.47173 0.0
C603 C 0.65177 0.01215 0.4435 0.0
H604 H 0.5989 0.05378 0.54185 0.0
C605 C 0.63662 0.98514 0.46757 0.0
H606 H 0.64814 0.05777 0.45299 0.0
C607 C 0.60799 0.98276 0.5195 0.0
C608 C 0.59372 0.00743 0.54654 0.0
H609 H 0.64693 0.96593 0.44634 0.0
H610 H 0.59681 0.96176 0.5374 0.0
C611 C 0.609 0.03429 0.52206 0.0
C612 C 0.57699 0.63122 0.54994 0.0
C613 C 0.57093 0.63085 0.46551 0.0
H614 H 0.57872 0.60645 0.66714 0.0
C615 C 0.56821 0.60429 0.43131 0.0
H616 H 0.57925 0.65135 0.57792 0.0
C617 C 0.56778 0.57882 0.48229 0.0
C618 C 0.57075 0.57936 0.56792 0.0
H619 H 0.56308 0.60314 0.36695 0.0
H620 H 0.56231 0.55881 0.45611 0.0
C621 C 0.57702 0.60558 0.6008 0.0
C622 C 0.87153 0.42199 0.62717 0.0
C623 C 0.85474 0.44352 0.58631 0.0
H624 H 0.91186 0.4118 0.69506 0.0
C625 C 0.86422 0.47236 0.59176 0.0
H626 H 0.86515 0.39958 0.62315 0.0
C627 C 0.89109 0.4794 0.63361 0.0
C628 C 0.90914 0.45765 0.66888 0.0
H629 H 0.85167 0.48935 0.56066 0.0
H630 H 0.89879 0.50168 0.6341 0.0
C631 C 0.89855 0.42898 0.66749 0.0
loop_
_geom_bond_atom_site_label_1
_geom_bond_atom_site_label_2
_geom_bond_distance
_geom_bond_site_symmetry_2
_ccdc_geom_bond_type
P0 O11 1.490 . S
P0 C14 1.812 . S
P0 C20 1.803 . S
P0 C26 1.819 . S
H1 C15 0.941 . S
H2 C16 0.939 . S
H3 C18 0.940 . S
H4 C19 0.940 . S
H5 C21 0.939 . S
H6 C22 0.942 . S
H7 C24 0.940 . S
H8 C25 0.939 . S
H9 C27 0.941 . S
H10 C31 0.939 . S
O11 P0 1.490 . S
H12 C28 0.939 . S
H13 C30 0.940 . S
C14 P0 1.812 . S
C14 C15 1.389 . S
C14 C19 1.391 . S
C15 H1 0.941 . S
C15 C14 1.389 . S
C15 C16 1.397 . S
C16 H2 0.939 . S
C16 C15 1.397 . S
C16 C17 1.378 . S
C17 C16 1.378 . S
C17 C18 1.378 . S
C18 H3 0.940 . S
C18 C17 1.378 . S
C18 C19 1.396 . S
C19 H4 0.940 . S
C19 C14 1.391 . S
C19 C18 1.396 . S
C20 P0 1.803 . S
C20 C21 1.378 . S
C20 C25 1.400 . S
C21 H5 0.939 . S
C21 C20 1.378 . S
C21 C22 1.361 . S
C22 H6 0.942 . S
C22 C21 1.361 . S
C22 C23 1.369 . S
C23 C22 1.369 . S
C23 C24 1.404 . S
C24 H7 0.940 . S
C24 C23 1.404 . S
C24 C25 1.389 . S
C25 H8 0.939 . S
C25 C20 1.400 . S
C25 C24 1.389 . S
C26 P0 1.819 . S
C26 C27 1.391 . S
C26 C31 1.391 . S
C27 H9 0.941 . S
C27 C26 1.391 . S
C27 C28 1.396 . S
C28 H12 0.939 . S
C28 C27 1.396 . S
C28 C29 1.397 1_554 S
C29 C28 1.397 1_556 S
C29 C30 1.385 . S
C30 H13 0.940 . S
C30 C29 1.385 . S
C30 C31 1.388 1_556 S
C31 H10 0.939 . S
C31 C26 1.391 . S
C31 C30 1.388 1_554 S
P32 O43 1.490 1_655 S
P32 C46 1.812 1_556 S
P32 C52 1.803 . S
P32 C58 1.819 . S
H33 C47 0.941 . S
H34 C48 0.939 . S
H35 C50 0.940 . S
H36 C51 0.940 . S
H37 C53 0.939 . S
H38 C54 0.942 . S
H39 C56 0.940 1_554 S
H40 C57 0.939 . S
H41 C59 0.941 . S
H42 C63 0.939 . S
O43 P32 1.490 1_455 S
H44 C60 0.939 . S
H45 C62 0.940 . S
C46 P32 1.812 1_554 S
C46 C47 1.389 . S
C46 C51 1.391 . S
C47 H33 0.941 . S
C47 C46 1.389 . S
C47 C48 1.397 . S
C48 H34 0.939 . S
C48 C47 1.397 . S
C48 C49 1.378 . S
C49 C48 1.378 . S
C49 C50 1.378 . S
C50 H35 0.940 . S
C50 C49 1.378 . S
C50 C51 1.396 . S
C51 H36 0.940 . S
C51 C46 1.391 . S
C51 C50 1.396 . S
C52 P32 1.803 . S
C52 C53 1.378 . S
C52 C57 1.400 1_556 S
C53 H37 0.939 . S
C53 C52 1.378 . S
C53 C54 1.361 . S
C54 H38 0.942 . S
C54 C53 1.361 . S
C54 C55 1.369 . S
C55 C54 1.369 . S
C55 C56 1.404 . S
C56 H39 0.940 1_556 S
C56 C55 1.404 . S
C56 C57 1.389 1_556 S
C57 H40 0.939 . S
C57 C52 1.400 1_554 S
C57 C56 1.389 1_554 S
C58 P32 1.819 . S
C58 C59 1.391 . S
C58 C63 1.391 . S
C59 H41 0.941 . S
C59 C58 1.391 . S
C59 C60 1.396 . S
C60 H44 0.939 . S
C60 C59 1.396 . S
C60 C61 1.397 . S
C61 C60 1.397 . S
C61 C62 1.385 . S
C62 H45 0.940 . S
C62 C61 1.385 . S
C62 C63 1.388 . S
C63 H42 0.939 . S
C63 C58 1.391 . S
C63 C62 1.388 . S
P64 O75 1.490 . S
P64 C78 1.812 . S
P64 C84 1.803 . S
P64 C90 1.819 . S
H65 C79 0.941 . S
H66 C80 0.939 . S
H67 C82 0.940 . S
H68 C83 0.951 . S
H69 C85 0.939 . S
H70 C86 0.942 1_556 S
H71 C88 0.940 . S
H72 C89 0.957 . S
H73 C91 0.941 . S
H74 C95 0.928 1_565 S
O75 P64 1.490 . S
H76 C92 0.939 . S
H77 C94 0.940 . S
C78 P64 1.812 . S
C78 C79 1.389 . S
C78 C83 1.376 1_545 S
C79 H65 0.941 . S
C79 C78 1.389 . S
C79 C80 1.397 . S
C80 H66 0.939 . S
C80 C79 1.397 . S
C80 C81 1.378 . S
C81 C80 1.378 . S
C81 C82 1.378 1_545 S
C82 H67 0.940 . S
C82 C81 1.378 1_565 S
C82 C83 1.401 . S
C83 H68 0.951 . S
C83 C78 1.376 1_565 S
C83 C82 1.401 . S
C84 P64 1.803 . S
C84 C85 1.378 . S
C84 C89 1.369 1_545 S
C85 H69 0.939 . S
C85 C84 1.378 . S
C85 C86 1.361 . S
C86 H70 0.942 1_554 S
C86 C85 1.361 . S
C86 C87 1.369 . S
C87 C86 1.369 . S
C87 C88 1.404 1_545 S
C88 H71 0.940 . S
C88 C87 1.404 1_565 S
C88 C89 1.404 . S
C89 H72 0.957 . S
C89 C84 1.369 1_565 S
C89 C88 1.404 . S
C90 P64 1.819 . S
C90 C91 1.391 . S
C90 C95 1.391 1_554 S
C91 H73 0.941 . S
C91 C90 1.391 . S
C91 C92 1.396 1_554 S
C92 H76 0.939 . S
C92 C91 1.396 1_556 S
C92 C93 1.397 . S
C93 C92 1.397 . S
C93 C94 1.385 1_545 S
C94 H77 0.940 . S
C94 C93 1.385 1_565 S
C94 C95 1.388 1_565 S
C95 H74 0.928 1_545 S
C95 C90 1.391 1_556 S
C95 C94 1.388 1_545 S
P96 O107 1.490 . S
P96 C110 1.812 . S
P96 C116 1.803 . S
P96 C122 1.819 . S
H97 C111 0.941 . S
H98 C112 0.939 . S
H99 C114 0.940 . S
H100 C115 0.940 . S
H101 C117 0.939 . S
H102 C118 0.942 . S
H103 C120 0.940 . S
H104 C121 0.939 . S
H105 C123 0.941 . S
H106 C127 0.939 . S
O107 P96 1.490 . S
H108 C124 0.939 1_554 S
H109 C126 0.940 . S
C110 P96 1.812 . S
C110 C111 1.389 . S
C110 C115 1.391 . S
C111 H97 0.941 . S
C111 C110 1.389 . S
C111 C112 1.397 . S
C112 H98 0.939 . S
C112 C111 1.397 . S
C112 C113 1.378 . S
C113 C112 1.378 . S
C113 C114 1.378 . S
C114 H99 0.940 . S
C114 C113 1.378 . S
C114 C115 1.396 . S
C115 H100 0.940 . S
C115 C110 1.391 . S
C115 C114 1.396 . S
C116 P96 1.803 . S
C116 C117 1.378 . S
C116 C121 1.400 . S
C117 H101 0.939 . S
C117 C116 1.378 . S
C117 C118 1.361 . S
C118 H102 0.942 . S
C118 C117 1.361 . S
C118 C119 1.369 . S
C119 C118 1.369 . S
C119 C120 1.404 . S
C120 H103 0.940 . S
C120 C119 1.404 . S
C120 C121 1.389 . S
C121 H104 0.939 . S
C121 C116 1.400 . S
C121 C120 1.389 . S
C122 P96 1.819 . S
C122 C123 1.391 . S
C122 C127 1.391 1_554 S
C123 H105 0.941 . S
C123 C122 1.391 . S
C123 C124 1.396 1_554 S
C124 H108 0.939 1_556 S
C124 C123 1.396 1_556 S
C124 C125 1.397 . S
C125 C124 1.397 . S
C125 C126 1.385 . S
C126 H109 0.940 . S
C126 C125 1.385 . S
C126 C127 1.388 . S
C127 H106 0.939 . S
C127 C122 1.391 1_556 S
C127 C126 1.388 . S
P128 O139 1.490 . S
P128 C142 1.812 . S
P128 C148 1.803 . S
P128 C154 1.819 . S
H129 C143 0.941 . S
H130 C144 0.939 . S
H131 C146 0.940 . S
H132 C147 0.940 . S
H133 C149 0.939 . S
H134 C150 0.942 . S
H135 C152 0.940 . S
H136 C153 0.939 . S
H137 C155 0.941 . S
H138 C159 0.939 . S
O139 P128 1.490 . S
H140 C156 0.939 . S
H141 C158 0.940 . S
C142 P128 1.812 . S
C142 C143 1.389 . S
C142 C147 1.391 . S
C143 H129 0.941 . S
C143 C142 1.389 . S
C143 C144 1.397 . S
C144 H130 0.939 . S
C144 C143 1.397 . S
C144 C145 1.378 . S
C145 C144 1.378 . S
C145 C146 1.378 . S
C146 H131 0.940 . S
C146 C145 1.378 . S
C146 C147 1.396 . S
C147 H132 0.940 . S
C147 C142 1.391 . S
C147 C146 1.396 . S
C148 P128 1.803 . S
C148 C149 1.378 . S
C148 C153 1.400 . S
C149 H133 0.939 . S
C149 C148 1.378 . S
C149 C150 1.361 . S
C150 H134 0.942 . S
C150 C149 1.361 . S
C150 C151 1.369 . S
C151 C150 1.369 . S
C151 C152 1.404 . S
C152 H135 0.940 . S
C152 C151 1.404 . S
C152 C153 1.389 . S
C153 H136 0.939 . S
C153 C148 1.400 . S
C153 C152 1.389 . S
C154 P128 1.819 . S
C154 C155 1.391 . S
C154 C159 1.391 . S
C155 H137 0.941 . S
C155 C154 1.391 . S
C155 C156 1.396 . S
C156 H140 0.939 . S
C156 C155 1.396 . S
C156 C157 1.397 . S
C157 C156 1.397 . S
C157 C158 1.385 . S
C158 H141 0.940 . S
C158 C157 1.385 . S
C158 C159 1.388 . S
C159 H138 0.939 . S
C159 C154 1.391 . S
C159 C158 1.388 . S
P160 O171 1.490 . S
P160 C174 1.812 . S
P160 C180 1.803 . S
P160 C186 1.819 . S
H161 C175 0.941 . S
H162 C176 0.939 . S
H163 C178 0.940 . S
H164 C179 0.940 . S
H165 C181 0.939 . S
H166 C182 0.942 . S
H167 C184 0.940 . S
H168 C185 0.939 . S
H169 C187 0.941 . S
H170 C191 0.939 . S
O171 P160 1.490 . S
H172 C188 0.939 . S
H173 C190 0.940 . S
C174 P160 1.812 . S
C174 C175 1.389 . S
C174 C179 1.391 . S
C175 H161 0.941 . S
C175 C174 1.389 . S
C175 C176 1.397 . S
C176 H162 0.939 . S
C176 C175 1.397 . S
C176 C177 1.378 . S
C177 C176 1.378 . S
C177 C178 1.378 . S
C178 H163 0.940 . S
C178 C177 1.378 . S
C178 C179 1.396 . S
C179 H164 0.940 . S
C179 C174 1.391 . S
C179 C178 1.396 . S
C180 P160 1.803 . S
C180 C181 1.378 . S
C180 C185 1.400 . S
C181 H165 0.939 . S
C181 C180 1.378 . S
C181 C182 1.361 . S
C182 H166 0.942 . S
C182 C181 1.361 . S
C182 C183 1.369 . S
C183 C182 1.369 . S
C183 C184 1.404 . S
C184 H167 0.940 . S
C184 C183 1.404 . S
C184 C185 1.389 . S
C185 H168 0.939 . S
C185 C180 1.400 . S
C185 C184 1.389 . S
C186 P160 1.819 . S
C186 C187 1.391 . S
C186 C191 1.391 . S
C187 H169 0.941 . S
C187 C186 1.391 . S
C187 C188 1.396 . S
C188 H172 0.939 . S
C188 C187 1.396 . S
C188 C189 1.397 . S
C189 C188 1.397 . S
C189 C190 1.385 . S
C190 H173 0.940 . S
C190 C189 1.385 . S
C190 C191 1.388 . S
C191 H170 0.939 . S
C191 C186 1.391 . S
C191 C190 1.388 . S
P192 O203 1.490 . S
P192 C206 1.812 . S
P192 C212 1.803 . S
P192 C218 1.819 . S
H193 C207 0.941 . S
H194 C208 0.939 . S
H195 C210 0.940 . S
H196 C211 0.944 . S
H197 C213 0.939 . S
H198 C214 0.942 . S
H199 C216 0.940 . S
H200 C217 0.955 . S
H201 C219 0.941 . S
H202 C223 0.933 1_565 S
O203 P192 1.490 . S
H204 C220 0.939 . S
H205 C222 0.940 . S
C206 P192 1.812 . S
C206 C207 1.389 . S
C206 C211 1.383 1_545 S
C207 H193 0.941 . S
C207 C206 1.389 . S
C207 C208 1.397 . S
C208 H194 0.939 . S
C208 C207 1.397 . S
C208 C209 1.378 . S
C209 C208 1.378 . S
C209 C210 1.378 1_545 S
C210 H195 0.940 . S
C210 C209 1.378 1_565 S
C210 C211 1.400 . S
C211 H196 0.944 . S
C211 C206 1.383 1_565 S
C211 C210 1.400 . S
C212 P192 1.803 . S
C212 C213 1.378 . S
C212 C217 1.377 1_545 S
C213 H197 0.939 . S
C213 C212 1.378 . S
C213 C214 1.361 . S
C214 H198 0.942 . S
C214 C213 1.361 . S
C214 C215 1.369 . S
C215 C214 1.369 . S
C215 C216 1.404 1_545 S
C216 H199 0.940 . S
C216 C215 1.404 1_565 S
C216 C217 1.397 . S
C217 H200 0.955 . S
C217 C212 1.377 1_565 S
C217 C216 1.397 . S
C218 P192 1.819 . S
C218 C219 1.391 . S
C218 C223 1.391 . S
C219 H201 0.941 . S
C219 C218 1.391 . S
C219 C220 1.396 . S
C220 H204 0.939 . S
C220 C219 1.396 . S
C220 C221 1.397 . S
C221 C220 1.397 . S
C221 C222 1.385 1_545 S
C222 H205 0.940 . S
C222 C221 1.385 1_565 S
C222 C223 1.388 1_565 S
C223 H202 0.933 1_545 S
C223 C218 1.391 . S
C223 C222 1.388 1_545 S
P224 O235 1.490 . S
P224 C238 1.812 . S
P224 C244 1.803 . S
P224 C250 1.819 . S
H225 C239 0.941 . S
H226 C240 0.939 . S
H227 C242 0.940 . S
H228 C243 0.940 . S
H229 C245 0.939 . S
H230 C246 0.942 . S
H231 C248 0.940 . S
H232 C249 0.939 . S
H233 C251 0.941 . S
H234 C255 0.939 . S
O235 P224 1.490 . S
H236 C252 0.939 . S
H237 C254 0.940 . S
C238 P224 1.812 . S
C238 C239 1.389 . S
C238 C243 1.391 . S
C239 H225 0.941 . S
C239 C238 1.389 . S
C239 C240 1.397 . S
C240 H226 0.939 . S
C240 C239 1.397 . S
C240 C241 1.378 . S
C241 C240 1.378 . S
C241 C242 1.378 . S
C242 H227 0.940 . S
C242 C241 1.378 . S
C242 C243 1.396 . S
C243 H228 0.940 . S
C243 C238 1.391 . S
C243 C242 1.396 . S
C244 P224 1.803 . S
C244 C245 1.378 . S
C244 C249 1.400 . S
C245 H229 0.939 . S
C245 C244 1.378 . S
C245 C246 1.361 . S
C246 H230 0.942 . S
C246 C245 1.361 . S
C246 C247 1.369 . S
C247 C246 1.369 . S
C247 C248 1.404 . S
C248 H231 0.940 . S
C248 C247 1.404 . S
C248 C249 1.389 . S
C249 H232 0.939 . S
C249 C244 1.400 . S
C249 C248 1.389 . S
C250 P224 1.819 . S
C250 C251 1.391 . S
C250 C255 1.391 . S
C251 H233 0.941 . S
C251 C250 1.391 . S
C251 C252 1.396 . S
C252 H236 0.939 . S
C252 C251 1.396 . S
C252 C253 1.397 . S
C253 C252 1.397 . S
C253 C254 1.385 . S
C254 H237 0.940 . S
C254 C253 1.385 . S
C254 C255 1.388 . S
C255 H234 0.939 . S
C255 C250 1.391 . S
C255 C254 1.388 . S
C256 O272 1.251 1_455 S
C256 O274 1.254 . S
N257 C258 1.333 . S
N257 C262 1.307 . S
N257 Zn263 2.020 1_655 S
C258 N257 1.333 . S
C258 C259 1.379 . S
C258 H276 0.967 . S
C259 C258 1.379 . S
C259 C260 1.390 . S
C259 H286 0.949 . S
C260 C259 1.390 . S
C260 C261 1.357 . S
C261 C260 1.357 . S
C261 C262 1.370 . S
C261 H287 0.950 . S
C262 N257 1.307 . S
C262 C261 1.370 . S
C262 H280 0.948 1_565 S
Zn263 N257 2.020 1_455 S
Zn263 O272 2.039 1_455 S
Zn263 O278 2.034 . S
Zn263 O282 2.025 1_565 S
Zn263 O284 2.024 1_465 S
C264 O283 1.246 . S
C264 O284 1.250 . S
N265 C266 1.307 . S
N265 C267 1.333 . S
N265 Zn271 2.020 . S
C266 N265 1.307 . S
C266 C270 1.370 1_556 S
C266 H277 0.948 1_545 S
C267 N265 1.333 . S
C267 C268 1.379 . S
C267 H275 0.952 . S
C268 C267 1.379 . S
C268 C269 1.390 1_556 S
C268 H288 0.949 . S
C269 C268 1.390 1_554 S
C269 C270 1.357 . S
C270 C266 1.370 1_554 S
C270 C269 1.357 . S
C270 H289 0.950 . S
Zn271 N265 2.020 . S
Zn271 O274 2.025 1_545 S
Zn271 O279 2.024 . S
Zn271 O281 2.039 . S
Zn271 O283 2.034 1_455 S
O272 C256 1.251 1_655 S
O272 Zn263 2.039 1_655 S
C273 O278 1.246 . S
C273 O279 1.250 1_565 S
O274 C256 1.254 . S
O274 Zn271 2.025 1_565 S
H275 C267 0.952 . S
H276 C258 0.967 . S
H277 C266 0.948 1_565 S
O278 Zn263 2.034 . S
O278 C273 1.246 . S
O279 Zn271 2.024 . S
O279 C273 1.250 1_545 S
H280 C262 0.948 1_545 S
O281 Zn271 2.039 . S
O281 C285 1.251 . S
O282 Zn263 2.025 1_545 S
O282 C285 1.254 . S
O283 C264 1.246 . S
O283 Zn271 2.034 1_655 S
O284 Zn263 2.024 1_645 S
O284 C264 1.250 . S
C285 O281 1.251 . S
C285 O282 1.254 . S
H286 C259 0.949 . S
H287 C261 0.950 . S
H288 C268 0.949 . S
H289 C270 0.950 . S
C290 O306 1.251 1_565 S
C290 O308 1.254 . S
N291 C292 1.333 . S
N291 C296 1.307 . S
N291 Zn297 2.020 . S
C292 N291 1.333 . S
C292 C293 1.379 . S
C292 H310 0.952 . S
C293 C292 1.379 . S
C293 C294 1.390 . S
C293 H320 0.949 . S
C294 C293 1.390 . S
C294 C295 1.357 . S
C295 C294 1.357 . S
C295 C296 1.370 . S
C295 H321 0.950 . S
C296 N291 1.307 . S
C296 C295 1.370 . S
C296 H314 0.948 . S
Zn297 N291 2.020 . S
Zn297 O306 2.039 . S
Zn297 O312 2.034 . S
Zn297 O316 2.025 . S
Zn297 O318 2.024 . S
C298 O317 1.246 1_545 S
C298 O318 1.249 . S
N299 C300 1.307 . S
N299 C301 1.333 . S
N299 Zn305 2.020 . S
C300 N299 1.307 . S
C300 C304 1.370 . S
C300 H311 0.948 . S
C301 N299 1.333 . S
C301 C302 1.379 . S
C301 H309 0.952 . S
C302 C301 1.379 . S
C302 C303 1.390 . S
C302 H322 0.949 . S
C303 C302 1.390 . S
C303 C304 1.357 . S
C304 C300 1.370 . S
C304 C303 1.357 . S
C304 H323 0.950 . S
Zn305 N299 2.020 . S
Zn305 O308 2.025 . S
Zn305 O313 2.024 . S
Zn305 O315 2.039 . S
Zn305 O317 2.034 . S
O306 C290 1.251 1_545 S
O306 Zn297 2.039 . S
C307 O312 1.246 1_565 S
C307 O313 1.249 . S
O308 C290 1.254 . S
O308 Zn305 2.025 . S
H309 C301 0.952 . S
H310 C292 0.952 . S
H311 C300 0.948 . S
O312 Zn297 2.034 . S
O312 C307 1.246 1_545 S
O313 Zn305 2.024 . S
O313 C307 1.249 . S
H314 C296 0.948 . S
O315 Zn305 2.039 . S
O315 C319 1.251 1_565 S
O316 Zn297 2.025 . S
O316 C319 1.254 . S
O317 C298 1.246 1_565 S
O317 Zn305 2.034 . S
O318 Zn297 2.024 . S
O318 C298 1.249 . S
C319 O315 1.251 1_545 S
C319 O316 1.254 . S
H320 C293 0.949 . S
H321 C295 0.950 . S
H322 C302 0.949 . S
H323 C304 0.950 . S
C324 O340 1.251 . S
C324 O342 1.254 . S
N325 C326 1.333 . S
N325 C330 1.307 . S
N325 Zn331 2.020 . S
C326 N325 1.333 . S
C326 C327 1.379 . S
C326 H344 0.952 . S
C327 C326 1.379 . S
C327 C328 1.390 . S
C327 H354 0.949 . S
C328 C327 1.390 . S
C328 C329 1.357 . S
C329 C328 1.357 . S
C329 C330 1.370 . S
C329 H355 0.950 . S
C330 N325 1.307 . S
C330 C329 1.370 . S
C330 H348 0.948 . S
Zn331 N325 2.020 . S
Zn331 O340 2.039 . S
Zn331 O346 2.034 . S
Zn331 O350 2.025 . S
Zn331 O352 2.024 . S
C332 O351 1.246 . S
C332 O352 1.249 . S
N333 C334 1.307 . S
N333 C335 1.333 . S
N333 Zn339 2.020 . S
C334 N333 1.307 . S
C334 C338 1.370 . S
C334 H345 0.948 . S
C335 N333 1.333 . S
C335 C336 1.379 . S
C335 H343 0.952 . S
C336 C335 1.379 . S
C336 C337 1.390 . S
C336 H356 0.949 . S
C337 C336 1.390 . S
C337 C338 1.357 . S
C338 C334 1.370 . S
C338 C337 1.357 . S
C338 H357 0.950 . S
Zn339 N333 2.020 . S
Zn339 O342 2.025 . S
Zn339 O347 2.024 . S
Zn339 O349 2.039 . S
Zn339 O351 2.034 . S
O340 C324 1.251 . S
O340 Zn331 2.039 . S
C341 O346 1.246 . S
C341 O347 1.249 . S
O342 C324 1.254 . S
O342 Zn339 2.025 . S
H343 C335 0.952 . S
H344 C326 0.952 . S
H345 C334 0.948 . S
O346 Zn331 2.034 . S
O346 C341 1.246 . S
O347 Zn339 2.024 . S
O347 C341 1.249 . S
H348 C330 0.948 . S
O349 Zn339 2.039 . S
O349 C353 1.251 . S
O350 Zn331 2.025 . S
O350 C353 1.254 . S
O351 C332 1.246 . S
O351 Zn339 2.034 . S
O352 Zn331 2.024 . S
O352 C332 1.249 . S
C353 O349 1.251 . S
C353 O350 1.254 . S
H354 C327 0.949 . S
H355 C329 0.950 . S
H356 C336 0.949 . S
H357 C338 0.950 . S
C358 O374 1.251 . S
C358 O376 1.254 . S
N359 C360 1.333 . S
N359 C364 1.307 . S
N359 Zn365 2.020 . S
C360 N359 1.333 . S
C360 C361 1.379 . S
C360 H378 0.952 . S
C361 C360 1.379 . S
C361 C362 1.390 . S
C361 H388 0.949 . S
C362 C361 1.390 . S
C362 C363 1.357 . S
C363 C362 1.357 . S
C363 C364 1.370 . S
C363 H389 0.950 . S
C364 N359 1.307 . S
C364 C363 1.370 . S
C364 H382 0.948 . S
Zn365 N359 2.020 . S
Zn365 O374 2.039 . S
Zn365 O380 2.034 1_455 S
Zn365 O384 2.025 1_455 S
Zn365 O386 2.024 . S
C366 O385 1.246 . S
C366 O386 1.249 . S
N367 C368 1.307 . S
N367 C369 1.333 . S
N367 Zn373 2.020 1_655 S
C368 N367 1.307 . S
C368 C372 1.370 . S
C368 H379 0.948 1_655 S
C369 N367 1.333 . S
C369 C370 1.379 . S
C369 H377 0.952 . S
C370 C369 1.379 . S
C370 C371 1.390 . S
C370 H390 0.949 . S
C371 C370 1.390 . S
C371 C372 1.357 . S
C372 C368 1.370 . S
C372 C371 1.357 . S
C372 H391 0.950 . S
Zn373 N367 2.020 1_455 S
Zn373 O376 2.025 . S
Zn373 O381 2.024 1_455 S
Zn373 O383 2.039 1_455 S
Zn373 O385 2.034 . S
O374 C358 1.251 . S
O374 Zn365 2.039 . S
C375 O380 1.246 . S
C375 O381 1.249 . S
O376 C358 1.254 . S
O376 Zn373 2.025 . S
H377 C369 0.952 . S
H378 C360 0.952 . S
H379 C368 0.948 1_455 S
O380 Zn365 2.034 1_655 S
O380 C375 1.246 . S
O381 Zn373 2.024 1_655 S
O381 C375 1.249 . S
H382 C364 0.948 . S
O383 Zn373 2.039 1_655 S
O383 C387 1.251 . S
O384 Zn365 2.025 1_655 S
O384 C387 1.254 . S
O385 C366 1.246 . S
O385 Zn373 2.034 . S
O386 Zn365 2.024 . S
O386 C366 1.249 . S
C387 O383 1.251 . S
C387 O384 1.254 . S
H388 C361 0.949 . S
H389 C363 0.950 . S
H390 C370 0.949 . S
H391 C372 0.950 . S
C392 C393 1.387 . S
C392 H396 0.950 . S
C392 C401 1.390 . S
C393 C392 1.387 . S
C393 C395 1.387 1_565 S
H394 C401 0.950 . S
C395 C393 1.387 1_545 S
C395 C397 1.390 . S
C395 H399 0.950 . S
H396 C392 0.950 . S
C397 C395 1.390 . S
C397 C398 1.387 1_545 S
C397 H400 0.950 . S
C398 C397 1.387 1_565 S
C398 C401 1.387 . S
H399 C395 0.950 . S
H400 C397 0.950 . S
C401 C392 1.390 . S
C401 H394 0.950 . S
C401 C398 1.387 . S
C402 C403 1.387 . S
C402 H406 0.950 . S
C402 C411 1.390 . S
C403 C402 1.387 . S
C403 C405 1.387 . S
H404 C411 0.950 . S
C405 C403 1.387 . S
C405 C407 1.390 . S
C405 H409 0.950 . S
H406 C402 0.950 . S
C407 C405 1.390 . S
C407 C408 1.387 . S
C407 H410 0.950 . S
C408 C407 1.387 . S
C408 C411 1.387 . S
H409 C405 0.950 . S
H410 C407 0.950 . S
C411 C402 1.390 . S
C411 H404 0.950 . S
C411 C408 1.387 . S
C412 C413 1.387 . S
C412 H416 0.950 . S
C412 C421 1.390 . S
C413 C412 1.387 . S
C413 C415 1.387 . S
H414 C421 0.950 . S
C415 C413 1.387 . S
C415 C417 1.390 . S
C415 H419 0.950 . S
H416 C412 0.950 . S
C417 C415 1.390 . S
C417 C418 1.387 . S
C417 H420 0.950 . S
C418 C417 1.387 . S
C418 C421 1.387 . S
H419 C415 0.950 . S
H420 C417 0.950 . S
C421 C412 1.390 . S
C421 H414 0.950 . S
C421 C418 1.387 . S
C422 C423 1.387 . S
C422 H426 0.950 . S
C422 C431 1.390 . S
C423 C422 1.387 . S
C423 C425 1.387 . S
H424 C431 0.950 . S
C425 C423 1.387 . S
C425 C427 1.390 . S
C425 H429 0.950 . S
H426 C422 0.950 . S
C427 C425 1.390 . S
C427 C428 1.387 . S
C427 H430 0.950 . S
C428 C427 1.387 . S
C428 C431 1.387 . S
H429 C425 0.950 . S
H430 C427 0.950 . S
C431 C422 1.390 . S
C431 H424 0.950 . S
C431 C428 1.387 . S
C432 C433 1.387 1_565 S
C432 H436 0.950 . S
C432 C441 1.390 . S
C433 C432 1.387 1_545 S
C433 C435 1.387 . S
H434 C441 0.950 . S
C435 C433 1.387 . S
C435 C437 1.390 . S
C435 H439 0.950 . S
H436 C432 0.950 . S
C437 C435 1.390 . S
C437 C438 1.387 . S
C437 H440 0.950 . S
C438 C437 1.387 . S
C438 C441 1.387 1_545 S
H439 C435 0.950 . S
H440 C437 0.950 . S
C441 C432 1.390 . S
C441 H434 0.950 . S
C441 C438 1.387 1_565 S
C442 C443 1.387 1_554 S
C442 H446 0.950 . S
C442 C451 1.390 1_554 S
C443 C442 1.387 1_556 S
C443 C445 1.387 . S
H444 C451 0.950 . S
C445 C443 1.387 . S
C445 C447 1.390 . S
C445 H449 0.950 . S
H446 C442 0.950 . S
C447 C445 1.390 . S
C447 C448 1.387 . S
C447 H450 0.950 . S
C448 C447 1.387 . S
C448 C451 1.387 . S
H449 C445 0.950 . S
H450 C447 0.950 . S
C451 C442 1.390 1_556 S
C451 H444 0.950 . S
C451 C448 1.387 . S
C452 C453 1.387 . S
C452 H456 0.950 . S
C452 C461 1.390 1_554 S
C453 C452 1.387 . S
C453 C455 1.387 . S
H454 C461 0.950 . S
C455 C453 1.387 . S
C455 C457 1.390 1_554 S
C455 H459 0.950 . S
H456 C452 0.950 . S
C457 C455 1.390 1_556 S
C457 C458 1.387 . S
C457 H460 0.950 . S
C458 C457 1.387 . S
C458 C461 1.387 . S
H459 C455 0.950 . S
H460 C457 0.950 . S
C461 C452 1.390 1_556 S
C461 H454 0.950 . S
C461 C458 1.387 . S
C462 C463 1.387 . S
C462 H466 0.950 . S
C462 C471 1.390 . S
C463 C462 1.387 . S
C463 C465 1.387 . S
H464 C471 0.950 1_455 S
C465 C463 1.387 . S
C465 C467 1.390 . S
C465 H469 0.950 . S
H466 C462 0.950 . S
C467 C465 1.390 . S
C467 C468 1.387 . S
C467 H470 0.950 . S
C468 C467 1.387 . S
C468 C471 1.387 . S
H469 C465 0.950 . S
H470 C467 0.950 . S
C471 C462 1.390 . S
C471 H464 0.950 1_655 S
C471 C468 1.387 . S
C472 C473 1.387 . S
C472 H476 0.950 . S
C472 C481 1.390 . S
C473 C472 1.387 . S
C473 C475 1.387 . S
H474 C481 0.950 . S
C475 C473 1.387 . S
C475 C477 1.390 . S
C475 H479 0.950 . S
H476 C472 0.950 . S
C477 C475 1.390 . S
C477 C478 1.387 . S
C477 H480 0.950 . S
C478 C477 1.387 . S
C478 C481 1.387 . S
H479 C475 0.950 . S
H480 C477 0.950 . S
C481 C472 1.390 . S
C481 H474 0.950 . S
C481 C478 1.387 . S
C482 C483 1.407 . S
C482 H486 0.950 . S
C482 C491 1.390 . S
C483 C482 1.407 . S
C483 C485 1.372 1_565 S
H484 C491 0.950 . S
C485 C483 1.372 1_545 S
C485 C487 1.390 . S
C485 H489 0.950 . S
H486 C482 0.950 . S
C487 C485 1.390 . S
C487 C488 1.387 1_545 S
C487 H490 0.950 . S
C488 C487 1.387 1_565 S
C488 C491 1.387 . S
H489 C485 0.950 . S
H490 C487 0.950 . S
C491 C482 1.390 . S
C491 H484 0.950 . S
C491 C488 1.387 . S
C492 C493 1.387 . S
C492 H496 0.950 . S
C492 C501 1.390 . S
C493 C492 1.387 . S
C493 C495 1.387 . S
H494 C501 0.950 . S
C495 C493 1.387 . S
C495 C497 1.390 . S
C495 H499 0.950 . S
H496 C492 0.950 . S
C497 C495 1.390 . S
C497 C498 1.387 . S
C497 H500 0.950 . S
C498 C497 1.387 . S
C498 C501 1.387 . S
H499 C495 0.950 . S
H500 C497 0.950 . S
C501 C492 1.390 . S
C501 H494 0.950 . S
C501 C498 1.387 . S
C502 C503 1.387 . S
C502 H506 0.950 . S
C502 C511 1.390 . S
C503 C502 1.387 . S
C503 C505 1.387 . S
H504 C511 0.950 . S
C505 C503 1.387 . S
C505 C507 1.390 . S
C505 H509 0.950 . S
H506 C502 0.950 . S
C507 C505 1.390 . S
C507 C508 1.387 . S
C507 H510 0.950 . S
C508 C507 1.387 . S
C508 C511 1.387 . S
H509 C505 0.950 . S
H510 C507 0.950 . S
C511 C502 1.390 . S
C511 H504 0.950 . S
C511 C508 1.387 . S
C512 C513 1.387 . S
C512 H516 0.950 . S
C512 C521 1.390 . S
C513 C512 1.387 . S
C513 C515 1.387 . S
H514 C521 0.950 . S
C515 C513 1.387 . S
C515 C517 1.390 . S
C515 H519 0.950 . S
H516 C512 0.950 . S
C517 C515 1.390 . S
C517 C518 1.387 . S
C517 H520 0.950 . S
C518 C517 1.387 . S
C518 C521 1.387 . S
H519 C515 0.950 . S
H520 C517 0.950 . S
C521 C512 1.390 . S
C521 H514 0.950 . S
C521 C518 1.387 . S
C522 C523 1.366 1_565 S
C522 H526 0.950 . S
C522 C531 1.390 . S
C523 C522 1.366 1_545 S
C523 C525 1.415 . S
H524 C531 0.950 . S
C525 C523 1.415 . S
C525 C527 1.390 . S
C525 H529 0.950 . S
H526 C522 0.950 . S
C527 C525 1.390 . S
C527 C528 1.387 . S
C527 H530 0.950 . S
C528 C527 1.387 . S
C528 C531 1.387 1_545 S
H529 C525 0.950 . S
H530 C527 0.950 . S
C531 C522 1.390 . S
C531 H524 0.950 . S
C531 C528 1.387 1_565 S
C532 C533 1.387 . S
C532 H536 0.950 . S
C532 C541 1.390 . S
C533 C532 1.387 . S
C533 C535 1.387 . S
H534 C541 0.950 . S
C535 C533 1.387 . S
C535 C537 1.390 . S
C535 H539 0.950 1_556 S
H536 C532 0.950 . S
C537 C535 1.390 . S
C537 C538 1.387 . S
C537 H540 0.950 . S
C538 C537 1.387 . S
C538 C541 1.387 . S
H539 C535 0.950 1_554 S
H540 C537 0.950 . S
C541 C532 1.390 . S
C541 H534 0.950 . S
C541 C538 1.387 . S
C542 C543 1.387 . S
C542 H546 0.950 . S
C542 C551 1.390 . S
C543 C542 1.387 . S
C543 C545 1.387 . S
H544 C551 0.950 . S
C545 C543 1.387 . S
C545 C547 1.390 . S
C545 H549 0.950 1_556 S
H546 C542 0.950 . S
C547 C545 1.390 . S
C547 C548 1.387 . S
C547 H550 0.950 . S
C548 C547 1.387 . S
C548 C551 1.387 . S
H549 C545 0.950 1_554 S
H550 C547 0.950 . S
C551 C542 1.390 . S
C551 H544 0.950 . S
C551 C548 1.387 . S
C552 C553 1.387 . S
C552 H556 0.950 . S
C552 C561 1.390 . S
C553 C552 1.387 . S
C553 C555 1.387 . S
H554 C561 0.950 . S
C555 C553 1.387 . S
C555 C557 1.390 . S
C555 H559 0.950 . S
H556 C552 0.950 . S
C557 C555 1.390 . S
C557 C558 1.387 . S
C557 H560 0.950 . S
C558 C557 1.387 . S
C558 C561 1.387 . S
H559 C555 0.950 . S
H560 C557 0.950 . S
C561 C552 1.390 . S
C561 H554 0.950 . S
C561 C558 1.387 . S
C562 C563 1.351 1_565 S
C562 H566 0.950 . S
C562 C571 1.390 1_554 S
C563 C562 1.351 1_545 S
C563 C565 1.422 . S
H564 C571 0.950 . S
C565 C563 1.422 . S
C565 C567 1.390 1_554 S
C565 H569 0.950 . S
H566 C562 0.950 . S
C567 C565 1.390 1_556 S
C567 C568 1.387 . S
C567 H570 0.950 . S
C568 C567 1.387 . S
C568 C571 1.387 1_545 S
H569 C565 0.950 . S
H570 C567 0.950 . S
C571 C562 1.390 1_556 S
C571 H564 0.950 . S
C571 C568 1.387 1_565 S
C572 C573 1.387 . S
C572 H576 0.950 . S
C572 C581 1.390 . S
C573 C572 1.387 . S
C573 C575 1.387 1_554 S
H574 C581 0.950 . S
C575 C573 1.387 1_556 S
C575 C577 1.390 . S
C575 H579 0.950 . S
H576 C572 0.950 . S
C577 C575 1.390 . S
C577 C578 1.387 . S
C577 H580 0.950 . S
C578 C577 1.387 . S
C578 C581 1.387 1_556 S
H579 C575 0.950 . S
H580 C577 0.950 . S
C581 C572 1.390 . S
C581 H574 0.950 . S
C581 C578 1.387 1_554 S
C582 C583 1.387 1_554 S
C582 H586 0.950 . S
C582 C591 1.390 1_554 S
C583 C582 1.387 1_556 S
C583 C585 1.387 . S
H584 C591 0.950 . S
C585 C583 1.387 . S
C585 C587 1.390 . S
C585 H589 0.950 . S
H586 C582 0.950 . S
C587 C585 1.390 . S
C587 C588 1.387 . S
C587 H590 0.950 . S
C588 C587 1.387 . S
C588 C591 1.387 . S
H589 C585 0.950 . S
H590 C587 0.950 . S
C591 C582 1.390 1_556 S
C591 H584 0.950 . S
C591 C588 1.387 . S
C592 C593 1.387 . S
C592 H596 0.950 . S
C592 C601 1.390 . S
C593 C592 1.387 . S
C593 C595 1.387 . S
H594 C601 0.950 . S
C595 C593 1.387 . S
C595 C597 1.390 . S
C595 H599 0.950 . S
H596 C592 0.950 . S
C597 C595 1.390 . S
C597 C598 1.387 . S
C597 H600 0.950 . S
C598 C597 1.387 . S
C598 C601 1.387 . S
H599 C595 0.950 . S
H600 C597 0.950 . S
C601 C592 1.390 . S
C601 H594 0.950 . S
C601 C598 1.387 . S
C602 C603 1.363 1_545 S
C602 H606 0.950 . S
C602 C611 1.390 . S
C603 C602 1.363 1_565 S
C603 C605 1.411 . S
H604 C611 0.950 . S
C605 C603 1.411 . S
C605 C607 1.390 . S
C605 H609 0.950 . S
H606 C602 0.950 . S
C607 C605 1.390 . S
C607 C608 1.387 . S
C607 H610 0.950 . S
C608 C607 1.387 . S
C608 C611 1.387 1_565 S
H609 C605 0.950 . S
H610 C607 0.950 . S
C611 C602 1.390 . S
C611 H604 0.950 . S
C611 C608 1.387 1_545 S
C612 C613 1.387 . S
C612 H616 0.950 . S
C612 C621 1.390 . S
C613 C612 1.387 . S
C613 C615 1.387 . S
H614 C621 0.950 . S
C615 C613 1.387 . S
C615 C617 1.390 . S
C615 H619 0.950 . S
H616 C612 0.950 . S
C617 C615 1.390 . S
C617 C618 1.387 . S
C617 H620 0.950 . S
C618 C617 1.387 . S
C618 C621 1.387 . S
H619 C615 0.950 . S
H620 C617 0.950 . S
C621 C612 1.390 . S
C621 H614 0.950 . S
C621 C618 1.387 . S
C622 C623 1.387 . S
C622 H626 0.950 . S
C622 C631 1.390 . S
C623 C622 1.387 . S
C623 C625 1.387 . S
H624 C631 0.950 . S
C625 C623 1.387 . S
C625 C627 1.390 . S
C625 H629 0.950 . S
H626 C622 0.950 . S
C627 C625 1.390 . S
C627 C628 1.387 . S
C627 H630 0.950 . S
C628 C627 1.387 . S
C628 C631 1.387 . S
H629 C625 0.950 . S
H630 C627 0.950 . S
C631 C622 1.390 . S
C631 H624 0.950 . S
C631 C628 1.387 . S
C393 C215 1.894 1_565 S
C398 C273 1.914 . S
C408 C294 1.695 . S
C403 C247 1.707 . S
C418 C328 1.641 . S
C413 C151 1.580 . S
C428 C362 1.672 . S
C423 C183 1.683 . S
C438 C264 1.914 . S
C433 C87 1.857 1_556 S
C443 C119 1.576 1_556 S
C448 C303 1.697 . S
C453 C23 1.642 . S
C458 C337 1.641 . S
C463 C55 1.540 . S
C468 C371 1.671 . S
C478 C285 1.121 . S
C473 C189 1.125 . S
C488 C290 0.936 . S
C483 C221 0.925 1_565 S
C498 C324 1.013 . S
C493 C253 1.040 . S
C503 C157 0.631 . S
C508 C358 0.513 . S
C513 C61 0.844 . S
C518 C256 1.125 1_655 S
C528 C319 0.936 . S
C523 C93 0.919 . S
C538 C353 1.009 . S
C533 C125 0.916 . S
C543 C29 0.506 . S
C548 C387 0.515 . S
C553 C177 1.639 . S
C558 C269 1.678 . S
C563 C209 1.932 . S
C568 C298 2.040 . S
C578 C332 1.770 . S
C573 C241 1.707 . S
C588 C366 1.843 . S
C583 C145 1.655 1_556 S
C593 C49 1.526 . S
C598 C260 1.686 . S
C608 C307 2.041 . S
C603 C81 1.935 1_565 S
C618 C341 1.771 . S
C613 C113 1.628 . S
C623 C17 1.777 . S
C628 C375 1.843 . S
