# Generated by pormake.
# Topology anh, (6,3)-cn, num edge types: 1
# Building blocks:
#     Node 0, Type 0, BuildingBlock: HISSIN_clean_sbu_0, # of connection points: 6
#     Node 1, Type 0, BuildingBlock: HISSIN_clean_sbu_0, # of connection points: 6
#     Node 2, Type 0, BuildingBlock: HISSIN_clean_sbu_0, # of connection points: 6
#     Node 3, Type 1, BuildingBlock: BETDAH_clean_linker_0, # of connection points: 3
#     Node 4, Type 1, BuildingBlock: BETDAH_clean_linker_0, # of connection points: 3
#     Node 5, Type 1, BuildingBlock: BETDAH_clean_linker_0, # of connection points: 3
#     Node 6, Type 1, BuildingBlock: BETDAH_clean_linker_0, # of connection points: 3
#     Node 7, Type 1, BuildingBlock: BETDAH_clean_linker_0, # of connection points: 3
#     Node 8, Type 1, BuildingBlock: BETDAH_clean_linker_0, # of connection points: 3
#     Edge 9, Type (0, 1), BuildingBlock: ZUJKAS_clean_linker_0, # of connection points: 2
#     Edge 10, Type (0, 1), BuildingBlock: ZUJKAS_clean_linker_0, # of connection points: 2
#     Edge 11, Type (0, 1), BuildingBlock: ZUJKAS_clean_linker_0, # of connection points: 2
#     Edge 12, Type (0, 1), BuildingBlock: ZUJKAS_clean_linker_0, # of connection points: 2
#     Edge 13, Type (0, 1), BuildingBlock: ZUJKAS_clean_linker_0, # of connection points: 2
#     Edge 14, Type (0, 1), BuildingBlock: ZUJKAS_clean_linker_0, # of connection points: 2
#     Edge 15, Type (0, 1), BuildingBlock: ZUJKAS_clean_linker_0, # of connection points: 2
#     Edge 16, Type (0, 1), BuildingBlock: ZUJKAS_clean_linker_0, # of connection points: 2
#     Edge 17, Type (0, 1), BuildingBlock: ZUJKAS_clean_linker_0, # of connection points: 2
#     Edge 18, Type (0, 1), BuildingBlock: ZUJKAS_clean_linker_0, # of connection points: 2
#     Edge 19, Type (0, 1), BuildingBlock: ZUJKAS_clean_linker_0, # of connection points: 2
#     Edge 20, Type (0, 1), BuildingBlock: ZUJKAS_clean_linker_0, # of connection points: 2
#     Edge 21, Type (0, 1), BuildingBlock: ZUJKAS_clean_linker_0, # of connection points: 2
#     Edge 22, Type (0, 1), BuildingBlock: ZUJKAS_clean_linker_0, # of connection points: 2
#     Edge 23, Type (0, 1), BuildingBlock: ZUJKAS_clean_linker_0, # of connection points: 2
#     Edge 24, Type (0, 1), BuildingBlock: ZUJKAS_clean_linker_0, # of connection points: 2
#     Edge 25, Type (0, 1), BuildingBlock: ZUJKAS_clean_linker_0, # of connection points: 2
#     Edge 26, Type (0, 1), BuildingBlock: ZUJKAS_clean_linker_0, # of connection points: 2
# Relax obj value: 0.173
# Max RMSD: 0.139
# Mean RMSD: 0.102
data_MOF--net-anh--node1-HISSIN_clean_sbu_0--node2-BETDAH_clean_linker_0--edge1-ZUJKAS_clean_linker_0
_symmetry_space_group_name_H-M    P1
_symmetry_Int_Tables_number       1
_symmetry_cell_setting            triclinic
loop_
_symmetry_equiv_pos_as_xyz
'x, y, z'
_cell_length_a     40.37943
_cell_length_b     40.296127
_cell_length_c     64.627634
_cell_angle_alpha  96.390008
_cell_angle_beta   91.167253
_cell_angle_gamma 120.22777
loop_
_atom_site_label
_atom_site_type_symbol
_atom_site_fract_x
_atom_site_fract_y
_atom_site_fract_z
_atom_type_partial_charge
Eu0 Eu 1.05762 0.54723 0.15972 0.0
Eu1 Eu 0.10033 0.64048 0.16897 0.0
C2 C 1.07209 0.58922 0.20758 0.0
C3 C 0.98402 0.43729 0.14608 0.0
C4 C 0.9544 0.43444 0.15811 0.0
C5 C 0.94147 0.37227 0.12826 0.0
C6 C 0.91849 0.40017 0.15542 0.0
C7 C 0.97722 0.40629 0.13103 0.0
C8 C 0.91183 0.36864 0.14056 0.0
C9 C 1.02211 0.47231 0.14839 0.0
O10 O 0.15029 0.62894 0.16271 0.0
O11 O 0.12088 0.56462 0.16682 0.0
C12 C 0.15244 0.59756 0.16453 0.0
O13 O 0.09022 0.56981 0.1321 0.0
O14 O 0.14537 0.69702 0.1845 0.0
O15 O 0.10229 0.69336 0.16235 0.0
O16 O 0.08711 0.62454 0.13394 0.0
C17 C 0.09098 0.5975 0.12309 0.0
O18 O 1.00947 0.56117 0.1536 0.0
O19 O 1.03705 0.62136 0.17274 0.0
O20 O 0.09472 0.62299 0.20138 0.0
O21 O 1.02727 0.49712 0.1357 0.0
O22 O 1.03797 0.489 0.16729 0.0
O23 O 1.05207 0.55735 0.19422 0.0
C24 C 0.16464 0.74766 0.16368 0.0
C25 C 0.15779 0.77588 0.15714 0.0
C26 C 0.22863 0.78106 0.15184 0.0
C27 C 0.18631 0.80676 0.14818 0.0
C28 C 0.20002 0.75007 0.16058 0.0
C29 C 0.22236 0.8101 0.14574 0.0
C30 C 0.1347 0.7161 0.17371 0.0
C31 C 1.00644 0.59069 0.16246 0.0
H32 H 0.95914 0.45845 0.16962 0.0
H33 H 0.93753 0.3483 0.11699 0.0
H34 H 0.89608 0.39819 0.16504 0.0
H35 H 0.9998 0.40822 0.12154 0.0
H36 H 0.13048 0.77428 0.1592 0.0
H37 H 0.25622 0.78293 0.15066 0.0
H38 H 0.18032 0.82831 0.14346 0.0
H39 H 0.20597 0.72847 0.16529 0.0
Eu40 Eu 0.60584 0.05286 0.50026 0.0
Eu41 Eu 0.55614 0.09638 0.50063 0.0
C42 C 0.58112 0.07665 0.5442 0.0
C43 C 0.64704 0.98491 0.50508 0.0
C44 C 0.64284 0.97734 0.52586 0.0
C45 C 0.66339 0.93494 0.49719 0.0
C46 C 0.64989 0.94932 0.53237 0.0
C47 C 0.65648 0.96294 0.49074 0.0
C48 C 0.66108 0.92845 0.51818 0.0
C49 C 0.64516 1.01755 0.49828 0.0
O50 O 0.61675 0.14376 0.49423 0.0
O51 O 0.65248 0.11759 0.50419 0.0
C52 C 0.65062 0.1472 0.4985 0.0
O53 O 0.60977 0.07242 0.46891 0.0
O54 O 0.54525 0.14164 0.51411 0.0
O55 O 0.50951 0.10191 0.48699 0.0
O56 O 0.55393 0.07336 0.46687 0.0
C57 C 0.58208 0.07201 0.45789 0.0
O58 O 0.54254 1.00267 0.49419 0.0
O59 O 0.50998 1.03423 0.50387 0.0
O60 O 0.57052 0.0978 0.535 0.0
O61 O 0.61722 1.00928 0.4844 0.0
O62 O 0.65262 1.04661 0.51253 0.0
O63 O 0.59133 0.05408 0.53357 0.0
C64 C 0.52517 0.16676 0.48899 0.0
C65 C 0.55748 0.18518 0.47776 0.0
C66 C 0.50975 0.21636 0.48403 0.0
C67 C 0.56669 0.21977 0.47035 0.0
C68 C 0.50072 0.18183 0.49158 0.0
C69 C 0.5436 0.23645 0.47398 0.0
C70 C 0.51889 0.13375 0.49932 0.0
C71 C 0.51003 1.00173 0.49824 0.0
H72 H 0.63533 0.99384 0.53718 0.0
H73 H 0.67247 0.91979 0.48594 0.0
H74 H 0.64749 0.94464 0.54858 0.0
H75 H 0.65999 0.9685 0.47467 0.0
H76 H 0.57658 0.17377 0.47557 0.0
H77 H 0.4911 0.22817 0.48683 0.0
H78 H 0.59325 0.23459 0.46299 0.0
H79 H 0.4755 0.16771 0.50011 0.0
Eu80 Eu 0.57889 0.5879 0.82945 0.0
Eu81 Eu 0.66998 0.64072 0.84451 0.0
C82 C 0.6092 0.61162 0.87838 0.0
C83 C 0.47567 0.541 0.80255 0.0
C84 C 0.46757 0.57108 0.80279 0.0
C85 C 0.42076 0.50039 0.77716 0.0
C86 C 0.43541 0.56529 0.79079 0.0
C87 C 0.45276 0.50614 0.78917 0.0
C88 C 0.41095 0.52937 0.77843 0.0
C89 C 0.5059 0.54383 0.81697 0.0
O90 O 0.65896 0.57836 0.84424 0.0
O91 O 0.59833 0.54333 0.82714 0.0
C92 C 0.6295 0.54487 0.83512 0.0
O93 O 0.60813 0.60948 0.8004 0.0
O94 O 0.72063 0.65726 0.86541 0.0
O95 O 0.72538 0.69051 0.84027 0.0
O96 O 0.66626 0.6174 0.81097 0.0
C97 C 0.64153 0.61361 0.79618 0.0
O98 O 0.58805 0.64951 0.83238 0.0
O99 O 0.65402 0.68529 0.83616 0.0
O100 O 0.63986 0.64178 0.87322 0.0
O101 O 0.53283 0.53974 0.80846 0.0
O102 O 0.51903 0.57042 0.8334 0.0
O103 O 0.58514 0.58341 0.8639 0.0
C104 C 0.77911 0.68525 0.8489 0.0
C105 C 0.80812 0.71817 0.84139 0.0
C106 C 0.81737 0.65452 0.84387 0.0
C107 C 0.84147 0.71925 0.83508 0.0
C108 C 0.78389 0.65332 0.85 0.0
C109 C 0.84655 0.68747 0.8363 0.0
C110 C 0.7438 0.68456 0.85483 0.0
C111 C 0.62047 0.68325 0.83338 0.0
H112 H 0.48507 0.59841 0.81286 0.0
H113 H 0.40267 0.47259 0.7676 0.0
H114 H 0.42837 0.58803 0.79224 0.0
H115 H 0.45875 0.4827 0.78864 0.0
H116 H 0.80484 0.74302 0.84029 0.0
H117 H 0.82063 0.62982 0.84545 0.0
H118 H 0.86315 0.7449 0.82913 0.0
H119 H 0.76188 0.62745 0.85563 0.0
H120 H 0.5543 1.01806 0.22767 0.0
H121 H 0.64532 0.99483 0.24043 0.0
H122 H 0.60468 0.98637 0.17706 0.0
C123 C 0.57546 1.01091 0.22221 0.0
C124 C 0.57691 1.003 0.20067 0.0
C125 C 0.59978 1.00786 0.23677 0.0
C126 C 0.62569 0.99651 0.22949 0.0
C127 C 0.62808 0.98956 0.20802 0.0
C128 C 0.60335 0.99244 0.19367 0.0
N129 N 0.65709 0.98222 0.20098 0.0
C130 C 0.67856 1.00155 0.18527 0.0
H131 H 0.73976 0.56817 0.5786 0.0
H132 H 0.83234 0.68296 0.60315 0.0
H133 H 0.82649 0.63656 0.53938 0.0
C134 C 0.76649 0.59429 0.57683 0.0
C135 C 0.78167 0.59815 0.55728 0.0
C136 C 0.78431 0.62462 0.59363 0.0
C137 C 0.818 0.65894 0.59058 0.0
C138 C 0.83308 0.6631 0.57109 0.0
C139 C 0.81502 0.63275 0.55452 0.0
N140 N 0.86321 0.6996 0.56738 0.0
C141 C 0.85368 0.72691 0.56328 0.0
H142 H 0.08591 0.59209 0.8955 0.0
H143 H 0.0796 0.48299 0.89897 0.0
H144 H 1.07188 0.51723 0.83926 0.0
C145 C 0.08374 0.56566 0.88782 0.0
C146 C 0.07959 0.5581 0.86592 0.0
C147 C 0.08355 0.53874 0.89992 0.0
C148 C 0.08004 0.5042 0.88985 0.0
C149 C 0.0767 0.49665 0.86798 0.0
C150 C 0.07607 0.52354 0.85611 0.0
N151 N 1.07343 0.46166 0.85821 0.0
C152 C 0.08539 0.45869 0.83843 0.0
H153 H 0.14203 0.64786 0.4311 0.0
H154 H 1.03774 0.54104 0.43737 0.0
H155 H 0.11814 0.60955 0.4913 0.0
C156 C 0.12313 0.62706 0.44085 0.0
C157 C 0.13463 0.63361 0.46226 0.0
C158 C 0.08862 0.59394 0.43162 0.0
C159 C 1.06446 0.56627 0.4443 0.0
C160 C 1.07444 0.57143 0.46595 0.0
C161 C 0.11003 0.60518 0.47472 0.0
N162 N 1.04987 0.54397 0.47936 0.0
C163 C 1.01343 0.50923 0.47463 0.0
H164 H 0.61109 0.17519 0.76871 0.0
H165 H 0.61219 0.07106 0.7768 0.0
H166 H 0.62828 0.15343 0.83055 0.0
C167 C 0.61304 0.15667 0.77902 0.0
C168 C 0.61909 0.169 0.80071 0.0
C169 C 0.61048 0.12171 0.7702 0.0
C170 C 0.61454 0.09811 0.78347 0.0
C171 C 0.62097 0.10895 0.80531 0.0
C172 C 0.62356 0.14483 0.81378 0.0
N173 N 0.62458 0.0847 0.81912 0.0
C174 C 0.6224 1.04821 0.81432 0.0
H175 H 0.65145 0.58668 0.09754 0.0
H176 H 0.54954 0.59303 0.10757 0.0
H177 H 0.61877 0.59481 0.16007 0.0
C178 C 0.63172 0.58815 0.10822 0.0
C179 C 0.63965 0.58996 0.12976 0.0
C180 C 0.59973 0.58944 0.10008 0.0
C181 C 0.57432 0.59249 0.11383 0.0
C182 C 0.58042 0.59423 0.13554 0.0
C183 C 0.61367 0.59347 0.1434 0.0
N184 N 0.55401 0.5965 0.14977 0.0
C185 C 0.51927 0.5968 0.1456 0.0
H186 H 0.16821 0.538 0.16603 0.0
H187 H 0.22876 0.53858 0.16213 0.0
H188 H 0.28602 0.65986 0.1556 0.0
H189 H 0.22528 0.65918 0.15905 0.0
H190 H 0.29625 0.57112 0.18276 0.0
H191 H 0.32605 0.6269 0.10696 0.0
H192 H 0.32203 0.65951 0.12659 0.0
H193 H 0.28079 0.61222 0.11793 0.0
C194 C 0.19355 0.56496 0.16372 0.0
C195 C 0.19087 0.59851 0.16283 0.0
C196 C 0.22867 0.56527 0.16147 0.0
C197 C 0.26301 0.59903 0.15805 0.0
C198 C 0.26052 0.63279 0.15753 0.0
H199 H 0.45908 0.57097 0.1148 0.0
H200 H 0.39828 0.57118 0.1177 0.0
C201 C 0.22535 0.6325 0.15976 0.0
C202 C 0.30093 0.59884 0.1555 0.0
H203 H 0.37678 0.62424 0.12463 0.0
C204 C 0.31361 0.58282 0.16996 0.0
C205 C 0.32439 0.61323 0.13871 0.0
C206 C 0.3125 0.62856 0.12154 0.0
C207 C 0.34819 0.58149 0.16845 0.0
C208 C 0.37239 0.59723 0.15212 0.0
C209 C 0.35934 0.6125 0.13739 0.0
C210 C 0.41076 0.59783 0.15006 0.0
C211 C 0.35772 0.56199 0.18423 0.0
C212 C 0.4397 0.61335 0.16691 0.0
C213 C 0.47466 0.61324 0.1652 0.0
C214 C 0.48271 0.59795 0.14653 0.0
C215 C 0.45433 0.58307 0.12948 0.0
C216 C 0.41923 0.58322 0.13118 0.0
H217 H 0.33157 0.54101 0.19116 0.0
H218 H 0.37168 0.54634 0.17709 0.0
H219 H 0.37774 0.58428 0.19714 0.0
H220 H 0.43546 0.62597 0.18156 0.0
H221 H 0.49555 0.62515 0.17872 0.0
H222 H 0.66008 0.21563 0.48642 0.0
H223 H 0.71967 0.27527 0.4816 0.0
H224 H 0.7861 0.22559 0.50061 0.0
H225 H 0.72675 0.16583 0.5051 0.0
H226 H 0.78147 0.33042 0.50606 0.0
H227 H 0.83642 0.26181 0.44885 0.0
H228 H 0.78823 0.23576 0.45672 0.0
H229 H 0.82822 0.24161 0.47287 0.0
C230 C 0.68729 0.21715 0.48956 0.0
C231 C 0.68777 0.18499 0.49611 0.0
C232 C 0.72177 0.2517 0.48678 0.0
C233 C 0.75841 0.25569 0.49021 0.0
C234 C 0.75888 0.22381 0.49713 0.0
H235 H 1.00205 0.43976 0.48388 0.0
H236 H 0.94118 0.38034 0.48742 0.0
C237 C 0.72446 0.18931 0.49993 0.0
C238 C 0.79568 0.29298 0.48691 0.0
H239 H 0.88025 0.32751 0.46292 0.0
C240 C 0.8028 0.32953 0.49648 0.0
C241 C 0.82446 0.29306 0.47445 0.0
C242 C 0.81888 0.25604 0.46246 0.0
C243 C 0.83729 0.36496 0.49452 0.0
C244 C 0.86617 0.36502 0.48213 0.0
C245 C 0.85892 0.32847 0.47248 0.0
C246 C 0.90406 0.40211 0.47929 0.0
C247 C 0.84284 0.40197 0.50651 0.0
C248 C 0.90498 0.43514 0.47299 0.0
C249 C 0.94023 0.46949 0.47092 0.0
C250 C 0.97608 0.47215 0.47476 0.0
C251 C 0.97526 0.43901 0.48057 0.0
C252 C 0.94008 0.40473 0.48266 0.0
H253 H 0.82493 0.39616 0.51997 0.0
H254 H 0.8734 0.42205 0.51248 0.0
H255 H 0.83394 0.41664 0.49603 0.0
H256 H 0.87832 0.4345 0.46957 0.0
H257 H 0.93936 0.49421 0.4665 0.0
H258 H 0.68146 0.75874 0.83417 0.0
H259 H 0.68041 0.81809 0.83045 0.0
H260 H 0.55658 0.75246 0.82291 0.0
H261 H 0.55748 0.69309 0.82698 0.0
H262 H 0.65735 0.84343 0.8003 0.0
H263 H 0.56857 0.83838 0.86515 0.0
H264 H 0.58777 0.80652 0.86132 0.0
H265 H 0.54478 0.79569 0.84609 0.0
C266 C 0.65382 0.75668 0.83187 0.0
C267 C 0.61955 0.7203 0.83111 0.0
C268 C 0.65326 0.79108 0.82966 0.0
C269 C 0.61842 0.79101 0.82675 0.0
C270 C 0.58412 0.75456 0.82572 0.0
H271 H 0.55973 0.97414 0.81134 0.0
H272 H 0.55887 0.91307 0.81357 0.0
C273 C 0.58466 0.7201 0.82791 0.0
C274 C 0.61826 0.82858 0.82437 0.0
H275 H 0.58098 0.88562 0.84285 0.0
C276 C 0.64069 0.8525 0.80977 0.0
C277 C 0.59666 0.8415 0.83643 0.0
C278 C 0.57338 0.81944 0.85327 0.0
C279 C 0.64156 0.88745 0.80666 0.0
C280 C 0.62011 0.90049 0.8188 0.0
C281 C 0.59757 0.87649 0.83335 0.0
C282 C 0.62076 0.93858 0.81676 0.0
C283 C 0.66474 0.90937 0.78976 0.0
C284 C 0.65559 0.97458 0.81787 0.0
C285 C 0.65603 1.00973 0.81643 0.0
C286 C 0.6217 1.01061 0.81389 0.0
C287 C 0.58685 0.97487 0.81292 0.0
C288 C 0.58639 0.93966 0.81436 0.0
H289 H 0.66869 0.8901 0.77766 0.0
H290 H 0.65079 0.92301 0.782 0.0
H291 H 0.69372 0.93252 0.7968 0.0
H292 H 0.6828 0.97584 0.82038 0.0
H293 H 0.6835 1.03652 0.81773 0.0
H294 H 0.93676 0.5357 0.13966 0.0
H295 H 0.87632 0.53616 0.13586 0.0
H296 H 0.92704 0.64387 0.17763 0.0
H297 H 0.98763 0.6441 0.1809 0.0
H298 H 0.82309 0.53178 0.15918 0.0
H299 H 0.88425 0.67672 0.13457 0.0
H300 H 0.91234 0.65373 0.13677 0.0
H301 H 0.90579 0.67914 0.15962 0.0
C302 C 0.93532 0.55971 0.148 0.0
C303 C 0.96808 0.59002 0.1605 0.0
C304 C 0.90027 0.55995 0.14583 0.0
C305 C 0.89618 0.59057 0.15596 0.0
C306 C 0.92869 0.62036 0.16885 0.0
H307 H 0.69972 0.63691 0.16125 0.0
H308 H 0.76013 0.63701 0.16846 0.0
C309 C 0.96375 0.62025 0.17093 0.0
C310 C 0.85813 0.59081 0.1534 0.0
H311 H 0.81941 0.6474 0.1432 0.0
C312 C 0.82267 0.55721 0.15557 0.0
C313 C 0.85609 0.62359 0.1487 0.0
C314 C 0.89157 0.66018 0.14456 0.0
C315 C 0.7866 0.55565 0.15358 0.0
C316 C 0.78463 0.58842 0.14893 0.0
C317 C 0.82 0.62211 0.1469 0.0
C318 C 0.74638 0.58772 0.14529 0.0
C319 C 0.75076 0.51875 0.15698 0.0
C320 C 0.71735 0.56018 0.12989 0.0
C321 C 0.68274 0.56018 0.12575 0.0
C322 C 0.67502 0.58762 0.13679 0.0
C323 C 0.7037 0.61482 0.15253 0.0
C324 C 0.73876 0.61509 0.15654 0.0
H325 H 0.7575 0.50136 0.1666 0.0
H326 H 0.72983 0.52495 0.16478 0.0
H327 H 0.73689 0.50081 0.14162 0.0
H328 H 0.72181 0.53902 0.12051 0.0
H329 H 0.66199 0.53872 0.11344 0.0
H330 H 0.49662 0.92605 0.49342 0.0
H331 H 0.43478 0.86427 0.48919 0.0
H332 H 0.3742 0.92687 0.49311 0.0
H333 H 0.43563 0.9885 0.49765 0.0
H334 H 0.3689 0.8348 0.51648 0.0
H335 H 0.32481 0.8488 0.43762 0.0
H336 H 0.37425 0.87608 0.4487 0.0
H337 H 0.34063 0.89032 0.45725 0.0
C338 C 0.47023 0.92688 0.49344 0.0
C339 C 0.4719 0.96304 0.49592 0.0
C340 C 0.43456 0.89119 0.49103 0.0
C341 C 0.39901 0.89009 0.49059 0.0
C342 C 0.40065 0.92616 0.49313 0.0
H343 H 0.15358 0.70906 0.46105 0.0
H344 H 0.21607 0.76889 0.46909 0.0
C345 C 0.43622 0.96177 0.49584 0.0
C346 C 0.36045 0.85172 0.48738 0.0
H347 H 0.27884 0.79662 0.45347 0.0
C348 C 0.34933 0.82645 0.50263 0.0
C349 C 0.33407 0.84018 0.46949 0.0
C350 C 0.34392 0.86497 0.45219 0.0
C351 C 0.31296 0.79128 0.50081 0.0
C352 C 0.28656 0.77938 0.48273 0.0
C353 C 0.29809 0.80473 0.46743 0.0
C354 C 0.2469 0.74174 0.47941 0.0
C355 C 0.30281 0.76825 0.51889 0.0
C356 C 0.2415 0.70511 0.48261 0.0
C357 C 0.2049 0.6705 0.47848 0.0
C358 C 0.17223 0.67084 0.47058 0.0
C359 C 0.17758 0.70732 0.46744 0.0
C360 C 0.21385 0.74186 0.47187 0.0
H361 H 0.31909 0.78688 0.53375 0.0
H362 H 0.27161 0.75417 0.52097 0.0
H363 H 0.31057 0.74546 0.51594 0.0
H364 H 0.26589 0.70281 0.48761 0.0
H365 H 0.2026 0.64313 0.48053 0.0
H366 H 0.68625 0.53084 0.85058 0.0
H367 H 0.68684 0.46954 0.84679 0.0
H368 H 0.57578 0.41123 0.81188 0.0
H369 H 0.5751 0.47182 0.81546 0.0
H370 H 0.63988 0.39621 0.85868 0.0
H371 H 0.63313 0.37806 0.77244 0.0
H372 H 0.64331 0.42293 0.78776 0.0
H373 H 0.59448 0.38323 0.78223 0.0
C374 C 0.66192 0.50506 0.84203 0.0
C375 C 0.63074 0.50721 0.83327 0.0
C376 C 0.66223 0.46963 0.83988 0.0
C377 C 0.63166 0.43492 0.82865 0.0
C378 C 0.60038 0.43706 0.82019 0.0
H379 H 0.56909 0.19251 0.78883 0.0
H380 H 0.57367 0.2554 0.79676 0.0
C381 C 0.59994 0.47221 0.82241 0.0
C382 C 0.63202 0.39669 0.82573 0.0
H383 H 0.62157 0.32327 0.78835 0.0
C384 C 0.63617 0.38054 0.84324 0.0
C385 C 0.6272 0.37528 0.80571 0.0
C386 C 0.62466 0.39087 0.78595 0.0
C387 C 0.63421 0.34388 0.84137 0.0
C388 C 0.62887 0.32221 0.82131 0.0
C389 C 0.62541 0.33884 0.80384 0.0
C390 C 0.62544 0.28206 0.81786 0.0
C391 C 0.63632 0.32812 0.86113 0.0
C392 C 0.65248 0.27415 0.82709 0.0
C393 C 0.6496 0.23726 0.82264 0.0
C394 C 0.61989 0.20686 0.80852 0.0
C395 C 0.5926 0.21471 0.7997 0.0
C396 C 0.59531 0.25122 0.80422 0.0
H397 H 0.62866 0.34162 0.87469 0.0
H398 H 0.61681 0.2962 0.85941 0.0
H399 H 0.66621 0.33477 0.86469 0.0
H400 H 0.67678 0.29691 0.83726 0.0
H401 H 0.67168 0.23314 0.82957 0.0
H402 H 0.70649 0.94185 0.55363 0.0
H403 H 0.73622 0.90477 0.56261 0.0
H404 H 0.67584 0.82085 0.50785 0.0
H405 H 0.64552 0.85746 0.49885 0.0
H406 H 0.70446 0.82284 0.56787 0.0
H407 H 0.79319 0.86768 0.50045 0.0
H408 H 0.76789 0.8914 0.51062 0.0
H409 H 0.74209 0.84504 0.49448 0.0
C410 C 0.69871 0.91496 0.54378 0.0
C411 C 0.67395 0.90276 0.5254 0.0
C412 C 0.71589 0.89396 0.54888 0.0
C413 C 0.70868 0.86058 0.53567 0.0
C414 C 0.6822 0.84698 0.51802 0.0
H415 H 0.8081 0.71394 0.52914 0.0
H416 H 0.77262 0.74708 0.52285 0.0
C417 C 0.66498 0.86792 0.51291 0.0
C418 C 0.73086 0.84156 0.53957 0.0
H419 H 0.79957 0.82464 0.51985 0.0
C420 C 0.72531 0.8232 0.55744 0.0
C421 C 0.75806 0.84234 0.52589 0.0
C422 C 0.76604 0.8629 0.50685 0.0
C423 C 0.74583 0.80482 0.5618 0.0
C424 C 0.77313 0.80569 0.54814 0.0
C425 C 0.77867 0.82414 0.53029 0.0
C426 C 0.79567 0.78687 0.55177 0.0
C427 C 0.73747 0.78384 0.58068 0.0
C428 C 0.82103 0.79896 0.56985 0.0
C429 C 0.84132 0.78013 0.57339 0.0
C430 C 0.83673 0.74946 0.55874 0.0
C431 C 0.81225 0.73799 0.54045 0.0
C432 C 0.79193 0.7567 0.53693 0.0
H433 H 0.70945 0.77766 0.58644 0.0
H434 H 0.73708 0.75604 0.57707 0.0
H435 H 0.76037 0.80223 0.59349 0.0
H436 H 0.82484 0.82267 0.58129 0.0
H437 H 0.85991 0.78899 0.58769 0.0
H438 H 0.85481 0.62903 0.81608 0.0
H439 H 0.91439 0.62813 0.81286 0.0
H440 H 0.98 0.74904 0.83902 0.0
H441 H 0.92037 0.74962 0.84355 0.0
H442 H 0.98441 0.66862 0.79521 0.0
H443 H 1.00311 0.69643 0.88243 0.0
H444 H 0.95944 0.68583 0.86806 0.0
H445 H 1.00206 0.73276 0.86917 0.0
C446 C 0.88189 0.6555 0.82112 0.0
C447 C 0.88274 0.68905 0.83066 0.0
C448 C 0.91597 0.6551 0.81896 0.0
C449 C 0.95152 0.68831 0.82611 0.0
C450 C 0.95276 0.72291 0.83377 0.0
H451 H 0.12262 0.6374 0.87035 0.0
H452 H 0.10521 0.6805 0.85554 0.0
C453 C 0.9186 0.72322 0.8362 0.0
C454 C 0.98589 0.68443 0.82833 0.0
H455 H 1.04021 0.67488 0.86558 0.0
C456 C 0.99739 0.67088 0.81055 0.0
C457 C 1.00302 0.68773 0.84836 0.0
C458 C 0.99127 0.70124 0.86814 0.0
C459 C 1.02348 0.65779 0.81241 0.0
C460 C 1.03784 0.65784 0.83255 0.0
C461 C 1.02915 0.67482 0.85014 0.0
C462 C 1.05526 0.63411 0.83636 0.0
C463 C 1.03403 0.64246 0.79286 0.0
C464 C 1.03384 0.59391 0.82987 0.0
C465 C 1.04367 0.56933 0.83832 0.0
C466 C 1.07485 0.58451 0.85358 0.0
C467 C 0.09814 0.62496 0.8588 0.0
C468 C 0.08842 0.64959 0.85023 0.0
H469 H 1.03485 0.65855 0.77981 0.0
H470 H 1.06239 0.64464 0.79537 0.0
H471 H 1.01177 0.61155 0.78805 0.0
H472 H 1.00754 0.5811 0.81968 0.0
H473 H 1.02495 0.53828 0.83417 0.0
H474 H 0.23966 0.88555 0.15513 0.0
H475 H 0.30094 0.9435 0.1521 0.0
H476 H 0.34113 0.87254 0.11989 0.0
H477 H 0.27902 0.81496 0.12135 0.0
H478 H 0.35696 0.94999 0.17391 0.0
H479 H 0.40449 0.96795 0.09511 0.0
H480 H 0.35429 0.93837 0.09933 0.0
H481 H 0.3853 0.91805 0.09798 0.0
C482 C 0.26073 0.88235 0.14641 0.0
C483 C 0.25478 0.8454 0.13901 0.0
C484 C 0.29593 0.91567 0.14473 0.0
C485 C 0.32595 0.91259 0.13591 0.0
C486 C 0.31849 0.87608 0.12649 0.0
H487 H 0.53262 0.94702 0.16838 0.0
H488 H 0.47666 0.93995 0.14877 0.0
C489 C 0.28308 0.84288 0.12778 0.0
C490 C 0.36649 0.94425 0.14133 0.0
H491 H 0.45517 0.98059 0.12305 0.0
C492 C 0.37835 0.95801 0.16266 0.0
C493 C 0.39455 0.95499 0.12674 0.0
C494 C 0.38376 0.94428 0.10351 0.0
C495 C 0.41727 0.97787 0.17004 0.0
C496 C 0.4452 0.98485 0.15561 0.0
C497 C 0.43367 0.97484 0.1341 0.0
C498 C 0.48455 0.99503 0.16291 0.0
C499 C 0.42771 0.9875 0.1934 0.0
C500 C 0.50867 1.02929 0.17651 0.0
C501 C 0.54038 1.03309 0.18801 0.0
C502 C 0.5487 1.003 0.1857 0.0
C503 C 0.52685 0.97063 0.17046 0.0
C504 C 0.49494 0.96664 0.15919 0.0
H505 H 0.40196 0.97576 0.20241 0.0
H506 H 0.44584 0.97566 0.19816 0.0
H507 H 0.4444 1.01945 0.19784 0.0
H508 H 0.50147 0.05181 0.1793 0.0
H509 H 0.5573 0.05868 0.19941 0.0
H510 H 0.54024 0.29333 0.49918 0.0
H511 H 0.57792 0.36243 0.49818 0.0
H512 H 0.61982 0.34206 0.44008 0.0
H513 H 0.58139 0.27203 0.44082 0.0
H514 H 0.67698 0.38452 0.46964 0.0
H515 H 0.5857 0.44951 0.47006 0.0
H516 H 0.56983 0.41564 0.4885 0.0
H517 H 0.56684 0.39859 0.4611 0.0
C518 C 0.55591 0.3032 0.48563 0.0
C519 C 0.55812 0.27705 0.47021 0.0
C520 C 0.57748 0.34299 0.48503 0.0
C521 C 0.60156 0.35755 0.46897 0.0
C522 C 0.60132 0.33145 0.45258 0.0
H523 H 0.76098 0.60338 0.51772 0.0
H524 H 0.72235 0.54959 0.48954 0.0
C525 C 0.57958 0.29147 0.45312 0.0
C526 C 0.63231 0.39893 0.47207 0.0
H527 H 0.64718 0.48736 0.49291 0.0
C528 C 0.67058 0.40736 0.47398 0.0
C529 C 0.62432 0.42905 0.47735 0.0
C530 C 0.58439 0.42269 0.47389 0.0
C531 C 0.70021 0.44371 0.4835 0.0
C532 C 0.69116 0.47198 0.49147 0.0
C533 C 0.65391 0.46528 0.48719 0.0
C534 C 0.71765 0.50513 0.50725 0.0
C535 C 0.74048 0.45062 0.48624 0.0
C536 C 0.72755 0.49776 0.52646 0.0
C537 C 0.7492 0.52815 0.54249 0.0
C538 C 0.7614 0.5665 0.53961 0.0
C539 C 0.75225 0.57404 0.52021 0.0
C540 C 0.73018 0.54345 0.50417 0.0
H541 H 0.74553 0.43321 0.47349 0.0
H542 H 0.76238 0.48176 0.48653 0.0
H543 H 0.74442 0.44153 0.50125 0.0
H544 H 0.71745 0.46829 0.5293 0.0
H545 H 0.75595 0.52162 0.55728 0.0
H546 H 0.39219 0.57399 0.75711 0.0
H547 H 0.32728 0.56309 0.74966 0.0
H548 H 0.27885 0.45396 0.77392 0.0
H549 H 0.34275 0.46404 0.78075 0.0
H550 H 0.23073 0.45086 0.74263 0.0
H551 H 0.28194 0.58418 0.80067 0.0
H552 H 0.30466 0.58944 0.77671 0.0
H553 H 0.31155 0.56312 0.79542 0.0
C554 C 0.36751 0.54729 0.76035 0.0
C555 C 0.37253 0.5201 0.76975 0.0
C556 C 0.33053 0.54113 0.75612 0.0
C557 C 0.29832 0.50818 0.76173 0.0
C558 C 0.30323 0.4796 0.76944 0.0
H559 H 0.11293 0.41297 0.82439 0.0
H560 H 0.15661 0.42447 0.79685 0.0
C561 C 0.33992 0.48544 0.77336 0.0
C562 C 0.26045 0.50543 0.76304 0.0
H563 H 0.21641 0.54134 0.79508 0.0
C564 C 0.22748 0.4712 0.75363 0.0
C565 C 0.25617 0.53216 0.77726 0.0
C566 C 0.29032 0.56922 0.78821 0.0
C567 C 0.19076 0.46116 0.75968 0.0
C568 C 0.18713 0.486 0.77549 0.0
C569 C 0.21939 0.52223 0.78304 0.0
C570 C 0.15285 0.47254 0.78744 0.0
C571 C 0.15655 0.42305 0.75004 0.0
C572 C 0.13563 0.4952 0.79106 0.0
C573 C 0.11088 0.48872 0.80689 0.0
C574 C 0.10325 0.45965 0.81929 0.0
C575 C 0.11823 0.43527 0.81479 0.0
C576 C 0.14289 0.44166 0.79894 0.0
H577 H 0.16067 0.41509 0.73367 0.0
H578 H 0.15338 0.39988 0.75906 0.0
H579 H 0.12959 0.42409 0.75019 0.0
H580 H 0.14332 0.51946 0.78257 0.0
H581 H 0.09971 0.50797 0.81016 0.0
H582 H 0.87335 0.33152 0.17258 0.0
H583 H 0.82224 0.26385 0.17041 0.0
H584 H 0.81799 0.25167 0.10311 0.0
H585 H 0.86921 0.3197 0.10514 0.0
H586 H 0.74645 0.21572 0.14927 0.0
H587 H 0.85326 0.17704 0.11977 0.0
H588 H 0.86721 0.22581 0.13095 0.0
H589 H 0.84285 0.20669 0.10518 0.0
C590 C 0.86076 0.31487 0.1573 0.0
C591 C 0.87567 0.3307 0.13904 0.0
C592 C 0.83164 0.27616 0.15608 0.0
C593 C 0.817 0.25271 0.13661 0.0
C594 C 0.8295 0.26922 0.11827 0.0
H595 H 0.64945 1.00968 0.14956 0.0
H596 H 0.6803 0.06704 0.13137 0.0
C597 C 0.85871 0.30798 0.11948 0.0
C598 C 0.79219 0.21036 0.13598 0.0
H599 H 0.79603 0.12716 0.12974 0.0
C600 C 0.75671 0.19603 0.14455 0.0
C601 C 0.80606 0.18504 0.1299 0.0
C602 C 0.8445 0.19923 0.12103 0.0
C603 C 0.73565 0.15741 0.14835 0.0
C604 C 0.75046 0.1326 0.1432 0.0
C605 C 0.7848 0.14633 0.1335 0.0
C606 C 0.73406 0.09472 0.15087 0.0
C607 C 0.69919 0.14424 0.15921 0.0
C608 C 0.75491 0.09055 0.16702 0.0
C609 C 0.73749 0.0579 0.17726 0.0
C610 C 0.69923 1.02901 0.17131 0.0
C611 C 0.67921 1.03169 0.1542 0.0
C612 C 0.69663 0.06443 0.14394 0.0
H613 H 0.69432 0.16854 0.16443 0.0
H614 H 0.6742 0.1222 0.14833 0.0
H615 H 0.70019 0.13056 0.17303 0.0
H616 H 0.78382 0.11371 0.17259 0.0
H617 H 0.75307 0.05647 0.19066 0.0
H618 H 0.09197 0.64852 0.09778 0.0
H619 H 0.09342 0.64317 0.05958 0.0
H620 H 0.09963 0.53939 0.05901 0.0
H621 H 0.09837 0.54436 0.09686 0.0
H622 H 0.15267 0.63108 0.03286 0.0
H623 H 0.9986 0.51407 0.02023 0.0
H624 H 1.01838 0.54887 0.04377 0.0
H625 H 1.02824 0.51002 0.03982 0.0
C626 C 0.09399 0.62478 0.08953 0.0
C627 C 0.09474 0.59671 0.10035 0.0
C628 C 0.09488 0.62183 0.06777 0.0
C629 C 0.09634 0.59073 0.05662 0.0
C630 C 0.09828 0.56345 0.06741 0.0
H631 H 0.12853 0.53046 0.9288 0.0
H632 H 0.13275 0.54508 0.96701 0.0
C633 C 0.09754 0.5664 0.08906 0.0
C634 C 0.09408 0.58534 0.03358 0.0
H635 H 1.03429 0.52685 0.99062 0.0
C636 C 0.12679 0.60854 0.02355 0.0
C637 C 1.06018 0.55594 0.02162 0.0
C638 C 1.02416 0.53084 0.0318 0.0
C639 C 0.12665 0.60246 0.00171 0.0
C640 C 0.09303 0.57229 0.9898 0.0
C641 C 1.06009 0.54974 -0.00015 0.0
C642 C 0.09112 0.56388 0.96681 0.0
C643 C 0.16227 0.62839 0.99151 0.0
C644 C 1.0657 0.56879 0.9542 0.0
C645 C 1.06311 0.56032 0.9325 0.0
C646 C 0.08571 0.5465 0.92302 0.0
C647 C 0.11071 0.54095 0.93571 0.0
C648 C 0.11343 0.54966 0.95747 0.0
H649 H 0.18261 0.65508 0.00226 0.0
H650 H 0.17728 0.6124 0.98683 0.0
H651 H 0.1546 0.63688 0.9772 0.0
H652 H 1.04796 0.57935 0.96117 0.0
H653 H 1.04318 0.56433 0.92313 0.0
H654 H 0.52824 0.06636 0.42879 0.0
H655 H 0.52905 0.05882 0.39064 0.0
H656 H 0.63782 0.06334 0.39709 0.0
H657 H 0.63761 0.07133 0.43495 0.0
H658 H 0.63509 0.10907 0.36824 0.0
H659 H 0.50968 0.95832 0.35466 0.0
H660 H 0.50168 0.99403 0.36916 0.0
H661 H 0.53457 0.98172 0.38022 0.0
C662 C 0.55238 0.06589 0.42207 0.0
C663 C 0.58271 0.06916 0.43492 0.0
C664 C 0.55269 0.0614 0.4003 0.0
C665 C 0.58325 0.06001 0.3911 0.0
C666 C 0.61392 0.06422 0.4039 0.0
H667 H 0.60264 0.9687 0.26816 0.0
H668 H 0.5987 0.98325 0.30553 0.0
C669 C 0.61366 0.06869 0.42557 0.0
C670 C 0.58353 0.05368 0.36815 0.0
H671 H 0.53862 0.98599 0.32493 0.0
C672 C 0.61387 0.0823 0.3587 0.0
C673 C 0.55607 1.01847 0.3559 0.0
C674 C 0.52378 0.98616 0.36544 0.0
C675 C 0.61776 0.07651 0.3373 0.0
C676 C 0.59018 1.04139 0.32502 0.0
C677 C 0.55961 1.01293 0.33443 0.0
C678 C 0.5931 1.03317 0.30247 0.0
C679 C 0.65201 0.10748 0.32817 0.0
C680 C 0.59114 0.05639 0.28844 0.0
C681 C 0.59378 1.04842 0.26717 0.0
C682 C 0.59804 1.01681 0.25949 0.0
C683 C 0.59988 0.99354 0.27361 0.0
C684 C 0.59732 1.0016 0.29492 0.0
H685 H 0.67511 0.12806 0.34048 0.0
H686 H 0.66415 0.0944 0.31695 0.0
H687 H 0.64279 0.12429 0.31962 0.0
H688 H 0.58732 0.08055 0.29393 0.0
H689 H 0.59266 0.06715 0.25673 0.0
H690 H 0.71359 0.6467 0.78358 0.0
H691 H 0.73241 0.64595 0.74806 0.0
H692 H 0.61284 0.57922 0.72413 0.0
H693 H 0.59375 0.58136 0.75985 0.0
H694 H 0.72039 0.58676 0.72116 0.0
H695 H 0.65328 0.66124 0.68651 0.0
H696 H 0.65684 0.65993 0.71423 0.0
H697 H 0.61976 0.61864 0.6972 0.0
C698 C 0.69124 0.63214 0.77075 0.0
C699 C 0.65219 0.61412 0.77446 0.0
C700 C 0.70205 0.63169 0.75044 0.0
C701 C 0.6741 0.61285 0.73336 0.0
C702 C 0.63495 0.59476 0.73699 0.0
H703 H 0.74654 0.55977 0.61326 0.0
H704 H 0.71606 0.55389 0.6459 0.0
C705 C 0.62407 0.59581 0.75739 0.0
C706 C 0.68655 0.61121 0.712 0.0
H707 H 0.68218 0.63547 0.66347 0.0
C708 C 0.71202 0.59742 0.70854 0.0
C709 C 0.67584 0.62537 0.69559 0.0
C710 C 0.65023 0.64248 0.69856 0.0
C711 C 0.72782 0.59824 0.68936 0.0
C712 C 0.71664 0.6118 0.67282 0.0
C713 C 0.69055 0.62486 0.67612 0.0
C714 C 0.73317 0.61456 0.65234 0.0
C715 C 0.75756 0.58611 0.68739 0.0
C716 C 0.7515 0.65022 0.64458 0.0
C717 C 0.76792 0.65344 0.62555 0.0
C718 C 0.76673 0.62111 0.61393 0.0
C719 C 0.7479 0.58527 0.62166 0.0
C720 C 0.7309 0.58196 0.64052 0.0
H721 H 0.77084 0.58749 0.70293 0.0
H722 H 0.74354 0.55567 0.67959 0.0
H723 H 0.7808 0.60475 0.67795 0.0
H724 H 0.75336 0.67573 0.65333 0.0
H725 H 0.78118 0.68127 0.6199 0.0
H726 H 0.55414 0.11223 0.57221 0.0
H727 H 0.55763 0.11599 0.61043 0.0
H728 H 0.61463 1.04971 0.60712 0.0
H729 H 0.61118 1.04556 0.56905 0.0
H730 H 0.52825 1.04958 0.63545 0.0
H731 H 0.6863 0.15144 0.649 0.0
H732 H 0.6588 0.14624 0.62522 0.0
H733 H 0.6702 0.10972 0.62945 0.0
C734 C 0.56743 0.09843 0.57958 0.0
C735 C 0.58245 0.07868 0.56744 0.0
C736 C 0.56933 0.10057 0.60144 0.0
C737 C 0.58673 0.08346 0.61166 0.0
C738 C 0.60146 0.0635 0.59961 0.0
H739 H 0.64404 0.09002 0.74436 0.0
H740 H 0.63617 0.07685 0.70604 0.0
C741 C 0.5993 0.06105 0.57778 0.0
C742 C 0.5894 0.08631 0.6349 0.0
H743 H 0.65338 0.12705 0.67843 0.0
C744 C 0.55557 0.06656 0.64487 0.0
C745 C 0.6251 0.10808 0.64716 0.0
C746 C 0.66226 0.13036 0.63728 0.0
C747 C 0.5565 0.06779 0.66676 0.0
C748 C 0.59217 0.09034 0.67913 0.0
C749 C 0.62604 0.10974 0.66907 0.0
C750 C 0.59491 0.09558 0.70251 0.0
C751 C 0.51926 1.04417 0.67632 0.0
C752 C 0.57428 0.11031 0.71343 0.0
C753 C 0.57835 0.11736 0.7353 0.0
C754 C 0.60371 0.11056 0.74693 0.0
C755 C 0.62397 0.09525 0.736 0.0
C756 C 0.61971 0.088 0.71405 0.0
H757 H 0.49781 1.01916 0.66497 0.0
H758 H 0.52386 1.03303 0.69041 0.0
H759 H 0.50682 0.06267 0.68094 0.0
H760 H 0.55562 0.11728 0.70503 0.0
H761 H 0.56187 0.12867 0.7431 0.0
H762 H 0.6517 0.66622 0.91204 0.0
H763 H 0.64517 0.66031 0.94911 0.0
H764 H 0.54756 0.54463 0.93346 0.0
H765 H 0.55353 0.55046 0.89614 0.0
H766 H 0.53674 0.58778 0.96687 0.0
H767 H 0.6771 0.59629 0.97969 0.0
H768 H 0.68062 0.63664 0.96849 0.0
H769 H 0.65431 0.58869 0.95391 0.0
C770 C 0.62867 0.6395 0.91639 0.0
C771 C 0.60332 0.60869 0.90098 0.0
C772 C 0.62512 0.63611 0.93767 0.0
C773 C 0.59636 0.60174 0.94416 0.0
C774 C 0.57016 0.57137 0.92888 0.0
H775 H 0.60504 0.54125 0.06866 0.0
H776 H 0.601 0.54247 0.03099 0.0
C777 C 0.57363 0.57475 0.90751 0.0
C778 C 0.59424 0.59744 0.96684 0.0
H779 H 0.64661 0.60064 0.01006 0.0
C780 C 0.56069 0.59043 0.97631 0.0
C781 C 0.62524 0.60031 0.97916 0.0
C782 C 0.66121 0.60551 0.96979 0.0
C783 C 0.55767 0.58708 -0.00222 0.0
C784 C 0.58926 0.59142 0.01025 0.0
C785 C 0.62247 0.59767 0.00064 0.0
C786 C 0.58858 0.58903 0.03318 0.0
C787 C 0.52039 0.57823 0.0068 0.0
C788 C 0.58264 0.61456 0.04714 0.0
C789 C 0.58486 0.61385 0.06879 0.0
C790 C 0.59358 0.58793 0.077 0.0
C791 C 0.59874 0.56192 0.06294 0.0
C792 C 0.59634 0.56252 0.04135 0.0
H793 H 0.496 0.565 0.99447 0.0
H794 H 0.51347 0.55824 0.01866 0.0
H795 H 0.52312 0.60561 0.01451 0.0
H796 H 0.57747 0.63591 0.04136 0.0
H797 H 0.58121 0.6346 0.07916 0.0
H798 H 1.03852 0.52409 0.22722 0.0
H799 H 1.03569 0.52076 0.26483 0.0
H800 H 0.09697 0.64558 0.27752 0.0
H801 H 0.10015 0.6493 0.24001 0.0
H802 H 0.10113 0.55634 0.29686 0.0
H803 H 0.99946 0.60951 0.3108 0.0
H804 H 1.00416 0.59032 0.28511 0.0
H805 H 1.03965 0.63866 0.29662 0.0
C806 C 1.05124 0.5509 0.23797 0.0
C807 C 1.06948 0.587 0.23046 0.0
C808 C 1.04965 0.5489 0.2595 0.0
C809 C 1.06574 0.58289 0.27403 0.0
C810 C 0.08387 0.61893 0.26662 0.0
H811 H 0.09694 0.64922 0.40758 0.0
H812 H 0.0893 0.6433 0.3696 0.0
C813 C 0.08581 0.62099 0.24512 0.0
C814 C 1.06454 0.58081 0.29695 0.0
H815 H 1.03 0.60374 0.34077 0.0
C816 C 0.08532 0.56637 0.30647 0.0
C817 C 1.044 0.594 0.30948 0.0
C818 C 1.02025 0.60874 0.30004 0.0
C819 C 0.08728 0.56607 0.32825 0.0
C820 C 1.06693 0.57954 0.34088 0.0
C821 C 1.04554 0.5933 0.33122 0.0
C822 C 1.06934 0.5819 0.36421 0.0
C823 C 0.11254 0.55289 0.33758 0.0
C824 C 1.0596 0.54915 0.37413 0.0
C825 C 1.06447 0.55257 0.39602 0.0
C826 C 0.07891 0.58879 0.40852 0.0
C827 C 0.08664 0.62102 0.39853 0.0
C828 C 0.08201 0.61763 0.37673 0.0
H829 H 0.13375 0.55335 0.32675 0.0
H830 H 0.12844 0.5715 0.3525 0.0
H831 H 0.09433 0.52265 0.34083 0.0
H832 H 1.04869 0.52097 0.36494 0.0
H833 H 1.05815 0.5271 0.40309 0.0
loop_
_geom_bond_atom_site_label_1
_geom_bond_atom_site_label_2
_geom_bond_distance
_geom_bond_site_symmetry_2
_ccdc_geom_bond_type
Eu0 C9 2.828 . S
Eu0 O11 2.392 1_655 S
Eu0 O13 2.418 . S
Eu0 O18 2.373 . S
Eu0 O21 2.488 . S
Eu0 O22 2.471 . S
Eu0 O23 2.349 1_655 S
Eu1 O10 2.373 . S
Eu1 O14 2.488 . S
Eu1 O15 2.471 . S
Eu1 O16 2.349 . S
Eu1 O19 2.392 1_455 S
Eu1 O20 2.418 . S
Eu1 C30 2.828 . S
C2 O20 1.244 . S
C2 O23 1.265 . S
C3 C4 1.379 . S
C3 C7 1.373 . S
C3 C9 1.505 . S
C4 C3 1.379 . S
C4 C6 1.369 . S
C4 H32 0.930 . S
C5 C7 1.383 . S
C5 C8 1.382 . S
C5 H33 0.930 . S
C6 C4 1.369 . S
C6 C8 1.392 . S
C6 H34 0.930 . S
C7 C3 1.373 . S
C7 C5 1.383 . S
C7 H35 0.931 . S
C8 C5 1.382 . S
C8 C6 1.392 . S
C9 Eu0 2.828 . S
C9 C3 1.505 . S
C9 O21 1.249 . S
C9 O22 1.244 . S
O10 Eu1 2.373 . S
O10 C12 1.258 . S
O11 Eu0 2.392 1_455 S
O11 C12 1.242 . S
C12 O10 1.258 . S
C12 O11 1.242 . S
O13 Eu0 2.418 . S
O13 C17 1.244 1_655 S
O14 Eu1 2.488 . S
O14 C30 1.249 . S
O15 Eu1 2.471 . S
O15 C30 1.244 . S
O16 Eu1 2.349 . S
O16 C17 1.265 . S
C17 O13 1.244 1_455 S
C17 O16 1.265 . S
O18 Eu0 2.373 . S
O18 C31 1.258 . S
O19 Eu1 2.392 1_655 S
O19 C31 1.242 . S
O20 Eu1 2.418 . S
O20 C2 1.244 . S
O21 Eu0 2.488 . S
O21 C9 1.249 . S
O22 Eu0 2.471 . S
O22 C9 1.244 . S
O23 Eu0 2.349 1_455 S
O23 C2 1.265 . S
C24 C25 1.379 . S
C24 C28 1.373 . S
C24 C30 1.505 . S
C25 C24 1.379 . S
C25 C27 1.369 . S
C25 H36 0.930 . S
C26 C28 1.383 . S
C26 C29 1.382 . S
C26 H37 0.930 . S
C27 C25 1.369 . S
C27 C29 1.392 . S
C27 H38 0.930 . S
C28 C24 1.373 . S
C28 C26 1.383 . S
C28 H39 0.931 . S
C29 C26 1.382 . S
C29 C27 1.392 . S
C30 Eu1 2.828 . S
C30 O14 1.249 . S
C30 O15 1.244 . S
C30 C24 1.505 . S
C31 O18 1.258 . S
C31 O19 1.242 . S
H32 C4 0.930 . S
H33 C5 0.930 . S
H34 C6 0.930 . S
H35 C7 0.931 . S
H36 C25 0.930 . S
H37 C26 0.930 . S
H38 C27 0.930 . S
H39 C28 0.931 . S
Eu40 C49 2.828 1_545 S
Eu40 O51 2.392 . S
Eu40 O53 2.414 . S
Eu40 O58 2.373 1_545 S
Eu40 O61 2.488 1_545 S
Eu40 O62 2.471 1_545 S
Eu40 O63 2.349 . S
Eu41 O50 2.373 . S
Eu41 O54 2.488 . S
Eu41 O55 2.471 . S
Eu41 O56 2.349 . S
Eu41 O59 2.392 1_545 S
Eu41 O60 2.418 . S
Eu41 C70 2.828 . S
C42 O60 1.244 . S
C42 O63 1.265 . S
C43 C44 1.379 . S
C43 C47 1.373 . S
C43 C49 1.505 . S
C44 C43 1.379 . S
C44 C46 1.369 . S
C44 H72 0.930 . S
C45 C47 1.383 . S
C45 C48 1.382 . S
C45 H73 0.930 . S
C46 C44 1.369 . S
C46 C48 1.392 . S
C46 H74 0.930 . S
C47 C43 1.373 . S
C47 C45 1.383 . S
C47 H75 0.931 . S
C48 C45 1.382 . S
C48 C46 1.392 . S
C49 Eu40 2.828 1_565 S
C49 C43 1.505 . S
C49 O61 1.249 . S
C49 O62 1.244 . S
O50 Eu41 2.373 . S
O50 C52 1.258 . S
O51 Eu40 2.392 . S
O51 C52 1.242 . S
C52 O50 1.258 . S
C52 O51 1.242 . S
O53 Eu40 2.414 . S
O53 C57 1.258 . S
O54 Eu41 2.488 . S
O54 C70 1.249 . S
O55 Eu41 2.471 . S
O55 C70 1.244 . S
O56 Eu41 2.349 . S
O56 C57 1.265 . S
C57 O53 1.258 . S
C57 O56 1.265 . S
O58 Eu40 2.373 1_565 S
O58 C71 1.258 . S
O59 Eu41 2.392 1_565 S
O59 C71 1.242 . S
O60 Eu41 2.418 . S
O60 C42 1.244 . S
O61 Eu40 2.488 1_565 S
O61 C49 1.249 . S
O62 Eu40 2.471 1_565 S
O62 C49 1.244 . S
O63 Eu40 2.349 . S
O63 C42 1.265 . S
C64 C65 1.379 . S
C64 C68 1.373 . S
C64 C70 1.505 . S
C65 C64 1.379 . S
C65 C67 1.369 . S
C65 H76 0.930 . S
C66 C68 1.383 . S
C66 C69 1.382 . S
C66 H77 0.930 . S
C67 C65 1.369 . S
C67 C69 1.392 . S
C67 H78 0.930 . S
C68 C64 1.373 . S
C68 C66 1.383 . S
C68 H79 0.931 . S
C69 C66 1.382 . S
C69 C67 1.392 . S
C70 Eu41 2.828 . S
C70 O54 1.249 . S
C70 O55 1.244 . S
C70 C64 1.505 . S
C71 O58 1.258 . S
C71 O59 1.242 . S
H72 C44 0.930 . S
H73 C45 0.930 . S
H74 C46 0.930 . S
H75 C47 0.931 . S
H76 C65 0.930 . S
H77 C66 0.930 . S
H78 C67 0.930 . S
H79 C68 0.931 . S
Eu80 C89 2.828 . S
Eu80 O91 2.392 . S
Eu80 O93 2.418 . S
Eu80 O98 2.373 . S
Eu80 O101 2.488 . S
Eu80 O102 2.471 . S
Eu80 O103 2.349 . S
Eu81 O90 2.373 . S
Eu81 O94 2.488 . S
Eu81 O95 2.471 . S
Eu81 O96 2.349 . S
Eu81 O99 2.392 . S
Eu81 O100 2.418 . S
Eu81 C110 2.828 . S
C82 O100 1.244 . S
C82 O103 1.265 . S
C83 C84 1.379 . S
C83 C87 1.373 . S
C83 C89 1.505 . S
C84 C83 1.379 . S
C84 C86 1.369 . S
C84 H112 0.930 . S
C85 C87 1.383 . S
C85 C88 1.382 . S
C85 H113 0.930 . S
C86 C84 1.369 . S
C86 C88 1.392 . S
C86 H114 0.930 . S
C87 C83 1.373 . S
C87 C85 1.383 . S
C87 H115 0.931 . S
C88 C85 1.382 . S
C88 C86 1.392 . S
C89 Eu80 2.828 . S
C89 C83 1.505 . S
C89 O101 1.249 . S
C89 O102 1.244 . S
O90 Eu81 2.373 . S
O90 C92 1.258 . S
O91 Eu80 2.392 . S
O91 C92 1.242 . S
C92 O90 1.258 . S
C92 O91 1.242 . S
O93 Eu80 2.418 . S
O93 C97 1.244 . S
O94 Eu81 2.488 . S
O94 C110 1.249 . S
O95 Eu81 2.471 . S
O95 C110 1.244 . S
O96 Eu81 2.349 . S
O96 C97 1.265 . S
C97 O93 1.244 . S
C97 O96 1.265 . S
O98 Eu80 2.373 . S
O98 C111 1.258 . S
O99 Eu81 2.392 . S
O99 C111 1.242 . S
O100 Eu81 2.418 . S
O100 C82 1.244 . S
O101 Eu80 2.488 . S
O101 C89 1.249 . S
O102 Eu80 2.471 . S
O102 C89 1.244 . S
O103 Eu80 2.349 . S
O103 C82 1.265 . S
C104 C105 1.379 . S
C104 C108 1.373 . S
C104 C110 1.505 . S
C105 C104 1.379 . S
C105 C107 1.369 . S
C105 H116 0.930 . S
C106 C108 1.383 . S
C106 C109 1.382 . S
C106 H117 0.930 . S
C107 C105 1.369 . S
C107 C109 1.392 . S
C107 H118 0.930 . S
C108 C104 1.373 . S
C108 C106 1.383 . S
C108 H119 0.931 . S
C109 C106 1.382 . S
C109 C107 1.392 . S
C110 Eu81 2.828 . S
C110 O94 1.249 . S
C110 O95 1.244 . S
C110 C104 1.505 . S
C111 O98 1.258 . S
C111 O99 1.242 . S
H112 C84 0.930 . S
H113 C85 0.930 . S
H114 C86 0.930 . S
H115 C87 0.931 . S
H116 C105 0.930 . S
H117 C106 0.930 . S
H118 C107 0.930 . S
H119 C108 0.931 . S
H120 C123 0.929 1_565 S
H121 C126 0.929 . S
H122 C128 0.930 . S
C123 H120 0.929 1_545 S
C123 C124 1.398 . S
C123 C125 1.396 . S
C124 C123 1.398 . S
C124 C128 1.407 . S
C125 C123 1.396 . S
C125 C126 1.394 . S
C126 H121 0.929 . S
C126 C125 1.394 . S
C126 C127 1.382 . S
C127 C126 1.382 . S
C127 C128 1.392 . S
C127 N129 1.420 . S
C128 H122 0.930 . S
C128 C124 1.407 . S
C128 C127 1.392 . S
N129 C127 1.420 . S
N129 C130 1.244 . S
C130 N129 1.244 . S
H131 C134 0.929 . S
H132 C137 0.929 . S
H133 C139 0.930 . S
C134 H131 0.929 . S
C134 C135 1.398 . S
C134 C136 1.396 . S
C135 C134 1.398 . S
C135 C139 1.407 . S
C136 C134 1.396 . S
C136 C137 1.394 . S
C137 H132 0.929 . S
C137 C136 1.394 . S
C137 C138 1.382 . S
C138 C137 1.382 . S
C138 C139 1.392 . S
C138 N140 1.420 . S
C139 H133 0.930 . S
C139 C135 1.407 . S
C139 C138 1.392 . S
N140 C138 1.420 . S
N140 C141 1.244 . S
C141 N140 1.244 . S
H142 C145 0.929 . S
H143 C148 0.929 . S
H144 C150 0.930 . S
C145 H142 0.929 . S
C145 C146 1.398 . S
C145 C147 1.396 . S
C146 C145 1.398 . S
C146 C150 1.407 . S
C147 C145 1.396 . S
C147 C148 1.394 . S
C148 H143 0.929 . S
C148 C147 1.394 . S
C148 C149 1.382 . S
C149 C148 1.382 . S
C149 C150 1.392 . S
C149 N151 1.420 . S
C150 H144 0.930 . S
C150 C146 1.407 . S
C150 C149 1.392 . S
N151 C149 1.420 . S
N151 C152 1.244 . S
C152 N151 1.244 . S
H153 C156 0.929 . S
H154 C159 0.929 1_655 S
H155 C161 0.930 . S
C156 H153 0.929 . S
C156 C157 1.398 . S
C156 C158 1.396 . S
C157 C156 1.398 . S
C157 C161 1.407 . S
C158 C156 1.396 . S
C158 C159 1.394 . S
C159 H154 0.929 1_455 S
C159 C158 1.394 . S
C159 C160 1.382 . S
C160 C159 1.382 . S
C160 C161 1.392 . S
C160 N162 1.420 1_455 S
C161 H155 0.930 . S
C161 C157 1.407 . S
C161 C160 1.392 . S
N162 C160 1.420 1_655 S
N162 C163 1.244 . S
C163 N162 1.244 . S
H164 C167 0.929 . S
H165 C170 0.929 1_565 S
H166 C172 0.930 . S
C167 H164 0.929 . S
C167 C168 1.398 . S
C167 C169 1.396 . S
C168 C167 1.398 . S
C168 C172 1.407 . S
C169 C167 1.396 . S
C169 C170 1.394 . S
C170 H165 0.929 1_545 S
C170 C169 1.394 . S
C170 C171 1.382 . S
C171 C170 1.382 . S
C171 C172 1.392 . S
C171 N173 1.446 . S
C172 H166 0.930 . S
C172 C168 1.407 . S
C172 C171 1.392 . S
N173 C171 1.446 . S
N173 C174 1.218 1_545 S
C174 N173 1.218 1_565 S
H175 C178 0.929 . S
H176 C181 0.929 . S
H177 C183 0.930 . S
C178 H175 0.929 . S
C178 C179 1.398 . S
C178 C180 1.396 . S
C179 C178 1.398 . S
C179 C183 1.407 . S
C180 C178 1.396 . S
C180 C181 1.394 . S
C181 H176 0.929 . S
C181 C180 1.394 . S
C181 C182 1.382 . S
C182 C181 1.382 . S
C182 C183 1.392 . S
C182 N184 1.420 . S
C183 H177 0.930 . S
C183 C179 1.407 . S
C183 C182 1.392 . S
N184 C182 1.420 . S
N184 C185 1.244 . S
C185 N184 1.244 . S
H186 C194 0.929 . S
H187 C196 0.930 . S
H188 C198 0.930 . S
H189 C201 0.929 . S
H190 C204 0.930 . S
H191 C206 0.960 . S
H192 C206 0.960 . S
H193 C206 0.960 . S
C194 H186 0.929 . S
C194 C195 1.377 . S
C194 C196 1.384 . S
C195 C194 1.377 . S
C195 C201 1.390 . S
C196 H187 0.930 . S
C196 C194 1.384 . S
C196 C197 1.372 . S
C197 C196 1.372 . S
C197 C198 1.400 . S
C197 C202 1.490 . S
C198 H188 0.930 . S
C198 C197 1.400 . S
C198 C201 1.386 . S
H199 C215 0.930 . S
H200 C216 0.931 . S
C201 H189 0.929 . S
C201 C195 1.390 . S
C201 C198 1.386 . S
C202 C197 1.490 . S
C202 C204 1.395 . S
C202 C205 1.403 . S
H203 C209 0.930 . S
C204 H190 0.930 . S
C204 C202 1.395 . S
C204 C207 1.403 . S
C205 C202 1.403 . S
C205 C206 1.524 . S
C205 C209 1.400 . S
C206 H191 0.960 . S
C206 H192 0.960 . S
C206 H193 0.960 . S
C206 C205 1.524 . S
C207 C204 1.403 . S
C207 C208 1.392 . S
C207 C211 1.495 . S
C208 C207 1.392 . S
C208 C209 1.385 . S
C208 C210 1.478 . S
C209 H203 0.930 . S
C209 C205 1.400 . S
C209 C208 1.385 . S
C210 C208 1.478 . S
C210 C212 1.381 . S
C210 C216 1.383 . S
C211 C207 1.495 . S
C211 H217 0.959 . S
C211 H218 0.961 . S
C211 H219 0.960 . S
C212 C210 1.381 . S
C212 C213 1.394 . S
C212 H220 0.930 . S
C213 C212 1.394 . S
C213 C214 1.383 . S
C213 H221 0.929 . S
C214 C213 1.383 . S
C214 C215 1.377 . S
C215 H199 0.930 . S
C215 C214 1.377 . S
C215 C216 1.379 . S
C216 H200 0.931 . S
C216 C210 1.383 . S
C216 C215 1.379 . S
H217 C211 0.959 . S
H218 C211 0.961 . S
H219 C211 0.960 . S
H220 C212 0.930 . S
H221 C213 0.929 . S
H222 C230 0.929 . S
H223 C232 0.930 . S
H224 C234 0.930 . S
H225 C237 0.929 . S
H226 C240 0.930 . S
H227 C242 0.960 . S
H228 C242 0.960 . S
H229 C242 0.960 . S
C230 H222 0.929 . S
C230 C231 1.377 . S
C230 C232 1.384 . S
C231 C230 1.377 . S
C231 C237 1.390 . S
C232 H223 0.930 . S
C232 C230 1.384 . S
C232 C233 1.372 . S
C233 C232 1.372 . S
C233 C234 1.400 . S
C233 C238 1.490 . S
C234 H224 0.930 . S
C234 C233 1.400 . S
C234 C237 1.386 . S
H235 C251 0.930 . S
H236 C252 0.931 . S
C237 H225 0.929 . S
C237 C231 1.390 . S
C237 C234 1.386 . S
C238 C233 1.490 . S
C238 C240 1.395 . S
C238 C241 1.403 . S
H239 C245 0.930 . S
C240 H226 0.930 . S
C240 C238 1.395 . S
C240 C243 1.403 . S
C241 C238 1.403 . S
C241 C242 1.524 . S
C241 C245 1.400 . S
C242 H227 0.960 . S
C242 H228 0.960 . S
C242 H229 0.960 . S
C242 C241 1.524 . S
C243 C240 1.403 . S
C243 C244 1.392 . S
C243 C247 1.495 . S
C244 C243 1.392 . S
C244 C245 1.385 . S
C244 C246 1.478 . S
C245 H239 0.930 . S
C245 C241 1.400 . S
C245 C244 1.385 . S
C246 C244 1.478 . S
C246 C248 1.381 . S
C246 C252 1.383 . S
C247 C243 1.495 . S
C247 H253 0.959 . S
C247 H254 0.961 . S
C247 H255 0.960 . S
C248 C246 1.381 . S
C248 C249 1.394 . S
C248 H256 0.930 . S
C249 C248 1.394 . S
C249 C250 1.383 . S
C249 H257 0.929 . S
C250 C249 1.383 . S
C250 C251 1.377 . S
C251 H235 0.930 . S
C251 C250 1.377 . S
C251 C252 1.379 . S
C252 H236 0.931 . S
C252 C246 1.383 . S
C252 C251 1.379 . S
H253 C247 0.959 . S
H254 C247 0.961 . S
H255 C247 0.960 . S
H256 C248 0.930 . S
H257 C249 0.929 . S
H258 C266 0.929 . S
H259 C268 0.930 . S
H260 C270 0.930 . S
H261 C273 0.929 . S
H262 C276 0.930 . S
H263 C278 0.960 . S
H264 C278 0.960 . S
H265 C278 0.960 . S
C266 H258 0.929 . S
C266 C267 1.377 . S
C266 C268 1.384 . S
C267 C266 1.377 . S
C267 C273 1.390 . S
C268 H259 0.930 . S
C268 C266 1.384 . S
C268 C269 1.372 . S
C269 C268 1.372 . S
C269 C270 1.400 . S
C269 C274 1.490 . S
C270 H260 0.930 . S
C270 C269 1.400 . S
C270 C273 1.386 . S
H271 C287 0.930 . S
H272 C288 0.931 . S
C273 H261 0.929 . S
C273 C267 1.390 . S
C273 C270 1.386 . S
C274 C269 1.490 . S
C274 C276 1.395 . S
C274 C277 1.403 . S
H275 C281 0.930 . S
C276 H262 0.930 . S
C276 C274 1.395 . S
C276 C279 1.403 . S
C277 C274 1.403 . S
C277 C278 1.524 . S
C277 C281 1.400 . S
C278 H263 0.960 . S
C278 H264 0.960 . S
C278 H265 0.960 . S
C278 C277 1.524 . S
C279 C276 1.403 . S
C279 C280 1.392 . S
C279 C283 1.495 . S
C280 C279 1.392 . S
C280 C281 1.385 . S
C280 C282 1.478 . S
C281 H275 0.930 . S
C281 C277 1.400 . S
C281 C280 1.385 . S
C282 C280 1.478 . S
C282 C284 1.381 . S
C282 C288 1.383 . S
C283 C279 1.495 . S
C283 H289 0.959 . S
C283 H290 0.961 . S
C283 H291 0.960 . S
C284 C282 1.381 . S
C284 C285 1.394 . S
C284 H292 0.930 . S
C285 C284 1.394 . S
C285 C286 1.383 . S
C285 H293 0.929 . S
C286 C285 1.383 . S
C286 C287 1.377 . S
C287 H271 0.930 . S
C287 C286 1.377 . S
C287 C288 1.379 . S
C288 H272 0.931 . S
C288 C282 1.383 . S
C288 C287 1.379 . S
H289 C283 0.959 . S
H290 C283 0.961 . S
H291 C283 0.960 . S
H292 C284 0.930 . S
H293 C285 0.929 . S
H294 C302 0.929 . S
H295 C304 0.930 . S
H296 C306 0.930 . S
H297 C309 0.929 . S
H298 C312 0.930 . S
H299 C314 0.960 . S
H300 C314 0.960 . S
H301 C314 0.960 . S
C302 H294 0.929 . S
C302 C303 1.377 . S
C302 C304 1.384 . S
C303 C302 1.377 . S
C303 C309 1.390 . S
C304 H295 0.930 . S
C304 C302 1.384 . S
C304 C305 1.372 . S
C305 C304 1.372 . S
C305 C306 1.400 . S
C305 C310 1.490 . S
C306 H296 0.930 . S
C306 C305 1.400 . S
C306 C309 1.386 . S
H307 C323 0.930 . S
H308 C324 0.931 . S
C309 H297 0.929 . S
C309 C303 1.390 . S
C309 C306 1.386 . S
C310 C305 1.490 . S
C310 C312 1.395 . S
C310 C313 1.403 . S
H311 C317 0.930 . S
C312 H298 0.930 . S
C312 C310 1.395 . S
C312 C315 1.403 . S
C313 C310 1.403 . S
C313 C314 1.524 . S
C313 C317 1.400 . S
C314 H299 0.960 . S
C314 H300 0.960 . S
C314 H301 0.960 . S
C314 C313 1.524 . S
C315 C312 1.403 . S
C315 C316 1.392 . S
C315 C319 1.495 . S
C316 C315 1.392 . S
C316 C317 1.385 . S
C316 C318 1.478 . S
C317 H311 0.930 . S
C317 C313 1.400 . S
C317 C316 1.385 . S
C318 C316 1.478 . S
C318 C320 1.381 . S
C318 C324 1.383 . S
C319 C315 1.495 . S
C319 H325 0.959 . S
C319 H326 0.961 . S
C319 H327 0.960 . S
C320 C318 1.381 . S
C320 C321 1.394 . S
C320 H328 0.930 . S
C321 C320 1.394 . S
C321 C322 1.383 . S
C321 H329 0.929 . S
C322 C321 1.383 . S
C322 C323 1.377 . S
C323 H307 0.930 . S
C323 C322 1.377 . S
C323 C324 1.379 . S
C324 H308 0.931 . S
C324 C318 1.383 . S
C324 C323 1.379 . S
H325 C319 0.959 . S
H326 C319 0.961 . S
H327 C319 0.960 . S
H328 C320 0.930 . S
H329 C321 0.929 . S
H330 C338 0.929 . S
H331 C340 0.930 . S
H332 C342 0.930 . S
H333 C345 0.929 . S
H334 C348 0.930 . S
H335 C350 0.960 . S
H336 C350 0.960 . S
H337 C350 0.960 . S
C338 H330 0.929 . S
C338 C339 1.377 . S
C338 C340 1.384 . S
C339 C338 1.377 . S
C339 C345 1.390 . S
C340 H331 0.930 . S
C340 C338 1.384 . S
C340 C341 1.372 . S
C341 C340 1.372 . S
C341 C342 1.400 . S
C341 C346 1.490 . S
C342 H332 0.930 . S
C342 C341 1.400 . S
C342 C345 1.386 . S
H343 C359 0.930 . S
H344 C360 0.931 . S
C345 H333 0.929 . S
C345 C339 1.390 . S
C345 C342 1.386 . S
C346 C341 1.490 . S
C346 C348 1.395 . S
C346 C349 1.403 . S
H347 C353 0.930 . S
C348 H334 0.930 . S
C348 C346 1.395 . S
C348 C351 1.403 . S
C349 C346 1.403 . S
C349 C350 1.524 . S
C349 C353 1.400 . S
C350 H335 0.960 . S
C350 H336 0.960 . S
C350 H337 0.960 . S
C350 C349 1.524 . S
C351 C348 1.403 . S
C351 C352 1.392 . S
C351 C355 1.495 . S
C352 C351 1.392 . S
C352 C353 1.385 . S
C352 C354 1.478 . S
C353 H347 0.930 . S
C353 C349 1.400 . S
C353 C352 1.385 . S
C354 C352 1.478 . S
C354 C356 1.381 . S
C354 C360 1.383 . S
C355 C351 1.495 . S
C355 H361 0.959 . S
C355 H362 0.961 . S
C355 H363 0.960 . S
C356 C354 1.381 . S
C356 C357 1.394 . S
C356 H364 0.930 . S
C357 C356 1.394 . S
C357 C358 1.383 . S
C357 H365 0.929 . S
C358 C357 1.383 . S
C358 C359 1.377 . S
C359 H343 0.930 . S
C359 C358 1.377 . S
C359 C360 1.379 . S
C360 H344 0.931 . S
C360 C354 1.383 . S
C360 C359 1.379 . S
H361 C355 0.959 . S
H362 C355 0.961 . S
H363 C355 0.960 . S
H364 C356 0.930 . S
H365 C357 0.929 . S
H366 C374 0.929 . S
H367 C376 0.930 . S
H368 C378 0.930 . S
H369 C381 0.929 . S
H370 C384 0.930 . S
H371 C386 0.960 . S
H372 C386 0.960 . S
H373 C386 0.960 . S
C374 H366 0.929 . S
C374 C375 1.377 . S
C374 C376 1.384 . S
C375 C374 1.377 . S
C375 C381 1.390 . S
C376 H367 0.930 . S
C376 C374 1.384 . S
C376 C377 1.372 . S
C377 C376 1.372 . S
C377 C378 1.400 . S
C377 C382 1.490 . S
C378 H368 0.930 . S
C378 C377 1.400 . S
C378 C381 1.386 . S
H379 C395 0.930 . S
H380 C396 0.931 . S
C381 H369 0.929 . S
C381 C375 1.390 . S
C381 C378 1.386 . S
C382 C377 1.490 . S
C382 C384 1.395 . S
C382 C385 1.403 . S
H383 C389 0.930 . S
C384 H370 0.930 . S
C384 C382 1.395 . S
C384 C387 1.403 . S
C385 C382 1.403 . S
C385 C386 1.524 . S
C385 C389 1.400 . S
C386 H371 0.960 . S
C386 H372 0.960 . S
C386 H373 0.960 . S
C386 C385 1.524 . S
C387 C384 1.403 . S
C387 C388 1.392 . S
C387 C391 1.495 . S
C388 C387 1.392 . S
C388 C389 1.385 . S
C388 C390 1.478 . S
C389 H383 0.930 . S
C389 C385 1.400 . S
C389 C388 1.385 . S
C390 C388 1.478 . S
C390 C392 1.381 . S
C390 C396 1.383 . S
C391 C387 1.495 . S
C391 H397 0.959 . S
C391 H398 0.961 . S
C391 H399 0.960 . S
C392 C390 1.381 . S
C392 C393 1.394 . S
C392 H400 0.930 . S
C393 C392 1.394 . S
C393 C394 1.383 . S
C393 H401 0.929 . S
C394 C393 1.383 . S
C394 C395 1.377 . S
C395 H379 0.930 . S
C395 C394 1.377 . S
C395 C396 1.379 . S
C396 H380 0.931 . S
C396 C390 1.383 . S
C396 C395 1.379 . S
H397 C391 0.959 . S
H398 C391 0.961 . S
H399 C391 0.960 . S
H400 C392 0.930 . S
H401 C393 0.929 . S
H402 C410 0.929 . S
H403 C412 0.930 . S
H404 C414 0.930 . S
H405 C417 0.929 . S
H406 C420 0.930 . S
H407 C422 0.960 . S
H408 C422 0.960 . S
H409 C422 0.960 . S
C410 H402 0.929 . S
C410 C411 1.377 . S
C410 C412 1.384 . S
C411 C410 1.377 . S
C411 C417 1.390 . S
C412 H403 0.930 . S
C412 C410 1.384 . S
C412 C413 1.372 . S
C413 C412 1.372 . S
C413 C414 1.400 . S
C413 C418 1.490 . S
C414 H404 0.930 . S
C414 C413 1.400 . S
C414 C417 1.386 . S
H415 C431 0.930 . S
H416 C432 0.931 . S
C417 H405 0.929 . S
C417 C411 1.390 . S
C417 C414 1.386 . S
C418 C413 1.490 . S
C418 C420 1.395 . S
C418 C421 1.403 . S
H419 C425 0.930 . S
C420 H406 0.930 . S
C420 C418 1.395 . S
C420 C423 1.403 . S
C421 C418 1.403 . S
C421 C422 1.524 . S
C421 C425 1.400 . S
C422 H407 0.960 . S
C422 H408 0.960 . S
C422 H409 0.960 . S
C422 C421 1.524 . S
C423 C420 1.403 . S
C423 C424 1.392 . S
C423 C427 1.495 . S
C424 C423 1.392 . S
C424 C425 1.385 . S
C424 C426 1.478 . S
C425 H419 0.930 . S
C425 C421 1.400 . S
C425 C424 1.385 . S
C426 C424 1.478 . S
C426 C428 1.381 . S
C426 C432 1.383 . S
C427 C423 1.495 . S
C427 H433 0.959 . S
C427 H434 0.961 . S
C427 H435 0.960 . S
C428 C426 1.381 . S
C428 C429 1.394 . S
C428 H436 0.930 . S
C429 C428 1.394 . S
C429 C430 1.383 . S
C429 H437 0.929 . S
C430 C429 1.383 . S
C430 C431 1.377 . S
C431 H415 0.930 . S
C431 C430 1.377 . S
C431 C432 1.379 . S
C432 H416 0.931 . S
C432 C426 1.383 . S
C432 C431 1.379 . S
H433 C427 0.959 . S
H434 C427 0.961 . S
H435 C427 0.960 . S
H436 C428 0.930 . S
H437 C429 0.929 . S
H438 C446 0.929 . S
H439 C448 0.930 . S
H440 C450 0.930 . S
H441 C453 0.929 . S
H442 C456 0.930 . S
H443 C458 0.960 . S
H444 C458 0.960 . S
H445 C458 0.960 . S
C446 H438 0.929 . S
C446 C447 1.377 . S
C446 C448 1.384 . S
C447 C446 1.377 . S
C447 C453 1.390 . S
C448 H439 0.930 . S
C448 C446 1.384 . S
C448 C449 1.372 . S
C449 C448 1.372 . S
C449 C450 1.400 . S
C449 C454 1.490 . S
C450 H440 0.930 . S
C450 C449 1.400 . S
C450 C453 1.386 . S
H451 C467 0.930 . S
H452 C468 0.931 . S
C453 H441 0.929 . S
C453 C447 1.390 . S
C453 C450 1.386 . S
C454 C449 1.490 . S
C454 C456 1.395 . S
C454 C457 1.403 . S
H455 C461 0.930 . S
C456 H442 0.930 . S
C456 C454 1.395 . S
C456 C459 1.403 . S
C457 C454 1.403 . S
C457 C458 1.524 . S
C457 C461 1.400 . S
C458 H443 0.960 . S
C458 H444 0.960 . S
C458 H445 0.960 . S
C458 C457 1.524 . S
C459 C456 1.403 . S
C459 C460 1.392 . S
C459 C463 1.495 . S
C460 C459 1.392 . S
C460 C461 1.385 . S
C460 C462 1.478 . S
C461 H455 0.930 . S
C461 C457 1.400 . S
C461 C460 1.385 . S
C462 C460 1.478 . S
C462 C464 1.381 . S
C462 C468 1.383 . S
C463 C459 1.495 . S
C463 H469 0.959 . S
C463 H470 0.961 . S
C463 H471 0.960 . S
C464 C462 1.381 . S
C464 C465 1.394 . S
C464 H472 0.930 . S
C465 C464 1.394 . S
C465 C466 1.383 1_655 S
C465 H473 0.929 . S
C466 C465 1.383 1_455 S
C466 C467 1.377 . S
C467 H451 0.930 . S
C467 C466 1.377 . S
C467 C468 1.379 1_455 S
C468 H452 0.931 . S
C468 C462 1.383 . S
C468 C467 1.379 1_655 S
H469 C463 0.959 . S
H470 C463 0.961 . S
H471 C463 0.960 . S
H472 C464 0.930 . S
H473 C465 0.929 . S
H474 C482 0.929 . S
H475 C484 0.930 . S
H476 C486 0.930 . S
H477 C489 0.929 . S
H478 C492 0.930 . S
H479 C494 0.960 . S
H480 C494 0.960 . S
H481 C494 0.960 . S
C482 H474 0.929 . S
C482 C483 1.377 . S
C482 C484 1.384 . S
C483 C482 1.377 . S
C483 C489 1.390 . S
C484 H475 0.930 . S
C484 C482 1.384 . S
C484 C485 1.372 . S
C485 C484 1.372 . S
C485 C486 1.400 . S
C485 C490 1.490 . S
C486 H476 0.930 . S
C486 C485 1.400 . S
C486 C489 1.386 . S
H487 C503 0.930 . S
H488 C504 0.931 . S
C489 H477 0.929 . S
C489 C483 1.390 . S
C489 C486 1.386 . S
C490 C485 1.490 . S
C490 C492 1.395 . S
C490 C493 1.403 . S
H491 C497 0.930 . S
C492 H478 0.930 . S
C492 C490 1.395 . S
C492 C495 1.403 . S
C493 C490 1.403 . S
C493 C494 1.524 . S
C493 C497 1.400 . S
C494 H479 0.960 . S
C494 H480 0.960 . S
C494 H481 0.960 . S
C494 C493 1.524 . S
C495 C492 1.403 . S
C495 C496 1.392 . S
C495 C499 1.495 . S
C496 C495 1.392 . S
C496 C497 1.385 . S
C496 C498 1.478 . S
C497 H491 0.930 . S
C497 C493 1.400 . S
C497 C496 1.385 . S
C498 C496 1.478 . S
C498 C500 1.381 . S
C498 C504 1.383 . S
C499 C495 1.495 . S
C499 H505 0.959 . S
C499 H506 0.961 . S
C499 H507 0.960 . S
C500 C498 1.381 . S
C500 C501 1.394 1_565 S
C500 H508 0.930 . S
C501 C500 1.394 1_545 S
C501 C502 1.383 . S
C501 H509 0.929 . S
C502 C501 1.383 . S
C502 C503 1.377 1_545 S
C503 H487 0.930 . S
C503 C502 1.377 1_565 S
C503 C504 1.379 . S
C504 H488 0.931 . S
C504 C498 1.383 . S
C504 C503 1.379 . S
H505 C499 0.959 . S
H506 C499 0.961 . S
H507 C499 0.960 . S
H508 C500 0.930 . S
H509 C501 0.929 . S
H510 C518 0.929 . S
H511 C520 0.930 . S
H512 C522 0.930 . S
H513 C525 0.929 . S
H514 C528 0.930 . S
H515 C530 0.960 . S
H516 C530 0.960 . S
H517 C530 0.960 . S
C518 H510 0.929 . S
C518 C519 1.377 . S
C518 C520 1.384 . S
C519 C518 1.377 . S
C519 C525 1.390 . S
C520 H511 0.930 . S
C520 C518 1.384 . S
C520 C521 1.372 . S
C521 C520 1.372 . S
C521 C522 1.400 . S
C521 C526 1.490 . S
C522 H512 0.930 . S
C522 C521 1.400 . S
C522 C525 1.386 . S
H523 C539 0.930 . S
H524 C540 0.931 . S
C525 H513 0.929 . S
C525 C519 1.390 . S
C525 C522 1.386 . S
C526 C521 1.490 . S
C526 C528 1.395 . S
C526 C529 1.403 . S
H527 C533 0.930 . S
C528 H514 0.930 . S
C528 C526 1.395 . S
C528 C531 1.403 . S
C529 C526 1.403 . S
C529 C530 1.524 . S
C529 C533 1.400 . S
C530 H515 0.960 . S
C530 H516 0.960 . S
C530 H517 0.960 . S
C530 C529 1.524 . S
C531 C528 1.403 . S
C531 C532 1.392 . S
C531 C535 1.495 . S
C532 C531 1.392 . S
C532 C533 1.385 . S
C532 C534 1.478 . S
C533 H527 0.930 . S
C533 C529 1.400 . S
C533 C532 1.385 . S
C534 C532 1.478 . S
C534 C536 1.381 . S
C534 C540 1.383 . S
C535 C531 1.495 . S
C535 H541 0.959 . S
C535 H542 0.961 . S
C535 H543 0.960 . S
C536 C534 1.381 . S
C536 C537 1.394 . S
C536 H544 0.930 . S
C537 C536 1.394 . S
C537 C538 1.383 . S
C537 H545 0.929 . S
C538 C537 1.383 . S
C538 C539 1.377 . S
C539 H523 0.930 . S
C539 C538 1.377 . S
C539 C540 1.379 . S
C540 H524 0.931 . S
C540 C534 1.383 . S
C540 C539 1.379 . S
H541 C535 0.959 . S
H542 C535 0.961 . S
H543 C535 0.960 . S
H544 C536 0.930 . S
H545 C537 0.929 . S
H546 C554 0.929 . S
H547 C556 0.930 . S
H548 C558 0.930 . S
H549 C561 0.929 . S
H550 C564 0.930 . S
H551 C566 0.960 . S
H552 C566 0.960 . S
H553 C566 0.960 . S
C554 H546 0.929 . S
C554 C555 1.377 . S
C554 C556 1.384 . S
C555 C554 1.377 . S
C555 C561 1.390 . S
C556 H547 0.930 . S
C556 C554 1.384 . S
C556 C557 1.372 . S
C557 C556 1.372 . S
C557 C558 1.400 . S
C557 C562 1.490 . S
C558 H548 0.930 . S
C558 C557 1.400 . S
C558 C561 1.386 . S
H559 C575 0.930 . S
H560 C576 0.931 . S
C561 H549 0.929 . S
C561 C555 1.390 . S
C561 C558 1.386 . S
C562 C557 1.490 . S
C562 C564 1.395 . S
C562 C565 1.403 . S
H563 C569 0.930 . S
C564 H550 0.930 . S
C564 C562 1.395 . S
C564 C567 1.403 . S
C565 C562 1.403 . S
C565 C566 1.524 . S
C565 C569 1.400 . S
C566 H551 0.960 . S
C566 H552 0.960 . S
C566 H553 0.960 . S
C566 C565 1.524 . S
C567 C564 1.403 . S
C567 C568 1.392 . S
C567 C571 1.495 . S
C568 C567 1.392 . S
C568 C569 1.385 . S
C568 C570 1.478 . S
C569 H563 0.930 . S
C569 C565 1.400 . S
C569 C568 1.385 . S
C570 C568 1.478 . S
C570 C572 1.381 . S
C570 C576 1.383 . S
C571 C567 1.495 . S
C571 H577 0.959 . S
C571 H578 0.961 . S
C571 H579 0.960 . S
C572 C570 1.381 . S
C572 C573 1.394 . S
C572 H580 0.930 . S
C573 C572 1.394 . S
C573 C574 1.383 . S
C573 H581 0.929 . S
C574 C573 1.383 . S
C574 C575 1.377 . S
C575 H559 0.930 . S
C575 C574 1.377 . S
C575 C576 1.379 . S
C576 H560 0.931 . S
C576 C570 1.383 . S
C576 C575 1.379 . S
H577 C571 0.959 . S
H578 C571 0.961 . S
H579 C571 0.960 . S
H580 C572 0.930 . S
H581 C573 0.929 . S
H582 C590 0.929 . S
H583 C592 0.930 . S
H584 C594 0.930 . S
H585 C597 0.929 . S
H586 C600 0.930 . S
H587 C602 0.960 . S
H588 C602 0.960 . S
H589 C602 0.960 . S
C590 H582 0.929 . S
C590 C591 1.377 . S
C590 C592 1.384 . S
C591 C590 1.377 . S
C591 C597 1.390 . S
C592 H583 0.930 . S
C592 C590 1.384 . S
C592 C593 1.372 . S
C593 C592 1.372 . S
C593 C594 1.400 . S
C593 C598 1.490 . S
C594 H584 0.930 . S
C594 C593 1.400 . S
C594 C597 1.386 . S
H595 C611 0.930 . S
H596 C612 0.931 . S
C597 H585 0.929 . S
C597 C591 1.390 . S
C597 C594 1.386 . S
C598 C593 1.490 . S
C598 C600 1.395 . S
C598 C601 1.403 . S
H599 C605 0.930 . S
C600 H586 0.930 . S
C600 C598 1.395 . S
C600 C603 1.403 . S
C601 C598 1.403 . S
C601 C602 1.524 . S
C601 C605 1.400 . S
C602 H587 0.960 . S
C602 H588 0.960 . S
C602 H589 0.960 . S
C602 C601 1.524 . S
C603 C600 1.403 . S
C603 C604 1.392 . S
C603 C607 1.495 . S
C604 C603 1.392 . S
C604 C605 1.385 . S
C604 C606 1.478 . S
C605 H599 0.930 . S
C605 C601 1.400 . S
C605 C604 1.385 . S
C606 C604 1.478 . S
C606 C608 1.381 . S
C606 C612 1.383 . S
C607 C603 1.495 . S
C607 H613 0.959 . S
C607 H614 0.961 . S
C607 H615 0.960 . S
C608 C606 1.381 . S
C608 C609 1.394 . S
C608 H616 0.930 . S
C609 C608 1.394 . S
C609 C610 1.383 . S
C609 H617 0.929 . S
C610 C609 1.383 . S
C610 C611 1.377 . S
C611 H595 0.930 . S
C611 C610 1.377 . S
C611 C612 1.379 . S
C612 H596 0.931 . S
C612 C606 1.383 . S
C612 C611 1.379 . S
H613 C607 0.959 . S
H614 C607 0.961 . S
H615 C607 0.960 . S
H616 C608 0.930 . S
H617 C609 0.929 . S
H618 C626 0.959 . S
H619 C628 0.930 1_655 S
H620 C630 0.930 . S
H621 C633 0.929 . S
H622 C636 0.930 . S
H623 C638 0.960 . S
H624 C638 0.960 . S
H625 C638 0.960 1_455 S
C626 H618 0.959 . S
C626 C627 1.355 1_655 S
C626 C628 1.378 1_655 S
C627 C626 1.355 1_455 S
C627 C633 1.390 . S
C628 H619 0.930 1_455 S
C628 C626 1.378 1_455 S
C628 C629 1.372 . S
C629 C628 1.372 . S
C629 C630 1.400 . S
C629 C634 1.490 . S
C630 H620 0.930 . S
C630 C629 1.400 . S
C630 C633 1.386 . S
H631 C647 0.930 . S
H632 C648 0.931 . S
C633 H621 0.929 . S
C633 C627 1.390 . S
C633 C630 1.386 . S
C634 C629 1.490 . S
C634 C636 1.395 . S
C634 C637 1.403 . S
H635 C641 0.930 1_556 S
C636 H622 0.930 . S
C636 C634 1.395 . S
C636 C639 1.403 . S
C637 C634 1.403 . S
C637 C638 1.524 1_455 S
C637 C641 1.400 . S
C638 H623 0.960 . S
C638 H624 0.960 . S
C638 H625 0.960 1_655 S
C638 C637 1.524 1_655 S
C639 C636 1.403 . S
C639 C640 1.392 1_554 S
C639 C643 1.491 1_554 S
C640 C639 1.392 1_556 S
C640 C641 1.385 1_556 S
C640 C642 1.478 . S
C641 H635 0.930 1_554 S
C641 C637 1.400 . S
C641 C640 1.385 1_554 S
C642 C640 1.478 . S
C642 C644 1.381 . S
C642 C648 1.383 . S
C643 C639 1.491 1_556 S
C643 H649 0.953 1_556 S
C643 H650 0.965 . S
C643 H651 0.966 . S
C644 C642 1.381 . S
C644 C645 1.394 . S
C644 H652 0.930 . S
C645 C644 1.394 . S
C645 C646 1.383 . S
C645 H653 0.929 . S
C646 C645 1.383 . S
C646 C647 1.377 . S
C647 H631 0.930 . S
C647 C646 1.377 . S
C647 C648 1.379 . S
C648 H632 0.931 . S
C648 C642 1.383 . S
C648 C647 1.379 . S
H649 C643 0.953 1_554 S
H650 C643 0.965 . S
H651 C643 0.966 . S
H652 C644 0.930 . S
H653 C645 0.929 . S
H654 C662 0.929 . S
H655 C664 0.930 . S
H656 C666 0.930 . S
H657 C669 0.929 . S
H658 C672 0.930 . S
H659 C674 0.960 . S
H660 C674 0.960 . S
H661 C674 0.960 . S
C662 H654 0.929 . S
C662 C663 1.377 . S
C662 C664 1.384 . S
C663 C662 1.377 . S
C663 C669 1.390 . S
C664 H655 0.930 . S
C664 C662 1.384 . S
C664 C665 1.372 . S
C665 C664 1.372 . S
C665 C666 1.400 . S
C665 C670 1.490 . S
C666 H656 0.930 . S
C666 C665 1.400 . S
C666 C669 1.386 . S
H667 C683 0.930 . S
H668 C684 0.931 . S
C669 H657 0.929 . S
C669 C663 1.390 . S
C669 C666 1.386 . S
C670 C665 1.490 . S
C670 C672 1.395 . S
C670 C673 1.403 . S
H671 C677 0.930 . S
C672 H658 0.930 . S
C672 C670 1.395 . S
C672 C675 1.403 . S
C673 C670 1.403 . S
C673 C674 1.524 1_545 S
C673 C677 1.400 . S
C674 H659 0.960 . S
C674 H660 0.960 . S
C674 H661 0.960 . S
C674 C673 1.524 1_565 S
C675 C672 1.403 . S
C675 C676 1.392 . S
C675 C679 1.495 . S
C676 C675 1.392 . S
C676 C677 1.385 . S
C676 C678 1.478 . S
C677 H671 0.930 . S
C677 C673 1.400 . S
C677 C676 1.385 . S
C678 C676 1.478 . S
C678 C680 1.381 . S
C678 C684 1.383 . S
C679 C675 1.495 . S
C679 H685 0.959 . S
C679 H686 0.961 . S
C679 H687 0.960 . S
C680 C678 1.381 . S
C680 C681 1.394 . S
C680 H688 0.930 . S
C681 C680 1.394 . S
C681 C682 1.383 . S
C681 H689 0.929 . S
C682 C681 1.383 . S
C682 C683 1.377 . S
C683 H667 0.930 . S
C683 C682 1.377 . S
C683 C684 1.379 . S
C684 H668 0.931 . S
C684 C678 1.383 . S
C684 C683 1.379 . S
H685 C679 0.959 . S
H686 C679 0.961 . S
H687 C679 0.960 . S
H688 C680 0.930 . S
H689 C681 0.929 . S
H690 C698 0.929 . S
H691 C700 0.930 . S
H692 C702 0.930 . S
H693 C705 0.929 . S
H694 C708 0.930 . S
H695 C710 0.960 . S
H696 C710 0.960 . S
H697 C710 0.960 . S
C698 H690 0.929 . S
C698 C699 1.377 . S
C698 C700 1.384 . S
C699 C698 1.377 . S
C699 C705 1.390 . S
C700 H691 0.930 . S
C700 C698 1.384 . S
C700 C701 1.372 . S
C701 C700 1.372 . S
C701 C702 1.400 . S
C701 C706 1.490 . S
C702 H692 0.930 . S
C702 C701 1.400 . S
C702 C705 1.386 . S
H703 C719 0.930 . S
H704 C720 0.931 . S
C705 H693 0.929 . S
C705 C699 1.390 . S
C705 C702 1.386 . S
C706 C701 1.490 . S
C706 C708 1.395 . S
C706 C709 1.403 . S
H707 C713 0.930 . S
C708 H694 0.930 . S
C708 C706 1.395 . S
C708 C711 1.403 . S
C709 C706 1.403 . S
C709 C710 1.524 . S
C709 C713 1.400 . S
C710 H695 0.960 . S
C710 H696 0.960 . S
C710 H697 0.960 . S
C710 C709 1.524 . S
C711 C708 1.403 . S
C711 C712 1.392 . S
C711 C715 1.495 . S
C712 C711 1.392 . S
C712 C713 1.385 . S
C712 C714 1.478 . S
C713 H707 0.930 . S
C713 C709 1.400 . S
C713 C712 1.385 . S
C714 C712 1.478 . S
C714 C716 1.381 . S
C714 C720 1.383 . S
C715 C711 1.495 . S
C715 H721 0.959 . S
C715 H722 0.961 . S
C715 H723 0.960 . S
C716 C714 1.381 . S
C716 C717 1.394 . S
C716 H724 0.930 . S
C717 C716 1.394 . S
C717 C718 1.383 . S
C717 H725 0.929 . S
C718 C717 1.383 . S
C718 C719 1.377 . S
C719 H703 0.930 . S
C719 C718 1.377 . S
C719 C720 1.379 . S
C720 H704 0.931 . S
C720 C714 1.383 . S
C720 C719 1.379 . S
H721 C715 0.959 . S
H722 C715 0.961 . S
H723 C715 0.960 . S
H724 C716 0.930 . S
H725 C717 0.929 . S
H726 C734 0.929 . S
H727 C736 0.930 . S
H728 C738 0.930 1_565 S
H729 C741 0.929 1_565 S
H730 C744 0.930 . S
H731 C746 0.960 . S
H732 C746 0.960 . S
H733 C746 0.960 . S
C734 H726 0.929 . S
C734 C735 1.377 . S
C734 C736 1.384 . S
C735 C734 1.377 . S
C735 C741 1.390 . S
C736 H727 0.930 . S
C736 C734 1.384 . S
C736 C737 1.372 . S
C737 C736 1.372 . S
C737 C738 1.400 . S
C737 C742 1.490 . S
C738 H728 0.930 1_545 S
C738 C737 1.400 . S
C738 C741 1.386 . S
H739 C755 0.930 1_565 S
H740 C756 0.931 1_565 S
C741 H729 0.929 1_545 S
C741 C735 1.390 . S
C741 C738 1.386 . S
C742 C737 1.490 . S
C742 C744 1.395 . S
C742 C745 1.403 . S
H743 C749 0.930 . S
C744 H730 0.930 . S
C744 C742 1.395 . S
C744 C747 1.403 . S
C745 C742 1.403 . S
C745 C746 1.524 . S
C745 C749 1.400 . S
C746 H731 0.960 . S
C746 H732 0.960 . S
C746 H733 0.960 . S
C746 C745 1.524 . S
C747 C744 1.403 . S
C747 C748 1.392 . S
C747 C751 1.495 . S
C748 C747 1.392 . S
C748 C749 1.385 . S
C748 C750 1.478 . S
C749 H743 0.930 . S
C749 C745 1.400 . S
C749 C748 1.385 . S
C750 C748 1.478 . S
C750 C752 1.381 . S
C750 C756 1.383 . S
C751 C747 1.495 . S
C751 H757 0.959 . S
C751 H758 0.961 1_545 S
C751 H759 0.960 . S
C752 C750 1.381 . S
C752 C753 1.394 . S
C752 H760 0.930 . S
C753 C752 1.394 . S
C753 C754 1.383 . S
C753 H761 0.929 . S
C754 C753 1.383 . S
C754 C755 1.377 . S
C755 H739 0.930 1_545 S
C755 C754 1.377 . S
C755 C756 1.379 . S
C756 H740 0.931 1_545 S
C756 C750 1.383 . S
C756 C755 1.379 . S
H757 C751 0.959 . S
H758 C751 0.961 1_565 S
H759 C751 0.960 . S
H760 C752 0.930 . S
H761 C753 0.929 . S
H762 C770 0.929 . S
H763 C772 0.930 . S
H764 C774 0.930 . S
H765 C777 0.929 . S
H766 C780 0.930 . S
H767 C782 0.960 . S
H768 C782 0.960 . S
H769 C782 0.960 . S
C770 H762 0.929 . S
C770 C771 1.377 . S
C770 C772 1.384 . S
C771 C770 1.377 . S
C771 C777 1.390 . S
C772 H763 0.930 . S
C772 C770 1.384 . S
C772 C773 1.372 . S
C773 C772 1.372 . S
C773 C774 1.400 . S
C773 C778 1.490 . S
C774 H764 0.930 . S
C774 C773 1.400 . S
C774 C777 1.386 . S
H775 C791 0.930 . S
H776 C792 0.931 . S
C777 H765 0.929 . S
C777 C771 1.390 . S
C777 C774 1.386 . S
C778 C773 1.490 . S
C778 C780 1.395 . S
C778 C781 1.403 . S
H779 C785 0.930 1_554 S
C780 H766 0.930 . S
C780 C778 1.395 . S
C780 C783 1.403 . S
C781 C778 1.403 . S
C781 C782 1.524 . S
C781 C785 1.400 . S
C782 H767 0.960 . S
C782 H768 0.960 . S
C782 H769 0.960 . S
C782 C781 1.524 . S
C783 C780 1.403 . S
C783 C784 1.392 1_556 S
C783 C787 1.495 . S
C784 C783 1.392 1_554 S
C784 C785 1.385 1_554 S
C784 C786 1.478 . S
C785 H779 0.930 1_556 S
C785 C781 1.400 . S
C785 C784 1.385 1_556 S
C786 C784 1.478 . S
C786 C788 1.381 . S
C786 C792 1.383 . S
C787 C783 1.495 . S
C787 H793 0.959 . S
C787 H794 0.961 1_556 S
C787 H795 0.960 1_556 S
C788 C786 1.381 . S
C788 C789 1.394 . S
C788 H796 0.930 . S
C789 C788 1.394 . S
C789 C790 1.383 . S
C789 H797 0.929 . S
C790 C789 1.383 . S
C790 C791 1.377 . S
C791 H775 0.930 . S
C791 C790 1.377 . S
C791 C792 1.379 . S
C792 H776 0.931 . S
C792 C786 1.383 . S
C792 C791 1.379 . S
H793 C787 0.959 . S
H794 C787 0.961 1_554 S
H795 C787 0.960 1_554 S
H796 C788 0.930 . S
H797 C789 0.929 . S
H798 C806 0.929 . S
H799 C808 0.930 . S
H800 C810 0.930 . S
H801 C813 0.929 . S
H802 C816 0.930 . S
H803 C818 0.965 . S
H804 C818 0.968 . S
H805 C818 0.955 1_455 S
C806 H798 0.929 . S
C806 C807 1.377 1_655 S
C806 C808 1.384 . S
C807 C806 1.377 1_455 S
C807 C813 1.390 . S
C808 H799 0.930 . S
C808 C806 1.384 . S
C808 C809 1.372 1_655 S
C809 C808 1.372 1_455 S
C809 C810 1.400 . S
C809 C814 1.490 . S
C810 H800 0.930 . S
C810 C809 1.400 . S
C810 C813 1.386 . S
H811 C827 0.930 . S
H812 C828 0.931 . S
C813 H801 0.929 . S
C813 C807 1.390 . S
C813 C810 1.386 . S
C814 C809 1.490 . S
C814 C816 1.395 . S
C814 C817 1.403 . S
H815 C821 0.930 . S
C816 H802 0.930 . S
C816 C814 1.395 . S
C816 C819 1.403 . S
C817 C814 1.403 . S
C817 C818 1.516 1_455 S
C817 C821 1.400 . S
C818 H803 0.965 . S
C818 H804 0.968 . S
C818 H805 0.955 1_655 S
C818 C817 1.516 1_655 S
C819 C816 1.403 . S
C819 C820 1.392 . S
C819 C823 1.495 . S
C820 C819 1.392 . S
C820 C821 1.385 . S
C820 C822 1.478 . S
C821 H815 0.930 . S
C821 C817 1.400 . S
C821 C820 1.385 . S
C822 C820 1.478 . S
C822 C824 1.381 1_455 S
C822 C828 1.383 . S
C823 C819 1.495 . S
C823 H829 0.959 . S
C823 H830 0.961 . S
C823 H831 0.960 . S
C824 C822 1.381 1_655 S
C824 C825 1.394 . S
C824 H832 0.930 . S
C825 C824 1.394 . S
C825 C826 1.383 1_655 S
C825 H833 0.929 . S
C826 C825 1.383 1_455 S
C826 C827 1.377 . S
C827 H811 0.930 . S
C827 C826 1.377 . S
C827 C828 1.379 . S
C828 H812 0.931 . S
C828 C822 1.383 . S
C828 C827 1.379 . S
H829 C823 0.959 . S
H830 C823 0.961 . S
H831 C823 0.960 . S
H832 C824 0.930 . S
H833 C825 0.929 . S
C195 C12 2.995 . S
C214 C185 2.937 . S
C231 C52 2.986 . S
C250 C163 2.933 . S
C267 C111 3.020 . S
C286 C174 2.950 . S
C303 C31 2.984 . S
C322 C179 2.940 . S
C358 C157 2.942 . S
C339 C71 2.991 . S
C394 C168 2.896 . S
C375 C92 2.942 . S
C411 C48 0.504 . S
C430 C141 0.450 . S
C447 C109 0.327 . S
C466 C146 0.297 . S
C483 C29 0.280 . S
C502 C124 0.147 . S
C538 C135 0.249 . S
C519 C69 0.240 . S
C574 C152 0.410 . S
C555 C88 0.295 . S
C591 C8 0.339 . S
C610 C130 0.282 . S
C646 C147 1.268 . S
C627 C17 1.235 . S
C663 C57 1.218 . S
C682 C125 1.247 . S
C699 C97 1.240 . S
C718 C136 1.281 . S
C754 C169 1.711 . S
C735 C42 1.686 . S
C790 C180 1.740 . S
C771 C82 1.705 . S
C807 C2 1.723 . S
C826 C158 1.737 . S
