# Generated by pormake.
# Topology zzz, (3,6)-cn, num edge types: 1
# Building blocks:
#     Node 0, Type 0, BuildingBlock: PAMTOO_clean_linker_0, # of connection points: 3
#     Node 1, Type 0, BuildingBlock: PAMTOO_clean_linker_0, # of connection points: 3
#     Node 2, Type 0, BuildingBlock: PAMTOO_clean_linker_0, # of connection points: 3
#     Node 3, Type 0, BuildingBlock: PAMTOO_clean_linker_0, # of connection points: 3
#     Node 4, Type 0, BuildingBlock: PAMTOO_clean_linker_0, # of connection points: 3
#     Node 5, Type 0, BuildingBlock: PAMTOO_clean_linker_0, # of connection points: 3
#     Node 6, Type 0, BuildingBlock: PAMTOO_clean_linker_0, # of connection points: 3
#     Node 7, Type 0, BuildingBlock: PAMTOO_clean_linker_0, # of connection points: 3
#     Node 8, Type 1, BuildingBlock: HISSIN_clean_sbu_0, # of connection points: 6
#     Node 9, Type 1, BuildingBlock: HISSIN_clean_sbu_0, # of connection points: 6
#     Node 10, Type 1, BuildingBlock: HISSIN_clean_sbu_0, # of connection points: 6
#     Node 11, Type 1, BuildingBlock: HISSIN_clean_sbu_0, # of connection points: 6
#     Edge 12, Type (0, 1), BuildingBlock: OJICUG_clean_linker_0, # of connection points: 2
#     Edge 13, Type (0, 1), BuildingBlock: OJICUG_clean_linker_0, # of connection points: 2
#     Edge 14, Type (0, 1), BuildingBlock: OJICUG_clean_linker_0, # of connection points: 2
#     Edge 15, Type (0, 1), BuildingBlock: OJICUG_clean_linker_0, # of connection points: 2
#     Edge 16, Type (0, 1), BuildingBlock: OJICUG_clean_linker_0, # of connection points: 2
#     Edge 17, Type (0, 1), BuildingBlock: OJICUG_clean_linker_0, # of connection points: 2
#     Edge 18, Type (0, 1), BuildingBlock: OJICUG_clean_linker_0, # of connection points: 2
#     Edge 19, Type (0, 1), BuildingBlock: OJICUG_clean_linker_0, # of connection points: 2
#     Edge 20, Type (0, 1), BuildingBlock: OJICUG_clean_linker_0, # of connection points: 2
#     Edge 21, Type (0, 1), BuildingBlock: OJICUG_clean_linker_0, # of connection points: 2
#     Edge 22, Type (0, 1), BuildingBlock: OJICUG_clean_linker_0, # of connection points: 2
#     Edge 23, Type (0, 1), BuildingBlock: OJICUG_clean_linker_0, # of connection points: 2
#     Edge 24, Type (0, 1), BuildingBlock: OJICUG_clean_linker_0, # of connection points: 2
#     Edge 25, Type (0, 1), BuildingBlock: OJICUG_clean_linker_0, # of connection points: 2
#     Edge 26, Type (0, 1), BuildingBlock: OJICUG_clean_linker_0, # of connection points: 2
#     Edge 27, Type (0, 1), BuildingBlock: OJICUG_clean_linker_0, # of connection points: 2
#     Edge 28, Type (0, 1), BuildingBlock: OJICUG_clean_linker_0, # of connection points: 2
#     Edge 29, Type (0, 1), BuildingBlock: OJICUG_clean_linker_0, # of connection points: 2
#     Edge 30, Type (0, 1), BuildingBlock: OJICUG_clean_linker_0, # of connection points: 2
#     Edge 31, Type (0, 1), BuildingBlock: OJICUG_clean_linker_0, # of connection points: 2
#     Edge 32, Type (0, 1), BuildingBlock: OJICUG_clean_linker_0, # of connection points: 2
#     Edge 33, Type (0, 1), BuildingBlock: OJICUG_clean_linker_0, # of connection points: 2
#     Edge 34, Type (0, 1), BuildingBlock: OJICUG_clean_linker_0, # of connection points: 2
#     Edge 35, Type (0, 1), BuildingBlock: OJICUG_clean_linker_0, # of connection points: 2
# Relax obj value: 0.357
# Max RMSD: 0.208
# Mean RMSD: 0.098
data_MOF--net-zzz--node1-HISSIN_clean_sbu_0--node2-PAMTOO_clean_linker_0--edge1-OJICUG_clean_linker_0
_symmetry_space_group_name_H-M    P1
_symmetry_Int_Tables_number       1
_symmetry_cell_setting            triclinic
loop_
_symmetry_equiv_pos_as_xyz
'x, y, z'
_cell_length_a     36.005411
_cell_length_b     36.015546
_cell_length_c     11.957842
_cell_angle_alpha  90.104578
_cell_angle_beta   91.222722
_cell_angle_gamma 90.401154
loop_
_atom_site_label
_atom_site_type_symbol
_atom_site_fract_x
_atom_site_fract_y
_atom_site_fract_z
_atom_type_partial_charge
H0 H 0.84847 0.47303 0.42184 0.0
H1 H 0.74155 0.47787 0.25426 0.0
H2 H 0.77821 0.56715 0.47115 0.0
H3 H 0.74242 0.56261 0.18537 0.0
C4 C 0.71762 0.56354 0.23951 0.0
O5 O 0.72298 0.54157 0.33414 0.0
H6 H 0.71521 0.5929 0.26693 0.0
C7 C 0.82189 0.48642 0.40812 0.0
C8 C 0.81633 0.52078 0.45971 0.0
C9 C 0.79573 0.47086 0.33224 0.0
C10 C 0.76216 0.48946 0.312 0.0
C11 C 0.75563 0.52419 0.36024 0.0
C12 C 0.78299 0.54022 0.43402 0.0
H13 H 0.10456 0.84641 0.43889 0.0
H14 H 0.08664 0.75295 0.22007 0.0
H15 H 0.99857 0.79025 0.43031 0.0
H16 H 0.9936 0.69696 0.34533 0.0
C17 C 1.01843 0.70289 0.29455 0.0
O18 O 1.01839 0.7408 0.26958 0.0
H19 H 0.04299 0.69608 0.34798 0.0
C20 C 0.08719 0.82337 0.41067 0.0
C21 C 0.0508 0.82088 0.45006 0.0
C22 C 0.10016 0.79966 0.3267 0.0
C23 C 0.07704 0.77101 0.28584 0.0
C24 C 0.04064 0.76682 0.32266 0.0
C25 C 1.02713 0.7923 0.40438 0.0
H26 H 0.7151 0.1091 0.42554 0.0
H27 H 0.80891 0.09205 0.21588 0.0
H28 H 0.7757 1.00655 0.44557 0.0
H29 H 0.8704 1.01249 0.37982 0.0
C30 C 0.86286 0.03131 0.3095 0.0
O31 O 0.82497 1.02628 0.28498 0.0
H32 H 0.8683 0.06014 0.33968 0.0
C33 C 0.73877 0.09247 0.40268 0.0
C34 C 0.74264 0.05708 0.45022 0.0
C35 C 0.76199 0.1051 0.31749 0.0
C36 C 0.79135 0.08276 0.28296 0.0
C37 C 0.79739 0.04764 0.32944 0.0
C38 C 0.77241 0.03433 0.41258 0.0
H39 H 0.45568 0.71515 0.40398 0.0
H40 H 0.47309 0.80958 0.19199 0.0
H41 H 0.55809 0.77724 0.43061 0.0
H42 H 0.55599 0.87016 0.36195 0.0
C43 C 0.53495 0.86344 0.29549 0.0
O44 O 0.53886 0.82611 0.26722 0.0
H45 H 0.50728 0.86804 0.33192 0.0
C46 C 0.47224 0.73918 0.38169 0.0
C47 C 0.50753 0.74365 0.43228 0.0
C48 C 0.4598 0.76223 0.29404 0.0
C49 C 0.4822 0.792 0.26058 0.0
C50 C 0.51728 0.79825 0.3099 0.0
C51 C 0.53038 0.77356 0.39524 0.0
H52 H 0.22391 0.61011 0.10629 0.0
H53 H 0.32661 0.59416 0.28932 0.0
H54 H 0.28937 0.51285 0.04608 0.0
H55 H 0.35131 0.47989 0.24842 0.0
C56 C 0.34878 0.50853 0.28186 0.0
O57 O 0.34443 0.53273 0.19194 0.0
H58 H 0.32348 0.50833 0.33396 0.0
C59 C 0.24925 0.59447 0.12016 0.0
C60 C 0.25351 0.56083 0.06287 0.0
C61 C 0.27492 0.60631 0.20316 0.0
C62 C 0.30682 0.58532 0.22486 0.0
C63 C 0.31258 0.55186 0.16843 0.0
C64 C 0.28547 0.5391 0.08829 0.0
H65 H 0.10777 0.21198 0.18472 0.0
H66 H 0.1001 0.31936 0.33875 0.0
H67 H 1.02958 0.2913 0.05598 0.0
H68 H 0.05087 0.39113 0.12987 0.0
C69 C 0.06122 0.37869 0.20943 0.0
O70 O 0.04607 0.34294 0.21739 0.0
H71 H 0.09199 0.37742 0.20335 0.0
C72 C 0.09709 0.24001 0.18517 0.0
C73 C 0.06933 0.24861 0.10556 0.0
C74 C 0.10565 0.26379 0.27602 0.0
C75 C 0.0926 0.30031 0.27187 0.0
C76 C 0.0649 0.3108 0.19501 0.0
C77 C 0.05283 0.28462 0.11099 0.0
H78 H 0.34435 0.95923 0.13346 0.0
H79 H 0.24468 0.97202 0.32089 0.0
H80 H 0.28366 0.06171 0.11464 0.0
H81 H 0.22718 0.08688 0.34141 0.0
C82 C 0.22683 0.0565 0.3573 0.0
O83 O 0.22923 0.0382 0.25445 0.0
H84 H 0.25204 0.0509 0.41008 0.0
C85 C 0.32011 0.97543 0.15368 0.0
C86 C 0.31707 1.01143 0.10984 0.0
C87 C 0.29482 0.96135 0.23137 0.0
C88 C 0.26424 0.98273 0.26103 0.0
C89 C 0.25978 1.01885 0.22074 0.0
C90 C 0.28669 0.03366 0.14567 0.0
H91 H 0.60855 0.34871 0.12124 0.0
H92 H 0.5972 0.24779 0.30932 0.0
H93 H 0.51118 0.28001 0.07323 0.0
H94 H 0.4824 0.22231 0.28348 0.0
C95 C 0.51186 0.2231 0.31301 0.0
O96 O 0.53429 0.22708 0.22001 0.0
H97 H 0.51453 0.24794 0.36838 0.0
C98 C 0.59349 0.32316 0.13767 0.0
C99 C 0.559 0.31735 0.08373 0.0
C100 C 0.60709 0.29885 0.22043 0.0
C101 C 0.58692 0.26659 0.24527 0.0
C102 C 0.55252 0.25925 0.19288 0.0
C103 C 0.53806 0.28511 0.11277 0.0
Eu104 Eu 1.00901 0.04536 0.70971 0.0
Eu105 Eu 0.06512 1.01672 0.90248 0.0
C106 C 0.04443 0.10468 0.8846 0.0
C107 C 0.98233 0.11352 0.51758 0.0
C108 C 1.005 0.11367 0.42349 0.0
C109 C 1.01368 0.1695 0.58489 0.0
C110 C 0.03352 0.13984 0.41485 0.0
C111 C 0.98491 0.14368 0.59261 0.0
C112 C 0.03965 0.16661 0.49946 0.0
C113 C 0.96864 0.07752 0.55961 0.0
O114 O 1.009 1.00815 0.98467 0.0
O115 O 0.97118 0.03912 0.86038 0.0
C116 C 0.97642 1.02248 0.95751 0.0
O117 O 1.00778 0.98257 0.67998 0.0
O118 O 0.08112 0.98348 0.0466 0.0
O119 O 0.1186 1.02638 0.98844 0.0
O120 O 0.05633 0.96445 0.79498 0.0
C121 C 0.03143 0.95698 0.71487 0.0
O122 O 0.0643 0.04912 0.62046 0.0
O123 O 0.10357 1.02504 0.75442 0.0
O124 O 0.05008 0.07615 0.95102 0.0
O125 O 0.98948 0.04919 0.53565 0.0
O126 O 0.95948 0.07727 0.66461 0.0
O127 O 0.03625 0.09872 0.77845 0.0
C128 C 0.14452 0.97319 0.07535 0.0
C129 C 0.15693 0.96627 0.18475 0.0
C130 C 0.17366 0.91647 1.0141 0.0
C131 C 0.17437 0.93283 0.21041 0.0
C132 C 0.15552 0.94972 0.98868 0.0
C133 C 0.17909 0.90567 0.12661 0.0
C134 C 0.1138 0.9991 0.05836 0.0
C135 C 0.09762 0.03814 0.65276 0.0
H136 H 1.00333 0.09124 0.36298 0.0
H137 H 1.0166 0.19032 0.64983 0.0
H138 H 0.05152 0.13818 0.34362 0.0
H139 H 0.96745 0.14504 0.66516 0.0
H140 H 0.1493 0.9846 0.25239 0.0
H141 H 0.17881 0.89724 0.94659 0.0
H142 H 0.17896 0.92662 0.29807 0.0
H143 H 0.14678 0.95516 0.90303 0.0
Eu144 Eu 0.54274 0.06661 0.8758 0.0
Eu145 Eu 0.51695 1.00661 0.68386 0.0
C146 C 0.53642 0.97777 0.93984 0.0
C147 C 0.58639 0.14649 0.04514 0.0
C148 C 0.59392 0.1583 0.15462 0.0
C149 C 0.64402 0.17466 0.98613 0.0
C150 C 0.62782 0.17531 0.18152 0.0
C151 C 0.6102 0.1571 0.95948 0.0
C152 C 0.6549 0.18012 0.09899 0.0
C153 C 0.55859 0.11716 0.02687 0.0
O154 O 0.46259 1.01393 0.77702 0.0
O155 O 0.48048 0.0584 0.90552 0.0
C156 C 0.45495 0.03587 0.86204 0.0
O157 O 0.54263 0.10091 0.71665 0.0
O158 O 0.52285 0.9515 0.60941 0.0
O159 O 0.4877 0.99252 0.52865 0.0
O160 O 0.5103 0.0627 0.59567 0.0
C161 C 0.52607 0.09503 0.61917 0.0
O162 O 0.59769 0.05747 0.78631 0.0
O163 O 0.57914 1.0143 0.6542 0.0
O164 O 0.52093 0.97095 0.84107 0.0
O165 O 0.53429 0.12194 0.94588 0.0
O166 O 0.5717 0.08347 0.02914 0.0
O167 O 0.54961 1.01107 0.96546 0.0
C168 C 0.47022 0.93054 0.50449 0.0
C169 C 0.46118 0.92287 0.39275 0.0
C170 C 0.41427 0.89837 0.56109 0.0
C171 C 0.42816 0.90453 0.36461 0.0
C172 C 0.44766 0.91662 0.58918 0.0
C173 C 0.40286 0.8946 0.4481 0.0
C174 C 0.49919 0.95829 0.52811 0.0
C175 C 0.60509 0.0358 0.70022 0.0
H176 H 0.57547 0.15076 0.22145 0.0
H177 H 0.66341 0.17957 0.91969 0.0
H178 H 0.63431 0.17966 0.26935 0.0
H179 H 0.60439 0.14868 0.87379 0.0
H180 H 0.47825 0.93363 0.32644 0.0
H181 H 0.3958 0.89057 0.6275 0.0
H182 H 0.42076 0.90246 0.2766 0.0
H183 H 0.45432 0.92242 0.6763 0.0
Eu184 Eu 0.50244 0.54276 0.85967 0.0
Eu185 Eu 0.56391 0.52073 0.67169 0.0
C186 C 0.59044 0.53865 0.92987 0.0
C187 C 0.4233 0.58452 0.02498 0.0
C188 C 0.41218 0.60813 0.93753 0.0
C189 C 0.3952 0.62567 0.15811 0.0
C190 C 0.39461 0.64164 0.96152 0.0
C191 C 0.41233 0.59214 0.1339 0.0
C192 C 0.38933 0.65239 0.07346 0.0
C193 C 0.4523 0.55686 1.00875 0.0
O194 O 0.55338 0.46435 0.75247 0.0
O195 O 0.51352 0.48124 0.89132 0.0
C196 C 0.53358 0.45598 0.84079 0.0
O197 O 0.46768 0.5388 0.69972 0.0
O198 O 0.62052 0.52877 0.6129 0.0
O199 O 0.58118 0.49541 0.51625 0.0
O200 O 0.50897 0.51587 0.5734 0.0
C201 C 0.47525 0.52659 0.59907 0.0
O202 O 0.50824 0.59734 0.76465 0.0
O203 O 0.55654 0.58324 0.64936 0.0
O204 O 0.59631 0.52028 0.83687 0.0
O205 O 0.44726 0.53309 0.92745 0.0
O206 O 0.48611 0.57007 1.01309 0.0
O207 O 0.5582 0.55446 0.94732 0.0
C208 C 0.64323 0.4777 0.51105 0.0
C209 C 0.65132 0.45209 0.59616 0.0
C210 C 0.67123 0.43702 0.37632 0.0
C211 C 0.66738 0.41802 0.56988 0.0
C212 C 0.65576 0.47119 0.40304 0.0
C213 C 0.6741 0.40871 0.45757 0.0
C214 C 0.61555 0.50668 0.52732 0.0
C215 C 0.53204 0.60698 0.68715 0.0
H216 H 0.42013 0.60237 0.85237 0.0
H217 H 0.39134 0.63226 0.24541 0.0
H218 H 0.38926 0.6609 0.89373 0.0
H219 H 0.42051 0.57403 0.2022 0.0
H220 H 0.64219 0.45697 0.68068 0.0
H221 H 0.67634 0.43162 0.28898 0.0
H222 H 0.67063 0.39757 0.63556 0.0
H223 H 0.65007 0.49094 0.33664 0.0
Eu224 Eu 0.04552 0.5731 0.6615 0.0
Eu225 Eu 1.02663 0.50668 0.83377 0.0
C226 C 0.11175 0.53777 0.82662 0.0
C227 C 0.09748 0.64624 0.49477 0.0
C228 C 0.12371 0.65422 0.58015 0.0
C229 C 0.14102 0.66727 0.35692 0.0
C230 C 0.15922 0.66701 0.55317 0.0
C231 C 0.10589 0.65421 0.38384 0.0
C232 C 0.16893 0.67152 0.44048 0.0
C233 C 0.06452 0.62346 0.51602 0.0
O234 O 1.0137 0.55974 0.93328 0.0
O235 O 0.04369 0.60348 0.82833 0.0
C236 C 1.02691 0.59388 0.92079 0.0
O237 O 0.9823 0.57223 0.651 0.0
O238 O 1.01737 0.48231 0.9981 0.0
O239 O 1.01175 0.44818 0.85034 0.0
O240 O 0.9717 0.51711 0.74112 0.0
C241 C 0.95967 0.54522 0.68026 0.0
O242 O 0.03355 0.52115 0.5559 0.0
O243 O 0.0532 0.47898 0.68356 0.0
O244 O 0.08693 0.51793 0.87982 0.0
O245 O 0.06938 0.58794 0.50227 0.0
O246 O 0.04562 0.63089 0.60509 0.0
O247 O 0.1025 0.55741 0.73691 0.0
C248 C 0.96882 0.4386 0.99011 0.0
C249 C 0.93878 0.4621 0.96871 0.0
C250 C 0.92707 0.39384 0.07381 0.0
C251 C 0.90334 0.45208 1.00155 0.0
C252 C 0.96281 0.40399 0.04028 0.0
C253 C 0.897 0.4182 0.05698 0.0
C254 C 1.00593 0.45056 0.95702 0.0
C255 C 0.04462 0.48728 0.57927 0.0
H256 H 0.11777 0.64785 0.66651 0.0
H257 H 0.14725 0.66979 0.26907 0.0
H258 H 0.17994 0.67024 0.61954 0.0
H259 H 0.08635 0.64735 0.31668 0.0
H260 H 0.94292 0.48886 0.92954 0.0
H261 H 0.92322 0.36754 0.11591 0.0
H262 H 0.88145 0.47222 0.98937 0.0
H263 H 0.98572 0.38523 0.05547 0.0
C264 C 0.15677 0.06219 0.3956 0.0
C265 C 0.19169 0.04687 0.42389 0.0
H266 H 0.10025 0.07182 0.44369 0.0
C267 C 0.19458 0.02713 0.5255 0.0
H268 H 0.15342 0.07796 0.31908 0.0
C269 C 0.16427 1.02406 0.59815 0.0
C270 C 0.12963 0.04041 0.57203 0.0
H271 H 0.22091 1.01514 0.55113 0.0
H272 H 0.16827 1.00922 0.67612 0.0
C273 C 0.12626 0.05891 0.46806 0.0
C274 C 0.54225 0.19004 0.48058 0.0
C275 C 0.52009 0.18798 0.38228 0.0
H276 H 0.56125 0.16325 0.63131 0.0
C277 C 0.50195 0.15394 0.35832 0.0
H278 H 0.55665 0.21567 0.50204 0.0
C279 C 0.50444 0.1236 0.43304 0.0
C280 C 0.52508 0.12631 0.53451 0.0
H281 H 0.48461 0.15126 0.28358 0.0
H282 H 0.48928 0.09833 0.41257 0.0
C283 C 0.5446 0.15988 0.55544 0.0
C284 C 0.41825 0.50332 0.33148 0.0
C285 C 0.38297 0.5176 0.35596 0.0
H286 H 0.47477 0.49475 0.38746 0.0
C287 C 0.3792 0.53705 0.45718 0.0
H288 H 0.42219 0.48826 0.25422 0.0
C289 C 0.40915 0.5404 0.5343 0.0
C290 C 0.44411 0.52473 0.5125 0.0
H291 H 0.35255 0.54852 0.47872 0.0
H292 H 0.40459 0.55483 0.6123 0.0
C293 C 0.44839 0.5069 0.40841 0.0
C294 C 0.06293 0.39568 0.42017 0.0
C295 C 0.05231 0.40442 0.30903 0.0
H296 H 0.06893 0.41418 0.59133 0.0
C297 C 0.03831 0.44038 0.28932 0.0
H298 H 0.07439 0.36872 0.43936 0.0
C299 C 0.03553 0.46672 0.3763 0.0
C300 C 0.0468 0.45834 0.4871 0.0
H301 H 0.03035 0.44863 0.20527 0.0
H302 H 1.02497 0.49402 0.35592 0.0
C303 C 0.06006 0.42207 0.50766 0.0
C304 C 0.88401 0.04254 0.10629 0.0
C305 C 0.8888 1.02439 0.21 0.0
H306 H 0.90692 0.05594 0.94599 0.0
C307 C 0.92207 1.00441 0.22696 0.0
H308 H 0.85943 0.05905 0.09064 0.0
C309 C 0.94959 1.0029 0.14463 0.0
C310 C 0.94523 1.0215 0.04151 0.0
H311 H 0.9275 0.9908 0.30626 0.0
H312 H 0.97485 0.98778 0.16341 0.0
C313 C 0.91157 0.04091 1.0233 0.0
C314 C 0.55656 0.92521 0.21421 0.0
C315 C 0.53899 0.89048 0.19661 0.0
H316 H 0.56989 0.97918 0.14959 0.0
C317 C 0.52093 0.88452 0.0923 0.0
H318 H 0.56983 0.93144 0.29427 0.0
C319 C 0.52082 0.91224 1.0084 0.0
C320 C 0.53823 0.94714 0.02659 0.0
H321 H 0.50616 0.85871 0.07634 0.0
H322 H 0.50626 0.90655 0.93 0.0
C323 C 0.55633 0.95289 0.13097 0.0
C324 C 0.68587 0.52896 0.07651 0.0
C325 C 0.683 0.55256 0.16981 0.0
H326 H 0.65964 0.50631 0.92836 0.0
C327 C 0.64837 0.56923 0.18858 0.0
H328 H 0.71201 0.51559 0.05957 0.0
C329 C 0.61814 0.56407 0.11288 0.0
C330 C 0.62159 0.54205 1.01596 0.0
H331 H 0.64512 0.58752 0.25964 0.0
H332 H 0.59237 0.57826 0.12884 0.0
C333 C 0.65575 0.52388 1.00069 0.0
C334 C 0.03702 0.68495 0.09254 0.0
C335 C 1.0181 0.67672 0.19157 0.0
H336 H 0.05424 0.66619 0.93067 0.0
C337 C 1.00232 0.64081 0.20023 0.0
H338 H 0.05048 0.71169 0.08313 0.0
C339 C 1.00471 0.61439 0.11313 0.0
C340 C 1.02334 0.62258 1.01356 0.0
H341 H 0.98847 0.63282 0.27613 0.0
H342 H 0.99224 0.58726 0.12472 0.0
C343 C 0.03932 0.65852 1.00492 0.0
C344 C 0.12655 0.20992 0.39115 0.0
C345 C 0.11349 0.24664 0.38794 0.0
H346 H 0.11061 0.15367 0.42444 0.0
C347 C 0.08959 0.25724 0.47416 0.0
H348 H 0.14827 0.20123 0.3357 0.0
C349 C 0.06702 0.23037 0.52211 0.0
C350 C 0.07142 0.19292 0.49275 0.0
H351 H 0.08176 0.28589 0.48616 0.0
H352 H 0.04346 0.2397 0.56897 0.0
C353 C 0.10437 0.1826 0.43974 0.0
C354 C 0.30976 0.93352 0.41561 0.0
C355 C 0.30592 0.92874 0.29938 0.0
H356 H 0.34428 0.92446 0.55882 0.0
C357 C 0.32399 0.89875 0.24918 0.0
H358 H 0.29545 0.95573 0.45772 0.0
C359 C 0.35202 0.88007 0.30842 0.0
C360 C 0.36269 0.89231 0.41638 0.0
H361 H 0.32041 0.89349 0.16035 0.0
H362 H 0.36926 0.86081 0.26346 0.0
C363 C 0.33805 0.91525 0.47421 0.0
C364 C 0.66823 0.331 0.25234 0.0
C365 C 0.63742 0.31226 0.29606 0.0
H366 H 0.70699 0.3758 0.27473 0.0
C367 C 0.62981 0.31653 0.40983 0.0
H368 H 0.67539 0.32733 0.16549 0.0
C369 C 0.64714 0.34485 0.47154 0.0
C370 C 0.67244 0.36914 0.42004 0.0
H371 H 0.60661 0.30201 0.44656 0.0
H372 H 0.6363 0.35074 0.55331 0.0
C373 C 0.68608 0.359 0.31483 0.0
C374 C 0.2589 0.62587 0.39425 0.0
C375 C 0.26337 0.63559 0.28173 0.0
H376 H 0.22481 0.63076 0.53644 0.0
C377 C 0.24603 0.66776 0.24068 0.0
H378 H 0.27235 0.60148 0.42867 0.0
C379 C 0.2189 0.68518 0.30361 0.0
C380 C 0.20838 0.66986 0.4065 0.0
H381 H 0.24979 0.67635 0.15484 0.0
H382 H 0.2026 0.707 0.2648 0.0
C383 C 0.23145 0.6429 0.45649 0.0
C384 C 0.13045 0.81563 0.14841 0.0
C385 C 0.13371 0.81107 0.26473 0.0
H386 H 0.14397 0.84901 1.00961 0.0
C387 C 0.16429 0.82745 0.32141 0.0
H388 H 0.10783 0.80273 0.10107 0.0
C389 C 0.18585 0.85424 0.26774 0.0
C390 C 0.17608 0.86562 0.15839 0.0
H391 H 0.16853 0.82314 0.4104 0.0
H392 H 0.20634 0.86963 0.317 0.0
C393 C 0.15162 0.84261 0.09535 0.0
C394 C 0.74466 0.13238 0.13345 0.0
C395 C 0.74975 0.13732 0.24919 0.0
H396 H 0.71068 0.14368 0.99117 0.0
C397 C 0.73347 0.16826 0.30007 0.0
H398 H 0.75739 0.10933 0.09075 0.0
C399 C 0.70653 0.18876 0.2417 0.0
C400 C 0.6949 0.17758 0.13349 0.0
H401 H 0.73808 0.17364 0.38846 0.0
H402 H 0.69121 0.20956 0.28681 0.0
C403 C 0.71751 0.1525 0.07571 0.0
C404 C 0.43404 0.74421 0.1076 0.0
C405 C 0.42816 0.74918 0.22229 0.0
H406 H 0.42483 0.70942 0.96656 0.0
C407 C 0.39731 0.73166 0.27013 0.0
H408 H 0.45702 0.75785 0.06708 0.0
C409 C 0.37814 0.70366 0.21122 0.0
C410 C 0.39044 0.69245 0.10545 0.0
H411 H 0.39119 0.73609 0.35744 0.0
H412 H 0.35761 0.68735 0.25476 0.0
C413 C 0.4152 0.71607 0.04929 0.0
C414 C 0.83432 0.41457 0.29845 0.0
C415 C 0.80774 0.44006 0.25851 0.0
H416 H 0.88531 0.38761 0.26393 0.0
C417 C 0.80235 0.44347 0.14221 0.0
H418 H 0.83774 0.40955 0.38737 0.0
C419 C 0.82871 0.42921 0.07018 0.0
C420 C 0.86115 0.41274 0.11443 0.0
H421 H 0.78131 0.46167 0.10729 0.0
H422 H 0.82651 0.4362 0.98221 0.0
C423 C 0.86151 0.40157 0.22702 0.0
C424 C 0.06338 0.21021 0.92423 0.0
C425 C 0.05447 0.21581 0.03749 0.0
H426 H 0.06718 0.17134 0.7867 0.0
C427 C 0.03979 0.18504 0.09539 0.0
H428 H 0.07586 0.23261 0.87748 0.0
C429 C 0.03601 0.14979 0.04488 0.0
C430 C 0.04603 0.14368 0.93313 0.0
H431 H 0.03337 0.18775 0.18315 0.0
H432 H 1.0259 0.12693 0.09482 0.0
C433 C 0.05876 0.17481 0.87244 0.0
C434 C 0.35664 1.00205 0.93869 0.0
C435 C 0.34784 1.02396 0.03263 0.0
H436 H 0.39592 0.9885 0.812 0.0
C437 C 0.37354 0.05201 0.06405 0.0
H438 H 0.33811 0.97968 0.91268 0.0
C439 C 0.4074 0.05679 1.00671 0.0
C440 C 0.41686 0.03377 0.91546 0.0
H441 H 0.36854 0.06885 0.13724 0.0
H442 H 0.42683 0.0778 0.03682 0.0
C443 C 0.39022 1.00695 0.88107 0.0
C444 C 0.51768 0.37224 0.03568 0.0
C445 C 0.5459 0.3476 1.00494 0.0
H446 H 0.49163 0.42521 1.00948 0.0
C447 C 0.56773 0.35763 0.91286 0.0
H448 H 0.50101 0.36614 0.10782 0.0
C449 C 0.56253 0.39164 0.85624 0.0
C450 C 0.53566 0.41732 0.89072 0.0
H451 H 0.59032 0.33989 0.88825 0.0
H452 H 0.58094 0.39856 0.78881 0.0
C453 C 0.51269 0.40651 0.97977 0.0
C454 C 0.21083 0.57222 0.89592 0.0
C455 C 0.22204 0.54898 0.9852 0.0
H456 H 0.16824 0.58681 0.77532 0.0
C457 C 0.19795 0.51981 1.01446 0.0
H458 H 0.22825 0.59548 0.87259 0.0
C459 C 0.16297 0.51526 0.96011 0.0
C460 C 0.15102 0.53956 0.874 0.0
H461 H 0.20509 0.50198 0.08441 0.0
H462 H 0.14469 0.49341 0.98867 0.0
C463 C 0.17613 0.5674 0.84055 0.0
C464 C 1.0117 0.8773 0.50244 0.0
C465 C 0.03915 0.85103 0.53124 0.0
H466 H 0.98759 0.93075 0.53597 0.0
C467 C 0.06146 0.85872 0.62731 0.0
H468 H 0.99455 0.8731 0.42792 0.0
C469 C 0.05778 0.89193 0.689 0.0
C470 C 0.0317 0.9192 0.65717 0.0
H471 H 0.08331 0.83966 0.65174 0.0
H472 H 0.07661 0.89682 0.7594 0.0
C473 C 1.00804 0.91076 0.56423 0.0
C474 C 0.68648 1.01711 0.50085 0.0
C475 C 0.71242 0.04517 0.53006 0.0
H476 H 0.63299 0.99211 0.52969 0.0
C477 C 0.70388 0.06791 0.62252 0.0
H478 H 0.69125 0.99968 0.42874 0.0
C479 C 0.67025 0.0638 0.68056 0.0
C480 C 0.64335 0.03703 0.64783 0.0
H481 H 0.72257 0.09037 0.6466 0.0
H482 H 0.66467 0.08289 0.74814 0.0
C483 C 0.65261 1.01315 0.55841 0.0
C484 C 0.49615 0.70349 0.60217 0.0
C485 C 0.51966 0.71383 0.51421 0.0
H486 H 0.48147 0.66279 0.72515 0.0
C487 C 0.54964 0.69026 0.49158 0.0
H488 H 0.47245 0.72056 0.62139 0.0
C489 C 0.55461 0.65653 0.55058 0.0
C490 C 0.52984 0.64526 0.63463 0.0
H491 H 0.56787 0.69665 0.42325 0.0
H492 H 0.5771 0.63855 0.52686 0.0
C493 C 0.50119 0.67001 0.66147 0.0
C494 C 0.85921 0.51309 0.62644 0.0
C495 C 0.84761 0.53486 0.53446 0.0
H496 H 0.90269 0.49923 0.74396 0.0
C497 C 0.87184 0.56314 0.49883 0.0
H498 H 0.84171 0.49054 0.65475 0.0
C499 C 0.9074 0.56804 0.5498 0.0
C500 C 0.91988 0.54453 0.63716 0.0
H501 H 0.86439 0.57973 0.42641 0.0
H502 H 0.92588 0.5889 0.51634 0.0
C503 C 0.89459 0.51782 0.67684 0.0
loop_
_geom_bond_atom_site_label_1
_geom_bond_atom_site_label_2
_geom_bond_distance
_geom_bond_site_symmetry_2
_ccdc_geom_bond_type
H0 C7 0.929 . S
H1 C10 0.930 . S
H2 C12 0.929 . S
H3 C4 0.969 . S
C4 H3 0.969 . S
C4 O5 1.550 . S
C4 H6 0.973 . S
O5 C4 1.550 . S
O5 C11 1.412 . S
H6 C4 0.973 . S
C7 H0 0.929 . S
C7 C8 1.400 . S
C7 C9 1.364 . S
C8 C7 1.400 . S
C8 C12 1.377 . S
C9 C7 1.364 . S
C9 C10 1.374 . S
C10 H1 0.930 . S
C10 C9 1.374 . S
C10 C11 1.383 . S
C11 O5 1.412 . S
C11 C10 1.383 . S
C11 C12 1.394 . S
C12 H2 0.929 . S
C12 C8 1.377 . S
C12 C11 1.394 . S
H13 C20 0.929 . S
H14 C23 0.930 . S
H15 C25 0.929 . S
H16 C17 0.969 1_455 S
C17 H16 0.969 1_655 S
C17 O18 1.550 . S
C17 H19 0.973 . S
O18 C17 1.550 . S
O18 C24 1.412 . S
H19 C17 0.973 . S
C20 H13 0.929 . S
C20 C21 1.400 . S
C20 C22 1.364 . S
C21 C20 1.400 . S
C21 C25 1.377 . S
C22 C20 1.364 . S
C22 C23 1.374 . S
C23 H14 0.930 . S
C23 C22 1.374 . S
C23 C24 1.383 . S
C24 O18 1.412 . S
C24 C23 1.383 . S
C24 C25 1.394 . S
C25 H15 0.929 . S
C25 C21 1.377 . S
C25 C24 1.394 . S
H26 C33 0.929 . S
H27 C36 0.930 . S
H28 C38 0.929 . S
H29 C30 0.969 1_545 S
C30 H29 0.969 1_565 S
C30 O31 1.550 . S
C30 H32 0.973 . S
O31 C30 1.550 . S
O31 C37 1.412 . S
H32 C30 0.973 . S
C33 H26 0.929 . S
C33 C34 1.400 . S
C33 C35 1.364 . S
C34 C33 1.400 . S
C34 C38 1.377 . S
C35 C33 1.364 . S
C35 C36 1.374 . S
C36 H27 0.930 . S
C36 C35 1.374 . S
C36 C37 1.383 . S
C37 O31 1.412 . S
C37 C36 1.383 . S
C37 C38 1.394 . S
C38 H28 0.929 . S
C38 C34 1.377 . S
C38 C37 1.394 . S
H39 C46 0.929 . S
H40 C49 0.930 . S
H41 C51 0.929 . S
H42 C43 0.969 . S
C43 H42 0.969 . S
C43 O44 1.550 . S
C43 H45 0.973 . S
O44 C43 1.550 . S
O44 C50 1.412 . S
H45 C43 0.973 . S
C46 H39 0.929 . S
C46 C47 1.400 . S
C46 C48 1.364 . S
C47 C46 1.400 . S
C47 C51 1.377 . S
C48 C46 1.364 . S
C48 C49 1.374 . S
C49 H40 0.930 . S
C49 C48 1.374 . S
C49 C50 1.383 . S
C50 O44 1.412 . S
C50 C49 1.383 . S
C50 C51 1.394 . S
C51 H41 0.929 . S
C51 C47 1.377 . S
C51 C50 1.394 . S
H52 C59 0.929 . S
H53 C62 0.930 . S
H54 C64 0.929 . S
H55 C56 0.969 . S
C56 H55 0.969 . S
C56 O57 1.550 . S
C56 H58 0.973 . S
O57 C56 1.550 . S
O57 C63 1.412 . S
H58 C56 0.973 . S
C59 H52 0.929 . S
C59 C60 1.400 1_554 S
C59 C61 1.364 . S
C60 C59 1.400 1_556 S
C60 C64 1.377 . S
C61 C59 1.364 . S
C61 C62 1.374 . S
C62 H53 0.930 . S
C62 C61 1.374 . S
C62 C63 1.383 . S
C63 O57 1.412 . S
C63 C62 1.383 . S
C63 C64 1.394 1_554 S
C64 H54 0.929 . S
C64 C60 1.377 . S
C64 C63 1.394 1_556 S
H65 C72 0.929 . S
H66 C75 0.930 . S
H67 C77 0.929 . S
H68 C69 0.969 . S
C69 H68 0.969 . S
C69 O70 1.550 . S
C69 H71 0.973 . S
O70 C69 1.550 . S
O70 C76 1.412 . S
H71 C69 0.973 . S
C72 H65 0.929 . S
C72 C73 1.400 1_554 S
C72 C74 1.364 . S
C73 C72 1.400 1_556 S
C73 C77 1.377 . S
C74 C72 1.364 . S
C74 C75 1.374 . S
C75 H66 0.930 . S
C75 C74 1.374 . S
C75 C76 1.383 . S
C76 O70 1.412 . S
C76 C75 1.383 . S
C76 C77 1.394 1_554 S
C77 H67 0.929 . S
C77 C73 1.377 . S
C77 C76 1.394 1_556 S
H78 C85 0.928 1_556 S
H79 C88 0.930 . S
H80 C90 0.929 . S
H81 C82 0.969 . S
C82 H81 0.969 . S
C82 O83 1.550 . S
C82 H84 0.973 . S
O83 C82 1.550 . S
O83 C89 1.412 . S
H84 C82 0.973 . S
C85 H78 0.928 1_554 S
C85 C86 1.397 1_554 S
C85 C87 1.367 . S
C86 C85 1.397 1_556 S
C86 C90 1.377 . S
C87 C85 1.367 . S
C87 C88 1.374 . S
C88 H79 0.930 . S
C88 C87 1.374 . S
C88 C89 1.383 . S
C89 O83 1.412 . S
C89 C88 1.383 . S
C89 C90 1.394 1_554 S
C90 H80 0.929 . S
C90 C86 1.377 . S
C90 C89 1.394 1_556 S
H91 C98 0.929 . S
H92 C101 0.930 . S
H93 C103 0.929 . S
H94 C95 0.969 . S
C95 H94 0.969 . S
C95 O96 1.550 . S
C95 H97 0.973 . S
O96 C95 1.550 . S
O96 C102 1.412 . S
H97 C95 0.973 . S
C98 H91 0.929 . S
C98 C99 1.400 1_554 S
C98 C100 1.364 . S
C99 C98 1.400 1_556 S
C99 C103 1.377 . S
C100 C98 1.364 . S
C100 C101 1.374 . S
C101 H92 0.930 . S
C101 C100 1.374 . S
C101 C102 1.383 . S
C102 O96 1.412 . S
C102 C101 1.383 . S
C102 C103 1.394 1_554 S
C103 H93 0.929 . S
C103 C99 1.377 . S
C103 C102 1.394 1_556 S
Eu104 C113 2.828 . S
Eu104 O115 2.392 . S
Eu104 O117 2.418 1_545 S
Eu104 O122 2.373 1_655 S
Eu104 O125 2.488 . S
Eu104 O126 2.471 . S
Eu104 O127 2.349 1_655 S
Eu105 O114 2.373 1_455 S
Eu105 O118 2.488 1_556 S
Eu105 O119 2.471 . S
Eu105 O120 2.349 . S
Eu105 O123 2.392 1_565 S
Eu105 O124 2.418 1_565 S
Eu105 C134 2.828 1_556 S
C106 O124 1.244 . S
C106 O127 1.265 . S
C107 C108 1.379 1_655 S
C107 C111 1.373 . S
C107 C113 1.505 . S
C108 C107 1.379 1_455 S
C108 C110 1.369 . S
C108 H136 0.930 . S
C109 C111 1.383 . S
C109 C112 1.382 . S
C109 H137 0.930 . S
C110 C108 1.369 . S
C110 C112 1.392 1_455 S
C110 H138 0.930 . S
C111 C107 1.373 . S
C111 C109 1.383 . S
C111 H139 0.931 . S
C112 C109 1.382 . S
C112 C110 1.392 1_655 S
C113 Eu104 2.828 . S
C113 C107 1.505 . S
C113 O125 1.249 . S
C113 O126 1.244 . S
O114 Eu105 2.373 1_655 S
O114 C116 1.259 . S
O115 Eu104 2.392 . S
O115 C116 1.240 1_545 S
C116 O114 1.259 . S
C116 O115 1.240 1_565 S
O117 Eu104 2.418 1_565 S
O117 C121 1.244 . S
O118 Eu105 2.488 1_554 S
O118 C134 1.249 . S
O119 Eu105 2.471 . S
O119 C134 1.244 1_556 S
O120 Eu105 2.349 . S
O120 C121 1.265 1_455 S
C121 O117 1.244 . S
C121 O120 1.265 1_655 S
O122 Eu104 2.373 1_455 S
O122 C135 1.258 . S
O123 Eu105 2.392 1_545 S
O123 C135 1.242 . S
O124 Eu105 2.418 1_545 S
O124 C106 1.244 . S
O125 Eu104 2.488 . S
O125 C113 1.249 . S
O126 Eu104 2.471 . S
O126 C113 1.244 . S
O127 Eu104 2.349 1_455 S
O127 C106 1.265 . S
C128 C129 1.379 . S
C128 C132 1.373 . S
C128 C134 1.505 . S
C129 C128 1.379 . S
C129 C131 1.369 . S
C129 H140 0.930 1_455 S
C130 C132 1.383 . S
C130 C133 1.382 . S
C130 H141 0.930 . S
C131 C129 1.369 . S
C131 C133 1.392 . S
C131 H142 0.930 1_455 S
C132 C128 1.373 . S
C132 C130 1.383 . S
C132 H143 0.931 . S
C133 C130 1.382 . S
C133 C131 1.392 . S
C134 Eu105 2.828 1_554 S
C134 O118 1.249 . S
C134 O119 1.244 1_554 S
C134 C128 1.505 . S
C135 O122 1.258 . S
C135 O123 1.242 . S
H136 C108 0.930 . S
H137 C109 0.930 . S
H138 C110 0.930 . S
H139 C111 0.931 . S
H140 C129 0.930 1_655 S
H141 C130 0.930 . S
H142 C131 0.930 1_655 S
H143 C132 0.931 . S
Eu144 C153 2.828 . S
Eu144 O155 2.392 . S
Eu144 O157 2.418 . S
Eu144 O162 2.373 . S
Eu144 O165 2.488 . S
Eu144 O166 2.471 . S
Eu144 O167 2.349 1_545 S
Eu145 O154 2.373 1_565 S
Eu145 O158 2.488 . S
Eu145 O159 2.471 1_565 S
Eu145 O160 2.349 1_565 S
Eu145 O163 2.392 . S
Eu145 O164 2.418 . S
Eu145 C174 2.828 . S
C146 O164 1.244 . S
C146 O167 1.265 . S
C147 C148 1.379 . S
C147 C151 1.373 . S
C147 C153 1.505 1_554 S
C148 C147 1.379 . S
C148 C150 1.369 . S
C148 H176 0.930 1_545 S
C149 C151 1.383 . S
C149 C152 1.382 . S
C149 H177 0.930 . S
C150 C148 1.369 . S
C150 C152 1.392 . S
C150 H178 0.930 1_545 S
C151 C147 1.373 . S
C151 C149 1.383 . S
C151 H179 0.931 . S
C152 C149 1.382 . S
C152 C150 1.392 . S
C153 Eu144 2.828 . S
C153 C147 1.505 1_556 S
C153 O165 1.249 . S
C153 O166 1.244 . S
O154 Eu145 2.373 1_545 S
O154 C156 1.258 . S
O155 Eu144 2.392 . S
O155 C156 1.242 . S
C156 O154 1.258 . S
C156 O155 1.242 . S
O157 Eu144 2.418 . S
O157 C161 1.244 . S
O158 Eu145 2.488 . S
O158 C174 1.249 . S
O159 Eu145 2.471 1_545 S
O159 C174 1.244 1_545 S
O160 Eu145 2.349 1_545 S
O160 C161 1.265 . S
C161 O157 1.244 . S
C161 O160 1.265 . S
O162 Eu144 2.373 . S
O162 C175 1.258 1_545 S
O163 Eu145 2.392 . S
O163 C175 1.242 . S
O164 Eu145 2.418 . S
O164 C146 1.244 . S
O165 Eu144 2.488 . S
O165 C153 1.249 . S
O166 Eu144 2.471 . S
O166 C153 1.244 . S
O167 Eu144 2.349 1_565 S
O167 C146 1.265 . S
C168 C169 1.379 1_565 S
C168 C172 1.373 . S
C168 C174 1.505 . S
C169 C168 1.379 1_545 S
C169 C171 1.369 . S
C169 H180 0.930 . S
C170 C172 1.383 . S
C170 C173 1.382 . S
C170 H181 0.930 . S
C171 C169 1.369 . S
C171 C173 1.392 1_545 S
C171 H182 0.930 . S
C172 C168 1.373 . S
C172 C170 1.383 . S
C172 H183 0.931 . S
C173 C170 1.382 . S
C173 C171 1.392 1_565 S
C174 Eu145 2.828 . S
C174 O158 1.249 . S
C174 O159 1.244 1_565 S
C174 C168 1.505 . S
C175 O162 1.258 1_565 S
C175 O163 1.242 . S
H176 C148 0.930 1_565 S
H177 C149 0.930 . S
H178 C150 0.930 1_565 S
H179 C151 0.931 . S
H180 C169 0.930 . S
H181 C170 0.930 . S
H182 C171 0.930 . S
H183 C172 0.931 . S
Eu184 C193 2.828 . S
Eu184 O195 2.392 . S
Eu184 O197 2.418 . S
Eu184 O202 2.373 . S
Eu184 O205 2.488 . S
Eu184 O206 2.471 . S
Eu184 O207 2.349 . S
Eu185 O194 2.373 . S
Eu185 O198 2.488 . S
Eu185 O199 2.471 . S
Eu185 O200 2.349 . S
Eu185 O203 2.392 . S
Eu185 O204 2.418 . S
Eu185 C214 2.828 . S
C186 O204 1.244 . S
C186 O207 1.265 . S
C187 C188 1.379 . S
C187 C191 1.373 . S
C187 C193 1.505 1_554 S
C188 C187 1.379 . S
C188 C190 1.369 . S
C188 H216 0.930 . S
C189 C191 1.383 . S
C189 C192 1.382 . S
C189 H217 0.930 . S
C190 C188 1.369 . S
C190 C192 1.392 . S
C190 H218 0.930 . S
C191 C187 1.373 . S
C191 C189 1.383 . S
C191 H219 0.931 . S
C192 C189 1.382 . S
C192 C190 1.392 . S
C193 Eu184 2.828 . S
C193 C187 1.505 1_556 S
C193 O205 1.249 . S
C193 O206 1.244 . S
O194 Eu185 2.373 . S
O194 C196 1.258 . S
O195 Eu184 2.392 . S
O195 C196 1.242 . S
C196 O194 1.258 . S
C196 O195 1.242 . S
O197 Eu184 2.418 . S
O197 C201 1.244 . S
O198 Eu185 2.488 . S
O198 C214 1.249 . S
O199 Eu185 2.471 . S
O199 C214 1.244 . S
O200 Eu185 2.349 . S
O200 C201 1.265 . S
C201 O197 1.244 . S
C201 O200 1.265 . S
O202 Eu184 2.373 . S
O202 C215 1.258 . S
O203 Eu185 2.392 . S
O203 C215 1.242 . S
O204 Eu185 2.418 . S
O204 C186 1.244 . S
O205 Eu184 2.488 . S
O205 C193 1.249 . S
O206 Eu184 2.471 . S
O206 C193 1.244 . S
O207 Eu184 2.349 . S
O207 C186 1.265 . S
C208 C209 1.379 . S
C208 C212 1.373 . S
C208 C214 1.505 . S
C209 C208 1.379 . S
C209 C211 1.369 . S
C209 H220 0.930 . S
C210 C212 1.383 . S
C210 C213 1.382 . S
C210 H221 0.930 . S
C211 C209 1.369 . S
C211 C213 1.392 . S
C211 H222 0.930 . S
C212 C208 1.373 . S
C212 C210 1.383 . S
C212 H223 0.931 . S
C213 C210 1.382 . S
C213 C211 1.392 . S
C214 Eu185 2.828 . S
C214 O198 1.249 . S
C214 O199 1.244 . S
C214 C208 1.505 . S
C215 O202 1.258 . S
C215 O203 1.242 . S
H216 C188 0.930 . S
H217 C189 0.930 . S
H218 C190 0.930 . S
H219 C191 0.931 . S
H220 C209 0.930 . S
H221 C210 0.930 . S
H222 C211 0.930 . S
H223 C212 0.931 . S
Eu224 C233 2.828 . S
Eu224 O235 2.392 . S
Eu224 O237 2.418 1_455 S
Eu224 O242 2.373 . S
Eu224 O245 2.488 . S
Eu224 O246 2.471 . S
Eu224 O247 2.349 . S
Eu225 O234 2.373 . S
Eu225 O238 2.488 1_556 S
Eu225 O239 2.471 . S
Eu225 O240 2.349 . S
Eu225 O243 2.392 1_655 S
Eu225 O244 2.418 1_655 S
Eu225 C254 2.828 1_556 S
C226 O244 1.244 . S
C226 O247 1.265 . S
C227 C228 1.379 . S
C227 C231 1.373 . S
C227 C233 1.505 . S
C228 C227 1.379 . S
C228 C230 1.369 . S
C228 H256 0.930 . S
C229 C231 1.383 . S
C229 C232 1.382 . S
C229 H257 0.930 . S
C230 C228 1.369 . S
C230 C232 1.392 . S
C230 H258 0.930 . S
C231 C227 1.373 . S
C231 C229 1.383 . S
C231 H259 0.931 . S
C232 C229 1.382 . S
C232 C230 1.392 . S
C233 Eu224 2.828 . S
C233 C227 1.505 . S
C233 O245 1.249 . S
C233 O246 1.244 . S
O234 Eu225 2.373 . S
O234 C236 1.262 . S
O235 Eu224 2.392 . S
O235 C236 1.230 1_455 S
C236 O234 1.262 . S
C236 O235 1.230 1_655 S
O237 Eu224 2.418 1_655 S
O237 C241 1.244 . S
O238 Eu225 2.488 1_554 S
O238 C254 1.249 . S
O239 Eu225 2.471 . S
O239 C254 1.244 1_556 S
O240 Eu225 2.349 . S
O240 C241 1.265 . S
C241 O237 1.244 . S
C241 O240 1.265 . S
O242 Eu224 2.373 . S
O242 C255 1.258 . S
O243 Eu225 2.392 1_455 S
O243 C255 1.242 . S
O244 Eu225 2.418 1_455 S
O244 C226 1.244 . S
O245 Eu224 2.488 . S
O245 C233 1.249 . S
O246 Eu224 2.471 . S
O246 C233 1.244 . S
O247 Eu224 2.349 . S
O247 C226 1.265 . S
C248 C249 1.379 . S
C248 C252 1.373 . S
C248 C254 1.505 . S
C249 C248 1.379 . S
C249 C251 1.369 . S
C249 H260 0.930 . S
C250 C252 1.383 . S
C250 C253 1.382 . S
C250 H261 0.930 . S
C251 C249 1.369 . S
C251 C253 1.392 . S
C251 H262 0.930 . S
C252 C248 1.373 . S
C252 C250 1.383 . S
C252 H263 0.931 . S
C253 C250 1.382 . S
C253 C251 1.392 . S
C254 Eu225 2.828 1_554 S
C254 O238 1.249 . S
C254 O239 1.244 1_554 S
C254 C248 1.505 . S
C255 O242 1.258 . S
C255 O243 1.242 . S
H256 C228 0.930 . S
H257 C229 0.930 . S
H258 C230 0.930 . S
H259 C231 0.931 . S
H260 C249 0.930 . S
H261 C250 0.930 . S
H262 C251 0.930 . S
H263 C252 0.931 . S
C264 C265 1.387 . S
C264 H268 0.950 . S
C264 C273 1.390 . S
C265 C264 1.387 . S
C265 C267 1.387 1_545 S
H266 C273 0.950 . S
C267 C265 1.387 1_565 S
C267 C269 1.390 . S
C267 H271 0.950 . S
H268 C264 0.950 . S
C269 C267 1.390 . S
C269 C270 1.387 1_565 S
C269 H272 0.950 . S
C270 C269 1.387 1_545 S
C270 C273 1.387 . S
H271 C267 0.950 . S
H272 C269 0.950 . S
C273 C264 1.390 . S
C273 H266 0.950 . S
C273 C270 1.387 . S
C274 C275 1.387 . S
C274 H278 0.950 . S
C274 C283 1.390 . S
C275 C274 1.387 . S
C275 C277 1.387 . S
H276 C283 0.950 . S
C277 C275 1.387 . S
C277 C279 1.390 . S
C277 H281 0.950 . S
H278 C274 0.950 . S
C279 C277 1.390 . S
C279 C280 1.387 . S
C279 H282 0.950 . S
C280 C279 1.387 . S
C280 C283 1.387 . S
H281 C277 0.950 . S
H282 C279 0.950 . S
C283 C274 1.390 . S
C283 H276 0.950 . S
C283 C280 1.387 . S
C284 C285 1.387 . S
C284 H288 0.950 . S
C284 C293 1.390 . S
C285 C284 1.387 . S
C285 C287 1.387 . S
H286 C293 0.950 . S
C287 C285 1.387 . S
C287 C289 1.390 . S
C287 H291 0.950 . S
H288 C284 0.950 . S
C289 C287 1.390 . S
C289 C290 1.387 . S
C289 H292 0.950 . S
C290 C289 1.387 . S
C290 C293 1.387 . S
H291 C287 0.950 . S
H292 C289 0.950 . S
C293 C284 1.390 . S
C293 H286 0.950 . S
C293 C290 1.387 . S
C294 C295 1.387 . S
C294 H298 0.950 . S
C294 C303 1.390 . S
C295 C294 1.387 . S
C295 C297 1.387 . S
H296 C303 0.950 . S
C297 C295 1.387 . S
C297 C299 1.390 . S
C297 H301 0.950 1_455 S
H298 C294 0.950 . S
C299 C297 1.390 . S
C299 C300 1.387 . S
C299 H302 0.950 1_455 S
C300 C299 1.387 . S
C300 C303 1.387 . S
H301 C297 0.950 1_655 S
H302 C299 0.950 1_655 S
C303 C294 1.390 . S
C303 H296 0.950 . S
C303 C300 1.387 . S
C304 C305 1.387 1_545 S
C304 H308 0.950 . S
C304 C313 1.390 . S
C305 C304 1.387 1_565 S
C305 C307 1.387 . S
H306 C313 0.950 . S
C307 C305 1.387 . S
C307 C309 1.390 . S
C307 H311 0.950 . S
H308 C304 0.950 . S
C309 C307 1.390 . S
C309 C310 1.387 . S
C309 H312 0.950 . S
C310 C309 1.387 . S
C310 C313 1.387 1_565 S
H311 C307 0.950 . S
H312 C309 0.950 . S
C313 C304 1.390 . S
C313 H306 0.950 . S
C313 C310 1.387 1_545 S
C314 C315 1.387 . S
C314 H318 0.950 . S
C314 C323 1.390 . S
C315 C314 1.387 . S
C315 C317 1.387 . S
H316 C323 0.950 . S
C317 C315 1.387 . S
C317 C319 1.390 . S
C317 H321 0.950 . S
H318 C314 0.950 . S
C319 C317 1.390 . S
C319 C320 1.387 . S
C319 H322 0.950 1_554 S
C320 C319 1.387 . S
C320 C323 1.387 . S
H321 C317 0.950 . S
H322 C319 0.950 1_556 S
C323 C314 1.390 . S
C323 H316 0.950 . S
C323 C320 1.387 . S
C324 C325 1.387 . S
C324 H328 0.950 . S
C324 C333 1.390 . S
C325 C324 1.387 . S
C325 C327 1.387 . S
H326 C333 0.950 . S
C327 C325 1.387 . S
C327 C329 1.390 . S
C327 H331 0.950 . S
H328 C324 0.950 . S
C329 C327 1.390 . S
C329 C330 1.387 . S
C329 H332 0.950 . S
C330 C329 1.387 . S
C330 C333 1.387 . S
H331 C327 0.950 . S
H332 C329 0.950 . S
C333 C324 1.390 . S
C333 H326 0.950 . S
C333 C330 1.387 . S
C334 C335 1.387 . S
C334 H338 0.950 . S
C334 C343 1.390 . S
C335 C334 1.387 . S
C335 C337 1.387 1_655 S
H336 C343 0.950 . S
C337 C335 1.387 1_455 S
C337 C339 1.390 . S
C337 H341 0.950 . S
H338 C334 0.950 . S
C339 C337 1.390 . S
C339 C340 1.387 1_455 S
C339 H342 0.950 . S
C340 C339 1.387 1_655 S
C340 C343 1.387 . S
H341 C337 0.950 . S
H342 C339 0.950 . S
C343 C334 1.390 . S
C343 H336 0.950 . S
C343 C340 1.387 . S
C344 C345 1.387 . S
C344 H348 0.950 . S
C344 C353 1.390 . S
C345 C344 1.387 . S
C345 C347 1.387 . S
H346 C353 0.950 . S
C347 C345 1.387 . S
C347 C349 1.390 . S
C347 H351 0.950 . S
H348 C344 0.950 . S
C349 C347 1.390 . S
C349 C350 1.387 . S
C349 H352 0.950 1_554 S
C350 C349 1.387 . S
C350 C353 1.387 . S
H351 C347 0.950 . S
H352 C349 0.950 1_556 S
C353 C344 1.390 . S
C353 H346 0.950 . S
C353 C350 1.387 . S
C354 C355 1.387 . S
C354 H358 0.950 . S
C354 C363 1.390 . S
C355 C354 1.387 . S
C355 C357 1.387 1_545 S
H356 C363 0.950 . S
C357 C355 1.387 1_565 S
C357 C359 1.390 . S
C357 H361 0.950 . S
H358 C354 0.950 . S
C359 C357 1.390 . S
C359 C360 1.387 . S
C359 H362 0.950 . S
C360 C359 1.387 . S
C360 C363 1.387 1_565 S
H361 C357 0.950 . S
H362 C359 0.950 . S
C363 C354 1.390 . S
C363 H356 0.950 . S
C363 C360 1.387 1_545 S
C364 C365 1.387 . S
C364 H368 0.950 . S
C364 C373 1.390 . S
C365 C364 1.387 . S
C365 C367 1.387 . S
H366 C373 0.950 . S
C367 C365 1.387 . S
C367 C369 1.390 . S
C367 H371 0.950 . S
H368 C364 0.950 . S
C369 C367 1.390 . S
C369 C370 1.387 . S
C369 H372 0.950 . S
C370 C369 1.387 . S
C370 C373 1.387 . S
H371 C367 0.950 . S
H372 C369 0.950 . S
C373 C364 1.390 . S
C373 H366 0.950 . S
C373 C370 1.387 . S
C374 C375 1.387 . S
C374 H378 0.950 . S
C374 C383 1.390 . S
C375 C374 1.387 . S
C375 C377 1.387 . S
H376 C383 0.950 . S
C377 C375 1.387 . S
C377 C379 1.390 . S
C377 H381 0.950 . S
H378 C374 0.950 . S
C379 C377 1.390 . S
C379 C380 1.387 . S
C379 H382 0.950 . S
C380 C379 1.387 . S
C380 C383 1.387 . S
H381 C377 0.950 . S
H382 C379 0.950 . S
C383 C374 1.390 . S
C383 H376 0.950 . S
C383 C380 1.387 . S
C384 C385 1.387 . S
C384 H388 0.950 . S
C384 C393 1.390 1_655 S
C385 C384 1.387 . S
C385 C387 1.387 . S
H386 C393 0.950 . S
C387 C385 1.387 . S
C387 C389 1.390 1_655 S
C387 H391 0.950 . S
H388 C384 0.950 . S
C389 C387 1.390 1_455 S
C389 C390 1.387 . S
C389 H392 0.950 . S
C390 C389 1.387 . S
C390 C393 1.387 . S
H391 C387 0.950 . S
H392 C389 0.950 . S
C393 C384 1.390 1_455 S
C393 H386 0.950 . S
C393 C390 1.387 . S
C394 C395 1.387 . S
C394 H398 0.950 . S
C394 C403 1.390 1_565 S
C395 C394 1.387 . S
C395 C397 1.387 1_565 S
H396 C403 0.950 1_565 S
C397 C395 1.387 1_545 S
C397 C399 1.390 . S
C397 H401 0.950 . S
H398 C394 0.950 . S
C399 C397 1.390 . S
C399 C400 1.387 . S
C399 H402 0.950 . S
C400 C399 1.387 . S
C400 C403 1.387 . S
H401 C397 0.950 . S
H402 C399 0.950 . S
C403 C394 1.390 1_545 S
C403 H396 0.950 1_545 S
C403 C400 1.387 . S
C404 C405 1.387 . S
C404 H408 0.950 . S
C404 C413 1.390 . S
C405 C404 1.387 . S
C405 C407 1.387 . S
H406 C413 0.950 . S
C407 C405 1.387 . S
C407 C409 1.390 . S
C407 H411 0.950 . S
H408 C404 0.950 . S
C409 C407 1.390 . S
C409 C410 1.387 . S
C409 H412 0.950 . S
C410 C409 1.387 . S
C410 C413 1.387 . S
H411 C407 0.950 . S
H412 C409 0.950 . S
C413 C404 1.390 . S
C413 H406 0.950 . S
C413 C410 1.387 . S
C414 C415 1.387 . S
C414 H418 0.950 . S
C414 C423 1.390 . S
C415 C414 1.387 . S
C415 C417 1.387 . S
H416 C423 0.950 . S
C417 C415 1.387 . S
C417 C419 1.390 . S
C417 H421 0.950 . S
H418 C414 0.950 . S
C419 C417 1.390 . S
C419 C420 1.387 . S
C419 H422 0.950 . S
C420 C419 1.387 . S
C420 C423 1.387 . S
H421 C417 0.950 . S
H422 C419 0.950 . S
C423 C414 1.390 . S
C423 H416 0.950 . S
C423 C420 1.387 . S
C424 C425 1.387 . S
C424 H428 0.950 . S
C424 C433 1.390 . S
C425 C424 1.387 . S
C425 C427 1.387 . S
H426 C433 0.950 . S
C427 C425 1.387 . S
C427 C429 1.390 . S
C427 H431 0.950 1_556 S
H428 C424 0.950 . S
C429 C427 1.390 . S
C429 C430 1.387 . S
C429 H432 0.950 1_556 S
C430 C429 1.387 . S
C430 C433 1.387 . S
H431 C427 0.950 1_554 S
H432 C429 0.950 1_554 S
C433 C424 1.390 . S
C433 H426 0.950 . S
C433 C430 1.387 . S
C434 C435 1.387 . S
C434 H438 0.950 1_545 S
C434 C443 1.390 . S
C435 C434 1.387 . S
C435 C437 1.387 . S
H436 C443 0.950 1_565 S
C437 C435 1.387 . S
C437 C439 1.390 . S
C437 H441 0.950 . S
H438 C434 0.950 1_565 S
C439 C437 1.390 . S
C439 C440 1.387 . S
C439 H442 0.950 . S
C440 C439 1.387 . S
C440 C443 1.387 . S
H441 C437 0.950 . S
H442 C439 0.950 . S
C443 C434 1.390 . S
C443 H436 0.950 1_545 S
C443 C440 1.387 . S
C444 C445 1.387 . S
C444 H448 0.950 . S
C444 C453 1.390 . S
C445 C444 1.387 . S
C445 C447 1.387 . S
H446 C453 0.950 . S
C447 C445 1.387 . S
C447 C449 1.390 . S
C447 H451 0.950 . S
H448 C444 0.950 . S
C449 C447 1.390 . S
C449 C450 1.387 . S
C449 H452 0.950 . S
C450 C449 1.387 . S
C450 C453 1.387 . S
H451 C447 0.950 . S
H452 C449 0.950 . S
C453 C444 1.390 . S
C453 H446 0.950 . S
C453 C450 1.387 . S
C454 C455 1.387 . S
C454 H458 0.950 1_556 S
C454 C463 1.390 . S
C455 C454 1.387 . S
C455 C457 1.387 . S
H456 C463 0.950 1_554 S
C457 C455 1.387 . S
C457 C459 1.390 . S
C457 H461 0.950 . S
H458 C454 0.950 1_554 S
C459 C457 1.390 . S
C459 C460 1.387 . S
C459 H462 0.950 . S
C460 C459 1.387 . S
C460 C463 1.387 . S
H461 C457 0.950 . S
H462 C459 0.950 . S
C463 C454 1.390 . S
C463 H456 0.950 1_556 S
C463 C460 1.387 . S
C464 C465 1.387 . S
C464 H468 0.950 . S
C464 C473 1.390 . S
C465 C464 1.387 . S
C465 C467 1.387 . S
H466 C473 0.950 . S
C467 C465 1.387 . S
C467 C469 1.390 . S
C467 H471 0.950 . S
H468 C464 0.950 . S
C469 C467 1.390 . S
C469 C470 1.387 . S
C469 H472 0.950 . S
C470 C469 1.387 . S
C470 C473 1.387 . S
H471 C467 0.950 . S
H472 C469 0.950 . S
C473 C464 1.390 . S
C473 H466 0.950 . S
C473 C470 1.387 . S
C474 C475 1.387 . S
C474 H478 0.950 . S
C474 C483 1.390 . S
C475 C474 1.387 . S
C475 C477 1.387 1_565 S
H476 C483 0.950 . S
C477 C475 1.387 1_545 S
C477 C479 1.390 . S
C477 H481 0.950 . S
H478 C474 0.950 . S
C479 C477 1.390 . S
C479 C480 1.387 1_545 S
C479 H482 0.950 . S
C480 C479 1.387 1_565 S
C480 C483 1.387 . S
H481 C477 0.950 . S
H482 C479 0.950 . S
C483 C474 1.390 . S
C483 H476 0.950 . S
C483 C480 1.387 . S
C484 C485 1.387 . S
C484 H488 0.950 . S
C484 C493 1.390 . S
C485 C484 1.387 . S
C485 C487 1.387 . S
H486 C493 0.950 . S
C487 C485 1.387 . S
C487 C489 1.390 . S
C487 H491 0.950 . S
H488 C484 0.950 . S
C489 C487 1.390 . S
C489 C490 1.387 . S
C489 H492 0.950 . S
C490 C489 1.387 . S
C490 C493 1.387 . S
H491 C487 0.950 . S
H492 C489 0.950 . S
C493 C484 1.390 . S
C493 H486 0.950 . S
C493 C490 1.387 . S
C494 C495 1.387 . S
C494 H498 0.950 . S
C494 C503 1.390 . S
C495 C494 1.387 . S
C495 C497 1.387 . S
H496 C503 0.950 . S
C497 C495 1.387 . S
C497 C499 1.390 . S
C497 H501 0.950 . S
H498 C494 0.950 . S
C499 C497 1.390 . S
C499 C500 1.387 . S
C499 H502 0.950 . S
C500 C499 1.387 . S
C500 C503 1.387 . S
H501 C497 0.950 . S
H502 C499 0.950 . S
C503 C494 1.390 . S
C503 H496 0.950 . S
C503 C500 1.387 . S
C265 C82 2.026 . S
C270 C135 2.464 . S
C280 C161 2.198 . S
C275 C95 1.701 . S
C290 C201 2.189 . S
C285 C56 1.769 . S
C300 C255 2.454 . S
C295 C69 2.062 . S
C310 C116 2.465 1_554 S
C305 C30 2.001 . S
C315 C43 1.744 . S
C320 C146 2.199 1_554 S
C325 C4 1.749 . S
C330 C186 2.188 1_554 S
C335 C17 2.022 . S
C340 C236 2.463 1_554 S
C350 C112 0.895 1_455 S
C345 C74 0.881 . S
C360 C173 0.933 . S
C355 C87 0.949 . S
C370 C213 0.778 . S
C365 C100 0.784 . S
C375 C61 0.793 . S
C380 C232 0.800 . S
C385 C22 0.875 . S
C390 C133 0.893 . S
C400 C152 0.927 . S
C395 C35 0.943 . S
C410 C192 0.780 . S
C405 C48 0.786 . S
C415 C9 0.794 . S
C420 C253 0.801 . S
C425 C73 2.069 . S
C430 C106 2.404 . S
C435 C86 2.429 . S
C440 C156 2.710 . S
C450 C196 2.539 . S
C445 C99 2.277 . S
C460 C226 2.210 . S
C455 C60 1.901 . S
C465 C21 2.067 . S
C470 C121 2.404 . S
C480 C175 2.710 . S
C475 C34 2.429 . S
C490 C215 2.539 . S
C485 C47 2.283 . S
C495 C8 1.903 . S
C500 C241 2.211 . S
