# Generated by pormake.
# Topology cml, (3,6)-cn, num edge types: 1
# Building blocks:
#     Node 0, Type 0, BuildingBlock: PAMTOO_clean_linker_0, # of connection points: 3
#     Node 1, Type 0, BuildingBlock: PAMTOO_clean_linker_0, # of connection points: 3
#     Node 2, Type 0, BuildingBlock: PAMTOO_clean_linker_0, # of connection points: 3
#     Node 3, Type 0, BuildingBlock: PAMTOO_clean_linker_0, # of connection points: 3
#     Node 4, Type 0, BuildingBlock: PAMTOO_clean_linker_0, # of connection points: 3
#     Node 5, Type 0, BuildingBlock: PAMTOO_clean_linker_0, # of connection points: 3
#     Node 6, Type 0, BuildingBlock: PAMTOO_clean_linker_0, # of connection points: 3
#     Node 7, Type 0, BuildingBlock: PAMTOO_clean_linker_0, # of connection points: 3
#     Node 8, Type 1, BuildingBlock: IZENUY_clean_sbu_0, # of connection points: 6
#     Node 9, Type 1, BuildingBlock: IZENUY_clean_sbu_0, # of connection points: 6
#     Node 10, Type 1, BuildingBlock: IZENUY_clean_sbu_0, # of connection points: 6
#     Node 11, Type 1, BuildingBlock: IZENUY_clean_sbu_0, # of connection points: 6
#     Edge 12, Type (0, 1), BuildingBlock: CIFDUS_clean_linker_0, # of connection points: 2
#     Edge 13, Type (0, 1), BuildingBlock: CIFDUS_clean_linker_0, # of connection points: 2
#     Edge 14, Type (0, 1), BuildingBlock: CIFDUS_clean_linker_0, # of connection points: 2
#     Edge 15, Type (0, 1), BuildingBlock: CIFDUS_clean_linker_0, # of connection points: 2
#     Edge 16, Type (0, 1), BuildingBlock: CIFDUS_clean_linker_0, # of connection points: 2
#     Edge 17, Type (0, 1), BuildingBlock: CIFDUS_clean_linker_0, # of connection points: 2
#     Edge 18, Type (0, 1), BuildingBlock: CIFDUS_clean_linker_0, # of connection points: 2
#     Edge 19, Type (0, 1), BuildingBlock: CIFDUS_clean_linker_0, # of connection points: 2
#     Edge 20, Type (0, 1), BuildingBlock: CIFDUS_clean_linker_0, # of connection points: 2
#     Edge 21, Type (0, 1), BuildingBlock: CIFDUS_clean_linker_0, # of connection points: 2
#     Edge 22, Type (0, 1), BuildingBlock: CIFDUS_clean_linker_0, # of connection points: 2
#     Edge 23, Type (0, 1), BuildingBlock: CIFDUS_clean_linker_0, # of connection points: 2
#     Edge 24, Type (0, 1), BuildingBlock: CIFDUS_clean_linker_0, # of connection points: 2
#     Edge 25, Type (0, 1), BuildingBlock: CIFDUS_clean_linker_0, # of connection points: 2
#     Edge 26, Type (0, 1), BuildingBlock: CIFDUS_clean_linker_0, # of connection points: 2
#     Edge 27, Type (0, 1), BuildingBlock: CIFDUS_clean_linker_0, # of connection points: 2
#     Edge 28, Type (0, 1), BuildingBlock: CIFDUS_clean_linker_0, # of connection points: 2
#     Edge 29, Type (0, 1), BuildingBlock: CIFDUS_clean_linker_0, # of connection points: 2
#     Edge 30, Type (0, 1), BuildingBlock: CIFDUS_clean_linker_0, # of connection points: 2
#     Edge 31, Type (0, 1), BuildingBlock: CIFDUS_clean_linker_0, # of connection points: 2
#     Edge 32, Type (0, 1), BuildingBlock: CIFDUS_clean_linker_0, # of connection points: 2
#     Edge 33, Type (0, 1), BuildingBlock: CIFDUS_clean_linker_0, # of connection points: 2
#     Edge 34, Type (0, 1), BuildingBlock: CIFDUS_clean_linker_0, # of connection points: 2
#     Edge 35, Type (0, 1), BuildingBlock: CIFDUS_clean_linker_0, # of connection points: 2
# Relax obj value: 0.004
# Max RMSD: 0.068
# Mean RMSD: 0.052
data_MOF--net-cml--node1-IZENUY_clean_sbu_0--node2-PAMTOO_clean_linker_0--edge1-CIFDUS_clean_linker_0
_symmetry_space_group_name_H-M    P1
_symmetry_Int_Tables_number       1
_symmetry_cell_setting            triclinic
loop_
_symmetry_equiv_pos_as_xyz
'x, y, z'
_cell_length_a     32.122142
_cell_length_b     35.854889
_cell_length_c     31.603079
_cell_angle_alpha  89.992246
_cell_angle_beta   88.37228
_cell_angle_gamma 90.149837
loop_
_atom_site_label
_atom_site_type_symbol
_atom_site_fract_x
_atom_site_fract_y
_atom_site_fract_z
_atom_type_partial_charge
H0 H 0.37816 0.43406 0.04996 0.0
H1 H 0.30409 0.40992 0.94184 0.0
H2 H 0.28264 0.35016 0.05862 0.0
H3 H 0.28907 0.30838 0.97638 0.0
C4 C 0.26698 0.32595 0.95858 0.0
O5 O 0.25845 0.35851 0.98053 0.0
H6 H 0.28237 0.3329 0.92758 0.0
C7 C 0.35358 0.41835 0.03524 0.0
C8 C 0.33219 0.39105 0.05909 0.0
C9 C 0.3446 0.42514 0.99272 0.0
C10 C 0.31148 0.4055 0.97469 0.0
C11 C 0.28897 0.37865 0.99859 0.0
C12 C 0.29927 0.37161 0.0408 0.0
H13 H 0.69174 0.5605 0.55811 0.0
H14 H 0.75876 0.66446 0.56025 0.0
H15 H 0.76391 0.59618 0.44852 0.0
H16 H 0.84394 0.6271 0.47668 0.0
C17 C 0.83319 0.65555 0.4859 0.0
O18 O 0.7905 0.65778 0.4831 0.0
H19 H 0.84216 0.66042 0.51921 0.0
C20 C 0.71316 0.58011 0.54292 0.0
C21 C 0.72683 0.57393 0.50097 0.0
C22 C 0.72421 0.61267 0.56453 0.0
C23 C 0.75007 0.63909 0.54406 0.0
C24 C 0.76498 0.63268 0.50254 0.0
C25 C 0.75297 0.60042 0.48091 0.0
H26 H 0.68682 0.48275 0.05776 0.0
H27 H 0.76075 0.38335 0.0654 0.0
H28 H 0.76069 0.44637 0.9497 0.0
H29 H 0.75985 0.3619 0.94086 0.0
C30 C 0.77746 0.35503 0.96965 0.0
O31 O 0.79116 0.38762 0.98792 0.0
H32 H 0.75605 0.33987 0.99203 0.0
C33 C 0.70945 0.46379 0.04353 0.0
C34 C 0.72272 0.46902 0.00125 0.0
C35 C 0.72257 0.43287 0.06673 0.0
C36 C 0.75042 0.40742 0.04783 0.0
C37 C 0.76442 0.41248 0.00581 0.0
C38 C 0.75028 0.44303 0.98239 0.0
H39 H 0.36309 0.59276 0.54025 0.0
H40 H 0.28441 0.62208 0.4372 0.0
H41 H 0.278 0.68461 0.55294 0.0
H42 H 0.19736 0.65917 0.51616 0.0
C43 C 0.20502 0.66677 0.48265 0.0
O44 O 0.24656 0.67619 0.47814 0.0
H45 H 0.19841 0.64203 0.46265 0.0
C46 C 0.33974 0.61055 0.52668 0.0
C47 C 0.32323 0.64002 0.55114 0.0
C48 C 0.32679 0.60387 0.48518 0.0
C49 C 0.2949 0.62618 0.46913 0.0
C50 C 0.27687 0.65466 0.49398 0.0
C51 C 0.29119 0.6617 0.53472 0.0
H52 H 0.86599 0.94128 0.04712 0.0
H53 H 0.78088 0.9146 0.94873 0.0
H54 H 0.78053 0.84912 0.06239 0.0
H55 H 0.77595 0.80651 0.98597 0.0
C56 C 0.75643 0.82507 0.96647 0.0
O57 O 0.74711 0.85734 0.98856 0.0
H58 H 0.77478 0.8321 0.93712 0.0
C59 C 0.84039 0.92471 0.03565 0.0
C60 C 0.82494 0.89466 0.06014 0.0
C61 C 0.82484 0.93235 0.99546 0.0
C62 C 0.79321 0.9094 0.97973 0.0
C63 C 0.77733 0.87949 0.00394 0.0
C64 C 0.79307 0.8723 0.04404 0.0
H65 H 0.15 0.10045 0.53843 0.0
H66 H 0.23766 0.19071 0.5511 0.0
H67 H 0.23765 0.12608 0.43697 0.0
H68 H 0.31954 0.14213 0.47276 0.0
C69 C 0.31392 0.17145 0.48302 0.0
O70 O 0.27311 0.18111 0.47646 0.0
H71 H 0.32044 0.17329 0.51736 0.0
C72 C 0.17599 0.11682 0.52595 0.0
C73 C 0.192 0.10935 0.485 0.0
C74 C 0.19195 0.14626 0.55013 0.0
C75 C 0.22457 0.16814 0.53292 0.0
C76 C 0.24112 0.16052 0.49239 0.0
C77 C 0.22464 0.13151 0.46837 0.0
H78 H 0.15254 0.93443 0.05324 0.0
H79 H 0.24387 0.84761 0.04087 0.0
H80 H 0.21865 0.91786 0.93426 0.0
H81 H 0.23801 0.84114 0.90981 0.0
C82 C 0.25593 0.83234 0.9377 0.0
O83 O 0.26495 0.86318 0.96194 0.0
H84 H 0.23617 0.81237 0.95641 0.0
C85 C 0.1756 0.91966 0.03397 0.0
C86 C 0.18203 0.92958 0.99135 0.0
C87 C 0.19728 0.8901 0.052 0.0
C88 C 0.22707 0.87071 0.02739 0.0
C89 C 0.23535 0.88132 0.9852 0.0
C90 C 0.21284 0.91067 0.96719 0.0
H91 H 0.87374 0.10377 0.5602 0.0
H92 H 0.81139 0.1294 0.44493 0.0
H93 H 0.7837 0.19207 0.55814 0.0
H94 H 0.71243 0.15997 0.50774 0.0
C95 C 0.72398 0.17071 0.47645 0.0
O96 O 0.76489 0.18219 0.47875 0.0
H97 H 0.7219 0.14746 0.4533 0.0
C98 C 0.85133 0.12002 0.54306 0.0
C99 C 0.82957 0.14855 0.5643 0.0
C100 C 0.84596 0.11315 0.49984 0.0
C101 C 0.81627 0.13411 0.47828 0.0
C102 C 0.79338 0.16209 0.49957 0.0
C103 C 0.80063 0.16976 0.54228 0.0
Fe104 Fe 1.01157 0.84366 0.31134 0.0
Fe105 Fe 1.01203 0.88222 0.39844 0.0
O106 O 1.01323 0.8848 0.34247 0.0
Fe107 Fe 0.0162 0.92885 0.31744 0.0
O108 O 0.9871 0.91487 0.27119 0.0
O109 O 0.96425 0.85846 0.28571 0.0
O110 O 0.97816 0.81748 0.34942 0.0
C111 C 0.95535 0.8279 0.38065 0.0
C112 C 0.07117 0.8893 0.26791 0.0
O113 O 0.96235 0.85831 0.39919 0.0
C114 C 0.06855 0.93836 0.38744 0.0
O115 O 0.05852 0.82596 0.3344 0.0
O116 O 0.04097 0.83801 0.40075 0.0
O117 O 0.06548 0.91701 0.29197 0.0
O118 O 0.04526 0.86247 0.2681 0.0
C119 C 0.96024 0.94421 0.38102 0.0
O120 O 0.06173 0.9061 0.40196 0.0
O121 O 0.04593 0.95155 0.35897 0.0
C122 C 0.06386 0.82137 0.37342 0.0
O123 O 0.9829 0.92607 0.40597 0.0
O124 O 0.96693 0.94313 0.34158 0.0
C125 C 0.96084 0.88904 0.26635 0.0
Fe126 Fe 1.00935 0.16143 0.90291 0.0
Fe127 Fe 1.00844 0.11092 0.82453 0.0
O128 O 1.00958 0.15612 0.84701 0.0
Fe129 Fe 1.01087 0.19561 0.8132 0.0
O130 O 0.04291 0.22428 0.84787 0.0
O131 O 0.0581 0.18731 0.90074 0.0
O132 O 0.04053 0.11897 0.91167 0.0
C133 C 0.0642 0.10048 0.88656 0.0
C134 C 0.95561 0.21915 0.8754 0.0
O135 O 0.0577 0.09932 0.84747 0.0
C136 C 0.95322 0.14689 0.77502 0.0
O137 O 0.96057 0.13575 0.90979 0.0
O138 O 0.97886 0.0892 0.86842 0.0
O139 O 0.9631 0.21318 0.83668 0.0
O140 O 0.97799 0.20468 0.90353 0.0
C141 C 0.06327 0.1496 0.7685 0.0
O142 O 0.95915 0.12023 0.80021 0.0
O143 O 0.97855 0.17408 0.77268 0.0
C144 C 0.95503 0.10284 0.89686 0.0
O145 O 0.03782 0.1234 0.77622 0.0
O146 O 0.05902 0.1807 0.78668 0.0
C147 C 0.06569 0.21591 0.87853 0.0
Fe148 Fe 0.5169 0.34058 0.3133 0.0
Fe149 Fe 0.52548 0.38351 0.39683 0.0
O150 O 0.52046 0.38329 0.34118 0.0
Fe151 Fe 0.51954 0.42617 0.31348 0.0
O152 O 0.48674 0.40921 0.27099 0.0
O153 O 0.46733 0.35321 0.29087 0.0
O154 O 0.48687 0.31671 0.35579 0.0
C155 C 0.46668 0.329 0.38795 0.0
C156 C 0.5711 0.38497 0.26149 0.0
O157 O 0.47609 0.35978 0.40461 0.0
C158 C 0.58031 0.43877 0.37483 0.0
O159 O 0.56609 0.3244 0.33294 0.0
O160 O 0.55442 0.3394 0.39944 0.0
O161 O 0.56633 0.41402 0.28359 0.0
O162 O 0.5467 0.35729 0.26629 0.0
C163 C 0.47178 0.44504 0.38216 0.0
O164 O 0.57543 0.4074 0.39247 0.0
O165 O 0.5533 0.45098 0.34997 0.0
C166 C 0.57496 0.32156 0.37135 0.0
O167 O 0.49746 0.4277 0.40466 0.0
O168 O 0.47258 0.44114 0.3424 0.0
C169 C 0.46263 0.38149 0.26791 0.0
Fe170 Fe 0.51472 0.65174 0.88971 0.0
Fe171 Fe 0.51597 0.61061 0.80492 0.0
O172 O 0.51308 0.65291 0.83368 0.0
Fe173 Fe 0.5089 0.6958 0.80616 0.0
O174 O 0.55573 0.71375 0.82909 0.0
O175 O 0.54325 0.69617 0.89485 0.0
O176 O 0.56519 0.62865 0.88838 0.0
C177 C 0.57183 0.59763 0.87067 0.0
C178 C 0.45417 0.70471 0.87792 0.0
O179 O 0.54704 0.58558 0.84347 0.0
C180 C 0.46048 0.65324 0.75619 0.0
O181 O 0.48637 0.60698 0.8944 0.0
O182 O 0.46744 0.59419 0.82947 0.0
O183 O 0.47516 0.71808 0.84685 0.0
O184 O 0.46463 0.67455 0.89519 0.0
C185 C 0.56879 0.65451 0.75747 0.0
O186 O 0.48627 0.62708 0.76021 0.0
O187 O 0.46154 0.68124 0.78018 0.0
C188 C 0.46242 0.5905 0.86904 0.0
O189 O 0.56445 0.62503 0.77912 0.0
O190 O 0.54247 0.68082 0.76097 0.0
C191 C 0.56396 0.71523 0.86776 0.0
H192 H 0.21426 0.33146 0.89263 0.0
H193 H 0.23121 0.27212 0.00934 0.0
H194 H 0.17019 0.23321 0.99562 0.0
H195 H 0.11388 0.21425 0.94867 0.0
H196 H 0.09694 0.27429 0.83198 0.0
H197 H 0.15592 0.31449 0.84734 0.0
C198 C 0.20435 0.3101 0.91506 0.0
C199 C 0.22747 0.30415 0.95155 0.0
C200 C 0.16939 0.28777 0.90682 0.0
C201 C 0.2141 0.27681 0.98078 0.0
C202 C 0.1793 0.25456 0.97289 0.0
C203 C 0.12299 0.23616 0.92662 0.0
C204 C 0.10093 0.24099 0.88909 0.0
C205 C 0.15704 0.25941 0.93569 0.0
C206 C 0.11318 0.2698 0.86111 0.0
C207 C 0.14701 0.29287 0.86983 0.0
H208 H 0.8361 0.73046 0.49841 0.0
H209 H 0.87596 0.64509 0.41046 0.0
H210 H 0.91432 0.69149 0.36784 0.0
H211 H 0.94084 0.75544 0.3588 0.0
H212 H 0.90142 0.84082 0.44752 0.0
H213 H 0.8583 0.79553 0.48621 0.0
C214 C 0.85299 0.72225 0.4697 0.0
C215 C 0.8539 0.6845 0.45786 0.0
C216 C 0.87513 0.74903 0.44557 0.0
C217 C 0.87534 0.674 0.4204 0.0
C218 C 0.89724 0.7005 0.39607 0.0
C219 C 0.92242 0.76432 0.38626 0.0
C220 C 0.92484 0.80149 0.40038 0.0
C221 C 0.89802 0.73799 0.4088 0.0
C222 C 0.90052 0.81238 0.43601 0.0
C223 C 0.87586 0.78646 0.4583 0.0
H224 H 0.80364 0.33029 0.89177 0.0
H225 H 0.83224 0.32357 0.02385 0.0
H226 H 0.89014 0.28099 0.00707 0.0
H227 H 0.93197 0.24497 0.9544 0.0
H228 H 0.90149 0.25211 0.82232 0.0
H229 H 0.84514 0.29495 0.83959 0.0
C230 C 0.8227 0.3196 0.91681 0.0
C231 C 0.81394 0.33004 0.95892 0.0
C232 C 0.85554 0.29505 0.90694 0.0
C233 C 0.83869 0.31591 0.99116 0.0
C234 C 0.87164 0.29155 0.98157 0.0
C235 C 0.91302 0.2559 0.92942 0.0
C236 C 0.92126 0.24522 0.88711 0.0
C237 C 0.88029 0.28077 0.93952 0.0
C238 C 0.8962 0.25977 0.85519 0.0
C239 C 0.86381 0.28436 0.86497 0.0
H240 H 0.19063 0.68968 0.40246 0.0
H241 H 0.16135 0.71628 0.53283 0.0
H242 H 0.11633 0.76732 0.51073 0.0
H243 H 0.08327 0.80271 0.45422 0.0
H244 H 0.11306 0.77616 0.32354 0.0
H245 H 0.15992 0.72701 0.34582 0.0
C246 C 0.17433 0.70678 0.42587 0.0
C247 C 0.17854 0.69897 0.46908 0.0
C248 C 0.14857 0.73601 0.4129 0.0
C249 C 0.15798 0.72153 0.49935 0.0
C250 C 0.13232 0.75068 0.48672 0.0
C251 C 0.10011 0.7863 0.43057 0.0
C252 C 0.09426 0.79304 0.38724 0.0
C253 C 0.12702 0.75792 0.44357 0.0
C254 C 0.11668 0.77158 0.35711 0.0
C255 C 0.14352 0.74337 0.3698 0.0
H256 H 0.71786 0.823 0.89069 0.0
H257 H 0.70675 0.78192 0.01856 0.0
H258 H 0.64505 0.74541 0.00033 0.0
H259 H 0.59637 0.72285 0.94675 0.0
H260 H 0.60911 0.76395 0.8185 0.0
H261 H 0.66784 0.80256 0.83812 0.0
C262 C 0.70176 0.80614 0.91453 0.0
C263 C 0.71699 0.80465 0.95571 0.0
C264 C 0.66668 0.78506 0.90368 0.0
C265 C 0.69566 0.78311 0.98653 0.0
C266 C 0.66049 0.76225 0.97608 0.0
C267 C 0.61178 0.74045 0.92317 0.0
C268 C 0.5982 0.74024 0.88115 0.0
C269 C 0.64601 0.76261 0.93456 0.0
C270 C 0.61876 0.76329 0.85106 0.0
C271 C 0.65247 0.78548 0.8622 0.0
H272 H 0.33649 0.24172 0.50476 0.0
H273 H 0.35336 0.15967 0.40625 0.0
H274 H 0.4008 0.20174 0.36722 0.0
H275 H 0.43928 0.26085 0.36259 0.0
H276 H 0.42217 0.3432 0.46129 0.0
H277 H 0.37292 0.30213 0.49865 0.0
C278 C 0.35072 0.23321 0.47477 0.0
C279 C 0.34237 0.19755 0.4587 0.0
C280 C 0.37784 0.25752 0.45261 0.0
C281 C 0.36008 0.18684 0.41945 0.0
C282 C 0.38707 0.21087 0.39717 0.0
C283 C 0.4247 0.26994 0.39219 0.0
C284 C 0.43476 0.305 0.40919 0.0
C285 C 0.39651 0.24613 0.41367 0.0
C286 C 0.41523 0.31633 0.44747 0.0
C287 C 0.38706 0.29284 0.46895 0.0
H288 H 0.29147 0.76917 0.96873 0.0
H289 H 0.30957 0.85436 0.87383 0.0
H290 H 0.37307 0.82323 0.84745 0.0
H291 H 0.42203 0.7706 0.85008 0.0
H292 H 0.40303 0.68502 0.94495 0.0
H293 H 0.34137 0.71736 0.97247 0.0
C294 C 0.30941 0.78083 0.94228 0.0
C295 C 0.29571 0.81365 0.92276 0.0
C296 C 0.34561 0.76265 0.92721 0.0
C297 C 0.31943 0.82887 0.88895 0.0
C298 C 0.35563 0.81108 0.87391 0.0
C299 C 0.40453 0.75904 0.87686 0.0
C300 C 0.41733 0.7253 0.89526 0.0
C301 C 0.36883 0.77773 0.89254 0.0
C302 C 0.39409 0.71088 0.93002 0.0
C303 C 0.35871 0.72936 0.94585 0.0
H304 H 0.70411 0.19104 0.3964 0.0
H305 H 0.68523 0.22267 0.527 0.0
H306 H 0.63888 0.27323 0.50613 0.0
H307 H 0.60119 0.30635 0.45091 0.0
H308 H 0.62026 0.27443 0.32002 0.0
H309 H 0.66903 0.22623 0.34078 0.0
C310 C 0.6898 0.20911 0.42015 0.0
C311 C 0.69717 0.2028 0.46317 0.0
C312 C 0.66314 0.23794 0.40789 0.0
C313 C 0.67928 0.22674 0.49374 0.0
C314 C 0.65286 0.25559 0.48181 0.0
C315 C 0.61612 0.28899 0.42686 0.0
C316 C 0.60666 0.29392 0.38398 0.0
C317 C 0.6441 0.26112 0.43901 0.0
C318 C 0.62667 0.27125 0.35329 0.0
C319 C 0.6546 0.24359 0.36511 0.0
H320 H 0.3225 0.47782 0.93374 0.0
H321 H 0.42893 0.43074 0.99478 0.0
H322 H 0.47394 0.47804 0.96282 0.0
H323 H 0.48319 0.53466 0.92058 0.0
H324 H 0.37987 0.57964 0.85359 0.0
H325 H 0.33363 0.53133 0.88439 0.0
C326 C 0.35561 0.47761 0.93951 0.0
C327 C 0.37192 0.45134 0.96778 0.0
C328 C 0.38188 0.50474 0.92023 0.0
C329 C 0.4151 0.45135 0.97445 0.0
C330 C 0.44106 0.4783 0.95599 0.0
C331 C 0.45051 0.5338 0.91278 0.0
C332 C 0.4346 0.56082 0.88561 0.0
C333 C 0.42469 0.50556 0.92961 0.0
C334 C 0.39255 0.5591 0.87477 0.0
C335 C 0.36622 0.53153 0.89237 0.0
H336 H 0.69383 0.57426 0.42307 0.0
H337 H 0.72104 0.50145 0.52724 0.0
H338 H 0.68125 0.45122 0.49497 0.0
H339 H 0.63201 0.43071 0.44144 0.0
H340 H 0.60335 0.50476 0.33855 0.0
H341 H 0.65087 0.55144 0.36566 0.0
C342 C 0.69199 0.54708 0.4381 0.0
C343 C 0.71004 0.54163 0.47757 0.0
C344 C 0.66833 0.51866 0.41986 0.0
C345 C 0.70698 0.50639 0.49699 0.0
C346 C 0.68419 0.47771 0.47862 0.0
C347 C 0.63663 0.45681 0.42459 0.0
C348 C 0.61357 0.46441 0.38843 0.0
C349 C 0.66358 0.48393 0.44074 0.0
C350 C 0.62018 0.49835 0.36685 0.0
C351 C 0.64741 0.52513 0.3823 0.0
H352 H 0.68753 0.46498 0.92429 0.0
H353 H 0.71553 0.5421 0.02422 0.0
H354 H 0.67383 0.59022 0.99078 0.0
H355 H 0.62351 0.6081 0.93713 0.0
H356 H 0.5943 0.52994 0.83827 0.0
H357 H 0.64253 0.4849 0.86698 0.0
C358 C 0.68535 0.49263 0.93811 0.0
C359 C 0.70439 0.49994 0.97672 0.0
C360 C 0.66057 0.51989 0.91921 0.0
C361 C 0.70086 0.53575 0.99461 0.0
C362 C 0.67693 0.56323 0.97559 0.0
C363 C 0.62803 0.5814 0.92158 0.0
C364 C 0.60473 0.57234 0.88594 0.0
C365 C 0.6556 0.55526 0.93854 0.0
C366 C 0.61134 0.53762 0.86606 0.0
C367 C 0.639 0.51174 0.88242 0.0
H368 H 0.4087 0.58507 0.48406 0.0
H369 H 0.2927 0.55641 0.42637 0.0
H370 H 0.32766 0.5063 0.38661 0.0
H371 H 0.39113 0.46797 0.37141 0.0
H372 H 0.50394 0.49437 0.43616 0.0
H373 H 0.47002 0.54726 0.47072 0.0
C374 C 0.39063 0.56758 0.46342 0.0
C375 C 0.34784 0.57436 0.45894 0.0
C376 C 0.41043 0.53805 0.44204 0.0
C377 C 0.32569 0.55212 0.43049 0.0
C378 C 0.34561 0.52319 0.40794 0.0
C379 C 0.40808 0.48548 0.39301 0.0
C380 C 0.44983 0.4772 0.40149 0.0
C381 C 0.38793 0.51553 0.41388 0.0
C382 C 0.4716 0.49993 0.42958 0.0
C383 C 0.45231 0.53028 0.44924 0.0
H384 H 0.84305 1.00337 0.02008 0.0
H385 H 0.84985 0.92962 0.91228 0.0
H386 H 0.88814 0.97704 0.87138 0.0
H387 H 0.92432 0.03736 0.86802 0.0
H388 H 0.91774 0.11155 0.9755 0.0
H389 H 0.87459 0.06616 0.01465 0.0
C390 C 0.85272 0.99782 0.98753 0.0
C391 C 0.84382 0.96289 0.96935 0.0
C392 C 0.87495 0.02519 0.96424 0.0
C393 C 0.85601 0.9563 0.92695 0.0
C394 C 0.87817 0.98332 0.90364 0.0
C395 C 0.91319 0.04378 0.89992 0.0
C396 C 0.92468 0.07769 0.91894 0.0
C397 C 0.88849 0.01756 0.92222 0.0
C398 C 0.90945 0.08572 0.96007 0.0
C399 C 0.88492 0.05967 0.98256 0.0
H400 H 0.17438 0.03806 0.50907 0.0
H401 H 0.1678 0.11359 0.40326 0.0
H402 H 0.13189 0.06607 0.36243 0.0
H403 H 0.09809 1.00487 0.35871 0.0
H404 H 0.10454 0.92895 0.46435 0.0
H405 H 0.14515 0.97467 0.50317 0.0
C406 C 0.16519 0.04398 0.477 0.0
C407 C 0.17341 0.07933 0.45928 0.0
C408 C 0.14452 1.01653 0.45374 0.0
C409 C 0.16197 0.08652 0.41749 0.0
C410 C 0.14127 0.05944 0.39423 0.0
C411 C 0.10869 0.99814 0.39009 0.0
C412 C 0.09787 0.96367 0.40874 0.0
C413 C 0.13179 0.02459 0.4123 0.0
C414 C 0.11234 0.95526 0.44921 0.0
C415 C 0.13539 0.98148 0.47155 0.0
H416 H 0.20368 0.98567 0.93544 0.0
H417 H 0.09861 0.93835 0.00508 0.0
H418 H 0.05446 0.98889 0.9821 0.0
H419 H 0.04506 0.04676 0.94267 0.0
H420 H 0.14654 0.09126 0.86628 0.0
H421 H 0.19274 0.04188 0.89135 0.0
C422 C 0.17104 0.98621 0.94515 0.0
C423 C 0.15491 0.95866 0.97287 0.0
C424 C 0.14525 1.01513 0.93098 0.0
C425 C 0.11235 0.95977 0.9849 0.0
C426 C 0.08689 0.9886 0.97163 0.0
C427 C 0.07748 0.04582 0.93206 0.0
C428 C 0.09292 0.07284 0.90367 0.0
C429 C 0.10308 1.01664 0.94515 0.0
C430 C 0.13444 0.07088 0.88879 0.0
C431 C 0.16066 0.04259 0.9029 0.0
H432 H 0.82452 0.06213 0.43918 0.0
H433 H 0.92871 0.10138 0.51052 0.0
H434 H 0.97187 0.05136 0.48203 0.0
H435 H 0.98014 0.99556 0.43842 0.0
H436 H 0.87989 0.95912 0.36072 0.0
H437 H 0.83508 1.00897 0.38981 0.0
C438 C 0.8568 0.06003 0.44802 0.0
C439 C 0.87286 0.08495 0.47795 0.0
C440 C 0.88206 0.0315 0.43066 0.0
C441 C 0.91495 0.08188 0.48876 0.0
C442 C 0.93986 0.05338 0.4723 0.0
C443 C 0.94834 0.99846 0.42816 0.0
C444 C 0.93278 0.97351 0.39837 0.0
C445 C 0.92358 0.02773 0.44381 0.0
C446 C 0.89211 0.97797 0.38413 0.0
C447 C 0.86666 1.00645 0.40065 0.0
H448 H 0.41075 0.37529 0.0788 0.0
H449 H 0.28772 0.38677 0.1349 0.0
H450 H 0.31656 0.3816 0.206 0.0
H451 H 0.37876 0.38025 0.25209 0.0
H452 H 0.50107 0.37246 0.19291 0.0
H453 H 0.47079 0.36992 0.12323 0.0
C454 C 0.39019 0.37635 0.10663 0.0
C455 C 0.34735 0.38191 0.1018 0.0
C456 C 0.40706 0.37441 0.14687 0.0
C457 C 0.32087 0.38254 0.13795 0.0
C458 C 0.33743 0.37989 0.17852 0.0
C459 C 0.39844 0.37753 0.22382 0.0
C460 C 0.44199 0.37669 0.22731 0.0
C461 C 0.38071 0.37682 0.18342 0.0
C462 C 0.46747 0.37331 0.19073 0.0
C463 C 0.45021 0.37185 0.15093 0.0
H464 H 0.68003 0.67306 0.59107 0.0
H465 H 0.72554 0.5666 0.63269 0.0
H466 H 0.68404 0.57183 0.69847 0.0
H467 H 0.62933 0.60334 0.74022 0.0
H468 H 0.58121 0.70872 0.69736 0.0
H469 H 0.62946 0.70745 0.63631 0.0
C470 C 0.68159 0.65154 0.6151 0.0
C471 C 0.70565 0.61949 0.60722 0.0
C472 C 0.65673 0.65428 0.6523 0.0
C473 C 0.70707 0.59146 0.6382 0.0
C474 C 0.68324 0.59438 0.67565 0.0
C475 C 0.6296 0.62625 0.71779 0.0
C476 C 0.60121 0.65581 0.72315 0.0
C477 C 0.65699 0.62511 0.68243 0.0
C478 C 0.60244 0.68543 0.69393 0.0
C479 C 0.63002 0.68473 0.65892 0.0
H480 H 0.68153 0.37097 0.09392 0.0
H481 H 0.72027 0.48037 0.13368 0.0
H482 H 0.67918 0.47373 0.19962 0.0
H483 H 0.62734 0.43949 0.24232 0.0
H484 H 0.58535 0.33122 0.20116 0.0
H485 H 0.63288 0.33459 0.13953 0.0
C486 C 0.68165 0.3929 0.11757 0.0
C487 C 0.70381 0.42606 0.10926 0.0
C488 C 0.65698 0.3893 0.15476 0.0
C489 C 0.70334 0.45463 0.13962 0.0
C490 C 0.67976 0.4509 0.17714 0.0
C491 C 0.62871 0.41645 0.22009 0.0
C492 C 0.60239 0.38535 0.22615 0.0
C493 C 0.65558 0.4188 0.18446 0.0
C494 C 0.60501 0.35563 0.19716 0.0
C495 C 0.63218 0.35753 0.16187 0.0
H496 H 0.40471 0.64352 0.56836 0.0
H497 H 0.28286 0.65659 0.62701 0.0
H498 H 0.31448 0.66551 0.69619 0.0
H499 H 0.37751 0.66439 0.74086 0.0
H500 H 0.49792 0.64766 0.67998 0.0
H501 H 0.46626 0.64525 0.61098 0.0
C502 C 0.38498 0.64818 0.5963 0.0
C503 C 0.34153 0.64871 0.59272 0.0
C504 C 0.40323 0.6525 0.63567 0.0
C505 C 0.31646 0.65593 0.62899 0.0
C506 C 0.33453 0.66084 0.66855 0.0
C507 C 0.39658 0.6607 0.71231 0.0
C508 C 0.43984 0.65592 0.7153 0.0
C509 C 0.37794 0.65847 0.67244 0.0
C510 C 0.46447 0.65101 0.6783 0.0
C511 C 0.44644 0.64964 0.63887 0.0
H512 H 0.84602 0.94359 0.12142 0.0
H513 H 0.84642 0.82622 0.09161 0.0
H514 H 0.88469 0.81314 0.15579 0.0
H515 H 0.92432 0.8361 0.21679 0.0
H516 H 0.92648 0.95419 0.24304 0.0
H517 H 0.8812 0.96588 0.18399 0.0
C518 C 0.8544 0.91511 0.12898 0.0
C519 C 0.84376 0.88603 0.1015 0.0
C520 C 0.8772 0.90793 0.16527 0.0
C521 C 0.85404 0.84917 0.11231 0.0
C522 C 0.87622 0.84169 0.14886 0.0
C523 C 0.91426 0.86425 0.20991 0.0
C524 C 0.92903 0.89427 0.23398 0.0
C525 C 0.88883 0.87097 0.17511 0.0
C526 C 0.91592 0.93066 0.22464 0.0
C527 C 0.89002 0.93741 0.19089 0.0
H528 H 0.17188 0.09643 0.61185 0.0
H529 H 0.17122 0.21421 0.58429 0.0
H530 H 0.13528 0.22652 0.65218 0.0
H531 H 0.09815 0.20289 0.71645 0.0
H532 H 0.09676 0.08451 0.7413 0.0
H533 H 0.13937 0.07341 0.67758 0.0
C534 C 0.1639 0.12481 0.62072 0.0
C535 C 0.17375 0.15428 0.59289 0.0
C536 C 0.1427 0.13157 0.65932 0.0
C537 C 0.16407 0.19101 0.60524 0.0
C538 C 0.14331 0.19805 0.64394 0.0
C539 C 0.10783 0.17479 0.70824 0.0
C540 C 0.09402 0.14454 0.73332 0.0
C541 C 0.13169 0.16844 0.67088 0.0
C542 C 0.10663 0.10823 0.72223 0.0
C543 C 0.13095 0.10182 0.68578 0.0
H544 H 0.19858 0.93289 0.12195 0.0
H545 H 0.16698 0.82281 0.07863 0.0
H546 H 0.12785 0.81087 0.14503 0.0
H547 H 0.09379 0.83587 0.21001 0.0
H548 H 0.12452 0.94718 0.25146 0.0
H549 H 0.17285 0.95444 0.19137 0.0
C550 C 0.18413 0.9059 0.12774 0.0
C551 C 0.18534 0.8788 0.09566 0.0
C552 C 0.16075 0.8998 0.16521 0.0
C553 C 0.16663 0.84392 0.10317 0.0
C554 C 0.14382 0.83733 0.14084 0.0
C555 C 0.11146 0.86153 0.2062 0.0
C556 C 0.1047 0.89123 0.23475 0.0
C557 C 0.13917 0.86571 0.17126 0.0
C558 C 0.12849 0.92403 0.22971 0.0
C559 C 0.15624 0.92826 0.19532 0.0
H560 H 0.83334 0.10088 0.63044 0.0
H561 H 0.8529 0.21595 0.59567 0.0
H562 H 0.88961 0.22687 0.66139 0.0
H563 H 0.92521 0.20105 0.72275 0.0
H564 H 0.90725 0.08516 0.75597 0.0
H565 H 0.86081 0.07721 0.69692 0.0
C566 C 0.84482 0.12854 0.63785 0.0
C567 C 0.8409 0.15749 0.60824 0.0
C568 C 0.86689 0.13424 0.67494 0.0
C569 C 0.85543 0.19331 0.61815 0.0
C570 C 0.87686 0.19941 0.65544 0.0
C571 C 0.91077 0.17416 0.71737 0.0
C572 C 0.92047 0.14355 0.74318 0.0
C573 C 0.88429 0.16967 0.68312 0.0
C574 C 0.90077 0.10909 0.73632 0.0
C575 C 0.87421 0.10449 0.70251 0.0
loop_
_geom_bond_atom_site_label_1
_geom_bond_atom_site_label_2
_geom_bond_distance
_geom_bond_site_symmetry_2
_ccdc_geom_bond_type
H0 C7 0.929 . S
H1 C10 0.930 . S
H2 C12 0.929 . S
H3 C4 0.969 . S
C4 H3 0.969 . S
C4 O5 1.550 1_556 S
C4 H6 0.973 . S
O5 C4 1.550 1_554 S
O5 C11 1.412 . S
H6 C4 0.973 . S
C7 H0 0.929 . S
C7 C8 1.400 . S
C7 C9 1.364 1_554 S
C8 C7 1.400 . S
C8 C12 1.377 . S
C9 C7 1.364 1_556 S
C9 C10 1.374 . S
C10 H1 0.930 . S
C10 C9 1.374 . S
C10 C11 1.383 1_556 S
C11 O5 1.412 . S
C11 C10 1.383 1_554 S
C11 C12 1.394 . S
C12 H2 0.929 . S
C12 C8 1.377 . S
C12 C11 1.394 . S
H13 C20 0.929 . S
H14 C23 0.930 . S
H15 C25 0.929 . S
H16 C17 0.969 . S
C17 H16 0.969 . S
C17 O18 1.550 . S
C17 H19 0.973 . S
O18 C17 1.550 . S
O18 C24 1.412 . S
H19 C17 0.973 . S
C20 H13 0.929 . S
C20 C21 1.400 . S
C20 C22 1.364 . S
C21 C20 1.400 . S
C21 C25 1.377 . S
C22 C20 1.364 . S
C22 C23 1.374 . S
C23 H14 0.930 . S
C23 C22 1.374 . S
C23 C24 1.383 . S
C24 O18 1.412 . S
C24 C23 1.383 . S
C24 C25 1.394 . S
C25 H15 0.929 . S
C25 C21 1.377 . S
C25 C24 1.394 . S
H26 C33 0.929 . S
H27 C36 0.930 . S
H28 C38 0.929 . S
H29 C30 0.969 . S
C30 H29 0.969 . S
C30 O31 1.550 . S
C30 H32 0.973 1_556 S
O31 C30 1.550 . S
O31 C37 1.412 . S
H32 C30 0.973 1_554 S
C33 H26 0.929 . S
C33 C34 1.400 1_554 S
C33 C35 1.364 . S
C34 C33 1.400 1_556 S
C34 C38 1.377 . S
C35 C33 1.364 . S
C35 C36 1.374 . S
C36 H27 0.930 . S
C36 C35 1.374 . S
C36 C37 1.383 1_554 S
C37 O31 1.412 . S
C37 C36 1.383 1_556 S
C37 C38 1.394 . S
C38 H28 0.929 . S
C38 C34 1.377 . S
C38 C37 1.394 . S
H39 C46 0.929 . S
H40 C49 0.930 . S
H41 C51 0.929 . S
H42 C43 0.969 . S
C43 H42 0.969 . S
C43 O44 1.550 . S
C43 H45 0.973 . S
O44 C43 1.550 . S
O44 C50 1.412 . S
H45 C43 0.973 . S
C46 H39 0.929 . S
C46 C47 1.400 . S
C46 C48 1.364 . S
C47 C46 1.400 . S
C47 C51 1.377 . S
C48 C46 1.364 . S
C48 C49 1.374 . S
C49 H40 0.930 . S
C49 C48 1.374 . S
C49 C50 1.383 . S
C50 O44 1.412 . S
C50 C49 1.383 . S
C50 C51 1.394 . S
C51 H41 0.929 . S
C51 C47 1.377 . S
C51 C50 1.394 . S
H52 C59 0.929 . S
H53 C62 0.930 . S
H54 C64 0.929 . S
H55 C56 0.969 . S
C56 H55 0.969 . S
C56 O57 1.550 1_556 S
C56 H58 0.973 . S
O57 C56 1.550 1_554 S
O57 C63 1.412 . S
H58 C56 0.973 . S
C59 H52 0.929 . S
C59 C60 1.400 . S
C59 C61 1.364 1_554 S
C60 C59 1.400 . S
C60 C64 1.377 . S
C61 C59 1.364 1_556 S
C61 C62 1.374 . S
C62 H53 0.930 . S
C62 C61 1.374 . S
C62 C63 1.383 1_556 S
C63 O57 1.412 . S
C63 C62 1.383 1_554 S
C63 C64 1.394 . S
C64 H54 0.929 . S
C64 C60 1.377 . S
C64 C63 1.394 . S
H65 C72 0.929 . S
H66 C75 0.930 . S
H67 C77 0.929 . S
H68 C69 0.969 . S
C69 H68 0.969 . S
C69 O70 1.550 . S
C69 H71 0.973 . S
O70 C69 1.550 . S
O70 C76 1.412 . S
H71 C69 0.973 . S
C72 H65 0.929 . S
C72 C73 1.400 . S
C72 C74 1.364 . S
C73 C72 1.400 . S
C73 C77 1.377 . S
C74 C72 1.364 . S
C74 C75 1.374 . S
C75 H66 0.930 . S
C75 C74 1.374 . S
C75 C76 1.383 . S
C76 O70 1.412 . S
C76 C75 1.383 . S
C76 C77 1.394 . S
C77 H67 0.929 . S
C77 C73 1.377 . S
C77 C76 1.394 . S
H78 C85 0.929 . S
H79 C88 0.930 . S
H80 C90 0.929 . S
H81 C82 0.969 . S
C82 H81 0.969 . S
C82 O83 1.550 . S
C82 H84 0.973 1_556 S
O83 C82 1.550 . S
O83 C89 1.412 . S
H84 C82 0.973 1_554 S
C85 H78 0.929 . S
C85 C86 1.400 1_554 S
C85 C87 1.364 . S
C86 C85 1.400 1_556 S
C86 C90 1.377 . S
C87 C85 1.364 . S
C87 C88 1.374 . S
C88 H79 0.930 . S
C88 C87 1.374 . S
C88 C89 1.383 1_554 S
C89 O83 1.412 . S
C89 C88 1.383 1_556 S
C89 C90 1.394 . S
C90 H80 0.929 . S
C90 C86 1.377 . S
C90 C89 1.394 . S
H91 C98 0.929 . S
H92 C101 0.930 . S
H93 C103 0.929 . S
H94 C95 0.969 . S
C95 H94 0.969 . S
C95 O96 1.550 . S
C95 H97 0.973 . S
O96 C95 1.550 . S
O96 C102 1.412 . S
H97 C95 0.973 . S
C98 H91 0.929 . S
C98 C99 1.400 . S
C98 C100 1.364 . S
C99 C98 1.400 . S
C99 C103 1.377 . S
C100 C98 1.364 . S
C100 C101 1.374 . S
C101 H92 0.930 . S
C101 C100 1.374 . S
C101 C102 1.383 . S
C102 O96 1.412 . S
C102 C101 1.383 . S
C102 C103 1.394 . S
C103 H93 0.929 . S
C103 C99 1.377 . S
C103 C102 1.394 . S
Fe104 O106 1.918 . S
Fe104 O109 1.997 1_455 S
Fe104 O110 2.002 1_455 S
Fe104 O115 1.976 . S
Fe104 O118 1.996 . S
Fe105 O106 1.918 . S
Fe105 O113 1.997 1_455 S
Fe105 O116 1.996 . S
Fe105 O120 1.976 . S
Fe105 O123 2.002 1_455 S
O106 Fe104 1.918 . S
O106 Fe105 1.918 . S
O106 Fe107 1.918 . S
Fe107 O106 1.918 . S
Fe107 O108 2.002 1_455 S
Fe107 O117 1.976 . S
Fe107 O121 1.996 . S
Fe107 O124 1.997 1_455 S
O108 Fe107 2.002 1_655 S
O108 C125 1.295 . S
O109 Fe104 1.997 1_655 S
O109 C125 1.235 . S
O110 Fe104 2.002 1_655 S
O110 C111 1.295 . S
C111 O110 1.295 . S
C111 O113 1.235 . S
C112 O117 1.287 . S
C112 O118 1.255 . S
O113 Fe105 1.997 1_655 S
O113 C111 1.235 . S
C114 O120 1.287 . S
C114 O121 1.255 . S
O115 Fe104 1.976 . S
O115 C122 1.287 . S
O116 Fe105 1.996 . S
O116 C122 1.255 . S
O117 Fe107 1.976 . S
O117 C112 1.287 . S
O118 Fe104 1.996 . S
O118 C112 1.255 . S
C119 O123 1.295 . S
C119 O124 1.235 . S
O120 Fe105 1.976 . S
O120 C114 1.287 . S
O121 Fe107 1.996 . S
O121 C114 1.255 . S
C122 O115 1.287 . S
C122 O116 1.255 . S
O123 Fe105 2.002 1_655 S
O123 C119 1.295 . S
O124 Fe107 1.997 1_655 S
O124 C119 1.235 . S
C125 O108 1.295 . S
C125 O109 1.235 . S
Fe126 O128 1.918 . S
Fe126 O131 1.987 1_655 S
Fe126 O132 1.992 1_655 S
Fe126 O137 1.986 . S
Fe126 O140 2.005 . S
Fe127 O128 1.918 1_455 S
Fe127 O135 1.997 . S
Fe127 O138 1.996 1_455 S
Fe127 O142 1.976 1_455 S
Fe127 O145 2.002 . S
O128 Fe126 1.918 . S
O128 Fe127 1.918 1_655 S
O128 Fe129 1.918 1_655 S
Fe129 O128 1.918 1_455 S
Fe129 O130 2.002 . S
Fe129 O139 1.976 1_455 S
Fe129 O143 1.996 1_455 S
Fe129 O146 1.997 . S
O130 Fe129 2.002 . S
O130 C147 1.295 . S
O131 Fe126 1.987 1_455 S
O131 C147 1.235 . S
O132 Fe126 1.992 1_455 S
O132 C133 1.295 . S
C133 O132 1.295 . S
C133 O135 1.235 . S
C134 O139 1.287 . S
C134 O140 1.255 . S
O135 Fe127 1.997 . S
O135 C133 1.235 . S
C136 O142 1.287 . S
C136 O143 1.255 . S
O137 Fe126 1.986 . S
O137 C144 1.287 . S
O138 Fe127 1.996 1_655 S
O138 C144 1.255 . S
O139 Fe129 1.976 1_655 S
O139 C134 1.287 . S
O140 Fe126 2.005 . S
O140 C134 1.255 . S
C141 O145 1.295 . S
C141 O146 1.235 . S
O142 Fe127 1.976 1_655 S
O142 C136 1.287 . S
O143 Fe129 1.996 1_655 S
O143 C136 1.255 . S
C144 O137 1.287 . S
C144 O138 1.255 . S
O145 Fe127 2.002 . S
O145 C141 1.295 . S
O146 Fe129 1.997 . S
O146 C141 1.235 . S
C147 O130 1.295 . S
C147 O131 1.235 . S
Fe148 O150 1.918 . S
Fe148 O153 1.997 . S
Fe148 O154 2.002 . S
Fe148 O159 1.976 . S
Fe148 O162 1.996 . S
Fe149 O150 1.918 . S
Fe149 O157 1.997 . S
Fe149 O160 1.996 . S
Fe149 O164 1.976 . S
Fe149 O167 2.002 . S
O150 Fe148 1.918 . S
O150 Fe149 1.918 . S
O150 Fe151 1.918 . S
Fe151 O150 1.918 . S
Fe151 O152 2.002 . S
Fe151 O161 1.976 . S
Fe151 O165 1.996 . S
Fe151 O168 1.997 . S
O152 Fe151 2.002 . S
O152 C169 1.295 . S
O153 Fe148 1.997 . S
O153 C169 1.235 . S
O154 Fe148 2.002 . S
O154 C155 1.295 . S
C155 O154 1.295 . S
C155 O157 1.235 . S
C156 O161 1.287 . S
C156 O162 1.255 . S
O157 Fe149 1.997 . S
O157 C155 1.235 . S
C158 O164 1.287 . S
C158 O165 1.255 . S
O159 Fe148 1.976 . S
O159 C166 1.287 . S
O160 Fe149 1.996 . S
O160 C166 1.255 . S
O161 Fe151 1.976 . S
O161 C156 1.287 . S
O162 Fe148 1.996 . S
O162 C156 1.255 . S
C163 O167 1.295 . S
C163 O168 1.235 . S
O164 Fe149 1.976 . S
O164 C158 1.287 . S
O165 Fe151 1.996 . S
O165 C158 1.255 . S
C166 O159 1.287 . S
C166 O160 1.255 . S
O167 Fe149 2.002 . S
O167 C163 1.295 . S
O168 Fe151 1.997 . S
O168 C163 1.235 . S
C169 O152 1.295 . S
C169 O153 1.235 . S
Fe170 O172 1.918 . S
Fe170 O175 1.997 . S
Fe170 O176 2.002 . S
Fe170 O181 1.976 . S
Fe170 O184 1.996 . S
Fe171 O172 1.918 . S
Fe171 O179 1.997 . S
Fe171 O182 1.996 . S
Fe171 O186 1.976 . S
Fe171 O189 2.002 . S
O172 Fe170 1.918 . S
O172 Fe171 1.918 . S
O172 Fe173 1.918 . S
Fe173 O172 1.918 . S
Fe173 O174 2.002 . S
Fe173 O183 1.976 . S
Fe173 O187 1.996 . S
Fe173 O190 1.997 . S
O174 Fe173 2.002 . S
O174 C191 1.295 . S
O175 Fe170 1.997 . S
O175 C191 1.235 . S
O176 Fe170 2.002 . S
O176 C177 1.295 . S
C177 O176 1.295 . S
C177 O179 1.235 . S
C178 O183 1.287 . S
C178 O184 1.255 . S
O179 Fe171 1.997 . S
O179 C177 1.235 . S
C180 O186 1.287 . S
C180 O187 1.255 . S
O181 Fe170 1.976 . S
O181 C188 1.287 . S
O182 Fe171 1.996 . S
O182 C188 1.255 . S
O183 Fe173 1.976 . S
O183 C178 1.287 . S
O184 Fe170 1.996 . S
O184 C178 1.255 . S
C185 O189 1.295 . S
C185 O190 1.235 . S
O186 Fe171 1.976 . S
O186 C180 1.287 . S
O187 Fe173 1.996 . S
O187 C180 1.255 . S
C188 O181 1.287 . S
C188 O182 1.255 . S
O189 Fe171 2.002 . S
O189 C185 1.295 . S
O190 Fe173 1.997 . S
O190 C185 1.235 . S
C191 O174 1.295 . S
C191 O175 1.235 . S
H192 C198 0.930 . S
H193 C201 0.930 1_554 S
H194 C202 0.930 1_554 S
H195 C203 0.930 . S
H196 C206 0.930 . S
H197 C207 0.930 . S
C198 H192 0.930 . S
C198 C199 1.355 . S
C198 C200 1.415 . S
C199 C198 1.355 . S
C199 C201 1.419 . S
C200 C198 1.415 . S
C200 C205 1.425 . S
C200 C207 1.409 . S
C201 H193 0.930 1_556 S
C201 C199 1.419 . S
C201 C202 1.362 . S
C202 H194 0.930 1_556 S
C202 C201 1.362 . S
C202 C205 1.409 . S
C203 H195 0.930 . S
C203 C204 1.355 . S
C203 C205 1.415 . S
C204 C203 1.355 . S
C204 C206 1.419 . S
C205 C200 1.425 . S
C205 C202 1.409 . S
C205 C203 1.415 . S
C206 H196 0.930 . S
C206 C204 1.419 . S
C206 C207 1.362 . S
C207 H197 0.930 . S
C207 C200 1.409 . S
C207 C206 1.362 . S
H208 C214 0.930 . S
H209 C217 0.930 . S
H210 C218 0.930 . S
H211 C219 0.930 . S
H212 C222 0.930 . S
H213 C223 0.930 . S
C214 H208 0.930 . S
C214 C215 1.355 . S
C214 C216 1.415 . S
C215 C214 1.355 . S
C215 C217 1.419 . S
C216 C214 1.415 . S
C216 C221 1.425 . S
C216 C223 1.409 . S
C217 H209 0.930 . S
C217 C215 1.419 . S
C217 C218 1.362 . S
C218 H210 0.930 . S
C218 C217 1.362 . S
C218 C221 1.409 . S
C219 H211 0.930 . S
C219 C220 1.355 . S
C219 C221 1.415 . S
C220 C219 1.355 . S
C220 C222 1.419 . S
C221 C216 1.425 . S
C221 C218 1.409 . S
C221 C219 1.415 . S
C222 H212 0.930 . S
C222 C220 1.419 . S
C222 C223 1.362 . S
C223 H213 0.930 . S
C223 C216 1.409 . S
C223 C222 1.362 . S
H224 C230 0.930 . S
H225 C233 0.930 1_554 S
H226 C234 0.930 1_554 S
H227 C235 0.930 . S
H228 C238 0.930 . S
H229 C239 0.930 . S
C230 H224 0.930 . S
C230 C231 1.355 . S
C230 C232 1.415 . S
C231 C230 1.355 . S
C231 C233 1.419 . S
C232 C230 1.415 . S
C232 C237 1.425 . S
C232 C239 1.409 . S
C233 H225 0.930 1_556 S
C233 C231 1.419 . S
C233 C234 1.362 . S
C234 H226 0.930 1_556 S
C234 C233 1.362 . S
C234 C237 1.409 . S
C235 H227 0.930 . S
C235 C236 1.355 . S
C235 C237 1.415 . S
C236 C235 1.355 . S
C236 C238 1.419 . S
C237 C232 1.425 . S
C237 C234 1.409 . S
C237 C235 1.415 . S
C238 H228 0.930 . S
C238 C236 1.419 . S
C238 C239 1.362 . S
C239 H229 0.930 . S
C239 C232 1.409 . S
C239 C238 1.362 . S
H240 C246 0.930 . S
H241 C249 0.930 . S
H242 C250 0.930 . S
H243 C251 0.930 . S
H244 C254 0.930 . S
H245 C255 0.930 . S
C246 H240 0.930 . S
C246 C247 1.355 . S
C246 C248 1.415 . S
C247 C246 1.355 . S
C247 C249 1.419 . S
C248 C246 1.415 . S
C248 C253 1.425 . S
C248 C255 1.409 . S
C249 H241 0.930 . S
C249 C247 1.419 . S
C249 C250 1.362 . S
C250 H242 0.930 . S
C250 C249 1.362 . S
C250 C253 1.409 . S
C251 H243 0.930 . S
C251 C252 1.355 . S
C251 C253 1.415 . S
C252 C251 1.355 . S
C252 C254 1.419 . S
C253 C248 1.425 . S
C253 C250 1.409 . S
C253 C251 1.415 . S
C254 H244 0.930 . S
C254 C252 1.419 . S
C254 C255 1.362 . S
C255 H245 0.930 . S
C255 C248 1.409 . S
C255 C254 1.362 . S
H256 C262 0.930 . S
H257 C265 0.930 1_554 S
H258 C266 0.930 . S
H259 C267 0.930 . S
H260 C270 0.930 . S
H261 C271 0.930 . S
C262 H256 0.930 . S
C262 C263 1.355 . S
C262 C264 1.415 . S
C263 C262 1.355 . S
C263 C265 1.419 . S
C264 C262 1.415 . S
C264 C269 1.425 . S
C264 C271 1.409 . S
C265 H257 0.930 1_556 S
C265 C263 1.419 . S
C265 C266 1.362 . S
C266 H258 0.930 . S
C266 C265 1.362 . S
C266 C269 1.409 . S
C267 H259 0.930 . S
C267 C268 1.355 . S
C267 C269 1.415 . S
C268 C267 1.355 . S
C268 C270 1.419 . S
C269 C264 1.425 . S
C269 C266 1.409 . S
C269 C267 1.415 . S
C270 H260 0.930 . S
C270 C268 1.419 . S
C270 C271 1.362 . S
C271 H261 0.930 . S
C271 C264 1.409 . S
C271 C270 1.362 . S
H272 C278 0.930 . S
H273 C281 0.930 . S
H274 C282 0.930 . S
H275 C283 0.930 . S
H276 C286 0.930 . S
H277 C287 0.930 . S
C278 H272 0.930 . S
C278 C279 1.355 . S
C278 C280 1.415 . S
C279 C278 1.355 . S
C279 C281 1.419 . S
C280 C278 1.415 . S
C280 C285 1.425 . S
C280 C287 1.409 . S
C281 H273 0.930 . S
C281 C279 1.419 . S
C281 C282 1.362 . S
C282 H274 0.930 . S
C282 C281 1.362 . S
C282 C285 1.409 . S
C283 H275 0.930 . S
C283 C284 1.355 . S
C283 C285 1.415 . S
C284 C283 1.355 . S
C284 C286 1.419 . S
C285 C280 1.425 . S
C285 C282 1.409 . S
C285 C283 1.415 . S
C286 H276 0.930 . S
C286 C284 1.419 . S
C286 C287 1.362 . S
C287 H277 0.930 . S
C287 C280 1.409 . S
C287 C286 1.362 . S
H288 C294 0.930 . S
H289 C297 0.930 . S
H290 C298 0.930 . S
H291 C299 0.930 . S
H292 C302 0.930 . S
H293 C303 0.930 . S
C294 H288 0.930 . S
C294 C295 1.355 . S
C294 C296 1.415 . S
C295 C294 1.355 . S
C295 C297 1.419 . S
C296 C294 1.415 . S
C296 C301 1.425 . S
C296 C303 1.409 . S
C297 H289 0.930 . S
C297 C295 1.419 . S
C297 C298 1.362 . S
C298 H290 0.930 . S
C298 C297 1.362 . S
C298 C301 1.409 . S
C299 H291 0.930 . S
C299 C300 1.355 . S
C299 C301 1.415 . S
C300 C299 1.355 . S
C300 C302 1.419 . S
C301 C296 1.425 . S
C301 C298 1.409 . S
C301 C299 1.415 . S
C302 H292 0.930 . S
C302 C300 1.419 . S
C302 C303 1.362 . S
C303 H293 0.930 . S
C303 C296 1.409 . S
C303 C302 1.362 . S
H304 C310 0.930 . S
H305 C313 0.930 . S
H306 C314 0.930 . S
H307 C315 0.930 . S
H308 C318 0.930 . S
H309 C319 0.930 . S
C310 H304 0.930 . S
C310 C311 1.355 . S
C310 C312 1.415 . S
C311 C310 1.355 . S
C311 C313 1.419 . S
C312 C310 1.415 . S
C312 C317 1.425 . S
C312 C319 1.409 . S
C313 H305 0.930 . S
C313 C311 1.419 . S
C313 C314 1.362 . S
C314 H306 0.930 . S
C314 C313 1.362 . S
C314 C317 1.409 . S
C315 H307 0.930 . S
C315 C316 1.355 . S
C315 C317 1.415 . S
C316 C315 1.355 . S
C316 C318 1.419 . S
C317 C312 1.425 . S
C317 C314 1.409 . S
C317 C315 1.415 . S
C318 H308 0.930 . S
C318 C316 1.419 . S
C318 C319 1.362 . S
C319 H309 0.930 . S
C319 C312 1.409 . S
C319 C318 1.362 . S
H320 C326 0.930 . S
H321 C329 0.930 1_554 S
H322 C330 0.930 . S
H323 C331 0.930 . S
H324 C334 0.930 . S
H325 C335 0.930 . S
C326 H320 0.930 . S
C326 C327 1.355 . S
C326 C328 1.415 . S
C327 C326 1.355 . S
C327 C329 1.419 . S
C328 C326 1.415 . S
C328 C333 1.425 . S
C328 C335 1.409 . S
C329 H321 0.930 1_556 S
C329 C327 1.419 . S
C329 C330 1.362 . S
C330 H322 0.930 . S
C330 C329 1.362 . S
C330 C333 1.409 . S
C331 H323 0.930 . S
C331 C332 1.355 . S
C331 C333 1.415 . S
C332 C331 1.355 . S
C332 C334 1.419 . S
C333 C328 1.425 . S
C333 C330 1.409 . S
C333 C331 1.415 . S
C334 H324 0.930 . S
C334 C332 1.419 . S
C334 C335 1.362 . S
C335 H325 0.930 . S
C335 C328 1.409 . S
C335 C334 1.362 . S
H336 C342 0.930 . S
H337 C345 0.930 . S
H338 C346 0.930 . S
H339 C347 0.930 . S
H340 C350 0.930 . S
H341 C351 0.930 . S
C342 H336 0.930 . S
C342 C343 1.355 . S
C342 C344 1.415 . S
C343 C342 1.355 . S
C343 C345 1.419 . S
C344 C342 1.415 . S
C344 C349 1.425 . S
C344 C351 1.409 . S
C345 H337 0.930 . S
C345 C343 1.419 . S
C345 C346 1.362 . S
C346 H338 0.930 . S
C346 C345 1.362 . S
C346 C349 1.409 . S
C347 H339 0.930 . S
C347 C348 1.355 . S
C347 C349 1.415 . S
C348 C347 1.355 . S
C348 C350 1.419 . S
C349 C344 1.425 . S
C349 C346 1.409 . S
C349 C347 1.415 . S
C350 H340 0.930 . S
C350 C348 1.419 . S
C350 C351 1.362 . S
C351 H341 0.930 . S
C351 C344 1.409 . S
C351 C350 1.362 . S
H352 C358 0.930 . S
H353 C361 0.930 . S
H354 C362 0.930 . S
H355 C363 0.930 . S
H356 C366 0.930 . S
H357 C367 0.930 . S
C358 H352 0.930 . S
C358 C359 1.355 . S
C358 C360 1.415 . S
C359 C358 1.355 . S
C359 C361 1.419 . S
C360 C358 1.415 . S
C360 C365 1.425 . S
C360 C367 1.409 . S
C361 H353 0.930 . S
C361 C359 1.419 . S
C361 C362 1.362 . S
C362 H354 0.930 . S
C362 C361 1.362 . S
C362 C365 1.409 . S
C363 H355 0.930 . S
C363 C364 1.355 . S
C363 C365 1.415 . S
C364 C363 1.355 . S
C364 C366 1.419 . S
C365 C360 1.425 . S
C365 C362 1.409 . S
C365 C363 1.415 . S
C366 H356 0.930 . S
C366 C364 1.419 . S
C366 C367 1.362 . S
C367 H357 0.930 . S
C367 C360 1.409 . S
C367 C366 1.362 . S
H368 C374 0.930 . S
H369 C377 0.930 . S
H370 C378 0.930 . S
H371 C379 0.930 . S
H372 C382 0.930 . S
H373 C383 0.930 . S
C374 H368 0.930 . S
C374 C375 1.355 . S
C374 C376 1.415 . S
C375 C374 1.355 . S
C375 C377 1.419 . S
C376 C374 1.415 . S
C376 C381 1.425 . S
C376 C383 1.409 . S
C377 H369 0.930 . S
C377 C375 1.419 . S
C377 C378 1.362 . S
C378 H370 0.930 . S
C378 C377 1.362 . S
C378 C381 1.409 . S
C379 H371 0.930 . S
C379 C380 1.355 . S
C379 C381 1.415 . S
C380 C379 1.355 . S
C380 C382 1.419 . S
C381 C376 1.425 . S
C381 C378 1.409 . S
C381 C379 1.415 . S
C382 H372 0.930 . S
C382 C380 1.419 . S
C382 C383 1.362 . S
C383 H373 0.930 . S
C383 C376 1.409 . S
C383 C382 1.362 . S
H384 C390 0.930 . S
H385 C393 0.930 1_554 S
H386 C394 0.930 . S
H387 C395 0.930 . S
H388 C398 0.930 . S
H389 C399 0.930 . S
C390 H384 0.930 . S
C390 C391 1.355 . S
C390 C392 1.415 . S
C391 C390 1.355 . S
C391 C393 1.419 . S
C392 C390 1.415 . S
C392 C397 1.425 . S
C392 C399 1.409 1_565 S
C393 H385 0.930 1_556 S
C393 C391 1.419 . S
C393 C394 1.362 . S
C394 H386 0.930 . S
C394 C393 1.362 . S
C394 C397 1.409 . S
C395 H387 0.930 . S
C395 C396 1.355 . S
C395 C397 1.415 1_545 S
C396 C395 1.355 . S
C396 C398 1.419 . S
C397 C392 1.425 . S
C397 C394 1.409 . S
C397 C395 1.415 1_565 S
C398 H388 0.930 . S
C398 C396 1.419 . S
C398 C399 1.362 . S
C399 H389 0.930 . S
C399 C392 1.409 1_545 S
C399 C398 1.362 . S
H400 C406 0.930 . S
H401 C409 0.930 . S
H402 C410 0.930 . S
H403 C411 0.930 1_545 S
H404 C414 0.930 . S
H405 C415 0.930 . S
C406 H400 0.930 . S
C406 C407 1.355 . S
C406 C408 1.415 1_545 S
C407 C406 1.355 . S
C407 C409 1.419 . S
C408 C406 1.415 1_565 S
C408 C413 1.425 1_565 S
C408 C415 1.409 . S
C409 H401 0.930 . S
C409 C407 1.419 . S
C409 C410 1.362 . S
C410 H402 0.930 . S
C410 C409 1.362 . S
C410 C413 1.409 . S
C411 H403 0.930 1_565 S
C411 C412 1.355 . S
C411 C413 1.415 1_565 S
C412 C411 1.355 . S
C412 C414 1.419 . S
C413 C408 1.425 1_545 S
C413 C410 1.409 . S
C413 C411 1.415 1_545 S
C414 H404 0.930 . S
C414 C412 1.419 . S
C414 C415 1.362 . S
C415 H405 0.930 . S
C415 C408 1.409 . S
C415 C414 1.362 . S
H416 C422 0.930 . S
H417 C425 0.930 1_554 S
H418 C426 0.930 1_554 S
H419 C427 0.930 . S
H420 C430 0.930 . S
H421 C431 0.930 . S
C422 H416 0.930 . S
C422 C423 1.355 . S
C422 C424 1.415 . S
C423 C422 1.355 . S
C423 C425 1.419 . S
C424 C422 1.415 . S
C424 C429 1.425 1_565 S
C424 C431 1.409 1_565 S
C425 H417 0.930 1_556 S
C425 C423 1.419 . S
C425 C426 1.362 . S
C426 H418 0.930 1_556 S
C426 C425 1.362 . S
C426 C429 1.409 1_565 S
C427 H419 0.930 . S
C427 C428 1.355 . S
C427 C429 1.415 . S
C428 C427 1.355 . S
C428 C430 1.419 . S
C429 C424 1.425 1_545 S
C429 C426 1.409 1_545 S
C429 C427 1.415 . S
C430 H420 0.930 . S
C430 C428 1.419 . S
C430 C431 1.362 . S
C431 H421 0.930 . S
C431 C424 1.409 1_545 S
C431 C430 1.362 . S
H432 C438 0.930 . S
H433 C441 0.930 . S
H434 C442 0.930 . S
H435 C443 0.930 . S
H436 C446 0.930 . S
H437 C447 0.930 . S
C438 H432 0.930 . S
C438 C439 1.355 . S
C438 C440 1.414 1_545 S
C439 C438 1.355 . S
C439 C441 1.419 . S
C440 C438 1.414 1_565 S
C440 C445 1.425 1_565 S
C440 C447 1.410 . S
C441 H433 0.930 . S
C441 C439 1.419 . S
C441 C442 1.362 . S
C442 H434 0.930 . S
C442 C441 1.362 . S
C442 C445 1.409 . S
C443 H435 0.930 . S
C443 C444 1.355 . S
C443 C445 1.415 1_565 S
C444 C443 1.355 . S
C444 C446 1.419 . S
C445 C440 1.425 1_545 S
C445 C442 1.409 . S
C445 C443 1.415 1_545 S
C446 H436 0.930 . S
C446 C444 1.419 . S
C446 C447 1.362 . S
C447 H437 0.930 . S
C447 C440 1.410 . S
C447 C446 1.362 . S
H448 C454 0.930 . S
H449 C457 0.930 . S
H450 C458 0.930 . S
H451 C459 0.930 . S
H452 C462 0.930 . S
H453 C463 0.930 . S
C454 H448 0.930 . S
C454 C455 1.355 . S
C454 C456 1.415 . S
C455 C454 1.355 . S
C455 C457 1.419 . S
C456 C454 1.415 . S
C456 C461 1.425 . S
C456 C463 1.409 . S
C457 H449 0.930 . S
C457 C455 1.419 . S
C457 C458 1.362 . S
C458 H450 0.930 . S
C458 C457 1.362 . S
C458 C461 1.409 . S
C459 H451 0.930 . S
C459 C460 1.355 . S
C459 C461 1.415 . S
C460 C459 1.355 . S
C460 C462 1.419 . S
C461 C456 1.425 . S
C461 C458 1.409 . S
C461 C459 1.415 . S
C462 H452 0.930 . S
C462 C460 1.419 . S
C462 C463 1.362 . S
C463 H453 0.930 . S
C463 C456 1.409 . S
C463 C462 1.362 . S
H464 C470 0.930 . S
H465 C473 0.930 . S
H466 C474 0.930 . S
H467 C475 0.930 . S
H468 C478 0.930 . S
H469 C479 0.930 . S
C470 H464 0.930 . S
C470 C471 1.355 . S
C470 C472 1.415 . S
C471 C470 1.355 . S
C471 C473 1.419 . S
C472 C470 1.415 . S
C472 C477 1.425 . S
C472 C479 1.409 . S
C473 H465 0.930 . S
C473 C471 1.419 . S
C473 C474 1.362 . S
C474 H466 0.930 . S
C474 C473 1.362 . S
C474 C477 1.409 . S
C475 H467 0.930 . S
C475 C476 1.355 . S
C475 C477 1.415 . S
C476 C475 1.355 . S
C476 C478 1.419 . S
C477 C472 1.425 . S
C477 C474 1.409 . S
C477 C475 1.415 . S
C478 H468 0.930 . S
C478 C476 1.419 . S
C478 C479 1.362 . S
C479 H469 0.930 . S
C479 C472 1.409 . S
C479 C478 1.362 . S
H480 C486 0.930 . S
H481 C489 0.930 . S
H482 C490 0.930 . S
H483 C491 0.930 . S
H484 C494 0.930 . S
H485 C495 0.930 . S
C486 H480 0.930 . S
C486 C487 1.355 . S
C486 C488 1.415 . S
C487 C486 1.355 . S
C487 C489 1.419 . S
C488 C486 1.415 . S
C488 C493 1.425 . S
C488 C495 1.409 . S
C489 H481 0.930 . S
C489 C487 1.419 . S
C489 C490 1.362 . S
C490 H482 0.930 . S
C490 C489 1.362 . S
C490 C493 1.409 . S
C491 H483 0.930 . S
C491 C492 1.355 . S
C491 C493 1.415 . S
C492 C491 1.355 . S
C492 C494 1.419 . S
C493 C488 1.425 . S
C493 C490 1.409 . S
C493 C491 1.415 . S
C494 H484 0.930 . S
C494 C492 1.419 . S
C494 C495 1.362 . S
C495 H485 0.930 . S
C495 C488 1.409 . S
C495 C494 1.362 . S
H496 C502 0.930 . S
H497 C505 0.930 . S
H498 C506 0.930 . S
H499 C507 0.930 . S
H500 C510 0.930 . S
H501 C511 0.930 . S
C502 H496 0.930 . S
C502 C503 1.355 . S
C502 C504 1.415 . S
C503 C502 1.355 . S
C503 C505 1.419 . S
C504 C502 1.415 . S
C504 C509 1.425 . S
C504 C511 1.409 . S
C505 H497 0.930 . S
C505 C503 1.419 . S
C505 C506 1.362 . S
C506 H498 0.930 . S
C506 C505 1.362 . S
C506 C509 1.409 . S
C507 H499 0.930 . S
C507 C508 1.355 . S
C507 C509 1.415 . S
C508 C507 1.355 . S
C508 C510 1.419 . S
C509 C504 1.425 . S
C509 C506 1.409 . S
C509 C507 1.415 . S
C510 H500 0.930 . S
C510 C508 1.419 . S
C510 C511 1.362 . S
C511 H501 0.930 . S
C511 C504 1.409 . S
C511 C510 1.362 . S
H512 C518 0.930 . S
H513 C521 0.930 . S
H514 C522 0.930 . S
H515 C523 0.930 . S
H516 C526 0.930 . S
H517 C527 0.930 . S
C518 H512 0.930 . S
C518 C519 1.355 . S
C518 C520 1.415 . S
C519 C518 1.355 . S
C519 C521 1.419 . S
C520 C518 1.415 . S
C520 C525 1.425 . S
C520 C527 1.409 . S
C521 H513 0.930 . S
C521 C519 1.419 . S
C521 C522 1.362 . S
C522 H514 0.930 . S
C522 C521 1.362 . S
C522 C525 1.409 . S
C523 H515 0.930 . S
C523 C524 1.355 . S
C523 C525 1.415 . S
C524 C523 1.355 . S
C524 C526 1.419 . S
C525 C520 1.425 . S
C525 C522 1.409 . S
C525 C523 1.415 . S
C526 H516 0.930 . S
C526 C524 1.419 . S
C526 C527 1.362 . S
C527 H517 0.930 . S
C527 C520 1.409 . S
C527 C526 1.362 . S
H528 C534 0.930 . S
H529 C537 0.930 . S
H530 C538 0.930 . S
H531 C539 0.930 . S
H532 C542 0.930 . S
H533 C543 0.930 . S
C534 H528 0.930 . S
C534 C535 1.355 . S
C534 C536 1.415 . S
C535 C534 1.355 . S
C535 C537 1.419 . S
C536 C534 1.415 . S
C536 C541 1.425 . S
C536 C543 1.409 . S
C537 H529 0.930 . S
C537 C535 1.419 . S
C537 C538 1.362 . S
C538 H530 0.930 . S
C538 C537 1.362 . S
C538 C541 1.409 . S
C539 H531 0.930 . S
C539 C540 1.355 . S
C539 C541 1.415 . S
C540 C539 1.355 . S
C540 C542 1.419 . S
C541 C536 1.425 . S
C541 C538 1.409 . S
C541 C539 1.415 . S
C542 H532 0.930 . S
C542 C540 1.419 . S
C542 C543 1.362 . S
C543 H533 0.930 . S
C543 C536 1.409 . S
C543 C542 1.362 . S
H544 C550 0.930 . S
H545 C553 0.930 . S
H546 C554 0.930 . S
H547 C555 0.930 . S
H548 C558 0.930 . S
H549 C559 0.930 . S
C550 H544 0.930 . S
C550 C551 1.355 . S
C550 C552 1.415 . S
C551 C550 1.355 . S
C551 C553 1.419 . S
C552 C550 1.415 . S
C552 C557 1.425 . S
C552 C559 1.409 . S
C553 H545 0.930 . S
C553 C551 1.419 . S
C553 C554 1.362 . S
C554 H546 0.930 . S
C554 C553 1.362 . S
C554 C557 1.409 . S
C555 H547 0.930 . S
C555 C556 1.355 . S
C555 C557 1.415 . S
C556 C555 1.355 . S
C556 C558 1.419 . S
C557 C552 1.425 . S
C557 C554 1.409 . S
C557 C555 1.415 . S
C558 H548 0.930 . S
C558 C556 1.419 . S
C558 C559 1.362 . S
C559 H549 0.930 . S
C559 C552 1.409 . S
C559 C558 1.362 . S
H560 C566 0.930 . S
H561 C569 0.930 . S
H562 C570 0.930 . S
H563 C571 0.930 . S
H564 C574 0.930 . S
H565 C575 0.930 . S
C566 H560 0.930 . S
C566 C567 1.355 . S
C566 C568 1.415 . S
C567 C566 1.355 . S
C567 C569 1.419 . S
C568 C566 1.415 . S
C568 C573 1.425 . S
C568 C575 1.409 . S
C569 H561 0.930 . S
C569 C567 1.419 . S
C569 C570 1.362 . S
C570 H562 0.930 . S
C570 C569 1.362 . S
C570 C573 1.409 . S
C571 H563 0.930 . S
C571 C572 1.355 . S
C571 C573 1.415 . S
C572 C571 1.355 . S
C572 C574 1.419 . S
C573 C568 1.425 . S
C573 C570 1.409 . S
C573 C571 1.415 . S
C574 H564 0.930 . S
C574 C572 1.419 . S
C574 C575 1.362 . S
C575 H565 0.930 . S
C575 C568 1.409 . S
C575 C574 1.362 . S
C199 C4 1.566 . S
C204 C147 1.601 . S
C220 C111 1.471 . S
C215 C17 1.486 . S
C236 C134 1.480 . S
C231 C30 1.385 . S
C252 C122 1.603 . S
C247 C43 1.562 . S
C268 C191 1.587 . S
C263 C56 1.551 . S
C284 C155 1.460 . S
C279 C69 1.485 . S
C295 C82 1.438 . S
C300 C178 1.484 . S
C316 C166 1.586 . S
C311 C95 1.587 . S
C327 C9 1.511 . S
C332 C188 1.572 . S
C348 C158 1.452 . S
C343 C21 1.439 . S
C359 C34 1.477 . S
C364 C177 1.454 . S
C375 C48 1.579 . S
C380 C163 1.574 . S
C396 C144 1.572 . S
C391 C61 1.509 . S
C407 C73 1.427 . S
C412 C114 1.452 . S
C428 C133 1.477 . S
C423 C86 1.450 . S
C444 C119 1.597 . S
C439 C100 1.533 . S
C460 C169 1.507 . S
C455 C8 1.533 . S
C476 C185 1.512 . S
C471 C22 1.531 . S
C487 C35 1.494 . S
C492 C156 1.502 . S
C508 C180 1.497 . S
C503 C47 1.506 . S
C524 C125 1.535 . S
C519 C60 1.498 . S
C535 C74 1.488 . S
C540 C141 1.542 . S
C551 C87 1.459 . S
C556 C112 1.509 . S
C567 C99 1.476 . S
C572 C136 1.503 . S
