# Generated by pormake.
# Topology zzz, (3,6)-cn, num edge types: 1
# Building blocks:
#     Node 0, Type 0, BuildingBlock: MIDCAF_clean_linker_0, # of connection points: 3
#     Node 1, Type 0, BuildingBlock: MIDCAF_clean_linker_0, # of connection points: 3
#     Node 2, Type 0, BuildingBlock: MIDCAF_clean_linker_0, # of connection points: 3
#     Node 3, Type 0, BuildingBlock: MIDCAF_clean_linker_0, # of connection points: 3
#     Node 4, Type 0, BuildingBlock: MIDCAF_clean_linker_0, # of connection points: 3
#     Node 5, Type 0, BuildingBlock: MIDCAF_clean_linker_0, # of connection points: 3
#     Node 6, Type 0, BuildingBlock: MIDCAF_clean_linker_0, # of connection points: 3
#     Node 7, Type 0, BuildingBlock: MIDCAF_clean_linker_0, # of connection points: 3
#     Node 8, Type 1, BuildingBlock: FUNLAD_clean_sbu_0, # of connection points: 6
#     Node 9, Type 1, BuildingBlock: FUNLAD_clean_sbu_0, # of connection points: 6
#     Node 10, Type 1, BuildingBlock: FUNLAD_clean_sbu_0, # of connection points: 6
#     Node 11, Type 1, BuildingBlock: FUNLAD_clean_sbu_0, # of connection points: 6
#     Edge 12, Type (0, 1), BuildingBlock: EZIPEK_clean_linker_0, # of connection points: 2
#     Edge 13, Type (0, 1), BuildingBlock: EZIPEK_clean_linker_0, # of connection points: 2
#     Edge 14, Type (0, 1), BuildingBlock: EZIPEK_clean_linker_0, # of connection points: 2
#     Edge 15, Type (0, 1), BuildingBlock: EZIPEK_clean_linker_0, # of connection points: 2
#     Edge 16, Type (0, 1), BuildingBlock: EZIPEK_clean_linker_0, # of connection points: 2
#     Edge 17, Type (0, 1), BuildingBlock: EZIPEK_clean_linker_0, # of connection points: 2
#     Edge 18, Type (0, 1), BuildingBlock: EZIPEK_clean_linker_0, # of connection points: 2
#     Edge 19, Type (0, 1), BuildingBlock: EZIPEK_clean_linker_0, # of connection points: 2
#     Edge 20, Type (0, 1), BuildingBlock: EZIPEK_clean_linker_0, # of connection points: 2
#     Edge 21, Type (0, 1), BuildingBlock: EZIPEK_clean_linker_0, # of connection points: 2
#     Edge 22, Type (0, 1), BuildingBlock: EZIPEK_clean_linker_0, # of connection points: 2
#     Edge 23, Type (0, 1), BuildingBlock: EZIPEK_clean_linker_0, # of connection points: 2
#     Edge 24, Type (0, 1), BuildingBlock: EZIPEK_clean_linker_0, # of connection points: 2
#     Edge 25, Type (0, 1), BuildingBlock: EZIPEK_clean_linker_0, # of connection points: 2
#     Edge 26, Type (0, 1), BuildingBlock: EZIPEK_clean_linker_0, # of connection points: 2
#     Edge 27, Type (0, 1), BuildingBlock: EZIPEK_clean_linker_0, # of connection points: 2
#     Edge 28, Type (0, 1), BuildingBlock: EZIPEK_clean_linker_0, # of connection points: 2
#     Edge 29, Type (0, 1), BuildingBlock: EZIPEK_clean_linker_0, # of connection points: 2
#     Edge 30, Type (0, 1), BuildingBlock: EZIPEK_clean_linker_0, # of connection points: 2
#     Edge 31, Type (0, 1), BuildingBlock: EZIPEK_clean_linker_0, # of connection points: 2
#     Edge 32, Type (0, 1), BuildingBlock: EZIPEK_clean_linker_0, # of connection points: 2
#     Edge 33, Type (0, 1), BuildingBlock: EZIPEK_clean_linker_0, # of connection points: 2
#     Edge 34, Type (0, 1), BuildingBlock: EZIPEK_clean_linker_0, # of connection points: 2
#     Edge 35, Type (0, 1), BuildingBlock: EZIPEK_clean_linker_0, # of connection points: 2
# Relax obj value: 0.270
# Max RMSD: 0.237
# Mean RMSD: 0.194
data_MOF--net-zzz--node1-FUNLAD_clean_sbu_0--node2-MIDCAF_clean_linker_0--edge1-EZIPEK_clean_linker_0
_symmetry_space_group_name_H-M    P1
_symmetry_Int_Tables_number       1
_symmetry_cell_setting            triclinic
loop_
_symmetry_equiv_pos_as_xyz
'x, y, z'
_cell_length_a     45.103206
_cell_length_b     50.36378
_cell_length_c     17.749189
_cell_angle_alpha  85.977044
_cell_angle_beta   85.874504
_cell_angle_gamma 92.338849
loop_
_atom_site_label
_atom_site_type_symbol
_atom_site_fract_x
_atom_site_fract_y
_atom_site_fract_z
_atom_type_partial_charge
C0 C 0.84725 0.47729 0.47187 0.0
C1 C 0.86749 0.46046 0.50537 0.0
C2 C 0.86733 0.4336 0.48962 0.0
C3 C 0.84925 0.42422 0.43578 0.0
H4 H 0.73295 0.44696 0.29644 0.0
H5 H 0.68775 0.45945 0.23436 0.0
H6 H 0.73796 0.46648 0.0174 0.0
H7 H 0.78263 0.45393 0.07786 0.0
H8 H 0.83849 0.42664 0.05397 0.0
H9 H 0.88376 0.42423 0.97256 0.0
H10 H 0.92574 0.38336 0.15521 0.0
H11 H 0.88056 0.38681 0.23918 0.0
H12 H 0.81525 0.48166 0.38838 0.0
H13 H 0.84714 0.49811 0.48351 0.0
H14 H 0.88273 0.42033 0.51513 0.0
H15 H 0.85121 0.40387 0.4206 0.0
N16 N 0.79458 0.44326 0.2975 0.0
N17 N 0.80734 0.42572 0.1808 0.0
N18 N 0.83882 0.42059 0.27879 0.0
C19 C 0.78796 0.43873 0.22549 0.0
C20 C 0.8327 0.41649 0.20695 0.0
C21 C 0.82007 0.43386 0.32448 0.0
C22 C 0.76124 0.44921 0.19201 0.0
C23 C 0.73435 0.45157 0.23573 0.0
C24 C 0.70859 0.4586 0.20044 0.0
C25 C 0.70967 0.46376 0.12137 0.0
C26 C 0.73674 0.46252 0.07838 0.0
C27 C 0.7622 0.45524 0.11318 0.0
C28 C 0.85623 0.40754 0.15362 0.0
C29 C 0.85695 0.41646 0.07668 0.0
C30 C 0.88288 0.41513 0.02991 0.0
C31 C 0.9083 0.40438 0.05875 0.0
C32 C 0.90644 0.3922 0.13263 0.0
C33 C 0.88067 0.39421 0.18035 0.0
C34 C 0.83087 0.44152 0.39694 0.0
C35 C 0.8289 0.46782 0.41807 0.0
C36 C 0.88956 0.82883 0.34383 0.0
C37 C 0.90924 0.82568 0.40113 0.0
C38 C 0.92514 0.80236 0.40792 0.0
C39 C 0.92468 0.7843 0.35155 0.0
H40 H 0.92121 0.70234 0.22456 0.0
H41 H 0.92704 0.65624 0.1897 0.0
H42 H 0.96542 0.68567 0.96879 0.0
H43 H 0.95988 0.73119 0.00201 0.0
H44 H 0.00793 0.7931 0.0485 0.0
H45 H 0.03871 0.83024 0.98259 0.0
H46 H 0.96221 0.87896 0.98388 0.0
H47 H 0.93186 0.84246 0.05349 0.0
H48 H 0.87715 0.81571 0.23794 0.0
H49 H 0.87716 0.84673 0.33786 0.0
H50 H 0.94045 0.79968 0.45187 0.0
H51 H 0.94002 0.76829 0.35266 0.0
N52 N 0.92301 0.75514 0.20089 0.0
N53 N 0.95216 0.76819 0.08804 0.0
N54 N 0.93422 0.80049 0.16528 0.0
C55 C 0.93815 0.74858 0.13587 0.0
C56 C 0.95016 0.79408 0.10238 0.0
C57 C 0.9207 0.78128 0.21477 0.0
C58 C 0.94027 0.72053 0.11641 0.0
C59 C 0.93073 0.69896 0.16847 0.0
C60 C 0.93398 0.67267 0.14876 0.0
C61 C 0.94661 0.66777 0.07672 0.0
C62 C 0.95561 0.68917 0.02458 0.0
C63 C 0.95249 0.71522 0.04405 0.0
C64 C 0.96758 0.81503 0.05503 0.0
C65 C 0.99771 0.81167 0.03371 0.0
C66 C 0.01528 0.8328 0.99661 0.0
C67 C 1.00258 0.85714 0.97786 0.0
C68 C 0.97228 0.86022 0.99754 0.0
C69 C 0.955 0.83944 0.03688 0.0
C70 C 0.90865 0.78974 0.28778 0.0
C71 C 0.88941 0.81099 0.28709 0.0
C72 C 0.67153 0.98324 0.34135 0.0
C73 C 0.67864 0.99172 0.41166 0.0
C74 C 0.70786 0.00178 0.41932 0.0
C75 C 0.72863 0.00556 0.35579 0.0
H76 H 0.83062 0.01577 0.18105 0.0
H77 H 0.88019 0.01185 0.1149 0.0
H78 H 0.83859 0.9889 0.91668 0.0
H79 H 0.78957 0.99337 0.98126 0.0
H80 H 0.72674 0.02458 0.94726 0.0
H81 H 0.68365 0.03481 0.87567 0.0
H82 H 0.64914 0.08139 0.05414 0.0
H83 H 0.69168 0.0705 0.12716 0.0
H84 H 0.68526 0.98156 0.22413 0.0
H85 H 0.64931 0.97534 0.33384 0.0
H86 H 0.7139 0.00836 0.47319 0.0
H87 H 0.75004 0.01546 0.36146 0.0
N88 N 0.76507 0.00385 0.18962 0.0
N89 N 0.75961 0.02662 0.07072 0.0
N90 N 0.72095 0.02524 0.16563 0.0
C91 C 0.77653 0.01225 0.11773 0.0
C92 C 0.73211 0.03365 0.09506 0.0
C93 C 0.73684 0.01031 0.21312 0.0
C94 C 0.80625 0.00485 0.08633 0.0
C95 C 0.83217 0.00924 0.12411 0.0
C96 C 0.86045 0.00715 0.08622 0.0
C97 C 0.86313 0.00018 0.01057 0.0
C98 C 0.83715 0.99433 0.97478 0.0
C99 C 0.80913 0.99685 0.01189 0.0
C100 C 0.71219 0.04648 0.04298 0.0
C101 C 0.71055 0.03781 0.96988 0.0
C102 C 0.68593 0.04356 0.92912 0.0
C103 C 0.66307 0.05837 0.96059 0.0
C104 C 0.66651 0.06973 0.0295 0.0
C105 C 0.69074 0.06349 0.071 0.0
C106 C 0.72052 -0.00109 0.28428 0.0
C107 C 0.69221 0.98669 0.27869 0.0
C108 C 0.4743 0.62487 0.09123 0.0
C109 C 0.4883 0.62316 0.01863 0.0
C110 C 0.50925 0.64325 0.98878 0.0
C111 C 0.51743 0.66391 0.03258 0.0
H112 H 0.54663 0.74389 0.02921 0.0
H113 H 0.55256 0.79029 0.98017 0.0
H114 H 0.56287 0.81447 0.20524 0.0
H115 H 0.55658 0.76768 0.25595 0.0
H116 H 0.49658 0.66356 0.37745 0.0
H117 H 0.50818 0.632 0.48081 0.0
H118 H 0.60099 0.65698 0.4451 0.0
H119 H 0.58934 0.68906 0.34115 0.0
H120 H 0.47332 0.64522 0.19341 0.0
H121 H 0.45785 0.60969 0.11475 0.0
H122 H 0.52014 0.64232 0.93264 0.0
H123 H 0.53459 0.67851 0.00949 0.0
N124 N 0.52828 0.7078 0.13137 0.0
N125 N 0.54642 0.71536 0.24946 0.0
N126 N 0.52183 0.67458 0.23041 0.0
C127 C 0.54206 0.7243 0.1768 0.0
C128 C 0.53615 0.69039 0.27621 0.0
C129 C 0.51798 0.68305 0.15801 0.0
C130 C 0.55066 0.75202 0.14689 0.0
C131 C 0.55051 0.75891 0.06863 0.0
C132 C 0.55402 0.78544 0.04022 0.0
C133 C 0.55791 0.80567 0.08916 0.0
C134 C 0.55988 0.79898 0.16674 0.0
C135 C 0.55631 0.77227 0.19549 0.0
C136 C 0.54207 0.67872 0.35172 0.0
C137 C 0.51928 0.66312 0.39368 0.0
C138 C 0.52589 0.64502 0.45242 0.0
C139 C 0.55542 0.64202 0.46974 0.0
C140 C 0.57805 0.65914 0.43236 0.0
C141 C 0.57135 0.67755 0.37361 0.0
C142 C 0.50526 0.66441 0.10745 0.0
C143 C 0.48315 0.6451 0.13591 0.0
C144 C 0.15464 0.55489 0.00856 0.0
C145 C 0.16604 0.53124 0.98427 0.0
C146 C 0.19316 0.52278 0.0097 0.0
C147 C 0.20764 0.53707 0.06276 0.0
H148 H 0.2845 0.54494 0.19267 0.0
H149 H 0.32892 0.53096 0.2544 0.0
H150 H 0.30684 0.57997 0.43798 0.0
H151 H 0.26291 0.59427 0.37731 0.0
H152 H 0.1981 0.61026 0.40995 0.0
H153 H 0.15686 0.60358 0.50682 0.0
H154 H 0.09533 0.59569 0.33412 0.0
H155 H 0.13609 0.60304 0.23667 0.0
H156 H 0.15903 0.587 0.07915 0.0
H157 H 0.13402 0.56199 0.98863 0.0
H158 H 0.20252 0.50476 0.99046 0.0
H159 H 0.2277 0.5295 0.08459 0.0
N160 N 0.23355 0.56773 0.18168 0.0
N161 N 0.22174 0.59173 0.28802 0.0
N162 N 0.18741 0.58724 0.19726 0.0
C163 C 0.24152 0.5776 0.24743 0.0
C164 C 0.19462 0.59671 0.26328 0.0
C165 C 0.20648 0.57288 0.15588 0.0
C166 C 0.2699 0.57063 0.28005 0.0
C167 C 0.28923 0.55297 0.24576 0.0
C168 C 0.31457 0.5449 0.28094 0.0
C169 C 0.3209 0.55429 0.35096 0.0
C170 C 0.3022 0.57242 0.38415 0.0
C171 C 0.27704 0.58056 0.34912 0.0
C172 C 0.17058 0.60564 0.31581 0.0
C173 C 0.17568 0.60856 0.39212 0.0
C174 C 0.15205 0.60494 0.44778 0.0
C175 C 0.12332 0.59827 0.42734 0.0
C176 C 0.11745 0.60048 0.35084 0.0
C177 C 0.14098 0.60443 0.29516 0.0
C178 C 0.19523 0.56008 0.09014 0.0
C179 C 0.16909 0.5692 0.06038 0.0
C180 C 0.13949 0.18056 0.03911 0.0
C181 C 0.11676 0.17153 0.99579 0.0
C182 C 0.08898 0.18305 0.00188 0.0
C183 C 0.08277 0.20076 0.05723 0.0
H184 H 0.0974 0.29129 0.21152 0.0
H185 H 0.09569 0.33374 0.27168 0.0
H186 H 0.10326 0.29213 0.4896 0.0
H187 H 0.10437 0.24973 0.43046 0.0
H188 H 0.0691 0.18838 0.452 0.0
H189 H 0.04723 0.14845 0.52558 0.0
H190 H 0.00718 0.12297 0.32773 0.0
H191 H 0.0296 0.16243 0.25324 0.0
H192 H 0.15003 0.20286 0.13317 0.0
H193 H 0.16106 0.17184 0.03518 0.0
H194 H 0.07113 0.17627 0.96915 0.0
H195 H 0.06017 0.20701 0.0667 0.0
N196 N 0.10275 0.23739 0.21153 0.0
N197 N 0.07742 0.22247 0.32859 0.0
N198 N 0.07684 0.1957 0.22651 0.0
C199 C 0.09417 0.24158 0.28486 0.0
C200 C 0.06849 0.19959 0.29939 0.0
C201 C 0.09404 0.21426 0.18265 0.0
C202 C 0.10068 0.26728 0.31657 0.0
C203 C 0.09969 0.29134 0.27184 0.0
C204 C 0.09867 0.31553 0.30601 0.0
C205 C 0.09923 0.31587 0.38489 0.0
C206 C 0.10289 0.29215 0.42863 0.0
C207 C 0.1034 0.268 0.3948 0.0
C208 C 0.05137 0.17825 0.34679 0.0
C209 C 0.05515 0.17455 0.42461 0.0
C210 C 0.0427 0.1518 0.46662 0.0
C211 C 0.02593 0.13276 0.43161 0.0
C212 C 0.02023 0.13744 0.35535 0.0
C213 C 0.03314 0.15988 0.313 0.0
C214 C 0.10434 0.20733 0.1067 0.0
C215 C 0.13328 0.19847 0.09445 0.0
C216 C 0.36007 0.02887 0.06705 0.0
C217 C 0.36471 0.00872 0.0173 0.0
C218 C 0.34512 0.98611 0.02428 0.0
C219 C 0.3231 0.98255 0.08465 0.0
H220 H 0.22241 0.00513 0.25406 0.0
H221 H 0.17195 0.00744 0.3158 0.0
H222 H 0.19913 0.96446 0.51575 0.0
H223 H 0.2489 0.96176 0.45549 0.0
H224 H 0.32101 0.93448 0.44591 0.0
H225 H 0.36151 0.92288 0.52679 0.0
H226 H 0.41481 0.99055 0.42275 0.0
H227 H 0.37543 0.00129 0.34001 0.0
H228 H 0.33709 0.03987 0.16938 0.0
H229 H 0.37505 0.04637 0.06301 0.0
H230 H 0.34848 0.97022 0.98688 0.0
H231 H 0.31042 0.96371 0.09349 0.0
N232 N 0.27972 0.99201 0.24265 0.0
N233 N 0.29277 0.97494 0.36238 0.0
N234 N 0.32972 0.9849 0.26438 0.0
C235 C 0.27146 0.98314 0.31638 0.0
C236 C 0.32183 0.97587 0.33668 0.0
C237 C 0.30909 0.99267 0.21686 0.0
C238 C 0.24001 0.98337 0.34953 0.0
C239 C 0.21759 0.99598 0.31088 0.0
C240 C 0.18876 0.99742 0.34619 0.0
C241 C 0.18186 0.98633 0.42074 0.0
C242 C 0.20396 0.9733 0.45852 0.0
C243 C 0.23254 0.97181 0.42357 0.0
C244 C 0.34519 0.96881 0.38722 0.0
C245 C 0.34145 0.94675 0.44058 0.0
C246 C 0.3645 0.94007 0.48633 0.0
C247 C 0.39097 0.95605 0.48111 0.0
C248 C 0.39455 0.97803 0.42774 0.0
C249 C 0.37204 0.98417 0.38069 0.0
C250 C 0.32029 0.00159 0.13865 0.0
C251 C 0.3381 0.0253 0.12728 0.0
C252 C 0.55959 0.37818 0.37037 0.0
C253 C 0.5443 0.37964 0.44154 0.0
C254 C 0.52315 0.35936 0.46882 0.0
C255 C 0.51607 0.33874 0.42368 0.0
H256 H 0.47935 0.25952 0.41795 0.0
H257 H 0.4763 0.21307 0.46853 0.0
H258 H 0.49253 0.18753 0.24316 0.0
H259 H 0.49546 0.23427 0.19142 0.0
H260 H 0.45239 0.30765 0.09726 0.0
H261 H 0.43882 0.33865 0.99277 0.0
H262 H 0.52558 0.37839 0.98522 0.0
H263 H 0.53922 0.34771 0.08805 0.0
H264 H 0.56272 0.35808 0.26782 0.0
H265 H 0.5762 0.39352 0.34886 0.0
H266 H 0.51126 0.36011 0.52385 0.0
H267 H 0.49873 0.32399 0.44455 0.0
N268 N 0.50819 0.29494 0.32164 0.0
N269 N 0.49255 0.28785 0.20051 0.0
N270 N 0.51511 0.32894 0.22485 0.0
C271 C 0.4959 0.27855 0.27343 0.0
C272 C 0.50221 0.31323 0.17631 0.0
C273 C 0.51807 0.32004 0.29734 0.0
C274 C 0.48799 0.25054 0.30074 0.0
C275 C 0.48163 0.24404 0.37877 0.0
C276 C 0.47977 0.21753 0.40784 0.0
C277 C 0.48438 0.19703 0.35958 0.0
C278 C 0.48883 0.20321 0.28107 0.0
C279 C 0.49043 0.22986 0.25169 0.0
C280 C 0.49677 0.32546 0.10088 0.0
C281 C 0.46889 0.32232 0.07105 0.0
C282 C 0.46104 0.3401 0.012 0.0
C283 C 0.48109 0.36101 0.98265 0.0
C284 C 0.50977 0.36252 0.00781 0.0
C285 C 0.51754 0.34493 0.06634 0.0
C286 C 0.52958 0.33851 0.35004 0.0
C287 C 0.55188 0.35801 0.32434 0.0
C288 C 0.03808 0.95209 0.80807 0.0
N289 N 0.98553 0.95356 0.62333 0.0
C290 C 0.9996 0.93106 0.60682 0.0
C291 C 0.98481 0.91084 0.57262 0.0
C292 C 0.95526 0.91379 0.5556 0.0
C293 C 0.9411 0.9371 0.57289 0.0
C294 C 0.9568 0.95694 0.60713 0.0
Zn295 Zn 0.00829 0.98102 0.67918 0.0
C296 C 0.97158 0.99792 0.81248 0.0
N297 N 0.05841 0.03414 0.80261 0.0
C298 C 0.08776 0.03191 0.81429 0.0
C299 C 0.04379 0.05622 0.82046 0.0
C300 C 0.05871 0.0773 0.8505 0.0
C301 C 0.08897 0.07571 0.86192 0.0
C302 C 0.10366 0.05272 0.84395 0.0
Zn303 Zn 0.03558 0.00652 0.74759 0.0
O304 O 0.02185 0.94979 0.75299 0.0
C305 C 0.07208 0.98947 0.6133 0.0
O306 O 0.04854 0.97498 0.82066 0.0
H307 H 0.02063 0.05782 0.80955 0.0
H308 H 0.0223 0.92865 0.62079 0.0
H309 H 0.099 0.01428 0.79904 0.0
O310 O 0.04716 0.97823 0.60202 0.0
O311 O 0.07406 0.0024 0.67195 0.0
H312 H 0.94602 0.97492 0.62122 0.0
O313 O 0.02309 0.03778 0.67264 0.0
O314 O 0.99504 0.01277 0.60705 0.0
O315 O 0.99612 0.00999 0.82321 0.0
O316 O 0.96998 0.98426 0.75529 0.0
C317 C 0.00669 0.03543 0.61816 0.0
H318 H 0.99632 0.89309 0.55931 0.0
H319 H 0.91833 0.93993 0.55961 0.0
H320 H 0.04686 0.09487 0.86382 0.0
H321 H 0.12708 0.05103 0.85229 0.0
C322 C 0.48974 0.9708 0.64837 0.0
N323 N 0.50973 0.05309 0.62438 0.0
C324 C 0.50938 0.05057 0.54852 0.0
C325 C 0.50368 0.07241 0.49957 0.0
C326 C 0.49859 0.09701 0.52917 0.0
C327 C 0.49858 0.09906 0.60748 0.0
C328 C 0.50412 0.07667 0.65447 0.0
Zn329 Zn 0.52001 0.02102 0.69346 0.0
C330 C 0.47515 0.00886 0.82373 0.0
N331 N 0.54118 0.95201 0.82934 0.0
C332 C 0.54855 0.9289 0.7988 0.0
C333 C 0.53931 0.95394 0.90569 0.0
C334 C 0.54413 0.93185 0.95466 0.0
C335 C 0.55089 0.90766 0.9245 0.0
C336 C 0.55353 0.90632 0.84572 0.0
Zn337 Zn 0.5311 0.98409 0.76003 0.0
O338 O 0.49248 0.99593 0.63541 0.0
C339 C 0.57541 0.99566 0.62833 0.0
O340 O 0.50472 0.95915 0.69763 0.0
H341 H 0.53346 0.9725 0.92876 0.0
H342 H 0.51399 0.03169 0.52573 0.0
H343 H 0.54996 0.92783 0.73801 0.0
O344 O 0.55786 0.01449 0.61683 0.0
O345 O 0.56981 0.97923 0.68587 0.0
H346 H 0.50441 0.07821 0.71488 0.0
O347 O 0.55727 0.00964 0.82151 0.0
O348 O 0.54741 0.04584 0.75396 0.0
O349 O 0.49183 0.98926 0.83268 0.0
O350 O 0.48235 0.02678 0.77061 0.0
C351 C 0.56116 0.03468 0.80648 0.0
H352 H 0.50395 0.07034 0.43919 0.0
H353 H 0.49477 0.11789 0.63172 0.0
H354 H 0.54186 0.93339 0.01535 0.0
H355 H 0.55862 0.88783 0.82099 0.0
C356 C 0.53869 0.46713 0.63056 0.0
N357 N 0.46071 0.50987 0.6295 0.0
C358 C 0.46769 0.51362 0.55342 0.0
C359 C 0.4457 0.51952 0.50415 0.0
C360 C 0.41635 0.52187 0.53361 0.0
C361 C 0.40955 0.51752 0.61199 0.0
C362 C 0.43221 0.51143 0.65925 0.0
Zn363 Zn 0.49464 0.50382 0.69887 0.0
C364 C 0.48584 0.45779 0.80555 0.0
N365 N 0.56977 0.49379 0.8305 0.0
C366 C 0.59866 0.49309 0.80284 0.0
C367 C 0.56206 0.49022 0.90631 0.0
C368 C 0.5837 0.48581 0.95756 0.0
C369 C 0.61351 0.48478 0.93045 0.0
C370 C 0.62105 0.48849 0.85224 0.0
Zn371 Zn 0.53609 0.49959 0.75997 0.0
O372 O 0.51368 0.47747 0.62408 0.0
C373 C 0.54504 0.54541 0.65232 0.0
O374 O 0.55481 0.47376 0.68263 0.0
H375 H 0.53898 0.4906 0.92723 0.0
H376 H 0.49049 0.51252 0.5309 0.0
H377 H 0.6043 0.49594 0.74247 0.0
O378 O 0.5189 0.53716 0.64043 0.0
O379 O 0.55952 0.53288 0.70113 0.0
H380 H 0.42715 0.50841 0.71981 0.0
O381 O 0.517 0.52586 0.83481 0.0
O382 O 0.47596 0.52967 0.77634 0.0
O383 O 0.51195 0.46607 0.81762 0.0
O384 O 0.47119 0.47056 0.75764 0.0
C385 C 0.49201 0.53621 0.82857 0.0
H386 H 0.45159 0.52277 0.44386 0.0
H387 H 0.38703 0.51919 0.63629 0.0
H388 H 0.57726 0.48291 0.01765 0.0
H389 H 0.64395 0.48776 0.82983 0.0
C390 C 0.04668 0.52781 0.63549 0.0
N391 N 0.04778 0.44499 0.64441 0.0
C392 C 0.04528 0.44767 0.56827 0.0
C393 C 0.05568 0.42821 0.52218 0.0
C394 C 0.06823 0.40567 0.55516 0.0
C395 C 0.07108 0.4035 0.6334 0.0
C396 C 0.0608 0.42366 0.67731 0.0
Zn397 Zn 0.03059 0.47328 0.70954 0.0
C398 C 0.07285 0.49328 0.81534 0.0
N399 N 0.9947 0.53412 0.83891 0.0
C400 C 0.98366 0.55655 0.80652 0.0
C401 C 0.99557 0.53023 0.91544 0.0
C402 C 0.98556 0.54955 0.96256 0.0
C403 C 0.97501 0.57318 0.93033 0.0
C404 C 0.97369 0.57653 0.85156 0.0
Zn405 Zn 0.01181 0.50594 0.77306 0.0
O406 O 0.04711 0.50305 0.62661 0.0
C407 C 0.96946 0.48647 0.6678 0.0
O408 O 0.03273 0.53571 0.69396 0.0
H409 H 1.00461 0.51234 0.94004 0.0
H410 H 0.03467 0.46467 0.54331 0.0
H411 H 0.98311 0.55917 0.74565 0.0
O412 O 0.99003 0.4704 0.65627 0.0
O413 O 0.97274 0.50471 0.71289 0.0
H414 H 0.0627 0.42203 0.73783 0.0
O415 O 0.99197 0.47574 0.85052 0.0
O416 O 0.01361 0.44359 0.7933 0.0
O417 O 0.0507 0.50701 0.83234 0.0
O418 O 0.07129 0.47696 0.76409 0.0
C419 C 0.99639 0.45112 0.84653 0.0
H420 H 0.05304 0.43023 0.4619 0.0
H421 H 0.08063 0.3862 0.66021 0.0
H422 H 0.98685 0.54649 0.02324 0.0
H423 H 0.96562 0.59463 0.82526 0.0
C424 C 0.14269 0.01227 0.48954 0.0
C425 C 0.15167 0.98802 0.46075 0.0
C426 C 0.10801 0.96441 0.52991 0.0
C427 C 0.09838 0.98888 0.55669 0.0
N428 N 0.10219 0.03698 0.54248 0.0
N429 N 0.13922 0.94248 0.43826 0.0
C430 C 0.11445 0.01309 0.53069 0.0
C431 C 0.13309 0.96457 0.47611 0.0
N432 N 0.1616 0.03435 0.48032 0.0
N433 N 0.0943 0.94081 0.5586 0.0
H434 H 0.15732 0.94198 0.39837 0.0
H435 H 0.12488 0.92565 0.44081 0.0
H436 H 0.07597 0.93959 0.59779 0.0
H437 H 0.10257 0.92229 0.54829 0.0
H438 H 0.15771 0.05165 0.5077 0.0
H439 H 0.18232 0.03472 0.45006 0.0
H440 H 0.11147 0.05514 0.51815 0.0
H441 H 0.08109 0.03851 0.56949 0.0
C442 C 0.51707 0.16207 0.41048 0.0
C443 C 0.48819 0.16967 0.39325 0.0
C444 C 0.46603 0.12879 0.46166 0.0
C445 C 0.49494 0.12109 0.47806 0.0
N446 N 0.54826 0.1274 0.45731 0.0
N447 N 0.43588 0.15891 0.3899 0.0
C448 C 0.52057 0.13679 0.44882 0.0
C449 C 0.46285 0.15252 0.4149 0.0
N450 N 0.541 0.17957 0.39311 0.0
N451 N 0.44166 0.11376 0.49265 0.0
H452 H 0.43296 0.17628 0.35616 0.0
H453 H 0.41694 0.14623 0.39743 0.0
H454 H 0.44327 0.09579 0.5248 0.0
H455 H 0.41989 0.11964 0.49019 0.0
H456 H 0.56193 0.17676 0.41264 0.0
H457 H 0.53963 0.19791 0.36273 0.0
H458 H 0.5677 0.13637 0.43002 0.0
H459 H 0.55179 0.10939 0.48732 0.0
C460 C 0.37143 0.56281 0.39724 0.0
C461 C 0.34673 0.54492 0.39138 0.0
C462 C 0.37012 0.5106 0.46897 0.0
C463 C 0.39286 0.52958 0.48263 0.0
N464 N 0.41309 0.57494 0.46865 0.0
N465 N 0.32034 0.50293 0.42964 0.0
C466 C 0.39307 0.55601 0.44886 0.0
C467 C 0.34551 0.51904 0.42909 0.0
N468 N 0.37446 0.58609 0.35235 0.0
N469 N 0.37241 0.48438 0.49253 0.0
H470 H 0.30185 0.50828 0.40097 0.0
H471 H 0.31683 0.48516 0.46338 0.0
H472 H 0.39018 0.47747 0.52169 0.0
H473 H 0.35818 0.46918 0.47733 0.0
H474 H 0.39349 0.59869 0.34829 0.0
H475 H 0.35905 0.59162 0.31368 0.0
H476 H 0.41221 0.59515 0.45233 0.0
H477 H 0.42911 0.57089 0.50687 0.0
C478 C 0.06127 0.34246 0.45146 0.0
C479 C 0.09128 0.34004 0.42349 0.0
C480 C 0.10638 0.38068 0.48193 0.0
C481 C 0.07627 0.38337 0.50855 0.0
N482 N 0.0244 0.36917 0.51265 0.0
N483 N 0.14178 0.35777 0.40253 0.0
C484 C 0.05351 0.36495 0.49139 0.0
C485 C 0.11369 0.35949 0.43585 0.0
N486 N 0.04036 0.32277 0.4416 0.0
N487 N 0.12794 0.39815 0.50207 0.0
H488 H 0.14788 0.34214 0.36997 0.0
H489 H 0.15862 0.37249 0.4028 0.0
H490 H 0.12318 0.41451 0.53305 0.0
H491 H 0.15065 0.39588 0.49172 0.0
H492 H 0.01908 0.32135 0.46877 0.0
H493 H 0.04463 0.30677 0.40881 0.0
H494 H 1.0064 0.35858 0.49395 0.0
H495 H 0.01785 0.38443 0.54607 0.0
C496 C 0.91362 0.98125 0.97936 0.0
C497 C 0.89264 0.00101 0.96549 0.0
C498 C 0.9229 0.0179 0.84991 0.0
C499 C 0.94488 -0.00053 0.86646 0.0
N500 N 0.9634 0.96585 0.95194 0.0
N501 N 0.88098 0.04201 0.89776 0.0
C502 C 0.94098 0.98193 0.9331 0.0
C503 C 0.89846 0.02052 0.9038 0.0
N504 N 0.90678 0.96109 0.03426 0.0
N505 N 0.92476 0.03227 0.7814 0.0
H506 H 0.86326 0.04492 0.93699 0.0
H507 H 0.88585 0.05822 0.85848 0.0
H508 H 0.94202 0.03047 0.74005 0.0
H509 H 0.90785 0.044 0.76282 0.0
H510 H 0.91952 0.94446 0.04173 0.0
H511 H 0.88708 0.95995 0.06911 0.0
H512 H 0.96339 0.95465 0.00352 0.0
H513 H 0.98312 0.9651 0.91783 0.0
C514 C 0.52891 0.84523 0.05333 0.0
C515 C 0.55699 0.83382 0.05862 0.0
C516 C 0.58152 0.87347 0.98881 0.0
C517 C 0.55315 0.88317 0.97511 0.0
N518 N 0.49959 0.87757 0.98812 0.0
N519 N 0.61005 0.83592 0.02994 0.0
C520 C 0.52675 0.869 0.0064 0.0
C521 C 0.58338 0.84774 0.02649 0.0
N522 N 0.50431 0.83329 0.0934 0.0
N523 N 0.60656 0.88908 0.96669 0.0
H524 H 0.61228 0.81762 0.05987 0.0
H525 H 0.62966 0.84349 1.0002 0.0
H526 H 0.60586 0.90792 0.93854 0.0
H527 H 0.62778 0.8844 0.9812 0.0
H528 H 0.48381 0.84203 0.09855 0.0
H529 H 0.50493 0.81553 0.12711 0.0
H530 H 0.4797 0.86645 0.00142 0.0
H531 H 0.49695 0.89504 0.95459 0.0
C532 C 0.67432 0.49554 0.06556 0.0
C533 C 0.68241 0.46892 0.08136 0.0
C534 C 0.64275 0.45259 0.00622 0.0
C535 C 0.63672 0.47935 0.98413 0.0
N536 N 0.64715 0.5265 0.98839 0.0
N537 N 0.67603 0.422 0.0647 0.0
C538 C 0.65251 0.50091 0.01298 0.0
C539 C 0.6669 0.44738 0.05161 0.0
N540 N 0.68737 0.51559 0.1016 0.0
N541 N 0.6251 0.43219 0.98441 0.0
H542 H 0.69265 0.41723 0.10062 0.0
H543 H 0.66835 0.4058 0.03713 0.0
H544 H 0.60794 0.43517 0.94878 0.0
H545 H 0.62603 0.41245 0.00539 0.0
H546 H 0.68061 0.53511 0.09869 0.0
H547 H 0.70369 0.51227 0.13951 0.0
H548 H 0.66003 0.54309 1.00024 0.0
H549 H 0.63066 0.53118 0.95199 0.0
C550 C 0.92937 0.62533 0.02368 0.0
C551 C 0.95207 0.64044 0.05485 0.0
C552 C 0.98954 0.61044 0.00901 0.0
C553 C 0.96684 0.59508 0.9784 0.0
N554 N 0.91469 0.58396 0.97126 0.0
N555 N 1.00185 0.64394 0.09482 0.0
C556 C 0.93653 0.60127 0.99055 0.0
C557 C 0.98154 0.63172 0.05352 0.0
N558 N 0.90133 0.6346 0.02281 0.0
N559 N 0.01883 0.60572 0.99193 0.0
H560 H 0.99656 0.65968 0.12785 0.0
H561 H 0.02292 0.63691 0.10219 0.0
H562 H 0.02577 0.59052 0.95877 0.0
H563 H 0.03635 0.6182 0.00539 0.0
H564 H 0.8847 0.62627 0.99288 0.0
H565 H 0.89511 0.65168 0.04883 0.0
H566 H 0.89212 0.58603 0.98517 0.0
H567 H 0.91928 0.56616 0.94695 0.0
C568 C 0.99567 0.10563 0.53596 0.0
C569 C 0.01698 0.10677 0.47304 0.0
C570 C 0.02301 0.05876 0.49298 0.0
C571 C 1.00543 0.05852 0.56266 0.0
N572 N 0.97725 0.0822 0.65493 0.0
N573 N 0.0548 0.08533 0.39861 0.0
C574 C 0.99218 0.08207 0.58523 0.0
C575 C 0.03145 0.08352 0.45266 0.0
N576 N 0.97866 0.12698 0.54814 0.0
N577 N 0.03243 0.03549 0.46618 0.0
H578 H 0.06248 0.10316 0.36889 0.0
H579 H 0.06851 0.06963 0.38827 0.0
H580 H 0.02787 0.01689 0.49497 0.0
H581 H 0.04263 0.03438 0.412 0.0
H582 H 0.96082 0.12644 0.58897 0.0
H583 H 0.98067 0.14449 0.51269 0.0
H584 H 0.97013 0.09948 0.67816 0.0
H585 H 0.97375 0.06516 0.69178 0.0
C586 C 0.44383 0.94538 0.4976 0.0
C587 C 0.41535 0.95065 0.53126 0.0
C588 C 0.43702 0.95514 0.65236 0.0
C589 C 0.46567 0.95647 0.61394 0.0
N590 N 0.4974 0.95138 0.50184 0.0
N591 N 0.38469 0.96165 0.64136 0.0
C592 C 0.46944 0.95065 0.53725 0.0
C593 C 0.41168 0.95515 0.60946 0.0
N594 N 0.44618 0.93566 0.4276 0.0
N595 N 0.43418 0.95471 0.72958 0.0
H596 H 0.36556 0.96254 0.61196 0.0
H597 H 0.38168 0.96812 0.69571 0.0
H598 H 0.45255 0.95483 0.76206 0.0
H599 H 0.41386 0.95159 0.7614 0.0
H600 H 0.46605 0.92958 0.40213 0.0
H601 H 0.42756 0.93136 0.39814 0.0
H602 H 0.5016 0.95041 0.44367 0.0
H603 H 0.51646 0.95402 0.53106 0.0
C604 C 0.55876 0.40001 0.55923 0.0
C605 C 0.54854 0.4033 0.48567 0.0
C606 C 0.54309 0.45072 0.50158 0.0
C607 C 0.54733 0.44621 0.57968 0.0
N608 N 0.55544 0.41487 0.68571 0.0
N609 N 0.52643 0.43141 0.39059 0.0
C610 C 0.55466 0.42052 0.60941 0.0
C611 C 0.5398 0.42864 0.45725 0.0
N612 N 0.57231 0.37726 0.58113 0.0
N613 N 0.54212 0.47616 0.46985 0.0
H614 H 0.52221 0.41562 0.35739 0.0
H615 H 0.51683 0.44892 0.37196 0.0
H616 H 0.54502 0.49282 0.50077 0.0
H617 H 0.54168 0.48066 0.41174 0.0
H618 H 0.58264 0.37484 0.63167 0.0
H619 H 0.57586 0.36196 0.54523 0.0
H620 H 0.55711 0.3956 0.71003 0.0
H621 H 0.55157 0.4287 0.72576 0.0
C622 C 0.11129 0.55465 0.49975 0.0
C623 C 0.10302 0.58101 0.48102 0.0
C624 C 0.05546 0.57157 0.55576 0.0
C625 C 0.0658 0.54659 0.5829 0.0
N626 N 0.10785 0.51816 0.5947 0.0
N627 N 0.06877 0.61593 0.49706 0.0
C628 C 0.09491 0.53919 0.55897 0.0
C629 C 0.07554 0.58995 0.51094 0.0
N630 N 0.13421 0.54386 0.45934 0.0
N631 N 0.02626 0.57719 0.56917 0.0
H632 H 0.0829 0.62962 0.46347 0.0
H633 H 0.0504 0.6243 0.52353 0.0
H634 H 0.01054 0.56376 0.59827 0.0
H635 H 0.01697 0.59404 0.54486 0.0
H636 H 0.13881 0.52375 0.46613 0.0
H637 H 0.1465 0.55399 0.41341 0.0
H638 H 0.13017 0.51412 0.58367 0.0
H639 H 0.0979 0.50668 0.64142 0.0
C640 C 0.03157 0.87966 0.86309 0.0
C641 C 0.02083 0.88005 0.93997 0.0
C642 C 0.03534 0.92762 0.93794 0.0
C643 C 0.04208 0.92786 0.85851 0.0
N644 N 0.05696 0.90225 0.75305 0.0
N645 N 0.01933 0.90343 0.05522 0.0
C646 C 0.044 0.90333 0.82428 0.0
C647 C 0.02516 0.90347 0.97884 0.0
N648 N 0.02884 0.85711 0.82514 0.0
N649 N 0.03785 0.95033 0.97521 0.0
H650 H 0.01256 0.88644 0.09036 0.0
H651 H 0.01256 0.88644 0.09036 0.0
H652 H 0.04728 0.96827 0.9501 0.0
H653 H 0.03174 0.95077 0.03295 0.0
H654 H 0.03616 0.85658 0.76812 0.0
H655 H 0.01869 0.8393 0.84955 0.0
H656 H 0.06779 0.91871 0.7223 0.0
H657 H 0.06779 0.91871 0.7223 0.0
C658 C 0.60954 0.04262 0.96353 0.0
C659 C 0.63394 0.05836 0.92692 0.0
C660 C 0.60567 0.067 0.8154 0.0
C661 C 0.58217 0.0497 0.85084 0.0
N662 N 0.5566 0.03236 0.96817 0.0
N663 N 0.65247 0.09148 0.82885 0.0
C664 C 0.58247 0.04139 0.92841 0.0
C665 C 0.63105 0.07257 0.85621 0.0
N666 N 0.61265 0.02735 0.02904 0.0
N667 N 0.60439 0.07735 0.74261 0.0
H668 H 0.67115 0.09584 0.858 0.0
H669 H 0.65062 0.10436 0.78112 0.0
H670 H 0.58521 0.07654 0.71359 0.0
H671 H 0.62257 0.0866 0.71022 0.0
H672 H 0.59634 0.01339 0.0529 0.0
H673 H 0.63237 0.02673 0.05616 0.0
H674 H 0.55481 0.02779 0.02655 0.0
H675 H 0.53635 0.0328 0.94335 0.0
C676 C 0.49195 0.57409 0.00253 0.0
C677 C 0.48298 0.59948 0.97527 0.0
C678 C 0.47535 0.58252 0.85192 0.0
C679 C 0.48325 0.55683 0.88036 0.0
N680 N 0.48925 0.52663 0.98913 0.0
N681 N 0.45782 0.62559 0.88271 0.0
C682 C 0.48812 0.55213 0.95804 0.0
C683 C 0.47175 0.60287 0.90285 0.0
N684 N 0.50611 0.57115 0.06799 0.0
N685 N 0.47357 0.58834 0.77602 0.0
H686 H 0.45466 0.64075 0.91928 0.0
H687 H 0.44681 0.62809 0.83323 0.0
H688 H 0.47697 0.57466 0.73536 0.0
H689 H 0.47143 0.60763 0.7524 0.0
H690 H 0.51587 0.55357 0.08542 0.0
H691 H 0.51077 0.58683 0.10119 0.0
H692 H 0.49023 0.522 0.04704 0.0
H693 H 0.48589 0.51008 0.95808 0.0
C694 C 0.94029 0.39882 0.94104 0.0
C695 C 0.93713 0.40919 0.01316 0.0
C696 C 0.9824 0.43723 0.98104 0.0
C697 C 0.98085 0.43192 0.90426 0.0
N698 N 0.95772 0.40768 0.80927 0.0
N699 N 0.95459 0.44006 0.10104 0.0
C700 C 0.96017 0.41218 0.88365 0.0
C701 C 0.95845 0.42841 0.03396 0.0
N702 N 0.92367 0.37665 0.92732 0.0
N703 N 0.00653 0.45127 0.00268 0.0
H704 H 0.93707 0.43497 0.14148 0.0
H705 H 0.9676 0.45645 0.1141 0.0
H706 H 0.02444 0.45785 0.96445 0.0
H707 H 0.01011 0.45386 0.05911 0.0
H708 H 0.92665 0.36682 0.87779 0.0
H709 H 0.90897 0.36666 0.96902 0.0
H710 H 0.94048 0.39598 0.79085 0.0
H711 H 0.97165 0.41699 0.76508 0.0
C712 C 0.11713 0.14661 0.87749 0.0
C713 C 0.11907 0.14645 0.95674 0.0
C714 C 0.10844 0.09816 0.97129 0.0
C715 C 0.1047 0.09856 0.89256 0.0
N716 N 0.11255 0.1208 0.76778 0.0
N717 N 0.12408 0.12326 0.07585 0.0
C718 C 0.11154 0.1221 0.84459 0.0
C719 C 0.11751 0.12222 0.00236 0.0
N720 N 0.11967 0.17032 0.83467 0.0
N721 N 0.10135 0.07533 0.01649 0.0
H722 H 0.12525 0.10673 0.11418 0.0
H723 H 0.12525 0.10673 0.11418 0.0
H724 H 0.09537 0.05728 0.99504 0.0
H725 H 0.09977 0.0743 0.07533 0.0
H726 H 0.11523 0.17248 0.77789 0.0
H727 H 0.12543 0.18824 0.8573 0.0
H728 H 0.11946 0.13668 0.729 0.0
H729 H 0.10868 0.10298 0.74262 0.0
C730 C 0.39283 0.01653 0.88836 0.0
C731 C 0.39282 0.00926 0.96695 0.0
C732 C 0.44705 0.00518 0.95301 0.0
C733 C 0.44683 0.00994 0.87307 0.0
N734 N 0.4179 0.01481 0.76355 0.0
N735 N 0.41901 0.99188 0.07218 0.0
C736 C 0.41929 0.01433 0.84033 0.0
C737 C 0.41969 0.0022 0.99866 0.0
N738 N 0.36762 0.02588 0.85968 0.0
N739 N 0.47346 0.00461 0.98611 0.0
H740 H 0.39958 0.98957 0.10804 0.0
H741 H 0.43723 0.9834 0.09572 0.0
H742 H 0.494 0.00707 0.95533 0.0
H743 H 0.47506 0.00431 0.04441 0.0
H744 H 0.36706 0.03435 0.80459 0.0
H745 H 0.34776 0.02715 0.89296 0.0
H746 H 0.398 0.01515 0.73724 0.0
H747 H 0.43617 0.01206 0.72606 0.0
C748 C 0.46085 0.40623 0.96421 0.0
C749 C 0.472 0.38335 0.93152 0.0
C750 C 0.47976 0.40838 0.80778 0.0
C751 C 0.47416 0.43211 0.8438 0.0
N752 N 0.45644 0.45433 0.95233 0.0
N753 N 0.49003 0.36135 0.82255 0.0
C754 C 0.46324 0.43115 0.92069 0.0
C755 C 0.48025 0.38391 0.85285 0.0
N756 N 0.44858 0.40407 0.03722 0.0
N757 N 0.48502 0.40949 0.73079 0.0
H758 H 0.48924 0.34296 0.85385 0.0
H759 H 0.49975 0.36087 0.76773 0.0
H760 H 0.48485 0.42725 0.69689 0.0
H761 H 0.48729 0.39281 0.69981 0.0
H762 H 0.43811 0.4194 0.06327 0.0
H763 H 0.44693 0.38611 0.07058 0.0
H764 H 0.45171 0.45591 0.01002 0.0
H765 H 0.45618 0.47243 0.91997 0.0
C766 C 0.13089 0.49303 0.9593 0.0
C767 C 0.14868 0.51612 0.93191 0.0
C768 C 0.11895 0.52208 0.82291 0.0
C769 C 0.10118 0.49894 0.84959 0.0
N770 N 0.09424 0.45888 0.93234 0.0
N771 N 0.16571 0.54717 0.82729 0.0
C772 C 0.1087 0.48308 0.91392 0.0
C773 C 0.14483 0.52862 0.85969 0.0
N774 N 0.13379 0.48169 0.03045 0.0
N775 N 0.11016 0.53879 0.76558 0.0
H776 H 0.18495 0.55219 0.85355 0.0
H777 H 0.16547 0.55539 0.77182 0.0
H778 H 0.0908 0.53521 0.73869 0.0
H779 H 0.1206 0.55734 0.74925 0.0
H780 H 0.11909 0.46689 0.05709 0.0
H781 H 0.14998 0.48817 0.06489 0.0
H782 H 0.10045 0.44533 0.97473 0.0
H783 H 0.07757 0.45142 0.90069 0.0
C784 C 0.9092 0.85151 0.51775 0.0
C785 C 0.91874 0.84923 0.44074 0.0
C786 C 0.94671 0.89214 0.4366 0.0
C787 C 0.94013 0.89287 0.51558 0.0
N788 N 0.91713 0.87278 0.63382 0.0
N789 N 0.95037 0.86512 0.32939 0.0
C790 C 0.92173 0.8725 0.55692 0.0
C791 C 0.9384 0.86901 0.40063 0.0
N792 N 0.88792 0.83384 0.55282 0.0
N793 N 0.96068 0.91373 0.39583 0.0
H794 H 0.94528 0.84838 0.30059 0.0
H795 H 0.96743 0.87733 0.30115 0.0
H796 H 0.96736 0.93098 0.42051 0.0
H797 H 0.96317 0.91556 0.33688 0.0
H798 H 0.87782 0.83586 0.60659 0.0
H799 H 0.8787 0.81812 0.52562 0.0
H800 H 0.90675 0.85706 0.66842 0.0
H801 H 0.92531 0.88822 0.66386 0.0
C802 C 0.64459 0.01709 0.49769 0.0
C803 C 0.65429 0.99233 0.47372 0.0
C804 C 0.61115 0.96951 0.54777 0.0
C805 C 0.60313 0.99401 0.57714 0.0
N806 N 0.61804 0.03954 0.59578 0.0
N807 N 0.6503 0.94438 0.48949 0.0
C808 C 0.62159 0.01733 0.55675 0.0
C809 C 0.63865 0.96833 0.5032 0.0
N810 N 0.65613 0.04053 0.46175 0.0
N811 N 0.59188 0.9477 0.55857 0.0
H812 H 0.67055 0.94285 0.45813 0.0
H813 H 0.64142 0.9263 0.51539 0.0
H814 H 0.57102 0.94791 0.58781 0.0
H815 H 0.59531 0.93017 0.53195 0.0
H816 H 0.64745 0.05892 0.47193 0.0
H817 H 0.67229 0.04153 0.4165 0.0
H818 H 0.63272 0.05619 0.58792 0.0
H819 H 0.60261 0.04006 0.64211 0.0
C820 C 0.55764 0.61932 0.59916 0.0
C821 C 0.56223 0.61848 0.5196 0.0
C822 C 0.56745 0.57015 0.53452 0.0
C823 C 0.55726 0.57051 0.61157 0.0
N824 N 0.54433 0.59475 0.7205 0.0
N825 N 0.57227 0.59359 0.40992 0.0
C826 C 0.55343 0.59498 0.64531 0.0
C827 C 0.56801 0.59407 0.48687 0.0
N828 N 0.55704 0.64344 0.62986 0.0
N829 N 0.5765 0.54683 0.50744 0.0
H830 H 0.57376 0.61079 0.3733 0.0
H831 H 0.57288 0.57614 0.38185 0.0
H832 H 0.57664 0.52925 0.54226 0.0
H833 H 0.58643 0.54538 0.45319 0.0
H834 H 0.55601 0.64575 0.68777 0.0
H835 H 0.56005 0.66143 0.59665 0.0
H836 H 0.53775 0.61153 0.7472 0.0
H837 H 0.54229 0.57731 0.75617 0.0
C838 C 0.88983 0.46681 0.62889 0.0
C839 C 0.89167 0.47124 0.54888 0.0
C840 C 0.9422 0.4912 0.55047 0.0
C841 C 0.94172 0.48356 0.62887 0.0
N842 N 0.9163 0.46263 0.74325 0.0
N843 N 0.92027 0.48552 0.43168 0.0
C844 C 0.91574 0.47122 0.66856 0.0
C845 C 0.91794 0.48314 0.50916 0.0
N846 N 0.86321 0.45859 0.66669 0.0
N847 N 0.96574 0.5065 0.51587 0.0
H848 H 0.9029 0.48033 0.39904 0.0
H849 H 0.94005 0.49092 0.39935 0.0
H850 H 0.98393 0.51261 0.54461 0.0
H851 H 0.96612 0.5151 0.4607 0.0
H852 H 0.85952 0.45736 0.72542 0.0
H853 H 0.84397 0.4551 0.63886 0.0
H854 H 0.89941 0.4507 0.77321 0.0
H855 H 0.93464 0.46602 0.77448 0.0
loop_
_geom_bond_atom_site_label_1
_geom_bond_atom_site_label_2
_geom_bond_distance
_geom_bond_site_symmetry_2
_ccdc_geom_bond_type
C0 C1 1.384 . S
C0 H13 0.947 . S
C0 C35 1.382 . S
C1 C0 1.384 . S
C1 C2 1.378 . S
C2 C1 1.378 . S
C2 C3 1.378 . S
C2 H14 0.952 . S
C3 C2 1.378 . S
C3 H15 0.950 . S
C3 C34 1.383 . S
H4 C23 0.947 . S
H5 C24 0.946 . S
H6 C26 0.953 1_556 S
H7 C27 0.945 . S
H8 C29 0.952 . S
H9 C30 0.949 . S
H10 C32 0.950 . S
H11 C33 0.948 . S
H12 C35 0.951 . S
H13 C0 0.947 . S
H14 C2 0.952 . S
H15 C3 0.950 . S
N16 C19 1.382 . S
N16 C21 1.363 . S
N17 C19 1.371 . S
N17 C20 1.372 . S
N18 C20 1.361 . S
N18 C21 1.377 . S
C19 N16 1.382 . S
C19 N17 1.371 . S
C19 C22 1.480 . S
C20 N17 1.372 . S
C20 N18 1.361 . S
C20 C28 1.457 . S
C21 N16 1.363 . S
C21 N18 1.377 . S
C21 C34 1.479 . S
C22 C19 1.480 . S
C22 C23 1.383 . S
C22 C27 1.385 . S
C23 H4 0.947 . S
C23 C22 1.383 . S
C23 C24 1.388 . S
C24 H5 0.946 . S
C24 C23 1.388 . S
C24 C25 1.384 . S
C25 C24 1.384 . S
C25 C26 1.377 . S
C26 H6 0.953 1_554 S
C26 C25 1.377 . S
C26 C27 1.369 . S
C27 H7 0.945 . S
C27 C22 1.385 . S
C27 C26 1.369 . S
C28 C20 1.457 . S
C28 C29 1.372 1_554 S
C28 C33 1.364 . S
C29 H8 0.952 . S
C29 C28 1.372 1_556 S
C29 C30 1.389 . S
C30 H9 0.949 . S
C30 C29 1.389 . S
C30 C31 1.387 . S
C31 C30 1.387 . S
C31 C32 1.372 1_556 S
C32 H10 0.950 . S
C32 C31 1.372 1_554 S
C32 C33 1.379 . S
C33 H11 0.948 . S
C33 C28 1.364 . S
C33 C32 1.379 . S
C34 C3 1.383 . S
C34 C21 1.479 . S
C34 C35 1.398 . S
C35 C0 1.382 . S
C35 H12 0.951 . S
C35 C34 1.398 . S
C36 C37 1.384 . S
C36 H49 0.947 . S
C36 C71 1.382 . S
C37 C36 1.384 . S
C37 C38 1.378 . S
C38 C37 1.378 . S
C38 C39 1.378 . S
C38 H50 0.952 . S
C39 C38 1.378 . S
C39 H51 0.950 . S
C39 C70 1.383 . S
H40 C59 0.947 . S
H41 C60 0.946 . S
H42 C62 0.953 . S
H43 C63 0.945 . S
H44 C65 0.952 . S
H45 C66 0.949 . S
H46 C68 0.950 . S
H47 C69 0.948 . S
H48 C71 0.951 . S
H49 C36 0.947 . S
H50 C38 0.952 . S
H51 C39 0.950 . S
N52 C55 1.382 1_554 S
N52 C57 1.363 . S
N53 C55 1.371 . S
N53 C56 1.372 . S
N54 C56 1.361 1_554 S
N54 C57 1.377 . S
C55 N52 1.382 1_556 S
C55 N53 1.371 . S
C55 C58 1.480 . S
C56 N53 1.372 . S
C56 N54 1.361 1_556 S
C56 C64 1.457 . S
C57 N52 1.363 . S
C57 N54 1.377 . S
C57 C70 1.479 . S
C58 C55 1.480 . S
C58 C59 1.383 1_556 S
C58 C63 1.385 . S
C59 H40 0.947 . S
C59 C58 1.383 1_554 S
C59 C60 1.388 . S
C60 H41 0.946 . S
C60 C59 1.388 . S
C60 C61 1.384 1_554 S
C61 C60 1.384 1_556 S
C61 C62 1.377 . S
C62 H42 0.953 . S
C62 C61 1.377 . S
C62 C63 1.369 . S
C63 H43 0.945 . S
C63 C58 1.385 . S
C63 C62 1.369 . S
C64 C56 1.457 . S
C64 C65 1.372 . S
C64 C69 1.364 . S
C65 H44 0.952 . S
C65 C64 1.372 . S
C65 C66 1.389 . S
C66 H45 0.949 . S
C66 C65 1.389 . S
C66 C67 1.387 . S
C67 C66 1.387 . S
C67 C68 1.372 . S
C68 H46 0.950 . S
C68 C67 1.372 . S
C68 C69 1.379 . S
C69 H47 0.948 . S
C69 C64 1.364 . S
C69 C68 1.379 . S
C70 C39 1.383 . S
C70 C57 1.479 . S
C70 C71 1.398 . S
C71 C36 1.382 . S
C71 H48 0.951 . S
C71 C70 1.398 . S
C72 C73 1.383 1_565 S
C72 H85 0.947 . S
C72 C107 1.382 1_565 S
C73 C72 1.383 1_545 S
C73 C74 1.378 . S
C74 C73 1.378 . S
C74 C75 1.378 . S
C74 H86 0.952 . S
C75 C74 1.378 . S
C75 H87 0.950 . S
C75 C106 1.383 . S
H76 C95 0.947 . S
H77 C96 0.951 . S
H78 C98 0.953 . S
H79 C99 0.945 . S
H80 C101 0.947 1_565 S
H81 C102 0.960 . S
H82 C104 0.950 . S
H83 C105 0.948 . S
H84 C107 0.951 1_565 S
H85 C72 0.947 . S
H86 C74 0.952 . S
H87 C75 0.950 . S
N88 C91 1.382 . S
N88 C93 1.363 . S
N89 C91 1.371 . S
N89 C92 1.372 . S
N90 C92 1.361 . S
N90 C93 1.377 . S
C91 N88 1.382 . S
C91 N89 1.371 . S
C91 C94 1.480 . S
C92 N89 1.372 . S
C92 N90 1.361 . S
C92 C100 1.457 1_554 S
C93 N88 1.363 . S
C93 N90 1.377 . S
C93 C106 1.479 . S
C94 C91 1.480 . S
C94 C95 1.383 . S
C94 C99 1.385 1_554 S
C95 H76 0.947 . S
C95 C94 1.383 . S
C95 C96 1.384 1_545 S
C96 H77 0.951 . S
C96 C95 1.384 1_565 S
C96 C97 1.384 1_565 S
C97 C96 1.384 1_545 S
C97 C98 1.377 1_554 S
C98 H78 0.953 . S
C98 C97 1.377 1_556 S
C98 C99 1.369 . S
C99 H79 0.945 . S
C99 C94 1.385 1_556 S
C99 C98 1.369 . S
C100 C92 1.457 1_556 S
C100 C101 1.378 . S
C100 C105 1.364 1_556 S
C101 H80 0.947 1_545 S
C101 C100 1.378 . S
C101 C102 1.385 1_545 S
C102 H81 0.960 . S
C102 C101 1.385 1_565 S
C102 C103 1.380 1_565 S
C103 C102 1.380 1_545 S
C103 C104 1.372 . S
C104 H82 0.950 . S
C104 C103 1.372 . S
C104 C105 1.379 1_556 S
C105 H83 0.948 . S
C105 C100 1.364 1_554 S
C105 C104 1.379 1_554 S
C106 C75 1.383 . S
C106 C93 1.479 . S
C106 C107 1.398 . S
C107 C72 1.382 1_545 S
C107 H84 0.951 1_545 S
C107 C106 1.398 . S
C108 C109 1.384 . S
C108 H121 0.947 . S
C108 C143 1.382 1_556 S
C109 C108 1.384 . S
C109 C110 1.378 . S
C110 C109 1.378 . S
C110 C111 1.378 . S
C110 H122 0.952 . S
C111 C110 1.378 . S
C111 H123 0.950 . S
C111 C142 1.383 . S
H112 C131 0.947 1_556 S
H113 C132 0.946 . S
H114 C134 0.953 . S
H115 C135 0.945 . S
H116 C137 0.952 . S
H117 C138 0.949 . S
H118 C140 0.950 . S
H119 C141 0.948 . S
H120 C143 0.951 . S
H121 C108 0.947 . S
H122 C110 0.952 . S
H123 C111 0.950 . S
N124 C127 1.382 . S
N124 C129 1.363 . S
N125 C127 1.371 . S
N125 C128 1.372 . S
N126 C128 1.361 . S
N126 C129 1.377 . S
C127 N124 1.382 . S
C127 N125 1.371 . S
C127 C130 1.480 . S
C128 N125 1.372 . S
C128 N126 1.361 . S
C128 C136 1.457 . S
C129 N124 1.363 . S
C129 N126 1.377 . S
C129 C142 1.479 1_554 S
C130 C127 1.480 . S
C130 C131 1.383 . S
C130 C135 1.385 . S
C131 H112 0.947 1_554 S
C131 C130 1.383 . S
C131 C132 1.388 1_554 S
C132 H113 0.946 . S
C132 C131 1.388 1_556 S
C132 C133 1.384 1_556 S
C133 C132 1.384 1_554 S
C133 C134 1.377 . S
C134 H114 0.953 . S
C134 C133 1.377 . S
C134 C135 1.369 . S
C135 H115 0.945 . S
C135 C130 1.385 . S
C135 C134 1.369 . S
C136 C128 1.457 . S
C136 C137 1.372 . S
C136 C141 1.364 . S
C137 H116 0.952 . S
C137 C136 1.372 . S
C137 C138 1.389 . S
C138 H117 0.949 . S
C138 C137 1.389 . S
C138 C139 1.387 . S
C139 C138 1.387 . S
C139 C140 1.372 . S
C140 H118 0.950 . S
C140 C139 1.372 . S
C140 C141 1.379 . S
C141 H119 0.948 . S
C141 C136 1.364 . S
C141 C140 1.379 . S
C142 C111 1.383 . S
C142 C129 1.479 1_556 S
C142 C143 1.398 1_556 S
C143 C108 1.382 1_554 S
C143 H120 0.951 . S
C143 C142 1.398 1_554 S
C144 C145 1.384 1_554 S
C144 H157 0.947 . S
C144 C179 1.382 . S
C145 C144 1.384 1_556 S
C145 C146 1.378 . S
C146 C145 1.378 . S
C146 C147 1.378 1_556 S
C146 H158 0.952 . S
C147 C146 1.378 1_554 S
C147 H159 0.950 . S
C147 C178 1.383 . S
H148 C167 0.947 . S
H149 C168 0.946 . S
H150 C170 0.953 . S
H151 C171 0.945 . S
H152 C173 0.952 . S
H153 C174 0.949 . S
H154 C176 0.950 . S
H155 C177 0.948 . S
H156 C179 0.951 . S
H157 C144 0.947 . S
H158 C146 0.952 . S
H159 C147 0.950 . S
N160 C163 1.382 . S
N160 C165 1.363 . S
N161 C163 1.371 . S
N161 C164 1.372 . S
N162 C164 1.361 . S
N162 C165 1.377 . S
C163 N160 1.382 . S
C163 N161 1.371 . S
C163 C166 1.480 . S
C164 N161 1.372 . S
C164 N162 1.361 . S
C164 C172 1.457 . S
C165 N160 1.363 . S
C165 N162 1.377 . S
C165 C178 1.479 . S
C166 C163 1.480 . S
C166 C167 1.383 . S
C166 C171 1.385 . S
C167 H148 0.947 . S
C167 C166 1.383 . S
C167 C168 1.388 . S
C168 H149 0.946 . S
C168 C167 1.388 . S
C168 C169 1.384 . S
C169 C168 1.384 . S
C169 C170 1.377 . S
C170 H150 0.953 . S
C170 C169 1.377 . S
C170 C171 1.369 . S
C171 H151 0.945 . S
C171 C166 1.385 . S
C171 C170 1.369 . S
C172 C164 1.457 . S
C172 C173 1.372 . S
C172 C177 1.364 . S
C173 H152 0.952 . S
C173 C172 1.372 . S
C173 C174 1.389 . S
C174 H153 0.949 . S
C174 C173 1.389 . S
C174 C175 1.387 . S
C175 C174 1.387 . S
C175 C176 1.372 . S
C176 H154 0.950 . S
C176 C175 1.372 . S
C176 C177 1.379 . S
C177 H155 0.948 . S
C177 C172 1.364 . S
C177 C176 1.379 . S
C178 C147 1.383 . S
C178 C165 1.479 . S
C178 C179 1.398 . S
C179 C144 1.382 . S
C179 H156 0.951 . S
C179 C178 1.398 . S
C180 C181 1.384 . S
C180 H193 0.947 . S
C180 C215 1.382 . S
C181 C180 1.384 . S
C181 C182 1.378 . S
C182 C181 1.378 . S
C182 C183 1.378 . S
C182 H194 0.952 . S
C183 C182 1.378 . S
C183 H195 0.950 . S
C183 C214 1.383 . S
H184 C203 0.947 . S
H185 C204 0.946 . S
H186 C206 0.953 . S
H187 C207 0.945 . S
H188 C209 0.952 . S
H189 C210 0.949 . S
H190 C212 0.950 . S
H191 C213 0.948 . S
H192 C215 0.951 . S
H193 C180 0.947 . S
H194 C182 0.952 . S
H195 C183 0.950 . S
N196 C199 1.382 . S
N196 C201 1.363 . S
N197 C199 1.371 . S
N197 C200 1.372 . S
N198 C200 1.361 . S
N198 C201 1.377 . S
C199 N196 1.382 . S
C199 N197 1.371 . S
C199 C202 1.480 . S
C200 N197 1.372 . S
C200 N198 1.361 . S
C200 C208 1.457 . S
C201 N196 1.363 . S
C201 N198 1.377 . S
C201 C214 1.479 . S
C202 C199 1.480 . S
C202 C203 1.383 . S
C202 C207 1.385 . S
C203 H184 0.947 . S
C203 C202 1.383 . S
C203 C204 1.388 . S
C204 H185 0.946 . S
C204 C203 1.388 . S
C204 C205 1.384 . S
C205 C204 1.384 . S
C205 C206 1.377 . S
C206 H186 0.953 . S
C206 C205 1.377 . S
C206 C207 1.369 . S
C207 H187 0.945 . S
C207 C202 1.385 . S
C207 C206 1.369 . S
C208 C200 1.457 . S
C208 C209 1.372 . S
C208 C213 1.364 . S
C209 H188 0.952 . S
C209 C208 1.372 . S
C209 C210 1.389 . S
C210 H189 0.949 . S
C210 C209 1.389 . S
C210 C211 1.387 . S
C211 C210 1.387 . S
C211 C212 1.372 . S
C212 H190 0.950 . S
C212 C211 1.372 . S
C212 C213 1.379 . S
C213 H191 0.948 . S
C213 C208 1.364 . S
C213 C212 1.379 . S
C214 C183 1.383 . S
C214 C201 1.479 . S
C214 C215 1.398 . S
C215 C180 1.382 . S
C215 H192 0.951 . S
C215 C214 1.398 . S
C216 C217 1.384 1_565 S
C216 H229 0.947 . S
C216 C251 1.381 1_565 S
C217 C216 1.384 1_545 S
C217 C218 1.378 . S
C218 C217 1.378 . S
C218 C219 1.378 . S
C218 H230 0.952 . S
C219 C218 1.378 . S
C219 H231 0.950 . S
C219 C250 1.383 . S
H220 C239 0.947 . S
H221 C240 0.950 . S
H222 C242 0.953 . S
H223 C243 0.945 . S
H224 C245 0.949 1_565 S
H225 C246 0.952 . S
H226 C248 0.950 . S
H227 C249 0.948 . S
H228 C251 0.950 1_565 S
H229 C216 0.947 . S
H230 C218 0.952 . S
H231 C219 0.950 . S
N232 C235 1.382 . S
N232 C237 1.363 . S
N233 C235 1.371 . S
N233 C236 1.372 . S
N234 C236 1.361 . S
N234 C237 1.377 . S
C235 N232 1.382 . S
C235 N233 1.371 . S
C235 C238 1.480 . S
C236 N233 1.372 . S
C236 N234 1.361 . S
C236 C244 1.457 . S
C237 N232 1.363 . S
C237 N234 1.377 . S
C237 C250 1.479 . S
C238 C235 1.480 . S
C238 C239 1.383 . S
C238 C243 1.385 . S
C239 H220 0.947 . S
C239 C238 1.383 . S
C239 C240 1.388 1_545 S
C240 H221 0.950 . S
C240 C239 1.388 1_565 S
C240 C241 1.381 1_565 S
C241 C240 1.381 1_545 S
C241 C242 1.377 . S
C242 H222 0.953 . S
C242 C241 1.377 . S
C242 C243 1.369 . S
C243 H223 0.945 . S
C243 C238 1.385 . S
C243 C242 1.369 . S
C244 C236 1.457 . S
C244 C245 1.376 . S
C244 C249 1.364 . S
C245 H224 0.949 1_545 S
C245 C244 1.376 . S
C245 C246 1.388 1_545 S
C246 H225 0.952 . S
C246 C245 1.388 1_565 S
C246 C247 1.386 1_565 S
C247 C246 1.386 1_545 S
C247 C248 1.372 . S
C248 H226 0.950 . S
C248 C247 1.372 . S
C248 C249 1.379 . S
C249 H227 0.948 . S
C249 C244 1.364 . S
C249 C248 1.379 . S
C250 C219 1.383 . S
C250 C237 1.479 . S
C250 C251 1.400 . S
C251 C216 1.381 1_545 S
C251 H228 0.950 1_545 S
C251 C250 1.400 . S
C252 C253 1.384 . S
C252 H265 0.947 . S
C252 C287 1.382 . S
C253 C252 1.384 . S
C253 C254 1.378 . S
C254 C253 1.378 . S
C254 C255 1.378 . S
C254 H266 0.952 . S
C255 C254 1.378 . S
C255 H267 0.950 . S
C255 C286 1.383 . S
H256 C275 0.947 . S
H257 C276 0.946 . S
H258 C278 0.953 . S
H259 C279 0.945 . S
H260 C281 0.952 . S
H261 C282 0.949 . S
H262 C284 0.950 . S
H263 C285 0.948 . S
H264 C287 0.951 . S
H265 C252 0.947 . S
H266 C254 0.952 . S
H267 C255 0.950 . S
N268 C271 1.382 . S
N268 C273 1.363 . S
N269 C271 1.371 . S
N269 C272 1.372 . S
N270 C272 1.361 . S
N270 C273 1.377 . S
C271 N268 1.382 . S
C271 N269 1.371 . S
C271 C274 1.480 . S
C272 N269 1.372 . S
C272 N270 1.361 . S
C272 C280 1.457 . S
C273 N268 1.363 . S
C273 N270 1.377 . S
C273 C286 1.479 . S
C274 C271 1.480 . S
C274 C275 1.383 . S
C274 C279 1.385 . S
C275 H256 0.947 . S
C275 C274 1.383 . S
C275 C276 1.388 . S
C276 H257 0.946 . S
C276 C275 1.388 . S
C276 C277 1.384 . S
C277 C276 1.384 . S
C277 C278 1.377 . S
C278 H258 0.953 . S
C278 C277 1.377 . S
C278 C279 1.369 . S
C279 H259 0.945 . S
C279 C274 1.385 . S
C279 C278 1.369 . S
C280 C272 1.457 . S
C280 C281 1.372 . S
C280 C285 1.364 . S
C281 H260 0.952 . S
C281 C280 1.372 . S
C281 C282 1.389 . S
C282 H261 0.949 . S
C282 C281 1.389 . S
C282 C283 1.387 . S
C283 C282 1.387 . S
C283 C284 1.372 . S
C284 H262 0.950 . S
C284 C283 1.372 . S
C284 C285 1.379 . S
C285 H263 0.948 . S
C285 C280 1.364 . S
C285 C284 1.379 . S
C286 C255 1.383 . S
C286 C273 1.479 . S
C286 C287 1.398 . S
C287 C252 1.382 . S
C287 H264 0.951 . S
C287 C286 1.398 . S
C288 O304 1.251 1_455 S
C288 O306 1.254 . S
N289 C290 1.333 . S
N289 C294 1.307 . S
N289 Zn295 2.020 1_655 S
C290 N289 1.333 . S
C290 C291 1.379 . S
C290 H308 0.952 . S
C291 C290 1.379 . S
C291 C292 1.390 . S
C291 H318 0.949 . S
C292 C291 1.390 . S
C292 C293 1.357 . S
C293 C292 1.357 . S
C293 C294 1.370 . S
C293 H319 0.950 . S
C294 N289 1.307 . S
C294 C293 1.370 . S
C294 H312 0.948 1_565 S
Zn295 N289 2.020 1_455 S
Zn295 O304 2.039 1_455 S
Zn295 O310 2.034 . S
Zn295 O314 2.025 1_565 S
Zn295 O316 2.022 1_465 S
C296 O315 1.246 . S
C296 O316 1.253 . S
N297 C298 1.307 . S
N297 C299 1.333 . S
N297 Zn303 2.020 . S
C298 N297 1.307 . S
C298 C302 1.370 1_556 S
C298 H309 0.948 1_545 S
C299 N297 1.333 . S
C299 C300 1.379 . S
C299 H307 0.952 . S
C300 C299 1.379 . S
C300 C301 1.390 1_556 S
C300 H320 0.949 . S
C301 C300 1.390 1_554 S
C301 C302 1.357 . S
C302 C298 1.370 1_554 S
C302 C301 1.357 . S
C302 H321 0.950 . S
Zn303 N297 2.020 . S
Zn303 O306 2.025 1_545 S
Zn303 O311 2.025 1_545 S
Zn303 O313 2.039 . S
Zn303 O315 2.034 1_455 S
O304 C288 1.251 1_655 S
O304 Zn295 2.039 1_655 S
C305 O310 1.246 . S
C305 O311 1.249 . S
O306 C288 1.254 . S
O306 Zn303 2.025 1_565 S
H307 C299 0.952 . S
H308 C290 0.952 . S
H309 C298 0.948 1_565 S
O310 Zn295 2.034 . S
O310 C305 1.246 . S
O311 Zn303 2.025 1_565 S
O311 C305 1.249 . S
H312 C294 0.948 1_545 S
O313 Zn303 2.039 . S
O313 C317 1.251 . S
O314 Zn295 2.025 1_545 S
O314 C317 1.254 . S
O315 C296 1.246 . S
O315 Zn303 2.034 1_655 S
O316 Zn295 2.022 1_645 S
O316 C296 1.253 . S
C317 O313 1.251 . S
C317 O314 1.254 . S
H318 C291 0.949 . S
H319 C293 0.950 . S
H320 C300 0.949 . S
H321 C302 0.950 . S
C322 O338 1.251 1_565 S
C322 O340 1.254 . S
N323 C324 1.333 . S
N323 C328 1.307 . S
N323 Zn329 2.020 . S
C324 N323 1.333 . S
C324 C325 1.379 . S
C324 H342 0.952 . S
C325 C324 1.379 . S
C325 C326 1.390 . S
C325 H352 0.949 . S
C326 C325 1.390 . S
C326 C327 1.357 . S
C327 C326 1.357 . S
C327 C328 1.370 . S
C327 H353 0.950 . S
C328 N323 1.307 . S
C328 C327 1.370 . S
C328 H346 0.948 . S
Zn329 N323 2.020 . S
Zn329 O338 2.039 . S
Zn329 O344 2.034 . S
Zn329 O348 2.025 . S
Zn329 O350 2.024 . S
C330 O349 1.246 1_545 S
C330 O350 1.249 . S
N331 C332 1.307 . S
N331 C333 1.333 . S
N331 Zn337 2.020 . S
C332 N331 1.307 . S
C332 C336 1.370 . S
C332 H343 0.948 . S
C333 N331 1.333 . S
C333 C334 1.379 . S
C333 H341 0.952 . S
C334 C333 1.379 . S
C334 C335 1.390 . S
C334 H354 0.949 . S
C335 C334 1.390 . S
C335 C336 1.357 . S
C336 C332 1.370 . S
C336 C335 1.357 . S
C336 H355 0.950 . S
Zn337 N331 2.020 . S
Zn337 O340 2.025 . S
Zn337 O345 2.024 . S
Zn337 O347 2.039 . S
Zn337 O349 2.034 . S
O338 C322 1.251 1_545 S
O338 Zn329 2.039 . S
C339 O344 1.246 1_565 S
C339 O345 1.249 . S
O340 C322 1.254 . S
O340 Zn337 2.025 . S
H341 C333 0.952 . S
H342 C324 0.952 . S
H343 C332 0.948 . S
O344 Zn329 2.034 . S
O344 C339 1.246 1_545 S
O345 Zn337 2.024 . S
O345 C339 1.249 . S
H346 C328 0.948 . S
O347 Zn337 2.039 . S
O347 C351 1.251 1_565 S
O348 Zn329 2.025 . S
O348 C351 1.254 . S
O349 C330 1.246 1_565 S
O349 Zn337 2.034 . S
O350 Zn329 2.024 . S
O350 C330 1.249 . S
C351 O347 1.251 1_545 S
C351 O348 1.254 . S
H352 C325 0.949 . S
H353 C327 0.950 . S
H354 C334 0.949 . S
H355 C336 0.950 . S
C356 O372 1.251 . S
C356 O374 1.254 . S
N357 C358 1.333 . S
N357 C362 1.307 . S
N357 Zn363 2.020 . S
C358 N357 1.333 . S
C358 C359 1.379 . S
C358 H376 0.952 . S
C359 C358 1.379 . S
C359 C360 1.390 . S
C359 H386 0.949 . S
C360 C359 1.390 . S
C360 C361 1.357 . S
C361 C360 1.357 . S
C361 C362 1.370 . S
C361 H387 0.950 . S
C362 N357 1.307 . S
C362 C361 1.370 . S
C362 H380 0.948 . S
Zn363 N357 2.020 . S
Zn363 O372 2.039 . S
Zn363 O378 2.034 . S
Zn363 O382 2.025 . S
Zn363 O384 2.024 . S
C364 O383 1.246 . S
C364 O384 1.249 . S
N365 C366 1.307 . S
N365 C367 1.333 . S
N365 Zn371 2.020 . S
C366 N365 1.307 . S
C366 C370 1.370 . S
C366 H377 0.948 . S
C367 N365 1.333 . S
C367 C368 1.379 . S
C367 H375 0.952 . S
C368 C367 1.379 . S
C368 C369 1.390 . S
C368 H388 0.949 . S
C369 C368 1.390 . S
C369 C370 1.357 . S
C370 C366 1.370 . S
C370 C369 1.357 . S
C370 H389 0.950 . S
Zn371 N365 2.020 . S
Zn371 O374 2.025 . S
Zn371 O379 2.024 . S
Zn371 O381 2.039 . S
Zn371 O383 2.034 . S
O372 C356 1.251 . S
O372 Zn363 2.039 . S
C373 O378 1.246 . S
C373 O379 1.249 . S
O374 C356 1.254 . S
O374 Zn371 2.025 . S
H375 C367 0.952 . S
H376 C358 0.952 . S
H377 C366 0.948 . S
O378 Zn363 2.034 . S
O378 C373 1.246 . S
O379 Zn371 2.024 . S
O379 C373 1.249 . S
H380 C362 0.948 . S
O381 Zn371 2.039 . S
O381 C385 1.251 . S
O382 Zn363 2.025 . S
O382 C385 1.254 . S
O383 C364 1.246 . S
O383 Zn371 2.034 . S
O384 Zn363 2.024 . S
O384 C364 1.249 . S
C385 O381 1.251 . S
C385 O382 1.254 . S
H386 C359 0.949 . S
H387 C361 0.950 . S
H388 C368 0.949 . S
H389 C370 0.950 . S
C390 O406 1.251 . S
C390 O408 1.254 . S
N391 C392 1.333 . S
N391 C396 1.307 . S
N391 Zn397 2.020 . S
C392 N391 1.333 . S
C392 C393 1.379 . S
C392 H410 0.952 . S
C393 C392 1.379 . S
C393 C394 1.390 . S
C393 H420 0.949 . S
C394 C393 1.390 . S
C394 C395 1.357 . S
C395 C394 1.357 . S
C395 C396 1.370 . S
C395 H421 0.950 . S
C396 N391 1.307 . S
C396 C395 1.370 . S
C396 H414 0.948 . S
Zn397 N391 2.020 . S
Zn397 O406 2.039 . S
Zn397 O412 2.034 1_455 S
Zn397 O416 2.025 1_455 S
Zn397 O418 2.024 . S
C398 O417 1.246 . S
C398 O418 1.249 . S
N399 C400 1.307 . S
N399 C401 1.333 . S
N399 Zn405 2.020 1_655 S
C400 N399 1.307 . S
C400 C404 1.370 . S
C400 H411 0.948 1_655 S
C401 N399 1.333 . S
C401 C402 1.379 . S
C401 H409 0.952 . S
C402 C401 1.379 . S
C402 C403 1.390 . S
C402 H422 0.949 . S
C403 C402 1.390 . S
C403 C404 1.357 . S
C404 C400 1.370 . S
C404 C403 1.357 . S
C404 H423 0.950 . S
Zn405 N399 2.020 1_455 S
Zn405 O408 2.025 . S
Zn405 O413 2.024 1_455 S
Zn405 O415 2.039 1_455 S
Zn405 O417 2.034 . S
O406 C390 1.251 . S
O406 Zn397 2.039 . S
C407 O412 1.246 . S
C407 O413 1.249 . S
O408 C390 1.254 . S
O408 Zn405 2.025 . S
H409 C401 0.952 . S
H410 C392 0.952 . S
H411 C400 0.948 1_455 S
O412 Zn397 2.034 1_655 S
O412 C407 1.246 . S
O413 Zn405 2.024 1_655 S
O413 C407 1.249 . S
H414 C396 0.948 . S
O415 Zn405 2.039 1_655 S
O415 C419 1.251 . S
O416 Zn397 2.025 1_655 S
O416 C419 1.254 . S
O417 C398 1.246 . S
O417 Zn405 2.034 . S
O418 Zn397 2.024 . S
O418 C398 1.249 . S
C419 O415 1.251 . S
C419 O416 1.254 . S
H420 C393 0.949 . S
H421 C395 0.950 . S
H422 C402 0.949 . S
H423 C404 0.950 . S
C424 C425 1.363 1_545 S
C424 C430 1.379 . S
C424 N432 1.356 . S
C425 C424 1.363 1_565 S
C425 C431 1.363 . S
C426 C427 1.363 . S
C426 C431 1.379 . S
C426 N433 1.356 . S
C427 C426 1.363 . S
C427 C430 1.363 1_565 S
N428 C430 1.356 . S
N428 H440 0.984 . S
N428 H441 0.985 . S
N429 C431 1.356 . S
N429 H434 0.984 . S
N429 H435 0.985 . S
C430 C424 1.379 . S
C430 C427 1.363 1_545 S
C430 N428 1.356 . S
C431 C425 1.363 . S
C431 C426 1.379 . S
C431 N429 1.356 . S
N432 C424 1.356 . S
N432 H438 0.984 . S
N432 H439 0.984 . S
N433 C426 1.356 . S
N433 H436 0.984 . S
N433 H437 0.985 . S
H434 N429 0.984 . S
H435 N429 0.985 . S
H436 N433 0.984 . S
H437 N433 0.985 . S
H438 N432 0.984 . S
H439 N432 0.984 . S
H440 N428 0.984 . S
H441 N428 0.985 . S
C442 C443 1.363 . S
C442 C448 1.379 . S
C442 N450 1.356 . S
C443 C442 1.363 . S
C443 C449 1.363 . S
C444 C445 1.363 . S
C444 C449 1.379 . S
C444 N451 1.356 . S
C445 C444 1.363 . S
C445 C448 1.363 . S
N446 C448 1.356 . S
N446 H458 0.984 . S
N446 H459 0.985 . S
N447 C449 1.356 . S
N447 H452 0.984 . S
N447 H453 0.985 . S
C448 C442 1.379 . S
C448 C445 1.363 . S
C448 N446 1.356 . S
C449 C443 1.363 . S
C449 C444 1.379 . S
C449 N447 1.356 . S
N450 C442 1.356 . S
N450 H456 0.984 . S
N450 H457 0.984 . S
N451 C444 1.356 . S
N451 H454 0.984 . S
N451 H455 0.985 . S
H452 N447 0.984 . S
H453 N447 0.985 . S
H454 N451 0.984 . S
H455 N451 0.985 . S
H456 N450 0.984 . S
H457 N450 0.984 . S
H458 N446 0.984 . S
H459 N446 0.985 . S
C460 C461 1.363 . S
C460 C466 1.379 . S
C460 N468 1.356 . S
C461 C460 1.363 . S
C461 C467 1.363 . S
C462 C463 1.363 . S
C462 C467 1.379 . S
C462 N469 1.356 . S
C463 C462 1.363 . S
C463 C466 1.363 . S
N464 C466 1.356 . S
N464 H476 0.984 . S
N464 H477 0.985 . S
N465 C467 1.356 . S
N465 H470 0.984 . S
N465 H471 0.985 . S
C466 C460 1.379 . S
C466 C463 1.363 . S
C466 N464 1.356 . S
C467 C461 1.363 . S
C467 C462 1.379 . S
C467 N465 1.356 . S
N468 C460 1.356 . S
N468 H474 0.984 . S
N468 H475 0.984 . S
N469 C462 1.356 . S
N469 H472 0.984 . S
N469 H473 0.985 . S
H470 N465 0.984 . S
H471 N465 0.985 . S
H472 N469 0.984 . S
H473 N469 0.985 . S
H474 N468 0.984 . S
H475 N468 0.984 . S
H476 N464 0.984 . S
H477 N464 0.985 . S
C478 C479 1.363 . S
C478 C484 1.379 . S
C478 N486 1.356 . S
C479 C478 1.363 . S
C479 C485 1.363 . S
C480 C481 1.363 . S
C480 C485 1.379 . S
C480 N487 1.356 . S
C481 C480 1.363 . S
C481 C484 1.363 . S
N482 C484 1.356 . S
N482 H494 0.984 . S
N482 H495 0.985 . S
N483 C485 1.356 . S
N483 H488 0.984 . S
N483 H489 0.985 . S
C484 C478 1.379 . S
C484 C481 1.363 . S
C484 N482 1.356 . S
C485 C479 1.363 . S
C485 C480 1.379 . S
C485 N483 1.356 . S
N486 C478 1.356 . S
N486 H492 0.984 . S
N486 H493 0.984 . S
N487 C480 1.356 . S
N487 H490 0.984 . S
N487 H491 0.985 . S
H488 N483 0.984 . S
H489 N483 0.985 . S
H490 N487 0.984 . S
H491 N487 0.985 . S
H492 N486 0.984 . S
H493 N486 0.984 . S
H494 N482 0.984 . S
H495 N482 0.985 . S
C496 C497 1.363 1_565 S
C496 C502 1.379 . S
C496 N504 1.356 1_556 S
C497 C496 1.363 1_545 S
C497 C503 1.363 . S
C498 C499 1.363 . S
C498 C503 1.379 . S
C498 N505 1.356 . S
C499 C498 1.363 . S
C499 C502 1.363 1_545 S
N500 C502 1.356 . S
N500 H512 0.984 . S
N500 H513 0.985 . S
N501 C503 1.356 . S
N501 H506 0.984 . S
N501 H507 0.985 . S
C502 C496 1.379 . S
C502 C499 1.363 1_565 S
C502 N500 1.356 . S
C503 C497 1.363 . S
C503 C498 1.379 . S
C503 N501 1.356 . S
N504 C496 1.356 1_554 S
N504 H510 0.984 . S
N504 H511 0.984 . S
N505 C498 1.356 . S
N505 H508 0.984 . S
N505 H509 0.985 . S
H506 N501 0.984 . S
H507 N501 0.985 . S
H508 N505 0.984 . S
H509 N505 0.985 . S
H510 N504 0.984 . S
H511 N504 0.984 . S
H512 N500 0.984 . S
H513 N500 0.985 . S
C514 C515 1.363 1_554 S
C514 C520 1.379 1_554 S
C514 N522 1.356 . S
C515 C514 1.363 1_556 S
C515 C521 1.363 . S
C516 C517 1.363 . S
C516 C521 1.379 . S
C516 N523 1.356 . S
C517 C516 1.363 . S
C517 C520 1.363 . S
N518 C520 1.356 . S
N518 H530 0.984 . S
N518 H531 0.985 . S
N519 C521 1.356 . S
N519 H524 0.984 . S
N519 H525 0.985 . S
C520 C514 1.379 1_556 S
C520 C517 1.363 . S
C520 N518 1.356 . S
C521 C515 1.363 . S
C521 C516 1.379 . S
C521 N519 1.356 . S
N522 C514 1.356 . S
N522 H528 0.984 . S
N522 H529 0.984 . S
N523 C516 1.356 . S
N523 H526 0.984 . S
N523 H527 0.985 . S
H524 N519 0.984 . S
H525 N519 0.985 . S
H526 N523 0.984 . S
H527 N523 0.985 . S
H528 N522 0.984 . S
H529 N522 0.984 . S
H530 N518 0.984 . S
H531 N518 0.985 . S
C532 C533 1.363 . S
C532 C538 1.379 1_554 S
C532 N540 1.356 . S
C533 C532 1.363 . S
C533 C539 1.363 1_554 S
C534 C535 1.363 . S
C534 C539 1.379 . S
C534 N541 1.356 . S
C535 C534 1.363 . S
C535 C538 1.363 . S
N536 C538 1.356 . S
N536 H548 0.984 . S
N536 H549 0.985 . S
N537 C539 1.356 1_554 S
N537 H542 0.984 . S
N537 H543 0.985 1_554 S
C538 C532 1.379 1_556 S
C538 C535 1.363 . S
C538 N536 1.356 . S
C539 C533 1.363 1_556 S
C539 C534 1.379 . S
C539 N537 1.356 1_556 S
N540 C532 1.356 . S
N540 H546 0.984 . S
N540 H547 0.984 . S
N541 C534 1.356 . S
N541 H544 0.984 . S
N541 H545 0.985 . S
H542 N537 0.984 . S
H543 N537 0.985 1_556 S
H544 N541 0.984 . S
H545 N541 0.985 . S
H546 N540 0.984 . S
H547 N540 0.984 . S
H548 N536 0.984 . S
H549 N536 0.985 . S
C550 C551 1.363 . S
C550 C556 1.379 . S
C550 N558 1.356 . S
C551 C550 1.363 . S
C551 C557 1.363 . S
C552 C553 1.363 . S
C552 C557 1.379 . S
C552 N559 1.356 . S
C553 C552 1.363 . S
C553 C556 1.363 . S
N554 C556 1.356 . S
N554 H566 0.984 . S
N554 H567 0.985 . S
N555 C557 1.356 1_554 S
N555 H560 0.984 . S
N555 H561 0.985 . S
C556 C550 1.379 . S
C556 C553 1.363 . S
C556 N554 1.356 . S
C557 C551 1.363 . S
C557 C552 1.379 . S
C557 N555 1.356 1_556 S
N558 C550 1.356 . S
N558 H564 0.984 . S
N558 H565 0.984 . S
N559 C552 1.356 . S
N559 H562 0.984 . S
N559 H563 0.985 . S
H560 N555 0.984 . S
H561 N555 0.985 . S
H562 N559 0.984 . S
H563 N559 0.985 . S
H564 N558 0.984 . S
H565 N558 0.984 . S
H566 N554 0.984 . S
H567 N554 0.985 . S
C568 C569 1.363 . S
C568 C574 1.379 . S
C568 N576 1.356 . S
C569 C568 1.363 . S
C569 C575 1.363 . S
C570 C571 1.363 . S
C570 C575 1.379 . S
C570 N577 1.356 . S
C571 C570 1.363 . S
C571 C574 1.363 . S
N572 C574 1.356 . S
N572 H584 0.984 . S
N572 H585 0.985 . S
N573 C575 1.356 . S
N573 H578 0.984 . S
N573 H579 0.985 . S
C574 C568 1.379 . S
C574 C571 1.363 . S
C574 N572 1.356 . S
C575 C569 1.363 . S
C575 C570 1.379 . S
C575 N573 1.356 . S
N576 C568 1.356 . S
N576 H582 0.984 . S
N576 H583 0.984 . S
N577 C570 1.356 . S
N577 H580 0.984 . S
N577 H581 0.985 . S
H578 N573 0.984 . S
H579 N573 0.985 . S
H580 N577 0.984 . S
H581 N577 0.985 . S
H582 N576 0.984 . S
H583 N576 0.984 . S
H584 N572 0.984 . S
H585 N572 0.985 . S
C586 C587 1.372 . S
C586 C592 1.379 . S
C586 N594 1.356 . S
C587 C586 1.372 . S
C587 C593 1.356 1_565 S
C588 C589 1.363 1_545 S
C588 C593 1.379 . S
C588 N595 1.356 . S
C589 C588 1.363 1_565 S
C589 C592 1.363 . S
N590 C592 1.356 . S
N590 H602 0.984 . S
N590 H603 0.985 . S
N591 C593 1.356 . S
N591 H596 0.984 . S
N591 H597 0.985 . S
C592 C586 1.379 . S
C592 C589 1.363 . S
C592 N590 1.356 . S
C593 C587 1.356 1_545 S
C593 C588 1.379 . S
C593 N591 1.356 . S
N594 C586 1.356 . S
N594 H600 0.984 . S
N594 H601 0.984 . S
N595 C588 1.356 . S
N595 H598 0.984 . S
N595 H599 0.985 . S
H596 N591 0.984 . S
H597 N591 0.985 . S
H598 N595 0.984 . S
H599 N595 0.985 . S
H600 N594 0.984 . S
H601 N594 0.984 . S
H602 N590 0.984 . S
H603 N590 0.985 . S
C604 C605 1.363 . S
C604 C610 1.379 . S
C604 N612 1.356 . S
C605 C604 1.363 . S
C605 C611 1.363 . S
C606 C607 1.363 . S
C606 C611 1.379 . S
C606 N613 1.356 . S
C607 C606 1.363 . S
C607 C610 1.363 . S
N608 C610 1.356 . S
N608 H620 0.984 . S
N608 H621 0.985 . S
N609 C611 1.356 . S
N609 H614 0.984 . S
N609 H615 0.985 . S
C610 C604 1.379 . S
C610 C607 1.363 . S
C610 N608 1.356 . S
C611 C605 1.363 . S
C611 C606 1.379 . S
C611 N609 1.356 . S
N612 C604 1.356 . S
N612 H618 0.984 . S
N612 H619 0.984 . S
N613 C606 1.356 . S
N613 H616 0.984 . S
N613 H617 0.985 . S
H614 N609 0.984 . S
H615 N609 0.985 . S
H616 N613 0.984 . S
H617 N613 0.985 . S
H618 N612 0.984 . S
H619 N612 0.984 . S
H620 N608 0.984 . S
H621 N608 0.985 . S
C622 C623 1.363 . S
C622 C628 1.379 . S
C622 N630 1.356 . S
C623 C622 1.363 . S
C623 C629 1.363 . S
C624 C625 1.363 . S
C624 C629 1.379 . S
C624 N631 1.356 . S
C625 C624 1.363 . S
C625 C628 1.363 . S
N626 C628 1.356 . S
N626 H638 0.984 . S
N626 H639 0.985 . S
N627 C629 1.356 . S
N627 H632 0.984 . S
N627 H633 0.985 . S
C628 C622 1.379 . S
C628 C625 1.363 . S
C628 N626 1.356 . S
C629 C623 1.363 . S
C629 C624 1.379 . S
C629 N627 1.356 . S
N630 C622 1.356 . S
N630 H636 0.984 . S
N630 H637 0.984 . S
N631 C624 1.356 . S
N631 H634 0.984 . S
N631 H635 0.985 . S
H632 N627 0.984 . S
H633 N627 0.985 . S
H634 N631 0.984 . S
H635 N631 0.985 . S
H636 N630 0.984 . S
H637 N630 0.984 . S
H638 N626 0.984 . S
H639 N626 0.985 . S
C640 C641 1.363 . S
C640 C646 1.379 . S
C640 N648 1.356 . S
C641 C640 1.363 . S
C641 C647 1.363 . S
C642 C643 1.363 . S
C642 C647 1.379 . S
C642 N649 1.356 . S
C643 C642 1.363 . S
C643 C646 1.363 . S
N644 C646 1.356 1_455 S
N644 H656 0.984 . S
N644 H657 0.985 . S
N645 C647 1.356 . S
N645 H650 0.984 . S
N645 H651 0.985 . S
C646 C640 1.379 . S
C646 C643 1.363 . S
C646 N644 1.356 1_655 S
C647 C641 1.363 . S
C647 C642 1.379 . S
C647 N645 1.356 . S
N648 C640 1.356 . S
N648 H654 0.984 . S
N648 H655 0.984 . S
N649 C642 1.356 . S
N649 H652 0.984 . S
N649 H653 0.985 . S
H650 N645 0.984 . S
H651 N645 0.985 . S
H652 N649 0.984 . S
H653 N649 0.985 . S
H654 N648 0.984 . S
H655 N648 0.984 . S
H656 N644 0.984 . S
H657 N644 0.985 . S
C658 C659 1.366 . S
C658 C664 1.379 . S
C658 N666 1.356 1_545 S
C659 C658 1.366 . S
C659 C665 1.364 . S
C660 C661 1.363 . S
C660 C665 1.379 . S
C660 N667 1.356 . S
C661 C660 1.363 . S
C661 C664 1.363 . S
N662 C664 1.356 . S
N662 H674 0.984 . S
N662 H675 0.985 . S
N663 C665 1.359 . S
N663 H668 0.982 1_545 S
N663 H669 0.984 . S
C664 C658 1.379 . S
C664 C661 1.363 . S
C664 N662 1.356 . S
C665 C659 1.364 . S
C665 C660 1.379 . S
C665 N663 1.359 . S
N666 C658 1.356 1_565 S
N666 H672 0.984 1_556 S
N666 H673 0.984 . S
N667 C660 1.356 . S
N667 H670 0.984 . S
N667 H671 0.985 . S
H668 N663 0.982 1_565 S
H669 N663 0.984 . S
H670 N667 0.984 . S
H671 N667 0.985 . S
H672 N666 0.984 1_554 S
H673 N666 0.984 . S
H674 N662 0.984 . S
H675 N662 0.985 . S
C676 C677 1.363 . S
C676 C682 1.379 . S
C676 N684 1.356 . S
C677 C676 1.363 . S
C677 C683 1.363 . S
C678 C679 1.363 . S
C678 C683 1.379 . S
C678 N685 1.356 . S
C679 C678 1.363 . S
C679 C682 1.363 . S
N680 C682 1.356 . S
N680 H692 0.984 . S
N680 H693 0.985 . S
N681 C683 1.356 . S
N681 H686 0.984 . S
N681 H687 0.985 . S
C682 C676 1.379 . S
C682 C679 1.363 . S
C682 N680 1.356 . S
C683 C677 1.363 . S
C683 C678 1.379 . S
C683 N681 1.356 . S
N684 C676 1.356 . S
N684 H690 0.984 . S
N684 H691 0.984 . S
N685 C678 1.356 . S
N685 H688 0.984 . S
N685 H689 0.985 . S
H686 N681 0.984 . S
H687 N681 0.985 . S
H688 N685 0.984 . S
H689 N685 0.985 . S
H690 N684 0.984 . S
H691 N684 0.984 . S
H692 N680 0.984 . S
H693 N680 0.985 . S
C694 C695 1.363 . S
C694 C700 1.379 . S
C694 N702 1.356 . S
C695 C694 1.363 . S
C695 C701 1.363 . S
C696 C697 1.363 . S
C696 C701 1.379 . S
C696 N703 1.356 . S
C697 C696 1.363 . S
C697 C700 1.363 . S
N698 C700 1.356 . S
N698 H710 0.984 . S
N698 H711 0.985 . S
N699 C701 1.356 . S
N699 H704 0.984 1_556 S
N699 H705 0.985 1_556 S
C700 C694 1.379 . S
C700 C697 1.363 . S
C700 N698 1.356 . S
C701 C695 1.363 . S
C701 C696 1.379 . S
C701 N699 1.356 . S
N702 C694 1.356 . S
N702 H708 0.984 . S
N702 H709 0.984 . S
N703 C696 1.356 . S
N703 H706 0.984 . S
N703 H707 0.985 . S
H704 N699 0.984 1_554 S
H705 N699 0.985 1_554 S
H706 N703 0.984 . S
H707 N703 0.985 . S
H708 N702 0.984 . S
H709 N702 0.984 . S
H710 N698 0.984 . S
H711 N698 0.985 . S
C712 C713 1.363 . S
C712 C718 1.379 . S
C712 N720 1.356 1_554 S
C713 C712 1.363 . S
C713 C719 1.363 . S
C714 C715 1.363 . S
C714 C719 1.379 . S
C714 N721 1.356 . S
C715 C714 1.363 . S
C715 C718 1.363 . S
N716 C718 1.356 1_556 S
N716 H728 0.984 . S
N716 H729 0.985 . S
N717 C719 1.356 . S
N717 H722 0.984 . S
N717 H723 0.985 . S
C718 C712 1.379 . S
C718 C715 1.363 . S
C718 N716 1.356 1_554 S
C719 C713 1.363 . S
C719 C714 1.379 . S
C719 N717 1.356 . S
N720 C712 1.356 1_556 S
N720 H726 0.984 . S
N720 H727 0.984 1_556 S
N721 C714 1.356 . S
N721 H724 0.984 . S
N721 H725 0.985 . S
H722 N717 0.984 . S
H723 N717 0.985 . S
H724 N721 0.984 . S
H725 N721 0.985 . S
H726 N720 0.984 . S
H727 N720 0.984 1_554 S
H728 N716 0.984 . S
H729 N716 0.985 . S
C730 C731 1.363 . S
C730 C736 1.379 . S
C730 N738 1.356 . S
C731 C730 1.363 . S
C731 C737 1.360 1_546 S
C732 C733 1.363 1_565 S
C732 C737 1.376 1_556 S
C732 N739 1.356 . S
C733 C732 1.363 1_545 S
C733 C736 1.363 . S
N734 C736 1.356 . S
N734 H746 0.984 . S
N734 H747 0.985 . S
N735 C737 1.361 . S
N735 H740 0.984 . S
N735 H741 0.985 . S
C736 C730 1.379 . S
C736 C733 1.363 . S
C736 N734 1.356 . S
C737 C731 1.360 1_564 S
C737 C732 1.376 1_554 S
C737 N735 1.361 . S
N738 C730 1.356 . S
N738 H744 0.984 . S
N738 H745 0.984 . S
N739 C732 1.356 . S
N739 H742 0.984 . S
N739 H743 0.985 1_556 S
H740 N735 0.984 . S
H741 N735 0.985 . S
H742 N739 0.984 . S
H743 N739 0.985 1_554 S
H744 N738 0.984 . S
H745 N738 0.984 . S
H746 N734 0.984 . S
H747 N734 0.985 . S
C748 C749 1.363 . S
C748 C754 1.379 . S
C748 N756 1.356 1_556 S
C749 C748 1.363 . S
C749 C755 1.363 . S
C750 C751 1.363 . S
C750 C755 1.379 . S
C750 N757 1.356 . S
C751 C750 1.363 . S
C751 C754 1.363 . S
N752 C754 1.356 . S
N752 H764 0.984 1_556 S
N752 H765 0.985 . S
N753 C755 1.356 . S
N753 H758 0.984 . S
N753 H759 0.985 . S
C754 C748 1.379 . S
C754 C751 1.363 . S
C754 N752 1.356 . S
C755 C749 1.363 . S
C755 C750 1.379 . S
C755 N753 1.356 . S
N756 C748 1.356 1_554 S
N756 H762 0.984 . S
N756 H763 0.984 . S
N757 C750 1.356 . S
N757 H760 0.984 . S
N757 H761 0.985 . S
H758 N753 0.984 . S
H759 N753 0.985 . S
H760 N757 0.984 . S
H761 N757 0.985 . S
H762 N756 0.984 . S
H763 N756 0.984 . S
H764 N752 0.984 1_554 S
H765 N752 0.985 . S
C766 C767 1.363 . S
C766 C772 1.379 . S
C766 N774 1.356 1_556 S
C767 C766 1.363 . S
C767 C773 1.363 . S
C768 C769 1.363 . S
C768 C773 1.379 . S
C768 N775 1.356 . S
C769 C768 1.363 . S
C769 C772 1.363 . S
N770 C772 1.356 . S
N770 H782 0.984 1_556 S
N770 H783 0.985 . S
N771 C773 1.356 . S
N771 H776 0.984 . S
N771 H777 0.985 . S
C772 C766 1.379 . S
C772 C769 1.363 . S
C772 N770 1.356 . S
C773 C767 1.363 . S
C773 C768 1.379 . S
C773 N771 1.356 . S
N774 C766 1.356 1_554 S
N774 H780 0.984 . S
N774 H781 0.984 . S
N775 C768 1.356 . S
N775 H778 0.984 . S
N775 H779 0.985 . S
H776 N771 0.984 . S
H777 N771 0.985 . S
H778 N775 0.984 . S
H779 N775 0.985 . S
H780 N774 0.984 . S
H781 N774 0.984 . S
H782 N770 0.984 1_554 S
H783 N770 0.985 . S
C784 C785 1.363 . S
C784 C790 1.379 . S
C784 N792 1.356 . S
C785 C784 1.363 . S
C785 C791 1.363 . S
C786 C787 1.363 . S
C786 C791 1.379 . S
C786 N793 1.356 . S
C787 C786 1.363 . S
C787 C790 1.363 . S
N788 C790 1.356 . S
N788 H800 0.984 . S
N788 H801 0.985 . S
N789 C791 1.356 . S
N789 H794 0.984 . S
N789 H795 0.985 . S
C790 C784 1.379 . S
C790 C787 1.363 . S
C790 N788 1.356 . S
C791 C785 1.363 . S
C791 C786 1.379 . S
C791 N789 1.356 . S
N792 C784 1.356 . S
N792 H798 0.984 . S
N792 H799 0.984 . S
N793 C786 1.356 . S
N793 H796 0.984 . S
N793 H797 0.985 . S
H794 N789 0.984 . S
H795 N789 0.985 . S
H796 N793 0.984 . S
H797 N793 0.985 . S
H798 N792 0.984 . S
H799 N792 0.984 . S
H800 N788 0.984 . S
H801 N788 0.985 . S
C802 C803 1.340 1_545 S
C802 C808 1.379 . S
C802 N810 1.356 . S
C803 C802 1.340 1_565 S
C803 C809 1.385 . S
C804 C805 1.363 . S
C804 C809 1.379 . S
C804 N811 1.356 . S
C805 C804 1.363 . S
C805 C808 1.363 1_565 S
N806 C808 1.356 . S
N806 H818 0.984 . S
N806 H819 0.985 . S
N807 C809 1.356 . S
N807 H812 0.984 . S
N807 H813 0.985 . S
C808 C802 1.379 . S
C808 C805 1.363 1_545 S
C808 N806 1.356 . S
C809 C803 1.385 . S
C809 C804 1.379 . S
C809 N807 1.356 . S
N810 C802 1.356 . S
N810 H816 0.984 . S
N810 H817 0.984 . S
N811 C804 1.356 . S
N811 H814 0.984 . S
N811 H815 0.985 . S
H812 N807 0.984 . S
H813 N807 0.985 . S
H814 N811 0.984 . S
H815 N811 0.985 . S
H816 N810 0.984 . S
H817 N810 0.984 . S
H818 N806 0.984 . S
H819 N806 0.985 . S
C820 C821 1.363 . S
C820 C826 1.379 . S
C820 N828 1.356 . S
C821 C820 1.363 . S
C821 C827 1.363 . S
C822 C823 1.363 . S
C822 C827 1.379 . S
C822 N829 1.356 . S
C823 C822 1.363 . S
C823 C826 1.363 . S
N824 C826 1.356 . S
N824 H836 0.984 . S
N824 H837 0.985 . S
N825 C827 1.356 . S
N825 H830 0.984 . S
N825 H831 0.985 . S
C826 C820 1.379 . S
C826 C823 1.363 . S
C826 N824 1.356 . S
C827 C821 1.363 . S
C827 C822 1.379 . S
C827 N825 1.356 . S
N828 C820 1.356 . S
N828 H834 0.984 . S
N828 H835 0.984 . S
N829 C822 1.356 . S
N829 H832 0.984 . S
N829 H833 0.985 . S
H830 N825 0.984 . S
H831 N825 0.985 . S
H832 N829 0.984 . S
H833 N829 0.985 . S
H834 N828 0.984 . S
H835 N828 0.984 . S
H836 N824 0.984 . S
H837 N824 0.985 . S
C838 C839 1.363 . S
C838 C844 1.379 . S
C838 N846 1.356 . S
C839 C838 1.363 . S
C839 C845 1.363 . S
C840 C841 1.363 . S
C840 C845 1.379 . S
C840 N847 1.356 . S
C841 C840 1.363 . S
C841 C844 1.363 . S
N842 C844 1.356 . S
N842 H854 0.984 . S
N842 H855 0.985 . S
N843 C845 1.356 . S
N843 H848 0.984 . S
N843 H849 0.985 . S
C844 C838 1.379 . S
C844 C841 1.363 . S
C844 N842 1.356 . S
C845 C839 1.363 . S
C845 C840 1.379 . S
C845 N843 1.356 . S
N846 C838 1.356 . S
N846 H852 0.984 . S
N846 H853 0.984 . S
N847 C840 1.356 . S
N847 H850 0.984 . S
N847 H851 0.985 . S
H848 N843 0.984 . S
H849 N843 0.985 . S
H850 N847 0.984 . S
H851 N847 0.985 . S
H852 N846 0.984 . S
H853 N846 0.984 . S
H854 N842 0.984 . S
H855 N842 0.985 . S
C425 C241 1.922 1_565 S
C427 C305 1.969 . S
C445 C326 1.822 . S
C443 C277 1.749 . S
C463 C360 1.765 . S
C461 C169 1.669 . S
C481 C394 1.770 . S
C479 C205 1.731 . S
C499 C296 1.969 . S
C497 C97 1.907 1_556 S
C515 C133 1.815 1_556 S
C517 C335 1.826 . S
C533 C25 1.704 . S
C535 C369 1.765 . S
C551 C61 1.664 . S
C553 C403 1.770 . S
C571 C317 1.296 . S
C569 C211 1.162 . S
C589 C322 0.847 . S
C587 C247 0.838 1_565 S
C607 C356 1.013 . S
C605 C253 0.967 . S
C623 C175 0.639 . S
C625 C390 0.560 . S
C641 C67 1.033 . S
C643 C288 1.299 1_655 S
C661 C351 0.847 . S
C659 C103 0.835 . S
C679 C385 1.013 . S
C677 C109 1.007 . S
C695 C31 0.591 . S
C697 C419 0.560 . S
C713 C181 1.797 . S
C715 C301 1.896 . S
C731 C217 2.100 1_556 S
C733 C330 2.233 . S
C751 C364 1.983 . S
C749 C283 1.780 1_556 S
C769 C398 2.072 . S
C767 C145 1.886 . S
C785 C37 1.752 . S
C787 C292 1.903 . S
C805 C339 2.233 . S
C803 C73 2.105 1_565 S
C823 C373 1.983 . S
C821 C139 1.825 . S
C839 C1 1.933 . S
C841 C407 2.072 . S
