# Generated by pormake.
# Topology rtl, (3,6)-cn, num edge types: 1
# Building blocks:
#     Node 0, Type 0, BuildingBlock: QEWDON_clean_linker_0, # of connection points: 3
#     Node 1, Type 0, BuildingBlock: QEWDON_clean_linker_0, # of connection points: 3
#     Node 2, Type 0, BuildingBlock: QEWDON_clean_linker_0, # of connection points: 3
#     Node 3, Type 0, BuildingBlock: QEWDON_clean_linker_0, # of connection points: 3
#     Node 4, Type 1, BuildingBlock: VOLQOD_clean_sbu_1, # of connection points: 6
#     Node 5, Type 1, BuildingBlock: VOLQOD_clean_sbu_1, # of connection points: 6
#     Edge 6, Type (0, 1), BuildingBlock: EZIPEK_clean_linker_0, # of connection points: 2
#     Edge 7, Type (0, 1), BuildingBlock: EZIPEK_clean_linker_0, # of connection points: 2
#     Edge 8, Type (0, 1), BuildingBlock: EZIPEK_clean_linker_0, # of connection points: 2
#     Edge 9, Type (0, 1), BuildingBlock: EZIPEK_clean_linker_0, # of connection points: 2
#     Edge 10, Type (0, 1), BuildingBlock: EZIPEK_clean_linker_0, # of connection points: 2
#     Edge 11, Type (0, 1), BuildingBlock: EZIPEK_clean_linker_0, # of connection points: 2
#     Edge 12, Type (0, 1), BuildingBlock: EZIPEK_clean_linker_0, # of connection points: 2
#     Edge 13, Type (0, 1), BuildingBlock: EZIPEK_clean_linker_0, # of connection points: 2
#     Edge 14, Type (0, 1), BuildingBlock: EZIPEK_clean_linker_0, # of connection points: 2
#     Edge 15, Type (0, 1), BuildingBlock: EZIPEK_clean_linker_0, # of connection points: 2
#     Edge 16, Type (0, 1), BuildingBlock: EZIPEK_clean_linker_0, # of connection points: 2
#     Edge 17, Type (0, 1), BuildingBlock: EZIPEK_clean_linker_0, # of connection points: 2
# Relax obj value: 0.049
# Max RMSD: 0.148
# Mean RMSD: 0.130
data_MOF--net-rtl--node1-VOLQOD_clean_sbu_1--node2-QEWDON_clean_linker_0--edge1-EZIPEK_clean_linker_0
_symmetry_space_group_name_H-M    P1
_symmetry_Int_Tables_number       1
_symmetry_cell_setting            triclinic
loop_
_symmetry_equiv_pos_as_xyz
'x, y, z'
_cell_length_a     29.677289
_cell_length_b     30.459123
_cell_length_c     16.338247
_cell_angle_alpha  92.078406
_cell_angle_beta   92.522163
_cell_angle_gamma 89.795445
loop_
_atom_site_label
_atom_site_type_symbol
_atom_site_fract_x
_atom_site_fract_y
_atom_site_fract_z
_atom_type_partial_charge
H0 H 0.24148 0.8459 0.12926 0.0
C1 C 0.221 0.8502 0.07353 0.0
C2 C 0.17627 0.86495 0.07819 0.0
C3 C 0.2403 0.84465 -0.00332 0.0
H4 H 0.11585 0.88277 0.00948 0.0
C5 C 0.15033 0.87117 0.00559 0.0
C6 C 0.16997 0.86854 0.929 0.0
C7 C 0.2151 0.85516 0.9251 0.0
C8 C 0.28813 0.83205 -0.0094 0.0
H9 H 0.23096 0.85385 0.86652 0.0
C10 C 0.30323 0.79017 0.01296 0.0
C11 C 0.34785 0.77708 -0.00101 0.0
C12 C 0.31825 0.86117 0.95697 0.0
H13 H 0.30712 0.89354 0.93928 0.0
C14 C 0.36284 0.84866 0.94537 0.0
H15 H 0.28005 0.7673 0.03803 0.0
C16 C 0.37756 0.80675 0.96575 0.0
H17 H 0.41206 0.79723 0.95492 0.0
H18 H 0.38587 0.87127 0.91942 0.0
H19 H 0.73072 0.68243 0.42803 0.0
C20 C 0.71246 0.6737 0.48109 0.0
C21 C 0.67248 0.64919 0.47043 0.0
C22 C 0.73034 0.684 0.56069 0.0
H23 H 0.61963 0.61634 0.53023 0.0
C24 C 0.64987 0.63623 0.53864 0.0
C25 C 0.66724 0.64646 0.61758 0.0
C26 C 0.70724 0.67052 0.62883 0.0
C27 C 0.77526 0.70459 0.57347 0.0
H28 H 0.7211 0.67739 0.69047 0.0
C29 C 0.78528 0.74464 0.53799 0.0
C30 C 0.82764 0.76438 0.55446 0.0
C31 C 0.80833 0.68413 0.62337 0.0
H32 H 0.80148 0.65308 0.65063 0.0
C33 C 0.85058 0.70336 0.63823 0.0
H34 H 0.75998 0.761 0.50005 0.0
C35 C 0.86017 0.7434 0.60431 0.0
H36 H 0.89293 0.75829 0.61741 0.0
H37 H 0.87582 0.68737 0.67669 0.0
H38 H 0.79956 0.1817 0.12131 0.0
C39 C 0.81633 0.17525 0.06449 0.0
C40 C 0.85775 0.1527 0.06544 0.0
C41 C 0.79475 0.18563 -0.01073 0.0
H42 H 0.90904 0.12298 -0.00757 0.0
C43 C 0.87797 0.1419 -0.00824 0.0
C44 C 0.8566 0.15194 0.91694 0.0
C45 C 0.81521 0.17415 0.91557 0.0
C46 C 0.7475 0.20063 -0.01387 0.0
H47 H 0.79768 0.17999 0.85732 0.0
C48 C 0.73611 0.2448 0.00274 0.0
C49 C 0.69083 0.25839 -0.00606 0.0
C50 C 0.7135 0.17023 0.96251 0.0
H51 H 0.72185 0.13611 0.94933 0.0
C52 C 0.66857 0.18364 0.95525 0.0
H53 H 0.76221 0.26854 0.0203 0.0
C54 C 0.65725 0.22753 0.97055 0.0
H55 H 0.62226 0.23758 0.9638 0.0
H56 H 0.64253 0.16002 0.93701 0.0
H57 H 0.3315 0.30035 0.63369 0.0
C58 C 0.33688 0.31934 0.58064 0.0
C59 C 0.356 0.36202 0.58761 0.0
C60 C 0.32796 0.29873 0.50294 0.0
H61 H 0.39764 0.40474 0.51866 0.0
C62 C 0.37407 0.37769 0.51557 0.0
C63 C 0.36248 0.35952 0.43764 0.0
C64 C 0.33724 0.32084 0.43183 0.0
C65 C 0.31592 0.25175 0.49452 0.0
H66 H 0.32829 0.30589 0.37209 0.0
C67 C 0.27331 0.23629 0.51453 0.0
C68 C 0.26199 0.19183 0.49824 0.0
C69 C 0.34735 0.22234 0.46104 0.0
H70 H 0.38034 0.2337 0.44541 0.0
C71 C 0.33648 0.17821 0.44683 0.0
H72 H 0.24875 0.25877 0.53993 0.0
C73 C 0.29397 0.16302 0.46483 0.0
H74 H 0.28584 0.12871 0.4523 0.0
H75 H 0.36089 0.15581 0.42092 0.0
O76 O 0.90719 0.96097 0.48285 0.0
Zn77 Zn 0.94446 0.01677 0.48707 0.0
O78 O 0.0094 0.00526 0.4942 0.0
Zn79 Zn 0.03595 0.03166 0.59538 0.0
Zn80 Zn 0.01846 0.94114 0.48939 0.0
Zn81 Zn 0.03957 0.03171 0.40502 0.0
O82 O 0.08258 0.07774 0.57835 0.0
O83 O 0.08619 0.07668 0.44326 0.0
O84 O 0.9255 0.05239 0.58537 0.0
O85 O 0.98857 0.06033 0.66344 0.0
O86 O 0.06718 0.98496 0.659 0.0
O87 O 0.05205 0.92161 0.59231 0.0
O88 O 0.05276 0.92123 0.38959 0.0
O89 O 0.92844 0.05082 0.38773 0.0
O90 O 0.0742 0.9852 0.34487 0.0
O91 O 0.99371 0.06079 0.32833 0.0
C92 C 0.9186 0.92066 0.48451 0.0
C93 C 0.09975 0.0912 0.51399 0.0
C94 C 0.07013 0.94324 0.65324 0.0
C95 C 0.94652 0.0667 0.65038 0.0
C96 C 0.07533 0.94339 0.34102 0.0
C97 C 0.95109 0.066 0.33081 0.0
O98 O 0.95975 0.90891 0.48598 0.0
O99 O 0.61083 0.46128 0.02614 0.0
Zn100 Zn 0.57622 0.51865 0.02932 0.0
O101 O 0.51091 0.51082 0.02862 0.0
Zn102 Zn 0.48193 0.53811 0.93444 0.0
Zn103 Zn 0.49911 0.4477 0.02447 0.0
Zn104 Zn 0.48521 0.53846 0.12561 0.0
O105 O 0.44548 0.59155 0.96496 0.0
O106 O 0.44523 0.59049 0.10039 0.0
O107 O 0.59328 0.55165 0.93233 0.0
O108 O 0.52865 0.55973 0.85969 0.0
O109 O 0.44116 0.49467 0.8733 0.0
O110 O 0.46105 0.43003 0.9222 0.0
O111 O 0.46731 0.43088 0.12517 0.0
O112 O 0.59759 0.55265 0.12985 0.0
O113 O 0.44739 0.49456 0.18133 0.0
O114 O 0.53596 0.56238 0.20192 0.0
C115 C 0.59747 0.42161 0.02347 0.0
C116 C 0.43366 0.60812 0.03327 0.0
C117 C 0.43858 0.45288 0.87074 0.0
C118 C 0.57118 0.56464 0.86932 0.0
C119 C 0.44599 0.45278 0.17893 0.0
C120 C 0.57823 0.5669 0.19341 0.0
O121 O 0.55586 0.41189 0.02256 0.0
C122 C 0.17878 0.18302 0.46285 0.0
C123 C 0.2169 0.174 0.51511 0.0
C124 C 0.17728 0.11243 0.5714 0.0
C125 C 0.13841 0.12218 0.52111 0.0
N126 N 0.0982 0.17412 0.4369 0.0
N127 N 0.24755 0.13935 0.63535 0.0
C128 C 0.13789 0.15993 0.47255 0.0
C129 C 0.21427 0.14191 0.57522 0.0
N130 N 0.18217 0.21177 0.40115 0.0
N131 N 0.18071 0.07349 0.61036 0.0
H132 H 0.27502 0.16076 0.63961 0.0
H133 H 0.24543 0.11924 0.6853 0.0
H134 H 0.15589 0.04934 0.60595 0.0
H135 H 0.21033 0.06305 0.64037 0.0
H136 H 0.15707 0.2156 0.35534 0.0
H137 H 0.21135 0.22958 0.39216 0.0
H138 H 0.09506 0.20368 0.40701 0.0
H139 H 0.06745 0.15862 0.44463 0.0
C140 C 0.34955 0.69546 0.96667 0.0
C141 C 0.36414 0.73208 0.01711 0.0
C142 C 0.42326 0.68709 0.08167 0.0
C143 C 0.40742 0.64982 0.03398 0.0
N144 N 0.34794 0.61619 0.9482 0.0
N145 N 0.40632 0.75986 0.1371 0.0
C146 C 0.36813 0.65329 -0.0182 0.0
C147 C 0.39814 0.72682 0.07959 0.0
N148 N 0.31972 0.70117 0.90177 0.0
N149 N 0.46383 0.68576 0.12448 0.0
H150 H 0.38822 0.78931 0.13745 0.0
H151 H 0.42768 0.75629 0.18878 0.0
H152 H 0.48446 0.6581 0.12536 0.0
H153 H 0.47914 0.71344 0.15268 0.0
H154 H 0.31199 0.67652 0.85757 0.0
H155 H 0.30539 0.73148 0.88811 0.0
H156 H 0.31686 0.61646 0.91598 0.0
H157 H 0.35988 0.58467 0.95994 0.0
C158 C 0.83279 0.84578 0.57444 0.0
C159 C 0.83863 0.80797 0.52301 0.0
C160 C 0.88227 0.85104 0.43075 0.0
C161 C 0.88404 0.88601 0.4905 0.0
N162 N 0.86171 0.91697 0.62101 0.0
N163 N 0.86685 0.77375 0.40044 0.0
C164 C 0.85857 0.88401 0.56198 0.0
C165 C 0.86213 0.81055 0.44972 0.0
N166 N 0.80311 0.8447 0.63597 0.0
N167 N 0.89976 0.85689 0.35593 0.0
H168 H 0.85074 0.74422 0.411 0.0
H169 H 0.88809 0.77184 0.3514 0.0
H170 H 0.91409 0.88657 0.34053 0.0
H171 H 0.89646 0.83412 0.30698 0.0
H172 H 0.79397 0.87235 0.67081 0.0
H173 H 0.78433 0.81681 0.64706 0.0
H174 H 0.8487 0.91478 0.67886 0.0
H175 H 0.87985 0.9457 0.61455 0.0
C176 C 0.67563 0.33322 0.94042 0.0
C177 C 0.6774 0.30498 0.00765 0.0
C178 C 0.63885 0.36052 0.09165 0.0
C179 C 0.63066 0.38532 0.02077 0.0
N180 N 0.64084 0.39676 0.87763 0.0
N181 N 0.66239 0.29095 0.14794 0.0
C182 C 0.64969 0.37254 0.94538 0.0
C183 C 0.66007 0.31872 0.08398 0.0
N184 N 0.69848 0.32207 0.87182 0.0
N185 N 0.62657 0.37734 0.16618 0.0
H186 H 0.67971 0.26108 0.14542 0.0
H187 H 0.64574 0.29641 0.20211 0.0
H188 H 0.61113 0.40801 0.17326 0.0
H189 H 0.63492 0.36294 0.22161 0.0
H190 H 0.70216 0.34288 0.82345 0.0
H191 H 0.71706 0.29308 0.866 0.0
H192 H 0.64904 0.38673 0.81857 0.0
H193 H 0.62301 0.42632 0.87971 0.0
C194 C 0.14943 0.9291 0.15942 0.0
C195 C 0.15862 0.88371 0.15587 0.0
C196 C 0.12209 0.87803 0.2865 0.0
C197 C 0.10325 0.92108 0.27731 0.0
N198 N 0.08925 0.97974 0.18165 0.0
N199 N 0.15022 0.81297 0.21448 0.0
C200 C 0.1142 0.94465 0.20725 0.0
C201 C 0.14388 0.85733 0.21895 0.0
N202 N 0.17406 0.95734 0.1167 0.0
N203 N 0.12201 0.85784 0.35974 0.0
H204 H 0.16706 0.79732 0.16683 0.0
H205 H 0.13608 0.79188 0.25514 0.0
H206 H 0.11153 0.87322 0.41354 0.0
H207 H 0.13816 0.82791 0.3694 0.0
H208 H 0.16934 0.99131 0.12103 0.0
H209 H 0.2023 0.94679 0.08542 0.0
H210 H 0.09595 0.99575 0.12809 0.0
H211 H 0.05828 0.98826 0.20552 0.0
C212 C 0.61116 0.6512 0.72766 0.0
C213 C 0.64541 0.62739 0.68753 0.0
C214 C 0.62837 0.56163 0.76194 0.0
C215 C 0.59601 0.58614 0.8058 0.0
N216 N 0.56157 0.65572 0.8417 0.0
N217 N 0.69224 0.56285 0.67461 0.0
C218 C 0.58868 0.63139 0.79179 0.0
C219 C 0.65583 0.58347 0.70743 0.0
N220 N 0.5994 0.69225 0.70293 0.0
N221 N 0.63136 0.51712 0.76961 0.0
H222 H 0.71271 0.57759 0.6332 0.0
H223 H 0.70448 0.53259 0.69337 0.0
H224 H 0.61126 0.49983 0.80809 0.0
H225 H 0.65083 0.4967 0.73279 0.0
H226 H 0.57116 0.70921 0.72286 0.0
H227 H 0.61635 0.70839 0.65822 0.0
H228 H 0.55872 0.68976 0.84025 0.0
H229 H 0.54452 0.64237 0.88941 0.0
C230 C 0.86614 0.08952 0.1575 0.0
C231 C 0.8773 0.13348 0.14108 0.0
C232 C 0.93424 0.13471 0.25447 0.0
C233 C 0.92644 0.0893 0.26477 0.0
N234 N 0.88998 0.02157 0.21878 0.0
N235 N 0.92394 0.19735 0.16769 0.0
C236 C 0.89348 0.06622 0.21471 0.0
C237 C 0.91183 0.15603 0.18807 0.0
N238 N 0.82934 0.07006 0.1182 0.0
N239 N 0.96185 0.15772 0.30972 0.0
H240 H 0.90678 0.21458 0.12183 0.0
H241 H 0.95238 0.21359 0.19288 0.0
H242 H 0.97882 0.14322 0.3591 0.0
H243 H 0.96527 0.19174 0.31059 0.0
H244 H 0.81658 0.03985 0.13384 0.0
H245 H 0.80903 0.08576 0.07444 0.0
H246 H 0.87016 0.00223 0.17764 0.0
H247 H 0.91007 0.00306 0.25867 0.0
C248 C 0.3577 0.37366 0.74728 0.0
C249 C 0.36331 0.38925 0.66747 0.0
C250 C 0.409 0.44987 0.72436 0.0
C251 C 0.41074 0.431 0.8027 0.0
N252 N 0.3806 0.37752 0.89205 0.0
N253 N 0.36043 0.45857 0.60366 0.0
C254 C 0.38331 0.39348 0.81539 0.0
C255 C 0.37811 0.43301 0.66372 0.0
N256 N 0.32214 0.34694 0.76018 0.0
N257 N 0.43948 0.48072 0.70392 0.0
H258 H 0.36734 0.49203 0.60024 0.0
H259 H 0.36734 0.49203 0.60024 0.0
H260 H 0.46741 0.49001 0.74133 0.0
H261 H 0.44051 0.49223 0.64464 0.0
H262 H 0.31421 0.33587 0.81729 0.0
H263 H 0.29603 0.34239 0.71584 0.0
H264 H 0.36695 0.34695 0.903 0.0
H265 H 0.39258 0.39453 0.94498 0.0
C266 C 0.62344 0.65607 0.34293 0.0
C267 C 0.65578 0.63187 0.38908 0.0
C268 C 0.63823 0.56531 0.30554 0.0
C269 C 0.60604 0.58956 0.2589 0.0
N270 N 0.57613 0.65959 0.21853 0.0
N271 N 0.70174 0.56712 0.40431 0.0
C272 C 0.60107 0.63552 0.27315 0.0
C273 C 0.66585 0.58764 0.36664 0.0
N274 N 0.61305 0.69811 0.36758 0.0
N275 N 0.64081 0.52065 0.29423 0.0
H276 H 0.72237 0.58266 0.44986 0.0
H277 H 0.71358 0.53632 0.38563 0.0
H278 H 0.62104 0.50304 0.25013 0.0
H279 H 0.65999 0.50053 0.33244 0.0
H280 H 0.58592 0.71567 0.34265 0.0
H281 H 0.63032 0.71471 0.41633 0.0
H282 H 0.57446 0.69376 0.22138 0.0
H283 H 0.56042 0.64553 0.16561 0.0
C284 C 0.86444 0.08833 0.81858 0.0
C285 C 0.87485 0.13268 0.84093 0.0
C286 C 0.92739 0.13553 0.72987 0.0
C287 C 0.92091 0.08982 0.71415 0.0
N288 N 0.88828 0.02103 0.74972 0.0
N289 N 0.91775 0.19835 0.8233 0.0
C290 C 0.89045 0.06577 0.75963 0.0
C291 C 0.90658 0.1564 0.79773 0.0
N292 N 0.82962 0.06785 0.85385 0.0
N293 N 0.95257 0.15903 0.67874 0.0
H294 H 0.90177 0.21511 0.87078 0.0
H295 H 0.94442 0.2157 0.80078 0.0
H296 H 0.96845 0.14464 0.62871 0.0
H297 H 0.95491 0.19314 0.68183 0.0
H298 H 0.81731 0.03714 0.83397 0.0
H299 H 0.81032 0.08309 0.89857 0.0
H300 H 0.87044 1.0011 0.78731 0.0
H301 H 0.90759 0.00321 0.70829 0.0
C302 C 0.39953 0.35929 0.29926 0.0
C303 C 0.37781 0.38205 0.36387 0.0
C304 C 0.40407 0.45106 0.3127 0.0
C305 C 0.41999 0.42904 0.24078 0.0
N306 N 0.4116 0.36193 0.15517 0.0
N307 N 0.34403 0.45098 0.40722 0.0
C308 C 0.41122 0.38301 0.23027 0.0
C309 C 0.37452 0.42841 0.36174 0.0
N310 N 0.41129 0.3161 0.3042 0.0
N311 N 0.41937 0.49151 0.33974 0.0
H312 H 0.32008 0.43509 0.44046 0.0
H313 H 0.33955 0.48487 0.40357 0.0
H314 H 0.44742 0.50669 0.31754 0.0
H315 H 0.40894 0.50643 0.39424 0.0
H316 H 0.42981 0.29992 0.25934 0.0
H317 H 0.40767 0.29829 0.35671 0.0
H318 H 0.40342 0.32872 0.14679 0.0
H319 H 0.41252 0.37852 0.10065 0.0
C320 C 0.14 0.86127 0.78029 0.0
C321 C 0.14481 0.88592 0.85566 0.0
C322 C 0.09121 0.93947 0.80231 0.0
C323 C 0.09327 0.92024 0.72228 0.0
N324 N 0.12934 0.8662 0.63342 0.0
N325 N 0.13733 0.95758 0.92242 0.0
C326 C 0.12022 0.88183 0.71032 0.0
C327 C 0.12401 0.92775 0.86216 0.0
N328 N 0.15309 0.8183 0.77547 0.0
N329 N 0.05757 0.96805 0.82252 0.0
H330 H 0.16603 0.95251 0.95969 0.0
H331 H 0.1242 0.98939 0.92619 0.0
H332 H 0.02988 0.97424 0.78299 0.0
H333 H 0.05437 0.98063 0.88226 0.0
H334 H 0.14665 0.79821 0.72327 0.0
H335 H 0.16597 0.80169 0.8261 0.0
H336 H 0.15191 0.8405 0.6231 0.0
H337 H 0.11883 0.88178 0.58023 0.0
loop_
_geom_bond_atom_site_label_1
_geom_bond_atom_site_label_2
_geom_bond_distance
_geom_bond_site_symmetry_2
_ccdc_geom_bond_type
H0 C1 0.949 . S
C1 H0 0.949 . S
C1 C2 1.395 . S
C1 C3 1.391 . S
C2 C1 1.395 . S
C2 C5 1.390 . S
C3 C1 1.391 . S
C3 C7 1.387 1_554 S
C3 C8 1.491 1_554 S
H4 C5 0.950 . S
C5 C2 1.390 . S
C5 H4 0.950 . S
C5 C6 1.378 1_554 S
C6 C5 1.378 1_556 S
C6 C7 1.409 . S
C7 C3 1.387 1_556 S
C7 C6 1.409 . S
C7 H9 0.951 . S
C8 C3 1.491 1_556 S
C8 C10 1.382 1_556 S
C8 C12 1.404 . S
H9 C7 0.951 . S
C10 C8 1.382 1_554 S
C10 C11 1.390 . S
C10 H15 0.949 . S
C11 C10 1.390 . S
C11 C16 1.399 1_554 S
C12 C8 1.404 . S
C12 H13 0.950 . S
C12 C14 1.375 . S
H13 C12 0.950 . S
C14 C12 1.375 . S
C14 C16 1.382 . S
C14 H18 0.950 . S
H15 C10 0.949 . S
C16 C11 1.399 1_556 S
C16 C14 1.382 . S
C16 H17 0.952 . S
H17 C16 0.952 . S
H18 C14 0.950 . S
H19 C20 0.949 . S
C20 H19 0.949 . S
C20 C21 1.395 . S
C20 C22 1.391 . S
C21 C20 1.395 . S
C21 C24 1.390 . S
C22 C20 1.391 . S
C22 C26 1.387 . S
C22 C27 1.491 . S
H23 C24 0.950 . S
C24 C21 1.390 . S
C24 H23 0.950 . S
C24 C25 1.378 . S
C25 C24 1.378 . S
C25 C26 1.409 . S
C26 C22 1.387 . S
C26 C25 1.409 . S
C26 H28 0.951 . S
C27 C22 1.491 . S
C27 C29 1.382 . S
C27 C31 1.404 . S
H28 C26 0.951 . S
C29 C27 1.382 . S
C29 C30 1.390 . S
C29 H34 0.949 . S
C30 C29 1.390 . S
C30 C35 1.399 . S
C31 C27 1.404 . S
C31 H32 0.950 . S
C31 C33 1.375 . S
H32 C31 0.950 . S
C33 C31 1.375 . S
C33 C35 1.382 . S
C33 H37 0.950 . S
H34 C29 0.949 . S
C35 C30 1.399 . S
C35 C33 1.382 . S
C35 H36 0.952 . S
H36 C35 0.952 . S
H37 C33 0.950 . S
H38 C39 0.949 . S
C39 H38 0.949 . S
C39 C40 1.395 . S
C39 C41 1.391 . S
C40 C39 1.395 . S
C40 C43 1.390 . S
C41 C39 1.391 . S
C41 C45 1.387 1_554 S
C41 C46 1.491 1_554 S
H42 C43 0.950 . S
C43 C40 1.390 . S
C43 H42 0.950 . S
C43 C44 1.378 1_554 S
C44 C43 1.378 1_556 S
C44 C45 1.409 . S
C45 C41 1.387 1_556 S
C45 C44 1.409 . S
C45 H47 0.951 . S
C46 C41 1.491 1_556 S
C46 C48 1.382 1_556 S
C46 C50 1.404 . S
H47 C45 0.951 . S
C48 C46 1.382 1_554 S
C48 C49 1.390 . S
C48 H53 0.949 . S
C49 C48 1.390 . S
C49 C54 1.399 1_554 S
C50 C46 1.404 . S
C50 H51 0.950 . S
C50 C52 1.375 . S
H51 C50 0.950 . S
C52 C50 1.375 . S
C52 C54 1.382 . S
C52 H56 0.950 . S
H53 C48 0.949 . S
C54 C49 1.399 1_556 S
C54 C52 1.382 . S
C54 H55 0.952 . S
H55 C54 0.952 . S
H56 C52 0.950 . S
H57 C58 0.949 . S
C58 H57 0.949 . S
C58 C59 1.395 . S
C58 C60 1.391 . S
C59 C58 1.395 . S
C59 C62 1.390 . S
C60 C58 1.391 . S
C60 C64 1.387 . S
C60 C65 1.491 . S
H61 C62 0.950 . S
C62 C59 1.390 . S
C62 H61 0.950 . S
C62 C63 1.378 . S
C63 C62 1.378 . S
C63 C64 1.409 . S
C64 C60 1.387 . S
C64 C63 1.409 . S
C64 H66 0.951 . S
C65 C60 1.491 . S
C65 C67 1.382 . S
C65 C69 1.404 . S
H66 C64 0.951 . S
C67 C65 1.382 . S
C67 C68 1.390 . S
C67 H72 0.949 . S
C68 C67 1.390 . S
C68 C73 1.399 . S
C69 C65 1.404 . S
C69 H70 0.950 . S
C69 C71 1.375 . S
H70 C69 0.950 . S
C71 C69 1.375 . S
C71 C73 1.382 . S
C71 H75 0.950 . S
H72 C67 0.949 . S
C73 C68 1.399 . S
C73 C71 1.382 . S
C73 H74 0.952 . S
H74 C73 0.952 . S
H75 C71 0.950 . S
O76 Zn77 1.953 1_565 S
O76 C92 1.225 . S
Zn77 O76 1.953 1_545 S
Zn77 O78 1.949 1_655 S
Zn77 O84 1.919 . S
Zn77 O89 1.924 . S
O78 Zn77 1.949 1_455 S
O78 Zn79 1.923 . S
O78 Zn80 1.950 1_545 S
O78 Zn81 1.945 . S
Zn79 O78 1.923 . S
Zn79 O82 1.933 . S
Zn79 O85 1.941 . S
Zn79 O86 1.965 1_545 S
Zn80 O78 1.950 1_565 S
Zn80 O87 1.938 . S
Zn80 O88 1.906 . S
Zn80 O98 1.953 1_455 S
Zn81 O78 1.945 . S
Zn81 O83 1.932 . S
Zn81 O90 1.977 1_545 S
Zn81 O91 1.910 1_455 S
O82 Zn79 1.933 . S
O82 C93 1.226 . S
O83 Zn81 1.932 . S
O83 C93 1.307 . S
O84 Zn77 1.919 . S
O84 C95 1.253 . S
O85 Zn79 1.941 . S
O85 C95 1.283 1_455 S
O86 Zn79 1.965 1_565 S
O86 C94 1.303 . S
O87 Zn80 1.938 . S
O87 C94 1.247 . S
O88 Zn80 1.906 . S
O88 C96 1.304 . S
O89 Zn77 1.924 . S
O89 C97 1.311 . S
O90 Zn81 1.977 1_565 S
O90 C96 1.272 . S
O91 Zn81 1.910 1_655 S
O91 C97 1.231 . S
C92 O76 1.225 . S
C92 O98 1.298 . S
C93 O82 1.226 . S
C93 O83 1.307 . S
C94 O86 1.303 . S
C94 O87 1.247 . S
C95 O84 1.253 . S
C95 O85 1.283 1_655 S
C96 O88 1.304 . S
C96 O90 1.272 . S
C97 O89 1.311 . S
C97 O91 1.231 . S
O98 Zn80 1.953 1_655 S
O98 C92 1.298 . S
O99 Zn100 1.953 . S
O99 C115 1.225 . S
Zn100 O99 1.953 . S
Zn100 O101 1.949 . S
Zn100 O107 1.919 1_554 S
Zn100 O112 1.924 . S
O101 Zn100 1.949 . S
O101 Zn102 1.923 1_554 S
O101 Zn103 1.950 . S
O101 Zn104 1.945 . S
Zn102 O101 1.923 1_556 S
Zn102 O105 1.933 . S
Zn102 O108 1.941 . S
Zn102 O109 1.965 . S
Zn103 O101 1.950 . S
Zn103 O110 1.938 1_554 S
Zn103 O111 1.906 . S
Zn103 O121 1.953 . S
Zn104 O101 1.945 . S
Zn104 O106 1.932 . S
Zn104 O113 1.977 . S
Zn104 O114 1.910 . S
O105 Zn102 1.933 . S
O105 C116 1.226 1_556 S
O106 Zn104 1.932 . S
O106 C116 1.307 . S
O107 Zn100 1.919 1_556 S
O107 C118 1.253 . S
O108 Zn102 1.941 . S
O108 C118 1.283 . S
O109 Zn102 1.965 . S
O109 C117 1.303 . S
O110 Zn103 1.938 1_556 S
O110 C117 1.247 . S
O111 Zn103 1.906 . S
O111 C119 1.304 . S
O112 Zn100 1.924 . S
O112 C120 1.311 . S
O113 Zn104 1.977 . S
O113 C119 1.272 . S
O114 Zn104 1.910 . S
O114 C120 1.231 . S
C115 O99 1.225 . S
C115 O121 1.298 . S
C116 O105 1.226 1_554 S
C116 O106 1.307 . S
C117 O109 1.303 . S
C117 O110 1.247 . S
C118 O107 1.253 . S
C118 O108 1.283 . S
C119 O111 1.304 . S
C119 O113 1.272 . S
C120 O112 1.311 . S
C120 O114 1.231 . S
O121 Zn103 1.953 . S
O121 C115 1.298 . S
C122 C123 1.363 . S
C122 C128 1.379 . S
C122 N130 1.356 . S
C123 C122 1.363 . S
C123 C129 1.363 . S
C124 C125 1.363 . S
C124 C129 1.379 . S
C124 N131 1.356 . S
C125 C124 1.363 . S
C125 C128 1.363 . S
N126 C128 1.356 . S
N126 H138 0.984 . S
N126 H139 0.985 . S
N127 C129 1.356 . S
N127 H132 0.984 . S
N127 H133 0.985 . S
C128 C122 1.379 . S
C128 C125 1.363 . S
C128 N126 1.356 . S
C129 C123 1.363 . S
C129 C124 1.379 . S
C129 N127 1.356 . S
N130 C122 1.356 . S
N130 H136 0.984 . S
N130 H137 0.984 . S
N131 C124 1.356 . S
N131 H134 0.984 . S
N131 H135 0.985 . S
H132 N127 0.984 . S
H133 N127 0.985 . S
H134 N131 0.984 . S
H135 N131 0.985 . S
H136 N130 0.984 . S
H137 N130 0.984 . S
H138 N126 0.984 . S
H139 N126 0.985 . S
C140 C141 1.363 1_556 S
C140 C146 1.379 . S
C140 N148 1.356 . S
C141 C140 1.363 1_554 S
C141 C147 1.363 . S
C142 C143 1.363 . S
C142 C147 1.379 . S
C142 N149 1.356 . S
C143 C142 1.363 . S
C143 C146 1.363 1_554 S
N144 C146 1.356 . S
N144 H156 0.984 . S
N144 H157 0.985 . S
N145 C147 1.356 . S
N145 H150 0.984 . S
N145 H151 0.985 . S
C146 C140 1.379 . S
C146 C143 1.363 1_556 S
C146 N144 1.356 . S
C147 C141 1.363 . S
C147 C142 1.379 . S
C147 N145 1.356 . S
N148 C140 1.356 . S
N148 H154 0.984 . S
N148 H155 0.984 . S
N149 C142 1.356 . S
N149 H152 0.984 . S
N149 H153 0.985 . S
H150 N145 0.984 . S
H151 N145 0.985 . S
H152 N149 0.984 . S
H153 N149 0.985 . S
H154 N148 0.984 . S
H155 N148 0.984 . S
H156 N144 0.984 . S
H157 N144 0.985 . S
C158 C159 1.363 . S
C158 C164 1.379 . S
C158 N166 1.356 . S
C159 C158 1.363 . S
C159 C165 1.363 . S
C160 C161 1.363 . S
C160 C165 1.379 . S
C160 N167 1.356 . S
C161 C160 1.363 . S
C161 C164 1.363 . S
N162 C164 1.356 . S
N162 H174 0.984 . S
N162 H175 0.985 . S
N163 C165 1.356 . S
N163 H168 0.984 . S
N163 H169 0.985 . S
C164 C158 1.379 . S
C164 C161 1.363 . S
C164 N162 1.356 . S
C165 C159 1.363 . S
C165 C160 1.379 . S
C165 N163 1.356 . S
N166 C158 1.356 . S
N166 H172 0.984 . S
N166 H173 0.984 . S
N167 C160 1.356 . S
N167 H170 0.984 . S
N167 H171 0.985 . S
H168 N163 0.984 . S
H169 N163 0.985 . S
H170 N167 0.984 . S
H171 N167 0.985 . S
H172 N166 0.984 . S
H173 N166 0.984 . S
H174 N162 0.984 . S
H175 N162 0.985 . S
C176 C177 1.363 1_556 S
C176 C182 1.379 . S
C176 N184 1.356 . S
C177 C176 1.363 1_554 S
C177 C183 1.363 . S
C178 C179 1.363 . S
C178 C183 1.379 . S
C178 N185 1.356 . S
C179 C178 1.363 . S
C179 C182 1.363 1_554 S
N180 C182 1.356 . S
N180 H192 0.984 . S
N180 H193 0.985 . S
N181 C183 1.356 . S
N181 H186 0.984 . S
N181 H187 0.985 . S
C182 C176 1.379 . S
C182 C179 1.363 1_556 S
C182 N180 1.356 . S
C183 C177 1.363 . S
C183 C178 1.379 . S
C183 N181 1.356 . S
N184 C176 1.356 . S
N184 H190 0.984 . S
N184 H191 0.984 . S
N185 C178 1.356 . S
N185 H188 0.984 . S
N185 H189 0.985 . S
H186 N181 0.984 . S
H187 N181 0.985 . S
H188 N185 0.984 . S
H189 N185 0.985 . S
H190 N184 0.984 . S
H191 N184 0.984 . S
H192 N180 0.984 . S
H193 N180 0.985 . S
C194 C195 1.363 . S
C194 C200 1.379 . S
C194 N202 1.356 . S
C195 C194 1.363 . S
C195 C201 1.363 . S
C196 C197 1.363 . S
C196 C201 1.379 . S
C196 N203 1.356 . S
C197 C196 1.363 . S
C197 C200 1.363 . S
N198 C200 1.356 . S
N198 H210 0.984 . S
N198 H211 0.985 . S
N199 C201 1.356 . S
N199 H204 0.984 . S
N199 H205 0.985 . S
C200 C194 1.379 . S
C200 C197 1.363 . S
C200 N198 1.356 . S
C201 C195 1.363 . S
C201 C196 1.379 . S
C201 N199 1.356 . S
N202 C194 1.356 . S
N202 H208 0.984 . S
N202 H209 0.984 . S
N203 C196 1.356 . S
N203 H206 0.984 . S
N203 H207 0.985 . S
H204 N199 0.984 . S
H205 N199 0.985 . S
H206 N203 0.984 . S
H207 N203 0.985 . S
H208 N202 0.984 . S
H209 N202 0.984 . S
H210 N198 0.984 . S
H211 N198 0.985 . S
C212 C213 1.363 . S
C212 C218 1.379 . S
C212 N220 1.356 . S
C213 C212 1.363 . S
C213 C219 1.363 . S
C214 C215 1.363 . S
C214 C219 1.379 . S
C214 N221 1.356 . S
C215 C214 1.363 . S
C215 C218 1.363 . S
N216 C218 1.356 . S
N216 H228 0.984 . S
N216 H229 0.985 . S
N217 C219 1.356 . S
N217 H222 0.984 . S
N217 H223 0.985 . S
C218 C212 1.379 . S
C218 C215 1.363 . S
C218 N216 1.356 . S
C219 C213 1.363 . S
C219 C214 1.379 . S
C219 N217 1.356 . S
N220 C212 1.356 . S
N220 H226 0.984 . S
N220 H227 0.984 . S
N221 C214 1.356 . S
N221 H224 0.984 . S
N221 H225 0.985 . S
H222 N217 0.984 . S
H223 N217 0.985 . S
H224 N221 0.984 . S
H225 N221 0.985 . S
H226 N220 0.984 . S
H227 N220 0.984 . S
H228 N216 0.984 . S
H229 N216 0.985 . S
C230 C231 1.363 . S
C230 C236 1.379 . S
C230 N238 1.356 . S
C231 C230 1.363 . S
C231 C237 1.363 . S
C232 C233 1.363 . S
C232 C237 1.379 . S
C232 N239 1.356 . S
C233 C232 1.363 . S
C233 C236 1.363 . S
N234 C236 1.356 . S
N234 H246 0.984 . S
N234 H247 0.985 . S
N235 C237 1.356 . S
N235 H240 0.984 . S
N235 H241 0.985 . S
C236 C230 1.379 . S
C236 C233 1.363 . S
C236 N234 1.356 . S
C237 C231 1.363 . S
C237 C232 1.379 . S
C237 N235 1.356 . S
N238 C230 1.356 . S
N238 H244 0.984 . S
N238 H245 0.984 . S
N239 C232 1.356 . S
N239 H242 0.984 . S
N239 H243 0.985 . S
H240 N235 0.984 . S
H241 N235 0.985 . S
H242 N239 0.984 . S
H243 N239 0.985 . S
H244 N238 0.984 . S
H245 N238 0.984 . S
H246 N234 0.984 . S
H247 N234 0.985 . S
C248 C249 1.363 . S
C248 C254 1.379 . S
C248 N256 1.356 . S
C249 C248 1.363 . S
C249 C255 1.363 . S
C250 C251 1.363 . S
C250 C255 1.379 . S
C250 N257 1.356 . S
C251 C250 1.363 . S
C251 C254 1.363 . S
N252 C254 1.356 . S
N252 H264 0.984 . S
N252 H265 0.985 . S
N253 C255 1.356 . S
N253 H258 0.984 . S
N253 H259 0.985 . S
C254 C248 1.379 . S
C254 C251 1.363 . S
C254 N252 1.356 . S
C255 C249 1.363 . S
C255 C250 1.379 . S
C255 N253 1.356 . S
N256 C248 1.356 . S
N256 H262 0.984 . S
N256 H263 0.984 . S
N257 C250 1.356 . S
N257 H260 0.984 . S
N257 H261 0.985 . S
H258 N253 0.984 . S
H259 N253 0.985 . S
H260 N257 0.984 . S
H261 N257 0.985 . S
H262 N256 0.984 . S
H263 N256 0.984 . S
H264 N252 0.984 . S
H265 N252 0.985 . S
C266 C267 1.363 . S
C266 C272 1.379 . S
C266 N274 1.356 . S
C267 C266 1.363 . S
C267 C273 1.363 . S
C268 C269 1.363 . S
C268 C273 1.379 . S
C268 N275 1.356 . S
C269 C268 1.363 . S
C269 C272 1.363 . S
N270 C272 1.356 . S
N270 H282 0.984 . S
N270 H283 0.985 . S
N271 C273 1.356 . S
N271 H276 0.984 . S
N271 H277 0.985 . S
C272 C266 1.379 . S
C272 C269 1.363 . S
C272 N270 1.356 . S
C273 C267 1.363 . S
C273 C268 1.379 . S
C273 N271 1.356 . S
N274 C266 1.356 . S
N274 H280 0.984 . S
N274 H281 0.984 . S
N275 C268 1.356 . S
N275 H278 0.984 . S
N275 H279 0.985 . S
H276 N271 0.984 . S
H277 N271 0.985 . S
H278 N275 0.984 . S
H279 N275 0.985 . S
H280 N274 0.984 . S
H281 N274 0.984 . S
H282 N270 0.984 . S
H283 N270 0.985 . S
C284 C285 1.363 . S
C284 C290 1.379 . S
C284 N292 1.356 . S
C285 C284 1.363 . S
C285 C291 1.363 . S
C286 C287 1.363 . S
C286 C291 1.379 . S
C286 N293 1.356 . S
C287 C286 1.363 . S
C287 C290 1.363 . S
N288 C290 1.356 . S
N288 H300 0.984 . S
N288 H301 0.997 . S
N289 C291 1.356 . S
N289 H294 0.984 . S
N289 H295 0.985 . S
C290 C284 1.379 . S
C290 C287 1.363 . S
C290 N288 1.356 . S
C291 C285 1.363 . S
C291 C286 1.379 . S
C291 N289 1.356 . S
N292 C284 1.356 . S
N292 H298 0.984 1_556 S
N292 H299 0.984 1_556 S
N293 C286 1.356 . S
N293 H296 0.984 . S
N293 H297 0.985 . S
H294 N289 0.984 . S
H295 N289 0.985 . S
H296 N293 0.984 . S
H297 N293 0.985 . S
H298 N292 0.984 1_554 S
H299 N292 0.984 1_554 S
H300 N288 0.984 . S
H301 N288 0.997 . S
C302 C303 1.363 . S
C302 C308 1.379 . S
C302 N310 1.356 . S
C303 C302 1.363 . S
C303 C309 1.363 . S
C304 C305 1.363 . S
C304 C309 1.379 . S
C304 N311 1.356 . S
C305 C304 1.363 . S
C305 C308 1.363 . S
N306 C308 1.356 . S
N306 H318 0.984 . S
N306 H319 0.985 . S
N307 C309 1.356 . S
N307 H312 0.984 . S
N307 H313 0.985 . S
C308 C302 1.379 . S
C308 C305 1.363 . S
C308 N306 1.356 . S
C309 C303 1.363 . S
C309 C304 1.379 . S
C309 N307 1.356 . S
N310 C302 1.356 . S
N310 H316 0.984 . S
N310 H317 0.984 . S
N311 C304 1.356 . S
N311 H314 0.984 . S
N311 H315 0.985 . S
H312 N307 0.984 . S
H313 N307 0.985 . S
H314 N311 0.984 . S
H315 N311 0.985 . S
H316 N310 0.984 . S
H317 N310 0.984 . S
H318 N306 0.984 . S
H319 N306 0.985 . S
C320 C321 1.363 . S
C320 C326 1.379 . S
C320 N328 1.356 . S
C321 C320 1.363 . S
C321 C327 1.363 . S
C322 C323 1.363 . S
C322 C327 1.379 . S
C322 N329 1.356 . S
C323 C322 1.363 . S
C323 C326 1.363 . S
N324 C326 1.356 . S
N324 H336 0.984 . S
N324 H337 0.985 . S
N325 C327 1.356 . S
N325 H330 0.984 1_556 S
N325 H331 0.985 . S
C326 C320 1.379 . S
C326 C323 1.363 . S
C326 N324 1.356 . S
C327 C321 1.363 . S
C327 C322 1.379 . S
C327 N325 1.356 . S
N328 C320 1.356 . S
N328 H334 0.984 . S
N328 H335 0.984 . S
N329 C322 1.356 . S
N329 H332 0.984 . S
N329 H333 0.985 . S
H330 N325 0.984 1_554 S
H331 N325 0.985 . S
H332 N329 0.984 . S
H333 N329 0.985 . S
H334 N328 0.984 . S
H335 N328 0.984 . S
H336 N324 0.984 . S
H337 N324 0.985 . S
C125 C93 1.525 . S
C123 C68 1.387 . S
C141 C11 1.389 . S
C143 C116 1.527 . S
C159 C30 1.431 . S
C161 C92 1.546 . S
C177 C49 1.412 . S
C179 C115 1.547 . S
C197 C96 1.537 . S
C195 C2 1.540 . S
C215 C118 1.534 . S
C213 C25 1.602 . S
C231 C40 1.569 . S
C233 C97 1.532 . S
C249 C59 1.561 . S
C251 C117 1.523 . S
C269 C120 1.433 . S
C267 C21 1.467 . S
C287 C95 1.442 . S
C285 C44 1.518 . S
C305 C119 1.441 . S
C303 C63 1.494 . S
C321 C6 1.500 . S
C323 C94 1.438 . S
