# Generated by pormake.
# Topology rtl, (3,6)-cn, num edge types: 1
# Building blocks:
#     Node 0, Type 0, BuildingBlock: BETDAH_clean_linker_0, # of connection points: 3
#     Node 1, Type 0, BuildingBlock: BETDAH_clean_linker_0, # of connection points: 3
#     Node 2, Type 0, BuildingBlock: BETDAH_clean_linker_0, # of connection points: 3
#     Node 3, Type 0, BuildingBlock: BETDAH_clean_linker_0, # of connection points: 3
#     Node 4, Type 1, BuildingBlock: KUMJIN_clean_sbu_1, # of connection points: 6
#     Node 5, Type 1, BuildingBlock: KUMJIN_clean_sbu_1, # of connection points: 6
#     Edge 6, Type (0, 1), BuildingBlock: XUDNAN_clean_linker_2, # of connection points: 2
#     Edge 7, Type (0, 1), BuildingBlock: XUDNAN_clean_linker_2, # of connection points: 2
#     Edge 8, Type (0, 1), BuildingBlock: XUDNAN_clean_linker_2, # of connection points: 2
#     Edge 9, Type (0, 1), BuildingBlock: XUDNAN_clean_linker_2, # of connection points: 2
#     Edge 10, Type (0, 1), BuildingBlock: XUDNAN_clean_linker_2, # of connection points: 2
#     Edge 11, Type (0, 1), BuildingBlock: XUDNAN_clean_linker_2, # of connection points: 2
#     Edge 12, Type (0, 1), BuildingBlock: XUDNAN_clean_linker_2, # of connection points: 2
#     Edge 13, Type (0, 1), BuildingBlock: XUDNAN_clean_linker_2, # of connection points: 2
#     Edge 14, Type (0, 1), BuildingBlock: XUDNAN_clean_linker_2, # of connection points: 2
#     Edge 15, Type (0, 1), BuildingBlock: XUDNAN_clean_linker_2, # of connection points: 2
#     Edge 16, Type (0, 1), BuildingBlock: XUDNAN_clean_linker_2, # of connection points: 2
#     Edge 17, Type (0, 1), BuildingBlock: XUDNAN_clean_linker_2, # of connection points: 2
# Relax obj value: 0.049
# Max RMSD: 0.218
# Mean RMSD: 0.157
data_MOF--net-rtl--node1-KUMJIN_clean_sbu_1--node2-BETDAH_clean_linker_0--edge1-XUDNAN_clean_linker_2
_symmetry_space_group_name_H-M    P1
_symmetry_Int_Tables_number       1
_symmetry_cell_setting            triclinic
loop_
_symmetry_equiv_pos_as_xyz
'x, y, z'
_cell_length_a     35.372695
_cell_length_b     35.586431
_cell_length_c     27.126407
_cell_angle_alpha  78.158215
_cell_angle_beta   100.96844
_cell_angle_gamma 91.623043
loop_
_atom_site_label
_atom_site_type_symbol
_atom_site_fract_x
_atom_site_fract_y
_atom_site_fract_z
_atom_type_partial_charge
H0 H 0.13237 0.86959 0.98795 0.0
H1 H 0.20177 0.79606 0.11668 0.0
H2 H 0.21526 0.79219 0.96331 0.0
C3 C 0.15536 0.84844 1.0031 0.0
C4 C 0.17307 0.833 0.9694 0.0
C5 C 0.16524 0.83475 0.05607 0.0
C6 C 0.19409 0.80668 0.07559 0.0
C7 C 0.21288 0.79168 0.0428 0.0
C8 C 0.20189 0.80443 0.98928 0.0
N9 N 0.24192 0.76337 0.06579 0.0
C10 C 0.26342 0.74436 0.04039 0.0
H11 H 0.64968 0.63135 0.65706 0.0
H12 H 0.73092 0.71257 0.59742 0.0
H13 H 0.708 0.70831 0.74866 0.0
C14 C 0.67062 0.65376 0.66212 0.0
C15 C 0.67651 0.66787 0.70755 0.0
C16 C 0.6898 0.67 0.62192 0.0
C17 C 0.71587 0.70018 0.62807 0.0
C18 C 0.72306 0.71351 0.67438 0.0
C19 C 0.70309 0.69739 0.7135 0.0
N20 N 0.75028 0.74263 0.6838 0.0
C21 C 0.76721 0.7673 0.64743 0.0
H22 H 0.86603 0.13016 0.09549 0.0
H23 H 0.81565 0.22351 0.14071 0.0
H24 H 0.82761 0.23321 0.98444 0.0
C25 C 0.8532 0.15865 0.08556 0.0
C26 C 0.84733 0.17901 0.03442 0.0
C27 C 0.84248 0.17464 0.12436 0.0
C28 C 0.82378 0.21075 0.1112 0.0
C29 C 0.81825 0.23156 0.06034 0.0
C30 C 0.83079 0.21597 0.0229 0.0
N31 N 0.80279 0.26941 0.04575 0.0
C32 C 0.77437 0.28328 0.06653 0.0
H33 H 0.36969 0.38368 0.4403 0.0
H34 H 0.2888 0.30252 0.50203 0.0
H35 H 0.33166 0.28903 0.36865 0.0
C36 C 0.35147 0.35882 0.43847 0.0
C37 C 0.35221 0.33867 0.39931 0.0
C38 C 0.32927 0.34578 0.47663 0.0
C39 C 0.30643 0.31277 0.47357 0.0
C40 C 0.30723 0.29232 0.4345 0.0
C41 C 0.33064 0.30513 0.39826 0.0
N42 N 0.28653 0.25777 0.43152 0.0
C43 C 0.25377 0.24661 0.45208 0.0
Eu44 Eu 0.03735 0.97375 0.50867 0.0
C45 C 0.01775 0.12981 0.57155 0.0
N46 N 0.02964 0.09606 0.60346 0.0
C47 C 0.08387 0.12707 0.64531 0.0
C48 C 0.0394 0.16349 0.57373 0.0
C49 C 0.06135 0.09444 0.64149 0.0
C50 C 0.07322 0.16161 0.61065 0.0
C51 C 0.96695 0.16635 0.50934 0.0
C52 C 0.98227 0.13113 0.53969 0.0
C53 C 0.98955 0.19953 0.5083 0.0
C54 C 0.02579 0.19809 0.54049 0.0
Eu55 Eu 0.9928 0.04107 0.59057 0.0
N56 N 0.96104 0.09874 0.54273 0.0
C57 C 0.92865 0.16752 0.48341 0.0
C58 C 0.92258 0.10072 0.52239 0.0
C59 C 0.90606 0.13476 0.49112 0.0
H60 H 0.07001 0.06753 0.66759 0.0
H61 H 0.87589 0.13577 0.47334 0.0
H62 H 0.01999 0.88108 0.54556 0.0
H63 H 0.18054 0.03966 0.5167 0.0
H64 H 0.90487 0.07564 0.52949 0.0
H65 H 0.91574 0.19398 0.45966 0.0
H66 H 0.11289 0.0311 0.47862 0.0
H67 H 0.10953 0.12548 0.67467 0.0
H68 H 0.97857 0.22675 0.48455 0.0
H69 H 0.04231 0.22417 0.54088 0.0
H70 H 0.05163 0.82384 0.60632 0.0
H71 H 0.09061 0.18687 0.6137 0.0
H72 H 0.2122 0.99361 0.59375 0.0
N73 N 0.06692 0.91772 0.56247 0.0
C74 C 0.10347 0.92085 0.58759 0.0
C75 C 0.06645 0.851 0.60161 0.0
C76 C 0.12242 0.88937 0.6231 0.0
C77 C 0.04867 0.88324 0.56728 0.0
C78 C 0.10322 0.85425 0.63038 0.0
N79 N 0.10439 0.98318 0.53711 0.0
C80 C 0.12557 0.01173 0.51368 0.0
C81 C 0.1617 0.95807 0.59749 0.0
C82 C 0.12261 0.95493 0.57517 0.0
C83 C 0.18209 0.99017 0.57794 0.0
C84 C 0.16429 0.01634 0.53462 0.0
H85 H 0.11682 0.82934 0.65724 0.0
H86 H 0.17497 0.87006 0.67711 0.0
H87 H 0.20957 0.93022 0.65438 0.0
O88 O 0.06841 0.94903 0.46063 0.0
O89 O 0.0273 0.95213 0.59007 0.0
O90 O 0.04535 0.00369 0.62592 0.0
O91 O 1.00677 0.9532 0.44112 0.0
O92 O 0.0492 0.03779 0.49352 0.0
O93 O 0.05372 0.04501 0.57533 0.0
O94 O 0.9818 0.00585 0.66263 0.0
O95 O 0.95814 0.03735 0.51155 0.0
O96 O 1.00339 0.02741 0.46404 0.0
O97 O 0.96334 0.065 0.64121 0.0
O98 O 0.95211 0.99404 0.56589 0.0
O99 O 0.9806 0.9499 0.52935 0.0
C100 C 0.04352 0.96652 0.62964 0.0
C101 C 0.04179 0.96372 0.37365 0.0
C102 C 0.05582 0.95805 0.29062 0.0
C103 C 0.05458 0.9984 0.27581 0.0
C104 C 0.04193 0.00382 0.35861 0.0
C105 C 0.04816 0.021 0.30986 0.0
C106 C 0.04906 0.94094 0.33988 0.0
C107 C 0.05953 0.05822 0.52883 0.0
C108 C 0.03819 0.94586 0.42636 0.0
C109 C 0.16018 0.89363 0.64882 0.0
C110 C 0.17981 0.92797 0.63604 0.0
C111 C 0.96893 0.03864 0.46729 0.0
C112 C 0.98314 0.04023 0.72915 0.0
C113 C 0.97353 0.06544 0.8035 0.0
C114 C 0.01315 0.05956 0.82397 0.0
C115 C 0.02231 0.03411 0.75074 0.0
C116 C 0.95885 0.05501 0.75605 0.0
C117 C 0.03711 0.04364 0.79801 0.0
C118 C 0.95214 0.96189 0.54803 0.0
C119 C 0.96756 0.03421 0.67705 0.0
H120 H 0.05881 0.01263 0.238 0.0
H121 H 0.03808 0.02176 0.38502 0.0
H122 H 0.04822 0.052 0.2985 0.0
H123 H 0.0509 0.91004 0.35291 0.0
H124 H 0.02607 0.06799 0.85948 0.0
H125 H 0.04153 0.02259 0.73074 0.0
H126 H 0.9285 0.05864 0.73935 0.0
H127 H 0.06747 0.03944 0.81417 0.0
Eu128 Eu 0.47528 0.47209 1.00246 0.0
C129 C 0.61609 0.56841 0.04341 0.0
N130 N 0.60643 0.5357 0.07402 0.0
C131 C 0.66854 0.50837 0.07836 0.0
C132 C 0.65174 0.57152 0.02688 0.0
C133 C 0.63313 0.50701 0.09441 0.0
C134 C 0.67758 0.54045 0.04357 0.0
C135 C 0.60077 0.63464 1.001 0.0
C136 C 0.591 0.59959 0.03049 0.0
C137 C 0.63557 0.63738 0.98285 0.0
C138 C 0.66093 0.60584 0.99559 0.0
Eu139 Eu 0.54396 0.53492 0.09463 0.0
N140 N 0.55684 0.59559 0.0468 0.0
C141 C 0.57516 0.66583 0.99059 0.0
C142 C 0.53224 0.62612 0.0382 0.0
C143 C 0.54093 0.66164 0.00973 0.0
H144 H 0.62762 0.48324 0.12377 0.0
H145 H 0.52118 0.6857 1.0024 0.0
H146 H 0.38736 0.5015 1.00613 0.0
H147 H 0.53781 0.32696 0.06221 0.0
H148 H 0.50585 0.62283 0.05312 0.0
H149 H 0.58164 0.69326 0.96811 0.0
H150 H 0.53125 0.39378 0.01383 0.0
H151 H 0.68908 0.48494 0.09351 0.0
H152 H 0.64332 0.66388 0.9594 0.0
H153 H 0.68799 0.60859 0.98207 0.0
H154 H 0.33093 0.47664 0.04417 0.0
H155 H 0.70518 0.54161 0.03156 0.0
H156 H 0.48895 0.29985 0.11354 0.0
N157 N 0.42036 0.45029 0.03721 0.0
C158 C 0.4212 0.41339 0.06353 0.0
C159 C 0.35627 0.45869 0.05025 0.0
C160 C 0.38999 0.39817 0.08635 0.0
C161 C 0.38816 0.47272 0.02891 0.0
C162 C 0.35728 0.42135 0.07938 0.0
N163 N 0.4821 0.40612 0.04261 0.0
C164 C 0.51097 0.38304 0.0383 0.0
C165 C 0.45503 0.35236 0.09383 0.0
C166 C 0.45336 0.3909 0.06717 0.0
C167 C 0.48655 0.32959 0.09348 0.0
C168 C 0.51425 0.34481 0.06471 0.0
H169 H 0.33247 0.41053 0.0957 0.0
H170 H 0.36879 0.34825 0.13325 0.0
H171 H 0.42577 0.30809 0.13981 0.0
O172 O 0.46479 0.43741 0.94369 0.0
O173 O 0.46255 0.47808 0.07999 0.0
O174 O 0.52129 0.47806 0.13242 0.0
O175 O 0.43645 0.49234 0.92859 0.0
O176 O 0.54005 0.46086 0.02098 0.0
O177 O 0.55911 0.4719 0.1029 0.0
O178 O 0.52926 0.56519 0.15159 0.0
O179 O 0.52639 0.55569 0.00838 0.0
O180 O 0.52675 0.50258 0.97359 0.0
O181 O 0.58605 0.54115 0.16243 0.0
O182 O 0.47981 0.55051 0.07496 0.0
O183 O 0.45536 0.53366 0.99596 0.0
C184 C 0.48544 0.46675 0.12435 0.0
C185 C 0.40507 0.44393 0.88707 0.0
C186 C 0.3683 0.42248 0.81199 0.0
C187 C 0.34177 0.40515 0.84201 0.0
C188 C 0.3783 0.4262 0.91622 0.0
C189 C 0.3467 0.40723 0.89367 0.0
C190 C 0.3998 0.44226 0.83477 0.0
C191 C 0.56239 0.45336 0.06661 0.0
C192 C 0.44023 0.46126 0.91155 0.0
C193 C 0.39225 0.36032 0.11478 0.0
C194 C 0.42476 0.33749 0.11863 0.0
C195 C 0.53481 0.53883 0.97315 0.0
C196 C 0.58128 0.59517 0.1983 0.0
C197 C 0.61041 0.62507 0.27021 0.0
C198 C 0.62118 0.65632 0.23472 0.0
C199 C 0.59262 0.62656 0.16406 0.0
C200 C 0.58995 0.59466 0.25128 0.0
C201 C 0.61209 0.65708 0.18216 0.0
C202 C 0.45447 0.55436 0.03123 0.0
C203 C 0.5636 0.56129 0.17995 0.0
H204 H 0.31712 0.39008 0.82544 0.0
H205 H 0.3821 0.42633 0.95655 0.0
H206 H 0.3262 0.39362 0.91651 0.0
H207 H 0.42088 0.45518 0.81235 0.0
H208 H 0.63766 0.67981 0.24742 0.0
H209 H 0.58733 0.62723 0.12349 0.0
H210 H 0.58113 0.5703 0.27758 0.0
H211 H 0.62098 0.68105 0.15538 0.0
H212 H 0.24422 0.19166 0.53478 0.0
H213 H 0.18351 0.26235 0.39415 0.0
H214 H 0.12398 0.22574 0.40417 0.0
H215 H 0.2054 0.10601 0.51543 0.0
H216 H 0.20069 0.08584 0.58068 0.0
H217 H 0.23665 0.12137 0.56809 0.0
H218 H 0.2094 0.16392 0.61947 0.0
H219 H 0.17306 0.12875 0.63286 0.0
H220 H 0.15928 0.17774 0.60293 0.0
H221 H 0.07515 0.17503 0.42101 0.0
H222 H 0.03841 0.11654 0.44746 0.0
H223 H 0.12857 0.0799 0.5801 0.0
C224 C 0.2179 0.20023 0.50734 0.0
C225 C 0.21793 0.23016 0.46419 0.0
C226 C 0.1836 0.23995 0.42793 0.0
C227 C 0.14974 0.21925 0.43329 0.0
C228 C 0.1507 0.1891 0.47548 0.0
C229 C 0.18367 0.18 0.51248 0.0
C230 C 0.17771 0.14441 0.55193 0.0
C231 C 0.20682 0.11251 0.55411 0.0
C232 C 0.17998 0.1543 0.60495 0.0
C233 C 0.13701 0.13385 0.52991 0.0
C234 C 0.12187 0.16023 0.486 0.0
C235 C 0.08628 0.15474 0.45602 0.0
C236 C 0.06573 0.1214 0.47108 0.0
C237 C 0.08049 0.09429 0.51609 0.0
C238 C 0.11632 0.10083 0.54622 0.0
H239 H 0.33079 0.71558 0.09647 0.0
H240 H 0.25322 0.71767 0.95171 0.0
H241 H 0.29557 0.67073 0.93116 0.0
H242 H 0.42096 0.70535 0.05143 0.0
H243 H 0.4424 0.67372 0.11038 0.0
H244 H 0.4077 0.70964 0.11102 0.0
H245 H 0.3663 0.65673 0.15543 0.0
H246 H 0.40072 0.62069 0.1546 0.0
H247 H 0.35088 0.61653 0.12579 0.0
H248 H 0.34489 0.62058 0.92971 0.0
H249 H 0.39691 0.57231 0.9461 0.0
H250 H 0.44142 0.60304 0.09308 0.0
C251 C 0.32325 0.70662 0.06002 0.0
C252 C 0.2893 0.72024 0.02518 0.0
C253 C 0.27954 0.70764 0.97836 0.0
C254 C 0.30335 0.68104 0.96656 0.0
C255 C 0.33658 0.66757 1.00216 0.0
C256 C 0.34659 0.68015 0.04784 0.0
C257 C 0.38272 0.66009 0.08067 0.0
C258 C 0.41538 0.68892 0.08884 0.0
C259 C 0.37465 0.63715 0.13215 0.0
C260 C 0.39123 0.63374 0.04682 0.0
C261 C 0.3645 0.63861 1.00157 0.0
C262 C 0.36609 0.61675 0.96487 0.0
C263 C 0.39577 0.5893 0.97465 0.0
C264 C 0.42343 0.58374 0.02093 0.0
C265 C 0.42093 0.60648 0.05726 0.0
H266 H 0.84141 0.76805 0.63352 0.0
H267 H 0.73672 0.83633 0.59866 0.0
H268 H 0.77181 0.89317 0.56173 0.0
H269 H 0.90363 0.8375 0.67376 0.0
H270 H 0.94336 0.82599 0.64638 0.0
H271 H 0.90928 0.78955 0.66387 0.0
H272 H 0.8956 0.77702 0.5714 0.0
H273 H 0.92998 0.81325 0.55374 0.0
H274 H 0.88129 0.81645 0.518 0.0
H275 H 0.82005 0.94421 0.54057 0.0
H276 H 0.87702 0.98492 0.53003 0.0
H277 H 0.95035 0.88338 0.57428 0.0
C278 C 0.82576 0.79472 0.61645 0.0
C279 C 0.78631 0.79795 0.61784 0.0
C280 C 0.7668 0.83336 0.59688 0.0
C281 C 0.78655 0.86574 0.57604 0.0
C282 C 0.82574 0.86205 0.57619 0.0
C283 C 0.84507 0.82729 0.59511 0.0
C284 C 0.88768 0.83168 0.59348 0.0
C285 C 0.91242 0.82052 0.64759 0.0
C286 C 0.89931 0.8082 0.55697 0.0
C287 C 0.88947 0.87446 0.57219 0.0
C288 C 0.85341 0.89143 0.56249 0.0
C289 C 0.84827 0.93112 0.54692 0.0
C290 C 0.88076 0.95403 0.54124 0.0
C291 C 0.91788 0.93721 0.5505 0.0
C292 C 0.92213 0.89686 0.56557 0.0
H293 H 0.72468 0.33241 0.99861 0.0
H294 H 0.75442 0.27916 0.15966 0.0
H295 H 0.70169 0.31608 0.17767 0.0
H296 H 0.70306 0.42578 0.01588 0.0
H297 H 0.6638 0.43479 0.96169 0.0
H298 H 0.70287 0.40334 0.96196 0.0
H299 H 0.65417 0.34905 0.94659 0.0
H300 H 0.61505 0.38047 0.9463 0.0
H301 H 0.62119 0.33455 0.98998 0.0
H302 H 0.6468 0.36094 0.17742 0.0
H303 H 0.59401 0.40891 0.15931 0.0
H304 H 0.60065 0.43206 0.99792 0.0
C305 C 0.71977 0.3284 0.03758 0.0
C306 C 0.74309 0.30308 0.0779 0.0
C307 C 0.73645 0.29848 0.12847 0.0
C308 C 0.70669 0.3193 0.1389 0.0
C309 C 0.68412 0.34438 0.09818 0.0
C310 C 0.69032 0.3489 0.04849 0.0
C311 C 0.66266 0.37807 0.01165 0.0
C312 C 0.68441 0.41253 0.98632 0.0
C313 C 0.63673 0.35941 0.97125 0.0
C314 C 0.63991 0.38945 0.04825 0.0
C315 C 0.65268 0.36979 0.098 0.0
C316 C 0.63652 0.37631 0.13857 0.0
C317 C 0.60666 0.40365 0.12797 0.0
C318 C 0.59323 0.424 0.07722 0.0
C319 C 0.61006 0.4166 0.03698 0.0
H320 H 0.1687 0.90423 0.0847 0.0
H321 H 0.11355 0.79338 0.10618 0.0
H322 H 0.07717 0.81362 0.16609 0.0
H323 H 0.18112 0.91324 0.21586 0.0
H324 H 0.17253 0.96437 0.20094 0.0
H325 H 0.19222 0.94191 0.15752 0.0
H326 H 0.13651 0.9708 0.08367 0.0
H327 H 0.11659 0.99326 0.12696 0.0
H328 H 0.08736 0.96178 0.09147 0.0
H329 H 0.04702 0.84611 0.22337 0.0
H330 H 0.02786 0.88685 0.27804 0.0
H331 H 0.10669 0.97474 0.22395 0.0
C332 C 0.14868 0.88451 0.10184 0.0
C333 C 0.14343 0.84746 0.09095 0.0
C334 C 0.1176 0.82194 0.11429 0.0
C335 C 0.09685 0.83322 0.14812 0.0
C336 C 0.10268 0.86995 0.1584 0.0
C337 C 0.12818 0.89512 0.1363 0.0
C338 C 0.13056 0.93219 0.15583 0.0
C339 C 0.17154 0.93827 0.18423 0.0
C340 C 0.11693 0.96653 0.11185 0.0
C341 C 0.10248 0.92392 0.19237 0.0
C342 C 0.08642 0.88806 0.1929 0.0
C343 C 0.05959 0.87417 0.22354 0.0
C344 C 0.04911 0.89746 0.25479 0.0
C345 C 0.06578 0.93409 0.25572 0.0
C346 C 0.09278 0.94728 0.22378 0.0
H347 H 0.67055 0.59445 0.76338 0.0
H348 H 0.62816 0.71113 0.73974 0.0
H349 H 0.58553 0.68984 0.80232 0.0
H350 H 0.58214 0.54547 0.77977 0.0
H351 H 0.60423 0.50716 0.83062 0.0
H352 H 0.63121 0.53104 0.78339 0.0
H353 H 0.68452 0.5471 0.85555 0.0
H354 H 0.65777 0.52325 0.90308 0.0
H355 H 0.67192 0.57247 0.90133 0.0
H356 H 0.54596 0.65614 0.86413 0.0
H357 H 0.51642 0.61314 0.92946 0.0
H358 H 0.58669 0.51826 0.91884 0.0
C359 C 0.65222 0.61535 0.77157 0.0
C360 C 0.65238 0.65442 0.74674 0.0
C361 C 0.62843 0.68116 0.75857 0.0
C362 C 0.60406 0.66929 0.79383 0.0
C363 C 0.60435 0.63063 0.81751 0.0
C364 C 0.6282 0.60408 0.80764 0.0
C365 C 0.62381 0.56457 0.84025 0.0
C366 C 0.60949 0.53534 0.80648 0.0
C367 C 0.66176 0.55105 0.87724 0.0
C368 C 0.59329 0.57301 0.86913 0.0
C369 C 0.58241 0.61131 0.85504 0.0
C370 C 0.55449 0.62619 0.8758 0.0
C371 C 0.53793 0.60156 0.91294 0.0
C372 C 0.54963 0.56259 0.92958 0.0
C373 C 0.57715 0.54794 0.90664 0.0
H374 H 0.91252 0.14355 0.17331 0.0
H375 H 0.7973 0.16063 0.19828 0.0
H376 H 0.81625 0.12582 0.2886 0.0
H377 H 0.92638 0.04893 0.25005 0.0
H378 H 0.97643 0.05479 0.27536 0.0
H379 H 0.95529 0.08138 0.2127 0.0
H380 H 0.97591 0.14602 0.23807 0.0
H381 H 0.99934 0.1203 0.30015 0.0
H382 H 0.96381 0.15688 0.2953 0.0
H383 H 0.84806 0.08629 0.37569 0.0
H384 H 0.8909 0.05139 0.45337 0.0
H385 H 0.98624 0.06548 0.37179 0.0
C386 C 0.89118 0.13981 0.19771 0.0
C387 C 0.85333 0.15444 0.17878 0.0
C388 C 0.82645 0.1496 0.21211 0.0
C389 C 0.83693 0.12976 0.26331 0.0
C390 C 0.8745 0.11539 0.28058 0.0
C391 C 0.90126 0.12062 0.2488 0.0
C392 C 0.93984 0.10292 0.27649 0.0
C393 C 0.95009 0.07009 0.25215 0.0
C394 C 0.97159 0.13336 0.27757 0.0
C395 C 0.93109 0.08771 0.32936 0.0
C396 C 0.89306 0.09444 0.33079 0.0
C397 C 0.87806 0.0816 0.37515 0.0
C398 C 0.90278 0.06215 0.41933 0.0
C399 C 0.94235 0.0567 0.41943 0.0
C400 C 0.95631 0.06925 0.37338 0.0
H401 H 0.32996 0.3128 0.57822 0.0
H402 H 0.33542 0.42327 0.47603 0.0
H403 H 0.34659 0.45484 0.55036 0.0
H404 H 0.27878 0.34809 0.66514 0.0
H405 H 0.30424 0.31589 0.72103 0.0
H406 H 0.29602 0.30225 0.6595 0.0
H407 H 0.36933 0.29093 0.66908 0.0
H408 H 0.37783 0.30491 0.73035 0.0
H409 H 0.40218 0.32925 0.6804 0.0
H410 H 0.36105 0.47401 0.63697 0.0
H411 H 0.37184 0.47965 0.72814 0.0
H412 H 0.35348 0.35735 0.77271 0.0
C413 C 0.33266 0.34373 0.57112 0.0
C414 C 0.33203 0.36538 0.52095 0.0
C415 C 0.33646 0.4058 0.51398 0.0
C416 C 0.34264 0.42409 0.55601 0.0
C417 C 0.34389 0.40174 0.60491 0.0
C418 C 0.33847 0.36251 0.61257 0.0
C419 C 0.34116 0.34504 0.66901 0.0
C420 C 0.30276 0.32675 0.67926 0.0
C421 C 0.37461 0.31581 0.68833 0.0
C422 C 0.34925 0.3805 0.69196 0.0
C423 C 0.35098 0.41292 0.65443 0.0
C424 C 0.3594 0.44885 0.66662 0.0
C425 C 0.36572 0.45177 0.71846 0.0
C426 C 0.36323 0.41903 0.75739 0.0
C427 C 0.35502 0.38299 0.74371 0.0
H428 H 0.66787 0.71221 0.5243 0.0
H429 H 0.69162 0.59577 0.61017 0.0
H430 H 0.67383 0.57134 0.52982 0.0
H431 H 0.58461 0.68938 0.43823 0.0
H432 H 0.59438 0.72387 0.38356 0.0
H433 H 0.61092 0.73234 0.44732 0.0
H434 H 0.68082 0.73938 0.43083 0.0
H435 H 0.66446 0.73113 0.36691 0.0
H436 H 0.70218 0.70137 0.41005 0.0
H437 H 0.65365 0.5598 0.43984 0.0
H438 H 0.63188 0.56168 0.34752 0.0
H439 H 0.61654 0.68542 0.32126 0.0
C440 C 0.66982 0.68164 0.52595 0.0
C441 C 0.68143 0.65583 0.57324 0.0
C442 C 0.68286 0.61595 0.5742 0.0
C443 C 0.67284 0.60186 0.52882 0.0
C444 C 0.66105 0.628 0.48284 0.0
C445 C 0.65936 0.66704 0.48108 0.0
C446 C 0.64437 0.68884 0.42697 0.0
C447 C 0.60631 0.70984 0.42386 0.0
C448 C 0.67478 0.71683 0.40755 0.0
C449 C 0.63811 0.65601 0.39856 0.0
C450 C 0.64807 0.62119 0.43141 0.0
C451 C 0.64545 0.5869 0.41381 0.0
C452 C 0.63262 0.58826 0.36118 0.0
C453 C 0.62214 0.62366 0.32656 0.0
C454 C 0.62469 0.65785 0.34611 0.0
H455 H 0.90934 0.13089 0.04125 0.0
H456 H 0.81132 0.18885 0.93332 0.0
H457 H 0.83267 0.16589 0.86351 0.0
H458 H 0.9773 0.14673 0.96013 0.0
H459 H 0.99962 0.09985 0.98208 0.0
H460 H 0.97679 0.12051 0.02437 0.0
H461 H 0.93346 0.0608 0.03806 0.0
H462 H 0.95644 0.03974 0.9962 0.0
H463 H 0.90483 0.04577 0.98318 0.0
H464 H 0.86747 0.14152 0.80419 0.0
H465 H 0.90953 0.11191 0.7604 0.0
H466 H 0.97982 0.06182 0.90812 0.0
C467 C 0.89182 0.13826 1.00324 0.0
C468 C 0.85889 0.16242 0.99306 0.0
C469 C 0.8373 0.17148 0.94226 0.0
C470 C 0.84897 0.15825 0.90224 0.0
C471 C 0.88184 0.13519 0.91355 0.0
C472 C 0.90257 0.12461 0.9629 0.0
C473 C 0.93657 0.09904 0.96459 0.0
C474 C 0.97482 0.11766 0.98393 0.0
C475 C 0.93257 0.05896 0.99745 0.0
C476 C 0.93207 0.09762 0.90828 0.0
C477 C 0.90048 0.11889 0.87955 0.0
C478 C 0.89176 0.12392 0.82639 0.0
C479 C 0.9158 0.10653 0.80186 0.0
C480 C 0.94797 0.08358 0.83041 0.0
C481 C 0.95584 0.07915 0.88458 0.0
H482 H 0.34331 0.40336 0.32309 0.0
H483 H 0.41616 0.30285 0.38847 0.0
H484 H 0.45804 0.32426 0.32458 0.0
H485 H 0.34817 0.40289 0.19157 0.0
H486 H 0.34834 0.45451 0.1716 0.0
H487 H 0.32471 0.43253 0.22342 0.0
H488 H 0.36576 0.47186 0.28374 0.0
H489 H 0.38922 0.49474 0.23218 0.0
H490 H 0.41753 0.47027 0.29206 0.0
H491 H 0.49398 0.35883 0.25673 0.0
H492 H 0.51847 0.40129 0.18536 0.0
H493 H 0.41895 0.4761 0.1585 0.0
C494 C 0.36817 0.38603 0.32383 0.0
C495 C 0.37689 0.35165 0.36073 0.0
C496 C 0.40925 0.32931 0.36043 0.0
C497 C 0.43312 0.34128 0.32439 0.0
C498 C 0.42382 0.37534 0.28837 0.0
C499 C 0.39188 0.3972 0.28743 0.0
C500 C 0.38768 0.43201 0.24374 0.0
C501 C 0.34999 0.43039 0.20526 0.0
C502 C 0.39021 0.46943 0.26417 0.0
C503 C 0.42253 0.42665 0.2207 0.0
C504 C 0.44323 0.39399 0.24739 0.0
C505 C 0.47778 0.38423 0.23525 0.0
C506 C 0.49158 0.40853 0.19495 0.0
C507 C 0.47048 0.44169 0.16667 0.0
C508 C 0.43535 0.45063 0.17938 0.0
H509 H 0.17601 0.90375 0.90739 0.0
H510 H 0.13379 0.78824 0.90787 0.0
H511 H 0.09676 0.80971 0.8197 0.0
H512 H 0.09273 0.95407 0.84212 0.0
H513 H 0.11592 0.99188 0.80386 0.0
H514 H 0.14165 0.96692 0.86504 0.0
H515 H 0.19613 0.94943 0.82118 0.0
H516 H 0.17032 0.97484 0.76014 0.0
H517 H 0.18413 0.9253 0.76801 0.0
H518 H 0.05698 0.84577 0.73803 0.0
H519 H 0.02551 0.89152 0.6609 0.0
H520 H 0.09803 0.98271 0.70914 0.0
C521 C 0.15984 0.88288 0.88812 0.0
C522 C 0.15787 0.8443 0.91379 0.0
C523 C 0.13601 0.81774 0.88821 0.0
C524 C 0.11474 0.82975 0.83842 0.0
C525 C 0.11631 0.86826 0.81459 0.0
C526 C 0.13914 0.89424 0.83793 0.0
C527 C 0.13536 0.93404 0.80391 0.0
C528 C 0.12052 0.96343 0.83036 0.0
C529 C 0.17377 0.94663 0.78734 0.0
C530 C 0.10559 0.92671 0.7589 0.0
C531 C 0.09492 0.8886 0.76595 0.0
C532 C 0.06595 0.87542 0.73136 0.0
C533 C 0.04831 0.9016 0.68762 0.0
C534 C 0.06018 0.94032 0.67824 0.0
C535 C 0.08875 0.95312 0.71489 0.0
loop_
_geom_bond_atom_site_label_1
_geom_bond_atom_site_label_2
_geom_bond_distance
_geom_bond_site_symmetry_2
_ccdc_geom_bond_type
H0 C3 0.929 . S
H1 C6 0.929 . S
H2 C8 0.930 . S
C3 H0 0.929 . S
C3 C4 1.398 1_554 S
C3 C5 1.396 . S
C4 C3 1.398 1_556 S
C4 C8 1.407 . S
C5 C3 1.396 . S
C5 C6 1.394 . S
C6 H1 0.929 . S
C6 C5 1.394 . S
C6 C7 1.382 . S
C7 C6 1.382 . S
C7 C8 1.392 1_554 S
C7 N9 1.420 . S
C8 H2 0.930 . S
C8 C4 1.407 . S
C8 C7 1.392 1_556 S
N9 C7 1.420 . S
N9 C10 1.244 . S
C10 N9 1.244 . S
H11 C14 0.929 . S
H12 C17 0.929 . S
H13 C19 0.930 . S
C14 H11 0.929 . S
C14 C15 1.398 . S
C14 C16 1.396 . S
C15 C14 1.398 . S
C15 C19 1.407 . S
C16 C14 1.396 . S
C16 C17 1.394 . S
C17 H12 0.929 . S
C17 C16 1.394 . S
C17 C18 1.382 . S
C18 C17 1.382 . S
C18 C19 1.392 . S
C18 N20 1.420 . S
C19 H13 0.930 . S
C19 C15 1.407 . S
C19 C18 1.392 . S
N20 C18 1.420 . S
N20 C21 1.244 . S
C21 N20 1.244 . S
H22 C25 0.929 . S
H23 C28 0.929 . S
H24 C30 0.930 1_556 S
C25 H22 0.929 . S
C25 C26 1.398 . S
C25 C27 1.396 . S
C26 C25 1.398 . S
C26 C30 1.407 . S
C27 C25 1.396 . S
C27 C28 1.394 . S
C28 H23 0.929 . S
C28 C27 1.394 . S
C28 C29 1.382 . S
C29 C28 1.382 . S
C29 C30 1.392 . S
C29 N31 1.420 . S
C30 H24 0.930 1_554 S
C30 C26 1.407 . S
C30 C29 1.392 . S
N31 C29 1.420 . S
N31 C32 1.244 . S
C32 N31 1.244 . S
H33 C36 0.929 . S
H34 C39 0.929 . S
H35 C41 0.930 . S
C36 H33 0.929 . S
C36 C37 1.398 . S
C36 C38 1.396 . S
C37 C36 1.398 . S
C37 C41 1.407 . S
C38 C36 1.396 . S
C38 C39 1.394 . S
C39 H34 0.929 . S
C39 C38 1.394 . S
C39 C40 1.382 . S
C40 C39 1.382 . S
C40 C41 1.392 . S
C40 N42 1.420 . S
C41 H35 0.930 . S
C41 C37 1.407 . S
C41 C40 1.392 . S
N42 C40 1.420 . S
N42 C43 1.244 . S
C43 N42 1.244 . S
Eu44 N73 2.600 . S
Eu44 N79 2.562 . S
Eu44 O88 2.462 . S
Eu44 O89 2.373 . S
Eu44 O91 2.432 . S
Eu44 O92 2.291 1_565 S
Eu44 O96 2.335 1_465 S
Eu44 O99 2.372 1_455 S
Eu44 C108 2.787 . S
C45 N46 1.365 . S
C45 C48 1.405 . S
C45 C52 1.448 . S
N46 C45 1.365 . S
N46 C49 1.319 1_655 S
N46 Eu55 2.600 . S
C47 C49 1.397 . S
C47 C50 1.367 1_455 S
C47 H67 0.931 . S
C48 C45 1.405 . S
C48 C50 1.403 . S
C48 C54 1.439 . S
C49 N46 1.319 1_455 S
C49 C47 1.397 . S
C49 H60 0.930 . S
C50 C47 1.367 1_655 S
C50 C48 1.403 . S
C50 H71 0.929 . S
C51 C52 1.430 . S
C51 C53 1.387 . S
C51 C57 1.404 . S
C52 C45 1.448 . S
C52 C51 1.430 . S
C52 N56 1.351 . S
C53 C51 1.387 . S
C53 C54 1.374 . S
C53 H68 0.931 . S
C54 C48 1.439 . S
C54 C53 1.374 . S
C54 H69 0.931 . S
Eu55 N46 2.600 . S
Eu55 N56 2.562 . S
Eu55 O90 2.335 1_655 S
Eu55 O93 2.372 1_655 S
Eu55 O94 2.462 . S
Eu55 O95 2.373 . S
Eu55 O97 2.432 . S
Eu55 O98 2.291 1_545 S
Eu55 C119 2.787 . S
N56 C52 1.351 . S
N56 Eu55 2.562 . S
N56 C58 1.325 . S
C57 C51 1.404 . S
C57 C59 1.366 . S
C57 H65 0.930 . S
C58 N56 1.325 . S
C58 C59 1.416 . S
C58 H64 0.929 . S
C59 C57 1.366 . S
C59 C58 1.416 . S
C59 H61 0.930 . S
H60 C49 0.930 . S
H61 C59 0.930 . S
H62 C77 0.930 1_655 S
H63 C84 0.930 . S
H64 C58 0.929 . S
H65 C57 0.930 . S
H66 C80 0.929 . S
H67 C47 0.931 . S
H68 C53 0.931 . S
H69 C54 0.931 . S
H70 C75 0.931 1_655 S
H71 C50 0.929 . S
H72 C83 0.930 . S
N73 Eu44 2.600 . S
N73 C74 1.365 . S
N73 C77 1.319 . S
C74 N73 1.365 . S
C74 C76 1.405 . S
C74 C82 1.448 . S
C75 H70 0.931 1_455 S
C75 C77 1.397 . S
C75 C78 1.367 . S
C76 C74 1.405 . S
C76 C78 1.403 . S
C76 C109 1.439 . S
C77 H62 0.930 1_455 S
C77 N73 1.319 . S
C77 C75 1.397 . S
C78 C75 1.367 . S
C78 C76 1.403 . S
C78 H85 0.929 . S
N79 Eu44 2.562 . S
N79 C80 1.325 . S
N79 C82 1.351 . S
C80 H66 0.929 . S
C80 N79 1.325 . S
C80 C84 1.416 . S
C81 C82 1.430 . S
C81 C83 1.404 . S
C81 C110 1.387 . S
C82 C74 1.448 . S
C82 N79 1.351 . S
C82 C81 1.430 . S
C83 H72 0.930 . S
C83 C81 1.404 . S
C83 C84 1.366 . S
C84 H63 0.930 . S
C84 C80 1.416 . S
C84 C83 1.366 . S
H85 C78 0.929 . S
H86 C109 0.931 . S
H87 C110 0.931 . S
O88 Eu44 2.462 . S
O88 C108 1.252 . S
O89 Eu44 2.373 . S
O89 C100 1.249 . S
O90 Eu55 2.335 1_455 S
O90 C100 1.264 1_545 S
O91 Eu44 2.432 . S
O91 C108 1.268 . S
O92 Eu44 2.291 1_545 S
O92 C107 1.255 . S
O93 Eu55 2.372 1_455 S
O93 C107 1.257 . S
O94 Eu55 2.462 . S
O94 C119 1.252 . S
O95 Eu55 2.373 . S
O95 C111 1.249 . S
O96 Eu44 2.335 1_645 S
O96 C111 1.264 . S
O97 Eu55 2.432 . S
O97 C119 1.268 . S
O98 Eu55 2.291 1_565 S
O98 C118 1.255 . S
O99 Eu44 2.372 1_655 S
O99 C118 1.257 . S
C100 O89 1.249 . S
C100 O90 1.264 1_565 S
C101 C104 1.382 . S
C101 C106 1.390 . S
C101 C108 1.506 . S
C102 C103 1.398 . S
C102 C106 1.392 . S
C103 C102 1.398 . S
C103 C105 1.372 . S
C103 H120 0.931 . S
C104 C101 1.382 . S
C104 C105 1.390 . S
C104 H121 0.931 . S
C105 C103 1.372 . S
C105 C104 1.390 . S
C105 H122 0.929 . S
C106 C101 1.390 . S
C106 C102 1.392 . S
C106 H123 0.930 . S
C107 O92 1.255 . S
C107 O93 1.257 . S
C108 Eu44 2.787 . S
C108 O88 1.252 . S
C108 O91 1.268 . S
C108 C101 1.506 . S
C109 C76 1.439 . S
C109 H86 0.931 . S
C109 C110 1.374 . S
C110 C81 1.387 . S
C110 H87 0.931 . S
C110 C109 1.374 . S
C111 O95 1.249 . S
C111 O96 1.264 . S
C112 C115 1.382 . S
C112 C116 1.390 . S
C112 C119 1.506 . S
C113 C114 1.398 . S
C113 C116 1.392 . S
C114 C113 1.398 . S
C114 C117 1.372 . S
C114 H124 0.931 . S
C115 C112 1.382 . S
C115 C117 1.390 . S
C115 H125 0.931 . S
C116 C112 1.390 . S
C116 C113 1.392 . S
C116 H126 0.930 . S
C117 C114 1.372 . S
C117 C115 1.390 . S
C117 H127 0.929 . S
C118 O98 1.255 . S
C118 O99 1.257 . S
C119 Eu55 2.787 . S
C119 O94 1.252 . S
C119 O97 1.268 . S
C119 C112 1.506 . S
H120 C103 0.931 . S
H121 C104 0.931 . S
H122 C105 0.929 . S
H123 C106 0.930 . S
H124 C114 0.931 . S
H125 C115 0.931 . S
H126 C116 0.930 . S
H127 C117 0.929 . S
Eu128 N157 2.601 . S
Eu128 N163 2.562 . S
Eu128 O172 2.457 1_554 S
Eu128 O173 2.378 . S
Eu128 O175 2.427 1_554 S
Eu128 O176 2.292 . S
Eu128 O180 2.333 1_554 S
Eu128 O183 2.373 . S
Eu128 C192 2.782 1_554 S
C129 N130 1.365 . S
C129 C132 1.405 . S
C129 C136 1.448 . S
N130 C129 1.365 . S
N130 C133 1.319 . S
N130 Eu139 2.600 . S
C131 C133 1.397 . S
C131 C134 1.367 . S
C131 H151 0.931 . S
C132 C129 1.405 . S
C132 C134 1.403 . S
C132 C138 1.439 . S
C133 N130 1.319 . S
C133 C131 1.397 . S
C133 H144 0.930 . S
C134 C131 1.367 . S
C134 C132 1.403 . S
C134 H155 0.929 . S
C135 C136 1.430 . S
C135 C137 1.387 . S
C135 C141 1.404 . S
C136 C129 1.448 . S
C136 C135 1.430 . S
C136 N140 1.351 . S
C137 C135 1.387 . S
C137 C138 1.374 . S
C137 H152 0.931 . S
C138 C132 1.439 . S
C138 C137 1.374 . S
C138 H153 0.931 . S
Eu139 N130 2.600 . S
Eu139 N140 2.562 . S
Eu139 O174 2.335 . S
Eu139 O177 2.372 . S
Eu139 O178 2.462 . S
Eu139 O179 2.373 . S
Eu139 O181 2.432 . S
Eu139 O182 2.291 . S
Eu139 C203 2.787 . S
N140 C136 1.351 . S
N140 Eu139 2.562 . S
N140 C142 1.325 . S
C141 C135 1.404 . S
C141 C143 1.366 . S
C141 H149 0.930 . S
C142 N140 1.325 . S
C142 C143 1.416 . S
C142 H148 0.929 . S
C143 C141 1.366 . S
C143 C142 1.416 . S
C143 H145 0.930 . S
H144 C133 0.930 . S
H145 C143 0.930 . S
H146 C161 0.930 . S
H147 C168 0.930 . S
H148 C142 0.929 . S
H149 C141 0.930 . S
H150 C164 0.929 . S
H151 C131 0.931 . S
H152 C137 0.931 . S
H153 C138 0.931 . S
H154 C159 0.931 . S
H155 C134 0.929 . S
H156 C167 0.930 . S
N157 Eu128 2.601 . S
N157 C158 1.365 . S
N157 C161 1.319 1_554 S
C158 N157 1.365 . S
C158 C160 1.405 . S
C158 C166 1.448 . S
C159 H154 0.931 . S
C159 C161 1.397 . S
C159 C162 1.367 1_556 S
C160 C158 1.405 . S
C160 C162 1.403 . S
C160 C193 1.439 . S
C161 H146 0.930 . S
C161 N157 1.319 1_556 S
C161 C159 1.397 . S
C162 C159 1.367 1_554 S
C162 C160 1.403 . S
C162 H169 0.929 . S
N163 Eu128 2.562 . S
N163 C164 1.325 . S
N163 C166 1.351 . S
C164 H150 0.929 . S
C164 N163 1.325 . S
C164 C168 1.416 . S
C165 C166 1.430 . S
C165 C167 1.404 . S
C165 C194 1.387 . S
C166 C158 1.448 . S
C166 N163 1.351 . S
C166 C165 1.430 . S
C167 H156 0.930 . S
C167 C165 1.404 . S
C167 C168 1.366 . S
C168 H147 0.930 . S
C168 C164 1.416 . S
C168 C167 1.366 . S
H169 C162 0.929 . S
H170 C193 0.931 . S
H171 C194 0.931 . S
O172 Eu128 2.457 1_556 S
O172 C192 1.252 . S
O173 Eu128 2.378 . S
O173 C184 1.249 . S
O174 Eu139 2.335 . S
O174 C184 1.264 . S
O175 Eu128 2.427 1_556 S
O175 C192 1.268 . S
O176 Eu128 2.292 . S
O176 C191 1.255 . S
O177 Eu139 2.372 . S
O177 C191 1.257 . S
O178 Eu139 2.462 . S
O178 C203 1.252 . S
O179 Eu139 2.373 . S
O179 C195 1.249 1_554 S
O180 Eu128 2.333 1_556 S
O180 C195 1.264 . S
O181 Eu139 2.432 . S
O181 C203 1.268 . S
O182 Eu139 2.291 . S
O182 C202 1.255 . S
O183 Eu128 2.373 . S
O183 C202 1.257 . S
C184 O173 1.249 . S
C184 O174 1.264 . S
C185 C188 1.382 . S
C185 C190 1.390 . S
C185 C192 1.506 . S
C186 C187 1.398 . S
C186 C190 1.392 . S
C187 C186 1.398 . S
C187 C189 1.372 . S
C187 H204 0.931 . S
C188 C185 1.382 . S
C188 C189 1.390 . S
C188 H205 0.931 . S
C189 C187 1.372 . S
C189 C188 1.390 . S
C189 H206 0.929 . S
C190 C185 1.390 . S
C190 C186 1.392 . S
C190 H207 0.930 . S
C191 O176 1.255 . S
C191 O177 1.257 . S
C192 Eu128 2.782 1_556 S
C192 O172 1.252 . S
C192 O175 1.268 . S
C192 C185 1.506 . S
C193 C160 1.439 . S
C193 H170 0.931 . S
C193 C194 1.374 . S
C194 C165 1.387 . S
C194 H171 0.931 . S
C194 C193 1.374 . S
C195 O179 1.249 1_556 S
C195 O180 1.264 . S
C196 C199 1.382 . S
C196 C200 1.390 . S
C196 C203 1.506 . S
C197 C198 1.398 . S
C197 C200 1.392 . S
C198 C197 1.398 . S
C198 C201 1.372 . S
C198 H208 0.931 . S
C199 C196 1.382 . S
C199 C201 1.390 . S
C199 H209 0.931 . S
C200 C196 1.390 . S
C200 C197 1.392 . S
C200 H210 0.930 . S
C201 C198 1.372 . S
C201 C199 1.390 . S
C201 H211 0.929 . S
C202 O182 1.255 . S
C202 O183 1.257 . S
C203 Eu139 2.787 . S
C203 O178 1.252 . S
C203 O181 1.268 . S
C203 C196 1.506 . S
H204 C187 0.931 . S
H205 C188 0.931 . S
H206 C189 0.929 . S
H207 C190 0.930 . S
H208 C198 0.931 . S
H209 C199 0.931 . S
H210 C200 0.930 . S
H211 C201 0.929 . S
H212 C224 0.930 . S
H213 C226 0.930 . S
H214 C227 0.930 . S
H215 C231 0.959 . S
H216 C231 0.959 . S
H217 C231 0.961 . S
H218 C232 0.960 . S
H219 C232 0.961 . S
H220 C232 0.959 . S
H221 C235 0.929 . S
H222 C236 0.931 . S
H223 C238 0.930 . S
C224 H212 0.930 . S
C224 C225 1.399 . S
C224 C229 1.399 . S
C225 C224 1.399 . S
C225 C226 1.376 . S
C226 H213 0.930 . S
C226 C225 1.376 . S
C226 C227 1.388 . S
C227 H214 0.930 . S
C227 C226 1.388 . S
C227 C228 1.390 . S
C228 C227 1.390 . S
C228 C229 1.394 . S
C228 C234 1.465 . S
C229 C224 1.399 . S
C229 C228 1.394 . S
C229 C230 1.516 . S
C230 C229 1.516 . S
C230 C231 1.502 . S
C230 C232 1.561 . S
C230 C233 1.526 . S
C231 H215 0.959 . S
C231 H216 0.959 . S
C231 H217 0.961 . S
C231 C230 1.502 . S
C232 H218 0.960 . S
C232 H219 0.961 . S
C232 H220 0.959 . S
C232 C230 1.561 . S
C233 C230 1.526 . S
C233 C234 1.396 . S
C233 C238 1.390 . S
C234 C228 1.465 . S
C234 C233 1.396 . S
C234 C235 1.399 . S
C235 H221 0.929 . S
C235 C234 1.399 . S
C235 C236 1.385 . S
C236 H222 0.931 . S
C236 C235 1.385 . S
C236 C237 1.389 . S
C237 C236 1.389 . S
C237 C238 1.387 . S
C238 H223 0.930 . S
C238 C233 1.390 . S
C238 C237 1.387 . S
H239 C251 0.930 . S
H240 C253 0.930 1_556 S
H241 C254 0.930 . S
H242 C258 0.959 . S
H243 C258 0.959 . S
H244 C258 0.961 . S
H245 C259 0.960 . S
H246 C259 0.961 . S
H247 C259 0.959 . S
H248 C262 0.929 . S
H249 C263 0.923 1_556 S
H250 C265 0.930 . S
C251 H239 0.930 . S
C251 C252 1.399 . S
C251 C256 1.399 . S
C252 C251 1.399 . S
C252 C253 1.376 . S
C253 H240 0.930 1_554 S
C253 C252 1.376 . S
C253 C254 1.388 1_554 S
C254 H241 0.930 . S
C254 C253 1.388 1_556 S
C254 C255 1.390 1_556 S
C255 C254 1.390 1_554 S
C255 C256 1.394 . S
C255 C261 1.465 . S
C256 C251 1.399 . S
C256 C255 1.394 . S
C256 C257 1.516 . S
C257 C256 1.516 . S
C257 C258 1.502 . S
C257 C259 1.561 . S
C257 C260 1.526 . S
C258 H242 0.959 . S
C258 H243 0.959 . S
C258 H244 0.961 . S
C258 C257 1.502 . S
C259 H245 0.960 . S
C259 H246 0.961 . S
C259 H247 0.959 . S
C259 C257 1.561 . S
C260 C257 1.526 . S
C260 C261 1.396 . S
C260 C265 1.390 . S
C261 C255 1.465 . S
C261 C260 1.396 . S
C261 C262 1.399 1_554 S
C262 H248 0.929 . S
C262 C261 1.399 1_556 S
C262 C263 1.386 1_556 S
C263 H249 0.923 1_554 S
C263 C262 1.386 1_554 S
C263 C264 1.396 . S
C264 C263 1.396 . S
C264 C265 1.387 . S
C265 H250 0.930 . S
C265 C260 1.390 . S
C265 C264 1.387 . S
H266 C278 0.930 . S
H267 C280 0.930 . S
H268 C281 0.930 . S
H269 C285 0.959 . S
H270 C285 0.959 . S
H271 C285 0.961 . S
H272 C286 0.960 . S
H273 C286 0.961 . S
H274 C286 0.959 . S
H275 C289 0.929 . S
H276 C290 0.931 . S
H277 C292 0.930 . S
C278 H266 0.930 . S
C278 C279 1.399 . S
C278 C283 1.399 . S
C279 C278 1.399 . S
C279 C280 1.376 . S
C280 H267 0.930 . S
C280 C279 1.376 . S
C280 C281 1.388 . S
C281 H268 0.930 . S
C281 C280 1.388 . S
C281 C282 1.390 . S
C282 C281 1.390 . S
C282 C283 1.394 . S
C282 C288 1.465 . S
C283 C278 1.399 . S
C283 C282 1.394 . S
C283 C284 1.516 . S
C284 C283 1.516 . S
C284 C285 1.502 . S
C284 C286 1.561 . S
C284 C287 1.526 . S
C285 H269 0.959 . S
C285 H270 0.959 . S
C285 H271 0.961 . S
C285 C284 1.502 . S
C286 H272 0.960 . S
C286 H273 0.961 . S
C286 H274 0.959 . S
C286 C284 1.561 . S
C287 C284 1.526 . S
C287 C288 1.396 . S
C287 C292 1.390 . S
C288 C282 1.465 . S
C288 C287 1.396 . S
C288 C289 1.399 . S
C289 H275 0.929 . S
C289 C288 1.399 . S
C289 C290 1.385 . S
C290 H276 0.931 . S
C290 C289 1.385 . S
C290 C291 1.389 . S
C291 C290 1.389 . S
C291 C292 1.387 . S
C292 H277 0.930 . S
C292 C287 1.390 . S
C292 C291 1.387 . S
H293 C305 0.930 . S
H294 C307 0.930 . S
H295 C308 0.930 . S
H296 C312 0.959 . S
H297 C312 0.959 . S
H298 C312 0.961 . S
H299 C313 0.960 . S
H300 C313 0.961 . S
H301 C313 0.959 . S
H302 C316 0.929 . S
H303 C317 0.931 . S
H304 C319 0.930 . S
C305 H293 0.930 . S
C305 C306 1.399 . S
C305 C310 1.399 . S
C306 C305 1.399 . S
C306 C307 1.376 . S
C307 H294 0.930 . S
C307 C306 1.376 . S
C307 C308 1.388 . S
C308 H295 0.930 . S
C308 C307 1.388 . S
C308 C309 1.390 . S
C309 C308 1.390 . S
C309 C310 1.394 . S
C309 C315 1.465 . S
C310 C305 1.399 . S
C310 C309 1.394 . S
C310 C311 1.516 . S
C311 C310 1.516 . S
C311 C312 1.502 . S
C311 C313 1.561 1_554 S
C311 C314 1.526 . S
C312 H296 0.959 . S
C312 H297 0.959 . S
C312 H298 0.961 . S
C312 C311 1.502 . S
C313 H299 0.960 . S
C313 H300 0.961 . S
C313 H301 0.959 . S
C313 C311 1.561 1_556 S
C314 C311 1.526 . S
C314 C315 1.396 . S
C314 C319 1.390 . S
C315 C309 1.465 . S
C315 C314 1.396 . S
C315 C316 1.399 . S
C316 H302 0.929 . S
C316 C315 1.399 . S
C316 C317 1.385 . S
C317 H303 0.931 . S
C317 C316 1.385 . S
C317 C318 1.389 . S
C318 C317 1.389 . S
C318 C319 1.387 . S
C319 H304 0.930 . S
C319 C314 1.390 . S
C319 C318 1.387 . S
H320 C332 0.930 . S
H321 C334 0.930 . S
H322 C335 0.930 . S
H323 C339 0.959 . S
H324 C339 0.959 1_545 S
H325 C339 0.961 . S
H326 C340 0.960 . S
H327 C340 0.961 . S
H328 C340 0.959 . S
H329 C343 0.929 . S
H330 C344 0.931 . S
H331 C346 0.930 . S
C332 H320 0.930 . S
C332 C333 1.399 . S
C332 C337 1.399 . S
C333 C332 1.399 . S
C333 C334 1.376 . S
C334 H321 0.930 . S
C334 C333 1.376 . S
C334 C335 1.388 . S
C335 H322 0.930 . S
C335 C334 1.388 . S
C335 C336 1.390 . S
C336 C335 1.390 . S
C336 C337 1.394 . S
C336 C342 1.465 . S
C337 C332 1.399 . S
C337 C336 1.394 . S
C337 C338 1.516 . S
C338 C337 1.516 . S
C338 C339 1.502 . S
C338 C340 1.561 . S
C338 C341 1.526 . S
C339 H323 0.959 . S
C339 H324 0.959 1_565 S
C339 H325 0.961 . S
C339 C338 1.502 . S
C340 H326 0.960 . S
C340 H327 0.961 . S
C340 H328 0.959 . S
C340 C338 1.561 . S
C341 C338 1.526 . S
C341 C342 1.396 . S
C341 C346 1.390 . S
C342 C336 1.465 . S
C342 C341 1.396 . S
C342 C343 1.399 . S
C343 H329 0.929 . S
C343 C342 1.399 . S
C343 C344 1.385 . S
C344 H330 0.931 . S
C344 C343 1.385 . S
C344 C345 1.389 . S
C345 C344 1.389 . S
C345 C346 1.387 . S
C346 H331 0.930 . S
C346 C341 1.390 . S
C346 C345 1.387 . S
H347 C359 0.930 . S
H348 C361 0.930 . S
H349 C362 0.930 . S
H350 C366 0.959 . S
H351 C366 0.959 . S
H352 C366 0.961 . S
H353 C367 0.960 . S
H354 C367 0.961 . S
H355 C367 0.959 . S
H356 C370 0.929 . S
H357 C371 0.931 . S
H358 C373 0.930 . S
C359 H347 0.930 . S
C359 C360 1.399 . S
C359 C364 1.399 . S
C360 C359 1.399 . S
C360 C361 1.376 . S
C361 H348 0.930 . S
C361 C360 1.376 . S
C361 C362 1.388 . S
C362 H349 0.930 . S
C362 C361 1.388 . S
C362 C363 1.390 . S
C363 C362 1.390 . S
C363 C364 1.394 . S
C363 C369 1.465 . S
C364 C359 1.399 . S
C364 C363 1.394 . S
C364 C365 1.516 . S
C365 C364 1.516 . S
C365 C366 1.502 . S
C365 C367 1.561 . S
C365 C368 1.526 . S
C366 H350 0.959 . S
C366 H351 0.959 . S
C366 H352 0.961 . S
C366 C365 1.502 . S
C367 H353 0.960 . S
C367 H354 0.961 . S
C367 H355 0.959 . S
C367 C365 1.561 . S
C368 C365 1.526 . S
C368 C369 1.396 . S
C368 C373 1.390 . S
C369 C363 1.465 . S
C369 C368 1.396 . S
C369 C370 1.399 . S
C370 H356 0.929 . S
C370 C369 1.399 . S
C370 C371 1.385 . S
C371 H357 0.931 . S
C371 C370 1.385 . S
C371 C372 1.389 . S
C372 C371 1.389 . S
C372 C373 1.387 . S
C373 H358 0.930 . S
C373 C368 1.390 . S
C373 C372 1.387 . S
H374 C386 0.930 . S
H375 C388 0.930 . S
H376 C389 0.930 . S
H377 C393 0.959 . S
H378 C393 0.959 . S
H379 C393 0.961 . S
H380 C394 0.960 . S
H381 C394 0.961 . S
H382 C394 0.959 . S
H383 C397 0.929 . S
H384 C398 0.931 . S
H385 C400 0.930 . S
C386 H374 0.930 . S
C386 C387 1.399 . S
C386 C391 1.399 . S
C387 C386 1.399 . S
C387 C388 1.376 . S
C388 H375 0.930 . S
C388 C387 1.376 . S
C388 C389 1.388 . S
C389 H376 0.930 . S
C389 C388 1.388 . S
C389 C390 1.390 . S
C390 C389 1.390 . S
C390 C391 1.394 . S
C390 C396 1.465 . S
C391 C386 1.399 . S
C391 C390 1.394 . S
C391 C392 1.516 . S
C392 C391 1.516 . S
C392 C393 1.502 . S
C392 C394 1.561 . S
C392 C395 1.526 . S
C393 H377 0.959 . S
C393 H378 0.959 . S
C393 H379 0.961 . S
C393 C392 1.502 . S
C394 H380 0.960 . S
C394 H381 0.961 . S
C394 H382 0.959 . S
C394 C392 1.561 . S
C395 C392 1.526 . S
C395 C396 1.396 . S
C395 C400 1.390 . S
C396 C390 1.465 . S
C396 C395 1.396 . S
C396 C397 1.399 . S
C397 H383 0.929 . S
C397 C396 1.399 . S
C397 C398 1.385 . S
C398 H384 0.931 . S
C398 C397 1.385 . S
C398 C399 1.389 . S
C399 C398 1.389 . S
C399 C400 1.387 . S
C400 H385 0.930 . S
C400 C395 1.390 . S
C400 C399 1.387 . S
H401 C413 0.930 . S
H402 C415 0.930 . S
H403 C416 0.930 . S
H404 C420 0.959 . S
H405 C420 0.959 . S
H406 C420 0.961 . S
H407 C421 0.960 . S
H408 C421 0.961 . S
H409 C421 0.959 . S
H410 C424 0.929 . S
H411 C425 0.931 . S
H412 C427 0.930 . S
C413 H401 0.930 . S
C413 C414 1.399 . S
C413 C418 1.399 . S
C414 C413 1.399 . S
C414 C415 1.376 . S
C415 H402 0.930 . S
C415 C414 1.376 . S
C415 C416 1.388 . S
C416 H403 0.930 . S
C416 C415 1.388 . S
C416 C417 1.390 . S
C417 C416 1.390 . S
C417 C418 1.394 . S
C417 C423 1.465 . S
C418 C413 1.399 . S
C418 C417 1.394 . S
C418 C419 1.516 . S
C419 C418 1.516 . S
C419 C420 1.502 . S
C419 C421 1.561 . S
C419 C422 1.526 . S
C420 H404 0.959 . S
C420 H405 0.959 . S
C420 H406 0.961 . S
C420 C419 1.502 . S
C421 H407 0.960 . S
C421 H408 0.961 . S
C421 H409 0.959 . S
C421 C419 1.561 . S
C422 C419 1.526 . S
C422 C423 1.396 . S
C422 C427 1.390 . S
C423 C417 1.465 . S
C423 C422 1.396 . S
C423 C424 1.399 . S
C424 H410 0.929 . S
C424 C423 1.399 . S
C424 C425 1.385 . S
C425 H411 0.931 . S
C425 C424 1.385 . S
C425 C426 1.389 . S
C426 C425 1.389 . S
C426 C427 1.387 . S
C427 H412 0.930 . S
C427 C422 1.390 . S
C427 C426 1.387 . S
H428 C440 0.930 . S
H429 C442 0.930 . S
H430 C443 0.930 . S
H431 C447 0.959 . S
H432 C447 0.959 . S
H433 C447 0.961 . S
H434 C448 0.960 . S
H435 C448 0.961 . S
H436 C448 0.959 . S
H437 C451 0.929 . S
H438 C452 0.931 . S
H439 C454 0.930 . S
C440 H428 0.930 . S
C440 C441 1.399 . S
C440 C445 1.399 . S
C441 C440 1.399 . S
C441 C442 1.376 . S
C442 H429 0.930 . S
C442 C441 1.376 . S
C442 C443 1.388 . S
C443 H430 0.930 . S
C443 C442 1.388 . S
C443 C444 1.390 . S
C444 C443 1.390 . S
C444 C445 1.394 . S
C444 C450 1.465 . S
C445 C440 1.399 . S
C445 C444 1.394 . S
C445 C446 1.516 . S
C446 C445 1.516 . S
C446 C447 1.502 . S
C446 C448 1.561 . S
C446 C449 1.526 . S
C447 H431 0.959 . S
C447 H432 0.959 . S
C447 H433 0.961 . S
C447 C446 1.502 . S
C448 H434 0.960 . S
C448 H435 0.961 . S
C448 H436 0.959 . S
C448 C446 1.561 . S
C449 C446 1.526 . S
C449 C450 1.396 . S
C449 C454 1.390 . S
C450 C444 1.465 . S
C450 C449 1.396 . S
C450 C451 1.399 . S
C451 H437 0.929 . S
C451 C450 1.399 . S
C451 C452 1.385 . S
C452 H438 0.931 . S
C452 C451 1.385 . S
C452 C453 1.389 . S
C453 C452 1.389 . S
C453 C454 1.387 . S
C454 H439 0.930 . S
C454 C449 1.390 . S
C454 C453 1.387 . S
H455 C467 0.930 1_554 S
H456 C469 0.930 . S
H457 C470 0.930 . S
H458 C474 0.959 . S
H459 C474 0.959 . S
H460 C474 0.961 . S
H461 C475 0.958 1_554 S
H462 C475 0.961 . S
H463 C475 0.959 . S
H464 C478 0.929 . S
H465 C479 0.931 . S
H466 C481 0.930 . S
C467 H455 0.930 1_556 S
C467 C468 1.399 . S
C467 C472 1.399 . S
C468 C467 1.399 . S
C468 C469 1.376 . S
C469 H456 0.930 . S
C469 C468 1.376 . S
C469 C470 1.388 . S
C470 H457 0.930 . S
C470 C469 1.388 . S
C470 C471 1.390 . S
C471 C470 1.390 . S
C471 C472 1.394 . S
C471 C477 1.465 . S
C472 C467 1.399 . S
C472 C471 1.394 . S
C472 C473 1.516 . S
C473 C472 1.516 . S
C473 C474 1.502 . S
C473 C475 1.561 . S
C473 C476 1.526 . S
C474 H458 0.959 . S
C474 H459 0.959 . S
C474 H460 0.961 . S
C474 C473 1.502 . S
C475 H461 0.958 1_556 S
C475 H462 0.961 . S
C475 H463 0.959 . S
C475 C473 1.561 . S
C476 C473 1.526 . S
C476 C477 1.396 . S
C476 C481 1.390 . S
C477 C471 1.465 . S
C477 C476 1.396 . S
C477 C478 1.399 . S
C478 H464 0.929 . S
C478 C477 1.399 . S
C478 C479 1.385 . S
C479 H465 0.931 . S
C479 C478 1.385 . S
C479 C480 1.389 . S
C480 C479 1.389 . S
C480 C481 1.387 . S
C481 H466 0.930 . S
C481 C476 1.390 . S
C481 C480 1.387 . S
H482 C494 0.930 . S
H483 C496 0.930 . S
H484 C497 0.930 . S
H485 C501 0.959 . S
H486 C501 0.959 . S
H487 C501 0.961 . S
H488 C502 0.960 . S
H489 C502 0.961 . S
H490 C502 0.959 . S
H491 C505 0.929 . S
H492 C506 0.931 . S
H493 C508 0.930 . S
C494 H482 0.930 . S
C494 C495 1.399 . S
C494 C499 1.399 . S
C495 C494 1.399 . S
C495 C496 1.376 . S
C496 H483 0.930 . S
C496 C495 1.376 . S
C496 C497 1.388 . S
C497 H484 0.930 . S
C497 C496 1.388 . S
C497 C498 1.390 . S
C498 C497 1.390 . S
C498 C499 1.394 . S
C498 C504 1.465 . S
C499 C494 1.399 . S
C499 C498 1.394 . S
C499 C500 1.516 . S
C500 C499 1.516 . S
C500 C501 1.502 . S
C500 C502 1.561 . S
C500 C503 1.526 . S
C501 H485 0.959 . S
C501 H486 0.959 . S
C501 H487 0.961 . S
C501 C500 1.502 . S
C502 H488 0.960 . S
C502 H489 0.961 . S
C502 H490 0.959 . S
C502 C500 1.561 . S
C503 C500 1.526 . S
C503 C504 1.396 . S
C503 C508 1.390 . S
C504 C498 1.465 . S
C504 C503 1.396 . S
C504 C505 1.399 . S
C505 H491 0.929 . S
C505 C504 1.399 . S
C505 C506 1.385 . S
C506 H492 0.931 . S
C506 C505 1.385 . S
C506 C507 1.389 . S
C507 C506 1.389 . S
C507 C508 1.387 . S
C508 H493 0.930 . S
C508 C503 1.390 . S
C508 C507 1.387 . S
H509 C521 0.930 . S
H510 C523 0.930 . S
H511 C524 0.930 . S
H512 C528 0.959 . S
H513 C528 0.959 1_545 S
H514 C528 0.961 . S
H515 C529 0.960 . S
H516 C529 0.961 . S
H517 C529 0.950 1_565 S
H518 C532 0.929 . S
H519 C533 0.931 . S
H520 C535 0.930 1_545 S
C521 H509 0.930 . S
C521 C522 1.399 . S
C521 C526 1.399 . S
C522 C521 1.399 . S
C522 C523 1.376 . S
C523 H510 0.930 . S
C523 C522 1.376 . S
C523 C524 1.388 . S
C524 H511 0.930 . S
C524 C523 1.388 . S
C524 C525 1.390 . S
C525 C524 1.390 . S
C525 C526 1.394 . S
C525 C531 1.465 . S
C526 C521 1.399 . S
C526 C525 1.394 . S
C526 C527 1.516 . S
C527 C526 1.516 . S
C527 C528 1.502 . S
C527 C529 1.561 1_565 S
C527 C530 1.526 . S
C528 H512 0.959 . S
C528 H513 0.959 1_565 S
C528 H514 0.961 . S
C528 C527 1.502 . S
C529 H515 0.960 . S
C529 H516 0.961 . S
C529 H517 0.950 1_545 S
C529 C527 1.561 1_545 S
C530 C527 1.526 . S
C530 C531 1.396 . S
C530 C535 1.390 . S
C531 C525 1.465 . S
C531 C530 1.396 . S
C531 C532 1.399 . S
C532 H518 0.929 . S
C532 C531 1.399 . S
C532 C533 1.385 . S
C533 H519 0.931 . S
C533 C532 1.385 . S
C533 C534 1.389 . S
C534 C533 1.389 . S
C534 C535 1.387 . S
C535 H520 0.930 1_565 S
C535 C530 1.390 . S
C535 C534 1.387 . S
C237 C107 1.664 . S
C225 C43 1.664 . S
C252 C10 1.644 . S
C264 C202 1.621 . S
C279 C21 1.671 . S
C291 C118 1.671 . S
C306 C32 1.633 . S
C318 C191 1.615 . S
C345 C102 1.379 . S
C333 C5 1.600 . S
C372 C195 1.700 . S
C360 C15 1.708 . S
C387 C27 1.632 . S
C399 C111 1.641 . S
C414 C38 1.583 . S
C426 C186 1.381 . S
C453 C197 1.334 . S
C441 C16 1.551 . S
C480 C113 1.410 . S
C468 C26 1.562 1_556 S
C507 C184 1.630 . S
C495 C37 1.623 . S
C522 C4 1.560 . S
C534 C100 1.575 . S
