# Generated by pormake.
# Topology anh, (6,3)-cn, num edge types: 1
# Building blocks:
#     Node 0, Type 0, BuildingBlock: BETGAK_clean_sbu_0, # of connection points: 6
#     Node 1, Type 0, BuildingBlock: BETGAK_clean_sbu_0, # of connection points: 6
#     Node 2, Type 0, BuildingBlock: BETGAK_clean_sbu_0, # of connection points: 6
#     Node 3, Type 1, BuildingBlock: BELTOD_clean_linker_0, # of connection points: 3
#     Node 4, Type 1, BuildingBlock: BELTOD_clean_linker_0, # of connection points: 3
#     Node 5, Type 1, BuildingBlock: BELTOD_clean_linker_0, # of connection points: 3
#     Node 6, Type 1, BuildingBlock: BELTOD_clean_linker_0, # of connection points: 3
#     Node 7, Type 1, BuildingBlock: BELTOD_clean_linker_0, # of connection points: 3
#     Node 8, Type 1, BuildingBlock: BELTOD_clean_linker_0, # of connection points: 3
#     Edge 9, Type (0, 1), BuildingBlock: KIFKEQ_clean_linker_1, # of connection points: 2
#     Edge 10, Type (0, 1), BuildingBlock: KIFKEQ_clean_linker_1, # of connection points: 2
#     Edge 11, Type (0, 1), BuildingBlock: KIFKEQ_clean_linker_1, # of connection points: 2
#     Edge 12, Type (0, 1), BuildingBlock: KIFKEQ_clean_linker_1, # of connection points: 2
#     Edge 13, Type (0, 1), BuildingBlock: KIFKEQ_clean_linker_1, # of connection points: 2
#     Edge 14, Type (0, 1), BuildingBlock: KIFKEQ_clean_linker_1, # of connection points: 2
#     Edge 15, Type (0, 1), BuildingBlock: KIFKEQ_clean_linker_1, # of connection points: 2
#     Edge 16, Type (0, 1), BuildingBlock: KIFKEQ_clean_linker_1, # of connection points: 2
#     Edge 17, Type (0, 1), BuildingBlock: KIFKEQ_clean_linker_1, # of connection points: 2
#     Edge 18, Type (0, 1), BuildingBlock: KIFKEQ_clean_linker_1, # of connection points: 2
#     Edge 19, Type (0, 1), BuildingBlock: KIFKEQ_clean_linker_1, # of connection points: 2
#     Edge 20, Type (0, 1), BuildingBlock: KIFKEQ_clean_linker_1, # of connection points: 2
#     Edge 21, Type (0, 1), BuildingBlock: KIFKEQ_clean_linker_1, # of connection points: 2
#     Edge 22, Type (0, 1), BuildingBlock: KIFKEQ_clean_linker_1, # of connection points: 2
#     Edge 23, Type (0, 1), BuildingBlock: KIFKEQ_clean_linker_1, # of connection points: 2
#     Edge 24, Type (0, 1), BuildingBlock: KIFKEQ_clean_linker_1, # of connection points: 2
#     Edge 25, Type (0, 1), BuildingBlock: KIFKEQ_clean_linker_1, # of connection points: 2
#     Edge 26, Type (0, 1), BuildingBlock: KIFKEQ_clean_linker_1, # of connection points: 2
# Relax obj value: 0.179
# Max RMSD: 0.204
# Mean RMSD: 0.148
data_MOF--net-anh--node1-BETGAK_clean_sbu_0--node2-BELTOD_clean_linker_0--edge1-KIFKEQ_clean_linker_1
_symmetry_space_group_name_H-M    P1
_symmetry_Int_Tables_number       1
_symmetry_cell_setting            triclinic
loop_
_symmetry_equiv_pos_as_xyz
'x, y, z'
_cell_length_a     34.543092
_cell_length_b     41.583872
_cell_length_c     61.679271
_cell_angle_alpha  92.633813
_cell_angle_beta   87.904837
_cell_angle_gamma 128.57482
loop_
_atom_site_label
_atom_site_type_symbol
_atom_site_fract_x
_atom_site_fract_y
_atom_site_fract_z
_atom_type_partial_charge
La0 La 0.14494 0.55472 0.14641 0.0
La1 La 0.09077 0.58182 0.16885 0.0
C2 C 0.19463 0.54407 0.12059 0.0
C3 C 0.23817 0.54587 0.12187 0.0
C4 C 0.25764 0.54856 0.14205 0.0
C5 C 0.29205 0.54145 0.14338 0.0
C6 C 0.30735 0.53159 0.12453 0.0
C7 C 0.29036 0.53204 0.10424 0.0
C8 C 0.25594 0.53904 0.10295 0.0
C9 C 0.14157 0.55062 0.18902 0.0
C10 C 0.2017 0.65019 0.15934 0.0
C11 C 1.03425 0.58549 0.1937 0.0
C12 C 0.97968 0.55562 0.19589 0.0
C13 C 0.95678 0.51829 0.20648 0.0
C14 C 0.90639 0.48581 0.20357 0.0
C15 C 0.87833 0.49022 0.19002 0.0
C16 C 0.89996 0.52875 0.18132 0.0
C17 C 0.95011 0.56127 0.18436 0.0
C18 C 0.09578 0.58539 0.12595 0.0
C19 C 1.03288 0.48715 0.15572 0.0
O20 O 0.15623 0.5149 0.13169 0.0
O21 O 0.20173 0.5788 0.12281 0.0
O22 O 0.14528 0.52752 0.17592 0.0
O23 O 0.14637 0.57788 0.17834 0.0
O24 O 0.19898 0.62276 0.14604 0.0
O25 O 0.16484 0.6393 0.17275 0.0
O26 O 1.05086 0.60393 0.17511 0.0
O27 O 1.05898 0.57327 0.19986 0.0
O28 O 0.09484 0.61056 0.13867 0.0
O29 O 0.08961 0.55818 0.13716 0.0
O30 O 1.03629 0.51428 0.16935 0.0
O31 O 1.06888 0.49891 0.14157 0.0
H32 H 0.24418 0.55385 0.15683 0.0
H33 H 0.3049 0.54177 0.1592 0.0
H34 H 0.30084 0.52406 0.08943 0.0
H35 H 0.241 0.53667 0.08728 0.0
H36 H 0.97834 0.51304 0.21573 0.0
H37 H 0.89039 0.45637 0.2105 0.0
H38 H 0.87868 0.53299 0.1711 0.0
H39 H 0.96645 0.58987 0.17634 0.0
La40 La 0.63522 0.0314 0.48385 0.0
La41 La 0.56877 0.05262 0.47585 0.0
C42 C 0.67439 1.00229 0.49866 0.0
C43 C 0.66009 0.96248 0.50522 0.0
C44 C 0.62749 0.92599 0.49287 0.0
C45 C 0.61785 0.8894 0.49868 0.0
C46 C 0.64028 0.88861 0.51703 0.0
C47 C 0.67167 0.92499 0.52966 0.0
C48 C 0.68151 0.9615 0.52378 0.0
C49 C 0.63346 0.04766 0.44341 0.0
C50 C 0.52007 0.96035 0.47493 0.0
C51 C 0.53112 0.08447 0.4634 0.0
C52 C 0.53736 0.12182 0.47053 0.0
C53 C 0.54407 0.13415 0.49257 0.0
C54 C 0.55008 0.16958 0.49924 0.0
C55 C 0.55022 0.19377 0.484 0.0
C56 C 0.54429 0.18175 0.4619 0.0
C57 C 0.53769 0.14596 0.45525 0.0
C58 C 0.57495 0.04025 0.51677 0.0
C59 C 0.68605 0.12462 0.48233 0.0
O60 O 0.6721 1.00658 0.47797 0.0
O61 O 0.65812 0.01823 0.5109 0.0
O62 O 0.6722 0.05664 0.4528 0.0
O63 O 0.59654 0.02765 0.45605 0.0
O64 O 0.56018 0.97171 0.48512 0.0
O65 O 0.51866 0.98794 0.46603 0.0
O66 O 0.5099 0.05502 0.47738 0.0
O67 O 0.56969 0.09055 0.45398 0.0
O68 O 0.53554 0.03134 0.5083 0.0
O69 O 0.60938 0.05829 0.50302 0.0
O70 O 0.64274 0.11326 0.47596 0.0
O71 O 0.6911 0.09751 0.48875 0.0
H72 H 0.61015 0.92588 0.47855 0.0
H73 H 0.59309 0.86179 0.48876 0.0
H74 H 0.69004 0.92561 0.54372 0.0
H75 H 0.70681 0.98931 0.5335 0.0
H76 H 0.54479 0.11644 0.50466 0.0
H77 H 0.55538 0.17841 0.51632 0.0
H78 H 0.54412 0.19975 0.44981 0.0
H79 H 0.53292 0.13714 0.43816 0.0
La80 La 0.60959 0.55624 0.84837 0.0
La81 La 0.5385 0.46394 0.84724 0.0
C82 C 0.65598 0.63128 0.84095 0.0
C83 C 0.64524 0.65971 0.83663 0.0
C84 C 0.66335 0.69352 0.85086 0.0
C85 C 0.65695 0.72259 0.84641 0.0
C86 C 0.63267 0.71876 0.82748 0.0
C87 C 0.61345 0.68428 0.81349 0.0
C88 C 0.61962 0.65504 0.81802 0.0
C89 C 0.58962 0.52117 0.88588 0.0
C90 C 0.49197 0.50855 0.85016 0.0
C91 C 0.49331 0.38873 0.85385 0.0
C92 C 0.50351 0.35937 0.84951 0.0
C93 C 0.47007 0.32344 0.83701 0.0
C94 C 0.48014 0.29632 0.83154 0.0
C95 C 0.52387 0.30447 0.83853 0.0
C96 C 0.5568 0.34 0.85151 0.0
C97 C 0.54675 0.3672 0.85694 0.0
C98 C 0.55954 0.49797 0.80913 0.0
C99 C 0.65709 0.5124 0.84713 0.0
O100 O 0.64568 0.61669 0.86049 0.0
O101 O 0.64427 0.60334 0.8259 0.0
O102 O 0.63297 0.55431 0.88054 0.0
O103 O 0.55952 0.51029 0.87096 0.0
O104 O 0.53684 0.54236 0.84499 0.0
O105 O 0.48471 0.47435 0.85486 0.0
O106 O 0.48695 0.40224 0.8367 0.0
O107 O 0.52039 0.41813 0.86845 0.0
O108 O 0.51706 0.46414 0.81444 0.0
O109 O 0.58932 0.50979 0.82439 0.0
O110 O 0.61146 0.47748 0.84998 0.0
O111 O 0.66508 0.54729 0.8436 0.0
H112 H 0.68321 0.69784 0.86531 0.0
H113 H 0.67144 0.74828 0.85777 0.0
H114 H 0.595 0.68051 0.79866 0.0
H115 H 0.60522 0.62931 0.80669 0.0
H116 H 0.43635 0.31662 0.83121 0.0
H117 H 0.45366 0.26893 0.82179 0.0
H118 H 0.591 0.34737 0.85701 0.0
H119 H 0.57315 0.39459 0.86667 0.0
P120 P 0.66929 0.05819 0.20773 0.0
H121 H 0.58758 0.04063 0.18133 0.0
H122 H 0.51043 0.97551 0.16813 0.0
H123 H 0.5521 0.90861 0.1973 0.0
H124 H 0.62868 0.97322 0.20983 0.0
H125 H 0.71755 0.09012 0.16576 0.0
H126 H 0.76771 0.15937 0.15131 0.0
H127 H 0.72705 0.20017 0.20685 0.0
H128 H 0.67627 0.13085 0.22086 0.0
H129 H 0.73701 0.10039 0.24392 0.0
H130 H 0.57948 0.02536 0.23429 0.0
O131 O 0.71348 0.05301 0.20571 0.0
H132 H 0.72468 0.10343 0.28295 0.0
H133 H 0.56678 0.0286 0.27339 0.0
C134 C 0.6143 0.01172 0.1961 0.0
C135 C 0.58027 0.01188 0.1845 0.0
C136 C 0.53604 0.97461 0.17715 0.0
C137 C 0.52514 0.93667 0.18143 0.0
C138 C 0.5596 0.93706 0.19316 0.0
C139 C 0.60348 0.97409 0.20043 0.0
C140 C 0.69357 0.10534 0.19448 0.0
C141 C 0.71837 0.11372 0.1745 0.0
C142 C 0.74747 0.15347 0.16639 0.0
C143 C 0.75226 0.18564 0.17811 0.0
C144 C 0.72422 0.17625 0.19733 0.0
C145 C 0.69516 0.13647 0.20543 0.0
C146 C 0.65916 0.06197 0.23629 0.0
C147 C 0.69975 0.0847 0.25023 0.0
C148 C 0.69264 0.0867 0.27253 0.0
C149 C 0.64468 0.06611 0.28133 0.0
C150 C 0.6041 0.04428 0.26717 0.0
C151 C 0.61133 0.04246 0.2448 0.0
P152 P 0.69543 0.58297 0.57844 0.0
H153 H 0.72287 0.56116 0.53847 0.0
H154 H 0.68918 0.49507 0.52031 0.0
H155 H 0.5677 0.43326 0.56644 0.0
H156 H 0.60138 0.49957 0.5844 0.0
H157 H 0.75809 0.67118 0.57217 0.0
H158 H 0.74112 0.71673 0.56109 0.0
H159 H 0.58754 0.61189 0.55121 0.0
H160 H 0.60519 0.56611 0.56209 0.0
H161 H 0.68908 0.52836 0.60895 0.0
H162 H 0.66657 0.61953 0.61069 0.0
O163 O 0.7563 0.60772 0.57691 0.0
H164 H 0.66813 0.51688 0.64762 0.0
H165 H 0.64572 0.6082 0.64928 0.0
C166 C 0.66537 0.53512 0.56311 0.0
C167 C 0.6886 0.53344 0.54449 0.0
C168 C 0.66919 0.49566 0.53407 0.0
C169 C 0.62617 0.45887 0.54215 0.0
C170 C 0.60141 0.461 0.56009 0.0
C171 C 0.6206 0.49889 0.57035 0.0
C172 C 0.68309 0.61522 0.56758 0.0
C173 C 0.72092 0.65783 0.56727 0.0
C174 C 0.71103 0.68392 0.56115 0.0
C175 C 0.66288 0.66799 0.55541 0.0
C176 C 0.62509 0.62508 0.55535 0.0
C177 C 0.63509 0.5989 0.56154 0.0
C178 C 0.67827 0.57405 0.60677 0.0
C179 C 0.67916 0.54561 0.61759 0.0
C180 C 0.6672 0.53908 0.63968 0.0
C181 C 0.65502 0.56149 0.65146 0.0
C182 C 0.65518 0.59062 0.64066 0.0
C183 C 0.66671 0.59684 0.61851 0.0
P184 P 0.11322 0.56546 0.88676 0.0
H185 H 0.17546 0.5825 0.84854 0.0
H186 H 0.23002 0.56579 0.83874 0.0
H187 H 0.1711 0.48364 0.89259 0.0
H188 H 0.11353 0.49792 0.90087 0.0
H189 H 0.08867 0.60025 0.85483 0.0
H190 H 1.01137 0.58629 0.84572 0.0
H191 H 0.93021 0.47757 0.88422 0.0
H192 H 1.00841 0.49173 0.89325 0.0
H193 H 0.17078 0.56589 0.9212 0.0
H194 H 1.04962 0.57008 0.91746 0.0
O195 O 0.15418 0.61543 0.8815 0.0
H196 H 0.16622 0.56787 0.96048 0.0
H197 H 1.04749 0.57568 0.95674 0.0
C198 C 0.14133 0.54261 0.87592 0.0
C199 C 0.17331 0.56002 0.85789 0.0
C200 C 0.20549 0.55093 0.85256 0.0
C201 C 0.20735 0.52461 0.86536 0.0
C202 C 0.17182 0.50434 0.88227 0.0
C203 C 0.13867 0.51268 0.88719 0.0
C204 C 1.05478 0.54735 0.87497 0.0
C205 C 1.05434 0.57287 0.86102 0.0
C206 C 1.00987 0.56505 0.85596 0.0
C207 C 0.96434 0.53132 0.86463 0.0
C208 C 0.96442 0.50391 0.87727 0.0
C209 C 1.0092 0.51185 0.88237 0.0
C210 C 0.10814 0.56469 0.91615 0.0
C211 C 0.14217 0.56605 0.92875 0.0
C212 C 0.14039 0.5684 0.95142 0.0
C213 C 0.10608 0.57155 0.96212 0.0
C214 C 1.07331 0.57182 0.94934 0.0
C215 C 1.07444 0.56854 0.92668 0.0
P216 P 0.1488 0.52234 0.42561 0.0
H217 H 0.2283 0.56823 0.4575 0.0
H218 H 0.28131 0.64028 0.46951 0.0
H219 H 0.18905 0.65823 0.43563 0.0
H220 H 0.13642 0.58589 0.42336 0.0
H221 H 1.06788 0.44566 0.40462 0.0
H222 H 0.98813 0.38538 0.4174 0.0
H223 H 1.01527 0.44452 0.48064 0.0
H224 H 0.09572 0.50572 0.46748 0.0
H225 H 0.22187 0.54695 0.39123 0.0
H226 H 0.07791 0.5168 0.39739 0.0
O227 O 0.18294 0.50722 0.42904 0.0
H228 H 0.2228 0.55635 0.3524 0.0
H229 H 0.07742 0.52436 0.35837 0.0
C230 C 0.17871 0.57174 0.43929 0.0
C231 C 0.21873 0.58735 0.45302 0.0
C232 C 0.24907 0.62871 0.45996 0.0
C233 C 0.23998 0.65535 0.45328 0.0
C234 C 0.19774 0.63881 0.44072 0.0
C235 C 0.16731 0.59733 0.43384 0.0
C236 C 0.08703 0.48093 0.43483 0.0
C237 C 1.0562 0.44639 0.42105 0.0
C238 C 1.01052 0.41172 0.42841 0.0
C239 C 0.99499 0.41025 0.44997 0.0
C240 C 1.02613 0.44478 0.46391 0.0
C241 C 1.07186 0.47988 0.45637 0.0
C242 C 0.14914 0.52985 0.39703 0.0
C243 C 0.19017 0.54187 0.38415 0.0
C244 C 0.19053 0.54709 0.36191 0.0
C245 C 0.14981 0.54044 0.3521 0.0
C246 C 0.10949 0.52988 0.36531 0.0
C247 C 0.10943 0.52505 0.3876 0.0
P248 P 0.67753 0.06661 0.74814 0.0
H249 H 0.72802 0.15145 0.76358 0.0
H250 H 0.69883 0.18615 0.78163 0.0
H251 H 0.55086 0.0702 0.7847 0.0
H252 H 0.58046 0.03571 0.76608 0.0
H253 H 0.73108 0.05584 0.77839 0.0
H254 H 0.71356 0.99543 0.79436 0.0
H255 H 0.56974 0.91871 0.76418 0.0
H256 H 0.58816 0.97967 0.74787 0.0
H257 H 0.64156 0.09934 0.72132 0.0
H258 H 0.6648 0.00879 0.71453 0.0
O259 O 0.73912 0.0999 0.74587 0.0
H260 H 0.61837 0.08817 0.68331 0.0
H261 H 0.64006 0.99642 0.67654 0.0
C262 C 0.65651 0.09089 0.76373 0.0
C263 C 0.68943 0.13331 0.76839 0.0
C264 C 0.67268 0.15315 0.77883 0.0
C265 C 0.6225 0.13099 0.78474 0.0
C266 C 0.58966 0.08826 0.78024 0.0
C267 C 0.60656 0.06842 0.76978 0.0
C268 C 0.66139 0.02207 0.76157 0.0
C269 C 0.69568 0.02607 0.77528 0.0
C270 C 0.68539 0.99145 0.78456 0.0
C271 C 0.64032 0.95208 0.78046 0.0
C272 C 0.60513 0.94846 0.76738 0.0
C273 C 0.61549 0.98326 0.75812 0.0
C274 C 0.65365 0.0541 0.72097 0.0
C275 C 0.64043 0.07623 0.71182 0.0
C276 C 0.62704 0.06974 0.69001 0.0
C277 C 0.62706 0.04122 0.67683 0.0
C278 C 0.63997 0.01883 0.68615 0.0
C279 C 0.65356 0.02551 0.70796 0.0
P280 P 0.4385 0.26843 0.07589 0.0
H281 H 0.43439 0.2441 0.12002 0.0
H282 H 0.49879 0.25837 0.14406 0.0
H283 H 0.60409 0.31289 0.0908 0.0
H284 H 0.53993 0.29807 0.06703 0.0
H285 H 0.35149 0.26343 0.07105 0.0
H286 H 0.33255 0.30874 0.08411 0.0
H287 H 0.46341 0.37726 0.12381 0.0
H288 H 0.48213 0.33211 0.11076 0.0
H289 H 0.42913 0.24277 0.02976 0.0
H290 H 0.50945 0.35601 0.06793 0.0
O291 O 0.39053 0.2194 0.07037 0.0
H292 H 0.46213 0.28202 0.99649 0.0
H293 H 0.53997 0.39528 0.03512 0.0
C294 C 0.4827 0.27081 0.09191 0.0
C295 C 0.47115 0.25826 0.11347 0.0
C296 C 0.50794 0.26657 0.12719 0.0
C297 C 0.55662 0.28708 0.11939 0.0
C298 C 0.56691 0.29672 0.09731 0.0
C299 C 0.53023 0.28862 0.08369 0.0
C300 C 0.41752 0.29372 0.09027 0.0
C301 C 0.37512 0.28731 0.08314 0.0
C302 C 0.36469 0.31349 0.09042 0.0
C303 C 0.39675 0.34668 0.10486 0.0
C304 C 0.43774 0.35166 0.1129 0.0
C305 C 0.44828 0.3256 0.10551 0.0
C306 C 0.46615 0.29647 0.05128 0.0
C307 C 0.45384 0.27606 0.03098 0.0
C308 C 0.47248 0.29861 0.01196 0.0
C309 C 0.50344 0.34198 0.01299 0.0
C310 C 0.51689 0.36208 0.03352 0.0
C311 C 0.49885 0.33956 0.05241 0.0
H312 H 0.29236 0.47727 0.15366 0.0
H313 H 0.38295 0.54728 0.09836 0.0
H314 H 0.32281 0.43795 0.15101 0.0
H315 H 0.41322 0.50758 0.09565 0.0
H316 H 0.3769 0.38245 0.07638 0.0
H317 H 0.36633 0.43448 0.08391 0.0
H318 H 0.39349 0.43593 0.1519 0.0
H319 H 0.40324 0.3829 0.14435 0.0
C320 C 0.32007 0.48527 0.14139 0.0
C321 C 0.33472 0.51502 0.12601 0.0
C322 C 0.33743 0.4626 0.13985 0.0
C323 C 0.36966 0.46919 0.12288 0.0
C324 C 0.38755 0.50128 0.10862 0.0
C325 C 0.37029 0.52402 0.11018 0.0
C326 C 0.38027 0.39363 0.09296 0.0
C327 C 0.39019 0.37822 0.10983 0.0
C328 C 0.37508 0.42396 0.09722 0.0
C329 C 0.37953 0.43955 0.11847 0.0
C330 C 0.38986 0.42443 0.13537 0.0
C331 C 0.39547 0.3942 0.13106 0.0
H332 H 0.68947 0.18913 0.47074 0.0
H333 H 0.78267 0.16037 0.49152 0.0
H334 H 0.76234 0.26031 0.46578 0.0
H335 H 0.85569 0.23159 0.48621 0.0
H336 H 0.97704 0.37057 0.48784 0.0
H337 H 0.90122 0.30366 0.49858 0.0
H338 H 0.83065 0.29564 0.43993 0.0
H339 H 0.90571 0.36264 0.42955 0.0
C340 C 0.72544 0.19797 0.47442 0.0
C341 C 0.73011 0.1688 0.48139 0.0
C342 C 0.76731 0.23884 0.47146 0.0
C343 C 0.815 0.25169 0.47541 0.0
C344 C 0.81954 0.2229 0.4832 0.0
C345 C 0.77761 0.18194 0.48614 0.0
C346 C 0.94496 0.35484 0.47749 0.0
C347 C 0.94747 0.37186 0.45779 0.0
C348 C 0.9017 0.31629 0.48351 0.0
C349 C 0.85985 0.2941 0.47007 0.0
C350 C 0.86191 0.31194 0.45079 0.0
C351 C 0.90513 0.35024 0.44473 0.0
H352 H 0.55505 0.70996 0.80901 0.0
H353 H 0.70338 0.80208 0.83303 0.0
H354 H 0.55175 0.76432 0.79881 0.0
H355 H 0.69969 0.85602 0.82316 0.0
H356 H 0.6633 0.9428 0.82057 0.0
H357 H 0.65737 0.88504 0.83301 0.0
H358 H 0.59169 0.81969 0.77209 0.0
H359 H 0.59795 0.8776 0.75954 0.0
C360 C 0.58695 0.74173 0.8121 0.0
C361 C 0.62943 0.75154 0.82192 0.0
C362 C 0.58499 0.77286 0.80629 0.0
C363 C 0.62535 0.8145 0.81027 0.0
C364 C 0.66757 0.82425 0.82025 0.0
C365 C 0.66964 0.79323 0.82594 0.0
C366 C 0.64752 0.9161 0.80982 0.0
C367 C 0.63155 0.91505 0.78897 0.0
C368 C 0.64412 0.88299 0.81697 0.0
C369 C 0.62451 0.84793 0.80346 0.0
C370 C 0.60659 0.8461 0.78296 0.0
C371 C 0.61012 0.8793 0.77579 0.0
H372 H 0.79739 0.43132 0.21433 0.0
H373 H 0.84975 0.46657 0.14845 0.0
H374 H 0.71591 0.37163 0.20062 0.0
H375 H 0.76944 0.40759 0.13487 0.0
H376 H 0.636 0.28767 0.11336 0.0
H377 H 0.71322 0.3298 0.13363 0.0
H378 H 0.64845 0.36596 0.17957 0.0
H379 H 0.57152 0.32433 0.15925 0.0
C380 C 0.79144 0.4261 0.19698 0.0
C381 C 0.82929 0.45374 0.18241 0.0
C382 C 0.74511 0.3921 0.18917 0.0
C383 C 0.73661 0.38487 0.1667 0.0
C384 C 0.77513 0.41199 0.15225 0.0
C385 C 0.82084 0.44608 0.16001 0.0
C386 C 0.63791 0.30391 0.12805 0.0
C387 C 0.59802 0.30332 0.13447 0.0
C388 C 0.68201 0.32791 0.13965 0.0
C389 C 0.68694 0.35161 0.15793 0.0
C390 C 0.64555 0.34784 0.16559 0.0
C391 C 0.60145 0.32393 0.15393 0.0
H392 H 0.43102 0.92515 0.45563 0.0
H393 H 0.5114 0.89473 0.48934 0.0
H394 H 0.36075 0.8522 0.45176 0.0
H395 H 0.44158 0.82183 0.48506 0.0
H396 H 0.29168 0.69539 0.49084 0.0
H397 H 0.35727 0.76905 0.49693 0.0
H398 H 0.3379 0.79131 0.43199 0.0
H399 H 0.27246 0.7179 0.42594 0.0
C400 C 0.4338 0.90295 0.46219 0.0
C401 C 0.477 0.91592 0.47276 0.0
C402 C 0.39352 0.86104 0.45988 0.0
C403 C 0.39537 0.83099 0.46808 0.0
C404 C 0.43846 0.84404 0.47882 0.0
C405 C 0.47873 0.88594 0.48114 0.0
C406 C 0.30133 0.71602 0.47788 0.0
C407 C 0.27668 0.70058 0.45789 0.0
C408 C 0.33906 0.75828 0.48135 0.0
C409 C 0.35318 0.78623 0.46492 0.0
C410 C 0.32764 0.77087 0.44514 0.0
C411 C 0.28993 0.72865 0.44168 0.0
H412 H 0.51252 0.26897 0.79843 0.0
H413 H 0.56235 0.27731 0.86315 0.0
H414 H 0.53354 0.22477 0.78683 0.0
H415 H 0.58302 0.23263 0.85161 0.0
H416 H 0.66794 0.19364 0.81552 0.0
H417 H 0.64237 0.23381 0.82912 0.0
H418 H 0.50978 0.15729 0.79061 0.0
H419 H 0.53652 0.11834 0.77623 0.0
C420 C 0.52733 0.26088 0.81027 0.0
C421 C 0.53568 0.27664 0.83173 0.0
C422 C 0.53932 0.23544 0.80363 0.0
C423 C 0.55986 0.22497 0.81829 0.0
C424 C 0.56788 0.24049 0.83981 0.0
C425 C 0.55602 0.26608 0.84644 0.0
C426 C 0.63339 0.18544 0.8099 0.0
C427 C 0.6045 0.15292 0.79464 0.0
C428 C 0.61842 0.2082 0.8179 0.0
C429 C 0.57411 0.19898 0.81089 0.0
C430 C 0.54449 0.16566 0.79612 0.0
C431 C 0.55951 0.14294 0.78809 0.0
H432 H 0.62436 0.85648 0.5571 0.0
H433 H 0.64097 0.83548 0.4894 0.0
H434 H 0.6227 0.79938 0.56663 0.0
H435 H 0.63974 0.77852 0.49893 0.0
H436 H 0.60576 0.66061 0.5226 0.0
H437 H 0.59206 0.70954 0.51355 0.0
H438 H 0.68397 0.78903 0.56729 0.0
H439 H 0.69618 0.73983 0.57667 0.0
C440 C 0.62745 0.83954 0.54424 0.0
C441 C 0.63331 0.85081 0.52252 0.0
C442 C 0.62657 0.80684 0.5497 0.0
C443 C 0.63172 0.78465 0.53358 0.0
C444 C 0.63526 0.79469 0.51174 0.0
C445 C 0.63599 0.82738 0.50627 0.0
C446 C 0.62243 0.6883 0.53261 0.0
C447 C 0.65239 0.69648 0.55024 0.0
C448 C 0.61494 0.71649 0.52733 0.0
C449 C 0.63693 0.75326 0.53968 0.0
C450 C 0.66594 0.76085 0.55757 0.0
C451 C 0.67351 0.73285 0.56279 0.0
H452 H 0.75276 0.57255 0.83397 0.0
H453 H 0.66088 0.45353 0.86309 0.0
H454 H 0.82467 0.57525 0.83717 0.0
H455 H 0.73327 0.45671 0.86708 0.0
H456 H 0.86895 0.4606 0.85614 0.0
H457 H 0.79463 0.45445 0.85092 0.0
H458 H 0.88055 0.58569 0.86206 0.0
H459 H 0.95431 0.59171 0.86667 0.0
C460 C 0.74781 0.54689 0.84114 0.0
C461 C 0.70068 0.51281 0.84827 0.0
C462 C 0.7894 0.54857 0.84316 0.0
C463 C 0.78557 0.51644 0.85266 0.0
C464 C 0.73813 0.48196 0.85946 0.0
C465 C 0.69635 0.48014 0.85724 0.0
C466 C 0.87188 0.48811 0.85748 0.0
C467 C 0.91805 0.52673 0.86157 0.0
C468 C 0.82909 0.48461 0.85455 0.0
C469 C 0.83103 0.51959 0.85582 0.0
C470 C 0.87721 0.55804 0.86029 0.0
C471 C 0.91985 0.56154 0.86302 0.0
H472 H 0.28464 0.68615 0.1334 0.0
H473 H 0.22393 0.71247 0.1873 0.0
H474 H 0.36158 0.75668 0.13586 0.0
H475 H 0.30102 0.78231 0.19018 0.0
H476 H 0.43202 0.91521 0.18188 0.0
H477 H 0.35354 0.84777 0.17387 0.0
H478 H 0.43164 0.79917 0.15879 0.0
H479 H 0.51001 0.86691 0.16565 0.0
C480 C 0.28764 0.70693 0.14577 0.0
C481 C 0.24804 0.69349 0.16018 0.0
C482 C 0.33191 0.74739 0.14726 0.0
C483 C 0.33778 0.77538 0.16326 0.0
C484 C 0.29777 0.762 0.17742 0.0
C485 C 0.25352 0.72168 0.17587 0.0
C486 C 0.43255 0.89037 0.1764 0.0
C487 C 0.47747 0.89656 0.17462 0.0
C488 C 0.38741 0.85147 0.17208 0.0
C489 C 0.38598 0.8177 0.16591 0.0
C490 C 0.43108 0.82433 0.16334 0.0
C491 C 0.47614 0.8632 0.16757 0.0
H492 H 0.61181 0.2702 0.46665 0.0
H493 H 0.50402 0.20264 0.5178 0.0
H494 H 0.6267 0.33315 0.48004 0.0
H495 H 0.51751 0.2651 0.53085 0.0
H496 H 0.59819 0.3919 0.56414 0.0
H497 H 0.57724 0.32761 0.54938 0.0
H498 H 0.59505 0.36984 0.4843 0.0
H499 H 0.61747 0.43484 0.49925 0.0
C500 C 0.59073 0.26873 0.48056 0.0
C501 C 0.55701 0.23157 0.49127 0.0
C502 C 0.59909 0.30479 0.48822 0.0
C503 C 0.57352 0.30446 0.50665 0.0
C504 C 0.53874 0.26688 0.51693 0.0
C505 C 0.53081 0.23098 0.50942 0.0
C506 C 0.59692 0.38721 0.54667 0.0
C507 C 0.6094 0.41843 0.53287 0.0
C508 C 0.58481 0.35024 0.53817 0.0
C509 C 0.58438 0.3433 0.51559 0.0
C510 C 0.59581 0.37427 0.50176 0.0
C511 C 0.60843 0.41147 0.51031 0.0
H512 H 0.49602 0.57641 0.85527 0.0
H513 H 0.39202 0.4441 0.84884 0.0
H514 H 0.428 0.57926 0.85903 0.0
H515 H 0.32343 0.44672 0.85114 0.0
H516 H 0.2063 0.45895 0.87438 0.0
H517 H 0.27363 0.45527 0.87135 0.0
H518 H 0.36724 0.57573 0.84351 0.0
H519 H 0.30207 0.58121 0.84867 0.0
C520 C 0.45846 0.54782 0.85435 0.0
C521 C 0.44971 0.51001 0.85177 0.0
C522 C 0.41904 0.54942 0.85633 0.0
C523 C 0.36925 0.51325 0.85529 0.0
C524 C 0.36071 0.47539 0.85247 0.0
C525 C 0.40025 0.47378 0.85096 0.0
C526 C 0.24137 0.48507 0.86793 0.0
C527 C 0.24777 0.52046 0.86188 0.0
C528 C 0.28024 0.48265 0.86581 0.0
C529 C 0.32689 0.51523 0.85721 0.0
C530 C 0.33279 0.55013 0.85068 0.0
C531 C 0.29438 0.55289 0.8532 0.0
H532 H 1.00997 0.42289 0.12903 0.0
H533 H 0.95428 0.4517 0.18397 0.0
H534 H 0.93901 0.35021 0.13174 0.0
H535 H 0.884 0.37916 0.18698 0.0
H536 H 0.7439 0.24741 0.17905 0.0
H537 H 0.80837 0.32002 0.17131 0.0
H538 H 0.91051 0.29525 0.15529 0.0
H539 H 0.84627 0.22305 0.1628 0.0
C540 C 0.9825 0.4138 0.14162 0.0
C541 C 0.98801 0.44324 0.15632 0.0
C542 C 0.94187 0.37203 0.14327 0.0
C543 C 0.90575 0.35856 0.15969 0.0
C544 C 0.9106 0.38825 0.17397 0.0
C545 C 0.95117 0.42998 0.1723 0.0
C546 C 0.78006 0.25748 0.17376 0.0
C547 C 0.78974 0.22925 0.17152 0.0
C548 C 0.81711 0.29916 0.16937 0.0
C549 C 0.86487 0.31371 0.16271 0.0
C550 C 0.87406 0.28522 0.15999 0.0
C551 C 0.83706 0.24364 0.1643 0.0
H552 H 0.08425 0.62885 0.0986 0.0
H553 H 0.11321 0.5418 0.09932 0.0
H554 H 0.08647 0.62659 0.05865 0.0
H555 H 0.11733 0.54092 0.05961 0.0
H556 H 0.18429 0.60911 0.99046 0.0
H557 H 0.18197 0.61301 0.03001 0.0
H558 H 1.02502 0.54978 0.02878 0.0
H559 H 1.0259 0.54297 0.98927 0.0
C560 C 0.09152 0.6096 0.09024 0.0
C561 C 0.09869 0.58559 0.102 0.0
C562 C 0.09267 0.60825 0.06748 0.0
C563 C 0.10217 0.58365 0.05624 0.0
C564 C 0.11012 0.5602 0.068 0.0
C565 C 0.1078 0.56077 0.09066 0.0
C566 C 0.14895 0.59527 0.99846 0.0
C567 C 0.10519 0.57539 0.98638 0.0
C568 C 0.14791 0.59802 0.02113 0.0
C569 C 0.10342 0.58192 0.03226 0.0
C570 C 1.05985 0.5628 0.02043 0.0
C571 C 1.06058 0.55918 0.99777 0.0
H572 H 0.71141 0.09154 0.41576 0.0
H573 H 0.55214 0.01744 0.41872 0.0
H574 H 0.71013 0.0983 0.37688 0.0
H575 H 0.55072 0.02453 0.37953 0.0
H576 H 0.57366 1.00147 0.30636 0.0
H577 H 0.56743 0.99979 0.3459 0.0
H578 H 0.69302 0.12906 0.34997 0.0
H579 H 0.69922 0.13077 0.31046 0.0
C580 C 0.6761 0.07701 0.40808 0.0
C581 C 0.63186 0.05375 0.42018 0.0
C582 C 0.67538 0.08114 0.38581 0.0
C583 C 0.63032 0.062 0.37508 0.0
C584 C 0.58598 0.03936 0.3873 0.0
C585 C 0.58677 0.03544 0.40971 0.0
C586 C 0.5993 0.02973 0.31568 0.0
C587 C 0.6373 0.06615 0.30525 0.0
C588 C 0.5957 0.02877 0.33835 0.0
C589 C 0.63005 0.06419 0.35109 0.0
C590 C 0.66657 0.10105 0.34062 0.0
C591 C 0.67016 0.10202 0.31799 0.0
H592 H 0.49933 0.46728 0.77427 0.0
H593 H 0.652 0.55883 0.79301 0.0
H594 H 0.52284 0.48463 0.73632 0.0
H595 H 0.67564 0.57641 0.75486 0.0
H596 H 0.68663 0.6187 0.68462 0.0
H597 H 0.66377 0.6061 0.72313 0.0
H598 H 0.57105 0.47513 0.70952 0.0
H599 H 0.5933 0.48766 0.67113 0.0
C600 C 0.5379 0.49137 0.77027 0.0
C601 C 0.57389 0.51159 0.78655 0.0
C602 C 0.55138 0.50116 0.74854 0.0
C603 C 0.60113 0.53158 0.7426 0.0
C604 C 0.63697 0.55295 0.75897 0.0
C605 C 0.62348 0.5429 0.78078 0.0
C606 C 0.66116 0.58724 0.68988 0.0
C607 C 0.64171 0.55414 0.67487 0.0
C608 C 0.64842 0.58006 0.71192 0.0
C609 C 0.61549 0.53965 0.71932 0.0
C610 C 0.59609 0.50662 0.70428 0.0
C611 C 0.60918 0.51378 0.68233 0.0
H612 H 0.5026 0.99886 0.54758 0.0
H613 H 0.66094 0.07491 0.53813 0.0
H614 H 0.51271 0.99504 0.58617 0.0
H615 H 0.67138 0.07196 0.57667 0.0
H616 H 0.67294 0.03148 0.64299 0.0
H617 H 0.65781 0.02712 0.60434 0.0
H618 H 0.54319 0.03835 0.61847 0.0
H619 H 0.55658 0.04057 0.65718 0.0
C620 C 0.53955 0.01473 0.5538 0.0
C621 C 0.58097 0.03707 0.53992 0.0
C622 C 0.54541 0.01274 0.5759 0.0
C623 C 0.59288 0.03321 0.58457 0.0
C624 C 0.63423 0.05524 0.57053 0.0
C625 C 0.62832 0.0571 0.54845 0.0
C626 C 0.64383 0.0322 0.6379 0.0
C627 C 0.61604 0.03645 0.65325 0.0
C628 C 0.63561 0.03027 0.61569 0.0
C629 C 0.59953 0.03269 0.60824 0.0
C630 C 0.57099 0.03603 0.6236 0.0
C631 C 0.5791 0.03782 0.64582 0.0
H632 H 0.50016 0.46393 0.90428 0.0
H633 H 0.65506 0.52035 0.90869 0.0
H634 H 0.48127 0.41989 0.93424 0.0
H635 H 0.63628 0.47479 0.93795 0.0
H636 H 0.59182 0.41813 0.00496 0.0
H637 H 0.61308 0.46137 0.97443 0.0
H638 H 0.47444 0.36315 0.94402 0.0
H639 H 0.45126 0.32131 0.97543 0.0
C640 C 0.53011 0.46667 0.91168 0.0
C641 C 0.57901 0.49559 0.90438 0.0
C642 C 0.51931 0.4411 0.92868 0.0
C643 C 0.55715 0.44339 0.93852 0.0
C644 C 0.60623 0.47249 0.93107 0.0
C645 C 0.61708 0.49857 0.91428 0.0
C646 C 0.56557 0.40582 0.99188 0.0
C647 C 0.51942 0.3663 0.99294 0.0
C648 C 0.57816 0.4305 0.97413 0.0
C649 C 0.54533 0.41609 0.95675 0.0
C650 C 0.50024 0.37579 0.95731 0.0
C651 C 0.48729 0.35138 0.97522 0.0
H652 H 0.1561 0.60804 0.21874 0.0
H653 H 0.12535 0.49026 0.21298 0.0
H654 H 0.1583 0.60657 0.25826 0.0
H655 H 0.12582 0.48791 0.25233 0.0
H656 H 0.18422 0.51556 0.32039 0.0
H657 H 0.1827 0.51967 0.28136 0.0
H658 H 0.10877 0.57329 0.29018 0.0
H659 H 0.113 0.57147 0.32944 0.0
C660 C 0.14938 0.58169 0.22598 0.0
C661 C 0.14093 0.5494 0.21288 0.0
C662 C 0.15037 0.58071 0.2486 0.0
C663 C 0.14262 0.54726 0.25853 0.0
C664 C 0.13307 0.51459 0.24529 0.0
C665 C 0.13247 0.51576 0.22273 0.0
C666 C 0.16836 0.52889 0.31409 0.0
C667 C 0.14888 0.5433 0.32816 0.0
C668 C 0.16677 0.53065 0.29162 0.0
C669 C 0.14523 0.54649 0.28254 0.0
C670 C 0.126 0.56118 0.29658 0.0
C671 C 0.12786 0.55965 0.31912 0.0
loop_
_geom_bond_atom_site_label_1
_geom_bond_atom_site_label_2
_geom_bond_distance
_geom_bond_site_symmetry_2
_ccdc_geom_bond_type
La0 C2 2.928 . S
La0 O20 2.521 . S
La0 O21 2.628 . S
La0 O22 2.554 . S
La0 O23 2.757 . S
La0 O24 2.470 . S
La0 O29 2.482 . S
La0 O31 2.503 1_455 S
La1 C11 2.928 . S
La1 O23 2.482 1_655 S
La1 O25 2.503 1_655 S
La1 O26 2.521 . S
La1 O27 2.628 . S
La1 O28 2.560 . S
La1 O29 2.757 1_655 S
La1 O30 2.470 . S
C2 La0 2.928 . S
C2 C3 1.503 . S
C2 O20 1.261 . S
C2 O21 1.243 . S
C3 C2 1.503 . S
C3 C4 1.394 . S
C3 C8 1.373 . S
C4 C3 1.394 . S
C4 C5 1.380 . S
C4 H32 0.930 . S
C5 C4 1.380 . S
C5 C6 1.376 . S
C5 H33 0.930 . S
C6 C5 1.376 . S
C6 C7 1.370 . S
C7 C6 1.370 . S
C7 C8 1.396 . S
C7 H34 0.929 . S
C8 C3 1.373 . S
C8 C7 1.396 . S
C8 H35 0.929 . S
C9 O22 1.240 . S
C9 O23 1.289 . S
C10 O24 1.258 . S
C10 O25 1.256 . S
C11 La1 2.928 . S
C11 C12 1.503 . S
C11 O26 1.261 . S
C11 O27 1.243 . S
C12 C11 1.503 . S
C12 C13 1.394 . S
C12 C17 1.373 . S
C13 C12 1.394 . S
C13 C14 1.380 . S
C13 H36 0.930 . S
C14 C13 1.380 . S
C14 C15 1.376 . S
C14 H37 0.930 . S
C15 C14 1.376 . S
C15 C16 1.370 . S
C16 C15 1.370 . S
C16 C17 1.396 . S
C16 H38 0.929 . S
C17 C12 1.373 . S
C17 C16 1.396 . S
C17 H39 0.929 . S
C18 O28 1.208 1_455 S
C18 O29 1.289 . S
C19 O30 1.258 . S
C19 O31 1.256 . S
O20 La0 2.521 . S
O20 C2 1.261 . S
O21 La0 2.628 . S
O21 C2 1.243 . S
O22 La0 2.554 . S
O22 C9 1.240 . S
O23 La0 2.757 . S
O23 La1 2.482 1_455 S
O23 C9 1.289 . S
O24 La0 2.470 . S
O24 C10 1.258 . S
O25 La1 2.503 1_455 S
O25 C10 1.256 . S
O26 La1 2.521 . S
O26 C11 1.261 . S
O27 La1 2.628 . S
O27 C11 1.243 . S
O28 La1 2.560 . S
O28 C18 1.208 1_655 S
O29 La0 2.482 . S
O29 La1 2.757 1_455 S
O29 C18 1.289 . S
O30 La1 2.470 . S
O30 C19 1.258 . S
O31 La0 2.503 1_655 S
O31 C19 1.256 . S
H32 C4 0.930 . S
H33 C5 0.930 . S
H34 C7 0.929 . S
H35 C8 0.929 . S
H36 C13 0.930 . S
H37 C14 0.930 . S
H38 C16 0.929 . S
H39 C17 0.929 . S
La40 C42 2.928 . S
La40 O60 2.521 . S
La40 O61 2.628 . S
La40 O62 2.554 . S
La40 O63 2.757 1_565 S
La40 O64 2.470 . S
La40 O69 2.482 . S
La40 O71 2.503 1_565 S
La41 C51 2.928 . S
La41 O63 2.482 . S
La41 O65 2.503 1_545 S
La41 O66 2.521 . S
La41 O67 2.628 . S
La41 O68 2.554 . S
La41 O69 2.757 1_545 S
La41 O70 2.470 . S
C42 La40 2.928 . S
C42 C43 1.503 . S
C42 O60 1.261 . S
C42 O61 1.243 . S
C43 C42 1.503 . S
C43 C44 1.394 . S
C43 C48 1.373 . S
C44 C43 1.394 . S
C44 C45 1.380 . S
C44 H72 0.930 . S
C45 C44 1.380 . S
C45 C46 1.376 . S
C45 H73 0.930 . S
C46 C45 1.376 . S
C46 C47 1.370 . S
C47 C46 1.370 . S
C47 C48 1.396 . S
C47 H74 0.929 . S
C48 C43 1.373 . S
C48 C47 1.396 . S
C48 H75 0.929 . S
C49 O62 1.240 1_545 S
C49 O63 1.289 . S
C50 O64 1.258 . S
C50 O65 1.256 . S
C51 La41 2.928 . S
C51 C52 1.503 . S
C51 O66 1.261 . S
C51 O67 1.243 . S
C52 C51 1.503 . S
C52 C53 1.394 . S
C52 C57 1.373 . S
C53 C52 1.394 . S
C53 C54 1.380 . S
C53 H76 0.930 . S
C54 C53 1.380 . S
C54 C55 1.376 . S
C54 H77 0.930 . S
C55 C54 1.376 . S
C55 C56 1.370 . S
C56 C55 1.370 . S
C56 C57 1.396 . S
C56 H78 0.929 . S
C57 C52 1.373 . S
C57 C56 1.396 . S
C57 H79 0.929 . S
C58 O68 1.240 . S
C58 O69 1.289 1_545 S
C59 O70 1.258 . S
C59 O71 1.256 . S
O60 La40 2.521 . S
O60 C42 1.261 . S
O61 La40 2.628 . S
O61 C42 1.243 . S
O62 La40 2.554 . S
O62 C49 1.240 1_565 S
O63 La40 2.757 1_545 S
O63 La41 2.482 . S
O63 C49 1.289 . S
O64 La40 2.470 . S
O64 C50 1.258 . S
O65 La41 2.503 1_565 S
O65 C50 1.256 . S
O66 La41 2.521 . S
O66 C51 1.261 . S
O67 La41 2.628 . S
O67 C51 1.243 . S
O68 La41 2.554 . S
O68 C58 1.240 . S
O69 La40 2.482 . S
O69 La41 2.757 1_565 S
O69 C58 1.289 1_565 S
O70 La41 2.470 . S
O70 C59 1.258 . S
O71 La40 2.503 1_545 S
O71 C59 1.256 . S
H72 C44 0.930 . S
H73 C45 0.930 . S
H74 C47 0.929 . S
H75 C48 0.929 . S
H76 C53 0.930 . S
H77 C54 0.930 . S
H78 C56 0.929 . S
H79 C57 0.929 . S
La80 C82 2.928 . S
La80 O100 2.521 . S
La80 O101 2.628 . S
La80 O102 2.554 . S
La80 O103 2.757 . S
La80 O104 2.470 . S
La80 O109 2.482 . S
La80 O111 2.503 . S
La81 C91 2.928 . S
La81 O103 2.482 . S
La81 O105 2.503 . S
La81 O106 2.521 . S
La81 O107 2.628 . S
La81 O108 2.554 . S
La81 O109 2.757 . S
La81 O110 2.470 . S
C82 La80 2.928 . S
C82 C83 1.503 . S
C82 O100 1.261 . S
C82 O101 1.243 . S
C83 C82 1.503 . S
C83 C84 1.394 . S
C83 C88 1.373 . S
C84 C83 1.394 . S
C84 C85 1.380 . S
C84 H112 0.930 . S
C85 C84 1.380 . S
C85 C86 1.376 . S
C85 H113 0.930 . S
C86 C85 1.376 . S
C86 C87 1.370 . S
C87 C86 1.370 . S
C87 C88 1.396 . S
C87 H114 0.929 . S
C88 C83 1.373 . S
C88 C87 1.396 . S
C88 H115 0.929 . S
C89 O102 1.240 . S
C89 O103 1.289 . S
C90 O104 1.258 . S
C90 O105 1.256 . S
C91 La81 2.928 . S
C91 C92 1.503 . S
C91 O106 1.261 . S
C91 O107 1.243 . S
C92 C91 1.503 . S
C92 C93 1.394 . S
C92 C97 1.373 . S
C93 C92 1.394 . S
C93 C94 1.380 . S
C93 H116 0.930 . S
C94 C93 1.380 . S
C94 C95 1.376 . S
C94 H117 0.930 . S
C95 C94 1.376 . S
C95 C96 1.370 . S
C96 C95 1.370 . S
C96 C97 1.396 . S
C96 H118 0.929 . S
C97 C92 1.373 . S
C97 C96 1.396 . S
C97 H119 0.929 . S
C98 O108 1.240 . S
C98 O109 1.289 . S
C99 O110 1.258 . S
C99 O111 1.256 . S
O100 La80 2.521 . S
O100 C82 1.261 . S
O101 La80 2.628 . S
O101 C82 1.243 . S
O102 La80 2.554 . S
O102 C89 1.240 . S
O103 La80 2.757 . S
O103 La81 2.482 . S
O103 C89 1.289 . S
O104 La80 2.470 . S
O104 C90 1.258 . S
O105 La81 2.503 . S
O105 C90 1.256 . S
O106 La81 2.521 . S
O106 C91 1.261 . S
O107 La81 2.628 . S
O107 C91 1.243 . S
O108 La81 2.554 . S
O108 C98 1.240 . S
O109 La80 2.482 . S
O109 La81 2.757 . S
O109 C98 1.289 . S
O110 La81 2.470 . S
O110 C99 1.258 . S
O111 La80 2.503 . S
O111 C99 1.256 . S
H112 C84 0.930 . S
H113 C85 0.930 . S
H114 C87 0.929 . S
H115 C88 0.929 . S
H116 C93 0.930 . S
H117 C94 0.930 . S
H118 C96 0.929 . S
H119 C97 0.929 . S
P120 O131 1.478 1_545 S
P120 C134 1.811 1_545 S
P120 C140 1.813 . S
P120 C146 1.823 . S
H121 C135 0.941 . S
H122 C136 0.939 . S
H123 C138 0.940 . S
H124 C139 0.940 . S
H125 C141 0.939 . S
H126 C142 0.942 . S
H127 C144 0.940 . S
H128 C145 0.939 . S
H129 C147 0.941 . S
H130 C151 0.939 . S
O131 P120 1.478 1_565 S
H132 C148 0.939 . S
H133 C150 0.940 . S
C134 P120 1.811 1_565 S
C134 C135 1.389 . S
C134 C139 1.391 . S
C135 H121 0.941 . S
C135 C134 1.389 . S
C135 C136 1.397 . S
C136 H122 0.939 . S
C136 C135 1.397 . S
C136 C137 1.378 . S
C137 C136 1.378 . S
C137 C138 1.378 . S
C138 H123 0.940 . S
C138 C137 1.378 . S
C138 C139 1.396 . S
C139 H124 0.940 . S
C139 C134 1.391 . S
C139 C138 1.396 . S
C140 P120 1.813 . S
C140 C141 1.378 . S
C140 C145 1.400 . S
C141 H125 0.939 . S
C141 C140 1.378 . S
C141 C142 1.361 . S
C142 H126 0.942 . S
C142 C141 1.361 . S
C142 C143 1.369 . S
C143 C142 1.369 . S
C143 C144 1.404 . S
C144 H127 0.940 . S
C144 C143 1.404 . S
C144 C145 1.389 . S
C145 H128 0.939 . S
C145 C140 1.400 . S
C145 C144 1.389 . S
C146 P120 1.823 . S
C146 C147 1.391 1_545 S
C146 C151 1.391 . S
C147 H129 0.941 . S
C147 C146 1.391 1_565 S
C147 C148 1.396 . S
C148 H132 0.939 . S
C148 C147 1.396 . S
C148 C149 1.397 1_565 S
C149 C148 1.397 1_545 S
C149 C150 1.385 . S
C150 H133 0.940 . S
C150 C149 1.385 . S
C150 C151 1.388 . S
C151 H130 0.939 . S
C151 C146 1.391 . S
C151 C150 1.388 . S
P152 O163 1.490 . S
P152 C166 1.812 . S
P152 C172 1.803 . S
P152 C178 1.819 . S
H153 C167 0.941 . S
H154 C168 0.939 . S
H155 C170 0.940 . S
H156 C171 0.940 . S
H157 C173 0.939 . S
H158 C174 0.942 . S
H159 C176 0.940 . S
H160 C177 0.939 . S
H161 C179 0.941 . S
H162 C183 0.939 . S
O163 P152 1.490 . S
H164 C180 0.939 . S
H165 C182 0.940 . S
C166 P152 1.812 . S
C166 C167 1.389 . S
C166 C171 1.391 . S
C167 H153 0.941 . S
C167 C166 1.389 . S
C167 C168 1.397 . S
C168 H154 0.939 . S
C168 C167 1.397 . S
C168 C169 1.378 . S
C169 C168 1.378 . S
C169 C170 1.378 . S
C170 H155 0.940 . S
C170 C169 1.378 . S
C170 C171 1.396 . S
C171 H156 0.940 . S
C171 C166 1.391 . S
C171 C170 1.396 . S
C172 P152 1.803 . S
C172 C173 1.378 . S
C172 C177 1.400 . S
C173 H157 0.939 . S
C173 C172 1.378 . S
C173 C174 1.361 . S
C174 H158 0.942 . S
C174 C173 1.361 . S
C174 C175 1.369 . S
C175 C174 1.369 . S
C175 C176 1.404 . S
C176 H159 0.940 . S
C176 C175 1.404 . S
C176 C177 1.389 . S
C177 H160 0.939 . S
C177 C172 1.400 . S
C177 C176 1.389 . S
C178 P152 1.819 . S
C178 C179 1.391 . S
C178 C183 1.391 . S
C179 H161 0.941 . S
C179 C178 1.391 . S
C179 C180 1.396 . S
C180 H164 0.939 . S
C180 C179 1.396 . S
C180 C181 1.397 . S
C181 C180 1.397 . S
C181 C182 1.385 . S
C182 H165 0.940 . S
C182 C181 1.385 . S
C182 C183 1.388 . S
C183 H162 0.939 . S
C183 C178 1.391 . S
C183 C182 1.388 . S
P184 O195 1.490 . S
P184 C198 1.812 . S
P184 C204 1.803 . S
P184 C210 1.819 . S
H185 C199 0.941 . S
H186 C200 0.939 . S
H187 C202 0.940 . S
H188 C203 0.940 . S
H189 C205 0.939 . S
H190 C206 0.942 . S
H191 C208 0.940 . S
H192 C209 0.939 . S
H193 C211 0.941 . S
H194 C215 0.961 . S
O195 P184 1.490 . S
H196 C212 0.939 . S
H197 C214 0.940 1_655 S
C198 P184 1.812 . S
C198 C199 1.389 . S
C198 C203 1.391 . S
C199 H185 0.941 . S
C199 C198 1.389 . S
C199 C200 1.397 . S
C200 H186 0.939 . S
C200 C199 1.397 . S
C200 C201 1.378 . S
C201 C200 1.378 . S
C201 C202 1.378 . S
C202 H187 0.940 . S
C202 C201 1.378 . S
C202 C203 1.396 . S
C203 H188 0.940 . S
C203 C198 1.391 . S
C203 C202 1.396 . S
C204 P184 1.803 . S
C204 C205 1.378 . S
C204 C209 1.400 . S
C205 H189 0.939 . S
C205 C204 1.378 . S
C205 C206 1.361 1_455 S
C206 H190 0.942 . S
C206 C205 1.361 1_655 S
C206 C207 1.369 . S
C207 C206 1.369 . S
C207 C208 1.404 . S
C208 H191 0.940 . S
C208 C207 1.404 . S
C208 C209 1.389 1_655 S
C209 H192 0.939 . S
C209 C204 1.400 . S
C209 C208 1.389 1_455 S
C210 P184 1.819 . S
C210 C211 1.391 . S
C210 C215 1.391 . S
C211 H193 0.941 . S
C211 C210 1.391 . S
C211 C212 1.396 . S
C212 H196 0.939 . S
C212 C211 1.396 . S
C212 C213 1.397 . S
C213 C212 1.397 . S
C213 C214 1.385 . S
C214 H197 0.940 1_455 S
C214 C213 1.385 . S
C214 C215 1.388 . S
C215 H194 0.961 . S
C215 C210 1.391 . S
C215 C214 1.388 . S
P216 O227 1.490 . S
P216 C230 1.812 . S
P216 C236 1.803 1_455 S
P216 C242 1.819 . S
H217 C231 0.941 . S
H218 C232 0.939 . S
H219 C234 0.940 . S
H220 C235 0.940 . S
H221 C237 0.939 . S
H222 C238 0.942 . S
H223 C240 0.940 . S
H224 C241 0.939 . S
H225 C243 0.941 . S
H226 C247 0.939 . S
O227 P216 1.490 . S
H228 C244 0.939 . S
H229 C246 0.940 . S
C230 P216 1.812 . S
C230 C231 1.389 . S
C230 C235 1.391 . S
C231 H217 0.941 . S
C231 C230 1.389 . S
C231 C232 1.397 . S
C232 H218 0.939 . S
C232 C231 1.397 . S
C232 C233 1.378 . S
C233 C232 1.378 . S
C233 C234 1.378 . S
C234 H219 0.940 . S
C234 C233 1.378 . S
C234 C235 1.396 . S
C235 H220 0.940 . S
C235 C230 1.391 . S
C235 C234 1.396 . S
C236 P216 1.803 1_655 S
C236 C237 1.378 . S
C236 C241 1.400 . S
C237 H221 0.939 . S
C237 C236 1.378 . S
C237 C238 1.361 . S
C238 H222 0.942 . S
C238 C237 1.361 . S
C238 C239 1.369 . S
C239 C238 1.369 . S
C239 C240 1.404 . S
C240 H223 0.940 . S
C240 C239 1.404 . S
C240 C241 1.389 . S
C241 H224 0.939 . S
C241 C236 1.400 . S
C241 C240 1.389 . S
C242 P216 1.819 . S
C242 C243 1.391 . S
C242 C247 1.391 1_455 S
C243 H225 0.941 . S
C243 C242 1.391 . S
C243 C244 1.396 . S
C244 H228 0.939 . S
C244 C243 1.396 . S
C244 C245 1.397 . S
C245 C244 1.397 . S
C245 C246 1.385 1_455 S
C246 H229 0.940 . S
C246 C245 1.385 1_655 S
C246 C247 1.388 . S
C247 H226 0.939 . S
C247 C242 1.391 1_655 S
C247 C246 1.388 . S
P248 O259 1.490 . S
P248 C262 1.812 . S
P248 C268 1.803 1_545 S
P248 C274 1.819 . S
H249 C263 0.941 . S
H250 C264 0.939 . S
H251 C266 0.940 . S
H252 C267 0.940 . S
H253 C269 0.939 . S
H254 C270 0.942 . S
H255 C272 0.940 . S
H256 C273 0.939 . S
H257 C275 0.941 . S
H258 C279 0.939 . S
O259 P248 1.490 . S
H260 C276 0.939 . S
H261 C278 0.940 . S
C262 P248 1.812 . S
C262 C263 1.389 . S
C262 C267 1.391 . S
C263 H249 0.941 . S
C263 C262 1.389 . S
C263 C264 1.397 . S
C264 H250 0.939 . S
C264 C263 1.397 . S
C264 C265 1.378 . S
C265 C264 1.378 . S
C265 C266 1.378 . S
C266 H251 0.940 . S
C266 C265 1.378 . S
C266 C267 1.396 . S
C267 H252 0.940 . S
C267 C262 1.391 . S
C267 C266 1.396 . S
C268 P248 1.803 1_565 S
C268 C269 1.378 . S
C268 C273 1.400 . S
C269 H253 0.939 . S
C269 C268 1.378 . S
C269 C270 1.361 . S
C270 H254 0.942 . S
C270 C269 1.361 . S
C270 C271 1.369 . S
C271 C270 1.369 . S
C271 C272 1.404 . S
C272 H255 0.940 . S
C272 C271 1.404 . S
C272 C273 1.389 . S
C273 H256 0.939 . S
C273 C268 1.400 . S
C273 C272 1.389 . S
C274 P248 1.819 . S
C274 C275 1.391 . S
C274 C279 1.391 1_545 S
C275 H257 0.941 . S
C275 C274 1.391 . S
C275 C276 1.396 . S
C276 H260 0.939 . S
C276 C275 1.396 . S
C276 C277 1.397 . S
C277 C276 1.397 . S
C277 C278 1.385 1_545 S
C278 H261 0.940 . S
C278 C277 1.385 1_565 S
C278 C279 1.388 . S
C279 H258 0.939 . S
C279 C274 1.391 1_565 S
C279 C278 1.388 . S
P280 O291 1.490 . S
P280 C294 1.812 . S
P280 C300 1.803 . S
P280 C306 1.819 . S
H281 C295 0.941 . S
H282 C296 0.939 . S
H283 C298 0.940 . S
H284 C299 0.940 . S
H285 C301 0.939 . S
H286 C302 0.942 . S
H287 C304 0.940 . S
H288 C305 0.939 . S
H289 C307 0.941 . S
H290 C311 0.939 . S
O291 P280 1.490 . S
H292 C308 0.939 . S
H293 C310 0.940 . S
C294 P280 1.812 . S
C294 C295 1.389 . S
C294 C299 1.391 . S
C295 H281 0.941 . S
C295 C294 1.389 . S
C295 C296 1.397 . S
C296 H282 0.939 . S
C296 C295 1.397 . S
C296 C297 1.378 . S
C297 C296 1.378 . S
C297 C298 1.378 . S
C298 H283 0.940 . S
C298 C297 1.378 . S
C298 C299 1.396 . S
C299 H284 0.940 . S
C299 C294 1.391 . S
C299 C298 1.396 . S
C300 P280 1.803 . S
C300 C301 1.378 . S
C300 C305 1.400 . S
C301 H285 0.939 . S
C301 C300 1.378 . S
C301 C302 1.361 . S
C302 H286 0.942 . S
C302 C301 1.361 . S
C302 C303 1.369 . S
C303 C302 1.369 . S
C303 C304 1.404 . S
C304 H287 0.940 . S
C304 C303 1.404 . S
C304 C305 1.389 . S
C305 H288 0.939 . S
C305 C300 1.400 . S
C305 C304 1.389 . S
C306 P280 1.819 . S
C306 C307 1.391 . S
C306 C311 1.391 . S
C307 H289 0.941 . S
C307 C306 1.391 . S
C307 C308 1.396 . S
C308 H292 0.939 . S
C308 C307 1.396 . S
C308 C309 1.397 . S
C309 C308 1.397 . S
C309 C310 1.385 . S
C310 H293 0.940 . S
C310 C309 1.385 . S
C310 C311 1.388 . S
C311 H290 0.939 . S
C311 C306 1.391 . S
C311 C310 1.388 . S
H312 C320 0.950 . S
H313 C325 0.950 . S
H314 C322 0.950 . S
H315 C324 0.950 . S
H316 C326 0.950 . S
H317 C328 0.950 . S
H318 C330 0.950 . S
H319 C331 0.950 . S
C320 H312 0.950 . S
C320 C321 1.386 . S
C320 C322 1.391 . S
C321 C320 1.386 . S
C321 C325 1.393 . S
C322 H314 0.950 . S
C322 C320 1.391 . S
C322 C323 1.400 . S
C323 C322 1.400 . S
C323 C324 1.398 . S
C323 C329 1.491 . S
C324 H315 0.950 . S
C324 C323 1.398 . S
C324 C325 1.391 . S
C325 H313 0.950 . S
C325 C321 1.393 . S
C325 C324 1.391 . S
C326 H316 0.950 . S
C326 C327 1.386 . S
C326 C328 1.391 . S
C327 C326 1.386 . S
C327 C331 1.393 . S
C328 H317 0.950 . S
C328 C326 1.391 . S
C328 C329 1.400 . S
C329 C323 1.491 . S
C329 C328 1.400 . S
C329 C330 1.398 . S
C330 H318 0.950 . S
C330 C329 1.398 . S
C330 C331 1.391 . S
C331 H319 0.950 . S
C331 C327 1.393 . S
C331 C330 1.391 . S
H332 C340 0.950 . S
H333 C345 0.950 . S
H334 C342 0.950 . S
H335 C344 0.950 . S
H336 C346 0.950 . S
H337 C348 0.950 . S
H338 C350 0.950 . S
H339 C351 0.950 . S
C340 H332 0.950 . S
C340 C341 1.386 . S
C340 C342 1.391 . S
C341 C340 1.386 . S
C341 C345 1.393 . S
C342 H334 0.950 . S
C342 C340 1.391 . S
C342 C343 1.400 . S
C343 C342 1.400 . S
C343 C344 1.398 . S
C343 C349 1.491 . S
C344 H335 0.950 . S
C344 C343 1.398 . S
C344 C345 1.391 . S
C345 H333 0.950 . S
C345 C341 1.393 . S
C345 C344 1.391 . S
C346 H336 0.950 . S
C346 C347 1.386 . S
C346 C348 1.391 . S
C347 C346 1.386 . S
C347 C351 1.393 . S
C348 H337 0.950 . S
C348 C346 1.391 . S
C348 C349 1.400 . S
C349 C343 1.491 . S
C349 C348 1.400 . S
C349 C350 1.398 . S
C350 H338 0.950 . S
C350 C349 1.398 . S
C350 C351 1.391 . S
C351 H339 0.950 . S
C351 C347 1.393 . S
C351 C350 1.391 . S
H352 C360 0.950 . S
H353 C365 0.950 . S
H354 C362 0.950 . S
H355 C364 0.950 . S
H356 C366 0.950 . S
H357 C368 0.950 . S
H358 C370 0.950 . S
H359 C371 0.950 . S
C360 H352 0.950 . S
C360 C361 1.386 . S
C360 C362 1.391 . S
C361 C360 1.386 . S
C361 C365 1.393 . S
C362 H354 0.950 . S
C362 C360 1.391 . S
C362 C363 1.400 . S
C363 C362 1.400 . S
C363 C364 1.398 . S
C363 C369 1.491 . S
C364 H355 0.950 . S
C364 C363 1.398 . S
C364 C365 1.391 . S
C365 H353 0.950 . S
C365 C361 1.393 . S
C365 C364 1.391 . S
C366 H356 0.950 . S
C366 C367 1.386 . S
C366 C368 1.391 . S
C367 C366 1.386 . S
C367 C371 1.393 . S
C368 H357 0.950 . S
C368 C366 1.391 . S
C368 C369 1.400 . S
C369 C363 1.491 . S
C369 C368 1.400 . S
C369 C370 1.398 . S
C370 H358 0.950 . S
C370 C369 1.398 . S
C370 C371 1.391 . S
C371 H359 0.950 . S
C371 C367 1.393 . S
C371 C370 1.391 . S
H372 C380 0.950 . S
H373 C385 0.950 . S
H374 C382 0.950 . S
H375 C384 0.950 . S
H376 C386 0.950 . S
H377 C388 0.950 . S
H378 C390 0.950 . S
H379 C391 0.950 . S
C380 H372 0.950 . S
C380 C381 1.386 . S
C380 C382 1.391 . S
C381 C380 1.386 . S
C381 C385 1.393 . S
C382 H374 0.950 . S
C382 C380 1.391 . S
C382 C383 1.400 . S
C383 C382 1.400 . S
C383 C384 1.398 . S
C383 C389 1.491 . S
C384 H375 0.950 . S
C384 C383 1.398 . S
C384 C385 1.391 . S
C385 H373 0.950 . S
C385 C381 1.393 . S
C385 C384 1.391 . S
C386 H376 0.950 . S
C386 C387 1.386 . S
C386 C388 1.391 . S
C387 C386 1.386 . S
C387 C391 1.393 . S
C388 H377 0.950 . S
C388 C386 1.391 . S
C388 C389 1.400 . S
C389 C383 1.491 . S
C389 C388 1.400 . S
C389 C390 1.398 . S
C390 H378 0.950 . S
C390 C389 1.398 . S
C390 C391 1.391 . S
C391 H379 0.950 . S
C391 C387 1.393 . S
C391 C390 1.391 . S
H392 C400 0.950 . S
H393 C405 0.950 . S
H394 C402 0.950 . S
H395 C404 0.950 . S
H396 C406 0.950 . S
H397 C408 0.950 . S
H398 C410 0.950 . S
H399 C411 0.950 . S
C400 H392 0.950 . S
C400 C401 1.386 . S
C400 C402 1.391 . S
C401 C400 1.386 . S
C401 C405 1.393 . S
C402 H394 0.950 . S
C402 C400 1.391 . S
C402 C403 1.400 . S
C403 C402 1.400 . S
C403 C404 1.398 . S
C403 C409 1.491 . S
C404 H395 0.950 . S
C404 C403 1.398 . S
C404 C405 1.391 . S
C405 H393 0.950 . S
C405 C401 1.393 . S
C405 C404 1.391 . S
C406 H396 0.950 . S
C406 C407 1.386 . S
C406 C408 1.391 . S
C407 C406 1.386 . S
C407 C411 1.393 . S
C408 H397 0.950 . S
C408 C406 1.391 . S
C408 C409 1.400 . S
C409 C403 1.491 . S
C409 C408 1.400 . S
C409 C410 1.398 . S
C410 H398 0.950 . S
C410 C409 1.398 . S
C410 C411 1.391 . S
C411 H399 0.950 . S
C411 C407 1.393 . S
C411 C410 1.391 . S
H412 C420 0.950 . S
H413 C425 0.950 . S
H414 C422 0.950 . S
H415 C424 0.950 . S
H416 C426 0.950 . S
H417 C428 0.950 . S
H418 C430 0.950 . S
H419 C431 0.950 . S
C420 H412 0.950 . S
C420 C421 1.386 . S
C420 C422 1.391 . S
C421 C420 1.386 . S
C421 C425 1.393 . S
C422 H414 0.950 . S
C422 C420 1.391 . S
C422 C423 1.400 . S
C423 C422 1.400 . S
C423 C424 1.398 . S
C423 C429 1.491 . S
C424 H415 0.950 . S
C424 C423 1.398 . S
C424 C425 1.391 . S
C425 H413 0.950 . S
C425 C421 1.393 . S
C425 C424 1.391 . S
C426 H416 0.950 . S
C426 C427 1.386 . S
C426 C428 1.391 . S
C427 C426 1.386 . S
C427 C431 1.393 . S
C428 H417 0.950 . S
C428 C426 1.391 . S
C428 C429 1.400 . S
C429 C423 1.491 . S
C429 C428 1.400 . S
C429 C430 1.398 . S
C430 H418 0.950 . S
C430 C429 1.398 . S
C430 C431 1.391 . S
C431 H419 0.950 . S
C431 C427 1.393 . S
C431 C430 1.391 . S
H432 C440 0.950 . S
H433 C445 0.950 . S
H434 C442 0.950 . S
H435 C444 0.950 . S
H436 C446 0.950 . S
H437 C448 0.950 . S
H438 C450 0.950 . S
H439 C451 0.950 . S
C440 H432 0.950 . S
C440 C441 1.386 . S
C440 C442 1.391 . S
C441 C440 1.386 . S
C441 C445 1.393 . S
C442 H434 0.950 . S
C442 C440 1.391 . S
C442 C443 1.400 . S
C443 C442 1.400 . S
C443 C444 1.398 . S
C443 C449 1.491 . S
C444 H435 0.950 . S
C444 C443 1.398 . S
C444 C445 1.391 . S
C445 H433 0.950 . S
C445 C441 1.393 . S
C445 C444 1.391 . S
C446 H436 0.950 . S
C446 C447 1.386 . S
C446 C448 1.391 . S
C447 C446 1.386 . S
C447 C451 1.393 . S
C448 H437 0.950 . S
C448 C446 1.391 . S
C448 C449 1.400 . S
C449 C443 1.491 . S
C449 C448 1.400 . S
C449 C450 1.398 . S
C450 H438 0.950 . S
C450 C449 1.398 . S
C450 C451 1.391 . S
C451 H439 0.950 . S
C451 C447 1.393 . S
C451 C450 1.391 . S
H452 C460 0.950 . S
H453 C465 0.950 . S
H454 C462 0.950 . S
H455 C464 0.950 . S
H456 C466 0.950 . S
H457 C468 0.950 . S
H458 C470 0.950 . S
H459 C471 0.950 . S
C460 H452 0.950 . S
C460 C461 1.386 . S
C460 C462 1.391 . S
C461 C460 1.386 . S
C461 C465 1.393 . S
C462 H454 0.950 . S
C462 C460 1.391 . S
C462 C463 1.400 . S
C463 C462 1.400 . S
C463 C464 1.398 . S
C463 C469 1.491 . S
C464 H455 0.950 . S
C464 C463 1.398 . S
C464 C465 1.391 . S
C465 H453 0.950 . S
C465 C461 1.393 . S
C465 C464 1.391 . S
C466 H456 0.950 . S
C466 C467 1.386 . S
C466 C468 1.391 . S
C467 C466 1.386 . S
C467 C471 1.393 . S
C468 H457 0.950 . S
C468 C466 1.391 . S
C468 C469 1.400 . S
C469 C463 1.491 . S
C469 C468 1.400 . S
C469 C470 1.398 . S
C470 H458 0.950 . S
C470 C469 1.398 . S
C470 C471 1.391 . S
C471 H459 0.950 . S
C471 C467 1.393 . S
C471 C470 1.391 . S
H472 C480 0.950 . S
H473 C485 0.950 . S
H474 C482 0.950 . S
H475 C484 0.950 . S
H476 C486 0.950 . S
H477 C488 0.950 . S
H478 C490 0.950 . S
H479 C491 0.950 . S
C480 H472 0.950 . S
C480 C481 1.386 . S
C480 C482 1.391 . S
C481 C480 1.386 . S
C481 C485 1.393 . S
C482 H474 0.950 . S
C482 C480 1.391 . S
C482 C483 1.400 . S
C483 C482 1.400 . S
C483 C484 1.398 . S
C483 C489 1.491 . S
C484 H475 0.950 . S
C484 C483 1.398 . S
C484 C485 1.391 . S
C485 H473 0.950 . S
C485 C481 1.393 . S
C485 C484 1.391 . S
C486 H476 0.950 . S
C486 C487 1.386 . S
C486 C488 1.391 . S
C487 C486 1.386 . S
C487 C491 1.393 . S
C488 H477 0.950 . S
C488 C486 1.391 . S
C488 C489 1.400 . S
C489 C483 1.491 . S
C489 C488 1.400 . S
C489 C490 1.398 . S
C490 H478 0.950 . S
C490 C489 1.398 . S
C490 C491 1.391 . S
C491 H479 0.950 . S
C491 C487 1.393 . S
C491 C490 1.391 . S
H492 C500 0.950 . S
H493 C505 0.950 . S
H494 C502 0.950 . S
H495 C504 0.950 . S
H496 C506 0.950 . S
H497 C508 0.950 . S
H498 C510 0.950 . S
H499 C511 0.950 . S
C500 H492 0.950 . S
C500 C501 1.386 . S
C500 C502 1.391 . S
C501 C500 1.386 . S
C501 C505 1.393 . S
C502 H494 0.950 . S
C502 C500 1.391 . S
C502 C503 1.400 . S
C503 C502 1.400 . S
C503 C504 1.398 . S
C503 C509 1.491 . S
C504 H495 0.950 . S
C504 C503 1.398 . S
C504 C505 1.391 . S
C505 H493 0.950 . S
C505 C501 1.393 . S
C505 C504 1.391 . S
C506 H496 0.950 . S
C506 C507 1.386 . S
C506 C508 1.391 . S
C507 C506 1.386 . S
C507 C511 1.393 . S
C508 H497 0.950 . S
C508 C506 1.391 . S
C508 C509 1.400 . S
C509 C503 1.491 . S
C509 C508 1.400 . S
C509 C510 1.398 . S
C510 H498 0.950 . S
C510 C509 1.398 . S
C510 C511 1.391 . S
C511 H499 0.950 . S
C511 C507 1.393 . S
C511 C510 1.391 . S
H512 C520 0.950 . S
H513 C525 0.950 . S
H514 C522 0.950 . S
H515 C524 0.950 . S
H516 C526 0.950 . S
H517 C528 0.950 . S
H518 C530 0.950 . S
H519 C531 0.950 . S
C520 H512 0.950 . S
C520 C521 1.386 . S
C520 C522 1.391 . S
C521 C520 1.386 . S
C521 C525 1.393 . S
C522 H514 0.950 . S
C522 C520 1.391 . S
C522 C523 1.400 . S
C523 C522 1.400 . S
C523 C524 1.398 . S
C523 C529 1.491 . S
C524 H515 0.950 . S
C524 C523 1.398 . S
C524 C525 1.391 . S
C525 H513 0.950 . S
C525 C521 1.393 . S
C525 C524 1.391 . S
C526 H516 0.950 . S
C526 C527 1.386 . S
C526 C528 1.391 . S
C527 C526 1.386 . S
C527 C531 1.393 . S
C528 H517 0.950 . S
C528 C526 1.391 . S
C528 C529 1.400 . S
C529 C523 1.491 . S
C529 C528 1.400 . S
C529 C530 1.398 . S
C530 H518 0.950 . S
C530 C529 1.398 . S
C530 C531 1.391 . S
C531 H519 0.950 . S
C531 C527 1.393 . S
C531 C530 1.391 . S
H532 C540 0.950 . S
H533 C545 0.950 . S
H534 C542 0.950 . S
H535 C544 0.950 . S
H536 C546 0.950 . S
H537 C548 0.950 . S
H538 C550 0.950 . S
H539 C551 0.950 . S
C540 H532 0.950 . S
C540 C541 1.386 . S
C540 C542 1.391 . S
C541 C540 1.386 . S
C541 C545 1.393 . S
C542 H534 0.950 . S
C542 C540 1.391 . S
C542 C543 1.400 . S
C543 C542 1.400 . S
C543 C544 1.398 . S
C543 C549 1.491 . S
C544 H535 0.950 . S
C544 C543 1.398 . S
C544 C545 1.391 . S
C545 H533 0.950 . S
C545 C541 1.393 . S
C545 C544 1.391 . S
C546 H536 0.950 . S
C546 C547 1.386 . S
C546 C548 1.391 . S
C547 C546 1.386 . S
C547 C551 1.393 . S
C548 H537 0.950 . S
C548 C546 1.391 . S
C548 C549 1.400 . S
C549 C543 1.491 . S
C549 C548 1.400 . S
C549 C550 1.398 . S
C550 H538 0.950 . S
C550 C549 1.398 . S
C550 C551 1.391 . S
C551 H539 0.950 . S
C551 C547 1.393 . S
C551 C550 1.391 . S
H552 C560 0.950 . S
H553 C565 0.950 . S
H554 C562 0.950 . S
H555 C564 0.950 . S
H556 C566 0.950 . S
H557 C568 0.950 . S
H558 C570 0.950 . S
H559 C571 0.950 1_655 S
C560 H552 0.950 . S
C560 C561 1.386 1_655 S
C560 C562 1.391 . S
C561 C560 1.386 1_455 S
C561 C565 1.393 . S
C562 H554 0.950 . S
C562 C560 1.391 . S
C562 C563 1.400 1_655 S
C563 C562 1.400 1_455 S
C563 C564 1.398 . S
C563 C569 1.491 . S
C564 H555 0.950 . S
C564 C563 1.398 . S
C564 C565 1.391 . S
C565 H553 0.950 . S
C565 C561 1.393 . S
C565 C564 1.391 . S
C566 H556 0.950 . S
C566 C567 1.386 . S
C566 C568 1.391 1_556 S
C567 C566 1.386 . S
C567 C571 1.393 . S
C568 H557 0.950 . S
C568 C566 1.391 1_554 S
C568 C569 1.400 . S
C569 C563 1.491 . S
C569 C568 1.400 . S
C569 C570 1.398 1_455 S
C570 H558 0.950 . S
C570 C569 1.398 1_655 S
C570 C571 1.391 1_654 S
C571 H559 0.950 1_455 S
C571 C567 1.393 . S
C571 C570 1.391 1_456 S
H572 C580 0.950 . S
H573 C585 0.950 . S
H574 C582 0.950 . S
H575 C584 0.950 . S
H576 C586 0.950 . S
H577 C588 0.950 . S
H578 C590 0.950 . S
H579 C591 0.950 . S
C580 H572 0.950 . S
C580 C581 1.386 1_565 S
C580 C582 1.391 . S
C581 C580 1.386 1_545 S
C581 C585 1.393 . S
C582 H574 0.950 . S
C582 C580 1.391 . S
C582 C583 1.400 1_565 S
C583 C582 1.400 1_545 S
C583 C584 1.398 . S
C583 C589 1.491 . S
C584 H575 0.950 . S
C584 C583 1.398 . S
C584 C585 1.391 . S
C585 H573 0.950 . S
C585 C581 1.393 . S
C585 C584 1.391 . S
C586 H576 0.950 . S
C586 C587 1.386 . S
C586 C588 1.391 . S
C587 C586 1.386 . S
C587 C591 1.393 1_545 S
C588 H577 0.950 . S
C588 C586 1.391 . S
C588 C589 1.400 . S
C589 C583 1.491 . S
C589 C588 1.400 . S
C589 C590 1.398 1_545 S
C590 H578 0.950 . S
C590 C589 1.398 1_565 S
C590 C591 1.391 . S
C591 H579 0.950 . S
C591 C587 1.393 1_565 S
C591 C590 1.391 . S
H592 C600 0.950 . S
H593 C605 0.950 . S
H594 C602 0.950 . S
H595 C604 0.950 . S
H596 C606 0.950 . S
H597 C608 0.950 . S
H598 C610 0.950 . S
H599 C611 0.950 . S
C600 H592 0.950 . S
C600 C601 1.386 . S
C600 C602 1.391 . S
C601 C600 1.386 . S
C601 C605 1.393 . S
C602 H594 0.950 . S
C602 C600 1.391 . S
C602 C603 1.400 . S
C603 C602 1.400 . S
C603 C604 1.398 . S
C603 C609 1.491 . S
C604 H595 0.950 . S
C604 C603 1.398 . S
C604 C605 1.391 . S
C605 H593 0.950 . S
C605 C601 1.393 . S
C605 C604 1.391 . S
C606 H596 0.950 . S
C606 C607 1.386 . S
C606 C608 1.391 . S
C607 C606 1.386 . S
C607 C611 1.393 . S
C608 H597 0.950 . S
C608 C606 1.391 . S
C608 C609 1.400 . S
C609 C603 1.491 . S
C609 C608 1.400 . S
C609 C610 1.398 . S
C610 H598 0.950 . S
C610 C609 1.398 . S
C610 C611 1.391 . S
C611 H599 0.950 . S
C611 C607 1.393 . S
C611 C610 1.391 . S
H612 C620 0.950 . S
H613 C625 0.950 . S
H614 C622 0.950 . S
H615 C624 0.925 1_565 S
H616 C626 0.927 1_565 S
H617 C628 0.968 . S
H618 C630 0.950 . S
H619 C631 0.950 . S
C620 H612 0.950 . S
C620 C621 1.386 . S
C620 C622 1.391 . S
C621 C620 1.386 . S
C621 C625 1.393 . S
C622 H614 0.950 . S
C622 C620 1.391 . S
C622 C623 1.400 . S
C623 C622 1.400 . S
C623 C624 1.420 . S
C623 C629 1.491 . S
C624 H615 0.925 1_545 S
C624 C623 1.420 . S
C624 C625 1.394 . S
C625 H613 0.950 . S
C625 C621 1.393 . S
C625 C624 1.394 . S
C626 H616 0.927 1_545 S
C626 C627 1.404 . S
C626 C628 1.394 . S
C627 C626 1.404 . S
C627 C631 1.393 . S
C628 H617 0.968 . S
C628 C626 1.394 . S
C628 C629 1.400 . S
C629 C623 1.491 . S
C629 C628 1.400 . S
C629 C630 1.398 . S
C630 H618 0.950 . S
C630 C629 1.398 . S
C630 C631 1.391 . S
C631 H619 0.950 . S
C631 C627 1.393 . S
C631 C630 1.391 . S
H632 C640 0.950 . S
H633 C645 0.950 . S
H634 C642 0.950 . S
H635 C644 0.950 . S
H636 C646 0.950 1_554 S
H637 C648 0.950 . S
H638 C650 0.950 . S
H639 C651 0.950 . S
C640 H632 0.950 . S
C640 C641 1.386 . S
C640 C642 1.391 . S
C641 C640 1.386 . S
C641 C645 1.393 . S
C642 H634 0.950 . S
C642 C640 1.391 . S
C642 C643 1.400 . S
C643 C642 1.400 . S
C643 C644 1.398 . S
C643 C649 1.491 . S
C644 H635 0.950 . S
C644 C643 1.398 . S
C644 C645 1.391 . S
C645 H633 0.950 . S
C645 C641 1.393 . S
C645 C644 1.391 . S
C646 H636 0.950 1_556 S
C646 C647 1.386 1_556 S
C646 C648 1.391 . S
C647 C646 1.386 1_554 S
C647 C651 1.393 1_554 S
C648 H637 0.950 . S
C648 C646 1.391 . S
C648 C649 1.400 . S
C649 C643 1.491 . S
C649 C648 1.400 . S
C649 C650 1.398 . S
C650 H638 0.950 . S
C650 C649 1.398 . S
C650 C651 1.391 . S
C651 H639 0.950 . S
C651 C647 1.393 1_556 S
C651 C650 1.391 . S
H652 C660 0.952 . S
H653 C665 0.950 . S
H654 C662 0.950 . S
H655 C664 0.950 . S
H656 C666 0.950 . S
H657 C668 0.950 . S
H658 C670 0.950 . S
H659 C671 0.950 . S
C660 H652 0.952 . S
C660 C661 1.383 1_655 S
C660 C662 1.391 . S
C661 C660 1.383 1_455 S
C661 C665 1.393 . S
C662 H654 0.950 . S
C662 C660 1.391 . S
C662 C663 1.400 1_655 S
C663 C662 1.400 1_455 S
C663 C664 1.398 . S
C663 C669 1.491 . S
C664 H655 0.950 . S
C664 C663 1.398 . S
C664 C665 1.391 . S
C665 H653 0.950 . S
C665 C661 1.393 . S
C665 C664 1.391 . S
C666 H656 0.950 . S
C666 C667 1.386 . S
C666 C668 1.391 . S
C667 C666 1.386 . S
C667 C671 1.393 1_455 S
C668 H657 0.950 . S
C668 C666 1.391 . S
C668 C669 1.400 . S
C669 C663 1.491 . S
C669 C668 1.400 . S
C669 C670 1.398 1_455 S
C670 H658 0.950 . S
C670 C669 1.398 1_655 S
C670 C671 1.391 . S
C671 H659 0.950 . S
C671 C667 1.393 1_655 S
C671 C670 1.391 . S
C321 C6 0.527 . S
C327 C303 0.508 . S
C341 C59 1.889 . S
C347 C239 1.829 . S
C361 C86 1.245 . S
C367 C271 1.214 . S
C381 C15 0.454 . S
C387 C297 0.374 . S
C407 C233 1.911 . S
C401 C50 1.938 . S
C427 C265 1.281 . S
C421 C95 1.275 . S
C441 C46 1.218 . S
C447 C175 1.202 . S
C461 C99 3.064 . S
C467 C207 3.001 . S
C481 C10 1.972 . S
C487 C137 1.938 . S
C507 C169 1.256 . S
C501 C55 1.265 . S
C527 C201 2.979 . S
C521 C90 3.000 . S
C541 C19 1.888 . S
C547 C143 1.846 . S
C567 C213 1.751 . S
C561 C18 1.697 . S
C581 C49 1.338 . S
C587 C149 1.344 . S
C601 C98 1.452 . S
C607 C181 1.473 . S
C627 C277 1.445 . S
C621 C58 1.445 . S
C647 C309 1.079 . S
C641 C89 1.075 . S
C661 C9 1.323 . S
C667 C245 1.336 . S
