# Generated by pormake.
# Topology zzz, (3,6)-cn, num edge types: 1
# Building blocks:
#     Node 0, Type 0, BuildingBlock: KAKCAD_clean_linker_0, # of connection points: 3
#     Node 1, Type 0, BuildingBlock: KAKCAD_clean_linker_0, # of connection points: 3
#     Node 2, Type 0, BuildingBlock: KAKCAD_clean_linker_0, # of connection points: 3
#     Node 3, Type 0, BuildingBlock: KAKCAD_clean_linker_0, # of connection points: 3
#     Node 4, Type 0, BuildingBlock: KAKCAD_clean_linker_0, # of connection points: 3
#     Node 5, Type 0, BuildingBlock: KAKCAD_clean_linker_0, # of connection points: 3
#     Node 6, Type 0, BuildingBlock: KAKCAD_clean_linker_0, # of connection points: 3
#     Node 7, Type 0, BuildingBlock: KAKCAD_clean_linker_0, # of connection points: 3
#     Node 8, Type 1, BuildingBlock: PAMTOO_clean_sbu_0, # of connection points: 6
#     Node 9, Type 1, BuildingBlock: PAMTOO_clean_sbu_0, # of connection points: 6
#     Node 10, Type 1, BuildingBlock: PAMTOO_clean_sbu_0, # of connection points: 6
#     Node 11, Type 1, BuildingBlock: PAMTOO_clean_sbu_0, # of connection points: 6
#     Edge 12, Type (0, 1), BuildingBlock: EZIPEK_clean_linker_0, # of connection points: 2
#     Edge 13, Type (0, 1), BuildingBlock: EZIPEK_clean_linker_0, # of connection points: 2
#     Edge 14, Type (0, 1), BuildingBlock: EZIPEK_clean_linker_0, # of connection points: 2
#     Edge 15, Type (0, 1), BuildingBlock: EZIPEK_clean_linker_0, # of connection points: 2
#     Edge 16, Type (0, 1), BuildingBlock: EZIPEK_clean_linker_0, # of connection points: 2
#     Edge 17, Type (0, 1), BuildingBlock: EZIPEK_clean_linker_0, # of connection points: 2
#     Edge 18, Type (0, 1), BuildingBlock: EZIPEK_clean_linker_0, # of connection points: 2
#     Edge 19, Type (0, 1), BuildingBlock: EZIPEK_clean_linker_0, # of connection points: 2
#     Edge 20, Type (0, 1), BuildingBlock: EZIPEK_clean_linker_0, # of connection points: 2
#     Edge 21, Type (0, 1), BuildingBlock: EZIPEK_clean_linker_0, # of connection points: 2
#     Edge 22, Type (0, 1), BuildingBlock: EZIPEK_clean_linker_0, # of connection points: 2
#     Edge 23, Type (0, 1), BuildingBlock: EZIPEK_clean_linker_0, # of connection points: 2
#     Edge 24, Type (0, 1), BuildingBlock: EZIPEK_clean_linker_0, # of connection points: 2
#     Edge 25, Type (0, 1), BuildingBlock: EZIPEK_clean_linker_0, # of connection points: 2
#     Edge 26, Type (0, 1), BuildingBlock: EZIPEK_clean_linker_0, # of connection points: 2
#     Edge 27, Type (0, 1), BuildingBlock: EZIPEK_clean_linker_0, # of connection points: 2
#     Edge 28, Type (0, 1), BuildingBlock: EZIPEK_clean_linker_0, # of connection points: 2
#     Edge 29, Type (0, 1), BuildingBlock: EZIPEK_clean_linker_0, # of connection points: 2
#     Edge 30, Type (0, 1), BuildingBlock: EZIPEK_clean_linker_0, # of connection points: 2
#     Edge 31, Type (0, 1), BuildingBlock: EZIPEK_clean_linker_0, # of connection points: 2
#     Edge 32, Type (0, 1), BuildingBlock: EZIPEK_clean_linker_0, # of connection points: 2
#     Edge 33, Type (0, 1), BuildingBlock: EZIPEK_clean_linker_0, # of connection points: 2
#     Edge 34, Type (0, 1), BuildingBlock: EZIPEK_clean_linker_0, # of connection points: 2
#     Edge 35, Type (0, 1), BuildingBlock: EZIPEK_clean_linker_0, # of connection points: 2
# Relax obj value: 0.384
# Max RMSD: 0.286
# Mean RMSD: 0.222
data_MOF--net-zzz--node1-PAMTOO_clean_sbu_0--node2-KAKCAD_clean_linker_0--edge1-EZIPEK_clean_linker_0
_symmetry_space_group_name_H-M    P1
_symmetry_Int_Tables_number       1
_symmetry_cell_setting            triclinic
loop_
_symmetry_equiv_pos_as_xyz
'x, y, z'
_cell_length_a     51.128363
_cell_length_b     43.14923
_cell_length_c     16.47537
_cell_angle_alpha  91.894928
_cell_angle_beta   79.991773
_cell_angle_gamma 84.439299
loop_
_atom_site_label
_atom_site_type_symbol
_atom_site_fract_x
_atom_site_fract_y
_atom_site_fract_z
_atom_type_partial_charge
C0 C 0.86087 0.59103 0.42542 0.0
C1 C 0.86814 0.5692 0.35851 0.0
C2 C 0.83388 0.59782 0.46061 0.0
C3 C 0.81444 0.58175 0.43069 0.0
C4 C 0.82158 0.56534 0.35364 0.0
C5 C 0.8484 0.55887 0.31809 0.0
C6 C 0.79221 0.57107 0.49002 0.0
C7 C 0.76847 0.56419 0.46507 0.0
C8 C 0.75254 0.54273 0.50691 0.0
C9 C 0.76105 0.52774 0.57477 0.0
C10 C 0.78407 0.53628 0.60323 0.0
C11 C 0.79858 0.55869 0.56229 0.0
C12 C 0.79737 0.51953 0.66493 0.0
C13 C 0.79967 0.53624 0.73783 0.0
C14 C 0.8168 0.49447 0.63543 0.0
C15 C 0.83962 0.48888 0.67159 0.0
C16 C 0.84328 0.50797 0.73864 0.0
C17 C 0.72896 0.53449 0.47146 0.0
C18 C 0.71065 0.55845 0.45215 0.0
C19 C 0.72711 0.50374 0.44346 0.0
C20 C 0.7085 0.49751 0.39287 0.0
C21 C 0.69131 0.52187 0.36997 0.0
C22 C 0.69202 0.55221 0.40224 0.0
C23 C 0.82242 0.53052 0.77435 0.0
H24 H 0.87597 0.59972 0.45617 0.0
H25 H 0.8288 0.61141 0.51867 0.0
H26 H 0.80718 0.55314 0.32761 0.0
H27 H 0.8538 0.54257 0.26497 0.0
H28 H 0.76359 0.57354 0.4086 0.0
H29 H 0.81724 0.56316 0.58113 0.0
H30 H 0.75015 0.50963 0.60426 0.0
H31 H 0.78551 0.55626 0.76056 0.0
H32 H 0.81608 0.48185 0.57802 0.0
H33 H 0.85551 0.4715 0.64261 0.0
H34 H 0.71165 0.58238 0.47245 0.0
H35 H 0.74117 0.48488 0.45613 0.0
H36 H 0.82485 0.54566 0.82569 0.0
H37 H 0.67903 0.57136 0.38539 0.0
H38 H 0.70837 0.47393 0.36838 0.0
C39 C 0.09696 0.78054 0.18429 0.0
C40 C 0.11584 0.79566 0.21859 0.0
C41 C 0.08465 0.75665 0.22523 0.0
C42 C 0.0909 0.74788 0.30148 0.0
C43 C 0.11243 0.76008 0.32974 0.0
C44 C 0.12516 0.78367 0.28767 0.0
C45 C 0.07083 0.73301 0.35872 0.0
C46 C 0.05926 0.70735 0.33223 0.0
C47 C 0.03565 0.698 0.37801 0.0
C48 C 0.02318 0.71572 0.45092 0.0
C49 C 0.03529 0.74113 0.47917 0.0
C50 C 0.05927 0.74897 0.43337 0.0
C51 C 0.02251 0.76306 0.54948 0.0
C52 C 1.00065 0.78427 0.54051 0.0
C53 C 0.0371 0.76938 0.61204 0.0
C54 C 0.03173 0.79769 0.65877 0.0
C55 C 1.01159 0.82015 0.6441 0.0
C56 C 0.02385 0.67129 0.3431 0.0
C57 C 0.99668 0.67327 0.33609 0.0
C58 C 0.0409 0.64534 0.30487 0.0
C59 C 0.03184 0.62385 0.25388 0.0
C60 C 1.0053 0.62718 0.24128 0.0
C61 C 0.98742 0.65115 0.28624 0.0
C62 C 0.99522 0.81265 0.58753 0.0
H63 H 0.08979 0.78931 0.13039 0.0
H64 H 0.06813 0.7477 0.20207 0.0
H65 H 0.11767 0.7535 0.38822 0.0
H66 H 0.13994 0.79495 0.31428 0.0
H67 H 0.06796 0.69572 0.27298 0.0
H68 H 0.0676 0.7697 0.45215 0.0
H69 H 1.00437 0.70989 0.48509 0.0
H70 H 0.9895 0.78037 0.49154 0.0
H71 H 0.05435 0.75371 0.61918 0.0
H72 H 0.04464 0.80305 0.70181 0.0
H73 H 0.983 0.69288 0.36473 0.0
H74 H 0.06177 0.6426 0.31062 0.0
H75 H 0.97969 0.82977 0.57497 0.0
H76 H 0.9667 0.65383 0.27873 0.0
H77 H 0.04593 0.60527 0.22137 0.0
C78 C 0.68803 0.04322 0.04992 0.0
C79 C 0.69669 0.06928 0.00856 0.0
C80 C 0.70334 0.02794 0.10118 0.0
C81 C 0.72736 0.03888 0.11381 0.0
C82 C 0.73729 0.06317 0.06649 0.0
C83 C 0.72213 0.07807 0.01313 0.0
C84 C 0.73958 0.02799 0.18438 0.0
C85 C 0.76716 0.02191 0.17793 0.0
C86 C 0.77852 0.01337 0.24672 0.0
C87 C 0.76166 0.01153 0.32451 0.0
C88 C 0.73352 0.01809 0.33181 0.0
C89 C 0.72313 0.02552 0.26056 0.0
C90 C 0.71365 0.01824 0.41089 0.0
C91 C 0.71296 0.99301 0.46306 0.0
C92 C 0.69197 0.04178 0.42598 0.0
C93 C 0.66912 0.03855 0.48393 0.0
C94 C 0.66752 0.01252 0.53277 0.0
C95 C 0.8082 0.00765 0.23238 0.0
C96 C 0.8208 0.98147 0.18247 0.0
C97 C 0.82338 0.03228 0.24517 0.0
C98 C 0.85003 0.0316 0.20461 0.0
C99 C 0.86194 0.00635 0.15006 0.0
C100 C 0.84739 0.98078 0.14197 0.0
C101 C 0.69029 0.99047 0.5244 0.0
H102 H 0.6687 0.03559 0.04574 0.0
H103 H 0.69558 0.00868 0.13488 0.0
H104 H 0.75584 0.07197 0.0747 0.0
H105 H 0.72938 0.09769 0.97998 0.0
H106 H 0.77996 0.02384 0.11884 0.0
H107 H 0.70171 0.03028 0.26484 0.0
H108 H 0.77029 1.0056 0.37824 0.0
H109 H 0.7292 0.97446 0.45353 0.0
H110 H 0.69194 0.06203 0.38879 0.0
H111 H 0.65226 0.05622 0.48912 0.0
H112 H 0.80938 0.96258 0.16954 0.0
H113 H 0.81398 0.05315 0.28105 0.0
H114 H 0.68995 0.97043 0.56231 0.0
H115 H 0.85605 0.96111 0.10016 0.0
H116 H 0.86081 0.05164 0.21166 0.0
C117 C 0.49756 0.69768 0.55923 0.0
C118 C 0.52332 0.68218 0.53425 0.0
C119 C 0.48835 0.72242 0.51536 0.0
C120 C 0.5044 0.73168 0.44382 0.0
C121 C 0.53119 0.71862 0.42441 0.0
C122 C 0.54069 0.6943 0.46995 0.0
C123 C 0.49105 0.74479 0.37713 0.0
C124 C 0.49858 0.77105 0.33323 0.0
C125 C 0.48772 0.77862 0.26187 0.0
C126 C 0.47219 0.75732 0.23035 0.0
C127 C 0.46525 0.73064 0.27257 0.0
C128 C 0.4727 0.72674 0.34965 0.0
C129 C 0.45473 0.70416 0.23134 0.0
C130 C 0.44071 0.70866 0.16529 0.0
C131 C 0.46226 0.6732 0.25024 0.0
C132 C 0.45861 0.6481 0.20011 0.0
C133 C 0.44827 0.65314 0.12812 0.0
C134 C 0.49276 0.80781 0.21708 0.0
C135 C 0.47202 0.82392 0.18393 0.0
C136 C 0.51803 0.81911 0.20335 0.0
C137 C 0.52254 0.84519 0.15557 0.0
C138 C 0.50187 0.86047 0.12062 0.0
C139 C 0.47654 0.84975 0.13628 0.0
C140 C 0.43775 0.68328 0.11337 0.0
H141 H 0.48386 0.68927 0.60944 0.0
H142 H 0.4676 0.7319 0.53166 0.0
H143 H 0.54395 0.72494 0.36915 0.0
H144 H 0.56084 0.68321 0.45059 0.0
H145 H 0.51229 0.78555 0.35519 0.0
H146 H 0.46627 0.70741 0.3855 0.0
H147 H 0.46673 0.76096 0.17055 0.0
H148 H 0.43373 0.73184 0.14996 0.0
H149 H 0.47353 0.66788 0.29866 0.0
H150 H 0.46702 0.62499 0.21195 0.0
H151 H 0.45216 0.81639 0.19439 0.0
H152 H 0.5345 0.8073 0.22742 0.0
H153 H 0.42975 0.68753 0.05758 0.0
H154 H 0.46022 0.86129 0.11085 0.0
H155 H 0.54223 0.85317 0.14476 0.0
C156 C 0.1643 0.46714 0.34313 0.0
C157 C 0.14385 0.45346 0.31339 0.0
C158 C 0.19062 0.46047 0.30274 0.0
C159 C 0.19651 0.44024 0.23187 0.0
C160 C 0.17667 0.42206 0.21305 0.0
C161 C 0.1502 0.42914 0.25268 0.0
C162 C 0.21822 0.44726 0.16519 0.0
C163 C 0.2428 0.45477 0.18223 0.0
C164 C 0.25943 0.47161 0.12691 0.0
C165 C 0.25106 0.48118 0.0529 0.0
C166 C 0.22686 0.47207 0.03351 0.0
C167 C 0.21124 0.45469 0.08933 0.0
C168 C 0.21407 0.48324 0.96359 0.0
C169 C 0.20023 0.5133 0.97106 0.0
C170 C 0.20641 0.4607 0.91095 0.0
C171 C 0.18333 0.46664 0.87634 0.0
C172 C 0.16768 0.49552 0.89201 0.0
C173 C 0.28402 0.48075 0.15401 0.0
C174 C 0.28307 0.50896 0.20026 0.0
C175 C 0.30575 0.45806 0.15338 0.0
C176 C 0.32548 0.46288 0.20065 0.0
C177 C 0.32372 0.49035 0.25054 0.0
C178 C 0.30274 0.51373 0.24801 0.0
C179 C 0.17735 0.51945 0.93511 0.0
H180 H 0.15957 0.48563 0.39112 0.0
H181 H 0.2054 0.47463 0.31963 0.0
H182 H 0.18087 0.40575 0.15987 0.0
H183 H 0.13453 0.41803 0.23027 0.0
H184 H 0.2482 0.44932 0.24137 0.0
H185 H 0.19176 0.45006 0.07708 0.0
H186 H 0.26297 0.49559 0.01185 0.0
H187 H 0.20516 0.53094 0.01259 0.0
H188 H 0.2163 0.43716 0.90527 0.0
H189 H 0.17648 0.44781 0.84317 0.0
H190 H 0.26612 0.52641 0.20396 0.0
H191 H 0.30655 0.43577 0.12032 0.0
H192 H 0.16576 0.542 0.94772 0.0
H193 H 0.30085 0.53502 0.28623 0.0
H194 H 0.34138 0.44447 0.20176 0.0
C195 C 0.08827 0.19907 0.36659 0.0
C196 C 0.0974 0.17196 0.31667 0.0
C197 C 0.09081 0.22816 0.33363 0.0
C198 C 0.10221 0.23015 0.25008 0.0
C199 C 0.11677 0.20329 0.20738 0.0
C200 C 0.11405 0.17405 0.24029 0.0
C201 C 0.09004 0.25493 0.20346 0.0
C202 C 0.08292 0.28525 0.23851 0.0
C203 C 0.06215 0.3047 0.21468 0.0
C204 C 0.04878 0.29362 0.15285 0.0
C205 C 0.05738 0.26409 0.11238 0.0
C206 C 0.07832 0.24551 0.13715 0.0
C207 C 0.04269 0.24878 0.0544 0.0
C208 C 1.01693 0.24044 0.08344 0.0
C209 C 0.0573 0.23407 0.98051 0.0
C210 C 0.04781 0.20911 0.94216 0.0
C211 C 0.02335 0.19858 0.97625 0.0
C212 C 0.05259 0.33418 0.26499 0.0
C213 C 0.02662 0.33841 0.31163 0.0
C214 C 0.07098 0.35506 0.27963 0.0
C215 C 0.06413 0.37834 0.34308 0.0
C216 C 0.03887 0.38095 0.39384 0.0
C217 C 0.01985 0.36154 0.37578 0.0
C218 C 1.00727 0.21558 0.04441 0.0
H219 H 0.0758 0.19776 0.42646 0.0
H220 H 0.07987 0.2483 0.36939 0.0
H221 H 0.12647 0.20428 0.14374 0.0
H222 H 0.1216 0.15322 0.20155 0.0
H223 H 0.09169 0.29254 0.29049 0.0
H224 H 0.08302 0.22178 0.11122 0.0
H225 H 0.03172 0.30757 0.13735 0.0
H226 H 1.00545 0.2509 0.14096 0.0
H227 H 0.07732 0.23979 0.95727 0.0
H228 H 0.06052 0.19645 0.88966 0.0
H229 H 1.0122 0.3224 0.30256 0.0
H230 H 0.09118 0.3522 0.24491 0.0
H231 H 0.98833 0.20785 0.07174 0.0
H232 H 1.00022 0.36322 0.41409 0.0
H233 H 0.07903 0.39319 0.35551 0.0
C234 C 0.30113 0.90784 0.51026 0.0
C235 C 0.32565 0.9179 0.52093 0.0
C236 C 0.28557 0.92418 0.46021 0.0
C237 C 0.29436 0.9508 0.42097 0.0
C238 C 0.31851 0.96117 0.43461 0.0
C239 C 0.33401 0.94481 0.4836 0.0
C240 C 0.27893 0.96786 0.36491 0.0
C241 C 0.25117 0.97436 0.38537 0.0
C242 C 0.23679 0.99269 0.33556 0.0
C243 C 0.25085 1.00481 0.26338 0.0
C244 C 0.27892 0.99767 0.24143 0.0
C245 C 0.29241 0.97907 0.29222 0.0
C246 C 0.29583 0.00905 0.16762 0.0
C247 C 0.30178 0.99038 0.09381 0.0
C248 C 0.31258 0.03226 0.17912 0.0
C249 C 0.33569 0.03532 0.12105 0.0
C250 C 0.34265 0.01514 0.05021 0.0
C251 C 0.20732 0.99903 0.36401 0.0
C252 C 0.19197 0.97374 0.37889 0.0
C253 C 0.19558 0.02905 0.39344 0.0
C254 C 0.16969 0.0333 0.44119 0.0
C255 C 0.15513 0.00759 0.46022 0.0
C256 C 0.16619 0.97798 0.42614 0.0
C257 C 0.32487 0.9935 0.03548 0.0
H258 H 0.29434 0.88721 0.53935 0.0
H259 H 0.26703 0.91566 0.45081 0.0
H260 H 0.32552 0.98201 0.40727 0.0
H261 H 0.35277 0.95308 0.49203 0.0
H262 H 0.2407 0.96605 0.4422 0.0
H263 H 0.31386 0.97346 0.27491 0.0
H264 H 0.24015 0.01932 0.22494 0.0
H265 H 0.28981 0.97163 0.08446 0.0
H266 H 0.30901 0.04629 0.23648 0.0
H267 H 0.34906 0.05207 0.13414 0.0
H268 H 0.20059 0.95031 0.35793 0.0
H269 H 0.20707 0.04886 0.38441 0.0
H270 H 0.32983 0.97757 0.98157 0.0
H271 H 0.15539 0.95783 0.43974 0.0
H272 H 0.16157 0.05637 0.46678 0.0
C273 C 0.48383 0.34008 0.11657 0.0
C274 C 0.50357 0.34668 0.05042 0.0
C275 C 0.48898 0.31584 0.16848 0.0
C276 C 0.51385 0.29767 0.15473 0.0
C277 C 0.53261 0.30266 0.08437 0.0
C278 C 0.5275 0.32685 0.0327 0.0
C279 C 0.52351 0.28215 0.22487 0.0
C280 C 0.51616 0.25311 0.25389 0.0
C281 C 0.52598 0.24078 0.32297 0.0
C282 C 0.54185 0.25856 0.3641 0.0
C283 C 0.54863 0.28753 0.33651 0.0
C284 C 0.53988 0.29872 0.26622 0.0
C285 C 0.5614 0.30856 0.38665 0.0
C286 C 0.54938 0.31641 0.46892 0.0
C287 C 0.58229 0.3251 0.34917 0.0
C288 C 0.58941 0.35083 0.391 0.0
C289 C 0.57522 0.36062 0.46981 0.0
C290 C 0.51974 0.21003 0.35637 0.0
C291 C 0.49325 0.20334 0.38185 0.0
C292 C 0.54057 0.1891 0.37473 0.0
C293 C 0.53512 0.16318 0.42123 0.0
C294 C 0.50869 0.15747 0.45079 0.0
C295 C 0.48776 0.17728 0.42881 0.0
C296 C 0.55617 0.34237 0.51007 0.0
H297 H 0.46522 0.35508 0.13149 0.0
H298 H 0.47448 0.31316 0.22346 0.0
H299 H 0.55218 0.28958 0.0735 0.0
H300 H 0.54302 0.33145 0.98217 0.0
H301 H 0.50336 0.24018 0.22265 0.0
H302 H 0.54457 0.32157 0.24607 0.0
H303 H 0.54843 0.25019 0.41934 0.0
H304 H 0.53313 0.30416 0.49895 0.0
H305 H 0.59189 0.31932 0.28581 0.0
H306 H 0.60432 0.36459 0.35949 0.0
H307 H 0.47679 0.21917 0.3695 0.0
H308 H 0.56118 0.19355 0.35586 0.0
H309 H 0.54518 0.34954 0.5712 0.0
H310 H 0.46721 0.17325 0.45071 0.0
H311 H 0.55157 0.14819 0.43686 0.0
Dy312 Dy 0.99308 0.02147 0.74335 0.0
Dy313 Dy 0.02785 1.00096 0.88403 0.0
C314 C 0.05631 0.01121 0.70171 0.0
O315 O 1.00316 0.96989 0.72048 0.0
O316 O 0.01729 0.95491 0.84006 0.0
O317 O 0.9832 0.0112 0.62386 0.0
O318 O 0.96686 0.05449 0.69084 0.0
O319 O 0.9854 0.01428 0.94936 0.0
O320 O 0.9626 1.00585 0.84359 0.0
O321 O 0.02972 0.05226 0.87425 0.0
O322 O 0.99105 0.06454 0.82546 0.0
O323 O 0.0308 0.9843 1.00414 0.0
O324 O 0.0654 1.00024 0.92812 0.0
C325 C 1.00995 0.94827 0.76943 0.0
O326 O 0.03537 0.03062 0.69648 0.0
O327 O 0.05551 0.99196 0.76198 0.0
C328 C 0.98682 0.05683 0.55057 0.0
C329 C 0.0252 0.08664 0.44715 0.0
C330 C 0.02286 0.05503 0.43185 0.0
C331 C 1.00364 0.04024 0.48294 0.0
C332 C 0.9879 0.08913 0.56096 0.0
C333 C 1.00704 0.10387 0.50979 0.0
C334 C 0.97288 0.03969 0.61859 0.0
C335 C 0.96319 0.00936 0.92281 0.0
C336 C 1.01052 0.07283 0.86107 0.0
C337 C 0.07323 0.9597 0.01633 0.0
C338 C 0.10305 0.90991 0.07441 0.0
C339 C 0.07916 0.90523 0.04721 0.0
C340 C 0.06439 0.92989 0.01793 0.0
C341 C 0.09788 0.964 0.03936 0.0
C342 C 0.11288 0.93912 0.06773 0.0
C343 C 0.05637 0.98674 0.99529 0.0
H344 H 0.03654 0.04163 0.38269 0.0
H345 H 1.0032 0.01537 0.47281 0.0
H346 H 0.97516 0.10268 0.61187 0.0
H347 H 1.00842 0.12848 0.52122 0.0
H348 H 0.07143 0.88272 0.05168 0.0
H349 H 0.04564 0.92586 0.99935 0.0
H350 H 0.10508 0.98681 0.03793 0.0
H351 H 0.13134 0.94298 0.08841 0.0
Dy352 Dy 0.50038 0.98578 0.71644 0.0
Dy353 Dy 0.51013 0.03669 0.8596 0.0
C354 C 0.50076 0.05764 0.6808 0.0
O355 O 0.54293 0.99639 0.67802 0.0
O356 O 0.55184 0.01897 0.79742 0.0
O357 O 0.48475 0.97547 0.60652 0.0
O358 O 0.50825 0.93929 0.65808 0.0
O359 O 0.51136 0.99221 0.92514 0.0
O360 O 0.50492 0.95667 0.82466 0.0
O361 O 0.46568 0.03361 0.8854 0.0
O362 O 0.46037 0.99233 0.79891 0.0
O363 O 0.52303 0.04975 0.97234 0.0
O364 O 0.5053 0.08522 0.90301 0.0
C365 C 0.55975 0.00715 0.7214 0.0
O366 O 0.48829 0.03285 0.67308 0.0
O367 O 0.51455 0.06071 0.74006 0.0
C368 C 0.47062 0.92578 0.60335 0.0
C369 C 0.4215 0.90104 0.61139 0.0
C370 C 0.43271 0.91555 0.5405 0.0
C371 C 0.45715 0.92765 0.53631 0.0
C372 C 0.46046 0.90912 0.6719 0.0
C373 C 0.43618 0.8963 0.67521 0.0
C374 C 0.49222 0.94574 0.60597 0.0
C375 C 0.50853 0.96373 0.89999 0.0
C376 C 0.45097 0.01314 0.8597 0.0
C377 C 0.54265 0.09621 0.96265 0.0
C378 C 0.59605 0.10797 0.95029 0.0
C379 C 0.58165 0.10003 0.02581 0.0
C380 C 0.55504 0.09433 0.03207 0.0
C381 C 0.55615 0.10774 0.88981 0.0
C382 C 0.58275 0.1139 0.88395 0.0
C383 C 0.51897 0.07949 0.96174 0.0
H384 H 0.4218 0.9191 0.49018 0.0
H385 H 0.46462 0.9404 0.48304 0.0
H386 H 0.47043 0.9075 0.72472 0.0
H387 H 0.42795 0.88476 0.72982 0.0
H388 H 0.59162 0.09568 0.07786 0.0
H389 H 0.54497 0.08556 0.08877 0.0
H390 H 0.54699 0.10955 0.8354 0.0
H391 H 0.59361 0.12042 0.82566 0.0
Dy392 Dy 0.54741 0.51427 0.82566 0.0
Dy393 Dy 0.49347 0.50824 0.73009 0.0
C394 C 0.50718 0.4597 0.86779 0.0
O395 O 0.56238 0.49297 0.69876 0.0
O396 O 0.52492 0.46934 0.68546 0.0
O397 O 0.58278 0.49203 0.86482 0.0
O398 O 0.57229 0.54164 0.88752 0.0
O399 O 0.51632 0.54463 0.66456 0.0
O400 O 0.54307 0.55828 0.75662 0.0
O401 O 0.48375 0.54861 0.82304 0.0
O402 O 0.51026 0.53116 0.91504 0.0
O403 O 0.48175 0.5008 0.61229 0.0
O404 O 0.45082 0.50945 0.72328 0.0
C405 C 0.55061 0.47132 0.6658 0.0
O406 O 0.53039 0.47049 0.86915 0.0
O407 O 0.48911 0.4725 0.82703 0.0
C408 C 0.59863 0.51654 0.9784 0.0
C409 C 0.62532 0.51437 0.116 0.0
C410 C 0.61622 0.48733 0.08556 0.0
C411 C 0.60306 0.48836 0.01727 0.0
C412 C 0.60705 0.54368 0.01099 0.0
C413 C 0.62022 0.54261 0.07888 0.0
C414 C 0.58856 0.51767 0.89863 0.0
C415 C 0.53156 0.5639 0.69213 0.0
C416 C 0.49066 0.55003 0.89629 0.0
C417 C 0.43595 0.50134 0.58893 0.0
C418 C 0.3982 0.49868 0.4814 0.0
C419 C 0.42542 0.48945 0.45268 0.0
C420 C 0.44405 0.49084 0.5056 0.0
C421 C 0.40861 0.51023 0.61802 0.0
C422 C 0.38994 0.509 0.56474 0.0
C423 C 0.45629 0.50424 0.64302 0.0
H424 H 0.6201 0.46524 0.11289 0.0
H425 H 0.59714 0.46693 0.99343 0.0
H426 H 0.60432 0.56564 0.98195 0.0
H427 H 0.6272 0.5637 0.10091 0.0
H428 H 0.43229 0.48131 0.38892 0.0
H429 H 0.46491 0.48383 0.48088 0.0
H430 H 0.4017 0.51857 0.68158 0.0
H431 H 0.36905 0.51621 0.58842 0.0
Dy432 Dy 1.00629 0.53495 0.76962 0.0
Dy433 Dy 0.99967 0.47533 0.88809 0.0
C434 C 1.01622 0.46284 0.69236 0.0
O435 O 0.96248 0.53311 0.8162 0.0
O436 O 0.964 0.48057 0.82547 0.0
O437 O 0.98747 0.56568 0.69051 0.0
O438 O 0.027 0.57213 0.71161 0.0
O439 O 0.98445 0.51867 0.96868 0.0
O440 O 1.00723 0.55494 0.89543 0.0
O441 O 0.04139 0.48759 0.88805 0.0
O442 O 0.04872 0.51713 0.77422 0.0
O443 O 1.01409 0.4442 0.97505 0.0
O444 O 0.97506 0.44131 0.94513 0.0
C445 C 0.95082 0.50733 0.81538 0.0
O446 O 1.0106 0.49281 0.68273 0.0
O447 O 1.01632 0.45141 0.7654 0.0
C448 C 0.02042 0.57146 0.5741 0.0
C449 C 0.05203 0.53628 0.44102 0.0
C450 C 0.0248 0.53254 0.46097 0.0
C451 C 1.00897 0.55018 0.52732 0.0
C452 C 0.04628 0.57901 0.54365 0.0
C453 C 0.06212 0.56128 0.47757 0.0
C454 C 1.00963 0.57742 0.66303 0.0
C455 C 0.99486 0.54541 0.96524 0.0
C456 C 0.05744 0.50182 0.83361 0.0
C457 C 0.97817 0.44064 0.08563 0.0
C458 C 0.95008 0.47691 0.22287 0.0
C459 C 0.97802 0.47287 0.2097 0.0
C460 C 0.99209 0.4546 0.14139 0.0
C461 C 0.95038 0.44035 0.10802 0.0
C462 C 0.93638 0.45864 0.176 0.0
C463 C 0.99072 0.4344 0.99785 0.0
H464 H 1.0167 0.51354 0.43234 0.0
H465 H 0.98886 0.54425 0.54782 0.0
H466 H 0.05543 0.59562 0.57759 0.0
H467 H 0.08309 0.56467 0.46168 0.0
H468 H 0.98882 0.48632 0.24683 0.0
H469 H 1.0136 0.4544 0.12743 0.0
H470 H 0.93914 0.42917 0.06752 0.0
H471 H 0.91475 0.46124 0.1863 0.0
C472 C 0.12996 0.01439 0.60738 0.0
C473 C 0.12946 0.01079 0.52155 0.0
C474 C 0.08124 1.00557 0.55398 0.0
C475 C 0.0814 0.0115 0.63936 0.0
N476 N 0.10495 0.02836 0.74486 0.0
N477 N 0.10379 0.00884 0.41243 0.0
C478 C 0.10552 0.01782 0.66535 0.0
C479 C 0.1048 0.00814 0.49468 0.0
N480 N 0.15389 0.01336 0.63404 0.0
N481 N 0.05892 0.99613 0.5296 0.0
H482 H 0.12063 0.01065 0.36761 0.0
H483 H 0.08601 0.0105 0.38941 0.0
H484 H 0.04144 0.99353 0.57086 0.0
H485 H 0.05844 0.98828 0.46949 0.0
H486 H 0.15565 0.01217 0.69593 0.0
H487 H 0.17224 0.01105 0.59404 0.0
H488 H 0.12131 0.03653 0.7653 0.0
H489 H 0.08742 0.0319 0.78859 0.0
C490 C 0.49489 0.13865 0.5945 0.0
C491 C 0.50342 0.13168 0.50845 0.0
C492 C 0.50997 0.07585 0.53474 0.0
C493 C 0.49999 0.08268 0.62024 0.0
N494 N 0.4773 0.1198 0.72816 0.0
N495 N 0.51377 0.09337 0.39492 0.0
C496 C 0.49076 0.11389 0.64907 0.0
C497 C 0.50925 0.10014 0.47811 0.0
N498 N 0.49187 0.16891 0.62484 0.0
N499 N 0.5216 0.04659 0.50797 0.0
H500 H 0.5134 0.11057 0.35195 0.0
H501 H 0.5154 0.07078 0.3689 0.0
H502 H 0.52303 0.02826 0.54712 0.0
H503 H 0.53193 0.0411 0.4482 0.0
H504 H 0.48882 0.17519 0.68762 0.0
H505 H 0.49456 0.18775 0.58733 0.0
H506 H 0.4677 0.14159 0.75041 0.0
H507 H 0.47342 0.10224 0.76927 0.0
C508 C 0.34026 0.47479 0.38099 0.0
C509 C 0.34242 0.49331 0.31076 0.0
C510 C 0.37872 0.51831 0.35879 0.0
C511 C 0.37847 0.49737 0.42381 0.0
N512 N 0.36179 0.45212 0.48841 0.0
N513 N 0.36613 0.5298 0.22652 0.0
C514 C 0.35995 0.47466 0.43268 0.0
C515 C 0.36231 0.51434 0.29802 0.0
N516 N 0.31883 0.45804 0.40005 0.0
N517 N 0.39403 0.54263 0.35657 0.0
H518 H 0.35448 0.52757 0.18099 0.0
H519 H 0.38215 0.54279 0.20921 0.0
H520 H 0.40606 0.54645 0.40021 0.0
H521 H 0.39303 0.56057 0.3161 0.0
H522 H 0.31458 0.44684 0.45512 0.0
H523 H 0.30384 0.45772 0.36452 0.0
H524 H 0.35088 0.4329 0.49126 0.0
H525 H 0.37594 0.45107 0.52708 0.0
C526 C 1.014 0.42832 0.47706 0.0
C527 C 0.03316 0.40195 0.4702 0.0
C528 C 0.04315 0.4168 0.60603 0.0
C529 C 0.02173 0.44107 0.61711 0.0
N530 N 0.98197 0.46327 0.57064 0.0
N531 N 0.0619 0.36725 0.53655 0.0
C532 C 1.00584 0.4451 0.55451 0.0
C533 C 0.04648 0.39499 0.53731 0.0
N534 N 1.00381 0.43772 0.40949 0.0
N535 N 0.06138 0.4155 0.65779 0.0
H536 H 0.06467 0.35043 0.48804 0.0
H537 H 0.06979 0.3597 0.58756 0.0
H538 H 0.06089 0.43199 0.70577 0.0
H539 H 0.07882 0.4002 0.64703 0.0
H540 H 0.99203 0.45882 0.40928 0.0
H541 H 1.00928 0.42599 0.35172 0.0
H542 H 0.96873 0.46513 0.52912 0.0
H543 H 0.97381 0.47299 0.62934 0.0
C544 C 0.89002 0.02785 0.02694 0.0
C545 C 0.88836 0.00802 0.09451 0.0
C546 C 0.93553 0.98772 0.04724 0.0
C547 C 0.93771 0.00939 0.98372 0.0
N548 N 0.91841 0.05478 0.92522 0.0
N549 N 0.91061 0.97276 0.17699 0.0
C550 C 0.91532 0.03077 0.977 0.0
C551 C 0.91148 0.98904 0.107 0.0
N552 N 0.86726 0.04304 0.00823 0.0
N553 N 0.95595 0.9649 0.04835 0.0
H554 H 0.89336 0.97309 0.22155 0.0
H555 H 0.92744 0.96114 0.19431 0.0
H556 H 0.97369 0.96287 1.00551 0.0
H557 H 0.95445 0.94636 0.0872 0.0
H558 H 0.86686 0.05491 0.95434 0.0
H559 H 0.84832 0.04151 0.04259 0.0
H560 H 0.90356 0.07301 0.9242 0.0
H561 H 0.93666 0.05827 0.88917 0.0
C562 C 0.49342 0.9177 0.09583 0.0
C563 C 0.50627 0.88771 0.06731 0.0
C564 C 0.52496 0.90952 0.93608 0.0
C565 C 0.50883 0.93822 0.9598 0.0
N566 N 0.47421 0.96768 0.05968 0.0
N567 N 0.53151 0.85402 0.9552 0.0
C568 C 0.49227 0.94192 0.03932 0.0
C569 C 0.5214 0.88334 0.9861 0.0
N570 N 0.48262 0.9232 0.17752 0.0
N571 N 0.54446 0.90754 0.86736 0.0
H572 H 0.5294 0.83425 0.98951 0.0
H573 H 0.54003 0.84899 0.89343 0.0
H574 H 0.54849 0.92647 0.83114 0.0
H575 H 0.5585 0.88819 0.85145 0.0
H576 H 0.47548 0.94537 0.20378 0.0
H577 H 0.48327 0.9061 0.22067 0.0
H578 H 0.45961 0.96977 0.11277 0.0
H579 H 0.47179 0.98564 0.0201 0.0
C580 C 0.64661 0.51495 0.32881 0.0
C581 C 0.67453 0.5166 0.30554 0.0
C582 C 0.67041 0.51111 0.1591 0.0
C583 C 0.64219 0.51299 0.18205 0.0
N584 N 0.60292 0.51871 0.28804 0.0
N585 N 0.71279 0.51975 0.19856 0.0
C586 C 0.63014 0.51527 0.26686 0.0
C587 C 0.68639 0.5154 0.22063 0.0
N588 N 0.63598 0.51256 0.41014 0.0
N589 N 0.682 0.50466 0.07829 0.0
H590 H 0.72535 0.52243 0.24129 0.0
H591 H 0.72187 0.52302 0.13827 0.0
H592 H 0.67099 0.50179 0.03137 0.0
H593 H 0.70249 0.4995 0.05854 0.0
H594 H 0.61634 0.5082 0.4311 0.0
H595 H 0.64748 0.51253 0.45663 0.0
H596 H 0.59268 0.52389 0.348 0.0
H597 H 0.59038 0.51821 0.24446 0.0
C598 C 1.00102 0.57353 0.18379 0.0
C599 C 0.99733 0.60629 0.17729 0.0
C600 C 0.98427 0.59775 0.0422 0.0
C601 C 0.99308 0.56555 0.04203 0.0
N602 N 1.01417 0.52366 0.11003 0.0
N603 N 0.98923 0.64972 0.09237 0.0
C604 C 1.00238 0.55352 0.11247 0.0
C605 C 0.98966 0.61854 0.10474 0.0
N606 N 1.00318 0.56151 0.25829 0.0
N607 N 0.97042 0.6085 0.98322 0.0
H608 H 0.99405 0.66585 0.13437 0.0
H609 H 0.98658 0.65918 0.03661 0.0
H610 H 0.96547 0.59378 0.93796 0.0
H611 H 0.9614 0.63129 0.98489 0.0
H612 H 1.00373 0.53775 0.26816 0.0
H613 H 1.00172 0.57558 0.31199 0.0
H614 H 0.02423 0.51525 0.15596 0.0
H615 H 1.01627 0.50819 0.0589 0.0
C616 C 0.09045 0.12275 0.39069 0.0
C617 C 0.08278 0.14426 0.33396 0.0
C618 C 0.04114 0.12054 0.33414 0.0
C619 C 0.04695 0.10217 0.39929 0.0
N620 N 0.07672 0.08466 0.49081 0.0
N621 N 0.05087 0.162 0.24671 0.0
C622 C 0.07178 0.10246 0.42694 0.0
C623 C 0.05857 0.14238 0.30332 0.0
N624 N 0.11548 0.12197 0.40959 0.0
N625 N 0.01815 0.11824 0.30362 0.0
H626 H 0.0619 0.17933 0.22009 0.0
H627 H 0.0619 0.17933 0.22009 0.0
H628 H 1.00481 0.10207 0.32356 0.0
H629 H 1.01284 0.132 0.25692 0.0
H630 H 0.12335 0.10531 0.44547 0.0
H631 H 0.12926 0.13678 0.38354 0.0
H632 H 0.09316 0.08585 0.51974 0.0
H633 H 0.06357 0.06933 0.51767 0.0
C634 C 0.34677 0.91631 0.64459 0.0
C635 C 0.34354 0.90114 0.57033 0.0
C636 C 0.38751 0.87212 0.56019 0.0
C637 C 0.3934 0.8939 0.6188 0.0
N638 N 0.37804 0.93506 0.72447 0.0
N639 N 0.35862 0.86113 0.46276 0.0
C640 C 0.37261 0.91478 0.66563 0.0
C641 C 0.36293 0.87715 0.53123 0.0
N642 N 0.3253 0.93339 0.69182 0.0
N643 N 0.40608 0.84772 0.5302 0.0
H644 H 0.3404 0.86389 0.44215 0.0
H645 H 0.37315 0.84589 0.42536 0.0
H646 H 0.42421 0.84422 0.55129 0.0
H647 H 0.40265 0.82979 0.4908 0.0
H648 H 0.32563 0.94346 0.74991 0.0
H649 H 0.30641 0.93481 0.67534 0.0
H650 H 0.36449 0.95341 0.75303 0.0
H651 H 0.39655 0.93441 0.74285 0.0
C652 C 0.58779 0.39415 0.58042 0.0
C653 C 0.57712 0.39191 0.50689 0.0
C654 C 0.56065 0.4473 0.52441 0.0
C655 C 0.56607 0.44749 0.60558 0.0
N656 N 0.58543 0.42201 0.71227 0.0
N657 N 0.5525 0.41617 0.40864 0.0
C658 C 0.58045 0.42141 0.63344 0.0
C659 C 0.5639 0.41864 0.47746 0.0
N660 N 0.60453 0.36995 0.59959 0.0
N661 N 0.55174 0.47454 0.49346 0.0
H662 H 0.55409 0.39566 0.37219 0.0
H663 H 0.53981 0.43395 0.39054 0.0
H664 H 0.54883 0.49569 0.52796 0.0
H665 H 0.54976 0.47668 0.43198 0.0
H666 H 0.61472 0.37096 0.64897 0.0
H667 H 0.61007 0.3498 0.56119 0.0
H668 H 0.59284 0.40248 0.73987 0.0
H669 H 0.58095 0.44195 0.75164 0.0
C670 C 0.1088 0.49471 0.28819 0.0
C671 C 0.11645 0.46922 0.33456 0.0
C672 C 0.07888 0.48489 0.44511 0.0
C673 C 0.07115 0.51043 0.39886 0.0
N674 N 0.07433 0.53532 0.2697 0.0
N675 N 0.1058 0.43534 0.44539 0.0
C676 C 0.0846 0.51376 0.31776 0.0
C677 C 0.10024 0.46258 0.40884 0.0
N678 N 0.12554 0.50197 0.21897 0.0
N679 N 0.06728 0.48328 0.52581 0.0
H680 H 0.12157 0.41878 0.41968 0.0
H681 H 0.09352 0.42787 0.49651 0.0
H682 H 0.0517 0.49914 0.55593 0.0
H683 H 0.07454 0.46752 0.56493 0.0
H684 H 0.12294 0.52288 0.19011 0.0
H685 H 0.14301 0.48801 0.19325 0.0
H686 H 0.08191 0.53695 0.20725 0.0
H687 H 0.0567 0.54975 0.29086 0.0
C688 C 0.13518 0.83026 0.11038 0.0
C689 C 0.1211 0.82718 0.19122 0.0
C690 C 0.10694 0.88322 0.20333 0.0
C691 C 0.11569 0.88457 0.11739 0.0
N692 N 0.14002 0.86102 0.98868 0.0
N693 N 0.0922 0.85064 0.31484 0.0
C694 C 0.13091 0.85868 0.071 0.0
C695 C 0.10722 0.85379 0.23885 0.0
N696 N 0.1521 0.80573 0.07144 0.0
N697 N 0.09747 0.90997 0.25029 0.0
H698 H 0.09127 0.82964 0.34394 0.0
H699 H 0.07891 0.86854 0.34699 0.0
H700 H 0.09637 0.93188 0.22554 0.0
H701 H 0.09325 0.91082 0.31455 0.0
H702 H 0.16444 0.80693 0.01455 0.0
H703 H 0.15538 0.7848 0.09998 0.0
H704 H 0.14864 0.84215 0.94879 0.0
H705 H 0.13809 0.88208 0.95978 0.0
C706 C 0.66328 0.11572 1.00406 0.0
C707 C 0.67753 0.08755 0.96593 0.0
C708 C 0.6404 0.07745 0.89799 0.0
C709 C 0.62555 0.1048 0.93888 0.0
N710 N 0.6254 0.15473 0.00796 0.0
N711 N 0.68417 0.04918 0.8536 0.0
C712 C 0.63809 0.12578 0.98337 0.0
C713 C 0.6677 0.07148 0.90353 0.0
N714 N 0.67257 0.13138 0.06476 0.0
N715 N 0.62801 0.05557 0.86138 0.0
H716 H 0.70424 0.04437 0.85853 0.0
H717 H 0.67862 0.03809 0.80298 0.0
H718 H 0.60779 0.05824 0.85795 0.0
H719 H 0.63748 0.03366 0.83952 0.0
H720 H 0.66131 0.14965 0.10189 0.0
H721 H 0.69109 0.12522 0.08099 0.0
H722 H 0.63436 0.17206 0.03513 0.0
H723 H 0.60678 0.16222 0.99361 0.0
C724 C 0.44032 0.60546 0.04637 0.0
C725 C 0.45665 0.62913 0.05995 0.0
C726 C 0.49524 0.59958 0.97405 0.0
C727 C 0.47877 0.57664 0.95485 0.0
N728 N 0.43498 0.55894 0.96599 0.0
N729 N 0.49773 0.65253 0.02107 0.0
C730 C 0.45099 0.58008 0.98847 0.0
C731 C 0.48347 0.62734 0.01874 0.0
N732 N 0.41503 0.60677 0.09087 0.0
N733 N 0.52232 0.59502 0.9502 0.0
H734 H 0.49008 0.67347 0.0538 0.0
H735 H 0.51625 0.65382 0.98391 0.0
H736 H 0.5319 0.57713 0.90912 0.0
H737 H 0.5354 0.60848 0.97381 0.0
H738 H 0.40298 0.58865 0.09116 0.0
H739 H 0.40657 0.62568 0.13118 0.0
H740 H 0.41424 0.56185 0.98139 0.0
H741 H 0.4424 0.53903 0.92826 0.0
C742 C 0.91204 0.55715 0.26652 0.0
C743 C 0.895 0.55169 0.34033 0.0
C744 C 0.92224 0.50254 0.3518 0.0
C745 C 0.9352 0.50491 0.26964 0.0
N746 N 0.9422 0.53396 0.14616 0.0
N747 N 0.88341 0.51939 0.45572 0.0
C748 C 0.93054 0.53243 0.22685 0.0
C749 C 0.90038 0.52481 0.38506 0.0
N750 N 0.90993 0.58575 0.23375 0.0
N751 N 0.93043 0.47859 0.39672 0.0
H752 H 0.86727 0.53518 0.48256 0.0
H753 H 0.88443 0.49853 0.48559 0.0
H754 H 0.94606 0.46167 0.37229 0.0
H755 H 0.92344 0.47708 0.45957 0.0
H756 H 0.9234 0.59214 0.18364 0.0
H757 H 0.8962 0.60403 0.26238 0.0
H758 H 0.93688 0.55164 0.10879 0.0
H759 H 0.95607 0.51642 0.11487 0.0
C760 C 1.0111 0.16174 0.86854 0.0
C761 C 1.01694 0.16717 0.9488 0.0
C762 C 1.01319 0.11185 0.97517 0.0
C763 C 1.01053 0.10579 0.8919 0.0
N764 N 1.00759 0.12553 0.75753 0.0
N765 N 0.02918 0.14536 0.07196 0.0
C766 C 1.0095 0.13088 0.83838 0.0
C767 C 0.01935 0.1417 1.00059 0.0
N768 N 1.00747 0.1856 0.81826 0.0
N769 N 1.00882 0.0894 0.03121 0.0
H770 H 0.0346 0.16648 0.09267 0.0
H771 H 0.03457 0.12667 0.10622 0.0
H772 H 1.00325 0.06763 0.016 0.0
H773 H 1.00778 0.0936 0.0944 0.0
H774 H 1.00784 0.20904 0.83542 0.0
H775 H 1.00784 0.20904 0.83542 0.0
H776 H 1.00688 0.14346 0.71667 0.0
H777 H 1.00766 0.10331 0.73067 0.0
C778 C 0.38955 0.98894 1.00258 0.0
C779 C 0.36994 0.01417 0.99745 0.0
C780 C 0.40351 0.03916 0.90217 0.0
C781 C 0.42261 0.01294 0.9035 0.0
N782 N 0.43184 0.96002 0.94286 0.0
N783 N 0.3569 0.06098 0.93287 0.0
C784 C 0.41495 0.98691 0.94953 0.0
C785 C 0.37659 0.03868 0.9446 0.0
N786 N 0.38451 0.96769 0.06166 0.0
N787 N 0.41108 0.06454 0.86011 0.0
H788 H 0.33714 0.06124 0.96279 0.0
H789 H 0.35955 0.07773 0.88899 0.0
H790 H 0.42983 0.06487 0.82329 0.0
H791 H 0.39932 0.08582 0.86467 0.0
H792 H 0.39907 0.9511 0.07547 0.0
H793 H 0.36643 0.96839 0.10262 0.0
H794 H 0.42605 0.93915 0.96648 0.0
H795 H 0.45112 0.95768 0.9088 0.0
C796 C 0.49739 0.37515 0.92191 0.0
C797 C 0.5008 0.37624 1.00566 0.0
C798 C 0.50129 0.43319 1.00228 0.0
C799 C 0.50166 0.43151 0.91592 0.0
N800 N 0.5027 0.4002 0.79109 0.0
N801 N 0.50969 0.40596 0.12291 0.0
C802 C 0.50012 0.40234 0.8751 0.0
C803 C 0.50353 0.40523 0.04538 0.0
N804 N 0.49119 0.34819 0.88745 0.0
N805 N 0.49827 0.46168 0.04354 0.0
H806 H 0.51176 0.38615 0.15672 0.0
H807 H 0.51501 0.42579 0.15107 0.0
H808 H 0.49613 0.48257 0.01407 0.0
H809 H 0.49514 0.46459 0.10762 0.0
H810 H 0.4858 0.34663 0.82947 0.0
H811 H 0.48915 0.32796 0.91999 0.0
H812 H 0.50507 0.3791 0.75679 0.0
H813 H 0.50437 0.41947 0.75477 0.0
C814 C 0.13458 0.49582 0.7924 0.0
C815 C 0.13962 0.49896 0.87438 0.0
C816 C 0.09136 0.51027 0.9242 0.0
C817 C 0.08598 0.50247 0.84478 0.0
N818 N 0.10317 0.48323 0.70457 0.0
N819 N 0.12143 0.50099 0.02037 0.0
C820 C 0.10781 0.49416 0.77888 0.0
C821 C 0.11763 0.50393 0.94087 0.0
N822 N 0.15527 0.49502 0.72737 0.0
N823 N 0.07164 0.52509 0.98322 0.0
H824 H 0.14007 0.49487 0.03604 0.0
H825 H 0.10556 0.50103 0.06958 0.0
H826 H 0.05271 0.53241 0.97135 0.0
H827 H 0.07513 0.53357 0.03996 0.0
H828 H 0.15258 0.49579 0.6662 0.0
H829 H 0.17494 0.49653 0.73512 0.0
H830 H 0.11829 0.47384 0.65696 0.0
H831 H 0.08404 0.48089 0.69329 0.0
C832 C 0.02706 0.87363 0.63193 0.0
C833 C 1.01077 0.85296 0.67737 0.0
C834 C 0.99321 0.89504 0.78297 0.0
C835 C 1.01085 0.91501 0.74027 0.0
N836 N 0.04806 0.92164 0.63252 0.0
N837 N 0.98096 0.84226 0.80077 0.0
C838 C 0.02869 0.90384 0.66691 0.0
C839 C 0.99462 0.86317 0.75442 0.0
N840 N 0.04069 0.86454 0.55446 0.0
N841 N 0.97431 0.90689 0.84862 0.0
H842 H 0.98094 0.81911 0.78042 0.0
H843 H 0.97118 0.84718 0.86136 0.0
H844 H 0.97262 0.93003 0.87095 0.0
H845 H 0.95901 0.89458 0.87712 0.0
H846 H 0.05021 0.87971 0.5142 0.0
H847 H 0.04087 0.84229 0.52748 0.0
H848 H 0.06351 0.9136 0.58441 0.0
H849 H 0.05025 0.94362 0.65699 0.0
C850 C 0.62907 0.03416 0.64526 0.0
C851 C 0.64154 0.00886 0.59004 0.0
C852 C 0.60265 0.98007 0.6367 0.0
C853 C 0.58852 0.00727 0.68068 0.0
N854 N 0.58719 0.06279 0.70921 0.0
N855 N 0.63669 0.95981 0.52132 0.0
C856 C 0.60148 0.03502 0.68067 0.0
C857 C 0.62749 0.98221 0.58288 0.0
N858 N 0.64365 0.05741 0.66435 0.0
N859 N 0.59268 0.95195 0.64723 0.0
H860 H 0.6538 0.96104 0.47735 0.0
H861 H 0.62572 0.94167 0.50856 0.0
H862 H 0.57507 0.94925 0.68786 0.0
H863 H 0.60337 0.93096 0.62259 0.0
H864 H 0.63597 0.07576 0.70716 0.0
H865 H 0.6642 0.05661 0.64364 0.0
H866 H 0.59506 0.0841 0.70164 0.0
H867 H 0.56676 0.06502 0.73194 0.0
C868 C 0.52859 0.65181 0.65939 0.0
C869 C 0.53074 0.65216 0.57251 0.0
C870 C 0.54123 0.59504 0.5647 0.0
C871 C 0.53389 0.59446 0.65169 0.0
N872 N 0.51411 0.62326 0.77918 0.0
N873 N 0.53487 0.62239 0.44271 0.0
C874 C 0.52618 0.62315 0.69867 0.0
C875 C 0.53621 0.62332 0.52483 0.0
N876 N 0.52844 0.67892 0.70467 0.0
N877 N 0.55328 0.5687 0.52011 0.0
H878 H 0.53002 0.64206 0.41122 0.0
H879 H 0.53598 0.6016 0.40766 0.0
H880 H 0.55804 0.54806 0.54805 0.0
H881 H 0.56114 0.56842 0.4573 0.0
H882 H 0.52905 0.67951 0.76763 0.0
H883 H 0.5306 0.70025 0.67747 0.0
H884 H 0.50602 0.64356 0.81432 0.0
H885 H 0.509 0.60291 0.80681 0.0
C886 C 0.87691 0.49358 0.83183 0.0
C887 C 0.87049 0.50829 0.76095 0.0
C888 C 0.91693 0.52045 0.72333 0.0
C889 C 0.92295 0.50812 0.79774 0.0
N890 N 0.90736 0.48752 0.92973 0.0
N891 N 0.88294 0.54167 0.64905 0.0
C892 C 0.90256 0.49585 0.85391 0.0
C893 C 0.89008 0.52352 0.70974 0.0
N894 N 0.85868 0.4769 0.87705 0.0
N895 N 0.93705 0.52765 0.66315 0.0
H896 H 0.86352 0.54469 0.63698 0.0
H897 H 0.89567 0.55602 0.61571 0.0
H898 H 0.95704 0.52472 0.66911 0.0
H899 H 0.93425 0.53326 0.60402 0.0
H900 H 0.86303 0.4628 0.92406 0.0
H901 H 0.83965 0.47535 0.86341 0.0
H902 H 0.89265 0.48135 0.97661 0.0
H903 H 0.92561 0.48943 0.94862 0.0
loop_
_geom_bond_atom_site_label_1
_geom_bond_atom_site_label_2
_geom_bond_distance
_geom_bond_site_symmetry_2
_ccdc_geom_bond_type
C0 C1 1.386 . S
C0 C2 1.397 . S
C0 H24 0.931 . S
C1 C0 1.386 . S
C1 C5 1.397 . S
C2 C0 1.397 . S
C2 C3 1.384 . S
C2 H25 0.930 . S
C3 C2 1.384 . S
C3 C4 1.377 . S
C3 C6 1.481 . S
C4 C3 1.377 . S
C4 C5 1.389 . S
C4 H26 0.929 . S
C5 C1 1.397 . S
C5 C4 1.389 . S
C5 H27 0.931 . S
C6 C3 1.481 . S
C6 C7 1.387 . S
C6 C11 1.390 . S
C7 C6 1.387 . S
C7 C8 1.401 . S
C7 H28 0.930 . S
C8 C7 1.401 . S
C8 C9 1.376 . S
C8 C17 1.511 . S
C9 C8 1.376 . S
C9 C10 1.392 . S
C9 H30 0.931 . S
C10 C9 1.392 . S
C10 C11 1.361 . S
C10 C12 1.500 . S
C11 C6 1.390 . S
C11 C10 1.361 . S
C11 H29 0.931 . S
C12 C10 1.500 . S
C12 C13 1.371 . S
C12 C14 1.365 . S
C13 C12 1.371 . S
C13 C23 1.386 . S
C13 H31 0.931 . S
C14 C12 1.365 . S
C14 C15 1.409 . S
C14 H32 0.929 . S
C15 C14 1.409 . S
C15 C16 1.380 . S
C15 H33 0.930 . S
C16 C15 1.380 . S
C16 C23 1.357 . S
C17 C8 1.511 . S
C17 C18 1.341 . S
C17 C19 1.371 . S
C18 C17 1.341 . S
C18 C22 1.394 . S
C18 H34 0.930 . S
C19 C17 1.371 . S
C19 C20 1.392 . S
C19 H35 0.931 . S
C20 C19 1.392 . S
C20 C21 1.331 . S
C20 H38 0.932 . S
C21 C20 1.331 . S
C21 C22 1.336 . S
C22 C18 1.394 . S
C22 C21 1.336 . S
C22 H37 0.929 . S
C23 C13 1.386 . S
C23 C16 1.357 . S
C23 H36 0.928 . S
H24 C0 0.931 . S
H25 C2 0.930 . S
H26 C4 0.929 . S
H27 C5 0.931 . S
H28 C7 0.930 . S
H29 C11 0.931 . S
H30 C9 0.931 . S
H31 C13 0.931 . S
H32 C14 0.929 . S
H33 C15 0.930 . S
H34 C18 0.930 . S
H35 C19 0.931 . S
H36 C23 0.928 . S
H37 C22 0.929 . S
H38 C20 0.932 . S
C39 C40 1.396 . S
C39 C41 1.397 . S
C39 H63 0.931 . S
C40 C39 1.396 . S
C40 C44 1.387 1_655 S
C41 C39 1.397 . S
C41 C42 1.390 . S
C41 H64 0.930 . S
C42 C41 1.390 . S
C42 C43 1.372 1_655 S
C42 C45 1.482 . S
C43 C42 1.372 1_455 S
C43 C44 1.389 . S
C43 H65 0.929 . S
C44 C40 1.387 1_455 S
C44 C43 1.389 . S
C44 H66 0.931 . S
C45 C42 1.482 . S
C45 C46 1.393 . S
C45 C50 1.386 . S
C46 C45 1.393 . S
C46 C47 1.404 . S
C46 H67 0.930 . S
C47 C46 1.404 . S
C47 C48 1.370 . S
C47 C56 1.518 . S
C48 C47 1.370 . S
C48 C49 1.393 . S
C48 H69 0.931 . S
C49 C48 1.393 . S
C49 C50 1.361 . S
C49 C51 1.494 1_655 S
C50 C45 1.386 . S
C50 C49 1.361 . S
C50 H68 0.930 . S
C51 C49 1.494 1_455 S
C51 C52 1.363 1_455 S
C51 C53 1.378 . S
C52 C51 1.363 1_655 S
C52 C62 1.386 . S
C52 H70 0.931 . S
C53 C51 1.378 . S
C53 C54 1.409 . S
C53 H71 0.929 . S
C54 C53 1.409 . S
C54 C55 1.380 . S
C54 H72 0.930 . S
C55 C54 1.380 . S
C55 C62 1.358 1_455 S
C56 C47 1.518 . S
C56 C57 1.341 . S
C56 C58 1.371 1_655 S
C57 C56 1.341 . S
C57 C61 1.394 . S
C57 H73 0.930 . S
C58 C56 1.371 1_455 S
C58 C59 1.392 . S
C58 H74 0.931 . S
C59 C58 1.392 . S
C59 C60 1.317 1_455 S
C59 H77 0.932 . S
C60 C59 1.317 1_655 S
C60 C61 1.346 . S
C61 C57 1.394 . S
C61 C60 1.346 . S
C61 H76 0.929 . S
C62 C52 1.386 . S
C62 C55 1.358 1_655 S
C62 H75 0.928 . S
H63 C39 0.931 . S
H64 C41 0.930 . S
H65 C43 0.929 . S
H66 C44 0.931 . S
H67 C46 0.930 . S
H68 C50 0.930 . S
H69 C48 0.931 . S
H70 C52 0.931 . S
H71 C53 0.929 . S
H72 C54 0.930 . S
H73 C57 0.930 . S
H74 C58 0.931 . S
H75 C62 0.928 . S
H76 C61 0.929 . S
H77 C59 0.932 . S
C78 C79 1.393 . S
C78 C80 1.397 . S
C78 H102 0.931 . S
C79 C78 1.393 . S
C79 C83 1.389 1_565 S
C80 C78 1.397 . S
C80 C81 1.388 . S
C80 H103 0.930 . S
C81 C80 1.388 . S
C81 C82 1.373 1_565 S
C81 C84 1.481 . S
C82 C81 1.373 1_545 S
C82 C83 1.389 . S
C82 H104 0.929 . S
C83 C79 1.389 1_545 S
C83 C82 1.389 . S
C83 H105 0.931 . S
C84 C81 1.481 . S
C84 C85 1.384 . S
C84 C89 1.392 . S
C85 C84 1.384 . S
C85 C86 1.403 . S
C85 H106 0.930 . S
C86 C85 1.403 . S
C86 C87 1.380 . S
C86 C95 1.509 . S
C87 C86 1.380 . S
C87 C88 1.392 . S
C87 H108 0.931 . S
C88 C87 1.392 . S
C88 C89 1.361 . S
C88 C90 1.502 1_565 S
C89 C84 1.392 . S
C89 C88 1.361 . S
C89 H107 0.932 . S
C90 C88 1.502 1_545 S
C90 C91 1.361 1_545 S
C90 C92 1.374 . S
C91 C90 1.361 1_565 S
C91 C101 1.386 . S
C91 H109 0.931 . S
C92 C90 1.374 . S
C92 C93 1.409 . S
C92 H110 0.929 . S
C93 C92 1.409 . S
C93 C94 1.380 . S
C93 H111 0.930 . S
C94 C93 1.380 . S
C94 C101 1.357 1_545 S
C95 C86 1.509 . S
C95 C96 1.341 . S
C95 C97 1.371 1_565 S
C96 C95 1.341 . S
C96 C100 1.394 . S
C96 H112 0.930 . S
C97 C95 1.371 1_545 S
C97 C98 1.392 . S
C97 H113 0.931 . S
C98 C97 1.392 . S
C98 C99 1.325 1_545 S
C98 H116 0.932 . S
C99 C98 1.325 1_565 S
C99 C100 1.346 . S
C100 C96 1.394 . S
C100 C99 1.346 . S
C100 H115 0.929 . S
C101 C91 1.386 . S
C101 C94 1.357 1_565 S
C101 H114 0.928 . S
H102 C78 0.931 . S
H103 C80 0.930 . S
H104 C82 0.929 . S
H105 C83 0.931 . S
H106 C85 0.930 . S
H107 C89 0.932 . S
H108 C87 0.931 . S
H109 C91 0.931 . S
H110 C92 0.929 . S
H111 C93 0.930 . S
H112 C96 0.930 . S
H113 C97 0.931 . S
H114 C101 0.928 . S
H115 C100 0.929 . S
H116 C98 0.932 . S
C117 C118 1.386 . S
C117 C119 1.397 . S
C117 H141 0.931 . S
C118 C117 1.386 . S
C118 C122 1.397 . S
C119 C117 1.397 . S
C119 C120 1.384 . S
C119 H142 0.930 . S
C120 C119 1.384 . S
C120 C121 1.377 . S
C120 C123 1.481 . S
C121 C120 1.377 . S
C121 C122 1.389 . S
C121 H143 0.929 . S
C122 C118 1.397 . S
C122 C121 1.389 . S
C122 H144 0.931 . S
C123 C120 1.481 . S
C123 C124 1.387 . S
C123 C128 1.390 . S
C124 C123 1.387 . S
C124 C125 1.401 . S
C124 H145 0.930 . S
C125 C124 1.401 . S
C125 C126 1.376 . S
C125 C134 1.511 . S
C126 C125 1.376 . S
C126 C127 1.392 . S
C126 H147 0.931 . S
C127 C126 1.392 . S
C127 C128 1.361 . S
C127 C129 1.500 . S
C128 C123 1.390 . S
C128 C127 1.361 . S
C128 H146 0.931 . S
C129 C127 1.500 . S
C129 C130 1.371 1_554 S
C129 C131 1.365 . S
C130 C129 1.371 1_556 S
C130 C140 1.386 . S
C130 H148 0.931 . S
C131 C129 1.365 . S
C131 C132 1.409 . S
C131 H149 0.929 . S
C132 C131 1.409 . S
C132 C133 1.380 1_554 S
C132 H150 0.930 . S
C133 C132 1.380 1_556 S
C133 C140 1.357 . S
C134 C125 1.511 . S
C134 C135 1.341 . S
C134 C136 1.371 . S
C135 C134 1.341 . S
C135 C139 1.394 . S
C135 H151 0.930 . S
C136 C134 1.371 . S
C136 C137 1.392 . S
C136 H152 0.931 . S
C137 C136 1.392 . S
C137 C138 1.331 . S
C137 H155 0.932 . S
C138 C137 1.331 . S
C138 C139 1.336 . S
C139 C135 1.394 . S
C139 C138 1.336 . S
C139 H154 0.929 . S
C140 C130 1.386 . S
C140 C133 1.357 . S
C140 H153 0.928 . S
H141 C117 0.931 . S
H142 C119 0.930 . S
H143 C121 0.929 . S
H144 C122 0.931 . S
H145 C124 0.930 . S
H146 C128 0.931 . S
H147 C126 0.931 . S
H148 C130 0.931 . S
H149 C131 0.929 . S
H150 C132 0.930 . S
H151 C135 0.930 . S
H152 C136 0.931 . S
H153 C140 0.928 . S
H154 C139 0.929 . S
H155 C137 0.932 . S
C156 C157 1.386 . S
C156 C158 1.397 . S
C156 H180 0.931 . S
C157 C156 1.386 . S
C157 C161 1.397 . S
C158 C156 1.397 . S
C158 C159 1.384 . S
C158 H181 0.930 . S
C159 C158 1.384 . S
C159 C160 1.377 . S
C159 C162 1.481 . S
C160 C159 1.377 . S
C160 C161 1.389 . S
C160 H182 0.929 . S
C161 C157 1.397 . S
C161 C160 1.389 . S
C161 H183 0.931 . S
C162 C159 1.481 . S
C162 C163 1.387 . S
C162 C167 1.390 1_554 S
C163 C162 1.387 . S
C163 C164 1.401 . S
C163 H184 0.930 . S
C164 C163 1.401 . S
C164 C165 1.376 1_554 S
C164 C173 1.511 . S
C165 C164 1.376 1_556 S
C165 C166 1.392 . S
C165 H186 0.931 . S
C166 C165 1.392 . S
C166 C167 1.361 . S
C166 C168 1.500 . S
C167 C162 1.390 1_556 S
C167 C166 1.361 . S
C167 H185 0.931 . S
C168 C166 1.500 . S
C168 C169 1.371 . S
C168 C170 1.365 . S
C169 C168 1.371 . S
C169 C179 1.386 . S
C169 H187 0.931 . S
C170 C168 1.365 . S
C170 C171 1.409 . S
C170 H188 0.929 . S
C171 C170 1.409 . S
C171 C172 1.380 . S
C171 H189 0.930 . S
C172 C171 1.380 . S
C172 C179 1.357 . S
C173 C164 1.511 . S
C173 C174 1.341 . S
C173 C175 1.371 1_554 S
C174 C173 1.341 . S
C174 C178 1.394 . S
C174 H190 0.930 . S
C175 C173 1.371 1_556 S
C175 C176 1.392 . S
C175 H191 0.931 . S
C176 C175 1.392 . S
C176 C177 1.331 1_556 S
C176 H194 0.932 . S
C177 C176 1.331 1_554 S
C177 C178 1.336 . S
C178 C174 1.394 . S
C178 C177 1.336 . S
C178 H193 0.929 . S
C179 C169 1.386 . S
C179 C172 1.357 . S
C179 H192 0.928 . S
H180 C156 0.931 . S
H181 C158 0.930 . S
H182 C160 0.929 . S
H183 C161 0.931 . S
H184 C163 0.930 . S
H185 C167 0.931 . S
H186 C165 0.931 . S
H187 C169 0.931 . S
H188 C170 0.929 . S
H189 C171 0.930 . S
H190 C174 0.930 . S
H191 C175 0.931 . S
H192 C179 0.928 . S
H193 C178 0.929 . S
H194 C176 0.932 . S
C195 C196 1.388 . S
C195 C197 1.397 . S
C195 H219 0.931 . S
C196 C195 1.388 . S
C196 C200 1.396 1_655 S
C197 C195 1.397 . S
C197 C198 1.383 . S
C197 H220 0.930 . S
C198 C197 1.383 . S
C198 C199 1.378 1_655 S
C198 C201 1.479 . S
C199 C198 1.378 1_455 S
C199 C200 1.389 . S
C199 H221 0.929 . S
C200 C196 1.396 1_455 S
C200 C199 1.389 . S
C200 H222 0.931 . S
C201 C198 1.479 . S
C201 C202 1.385 . S
C201 C206 1.394 . S
C202 C201 1.385 . S
C202 C203 1.401 . S
C202 H223 0.930 . S
C203 C202 1.401 . S
C203 C204 1.373 . S
C203 C212 1.509 . S
C204 C203 1.373 . S
C204 C205 1.396 1_655 S
C204 H225 0.935 . S
C205 C204 1.396 1_455 S
C205 C206 1.361 1_455 S
C205 C207 1.506 1_554 S
C206 C201 1.394 . S
C206 C205 1.361 1_655 S
C206 H224 0.932 . S
C207 C205 1.506 1_556 S
C207 C208 1.355 1_455 S
C207 C209 1.376 . S
C208 C207 1.355 1_655 S
C208 C218 1.386 . S
C208 H226 0.931 . S
C209 C207 1.376 . S
C209 C210 1.409 . S
C209 H227 0.929 . S
C210 C209 1.409 . S
C210 C211 1.385 . S
C210 H228 0.930 . S
C211 C210 1.385 . S
C211 C218 1.354 1_455 S
C212 C203 1.509 . S
C212 C213 1.341 . S
C212 C214 1.371 1_655 S
C213 C212 1.341 . S
C213 C217 1.394 . S
C213 H229 0.930 . S
C214 C212 1.371 1_455 S
C214 C215 1.392 . S
C214 H230 0.931 . S
C215 C214 1.392 . S
C215 C216 1.329 1_455 S
C215 H233 0.932 . S
C216 C215 1.329 1_655 S
C216 C217 1.341 . S
C217 C213 1.394 . S
C217 C216 1.341 . S
C217 H232 0.929 . S
C218 C208 1.386 . S
C218 C211 1.354 1_655 S
C218 H231 0.928 . S
H219 C195 0.931 . S
H220 C197 0.930 . S
H221 C199 0.929 . S
H222 C200 0.931 . S
H223 C202 0.930 . S
H224 C206 0.932 . S
H225 C204 0.935 . S
H226 C208 0.931 . S
H227 C209 0.929 . S
H228 C210 0.930 . S
H229 C213 0.930 . S
H230 C214 0.931 . S
H231 C218 0.928 . S
H232 C217 0.929 . S
H233 C215 0.932 . S
C234 C235 1.390 . S
C234 C236 1.397 . S
C234 H258 0.931 . S
C235 C234 1.390 . S
C235 C239 1.394 1_565 S
C236 C234 1.397 . S
C236 C237 1.383 . S
C236 H259 0.930 . S
C237 C236 1.383 . S
C237 C238 1.378 1_565 S
C237 C240 1.480 . S
C238 C237 1.378 1_545 S
C238 C239 1.389 . S
C238 H260 0.929 . S
C239 C235 1.394 1_545 S
C239 C238 1.389 . S
C239 H261 0.931 . S
C240 C237 1.480 . S
C240 C241 1.391 . S
C240 C245 1.389 . S
C241 C240 1.391 . S
C241 C242 1.401 . S
C241 H262 0.930 . S
C242 C241 1.401 . S
C242 C243 1.377 . S
C242 C251 1.515 . S
C243 C242 1.377 . S
C243 C244 1.386 . S
C243 H264 0.935 . S
C244 C243 1.386 . S
C244 C245 1.361 . S
C244 C246 1.497 1_565 S
C245 C240 1.389 . S
C245 C244 1.361 . S
C245 H263 0.930 . S
C246 C244 1.497 1_545 S
C246 C247 1.356 1_544 S
C246 C248 1.384 . S
C247 C246 1.356 1_566 S
C247 C257 1.386 . S
C247 H265 0.931 1_556 S
C248 C246 1.384 . S
C248 C249 1.409 1_554 S
C248 H266 0.929 . S
C249 C248 1.409 1_556 S
C249 C250 1.385 . S
C249 H267 0.930 . S
C250 C249 1.385 . S
C250 C257 1.352 1_545 S
C251 C242 1.515 . S
C251 C252 1.341 . S
C251 C253 1.371 1_565 S
C252 C251 1.341 . S
C252 C256 1.394 . S
C252 H268 0.930 . S
C253 C251 1.371 1_545 S
C253 C254 1.392 . S
C253 H269 0.931 . S
C254 C253 1.392 . S
C254 C255 1.323 1_545 S
C254 H272 0.932 . S
C255 C254 1.323 1_565 S
C255 C256 1.342 . S
C256 C252 1.394 . S
C256 C255 1.342 . S
C256 H271 0.929 . S
C257 C247 1.386 . S
C257 C250 1.352 1_565 S
C257 H270 0.928 . S
H258 C234 0.931 . S
H259 C236 0.930 . S
H260 C238 0.929 . S
H261 C239 0.931 . S
H262 C241 0.930 . S
H263 C245 0.930 . S
H264 C243 0.935 . S
H265 C247 0.931 1_554 S
H266 C248 0.929 . S
H267 C249 0.930 . S
H268 C252 0.930 . S
H269 C253 0.931 . S
H270 C257 0.928 . S
H271 C256 0.929 . S
H272 C254 0.932 . S
C273 C274 1.386 . S
C273 C275 1.397 . S
C273 H297 0.931 . S
C274 C273 1.386 . S
C274 C278 1.397 . S
C275 C273 1.397 . S
C275 C276 1.384 . S
C275 H298 0.930 . S
C276 C275 1.384 . S
C276 C277 1.377 . S
C276 C279 1.481 . S
C277 C276 1.377 . S
C277 C278 1.389 . S
C277 H299 0.929 . S
C278 C274 1.397 . S
C278 C277 1.389 . S
C278 H300 0.931 . S
C279 C276 1.481 . S
C279 C280 1.387 . S
C279 C284 1.390 . S
C280 C279 1.387 . S
C280 C281 1.401 . S
C280 H301 0.930 . S
C281 C280 1.401 . S
C281 C282 1.376 . S
C281 C290 1.511 . S
C282 C281 1.376 . S
C282 C283 1.392 . S
C282 H303 0.931 . S
C283 C282 1.392 . S
C283 C284 1.361 . S
C283 C285 1.500 . S
C284 C279 1.390 . S
C284 C283 1.361 . S
C284 H302 0.931 . S
C285 C283 1.500 . S
C285 C286 1.371 . S
C285 C287 1.365 . S
C286 C285 1.371 . S
C286 C296 1.386 . S
C286 H304 0.931 . S
C287 C285 1.365 . S
C287 C288 1.409 . S
C287 H305 0.929 . S
C288 C287 1.409 . S
C288 C289 1.380 . S
C288 H306 0.930 . S
C289 C288 1.380 . S
C289 C296 1.357 . S
C290 C281 1.511 . S
C290 C291 1.341 . S
C290 C292 1.371 . S
C291 C290 1.341 . S
C291 C295 1.394 . S
C291 H307 0.930 . S
C292 C290 1.371 . S
C292 C293 1.392 . S
C292 H308 0.931 . S
C293 C292 1.392 . S
C293 C294 1.331 . S
C293 H311 0.932 . S
C294 C293 1.331 . S
C294 C295 1.336 . S
C295 C291 1.394 . S
C295 C294 1.336 . S
C295 H310 0.929 . S
C296 C286 1.386 . S
C296 C289 1.357 . S
C296 H309 0.928 . S
H297 C273 0.931 . S
H298 C275 0.930 . S
H299 C277 0.929 . S
H300 C278 0.931 . S
H301 C280 0.930 . S
H302 C284 0.931 . S
H303 C282 0.931 . S
H304 C286 0.931 . S
H305 C287 0.929 . S
H306 C288 0.930 . S
H307 C291 0.930 . S
H308 C292 0.931 . S
H309 C296 0.928 . S
H310 C295 0.929 . S
H311 C293 0.932 . S
Dy312 O315 2.307 1_545 S
Dy312 O317 2.395 1_655 S
Dy312 O318 2.379 . S
Dy312 O320 2.339 . S
Dy312 O322 2.298 . S
Dy312 O326 2.275 1_655 S
Dy312 C334 2.738 . S
Dy313 O316 2.298 . S
Dy313 O319 2.275 1_455 S
Dy313 O321 2.307 1_565 S
Dy313 O323 2.381 1_455 S
Dy313 O324 2.379 . S
Dy313 O327 2.339 . S
Dy313 C343 2.738 . S
C314 O326 1.254 1_565 S
C314 O327 1.257 . S
O315 Dy312 2.307 1_565 S
O315 C325 1.266 . S
O316 Dy313 2.298 . S
O316 C325 1.236 1_455 S
O317 Dy312 2.395 1_455 S
O317 C334 1.255 1_455 S
O318 Dy312 2.379 . S
O318 C334 1.249 . S
O319 Dy313 2.275 1_655 S
O319 C335 1.254 1_565 S
O320 Dy312 2.339 . S
O320 C335 1.257 . S
O321 Dy313 2.307 1_545 S
O321 C336 1.266 . S
O322 Dy312 2.298 . S
O322 C336 1.236 1_655 S
O323 Dy313 2.381 1_655 S
O323 C343 1.223 1_655 S
O324 Dy313 2.379 . S
O324 C343 1.249 . S
C325 O315 1.266 . S
C325 O316 1.236 1_655 S
O326 Dy312 2.275 1_455 S
O326 C314 1.254 1_545 S
O327 Dy313 2.339 . S
O327 C314 1.257 . S
C328 C331 1.344 . S
C328 C332 1.328 . S
C328 C334 1.516 . S
C329 C330 1.304 . S
C329 C333 1.323 . S
C330 C329 1.304 . S
C330 C331 1.371 . S
C330 H344 0.930 1_655 S
C331 C328 1.344 . S
C331 C330 1.371 . S
C331 H345 0.931 1_655 S
C332 C328 1.328 . S
C332 C333 1.433 . S
C332 H346 0.931 . S
C333 C329 1.323 . S
C333 C332 1.433 . S
C333 H347 0.933 . S
C334 Dy312 2.738 . S
C334 O317 1.255 1_655 S
C334 O318 1.249 . S
C334 C328 1.516 . S
C335 O319 1.254 1_545 S
C335 O320 1.257 . S
C336 O321 1.266 . S
C336 O322 1.236 1_455 S
C337 C340 1.344 1_556 S
C337 C341 1.328 1_556 S
C337 C343 1.516 . S
C338 C339 1.304 . S
C338 C342 1.323 . S
C339 C338 1.304 . S
C339 C340 1.371 . S
C339 H348 0.930 1_455 S
C340 C337 1.344 1_554 S
C340 C339 1.371 . S
C340 H349 0.931 1_455 S
C341 C337 1.328 1_554 S
C341 C342 1.433 . S
C341 H350 0.931 1_554 S
C342 C338 1.323 . S
C342 C341 1.433 . S
C342 H351 0.933 . S
C343 Dy313 2.738 . S
C343 O323 1.223 1_455 S
C343 O324 1.249 . S
C343 C337 1.516 . S
H344 C330 0.930 1_455 S
H345 C331 0.931 1_455 S
H346 C332 0.931 . S
H347 C333 0.933 . S
H348 C339 0.930 1_655 S
H349 C340 0.931 1_655 S
H350 C341 0.931 1_556 S
H351 C342 0.933 . S
Dy352 O355 2.307 . S
Dy352 O357 2.395 1_565 S
Dy352 O358 2.379 . S
Dy352 O360 2.339 . S
Dy352 O362 2.298 . S
Dy352 O366 2.275 1_565 S
Dy352 C374 2.738 . S
Dy353 O356 2.298 . S
Dy353 O359 2.275 1_545 S
Dy353 O361 2.307 . S
Dy353 O363 2.395 1_545 S
Dy353 O364 2.379 . S
Dy353 O367 2.339 . S
Dy353 C383 2.738 . S
C354 O366 1.254 . S
C354 O367 1.257 . S
O355 Dy352 2.307 . S
O355 C365 1.266 . S
O356 Dy353 2.298 . S
O356 C365 1.236 1_545 S
O357 Dy352 2.395 1_545 S
O357 C374 1.255 1_545 S
O358 Dy352 2.379 . S
O358 C374 1.249 . S
O359 Dy353 2.275 1_565 S
O359 C375 1.254 . S
O360 Dy352 2.339 . S
O360 C375 1.257 . S
O361 Dy353 2.307 . S
O361 C376 1.266 . S
O362 Dy352 2.298 . S
O362 C376 1.236 1_565 S
O363 Dy353 2.395 1_565 S
O363 C383 1.255 1_565 S
O364 Dy353 2.379 . S
O364 C383 1.249 . S
C365 O355 1.266 . S
C365 O356 1.236 1_565 S
O366 Dy352 2.275 1_545 S
O366 C354 1.254 . S
O367 Dy353 2.339 . S
O367 C354 1.257 . S
C368 C371 1.344 . S
C368 C372 1.328 . S
C368 C374 1.516 . S
C369 C370 1.304 . S
C369 C373 1.323 . S
C370 C369 1.304 . S
C370 C371 1.371 . S
C370 H384 0.930 1_565 S
C371 C368 1.344 . S
C371 C370 1.371 . S
C371 H385 0.931 1_565 S
C372 C368 1.328 . S
C372 C373 1.433 . S
C372 H386 0.931 . S
C373 C369 1.323 . S
C373 C372 1.433 . S
C373 H387 0.933 . S
C374 Dy352 2.738 . S
C374 O357 1.255 1_565 S
C374 O358 1.249 . S
C374 C368 1.516 . S
C375 O359 1.254 . S
C375 O360 1.257 . S
C376 O361 1.266 . S
C376 O362 1.236 1_545 S
C377 C380 1.344 . S
C377 C381 1.328 1_556 S
C377 C383 1.516 . S
C378 C379 1.304 . S
C378 C382 1.323 . S
C379 C378 1.304 . S
C379 C380 1.371 1_554 S
C379 H388 0.930 1_545 S
C380 C377 1.344 . S
C380 C379 1.371 1_556 S
C380 H389 0.931 1_545 S
C381 C377 1.328 1_554 S
C381 C382 1.433 . S
C381 H390 0.931 . S
C382 C378 1.323 . S
C382 C381 1.433 . S
C382 H391 0.933 . S
C383 Dy353 2.738 . S
C383 O363 1.255 1_545 S
C383 O364 1.249 . S
C383 C377 1.516 . S
H384 C370 0.930 1_545 S
H385 C371 0.931 1_545 S
H386 C372 0.931 . S
H387 C373 0.933 . S
H388 C379 0.930 1_565 S
H389 C380 0.931 1_565 S
H390 C381 0.931 . S
H391 C382 0.933 . S
Dy392 O395 2.307 . S
Dy392 O397 2.395 . S
Dy392 O398 2.379 . S
Dy392 O400 2.339 . S
Dy392 O402 2.298 . S
Dy392 O406 2.275 . S
Dy392 C414 2.738 . S
Dy393 O396 2.298 . S
Dy393 O399 2.275 . S
Dy393 O401 2.307 . S
Dy393 O403 2.395 . S
Dy393 O404 2.379 . S
Dy393 O407 2.339 . S
Dy393 C423 2.738 . S
C394 O406 1.254 . S
C394 O407 1.257 . S
O395 Dy392 2.307 . S
O395 C405 1.266 . S
O396 Dy393 2.298 . S
O396 C405 1.236 . S
O397 Dy392 2.395 . S
O397 C414 1.255 . S
O398 Dy392 2.379 . S
O398 C414 1.249 . S
O399 Dy393 2.275 . S
O399 C415 1.254 . S
O400 Dy392 2.339 . S
O400 C415 1.257 . S
O401 Dy393 2.307 . S
O401 C416 1.266 . S
O402 Dy392 2.298 . S
O402 C416 1.236 . S
O403 Dy393 2.395 . S
O403 C423 1.255 . S
O404 Dy393 2.379 . S
O404 C423 1.249 . S
C405 O395 1.266 . S
C405 O396 1.236 . S
O406 Dy392 2.275 . S
O406 C394 1.254 . S
O407 Dy393 2.339 . S
O407 C394 1.257 . S
C408 C411 1.344 1_556 S
C408 C412 1.328 . S
C408 C414 1.516 . S
C409 C410 1.304 . S
C409 C413 1.323 1_554 S
C410 C409 1.304 . S
C410 C411 1.371 . S
C410 H424 0.930 . S
C411 C408 1.344 1_554 S
C411 C410 1.371 . S
C411 H425 0.931 . S
C412 C408 1.328 . S
C412 C413 1.433 . S
C412 H426 0.931 . S
C413 C409 1.323 1_556 S
C413 C412 1.433 . S
C413 H427 0.933 . S
C414 Dy392 2.738 . S
C414 O397 1.255 . S
C414 O398 1.249 . S
C414 C408 1.516 . S
C415 O399 1.254 . S
C415 O400 1.257 . S
C416 O401 1.266 . S
C416 O402 1.236 . S
C417 C420 1.344 . S
C417 C421 1.328 . S
C417 C423 1.516 . S
C418 C419 1.304 . S
C418 C422 1.323 . S
C419 C418 1.304 . S
C419 C420 1.371 . S
C419 H428 0.930 . S
C420 C417 1.344 . S
C420 C419 1.371 . S
C420 H429 0.931 . S
C421 C417 1.328 . S
C421 C422 1.433 . S
C421 H430 0.931 . S
C422 C418 1.323 . S
C422 C421 1.433 . S
C422 H431 0.933 . S
C423 Dy393 2.738 . S
C423 O403 1.255 . S
C423 O404 1.249 . S
C423 C417 1.516 . S
H424 C410 0.930 . S
H425 C411 0.931 . S
H426 C412 0.931 . S
H427 C413 0.933 . S
H428 C419 0.930 . S
H429 C420 0.931 . S
H430 C421 0.931 . S
H431 C422 0.933 . S
Dy432 O435 2.307 1_455 S
Dy432 O437 2.395 . S
Dy432 O438 2.379 . S
Dy432 O440 2.339 . S
Dy432 O442 2.298 . S
Dy432 O446 2.275 . S
Dy432 C454 2.738 . S
Dy433 O436 2.298 . S
Dy433 O439 2.275 . S
Dy433 O441 2.307 1_655 S
Dy433 O443 2.395 . S
Dy433 O444 2.379 . S
Dy433 O447 2.339 . S
Dy433 C463 2.738 . S
C434 O446 1.254 1_655 S
C434 O447 1.257 . S
O435 Dy432 2.307 1_655 S
O435 C445 1.266 . S
O436 Dy433 2.298 . S
O436 C445 1.236 . S
O437 Dy432 2.395 . S
O437 C454 1.255 . S
O438 Dy432 2.379 . S
O438 C454 1.249 . S
O439 Dy433 2.275 . S
O439 C455 1.254 1_655 S
O440 Dy432 2.339 . S
O440 C455 1.257 . S
O441 Dy433 2.307 1_455 S
O441 C456 1.266 . S
O442 Dy432 2.298 . S
O442 C456 1.236 . S
O443 Dy433 2.395 . S
O443 C463 1.255 . S
O444 Dy433 2.379 . S
O444 C463 1.249 . S
C445 O435 1.266 . S
C445 O436 1.236 . S
O446 Dy432 2.275 . S
O446 C434 1.254 1_455 S
O447 Dy433 2.339 . S
O447 C434 1.257 . S
C448 C451 1.344 . S
C448 C452 1.328 . S
C448 C454 1.516 . S
C449 C450 1.304 . S
C449 C453 1.323 . S
C450 C449 1.304 . S
C450 C451 1.371 . S
C450 H464 0.930 . S
C451 C448 1.344 . S
C451 C450 1.371 . S
C451 H465 0.931 . S
C452 C448 1.328 . S
C452 C453 1.433 . S
C452 H466 0.931 . S
C453 C449 1.323 . S
C453 C452 1.433 . S
C453 H467 0.933 . S
C454 Dy432 2.738 . S
C454 O437 1.255 . S
C454 O438 1.249 . S
C454 C448 1.516 . S
C455 O439 1.254 1_455 S
C455 O440 1.257 . S
C456 O441 1.266 . S
C456 O442 1.236 . S
C457 C460 1.344 . S
C457 C461 1.328 . S
C457 C463 1.516 1_554 S
C458 C459 1.304 . S
C458 C462 1.323 . S
C459 C458 1.304 . S
C459 C460 1.371 . S
C459 H468 0.930 . S
C460 C457 1.344 . S
C460 C459 1.371 . S
C460 H469 0.931 . S
C461 C457 1.328 . S
C461 C462 1.433 . S
C461 H470 0.931 . S
C462 C458 1.323 . S
C462 C461 1.433 . S
C462 H471 0.933 . S
C463 Dy433 2.738 . S
C463 O443 1.255 . S
C463 O444 1.249 . S
C463 C457 1.516 1_556 S
H464 C450 0.930 . S
H465 C451 0.931 . S
H466 C452 0.931 . S
H467 C453 0.933 . S
H468 C459 0.930 . S
H469 C460 0.931 . S
H470 C461 0.931 . S
H471 C462 0.933 . S
C472 C473 1.371 . S
C472 C478 1.379 . S
C472 N480 1.356 . S
C473 C472 1.371 . S
C473 C479 1.354 1_545 S
C474 C475 1.344 1_565 S
C474 C479 1.379 . S
C474 N481 1.356 . S
C475 C474 1.344 1_545 S
C475 C478 1.385 . S
N476 C478 1.356 . S
N476 H488 0.984 . S
N476 H489 0.985 . S
N477 C479 1.356 . S
N477 H482 0.984 . S
N477 H483 0.985 . S
C478 C472 1.379 . S
C478 C475 1.385 . S
C478 N476 1.356 . S
C479 C473 1.354 1_565 S
C479 C474 1.379 . S
C479 N477 1.356 . S
N480 C472 1.356 . S
N480 H486 0.984 . S
N480 H487 0.984 . S
N481 C474 1.356 . S
N481 H484 0.984 . S
N481 H485 0.985 . S
H482 N477 0.984 . S
H483 N477 0.985 . S
H484 N481 0.984 . S
H485 N481 0.985 . S
H486 N480 0.984 . S
H487 N480 0.984 . S
H488 N476 0.984 . S
H489 N476 0.985 . S
C490 C491 1.363 . S
C490 C496 1.379 . S
C490 N498 1.356 . S
C491 C490 1.363 . S
C491 C497 1.363 . S
C492 C493 1.363 . S
C492 C497 1.379 . S
C492 N499 1.356 . S
C493 C492 1.363 . S
C493 C496 1.363 . S
N494 C496 1.356 . S
N494 H506 0.984 . S
N494 H507 0.985 . S
N495 C497 1.356 . S
N495 H500 0.984 . S
N495 H501 0.985 . S
C496 C490 1.379 . S
C496 C493 1.363 . S
C496 N494 1.356 . S
C497 C491 1.363 . S
C497 C492 1.379 . S
C497 N495 1.356 . S
N498 C490 1.356 . S
N498 H504 0.984 . S
N498 H505 0.984 . S
N499 C492 1.356 . S
N499 H502 0.984 . S
N499 H503 0.985 . S
H500 N495 0.984 . S
H501 N495 0.985 . S
H502 N499 0.984 . S
H503 N499 0.985 . S
H504 N498 0.984 . S
H505 N498 0.984 . S
H506 N494 0.984 . S
H507 N494 0.985 . S
C508 C509 1.363 . S
C508 C514 1.379 . S
C508 N516 1.356 . S
C509 C508 1.363 . S
C509 C515 1.363 . S
C510 C511 1.363 . S
C510 C515 1.379 . S
C510 N517 1.356 . S
C511 C510 1.363 . S
C511 C514 1.363 . S
N512 C514 1.356 . S
N512 H524 0.984 . S
N512 H525 0.985 . S
N513 C515 1.356 . S
N513 H518 0.984 . S
N513 H519 0.985 . S
C514 C508 1.379 . S
C514 C511 1.363 . S
C514 N512 1.356 . S
C515 C509 1.363 . S
C515 C510 1.379 . S
C515 N513 1.356 . S
N516 C508 1.356 . S
N516 H522 0.984 . S
N516 H523 0.984 . S
N517 C510 1.356 . S
N517 H520 0.984 . S
N517 H521 0.985 . S
H518 N513 0.984 . S
H519 N513 0.985 . S
H520 N517 0.984 . S
H521 N517 0.985 . S
H522 N516 0.984 . S
H523 N516 0.984 . S
H524 N512 0.984 . S
H525 N512 0.985 . S
C526 C527 1.346 1_655 S
C526 C532 1.379 . S
C526 N534 1.356 . S
C527 C526 1.346 1_455 S
C527 C533 1.387 . S
C528 C529 1.363 . S
C528 C533 1.379 . S
C528 N535 1.356 . S
C529 C528 1.363 . S
C529 C532 1.363 1_455 S
N530 C532 1.356 . S
N530 H542 0.984 . S
N530 H543 0.985 . S
N531 C533 1.356 . S
N531 H536 0.984 . S
N531 H537 0.985 . S
C532 C526 1.379 . S
C532 C529 1.363 1_655 S
C532 N530 1.356 . S
C533 C527 1.387 . S
C533 C528 1.379 . S
C533 N531 1.356 . S
N534 C526 1.356 . S
N534 H540 0.984 . S
N534 H541 0.984 . S
N535 C528 1.356 . S
N535 H538 0.984 . S
N535 H539 0.985 . S
H536 N531 0.984 . S
H537 N531 0.985 . S
H538 N535 0.984 . S
H539 N535 0.985 . S
H540 N534 0.984 . S
H541 N534 0.984 . S
H542 N530 0.984 . S
H543 N530 0.985 . S
C544 C545 1.361 1_545 S
C544 C550 1.379 . S
C544 N552 1.356 . S
C545 C544 1.361 1_565 S
C545 C551 1.365 . S
C546 C547 1.378 1_554 S
C546 C551 1.379 . S
C546 N553 1.356 1_554 S
C547 C546 1.378 1_556 S
C547 C550 1.350 1_566 S
N548 C550 1.356 1_556 S
N548 H560 0.984 . S
N548 H561 0.985 . S
N549 C551 1.356 . S
N549 H554 0.984 . S
N549 H555 0.985 . S
C550 C544 1.379 . S
C550 C547 1.350 1_544 S
C550 N548 1.356 1_554 S
C551 C545 1.365 . S
C551 C546 1.379 . S
C551 N549 1.356 . S
N552 C544 1.356 . S
N552 H558 0.984 . S
N552 H559 0.984 . S
N553 C546 1.356 1_556 S
N553 H556 0.984 . S
N553 H557 0.985 1_556 S
H554 N549 0.984 . S
H555 N549 0.985 . S
H556 N553 0.984 . S
H557 N553 0.985 1_554 S
H558 N552 0.984 . S
H559 N552 0.984 . S
H560 N548 0.984 . S
H561 N548 0.985 . S
C562 C563 1.363 . S
C562 C568 1.379 1_554 S
C562 N570 1.356 . S
C563 C562 1.363 . S
C563 C569 1.363 1_554 S
C564 C565 1.363 . S
C564 C569 1.379 . S
C564 N571 1.356 . S
C565 C564 1.363 . S
C565 C568 1.363 . S
N566 C568 1.356 . S
N566 H578 0.984 1_556 S
N566 H579 0.985 . S
N567 C569 1.356 . S
N567 H572 0.984 1_556 S
N567 H573 0.985 . S
C568 C562 1.379 1_556 S
C568 C565 1.363 . S
C568 N566 1.356 . S
C569 C563 1.363 1_556 S
C569 C564 1.379 . S
C569 N567 1.356 . S
N570 C562 1.356 . S
N570 H576 0.984 . S
N570 H577 0.984 . S
N571 C564 1.356 . S
N571 H574 0.984 . S
N571 H575 0.985 . S
H572 N567 0.984 1_554 S
H573 N567 0.985 . S
H574 N571 0.984 . S
H575 N571 0.985 . S
H576 N570 0.984 . S
H577 N570 0.984 . S
H578 N566 0.984 1_554 S
H579 N566 0.985 . S
C580 C581 1.363 . S
C580 C586 1.379 . S
C580 N588 1.356 . S
C581 C580 1.363 . S
C581 C587 1.363 . S
C582 C583 1.363 . S
C582 C587 1.379 . S
C582 N589 1.356 . S
C583 C582 1.363 . S
C583 C586 1.363 . S
N584 C586 1.356 . S
N584 H596 0.984 . S
N584 H597 0.985 . S
N585 C587 1.356 . S
N585 H590 0.984 . S
N585 H591 0.985 . S
C586 C580 1.379 . S
C586 C583 1.363 . S
C586 N584 1.356 . S
C587 C581 1.363 . S
C587 C582 1.379 . S
C587 N585 1.356 . S
N588 C580 1.356 . S
N588 H594 0.984 . S
N588 H595 0.984 . S
N589 C582 1.356 . S
N589 H592 0.984 . S
N589 H593 0.985 . S
H590 N585 0.984 . S
H591 N585 0.985 . S
H592 N589 0.984 . S
H593 N589 0.985 . S
H594 N588 0.984 . S
H595 N588 0.984 . S
H596 N584 0.984 . S
H597 N584 0.985 . S
C598 C599 1.355 1_455 S
C598 C604 1.379 . S
C598 N606 1.356 . S
C599 C598 1.355 1_655 S
C599 C605 1.378 . S
C600 C601 1.363 . S
C600 C605 1.379 . S
C600 N607 1.356 . S
C601 C600 1.363 . S
C601 C604 1.363 1_655 S
N602 C604 1.357 1_556 S
N602 H614 0.985 1_556 S
N602 H615 0.983 . S
N603 C605 1.356 . S
N603 H608 0.984 . S
N603 H609 0.985 . S
C604 C598 1.379 . S
C604 C601 1.363 1_455 S
C604 N602 1.357 1_554 S
C605 C599 1.378 . S
C605 C600 1.379 . S
C605 N603 1.356 . S
N606 C598 1.356 . S
N606 H612 0.984 . S
N606 H613 0.984 . S
N607 C600 1.356 . S
N607 H610 0.984 1_554 S
N607 H611 0.985 . S
H608 N603 0.984 . S
H609 N603 0.985 . S
H610 N607 0.984 1_556 S
H611 N607 0.985 . S
H612 N606 0.984 . S
H613 N606 0.984 . S
H614 N602 0.985 1_554 S
H615 N602 0.983 . S
C616 C617 1.363 . S
C616 C622 1.379 1_455 S
C616 N624 1.356 . S
C617 C616 1.363 . S
C617 C623 1.363 1_455 S
C618 C619 1.363 . S
C618 C623 1.379 . S
C618 N625 1.356 . S
C619 C618 1.363 . S
C619 C622 1.363 . S
N620 C622 1.356 . S
N620 H632 0.984 1_655 S
N620 H633 0.985 . S
N621 C623 1.356 . S
N621 H626 0.984 . S
N621 H627 0.985 . S
C622 C616 1.379 1_655 S
C622 C619 1.363 . S
C622 N620 1.356 . S
C623 C617 1.363 1_655 S
C623 C618 1.379 . S
C623 N621 1.356 . S
N624 C616 1.356 . S
N624 H630 0.984 . S
N624 H631 0.984 . S
N625 C618 1.356 . S
N625 H628 0.984 . S
N625 H629 0.985 . S
H626 N621 0.984 . S
H627 N621 0.985 . S
H628 N625 0.984 . S
H629 N625 0.985 . S
H630 N624 0.984 . S
H631 N624 0.984 . S
H632 N620 0.984 1_455 S
H633 N620 0.985 . S
C634 C635 1.363 1_545 S
C634 C640 1.379 1_545 S
C634 N642 1.356 . S
C635 C634 1.363 1_565 S
C635 C641 1.363 . S
C636 C637 1.363 . S
C636 C641 1.379 . S
C636 N643 1.356 . S
C637 C636 1.363 . S
C637 C640 1.363 . S
N638 C640 1.356 . S
N638 H650 0.984 1_565 S
N638 H651 0.985 . S
N639 C641 1.356 . S
N639 H644 0.984 . S
N639 H645 0.985 . S
C640 C634 1.379 1_565 S
C640 C637 1.363 . S
C640 N638 1.356 . S
C641 C635 1.363 . S
C641 C636 1.379 . S
C641 N639 1.356 . S
N642 C634 1.356 . S
N642 H648 0.984 . S
N642 H649 0.984 . S
N643 C636 1.356 . S
N643 H646 0.984 . S
N643 H647 0.985 . S
H644 N639 0.984 . S
H645 N639 0.985 . S
H646 N643 0.984 . S
H647 N643 0.985 . S
H648 N642 0.984 . S
H649 N642 0.984 . S
H650 N638 0.984 1_545 S
H651 N638 0.985 . S
C652 C653 1.363 . S
C652 C658 1.379 . S
C652 N660 1.356 . S
C653 C652 1.363 . S
C653 C659 1.363 . S
C654 C655 1.363 . S
C654 C659 1.379 . S
C654 N661 1.356 . S
C655 C654 1.363 . S
C655 C658 1.363 . S
N656 C658 1.356 . S
N656 H668 0.984 . S
N656 H669 0.985 . S
N657 C659 1.356 . S
N657 H662 0.984 . S
N657 H663 0.985 . S
C658 C652 1.379 . S
C658 C655 1.363 . S
C658 N656 1.356 . S
C659 C653 1.363 . S
C659 C654 1.379 . S
C659 N657 1.356 . S
N660 C652 1.356 . S
N660 H666 0.984 . S
N660 H667 0.984 . S
N661 C654 1.356 . S
N661 H664 0.984 . S
N661 H665 0.985 . S
H662 N657 0.984 . S
H663 N657 0.985 . S
H664 N661 0.984 . S
H665 N661 0.985 . S
H666 N660 0.984 . S
H667 N660 0.984 . S
H668 N656 0.984 . S
H669 N656 0.985 . S
C670 C671 1.363 . S
C670 C676 1.379 . S
C670 N678 1.356 . S
C671 C670 1.363 . S
C671 C677 1.363 . S
C672 C673 1.363 . S
C672 C677 1.379 . S
C672 N679 1.356 . S
C673 C672 1.363 . S
C673 C676 1.363 . S
N674 C676 1.356 . S
N674 H686 0.984 . S
N674 H687 0.985 . S
N675 C677 1.356 . S
N675 H680 0.984 . S
N675 H681 0.985 . S
C676 C670 1.379 . S
C676 C673 1.363 . S
C676 N674 1.356 . S
C677 C671 1.363 . S
C677 C672 1.379 . S
C677 N675 1.356 . S
N678 C670 1.356 . S
N678 H684 0.984 . S
N678 H685 0.984 . S
N679 C672 1.356 . S
N679 H682 0.984 . S
N679 H683 0.985 . S
H680 N675 0.984 . S
H681 N675 0.985 . S
H682 N679 0.984 . S
H683 N679 0.985 . S
H684 N678 0.984 . S
H685 N678 0.984 . S
H686 N674 0.984 . S
H687 N674 0.985 . S
C688 C689 1.363 1_455 S
C688 C694 1.379 . S
C688 N696 1.356 . S
C689 C688 1.363 1_655 S
C689 C695 1.367 . S
C690 C691 1.363 . S
C690 C695 1.370 1_455 S
C690 N697 1.356 . S
C691 C690 1.363 . S
C691 C694 1.363 . S
N692 C694 1.356 1_556 S
N692 H704 0.984 . S
N692 H705 0.985 . S
N693 C695 1.364 . S
N693 H698 0.984 . S
N693 H699 0.985 . S
C694 C688 1.379 . S
C694 C691 1.363 . S
C694 N692 1.356 1_554 S
C695 C689 1.367 . S
C695 C690 1.370 1_655 S
C695 N693 1.364 . S
N696 C688 1.356 . S
N696 H702 0.984 . S
N696 H703 0.984 1_455 S
N697 C690 1.356 . S
N697 H700 0.984 . S
N697 H701 0.985 . S
H698 N693 0.984 . S
H699 N693 0.985 . S
H700 N697 0.984 . S
H701 N697 0.985 . S
H702 N696 0.984 . S
H703 N696 0.984 1_655 S
H704 N692 0.984 . S
H705 N692 0.985 . S
C706 C707 1.365 . S
C706 C712 1.384 . S
C706 N714 1.349 1_545 S
C707 C706 1.365 . S
C707 C713 1.363 . S
C708 C709 1.363 . S
C708 C713 1.379 . S
C708 N715 1.356 1_554 S
C709 C708 1.363 . S
C709 C712 1.363 . S
N710 C712 1.356 . S
N710 H722 0.984 . S
N710 H723 0.985 . S
N711 C713 1.356 1_556 S
N711 H716 0.984 1_556 S
N711 H717 0.985 . S
C712 C706 1.384 . S
C712 C709 1.363 . S
C712 N710 1.356 . S
C713 C707 1.363 . S
C713 C708 1.379 . S
C713 N711 1.356 1_554 S
N714 C706 1.349 1_565 S
N714 H720 0.984 . S
N714 H721 0.984 . S
N715 C708 1.356 1_556 S
N715 H718 0.984 . S
N715 H719 0.985 . S
H716 N711 0.984 1_554 S
H717 N711 0.985 . S
H718 N715 0.984 . S
H719 N715 0.985 . S
H720 N714 0.984 . S
H721 N714 0.984 . S
H722 N710 0.984 . S
H723 N710 0.985 . S
C724 C725 1.363 . S
C724 C730 1.379 . S
C724 N732 1.356 1_556 S
C725 C724 1.363 . S
C725 C731 1.363 . S
C726 C727 1.363 . S
C726 C731 1.379 . S
C726 N733 1.356 . S
C727 C726 1.363 . S
C727 C730 1.363 . S
N728 C730 1.356 1_554 S
N728 H740 0.984 . S
N728 H741 0.985 . S
N729 C731 1.356 . S
N729 H734 0.984 . S
N729 H735 0.985 . S
C730 C724 1.379 . S
C730 C727 1.363 . S
C730 N728 1.356 1_556 S
C731 C725 1.363 . S
C731 C726 1.379 . S
C731 N729 1.356 . S
N732 C724 1.356 1_554 S
N732 H738 0.984 . S
N732 H739 0.984 1_554 S
N733 C726 1.356 . S
N733 H736 0.984 . S
N733 H737 0.985 . S
H734 N729 0.984 . S
H735 N729 0.985 . S
H736 N733 0.984 . S
H737 N733 0.985 . S
H738 N732 0.984 . S
H739 N732 0.984 1_556 S
H740 N728 0.984 . S
H741 N728 0.985 . S
C742 C743 1.363 . S
C742 C748 1.379 . S
C742 N750 1.356 . S
C743 C742 1.363 . S
C743 C749 1.363 . S
C744 C745 1.363 . S
C744 C749 1.379 . S
C744 N751 1.356 . S
C745 C744 1.363 . S
C745 C748 1.363 . S
N746 C748 1.356 . S
N746 H758 0.984 . S
N746 H759 0.985 . S
N747 C749 1.356 . S
N747 H752 0.984 . S
N747 H753 0.985 . S
C748 C742 1.379 . S
C748 C745 1.363 . S
C748 N746 1.356 . S
C749 C743 1.363 . S
C749 C744 1.379 . S
C749 N747 1.356 . S
N750 C742 1.356 . S
N750 H756 0.984 . S
N750 H757 0.984 . S
N751 C744 1.356 . S
N751 H754 0.984 . S
N751 H755 0.985 . S
H752 N747 0.984 . S
H753 N747 0.985 . S
H754 N751 0.984 . S
H755 N751 0.985 . S
H756 N750 0.984 . S
H757 N750 0.984 . S
H758 N746 0.984 . S
H759 N746 0.985 . S
C760 C761 1.363 1_655 S
C760 C766 1.379 . S
C760 N768 1.356 . S
C761 C760 1.363 1_455 S
C761 C767 1.363 . S
C762 C763 1.363 . S
C762 C767 1.379 . S
C762 N769 1.356 . S
C763 C762 1.363 . S
C763 C766 1.359 1_455 S
N764 C766 1.360 . S
N764 H776 0.984 . S
N764 H777 0.985 . S
N765 C767 1.356 . S
N765 H770 0.984 . S
N765 H771 0.985 . S
C766 C760 1.379 . S
C766 C763 1.359 1_655 S
C766 N764 1.360 . S
C767 C761 1.363 . S
C767 C762 1.379 . S
C767 N765 1.356 . S
N768 C760 1.356 . S
N768 H774 0.984 . S
N768 H775 0.984 . S
N769 C762 1.356 . S
N769 H772 0.984 . S
N769 H773 0.985 . S
H770 N765 0.984 . S
H771 N765 0.985 . S
H772 N769 0.984 . S
H773 N769 0.985 . S
H774 N768 0.984 . S
H775 N768 0.984 . S
H776 N764 0.984 . S
H777 N764 0.985 . S
C778 C779 1.363 1_565 S
C778 C784 1.379 . S
C778 N786 1.356 . S
C779 C778 1.363 1_545 S
C779 C785 1.363 . S
C780 C781 1.363 . S
C780 C785 1.379 . S
C780 N787 1.356 . S
C781 C780 1.363 . S
C781 C784 1.363 1_545 S
N782 C784 1.356 . S
N782 H794 0.984 1_556 S
N782 H795 0.985 . S
N783 C785 1.356 . S
N783 H788 0.984 . S
N783 H789 0.985 . S
C784 C778 1.379 . S
C784 C781 1.363 1_565 S
C784 N782 1.356 . S
C785 C779 1.363 . S
C785 C780 1.379 . S
C785 N783 1.356 . S
N786 C778 1.356 . S
N786 H792 0.984 1_556 S
N786 H793 0.984 . S
N787 C780 1.356 . S
N787 H790 0.984 . S
N787 H791 0.985 . S
H788 N783 0.984 . S
H789 N783 0.985 . S
H790 N787 0.984 . S
H791 N787 0.985 . S
H792 N786 0.984 1_554 S
H793 N786 0.984 . S
H794 N782 0.984 1_554 S
H795 N782 0.985 . S
C796 C797 1.363 1_556 S
C796 C802 1.379 . S
C796 N804 1.356 . S
C797 C796 1.363 1_554 S
C797 C803 1.363 . S
C798 C799 1.363 1_554 S
C798 C803 1.379 . S
C798 N805 1.356 . S
C799 C798 1.363 1_556 S
C799 C802 1.363 . S
N800 C802 1.356 . S
N800 H812 0.984 . S
N800 H813 0.985 . S
N801 C803 1.356 . S
N801 H806 0.984 . S
N801 H807 0.985 . S
C802 C796 1.379 . S
C802 C799 1.363 . S
C802 N800 1.356 . S
C803 C797 1.363 . S
C803 C798 1.379 . S
C803 N801 1.356 . S
N804 C796 1.356 . S
N804 H810 0.984 . S
N804 H811 0.984 . S
N805 C798 1.356 . S
N805 H808 0.984 . S
N805 H809 0.985 . S
H806 N801 0.984 . S
H807 N801 0.985 . S
H808 N805 0.984 . S
H809 N805 0.985 . S
H810 N804 0.984 . S
H811 N804 0.984 . S
H812 N800 0.984 . S
H813 N800 0.985 . S
C814 C815 1.363 . S
C814 C820 1.379 . S
C814 N822 1.356 . S
C815 C814 1.363 . S
C815 C821 1.363 . S
C816 C817 1.363 . S
C816 C821 1.379 . S
C816 N823 1.356 . S
C817 C816 1.363 . S
C817 C820 1.363 . S
N818 C820 1.356 . S
N818 H830 0.984 . S
N818 H831 0.985 . S
N819 C821 1.356 . S
N819 H824 0.984 . S
N819 H825 0.985 . S
C820 C814 1.379 . S
C820 C817 1.363 . S
C820 N818 1.356 . S
C821 C815 1.363 . S
C821 C816 1.379 . S
C821 N819 1.356 . S
N822 C814 1.356 . S
N822 H828 0.984 . S
N822 H829 0.984 . S
N823 C816 1.356 . S
N823 H826 0.984 . S
N823 H827 0.985 . S
H824 N819 0.984 . S
H825 N819 0.985 . S
H826 N823 0.984 . S
H827 N823 0.985 . S
H828 N822 0.984 . S
H829 N822 0.984 . S
H830 N818 0.984 . S
H831 N818 0.985 . S
C832 C833 1.363 1_455 S
C832 C838 1.379 . S
C832 N840 1.356 . S
C833 C832 1.363 1_655 S
C833 C839 1.363 . S
C834 C835 1.363 . S
C834 C839 1.379 . S
C834 N841 1.356 . S
C835 C834 1.363 . S
C835 C838 1.363 1_655 S
N836 C838 1.356 . S
N836 H848 0.984 . S
N836 H849 0.985 . S
N837 C839 1.356 . S
N837 H842 0.984 . S
N837 H843 0.985 . S
C838 C832 1.379 . S
C838 C835 1.363 1_455 S
C838 N836 1.356 . S
C839 C833 1.363 . S
C839 C834 1.379 . S
C839 N837 1.356 . S
N840 C832 1.356 . S
N840 H846 0.984 . S
N840 H847 0.984 . S
N841 C834 1.356 . S
N841 H844 0.984 . S
N841 H845 0.985 . S
H842 N837 0.984 . S
H843 N837 0.985 . S
H844 N841 0.984 . S
H845 N841 0.985 . S
H846 N840 0.984 . S
H847 N840 0.984 . S
H848 N836 0.984 . S
H849 N836 0.985 . S
C850 C851 1.363 1_545 S
C850 C856 1.379 . S
C850 N858 1.356 . S
C851 C850 1.363 1_565 S
C851 C857 1.363 . S
C852 C853 1.363 . S
C852 C857 1.379 . S
C852 N859 1.356 . S
C853 C852 1.363 . S
C853 C856 1.363 1_565 S
N854 C856 1.356 . S
N854 H866 0.984 . S
N854 H867 0.985 . S
N855 C857 1.356 . S
N855 H860 0.984 . S
N855 H861 0.985 . S
C856 C850 1.379 . S
C856 C853 1.363 1_545 S
C856 N854 1.356 . S
C857 C851 1.363 . S
C857 C852 1.379 . S
C857 N855 1.356 . S
N858 C850 1.356 . S
N858 H864 0.984 . S
N858 H865 0.984 . S
N859 C852 1.356 . S
N859 H862 0.984 . S
N859 H863 0.985 . S
H860 N855 0.984 . S
H861 N855 0.985 . S
H862 N859 0.984 . S
H863 N859 0.985 . S
H864 N858 0.984 . S
H865 N858 0.984 . S
H866 N854 0.984 . S
H867 N854 0.985 . S
C868 C869 1.363 . S
C868 C874 1.379 . S
C868 N876 1.356 . S
C869 C868 1.363 . S
C869 C875 1.363 . S
C870 C871 1.363 . S
C870 C875 1.379 . S
C870 N877 1.356 . S
C871 C870 1.363 . S
C871 C874 1.363 . S
N872 C874 1.356 . S
N872 H884 0.984 . S
N872 H885 0.985 . S
N873 C875 1.356 . S
N873 H878 0.984 . S
N873 H879 0.985 . S
C874 C868 1.379 . S
C874 C871 1.363 . S
C874 N872 1.356 . S
C875 C869 1.363 . S
C875 C870 1.379 . S
C875 N873 1.356 . S
N876 C868 1.356 . S
N876 H882 0.984 . S
N876 H883 0.984 . S
N877 C870 1.356 . S
N877 H880 0.984 . S
N877 H881 0.985 . S
H878 N873 0.984 . S
H879 N873 0.985 . S
H880 N877 0.984 . S
H881 N877 0.985 . S
H882 N876 0.984 . S
H883 N876 0.984 . S
H884 N872 0.984 . S
H885 N872 0.985 . S
C886 C887 1.363 . S
C886 C892 1.379 . S
C886 N894 1.356 . S
C887 C886 1.363 . S
C887 C893 1.363 . S
C888 C889 1.363 . S
C888 C893 1.379 . S
C888 N895 1.356 . S
C889 C888 1.363 . S
C889 C892 1.363 . S
N890 C892 1.356 . S
N890 H902 0.984 . S
N890 H903 0.985 . S
N891 C893 1.356 . S
N891 H896 0.984 . S
N891 H897 0.985 . S
C892 C886 1.379 . S
C892 C889 1.363 . S
C892 N890 1.356 . S
C893 C887 1.363 . S
C893 C888 1.379 . S
C893 N891 1.356 . S
N894 C886 1.356 . S
N894 H900 0.984 . S
N894 H901 0.984 . S
N895 C888 1.356 . S
N895 H898 0.984 . S
N895 H899 0.985 . S
H896 N891 0.984 . S
H897 N891 0.985 . S
H898 N895 0.984 . S
H899 N895 0.985 . S
H900 N894 0.984 . S
H901 N894 0.984 . S
H902 N890 0.984 . S
H903 N890 0.985 . S
C473 C255 2.337 1_545 S
C475 C314 2.494 1_545 S
C493 C354 2.299 . S
C491 C294 2.166 . S
C511 C418 2.889 . S
C509 C177 2.763 . S
C529 C434 2.778 1_455 S
C527 C216 2.425 1_455 S
C547 C335 2.498 1_565 S
C545 C99 2.334 . S
C563 C138 2.157 . S
C565 C375 2.302 . S
C581 C21 2.777 . S
C583 C409 2.890 . S
C599 C60 2.435 . S
C601 C455 2.777 1_654 S
C619 C329 0.667 . S
C617 C196 0.630 1_455 S
C637 C369 0.850 . S
C635 C235 0.857 . S
C655 C405 0.865 . S
C653 C289 0.881 . S
C671 C157 1.092 . S
C673 C449 1.000 . S
C689 C40 0.632 . S
C691 C338 0.665 . S
C709 C378 0.850 . S
C707 C79 0.859 1_545 S
C727 C416 0.865 . S
C725 C133 0.884 . S
C743 C1 1.106 . S
C745 C458 1.006 . S
C761 C211 2.888 . S
C763 C336 3.353 . S
C779 C250 2.780 . S
C781 C376 3.190 . S
C799 C394 2.229 . S
C797 C274 2.152 . S
C817 C456 3.821 . S
C815 C172 3.288 . S
C833 C55 2.889 1_655 S
C835 C325 3.363 . S
C853 C365 3.190 . S
C851 C94 2.778 1_565 S
C871 C415 2.229 . S
C869 C118 2.147 . S
C887 C16 3.292 . S
C889 C445 3.826 . S
