# Generated by pormake.
# Topology ssa, (4,4)-cn, num edge types: 1
# Building blocks:
#     Node 0, Type 0, BuildingBlock: NAWXER_clean_sbu_0, # of connection points: 4
#     Node 1, Type 0, BuildingBlock: NAWXER_clean_sbu_0, # of connection points: 4
#     Node 2, Type 0, BuildingBlock: NAWXER_clean_sbu_0, # of connection points: 4
#     Node 3, Type 0, BuildingBlock: NAWXER_clean_sbu_0, # of connection points: 4
#     Node 4, Type 0, BuildingBlock: NAWXER_clean_sbu_0, # of connection points: 4
#     Node 5, Type 0, BuildingBlock: NAWXER_clean_sbu_0, # of connection points: 4
#     Node 6, Type 1, BuildingBlock: MIFKUJ_clean_linker_1, # of connection points: 4
#     Node 7, Type 1, BuildingBlock: MIFKUJ_clean_linker_1, # of connection points: 4
#     Node 8, Type 1, BuildingBlock: MIFKUJ_clean_linker_1, # of connection points: 4
#     Node 9, Type 1, BuildingBlock: MIFKUJ_clean_linker_1, # of connection points: 4
#     Node 10, Type 1, BuildingBlock: MIFKUJ_clean_linker_1, # of connection points: 4
#     Node 11, Type 1, BuildingBlock: MIFKUJ_clean_linker_1, # of connection points: 4
#     Edge 12, Type (0, 1), BuildingBlock: OJICUG_clean_linker_0, # of connection points: 2
#     Edge 13, Type (0, 1), BuildingBlock: OJICUG_clean_linker_0, # of connection points: 2
#     Edge 14, Type (0, 1), BuildingBlock: OJICUG_clean_linker_0, # of connection points: 2
#     Edge 15, Type (0, 1), BuildingBlock: OJICUG_clean_linker_0, # of connection points: 2
#     Edge 16, Type (0, 1), BuildingBlock: OJICUG_clean_linker_0, # of connection points: 2
#     Edge 17, Type (0, 1), BuildingBlock: OJICUG_clean_linker_0, # of connection points: 2
#     Edge 18, Type (0, 1), BuildingBlock: OJICUG_clean_linker_0, # of connection points: 2
#     Edge 19, Type (0, 1), BuildingBlock: OJICUG_clean_linker_0, # of connection points: 2
#     Edge 20, Type (0, 1), BuildingBlock: OJICUG_clean_linker_0, # of connection points: 2
#     Edge 21, Type (0, 1), BuildingBlock: OJICUG_clean_linker_0, # of connection points: 2
#     Edge 22, Type (0, 1), BuildingBlock: OJICUG_clean_linker_0, # of connection points: 2
#     Edge 23, Type (0, 1), BuildingBlock: OJICUG_clean_linker_0, # of connection points: 2
#     Edge 24, Type (0, 1), BuildingBlock: OJICUG_clean_linker_0, # of connection points: 2
#     Edge 25, Type (0, 1), BuildingBlock: OJICUG_clean_linker_0, # of connection points: 2
#     Edge 26, Type (0, 1), BuildingBlock: OJICUG_clean_linker_0, # of connection points: 2
#     Edge 27, Type (0, 1), BuildingBlock: OJICUG_clean_linker_0, # of connection points: 2
#     Edge 28, Type (0, 1), BuildingBlock: OJICUG_clean_linker_0, # of connection points: 2
#     Edge 29, Type (0, 1), BuildingBlock: OJICUG_clean_linker_0, # of connection points: 2
#     Edge 30, Type (0, 1), BuildingBlock: OJICUG_clean_linker_0, # of connection points: 2
#     Edge 31, Type (0, 1), BuildingBlock: OJICUG_clean_linker_0, # of connection points: 2
#     Edge 32, Type (0, 1), BuildingBlock: OJICUG_clean_linker_0, # of connection points: 2
#     Edge 33, Type (0, 1), BuildingBlock: OJICUG_clean_linker_0, # of connection points: 2
#     Edge 34, Type (0, 1), BuildingBlock: OJICUG_clean_linker_0, # of connection points: 2
#     Edge 35, Type (0, 1), BuildingBlock: OJICUG_clean_linker_0, # of connection points: 2
# Relax obj value: 0.011
# Max RMSD: 0.026
# Mean RMSD: 0.026
data_MOF--net-ssa--node1-NAWXER_clean_sbu_0--node2-MIFKUJ_clean_linker_1--edge1-OJICUG_clean_linker_0
_symmetry_space_group_name_H-M    P1
_symmetry_Int_Tables_number       1
_symmetry_cell_setting            triclinic
loop_
_symmetry_equiv_pos_as_xyz
'x, y, z'
_cell_length_a     45.926306
_cell_length_b     45.998758
_cell_length_c     28.895723
_cell_angle_alpha  89.987126
_cell_angle_beta   89.947012
_cell_angle_gamma 119.99307
loop_
_atom_site_label
_atom_site_type_symbol
_atom_site_fract_x
_atom_site_fract_y
_atom_site_fract_z
_atom_type_partial_charge
C0 C 0.05418 0.54756 0.99066 0.0
C1 C 0.98125 0.439 0.918 0.0
O2 O 0.02724 0.52891 0.01343 0.0
Zn3 Zn 0.98491 0.47963 0.01074 0.0
O4 O 0.06075 0.53641 0.95419 0.0
Zn5 Zn 0.0201 0.49249 0.95478 0.0
O6 O 0.98101 0.50487 0.94536 0.0
O7 O 0.94892 0.49007 0.00793 0.0
O8 O 0.01063 0.46072 0.90468 0.0
O9 O 0.96966 0.44322 0.95626 0.0
O10 O 0.99128 0.45869 0.06571 0.0
O11 O 0.02946 0.46948 0.01197 0.0
C12 C 0.95572 0.50271 0.96741 0.0
C13 C 0.01738 0.4582 0.05217 0.0
C14 C 0.43936 0.01869 0.57534 0.0
C15 C 0.48096 0.95332 0.49393 0.0
O16 O 0.43682 0.99104 0.58806 0.0
Zn17 Zn 0.45842 0.98419 0.53497 0.0
O18 O 0.4526 0.0313 0.53598 0.0
Zn19 Zn 0.4759 0.02011 0.47968 0.0
O20 O 0.4469 0.01254 0.4267 0.0
O21 O 0.42383 0.97221 0.47889 0.0
O22 O 0.48555 0.97948 0.47197 0.0
O23 O 0.46646 0.94647 0.53324 0.0
O24 O 0.50833 0.02513 0.54225 0.0
O25 O 0.52164 0.05833 0.48131 0.0
C26 C 0.42246 0.98441 0.43957 0.0
C27 C 0.52962 0.05146 0.52032 0.0
C28 C 0.50831 0.45833 0.02113 0.0
C29 C 0.54805 0.5683 0.09091 0.0
O30 O 0.50045 0.47693 0.99752 0.0
Zn31 Zn 0.5084 0.52676 0.99985 0.0
O32 O 0.52559 0.46947 0.05787 0.0
Zn33 Zn 0.52955 0.5134 0.05627 0.0
O34 O 0.47881 0.50248 0.06578 0.0
O35 O 0.46236 0.51793 0.00327 0.0
O36 O 0.55216 0.54465 0.10612 0.0
O37 O 0.53286 0.5647 0.05223 0.0
O38 O 0.5353 0.54621 0.94422 0.0
O39 O 0.56234 0.53554 0.9986 0.0
C40 C 0.45612 0.50531 0.04376 0.0
C41 C 0.56168 0.54639 0.95802 0.0
C42 C 0.02571 0.56361 0.41585 0.0
C43 C 0.95521 0.45641 0.49455 0.0
O44 O 0.03637 0.56194 0.45617 0.0
Zn45 Zn 0.02274 0.52719 0.51196 0.0
O46 O 0.99851 0.53896 0.40092 0.0
Zn47 Zn 0.98862 0.50973 0.45457 0.0
O48 O 0.97639 0.53358 0.50831 0.0
O49 O 0.01429 0.54905 0.56369 0.0
O50 O 0.94896 0.46534 0.45583 0.0
O51 O 0.98141 0.47683 0.51753 0.0
O52 O 0.06087 0.52009 0.51308 0.0
O53 O 0.02805 0.49771 0.45198 0.0
C54 C 0.98743 0.54695 0.54803 0.0
C55 C 0.05376 0.50312 0.47587 0.0
C56 C 0.56344 0.9833 0.07109 0.0
C57 C 0.52224 0.04809 0.98785 0.0
O58 O 0.56563 0.01083 0.08348 0.0
Zn59 Zn 0.54498 0.01767 0.02905 0.0
O60 O 0.55079 0.97079 0.0315 0.0
Zn61 Zn 0.5283 0.98173 0.97433 0.0
O62 O 0.55777 0.98905 0.92207 0.0
O63 O 0.58048 0.02947 0.97404 0.0
O64 O 0.51756 0.02185 0.96597 0.0
O65 O 0.53765 0.05553 0.02644 0.0
O66 O 0.49415 0.97733 0.03443 0.0
O67 O 0.48334 0.94287 0.97535 0.0
C68 C 0.58225 0.01701 0.93513 0.0
C69 C 0.47377 0.9507 0.01229 0.0
C70 C 0.54648 0.49367 0.53725 0.0
C71 C 0.4414 0.45085 0.45145 0.0
O72 O 0.52435 0.49828 0.55757 0.0
Zn73 Zn 0.47402 0.48725 0.54808 0.0
O74 O 0.53925 0.47767 0.49915 0.0
Zn75 Zn 0.49327 0.46902 0.49468 0.0
O76 O 0.50125 0.51886 0.48512 0.0
O77 O 0.48047 0.53228 0.54518 0.0
O78 O 0.46576 0.44637 0.44093 0.0
O79 O 0.44172 0.46508 0.48971 0.0
O80 O 0.45125 0.4582 0.60054 0.0
O81 O 0.46889 0.43447 0.54999 0.0
C82 C 0.49527 0.53992 0.50605 0.0
C83 C 0.45437 0.43334 0.58836 0.0
H84 H 0.14587 0.39055 0.17876 0.0
H85 H 0.09904 0.39043 0.13837 0.0
H86 H 0.12403 0.48477 0.20292 0.0
H87 H 0.17116 0.48489 0.24306 0.0
H88 H 0.21461 0.44137 0.17058 0.0
H89 H 0.1251 0.40544 0.29098 0.0
H90 H 0.09186 0.42029 0.34082 0.0
H91 H 0.18281 0.49356 0.41012 0.0
H92 H 0.21582 0.48179 0.35625 0.0
H93 H 0.28526 0.47707 0.3451 0.0
H94 H 0.33329 0.47851 0.38256 0.0
H95 H 0.3252 0.4006 0.29087 0.0
H96 H 0.27589 0.39841 0.25419 0.0
H97 H 0.22388 0.43338 0.3404 0.0
H98 H 0.30849 0.49383 0.23677 0.0
H99 H 0.35808 0.50882 0.18962 0.0
H100 H 0.29827 0.42651 0.09722 0.0
H101 H 0.24839 0.41076 0.14563 0.0
C102 C 0.16187 0.4376 0.21413 0.0
C103 C 0.14116 0.41113 0.1844 0.0
C104 C 0.1144 0.41107 0.1614 0.0
C105 C 0.10778 0.43753 0.16759 0.0
C106 C 0.12819 0.46378 0.19803 0.0
C107 C 0.15521 0.46397 0.22078 0.0
C108 C 0.19101 0.43775 0.23653 0.0
C109 C 0.21642 0.43916 0.20771 0.0
C110 C 0.19467 0.43753 0.28527 0.0
C111 C 0.17316 0.44312 0.31861 0.0
C112 C 0.13791 0.4252 0.31624 0.0
C113 C 0.11881 0.43333 0.34571 0.0
C114 C 0.13445 0.45862 0.3796 0.0
C115 C 0.16964 0.47486 0.38368 0.0
C116 C 0.18868 0.46763 0.35319 0.0
C117 C 0.27689 0.43766 0.29677 0.0
C118 C 0.29356 0.46007 0.33317 0.0
C119 C 0.32135 0.46114 0.35422 0.0
C120 C 0.33336 0.43994 0.33933 0.0
C121 C 0.3165 0.41719 0.30316 0.0
C122 C 0.2885 0.41609 0.282 0.0
C123 C 0.24745 0.43721 0.27464 0.0
C124 C 0.22189 0.43531 0.30324 0.0
C125 C 0.24546 0.44081 0.22629 0.0
C126 C 0.2749 0.45049 0.19562 0.0
C127 C 0.30599 0.47867 0.20672 0.0
C128 C 0.33428 0.48739 0.1796 0.0
C129 C 0.332 0.46859 0.14013 0.0
C130 C 0.3006 0.44138 0.12753 0.0
C131 C 0.27221 0.43233 0.15519 0.0
H132 H 0.73042 0.19644 0.80668 0.0
H133 H 0.69008 0.15151 0.85611 0.0
H134 H 0.68824 0.07798 0.76124 0.0
H135 H 0.72874 0.1235 0.71125 0.0
H136 H 0.79112 0.21435 0.78391 0.0
H137 H 0.68999 0.17993 0.70686 0.0
H138 H 0.63663 0.14596 0.66709 0.0
H139 H 0.68832 0.12772 0.55587 0.0
H140 H 0.7419 0.16123 0.59649 0.0
H141 H 0.85177 0.25416 0.61164 0.0
H142 H 0.88738 0.30333 0.56327 0.0
H143 H 0.84308 0.35708 0.62665 0.0
H144 H 0.8082 0.30816 0.67594 0.0
H145 H 0.773 0.22485 0.61721 0.0
H146 H 0.87885 0.28392 0.7048 0.0
H147 H 0.92109 0.33178 0.74876 0.0
H148 H 0.8455 0.31571 0.85092 0.0
H149 H 0.80319 0.27097 0.80448 0.0
C150 C 0.73281 0.16344 0.75529 0.0
C151 C 0.72158 0.17067 0.79656 0.0
C152 C 0.69855 0.14487 0.82496 0.0
C153 C 0.68622 0.11106 0.81304 0.0
C154 C 0.69714 0.10374 0.77137 0.0
C155 C 0.7203 0.12972 0.74279 0.0
C156 C 0.75788 0.19151 0.7261 0.0
C157 C 0.7871 0.21676 0.74746 0.0
C158 C 0.7525 0.19465 0.67855 0.0
C159 C 0.71993 0.1724 0.65535 0.0
C160 C 0.68987 0.168 0.67449 0.0
C161 C 0.6594 0.14884 0.65151 0.0
C162 C 0.65836 0.13416 0.60845 0.0
C163 C 0.68846 0.13896 0.58887 0.0
C164 C 0.71899 0.15787 0.61219 0.0
C165 C 0.82784 0.27787 0.64765 0.0
C166 C 0.84995 0.27664 0.61525 0.0
C167 C 0.87011 0.30457 0.58766 0.0
C168 C 0.86767 0.33373 0.59118 0.0
C169 C 0.8451 0.33471 0.62311 0.0
C170 C 0.82546 0.30701 0.65142 0.0
C171 C 0.80566 0.24788 0.67541 0.0
C172 C 0.7772 0.22212 0.65352 0.0
C173 C 0.81046 0.24572 0.72339 0.0
C174 C 0.8374 0.27407 0.75045 0.0
C175 C 0.87118 0.29133 0.73595 0.0
C176 C 0.89558 0.3184 0.76179 0.0
C177 C 0.8869 0.32826 0.80336 0.0
C178 C 0.85328 0.30995 0.81847 0.0
C179 C 0.82892 0.28371 0.79213 0.0
H180 H 0.57685 0.83793 0.41328 0.0
H181 H 0.55905 0.87284 0.45515 0.0
H182 H 0.48879 0.85748 0.34576 0.0
H183 H 0.50585 0.82202 0.30476 0.0
H184 H 0.54222 0.77423 0.39126 0.0
H185 H 0.60028 0.87732 0.29894 0.0
H186 H 0.60587 0.92302 0.24881 0.0
H187 H 0.53423 0.84981 0.15365 0.0
H188 H 0.52885 0.80469 0.20333 0.0
H189 H 0.52525 0.72514 0.20823 0.0
H190 H 0.52669 0.68178 0.1619 0.0
H191 H 0.60209 0.68331 0.25294 0.0
H192 H 0.60013 0.7268 0.29994 0.0
H193 H 0.5726 0.78752 0.22493 0.0
H194 H 0.50611 0.68763 0.31141 0.0
H195 H 0.49241 0.63684 0.35496 0.0
H196 H 0.56548 0.69674 0.45883 0.0
H197 H 0.57994 0.74766 0.41434 0.0
C198 C 0.54332 0.82802 0.35527 0.0
C199 C 0.55765 0.84215 0.3983 0.0
C200 C 0.54737 0.86189 0.42231 0.0
C201 C 0.52271 0.86797 0.40353 0.0
C202 C 0.50822 0.8536 0.36068 0.0
C203 C 0.51818 0.83357 0.33704 0.0
C204 C 0.5528 0.80553 0.33097 0.0
C205 C 0.54971 0.7776 0.35514 0.0
C206 C 0.56141 0.8093 0.28339 0.0
C207 C 0.56427 0.83752 0.2548 0.0
C208 C 0.58566 0.87121 0.2674 0.0
C209 C 0.58885 0.89728 0.23874 0.0
C210 C 0.5709 0.89005 0.19687 0.0
C211 C 0.54909 0.8563 0.18501 0.0
C212 C 0.54587 0.83042 0.21353 0.0
C213 C 0.56263 0.72932 0.25751 0.0
C214 C 0.54229 0.71634 0.21814 0.0
C215 C 0.54328 0.69161 0.19149 0.0
C216 C 0.56485 0.67932 0.20329 0.0
C217 C 0.5851 0.69213 0.24301 0.0
C218 C 0.58406 0.717 0.26984 0.0
C219 C 0.5611 0.75587 0.28486 0.0
C220 C 0.56594 0.78466 0.26136 0.0
C221 C 0.55297 0.75233 0.33257 0.0
C222 C 0.54475 0.72142 0.35891 0.0
C223 C 0.51969 0.68987 0.34306 0.0
C224 C 0.51168 0.66088 0.36815 0.0
C225 C 0.52802 0.66291 0.41012 0.0
C226 C 0.55241 0.69454 0.42669 0.0
C227 C 0.56077 0.72355 0.40121 0.0
H228 H 0.71941 0.50355 0.66765 0.0
H229 H 0.67187 0.49142 0.61789 0.0
H230 H 0.67976 0.58575 0.65745 0.0
H231 H 0.72723 0.59747 0.70802 0.0
H232 H 0.78427 0.55616 0.66699 0.0
H233 H 0.68465 0.51453 0.76664 0.0
H234 H 0.63896 0.5169 0.80688 0.0
H235 H 0.71113 0.61045 0.8706 0.0
H236 H 0.75668 0.60831 0.82965 0.0
H237 H 0.83833 0.5911 0.85882 0.0
H238 H 0.87453 0.5789 0.90834 0.0
H239 H 0.85295 0.49369 0.82252 0.0
H240 H 0.81613 0.50498 0.77446 0.0
H241 H 0.7748 0.5598 0.83755 0.0
H242 H 0.8748 0.59876 0.74814 0.0
H243 H 0.92198 0.60038 0.70572 0.0
H244 H 0.85167 0.51704 0.62181 0.0
H245 H 0.80493 0.51514 0.66432 0.0
C246 C 0.72658 0.55124 0.69188 0.0
C247 C 0.7111 0.52179 0.66526 0.0
C248 C 0.68405 0.51498 0.63655 0.0
C249 C 0.67198 0.53759 0.63367 0.0
C250 C 0.68818 0.56761 0.65938 0.0
C251 C 0.7153 0.57439 0.68825 0.0
C252 C 0.75425 0.55687 0.72352 0.0
C253 C 0.78226 0.55686 0.70435 0.0
C254 C 0.75234 0.55975 0.77206 0.0
C255 C 0.72414 0.56145 0.79469 0.0
C256 C 0.6906 0.53592 0.78846 0.0
C257 C 0.66448 0.53732 0.81144 0.0
C258 C 0.67145 0.56393 0.84177 0.0
C259 C 0.705 0.58957 0.8476 0.0
C260 C 0.73103 0.58834 0.82429 0.0
C261 C 0.82527 0.54955 0.81207 0.0
C262 C 0.84122 0.56966 0.85093 0.0
C263 C 0.86176 0.56266 0.87922 0.0
C264 C 0.86673 0.53563 0.86875 0.0
C265 C 0.84991 0.515 0.83082 0.0
C266 C 0.8291 0.52163 0.80315 0.0
C267 C 0.8039 0.55681 0.78104 0.0
C268 C 0.7773 0.55971 0.80023 0.0
C269 C 0.80731 0.55709 0.7323 0.0
C270 C 0.83623 0.55698 0.70921 0.0
C271 C 0.8696 0.58057 0.721 0.0
C272 C 0.89652 0.58153 0.69676 0.0
C273 C 0.89045 0.55919 0.66002 0.0
C274 C 0.8571 0.53505 0.64929 0.0
C275 C 0.83035 0.53393 0.67361 0.0
H276 H 0.26654 0.85505 0.11423 0.0
H277 H 0.31837 0.89 0.06989 0.0
H278 H 0.36732 0.84415 0.14232 0.0
H279 H 0.31593 0.81008 0.18744 0.0
H280 H 0.23449 0.77965 0.11543 0.0
H281 H 0.2783 0.87597 0.21492 0.0
H282 H 0.31797 0.92138 0.26536 0.0
H283 H 0.3224 0.84831 0.35458 0.0
H284 H 0.28299 0.80326 0.30427 0.0
H285 H 0.206 0.71963 0.29466 0.0
H286 H 0.16157 0.67435 0.33959 0.0
H287 H 0.08672 0.67838 0.25369 0.0
H288 H 0.1316 0.72404 0.20857 0.0
H289 H 0.22098 0.78223 0.28535 0.0
H290 H 0.19853 0.69251 0.17463 0.0
H291 H 0.16421 0.64482 0.12351 0.0
H292 H 0.12449 0.70198 0.0578 0.0
H293 H 0.1594 0.74986 0.10843 0.0
C294 C 0.28772 0.83044 0.1544 0.0
C295 C 0.28862 0.85295 0.1209 0.0
C296 C 0.31803 0.87267 0.09557 0.0
C297 C 0.3465 0.86935 0.10255 0.0
C298 C 0.34551 0.84681 0.1361 0.0
C299 C 0.31639 0.82768 0.16211 0.0
C300 C 0.25602 0.80722 0.17823 0.0
C301 C 0.23108 0.78065 0.15246 0.0
C302 C 0.25228 0.80819 0.22665 0.0
C303 C 0.27763 0.83611 0.25569 0.0
C304 C 0.28816 0.86978 0.24503 0.0
C305 C 0.31077 0.89573 0.27395 0.0
C306 C 0.32306 0.88847 0.31431 0.0
C307 C 0.31286 0.85478 0.32437 0.0
C308 C 0.29041 0.82895 0.29548 0.0
C309 C 0.17225 0.72535 0.24821 0.0
C310 C 0.18005 0.71086 0.28543 0.0
C311 C 0.15457 0.68501 0.31122 0.0
C312 C 0.12056 0.673 0.30057 0.0
C313 C 0.11267 0.68696 0.26261 0.0
C314 C 0.1383 0.71303 0.23677 0.0
C315 C 0.19988 0.75398 0.22275 0.0
C316 C 0.22402 0.78162 0.2482 0.0
C317 C 0.20343 0.75378 0.17417 0.0
C318 C 0.18108 0.72441 0.14552 0.0
C319 C 0.18231 0.69465 0.14932 0.0
C320 C 0.16305 0.66766 0.11986 0.0
C321 C 0.14199 0.66995 0.08661 0.0
C322 C 0.1406 0.69969 0.08317 0.0
C323 C 0.16033 0.7269 0.11206 0.0
H324 H 0.50691 0.28754 0.88965 0.0
H325 H 0.51843 0.33344 0.94111 0.0
H326 H 0.42923 0.33293 0.8914 0.0
H327 H 0.41567 0.28396 0.84417 0.0
H328 H 0.46319 0.2289 0.89101 0.0
H329 H 0.49067 0.31595 0.78095 0.0
H330 H 0.48752 0.35972 0.73697 0.0
H331 H 0.3897 0.28635 0.68587 0.0
H332 H 0.39203 0.24273 0.73181 0.0
H333 H 0.38912 0.15323 0.72857 0.0
H334 H 0.3832 0.10695 0.67967 0.0
H335 H 0.48107 0.12629 0.72344 0.0
H336 H 0.48784 0.17356 0.77011 0.0
H337 H 0.43082 0.2177 0.72578 0.0
H338 H 0.41253 0.13083 0.84253 0.0
H339 H 0.42735 0.09333 0.88363 0.0
H340 H 0.52578 0.17764 0.91298 0.0
H341 H 0.51094 0.21473 0.87209 0.0
C342 C 0.46045 0.28217 0.86257 0.0
C343 C 0.48948 0.29694 0.89024 0.0
C344 C 0.49638 0.32378 0.91933 0.0
C345 C 0.47505 0.33751 0.92057 0.0
C346 C 0.44609 0.3229 0.89237 0.0
C347 C 0.43857 0.29518 0.86438 0.0
C348 C 0.45291 0.25236 0.83374 0.0
C349 C 0.45651 0.22682 0.85466 0.0
C350 C 0.44335 0.24905 0.78647 0.0
C351 C 0.4413 0.276 0.76058 0.0
C352 C 0.46811 0.30932 0.76136 0.0
C353 C 0.46636 0.33434 0.73611 0.0
C354 C 0.43824 0.3264 0.70842 0.0
C355 C 0.41159 0.29309 0.70713 0.0
C356 C 0.413 0.26819 0.73321 0.0
C357 C 0.43863 0.16657 0.75398 0.0
C358 C 0.40936 0.14759 0.72761 0.0
C359 C 0.4059 0.1211 0.69985 0.0
C360 C 0.43145 0.11279 0.69846 0.0
C361 C 0.4607 0.13174 0.72472 0.0
C362 C 0.46449 0.15869 0.75157 0.0
C363 C 0.44241 0.19511 0.78288 0.0
C364 C 0.43747 0.22002 0.76214 0.0
C365 C 0.45242 0.19891 0.82985 0.0
C366 C 0.46068 0.17552 0.85406 0.0
C367 C 0.4373 0.14111 0.85769 0.0
C368 C 0.44581 0.11978 0.88118 0.0
C369 C 0.47769 0.13261 0.90176 0.0
C370 C 0.50085 0.16709 0.89826 0.0
C371 C 0.49244 0.18828 0.87467 0.0
C372 C 0.05758 0.43747 0.06384 0.0
C373 C 0.03623 0.4479 0.08317 0.0
H374 H 0.09671 0.42601 0.07531 0.0
C375 C 0.03661 0.45242 0.13132 0.0
H376 H 0.05788 0.43383 0.02683 0.0
C377 C 0.0593 0.44832 0.1592 0.0
C378 C 0.0815 0.43905 0.13946 0.0
H379 H 0.02064 0.46077 0.14708 0.0
H380 H 0.05992 0.45298 0.19603 0.0
C381 C 0.07978 0.4329 0.09165 0.0
C382 C 0.5673 0.06913 0.58901 0.0
C383 C 0.5628 0.07334 0.54182 0.0
H384 H 0.60088 0.08486 0.64664 0.0
C385 C 0.59017 0.09783 0.5163 0.0
H386 H 0.54676 0.05056 0.6098 0.0
C387 C 0.62149 0.11748 0.53765 0.0
C388 C 0.62571 0.11324 0.58494 0.0
H389 H 0.58748 0.10157 0.47989 0.0
H390 H 0.64225 0.13626 0.51741 0.0
C391 C 0.59828 0.0889 0.61029 0.0
C392 C 0.5625 0.59864 0.16716 0.0
C393 C 0.55761 0.59863 0.11911 0.0
H394 H 0.56817 0.62395 0.23169 0.0
C395 C 0.55863 0.62683 0.09869 0.0
H396 H 0.56175 0.57721 0.18393 0.0
C397 C 0.56265 0.65366 0.12587 0.0
C398 C 0.56537 0.65283 0.17427 0.0
H399 H 0.55536 0.62781 0.0617 0.0
H400 H 0.56279 0.67474 0.10897 0.0
C401 C 0.56624 0.62545 0.19452 0.0
C402 C 0.93906 0.55678 0.55611 0.0
C403 C 0.96643 0.55609 0.57663 0.0
H404 H 0.89402 0.55877 0.56638 0.0
C405 C 0.97073 0.5602 0.62486 0.0
H406 H 0.93518 0.55411 0.51902 0.0
C407 C 0.94684 0.56277 0.65218 0.0
C408 C 0.91832 0.56116 0.63164 0.0
H409 H 0.99154 0.55971 0.64169 0.0
H410 H 0.94977 0.56429 0.68945 0.0
C411 C 0.91533 0.55928 0.58325 0.0
C412 C 0.42307 0.89448 0.02734 0.0
C413 C 0.4396 0.92958 0.03091 0.0
H414 H 0.3805 0.84766 0.04832 0.0
C415 C 0.42431 0.94466 0.05577 0.0
H416 H 0.43448 0.88231 0.00861 0.0
C417 C 0.39338 0.92502 0.07756 0.0
C418 C 0.37758 0.88993 0.07578 0.0
H419 H 0.43653 0.97173 0.05888 0.0
H420 H 0.38239 0.9372 0.09723 0.0
C421 C 0.39244 0.87475 0.05018 0.0
C422 C 0.43699 0.37317 0.60151 0.0
C423 C 0.44488 0.40459 0.61979 0.0
H424 H 0.42811 0.32362 0.61552 0.0
C425 C 0.44773 0.40921 0.66799 0.0
H426 H 0.43472 0.36895 0.56447 0.0
C427 C 0.44469 0.38347 0.69711 0.0
C428 C 0.43792 0.35245 0.67858 0.0
H429 H 0.45414 0.43327 0.68296 0.0
H430 H 0.44835 0.38801 0.734 0.0
C431 C 0.43316 0.34724 0.63067 0.0
C432 C 0.50064 0.93564 0.4248 0.0
C433 C 0.49187 0.93128 0.47198 0.0
H434 H 0.51726 0.91916 0.36654 0.0
C435 C 0.49371 0.90603 0.49696 0.0
H436 H 0.49947 0.9548 0.40441 0.0
C437 C 0.50422 0.88564 0.47504 0.0
C438 C 0.51253 0.88988 0.42769 0.0
H439 H 0.48719 0.90213 0.53335 0.0
H440 H 0.5053 0.8662 0.49484 0.0
C441 C 0.51068 0.91512 0.40292 0.0
C442 C 0.62236 0.56551 0.94603 0.0
C443 C 0.59069 0.5559 0.92691 0.0
H444 H 0.67254 0.57568 0.93414 0.0
C445 C 0.58643 0.55161 0.87875 0.0
H446 H 0.62641 0.56899 0.98303 0.0
C447 C 0.61291 0.55508 0.85065 0.0
C448 C 0.64422 0.56347 0.87016 0.0
H449 H 0.56223 0.54395 0.86311 0.0
H450 H 0.60873 0.55056 0.81382 0.0
C451 C 0.64885 0.56946 0.91798 0.0
C452 C 0.04203 0.59258 0.33819 0.0
C453 C 0.04695 0.59317 0.38631 0.0
H454 H 0.06163 0.61729 0.27307 0.0
C455 C 0.07457 0.62145 0.40599 0.0
H456 H 0.02103 0.57113 0.32196 0.0
C457 C 0.09761 0.64771 0.3782 0.0
C458 C 0.09381 0.64644 0.32988 0.0
H459 H 0.07897 0.62299 0.44297 0.0
H460 H 0.11884 0.66885 0.39459 0.0
C461 C 0.06526 0.619 0.31021 0.0
C462 C 0.49086 0.05917 0.92625 0.0
C463 C 0.5097 0.06926 0.96743 0.0
H464 H 0.46612 0.07125 0.87328 0.0
C465 C 0.51668 0.09972 0.98802 0.0
H466 H 0.48492 0.03578 0.90948 0.0
C467 C 0.50569 0.12 0.96723 0.0
C468 C 0.48741 0.11015 0.92556 0.0
H469 H 0.53097 0.10812 0.01984 0.0
H470 H 0.5116 0.14348 0.98369 0.0
C471 C 0.47981 0.07935 0.90561 0.0
C472 C 0.3907 0.41536 0.40229 0.0
C473 C 0.41643 0.44695 0.4167 0.0
H474 H 0.34362 0.38821 0.36634 0.0
C475 C 0.41648 0.47593 0.40167 0.0
H476 H 0.39021 0.39273 0.4139 0.0
C477 C 0.39043 0.47352 0.37436 0.0
C478 C 0.36332 0.44198 0.36215 0.0
H479 H 0.43629 0.50057 0.41231 0.0
H480 H 0.391 0.49643 0.36399 0.0
C481 C 0.36419 0.41287 0.37513 0.0
C482 C 0.9246 0.403 0.88495 0.0
C483 C 0.95835 0.41122 0.88743 0.0
H484 H 0.8765 0.37231 0.85484 0.0
C485 C 0.9693 0.39312 0.86052 0.0
H486 H 0.91568 0.41713 0.90448 0.0
C487 C 0.94633 0.36621 0.83297 0.0
C488 C 0.91221 0.35757 0.83099 0.0
H489 H 0.9953 0.39915 0.86177 0.0
H490 H 0.95523 0.35184 0.81411 0.0
C491 C 0.90202 0.37699 0.85661 0.0
C492 C 0.90896 0.51646 0.96764 0.0
C493 C 0.93385 0.51315 0.94373 0.0
H494 H 0.86827 0.52682 0.96251 0.0
C495 C 0.93726 0.51889 0.89571 0.0
H496 H 0.9058 0.51228 0.00465 0.0
C497 C 0.91578 0.52676 0.87188 0.0
C498 C 0.89058 0.52951 0.89547 0.0
H499 H 0.95609 0.51653 0.8761 0.0
H500 H 0.91868 0.53047 0.83475 0.0
C501 C 0.88764 0.52489 0.94368 0.0
C502 C 0.39729 0.96932 0.35973 0.0
C503 C 0.39444 0.96329 0.40771 0.0
H504 H 0.37716 0.9502 0.29237 0.0
C505 C 0.36621 0.93419 0.42466 0.0
H506 H 0.41882 0.99142 0.34554 0.0
C507 C 0.34246 0.91071 0.39436 0.0
C508 C 0.34632 0.9156 0.34624 0.0
H509 H 0.36302 0.92888 0.46143 0.0
H510 H 0.3214 0.88826 0.40867 0.0
C511 C 0.37345 0.94567 0.32926 0.0
C512 C 0.46598 0.40162 0.99342 0.0
C513 C 0.49962 0.42539 1.00238 0.0
H514 H 0.43161 0.35446 0.96295 0.0
C515 C 0.52513 0.41971 0.98651 0.0
H516 H 0.44598 0.40587 0.00506 0.0
C517 C 0.51718 0.39119 0.96029 0.0
C518 C 0.48341 0.36722 0.95045 0.0
H519 H 0.5513 0.4383 0.99206 0.0
H520 H 0.53775 0.38882 0.9463 0.0
C521 C 0.45789 0.3725 0.9685 0.0
C522 C 0.10951 0.51311 0.44953 0.0
C523 C 0.07546 0.49073 0.45801 0.0
H524 H 0.15432 0.52128 0.41623 0.0
C525 C 0.06123 0.45728 0.44359 0.0
H526 H 0.12074 0.53922 0.4596 0.0
C527 C 0.08068 0.4464 0.42017 0.0
C528 C 0.11452 0.46913 0.40909 0.0
H529 H 0.03486 0.43964 0.44985 0.0
H530 H 0.06888 0.42029 0.41015 0.0
C531 C 0.12873 0.5026 0.42472 0.0
C532 C 0.60848 0.0321 0.85593 0.0
C533 C 0.6111 0.03737 0.90406 0.0
H534 H 0.62995 0.05152 0.7892 0.0
C535 C 0.64025 0.06495 0.92197 0.0
H536 H 0.58625 0.01115 0.84105 0.0
C537 C 0.6653 0.08782 0.89243 0.0
C538 C 0.66174 0.08395 0.84413 0.0
H539 H 0.64325 0.06952 0.9589 0.0
H540 H 0.68712 0.10913 0.90749 0.0
C541 C 0.63353 0.05524 0.82621 0.0
C542 C 0.51145 0.57533 0.43503 0.0
C543 C 0.50421 0.57194 0.48269 0.0
H544 H 0.52457 0.60664 0.37503 0.0
C545 C 0.50519 0.59897 0.50672 0.0
H546 H 0.51076 0.55496 0.41534 0.0
C547 C 0.51341 0.62886 0.48341 0.0
C548 C 0.52017 0.63189 0.43562 0.0
H549 H 0.49974 0.59708 0.54343 0.0
H550 H 0.5139 0.64935 0.50252 0.0
C551 C 0.51915 0.60486 0.41176 0.0
C552 C 0.43526 0.03687 0.65559 0.0
C553 C 0.43151 0.03881 0.60761 0.0
H554 H 0.43865 0.05925 0.72203 0.0
C555 C 0.42464 0.06335 0.59039 0.0
H556 H 0.44091 0.01845 0.66981 0.0
C557 C 0.42285 0.08631 0.62033 0.0
C558 C 0.42865 0.08563 0.66791 0.0
H559 H 0.42172 0.06549 0.55356 0.0
H560 H 0.41863 0.10566 0.60599 0.0
C561 C 0.43424 0.06033 0.68541 0.0
C562 C 0.39541 0.49104 0.04261 0.0
C563 C 0.42362 0.49493 0.06705 0.0
H564 H 0.34379 0.47907 0.04664 0.0
C565 C 0.4209 0.48909 0.11505 0.0
H566 H 0.39672 0.49525 0.0056 0.0
C567 C 0.39102 0.48024 0.13828 0.0
C568 C 0.36293 0.47662 0.11412 0.0
H569 H 0.44208 0.49185 0.13504 0.0
H570 H 0.38987 0.4762 0.17535 0.0
C571 C 0.36515 0.48165 0.06596 0.0
C572 C 0.89744 0.40817 0.51022 0.0
C573 C 0.93246 0.42315 0.51467 0.0
H574 H 0.8492 0.36807 0.53209 0.0
C575 C 0.94588 0.40755 0.5423 0.0
H576 H 0.88654 0.41991 0.48944 0.0
C577 C 0.9247 0.37785 0.56584 0.0
C578 C 0.88972 0.36361 0.56306 0.0
H579 H 0.97283 0.41864 0.54624 0.0
H580 H 0.93567 0.36662 0.58756 0.0
C581 C 0.87618 0.37878 0.53479 0.0
C582 C 0.57387 0.93595 0.08664 0.0
C583 C 0.57151 0.96334 0.10346 0.0
H584 H 0.57641 0.89195 0.10286 0.0
C585 C 0.57287 0.96869 0.15154 0.0
H586 H 0.57331 0.93132 0.0498 0.0
C587 C 0.57424 0.94573 0.18218 0.0
C588 C 0.57437 0.91713 0.1652 0.0
H589 H 0.57099 0.98953 0.16558 0.0
H590 H 0.5734 0.94945 0.21906 0.0
C591 C 0.57542 0.91323 0.11709 0.0
C592 C 0.58627 0.52406 0.6017 0.0
C593 C 0.57969 0.50656 0.55956 0.0
H594 H 0.62012 0.54717 0.65806 0.0
C595 C 0.60458 0.50097 0.54042 0.0
H596 H 0.56771 0.5289 0.61752 0.0
C597 C 0.63506 0.51191 0.56369 0.0
C598 C 0.64117 0.52863 0.60651 0.0
H599 H 0.60036 0.48774 0.50791 0.0
H600 H 0.65372 0.50704 0.54836 0.0
C601 C 0.61655 0.53489 0.62487 0.0
C602 C 0.11235 0.59445 0.00774 0.0
C603 C 0.07742 0.58126 0.00892 0.0
H604 H 0.16043 0.63301 0.03241 0.0
C605 C 0.06427 0.59878 0.03273 0.0
H606 H 0.12301 0.58119 0.98997 0.0
C607 C 0.0855 0.6284 0.05627 0.0
C608 C 0.12025 0.6407 0.05726 0.0
H609 H 0.03738 0.58907 0.03413 0.0
H610 H 0.0746 0.64088 0.07543 0.0
C611 C 0.13362 0.62381 0.03226 0.0
loop_
_geom_bond_atom_site_label_1
_geom_bond_atom_site_label_2
_geom_bond_distance
_geom_bond_site_symmetry_2
_ccdc_geom_bond_type
C0 O2 1.247 . S
C0 O4 1.258 . S
C1 O8 1.247 . S
C1 O9 1.258 . S
O2 C0 1.247 . S
O2 Zn3 2.028 1_455 S
Zn3 O2 2.028 1_655 S
Zn3 O7 2.035 1_554 S
Zn3 O9 2.035 1_554 S
Zn3 O10 2.028 1_655 S
O4 C0 1.258 . S
O4 Zn5 2.035 1_554 S
Zn5 O4 2.035 1_556 S
Zn5 O6 2.028 1_455 S
Zn5 O8 2.028 1_455 S
Zn5 O11 2.035 1_556 S
O6 Zn5 2.028 1_655 S
O6 C12 1.247 . S
O7 Zn3 2.035 1_556 S
O7 C12 1.258 . S
O8 C1 1.247 . S
O8 Zn5 2.028 1_655 S
O9 C1 1.258 . S
O9 Zn3 2.035 1_556 S
O10 Zn3 2.028 1_455 S
O10 C13 1.247 . S
O11 Zn5 2.035 1_554 S
O11 C13 1.258 . S
C12 O6 1.247 . S
C12 O7 1.258 . S
C13 O10 1.247 . S
C13 O11 1.258 . S
C14 O16 1.247 . S
C14 O18 1.258 . S
C15 O22 1.247 . S
C15 O23 1.258 . S
O16 C14 1.247 . S
O16 Zn17 2.028 1_545 S
Zn17 O16 2.028 1_565 S
Zn17 O21 2.035 . S
Zn17 O23 2.035 . S
Zn17 O24 2.028 1_565 S
O18 C14 1.258 . S
O18 Zn19 2.035 . S
Zn19 O18 2.035 . S
Zn19 O20 2.028 1_545 S
Zn19 O22 2.028 1_545 S
Zn19 O25 2.035 . S
O20 Zn19 2.028 1_565 S
O20 C26 1.247 . S
O21 Zn17 2.035 . S
O21 C26 1.258 . S
O22 C15 1.247 . S
O22 Zn19 2.028 1_565 S
O23 C15 1.258 . S
O23 Zn17 2.035 . S
O24 Zn17 2.028 1_545 S
O24 C27 1.247 . S
O25 Zn19 2.035 . S
O25 C27 1.258 . S
C26 O20 1.247 . S
C26 O21 1.258 . S
C27 O24 1.247 . S
C27 O25 1.258 . S
C28 O30 1.247 . S
C28 O32 1.258 . S
C29 O36 1.247 . S
C29 O37 1.258 . S
O30 C28 1.247 . S
O30 Zn31 2.028 . S
Zn31 O30 2.028 . S
Zn31 O35 2.035 1_556 S
Zn31 O37 2.035 1_556 S
Zn31 O38 2.028 . S
O32 C28 1.258 . S
O32 Zn33 2.035 1_556 S
Zn33 O32 2.035 1_554 S
Zn33 O34 2.028 . S
Zn33 O36 2.028 . S
Zn33 O39 2.035 1_554 S
O34 Zn33 2.028 . S
O34 C40 1.247 . S
O35 Zn31 2.035 1_554 S
O35 C40 1.258 . S
O36 C29 1.247 . S
O36 Zn33 2.028 . S
O37 C29 1.258 . S
O37 Zn31 2.035 1_554 S
O38 Zn31 2.028 . S
O38 C41 1.247 . S
O39 Zn33 2.035 1_556 S
O39 C41 1.258 . S
C40 O34 1.247 . S
C40 O35 1.258 . S
C41 O38 1.247 . S
C41 O39 1.258 . S
C42 O44 1.247 . S
C42 O46 1.258 . S
C43 O50 1.247 . S
C43 O51 1.258 . S
O44 C42 1.247 . S
O44 Zn45 2.028 . S
Zn45 O44 2.028 . S
Zn45 O49 2.035 1_455 S
Zn45 O51 2.035 1_455 S
Zn45 O52 2.028 . S
O46 C42 1.258 . S
O46 Zn47 2.035 1_455 S
Zn47 O46 2.035 1_655 S
Zn47 O48 2.028 . S
Zn47 O50 2.028 . S
Zn47 O53 2.035 1_655 S
O48 Zn47 2.028 . S
O48 C54 1.247 . S
O49 Zn45 2.035 1_655 S
O49 C54 1.258 . S
O50 C43 1.247 . S
O50 Zn47 2.028 . S
O51 C43 1.258 . S
O51 Zn45 2.035 1_655 S
O52 Zn45 2.028 . S
O52 C55 1.247 . S
O53 Zn47 2.035 1_455 S
O53 C55 1.258 . S
C54 O48 1.247 . S
C54 O49 1.258 . S
C55 O52 1.247 . S
C55 O53 1.258 . S
C56 O58 1.247 . S
C56 O60 1.258 . S
C57 O64 1.247 . S
C57 O65 1.258 . S
O58 C56 1.247 . S
O58 Zn59 2.028 1_565 S
Zn59 O58 2.028 1_545 S
Zn59 O63 2.035 1_554 S
Zn59 O65 2.035 1_554 S
Zn59 O66 2.028 1_545 S
O60 C56 1.258 . S
O60 Zn61 2.035 1_554 S
Zn61 O60 2.035 1_556 S
Zn61 O62 2.028 1_565 S
Zn61 O64 2.028 1_565 S
Zn61 O67 2.035 1_556 S
O62 Zn61 2.028 1_545 S
O62 C68 1.247 . S
O63 Zn59 2.035 1_556 S
O63 C68 1.258 . S
O64 C57 1.247 . S
O64 Zn61 2.028 1_545 S
O65 C57 1.258 . S
O65 Zn59 2.035 1_556 S
O66 Zn59 2.028 1_565 S
O66 C69 1.247 . S
O67 Zn61 2.035 1_554 S
O67 C69 1.258 . S
C68 O62 1.247 . S
C68 O63 1.258 . S
C69 O66 1.247 . S
C69 O67 1.258 . S
C70 O72 1.247 . S
C70 O74 1.258 . S
C71 O78 1.247 . S
C71 O79 1.258 . S
O72 C70 1.247 . S
O72 Zn73 2.028 . S
Zn73 O72 2.028 . S
Zn73 O77 2.035 . S
Zn73 O79 2.035 . S
Zn73 O80 2.028 . S
O74 C70 1.258 . S
O74 Zn75 2.035 . S
Zn75 O74 2.035 . S
Zn75 O76 2.028 . S
Zn75 O78 2.028 . S
Zn75 O81 2.035 . S
O76 Zn75 2.028 . S
O76 C82 1.247 . S
O77 Zn73 2.035 . S
O77 C82 1.258 . S
O78 C71 1.247 . S
O78 Zn75 2.028 . S
O79 C71 1.258 . S
O79 Zn73 2.035 . S
O80 Zn73 2.028 . S
O80 C83 1.247 . S
O81 Zn75 2.035 . S
O81 C83 1.258 . S
C82 O76 1.247 . S
C82 O77 1.258 . S
C83 O80 1.247 . S
C83 O81 1.258 . S
H84 C103 0.949 . S
H85 C104 0.950 . S
H86 C106 0.950 . S
H87 C107 0.950 . S
H88 C109 0.950 . S
H89 C112 0.950 . S
H90 C113 0.950 . S
H91 C115 0.951 . S
H92 C116 0.949 . S
H93 C118 0.949 . S
H94 C119 0.950 . S
H95 C121 0.950 . S
H96 C122 0.950 . S
H97 C124 0.950 . S
H98 C127 0.950 . S
H99 C128 0.950 . S
H100 C130 0.951 . S
H101 C131 0.949 . S
C102 C103 1.376 . S
C102 C107 1.386 . S
C102 C108 1.483 . S
C103 H84 0.949 . S
C103 C102 1.376 . S
C103 C104 1.397 . S
C104 H85 0.950 . S
C104 C103 1.397 . S
C104 C105 1.391 . S
C105 C104 1.391 . S
C105 C106 1.405 . S
C106 H86 0.950 . S
C106 C105 1.405 . S
C106 C107 1.367 . S
C107 H87 0.950 . S
C107 C102 1.386 . S
C107 C106 1.367 . S
C108 C102 1.483 . S
C108 C109 1.382 . S
C108 C110 1.403 . S
C109 H88 0.950 . S
C109 C108 1.382 . S
C109 C125 1.411 . S
C110 C108 1.403 . S
C110 C111 1.489 . S
C110 C124 1.411 . S
C111 C110 1.489 . S
C111 C112 1.383 . S
C111 C116 1.382 . S
C112 H89 0.950 . S
C112 C111 1.383 . S
C112 C113 1.395 . S
C113 H90 0.950 . S
C113 C112 1.395 . S
C113 C114 1.288 . S
C114 C113 1.288 . S
C114 C115 1.392 . S
C115 H91 0.951 . S
C115 C114 1.392 . S
C115 C116 1.392 . S
C116 H92 0.949 . S
C116 C111 1.382 . S
C116 C115 1.392 . S
C117 C118 1.376 . S
C117 C122 1.386 . S
C117 C123 1.483 . S
C118 H93 0.949 . S
C118 C117 1.376 . S
C118 C119 1.397 . S
C119 H94 0.950 . S
C119 C118 1.397 . S
C119 C120 1.391 . S
C120 C119 1.391 . S
C120 C121 1.405 . S
C121 H95 0.950 . S
C121 C120 1.405 . S
C121 C122 1.367 . S
C122 H96 0.950 . S
C122 C117 1.386 . S
C122 C121 1.367 . S
C123 C117 1.483 . S
C123 C124 1.382 . S
C123 C125 1.403 . S
C124 H97 0.950 . S
C124 C110 1.411 . S
C124 C123 1.382 . S
C125 C109 1.411 . S
C125 C123 1.403 . S
C125 C126 1.489 . S
C126 C125 1.489 . S
C126 C127 1.383 . S
C126 C131 1.382 . S
C127 H98 0.950 . S
C127 C126 1.383 . S
C127 C128 1.395 . S
C128 H99 0.950 . S
C128 C127 1.395 . S
C128 C129 1.288 . S
C129 C128 1.288 . S
C129 C130 1.392 . S
C130 H100 0.951 . S
C130 C129 1.392 . S
C130 C131 1.392 . S
C131 H101 0.949 . S
C131 C126 1.382 . S
C131 C130 1.392 . S
H132 C151 0.949 . S
H133 C152 0.950 . S
H134 C154 0.950 . S
H135 C155 0.950 . S
H136 C157 0.950 . S
H137 C160 0.950 . S
H138 C161 0.950 . S
H139 C163 0.951 . S
H140 C164 0.949 . S
H141 C166 0.949 . S
H142 C167 0.950 . S
H143 C169 0.950 . S
H144 C170 0.950 . S
H145 C172 0.950 . S
H146 C175 0.950 . S
H147 C176 0.950 . S
H148 C178 0.951 . S
H149 C179 0.949 . S
C150 C151 1.376 . S
C150 C155 1.386 . S
C150 C156 1.483 . S
C151 H132 0.949 . S
C151 C150 1.376 . S
C151 C152 1.397 . S
C152 H133 0.950 . S
C152 C151 1.397 . S
C152 C153 1.391 . S
C153 C152 1.391 . S
C153 C154 1.405 . S
C154 H134 0.950 . S
C154 C153 1.405 . S
C154 C155 1.367 . S
C155 H135 0.950 . S
C155 C150 1.386 . S
C155 C154 1.367 . S
C156 C150 1.483 . S
C156 C157 1.382 . S
C156 C158 1.403 . S
C157 H136 0.950 . S
C157 C156 1.382 . S
C157 C173 1.411 . S
C158 C156 1.403 . S
C158 C159 1.489 . S
C158 C172 1.411 . S
C159 C158 1.489 . S
C159 C160 1.383 . S
C159 C164 1.382 . S
C160 H137 0.950 . S
C160 C159 1.383 . S
C160 C161 1.395 . S
C161 H138 0.950 . S
C161 C160 1.395 . S
C161 C162 1.288 . S
C162 C161 1.288 . S
C162 C163 1.392 . S
C163 H139 0.951 . S
C163 C162 1.392 . S
C163 C164 1.392 . S
C164 H140 0.949 . S
C164 C159 1.382 . S
C164 C163 1.392 . S
C165 C166 1.376 . S
C165 C170 1.386 . S
C165 C171 1.483 . S
C166 H141 0.949 . S
C166 C165 1.376 . S
C166 C167 1.397 . S
C167 H142 0.950 . S
C167 C166 1.397 . S
C167 C168 1.391 . S
C168 C167 1.391 . S
C168 C169 1.405 . S
C169 H143 0.950 . S
C169 C168 1.405 . S
C169 C170 1.367 . S
C170 H144 0.950 . S
C170 C165 1.386 . S
C170 C169 1.367 . S
C171 C165 1.483 . S
C171 C172 1.382 . S
C171 C173 1.403 . S
C172 H145 0.950 . S
C172 C158 1.411 . S
C172 C171 1.382 . S
C173 C157 1.411 . S
C173 C171 1.403 . S
C173 C174 1.489 . S
C174 C173 1.489 . S
C174 C175 1.383 . S
C174 C179 1.382 . S
C175 H146 0.950 . S
C175 C174 1.383 . S
C175 C176 1.395 . S
C176 H147 0.950 . S
C176 C175 1.395 . S
C176 C177 1.288 . S
C177 C176 1.288 . S
C177 C178 1.392 . S
C178 H148 0.951 . S
C178 C177 1.392 . S
C178 C179 1.392 . S
C179 H149 0.949 . S
C179 C174 1.382 . S
C179 C178 1.392 . S
H180 C199 0.949 . S
H181 C200 0.950 . S
H182 C202 0.950 . S
H183 C203 0.950 . S
H184 C205 0.950 . S
H185 C208 0.950 . S
H186 C209 0.950 . S
H187 C211 0.951 . S
H188 C212 0.949 . S
H189 C214 0.949 . S
H190 C215 0.950 . S
H191 C217 0.950 . S
H192 C218 0.950 . S
H193 C220 0.950 . S
H194 C223 0.950 . S
H195 C224 0.950 . S
H196 C226 0.951 . S
H197 C227 0.949 . S
C198 C199 1.376 . S
C198 C203 1.386 . S
C198 C204 1.483 . S
C199 H180 0.949 . S
C199 C198 1.376 . S
C199 C200 1.397 . S
C200 H181 0.950 . S
C200 C199 1.397 . S
C200 C201 1.391 . S
C201 C200 1.391 . S
C201 C202 1.405 . S
C202 H182 0.950 . S
C202 C201 1.405 . S
C202 C203 1.367 . S
C203 H183 0.950 . S
C203 C198 1.386 . S
C203 C202 1.367 . S
C204 C198 1.483 . S
C204 C205 1.382 . S
C204 C206 1.403 . S
C205 H184 0.950 . S
C205 C204 1.382 . S
C205 C221 1.411 . S
C206 C204 1.403 . S
C206 C207 1.489 . S
C206 C220 1.411 . S
C207 C206 1.489 . S
C207 C208 1.383 . S
C207 C212 1.382 . S
C208 H185 0.950 . S
C208 C207 1.383 . S
C208 C209 1.395 . S
C209 H186 0.950 . S
C209 C208 1.395 . S
C209 C210 1.288 . S
C210 C209 1.288 . S
C210 C211 1.392 . S
C211 H187 0.951 . S
C211 C210 1.392 . S
C211 C212 1.392 . S
C212 H188 0.949 . S
C212 C207 1.382 . S
C212 C211 1.392 . S
C213 C214 1.376 . S
C213 C218 1.386 . S
C213 C219 1.483 . S
C214 H189 0.949 . S
C214 C213 1.376 . S
C214 C215 1.397 . S
C215 H190 0.950 . S
C215 C214 1.397 . S
C215 C216 1.391 . S
C216 C215 1.391 . S
C216 C217 1.405 . S
C217 H191 0.950 . S
C217 C216 1.405 . S
C217 C218 1.367 . S
C218 H192 0.950 . S
C218 C213 1.386 . S
C218 C217 1.367 . S
C219 C213 1.483 . S
C219 C220 1.382 . S
C219 C221 1.403 . S
C220 H193 0.950 . S
C220 C206 1.411 . S
C220 C219 1.382 . S
C221 C205 1.411 . S
C221 C219 1.403 . S
C221 C222 1.489 . S
C222 C221 1.489 . S
C222 C223 1.383 . S
C222 C227 1.382 . S
C223 H194 0.950 . S
C223 C222 1.383 . S
C223 C224 1.395 . S
C224 H195 0.950 . S
C224 C223 1.395 . S
C224 C225 1.288 . S
C225 C224 1.288 . S
C225 C226 1.392 . S
C226 H196 0.951 . S
C226 C225 1.392 . S
C226 C227 1.392 . S
C227 H197 0.949 . S
C227 C222 1.382 . S
C227 C226 1.392 . S
H228 C247 0.949 . S
H229 C248 0.950 . S
H230 C250 0.950 . S
H231 C251 0.950 . S
H232 C253 0.950 . S
H233 C256 0.950 . S
H234 C257 0.950 . S
H235 C259 0.951 . S
H236 C260 0.949 . S
H237 C262 0.949 . S
H238 C263 0.950 . S
H239 C265 0.950 . S
H240 C266 0.950 . S
H241 C268 0.950 . S
H242 C271 0.950 . S
H243 C272 0.950 . S
H244 C274 0.951 . S
H245 C275 0.949 . S
C246 C247 1.376 . S
C246 C251 1.386 . S
C246 C252 1.483 . S
C247 H228 0.949 . S
C247 C246 1.376 . S
C247 C248 1.397 . S
C248 H229 0.950 . S
C248 C247 1.397 . S
C248 C249 1.391 . S
C249 C248 1.391 . S
C249 C250 1.405 . S
C250 H230 0.950 . S
C250 C249 1.405 . S
C250 C251 1.367 . S
C251 H231 0.950 . S
C251 C246 1.386 . S
C251 C250 1.367 . S
C252 C246 1.483 . S
C252 C253 1.382 . S
C252 C254 1.403 . S
C253 H232 0.950 . S
C253 C252 1.382 . S
C253 C269 1.411 . S
C254 C252 1.403 . S
C254 C255 1.489 . S
C254 C268 1.411 . S
C255 C254 1.489 . S
C255 C256 1.383 . S
C255 C260 1.382 . S
C256 H233 0.950 . S
C256 C255 1.383 . S
C256 C257 1.395 . S
C257 H234 0.950 . S
C257 C256 1.395 . S
C257 C258 1.288 . S
C258 C257 1.288 . S
C258 C259 1.392 . S
C259 H235 0.951 . S
C259 C258 1.392 . S
C259 C260 1.392 . S
C260 H236 0.949 . S
C260 C255 1.382 . S
C260 C259 1.392 . S
C261 C262 1.376 . S
C261 C266 1.386 . S
C261 C267 1.483 . S
C262 H237 0.949 . S
C262 C261 1.376 . S
C262 C263 1.397 . S
C263 H238 0.950 . S
C263 C262 1.397 . S
C263 C264 1.391 . S
C264 C263 1.391 . S
C264 C265 1.405 . S
C265 H239 0.950 . S
C265 C264 1.405 . S
C265 C266 1.367 . S
C266 H240 0.950 . S
C266 C261 1.386 . S
C266 C265 1.367 . S
C267 C261 1.483 . S
C267 C268 1.382 . S
C267 C269 1.403 . S
C268 H241 0.950 . S
C268 C254 1.411 . S
C268 C267 1.382 . S
C269 C253 1.411 . S
C269 C267 1.403 . S
C269 C270 1.489 . S
C270 C269 1.489 . S
C270 C271 1.383 . S
C270 C275 1.382 . S
C271 H242 0.950 . S
C271 C270 1.383 . S
C271 C272 1.395 . S
C272 H243 0.950 . S
C272 C271 1.395 . S
C272 C273 1.288 . S
C273 C272 1.288 . S
C273 C274 1.392 . S
C274 H244 0.951 . S
C274 C273 1.392 . S
C274 C275 1.392 . S
C275 H245 0.949 . S
C275 C270 1.382 . S
C275 C274 1.392 . S
H276 C295 0.949 . S
H277 C296 0.950 . S
H278 C298 0.950 . S
H279 C299 0.950 . S
H280 C301 0.950 . S
H281 C304 0.950 . S
H282 C305 0.950 . S
H283 C307 0.951 . S
H284 C308 0.949 . S
H285 C310 0.949 . S
H286 C311 0.950 . S
H287 C313 0.950 . S
H288 C314 0.950 . S
H289 C316 0.950 . S
H290 C319 0.950 . S
H291 C320 0.950 . S
H292 C322 0.951 . S
H293 C323 0.949 . S
C294 C295 1.376 . S
C294 C299 1.386 . S
C294 C300 1.483 . S
C295 H276 0.949 . S
C295 C294 1.376 . S
C295 C296 1.397 . S
C296 H277 0.950 . S
C296 C295 1.397 . S
C296 C297 1.391 . S
C297 C296 1.391 . S
C297 C298 1.405 . S
C298 H278 0.950 . S
C298 C297 1.405 . S
C298 C299 1.367 . S
C299 H279 0.950 . S
C299 C294 1.386 . S
C299 C298 1.367 . S
C300 C294 1.483 . S
C300 C301 1.382 . S
C300 C302 1.403 . S
C301 H280 0.950 . S
C301 C300 1.382 . S
C301 C317 1.411 . S
C302 C300 1.403 . S
C302 C303 1.489 . S
C302 C316 1.411 . S
C303 C302 1.489 . S
C303 C304 1.383 . S
C303 C308 1.382 . S
C304 H281 0.950 . S
C304 C303 1.383 . S
C304 C305 1.395 . S
C305 H282 0.950 . S
C305 C304 1.395 . S
C305 C306 1.288 . S
C306 C305 1.288 . S
C306 C307 1.392 . S
C307 H283 0.951 . S
C307 C306 1.392 . S
C307 C308 1.392 . S
C308 H284 0.949 . S
C308 C303 1.382 . S
C308 C307 1.392 . S
C309 C310 1.376 . S
C309 C314 1.386 . S
C309 C315 1.483 . S
C310 H285 0.949 . S
C310 C309 1.376 . S
C310 C311 1.397 . S
C311 H286 0.950 . S
C311 C310 1.397 . S
C311 C312 1.391 . S
C312 C311 1.391 . S
C312 C313 1.405 . S
C313 H287 0.950 . S
C313 C312 1.405 . S
C313 C314 1.367 . S
C314 H288 0.950 . S
C314 C309 1.386 . S
C314 C313 1.367 . S
C315 C309 1.483 . S
C315 C316 1.382 . S
C315 C317 1.403 . S
C316 H289 0.950 . S
C316 C302 1.411 . S
C316 C315 1.382 . S
C317 C301 1.411 . S
C317 C315 1.403 . S
C317 C318 1.489 . S
C318 C317 1.489 . S
C318 C319 1.383 . S
C318 C323 1.382 . S
C319 H290 0.950 . S
C319 C318 1.383 . S
C319 C320 1.395 . S
C320 H291 0.950 . S
C320 C319 1.395 . S
C320 C321 1.288 . S
C321 C320 1.288 . S
C321 C322 1.392 . S
C322 H292 0.951 . S
C322 C321 1.392 . S
C322 C323 1.392 . S
C323 H293 0.949 . S
C323 C318 1.382 . S
C323 C322 1.392 . S
H324 C343 0.949 . S
H325 C344 0.950 . S
H326 C346 0.950 . S
H327 C347 0.950 . S
H328 C349 0.950 . S
H329 C352 0.950 . S
H330 C353 0.950 . S
H331 C355 0.951 . S
H332 C356 0.949 . S
H333 C358 0.949 . S
H334 C359 0.950 . S
H335 C361 0.950 . S
H336 C362 0.950 . S
H337 C364 0.950 . S
H338 C367 0.950 . S
H339 C368 0.950 . S
H340 C370 0.951 . S
H341 C371 0.949 . S
C342 C343 1.376 . S
C342 C347 1.386 . S
C342 C348 1.483 . S
C343 H324 0.949 . S
C343 C342 1.376 . S
C343 C344 1.397 . S
C344 H325 0.950 . S
C344 C343 1.397 . S
C344 C345 1.391 . S
C345 C344 1.391 . S
C345 C346 1.405 . S
C346 H326 0.950 . S
C346 C345 1.405 . S
C346 C347 1.367 . S
C347 H327 0.950 . S
C347 C342 1.386 . S
C347 C346 1.367 . S
C348 C342 1.483 . S
C348 C349 1.382 . S
C348 C350 1.403 . S
C349 H328 0.950 . S
C349 C348 1.382 . S
C349 C365 1.411 . S
C350 C348 1.403 . S
C350 C351 1.489 . S
C350 C364 1.411 . S
C351 C350 1.489 . S
C351 C352 1.383 . S
C351 C356 1.382 . S
C352 H329 0.950 . S
C352 C351 1.383 . S
C352 C353 1.395 . S
C353 H330 0.950 . S
C353 C352 1.395 . S
C353 C354 1.288 . S
C354 C353 1.288 . S
C354 C355 1.392 . S
C355 H331 0.951 . S
C355 C354 1.392 . S
C355 C356 1.392 . S
C356 H332 0.949 . S
C356 C351 1.382 . S
C356 C355 1.392 . S
C357 C358 1.376 . S
C357 C362 1.386 . S
C357 C363 1.483 . S
C358 H333 0.949 . S
C358 C357 1.376 . S
C358 C359 1.397 . S
C359 H334 0.950 . S
C359 C358 1.397 . S
C359 C360 1.391 . S
C360 C359 1.391 . S
C360 C361 1.405 . S
C361 H335 0.950 . S
C361 C360 1.405 . S
C361 C362 1.367 . S
C362 H336 0.950 . S
C362 C357 1.386 . S
C362 C361 1.367 . S
C363 C357 1.483 . S
C363 C364 1.382 . S
C363 C365 1.403 . S
C364 H337 0.950 . S
C364 C350 1.411 . S
C364 C363 1.382 . S
C365 C349 1.411 . S
C365 C363 1.403 . S
C365 C366 1.489 . S
C366 C365 1.489 . S
C366 C367 1.383 . S
C366 C371 1.382 . S
C367 H338 0.950 . S
C367 C366 1.383 . S
C367 C368 1.395 . S
C368 H339 0.950 . S
C368 C367 1.395 . S
C368 C369 1.288 . S
C369 C368 1.288 . S
C369 C370 1.392 . S
C370 H340 0.951 . S
C370 C369 1.392 . S
C370 C371 1.392 . S
C371 H341 0.949 . S
C371 C366 1.382 . S
C371 C370 1.392 . S
C372 C373 1.387 . S
C372 H376 0.950 . S
C372 C381 1.390 . S
C373 C372 1.387 . S
C373 C375 1.387 . S
H374 C381 0.950 . S
C375 C373 1.387 . S
C375 C377 1.390 . S
C375 H379 0.950 . S
H376 C372 0.950 . S
C377 C375 1.390 . S
C377 C378 1.387 . S
C377 H380 0.950 . S
C378 C377 1.387 . S
C378 C381 1.387 . S
H379 C375 0.950 . S
H380 C377 0.950 . S
C381 C372 1.390 . S
C381 H374 0.950 . S
C381 C378 1.387 . S
C382 C383 1.387 . S
C382 H386 0.950 . S
C382 C391 1.390 . S
C383 C382 1.387 . S
C383 C385 1.387 . S
H384 C391 0.950 . S
C385 C383 1.387 . S
C385 C387 1.390 . S
C385 H389 0.950 . S
H386 C382 0.950 . S
C387 C385 1.390 . S
C387 C388 1.387 . S
C387 H390 0.950 . S
C388 C387 1.387 . S
C388 C391 1.387 . S
H389 C385 0.950 . S
H390 C387 0.950 . S
C391 C382 1.390 . S
C391 H384 0.950 . S
C391 C388 1.387 . S
C392 C393 1.387 . S
C392 H396 0.950 . S
C392 C401 1.390 . S
C393 C392 1.387 . S
C393 C395 1.387 . S
H394 C401 0.950 . S
C395 C393 1.387 . S
C395 C397 1.390 . S
C395 H399 0.950 . S
H396 C392 0.950 . S
C397 C395 1.390 . S
C397 C398 1.387 . S
C397 H400 0.950 . S
C398 C397 1.387 . S
C398 C401 1.387 . S
H399 C395 0.950 . S
H400 C397 0.950 . S
C401 C392 1.390 . S
C401 H394 0.950 . S
C401 C398 1.387 . S
C402 C403 1.387 . S
C402 H406 0.950 . S
C402 C411 1.390 . S
C403 C402 1.387 . S
C403 C405 1.387 . S
H404 C411 0.950 . S
C405 C403 1.387 . S
C405 C407 1.390 . S
C405 H409 0.950 . S
H406 C402 0.950 . S
C407 C405 1.390 . S
C407 C408 1.387 . S
C407 H410 0.950 . S
C408 C407 1.387 . S
C408 C411 1.387 . S
H409 C405 0.950 . S
H410 C407 0.950 . S
C411 C402 1.390 . S
C411 H404 0.950 . S
C411 C408 1.387 . S
C412 C413 1.387 . S
C412 H416 0.950 . S
C412 C421 1.390 . S
C413 C412 1.387 . S
C413 C415 1.387 . S
H414 C421 0.950 . S
C415 C413 1.387 . S
C415 C417 1.390 . S
C415 H419 0.950 . S
H416 C412 0.950 . S
C417 C415 1.390 . S
C417 C418 1.387 . S
C417 H420 0.950 . S
C418 C417 1.387 . S
C418 C421 1.387 . S
H419 C415 0.950 . S
H420 C417 0.950 . S
C421 C412 1.390 . S
C421 H414 0.950 . S
C421 C418 1.387 . S
C422 C423 1.387 . S
C422 H426 0.950 . S
C422 C431 1.390 . S
C423 C422 1.387 . S
C423 C425 1.387 . S
H424 C431 0.950 . S
C425 C423 1.387 . S
C425 C427 1.390 . S
C425 H429 0.950 . S
H426 C422 0.950 . S
C427 C425 1.390 . S
C427 C428 1.387 . S
C427 H430 0.950 . S
C428 C427 1.387 . S
C428 C431 1.387 . S
H429 C425 0.950 . S
H430 C427 0.950 . S
C431 C422 1.390 . S
C431 H424 0.950 . S
C431 C428 1.387 . S
C432 C433 1.387 . S
C432 H436 0.950 . S
C432 C441 1.390 . S
C433 C432 1.387 . S
C433 C435 1.387 . S
H434 C441 0.950 . S
C435 C433 1.387 . S
C435 C437 1.390 . S
C435 H439 0.950 . S
H436 C432 0.950 . S
C437 C435 1.390 . S
C437 C438 1.387 . S
C437 H440 0.950 . S
C438 C437 1.387 . S
C438 C441 1.387 . S
H439 C435 0.950 . S
H440 C437 0.950 . S
C441 C432 1.390 . S
C441 H434 0.950 . S
C441 C438 1.387 . S
C442 C443 1.387 . S
C442 H446 0.950 . S
C442 C451 1.390 . S
C443 C442 1.387 . S
C443 C445 1.387 . S
H444 C451 0.950 . S
C445 C443 1.387 . S
C445 C447 1.390 . S
C445 H449 0.950 . S
H446 C442 0.950 . S
C447 C445 1.390 . S
C447 C448 1.387 . S
C447 H450 0.950 . S
C448 C447 1.387 . S
C448 C451 1.387 . S
H449 C445 0.950 . S
H450 C447 0.950 . S
C451 C442 1.390 . S
C451 H444 0.950 . S
C451 C448 1.387 . S
C452 C453 1.387 . S
C452 H456 0.950 . S
C452 C461 1.390 . S
C453 C452 1.387 . S
C453 C455 1.387 . S
H454 C461 0.950 . S
C455 C453 1.387 . S
C455 C457 1.390 . S
C455 H459 0.950 . S
H456 C452 0.950 . S
C457 C455 1.390 . S
C457 C458 1.387 . S
C457 H460 0.950 . S
C458 C457 1.387 . S
C458 C461 1.387 . S
H459 C455 0.950 . S
H460 C457 0.950 . S
C461 C452 1.390 . S
C461 H454 0.950 . S
C461 C458 1.387 . S
C462 C463 1.387 . S
C462 H466 0.950 . S
C462 C471 1.390 . S
C463 C462 1.387 . S
C463 C465 1.387 . S
H464 C471 0.950 . S
C465 C463 1.387 . S
C465 C467 1.390 . S
C465 H469 0.950 . S
H466 C462 0.950 . S
C467 C465 1.390 . S
C467 C468 1.387 . S
C467 H470 0.950 . S
C468 C467 1.387 . S
C468 C471 1.387 . S
H469 C465 0.950 . S
H470 C467 0.950 . S
C471 C462 1.390 . S
C471 H464 0.950 . S
C471 C468 1.387 . S
C472 C473 1.387 . S
C472 H476 0.950 . S
C472 C481 1.390 . S
C473 C472 1.387 . S
C473 C475 1.387 . S
H474 C481 0.950 . S
C475 C473 1.387 . S
C475 C477 1.390 . S
C475 H479 0.950 . S
H476 C472 0.950 . S
C477 C475 1.390 . S
C477 C478 1.387 . S
C477 H480 0.950 . S
C478 C477 1.387 . S
C478 C481 1.387 . S
H479 C475 0.950 . S
H480 C477 0.950 . S
C481 C472 1.390 . S
C481 H474 0.950 . S
C481 C478 1.387 . S
C482 C483 1.387 . S
C482 H486 0.950 . S
C482 C491 1.390 . S
C483 C482 1.387 . S
C483 C485 1.387 . S
H484 C491 0.950 . S
C485 C483 1.387 . S
C485 C487 1.390 . S
C485 H489 0.950 . S
H486 C482 0.950 . S
C487 C485 1.390 . S
C487 C488 1.387 . S
C487 H490 0.950 . S
C488 C487 1.387 . S
C488 C491 1.387 . S
H489 C485 0.950 . S
H490 C487 0.950 . S
C491 C482 1.390 . S
C491 H484 0.950 . S
C491 C488 1.387 . S
C492 C493 1.387 . S
C492 H496 0.950 . S
C492 C501 1.390 . S
C493 C492 1.387 . S
C493 C495 1.387 . S
H494 C501 0.950 . S
C495 C493 1.387 . S
C495 C497 1.390 . S
C495 H499 0.950 . S
H496 C492 0.950 . S
C497 C495 1.390 . S
C497 C498 1.387 . S
C497 H500 0.950 . S
C498 C497 1.387 . S
C498 C501 1.387 . S
H499 C495 0.950 . S
H500 C497 0.950 . S
C501 C492 1.390 . S
C501 H494 0.950 . S
C501 C498 1.387 . S
C502 C503 1.387 . S
C502 H506 0.950 . S
C502 C511 1.390 . S
C503 C502 1.387 . S
C503 C505 1.387 . S
H504 C511 0.950 . S
C505 C503 1.387 . S
C505 C507 1.390 . S
C505 H509 0.950 . S
H506 C502 0.950 . S
C507 C505 1.390 . S
C507 C508 1.387 . S
C507 H510 0.950 . S
C508 C507 1.387 . S
C508 C511 1.387 . S
H509 C505 0.950 . S
H510 C507 0.950 . S
C511 C502 1.390 . S
C511 H504 0.950 . S
C511 C508 1.387 . S
C512 C513 1.387 . S
C512 H516 0.950 . S
C512 C521 1.390 . S
C513 C512 1.387 . S
C513 C515 1.387 . S
H514 C521 0.950 . S
C515 C513 1.387 . S
C515 C517 1.390 . S
C515 H519 0.950 . S
H516 C512 0.950 . S
C517 C515 1.390 . S
C517 C518 1.387 . S
C517 H520 0.950 . S
C518 C517 1.387 . S
C518 C521 1.387 . S
H519 C515 0.950 . S
H520 C517 0.950 . S
C521 C512 1.390 . S
C521 H514 0.950 . S
C521 C518 1.387 . S
C522 C523 1.387 . S
C522 H526 0.950 . S
C522 C531 1.390 . S
C523 C522 1.387 . S
C523 C525 1.387 . S
H524 C531 0.950 . S
C525 C523 1.387 . S
C525 C527 1.390 . S
C525 H529 0.950 . S
H526 C522 0.950 . S
C527 C525 1.390 . S
C527 C528 1.387 . S
C527 H530 0.950 . S
C528 C527 1.387 . S
C528 C531 1.387 . S
H529 C525 0.950 . S
H530 C527 0.950 . S
C531 C522 1.390 . S
C531 H524 0.950 . S
C531 C528 1.387 . S
C532 C533 1.387 . S
C532 H536 0.950 . S
C532 C541 1.390 . S
C533 C532 1.387 . S
C533 C535 1.387 . S
H534 C541 0.950 . S
C535 C533 1.387 . S
C535 C537 1.390 . S
C535 H539 0.950 . S
H536 C532 0.950 . S
C537 C535 1.390 . S
C537 C538 1.387 . S
C537 H540 0.950 . S
C538 C537 1.387 . S
C538 C541 1.387 . S
H539 C535 0.950 . S
H540 C537 0.950 . S
C541 C532 1.390 . S
C541 H534 0.950 . S
C541 C538 1.387 . S
C542 C543 1.387 . S
C542 H546 0.950 . S
C542 C551 1.390 . S
C543 C542 1.387 . S
C543 C545 1.387 . S
H544 C551 0.950 . S
C545 C543 1.387 . S
C545 C547 1.390 . S
C545 H549 0.950 . S
H546 C542 0.950 . S
C547 C545 1.390 . S
C547 C548 1.387 . S
C547 H550 0.950 . S
C548 C547 1.387 . S
C548 C551 1.387 . S
H549 C545 0.950 . S
H550 C547 0.950 . S
C551 C542 1.390 . S
C551 H544 0.950 . S
C551 C548 1.387 . S
C552 C553 1.387 . S
C552 H556 0.950 . S
C552 C561 1.390 . S
C553 C552 1.387 . S
C553 C555 1.387 . S
H554 C561 0.950 . S
C555 C553 1.387 . S
C555 C557 1.390 . S
C555 H559 0.950 . S
H556 C552 0.950 . S
C557 C555 1.390 . S
C557 C558 1.387 . S
C557 H560 0.950 . S
C558 C557 1.387 . S
C558 C561 1.387 . S
H559 C555 0.950 . S
H560 C557 0.950 . S
C561 C552 1.390 . S
C561 H554 0.950 . S
C561 C558 1.387 . S
C562 C563 1.387 . S
C562 H566 0.950 . S
C562 C571 1.390 . S
C563 C562 1.387 . S
C563 C565 1.387 . S
H564 C571 0.950 . S
C565 C563 1.387 . S
C565 C567 1.390 . S
C565 H569 0.950 . S
H566 C562 0.950 . S
C567 C565 1.390 . S
C567 C568 1.387 . S
C567 H570 0.950 . S
C568 C567 1.387 . S
C568 C571 1.387 . S
H569 C565 0.950 . S
H570 C567 0.950 . S
C571 C562 1.390 . S
C571 H564 0.950 . S
C571 C568 1.387 . S
C572 C573 1.387 . S
C572 H576 0.950 . S
C572 C581 1.390 . S
C573 C572 1.387 . S
C573 C575 1.387 . S
H574 C581 0.950 . S
C575 C573 1.387 . S
C575 C577 1.390 . S
C575 H579 0.950 . S
H576 C572 0.950 . S
C577 C575 1.390 . S
C577 C578 1.387 . S
C577 H580 0.950 . S
C578 C577 1.387 . S
C578 C581 1.387 . S
H579 C575 0.950 . S
H580 C577 0.950 . S
C581 C572 1.390 . S
C581 H574 0.950 . S
C581 C578 1.387 . S
C582 C583 1.387 . S
C582 H586 0.950 . S
C582 C591 1.390 . S
C583 C582 1.387 . S
C583 C585 1.387 . S
H584 C591 0.950 . S
C585 C583 1.387 . S
C585 C587 1.390 . S
C585 H589 0.950 . S
H586 C582 0.950 . S
C587 C585 1.390 . S
C587 C588 1.387 . S
C587 H590 0.950 . S
C588 C587 1.387 . S
C588 C591 1.387 . S
H589 C585 0.950 . S
H590 C587 0.950 . S
C591 C582 1.390 . S
C591 H584 0.950 . S
C591 C588 1.387 . S
C592 C593 1.387 . S
C592 H596 0.950 . S
C592 C601 1.390 . S
C593 C592 1.387 . S
C593 C595 1.387 . S
H594 C601 0.950 . S
C595 C593 1.387 . S
C595 C597 1.390 . S
C595 H599 0.950 . S
H596 C592 0.950 . S
C597 C595 1.390 . S
C597 C598 1.387 . S
C597 H600 0.950 . S
C598 C597 1.387 . S
C598 C601 1.387 . S
H599 C595 0.950 . S
H600 C597 0.950 . S
C601 C592 1.390 . S
C601 H594 0.950 . S
C601 C598 1.387 . S
C602 C603 1.387 . S
C602 H606 0.950 . S
C602 C611 1.390 . S
C603 C602 1.387 . S
C603 C605 1.387 . S
H604 C611 0.950 . S
C605 C603 1.387 . S
C605 C607 1.390 . S
C605 H609 0.950 . S
H606 C602 0.950 . S
C607 C605 1.390 . S
C607 C608 1.387 . S
C607 H610 0.950 . S
C608 C607 1.387 . S
C608 C611 1.387 . S
H609 C605 0.950 . S
H610 C607 0.950 . S
C611 C602 1.390 . S
C611 H604 0.950 . S
C611 C608 1.387 . S
C373 C13 1.771 . S
C378 C105 1.736 . S
C383 C27 1.768 . S
C388 C162 1.760 . S
C398 C216 1.708 . S
C393 C29 1.772 . S
C408 C273 1.671 . S
C403 C54 1.767 . S
C418 C297 1.737 . S
C413 C69 1.771 . S
C428 C354 1.758 . S
C423 C83 1.766 . S
C433 C15 1.772 . S
C438 C201 1.739 . S
C443 C41 1.766 . S
C448 C258 1.758 . S
C458 C312 1.708 . S
C453 C42 1.773 . S
C468 C369 1.674 . S
C463 C57 1.768 . S
C473 C71 1.771 . S
C478 C120 1.707 . S
C488 C177 1.674 . S
C483 C1 1.767 . S
C498 C264 1.739 . S
C493 C12 1.773 . S
C503 C26 1.766 . S
C508 C306 1.671 . S
C518 C345 1.708 . S
C513 C28 1.772 . S
C523 C55 1.767 . S
C528 C114 1.672 . S
C533 C68 1.771 . S
C538 C153 1.705 . S
C543 C82 1.766 . S
C548 C225 1.758 . S
C553 C14 1.771 . S
C558 C360 1.736 . S
C568 C129 1.760 . S
C563 C40 1.768 . S
C573 C43 1.773 . S
C578 C168 1.739 . S
C583 C56 1.768 . S
C588 C210 1.675 . S
C593 C70 1.771 . S
C598 C249 1.706 . S
C603 C0 1.767 . S
C608 C321 1.760 . S
