# Generated by pormake.
# Topology zzz, (3,6)-cn, num edge types: 1
# Building blocks:
#     Node 0, Type 0, BuildingBlock: BETDAH_clean_linker_0, # of connection points: 3
#     Node 1, Type 0, BuildingBlock: BETDAH_clean_linker_0, # of connection points: 3
#     Node 2, Type 0, BuildingBlock: BETDAH_clean_linker_0, # of connection points: 3
#     Node 3, Type 0, BuildingBlock: BETDAH_clean_linker_0, # of connection points: 3
#     Node 4, Type 0, BuildingBlock: BETDAH_clean_linker_0, # of connection points: 3
#     Node 5, Type 0, BuildingBlock: BETDAH_clean_linker_0, # of connection points: 3
#     Node 6, Type 0, BuildingBlock: BETDAH_clean_linker_0, # of connection points: 3
#     Node 7, Type 0, BuildingBlock: BETDAH_clean_linker_0, # of connection points: 3
#     Node 8, Type 1, BuildingBlock: KUMJIN_clean_sbu_0, # of connection points: 6
#     Node 9, Type 1, BuildingBlock: KUMJIN_clean_sbu_0, # of connection points: 6
#     Node 10, Type 1, BuildingBlock: KUMJIN_clean_sbu_0, # of connection points: 6
#     Node 11, Type 1, BuildingBlock: KUMJIN_clean_sbu_0, # of connection points: 6
#     Edge 12, Type (0, 1), BuildingBlock: TEMPAE_clean_linker_10, # of connection points: 2
#     Edge 13, Type (0, 1), BuildingBlock: TEMPAE_clean_linker_10, # of connection points: 2
#     Edge 14, Type (0, 1), BuildingBlock: TEMPAE_clean_linker_10, # of connection points: 2
#     Edge 15, Type (0, 1), BuildingBlock: TEMPAE_clean_linker_10, # of connection points: 2
#     Edge 16, Type (0, 1), BuildingBlock: TEMPAE_clean_linker_10, # of connection points: 2
#     Edge 17, Type (0, 1), BuildingBlock: TEMPAE_clean_linker_10, # of connection points: 2
#     Edge 18, Type (0, 1), BuildingBlock: TEMPAE_clean_linker_10, # of connection points: 2
#     Edge 19, Type (0, 1), BuildingBlock: TEMPAE_clean_linker_10, # of connection points: 2
#     Edge 20, Type (0, 1), BuildingBlock: TEMPAE_clean_linker_10, # of connection points: 2
#     Edge 21, Type (0, 1), BuildingBlock: TEMPAE_clean_linker_10, # of connection points: 2
#     Edge 22, Type (0, 1), BuildingBlock: TEMPAE_clean_linker_10, # of connection points: 2
#     Edge 23, Type (0, 1), BuildingBlock: TEMPAE_clean_linker_10, # of connection points: 2
#     Edge 24, Type (0, 1), BuildingBlock: TEMPAE_clean_linker_10, # of connection points: 2
#     Edge 25, Type (0, 1), BuildingBlock: TEMPAE_clean_linker_10, # of connection points: 2
#     Edge 26, Type (0, 1), BuildingBlock: TEMPAE_clean_linker_10, # of connection points: 2
#     Edge 27, Type (0, 1), BuildingBlock: TEMPAE_clean_linker_10, # of connection points: 2
#     Edge 28, Type (0, 1), BuildingBlock: TEMPAE_clean_linker_10, # of connection points: 2
#     Edge 29, Type (0, 1), BuildingBlock: TEMPAE_clean_linker_10, # of connection points: 2
#     Edge 30, Type (0, 1), BuildingBlock: TEMPAE_clean_linker_10, # of connection points: 2
#     Edge 31, Type (0, 1), BuildingBlock: TEMPAE_clean_linker_10, # of connection points: 2
#     Edge 32, Type (0, 1), BuildingBlock: TEMPAE_clean_linker_10, # of connection points: 2
#     Edge 33, Type (0, 1), BuildingBlock: TEMPAE_clean_linker_10, # of connection points: 2
#     Edge 34, Type (0, 1), BuildingBlock: TEMPAE_clean_linker_10, # of connection points: 2
#     Edge 35, Type (0, 1), BuildingBlock: TEMPAE_clean_linker_10, # of connection points: 2
# Relax obj value: 0.176
# Max RMSD: 0.164
# Mean RMSD: 0.117
data_MOF--net-zzz--node1-KUMJIN_clean_sbu_0--node2-BETDAH_clean_linker_0--edge1-TEMPAE_clean_linker_10
_symmetry_space_group_name_H-M    P1
_symmetry_Int_Tables_number       1
_symmetry_cell_setting            triclinic
loop_
_symmetry_equiv_pos_as_xyz
'x, y, z'
_cell_length_a     51.25363
_cell_length_b     51.252751
_cell_length_c     15.060402
_cell_angle_alpha  90.846571
_cell_angle_beta   90.170279
_cell_angle_gamma 89.954369
loop_
_atom_site_label
_atom_site_type_symbol
_atom_site_fract_x
_atom_site_fract_y
_atom_site_fract_z
_atom_type_partial_charge
H0 H 0.81545 0.57313 0.25308 0.0
H1 H 0.74143 0.55783 0.12974 0.0
H2 H 0.75838 0.52784 0.3906 0.0
C3 C 0.79597 0.56509 0.25696 0.0
C4 C 0.78938 0.55038 0.33104 0.0
C5 C 0.77914 0.56724 0.18373 0.0
C6 C 0.75413 0.55634 0.18707 0.0
C7 C 0.74594 0.54288 0.26286 0.0
C8 C 0.76404 0.53924 0.33382 0.0
N9 N 0.72013 0.53222 0.26803 0.0
C10 C 0.70067 0.53397 0.20208 0.0
H11 H 0.97406 0.82483 0.22199 0.0
H12 H 0.98346 0.74601 0.12608 0.0
H13 H 0.03234 0.776 0.33776 0.0
C14 C 0.98282 0.80571 0.22747 0.0
C15 C 1.00284 0.80286 0.29025 0.0
C16 C 0.97632 0.7859 0.16516 0.0
C17 C 0.98878 0.76161 0.17172 0.0
C18 C 1.00923 0.7578 0.2325 0.0
C19 C 0.01637 0.77865 0.29154 0.0
N20 N 0.02345 0.73367 0.23233 0.0
C21 C 0.0205 0.71329 0.16905 0.0
H22 H 0.71676 0.97513 0.2119 0.0
H23 H 0.79678 0.98725 0.1438 0.0
H24 H 0.76252 0.03133 0.35892 0.0
C25 C 0.73507 0.98491 0.22419 0.0
C26 C 0.73638 1.00384 0.29281 0.0
C27 C 0.75616 0.98 0.16641 0.0
C28 C 0.78027 0.99167 0.18575 0.0
C29 C 0.7828 1.01022 0.25466 0.0
C30 C 0.76077 0.01628 0.30807 0.0
N31 N 0.80678 0.02411 0.2674 0.0
C32 C 0.82806 0.02294 0.20873 0.0
H33 H 0.55828 0.72091 0.26929 0.0
H34 H 0.5465 0.79744 0.16559 0.0
H35 H 0.52409 0.78043 0.43515 0.0
C36 C 0.55249 0.74105 0.27972 0.0
C37 C 0.5407 0.74816 0.36004 0.0
C38 C 0.55411 0.75844 0.20912 0.0
C39 C 0.54595 0.78435 0.22136 0.0
C40 C 0.53604 0.79284 0.3041 0.0
C41 C 0.53314 0.77447 0.37317 0.0
N42 N 0.52751 0.81916 0.31793 0.0
C43 C 0.52771 0.83868 0.25356 0.0
H44 H 0.22484 0.47555 0.04709 0.0
H45 H 0.29969 0.4845 0.17161 0.0
H46 H 0.28783 0.50939 0.90107 0.0
C47 C 0.24519 0.481 0.0424 0.0
C48 C 0.25401 0.4926 0.96472 0.0
C49 C 0.26138 0.47846 0.11694 0.0
C50 C 0.28754 0.48616 0.11297 0.0
C51 C 0.29767 0.49661 0.03424 0.0
C52 C 0.28054 0.50038 0.96067 0.0
N53 N 0.32456 0.50405 0.02817 0.0
C54 C 0.34324 0.50228 0.09658 0.0
H55 H 0.02338 0.20886 0.12437 0.0
H56 H 0.02891 0.28686 0.23103 0.0
H57 H 0.04486 0.2716 0.95339 0.0
C58 C 0.02799 0.22932 0.11542 0.0
C59 C 0.03486 0.2377 0.03086 0.0
C60 C 0.02578 0.24688 0.18738 0.0
C61 C 0.03071 0.27347 0.17508 0.0
C62 C 0.03773 0.28278 0.09121 0.0
C63 C 0.03975 0.26468 0.01866 0.0
N64 N 0.04244 0.31005 0.07838 0.0
C65 C 0.04021 0.32979 0.14418 0.0
H66 H 0.33223 0.04794 0.11759 0.0
H67 H 0.25173 0.04526 0.19342 0.0
H68 H 0.27272 0.04748 0.91584 0.0
C69 C 0.31175 0.04858 0.09904 0.0
C70 C 0.30506 0.04854 0.009 0.0
C71 C 0.29265 0.04709 0.16513 0.0
C72 C 0.26623 0.0467 0.14155 0.0
C73 C 0.25865 0.04729 0.05183 0.0
C74 C 0.27828 0.04777 0.98529 0.0
N75 N 0.23163 0.04665 0.02751 0.0
C76 C 0.21091 0.0456 0.0883 0.0
H77 H 0.45425 0.32436 0.07534 0.0
H78 H 0.46657 0.24998 0.19384 0.0
H79 H 0.49411 0.26399 0.92813 0.0
C80 C 0.46122 0.30447 0.06936 0.0
C81 C 0.47541 0.29692 0.99378 0.0
C82 C 0.45894 0.28815 0.14261 0.0
C83 C 0.46776 0.2623 0.13617 0.0
C84 C 0.47919 0.25292 0.05685 0.0
C85 C 0.48351 0.27056 0.98641 0.0
N86 N 0.48798 0.22652 0.04811 0.0
C87 C 0.48618 0.20748 0.11383 0.0
Eu88 Eu 0.04393 0.01608 0.73309 0.0
C89 C 0.97486 0.98205 0.45138 0.0
C90 C 0.98417 0.98933 0.29592 0.0
C91 C 0.95856 0.9517 0.33854 0.0
C92 C 0.98604 0.9971 0.38604 0.0
C93 C 0.96082 0.95928 0.4282 0.0
C94 C 0.97054 0.96647 0.27273 0.0
C95 C 0.95309 0.95247 0.58422 0.0
N96 N 0.9778 0.98957 0.5376 0.0
C97 C 0.96735 0.97503 0.60403 0.0
C98 C 0.94941 0.94482 0.49589 0.0
Eu99 Eu 0.9969 0.03104 0.56352 0.0
N100 N 0.99855 0.01942 0.41034 0.0
C101 C 1.00769 0.03593 0.34687 0.0
C102 C 0.9957 1.00501 0.23168 0.0
C103 C 1.00716 0.02863 0.25717 0.0
H104 H 0.96988 0.98071 0.67266 0.0
H105 H 0.01526 0.04139 0.20768 0.0
H106 H 0.96897 0.96009 0.20408 0.0
H107 H 0.94469 0.94115 0.6371 0.0
H108 H 0.01563 0.05475 0.36582 0.0
H109 H 0.03288 0.08025 0.02612 0.0
H110 H 0.99534 0.99943 0.16211 0.0
H111 H 0.10295 0.99301 0.67231 0.0
H112 H 0.02112 0.04464 0.92423 0.0
H113 H 0.14837 1.00875 0.66207 0.0
H114 H 0.94781 0.93431 0.31938 0.0
H115 H 0.07279 0.10599 1.00129 0.0
H116 H 0.11514 0.11051 0.92031 0.0
H117 H 0.93777 0.92769 0.48081 0.0
H118 H 0.14722 0.09072 0.81887 0.0
N119 N 0.05334 0.05051 0.83676 0.0
C120 C 0.03831 0.05582 0.90982 0.0
C121 C 0.06761 0.09045 0.95497 0.0
C122 C 0.08437 0.08313 0.88594 0.0
C123 C 0.04505 0.07598 0.96915 0.0
C124 C 0.07692 0.06233 0.82871 0.0
H125 H 0.16014 0.0521 0.72444 0.0
N126 N 0.08873 0.0281 0.73201 0.0
C127 C 0.13357 0.02096 0.69263 0.0
C128 C 0.09521 0.05081 0.7736 0.0
C129 C 0.10783 0.01214 0.69831 0.0
C130 C 0.14009 0.0455 0.72739 0.0
C131 C 0.12108 0.06026 0.7719 0.0
O132 O 0.06676 0.99649 0.83529 0.0
O133 O 0.0183 0.99789 0.62679 0.0
O134 O 0.97369 0.02798 0.69144 0.0
O135 O 1.00451 0.02221 0.80281 0.0
O136 O 0.05578 0.98374 0.63622 0.0
O137 O 0.02768 0.98356 0.80581 0.0
O138 O 0.95478 0.03718 0.5739 0.0
O139 O 0.01746 0.04749 0.68489 0.0
O140 O 0.06648 0.02934 0.60962 0.0
O141 O 0.03628 0.03141 0.49357 0.0
O142 O 0.01707 0.07069 0.5744 0.0
O143 O 0.97761 0.06177 0.48923 0.0
C144 C 0.0343 0.9815 0.59206 0.0
C145 C 0.05781 0.95126 0.8435 0.0
C146 C 0.0463 0.90554 0.85477 0.0
C147 C 0.03941 0.93185 0.86067 0.0
C148 C 0.07201 0.89854 0.83278 0.0
C149 C 0.08345 0.94415 0.82054 0.0
C150 C 0.09046 0.91783 0.81541 0.0
C151 C 0.98002 0.02488 0.77573 0.0
C152 C 0.04929 0.97856 0.84737 0.0
C153 C 0.12758 0.08292 0.82047 0.0
C154 C 0.10928 0.09425 0.87804 0.0
C155 C 0.02423 0.06966 0.65652 0.0
C156 C 0.94036 0.08087 0.55791 0.0
C157 C 0.9482 0.10599 0.53406 0.0
C158 C 0.93421 0.12797 0.56302 0.0
C159 C 0.91239 0.12505 0.61757 0.0
C160 C 0.9179 0.07804 0.61033 0.0
C161 C 0.90424 0.10005 0.64091 0.0
C162 C 0.06047 0.03211 0.52442 0.0
C163 C 0.95482 0.05777 0.52449 0.0
H164 H 0.01964 0.93725 0.87896 0.0
H165 H 0.07769 0.8782 0.82828 0.0
H166 H 0.098 0.9588 0.80628 0.0
H167 H 0.1102 0.91237 0.79778 0.0
H168 H 0.96505 0.10863 0.49167 0.0
H169 H 0.90144 0.14195 0.64022 0.0
H170 H 0.9108 0.05885 0.62712 0.0
H171 H 0.88707 0.09771 0.68167 0.0
Eu172 Eu 0.52913 0.04774 0.75015 0.0
C173 C 0.56286 0.9638 0.50447 0.0
C174 C 0.57051 0.97892 0.35549 0.0
C175 C 0.59149 0.93928 0.40476 0.0
C176 C 0.55765 0.98135 0.43818 0.0
C177 C 0.58073 0.94317 0.48946 0.0
C178 C 0.58629 0.95709 0.33764 0.0
C179 C 0.5786 0.93361 0.64518 0.0
N180 N 0.55262 0.96854 0.58614 0.0
C181 C 0.5609 0.95412 0.65678 0.0
C182 C 0.58811 0.9277 0.56081 0.0
Eu183 Eu 0.51562 0.99702 0.58876 0.0
N184 N 0.5426 1.00244 0.45846 0.0
C185 C 0.54315 0.02345 0.40297 0.0
C186 C 0.56856 0.99927 0.29537 0.0
C187 C 0.55558 0.022 0.32061 0.0
H188 H 0.55423 0.95792 0.72287 0.0
H189 H 0.55548 0.03865 0.27721 0.0
H190 H 0.59577 0.95465 0.27383 0.0
H191 H 0.58478 0.92225 0.70152 0.0
H192 H 0.53534 0.04206 0.42151 0.0
H193 H 0.4709 0.03499 0.05424 0.0
H194 H 0.57853 0.99838 0.23209 0.0
H195 H 0.54579 0.10593 0.66676 0.0
H196 H 0.50404 0.02366 0.94608 0.0
H197 H 0.52954 0.15117 0.66535 0.0
H198 H 0.60482 0.92327 0.39169 0.0
H199 H 0.44586 0.07581 0.04107 0.0
H200 H 0.4397 0.11846 0.9659 0.0
H201 H 0.60187 0.91181 0.55209 0.0
H202 H 0.45577 0.15042 0.85936 0.0
N203 N 0.49733 0.05674 0.86323 0.0
C204 C 0.49311 0.04118 0.9351 0.0
C205 C 0.4602 0.07073 0.99099 0.0
C206 C 0.46605 0.08776 0.92238 0.0
C207 C 0.47432 0.0477 0.99871 0.0
C208 C 0.48527 0.08038 0.85959 0.0
H209 H 0.48991 0.16312 0.74981 0.0
N210 N 0.51519 0.092 0.749 0.0
C211 C 0.51937 0.13656 0.70314 0.0
C212 C 0.4945 0.09856 0.8005 0.0
C213 C 0.52851 0.11087 0.7042 0.0
C214 C 0.49691 0.14317 0.75039 0.0
C215 C 0.48459 0.12431 0.80175 0.0
O216 O 0.55363 0.07461 0.82807 0.0
O217 O 0.54794 0.02012 0.65046 0.0
O218 O 0.51318 0.97788 0.72442 0.0
O219 O 0.52685 1.00936 0.82689 0.0
O220 O 0.55658 0.05935 0.63991 0.0
O221 O 0.56288 0.03373 0.82406 0.0
O222 O 0.50334 0.95658 0.59957 0.0
O223 O 0.49902 0.01936 0.70543 0.0
O224 O 0.50992 0.06681 0.62848 0.0
O225 O 0.50315 0.03441 0.51952 0.0
O226 O 0.47441 0.01371 0.59779 0.0
O227 O 0.49178 0.97854 0.48476 0.0
C228 C 0.56203 0.0364 0.60969 0.0
C229 C 0.59802 0.06249 0.81299 0.0
C230 C 0.64278 0.0476 0.79816 0.0
C231 C 0.61776 0.04465 0.83317 0.0
C232 C 0.64838 0.06881 0.74379 0.0
C233 C 0.60369 0.08361 0.75753 0.0
C234 C 0.62879 0.08668 0.72316 0.0
C235 C 0.52002 0.98505 0.80613 0.0
C236 C 0.5713 0.05703 0.84288 0.0
C237 C 0.46385 0.13087 0.85839 0.0
C238 C 0.45466 0.11265 0.91891 0.0
C239 C 0.47608 0.02357 0.67704 0.0
C240 C 0.46085 0.94939 0.54757 0.0
C241 C 0.43982 0.96389 0.51457 0.0
C242 C 0.41414 0.95797 0.5392 0.0
C243 C 0.40946 0.9373 0.59701 0.0
C244 C 0.45581 0.92832 0.6038 0.0
C245 C 0.43026 0.92239 0.62843 0.0
C246 C 0.50254 0.05916 0.54735 0.0
C247 C 0.48803 0.95747 0.53077 0.0
H248 H 0.61361 0.02826 0.87571 0.0
H249 H 0.66792 0.07174 0.71868 0.0
H250 H 0.58875 0.09753 0.73971 0.0
H251 H 0.63306 0.10296 0.68063 0.0
H252 H 0.44332 0.98028 0.47153 0.0
H253 H 0.38975 0.93245 0.61658 0.0
H254 H 0.4717 0.91683 0.63038 0.0
H255 H 0.42659 0.90633 0.67253 0.0
Eu256 Eu 0.54666 0.51141 0.58756 0.0
C257 C 0.43484 0.49656 0.73028 0.0
C258 C 0.40682 0.52325 0.63848 0.0
C259 C 0.38882 0.48576 0.71369 0.0
C260 C 0.43175 0.5174 0.67295 0.0
C261 C 0.41325 0.48088 0.75247 0.0
C262 C 0.38558 0.507 0.65738 0.0
C263 C 0.44049 0.45894 0.85939 0.0
N264 N 0.45848 0.49265 0.76896 0.0
C265 C 0.46122 0.47515 0.83628 0.0
C266 C 0.41651 0.46152 0.81624 0.0
Eu267 Eu 0.49147 0.52284 0.73224 0.0
N268 N 0.45258 0.53293 0.65537 0.0
C269 C 0.44957 0.55497 0.60626 0.0
C270 C 0.4037 0.54591 0.58899 0.0
C271 C 0.42519 0.56166 0.57192 0.0
H272 H 0.47974 0.47329 0.87021 0.0
H273 H 0.42291 0.5792 0.53349 0.0
H274 H 0.3664 0.51107 0.63042 0.0
H275 H 0.44298 0.44456 0.91066 0.0
H276 H 0.46584 0.56765 0.59346 0.0
H277 H 0.60653 0.44881 0.79974 0.0
H278 H 0.38463 0.55176 0.56537 0.0
H279 H 0.56582 0.55854 0.45179 0.0
H280 H 0.566 0.46582 0.73934 0.0
H281 H 0.60601 0.5823 0.41274 0.0
H282 H 0.37208 0.47381 0.72945 0.0
H283 H 0.64841 0.4699 0.76505 0.0
H284 H 0.67231 0.5069 0.69599 0.0
H285 H 0.40039 0.4491 0.83488 0.0
H286 H 0.67195 0.5443 0.59587 0.0
N287 N 0.58392 0.49697 0.66878 0.0
C288 C 0.58379 0.47552 0.72204 0.0
C289 C 0.63044 0.478 0.73935 0.0
C290 C 0.63061 0.50031 0.68724 0.0
C291 C 0.6069 0.46583 0.75803 0.0
C292 C 0.6068 0.50924 0.65118 0.0
H293 H 0.64743 0.57246 0.48987 0.0
N294 N 0.58388 0.53691 0.55464 0.0
C295 C 0.60646 0.56789 0.46454 0.0
C296 C 0.60668 0.53009 0.59385 0.0
C297 C 0.58375 0.55449 0.48714 0.0
C298 C 0.62976 0.56231 0.5083 0.0
C299 C 0.63025 0.54276 0.57215 0.0
O300 O 0.55398 0.50848 0.44536 0.0
O301 O 0.50288 0.51089 0.59481 0.0
O302 O 0.48923 0.48022 0.68956 0.0
O303 O 0.53174 0.47251 0.64409 0.0
O304 O 0.51877 0.52873 0.48601 0.0
O305 O 0.5594 0.47457 0.52795 0.0
O306 O 0.48436 0.52648 0.87463 0.0
O307 O 0.53529 0.52478 0.72412 0.0
O308 O 0.54631 0.55543 0.6141 0.0
O309 O 0.50504 0.56221 0.67557 0.0
O310 O 0.52012 0.50745 0.8351 0.0
O311 O 0.4719 0.5573 0.78577 0.0
C312 C 0.49719 0.52187 0.52253 0.0
C313 C 0.54865 0.46754 0.37704 0.0
C314 C 0.51479 0.43865 0.31877 0.0
C315 C 0.52432 0.45529 0.38658 0.0
C316 C 0.52993 0.43504 0.24123 0.0
C317 C 0.56309 0.46396 0.29911 0.0
C318 C 0.55371 0.44775 0.23148 0.0
C319 C 0.5087 0.46408 0.67167 0.0
C320 C 0.55981 0.48382 0.44768 0.0
C321 C 0.65372 0.53472 0.6114 0.0
C322 C 0.65393 0.5134 0.66823 0.0
C323 C 0.54141 0.51469 0.79754 0.0
C324 C 0.47507 0.56774 0.93883 0.0
C325 C 0.49559 0.58578 0.94057 0.0
C326 C 0.49655 0.60515 0.0076 0.0
C327 C 0.47674 0.6059 0.07254 0.0
C328 C 0.45583 0.56854 1.00462 0.0
C329 C 0.45666 0.58763 0.07111 0.0
C330 C 0.52689 0.57108 0.6391 0.0
C331 C 0.47218 0.54867 0.86694 0.0
H332 H 0.51319 0.45844 0.4469 0.0
H333 H 0.52398 0.4216 0.18887 0.0
H334 H 0.58184 0.47341 0.29117 0.0
H335 H 0.5652 0.44444 0.17225 0.0
H336 H 0.51044 0.58483 0.8895 0.0
H337 H 0.47626 0.62108 0.12329 0.0
H338 H 0.43985 0.55469 1.00347 0.0
H339 H 0.4414 0.58863 0.12054 0.0
Eu340 Eu 0.03127 0.5463 0.56261 0.0
C341 C 0.03065 0.43844 0.74149 0.0
C342 C 1.00166 0.41343 0.6462 0.0
C343 C 0.03601 0.39134 0.72695 0.0
C344 C 1.01011 0.43764 0.68213 0.0
C345 C 0.04354 0.4152 0.76588 0.0
C346 C 0.01497 0.39042 0.66777 0.0
C347 C 0.068 0.44016 0.87445 0.0
N348 N 0.03692 0.46164 0.78002 0.0
C349 C 0.05435 0.46247 0.84927 0.0
C350 C 0.06287 0.41645 0.83154 0.0
Eu351 Eu 0.01383 0.49947 0.73254 0.0
N352 N 0.99765 0.46028 0.6625 0.0
C353 C 0.97578 0.45954 0.60979 0.0
C354 C 0.97962 0.4129 0.59153 0.0
C355 C 0.96666 0.43604 0.57327 0.0
H356 H 0.0578 0.48057 0.88505 0.0
H357 H 0.94953 0.43584 0.53105 0.0
H358 H 1.0088 0.37174 0.64054 0.0
H359 H 0.0822 0.44123 0.92774 0.0
H360 H 0.96525 0.47684 0.59281 0.0
H361 H 0.09869 0.60883 0.75584 0.0
H362 H 0.97214 0.39469 0.56456 0.0
H363 H 0.98546 0.5666 0.41702 0.0
H364 H 0.08201 0.56821 0.69485 0.0
H365 H 0.96036 0.60614 0.38277 0.0
H366 H 0.04577 0.37336 0.74447 0.0
H367 H 0.07559 0.65013 0.72919 0.0
H368 H 0.0375 0.67344 0.66357 0.0
H369 H 0.07319 0.39907 0.85193 0.0
H370 H 0.99888 0.67247 0.56699 0.0
N371 N 0.04831 0.58504 0.6332 0.0
C372 C 0.07105 0.58552 0.68151 0.0
C373 C 0.06756 0.63204 0.70322 0.0
C374 C 0.04454 0.63178 0.65349 0.0
C375 C 0.0808 0.60882 0.71746 0.0
C376 C 0.03548 0.60777 0.6177 0.0
H377 H 0.97004 0.64759 0.46205 0.0
N378 N 1.00727 0.58444 0.52232 0.0
C379 C 0.97512 0.60675 0.43432 0.0
C380 C 0.01403 0.60735 0.56208 0.0
C381 C 0.98916 0.58428 0.455 0.0
C382 C 0.98064 0.63005 0.47916 0.0
C383 C 1.0008 0.63077 0.54187 0.0
O384 O 0.03559 0.55583 0.42276 0.0
O385 O 0.02839 0.50343 0.5932 0.0
O386 O 0.05832 0.50046 0.73107 0.0
O387 O 0.06932 0.53088 0.62392 0.0
O388 O 0.01263 0.51534 0.47394 0.0
O389 O 0.0693 0.5441 0.49792 0.0
O390 O 1.00875 0.49243 0.87384 0.0
O391 O 0.01722 0.54252 0.70302 0.0
O392 O 0.9869 0.54341 0.55952 0.0
O393 O 0.97572 0.51421 0.66999 0.0
O394 O 0.03384 0.52967 0.82003 0.0
O395 O 0.97524 0.50148 0.79331 0.0
C396 C 0.01787 0.49528 0.52147 0.0
C397 C 0.06529 0.52727 0.35156 0.0
C398 C 0.09417 0.49305 0.29501 0.0
C399 C 0.08866 0.51308 0.35668 0.0
C400 C 0.07598 0.48745 0.22728 0.0
C401 C 0.04725 0.52116 0.28376 0.0
C402 C 0.05258 0.50127 0.22232 0.0
C403 C 0.07574 0.51411 0.68664 0.0
C404 C 0.05953 0.54763 0.41906 0.0
C405 C 1.00889 0.65437 0.58133 0.0
C406 C 0.03088 0.65491 0.63633 0.0
C407 C 0.02867 0.55005 0.77406 0.0
C408 C 0.97718 0.52066 0.93669 0.0
C409 C 0.95234 0.53202 0.9311 0.0
C410 C 0.945 0.55197 0.9904 0.0
C411 C 0.96272 0.56074 0.05548 0.0
C412 C 0.99489 0.52989 1.00161 0.0
C413 C 0.98766 0.54991 0.06031 0.0
C414 C 0.96941 0.53023 0.605 0.0
C415 C 0.98448 0.49963 0.87362 0.0
H416 H 0.1029 0.51814 0.40744 0.0
H417 H 0.07999 0.47262 0.17731 0.0
H418 H 0.02898 0.53167 0.27817 0.0
H419 H 0.03867 0.49674 0.17011 0.0
H420 H 0.93836 0.52476 0.88247 0.0
H421 H 0.95708 0.57569 0.10329 0.0
H422 H 0.01427 0.52165 0.00738 0.0
H423 H 1.00128 0.55676 0.11051 0.0
C424 C 0.16843 0.02671 0.13387 0.0
C425 C 0.18888 0.04432 0.14963 0.0
C426 C 0.14706 0.02512 0.1926 0.0
C427 C 0.146 0.0416 0.26918 0.0
C428 C 0.16664 0.0596 0.28462 0.0
C429 C 0.18781 0.06071 0.22483 0.0
C430 C 0.12571 1.00557 0.17314 0.0
C431 C 0.16645 0.0776 0.36481 0.0
C432 C 0.08018 0.05178 0.38692 0.0
C433 C 0.08225 0.03489 0.4592 0.0
C434 C 0.10067 0.05425 0.32484 0.0
C435 C 0.12387 0.03935 0.33457 0.0
C436 C 0.12584 0.02206 0.40694 0.0
C437 C 0.10506 0.01997 0.46759 0.0
C438 C 0.09752 0.07291 0.24898 0.0
C439 C 0.14986 1.00547 0.41997 0.0
H440 H 0.16919 0.01405 0.0756 0.0
H441 H 0.20359 0.07439 0.23706 0.0
H442 H 0.12435 0.99151 0.22826 0.0
H443 H 0.1066 0.01565 0.16865 0.0
H444 H 0.1291 0.99451 0.11021 0.0
H445 H 0.18349 0.09099 0.36626 0.0
H446 H 0.14831 0.08943 0.36541 0.0
H447 H 0.1666 0.06598 0.42638 0.0
H448 H 0.06265 0.06337 0.37952 0.0
H449 H 0.10641 1.00597 0.52027 0.0
H450 H 0.09934 0.06224 0.18468 0.0
H451 H 0.11328 0.08774 0.25155 0.0
H452 H 0.07838 0.08309 0.25046 0.0
H453 H 0.15282 0.99256 0.36107 0.0
H454 H 0.14851 0.99317 0.47993 0.0
H455 H 0.16736 0.01808 0.4264 0.0
C456 C 0.5095 0.17706 0.213 0.0
C457 C 0.486 0.1862 0.17736 0.0
C458 C 0.50997 0.15592 0.27197 0.0
C459 C 0.48633 0.14351 0.29617 0.0
C460 C 0.46249 0.15278 0.26001 0.0
C461 C 0.46263 0.17397 0.20096 0.0
C462 C 0.53584 0.14681 0.30831 0.0
C463 C 0.43683 0.14033 0.28388 0.0
C464 C 0.49307 0.07474 0.39099 0.0
C465 C 0.49424 0.07983 0.48304 0.0
C466 C 0.48975 0.09506 0.3295 0.0
C467 C 0.48676 0.12119 0.36033 0.0
C468 C 0.48561 0.12608 0.45315 0.0
C469 C 0.48919 0.10543 0.51284 0.0
C470 C 0.49063 0.08865 0.23136 0.0
C471 C 0.48177 0.15337 0.48992 0.0
H472 H 0.52761 0.1864 0.1943 0.0
H473 H 0.44444 0.18092 0.17295 0.0
H474 H 0.53585 0.14854 0.38185 0.0
H475 H 0.53888 0.12591 0.29097 0.0
H476 H 0.5525 0.15822 0.28227 0.0
H477 H 0.42001 0.14986 0.25083 0.0
H478 H 0.43703 0.11936 0.26456 0.0
H479 H 0.43392 0.14142 0.35682 0.0
H480 H 0.49563 0.05497 0.36627 0.0
H481 H 0.48825 0.10946 0.58329 0.0
H482 H 0.50831 0.09748 0.20191 0.0
H483 H 0.47348 0.09711 0.19708 0.0
H484 H 0.49105 0.06729 0.21784 0.0
H485 H 0.49998 0.16471 0.48097 0.0
H486 H 0.47694 0.15341 0.56176 0.0
H487 H 0.46598 0.16357 0.45377 0.0
C488 C 0.36128 0.5169 0.24236 0.0
C489 C 0.36406 0.50231 0.16377 0.0
C490 C 0.3818 0.5189 0.30496 0.0
C491 C 0.40589 0.50582 0.28972 0.0
C492 C 0.40846 0.49043 0.21085 0.0
C493 C 0.38762 0.48897 0.14885 0.0
C494 C 0.37757 0.53509 0.38764 0.0
C495 C 0.4335 0.47603 0.19079 0.0
C496 C 0.46818 0.53441 0.39557 0.0
C497 C 0.47288 0.51798 0.4677 0.0
C498 C 0.44658 0.53071 0.33834 0.0
C499 C 0.4289 0.50987 0.35229 0.0
C500 C 0.4335 0.49318 0.42542 0.0
C501 C 0.45548 0.49726 0.48147 0.0
C502 C 0.44278 0.54917 0.26232 0.0
C503 C 0.41538 0.47077 0.44396 0.0
H504 H 0.3431 0.5272 0.2543 0.0
H505 H 0.38993 0.47769 0.0879 0.0
H506 H 0.37676 0.52187 0.44513 0.0
H507 H 0.39402 0.54887 0.39805 0.0
H508 H 0.3591 0.54642 0.38541 0.0
H509 H 0.43189 0.46344 0.13033 0.0
H510 H 0.44951 0.49025 0.18095 0.0
H511 H 0.43909 0.4637 0.24774 0.0
H512 H 0.48159 0.55032 0.38365 0.0
H513 H 0.45918 0.48403 0.53552 0.0
H514 H 0.42342 0.55876 0.2676 0.0
H515 H 0.44316 0.53817 0.19833 0.0
H516 H 0.45806 0.56452 0.2608 0.0
H517 H 0.395 0.4779 0.44935 0.0
H518 H 0.4206 0.4606 0.50622 0.0
H519 H 0.41605 0.45647 0.38797 0.0
C520 C 0.0529 0.37468 0.19321 0.0
C521 C 0.03831 0.35198 0.20689 0.0
C522 C 0.05048 0.39678 0.2501 0.0
C523 C 0.0329 0.39648 0.32289 0.0
C524 C 0.01847 0.37324 0.33751 0.0
C525 C 0.02133 0.35137 0.27964 0.0
C526 C 0.06592 0.42091 0.22956 0.0
C527 C 0.99966 0.37159 0.41366 0.0
C528 C 0.04007 0.4508 0.50302 0.0
C529 C 0.02087 0.46883 0.47762 0.0
C530 C 0.0437 0.42692 0.4555 0.0
C531 C 0.02829 0.421 0.37896 0.0
C532 C 1.00895 0.43927 0.35342 0.0
C533 C 1.00555 0.4627 0.40259 0.0
C534 C 0.06448 0.40827 0.48623 0.0
C535 C 0.99209 0.43437 0.27256 0.0
H536 H 0.06598 0.37536 0.1368 0.0
H537 H 1.00998 0.33388 0.29067 0.0
H538 H 0.05235 0.43595 0.20427 0.0
H539 H 0.07537 0.42895 0.29044 0.0
H540 H 0.08115 0.41719 0.17859 0.0
H541 H 0.9903 0.35211 0.41784 0.0
H542 H 1.01015 0.37572 0.47669 0.0
H543 H 0.98421 0.38658 0.40646 0.0
H544 H 0.05249 0.45551 0.55935 0.0
H545 H 0.99089 0.47656 0.38143 0.0
H546 H 0.08026 0.40713 0.43604 0.0
H547 H 0.05623 0.38838 0.49268 0.0
H548 H 0.0731 0.41438 0.55104 0.0
H549 H 1.00449 0.43325 0.21236 0.0
H550 H 0.97728 0.44993 0.2632 0.0
H551 H 0.98189 0.41539 0.27814 0.0
C552 C 0.85332 1.00314 0.08363 0.0
C553 C 0.85041 0.02282 0.14847 0.0
C554 C 0.87463 1.00313 0.02433 0.0
C555 C 0.8936 0.02328 0.02981 0.0
C556 C 0.89078 0.04305 0.09612 0.0
C557 C 0.86924 0.04259 0.15442 0.0
C558 C 0.87686 0.98149 0.95571 0.0
C559 C 0.9105 0.06477 0.10525 0.0
C560 C 0.96107 0.01254 0.92436 0.0
C561 C 0.95845 0.02516 0.84268 0.0
C562 C 0.94009 1.0114 0.98501 0.0
C563 C 0.91608 0.02391 0.96537 0.0
C564 C 0.91353 0.03702 0.88358 0.0
C565 C 0.93456 0.03732 0.82343 0.0
C566 C 0.94369 0.99669 0.07005 0.0
C567 C 0.88848 0.05073 0.85933 0.0
H568 H 0.83892 0.98773 0.07896 0.0
H569 H 0.86708 0.05781 0.20467 0.0
H570 H 0.87667 0.98979 0.88809 0.0
H571 H 0.89573 0.97113 0.96382 0.0
H572 H 0.86076 0.96709 0.96055 0.0
H573 H 0.90553 0.07876 0.15966 0.0
H574 H 0.9301 0.05647 0.1186 0.0
H575 H 0.91177 0.07559 0.04214 0.0
H576 H 0.97933 1.00294 0.94005 0.0
H577 H 0.93237 0.04735 0.76124 0.0
H578 H 0.92628 0.98471 0.08505 0.0
H579 H 0.94637 1.01082 0.12582 0.0
H580 H 0.96095 0.98361 0.06667 0.0
H581 H 0.87194 0.0368 0.86077 0.0
H582 H 0.88932 0.05949 0.79241 0.0
H583 H 0.88429 0.06641 0.90885 0.0
C584 C 0.50608 0.87816 0.19479 0.0
C585 C 0.5267 0.86021 0.19114 0.0
C586 C 0.5047 0.89919 0.13544 0.0
C587 C 0.52445 0.90242 0.07066 0.0
C588 C 0.54548 0.88435 0.06761 0.0
C589 C 0.54633 0.86347 0.12778 0.0
C590 C 0.48193 0.91781 0.14154 0.0
C591 C 0.56705 0.88703 1.00041 0.0
C592 C 0.50876 0.94003 0.85915 0.0
C593 C 0.52 0.96461 0.8764 0.0
C594 C 0.50982 0.9199 0.92183 0.0
C595 C 0.52265 0.92411 1.00433 0.0
C596 C 0.53387 0.94894 0.02264 0.0
C597 C 0.53229 0.96887 0.9589 0.0
C598 C 0.49736 0.89394 0.89921 0.0
C599 C 0.5478 0.95442 0.10931 0.0
H600 H 0.49094 0.87572 0.24411 0.0
H601 H 0.56235 0.84966 0.12519 0.0
H602 H 0.48909 0.93803 0.15237 0.0
H603 H 0.47088 0.9175 0.07807 0.0
H604 H 0.46839 0.9129 0.19627 0.0
H605 H 0.58235 0.87184 0.00788 0.0
H606 H 0.55888 0.88555 0.93223 0.0
H607 H 0.57629 0.90653 0.00737 0.0
H608 H 0.49914 0.93636 0.796 0.0
H609 H 0.5412 0.98765 0.97311 0.0
H610 H 0.48277 0.88892 0.95045 0.0
H611 H 0.5124 0.87836 0.89896 0.0
H612 H 0.48755 0.89394 0.83333 0.0
H613 H 0.53385 0.9531 0.16522 0.0
H614 H 0.55688 0.97408 0.11103 0.0
H615 H 0.56324 0.93962 0.12038 0.0
C616 C 0.6797 0.5163 0.06481 0.0
C617 C 0.67916 0.53366 0.13736 0.0
C618 C 0.65839 0.51415 0.00536 0.0
C619 C 0.63578 0.52989 0.01752 0.0
C620 C 0.63548 0.54791 0.09026 0.0
C621 C 0.65706 0.54951 0.14923 0.0
C622 C 0.66014 0.49486 0.92954 0.0
C623 C 0.61202 0.56504 0.10729 0.0
C624 C 0.58515 0.53722 0.82799 0.0
C625 C 0.56623 0.51859 0.85012 0.0
C626 C 0.60802 0.54082 0.88025 0.0
C627 C 0.61186 0.52611 0.95869 0.0
C628 C 0.59254 0.5076 0.98163 0.0
C629 C 0.57024 0.50406 0.92742 0.0
C630 C 0.62805 0.56045 0.85153 0.0
C631 C 0.59536 0.4914 0.06395 0.0
H632 H 0.69671 0.50398 0.05534 0.0
H633 H 0.65645 0.5629 0.20561 0.0
H634 H 0.64257 0.48224 0.92764 0.0
H635 H 0.66099 0.50575 0.86664 0.0
H636 H 0.67772 0.48225 0.93379 0.0
H637 H 0.61523 0.57898 0.16342 0.0
H638 H 0.60715 0.57621 0.04689 0.0
H639 H 0.59486 0.55272 0.12265 0.0
H640 H 0.58209 0.54899 0.76968 0.0
H641 H 0.55574 0.48975 0.94587 0.0
H642 H 0.64743 0.55095 0.84521 0.0
H643 H 0.62988 0.57614 0.90273 0.0
H644 H 0.62295 0.5694 0.787 0.0
H645 H 0.61333 0.47938 0.05952 0.0
H646 H 0.57844 0.47828 0.0735 0.0
H647 H 0.5973 0.50429 0.12345 0.0
C648 C 1.00412 0.6693 0.12095 0.0
C649 C 0.0193 0.69147 0.10461 0.0
C650 C 1.00417 0.64751 0.06184 0.0
C651 C 0.0199 0.64762 0.98419 0.0
C652 C 0.03482 0.67037 0.96709 0.0
C653 C 0.03432 0.69189 0.02706 0.0
C654 C 0.98801 0.62398 0.08421 0.0
C655 C 0.05182 0.67181 0.88613 0.0
C656 C 0.04392 0.58144 0.89224 0.0
C657 C 0.02709 0.57631 0.82016 0.0
C658 C 0.0419 0.60442 0.94466 0.0
C659 C 0.02248 0.62329 0.92558 0.0
C660 C 1.00554 0.6184 0.852 0.0
C661 C 1.00779 0.59491 0.80113 0.0
C662 C 0.0604 0.60823 0.02193 0.0
C663 C 0.98467 0.63779 0.82787 0.0
H664 H 0.9925 0.66878 0.18095 0.0
H665 H 0.04611 0.70896 0.01399 0.0
H666 H 0.97601 0.61786 0.02613 0.0
H667 H 1.00114 0.6075 0.10047 0.0
H668 H 0.97492 0.6277 0.14168 0.0
H669 H 0.06153 0.69106 0.87998 0.0
H670 H 0.06702 0.65643 0.88883 0.0
H671 H 0.0398 0.66814 0.82605 0.0
H672 H 0.05869 0.56712 0.90857 0.0
H673 H 0.99422 0.59095 0.7473 0.0
H674 H 0.04921 0.60946 0.08482 0.0
H675 H 0.07116 0.62686 0.01518 0.0
H676 H 0.07478 0.59209 0.02708 0.0
H677 H 0.96995 0.6389 0.88168 0.0
H678 H 0.97463 0.63241 0.76471 0.0
H679 H 0.99324 0.65753 0.82126 0.0
C680 C 0.99519 0.2497 0.31611 0.0
C681 C 0.01606 0.23716 0.27306 0.0
C682 C 0.98144 0.2371 0.38343 0.0
C683 C 0.98847 0.21137 0.40583 0.0
C684 C 1.01144 0.20004 0.37038 0.0
C685 C 0.0251 0.21321 0.30462 0.0
C686 C 0.95826 0.25042 0.42567 0.0
C687 C 0.0203 0.17307 0.39632 0.0
C688 C 0.95896 0.16918 0.58297 0.0
C689 C 0.94237 0.15358 0.53115 0.0
C690 C 0.97303 0.18963 0.54493 0.0
C691 C 0.9699 0.19451 0.45327 0.0
C692 C 0.9514 0.18003 0.40261 0.0
C693 C 0.93792 0.15961 0.44234 0.0
C694 C 0.99207 0.20475 0.6024 0.0
C695 C 0.94766 0.18441 0.30438 0.0
H696 H 0.98839 0.26845 0.29294 0.0
H697 H 0.04184 0.20396 0.27349 0.0
H698 H 0.94 0.24188 0.39825 0.0
H699 H 0.95828 0.24725 0.49846 0.0
H700 H 0.95814 0.27173 0.41316 0.0
H701 H 0.03954 0.16787 0.36725 0.0
H702 H 0.02171 0.17178 0.46967 0.0
H703 H 1.00573 0.15841 0.37334 0.0
H704 H 0.96221 0.16418 0.65149 0.0
H705 H 0.92518 0.1472 0.40257 0.0
H706 H 0.98103 0.21895 0.64406 0.0
H707 H 1.00674 0.21574 0.56407 0.0
H708 H 1.00256 0.19138 0.6475 0.0
H709 H 0.94391 0.20534 0.29162 0.0
H710 H 0.9312 0.1728 0.27641 0.0
H711 H 0.96574 0.17883 0.26835 0.0
C712 C 0.29328 0.01785 0.29432 0.0
C713 C 0.30107 0.04137 0.2564 0.0
C714 C 0.3081 1.00672 0.36218 0.0
C715 C 0.33097 0.01958 0.39194 0.0
C716 C 0.33628 0.04526 0.36409 0.0
C717 C 0.3213 0.05586 0.29564 0.0
C718 C 0.30129 0.97972 0.39322 0.0
C719 C 0.35955 0.0602 0.39916 0.0
C720 C 0.37417 0.98539 0.55933 0.0
C721 C 0.39241 0.97339 0.50297 0.0
C722 C 0.35424 1.00113 0.52507 0.0
C723 C 0.35219 1.00408 0.43209 0.0
C724 C 0.37047 0.99165 0.37491 0.0
C725 C 0.39048 0.97666 0.41126 0.0
C726 C 0.33542 0.0141 0.58873 0.0
C727 C 0.36889 0.9941 0.27506 0.0
H728 H 0.27744 1.00675 0.26441 0.0
H729 H 0.32689 0.07436 0.26728 0.0
H730 H 0.31483 0.96534 0.36232 0.0
H731 H 0.30355 0.97848 0.4663 0.0
H732 H 0.281 0.9742 0.37487 0.0
H733 H 0.35891 0.08106 0.38031 0.0
H734 H 0.36039 0.05897 0.47255 0.0
H735 H 0.37774 0.05141 0.3723 0.0
H736 H 0.37582 0.9828 0.63017 0.0
H737 H 0.40457 0.9672 0.36785 0.0
H738 H 0.32604 0.03165 0.56051 0.0
H739 H 0.34552 0.01993 0.65115 0.0
H740 H 0.31994 0.99997 0.60614 0.0
H741 H 0.37101 0.01484 0.25638 0.0
H742 H 0.34955 0.98732 0.25077 0.0
H743 H 0.38425 0.98258 0.2403 0.0
C744 C 0.43191 0.31487 0.24721 0.0
C745 C 0.45514 0.30136 0.22936 0.0
C746 C 0.43222 0.3379 0.29924 0.0
C747 C 0.45652 0.34831 0.32748 0.0
C748 C 0.47909 0.33223 0.32235 0.0
C749 C 0.47784 0.30851 0.2752 0.0
C750 C 0.40689 0.35211 0.31562 0.0
C751 C 0.50546 0.34151 0.35501 0.0
C752 C 0.47653 0.41477 0.2559 0.0
C753 C 0.49093 0.42253 0.33077 0.0
C754 C 0.46207 0.39167 0.25596 0.0
C755 C 0.46033 0.37714 0.3354 0.0
C756 C 0.46938 0.38866 0.41586 0.0
C757 C 0.48535 0.41092 0.41248 0.0
C758 C 0.45219 0.38125 0.1678 0.0
C759 C 0.46443 0.37655 0.50476 0.0
H760 H 0.41409 0.30898 0.21353 0.0
H761 H 0.49569 0.29772 0.26234 0.0
H762 H 0.40942 0.3701 0.35669 0.0
H763 H 0.39755 0.35708 0.25147 0.0
H764 H 0.39322 0.33892 0.35024 0.0
H765 H 0.52106 0.32681 0.34328 0.0
H766 H 0.51107 0.35973 0.32096 0.0
H767 H 0.50464 0.34573 0.42731 0.0
H768 H 0.47906 0.42506 0.19413 0.0
H769 H 0.49513 0.41754 0.47257 0.0
H770 H 0.43098 0.37746 0.17117 0.0
H771 H 0.46226 0.36268 0.15161 0.0
H772 H 0.45566 0.39494 0.11252 0.0
H773 H 0.45311 0.39049 0.54658 0.0
H774 H 0.48323 0.37327 0.5396 0.0
H775 H 0.4534 0.35796 0.49974 0.0
C776 C 0.23827 0.49353 0.24982 0.0
C777 C 0.2486 0.47245 0.20157 0.0
C778 C 0.21489 0.49079 0.2966 0.0
C779 C 0.20224 0.4662 0.29615 0.0
C780 C 0.21588 0.44389 0.2649 0.0
C781 C 0.23873 0.44735 0.21511 0.0
C782 C 0.20159 0.51509 0.33191 0.0
C783 C 0.20402 0.41707 0.26992 0.0
C784 C 0.13256 0.47382 0.37598 0.0
C785 C 0.12014 0.48029 0.29589 0.0
C786 C 0.15906 0.46662 0.37738 0.0
C787 C 0.17324 0.46604 0.2969 0.0
C788 C 0.15993 0.47 0.21541 0.0
C789 C 0.13368 0.4772 0.21612 0.0
C790 C 0.17194 0.4603 0.46469 0.0
C791 C 0.17373 0.46936 0.12703 0.0
H792 H 0.24616 0.5129 0.23971 0.0
H793 H 0.24695 0.43096 0.17838 0.0
H794 H 0.18617 0.52112 0.28448 0.0
H795 H 0.19213 0.5114 0.39657 0.0
H796 H 0.21552 0.53154 0.34051 0.0
H797 H 0.21933 0.40172 0.2673 0.0
H798 H 0.19252 0.41499 0.33174 0.0
H799 H 0.19067 0.41388 0.21263 0.0
H800 H 0.12182 0.47531 0.43777 0.0
H801 H 0.12432 0.48228 0.15405 0.0
H802 H 0.19029 0.47149 0.47376 0.0
H803 H 0.17722 0.4393 0.46476 0.0
H804 H 0.15894 0.46438 0.52216 0.0
H805 H 0.15969 0.46699 0.07156 0.0
H806 H 0.18776 0.45302 0.12193 0.0
H807 H 0.18442 0.48798 0.11855 0.0
C808 C 0.97198 0.78424 0.99997 0.0
C809 C 0.96208 0.79318 0.08208 0.0
C810 C 0.97539 0.80191 0.93081 0.0
C811 C 0.96957 0.82845 0.94735 0.0
C812 C 0.95218 0.83496 0.01688 0.0
C813 C 0.9473 0.81631 0.08198 0.0
C814 C 0.9904 0.7935 0.84945 0.0
C815 C 0.94299 0.8626 0.03191 0.0
C816 C 0.03209 0.86756 0.94067 0.0
C817 C 0.02672 0.88552 0.87478 0.0
C818 C 0.01336 0.84938 0.96569 0.0
C819 C 0.98904 0.84814 0.91967 0.0
C820 C 0.98381 0.86597 0.85102 0.0
C821 C 1.0024 0.88514 0.83178 0.0
C822 C 0.01953 0.83237 0.04407 0.0
C823 C 0.95888 0.86538 0.79755 0.0
H824 H 0.98128 0.76534 0.99393 0.0
H825 H 0.93664 0.82208 0.14116 0.0
H826 H 0.98562 0.8061 0.79225 0.0
H827 H 1.01163 0.79514 0.86318 0.0
H828 H 0.98609 0.77284 0.83165 0.0
H829 H 0.9275 0.86386 0.08326 0.0
H830 H 0.95968 0.87492 0.05395 0.0
H831 H 0.93532 0.87071 0.9692 0.0
H832 H 0.05066 0.86847 0.97529 0.0
H833 H 0.99807 0.89959 0.78199 0.0
H834 H 0.02063 0.8116 0.02289 0.0
H835 H 1.00395 0.83457 0.09427 0.0
H836 H 0.03836 0.83756 0.0765 0.0
H837 H 0.96338 0.86712 0.72576 0.0
H838 H 0.94677 0.88255 0.81626 0.0
H839 H 0.94729 0.84738 0.80718 0.0
C840 C 0.76165 0.98129 1.00172 0.0
C841 C 0.7508 0.96884 0.07575 0.0
C842 C 0.74665 0.98472 0.92487 0.0
C843 C 0.72053 0.97611 0.9247 0.0
C844 C 0.71281 0.95723 0.98678 0.0
C845 C 0.72864 0.95314 0.06147 0.0
C846 C 0.75669 1.00227 0.85323 0.0
C847 C 0.68585 0.94557 0.98421 0.0
C848 C 0.67481 0.03369 0.90906 0.0
C849 C 0.66338 0.02968 0.82612 0.0
C850 C 0.69309 0.01607 0.94177 0.0
C851 C 0.70043 0.994 0.88902 0.0
C852 C 0.68878 0.98991 0.80456 0.0
C853 C 0.67003 1.00778 0.77454 0.0
C854 C 0.70426 0.0212 0.03343 0.0
C855 C 0.69603 0.96722 0.74464 0.0
H856 H 0.77973 0.99209 0.00771 0.0
H857 H 0.72132 0.94124 0.1148 0.0
H858 H 0.74792 0.99698 0.7879 0.0
H859 H 0.75128 0.02277 0.8695 0.0
H860 H 0.77828 1.00114 0.84836 0.0
H861 H 0.6852 0.92687 0.02053 0.0
H862 H 0.67199 0.95936 0.01656 0.0
H863 H 0.67925 0.94216 0.91477 0.0
H864 H 0.66905 0.05052 0.94897 0.0
H865 H 0.66042 1.00454 0.71129 0.0
H866 H 0.72549 0.02508 0.0289 0.0
H867 H 0.70141 1.0039 0.07546 0.0
H868 H 0.69498 0.0382 0.06738 0.0
H869 H 0.70897 0.97435 0.69126 0.0
H870 H 0.67832 0.95898 0.7121 0.0
H871 H 0.70631 0.9514 0.78 0.0
C872 C 0.53445 0.7426 0.07069 0.0
C873 C 0.55732 0.74673 0.11979 0.0
C874 C 0.53123 0.71959 0.02053 0.0
C875 C 0.55184 0.70115 0.01758 0.0
C876 C 0.57687 0.70861 0.04823 0.0
C877 C 0.57926 0.73118 0.10167 0.0
C878 C 0.50451 0.7132 0.98385 0.0
C879 C 0.6001 0.6909 0.03608 0.0
C880 C 0.52583 0.63613 0.08838 0.0
C881 C 0.51678 0.62582 0.00752 0.0
C882 C 0.53918 0.65985 0.09202 0.0
C883 C 0.54492 0.67298 0.012 0.0
C884 C 0.53928 0.66058 0.92962 0.0
C885 C 0.52476 0.63737 0.92816 0.0
C886 C 0.5443 0.67204 0.18229 0.0
C887 C 0.54681 0.67227 0.84241 0.0
H888 H 0.51765 0.75498 0.08335 0.0
H889 H 0.59724 0.73473 0.13802 0.0
H890 H 0.50606 0.7063 0.914 0.0
H891 H 0.49563 0.6973 0.02288 0.0
H892 H 0.49121 0.73032 0.98621 0.0
H893 H 0.61852 0.7023 0.03604 0.0
H894 H 0.60113 0.67697 0.09166 0.0
H895 H 0.59852 0.67948 0.97303 0.0
H896 H 0.52081 0.62657 0.14975 0.0
H897 H 0.51837 0.62933 0.86477 0.0
H898 H 0.53222 0.68988 0.18976 0.0
H899 H 0.56506 0.67765 0.18934 0.0
H900 H 0.53948 0.65873 0.2374 0.0
H901 H 0.52895 0.67908 0.80795 0.0
H902 H 0.55575 0.65698 0.79917 0.0
H903 H 0.56071 0.68874 0.84998 0.0
C904 C 0.79568 0.55672 0.0343 0.0
C905 C 0.79066 0.57587 0.09932 0.0
C906 C 0.81842 0.55799 0.98295 0.0
C907 C 0.83586 0.57906 0.99729 0.0
C908 C 0.82735 0.60121 0.0463 0.0
C909 C 0.8048 0.59925 0.09826 0.0
C910 C 0.82619 0.53436 0.92828 0.0
C911 C 0.84444 0.62496 0.05712 0.0
C912 C 0.90323 0.55776 0.06846 0.0
C913 C 0.91776 0.56107 0.99143 0.0
C914 C 0.87664 0.56347 0.07017 0.0
C915 C 0.86433 0.57366 0.99342 0.0
C916 C 0.87915 0.57772 0.91559 0.0
C917 C 0.90578 0.57101 0.91519 0.0
C918 C 0.86189 0.55835 0.15484 0.0
C919 C 0.86727 0.58957 0.83374 0.0
H920 H 0.78441 0.53881 0.03381 0.0
H921 H 0.80048 0.61441 0.14706 0.0
H922 H 0.83762 0.53995 0.86916 0.0
H923 H 0.83861 0.52147 0.96937 0.0
H924 H 0.80882 0.52302 0.9062 0.0
H925 H 0.85864 0.6217 0.11164 0.0
H926 H 0.85556 0.62864 0.99543 0.0
H927 H 0.83268 0.64252 0.07445 0.0
H928 H 0.91257 0.54977 0.12684 0.0
H929 H 0.91726 0.57358 0.85559 0.0
H930 H 0.84332 0.54802 0.141 0.0
H931 H 0.85744 0.57723 0.18839 0.0
H932 H 0.87329 0.54627 0.20147 0.0
H933 H 0.84695 0.58286 0.8226 0.0
H934 H 0.87897 0.58501 0.77346 0.0
H935 H 0.86673 0.61109 0.84267 0.0
C936 C 0.0569 0.20063 0.949 0.0
C937 C 0.03534 0.21731 0.95821 0.0
C938 C 0.05546 0.17701 0.89918 0.0
C939 C 0.03167 0.1694 0.85674 0.0
C940 C 1.00991 0.18667 0.86515 0.0
C941 C 0.01206 0.21012 0.91538 0.0
C942 C 0.07958 0.16012 0.89689 0.0
C943 C 0.98358 0.18055 0.82544 0.0
C944 C 0.04095 0.11565 0.67649 0.0
C945 C 0.02726 0.09436 0.71098 0.0
C946 C 0.04193 0.14013 0.72136 0.0
C947 C 0.02959 0.14358 0.80533 0.0
C948 C 0.01546 0.12206 0.83991 0.0
C949 C 0.01376 0.09825 0.79104 0.0
C950 C 0.05642 0.16212 0.67791 0.0
C951 C 1.00188 0.12399 0.92856 0.0
H952 H 0.07473 0.20543 0.9846 0.0
H953 H 0.99494 0.22229 0.9249 0.0
H954 H 0.07649 0.14082 0.86488 0.0
H955 H 0.09524 0.17044 0.86071 0.0
H956 H 0.0868 0.15708 0.96558 0.0
H957 H 0.97627 0.19757 0.78809 0.0
H958 H 0.98372 0.16313 0.78132 0.0
H959 H 0.96938 0.17736 0.87974 0.0
H960 H 0.05067 0.1133 0.61301 0.0
H961 H 1.00162 0.08265 0.81551 0.0
H962 H 0.07714 0.16162 0.69943 0.0
H963 H 0.04822 0.18149 0.6963 0.0
H964 H 0.05603 0.15996 0.6044 0.0
H965 H 0.01418 0.13454 0.97814 0.0
H966 H 0.99689 0.10447 0.95464 0.0
H967 H 0.98332 0.13479 0.92122 0.0
C968 C 0.33305 0.02394 0.8992 0.0
C969 C 0.32702 0.04739 0.94365 0.0
C970 C 0.35727 0.02028 0.85599 0.0
C971 C 0.37606 0.04078 0.85575 0.0
C972 C 0.3696 0.06475 0.89881 0.0
C973 C 0.34539 0.06768 0.94227 0.0
C974 C 0.36267 0.99372 0.81571 0.0
C975 C 0.38893 0.08687 0.90357 0.0
C976 C 0.44717 0.01986 0.81196 0.0
C977 C 0.45223 0.03066 0.7288 0.0
C978 C 0.42289 0.02363 0.85491 0.0
C979 C 0.40244 0.03738 0.8118 0.0
C980 C 0.40738 0.0477 0.72639 0.0
C981 C 0.43211 0.04439 0.68679 0.0
C982 C 0.41899 0.01247 0.94603 0.0
C983 C 0.38683 0.06189 0.67384 0.0
H984 H 0.31944 1.0078 0.90266 0.0
H985 H 0.34121 0.08558 0.97883 0.0
H986 H 0.38129 0.99264 0.77882 0.0
H987 H 0.36327 0.97911 0.86938 0.0
H988 H 0.3464 0.98791 0.7708 0.0
H989 H 0.3816 0.10379 0.9432 0.0
H990 H 0.40728 0.07985 0.93399 0.0
H991 H 0.3936 0.09358 0.83578 0.0
H992 H 0.4619 1.00768 0.8422 0.0
H993 H 0.43545 0.05201 0.62095 0.0
H994 H 0.40399 0.99692 0.94313 0.0
H995 H 0.41188 0.02793 0.99242 0.0
H996 H 0.43721 1.00396 0.97327 0.0
H997 H 0.38556 0.05316 0.60608 0.0
H998 H 0.39284 0.08254 0.66619 0.0
H999 H 0.36716 0.06148 0.70414 0.0
C1000 C 0.4827 0.31479 0.83795 0.0
C1001 C 0.4837 0.31795 0.93071 0.0
C1002 C 0.4881 0.33591 0.78099 0.0
C1003 C 0.49417 0.36098 0.81743 0.0
C1004 C 0.49612 0.36388 0.91088 0.0
C1005 C 0.49146 0.34242 0.96553 0.0
C1006 C 0.48645 0.33149 0.68201 0.0
C1007 C 0.50229 0.39001 0.95394 0.0
C1008 C 0.52612 0.41873 0.70181 0.0
C1009 C 0.50481 0.43563 0.69025 0.0
C1010 C 0.52274 0.39341 0.73599 0.0
C1011 C 0.49749 0.3847 0.76023 0.0
C1012 C 0.47575 0.40083 0.74126 0.0
C1013 C 0.47964 0.42579 0.7054 0.0
C1014 C 0.54645 0.3766 0.75126 0.0
C1015 C 0.44841 0.39256 0.76468 0.0
H1016 H 0.47696 0.29606 0.80987 0.0
H1017 H 0.49341 0.34501 0.03678 0.0
H1018 H 0.46754 0.33908 0.65745 0.0
H1019 H 0.50229 0.34199 0.64746 0.0
H1020 H 0.48762 0.31043 0.66399 0.0
H1021 H 0.50329 0.389 0.02753 0.0
H1022 H 0.52122 0.39742 0.92932 0.0
H1023 H 0.48708 0.40444 0.93587 0.0
H1024 H 0.54564 0.42564 0.68816 0.0
H1025 H 0.46287 0.43807 0.69274 0.0
H1026 H 0.54263 0.3562 0.72915 0.0
H1027 H 0.55099 0.37626 0.82331 0.0
H1028 H 0.56383 0.384 0.71571 0.0
H1029 H 0.44455 0.37246 0.73983 0.0
H1030 H 0.43342 0.40583 0.73686 0.0
H1031 H 0.44631 0.39249 0.83802 0.0
C1032 C 0.22253 0.5227 0.88779 0.0
C1033 C 0.23389 0.49785 0.89416 0.0
C1034 C 0.19853 0.5265 0.84271 0.0
C1035 C 0.18535 0.50498 0.80232 0.0
C1036 C 0.19771 0.48017 0.80355 0.0
C1037 C 0.2215 0.47687 0.85011 0.0
C1038 C 0.18632 0.55328 0.84418 0.0
C1039 C 0.18496 0.45665 0.76052 0.0
C1040 C 0.11041 0.50538 0.80134 0.0
C1041 C 0.10396 0.51165 0.71354 0.0
C1042 C 0.13651 0.5033 0.83014 0.0
C1043 C 0.15734 0.50757 0.77024 0.0
C1044 C 0.15106 0.51403 0.68112 0.0
C1045 C 0.12456 0.51624 0.65414 0.0
C1046 C 0.14178 0.49613 0.92518 0.0
C1047 C 0.1723 0.51879 0.61427 0.0
H1048 H 0.23147 0.5389 0.92356 0.0
H1049 H 0.22973 0.45749 0.85622 0.0
H1050 H 0.17937 0.55849 0.7769 0.0
H1051 H 0.16909 0.55329 0.88865 0.0
H1052 H 0.20014 0.56852 0.86823 0.0
H1053 H 0.19843 0.43968 0.75645 0.0
H1054 H 0.16761 0.45096 0.7996 0.0
H1055 H 0.17813 0.46132 0.69259 0.0
H1056 H 0.09495 0.50265 0.84888 0.0
H1057 H 0.12 0.52128 0.58621 0.0
H1058 H 0.15228 0.47723 0.92602 0.0
H1059 H 0.12362 0.49425 0.96468 0.0
H1060 H 0.15452 0.51095 0.9577 0.0
H1061 H 0.18233 0.53741 0.63089 0.0
H1062 H 0.1645 0.51996 0.54552 0.0
H1063 H 0.18717 0.50306 0.61658 0.0
C1064 C 0.03508 0.83639 0.35564 0.0
C1065 C 1.00953 0.82657 0.34758 0.0
C1066 C 0.04013 0.8613 0.39533 0.0
C1067 C 0.01916 0.87731 0.42609 0.0
C1068 C 0.99359 0.86682 0.42139 0.0
C1069 C 0.9892 0.84186 0.38348 0.0
C1070 C 0.06796 0.8705 0.40399 0.0
C1071 C 0.9704 0.88253 0.45185 0.0
C1072 C 0.02676 0.93294 0.59977 0.0
C1073 C 0.02796 0.95557 0.54808 0.0
C1074 C 0.02536 0.90762 0.56076 0.0
C1075 C 0.02369 0.90435 0.46725 0.0
C1076 C 0.02519 0.92711 0.41449 0.0
C1077 C 0.02837 0.95213 0.45526 0.0
C1078 C 0.02593 0.88423 0.62016 0.0
C1079 C 0.02348 0.92502 0.31472 0.0
H1080 H 0.05106 0.82504 0.32818 0.0
H1081 H 0.96936 0.83461 0.37879 0.0
H1082 H 0.07135 0.88697 0.35857 0.0
H1083 H 0.0718 0.87775 0.47262 0.0
H1084 H 0.08215 0.85477 0.38772 0.0
H1085 H 0.97375 0.89102 0.51905 0.0
H1086 H 0.96764 0.89877 0.4051 0.0
H1087 H 0.95217 0.87082 0.453 0.0
H1088 H 0.02781 0.93498 0.67137 0.0
H1089 H 0.03126 0.96906 0.41429 0.0
H1090 H 0.03627 0.88881 0.68298 0.0
H1091 H 0.03591 0.86733 0.58841 0.0
H1092 H 1.00565 0.8783 0.63535 0.0
H1093 H 0.03942 0.91249 0.28869 0.0
H1094 H 0.02474 0.94436 0.28272 0.0
H1095 H 1.00478 0.9156 0.2952 0.0
C1096 C 0.68704 1.00909 0.29998 0.0
C1097 C 0.71158 1.01115 0.34244 0.0
C1098 C 0.66343 0.01295 0.3459 0.0
C1099 C 0.66369 0.02078 0.43641 0.0
C1100 C 0.68833 0.02459 0.47868 0.0
C1101 C 0.71178 0.01934 0.43196 0.0
C1102 C 0.63806 1.00784 0.29761 0.0
C1103 C 0.69062 0.03406 0.57344 0.0
C1104 C 0.59907 0.05137 0.51439 0.0
C1105 C 0.58769 0.03139 0.5642 0.0
C1106 C 0.62412 0.04866 0.47648 0.0
C1107 C 0.63809 0.02492 0.48485 0.0
C1108 C 0.62694 1.00485 0.53652 0.0
C1109 C 0.60242 1.00869 0.57783 0.0
C1110 C 0.63591 0.0715 0.42898 0.0
C1111 C 0.64073 0.97908 0.54707 0.0
H1112 H 0.68599 1.00423 0.22998 0.0
H1113 H 0.73025 0.02134 0.46659 0.0
H1114 H 0.62647 0.99356 0.33527 0.0
H1115 H 0.62642 0.02602 0.29382 0.0
H1116 H 0.64103 1.00005 0.22915 0.0
H1117 H 0.70277 0.05198 0.57625 0.0
H1118 H 0.67154 0.03843 0.60428 0.0
H1119 H 0.70088 0.01911 0.61313 0.0
H1120 H 0.58847 0.0695 0.50629 0.0
H1121 H 0.59509 0.99408 0.62207 0.0
H1122 H 0.63851 0.06662 0.3576 0.0
H1123 H 0.65553 0.07587 0.45698 0.0
H1124 H 0.62364 0.08933 0.43464 0.0
H1125 H 0.64023 0.96823 0.48275 0.0
H1126 H 0.63151 0.96686 0.59854 0.0
H1127 H 0.66153 0.98214 0.56485 0.0
C1128 C 0.54602 0.72464 0.50583 0.0
C1129 C 0.53414 0.72659 0.42237 0.0
C1130 C 0.54451 0.70133 0.55496 0.0
C1131 C 0.53047 0.67941 0.5204 0.0
C1132 C 0.51746 0.68193 0.43768 0.0
C1133 C 0.51929 0.70538 0.39054 0.0
C1134 C 0.5585 0.7005 0.64289 0.0
C1135 C 0.50298 0.65922 0.39568 0.0
C1136 C 0.55107 0.60971 0.57612 0.0
C1137 C 0.52922 0.59989 0.62081 0.0
C1138 C 0.55205 0.63557 0.54564 0.0
C1139 C 0.53126 0.65303 0.56431 0.0
C1140 C 0.5103 0.64412 0.61738 0.0
C1141 C 0.50922 0.61765 0.64323 0.0
C1142 C 0.575 0.6439 0.49019 0.0
C1143 C 0.48869 0.66241 0.64523 0.0
H1144 H 0.55765 0.74084 0.53071 0.0
H1145 H 0.51004 0.70675 0.32593 0.0
H1146 H 0.56426 0.68045 0.66117 0.0
H1147 H 0.57628 0.71289 0.64242 0.0
H1148 H 0.54532 0.70854 0.69475 0.0
H1149 H 0.51658 0.6426 0.38499 0.0
H1150 H 0.48735 0.65249 0.44059 0.0
H1151 H 0.49404 0.66425 0.33085 0.0
H1152 H 0.56735 0.59704 0.56262 0.0
H1153 H 0.49246 0.61085 0.68 0.0
H1154 H 0.58463 0.66112 0.52145 0.0
H1155 H 0.5681 0.64977 0.42341 0.0
H1156 H 0.58972 0.62815 0.48188 0.0
H1157 H 0.49683 0.68154 0.66696 0.0
H1158 H 0.4769 0.65432 0.70015 0.0
H1159 H 0.47557 0.66592 0.58796 0.0
C1160 C 0.82402 0.56703 0.43693 0.0
C1161 C 0.81067 0.54568 0.39847 0.0
C1162 C 0.84822 0.56399 0.48105 0.0
C1163 C 0.85996 0.53897 0.48645 0.0
C1164 C 0.84588 0.51713 0.45203 0.0
C1165 C 0.82151 0.52072 0.4088 0.0
C1166 C 0.86199 0.58792 0.51711 0.0
C1167 C 0.85734 0.49006 0.45574 0.0
C1168 C 0.93499 0.53692 0.48751 0.0
C1169 C 0.94125 0.53235 0.57682 0.0
C1170 C 0.90891 0.53885 0.45794 0.0
C1171 C 0.88797 0.53623 0.51868 0.0
C1172 C 0.89411 0.53158 0.60933 0.0
C1173 C 0.92054 0.5294 0.63699 0.0
C1174 C 0.90381 0.5435 0.36076 0.0
C1175 C 0.87276 0.52888 0.67729 0.0
H1176 H 0.8161 0.58646 0.42841 0.0
H1177 H 0.81179 0.50414 0.37783 0.0
H1178 H 0.86884 0.58462 0.58601 0.0
H1179 H 0.87945 0.59193 0.47609 0.0
H1180 H 0.84923 0.60545 0.51689 0.0
H1181 H 0.84298 0.47483 0.43581 0.0
H1182 H 0.87435 0.48871 0.41046 0.0
H1183 H 0.86448 0.48595 0.52372 0.0
H1184 H 0.95059 0.53839 0.43962 0.0
H1185 H 0.92499 0.52577 0.70611 0.0
H1186 H 0.89163 0.56121 0.35263 0.0
H1187 H 0.89283 0.52673 0.33208 0.0
H1188 H 0.92208 0.54596 0.32226 0.0
H1189 H 0.8616 0.51073 0.66351 0.0
H1190 H 0.85884 0.54541 0.67289 0.0
H1191 H 0.88057 0.52817 0.74613 0.0
loop_
_geom_bond_atom_site_label_1
_geom_bond_atom_site_label_2
_geom_bond_distance
_geom_bond_site_symmetry_2
_ccdc_geom_bond_type
H0 C3 0.929 . S
H1 C6 0.929 . S
H2 C8 0.930 . S
C3 H0 0.929 . S
C3 C4 1.398 . S
C3 C5 1.396 . S
C4 C3 1.398 . S
C4 C8 1.407 . S
C5 C3 1.396 . S
C5 C6 1.394 . S
C6 H1 0.929 . S
C6 C5 1.394 . S
C6 C7 1.382 . S
C7 C6 1.382 . S
C7 C8 1.392 . S
C7 N9 1.420 . S
C8 H2 0.930 . S
C8 C4 1.407 . S
C8 C7 1.392 . S
N9 C7 1.420 . S
N9 C10 1.244 . S
C10 N9 1.244 . S
H11 C14 0.929 . S
H12 C17 0.929 . S
H13 C19 0.930 . S
C14 H11 0.929 . S
C14 C15 1.398 . S
C14 C16 1.396 . S
C15 C14 1.398 . S
C15 C19 1.407 . S
C16 C14 1.396 . S
C16 C17 1.394 . S
C17 H12 0.929 . S
C17 C16 1.394 . S
C17 C18 1.382 . S
C18 C17 1.382 . S
C18 C19 1.392 . S
C18 N20 1.420 . S
C19 H13 0.930 . S
C19 C15 1.407 . S
C19 C18 1.392 . S
N20 C18 1.420 . S
N20 C21 1.244 . S
C21 N20 1.244 . S
H22 C25 0.929 . S
H23 C28 0.929 . S
H24 C30 0.930 . S
C25 H22 0.929 . S
C25 C26 1.398 . S
C25 C27 1.396 . S
C26 C25 1.398 . S
C26 C30 1.407 . S
C27 C25 1.396 . S
C27 C28 1.394 . S
C28 H23 0.929 . S
C28 C27 1.394 . S
C28 C29 1.382 . S
C29 C28 1.382 . S
C29 C30 1.392 . S
C29 N31 1.420 . S
C30 H24 0.930 . S
C30 C26 1.407 . S
C30 C29 1.392 . S
N31 C29 1.420 . S
N31 C32 1.244 . S
C32 N31 1.244 . S
H33 C36 0.929 . S
H34 C39 0.929 . S
H35 C41 0.930 . S
C36 H33 0.929 . S
C36 C37 1.398 . S
C36 C38 1.396 . S
C37 C36 1.398 . S
C37 C41 1.407 . S
C38 C36 1.396 . S
C38 C39 1.394 . S
C39 H34 0.929 . S
C39 C38 1.394 . S
C39 C40 1.382 . S
C40 C39 1.382 . S
C40 C41 1.392 . S
C40 N42 1.420 . S
C41 H35 0.930 . S
C41 C37 1.407 . S
C41 C40 1.392 . S
N42 C40 1.420 . S
N42 C43 1.244 . S
C43 N42 1.244 . S
H44 C47 0.929 . S
H45 C50 0.929 . S
H46 C52 0.930 . S
C47 H44 0.929 . S
C47 C48 1.398 . S
C47 C49 1.396 1_556 S
C48 C47 1.398 . S
C48 C52 1.407 . S
C49 C47 1.396 1_554 S
C49 C50 1.394 . S
C50 H45 0.929 . S
C50 C49 1.394 . S
C50 C51 1.382 . S
C51 C50 1.382 . S
C51 C52 1.392 1_554 S
C51 N53 1.420 . S
C52 H46 0.930 . S
C52 C48 1.407 . S
C52 C51 1.392 1_556 S
N53 C51 1.420 . S
N53 C54 1.244 . S
C54 N53 1.244 . S
H55 C58 0.929 . S
H56 C61 0.929 . S
H57 C63 0.930 . S
C58 H55 0.929 . S
C58 C59 1.398 . S
C58 C60 1.396 1_556 S
C59 C58 1.398 . S
C59 C63 1.407 . S
C60 C58 1.396 1_554 S
C60 C61 1.394 . S
C61 H56 0.929 . S
C61 C60 1.394 . S
C61 C62 1.382 . S
C62 C61 1.382 . S
C62 C63 1.392 1_554 S
C62 N64 1.420 . S
C63 H57 0.930 . S
C63 C59 1.407 . S
C63 C62 1.392 1_556 S
N64 C62 1.420 . S
N64 C65 1.244 . S
C65 N64 1.244 . S
H66 C69 0.929 . S
H67 C72 0.929 . S
H68 C74 0.930 . S
C69 H66 0.929 . S
C69 C70 1.398 . S
C69 C71 1.396 1_556 S
C70 C69 1.398 . S
C70 C74 1.407 . S
C71 C69 1.396 1_554 S
C71 C72 1.394 . S
C72 H67 0.929 . S
C72 C71 1.394 . S
C72 C73 1.380 1_554 S
C73 C72 1.380 1_556 S
C73 C74 1.394 . S
C73 N75 1.420 1_556 S
C74 H68 0.930 . S
C74 C70 1.407 . S
C74 C73 1.394 . S
N75 C73 1.420 1_554 S
N75 C76 1.244 . S
C76 N75 1.244 . S
H77 C80 0.929 . S
H78 C83 0.929 . S
H79 C85 0.930 . S
C80 H77 0.929 . S
C80 C81 1.398 . S
C80 C82 1.396 1_556 S
C81 C80 1.398 . S
C81 C85 1.407 . S
C82 C80 1.396 1_554 S
C82 C83 1.394 . S
C83 H78 0.929 . S
C83 C82 1.394 . S
C83 C84 1.382 . S
C84 C83 1.382 . S
C84 C85 1.392 1_554 S
C84 N86 1.420 . S
C85 H79 0.930 . S
C85 C81 1.407 . S
C85 C84 1.392 1_556 S
N86 C84 1.420 . S
N86 C87 1.244 . S
C87 N86 1.244 . S
Eu88 N119 2.657 1_565 S
Eu88 N126 2.599 1_565 S
Eu88 O132 2.558 . S
Eu88 O133 2.612 1_455 S
Eu88 O135 2.339 1_455 S
Eu88 O136 2.563 . S
Eu88 O137 2.419 . S
Eu88 O139 2.380 1_565 S
Eu88 O140 2.432 . S
Eu88 C152 2.848 . S
C89 C92 1.429 1_545 S
C89 C93 1.408 1_545 S
C89 N96 1.377 . S
C90 C92 1.420 . S
C90 C94 1.423 . S
C90 C102 1.392 . S
C91 C93 1.432 . S
C91 C94 1.351 . S
C91 H114 0.931 . S
C92 C89 1.429 1_565 S
C92 C90 1.420 . S
C92 N100 1.370 . S
C93 C89 1.408 1_565 S
C93 C91 1.432 . S
C93 C98 1.387 1_565 S
C94 C90 1.423 . S
C94 C91 1.351 . S
C94 H106 0.930 . S
C95 C97 1.400 . S
C95 C98 1.386 . S
C95 H107 0.930 . S
N96 C89 1.377 . S
N96 C97 1.321 . S
N96 Eu99 2.609 . S
C97 C95 1.400 . S
C97 N96 1.321 . S
C97 H104 0.930 . S
C98 C93 1.387 1_545 S
C98 C95 1.386 . S
C98 H117 0.930 . S
Eu99 N96 2.609 . S
Eu99 N100 2.636 1_545 S
Eu99 O133 2.380 1_545 S
Eu99 O134 2.432 . S
Eu99 O138 2.558 . S
Eu99 O139 2.612 1_655 S
Eu99 O141 2.339 1_655 S
Eu99 O142 2.563 1_655 S
Eu99 O143 2.419 . S
Eu99 C163 2.848 . S
N100 C92 1.370 . S
N100 Eu99 2.636 1_565 S
N100 C101 1.349 1_655 S
C101 N100 1.349 1_455 S
C101 C103 1.413 . S
C101 H108 0.929 . S
C102 C90 1.392 . S
C102 C103 1.367 1_655 S
C102 H110 0.930 . S
C103 C101 1.413 . S
C103 C102 1.367 1_455 S
C103 H105 0.930 . S
H104 C97 0.930 . S
H105 C103 0.930 . S
H106 C94 0.930 . S
H107 C95 0.930 . S
H108 C101 0.929 . S
H109 C123 0.930 1_654 S
H110 C102 0.930 . S
H111 C129 0.930 . S
H112 C120 0.929 1_655 S
H113 C127 0.930 . S
H114 C91 0.931 . S
H115 C121 0.930 . S
H116 C154 0.930 . S
H117 C98 0.930 . S
H118 C153 0.931 . S
N119 Eu88 2.657 1_545 S
N119 C120 1.334 . S
N119 C124 1.362 . S
C120 H112 0.929 1_455 S
C120 N119 1.334 . S
C120 C123 1.413 . S
C121 H115 0.930 . S
C121 C122 1.392 . S
C121 C123 1.367 1_554 S
C122 C121 1.392 . S
C122 C124 1.420 1_554 S
C122 C154 1.423 . S
C123 H109 0.930 1_456 S
C123 C120 1.413 . S
C123 C121 1.367 1_556 S
C124 N119 1.362 . S
C124 C122 1.420 1_556 S
C124 C128 1.429 . S
H125 C130 0.930 . S
N126 Eu88 2.599 1_545 S
N126 C128 1.400 . S
N126 C129 1.304 1_545 S
C127 H113 0.930 . S
C127 C129 1.400 . S
C127 C130 1.386 1_565 S
C128 C124 1.429 . S
C128 N126 1.400 . S
C128 C131 1.411 . S
C129 H111 0.930 . S
C129 N126 1.304 1_565 S
C129 C127 1.400 . S
C130 H125 0.930 . S
C130 C127 1.386 1_545 S
C130 C131 1.395 . S
C131 C128 1.411 . S
C131 C130 1.395 . S
C131 C153 1.420 1_556 S
O132 Eu88 2.558 . S
O132 C152 1.257 . S
O133 Eu88 2.612 1_655 S
O133 Eu99 2.380 1_565 S
O133 C144 1.276 . S
O134 Eu99 2.432 . S
O134 C151 1.264 . S
O135 Eu88 2.339 1_655 S
O135 C151 1.254 1_565 S
O136 Eu88 2.563 . S
O136 C144 1.235 1_455 S
O137 Eu88 2.419 . S
O137 C152 1.249 . S
O138 Eu99 2.558 . S
O138 C163 1.257 . S
O139 Eu88 2.380 1_545 S
O139 Eu99 2.612 1_455 S
O139 C155 1.276 . S
O140 Eu88 2.432 . S
O140 C162 1.264 1_565 S
O141 Eu99 2.339 1_455 S
O141 C162 1.254 . S
O142 Eu99 2.563 1_455 S
O142 C155 1.235 . S
O143 Eu99 2.419 . S
O143 C163 1.249 . S
C144 O133 1.276 . S
C144 O136 1.235 1_655 S
C145 C147 1.393 . S
C145 C149 1.395 . S
C145 C152 1.492 . S
C146 C147 1.392 . S
C146 C148 1.386 . S
C147 C145 1.393 . S
C147 C146 1.392 . S
C147 H164 0.961 . S
C148 C146 1.386 . S
C148 C150 1.395 . S
C148 H165 0.930 1_556 S
C149 C145 1.395 . S
C149 C150 1.379 . S
C149 H166 0.930 . S
C150 C148 1.395 . S
C150 C149 1.379 . S
C150 H167 0.930 . S
C151 O134 1.264 . S
C151 O135 1.254 1_545 S
C152 Eu88 2.848 . S
C152 O132 1.257 . S
C152 O137 1.249 . S
C152 C145 1.492 . S
C153 H118 0.931 . S
C153 C131 1.420 1_554 S
C153 C154 1.351 . S
C154 H116 0.930 . S
C154 C122 1.423 . S
C154 C153 1.351 . S
C155 O139 1.276 . S
C155 O142 1.235 . S
C156 C157 1.393 . S
C156 C160 1.395 . S
C156 C163 1.492 . S
C157 C156 1.393 . S
C157 C158 1.392 . S
C157 H168 0.930 1_655 S
C158 C157 1.392 . S
C158 C159 1.386 . S
C159 C158 1.386 . S
C159 C161 1.395 . S
C159 H169 0.930 . S
C160 C156 1.395 . S
C160 C161 1.379 . S
C160 H170 0.930 . S
C161 C159 1.395 . S
C161 C160 1.379 . S
C161 H171 0.930 . S
C162 O140 1.264 1_545 S
C162 O141 1.254 . S
C163 Eu99 2.848 . S
C163 O138 1.257 . S
C163 O143 1.249 . S
C163 C156 1.492 . S
H164 C147 0.961 . S
H165 C148 0.930 1_554 S
H166 C149 0.930 . S
H167 C150 0.930 . S
H168 C157 0.930 1_455 S
H169 C159 0.930 . S
H170 C160 0.930 . S
H171 C161 0.930 . S
Eu172 N203 2.657 . S
Eu172 N210 2.609 . S
Eu172 O216 2.558 . S
Eu172 O217 2.612 1_545 S
Eu172 O219 2.339 1_545 S
Eu172 O220 2.563 . S
Eu172 O221 2.419 . S
Eu172 O223 2.380 . S
Eu172 O224 2.432 . S
Eu172 C236 2.848 . S
C173 C176 1.429 . S
C173 C177 1.411 . S
C173 N180 1.377 . S
C174 C176 1.420 . S
C174 C178 1.423 . S
C174 C186 1.392 . S
C175 C177 1.420 . S
C175 C178 1.351 . S
C175 H198 0.931 . S
C176 C173 1.429 . S
C176 C174 1.420 . S
C176 N184 1.362 . S
C177 C173 1.411 . S
C177 C175 1.420 . S
C177 C182 1.395 . S
C178 C174 1.423 . S
C178 C175 1.351 . S
C178 H190 0.930 . S
C179 C181 1.400 . S
C179 C182 1.386 . S
C179 H191 0.930 . S
N180 C173 1.377 . S
N180 C181 1.321 . S
N180 Eu183 2.609 . S
C181 C179 1.400 . S
C181 N180 1.321 . S
C181 H188 0.930 . S
C182 C177 1.395 . S
C182 C179 1.386 . S
C182 H201 0.930 . S
Eu183 N180 2.609 . S
Eu183 N184 2.657 . S
Eu183 O217 2.380 . S
Eu183 O218 2.432 . S
Eu183 O222 2.558 . S
Eu183 O223 2.612 1_565 S
Eu183 O225 2.339 1_565 S
Eu183 O226 2.563 1_565 S
Eu183 O227 2.419 . S
Eu183 C247 2.848 . S
N184 C176 1.362 . S
N184 Eu183 2.657 . S
N184 C185 1.334 1_565 S
C185 N184 1.334 1_545 S
C185 C187 1.413 . S
C185 H192 0.929 . S
C186 C174 1.392 . S
C186 C187 1.367 1_565 S
C186 H194 0.930 . S
C187 C185 1.413 . S
C187 C186 1.367 1_545 S
C187 H189 0.930 . S
H188 C181 0.930 . S
H189 C187 0.930 . S
H190 C178 0.930 . S
H191 C179 0.930 . S
H192 C185 0.929 . S
H193 C207 0.930 1_564 S
H194 C186 0.930 . S
H195 C213 0.930 . S
H196 C204 0.929 1_565 S
H197 C211 0.930 . S
H198 C175 0.931 . S
H199 C205 0.930 . S
H200 C238 0.930 . S
H201 C182 0.930 . S
H202 C237 0.931 . S
N203 Eu172 2.657 . S
N203 C204 1.334 . S
N203 C208 1.362 . S
C204 H196 0.929 1_545 S
C204 N203 1.334 . S
C204 C207 1.413 . S
C205 H199 0.930 . S
C205 C206 1.392 . S
C205 C207 1.367 1_554 S
C206 C205 1.392 . S
C206 C208 1.420 1_554 S
C206 C238 1.423 . S
C207 H193 0.930 1_546 S
C207 C204 1.413 . S
C207 C205 1.367 1_556 S
C208 N203 1.362 . S
C208 C206 1.420 1_556 S
C208 C212 1.429 . S
H209 C214 0.930 . S
N210 Eu172 2.609 . S
N210 C212 1.377 . S
N210 C213 1.321 . S
C211 H197 0.930 . S
C211 C213 1.400 . S
C211 C214 1.386 . S
C212 C208 1.429 . S
C212 N210 1.377 . S
C212 C215 1.411 . S
C213 H195 0.930 . S
C213 N210 1.321 . S
C213 C211 1.400 . S
C214 H209 0.930 . S
C214 C211 1.386 . S
C214 C215 1.395 . S
C215 C212 1.411 . S
C215 C214 1.395 . S
C215 C237 1.420 1_556 S
O216 Eu172 2.558 . S
O216 C236 1.257 . S
O217 Eu172 2.612 1_565 S
O217 Eu183 2.380 . S
O217 C228 1.276 . S
O218 Eu183 2.432 . S
O218 C235 1.264 . S
O219 Eu172 2.339 1_565 S
O219 C235 1.254 . S
O220 Eu172 2.563 . S
O220 C228 1.235 1_545 S
O221 Eu172 2.419 . S
O221 C236 1.249 . S
O222 Eu183 2.558 . S
O222 C247 1.257 . S
O223 Eu172 2.380 . S
O223 Eu183 2.612 1_545 S
O223 C239 1.276 . S
O224 Eu172 2.432 . S
O224 C246 1.264 . S
O225 Eu183 2.339 1_545 S
O225 C246 1.254 . S
O226 Eu183 2.563 1_545 S
O226 C239 1.235 . S
O227 Eu183 2.419 . S
O227 C247 1.249 . S
C228 O217 1.276 . S
C228 O220 1.235 1_565 S
C229 C231 1.393 . S
C229 C233 1.395 . S
C229 C236 1.492 . S
C230 C231 1.392 . S
C230 C232 1.386 . S
C231 C229 1.393 . S
C231 C230 1.392 . S
C231 H248 0.930 . S
C232 C230 1.386 . S
C232 C234 1.395 . S
C232 H249 0.930 1_556 S
C233 C229 1.395 . S
C233 C234 1.379 . S
C233 H250 0.930 . S
C234 C232 1.395 . S
C234 C233 1.379 . S
C234 H251 0.930 . S
C235 O218 1.264 . S
C235 O219 1.254 . S
C236 Eu172 2.848 . S
C236 O216 1.257 . S
C236 O221 1.249 . S
C236 C229 1.492 . S
C237 H202 0.931 . S
C237 C215 1.420 1_554 S
C237 C238 1.351 . S
C238 H200 0.930 . S
C238 C206 1.423 . S
C238 C237 1.351 . S
C239 O223 1.276 . S
C239 O226 1.235 . S
C240 C241 1.393 . S
C240 C244 1.395 . S
C240 C247 1.492 . S
C241 C240 1.393 . S
C241 C242 1.392 . S
C241 H252 0.930 1_565 S
C242 C241 1.392 . S
C242 C243 1.386 . S
C243 C242 1.386 . S
C243 C245 1.395 . S
C243 H253 0.930 . S
C244 C240 1.395 . S
C244 C245 1.379 . S
C244 H254 0.930 . S
C245 C243 1.395 . S
C245 C244 1.379 . S
C245 H255 0.930 . S
C246 O224 1.264 . S
C246 O225 1.254 . S
C247 Eu183 2.848 . S
C247 O222 1.257 . S
C247 O227 1.249 . S
C247 C240 1.492 . S
H248 C231 0.930 . S
H249 C232 0.930 1_554 S
H250 C233 0.930 . S
H251 C234 0.930 . S
H252 C241 0.930 1_545 S
H253 C243 0.930 . S
H254 C244 0.930 . S
H255 C245 0.930 . S
Eu256 N287 2.657 . S
Eu256 N294 2.609 . S
Eu256 O300 2.558 . S
Eu256 O301 2.612 . S
Eu256 O303 2.339 . S
Eu256 O304 2.563 . S
Eu256 O305 2.419 . S
Eu256 O307 2.380 . S
Eu256 O308 2.432 . S
Eu256 C320 2.848 . S
C257 C260 1.429 . S
C257 C261 1.411 . S
C257 N264 1.377 . S
C258 C260 1.420 . S
C258 C262 1.423 . S
C258 C270 1.392 . S
C259 C261 1.420 . S
C259 C262 1.351 . S
C259 H282 0.931 . S
C260 C257 1.429 . S
C260 C258 1.420 . S
C260 N268 1.362 . S
C261 C257 1.411 . S
C261 C259 1.420 . S
C261 C266 1.395 . S
C262 C258 1.423 . S
C262 C259 1.351 . S
C262 H274 0.930 . S
C263 C265 1.400 . S
C263 C266 1.386 . S
C263 H275 0.930 . S
N264 C257 1.377 . S
N264 C265 1.321 . S
N264 Eu267 2.609 . S
C265 C263 1.400 . S
C265 N264 1.321 . S
C265 H272 0.930 . S
C266 C261 1.395 . S
C266 C263 1.386 . S
C266 H285 0.930 . S
Eu267 N264 2.609 . S
Eu267 N268 2.657 . S
Eu267 O301 2.380 . S
Eu267 O302 2.432 . S
Eu267 O306 2.558 . S
Eu267 O307 2.612 . S
Eu267 O309 2.339 . S
Eu267 O310 2.563 . S
Eu267 O311 2.419 . S
Eu267 C331 2.848 . S
N268 C260 1.362 . S
N268 Eu267 2.657 . S
N268 C269 1.334 . S
C269 N268 1.334 . S
C269 C271 1.413 . S
C269 H276 0.929 . S
C270 C258 1.392 . S
C270 C271 1.367 . S
C270 H278 0.930 . S
C271 C269 1.413 . S
C271 C270 1.367 . S
C271 H273 0.930 . S
H272 C265 0.930 . S
H273 C271 0.930 . S
H274 C262 0.930 . S
H275 C263 0.930 . S
H276 C269 0.929 . S
H277 C291 0.930 . S
H278 C270 0.930 . S
H279 C297 0.930 . S
H280 C288 0.929 . S
H281 C295 0.930 . S
H282 C259 0.931 . S
H283 C289 0.930 . S
H284 C322 0.930 . S
H285 C266 0.930 . S
H286 C321 0.931 . S
N287 Eu256 2.657 . S
N287 C288 1.334 . S
N287 C292 1.362 . S
C288 H280 0.929 . S
C288 N287 1.334 . S
C288 C291 1.413 . S
C289 H283 0.930 . S
C289 C290 1.392 . S
C289 C291 1.367 . S
C290 C289 1.392 . S
C290 C292 1.420 . S
C290 C322 1.423 . S
C291 H277 0.930 . S
C291 C288 1.413 . S
C291 C289 1.367 . S
C292 N287 1.362 . S
C292 C290 1.420 . S
C292 C296 1.429 . S
H293 C298 0.930 . S
N294 Eu256 2.609 . S
N294 C296 1.377 . S
N294 C297 1.321 . S
C295 H281 0.930 . S
C295 C297 1.400 . S
C295 C298 1.386 . S
C296 C292 1.429 . S
C296 N294 1.377 . S
C296 C299 1.411 . S
C297 H279 0.930 . S
C297 N294 1.321 . S
C297 C295 1.400 . S
C298 H293 0.930 . S
C298 C295 1.386 . S
C298 C299 1.395 . S
C299 C296 1.411 . S
C299 C298 1.395 . S
C299 C321 1.420 . S
O300 Eu256 2.558 . S
O300 C320 1.257 . S
O301 Eu256 2.612 . S
O301 Eu267 2.380 . S
O301 C312 1.276 . S
O302 Eu267 2.432 . S
O302 C319 1.264 . S
O303 Eu256 2.339 . S
O303 C319 1.254 . S
O304 Eu256 2.563 . S
O304 C312 1.235 . S
O305 Eu256 2.419 . S
O305 C320 1.249 . S
O306 Eu267 2.558 . S
O306 C331 1.257 . S
O307 Eu256 2.380 . S
O307 Eu267 2.612 . S
O307 C323 1.276 . S
O308 Eu256 2.432 . S
O308 C330 1.264 . S
O309 Eu267 2.339 . S
O309 C330 1.254 . S
O310 Eu267 2.563 . S
O310 C323 1.235 . S
O311 Eu267 2.419 . S
O311 C331 1.249 . S
C312 O301 1.276 . S
C312 O304 1.235 . S
C313 C315 1.393 . S
C313 C317 1.395 . S
C313 C320 1.492 . S
C314 C315 1.392 . S
C314 C316 1.386 . S
C315 C313 1.393 . S
C315 C314 1.392 . S
C315 H332 0.930 . S
C316 C314 1.386 . S
C316 C318 1.395 . S
C316 H333 0.930 . S
C317 C313 1.395 . S
C317 C318 1.379 . S
C317 H334 0.930 . S
C318 C316 1.395 . S
C318 C317 1.379 . S
C318 H335 0.930 . S
C319 O302 1.264 . S
C319 O303 1.254 . S
C320 Eu256 2.848 . S
C320 O300 1.257 . S
C320 O305 1.249 . S
C320 C313 1.492 . S
C321 H286 0.931 . S
C321 C299 1.420 . S
C321 C322 1.351 . S
C322 H284 0.930 . S
C322 C290 1.423 . S
C322 C321 1.351 . S
C323 O307 1.276 . S
C323 O310 1.235 . S
C324 C325 1.393 . S
C324 C328 1.395 1_556 S
C324 C331 1.492 . S
C325 C324 1.393 . S
C325 C326 1.392 1_556 S
C325 H336 0.930 . S
C326 C325 1.392 1_554 S
C326 C327 1.386 . S
C327 C326 1.386 . S
C327 C329 1.395 . S
C327 H337 0.930 . S
C328 C324 1.395 1_554 S
C328 C329 1.379 . S
C328 H338 0.930 . S
C329 C327 1.395 . S
C329 C328 1.379 . S
C329 H339 0.930 . S
C330 O308 1.264 . S
C330 O309 1.254 . S
C331 Eu267 2.848 . S
C331 O306 1.257 . S
C331 O311 1.249 . S
C331 C324 1.492 . S
H332 C315 0.930 . S
H333 C316 0.930 . S
H334 C317 0.930 . S
H335 C318 0.930 . S
H336 C325 0.930 . S
H337 C327 0.930 . S
H338 C328 0.930 . S
H339 C329 0.930 . S
Eu340 N371 2.657 . S
Eu340 N378 2.609 . S
Eu340 O384 2.558 . S
Eu340 O385 2.612 . S
Eu340 O387 2.339 . S
Eu340 O388 2.563 . S
Eu340 O389 2.419 . S
Eu340 O391 2.380 . S
Eu340 O392 2.432 1_455 S
Eu340 C404 2.848 . S
C341 C344 1.429 . S
C341 C345 1.411 . S
C341 N348 1.377 . S
C342 C344 1.420 . S
C342 C346 1.423 . S
C342 C354 1.392 . S
C343 C345 1.420 . S
C343 C346 1.351 . S
C343 H366 0.931 . S
C344 C341 1.429 . S
C344 C342 1.420 . S
C344 N352 1.362 . S
C345 C341 1.411 . S
C345 C343 1.420 . S
C345 C350 1.395 1_655 S
C346 C342 1.423 . S
C346 C343 1.351 . S
C346 H358 0.930 . S
C347 C349 1.400 . S
C347 C350 1.386 . S
C347 H359 0.930 . S
N348 C341 1.377 . S
N348 C349 1.321 1_655 S
N348 Eu351 2.609 . S
C349 C347 1.400 . S
C349 N348 1.321 1_455 S
C349 H356 0.930 . S
C350 C345 1.395 1_455 S
C350 C347 1.386 . S
C350 H369 0.930 . S
Eu351 N348 2.609 . S
Eu351 N352 2.657 . S
Eu351 O385 2.380 1_655 S
Eu351 O386 2.432 1_655 S
Eu351 O390 2.558 . S
Eu351 O391 2.612 1_655 S
Eu351 O393 2.339 . S
Eu351 O394 2.563 . S
Eu351 O395 2.419 . S
Eu351 C415 2.848 . S
N352 C344 1.362 . S
N352 Eu351 2.657 . S
N352 C353 1.334 . S
C353 N352 1.334 . S
C353 C355 1.413 . S
C353 H360 0.929 . S
C354 C342 1.392 . S
C354 C355 1.367 . S
C354 H362 0.930 . S
C355 C353 1.413 . S
C355 C354 1.367 . S
C355 H357 0.930 . S
H356 C349 0.930 . S
H357 C355 0.930 . S
H358 C346 0.930 . S
H359 C347 0.930 . S
H360 C353 0.929 . S
H361 C375 0.930 . S
H362 C354 0.930 . S
H363 C381 0.923 1_655 S
H364 C372 0.929 . S
H365 C379 0.930 . S
H366 C343 0.931 . S
H367 C373 0.930 . S
H368 C406 0.930 . S
H369 C350 0.930 . S
H370 C405 0.931 . S
N371 Eu340 2.657 . S
N371 C372 1.334 . S
N371 C376 1.362 . S
C372 H364 0.929 . S
C372 N371 1.334 . S
C372 C375 1.413 . S
C373 H367 0.930 . S
C373 C374 1.392 . S
C373 C375 1.367 . S
C374 C373 1.392 . S
C374 C376 1.420 . S
C374 C406 1.423 . S
C375 H361 0.930 . S
C375 C372 1.413 . S
C375 C373 1.367 . S
C376 N371 1.362 . S
C376 C374 1.420 . S
C376 C380 1.429 . S
H377 C382 0.930 . S
N378 Eu340 2.609 . S
N378 C380 1.377 . S
N378 C381 1.330 . S
C379 H365 0.930 . S
C379 C381 1.397 1_655 S
C379 C382 1.386 1_655 S
C380 C376 1.429 . S
C380 N378 1.377 . S
C380 C383 1.411 . S
C381 H363 0.923 1_455 S
C381 N378 1.330 . S
C381 C379 1.397 1_455 S
C382 H377 0.930 . S
C382 C379 1.386 1_455 S
C382 C383 1.395 . S
C383 C380 1.411 . S
C383 C382 1.395 . S
C383 C405 1.420 . S
O384 Eu340 2.558 . S
O384 C404 1.257 . S
O385 Eu340 2.612 . S
O385 Eu351 2.380 1_455 S
O385 C396 1.276 . S
O386 Eu351 2.432 1_455 S
O386 C403 1.264 . S
O387 Eu340 2.339 . S
O387 C403 1.254 . S
O388 Eu340 2.563 . S
O388 C396 1.235 . S
O389 Eu340 2.419 . S
O389 C404 1.249 . S
O390 Eu351 2.558 . S
O390 C415 1.257 . S
O391 Eu340 2.380 . S
O391 Eu351 2.612 1_455 S
O391 C407 1.276 1_455 S
O392 Eu340 2.432 1_655 S
O392 C414 1.264 . S
O393 Eu351 2.339 . S
O393 C414 1.254 . S
O394 Eu351 2.563 . S
O394 C407 1.235 . S
O395 Eu351 2.419 . S
O395 C415 1.249 . S
C396 O385 1.276 . S
C396 O388 1.235 . S
C397 C399 1.393 . S
C397 C401 1.395 . S
C397 C404 1.492 . S
C398 C399 1.392 . S
C398 C400 1.386 . S
C399 C397 1.393 . S
C399 C398 1.392 . S
C399 H416 0.930 . S
C400 C398 1.386 . S
C400 C402 1.395 . S
C400 H417 0.930 . S
C401 C397 1.395 . S
C401 C402 1.379 . S
C401 H418 0.930 . S
C402 C400 1.395 . S
C402 C401 1.379 . S
C402 H419 0.930 . S
C403 O386 1.264 . S
C403 O387 1.254 . S
C404 Eu340 2.848 . S
C404 O384 1.257 . S
C404 O389 1.249 . S
C404 C397 1.492 . S
C405 H370 0.931 . S
C405 C383 1.420 . S
C405 C406 1.351 . S
C406 H368 0.930 . S
C406 C374 1.423 . S
C406 C405 1.351 . S
C407 O391 1.276 1_655 S
C407 O394 1.235 . S
C408 C409 1.393 . S
C408 C412 1.395 1_556 S
C408 C415 1.492 . S
C409 C408 1.393 . S
C409 C410 1.392 1_556 S
C409 H420 0.930 . S
C410 C409 1.392 1_554 S
C410 C411 1.386 . S
C411 C410 1.386 . S
C411 C413 1.395 . S
C411 H421 0.930 . S
C412 C408 1.395 1_554 S
C412 C413 1.379 . S
C412 H422 0.930 . S
C413 C411 1.395 . S
C413 C412 1.379 . S
C413 H423 0.930 . S
C414 O392 1.264 . S
C414 O393 1.254 . S
C415 Eu351 2.848 . S
C415 O390 1.257 . S
C415 O395 1.249 . S
C415 C408 1.492 . S
H416 C399 0.930 . S
H417 C400 0.930 . S
H418 C401 0.930 . S
H419 C402 0.930 . S
H420 C409 0.930 . S
H421 C411 0.930 . S
H422 C412 0.930 . S
H423 C413 0.930 . S
C424 C425 1.391 . S
C424 C426 1.394 . S
C424 H440 0.931 . S
C425 C424 1.391 . S
C425 C429 1.376 . S
C426 C424 1.394 . S
C426 C427 1.369 . S
C426 C430 1.531 . S
C427 C426 1.369 . S
C427 C428 1.410 . S
C427 C435 1.503 . S
C428 C427 1.410 . S
C428 C429 1.392 . S
C428 C431 1.511 . S
C429 C425 1.376 . S
C429 C428 1.392 . S
C429 H441 0.929 . S
C430 C426 1.531 . S
C430 H442 0.960 . S
C430 H443 0.962 . S
C430 H444 0.960 . S
C431 C428 1.511 . S
C431 H445 0.961 . S
C431 H446 0.961 . S
C431 H447 0.961 . S
C432 C433 1.370 . S
C432 C434 1.363 . S
C432 H448 0.931 . S
C433 C432 1.370 . S
C433 C437 1.408 . S
C434 C432 1.363 . S
C434 C435 1.370 . S
C434 C438 1.524 . S
C435 C427 1.503 . S
C435 C434 1.370 . S
C435 C436 1.403 . S
C436 C435 1.403 . S
C436 C437 1.404 . S
C436 C439 1.539 1_545 S
C437 C433 1.408 . S
C437 C436 1.404 . S
C437 H449 0.930 1_545 S
C438 C434 1.524 . S
C438 H450 0.956 . S
C438 H451 0.961 . S
C438 H452 0.961 . S
C439 C436 1.539 1_565 S
C439 H453 0.958 . S
C439 H454 0.961 . S
C439 H455 0.960 . S
H440 C424 0.931 . S
H441 C429 0.929 . S
H442 C430 0.960 . S
H443 C430 0.962 . S
H444 C430 0.960 . S
H445 C431 0.961 . S
H446 C431 0.961 . S
H447 C431 0.961 . S
H448 C432 0.931 . S
H449 C437 0.930 1_565 S
H450 C438 0.956 . S
H451 C438 0.961 . S
H452 C438 0.961 . S
H453 C439 0.958 . S
H454 C439 0.961 . S
H455 C439 0.960 . S
C456 C457 1.391 . S
C456 C458 1.394 . S
C456 H472 0.931 . S
C457 C456 1.391 . S
C457 C461 1.376 . S
C458 C456 1.394 . S
C458 C459 1.369 . S
C458 C462 1.531 . S
C459 C458 1.369 . S
C459 C460 1.410 . S
C459 C467 1.503 . S
C460 C459 1.410 . S
C460 C461 1.392 . S
C460 C463 1.511 . S
C461 C457 1.376 . S
C461 C460 1.392 . S
C461 H473 0.929 . S
C462 C458 1.531 . S
C462 H474 0.960 . S
C462 H475 0.962 . S
C462 H476 0.960 . S
C463 C460 1.511 . S
C463 H477 0.961 . S
C463 H478 0.961 . S
C463 H479 0.961 . S
C464 C465 1.370 . S
C464 C466 1.363 . S
C464 H480 0.931 . S
C465 C464 1.370 . S
C465 C469 1.408 . S
C466 C464 1.363 . S
C466 C467 1.370 . S
C466 C470 1.524 . S
C467 C459 1.503 . S
C467 C466 1.370 . S
C467 C468 1.403 . S
C468 C467 1.403 . S
C468 C469 1.404 . S
C468 C471 1.539 . S
C469 C465 1.408 . S
C469 C468 1.404 . S
C469 H481 0.930 . S
C470 C466 1.524 . S
C470 H482 0.956 . S
C470 H483 0.961 . S
C470 H484 0.961 . S
C471 C468 1.539 . S
C471 H485 0.958 . S
C471 H486 0.961 . S
C471 H487 0.960 . S
H472 C456 0.931 . S
H473 C461 0.929 . S
H474 C462 0.960 . S
H475 C462 0.962 . S
H476 C462 0.960 . S
H477 C463 0.961 . S
H478 C463 0.961 . S
H479 C463 0.961 . S
H480 C464 0.931 . S
H481 C469 0.930 . S
H482 C470 0.956 . S
H483 C470 0.961 . S
H484 C470 0.961 . S
H485 C471 0.958 . S
H486 C471 0.961 . S
H487 C471 0.960 . S
C488 C489 1.391 . S
C488 C490 1.394 . S
C488 H504 0.931 . S
C489 C488 1.391 . S
C489 C493 1.376 . S
C490 C488 1.394 . S
C490 C491 1.369 . S
C490 C494 1.531 . S
C491 C490 1.369 . S
C491 C492 1.410 . S
C491 C499 1.503 . S
C492 C491 1.410 . S
C492 C493 1.392 . S
C492 C495 1.511 . S
C493 C489 1.376 . S
C493 C492 1.392 . S
C493 H505 0.929 . S
C494 C490 1.531 . S
C494 H506 0.960 . S
C494 H507 0.962 . S
C494 H508 0.960 . S
C495 C492 1.511 . S
C495 H509 0.961 . S
C495 H510 0.961 . S
C495 H511 0.961 . S
C496 C497 1.370 . S
C496 C498 1.363 . S
C496 H512 0.931 . S
C497 C496 1.370 . S
C497 C501 1.408 . S
C498 C496 1.363 . S
C498 C499 1.370 . S
C498 C502 1.524 . S
C499 C491 1.503 . S
C499 C498 1.370 . S
C499 C500 1.403 . S
C500 C499 1.403 . S
C500 C501 1.404 . S
C500 C503 1.539 . S
C501 C497 1.408 . S
C501 C500 1.404 . S
C501 H513 0.930 . S
C502 C498 1.524 . S
C502 H514 0.956 . S
C502 H515 0.961 . S
C502 H516 0.961 . S
C503 C500 1.539 . S
C503 H517 0.958 . S
C503 H518 0.961 . S
C503 H519 0.960 . S
H504 C488 0.931 . S
H505 C493 0.929 . S
H506 C494 0.960 . S
H507 C494 0.962 . S
H508 C494 0.960 . S
H509 C495 0.961 . S
H510 C495 0.961 . S
H511 C495 0.961 . S
H512 C496 0.931 . S
H513 C501 0.930 . S
H514 C502 0.956 . S
H515 C502 0.961 . S
H516 C502 0.961 . S
H517 C503 0.958 . S
H518 C503 0.961 . S
H519 C503 0.960 . S
C520 C521 1.391 . S
C520 C522 1.394 . S
C520 H536 0.931 . S
C521 C520 1.391 . S
C521 C525 1.376 . S
C522 C520 1.394 . S
C522 C523 1.369 . S
C522 C526 1.531 . S
C523 C522 1.369 . S
C523 C524 1.410 . S
C523 C531 1.503 . S
C524 C523 1.410 . S
C524 C525 1.392 . S
C524 C527 1.511 . S
C525 C521 1.376 . S
C525 C524 1.392 . S
C525 H537 0.929 . S
C526 C522 1.531 . S
C526 H538 0.960 . S
C526 H539 0.962 . S
C526 H540 0.960 . S
C527 C524 1.511 . S
C527 H541 0.961 . S
C527 H542 0.961 . S
C527 H543 0.961 1_455 S
C528 C529 1.370 . S
C528 C530 1.363 . S
C528 H544 0.931 . S
C529 C528 1.370 . S
C529 C533 1.408 . S
C530 C528 1.363 . S
C530 C531 1.370 . S
C530 C534 1.524 . S
C531 C523 1.503 . S
C531 C530 1.370 . S
C531 C532 1.403 . S
C532 C531 1.403 . S
C532 C533 1.404 . S
C532 C535 1.539 1_455 S
C533 C529 1.408 . S
C533 C532 1.404 . S
C533 H545 0.930 1_455 S
C534 C530 1.524 . S
C534 H546 0.956 . S
C534 H547 0.961 . S
C534 H548 0.961 . S
C535 C532 1.539 1_655 S
C535 H549 0.958 . S
C535 H550 0.961 . S
C535 H551 0.960 . S
H536 C520 0.931 . S
H537 C525 0.929 . S
H538 C526 0.960 . S
H539 C526 0.962 . S
H540 C526 0.960 . S
H541 C527 0.961 . S
H542 C527 0.961 . S
H543 C527 0.961 1_655 S
H544 C528 0.931 . S
H545 C533 0.930 1_655 S
H546 C534 0.956 . S
H547 C534 0.961 . S
H548 C534 0.961 . S
H549 C535 0.958 . S
H550 C535 0.961 . S
H551 C535 0.960 . S
C552 C553 1.391 . S
C552 C554 1.394 . S
C552 H568 0.931 . S
C553 C552 1.391 . S
C553 C557 1.376 . S
C554 C552 1.394 . S
C554 C555 1.369 . S
C554 C558 1.531 1_554 S
C555 C554 1.369 . S
C555 C556 1.410 . S
C555 C563 1.503 1_554 S
C556 C555 1.410 . S
C556 C557 1.392 . S
C556 C559 1.511 1_565 S
C557 C553 1.376 . S
C557 C556 1.392 . S
C557 H569 0.923 1_565 S
C558 C554 1.531 1_556 S
C558 H570 0.960 . S
C558 H571 0.962 . S
C558 H572 0.960 . S
C559 C556 1.511 1_545 S
C559 H573 0.961 . S
C559 H574 0.961 . S
C559 H575 0.961 . S
C560 C561 1.370 . S
C560 C562 1.363 . S
C560 H576 0.931 . S
C561 C560 1.370 . S
C561 C565 1.408 1_565 S
C562 C560 1.363 . S
C562 C563 1.370 . S
C562 C566 1.524 1_556 S
C563 C555 1.503 1_556 S
C563 C562 1.370 . S
C563 C564 1.403 . S
C564 C563 1.403 . S
C564 C565 1.404 1_565 S
C564 C567 1.539 1_565 S
C565 C561 1.408 1_545 S
C565 C564 1.404 1_545 S
C565 H577 0.930 . S
C566 C562 1.524 1_554 S
C566 H578 0.956 . S
C566 H579 0.961 . S
C566 H580 0.961 . S
C567 C564 1.539 1_545 S
C567 H581 0.958 1_545 S
C567 H582 0.961 . S
C567 H583 0.960 . S
H568 C552 0.931 . S
H569 C557 0.923 1_545 S
H570 C558 0.960 . S
H571 C558 0.962 . S
H572 C558 0.960 . S
H573 C559 0.961 . S
H574 C559 0.961 . S
H575 C559 0.961 . S
H576 C560 0.931 . S
H577 C565 0.930 . S
H578 C566 0.956 . S
H579 C566 0.961 . S
H580 C566 0.961 . S
H581 C567 0.958 1_565 S
H582 C567 0.961 . S
H583 C567 0.960 . S
C584 C585 1.391 . S
C584 C586 1.394 . S
C584 H600 0.931 . S
C585 C584 1.391 . S
C585 C589 1.376 . S
C586 C584 1.394 . S
C586 C587 1.369 . S
C586 C590 1.531 . S
C587 C586 1.369 . S
C587 C588 1.410 . S
C587 C595 1.503 1_554 S
C588 C587 1.410 . S
C588 C589 1.392 . S
C588 C591 1.511 1_554 S
C589 C585 1.376 . S
C589 C588 1.392 . S
C589 H601 0.929 . S
C590 C586 1.531 . S
C590 H602 0.960 . S
C590 H603 0.962 . S
C590 H604 0.960 . S
C591 C588 1.511 1_556 S
C591 H605 0.961 . S
C591 H606 0.961 . S
C591 H607 0.961 . S
C592 C593 1.370 . S
C592 C594 1.363 . S
C592 H608 0.931 . S
C593 C592 1.370 . S
C593 C597 1.408 . S
C594 C592 1.363 . S
C594 C595 1.370 . S
C594 C598 1.524 . S
C595 C587 1.503 1_556 S
C595 C594 1.370 . S
C595 C596 1.403 . S
C596 C595 1.403 . S
C596 C597 1.404 . S
C596 C599 1.539 . S
C597 C593 1.408 . S
C597 C596 1.404 . S
C597 H609 0.930 . S
C598 C594 1.524 . S
C598 H610 0.956 . S
C598 H611 0.961 . S
C598 H612 0.961 . S
C599 C596 1.539 . S
C599 H613 0.958 1_556 S
C599 H614 0.961 . S
C599 H615 0.960 1_556 S
H600 C584 0.931 . S
H601 C589 0.929 . S
H602 C590 0.960 . S
H603 C590 0.962 . S
H604 C590 0.960 . S
H605 C591 0.961 . S
H606 C591 0.961 . S
H607 C591 0.961 . S
H608 C592 0.931 . S
H609 C597 0.930 . S
H610 C598 0.956 . S
H611 C598 0.961 . S
H612 C598 0.961 . S
H613 C599 0.958 1_554 S
H614 C599 0.961 . S
H615 C599 0.960 1_554 S
C616 C617 1.391 . S
C616 C618 1.394 . S
C616 H632 0.931 . S
C617 C616 1.391 . S
C617 C621 1.376 . S
C618 C616 1.394 . S
C618 C619 1.369 . S
C618 C622 1.531 1_554 S
C619 C618 1.369 . S
C619 C620 1.410 . S
C619 C627 1.503 1_554 S
C620 C619 1.410 . S
C620 C621 1.392 . S
C620 C623 1.511 . S
C621 C617 1.376 . S
C621 C620 1.392 . S
C621 H633 0.929 . S
C622 C618 1.531 1_556 S
C622 H634 0.960 . S
C622 H635 0.962 . S
C622 H636 0.960 . S
C623 C620 1.511 . S
C623 H637 0.961 . S
C623 H638 0.961 . S
C623 H639 0.961 . S
C624 C625 1.370 . S
C624 C626 1.363 . S
C624 H640 0.931 . S
C625 C624 1.370 . S
C625 C629 1.408 . S
C626 C624 1.363 . S
C626 C627 1.370 . S
C626 C630 1.524 . S
C627 C619 1.503 1_556 S
C627 C626 1.370 . S
C627 C628 1.403 . S
C628 C627 1.403 . S
C628 C629 1.404 . S
C628 C631 1.539 . S
C629 C625 1.408 . S
C629 C628 1.404 . S
C629 H641 0.930 . S
C630 C626 1.524 . S
C630 H642 0.956 . S
C630 H643 0.961 1_556 S
C630 H644 0.961 . S
C631 C628 1.539 . S
C631 H645 0.958 . S
C631 H646 0.961 . S
C631 H647 0.960 . S
H632 C616 0.931 . S
H633 C621 0.929 . S
H634 C622 0.960 . S
H635 C622 0.962 . S
H636 C622 0.960 . S
H637 C623 0.961 . S
H638 C623 0.961 . S
H639 C623 0.961 . S
H640 C624 0.931 . S
H641 C629 0.930 . S
H642 C630 0.956 . S
H643 C630 0.961 1_554 S
H644 C630 0.961 . S
H645 C631 0.958 . S
H646 C631 0.961 . S
H647 C631 0.960 . S
C648 C649 1.391 . S
C648 C650 1.394 . S
C648 H664 0.931 . S
C649 C648 1.391 . S
C649 C653 1.376 . S
C650 C648 1.394 . S
C650 C651 1.369 . S
C650 C654 1.531 . S
C651 C650 1.369 . S
C651 C652 1.410 . S
C651 C659 1.503 1_554 S
C652 C651 1.410 . S
C652 C653 1.392 . S
C652 C655 1.511 1_655 S
C653 C649 1.376 . S
C653 C652 1.392 . S
C653 H665 0.929 . S
C654 C650 1.531 . S
C654 H666 0.960 1_554 S
C654 H667 0.962 . S
C654 H668 0.960 . S
C655 C652 1.511 1_455 S
C655 H669 0.961 . S
C655 H670 0.961 1_554 S
C655 H671 0.961 1_554 S
C656 C657 1.370 . S
C656 C658 1.363 . S
C656 H672 0.931 . S
C657 C656 1.370 . S
C657 C661 1.408 . S
C658 C656 1.363 . S
C658 C659 1.370 . S
C658 C662 1.524 1_556 S
C659 C651 1.503 1_556 S
C659 C658 1.370 . S
C659 C660 1.403 . S
C660 C659 1.403 . S
C660 C661 1.404 . S
C660 C663 1.539 . S
C661 C657 1.408 . S
C661 C660 1.404 . S
C661 H673 0.930 . S
C662 C658 1.524 1_554 S
C662 H674 0.956 . S
C662 H675 0.961 . S
C662 H676 0.961 . S
C663 C660 1.539 . S
C663 H677 0.958 . S
C663 H678 0.961 . S
C663 H679 0.960 . S
H664 C648 0.931 . S
H665 C653 0.929 . S
H666 C654 0.960 1_556 S
H667 C654 0.962 . S
H668 C654 0.960 . S
H669 C655 0.961 . S
H670 C655 0.961 1_556 S
H671 C655 0.961 1_556 S
H672 C656 0.931 . S
H673 C661 0.930 . S
H674 C662 0.956 . S
H675 C662 0.961 . S
H676 C662 0.961 . S
H677 C663 0.958 . S
H678 C663 0.961 . S
H679 C663 0.960 . S
C680 C681 1.391 . S
C680 C682 1.394 . S
C680 H696 0.931 . S
C681 C680 1.391 . S
C681 C685 1.376 . S
C682 C680 1.394 . S
C682 C683 1.369 . S
C682 C686 1.531 . S
C683 C682 1.369 . S
C683 C684 1.410 . S
C683 C691 1.503 . S
C684 C683 1.410 . S
C684 C685 1.392 . S
C684 C687 1.511 . S
C685 C681 1.376 . S
C685 C684 1.392 . S
C685 H697 0.929 . S
C686 C682 1.531 . S
C686 H698 0.960 . S
C686 H699 0.962 1_455 S
C686 H700 0.965 . S
C687 C684 1.511 . S
C687 H701 0.961 . S
C687 H702 0.961 . S
C687 H703 0.961 . S
C688 C689 1.375 . S
C688 C690 1.378 . S
C688 H704 0.912 1_455 S
C689 C688 1.375 . S
C689 C693 1.408 . S
C690 C688 1.378 . S
C690 C691 1.370 . S
C690 C694 1.524 . S
C691 C683 1.503 . S
C691 C690 1.370 . S
C691 C692 1.403 . S
C692 C691 1.403 . S
C692 C693 1.404 . S
C692 C695 1.539 . S
C693 C689 1.408 . S
C693 C692 1.404 . S
C693 H705 0.930 . S
C694 C690 1.524 . S
C694 H706 0.946 1_455 S
C694 H707 0.961 . S
C694 H708 0.938 1_455 S
C695 C692 1.539 . S
C695 H709 0.958 . S
C695 H710 0.961 . S
C695 H711 0.960 . S
H696 C680 0.931 . S
H697 C685 0.929 . S
H698 C686 0.960 . S
H699 C686 0.962 1_655 S
H700 C686 0.965 . S
H701 C687 0.961 . S
H702 C687 0.961 . S
H703 C687 0.961 . S
H704 C688 0.912 1_655 S
H705 C693 0.930 . S
H706 C694 0.946 1_655 S
H707 C694 0.961 . S
H708 C694 0.938 1_655 S
H709 C695 0.958 . S
H710 C695 0.961 . S
H711 C695 0.960 . S
C712 C713 1.391 . S
C712 C714 1.394 . S
C712 H728 0.931 . S
C713 C712 1.391 . S
C713 C717 1.376 . S
C714 C712 1.394 . S
C714 C715 1.369 . S
C714 C718 1.531 1_545 S
C715 C714 1.369 . S
C715 C716 1.410 . S
C715 C723 1.503 . S
C716 C715 1.410 . S
C716 C717 1.392 . S
C716 C719 1.511 . S
C717 C713 1.376 . S
C717 C716 1.392 . S
C717 H729 0.929 . S
C718 C714 1.531 1_565 S
C718 H730 0.960 . S
C718 H731 0.962 . S
C718 H732 0.960 . S
C719 C716 1.511 . S
C719 H733 0.961 . S
C719 H734 0.961 . S
C719 H735 0.961 . S
C720 C721 1.370 . S
C720 C722 1.363 . S
C720 H736 0.931 . S
C721 C720 1.370 . S
C721 C725 1.408 . S
C722 C720 1.363 . S
C722 C723 1.370 . S
C722 C726 1.524 . S
C723 C715 1.503 . S
C723 C722 1.370 . S
C723 C724 1.403 . S
C724 C723 1.403 . S
C724 C725 1.404 . S
C724 C727 1.539 . S
C725 C721 1.408 . S
C725 C724 1.404 . S
C725 H737 0.930 1_545 S
C726 C722 1.524 . S
C726 H738 0.956 . S
C726 H739 0.961 . S
C726 H740 0.961 . S
C727 C724 1.539 . S
C727 H741 0.953 1_545 S
C727 H742 0.961 . S
C727 H743 0.960 . S
H728 C712 0.931 . S
H729 C717 0.929 . S
H730 C718 0.960 . S
H731 C718 0.962 . S
H732 C718 0.960 . S
H733 C719 0.961 . S
H734 C719 0.961 . S
H735 C719 0.961 . S
H736 C720 0.931 . S
H737 C725 0.930 1_565 S
H738 C726 0.956 . S
H739 C726 0.961 . S
H740 C726 0.961 . S
H741 C727 0.953 1_565 S
H742 C727 0.961 . S
H743 C727 0.960 . S
C744 C745 1.391 . S
C744 C746 1.394 . S
C744 H760 0.931 . S
C745 C744 1.391 . S
C745 C749 1.376 . S
C746 C744 1.394 . S
C746 C747 1.369 . S
C746 C750 1.531 . S
C747 C746 1.369 . S
C747 C748 1.410 . S
C747 C755 1.503 . S
C748 C747 1.410 . S
C748 C749 1.392 . S
C748 C751 1.511 . S
C749 C745 1.376 . S
C749 C748 1.392 . S
C749 H761 0.929 . S
C750 C746 1.531 . S
C750 H762 0.960 . S
C750 H763 0.962 . S
C750 H764 0.960 . S
C751 C748 1.511 . S
C751 H765 0.961 . S
C751 H766 0.961 . S
C751 H767 0.961 . S
C752 C753 1.370 . S
C752 C754 1.363 . S
C752 H768 0.931 . S
C753 C752 1.370 . S
C753 C757 1.408 . S
C754 C752 1.363 . S
C754 C755 1.370 . S
C754 C758 1.524 . S
C755 C747 1.503 . S
C755 C754 1.370 . S
C755 C756 1.403 . S
C756 C755 1.403 . S
C756 C757 1.404 . S
C756 C759 1.539 . S
C757 C753 1.408 . S
C757 C756 1.404 . S
C757 H769 0.930 . S
C758 C754 1.524 . S
C758 H770 0.956 . S
C758 H771 0.961 . S
C758 H772 0.961 . S
C759 C756 1.539 . S
C759 H773 0.958 . S
C759 H774 0.961 . S
C759 H775 0.960 . S
H760 C744 0.931 . S
H761 C749 0.929 . S
H762 C750 0.960 . S
H763 C750 0.962 . S
H764 C750 0.960 . S
H765 C751 0.961 . S
H766 C751 0.961 . S
H767 C751 0.961 . S
H768 C752 0.931 . S
H769 C757 0.930 . S
H770 C758 0.956 . S
H771 C758 0.961 . S
H772 C758 0.961 . S
H773 C759 0.958 . S
H774 C759 0.961 . S
H775 C759 0.960 . S
C776 C777 1.391 . S
C776 C778 1.394 . S
C776 H792 0.931 . S
C777 C776 1.391 . S
C777 C781 1.376 . S
C778 C776 1.394 . S
C778 C779 1.369 . S
C778 C782 1.531 . S
C779 C778 1.369 . S
C779 C780 1.410 . S
C779 C787 1.503 . S
C780 C779 1.410 . S
C780 C781 1.392 . S
C780 C783 1.511 . S
C781 C777 1.376 . S
C781 C780 1.392 . S
C781 H793 0.929 . S
C782 C778 1.531 . S
C782 H794 0.960 . S
C782 H795 0.962 . S
C782 H796 0.960 . S
C783 C780 1.511 . S
C783 H797 0.961 . S
C783 H798 0.961 . S
C783 H799 0.961 . S
C784 C785 1.370 . S
C784 C786 1.363 . S
C784 H800 0.931 . S
C785 C784 1.370 . S
C785 C789 1.408 . S
C786 C784 1.363 . S
C786 C787 1.370 . S
C786 C790 1.524 . S
C787 C779 1.503 . S
C787 C786 1.370 . S
C787 C788 1.403 . S
C788 C787 1.403 . S
C788 C789 1.404 . S
C788 C791 1.539 . S
C789 C785 1.408 . S
C789 C788 1.404 . S
C789 H801 0.930 . S
C790 C786 1.524 . S
C790 H802 0.956 . S
C790 H803 0.961 . S
C790 H804 0.961 . S
C791 C788 1.539 . S
C791 H805 0.958 . S
C791 H806 0.961 . S
C791 H807 0.960 . S
H792 C776 0.931 . S
H793 C781 0.929 . S
H794 C782 0.960 . S
H795 C782 0.962 . S
H796 C782 0.960 . S
H797 C783 0.961 . S
H798 C783 0.961 . S
H799 C783 0.961 . S
H800 C784 0.931 . S
H801 C789 0.930 . S
H802 C790 0.956 . S
H803 C790 0.961 . S
H804 C790 0.961 . S
H805 C791 0.958 . S
H806 C791 0.961 . S
H807 C791 0.960 . S
C808 C809 1.391 . S
C808 C810 1.394 . S
C808 H824 0.931 . S
C809 C808 1.391 . S
C809 C813 1.376 . S
C810 C808 1.394 . S
C810 C811 1.369 . S
C810 C814 1.531 . S
C811 C810 1.369 . S
C811 C812 1.410 . S
C811 C819 1.503 . S
C812 C811 1.410 . S
C812 C813 1.392 . S
C812 C815 1.511 . S
C813 C809 1.376 . S
C813 C812 1.392 . S
C813 H825 0.929 . S
C814 C810 1.531 . S
C814 H826 0.960 1_554 S
C814 H827 0.962 1_655 S
C814 H828 0.960 1_554 S
C815 C812 1.511 . S
C815 H829 0.961 . S
C815 H830 0.961 . S
C815 H831 0.961 . S
C816 C817 1.370 1_554 S
C816 C818 1.363 . S
C816 H832 0.931 . S
C817 C816 1.370 1_556 S
C817 C821 1.408 1_455 S
C818 C816 1.363 . S
C818 C819 1.370 1_455 S
C818 C822 1.524 . S
C819 C811 1.503 . S
C819 C818 1.370 1_655 S
C819 C820 1.403 1_554 S
C820 C819 1.403 1_556 S
C820 C821 1.404 . S
C820 C823 1.539 . S
C821 C817 1.408 1_655 S
C821 C820 1.404 . S
C821 H833 0.930 . S
C822 C818 1.524 . S
C822 H834 0.956 . S
C822 H835 0.961 . S
C822 H836 0.961 . S
C823 C820 1.539 . S
C823 H837 0.958 . S
C823 H838 0.961 . S
C823 H839 0.960 . S
H824 C808 0.931 . S
H825 C813 0.929 . S
H826 C814 0.960 1_556 S
H827 C814 0.962 1_455 S
H828 C814 0.960 1_556 S
H829 C815 0.961 . S
H830 C815 0.961 . S
H831 C815 0.961 . S
H832 C816 0.931 . S
H833 C821 0.930 . S
H834 C822 0.956 . S
H835 C822 0.961 . S
H836 C822 0.961 . S
H837 C823 0.958 . S
H838 C823 0.961 . S
H839 C823 0.960 . S
C840 C841 1.391 . S
C840 C842 1.394 . S
C840 H856 0.931 . S
C841 C840 1.391 . S
C841 C845 1.376 . S
C842 C840 1.394 . S
C842 C843 1.369 . S
C842 C846 1.531 1_554 S
C843 C842 1.369 . S
C843 C844 1.410 . S
C843 C851 1.503 . S
C844 C843 1.410 . S
C844 C845 1.392 . S
C844 C847 1.511 . S
C845 C841 1.376 . S
C845 C844 1.392 . S
C845 H857 0.929 . S
C846 C842 1.531 1_556 S
C846 H858 0.960 . S
C846 H859 0.962 1_565 S
C846 H860 0.960 . S
C847 C844 1.511 . S
C847 H861 0.961 . S
C847 H862 0.961 . S
C847 H863 0.961 . S
C848 C849 1.370 1_554 S
C848 C850 1.363 . S
C848 H864 0.931 . S
C849 C848 1.370 1_556 S
C849 C853 1.408 1_545 S
C850 C848 1.363 . S
C850 C851 1.370 1_545 S
C850 C854 1.524 . S
C851 C843 1.503 . S
C851 C850 1.370 1_565 S
C851 C852 1.403 . S
C852 C851 1.403 . S
C852 C853 1.404 1_554 S
C852 C855 1.539 1_554 S
C853 C849 1.408 1_565 S
C853 C852 1.404 1_556 S
C853 H865 0.930 . S
C854 C850 1.524 . S
C854 H866 0.956 . S
C854 H867 0.961 . S
C854 H868 0.961 . S
C855 C852 1.539 1_556 S
C855 H869 0.958 . S
C855 H870 0.961 . S
C855 H871 0.960 1_556 S
H856 C840 0.931 . S
H857 C845 0.929 . S
H858 C846 0.960 . S
H859 C846 0.962 1_545 S
H860 C846 0.960 . S
H861 C847 0.961 . S
H862 C847 0.961 . S
H863 C847 0.961 . S
H864 C848 0.931 . S
H865 C853 0.930 . S
H866 C854 0.956 . S
H867 C854 0.961 . S
H868 C854 0.961 . S
H869 C855 0.958 . S
H870 C855 0.961 . S
H871 C855 0.960 1_554 S
C872 C873 1.391 . S
C872 C874 1.394 . S
C872 H888 0.931 . S
C873 C872 1.391 . S
C873 C877 1.376 . S
C874 C872 1.394 . S
C874 C875 1.369 . S
C874 C878 1.531 . S
C875 C874 1.369 . S
C875 C876 1.410 . S
C875 C883 1.503 . S
C876 C875 1.410 . S
C876 C877 1.392 . S
C876 C879 1.511 1_554 S
C877 C873 1.376 . S
C877 C876 1.392 . S
C877 H889 0.929 . S
C878 C874 1.531 . S
C878 H890 0.960 . S
C878 H891 0.962 . S
C878 H892 0.960 . S
C879 C876 1.511 1_556 S
C879 H893 0.961 . S
C879 H894 0.961 . S
C879 H895 0.961 . S
C880 C881 1.370 . S
C880 C882 1.363 . S
C880 H896 0.931 . S
C881 C880 1.370 . S
C881 C885 1.408 1_554 S
C882 C880 1.363 . S
C882 C883 1.370 . S
C882 C886 1.524 . S
C883 C875 1.503 . S
C883 C882 1.370 . S
C883 C884 1.403 . S
C884 C883 1.403 . S
C884 C885 1.404 1_554 S
C884 C887 1.539 1_554 S
C885 C881 1.408 1_556 S
C885 C884 1.404 1_556 S
C885 H897 0.930 . S
C886 C882 1.524 . S
C886 H898 0.956 . S
C886 H899 0.961 . S
C886 H900 0.961 . S
C887 C884 1.539 1_556 S
C887 H901 0.958 1_556 S
C887 H902 0.961 . S
C887 H903 0.960 . S
H888 C872 0.931 . S
H889 C877 0.929 . S
H890 C878 0.960 . S
H891 C878 0.962 . S
H892 C878 0.960 . S
H893 C879 0.961 . S
H894 C879 0.961 . S
H895 C879 0.961 . S
H896 C880 0.931 . S
H897 C885 0.930 . S
H898 C886 0.956 . S
H899 C886 0.961 . S
H900 C886 0.961 . S
H901 C887 0.958 1_554 S
H902 C887 0.961 . S
H903 C887 0.960 . S
C904 C905 1.391 . S
C904 C906 1.394 . S
C904 H920 0.931 . S
C905 C904 1.391 . S
C905 C909 1.376 . S
C906 C904 1.394 . S
C906 C907 1.369 . S
C906 C910 1.531 1_554 S
C907 C906 1.369 . S
C907 C908 1.410 . S
C907 C915 1.503 . S
C908 C907 1.410 . S
C908 C909 1.392 . S
C908 C911 1.511 . S
C909 C905 1.376 . S
C909 C908 1.392 . S
C909 H921 0.929 . S
C910 C906 1.531 1_556 S
C910 H922 0.960 . S
C910 H923 0.962 . S
C910 H924 0.960 . S
C911 C908 1.511 . S
C911 H925 0.961 . S
C911 H926 0.961 . S
C911 H927 0.961 . S
C912 C913 1.370 . S
C912 C914 1.363 . S
C912 H928 0.931 . S
C913 C912 1.370 . S
C913 C917 1.408 1_554 S
C914 C912 1.363 . S
C914 C915 1.370 . S
C914 C918 1.524 . S
C915 C907 1.503 . S
C915 C914 1.370 . S
C915 C916 1.403 . S
C916 C915 1.403 . S
C916 C917 1.404 1_554 S
C916 C919 1.539 1_554 S
C917 C913 1.408 1_556 S
C917 C916 1.404 1_556 S
C917 H929 0.930 . S
C918 C914 1.524 . S
C918 H930 0.956 . S
C918 H931 0.961 . S
C918 H932 0.961 . S
C919 C916 1.539 1_556 S
C919 H933 0.958 . S
C919 H934 0.961 . S
C919 H935 0.960 1_556 S
H920 C904 0.931 . S
H921 C909 0.929 . S
H922 C910 0.960 . S
H923 C910 0.962 . S
H924 C910 0.960 . S
H925 C911 0.961 . S
H926 C911 0.961 . S
H927 C911 0.961 . S
H928 C912 0.931 . S
H929 C917 0.930 . S
H930 C918 0.956 . S
H931 C918 0.961 . S
H932 C918 0.961 . S
H933 C919 0.958 . S
H934 C919 0.961 . S
H935 C919 0.960 1_554 S
C936 C937 1.391 . S
C936 C938 1.394 . S
C936 H952 0.931 . S
C937 C936 1.391 . S
C937 C941 1.376 . S
C938 C936 1.394 . S
C938 C939 1.369 . S
C938 C942 1.531 . S
C939 C938 1.369 . S
C939 C940 1.410 . S
C939 C947 1.503 . S
C940 C939 1.410 . S
C940 C941 1.392 . S
C940 C943 1.511 . S
C941 C937 1.376 . S
C941 C940 1.392 . S
C941 H953 0.929 . S
C942 C938 1.531 . S
C942 H954 0.960 . S
C942 H955 0.962 . S
C942 H956 0.960 1_556 S
C943 C940 1.511 . S
C943 H957 0.961 . S
C943 H958 0.961 . S
C943 H959 0.961 1_455 S
C944 C945 1.370 . S
C944 C946 1.363 . S
C944 H960 0.931 . S
C945 C944 1.370 . S
C945 C949 1.408 . S
C946 C944 1.363 . S
C946 C947 1.370 . S
C946 C950 1.524 . S
C947 C939 1.503 . S
C947 C946 1.370 . S
C947 C948 1.403 . S
C948 C947 1.403 . S
C948 C949 1.404 . S
C948 C951 1.539 1_455 S
C949 C945 1.408 . S
C949 C948 1.404 . S
C949 H961 0.930 1_455 S
C950 C946 1.524 . S
C950 H962 0.956 . S
C950 H963 0.961 . S
C950 H964 0.961 . S
C951 C948 1.539 1_655 S
C951 H965 0.962 . S
C951 H966 0.961 . S
C951 H967 0.960 . S
H952 C936 0.931 . S
H953 C941 0.929 . S
H954 C942 0.960 . S
H955 C942 0.962 . S
H956 C942 0.960 1_554 S
H957 C943 0.961 . S
H958 C943 0.961 . S
H959 C943 0.961 1_655 S
H960 C944 0.931 . S
H961 C949 0.930 1_655 S
H962 C950 0.956 . S
H963 C950 0.961 . S
H964 C950 0.961 . S
H965 C951 0.962 . S
H966 C951 0.961 . S
H967 C951 0.960 . S
C968 C969 1.391 . S
C968 C970 1.394 . S
C968 H984 0.931 . S
C969 C968 1.391 . S
C969 C973 1.376 . S
C970 C968 1.394 . S
C970 C971 1.369 . S
C970 C974 1.531 . S
C971 C970 1.369 . S
C971 C972 1.410 . S
C971 C979 1.503 . S
C972 C971 1.410 . S
C972 C973 1.392 . S
C972 C975 1.511 . S
C973 C969 1.376 . S
C973 C972 1.392 . S
C973 H985 0.929 . S
C974 C970 1.531 . S
C974 H986 0.960 . S
C974 H987 0.962 . S
C974 H988 0.960 . S
C975 C972 1.511 . S
C975 H989 0.961 1_556 S
C975 H990 0.961 . S
C975 H991 0.961 . S
C976 C977 1.370 . S
C976 C978 1.363 . S
C976 H992 0.931 1_545 S
C977 C976 1.370 . S
C977 C981 1.408 . S
C978 C976 1.363 . S
C978 C979 1.370 . S
C978 C982 1.524 1_545 S
C979 C971 1.503 . S
C979 C978 1.370 . S
C979 C980 1.403 . S
C980 C979 1.403 . S
C980 C981 1.404 . S
C980 C983 1.539 . S
C981 C977 1.408 . S
C981 C980 1.404 . S
C981 H993 0.930 . S
C982 C978 1.524 1_565 S
C982 H994 0.953 1_565 S
C982 H995 0.961 . S
C982 H996 0.961 . S
C983 C980 1.539 . S
C983 H997 0.958 . S
C983 H998 0.961 . S
C983 H999 0.960 . S
H984 C968 0.931 . S
H985 C973 0.929 . S
H986 C974 0.960 . S
H987 C974 0.962 . S
H988 C974 0.960 . S
H989 C975 0.961 1_554 S
H990 C975 0.961 . S
H991 C975 0.961 . S
H992 C976 0.931 1_565 S
H993 C981 0.930 . S
H994 C982 0.953 1_545 S
H995 C982 0.961 . S
H996 C982 0.961 . S
H997 C983 0.958 . S
H998 C983 0.961 . S
H999 C983 0.960 . S
C1000 C1001 1.391 . S
C1000 C1002 1.394 . S
C1000 H1016 0.931 . S
C1001 C1000 1.391 . S
C1001 C1005 1.376 . S
C1002 C1000 1.394 . S
C1002 C1003 1.369 . S
C1002 C1006 1.531 . S
C1003 C1002 1.369 . S
C1003 C1004 1.410 . S
C1003 C1011 1.503 . S
C1004 C1003 1.410 . S
C1004 C1005 1.392 . S
C1004 C1007 1.511 . S
C1005 C1001 1.376 . S
C1005 C1004 1.392 . S
C1005 H1017 0.929 . S
C1006 C1002 1.531 . S
C1006 H1018 0.960 . S
C1006 H1019 0.962 . S
C1006 H1020 0.960 . S
C1007 C1004 1.511 . S
C1007 H1021 0.961 . S
C1007 H1022 0.961 . S
C1007 H1023 0.961 1_556 S
C1008 C1009 1.370 . S
C1008 C1010 1.363 . S
C1008 H1024 0.931 . S
C1009 C1008 1.370 . S
C1009 C1013 1.408 . S
C1010 C1008 1.363 . S
C1010 C1011 1.370 . S
C1010 C1014 1.524 . S
C1011 C1003 1.503 . S
C1011 C1010 1.370 . S
C1011 C1012 1.403 . S
C1012 C1011 1.403 . S
C1012 C1013 1.404 . S
C1012 C1015 1.539 . S
C1013 C1009 1.408 . S
C1013 C1012 1.404 . S
C1013 H1025 0.930 . S
C1014 C1010 1.524 . S
C1014 H1026 0.956 . S
C1014 H1027 0.961 . S
C1014 H1028 0.961 . S
C1015 C1012 1.539 . S
C1015 H1029 0.958 . S
C1015 H1030 0.961 . S
C1015 H1031 0.960 . S
H1016 C1000 0.931 . S
H1017 C1005 0.929 . S
H1018 C1006 0.960 . S
H1019 C1006 0.962 . S
H1020 C1006 0.960 . S
H1021 C1007 0.961 . S
H1022 C1007 0.961 . S
H1023 C1007 0.961 1_554 S
H1024 C1008 0.931 . S
H1025 C1013 0.930 . S
H1026 C1014 0.956 . S
H1027 C1014 0.961 . S
H1028 C1014 0.961 . S
H1029 C1015 0.958 . S
H1030 C1015 0.961 . S
H1031 C1015 0.960 . S
C1032 C1033 1.391 . S
C1032 C1034 1.394 . S
C1032 H1048 0.931 . S
C1033 C1032 1.391 . S
C1033 C1037 1.376 . S
C1034 C1032 1.394 . S
C1034 C1035 1.369 . S
C1034 C1038 1.531 . S
C1035 C1034 1.369 . S
C1035 C1036 1.410 . S
C1035 C1043 1.503 . S
C1036 C1035 1.410 . S
C1036 C1037 1.392 . S
C1036 C1039 1.511 . S
C1037 C1033 1.376 . S
C1037 C1036 1.392 . S
C1037 H1049 0.929 . S
C1038 C1034 1.531 . S
C1038 H1050 0.960 . S
C1038 H1051 0.962 . S
C1038 H1052 0.960 . S
C1039 C1036 1.511 . S
C1039 H1053 0.961 . S
C1039 H1054 0.961 . S
C1039 H1055 0.961 . S
C1040 C1041 1.370 . S
C1040 C1042 1.363 . S
C1040 H1056 0.931 . S
C1041 C1040 1.370 . S
C1041 C1045 1.408 . S
C1042 C1040 1.363 . S
C1042 C1043 1.370 . S
C1042 C1046 1.524 . S
C1043 C1035 1.503 . S
C1043 C1042 1.370 . S
C1043 C1044 1.403 . S
C1044 C1043 1.403 . S
C1044 C1045 1.404 . S
C1044 C1047 1.539 . S
C1045 C1041 1.408 . S
C1045 C1044 1.404 . S
C1045 H1057 0.930 . S
C1046 C1042 1.524 . S
C1046 H1058 0.956 . S
C1046 H1059 0.961 . S
C1046 H1060 0.961 . S
C1047 C1044 1.539 . S
C1047 H1061 0.958 . S
C1047 H1062 0.961 . S
C1047 H1063 0.960 . S
H1048 C1032 0.931 . S
H1049 C1037 0.929 . S
H1050 C1038 0.960 . S
H1051 C1038 0.962 . S
H1052 C1038 0.960 . S
H1053 C1039 0.961 . S
H1054 C1039 0.961 . S
H1055 C1039 0.961 . S
H1056 C1040 0.931 . S
H1057 C1045 0.930 . S
H1058 C1046 0.956 . S
H1059 C1046 0.961 . S
H1060 C1046 0.961 . S
H1061 C1047 0.958 . S
H1062 C1047 0.961 . S
H1063 C1047 0.960 . S
C1064 C1065 1.391 . S
C1064 C1066 1.394 . S
C1064 H1080 0.931 . S
C1065 C1064 1.391 . S
C1065 C1069 1.376 . S
C1066 C1064 1.394 . S
C1066 C1067 1.369 . S
C1066 C1070 1.531 1_655 S
C1067 C1066 1.369 . S
C1067 C1068 1.410 . S
C1067 C1075 1.503 . S
C1068 C1067 1.410 . S
C1068 C1069 1.392 . S
C1068 C1071 1.511 . S
C1069 C1065 1.376 . S
C1069 C1068 1.392 . S
C1069 H1081 0.929 . S
C1070 C1066 1.531 1_455 S
C1070 H1082 0.960 . S
C1070 H1083 0.962 . S
C1070 H1084 0.960 . S
C1071 C1068 1.511 . S
C1071 H1085 0.961 . S
C1071 H1086 0.961 . S
C1071 H1087 0.961 . S
C1072 C1073 1.370 . S
C1072 C1074 1.363 . S
C1072 H1088 0.931 . S
C1073 C1072 1.370 . S
C1073 C1077 1.408 . S
C1074 C1072 1.363 . S
C1074 C1075 1.370 . S
C1074 C1078 1.524 . S
C1075 C1067 1.503 . S
C1075 C1074 1.370 . S
C1075 C1076 1.403 . S
C1076 C1075 1.403 . S
C1076 C1077 1.404 . S
C1076 C1079 1.539 . S
C1077 C1073 1.408 . S
C1077 C1076 1.404 . S
C1077 H1089 0.930 . S
C1078 C1074 1.524 . S
C1078 H1090 0.956 . S
C1078 H1091 0.961 . S
C1078 H1092 0.961 . S
C1079 C1076 1.539 . S
C1079 H1093 0.958 1_655 S
C1079 H1094 0.961 . S
C1079 H1095 0.960 . S
H1080 C1064 0.931 . S
H1081 C1069 0.929 . S
H1082 C1070 0.960 . S
H1083 C1070 0.962 . S
H1084 C1070 0.960 . S
H1085 C1071 0.961 . S
H1086 C1071 0.961 . S
H1087 C1071 0.961 . S
H1088 C1072 0.931 . S
H1089 C1077 0.930 . S
H1090 C1078 0.956 . S
H1091 C1078 0.961 . S
H1092 C1078 0.961 . S
H1093 C1079 0.958 1_455 S
H1094 C1079 0.961 . S
H1095 C1079 0.960 . S
C1096 C1097 1.391 . S
C1096 C1098 1.394 . S
C1096 H1112 0.931 . S
C1097 C1096 1.391 . S
C1097 C1101 1.376 . S
C1098 C1096 1.394 . S
C1098 C1099 1.369 . S
C1098 C1102 1.531 1_565 S
C1099 C1098 1.369 . S
C1099 C1100 1.410 . S
C1099 C1107 1.503 . S
C1100 C1099 1.410 . S
C1100 C1101 1.392 . S
C1100 C1103 1.511 . S
C1101 C1097 1.376 . S
C1101 C1100 1.392 . S
C1101 H1113 0.929 . S
C1102 C1098 1.531 1_545 S
C1102 H1114 0.960 1_545 S
C1102 H1115 0.962 . S
C1102 H1116 0.960 . S
C1103 C1100 1.511 . S
C1103 H1117 0.961 . S
C1103 H1118 0.961 . S
C1103 H1119 0.961 . S
C1104 C1105 1.370 . S
C1104 C1106 1.363 . S
C1104 H1120 0.931 1_565 S
C1105 C1104 1.370 . S
C1105 C1109 1.408 . S
C1106 C1104 1.363 . S
C1106 C1107 1.370 . S
C1106 C1110 1.524 1_565 S
C1107 C1099 1.503 . S
C1107 C1106 1.370 . S
C1107 C1108 1.403 . S
C1108 C1107 1.403 . S
C1108 C1109 1.404 . S
C1108 C1111 1.539 . S
C1109 C1105 1.408 . S
C1109 C1108 1.404 . S
C1109 H1121 0.930 . S
C1110 C1106 1.524 1_545 S
C1110 H1122 0.956 . S
C1110 H1123 0.961 1_545 S
C1110 H1124 0.961 . S
C1111 C1108 1.539 . S
C1111 H1125 0.958 . S
C1111 H1126 0.961 . S
C1111 H1127 0.960 . S
H1112 C1096 0.931 . S
H1113 C1101 0.929 . S
H1114 C1102 0.960 1_565 S
H1115 C1102 0.962 . S
H1116 C1102 0.960 . S
H1117 C1103 0.961 . S
H1118 C1103 0.961 . S
H1119 C1103 0.961 . S
H1120 C1104 0.931 1_545 S
H1121 C1109 0.930 . S
H1122 C1110 0.956 . S
H1123 C1110 0.961 1_565 S
H1124 C1110 0.961 . S
H1125 C1111 0.958 . S
H1126 C1111 0.961 . S
H1127 C1111 0.960 . S
C1128 C1129 1.391 . S
C1128 C1130 1.394 . S
C1128 H1144 0.931 . S
C1129 C1128 1.391 . S
C1129 C1133 1.376 . S
C1130 C1128 1.394 . S
C1130 C1131 1.369 . S
C1130 C1134 1.531 . S
C1131 C1130 1.369 . S
C1131 C1132 1.410 . S
C1131 C1139 1.503 . S
C1132 C1131 1.410 . S
C1132 C1133 1.392 . S
C1132 C1135 1.511 . S
C1133 C1129 1.376 . S
C1133 C1132 1.392 . S
C1133 H1145 0.929 . S
C1134 C1130 1.531 . S
C1134 H1146 0.960 . S
C1134 H1147 0.962 . S
C1134 H1148 0.960 . S
C1135 C1132 1.511 . S
C1135 H1149 0.961 . S
C1135 H1150 0.961 . S
C1135 H1151 0.961 . S
C1136 C1137 1.370 . S
C1136 C1138 1.363 . S
C1136 H1152 0.931 . S
C1137 C1136 1.370 . S
C1137 C1141 1.408 . S
C1138 C1136 1.363 . S
C1138 C1139 1.370 . S
C1138 C1142 1.524 . S
C1139 C1131 1.503 . S
C1139 C1138 1.370 . S
C1139 C1140 1.403 . S
C1140 C1139 1.403 . S
C1140 C1141 1.404 . S
C1140 C1143 1.539 . S
C1141 C1137 1.408 . S
C1141 C1140 1.404 . S
C1141 H1153 0.930 . S
C1142 C1138 1.524 . S
C1142 H1154 0.956 . S
C1142 H1155 0.961 . S
C1142 H1156 0.961 . S
C1143 C1140 1.539 . S
C1143 H1157 0.958 . S
C1143 H1158 0.961 . S
C1143 H1159 0.960 . S
H1144 C1128 0.931 . S
H1145 C1133 0.929 . S
H1146 C1134 0.960 . S
H1147 C1134 0.962 . S
H1148 C1134 0.960 . S
H1149 C1135 0.961 . S
H1150 C1135 0.961 . S
H1151 C1135 0.961 . S
H1152 C1136 0.931 . S
H1153 C1141 0.930 . S
H1154 C1142 0.956 . S
H1155 C1142 0.961 . S
H1156 C1142 0.961 . S
H1157 C1143 0.958 . S
H1158 C1143 0.961 . S
H1159 C1143 0.960 . S
C1160 C1161 1.391 . S
C1160 C1162 1.394 . S
C1160 H1176 0.931 . S
C1161 C1160 1.391 . S
C1161 C1165 1.376 . S
C1162 C1160 1.394 . S
C1162 C1163 1.369 . S
C1162 C1166 1.531 . S
C1163 C1162 1.369 . S
C1163 C1164 1.410 . S
C1163 C1171 1.503 . S
C1164 C1163 1.410 . S
C1164 C1165 1.392 . S
C1164 C1167 1.511 . S
C1165 C1161 1.376 . S
C1165 C1164 1.392 . S
C1165 H1177 0.929 . S
C1166 C1162 1.531 . S
C1166 H1178 0.960 . S
C1166 H1179 0.962 . S
C1166 H1180 0.960 . S
C1167 C1164 1.511 . S
C1167 H1181 0.961 . S
C1167 H1182 0.961 . S
C1167 H1183 0.961 . S
C1168 C1169 1.370 . S
C1168 C1170 1.363 . S
C1168 H1184 0.931 . S
C1169 C1168 1.370 . S
C1169 C1173 1.408 . S
C1170 C1168 1.363 . S
C1170 C1171 1.370 . S
C1170 C1174 1.524 . S
C1171 C1163 1.503 . S
C1171 C1170 1.370 . S
C1171 C1172 1.403 . S
C1172 C1171 1.403 . S
C1172 C1173 1.404 . S
C1172 C1175 1.539 . S
C1173 C1169 1.408 . S
C1173 C1172 1.404 . S
C1173 H1185 0.930 . S
C1174 C1170 1.524 . S
C1174 H1186 0.956 . S
C1174 H1187 0.961 . S
C1174 H1188 0.961 . S
C1175 C1172 1.539 . S
C1175 H1189 0.958 . S
C1175 H1190 0.961 . S
C1175 H1191 0.960 . S
H1176 C1160 0.931 . S
H1177 C1165 0.929 . S
H1178 C1166 0.960 . S
H1179 C1166 0.962 . S
H1180 C1166 0.960 . S
H1181 C1167 0.961 . S
H1182 C1167 0.961 . S
H1183 C1167 0.961 . S
H1184 C1168 0.931 . S
H1185 C1173 0.930 . S
H1186 C1174 0.956 . S
H1187 C1174 0.961 . S
H1188 C1174 0.961 . S
H1189 C1175 0.958 . S
H1190 C1175 0.961 . S
H1191 C1175 0.960 . S
C425 C76 1.849 . S
C433 C162 1.926 . S
C465 C246 1.961 . S
C457 C87 1.861 . S
C497 C312 1.945 . S
C489 C54 1.940 . S
C529 C396 1.911 . S
C521 C65 1.963 . S
C561 C151 1.934 1_565 S
C553 C32 1.831 . S
C585 C43 1.903 . S
C593 C235 1.955 . S
C617 C10 1.955 . S
C625 C323 1.941 . S
C649 C21 1.930 . S
C657 C407 1.931 . S
C689 C158 0.659 1_455 S
C681 C60 0.626 . S
C721 C242 0.610 1_545 S
C713 C71 0.550 . S
C753 C314 0.612 . S
C745 C82 0.652 . S
C777 C49 0.562 . S
C785 C398 0.592 . S
C809 C16 0.726 . S
C817 C146 0.668 . S
C849 C230 0.645 . S
C841 C27 0.690 . S
C881 C326 0.608 . S
C873 C38 0.619 . S
C905 C5 0.702 . S
C913 C410 0.636 . S
C937 C59 1.983 . S
C945 C155 2.073 . S
C969 C70 1.970 . S
C977 C239 2.059 . S
C1009 C319 2.070 . S
C1001 C81 1.860 . S
C1041 C403 2.092 . S
C1033 C48 1.936 . S
C1065 C15 1.957 . S
C1073 C144 2.085 . S
C1105 C228 2.060 . S
C1097 C26 1.943 . S
C1137 C330 2.061 . S
C1129 C37 1.891 . S
C1161 C4 1.927 . S
C1169 C414 2.101 . S
