# Generated by pormake.
# Topology rtl, (3,6)-cn, num edge types: 1
# Building blocks:
#     Node 0, Type 0, BuildingBlock: VETTIZ_charged_linker_0, # of connection points: 3
#     Node 1, Type 0, BuildingBlock: VETTIZ_charged_linker_0, # of connection points: 3
#     Node 2, Type 0, BuildingBlock: VETTIZ_charged_linker_0, # of connection points: 3
#     Node 3, Type 0, BuildingBlock: VETTIZ_charged_linker_0, # of connection points: 3
#     Node 4, Type 1, BuildingBlock: VOLQOD_clean_sbu_1, # of connection points: 6
#     Node 5, Type 1, BuildingBlock: VOLQOD_clean_sbu_1, # of connection points: 6
#     Edge 6, Type (0, 1), BuildingBlock: AJUNOK_clean_linker_0, # of connection points: 2
#     Edge 7, Type (0, 1), BuildingBlock: AJUNOK_clean_linker_0, # of connection points: 2
#     Edge 8, Type (0, 1), BuildingBlock: AJUNOK_clean_linker_0, # of connection points: 2
#     Edge 9, Type (0, 1), BuildingBlock: AJUNOK_clean_linker_0, # of connection points: 2
#     Edge 10, Type (0, 1), BuildingBlock: AJUNOK_clean_linker_0, # of connection points: 2
#     Edge 11, Type (0, 1), BuildingBlock: AJUNOK_clean_linker_0, # of connection points: 2
#     Edge 12, Type (0, 1), BuildingBlock: AJUNOK_clean_linker_0, # of connection points: 2
#     Edge 13, Type (0, 1), BuildingBlock: AJUNOK_clean_linker_0, # of connection points: 2
#     Edge 14, Type (0, 1), BuildingBlock: AJUNOK_clean_linker_0, # of connection points: 2
#     Edge 15, Type (0, 1), BuildingBlock: AJUNOK_clean_linker_0, # of connection points: 2
#     Edge 16, Type (0, 1), BuildingBlock: AJUNOK_clean_linker_0, # of connection points: 2
#     Edge 17, Type (0, 1), BuildingBlock: AJUNOK_clean_linker_0, # of connection points: 2
# Relax obj value: 0.081
# Max RMSD: 0.157
# Mean RMSD: 0.091
data_MOF--net-rtl--node1-VOLQOD_clean_sbu_1--node2-VETTIZ_charged_linker_0--edge1-AJUNOK_clean_linker_0
_symmetry_space_group_name_H-M    P1
_symmetry_Int_Tables_number       1
_symmetry_cell_setting            triclinic
loop_
_symmetry_equiv_pos_as_xyz
'x, y, z'
_cell_length_a     35.205271
_cell_length_b     30.246849
_cell_length_c     23.139397
_cell_angle_alpha  89.984747
_cell_angle_beta   90.265627
_cell_angle_gamma 90.020601
loop_
_atom_site_label
_atom_site_type_symbol
_atom_site_fract_x
_atom_site_fract_y
_atom_site_fract_z
_atom_type_partial_charge
C0 C 0.09474 0.79136 0.83609 0.0
C1 C 0.06185 0.81743 0.83141 0.0
C2 C 0.03742 0.8214 0.87902 0.0
C3 C 0.08064 0.77771 0.93702 0.0
C4 C 0.10325 0.7712 0.88915 0.0
C5 C 0.13676 0.74192 0.90246 0.0
H6 H 0.24365 0.63379 0.10142 0.0
C7 C 0.09912 0.75623 0.98687 0.0
C8 C 0.13149 0.73417 0.9669 0.0
H9 H 0.25959 0.64037 0.91635 0.0
H10 H 0.2025 0.68332 0.90635 0.0
H11 H 0.22555 0.73367 0.11382 0.0
H12 H 0.14944 0.62258 0.1016 0.0
H13 H 0.13486 0.65723 0.15883 0.0
H14 H 0.18111 0.63191 0.16148 0.0
H15 H 0.21513 0.69979 0.17533 0.0
H16 H 0.18602 0.74674 0.1562 0.0
C17 C 0.17348 0.76831 0.88963 0.0
C18 C 0.13246 0.69865 0.86708 0.0
C19 C 0.05699 0.79924 0.18715 0.0
C20 C 0.07324 0.7931 0.24192 0.0
C21 C 0.10269 0.76204 0.24895 0.0
C22 C 0.11748 0.73963 0.20082 0.0
C23 C 0.10289 0.74897 0.14537 0.0
C24 C 0.07242 0.77746 0.13963 0.0
C25 C 0.06176 0.78578 0.07776 0.0
C26 C 0.09169 0.75875 0.04691 0.0
C27 C 0.1157 0.73718 0.08653 0.0
C28 C 0.06608 0.83609 0.06609 0.0
C29 C 0.02118 0.76734 0.06722 0.0
C30 C 0.23465 0.64426 0.05874 0.0
C31 C 0.25573 0.63264 0.00948 0.0
C32 C 0.24327 0.64746 0.95479 0.0
C33 C 0.21027 0.67288 0.94908 0.0
C34 C 0.18973 0.68448 -0.00136 0.0
C35 C 0.20191 0.67017 0.05234 0.0
C36 C 0.17738 0.68761 0.10034 0.0
C37 C 0.14759 0.71307 0.06625 0.0
C38 C 0.15526 0.71143 0.00675 0.0
C39 C 0.20208 0.71835 0.13889 0.0
C40 C 0.15979 0.64791 0.13278 0.0
H41 H 0.02734 0.8066 0.9669 0.0
H42 H 0.11352 0.78728 0.79953 0.0
H43 H 0.10208 0.69108 0.85796 0.0
H44 H 0.14307 0.66932 0.89072 0.0
H45 H 0.14723 0.70111 0.82489 0.0
H46 H 0.17091 0.80287 0.90558 0.0
H47 H 0.179 0.76972 0.84244 0.0
H48 H 0.19883 0.75473 0.91145 0.0
H49 H 0.03418 0.82284 0.18091 0.0
H50 H 0.11561 0.75697 0.291 0.0
H51 H 0.14071 0.71735 0.20824 0.0
H52 H 0.0924 0.84904 0.08683 0.0
H53 H 0.04165 0.8548 0.08392 0.0
H54 H 0.06877 0.84458 0.02006 0.0
H55 H 0.01393 0.74085 0.09868 0.0
H56 H 0.01822 0.75141 0.02432 0.0
H57 H 0.99941 0.7937 0.07142 0.0
H58 H 0.0119 0.8413 0.87593 0.0
C59 C 0.04655 0.80148 0.93175 0.0
C60 C 0.58504 0.73514 0.70892 0.0
C61 C 0.55531 0.70404 0.71168 0.0
C62 C 0.53554 0.69281 0.66073 0.0
C63 C 0.57663 0.74033 0.60502 0.0
C64 C 0.59511 0.75301 0.65512 0.0
C65 C 0.6271 0.78487 0.64315 0.0
H66 H 0.74528 0.87716 0.44695 0.0
C67 C 0.59618 0.7609 0.55574 0.0
C68 C 0.62555 0.78754 0.57745 0.0
H69 H 0.74707 0.89358 0.63233 0.0
H70 H 0.6889 0.85126 0.64037 0.0
H71 H 0.72252 0.77581 0.44623 0.0
H72 H 0.65378 0.89325 0.43242 0.0
H73 H 0.63534 0.85419 0.38355 0.0
H74 H 0.68319 0.87441 0.37426 0.0
H75 H 0.72288 0.81072 0.38347 0.0
H76 H 0.68864 0.76695 0.39149 0.0
C77 C 0.66452 0.76372 0.66508 0.0
C78 C 0.61746 0.82976 0.67175 0.0
C79 C 0.5617 0.70997 0.3542 0.0
C80 C 0.5772 0.718 0.29947 0.0
C81 C 0.60684 0.74907 0.29406 0.0
C82 C 0.62126 0.77112 0.34286 0.0
C83 C 0.60613 0.76159 0.39767 0.0
C84 C 0.57637 0.73206 0.40226 0.0
C85 C 0.5643 0.72477 0.46354 0.0
C86 C 0.59188 0.75462 0.49539 0.0
C87 C 0.61648 0.7759 0.45684 0.0
C88 C 0.5706 0.67513 0.47814 0.0
C89 C 0.52271 0.741 0.46957 0.0
C90 C 0.73289 0.8718 0.48916 0.0
C91 C 0.75059 0.8884 0.5391 0.0
C92 C 0.73365 0.88124 0.59332 0.0
C93 C 0.70014 0.8564 0.59789 0.0
C94 C 0.68356 0.83845 0.54773 0.0
C95 C 0.69937 0.84732 0.49438 0.0
C96 C 0.67746 0.82645 0.44562 0.0
C97 C 0.64611 0.80317 0.47849 0.0
C98 C 0.65019 0.80965 0.53841 0.0
C99 C 0.70406 0.79338 0.41453 0.0
C100 C 0.66171 0.86375 0.4064 0.0
H101 H 0.53008 0.70026 0.57051 0.0
H102 H 0.60062 0.74447 0.74751 0.0
H103 H 0.58622 0.83508 0.67361 0.0
H104 H 0.62839 0.85825 0.64689 0.0
H105 H 0.6286 0.83139 0.7167 0.0
H106 H 0.66604 0.72838 0.65196 0.0
H107 H 0.66637 0.76511 0.71298 0.0
H108 H 0.69016 0.77936 0.64717 0.0
H109 H 0.53969 0.68537 0.36014 0.0
H110 H 0.61922 0.75573 0.25218 0.0
H111 H 0.64418 0.79394 0.33623 0.0
H112 H 0.59523 0.66145 0.45405 0.0
H113 H 0.5453 0.65503 0.46647 0.0
H114 H 0.5778 0.66919 0.52394 0.0
H115 H 0.51683 0.76929 0.44009 0.0
H116 H 0.5164 0.75388 0.51321 0.0
H117 H 0.50219 0.71433 0.45869 0.0
H118 H 0.51313 0.66826 0.66139 0.0
C119 C 0.54576 0.71107 0.6077 0.0
C120 C 0.90984 0.22668 0.2024 0.0
C121 C 0.9417 0.19875 0.20707 0.0
C122 C 0.96881 0.1988 0.16244 0.0
C123 C 0.92792 0.24496 0.10432 0.0
C124 C 0.90378 0.24998 0.15068 0.0
C125 C 0.87152 0.28104 0.1368 0.0
H126 H 0.76252 0.37903 0.93312 0.0
C127 C 0.91106 0.2674 0.05407 0.0
C128 C 0.87865 0.29 0.07291 0.0
H129 H 0.75183 0.38829 0.11861 0.0
H130 H 0.81068 0.34782 0.13101 0.0
H131 H 0.85296 0.39952 0.92955 0.0
H132 H 0.78946 0.27769 0.93061 0.0
H133 H 0.82558 0.27268 0.87901 0.0
H134 H 0.78976 0.31453 0.86979 0.0
H135 H 0.82727 0.38037 0.86721 0.0
H136 H 0.87545 0.36294 0.8816 0.0
C137 C 0.87615 0.32334 0.17412 0.0
C138 C 0.83362 0.25629 0.14661 0.0
C139 C 0.95264 0.21845 0.85506 0.0
C140 C 0.9381 0.22603 0.79937 0.0
C141 C 0.90929 0.25791 0.79182 0.0
C142 C 0.89411 0.28041 0.83945 0.0
C143 C 0.90748 0.27044 0.89532 0.0
C144 C 0.93705 0.24086 0.90212 0.0
C145 C 0.94758 0.23377 0.96438 0.0
C146 C 0.91862 0.26314 0.99415 0.0
C147 C 0.89489 0.28405 0.95357 0.0
C148 C 0.98892 0.25016 0.97404 0.0
C149 C 0.94153 0.1841 0.97826 0.0
C150 C 0.77306 0.3724 0.97633 0.0
C151 C 0.75256 0.38618 0.02503 0.0
C152 C 0.76728 0.3778 0.08062 0.0
C153 C 0.80123 0.35418 0.08772 0.0
C154 C 0.82054 0.33882 0.0387 0.0
C155 C 0.80705 0.34911 0.98416 0.0
C156 C 0.83201 0.33103 0.93719 0.0
C157 C 0.86297 0.30871 0.97262 0.0
C158 C 0.85545 0.31243 0.03203 0.0
C159 C 0.84768 0.37026 0.90149 0.0
C160 C 0.8082 0.29738 0.90177 0.0
H161 H 0.983 0.21934 0.07786 0.0
H162 H 0.88936 0.22882 0.23706 0.0
H163 H 0.83401 0.22367 0.12444 0.0
H164 H 0.80878 0.27429 0.12953 0.0
H165 H 0.82882 0.2504 0.1934 0.0
H166 H 0.9055 0.32682 0.19157 0.0
H167 H 0.85655 0.32307 0.2116 0.0
H168 H 0.87129 0.35387 0.14862 0.0
H169 H 0.97432 0.19368 0.86243 0.0
H170 H 0.89783 0.26457 0.74917 0.0
H171 H 0.87172 0.30366 0.83114 0.0
H172 H 0.99882 0.27181 0.93826 0.0
H173 H 0.00912 0.22203 0.97711 0.0
H174 H 0.99159 0.27078 0.01349 0.0
H175 H 0.91294 0.17313 0.96341 0.0
H176 H 0.94312 0.17625 0.02458 0.0
H177 H 0.96308 0.16338 0.95618 0.0
H178 H 0.99474 0.17973 0.16647 0.0
C179 C 0.96208 0.22181 0.11114 0.0
C180 C 0.41728 0.28264 0.33022 0.0
C181 C 0.44878 0.31106 0.3278 0.0
C182 C 0.47191 0.3165 0.37697 0.0
C183 C 0.42861 0.27138 0.4326 0.0
C184 C 0.40788 0.26283 0.38299 0.0
C185 C 0.37443 0.23307 0.39439 0.0
H186 H 0.24983 0.15067 0.58669 0.0
C187 C 0.4082 0.25171 0.48184 0.0
C188 C 0.37677 0.22855 0.4598 0.0
H189 H 0.25346 0.1275 0.4023 0.0
H190 H 0.31255 0.16764 0.39625 0.0
H191 H 0.34092 0.12814 0.60606 0.0
H192 H 0.27701 0.24856 0.58652 0.0
H193 H 0.31246 0.25908 0.63816 0.0
H194 H 0.27698 0.21751 0.6526 0.0
H195 H 0.30935 0.14858 0.66059 0.0
H196 H 0.35821 0.1663 0.65717 0.0
C197 C 0.38117 0.18834 0.36327 0.0
C198 C 0.33784 0.25732 0.37484 0.0
C199 C 0.44398 0.29998 0.68457 0.0
C200 C 0.42512 0.29673 0.73758 0.0
C201 C 0.39226 0.27049 0.74186 0.0
C202 C 0.3778 0.24843 0.69321 0.0
C203 C 0.39594 0.25365 0.63958 0.0
C204 C 0.4287 0.27873 0.63612 0.0
C205 C 0.4422 0.28416 0.57507 0.0
C206 C 0.41247 0.25767 0.54236 0.0
C207 C 0.38551 0.23982 0.58034 0.0
C208 C 0.48213 0.26303 0.5702 0.0
C209 C 0.4407 0.33423 0.56021 0.0
C210 C 0.26347 0.15391 0.54504 0.0
C211 C 0.24621 0.13717 0.49461 0.0
C212 C 0.26528 0.14164 0.44143 0.0
C213 C 0.29976 0.16458 0.438 0.0
C214 C 0.31561 0.18295 0.48827 0.0
C215 C 0.29823 0.17616 0.54092 0.0
C216 C 0.32051 0.19594 0.59015 0.0
C217 C 0.3541 0.21563 0.5582 0.0
C218 C 0.35046 0.20893 0.4984 0.0
C219 C 0.33282 0.15805 0.63115 0.0
C220 C 0.29562 0.23198 0.61892 0.0
H221 H 0.47992 0.30331 0.46606 0.0
H222 H 0.39966 0.27738 0.29234 0.0
H223 H 0.33729 0.29151 0.39253 0.0
H224 H 0.31164 0.2411 0.38978 0.0
H225 H 0.33633 0.25959 0.32697 0.0
H226 H 0.41159 0.18338 0.35215 0.0
H227 H 0.36463 0.18625 0.32236 0.0
H228 H 0.37385 0.15972 0.39101 0.0
H229 H 0.46874 0.32098 0.68014 0.0
H230 H 0.37729 0.26804 0.78254 0.0
H231 H 0.35232 0.22948 0.69882 0.0
H232 H 0.48466 0.23354 0.59874 0.0
H233 H 0.5047 0.28676 0.58316 0.0
H234 H 0.48814 0.25051 0.52629 0.0
H235 H 0.4163 0.35055 0.58192 0.0
H236 H 0.43613 0.34105 0.51396 0.0
H237 H 0.467 0.35136 0.57462 0.0
H238 H 0.49648 0.33806 0.37552 0.0
C239 C 0.46206 0.29663 0.42941 0.0
O240 O 0.9067 0.00776 0.52586 0.0
Zn241 Zn 0.9542 0.04507 0.51939 0.0
O242 O 4e-05 0.00817 0.51999 0.0
Zn243 Zn 0.03269 0.02349 0.5859 0.0
Zn244 Zn 0.98552 0.94595 0.52393 0.0
Zn245 Zn 0.02806 0.01764 0.44913 0.0
O246 O 0.08427 0.04508 0.56012 0.0
O247 O 0.07834 0.0464 0.4646 0.0
O248 O 0.95503 0.08764 0.58559 0.0
O249 O 0.00922 0.07349 0.63157 0.0
O250 O 0.03989 0.97077 0.63869 0.0
O251 O 0.00461 0.91871 0.59712 0.0
O252 O 0.00736 0.91007 0.45869 0.0
O253 O 0.95015 0.08125 0.44607 0.0
O254 O 0.03789 0.96074 0.4077 0.0
O255 O 0.9995 0.05723 0.39546 0.0
C256 C 0.90122 0.96612 0.52545 0.0
C257 C 0.0974 0.05414 0.51031 0.0
C258 C 0.02624 0.93172 0.63785 0.0
C259 C 0.97862 0.09565 0.6261 0.0
C260 C 0.02803 0.92077 0.41597 0.0
C261 C 0.96993 0.08106 0.40017 0.0
O262 O 0.92886 0.93907 0.52294 0.0
O263 O 0.59697 0.50464 0.01358 0.0
Zn264 Zn 0.54943 0.54224 0.01425 0.0
O265 O 0.50301 0.50639 0.01865 0.0
Zn266 Zn 0.47085 0.51691 0.95124 0.0
Zn267 Zn 0.51738 0.44405 0.02094 0.0
Zn268 Zn 0.47417 0.52207 0.08774 0.0
O269 O 0.41892 0.53786 0.97335 0.0
O270 O 0.42158 0.5444 0.0687 0.0
O271 O 0.54884 0.58037 0.94293 0.0
O272 O 0.49353 0.56428 0.90124 0.0
O273 O 0.46324 0.4614 0.90491 0.0
O274 O 0.49489 0.41027 0.95441 0.0
O275 O 0.49979 0.41543 0.09444 0.0
O276 O 0.5531 0.58375 0.08175 0.0
O277 O 0.46844 0.46896 0.13964 0.0
O278 O 0.50042 0.5708 0.13144 0.0
C279 C 0.60175 0.46291 0.01371 0.0
C280 C 0.40352 0.54785 0.02117 0.0
C281 C 0.4742 0.42163 0.91173 0.0
C282 C 0.5243 0.58639 0.9031 0.0
C283 C 0.48017 0.42917 0.13686 0.0
C284 C 0.53123 0.59206 0.12402 0.0
O285 O 0.57373 0.43646 0.01621 0.0
C286 C 0.19979 0.08567 0.54194 0.0
C287 C 0.2082 0.11585 0.49741 0.0
C288 C 0.16384 0.06593 0.54604 0.0
C289 C 0.13516 0.07517 0.50531 0.0
H290 H 0.22122 0.07699 0.57369 0.0
H291 H 0.15864 0.04284 0.58093 0.0
S292 S 0.14148 0.15446 0.38334 0.0
N293 N 0.18381 0.15627 0.41422 0.0
N294 N 0.11685 0.11797 0.42071 0.0
C295 C 0.14306 0.10542 0.46081 0.0
C296 C 0.17942 0.12602 0.45714 0.0
C297 C 0.31856 0.61923 0.0579 0.0
C298 C 0.29181 0.60744 0.01514 0.0
C299 C 0.35417 0.59862 0.06094 0.0
C300 C 0.36453 0.56589 0.02087 0.0
H301 H 0.31248 0.64566 0.08806 0.0
H302 H 0.37426 0.60964 0.0935 0.0
S303 S 0.30312 0.51877 0.90568 0.0
N304 N 0.2767 0.55732 0.93606 0.0
N305 N 0.34414 0.51977 0.94051 0.0
C306 C 0.3376 0.55257 0.97936 0.0
C307 C 0.30114 0.57305 0.9768 0.0
C308 C 0.81825 0.88725 0.50851 0.0
C309 C 0.78816 0.90999 0.53483 0.0
C310 C 0.85458 0.90585 0.50555 0.0
C311 C 0.86209 0.94824 0.52797 0.0
H312 H 0.81383 0.85441 0.49101 0.0
H313 H 0.87695 0.88682 0.48534 0.0
S314 S 0.79238 0.02181 0.59988 0.0
N315 N 0.76772 0.97712 0.58302 0.0
N316 N 0.83602 0.01268 0.57681 0.0
C317 C 0.83198 0.97168 0.55358 0.0
C318 C 0.79504 0.95236 0.5573 0.0
C319 C 0.70715 0.44827 0.04303 0.0
C320 C 0.71474 0.40679 0.01826 0.0
C321 C 0.67076 0.46704 0.03963 0.0
C322 C 0.64061 0.44443 0.01253 0.0
H323 H 0.72945 0.46614 0.06546 0.0
H324 H 0.66594 0.4988 0.05996 0.0
S325 S 0.64629 0.33529 0.93977 0.0
N326 N 0.6897 0.3442 0.96449 0.0
N327 N 0.6212 0.37899 0.95881 0.0
C328 C 0.64809 0.40318 0.98691 0.0
C329 C 0.6852 0.38449 0.98958 0.0
C330 C 0.06542 0.8696 0.27831 0.0
C331 C 0.06284 0.82395 0.28874 0.0
C332 C 0.05449 0.90034 0.31999 0.0
C333 C 0.04024 0.88673 0.37386 0.0
H334 H 0.07594 0.88173 0.2373 0.0
H335 H 0.05676 0.93511 0.30933 0.0
S336 S 0.02895 0.77046 0.42287 0.0
N337 N 0.04602 0.76618 0.35672 0.0
N338 N 0.02513 0.82399 0.43584 0.0
C339 C 0.03799 0.84096 0.3852 0.0
C340 C 0.04949 0.80957 0.34255 0.0
C341 C 0.57676 0.65913 0.7964 0.0
C342 C 0.54702 0.67966 0.76572 0.0
C343 C 0.56922 0.62989 0.84194 0.0
C344 C 0.53169 0.61983 0.85793 0.0
H345 H 0.60599 0.66408 0.78346 0.0
H346 H 0.59293 0.61375 0.86321 0.0
S347 S 0.44411 0.67028 0.79713 0.0
N348 N 0.47894 0.69216 0.75907 0.0
N349 N 0.46467 0.63646 0.84375 0.0
C350 C 0.50181 0.64193 0.82956 0.0
C351 C 0.50951 0.67205 0.78372 0.0
C352 C 0.94092 0.1821 0.31361 0.0
C353 C 0.94609 0.16773 0.25632 0.0
C354 C 0.94721 0.15334 0.36036 0.0
C355 C 0.9592 0.10956 0.35115 0.0
H356 H 0.93307 0.21604 0.32241 0.0
H357 H 0.9441 0.1659 0.40392 0.0
S358 S 0.97111 0.05393 0.20973 0.0
N359 N 0.95919 0.10519 0.19322 0.0
N360 N 0.97241 0.05198 0.28099 0.0
C361 C 0.96287 0.09434 0.29421 0.0
C362 C 0.95593 0.12322 0.24681 0.0
C363 C 0.41333 0.36004 0.80326 0.0
C364 C 0.43711 0.32529 0.78587 0.0
C365 C 0.42563 0.39108 0.84412 0.0
C366 C 0.46183 0.38785 0.86972 0.0
H367 H 0.38551 0.36405 0.78374 0.0
H368 H 0.40664 0.41779 0.85574 0.0
S369 S 0.53437 0.30212 0.8394 0.0
N370 N 0.49819 0.28902 0.79699 0.0
N371 N 0.52108 0.34663 0.87539 0.0
C372 C 0.48551 0.35252 0.85368 0.0
C373 C 0.47322 0.32144 0.81121 0.0
C374 C 0.59169 0.66871 0.21582 0.0
C375 C 0.56462 0.69074 0.24977 0.0
C376 C 0.58059 0.63758 0.17422 0.0
C377 C 0.54204 0.62707 0.16552 0.0
H378 H 0.62175 0.67414 0.22311 0.0
H379 H 0.60247 0.6205 0.1502 0.0
S380 S 0.4599 0.68019 0.23758 0.0
N381 N 0.49751 0.70361 0.2675 0.0
N382 N 0.47661 0.64438 0.19025 0.0
C383 C 0.51462 0.65035 0.19734 0.0
C384 C 0.52591 0.68238 0.23919 0.0
C385 C 0.92196 0.17636 0.7167 0.0
C386 C 0.94988 0.19696 0.751 0.0
C387 C 0.93167 0.14425 0.67583 0.0
C388 C 0.96967 0.13116 0.66795 0.0
H389 H 0.89217 0.18381 0.723 0.0
H390 H 0.90901 0.12862 0.65146 0.0
S391 S 0.05393 0.1789 0.74209 0.0
N392 N 0.01743 0.20512 0.77067 0.0
N393 N 0.03571 0.144 0.69461 0.0
C394 C 0.99804 0.15265 0.7005 0.0
C395 C 0.98815 0.18572 0.74178 0.0
C396 C 0.48941 0.33595 0.2457 0.0
C397 C 0.45526 0.33895 0.27654 0.0
C398 C 0.49691 0.36471 0.19959 0.0
C399 C 0.47095 0.39812 0.18402 0.0
H400 H 0.51047 0.31143 0.25758 0.0
H401 H 0.52366 0.36152 0.177 0.0
S402 S 0.37727 0.41901 0.25148 0.0
N403 N 0.39502 0.3769 0.28813 0.0
N404 N 0.40939 0.43168 0.20237 0.0
C405 C 0.43661 0.40116 0.2145 0.0
C406 C 0.42869 0.37135 0.26056 0.0
C407 C 0.07896 0.87692 0.76197 0.0
C408 C 0.05391 0.84316 0.77865 0.0
C409 C 0.06982 0.90547 0.71627 0.0
C410 C 0.03561 0.90068 0.6852 0.0
H411 H 0.10521 0.88217 0.78563 0.0
H412 H 0.08967 0.93151 0.70532 0.0
S413 S 0.96121 0.81597 0.71132 0.0
N414 N 0.99412 0.80565 0.76057 0.0
N415 N 0.977 0.8586 0.67384 0.0
C416 C 0.01081 0.86612 0.70069 0.0
C417 C 0.01993 0.83755 0.74771 0.0
loop_
_geom_bond_atom_site_label_1
_geom_bond_atom_site_label_2
_geom_bond_distance
_geom_bond_site_symmetry_2
_ccdc_geom_bond_type
C0 C1 1.391 . S
C0 C4 1.391 . S
C0 H42 0.948 . S
C1 C0 1.391 . S
C1 C2 1.391 . S
C2 C1 1.391 . S
C2 H58 0.947 . S
C2 C59 1.392 . S
C3 C4 1.391 . S
C3 C7 1.397 . S
C3 C59 1.419 . S
C4 C0 1.391 . S
C4 C3 1.391 . S
C4 C5 1.399 . S
C5 C4 1.399 . S
C5 C8 1.396 . S
C5 C17 1.453 . S
C5 C18 1.684 . S
H6 C30 0.948 . S
C7 C3 1.397 . S
C7 C8 1.394 . S
C7 C26 1.723 1_556 S
C8 C5 1.396 . S
C8 C7 1.394 . S
C8 C38 1.723 1_556 S
H9 C32 0.947 . S
H10 C33 0.948 . S
H11 C39 0.982 . S
H12 C40 0.979 . S
H13 C40 0.980 . S
H14 C40 0.983 . S
H15 C39 0.979 . S
H16 C39 0.977 . S
C17 C5 1.453 . S
C17 H46 0.982 . S
C17 H47 0.979 . S
C17 H48 0.977 . S
C18 C5 1.684 . S
C18 H43 0.979 . S
C18 H44 0.980 . S
C18 H45 0.983 . S
C19 C20 1.391 . S
C19 C24 1.391 . S
C19 H49 0.948 . S
C20 C19 1.391 . S
C20 C21 1.391 . S
C21 C20 1.391 . S
C21 C22 1.392 . S
C21 H50 0.947 . S
C22 C21 1.392 . S
C22 C23 1.419 . S
C22 H51 0.948 . S
C23 C22 1.419 . S
C23 C24 1.391 . S
C23 C27 1.397 . S
C24 C19 1.391 . S
C24 C23 1.391 . S
C24 C25 1.399 . S
C25 C24 1.399 . S
C25 C26 1.396 . S
C25 C28 1.453 . S
C25 C29 1.684 . S
C26 C7 1.723 1_554 S
C26 C25 1.396 . S
C26 C27 1.394 . S
C27 C23 1.397 . S
C27 C26 1.394 . S
C27 C37 1.723 . S
C28 C25 1.453 . S
C28 H52 0.982 . S
C28 H53 0.979 . S
C28 H54 0.977 . S
C29 C25 1.684 . S
C29 H55 0.987 . S
C29 H56 0.980 . S
C29 H57 0.983 1_455 S
C30 H6 0.948 . S
C30 C31 1.391 . S
C30 C35 1.391 . S
C31 C30 1.391 . S
C31 C32 1.391 1_554 S
C32 H9 0.947 . S
C32 C31 1.391 1_556 S
C32 C33 1.392 . S
C33 H10 0.948 . S
C33 C32 1.392 . S
C33 C34 1.419 1_556 S
C34 C33 1.419 1_554 S
C34 C35 1.391 . S
C34 C38 1.397 . S
C35 C30 1.391 . S
C35 C34 1.391 . S
C35 C36 1.399 . S
C36 C35 1.399 . S
C36 C37 1.396 . S
C36 C39 1.453 . S
C36 C40 1.684 . S
C37 C27 1.723 . S
C37 C36 1.396 . S
C37 C38 1.394 . S
C38 C8 1.723 1_554 S
C38 C34 1.397 . S
C38 C37 1.394 . S
C39 H11 0.982 . S
C39 H15 0.979 . S
C39 H16 0.977 . S
C39 C36 1.453 . S
C40 H12 0.979 . S
C40 H13 0.980 . S
C40 H14 0.983 . S
C40 C36 1.684 . S
H41 C59 0.948 . S
H42 C0 0.948 . S
H43 C18 0.979 . S
H44 C18 0.980 . S
H45 C18 0.983 . S
H46 C17 0.982 . S
H47 C17 0.979 . S
H48 C17 0.977 . S
H49 C19 0.948 . S
H50 C21 0.947 . S
H51 C22 0.948 . S
H52 C28 0.982 . S
H53 C28 0.979 . S
H54 C28 0.977 . S
H55 C29 0.987 . S
H56 C29 0.980 . S
H57 C29 0.983 1_655 S
H58 C2 0.947 . S
C59 C2 1.392 . S
C59 C3 1.419 . S
C59 H41 0.948 . S
C60 C61 1.391 . S
C60 C64 1.391 . S
C60 H102 0.948 . S
C61 C60 1.391 . S
C61 C62 1.391 . S
C62 C61 1.391 . S
C62 H118 0.947 . S
C62 C119 1.392 . S
C63 C64 1.391 . S
C63 C67 1.397 . S
C63 C119 1.419 . S
C64 C60 1.391 . S
C64 C63 1.391 . S
C64 C65 1.399 . S
C65 C64 1.399 . S
C65 C68 1.396 . S
C65 C77 1.453 . S
C65 C78 1.684 . S
H66 C90 0.948 . S
C67 C63 1.397 . S
C67 C68 1.394 . S
C67 C86 1.723 . S
C68 C65 1.396 . S
C68 C67 1.394 . S
C68 C98 1.723 . S
H69 C92 0.947 . S
H70 C93 0.948 . S
H71 C99 0.982 . S
H72 C100 0.979 . S
H73 C100 0.980 . S
H74 C100 0.983 . S
H75 C99 0.979 . S
H76 C99 0.977 . S
C77 C65 1.453 . S
C77 H106 0.982 . S
C77 H107 0.979 . S
C77 H108 0.977 . S
C78 C65 1.684 . S
C78 H103 0.979 . S
C78 H104 0.980 . S
C78 H105 0.983 . S
C79 C80 1.391 . S
C79 C84 1.391 . S
C79 H109 0.948 . S
C80 C79 1.391 . S
C80 C81 1.391 . S
C81 C80 1.391 . S
C81 C82 1.392 . S
C81 H110 0.947 . S
C82 C81 1.392 . S
C82 C83 1.419 . S
C82 H111 0.948 . S
C83 C82 1.419 . S
C83 C84 1.391 . S
C83 C87 1.397 . S
C84 C79 1.391 . S
C84 C83 1.391 . S
C84 C85 1.399 . S
C85 C84 1.399 . S
C85 C86 1.396 . S
C85 C88 1.453 . S
C85 C89 1.684 . S
C86 C67 1.723 . S
C86 C85 1.396 . S
C86 C87 1.394 . S
C87 C83 1.397 . S
C87 C86 1.394 . S
C87 C97 1.723 . S
C88 C85 1.453 . S
C88 H112 0.982 . S
C88 H113 0.979 . S
C88 H114 0.977 . S
C89 C85 1.684 . S
C89 H115 0.979 . S
C89 H116 0.980 . S
C89 H117 0.983 . S
C90 H66 0.948 . S
C90 C91 1.391 . S
C90 C95 1.391 . S
C91 C90 1.391 . S
C91 C92 1.391 . S
C92 H69 0.947 . S
C92 C91 1.391 . S
C92 C93 1.392 . S
C93 H70 0.948 . S
C93 C92 1.392 . S
C93 C94 1.419 . S
C94 C93 1.419 . S
C94 C95 1.391 . S
C94 C98 1.397 . S
C95 C90 1.391 . S
C95 C94 1.391 . S
C95 C96 1.399 . S
C96 C95 1.399 . S
C96 C97 1.396 . S
C96 C99 1.453 . S
C96 C100 1.684 . S
C97 C87 1.723 . S
C97 C96 1.396 . S
C97 C98 1.394 . S
C98 C68 1.723 . S
C98 C94 1.397 . S
C98 C97 1.394 . S
C99 H71 0.982 . S
C99 H75 0.979 . S
C99 H76 0.977 . S
C99 C96 1.453 . S
C100 H72 0.979 . S
C100 H73 0.980 . S
C100 H74 0.983 . S
C100 C96 1.684 . S
H101 C119 0.948 . S
H102 C60 0.948 . S
H103 C78 0.979 . S
H104 C78 0.980 . S
H105 C78 0.983 . S
H106 C77 0.982 . S
H107 C77 0.979 . S
H108 C77 0.977 . S
H109 C79 0.948 . S
H110 C81 0.947 . S
H111 C82 0.948 . S
H112 C88 0.982 . S
H113 C88 0.979 . S
H114 C88 0.977 . S
H115 C89 0.979 . S
H116 C89 0.980 . S
H117 C89 0.983 . S
H118 C62 0.947 . S
C119 C62 1.392 . S
C119 C63 1.419 . S
C119 H101 0.948 . S
C120 C121 1.391 . S
C120 C124 1.391 . S
C120 H162 0.948 . S
C121 C120 1.391 . S
C121 C122 1.391 . S
C122 C121 1.391 . S
C122 H178 0.947 . S
C122 C179 1.392 . S
C123 C124 1.391 . S
C123 C127 1.397 . S
C123 C179 1.419 . S
C124 C120 1.391 . S
C124 C123 1.391 . S
C124 C125 1.399 . S
C125 C124 1.399 . S
C125 C128 1.396 . S
C125 C137 1.453 . S
C125 C138 1.684 . S
H126 C150 0.948 . S
C127 C123 1.397 . S
C127 C128 1.394 . S
C127 C146 1.723 . S
C128 C125 1.396 . S
C128 C127 1.394 . S
C128 C158 1.723 . S
H129 C152 0.947 . S
H130 C153 0.948 . S
H131 C159 0.982 . S
H132 C160 0.979 . S
H133 C160 0.980 . S
H134 C160 0.983 . S
H135 C159 0.979 . S
H136 C159 0.977 . S
C137 C125 1.453 . S
C137 H166 0.982 . S
C137 H167 0.979 . S
C137 H168 0.977 . S
C138 C125 1.684 . S
C138 H163 0.979 . S
C138 H164 0.980 . S
C138 H165 0.983 . S
C139 C140 1.391 . S
C139 C144 1.391 . S
C139 H169 0.948 . S
C140 C139 1.391 . S
C140 C141 1.391 . S
C141 C140 1.391 . S
C141 C142 1.392 . S
C141 H170 0.947 . S
C142 C141 1.392 . S
C142 C143 1.419 . S
C142 H171 0.948 . S
C143 C142 1.419 . S
C143 C144 1.391 . S
C143 C147 1.397 . S
C144 C139 1.391 . S
C144 C143 1.391 . S
C144 C145 1.399 . S
C145 C144 1.399 . S
C145 C146 1.396 1_556 S
C145 C148 1.453 . S
C145 C149 1.684 . S
C146 C127 1.723 . S
C146 C145 1.396 1_554 S
C146 C147 1.394 1_554 S
C147 C143 1.397 . S
C147 C146 1.394 1_556 S
C147 C157 1.723 . S
C148 C145 1.453 . S
C148 H172 0.982 . S
C148 H173 0.979 . S
C148 H174 0.977 1_556 S
C149 C145 1.684 . S
C149 H175 0.979 . S
C149 H176 0.980 1_556 S
C149 H177 0.983 . S
C150 H126 0.948 . S
C150 C151 1.391 1_556 S
C150 C155 1.391 . S
C151 C150 1.391 1_554 S
C151 C152 1.391 . S
C152 H129 0.947 . S
C152 C151 1.391 . S
C152 C153 1.392 . S
C153 H130 0.948 . S
C153 C152 1.392 . S
C153 C154 1.419 . S
C154 C153 1.419 . S
C154 C155 1.391 1_554 S
C154 C158 1.397 . S
C155 C150 1.391 . S
C155 C154 1.391 1_556 S
C155 C156 1.399 . S
C156 C155 1.399 . S
C156 C157 1.396 . S
C156 C159 1.453 . S
C156 C160 1.684 . S
C157 C147 1.723 . S
C157 C156 1.396 . S
C157 C158 1.394 1_556 S
C158 C128 1.723 . S
C158 C154 1.397 . S
C158 C157 1.394 1_554 S
C159 H131 0.982 . S
C159 H135 0.979 . S
C159 H136 0.977 . S
C159 C156 1.453 . S
C160 H132 0.979 . S
C160 H133 0.980 . S
C160 H134 0.983 . S
C160 C156 1.684 . S
H161 C179 0.948 . S
H162 C120 0.948 . S
H163 C138 0.979 . S
H164 C138 0.980 . S
H165 C138 0.983 . S
H166 C137 0.982 . S
H167 C137 0.979 . S
H168 C137 0.977 . S
H169 C139 0.948 . S
H170 C141 0.947 . S
H171 C142 0.948 . S
H172 C148 0.982 . S
H173 C148 0.979 . S
H174 C148 0.977 1_554 S
H175 C149 0.979 . S
H176 C149 0.980 1_554 S
H177 C149 0.983 . S
H178 C122 0.947 . S
C179 C122 1.392 . S
C179 C123 1.419 . S
C179 H161 0.948 . S
C180 C181 1.391 . S
C180 C184 1.391 . S
C180 H222 0.948 . S
C181 C180 1.391 . S
C181 C182 1.391 . S
C182 C181 1.391 . S
C182 H238 0.947 . S
C182 C239 1.392 . S
C183 C184 1.391 . S
C183 C187 1.397 . S
C183 C239 1.419 . S
C184 C180 1.391 . S
C184 C183 1.391 . S
C184 C185 1.399 . S
C185 C184 1.399 . S
C185 C188 1.396 . S
C185 C197 1.453 . S
C185 C198 1.684 . S
H186 C210 0.948 . S
C187 C183 1.397 . S
C187 C188 1.394 . S
C187 C206 1.723 . S
C188 C185 1.396 . S
C188 C187 1.394 . S
C188 C218 1.723 . S
H189 C212 0.947 . S
H190 C213 0.948 . S
H191 C219 0.982 . S
H192 C220 0.979 . S
H193 C220 0.980 . S
H194 C220 0.983 . S
H195 C219 0.979 . S
H196 C219 0.977 . S
C197 C185 1.453 . S
C197 H226 0.982 . S
C197 H227 0.979 . S
C197 H228 0.977 . S
C198 C185 1.684 . S
C198 H223 0.979 . S
C198 H224 0.980 . S
C198 H225 0.983 . S
C199 C200 1.391 . S
C199 C204 1.391 . S
C199 H229 0.948 . S
C200 C199 1.391 . S
C200 C201 1.391 . S
C201 C200 1.391 . S
C201 C202 1.392 . S
C201 H230 0.947 . S
C202 C201 1.392 . S
C202 C203 1.419 . S
C202 H231 0.948 . S
C203 C202 1.419 . S
C203 C204 1.391 . S
C203 C207 1.397 . S
C204 C199 1.391 . S
C204 C203 1.391 . S
C204 C205 1.399 . S
C205 C204 1.399 . S
C205 C206 1.396 . S
C205 C208 1.453 . S
C205 C209 1.684 . S
C206 C187 1.723 . S
C206 C205 1.396 . S
C206 C207 1.394 . S
C207 C203 1.397 . S
C207 C206 1.394 . S
C207 C217 1.723 . S
C208 C205 1.453 . S
C208 H232 0.982 . S
C208 H233 0.979 . S
C208 H234 0.977 . S
C209 C205 1.684 . S
C209 H235 0.979 . S
C209 H236 0.980 . S
C209 H237 0.983 . S
C210 H186 0.948 . S
C210 C211 1.391 . S
C210 C215 1.391 . S
C211 C210 1.391 . S
C211 C212 1.391 . S
C212 H189 0.947 . S
C212 C211 1.391 . S
C212 C213 1.392 . S
C213 H190 0.948 . S
C213 C212 1.392 . S
C213 C214 1.419 . S
C214 C213 1.419 . S
C214 C215 1.391 . S
C214 C218 1.397 . S
C215 C210 1.391 . S
C215 C214 1.391 . S
C215 C216 1.399 . S
C216 C215 1.399 . S
C216 C217 1.396 . S
C216 C219 1.453 . S
C216 C220 1.684 . S
C217 C207 1.723 . S
C217 C216 1.396 . S
C217 C218 1.394 . S
C218 C188 1.723 . S
C218 C214 1.397 . S
C218 C217 1.394 . S
C219 H191 0.982 . S
C219 H195 0.979 . S
C219 H196 0.977 . S
C219 C216 1.453 . S
C220 H192 0.979 . S
C220 H193 0.980 . S
C220 H194 0.983 . S
C220 C216 1.684 . S
H221 C239 0.948 . S
H222 C180 0.948 . S
H223 C198 0.979 . S
H224 C198 0.980 . S
H225 C198 0.983 . S
H226 C197 0.982 . S
H227 C197 0.979 . S
H228 C197 0.977 . S
H229 C199 0.948 . S
H230 C201 0.947 . S
H231 C202 0.948 . S
H232 C208 0.982 . S
H233 C208 0.979 . S
H234 C208 0.977 . S
H235 C209 0.979 . S
H236 C209 0.980 . S
H237 C209 0.983 . S
H238 C182 0.947 . S
C239 C182 1.392 . S
C239 C183 1.419 . S
C239 H221 0.948 . S
O240 Zn241 1.953 1_565 S
O240 C256 1.225 . S
Zn241 O240 1.953 1_545 S
Zn241 O242 1.949 1_655 S
Zn241 O248 1.919 . S
Zn241 O253 1.924 . S
O242 Zn241 1.949 1_455 S
O242 Zn243 1.923 . S
O242 Zn244 1.950 1_445 S
O242 Zn245 1.945 . S
Zn243 O242 1.923 . S
Zn243 O246 1.933 . S
Zn243 O249 1.941 . S
Zn243 O250 1.965 1_545 S
Zn244 O242 1.950 1_665 S
Zn244 O251 1.938 1_655 S
Zn244 O252 1.906 1_655 S
Zn244 O262 1.953 . S
Zn245 O242 1.945 . S
Zn245 O247 1.932 . S
Zn245 O254 1.977 1_545 S
Zn245 O255 1.910 1_455 S
O246 Zn243 1.933 . S
O246 C257 1.226 . S
O247 Zn245 1.932 . S
O247 C257 1.307 . S
O248 Zn241 1.919 . S
O248 C259 1.253 . S
O249 Zn243 1.941 . S
O249 C259 1.283 1_455 S
O250 Zn243 1.965 1_565 S
O250 C258 1.303 . S
O251 Zn244 1.938 1_455 S
O251 C258 1.247 . S
O252 Zn244 1.906 1_455 S
O252 C260 1.304 . S
O253 Zn241 1.924 . S
O253 C261 1.311 . S
O254 Zn245 1.977 1_565 S
O254 C260 1.272 . S
O255 Zn245 1.910 1_655 S
O255 C261 1.231 . S
C256 O240 1.225 . S
C256 O262 1.298 . S
C257 O246 1.226 . S
C257 O247 1.307 . S
C258 O250 1.303 . S
C258 O251 1.247 . S
C259 O248 1.253 . S
C259 O249 1.283 1_655 S
C260 O252 1.304 . S
C260 O254 1.272 . S
C261 O253 1.311 . S
C261 O255 1.231 . S
O262 Zn244 1.953 . S
O262 C256 1.298 . S
O263 Zn264 1.953 . S
O263 C279 1.225 . S
Zn264 O263 1.953 . S
Zn264 O265 1.949 . S
Zn264 O271 1.919 1_554 S
Zn264 O276 1.924 . S
O265 Zn264 1.949 . S
O265 Zn266 1.923 1_554 S
O265 Zn267 1.950 . S
O265 Zn268 1.945 . S
Zn266 O265 1.923 1_556 S
Zn266 O269 1.933 . S
Zn266 O272 1.941 . S
Zn266 O273 1.965 . S
Zn267 O265 1.950 . S
Zn267 O274 1.938 1_554 S
Zn267 O275 1.906 . S
Zn267 O285 1.953 . S
Zn268 O265 1.945 . S
Zn268 O270 1.932 . S
Zn268 O277 1.977 . S
Zn268 O278 1.910 . S
O269 Zn266 1.933 . S
O269 C280 1.226 1_556 S
O270 Zn268 1.932 . S
O270 C280 1.307 . S
O271 Zn264 1.919 1_556 S
O271 C282 1.253 . S
O272 Zn266 1.941 . S
O272 C282 1.283 . S
O273 Zn266 1.965 . S
O273 C281 1.303 . S
O274 Zn267 1.938 1_556 S
O274 C281 1.247 . S
O275 Zn267 1.906 . S
O275 C283 1.304 . S
O276 Zn264 1.924 . S
O276 C284 1.311 . S
O277 Zn268 1.977 . S
O277 C283 1.272 . S
O278 Zn268 1.910 . S
O278 C284 1.231 . S
C279 O263 1.225 . S
C279 O285 1.298 . S
C280 O269 1.226 1_554 S
C280 O270 1.307 . S
C281 O273 1.303 . S
C281 O274 1.247 . S
C282 O271 1.253 . S
C282 O272 1.283 . S
C283 O275 1.304 . S
C283 O277 1.272 . S
C284 O276 1.311 . S
C284 O278 1.231 . S
O285 Zn267 1.953 . S
O285 C279 1.298 . S
C286 C287 1.369 . S
C286 C288 1.419 . S
C286 H290 0.930 . S
C287 C286 1.369 . S
C287 C296 1.429 . S
C288 C286 1.419 . S
C288 C289 1.363 . S
C288 H291 0.929 . S
C289 C288 1.363 . S
C289 C295 1.428 . S
H290 C286 0.930 . S
H291 C288 0.929 . S
S292 N293 1.613 . S
S292 N294 1.610 . S
N293 S292 1.613 . S
N293 C296 1.350 . S
N294 S292 1.610 . S
N294 C295 1.351 . S
C295 C289 1.428 . S
C295 N294 1.351 . S
C295 C296 1.434 . S
C296 C287 1.429 . S
C296 N293 1.350 . S
C296 C295 1.434 . S
C297 C298 1.369 . S
C297 C299 1.419 . S
C297 H301 0.930 . S
C298 C297 1.369 . S
C298 C307 1.429 1_554 S
C299 C297 1.419 . S
C299 C300 1.363 . S
C299 H302 0.929 . S
C300 C299 1.363 . S
C300 C306 1.428 1_554 S
H301 C297 0.930 . S
H302 C299 0.929 . S
S303 N304 1.613 . S
S303 N305 1.610 . S
N304 S303 1.613 . S
N304 C307 1.350 . S
N305 S303 1.610 . S
N305 C306 1.351 . S
C306 C300 1.428 1_556 S
C306 N305 1.351 . S
C306 C307 1.434 . S
C307 C298 1.429 1_556 S
C307 N304 1.350 . S
C307 C306 1.434 . S
C308 C309 1.369 . S
C308 C310 1.419 . S
C308 H312 0.930 . S
C309 C308 1.369 . S
C309 C318 1.429 . S
C310 C308 1.419 . S
C310 C311 1.363 . S
C310 H313 0.929 . S
C311 C310 1.363 . S
C311 C317 1.428 . S
H312 C308 0.930 . S
H313 C310 0.929 . S
S314 N315 1.613 . S
S314 N316 1.610 . S
N315 S314 1.613 . S
N315 C318 1.350 . S
N316 S314 1.610 . S
N316 C317 1.351 . S
C317 C311 1.428 . S
C317 N316 1.351 . S
C317 C318 1.434 . S
C318 C309 1.429 . S
C318 N315 1.350 . S
C318 C317 1.434 . S
C319 C320 1.369 . S
C319 C321 1.419 . S
C319 H323 0.930 . S
C320 C319 1.369 . S
C320 C329 1.429 1_554 S
C321 C319 1.419 . S
C321 C322 1.363 . S
C321 H324 0.929 . S
C322 C321 1.363 . S
C322 C328 1.428 1_554 S
H323 C319 0.930 . S
H324 C321 0.929 . S
S325 N326 1.613 . S
S325 N327 1.610 . S
N326 S325 1.613 . S
N326 C329 1.350 . S
N327 S325 1.610 . S
N327 C328 1.351 . S
C328 C322 1.428 1_556 S
C328 N327 1.351 . S
C328 C329 1.434 . S
C329 C320 1.429 1_556 S
C329 N326 1.350 . S
C329 C328 1.434 . S
C330 C331 1.369 . S
C330 C332 1.419 . S
C330 H334 0.930 . S
C331 C330 1.369 . S
C331 C340 1.429 . S
C332 C330 1.419 . S
C332 C333 1.363 . S
C332 H335 0.929 . S
C333 C332 1.363 . S
C333 C339 1.428 . S
H334 C330 0.930 . S
H335 C332 0.929 . S
S336 N337 1.613 . S
S336 N338 1.610 . S
N337 S336 1.613 . S
N337 C340 1.350 . S
N338 S336 1.610 . S
N338 C339 1.351 . S
C339 C333 1.428 . S
C339 N338 1.351 . S
C339 C340 1.434 . S
C340 C331 1.429 . S
C340 N337 1.350 . S
C340 C339 1.434 . S
C341 C342 1.369 . S
C341 C343 1.419 . S
C341 H345 0.930 . S
C342 C341 1.369 . S
C342 C351 1.429 . S
C343 C341 1.419 . S
C343 C344 1.363 . S
C343 H346 0.929 . S
C344 C343 1.363 . S
C344 C350 1.428 . S
H345 C341 0.930 . S
H346 C343 0.929 . S
S347 N348 1.613 . S
S347 N349 1.610 . S
N348 S347 1.613 . S
N348 C351 1.350 . S
N349 S347 1.610 . S
N349 C350 1.351 . S
C350 C344 1.428 . S
C350 N349 1.351 . S
C350 C351 1.434 . S
C351 C342 1.429 . S
C351 N348 1.350 . S
C351 C350 1.434 . S
C352 C353 1.369 . S
C352 C354 1.419 . S
C352 H356 0.930 . S
C353 C352 1.369 . S
C353 C362 1.429 . S
C354 C352 1.419 . S
C354 C355 1.363 . S
C354 H357 0.929 . S
C355 C354 1.363 . S
C355 C361 1.428 . S
H356 C352 0.930 . S
H357 C354 0.929 . S
S358 N359 1.613 . S
S358 N360 1.610 . S
N359 S358 1.613 . S
N359 C362 1.350 . S
N360 S358 1.610 . S
N360 C361 1.351 . S
C361 C355 1.428 . S
C361 N360 1.351 . S
C361 C362 1.434 . S
C362 C353 1.429 . S
C362 N359 1.350 . S
C362 C361 1.434 . S
C363 C364 1.369 . S
C363 C365 1.419 . S
C363 H367 0.930 . S
C364 C363 1.369 . S
C364 C373 1.429 . S
C365 C363 1.419 . S
C365 C366 1.363 . S
C365 H368 0.929 . S
C366 C365 1.363 . S
C366 C372 1.428 . S
H367 C363 0.930 . S
H368 C365 0.929 . S
S369 N370 1.613 . S
S369 N371 1.610 . S
N370 S369 1.613 . S
N370 C373 1.350 . S
N371 S369 1.610 . S
N371 C372 1.351 . S
C372 C366 1.428 . S
C372 N371 1.351 . S
C372 C373 1.434 . S
C373 C364 1.429 . S
C373 N370 1.350 . S
C373 C372 1.434 . S
C374 C375 1.369 . S
C374 C376 1.419 . S
C374 H378 0.930 . S
C375 C374 1.369 . S
C375 C384 1.429 . S
C376 C374 1.419 . S
C376 C377 1.363 . S
C376 H379 0.929 . S
C377 C376 1.363 . S
C377 C383 1.428 . S
H378 C374 0.930 . S
H379 C376 0.929 . S
S380 N381 1.613 . S
S380 N382 1.610 . S
N381 S380 1.613 . S
N381 C384 1.350 . S
N382 S380 1.610 . S
N382 C383 1.351 . S
C383 C377 1.428 . S
C383 N382 1.351 . S
C383 C384 1.434 . S
C384 C375 1.429 . S
C384 N381 1.350 . S
C384 C383 1.434 . S
C385 C386 1.369 . S
C385 C387 1.419 . S
C385 H389 0.930 . S
C386 C385 1.369 . S
C386 C395 1.429 . S
C387 C385 1.419 . S
C387 C388 1.363 . S
C387 H390 0.929 . S
C388 C387 1.363 . S
C388 C394 1.428 1_655 S
H389 C385 0.930 . S
H390 C387 0.929 . S
S391 N392 1.613 . S
S391 N393 1.610 . S
N392 S391 1.613 . S
N392 C395 1.350 1_455 S
N393 S391 1.610 . S
N393 C394 1.351 . S
C394 C388 1.428 1_455 S
C394 N393 1.351 . S
C394 C395 1.434 1_455 S
C395 C386 1.429 . S
C395 N392 1.350 1_655 S
C395 C394 1.434 1_655 S
C396 C397 1.369 . S
C396 C398 1.419 . S
C396 H400 0.930 . S
C397 C396 1.369 . S
C397 C406 1.429 . S
C398 C396 1.419 . S
C398 C399 1.363 . S
C398 H401 0.929 . S
C399 C398 1.363 . S
C399 C405 1.428 . S
H400 C396 0.930 . S
H401 C398 0.929 . S
S402 N403 1.613 . S
S402 N404 1.610 . S
N403 S402 1.613 . S
N403 C406 1.350 . S
N404 S402 1.610 . S
N404 C405 1.351 . S
C405 C399 1.428 . S
C405 N404 1.351 . S
C405 C406 1.434 . S
C406 C397 1.429 . S
C406 N403 1.350 . S
C406 C405 1.434 . S
C407 C408 1.369 . S
C407 C409 1.419 . S
C407 H411 0.930 . S
C408 C407 1.369 . S
C408 C417 1.429 . S
C409 C407 1.419 . S
C409 C410 1.363 . S
C409 H412 0.929 . S
C410 C409 1.363 . S
C410 C416 1.428 . S
H411 C407 0.930 . S
H412 C409 0.929 . S
S413 N414 1.613 . S
S413 N415 1.610 . S
N414 S413 1.613 . S
N414 C417 1.350 1_655 S
N415 S413 1.610 . S
N415 C416 1.351 1_655 S
C416 C410 1.428 . S
C416 N415 1.351 1_455 S
C416 C417 1.434 . S
C417 C408 1.429 . S
C417 N414 1.350 1_455 S
C417 C416 1.434 . S
C289 C257 1.697 . S
C287 C211 1.582 . S
C298 C31 1.680 . S
C300 C280 1.693 . S
C309 C91 1.680 . S
C311 C256 1.702 . S
C320 C151 1.596 . S
C322 C279 1.702 . S
C333 C260 1.707 . S
C331 C20 1.777 . S
C344 C282 1.689 . S
C342 C61 1.632 . S
C353 C121 1.633 . S
C355 C261 1.690 . S
C364 C200 1.620 . S
C366 C281 1.639 . S
C377 C284 1.685 . S
C375 C80 1.792 . S
C388 C259 1.689 . S
C386 C140 1.640 . S
C399 C283 1.709 . S
C397 C181 1.628 . S
C408 C1 1.615 . S
C410 C258 1.638 . S
