# Generated by pormake.
# Topology pyr, (3,6)-cn, num edge types: 1
# Building blocks:
#     Node 0, Type 0, BuildingBlock: BELTOD_clean_linker_0, # of connection points: 3
#     Node 1, Type 0, BuildingBlock: BELTOD_clean_linker_0, # of connection points: 3
#     Node 2, Type 0, BuildingBlock: BELTOD_clean_linker_0, # of connection points: 3
#     Node 3, Type 0, BuildingBlock: BELTOD_clean_linker_0, # of connection points: 3
#     Node 4, Type 0, BuildingBlock: BELTOD_clean_linker_0, # of connection points: 3
#     Node 5, Type 0, BuildingBlock: BELTOD_clean_linker_0, # of connection points: 3
#     Node 6, Type 0, BuildingBlock: BELTOD_clean_linker_0, # of connection points: 3
#     Node 7, Type 0, BuildingBlock: BELTOD_clean_linker_0, # of connection points: 3
#     Node 8, Type 1, BuildingBlock: INOVEN_clean_sbu_0, # of connection points: 6
#     Node 9, Type 1, BuildingBlock: INOVEN_clean_sbu_0, # of connection points: 6
#     Node 10, Type 1, BuildingBlock: INOVEN_clean_sbu_0, # of connection points: 6
#     Node 11, Type 1, BuildingBlock: INOVEN_clean_sbu_0, # of connection points: 6
#     Edge 12, Type (0, 1), BuildingBlock: UVAHIK_clean_linker_0, # of connection points: 2
#     Edge 13, Type (0, 1), BuildingBlock: UVAHIK_clean_linker_0, # of connection points: 2
#     Edge 14, Type (0, 1), BuildingBlock: UVAHIK_clean_linker_0, # of connection points: 2
#     Edge 15, Type (0, 1), BuildingBlock: UVAHIK_clean_linker_0, # of connection points: 2
#     Edge 16, Type (0, 1), BuildingBlock: UVAHIK_clean_linker_0, # of connection points: 2
#     Edge 17, Type (0, 1), BuildingBlock: UVAHIK_clean_linker_0, # of connection points: 2
#     Edge 18, Type (0, 1), BuildingBlock: UVAHIK_clean_linker_0, # of connection points: 2
#     Edge 19, Type (0, 1), BuildingBlock: UVAHIK_clean_linker_0, # of connection points: 2
#     Edge 20, Type (0, 1), BuildingBlock: UVAHIK_clean_linker_0, # of connection points: 2
#     Edge 21, Type (0, 1), BuildingBlock: UVAHIK_clean_linker_0, # of connection points: 2
#     Edge 22, Type (0, 1), BuildingBlock: UVAHIK_clean_linker_0, # of connection points: 2
#     Edge 23, Type (0, 1), BuildingBlock: UVAHIK_clean_linker_0, # of connection points: 2
#     Edge 24, Type (0, 1), BuildingBlock: UVAHIK_clean_linker_0, # of connection points: 2
#     Edge 25, Type (0, 1), BuildingBlock: UVAHIK_clean_linker_0, # of connection points: 2
#     Edge 26, Type (0, 1), BuildingBlock: UVAHIK_clean_linker_0, # of connection points: 2
#     Edge 27, Type (0, 1), BuildingBlock: UVAHIK_clean_linker_0, # of connection points: 2
#     Edge 28, Type (0, 1), BuildingBlock: UVAHIK_clean_linker_0, # of connection points: 2
#     Edge 29, Type (0, 1), BuildingBlock: UVAHIK_clean_linker_0, # of connection points: 2
#     Edge 30, Type (0, 1), BuildingBlock: UVAHIK_clean_linker_0, # of connection points: 2
#     Edge 31, Type (0, 1), BuildingBlock: UVAHIK_clean_linker_0, # of connection points: 2
#     Edge 32, Type (0, 1), BuildingBlock: UVAHIK_clean_linker_0, # of connection points: 2
#     Edge 33, Type (0, 1), BuildingBlock: UVAHIK_clean_linker_0, # of connection points: 2
#     Edge 34, Type (0, 1), BuildingBlock: UVAHIK_clean_linker_0, # of connection points: 2
#     Edge 35, Type (0, 1), BuildingBlock: UVAHIK_clean_linker_0, # of connection points: 2
# Relax obj value: 0.076
# Max RMSD: 0.123
# Mean RMSD: 0.056
data_MOF--net-pyr--node1-INOVEN_clean_sbu_0--node2-BELTOD_clean_linker_0--edge1-UVAHIK_clean_linker_0
_symmetry_space_group_name_H-M    P1
_symmetry_Int_Tables_number       1
_symmetry_cell_setting            triclinic
loop_
_symmetry_equiv_pos_as_xyz
'x, y, z'
_cell_length_a     55.38531
_cell_length_b     57.701453
_cell_length_c     50.031875
_cell_angle_alpha  90.607267
_cell_angle_beta   88.600519
_cell_angle_gamma 99.865
loop_
_atom_site_label
_atom_site_type_symbol
_atom_site_fract_x
_atom_site_fract_y
_atom_site_fract_z
_atom_type_partial_charge
P0 P 0.31951 0.29209 0.25193 0.0
H1 H 0.37071 0.28614 0.24441 0.0
H2 H 0.38978 0.25497 0.22414 0.0
H3 H 0.31837 0.21839 0.20123 0.0
H4 H 0.29944 0.24903 0.22292 0.0
H5 H 0.3049 0.33764 0.25941 0.0
H6 H 0.27885 0.35881 0.23361 0.0
H7 H 0.27748 0.30738 0.17008 0.0
H8 H 0.3037 0.28643 0.19582 0.0
H9 H 0.31813 0.276 0.30739 0.0
H10 H 0.26733 0.27545 0.24329 0.0
O11 O 0.34014 0.30913 0.27053 0.0
H12 H 0.28472 0.25633 0.33653 0.0
H13 H 0.23418 0.25576 0.27197 0.0
C14 C 0.33366 0.2699 0.23519 0.0
C15 C 0.35917 0.27141 0.23503 0.0
C16 C 0.37008 0.25359 0.2232 0.0
C17 C 0.35567 0.23403 0.21098 0.0
C18 C 0.33007 0.23288 0.21085 0.0
C19 C 0.31919 0.25054 0.22303 0.0
C20 C 0.30641 0.31054 0.22954 0.0
C21 C 0.29969 0.33136 0.23955 0.0
C22 C 0.28475 0.34343 0.2248 0.0
C23 C 0.27599 0.33464 0.19991 0.0
C24 C 0.28379 0.31442 0.18932 0.0
C25 C 0.29892 0.30248 0.20401 0.0
C26 C 0.2951 0.2777 0.27341 0.0
C27 C 0.2998 0.27177 0.29965 0.0
C28 C 0.28075 0.26042 0.31619 0.0
C29 C 0.25675 0.25477 0.30664 0.0
C30 C 0.25232 0.26037 0.28014 0.0
C31 C 0.27133 0.27161 0.26367 0.0
P32 P 0.32464 0.90702 0.58625 0.0
H33 H 0.36737 0.92218 0.61945 0.0
H34 H 0.37306 0.9216 0.66783 0.0
H35 H 0.2968 0.89053 0.67914 0.0
H36 H 0.29122 0.89153 0.63099 0.0
H37 H 0.36291 0.88984 0.55416 0.0
H38 H 0.37113 0.85018 0.54517 0.0
H39 H 0.30321 0.821 0.58598 0.0
H40 H 0.29533 0.86072 0.59524 0.0
H41 H 0.29842 0.94308 0.60673 0.0
H42 H 0.28529 0.88531 0.55056 0.0
O43 O 0.3456 0.92749 0.57163 0.0
H44 H 0.25701 0.95087 0.60034 0.0
H45 H 0.24356 0.89245 0.54475 0.0
C46 C 0.32875 0.90752 0.62177 0.0
C47 C 0.35187 0.91548 0.63242 0.0
C48 C 0.35513 0.9149 0.66002 0.0
C49 C 0.33533 0.90615 0.67732 0.0
C50 C 0.3123 0.89777 0.66641 0.0
C51 C 0.3091 0.89833 0.63888 0.0
C52 C 0.32845 0.87816 0.57519 0.0
C53 C 0.34954 0.8749 0.56065 0.0
C54 C 0.35417 0.85222 0.55544 0.0
C55 C 0.33783 0.83249 0.56495 0.0
C56 C 0.31624 0.83587 0.57863 0.0
C57 C 0.31166 0.85854 0.58381 0.0
C58 C 0.29469 0.91329 0.57964 0.0
C59 C 0.28655 0.932 0.59311 0.0
C60 C 0.26282 0.9363 0.58961 0.0
C61 C 0.24683 0.92202 0.57239 0.0
C62 C 0.25541 0.90377 0.55816 0.0
C63 C 0.27922 0.89955 0.56164 0.0
P64 P 0.67027 0.32987 0.84066 0.0
H65 H 0.71616 0.31878 0.85928 0.0
H66 H 0.74951 0.3404 0.88508 0.0
H67 H 0.70866 0.3974 0.89612 0.0
H68 H 0.67545 0.37565 0.86949 0.0
H69 H 0.65362 0.28024 0.82793 0.0
H70 H 0.63089 0.24736 0.85321 0.0
H71 H 0.62174 0.29426 0.9191 0.0
H72 H 0.64481 0.32738 0.89348 0.0
H73 H 0.68572 0.37335 0.81125 0.0
H74 H 0.61775 0.32694 0.82886 0.0
O75 O 0.68544 0.31736 0.81685 0.0
H76 H 0.66489 0.39516 0.78027 0.0
H77 H 0.59646 0.34909 0.79843 0.0
C78 C 0.69351 0.34575 0.86201 0.0
C79 C 0.71433 0.33591 0.86729 0.0
C80 C 0.73337 0.34829 0.88231 0.0
C81 C 0.73199 0.3708 0.89273 0.0
C82 C 0.71064 0.38032 0.88807 0.0
C83 C 0.69153 0.36785 0.87295 0.0
C84 C 0.65127 0.30627 0.85894 0.0
C85 C 0.64676 0.28357 0.8478 0.0
C86 C 0.6338 0.26469 0.86235 0.0
C87 C 0.62476 0.26805 0.88837 0.0
C88 C 0.62845 0.29104 0.89913 0.0
C89 C 0.64167 0.30998 0.88455 0.0
C90 C 0.65327 0.34878 0.82287 0.0
C91 C 0.66611 0.36829 0.80908 0.0
C92 C 0.6541 0.38078 0.79127 0.0
C93 C 0.62887 0.37398 0.78663 0.0
C94 C 0.61592 0.35473 0.80111 0.0
C95 C 0.62803 0.34219 0.81888 0.0
P96 P 0.81198 0.69289 0.32866 0.0
H97 H 0.80664 0.74221 0.32912 0.0
H98 H 0.82607 0.77659 0.35378 0.0
H99 H 0.86984 0.73375 0.39511 0.0
H100 H 0.8504 0.6991 0.36961 0.0
H101 H 0.80202 0.64506 0.30777 0.0
H102 H 0.82581 0.62261 0.27873 0.0
H103 H 0.88886 0.67766 0.28546 0.0
H104 H 0.86481 0.70024 0.31431 0.0
H105 H 0.75879 0.69011 0.32911 0.0
H106 H 0.81141 0.66031 0.37384 0.0
O107 O 0.79902 0.70327 0.30257 0.0
H108 H 0.72547 0.66812 0.35588 0.0
H109 H 0.77781 0.63795 0.40096 0.0
C110 C 0.82736 0.7181 0.34711 0.0
C111 C 0.82054 0.74011 0.3433 0.0
C112 C 0.83154 0.75983 0.35769 0.0
C113 C 0.84952 0.75805 0.37659 0.0
C114 C 0.85627 0.73586 0.38052 0.0
C115 C 0.84514 0.71602 0.36603 0.0
C116 C 0.83175 0.67409 0.31388 0.0
C117 C 0.82118 0.65202 0.3037 0.0
C118 C 0.83472 0.63931 0.28681 0.0
C119 C 0.85921 0.64839 0.27966 0.0
C120 C 0.87012 0.67007 0.29079 0.0
C121 C 0.85641 0.68294 0.30746 0.0
C122 C 0.78763 0.67661 0.34918 0.0
C123 C 0.76322 0.67871 0.34462 0.0
C124 C 0.74408 0.66601 0.35993 0.0
C125 C 0.74887 0.65102 0.38041 0.0
C126 C 0.77346 0.64936 0.38539 0.0
C127 C 0.79268 0.66204 0.36986 0.0
P128 P 0.7108 0.7985 0.88217 0.0
H129 H 0.69013 0.79987 0.93564 0.0
H130 H 0.65315 0.81282 0.95304 0.0
H131 H 0.62836 0.81757 0.87231 0.0
H132 H 0.66445 0.80282 0.85528 0.0
H133 H 0.75924 0.78668 0.8855 0.0
H134 H 0.7748 0.75333 0.90412 0.0
H135 H 0.70101 0.72099 0.92648 0.0
H136 H 0.68535 0.75431 0.90708 0.0
H137 H 0.70074 0.83331 0.84423 0.0
H138 H 0.73131 0.7694 0.84137 0.0
O139 O 0.72925 0.82177 0.89471 0.0
H140 H 0.71256 0.84068 0.79765 0.0
H141 H 0.74592 0.77804 0.79601 0.0
C142 C 0.68042 0.80103 0.89416 0.0
C143 C 0.67635 0.80298 0.92175 0.0
C144 C 0.65529 0.81066 0.93163 0.0
C145 C 0.63816 0.81707 0.91404 0.0
C146 C 0.64121 0.81298 0.88648 0.0
C147 C 0.66212 0.80482 0.87664 0.0
C148 C 0.7212 0.77302 0.89506 0.0
C149 C 0.74636 0.77234 0.89421 0.0
C150 C 0.75522 0.75324 0.90472 0.0
C151 C 0.73908 0.7346 0.91666 0.0
C152 C 0.7138 0.73521 0.91744 0.0
C153 C 0.70487 0.75422 0.90639 0.0
C154 C 0.71495 0.80074 0.84638 0.0
C155 C 0.70969 0.82064 0.83345 0.0
C156 C 0.71699 0.82509 0.80684 0.0
C157 C 0.73091 0.81037 0.79293 0.0
C158 C 0.73511 0.78979 0.80567 0.0
C159 C 0.72697 0.78493 0.832 0.0
P160 P 0.795 0.2665 0.38892 0.0
H161 H 0.77817 0.31128 0.39554 0.0
H162 H 0.75363 0.32676 0.43041 0.0
H163 H 0.75368 0.26426 0.4773 0.0
H164 H 0.77781 0.2487 0.44202 0.0
H165 H 0.78951 0.21503 0.38303 0.0
H166 H 0.8111 0.18623 0.4024 0.0
H167 H 0.85957 0.24201 0.4421 0.0
H168 H 0.83757 0.27099 0.42271 0.0
H169 H 0.79687 0.25655 0.33169 0.0
H170 H 0.74343 0.24475 0.39643 0.0
O171 O 0.81422 0.28769 0.37315 0.0
H172 H 0.76748 0.23374 0.30164 0.0
H173 H 0.71385 0.22252 0.3665 0.0
C174 C 0.78018 0.27911 0.41643 0.0
C175 C 0.77333 0.30116 0.41358 0.0
C176 C 0.75938 0.31 0.4336 0.0
C177 C 0.75185 0.2968 0.45674 0.0
C178 C 0.75914 0.27482 0.4597 0.0
C179 C 0.77312 0.26601 0.43964 0.0
C180 C 0.81211 0.24523 0.40124 0.0
C181 C 0.80493 0.22122 0.3956 0.0
C182 C 0.81736 0.2047 0.40665 0.0
C183 C 0.83709 0.21186 0.42368 0.0
C184 C 0.84433 0.23597 0.42917 0.0
C185 C 0.83193 0.25253 0.41798 0.0
C186 C 0.77219 0.25276 0.36611 0.0
C187 C 0.77863 0.24953 0.33926 0.0
C188 C 0.76179 0.23651 0.32212 0.0
C189 C 0.7383 0.22632 0.33168 0.0
C190 C 0.73186 0.22993 0.35857 0.0
C191 C 0.7487 0.2429 0.37566 0.0
P192 P 0.3524 0.68284 0.19723 0.0
H193 H 0.3353 0.64485 0.15952 0.0
H194 H 0.29498 0.62696 0.14418 0.0
H195 H 0.26158 0.67276 0.19693 0.0
H196 H 0.30245 0.69088 0.21216 0.0
H197 H 0.39233 0.71876 0.21633 0.0
H198 H 0.40469 0.76052 0.2063 0.0
H199 H 0.33902 0.7587 0.16096 0.0
H200 H 0.32702 0.71698 0.17072 0.0
H201 H 0.35717 0.63553 0.21195 0.0
H202 H 0.36101 0.70229 0.25246 0.0
O203 O 0.37242 0.67438 0.1753 0.0
H204 H 0.36885 0.61791 0.25273 0.0
H205 H 0.37296 0.68475 0.29358 0.0
C206 C 0.32201 0.66957 0.18665 0.0
C207 C 0.31939 0.65118 0.16781 0.0
C208 C 0.29619 0.64077 0.15917 0.0
C209 C 0.27492 0.64839 0.16924 0.0
C210 C 0.27756 0.66664 0.18848 0.0
C211 C 0.30089 0.67697 0.19728 0.0
C212 C 0.3582 0.71473 0.19527 0.0
C213 C 0.38012 0.72752 0.20505 0.0
C214 C 0.38727 0.75146 0.19913 0.0
C215 C 0.37289 0.76313 0.18277 0.0
C216 C 0.35069 0.75035 0.17343 0.0
C217 C 0.34356 0.72643 0.17943 0.0
C218 C 0.35856 0.67032 0.22893 0.0
C219 C 0.36036 0.64639 0.22973 0.0
C220 C 0.36697 0.63629 0.25317 0.0
C221 C 0.37201 0.64989 0.27652 0.0
C222 C 0.36957 0.67382 0.27588 0.0
C223 C 0.3627 0.68389 0.25236 0.0
P224 P 0.16808 0.33758 0.73229 0.0
H225 H 0.18184 0.29333 0.71522 0.0
H226 H 0.16092 0.25915 0.69093 0.0
H227 H 0.09816 0.29359 0.68231 0.0
H228 H 0.1193 0.32779 0.70713 0.0
H229 H 0.21086 0.37212 0.74598 0.0
H230 H 0.24506 0.39372 0.71959 0.0
H231 H 0.21263 0.36221 0.6474 0.0
H232 H 0.17814 0.34099 0.67387 0.0
H233 H 0.12325 0.32479 0.76463 0.0
H234 H 0.16976 0.38886 0.7394 0.0
O235 O 0.18245 0.326 0.75642 0.0
H236 H 0.10036 0.34738 0.79445 0.0
H237 H 0.14806 0.41139 0.7701 0.0
C238 C 0.15199 0.31294 0.71345 0.0
C239 C 0.16355 0.29353 0.70817 0.0
C240 C 0.1516 0.27402 0.69403 0.0
C241 C 0.12776 0.27348 0.68463 0.0
C242 C 0.11634 0.29321 0.68958 0.0
C243 C 0.12843 0.31283 0.70371 0.0
C244 C 0.19189 0.35495 0.71197 0.0
C245 C 0.21091 0.3701 0.72443 0.0
C246 C 0.23045 0.38247 0.70933 0.0
C247 C 0.23159 0.37963 0.68141 0.0
C248 C 0.21235 0.36462 0.6689 0.0
C249 C 0.19257 0.35254 0.68403 0.0
C250 C 0.14813 0.35502 0.74947 0.0
C251 C 0.12831 0.34377 0.76515 0.0
C252 C 0.11546 0.35675 0.78258 0.0
C253 C 0.12243 0.38133 0.78514 0.0
C254 C 0.14183 0.39259 0.76864 0.0
C255 C 0.15447 0.3796 0.75102 0.0
Gd256 Gd 0.98978 0.02753 0.50376 0.0
Gd257 Gd 0.98051 1.0058 0.55857 0.0
C258 C 0.01072 0.05743 0.55706 0.0
C259 C 0.99454 0.05546 0.46322 0.0
C260 C 0.01369 0.07502 0.45495 0.0
C261 C 0.03412 0.08196 0.47099 0.0
C262 C 0.01227 0.08612 0.43044 0.0
C263 C 0.05219 0.11035 0.43746 0.0
C264 C 0.03136 0.10369 0.42174 0.0
C265 C 0.0532 0.0995 0.46234 0.0
C266 C 0.02387 1.00251 0.51907 0.0
C267 C 0.96012 0.97565 0.50527 0.0
C268 C 0.97442 0.97756 0.59869 0.0
C269 C 0.9539 0.95882 0.60572 0.0
C270 C 0.93129 0.95798 0.59337 0.0
C271 C 0.95651 0.94198 0.62492 0.0
C272 C 0.91347 0.92463 0.62076 0.0
C273 C 0.93641 0.92488 0.63233 0.0
C274 C 0.9112 0.94113 0.60094 0.0
C275 C 0.94647 0.03076 0.54256 0.0
O276 O 0.0031 0.05791 0.53219 0.0
O277 O 0.00766 0.03751 0.57056 0.0
O278 O 0.00116 0.03478 0.46261 0.0
O279 O 0.98202 0.05902 0.48495 0.0
O280 O 0.01734 1.0039 0.49456 0.0
O281 O 0.01378 1.01595 0.53388 0.0
O282 O 0.96749 0.97532 0.53024 0.0
O283 O 0.96313 0.9955 0.49168 0.0
O284 O 0.96931 0.99886 0.59979 0.0
O285 O 0.98709 0.97373 0.57716 0.0
O286 O 0.95317 0.03012 0.5671 0.0
O287 O 0.95675 1.01707 0.52841 0.0
H288 H 0.03551 0.0735 0.49 0.0
H289 H -0.00336 0.08086 0.4178 0.0
H290 H 0.03016 0.11153 0.40235 0.0
H291 H 0.06883 0.10444 0.47505 0.0
H292 H 0.92906 0.9707 0.57822 0.0
H293 H 0.9739 0.94232 0.63449 0.0
H294 H 0.93856 0.91242 0.64776 0.0
H295 H 0.89378 0.94115 0.59156 0.0
Gd296 Gd 0.5111 0.0287 0.06074 0.0
Gd297 Gd 0.46337 1.01856 1.03239 0.0
C298 C 0.46679 0.05235 0.08277 0.0
C299 C 0.5555 0.04235 0.07613 0.0
C300 C 0.56773 0.05335 0.09982 0.0
C301 C 0.55416 0.05799 0.12269 0.0
C302 C 0.5932 0.06032 0.09906 0.0
C303 C 0.5916 0.0772 0.14373 0.0
C304 C 0.60506 0.07215 0.12081 0.0
C305 C 0.56602 0.06981 0.14452 0.0
C306 C 0.47724 0.99488 0.08425 0.0
C307 C 0.50739 0.99266 1.01078 0.0
C308 C 0.42319 1.00167 1.00877 0.0
C309 C 0.41441 0.98232 0.99018 0.0
C310 C 0.42963 0.97646 0.96923 0.0
C311 C 0.38989 0.97117 0.99172 0.0
C312 C 0.39495 0.95097 0.94945 0.0
C313 C 0.38025 0.9555 0.97162 0.0
C314 C 0.41998 0.96103 0.94901 0.0
C315 C 0.49186 0.06038 1.01986 0.0
O316 O 0.49075 0.05581 0.07851 0.0
O317 O 0.45225 0.03505 0.07068 0.0
O318 O 0.54382 0.02076 0.07888 0.0
O319 O 0.54329 0.05568 0.06268 0.0
O320 O 0.4921 1.01052 0.09744 0.0
O321 O 0.48151 0.99764 0.05954 0.0
O322 O 0.48407 0.99451 1.00874 0.0
O323 O 0.52164 1.00505 1.02841 0.0
O324 O 0.43973 1.01856 0.99895 0.0
O325 O 0.42754 0.99605 0.03329 0.0
O326 O 0.46832 0.05752 1.02361 0.0
O327 O 0.4991 0.04101 1.02258 0.0
H328 H 0.53441 0.05274 0.12348 0.0
H329 H 0.60387 0.05701 0.08142 0.0
H330 H 0.62471 0.07792 0.11936 0.0
H331 H 0.55517 0.07322 0.16196 0.0
H332 H 0.44869 0.98476 0.96769 0.0
H333 H 0.37792 0.97532 1.00788 0.0
H334 H 0.36104 0.94766 0.97293 0.0
H335 H 0.43187 0.95823 0.93223 0.0
Gd336 Gd 0.49908 0.49369 0.51615 0.0
Gd337 Gd 0.48996 0.52992 0.55563 0.0
C338 C 0.51706 0.4905 0.57764 0.0
C339 C 0.51878 0.46409 0.48768 0.0
C340 C 0.53436 0.44691 0.4945 0.0
C341 C 0.53067 0.43439 0.51864 0.0
C342 C 0.55443 0.44448 0.4778 0.0
C343 C 0.56743 0.41772 0.50953 0.0
C344 C 0.57087 0.43004 0.48526 0.0
C345 C 0.54701 0.41975 0.526 0.0
C346 C 0.45446 0.48474 0.54051 0.0
C347 C 0.4725 0.5335 0.49352 0.0
C348 C 0.47062 0.55864 0.58599 0.0
C349 C 0.45905 0.57937 0.58201 0.0
C350 C 0.4636 0.5983 0.59996 0.0
C351 C 0.44393 0.58071 0.56017 0.0
C352 C 0.43833 0.61998 0.57405 0.0
C353 C 0.43371 0.60086 0.55617 0.0
C354 C 0.45329 0.61842 0.59608 0.0
C355 C 0.53453 0.5392 0.5307 0.0
O356 O 0.52076 0.48559 0.55211 0.0
O357 O 0.50248 0.50545 0.58463 0.0
O358 O 0.49604 0.45974 0.4965 0.0
O359 O 0.52896 0.48612 0.49067 0.0
O360 O 0.45826 0.481 0.51526 0.0
O361 O 0.47442 0.49243 0.55175 0.0
O362 O 0.47004 0.53971 0.51894 0.0
O363 O 0.48551 0.51713 0.48669 0.0
O364 O 0.49411 0.56138 0.58036 0.0
O365 O 0.45854 0.53851 0.57754 0.0
O366 O 0.53082 0.54342 0.55586 0.0
O367 O 0.51447 0.5312 0.51994 0.0
H368 H 0.51549 0.4363 0.53208 0.0
H369 H 0.55766 0.45414 0.45923 0.0
H370 H 0.58634 0.42854 0.47207 0.0
H371 H 0.54408 0.41056 0.54489 0.0
H372 H 0.47517 0.59753 0.61697 0.0
H373 H 0.44007 0.56621 0.54617 0.0
H374 H 0.42248 0.60157 0.53887 0.0
H375 H 0.45687 0.63266 0.61048 0.0
Gd376 Gd 0.00261 0.49209 0.04964 0.0
Gd377 Gd 0.99284 0.54056 1.02565 0.0
C378 C 0.04394 0.53826 0.05611 0.0
C379 C 0.01218 0.45072 0.05906 0.0
C380 C 0.03119 0.44128 0.07335 0.0
C381 C 0.04322 0.45347 0.09501 0.0
C382 C 0.03906 0.42096 0.06346 0.0
C383 C 0.07143 0.42547 0.09606 0.0
C384 C 0.05904 0.41313 0.07467 0.0
C385 C 0.06309 0.4455 0.10643 0.0
C386 C 0.98383 0.52157 0.08348 0.0
C387 C 0.95279 0.49342 1.01588 0.0
C388 C 0.97697 0.57978 1.0218 0.0
C389 C 0.95272 0.5871 1.02204 0.0
C390 C 0.93385 0.57557 1.00596 0.0
C391 C 0.94862 0.60641 0.03768 0.0
C392 C 0.90782 0.60386 1.01942 0.0
C393 C 0.92636 0.61466 0.03649 0.0
C394 C 0.91171 0.58394 1.00455 0.0
C395 C 0.01887 0.51767 0.99002 0.0
O396 O 0.03938 0.51495 0.05496 0.0
O397 O 0.02789 0.55143 0.04849 0.0
O398 O -0.0036 0.46033 0.07349 0.0
O399 O 0.02013 0.46285 0.03775 0.0
O400 O -0.00061 0.50839 0.09054 0.0
O401 O 0.97821 0.51766 0.05935 0.0
O402 O 0.9577 0.51672 1.01525 0.0
O403 O 0.96776 0.48056 1.02662 0.0
O404 O 0.98222 0.56735 1.00105 0.0
O405 O 0.98415 0.57233 0.04449 0.0
O406 O 0.01312 0.53814 0.9855 0.0
O407 O 0.01118 0.51176 1.01319 0.0
H408 H 0.03767 0.46946 0.10262 0.0
H409 H 0.03014 0.41147 0.04659 0.0
H410 H 0.06494 0.39752 0.06647 0.0
H411 H 0.07244 0.45545 0.12275 0.0
H412 H 0.93639 0.56046 0.99386 0.0
H413 H 0.96284 0.61539 0.05044 0.0
H414 H 0.92383 0.62973 0.04865 0.0
H415 H 0.89806 0.57529 0.99095 0.0
C416 C 0.23947 0.22383 0.34013 0.0
C417 C 0.23633 0.24278 0.32392 0.0
C418 C 0.21967 0.21152 0.35488 0.0
C419 C 0.15232 0.19829 0.35484 0.0
H420 H 0.1589 0.17498 0.42623 0.0
C421 C 0.06942 0.14806 0.41397 0.0
C422 C 0.07325 0.12778 0.42739 0.0
C423 C 0.08926 0.1638 0.40336 0.0
C424 C 0.15682 0.18124 0.40622 0.0
H425 H 0.2103 0.26446 0.31155 0.0
H426 H 0.17581 0.24304 0.33727 0.0
H427 H 0.19392 0.19948 0.40419 0.0
H428 H 0.10093 0.10815 0.44026 0.0
H429 H 0.13548 0.13552 0.42169 0.0
H430 H 0.11542 0.17981 0.3566 0.0
C431 C 0.19343 0.23737 0.33818 0.0
C432 C 0.17688 0.19527 0.39361 0.0
C433 C 0.21318 0.24964 0.32345 0.0
C434 C 0.09738 0.1238 0.43038 0.0
C435 C 0.1172 0.1395 0.41975 0.0
C436 C 0.13231 0.18427 0.36741 0.0
C437 C 0.19634 0.21794 0.35373 0.0
C438 C 0.17488 0.20383 0.36771 0.0
C439 C 0.11336 0.15956 0.40588 0.0
C440 C 0.13435 0.17545 0.39318 0.0
H441 H 0.25702 0.21799 0.34072 0.0
H442 H 0.22245 0.19648 0.36645 0.0
H443 H 0.15029 0.20427 0.33469 0.0
H444 H 0.05107 0.15179 0.41167 0.0
H445 H 0.08571 0.17929 0.39315 0.0
C446 C 0.32067 0.91321 0.72396 0.0
C447 C 0.33848 0.90617 0.70668 0.0
C448 C 0.32392 0.91408 0.75154 0.0
C449 C 0.35872 0.89349 0.80595 0.0
H450 H 0.34697 0.95073 0.84134 0.0
C451 C 0.39718 0.92476 0.90917 0.0
C452 C 0.38385 0.9384 0.9254 0.0
C453 C 0.38868 0.91683 0.88404 0.0
C454 C 0.34986 0.93438 0.832 0.0
H455 H 0.3733 0.89377 0.70483 0.0
H456 H 0.37918 0.89565 0.75311 0.0
H457 H 0.33797 0.94473 0.79433 0.0
H458 H 0.35013 0.95283 0.92854 0.0
H459 H 0.3349 0.9381 0.88551 0.0
H460 H 0.37093 0.88332 0.84371 0.0
C461 C 0.36262 0.90033 0.74527 0.0
C462 C 0.34477 0.931 0.80496 0.0
C463 C 0.3594 0.89954 0.71763 0.0
C464 C 0.3609 0.94229 0.91678 0.0
C465 C 0.35231 0.93416 0.89182 0.0
C466 C 0.36372 0.89683 0.83314 0.0
C467 C 0.34505 0.9079 0.76248 0.0
C468 C 0.34933 0.91064 0.79157 0.0
C469 C 0.36655 0.92219 0.8747 0.0
C470 C 0.35952 0.91743 0.84642 0.0
H471 H 0.30444 0.9186 0.71614 0.0
H472 H 0.30996 0.91979 0.76432 0.0
H473 H 0.36219 0.87751 0.79618 0.0
H474 H 0.41468 0.92099 0.9154 0.0
H475 H 0.40014 0.90765 0.8714 0.0
C476 C 0.62329 0.41058 0.76162 0.0
C477 C 0.61654 0.38621 0.7659 0.0
C478 C 0.61264 0.42179 0.74136 0.0
C479 C 0.57773 0.40957 0.67825 0.0
H480 H 0.56536 0.4731 0.68926 0.0
C481 C 0.54569 0.46358 0.59229 0.0
C482 C 0.52883 0.47856 0.59883 0.0
C483 C 0.55657 0.45235 0.61241 0.0
C484 C 0.56845 0.45528 0.68583 0.0
H485 H 0.59301 0.35469 0.75179 0.0
H486 H 0.57391 0.3743 0.71727 0.0
H487 H 0.58279 0.45344 0.72494 0.0
H488 H 0.51007 0.49314 0.63187 0.0
H489 H 0.52855 0.47338 0.66666 0.0
H490 H 0.56267 0.41117 0.6394 0.0
C491 C 0.58781 0.38474 0.72928 0.0
C492 C 0.57882 0.44406 0.70628 0.0
C493 C 0.59853 0.3735 0.74947 0.0
C494 C 0.52309 0.4819 0.626 0.0
C495 C 0.53386 0.47062 0.64606 0.0
C496 C 0.56726 0.42076 0.65782 0.0
C497 C 0.59479 0.40904 0.72477 0.0
C498 C 0.58363 0.42101 0.70285 0.0
C499 C 0.55084 0.45571 0.63964 0.0
C500 C 0.56239 0.44379 0.66129 0.0
H501 H 0.63684 0.4211 0.77395 0.0
H502 H 0.61877 0.44046 0.73845 0.0
H503 H 0.58142 0.39197 0.67459 0.0
H504 H 0.55063 0.46062 0.57162 0.0
H505 H 0.56975 0.44128 0.60657 0.0
C506 C 0.89687 0.63279 0.26315 0.0
C507 C 0.87263 0.63604 0.25927 0.0
C508 C 0.90927 0.62117 0.24377 0.0
C509 C 0.89811 0.58228 0.18301 0.0
H510 H 0.96843 0.59968 0.17257 0.0
C511 C 0.95122 0.54571 0.09505 0.0
C512 C 0.97226 0.53682 0.10215 0.0
C513 C 0.93951 0.55882 0.1135 0.0
C514 C 0.94879 0.59457 0.17532 0.0
H515 H 0.84272 0.63032 0.23154 0.0
H516 H 0.86438 0.61089 0.19754 0.0
H517 H 0.94724 0.62045 0.20599 0.0
H518 H -0.00207 0.53528 0.1338 0.0
H519 H 0.97774 0.55844 0.16581 0.0
H520 H 0.89974 0.55673 0.15186 0.0
C521 C 0.8737 0.61644 0.21589 0.0
C522 C 0.93659 0.60638 0.19465 0.0
C523 C 0.86123 0.62771 0.2354 0.0
C524 C 0.98172 0.54186 0.12777 0.0
C525 C 0.97022 0.55522 0.14607 0.0
C526 C 0.91027 0.57072 0.16345 0.0
C527 C 0.89789 0.61282 0.21977 0.0
C528 C 0.91103 0.60036 0.19893 0.0
C529 C 0.94877 0.5636 0.13932 0.0
C530 C 0.93578 0.57662 0.15944 0.0
H531 H 0.90611 0.63888 0.28139 0.0
H532 H 0.92767 0.61846 0.24788 0.0
H533 H 0.87856 0.57665 0.18592 0.0
H534 H 0.94353 0.54215 0.07543 0.0
H535 H 0.92317 0.56523 0.10758 0.0
C536 C 0.35543 0.19125 0.20005 0.0
C537 C 0.36725 0.21484 0.19868 0.0
C538 C 0.36622 0.17328 0.18842 0.0
C539 C 0.41484 0.16318 0.13903 0.0
H540 H 0.40621 0.1018 0.17231 0.0
C541 C 0.46993 0.09163 0.10515 0.0
C542 C 0.45595 0.06954 0.09926 0.0
C543 C 0.45923 0.10884 0.11846 0.0
C544 C 0.40864 0.11884 0.16277 0.0
H545 H 0.39984 0.23785 0.18373 0.0
H546 H 0.41915 0.20653 0.16476 0.0
H547 H 0.38763 0.1331 0.19325 0.0
H548 H 0.42002 0.04786 0.10364 0.0
H549 H 0.40144 0.07792 0.12749 0.0
H550 H 0.43641 0.14896 0.10896 0.0
C551 C 0.40121 0.20191 0.17424 0.0
C552 C 0.39791 0.13677 0.17465 0.0
C553 C 0.39027 0.21991 0.18554 0.0
C554 C 0.43125 0.06473 0.10784 0.0
C555 C 0.42064 0.08187 0.12155 0.0
C556 C 0.42585 0.14537 0.12742 0.0
C557 C 0.38929 0.17834 0.17539 0.0
C558 C 0.40082 0.15919 0.1629 0.0
C559 C 0.43443 0.10423 0.12652 0.0
C560 C 0.42283 0.12304 0.13914 0.0
H561 H 0.33788 0.18654 0.21034 0.0
H562 H 0.35629 0.15543 0.18944 0.0
H563 H 0.41707 0.17998 0.12902 0.0
H564 H 0.48899 0.09595 0.09877 0.0
H565 H 0.47032 0.12587 0.12228 0.0
C566 C 0.20775 0.93218 0.59174 0.0
C567 C 0.22136 0.92623 0.56938 0.0
C568 C 0.18419 0.9372 0.58881 0.0
C569 C 0.13212 0.93023 0.54319 0.0
H570 H 0.11896 0.98791 0.5765 0.0
C571 C 0.05597 0.97831 0.5084 0.0
C572 C 0.04351 0.99015 0.52744 0.0
C573 C 0.07554 0.96767 0.51589 0.0
C574 C 0.12209 0.97151 0.56748 0.0
H575 H 0.22071 0.92048 0.52646 0.0
H576 H 0.17948 0.92909 0.52139 0.0
H577 H 0.15718 0.97423 0.5853 0.0
H578 H 0.04088 0.99943 0.56936 0.0
H579 H 0.07496 0.98052 0.58262 0.0
H580 H 0.09716 0.92766 0.52507 0.0
C581 C 0.187 0.92967 0.54122 0.0
C582 C 0.14403 0.9637 0.57249 0.0
C583 C 0.21062 0.92476 0.54412 0.0
C584 C 0.05038 0.99057 0.55427 0.0
C585 C 0.06992 0.97983 0.56181 0.0
C586 C 0.1101 0.93797 0.53828 0.0
C587 C 0.17369 0.93623 0.56348 0.0
C588 C 0.14946 0.94322 0.56001 0.0
C589 C 0.08295 0.96855 0.54261 0.0
C590 C 0.10506 0.95894 0.54998 0.0
H591 H 0.21531 0.93298 0.61156 0.0
H592 H 0.1742 0.94189 0.60637 0.0
H593 H 0.13568 0.91418 0.53363 0.0
H594 H 0.05098 0.97772 0.48757 0.0
H595 H 0.08537 0.95944 0.50053 0.0
C596 C 0.7601 0.40877 0.90431 0.0
C597 C 0.75305 0.38433 0.90768 0.0
C598 C 0.78077 0.42112 0.91703 0.0
C599 C 0.82445 0.41632 0.97186 0.0
H600 H 0.86651 0.46581 0.93275 0.0
C601 C 0.92208 0.45675 1.00657 0.0
C602 C 0.92937 0.48126 1.00429 0.0
C603 C 0.90011 0.44538 0.99553 0.0
C604 C 0.85485 0.45221 0.9441 0.0
H605 H 0.76201 0.35403 0.92811 0.0
H606 H 0.79822 0.37528 0.9495 0.0
H607 H 0.82908 0.44546 0.91256 0.0
H608 H 0.91897 0.51294 0.98846 0.0
H609 H 0.88084 0.49312 0.96925 0.0
H610 H 0.85052 0.42287 1.00321 0.0
C611 C 0.78768 0.38506 0.93725 0.0
C612 C 0.83328 0.44053 0.93253 0.0
C613 C 0.767 0.37274 0.92463 0.0
C614 C 0.91406 0.49405 0.99065 0.0
C615 C 0.89219 0.48266 0.97946 0.0
C616 C 0.8461 0.4279 0.98336 0.0
C617 C 0.79504 0.40941 0.93348 0.0
C618 C 0.81776 0.42235 0.94619 0.0
C619 C 0.8849 0.45816 0.98173 0.0
C620 C 0.86164 0.44598 0.96961 0.0
H621 H 0.75003 0.41834 0.89128 0.0
H622 H 0.78555 0.4399 0.9139 0.0
H623 H 0.81285 0.40275 0.98328 0.0
H624 H 0.93333 0.44627 1.01689 0.0
H625 H 0.89524 0.42646 0.99744 0.0
C626 C 0.70673 0.62647 0.38338 0.0
C627 C 0.72812 0.63725 0.39621 0.0
C628 C 0.68664 0.6146 0.39809 0.0
C629 C 0.66753 0.58818 0.46472 0.0
H630 H 0.60277 0.59504 0.44181 0.0
C631 C 0.57873 0.55863 0.52906 0.0
C632 C 0.55759 0.54815 0.51563 0.0
C633 C 0.60009 0.5683 0.51472 0.0
C634 C 0.62069 0.59267 0.44833 0.0
H635 H 0.74517 0.64362 0.43472 0.0
H636 H 0.71 0.62313 0.46051 0.0
H637 H 0.63877 0.61419 0.4168 0.0
H638 H 0.54246 0.53906 0.47662 0.0
H639 H 0.57966 0.55587 0.45158 0.0
H640 H 0.64925 0.56691 0.49656 0.0
C641 C 0.70887 0.62357 0.43895 0.0
C642 C 0.64142 0.60366 0.43393 0.0
C643 C 0.72907 0.63537 0.42417 0.0
C644 C 0.55842 0.5471 0.48755 0.0
C645 C 0.57971 0.55688 0.4732 0.0
C646 C 0.64674 0.57726 0.47923 0.0
C647 C 0.68723 0.61324 0.42614 0.0
C648 C 0.66517 0.60152 0.44181 0.0
C649 C 0.60077 0.56784 0.48657 0.0
C650 C 0.62303 0.5793 0.47117 0.0
H651 H 0.70551 0.62714 0.36184 0.0
H652 H 0.67062 0.60641 0.38737 0.0
H653 H 0.68545 0.58584 0.47126 0.0
H654 H 0.57866 0.55967 0.5507 0.0
H655 H 0.61587 0.57673 0.52568 0.0
C656 C 0.23566 0.33052 0.17741 0.0
C657 C 0.25687 0.34512 0.18651 0.0
C658 C 0.21641 0.34022 0.16721 0.0
C659 C 0.20041 0.39299 0.13718 0.0
H660 H 0.13496 0.36849 0.16461 0.0
C661 C 0.11187 0.41213 0.08942 0.0
C662 C 0.09346 0.41781 0.10688 0.0
C663 C 0.13254 0.40463 0.09943 0.0
C664 C 0.15314 0.37561 0.15691 0.0
H665 H 0.27487 0.38129 0.19128 0.0
H666 H 0.24119 0.39831 0.17305 0.0
H667 H 0.16998 0.35258 0.18086 0.0
H668 H 0.08225 0.42022 0.14846 0.0
H669 H 0.11836 0.40681 0.16602 0.0
H670 H 0.18347 0.41587 0.11302 0.0
C671 C 0.23952 0.37936 0.17395 0.0
C672 C 0.17313 0.36636 0.166 0.0
C673 C 0.25871 0.36964 0.18447 0.0
C674 C 0.09621 0.41601 0.13457 0.0
C675 C 0.11676 0.40822 0.14459 0.0
C676 C 0.18034 0.40205 0.12782 0.0
C677 C 0.21801 0.36473 0.16566 0.0
C678 C 0.19695 0.37489 0.15617 0.0
C679 C 0.1351 0.40241 0.12709 0.0
C680 C 0.15651 0.3934 0.13757 0.0
H681 H 0.23358 0.31157 0.17904 0.0
H682 H 0.20014 0.32853 0.16072 0.0
H683 H 0.21856 0.39982 0.12921 0.0
H684 H 0.11034 0.41361 0.06798 0.0
H685 H 0.14629 0.40011 0.08548 0.0
C686 C 0.62149 0.22629 0.90407 0.0
C687 C 0.61207 0.24744 0.90414 0.0
C688 C 0.60938 0.2066 0.91802 0.0
C689 C 0.561 0.18771 0.97074 0.0
H690 H 0.56156 0.12607 0.93934 0.0
C691 C 0.49705 0.10304 1.00791 0.0
C692 C 0.50698 0.08225 1.00923 0.0
C693 C 0.51065 0.12346 0.99661 0.0
C694 C 0.56145 0.14311 0.94858 0.0
H695 H 0.58248 0.2644 0.91925 0.0
H696 H 0.56099 0.22994 0.94317 0.0
H697 H 0.58313 0.16093 0.91663 0.0
H698 H 0.53917 0.06669 1.00021 0.0
H699 H 0.56292 0.10231 0.98023 0.0
H700 H 0.53873 0.16971 1.00238 0.0
C701 C 0.57806 0.22864 0.93272 0.0
C702 C 0.5739 0.16321 0.93555 0.0
C703 C 0.59035 0.24846 0.91892 0.0
C704 C 0.531 0.08242 0.9994 0.0
C705 C 0.54453 0.1028 0.98783 0.0
C706 C 0.54835 0.16759 0.98365 0.0
C707 C 0.5873 0.20732 0.93234 0.0
C708 C 0.57393 0.18586 0.94642 0.0
C709 C 0.53447 0.12356 0.9861 0.0
C710 C 0.54841 0.14501 0.97275 0.0
H711 H 0.63843 0.22499 0.89332 0.0
H712 H 0.61751 0.19082 0.9177 0.0
H713 H 0.56086 0.2047 0.98007 0.0
H714 H 0.4786 0.10347 1.01537 0.0
H715 H 0.50222 0.13902 0.99544 0.0
C716 C 0.84664 0.796 0.40089 0.0
C717 C 0.86094 0.77939 0.3919 0.0
C718 C 0.85737 0.81676 0.41373 0.0
C719 C 0.91304 0.84499 0.44932 0.0
H720 H 0.88995 0.90255 0.4315 0.0
C721 C 0.94347 0.93228 0.50733 0.0
C722 C 0.94813 0.95328 0.49259 0.0
C723 C 0.93289 0.91104 0.49528 0.0
C724 C 0.89679 0.88671 0.4366 0.0
H725 H 0.89787 0.7716 0.38998 0.0
H726 H 0.91662 0.80783 0.41246 0.0
H727 H 0.87205 0.86568 0.41018 0.0
H728 H 0.94514 0.96827 0.45349 0.0
H729 H 0.92691 0.93128 0.43245 0.0
H730 H 0.93812 0.86614 0.47538 0.0
C731 C 0.897 0.80468 0.4097 0.0
C732 C 0.88628 0.86544 0.42459 0.0
C733 C 0.88623 0.78386 0.39681 0.0
C734 C 0.94173 0.9525 0.46552 0.0
C735 C 0.93116 0.93124 0.45346 0.0
C736 C 0.92354 0.86627 0.46139 0.0
C737 C 0.88274 0.82156 0.41805 0.0
C738 C 0.8942 0.84425 0.43081 0.0
C739 C 0.92667 0.91018 0.46813 0.0
C740 C 0.91554 0.88745 0.45522 0.0
H741 H 0.82703 0.79297 0.39803 0.0
H742 H 0.84568 0.82903 0.42039 0.0
H743 H 0.91951 0.82904 0.4548 0.0
H744 H 0.94802 0.93217 0.52826 0.0
H745 H 0.92936 0.89532 0.50736 0.0
C746 C 0.34159 0.79401 0.58538 0.0
C747 C 0.3445 0.80873 0.56293 0.0
C748 C 0.35017 0.77268 0.58471 0.0
C749 C 0.36991 0.72775 0.54078 0.0
H750 H 0.40912 0.71731 0.60131 0.0
C751 C 0.40328 0.63978 0.56141 0.0
C752 C 0.42755 0.64145 0.56989 0.0
C753 C 0.39289 0.66001 0.55855 0.0
C754 C 0.39834 0.72005 0.58421 0.0
H755 H 0.35769 0.81217 0.52176 0.0
H756 H 0.37286 0.77472 0.52063 0.0
H757 H 0.39042 0.75252 0.60005 0.0
H758 H 0.46026 0.66574 0.58084 0.0
H759 H 0.44198 0.70097 0.57626 0.0
H760 H 0.37801 0.69517 0.52495 0.0
C761 C 0.36387 0.77977 0.5387 0.0
C762 C 0.38742 0.74006 0.58362 0.0
C763 C 0.35538 0.80124 0.53942 0.0
C764 C 0.44136 0.66381 0.57486 0.0
C765 C 0.43094 0.68399 0.57215 0.0
C766 C 0.3807 0.70755 0.54148 0.0
C767 C 0.36183 0.76557 0.56156 0.0
C768 C 0.37308 0.74411 0.56194 0.0
C769 C 0.40653 0.68227 0.56427 0.0
C770 C 0.39508 0.70359 0.56318 0.0
H771 H 0.33353 0.79939 0.60389 0.0
H772 H 0.34812 0.76192 0.60251 0.0
H773 H 0.35888 0.73045 0.52388 0.0
H774 H 0.39207 0.62281 0.5577 0.0
H775 H 0.37396 0.65819 0.5527 0.0
C776 C 0.74947 0.80111 0.74809 0.0
C777 C 0.74327 0.81777 0.76674 0.0
C778 C 0.76431 0.80831 0.72561 0.0
C779 C 0.78622 0.85668 0.6807 0.0
H780 H 0.85155 0.84193 0.68692 0.0
C781 C 0.87031 0.9173 0.63811 0.0
C782 C 0.89154 0.90839 0.63063 0.0
C783 C 0.84998 0.90255 0.64902 0.0
C784 C 0.83332 0.84578 0.68423 0.0
H785 H 0.74741 0.85535 0.77519 0.0
H786 H 0.77173 0.86759 0.73542 0.0
H787 H 0.81821 0.82186 0.71523 0.0
H788 H 0.90794 0.87698 0.62769 0.0
H789 H 0.87201 0.85084 0.64598 0.0
H790 H 0.80105 0.88069 0.64991 0.0
C791 C 0.76525 0.84898 0.73849 0.0
C792 C 0.81424 0.83427 0.70055 0.0
C793 C 0.75107 0.84184 0.76127 0.0
C794 C 0.89182 0.88428 0.63355 0.0
C795 C 0.87126 0.86937 0.6441 0.0
C796 C 0.80514 0.86784 0.66397 0.0
C797 C 0.77253 0.8323 0.72091 0.0
C798 C 0.79081 0.84029 0.69958 0.0
C799 C 0.85018 0.87839 0.65238 0.0
C800 C 0.8292 0.86331 0.66634 0.0
H801 H 0.74343 0.78245 0.7511 0.0
H802 H 0.76975 0.79518 0.71218 0.0
H803 H 0.7682 0.8615 0.67962 0.0
H804 H 0.86975 0.9359 0.6364 0.0
H805 H 0.83446 0.91038 0.65575 0.0
C806 C 0.71856 0.21736 0.28722 0.0
C807 C 0.72096 0.21119 0.314 0.0
C808 C 0.70282 0.20266 0.27042 0.0
C809 C 0.67243 0.14099 0.26289 0.0
H810 H 0.63407 0.16704 0.21073 0.0
C811 C 0.62725 0.08688 0.17429 0.0
C812 C 0.60422 0.09091 0.16618 0.0
C813 C 0.63993 0.10089 0.19407 0.0
C814 C 0.64443 0.15944 0.22539 0.0
H815 H 0.70872 0.18469 0.34411 0.0
H816 H 0.6809 0.15935 0.31497 0.0
H817 H 0.65868 0.19319 0.24203 0.0
H818 H 0.57622 0.11255 0.17292 0.0
H819 H 0.59811 0.13664 0.20793 0.0
H820 H 0.65798 0.10722 0.24645 0.0
C821 C 0.69136 0.17543 0.30688 0.0
C822 C 0.65878 0.17447 0.2431 0.0
C823 C 0.70708 0.19011 0.32367 0.0
C824 C 0.59384 0.10885 0.17885 0.0
C825 C 0.60652 0.12285 0.19868 0.0
C826 C 0.65806 0.12596 0.2452 0.0
C827 C 0.68915 0.18146 0.28002 0.0
C828 C 0.67311 0.16544 0.2619 0.0
C829 C 0.62985 0.11923 0.20627 0.0
C830 C 0.64406 0.13503 0.22608 0.0
H831 H 0.72883 0.23357 0.27924 0.0
H832 H 0.70174 0.20771 0.24975 0.0
H833 H 0.68342 0.13347 0.27697 0.0
H834 H 0.63562 0.07301 0.16516 0.0
H835 H 0.65796 0.09774 0.19927 0.0
C836 C 0.36986 0.61615 0.3087 0.0
C837 C 0.38042 0.63911 0.30098 0.0
C838 C 0.37883 0.60531 0.3304 0.0
C839 C 0.41811 0.61717 0.39051 0.0
H840 H 0.42079 0.55067 0.38384 0.0
C841 C 0.44723 0.56331 0.47835 0.0
C842 C 0.46128 0.54576 0.47211 0.0
C843 C 0.43695 0.5749 0.45808 0.0
C844 C 0.42042 0.56929 0.38604 0.0
H845 H 0.40863 0.66873 0.31054 0.0
H846 H 0.42443 0.64982 0.34822 0.0
H847 H 0.40415 0.57063 0.34786 0.0
H848 H 0.47564 0.52691 0.43928 0.0
H849 H 0.45818 0.54722 0.40415 0.0
H850 H 0.4351 0.61591 0.42839 0.0
C851 C 0.40892 0.64025 0.33773 0.0
C852 C 0.41049 0.58073 0.36546 0.0
C853 C 0.39985 0.65114 0.31605 0.0
C854 C 0.46482 0.54019 0.44499 0.0
C855 C 0.45462 0.5518 0.42475 0.0
C856 C 0.42811 0.60571 0.4111 0.0
C857 C 0.39874 0.61704 0.34505 0.0
C858 C 0.40916 0.60486 0.36733 0.0
C859 C 0.44047 0.56931 0.43093 0.0
C860 C 0.42948 0.58159 0.40916 0.0
H861 H 0.3546 0.60646 0.29789 0.0
H862 H 0.37006 0.58767 0.33571 0.0
H863 H 0.41723 0.63568 0.3929 0.0
H864 H 0.44409 0.56816 0.4989 0.0
H865 H 0.42596 0.58804 0.46377 0.0
C866 C 0.10275 0.38499 0.83083 0.0
C867 C 0.11048 0.39497 0.80582 0.0
C868 C 0.09258 0.398 0.85064 0.0
C869 C 0.06537 0.45262 0.8614 0.0
H870 H 0.07902 0.4427 0.93568 0.0
C871 C 0.04171 0.51436 0.94676 0.0
C872 C 0.03054 0.50359 0.97006 0.0
C873 C 0.05158 0.50113 0.92695 0.0
C874 C 0.07488 0.44556 0.91505 0.0
H875 H 0.11289 0.42665 0.78221 0.0
H876 H 0.09621 0.44952 0.81694 0.0
H877 H 0.09581 0.41988 0.90077 0.0
H878 H 0.02 0.4703 0.99006 0.0
H879 H 0.03804 0.44724 0.95614 0.0
H880 H 0.04488 0.47872 0.87584 0.0
C881 C 0.09755 0.43143 0.82115 0.0
C882 C 0.08443 0.43238 0.89494 0.0
C883 C 0.10751 0.41835 0.80124 0.0
C884 C 0.02943 0.47927 0.97305 0.0
C885 C 0.03954 0.46603 0.95338 0.0
C886 C 0.05606 0.46598 0.8815 0.0
C887 C 0.09002 0.42151 0.84624 0.0
C888 C 0.07979 0.43564 0.86777 0.0
C889 C 0.0506 0.47678 0.92998 0.0
C890 C 0.06066 0.4626 0.90859 0.0
H891 H 0.105 0.36722 0.83546 0.0
H892 H 0.08667 0.38949 0.86943 0.0
H893 H 0.06092 0.45543 0.84088 0.0
H894 H 0.04269 0.53306 0.94374 0.0
H895 H 0.06011 0.51002 0.90928 0.0
C896 C 0.62538 0.84789 0.94408 0.0
C897 C 0.61925 0.83071 0.92411 0.0
C898 C 0.60881 0.86223 0.95243 0.0
C899 C 0.55693 0.88791 0.93037 0.0
H900 H 0.55486 0.90608 1.00514 0.0
C901 C 0.50231 0.95766 0.97957 0.0
C902 C 0.51745 0.97436 0.99522 0.0
C903 C 0.51132 0.93828 0.96856 0.0
C904 C 0.55515 0.90107 0.98421 0.0
H905 H 0.59054 0.81508 0.89744 0.0
H906 H 0.56145 0.84055 0.91202 0.0
H907 H 0.57564 0.87375 0.99167 0.0
H908 H 0.55437 0.98456 1.00998 0.0
H909 H 0.56973 0.95085 0.99112 0.0
H910 H 0.53667 0.91579 0.92312 0.0
C911 C 0.57925 0.84274 0.92112 0.0
C912 C 0.56707 0.88262 0.97649 0.0
C913 C 0.5959 0.82819 0.9128 0.0
C914 C 0.54206 0.97197 0.99832 0.0
C915 C 0.5509 0.95261 0.98761 0.0
C916 C 0.54475 0.90637 0.9382 0.0
C917 C 0.58561 0.85995 0.94101 0.0
C918 C 0.56894 0.87641 0.94938 0.0
C919 C 0.53547 0.93527 0.9733 0.0
C920 C 0.54459 0.9136 0.96507 0.0
H921 H 0.64341 0.85096 0.95269 0.0
H922 H 0.61456 0.8757 0.9673 0.0
H923 H 0.55813 0.88356 0.90932 0.0
H924 H 0.48327 0.95899 0.97676 0.0
H925 H 0.49914 0.92512 0.95746 0.0
C926 C 0.85497 0.19567 0.46354 0.0
C927 C 0.84945 0.19407 0.43625 0.0
C928 C 0.86519 0.17807 0.47574 0.0
C929 C 0.87094 0.11572 0.46758 0.0
H930 H 0.92285 0.13078 0.51877 0.0
C931 C 0.92657 0.04726 0.50478 0.0
C932 C 0.93275 0.04812 0.53183 0.0
C933 C 0.91533 0.06478 0.49396 0.0
C934 C 0.90813 0.12629 0.50478 0.0
H935 H 0.85117 0.17329 0.4001 0.0
H936 H 0.86914 0.14264 0.42133 0.0
H937 H 0.90618 0.16247 0.49788 0.0
H938 H 0.9315 0.06743 0.56907 0.0
H939 H 0.91153 0.09801 0.55025 0.0
H940 H 0.87298 0.07956 0.47434 0.0
C941 C 0.8651 0.15724 0.43344 0.0
C942 C 0.89862 0.14443 0.4928 0.0
C943 C 0.85487 0.1748 0.42127 0.0
C944 C 0.92692 0.06642 0.54812 0.0
C945 C 0.91569 0.08398 0.5373 0.0
C946 C 0.88045 0.09759 0.47955 0.0
C947 C 0.87011 0.15853 0.46087 0.0
C948 C 0.88002 0.13934 0.47395 0.0
C949 C 0.91002 0.08348 0.51004 0.0
C950 C 0.89924 0.10269 0.49816 0.0
H951 H 0.85071 0.21017 0.47566 0.0
H952 H 0.86861 0.17944 0.49696 0.0
H953 H 0.85629 0.11121 0.45351 0.0
H954 H 0.9309 0.03331 0.49181 0.0
H955 H 0.91142 0.06403 0.47283 0.0
C956 C 0.23245 0.65111 0.15344 0.0
C957 C 0.25028 0.63735 0.15936 0.0
C958 C 0.20995 0.64079 0.14262 0.0
C959 C 0.18046 0.58689 0.10632 0.0
H960 H 0.12002 0.60866 0.12618 0.0
C961 C 0.0855 0.53679 0.07484 0.0
C962 C 0.06777 0.55006 0.06713 0.0
C963 C 0.10762 0.54774 0.08587 0.0
C964 C 0.13677 0.60252 0.12016 0.0
H965 H 0.25778 0.60168 0.15956 0.0
H966 H 0.21869 0.58374 0.14107 0.0
H967 H 0.15837 0.62701 0.1463 0.0
H968 H 0.05971 0.58549 0.06506 0.0
H969 H 0.09829 0.60455 0.08411 0.0
H970 H 0.15887 0.56233 0.08031 0.0
C971 C 0.22226 0.60262 0.14407 0.0
C972 C 0.15882 0.61308 0.13172 0.0
C973 C 0.24472 0.61293 0.15478 0.0
C974 C 0.07286 0.57464 0.07071 0.0
C975 C 0.09497 0.58559 0.08185 0.0
C976 C 0.15843 0.57631 0.09484 0.0
C977 C 0.20462 0.6164 0.13751 0.0
C978 C 0.18101 0.60536 0.12505 0.0
C979 C 0.11266 0.5723 0.08961 0.0
C980 C 0.13623 0.5839 0.10163 0.0
H981 H 0.23616 0.66999 0.15642 0.0
H982 H 0.19701 0.65207 0.1376 0.0
H983 H 0.19717 0.58074 0.10019 0.0
H984 H 0.08228 0.51783 0.07255 0.0
H985 H 0.12061 0.53686 0.0919 0.0
C986 C 0.26518 0.37912 0.64677 0.0
C987 C 0.25323 0.39168 0.66565 0.0
C988 C 0.28632 0.39007 0.63298 0.0
C989 C 0.33565 0.44324 0.63549 0.0
H990 H 0.34967 0.42317 0.56349 0.0
C991 C 0.43 0.47398 0.58282 0.0
C992 C 0.43093 0.47637 0.55489 0.0
C993 C 0.40798 0.46462 0.59613 0.0
C994 C 0.34599 0.42932 0.58345 0.0
H995 H 0.25371 0.42579 0.68426 0.0
H996 H 0.28997 0.44518 0.65959 0.0
H997 H 0.31175 0.40577 0.58605 0.0
H998 H 0.4094 0.47172 0.5191 0.0
H999 H 0.37084 0.45635 0.54225 0.0
H1000 H 0.36941 0.46752 0.63244 0.0
C1001 C 0.28359 0.42665 0.65596 0.0
C1002 C 0.32429 0.41897 0.59665 0.0
C1003 C 0.26265 0.41558 0.67003 0.0
C1004 C 0.40927 0.46987 0.54063 0.0
C1005 C 0.38718 0.46084 0.55395 0.0
C1006 C 0.35721 0.45382 0.62215 0.0
C1007 C 0.29593 0.41402 0.63738 0.0
C1008 C 0.31882 0.42562 0.62297 0.0
C1009 C 0.38622 0.45773 0.58189 0.0
C1010 C 0.36283 0.44693 0.59596 0.0
H1011 H 0.25858 0.36059 0.64322 0.0
H1012 H 0.29542 0.37953 0.61931 0.0
H1013 H 0.33242 0.44871 0.65584 0.0
H1014 H 0.44645 0.47877 0.59433 0.0
H1015 H 0.40824 0.46224 0.61755 0.0
C1016 C 0.76632 0.70429 0.91499 0.0
C1017 C 0.74906 0.7152 0.92908 0.0
C1018 C 0.77826 0.68819 0.92769 0.0
C1019 C 0.79958 0.67646 0.99322 0.0
H1020 H 0.81618 0.62055 0.95876 0.0
C1021 C 0.88667 0.63877 1.01482 0.0
C1022 C 0.88529 0.6142 1.01557 0.0
C1023 C 0.86623 0.64859 1.00837 0.0
C1024 C 0.81142 0.6359 0.96885 0.0
H1025 H 0.73005 0.71728 0.96715 0.0
H1026 H 0.75122 0.68919 0.98957 0.0
H1027 H 0.78609 0.64108 0.93868 0.0
H1028 H 0.86072 0.58078 1.01156 0.0
H1029 H 0.82519 0.59804 0.99958 0.0
H1030 H 0.82563 0.6718 1.02283 0.0
C1031 C 0.7554 0.69308 0.96867 0.0
C1032 C 0.79435 0.64773 0.95726 0.0
C1033 C 0.7432 0.70899 0.95582 0.0
C1034 C 0.86263 0.59975 1.01065 0.0
C1035 C 0.84223 0.6096 1.0039 0.0
C1036 C 0.81685 0.66477 1.00466 0.0
C1037 C 0.77339 0.68287 0.95484 0.0
C1038 C 0.78866 0.66841 0.96902 0.0
C1039 C 0.84395 0.63411 1.00228 0.0
C1040 C 0.82333 0.64467 0.99228 0.0
H1041 H 0.77107 0.70872 0.89431 0.0
H1042 H 0.79218 0.68077 0.91658 0.0
H1043 H 0.7957 0.69246 1.00261 0.0
H1044 H 0.90385 0.65049 1.01801 0.0
H1045 H 0.8682 0.66754 1.00692 0.0
C1046 C 0.39385 0.80493 0.19197 0.0
C1047 C 0.38169 0.78802 0.17419 0.0
C1048 C 0.40277 0.828 0.18352 0.0
C1049 C 0.39729 0.87063 0.12903 0.0
H1050 H 0.46003 0.90241 0.15433 0.0
C1051 C 0.45059 0.95531 0.0795 0.0
C1052 C 0.4636 0.97275 0.09601 0.0
C1053 C 0.43931 0.93363 0.09008 0.0
C1054 C 0.44232 0.89396 0.14731 0.0
H1055 H 0.36985 0.78234 0.13328 0.0
H1056 H 0.3854 0.82227 0.11858 0.0
H1057 H 0.44308 0.86323 0.17071 0.0
H1058 H 0.47446 0.98128 0.13672 0.0
H1059 H 0.45468 0.94349 0.15526 0.0
H1060 H 0.39675 0.90126 0.10533 0.0
C1061 C 0.38761 0.81793 0.13928 0.0
C1062 C 0.43255 0.87141 0.15675 0.0
C1063 C 0.37864 0.79492 0.14774 0.0
C1064 C 0.46461 0.9682 0.12346 0.0
C1065 C 0.45342 0.94645 0.13404 0.0
C1066 C 0.40711 0.89314 0.11953 0.0
C1067 C 0.39989 0.83484 0.15699 0.0
C1068 C 0.40994 0.8593 0.14763 0.0
C1069 C 0.4408 0.92875 0.11745 0.0
C1070 C 0.42984 0.9051 0.1284 0.0
H1071 H 0.39631 0.80039 0.21256 0.0
H1072 H 0.41176 0.84053 0.1979 0.0
H1073 H 0.37964 0.86216 0.12188 0.0
H1074 H 0.44954 0.95823 0.05823 0.0
H1075 H 0.43002 0.92042 0.07659 0.0
C1076 C 0.12797 0.23997 0.65181 0.0
C1077 C 0.11497 0.25225 0.67006 0.0
C1078 C 0.1164 0.21942 0.63913 0.0
C1079 C 0.0625 0.17153 0.64565 0.0
H1080 H 0.07901 0.15837 0.57194 0.0
C1081 C 0.03063 0.08017 0.59639 0.0
C1082 C 0.02312 0.07969 0.5697 0.0
C1083 C 0.04169 0.1013 0.60839 0.0
C1084 C 0.07401 0.16179 0.59248 0.0
H1085 H 0.07936 0.25239 0.68897 0.0
H1086 H 0.05908 0.2168 0.6665 0.0
H1087 H 0.09763 0.19533 0.59266 0.0
H1088 H 0.02156 0.10128 0.53472 0.0
H1089 H 0.0406 0.13796 0.55564 0.0
H1090 H 0.03857 0.13815 0.64532 0.0
C1091 C 0.07836 0.22294 0.66224 0.0
C1092 C 0.08493 0.18294 0.6045 0.0
C1093 C 0.08993 0.24356 0.6749 0.0
C1094 C 0.02713 0.10088 0.55529 0.0
C1095 C 0.03821 0.12198 0.56727 0.0
C1096 C 0.0516 0.15035 0.63365 0.0
C1097 C 0.09147 0.21048 0.64429 0.0
C1098 C 0.07938 0.18811 0.63128 0.0
C1099 C 0.04559 0.12253 0.59404 0.0
C1100 C 0.05722 0.14515 0.60688 0.0
H1101 H 0.14718 0.24623 0.64728 0.0
H1102 H 0.12721 0.21027 0.62565 0.0
H1103 H 0.05794 0.17472 0.66638 0.0
H1104 H 0.02789 0.06423 0.60812 0.0
H1105 H 0.04742 0.10092 0.6289 0.0
C1106 C 0.71435 0.28984 0.48668 0.0
C1107 C 0.73488 0.30526 0.47651 0.0
C1108 C 0.69624 0.2985 0.50176 0.0
C1109 C 0.68053 0.35278 0.53436 0.0
H1110 H 0.61682 0.33083 0.50412 0.0
C1111 C 0.61059 0.41205 0.51562 0.0
C1112 C 0.58542 0.40306 0.51759 0.0
C1113 C 0.62778 0.39769 0.52063 0.0
C1114 C 0.63428 0.33683 0.51338 0.0
H1115 H 0.75358 0.34147 0.47617 0.0
H1116 H 0.72176 0.35669 0.50169 0.0
H1117 H 0.65001 0.30913 0.49516 0.0
H1118 H 0.55837 0.37244 0.52764 0.0
H1119 H 0.58858 0.34707 0.53612 0.0
H1120 H 0.665 0.38142 0.55104 0.0
C1121 C 0.71964 0.33789 0.49832 0.0
C1122 C 0.65338 0.32435 0.50826 0.0
C1123 C 0.73776 0.32922 0.48333 0.0
C1124 C 0.57771 0.37975 0.52595 0.0
C1125 C 0.59495 0.36526 0.53073 0.0
C1126 C 0.66144 0.36534 0.53936 0.0
C1127 C 0.69826 0.32275 0.50691 0.0
C1128 C 0.67701 0.33276 0.51771 0.0
C1129 C 0.62015 0.37398 0.52755 0.0
C1130 C 0.63843 0.35802 0.52794 0.0
H1131 H 0.71155 0.27127 0.48172 0.0
H1132 H 0.68015 0.28634 0.5084 0.0
H1133 H 0.69839 0.35943 0.54241 0.0
H1134 H 0.61699 0.43007 0.50955 0.0
H1135 H 0.64704 0.40485 0.51769 0.0
loop_
_geom_bond_atom_site_label_1
_geom_bond_atom_site_label_2
_geom_bond_distance
_geom_bond_site_symmetry_2
_ccdc_geom_bond_type
P0 O11 1.490 . S
P0 C14 1.812 . S
P0 C20 1.803 . S
P0 C26 1.819 . S
H1 C15 0.941 . S
H2 C16 0.939 . S
H3 C18 0.940 . S
H4 C19 0.940 . S
H5 C21 0.939 . S
H6 C22 0.942 . S
H7 C24 0.940 . S
H8 C25 0.939 . S
H9 C27 0.941 . S
H10 C31 0.939 . S
O11 P0 1.490 . S
H12 C28 0.939 . S
H13 C30 0.940 . S
C14 P0 1.812 . S
C14 C15 1.389 . S
C14 C19 1.391 . S
C15 H1 0.941 . S
C15 C14 1.389 . S
C15 C16 1.397 . S
C16 H2 0.939 . S
C16 C15 1.397 . S
C16 C17 1.378 . S
C17 C16 1.378 . S
C17 C18 1.378 . S
C18 H3 0.940 . S
C18 C17 1.378 . S
C18 C19 1.396 . S
C19 H4 0.940 . S
C19 C14 1.391 . S
C19 C18 1.396 . S
C20 P0 1.803 . S
C20 C21 1.378 . S
C20 C25 1.400 . S
C21 H5 0.939 . S
C21 C20 1.378 . S
C21 C22 1.361 . S
C22 H6 0.942 . S
C22 C21 1.361 . S
C22 C23 1.369 . S
C23 C22 1.369 . S
C23 C24 1.404 . S
C24 H7 0.940 . S
C24 C23 1.404 . S
C24 C25 1.389 . S
C25 H8 0.939 . S
C25 C20 1.400 . S
C25 C24 1.389 . S
C26 P0 1.819 . S
C26 C27 1.391 . S
C26 C31 1.391 . S
C27 H9 0.941 . S
C27 C26 1.391 . S
C27 C28 1.396 . S
C28 H12 0.939 . S
C28 C27 1.396 . S
C28 C29 1.397 . S
C29 C28 1.397 . S
C29 C30 1.385 . S
C30 H13 0.940 . S
C30 C29 1.385 . S
C30 C31 1.388 . S
C31 H10 0.939 . S
C31 C26 1.391 . S
C31 C30 1.388 . S
P32 O43 1.490 . S
P32 C46 1.812 . S
P32 C52 1.803 . S
P32 C58 1.819 . S
H33 C47 0.941 . S
H34 C48 0.939 . S
H35 C50 0.940 . S
H36 C51 0.940 . S
H37 C53 0.939 . S
H38 C54 0.942 . S
H39 C56 0.940 . S
H40 C57 0.939 . S
H41 C59 0.941 . S
H42 C63 0.939 . S
O43 P32 1.490 . S
H44 C60 0.939 . S
H45 C62 0.940 . S
C46 P32 1.812 . S
C46 C47 1.389 . S
C46 C51 1.391 . S
C47 H33 0.941 . S
C47 C46 1.389 . S
C47 C48 1.397 . S
C48 H34 0.939 . S
C48 C47 1.397 . S
C48 C49 1.378 . S
C49 C48 1.378 . S
C49 C50 1.378 . S
C50 H35 0.940 . S
C50 C49 1.378 . S
C50 C51 1.396 . S
C51 H36 0.940 . S
C51 C46 1.391 . S
C51 C50 1.396 . S
C52 P32 1.803 . S
C52 C53 1.378 . S
C52 C57 1.400 . S
C53 H37 0.939 . S
C53 C52 1.378 . S
C53 C54 1.361 . S
C54 H38 0.942 . S
C54 C53 1.361 . S
C54 C55 1.369 . S
C55 C54 1.369 . S
C55 C56 1.404 . S
C56 H39 0.940 . S
C56 C55 1.404 . S
C56 C57 1.389 . S
C57 H40 0.939 . S
C57 C52 1.400 . S
C57 C56 1.389 . S
C58 P32 1.819 . S
C58 C59 1.391 . S
C58 C63 1.391 . S
C59 H41 0.941 . S
C59 C58 1.391 . S
C59 C60 1.396 . S
C60 H44 0.939 . S
C60 C59 1.396 . S
C60 C61 1.397 . S
C61 C60 1.397 . S
C61 C62 1.385 . S
C62 H45 0.940 . S
C62 C61 1.385 . S
C62 C63 1.388 . S
C63 H42 0.939 . S
C63 C58 1.391 . S
C63 C62 1.388 . S
P64 O75 1.490 . S
P64 C78 1.812 . S
P64 C84 1.803 . S
P64 C90 1.819 . S
H65 C79 0.941 . S
H66 C80 0.939 . S
H67 C82 0.940 . S
H68 C83 0.940 . S
H69 C85 0.939 . S
H70 C86 0.942 . S
H71 C88 0.940 . S
H72 C89 0.939 . S
H73 C91 0.941 . S
H74 C95 0.939 . S
O75 P64 1.490 . S
H76 C92 0.939 . S
H77 C94 0.940 . S
C78 P64 1.812 . S
C78 C79 1.389 . S
C78 C83 1.391 . S
C79 H65 0.941 . S
C79 C78 1.389 . S
C79 C80 1.397 . S
C80 H66 0.939 . S
C80 C79 1.397 . S
C80 C81 1.378 . S
C81 C80 1.378 . S
C81 C82 1.378 . S
C82 H67 0.940 . S
C82 C81 1.378 . S
C82 C83 1.396 . S
C83 H68 0.940 . S
C83 C78 1.391 . S
C83 C82 1.396 . S
C84 P64 1.803 . S
C84 C85 1.378 . S
C84 C89 1.400 . S
C85 H69 0.939 . S
C85 C84 1.378 . S
C85 C86 1.361 . S
C86 H70 0.942 . S
C86 C85 1.361 . S
C86 C87 1.369 . S
C87 C86 1.369 . S
C87 C88 1.404 . S
C88 H71 0.940 . S
C88 C87 1.404 . S
C88 C89 1.389 . S
C89 H72 0.939 . S
C89 C84 1.400 . S
C89 C88 1.389 . S
C90 P64 1.819 . S
C90 C91 1.391 . S
C90 C95 1.391 . S
C91 H73 0.941 . S
C91 C90 1.391 . S
C91 C92 1.396 . S
C92 H76 0.939 . S
C92 C91 1.396 . S
C92 C93 1.397 . S
C93 C92 1.397 . S
C93 C94 1.385 . S
C94 H77 0.940 . S
C94 C93 1.385 . S
C94 C95 1.388 . S
C95 H74 0.939 . S
C95 C90 1.391 . S
C95 C94 1.388 . S
P96 O107 1.490 . S
P96 C110 1.812 . S
P96 C116 1.803 . S
P96 C122 1.819 . S
H97 C111 0.941 . S
H98 C112 0.939 . S
H99 C114 0.940 . S
H100 C115 0.940 . S
H101 C117 0.939 . S
H102 C118 0.942 . S
H103 C120 0.940 . S
H104 C121 0.939 . S
H105 C123 0.941 . S
H106 C127 0.939 . S
O107 P96 1.490 . S
H108 C124 0.939 . S
H109 C126 0.940 . S
C110 P96 1.812 . S
C110 C111 1.389 . S
C110 C115 1.391 . S
C111 H97 0.941 . S
C111 C110 1.389 . S
C111 C112 1.397 . S
C112 H98 0.939 . S
C112 C111 1.397 . S
C112 C113 1.378 . S
C113 C112 1.378 . S
C113 C114 1.378 . S
C114 H99 0.940 . S
C114 C113 1.378 . S
C114 C115 1.396 . S
C115 H100 0.940 . S
C115 C110 1.391 . S
C115 C114 1.396 . S
C116 P96 1.803 . S
C116 C117 1.378 . S
C116 C121 1.400 . S
C117 H101 0.939 . S
C117 C116 1.378 . S
C117 C118 1.361 . S
C118 H102 0.942 . S
C118 C117 1.361 . S
C118 C119 1.369 . S
C119 C118 1.369 . S
C119 C120 1.404 . S
C120 H103 0.940 . S
C120 C119 1.404 . S
C120 C121 1.389 . S
C121 H104 0.939 . S
C121 C116 1.400 . S
C121 C120 1.389 . S
C122 P96 1.819 . S
C122 C123 1.391 . S
C122 C127 1.391 . S
C123 H105 0.941 . S
C123 C122 1.391 . S
C123 C124 1.396 . S
C124 H108 0.939 . S
C124 C123 1.396 . S
C124 C125 1.397 . S
C125 C124 1.397 . S
C125 C126 1.385 . S
C126 H109 0.940 . S
C126 C125 1.385 . S
C126 C127 1.388 . S
C127 H106 0.939 . S
C127 C122 1.391 . S
C127 C126 1.388 . S
P128 O139 1.490 . S
P128 C142 1.812 . S
P128 C148 1.803 . S
P128 C154 1.819 . S
H129 C143 0.941 . S
H130 C144 0.939 . S
H131 C146 0.940 . S
H132 C147 0.940 . S
H133 C149 0.939 . S
H134 C150 0.942 . S
H135 C152 0.940 . S
H136 C153 0.939 . S
H137 C155 0.941 . S
H138 C159 0.939 . S
O139 P128 1.490 . S
H140 C156 0.939 . S
H141 C158 0.940 . S
C142 P128 1.812 . S
C142 C143 1.389 . S
C142 C147 1.391 . S
C143 H129 0.941 . S
C143 C142 1.389 . S
C143 C144 1.397 . S
C144 H130 0.939 . S
C144 C143 1.397 . S
C144 C145 1.378 . S
C145 C144 1.378 . S
C145 C146 1.378 . S
C146 H131 0.940 . S
C146 C145 1.378 . S
C146 C147 1.396 . S
C147 H132 0.940 . S
C147 C142 1.391 . S
C147 C146 1.396 . S
C148 P128 1.803 . S
C148 C149 1.378 . S
C148 C153 1.400 . S
C149 H133 0.939 . S
C149 C148 1.378 . S
C149 C150 1.361 . S
C150 H134 0.942 . S
C150 C149 1.361 . S
C150 C151 1.369 . S
C151 C150 1.369 . S
C151 C152 1.404 . S
C152 H135 0.940 . S
C152 C151 1.404 . S
C152 C153 1.389 . S
C153 H136 0.939 . S
C153 C148 1.400 . S
C153 C152 1.389 . S
C154 P128 1.819 . S
C154 C155 1.391 . S
C154 C159 1.391 . S
C155 H137 0.941 . S
C155 C154 1.391 . S
C155 C156 1.396 . S
C156 H140 0.939 . S
C156 C155 1.396 . S
C156 C157 1.397 . S
C157 C156 1.397 . S
C157 C158 1.385 . S
C158 H141 0.940 . S
C158 C157 1.385 . S
C158 C159 1.388 . S
C159 H138 0.939 . S
C159 C154 1.391 . S
C159 C158 1.388 . S
P160 O171 1.490 . S
P160 C174 1.812 . S
P160 C180 1.803 . S
P160 C186 1.819 . S
H161 C175 0.941 . S
H162 C176 0.939 . S
H163 C178 0.940 . S
H164 C179 0.940 . S
H165 C181 0.939 . S
H166 C182 0.942 . S
H167 C184 0.940 . S
H168 C185 0.939 . S
H169 C187 0.941 . S
H170 C191 0.939 . S
O171 P160 1.490 . S
H172 C188 0.939 . S
H173 C190 0.940 . S
C174 P160 1.812 . S
C174 C175 1.389 . S
C174 C179 1.391 . S
C175 H161 0.941 . S
C175 C174 1.389 . S
C175 C176 1.397 . S
C176 H162 0.939 . S
C176 C175 1.397 . S
C176 C177 1.378 . S
C177 C176 1.378 . S
C177 C178 1.378 . S
C178 H163 0.940 . S
C178 C177 1.378 . S
C178 C179 1.396 . S
C179 H164 0.940 . S
C179 C174 1.391 . S
C179 C178 1.396 . S
C180 P160 1.803 . S
C180 C181 1.378 . S
C180 C185 1.400 . S
C181 H165 0.939 . S
C181 C180 1.378 . S
C181 C182 1.361 . S
C182 H166 0.942 . S
C182 C181 1.361 . S
C182 C183 1.369 . S
C183 C182 1.369 . S
C183 C184 1.404 . S
C184 H167 0.940 . S
C184 C183 1.404 . S
C184 C185 1.389 . S
C185 H168 0.939 . S
C185 C180 1.400 . S
C185 C184 1.389 . S
C186 P160 1.819 . S
C186 C187 1.391 . S
C186 C191 1.391 . S
C187 H169 0.941 . S
C187 C186 1.391 . S
C187 C188 1.396 . S
C188 H172 0.939 . S
C188 C187 1.396 . S
C188 C189 1.397 . S
C189 C188 1.397 . S
C189 C190 1.385 . S
C190 H173 0.940 . S
C190 C189 1.385 . S
C190 C191 1.388 . S
C191 H170 0.939 . S
C191 C186 1.391 . S
C191 C190 1.388 . S
P192 O203 1.490 . S
P192 C206 1.812 . S
P192 C212 1.803 . S
P192 C218 1.819 . S
H193 C207 0.941 . S
H194 C208 0.939 . S
H195 C210 0.940 . S
H196 C211 0.940 . S
H197 C213 0.939 . S
H198 C214 0.942 . S
H199 C216 0.940 . S
H200 C217 0.939 . S
H201 C219 0.941 . S
H202 C223 0.939 . S
O203 P192 1.490 . S
H204 C220 0.939 . S
H205 C222 0.940 . S
C206 P192 1.812 . S
C206 C207 1.389 . S
C206 C211 1.391 . S
C207 H193 0.941 . S
C207 C206 1.389 . S
C207 C208 1.397 . S
C208 H194 0.939 . S
C208 C207 1.397 . S
C208 C209 1.378 . S
C209 C208 1.378 . S
C209 C210 1.378 . S
C210 H195 0.940 . S
C210 C209 1.378 . S
C210 C211 1.396 . S
C211 H196 0.940 . S
C211 C206 1.391 . S
C211 C210 1.396 . S
C212 P192 1.803 . S
C212 C213 1.378 . S
C212 C217 1.400 . S
C213 H197 0.939 . S
C213 C212 1.378 . S
C213 C214 1.361 . S
C214 H198 0.942 . S
C214 C213 1.361 . S
C214 C215 1.369 . S
C215 C214 1.369 . S
C215 C216 1.404 . S
C216 H199 0.940 . S
C216 C215 1.404 . S
C216 C217 1.389 . S
C217 H200 0.939 . S
C217 C212 1.400 . S
C217 C216 1.389 . S
C218 P192 1.819 . S
C218 C219 1.391 . S
C218 C223 1.391 . S
C219 H201 0.941 . S
C219 C218 1.391 . S
C219 C220 1.396 . S
C220 H204 0.939 . S
C220 C219 1.396 . S
C220 C221 1.397 . S
C221 C220 1.397 . S
C221 C222 1.385 . S
C222 H205 0.940 . S
C222 C221 1.385 . S
C222 C223 1.388 . S
C223 H202 0.939 . S
C223 C218 1.391 . S
C223 C222 1.388 . S
P224 O235 1.490 . S
P224 C238 1.812 . S
P224 C244 1.803 . S
P224 C250 1.819 . S
H225 C239 0.941 . S
H226 C240 0.939 . S
H227 C242 0.940 . S
H228 C243 0.940 . S
H229 C245 0.939 . S
H230 C246 0.942 . S
H231 C248 0.940 . S
H232 C249 0.939 . S
H233 C251 0.941 . S
H234 C255 0.939 . S
O235 P224 1.490 . S
H236 C252 0.939 . S
H237 C254 0.940 . S
C238 P224 1.812 . S
C238 C239 1.389 . S
C238 C243 1.391 . S
C239 H225 0.941 . S
C239 C238 1.389 . S
C239 C240 1.397 . S
C240 H226 0.939 . S
C240 C239 1.397 . S
C240 C241 1.378 . S
C241 C240 1.378 . S
C241 C242 1.378 . S
C242 H227 0.940 . S
C242 C241 1.378 . S
C242 C243 1.396 . S
C243 H228 0.940 . S
C243 C238 1.391 . S
C243 C242 1.396 . S
C244 P224 1.803 . S
C244 C245 1.378 . S
C244 C249 1.400 . S
C245 H229 0.939 . S
C245 C244 1.378 . S
C245 C246 1.361 . S
C246 H230 0.942 . S
C246 C245 1.361 . S
C246 C247 1.369 . S
C247 C246 1.369 . S
C247 C248 1.404 . S
C248 H231 0.940 . S
C248 C247 1.404 . S
C248 C249 1.389 . S
C249 H232 0.939 . S
C249 C244 1.400 . S
C249 C248 1.389 . S
C250 P224 1.819 . S
C250 C251 1.391 . S
C250 C255 1.391 . S
C251 H233 0.941 . S
C251 C250 1.391 . S
C251 C252 1.396 . S
C252 H236 0.939 . S
C252 C251 1.396 . S
C252 C253 1.397 . S
C253 C252 1.397 . S
C253 C254 1.385 . S
C254 H237 0.940 . S
C254 C253 1.385 . S
C254 C255 1.388 . S
C255 H234 0.939 . S
C255 C250 1.391 . S
C255 C254 1.388 . S
Gd256 C259 2.818 . S
Gd256 O276 2.377 . S
Gd256 O278 2.448 . S
Gd256 O279 2.506 . S
Gd256 O280 2.435 1_545 S
Gd256 O281 2.717 1_545 S
Gd256 O283 2.395 1_445 S
Gd256 O287 2.327 1_455 S
Gd257 C268 2.823 . S
Gd257 O277 2.390 1_665 S
Gd257 O281 2.330 1_655 S
Gd257 O282 2.381 . S
Gd257 O284 2.451 . S
Gd257 O285 2.511 . S
Gd257 O286 2.432 1_565 S
Gd257 O287 2.715 1_565 S
C258 O276 1.240 . S
C258 O277 1.240 . S
C259 Gd256 2.818 . S
C259 C260 1.510 . S
C259 O278 1.249 . S
C259 O279 1.252 . S
C260 C259 1.510 . S
C260 C261 1.404 . S
C260 C262 1.352 . S
C261 C260 1.404 . S
C261 C265 1.389 . S
C261 H288 0.930 . S
C262 C260 1.352 . S
C262 C264 1.374 . S
C262 H289 0.931 . S
C263 C264 1.359 . S
C263 C265 1.364 . S
C264 C262 1.374 . S
C264 C263 1.359 . S
C264 H290 0.931 . S
C265 C261 1.389 . S
C265 C263 1.364 . S
C265 H291 0.931 . S
C266 O280 1.256 . S
C266 O281 1.257 . S
C267 O282 1.240 . S
C267 O283 1.240 . S
C268 Gd257 2.823 . S
C268 C269 1.510 . S
C268 O284 1.249 . S
C268 O285 1.252 . S
C269 C268 1.510 . S
C269 C270 1.404 . S
C269 C271 1.352 . S
C270 C269 1.404 . S
C270 C274 1.389 . S
C270 H292 0.930 . S
C271 C269 1.352 . S
C271 C273 1.374 . S
C271 H293 0.931 . S
C272 C273 1.359 . S
C272 C274 1.364 . S
C273 C271 1.374 . S
C273 C272 1.359 . S
C273 H294 0.931 . S
C274 C270 1.389 . S
C274 C272 1.364 . S
C274 H295 0.931 . S
C275 O286 1.256 . S
C275 O287 1.257 . S
O276 Gd256 2.377 . S
O276 C258 1.240 . S
O277 Gd257 2.390 1_445 S
O277 C258 1.240 . S
O278 Gd256 2.448 . S
O278 C259 1.249 . S
O279 Gd256 2.506 . S
O279 C259 1.252 . S
O280 Gd256 2.435 1_565 S
O280 C266 1.256 . S
O281 Gd256 2.717 1_565 S
O281 Gd257 2.330 1_455 S
O281 C266 1.257 . S
O282 Gd257 2.381 . S
O282 C267 1.240 . S
O283 Gd256 2.395 1_665 S
O283 C267 1.240 . S
O284 Gd257 2.451 . S
O284 C268 1.249 . S
O285 Gd257 2.511 . S
O285 C268 1.252 . S
O286 Gd257 2.432 1_545 S
O286 C275 1.256 . S
O287 Gd256 2.327 1_655 S
O287 Gd257 2.715 1_545 S
O287 C275 1.257 . S
H288 C261 0.930 . S
H289 C262 0.931 . S
H290 C264 0.931 . S
H291 C265 0.931 . S
H292 C270 0.930 . S
H293 C271 0.931 . S
H294 C273 0.931 . S
H295 C274 0.931 . S
Gd296 C299 2.818 . S
Gd296 O316 2.377 . S
Gd296 O318 2.448 . S
Gd296 O319 2.506 . S
Gd296 O320 2.435 1_545 S
Gd296 O321 2.717 1_545 S
Gd296 O323 2.395 1_544 S
Gd296 O327 2.327 1_554 S
Gd297 C308 2.818 1_545 S
Gd297 O317 2.395 1_556 S
Gd297 O321 2.327 1_546 S
Gd297 O322 2.377 1_545 S
Gd297 O324 2.451 . S
Gd297 O325 2.506 1_545 S
Gd297 O326 2.435 . S
Gd297 O327 2.717 . S
C298 O316 1.240 . S
C298 O317 1.240 . S
C299 Gd296 2.818 . S
C299 C300 1.510 . S
C299 O318 1.249 . S
C299 O319 1.252 . S
C300 C299 1.510 . S
C300 C301 1.404 . S
C300 C302 1.352 . S
C301 C300 1.404 . S
C301 C305 1.389 . S
C301 H328 0.930 . S
C302 C300 1.352 . S
C302 C304 1.374 . S
C302 H329 0.931 . S
C303 C304 1.359 . S
C303 C305 1.364 . S
C304 C302 1.374 . S
C304 C303 1.359 . S
C304 H330 0.931 . S
C305 C301 1.389 . S
C305 C303 1.364 . S
C305 H331 0.931 . S
C306 O320 1.256 . S
C306 O321 1.257 . S
C307 O322 1.240 . S
C307 O323 1.240 . S
C308 Gd297 2.818 1_565 S
C308 C309 1.510 . S
C308 O324 1.221 1_565 S
C308 O325 1.252 . S
C309 C308 1.510 . S
C309 C310 1.404 . S
C309 C311 1.352 . S
C310 C309 1.404 . S
C310 C314 1.389 . S
C310 H332 0.930 . S
C311 C309 1.352 . S
C311 C313 1.374 . S
C311 H333 0.931 . S
C312 C313 1.359 . S
C312 C314 1.364 . S
C313 C311 1.374 . S
C313 C312 1.359 . S
C313 H334 0.931 . S
C314 C310 1.389 . S
C314 C312 1.364 . S
C314 H335 0.931 . S
C315 O326 1.256 . S
C315 O327 1.257 . S
O316 Gd296 2.377 . S
O316 C298 1.240 . S
O317 Gd297 2.395 1_554 S
O317 C298 1.240 . S
O318 Gd296 2.448 . S
O318 C299 1.249 . S
O319 Gd296 2.506 . S
O319 C299 1.252 . S
O320 Gd296 2.435 1_565 S
O320 C306 1.256 . S
O321 Gd296 2.717 1_565 S
O321 Gd297 2.327 1_564 S
O321 C306 1.257 . S
O322 Gd297 2.377 1_565 S
O322 C307 1.240 . S
O323 Gd296 2.395 1_566 S
O323 C307 1.240 . S
O324 Gd297 2.451 . S
O324 C308 1.221 1_545 S
O325 Gd297 2.506 1_565 S
O325 C308 1.252 . S
O326 Gd297 2.435 . S
O326 C315 1.256 . S
O327 Gd296 2.327 1_556 S
O327 Gd297 2.717 . S
O327 C315 1.257 . S
H328 C301 0.930 . S
H329 C302 0.931 . S
H330 C304 0.931 . S
H331 C305 0.931 . S
H332 C310 0.930 . S
H333 C311 0.931 . S
H334 C313 0.931 . S
H335 C314 0.931 . S
Gd336 C339 2.818 . S
Gd336 O356 2.377 . S
Gd336 O358 2.448 . S
Gd336 O359 2.506 . S
Gd336 O360 2.435 . S
Gd336 O361 2.717 . S
Gd336 O363 2.395 . S
Gd336 O367 2.327 . S
Gd337 C348 2.818 . S
Gd337 O357 2.395 . S
Gd337 O361 2.327 . S
Gd337 O362 2.377 . S
Gd337 O364 2.448 . S
Gd337 O365 2.506 . S
Gd337 O366 2.435 . S
Gd337 O367 2.717 . S
C338 O356 1.240 . S
C338 O357 1.240 . S
C339 Gd336 2.818 . S
C339 C340 1.510 . S
C339 O358 1.249 . S
C339 O359 1.252 . S
C340 C339 1.510 . S
C340 C341 1.404 . S
C340 C342 1.352 . S
C341 C340 1.404 . S
C341 C345 1.389 . S
C341 H368 0.930 . S
C342 C340 1.352 . S
C342 C344 1.374 . S
C342 H369 0.931 . S
C343 C344 1.359 . S
C343 C345 1.364 . S
C344 C342 1.374 . S
C344 C343 1.359 . S
C344 H370 0.931 . S
C345 C341 1.389 . S
C345 C343 1.364 . S
C345 H371 0.931 . S
C346 O360 1.256 . S
C346 O361 1.257 . S
C347 O362 1.240 . S
C347 O363 1.240 . S
C348 Gd337 2.818 . S
C348 C349 1.510 . S
C348 O364 1.249 . S
C348 O365 1.252 . S
C349 C348 1.510 . S
C349 C350 1.404 . S
C349 C351 1.352 . S
C350 C349 1.404 . S
C350 C354 1.389 . S
C350 H372 0.930 . S
C351 C349 1.352 . S
C351 C353 1.374 . S
C351 H373 0.931 . S
C352 C353 1.359 . S
C352 C354 1.364 . S
C353 C351 1.374 . S
C353 C352 1.359 . S
C353 H374 0.931 . S
C354 C350 1.389 . S
C354 C352 1.364 . S
C354 H375 0.931 . S
C355 O366 1.256 . S
C355 O367 1.257 . S
O356 Gd336 2.377 . S
O356 C338 1.240 . S
O357 Gd337 2.395 . S
O357 C338 1.240 . S
O358 Gd336 2.448 . S
O358 C339 1.249 . S
O359 Gd336 2.506 . S
O359 C339 1.252 . S
O360 Gd336 2.435 . S
O360 C346 1.256 . S
O361 Gd336 2.717 . S
O361 Gd337 2.327 . S
O361 C346 1.257 . S
O362 Gd337 2.377 . S
O362 C347 1.240 . S
O363 Gd336 2.395 . S
O363 C347 1.240 . S
O364 Gd337 2.448 . S
O364 C348 1.249 . S
O365 Gd337 2.506 . S
O365 C348 1.252 . S
O366 Gd337 2.435 . S
O366 C355 1.256 . S
O367 Gd336 2.327 . S
O367 Gd337 2.717 . S
O367 C355 1.257 . S
H368 C341 0.930 . S
H369 C342 0.931 . S
H370 C344 0.931 . S
H371 C345 0.931 . S
H372 C350 0.930 . S
H373 C351 0.931 . S
H374 C353 0.931 . S
H375 C354 0.931 . S
Gd376 C379 2.818 . S
Gd376 O396 2.377 . S
Gd376 O398 2.448 . S
Gd376 O399 2.506 . S
Gd376 O400 2.435 1_455 S
Gd376 O401 2.717 1_455 S
Gd376 O403 2.400 1_455 S
Gd376 O407 2.327 1_554 S
Gd377 C388 2.818 . S
Gd377 O397 2.395 1_656 S
Gd377 O401 2.327 1_556 S
Gd377 O402 2.377 . S
Gd377 O404 2.448 . S
Gd377 O405 2.506 . S
Gd377 O406 2.435 1_655 S
Gd377 O407 2.717 1_655 S
C378 O396 1.240 . S
C378 O397 1.240 . S
C379 Gd376 2.818 . S
C379 C380 1.510 . S
C379 O398 1.249 . S
C379 O399 1.252 . S
C380 C379 1.510 . S
C380 C381 1.404 . S
C380 C382 1.352 . S
C381 C380 1.404 . S
C381 C385 1.389 . S
C381 H408 0.930 . S
C382 C380 1.352 . S
C382 C384 1.374 . S
C382 H409 0.931 . S
C383 C384 1.359 . S
C383 C385 1.364 . S
C384 C382 1.374 . S
C384 C383 1.359 . S
C384 H410 0.931 . S
C385 C381 1.389 . S
C385 C383 1.364 . S
C385 H411 0.931 . S
C386 O400 1.256 . S
C386 O401 1.257 . S
C387 O402 1.240 . S
C387 O403 1.233 1_556 S
C388 Gd377 2.818 . S
C388 C389 1.510 . S
C388 O404 1.249 . S
C388 O405 1.252 . S
C389 C388 1.510 . S
C389 C390 1.404 . S
C389 C391 1.352 . S
C390 C389 1.404 . S
C390 C394 1.389 . S
C390 H412 0.930 . S
C391 C389 1.352 . S
C391 C393 1.374 . S
C391 H413 0.931 . S
C392 C393 1.359 . S
C392 C394 1.364 . S
C393 C391 1.374 . S
C393 C392 1.359 . S
C393 H414 0.931 . S
C394 C390 1.389 . S
C394 C392 1.364 . S
C394 H415 0.931 . S
C395 O406 1.256 . S
C395 O407 1.257 . S
O396 Gd376 2.377 . S
O396 C378 1.240 . S
O397 Gd377 2.395 1_454 S
O397 C378 1.240 . S
O398 Gd376 2.448 . S
O398 C379 1.249 . S
O399 Gd376 2.506 . S
O399 C379 1.252 . S
O400 Gd376 2.435 1_655 S
O400 C386 1.256 . S
O401 Gd376 2.717 1_655 S
O401 Gd377 2.327 1_554 S
O401 C386 1.257 . S
O402 Gd377 2.377 . S
O402 C387 1.240 . S
O403 Gd376 2.400 1_655 S
O403 C387 1.233 1_554 S
O404 Gd377 2.448 . S
O404 C388 1.249 . S
O405 Gd377 2.506 . S
O405 C388 1.252 . S
O406 Gd377 2.435 1_455 S
O406 C395 1.256 . S
O407 Gd376 2.327 1_556 S
O407 Gd377 2.717 1_455 S
O407 C395 1.257 . S
H408 C381 0.930 . S
H409 C382 0.931 . S
H410 C384 0.931 . S
H411 C385 0.931 . S
H412 C390 0.930 . S
H413 C391 0.931 . S
H414 C393 0.931 . S
H415 C394 0.931 . S
C416 C417 1.349 . S
C416 C418 1.327 . S
C416 H441 0.950 . S
C417 C416 1.349 . S
C417 C433 1.349 . S
C418 C416 1.327 . S
C418 C437 1.429 . S
C418 H442 0.950 . S
C419 C436 1.574 . S
C419 C438 1.368 . S
C419 H443 0.949 . S
H420 C424 0.949 . S
C421 C422 1.349 . S
C421 C423 1.327 . S
C421 H444 0.950 . S
C422 C421 1.349 . S
C422 C434 1.349 . S
C423 C421 1.327 . S
C423 C439 1.429 . S
C423 H445 0.950 . S
C424 H420 0.949 . S
C424 C432 1.574 . S
C424 C440 1.368 . S
H425 C433 0.950 . S
H426 C431 0.950 . S
H427 C432 0.949 . S
H428 C434 0.950 . S
H429 C435 0.950 . S
H430 C436 0.949 . S
C431 H426 0.950 . S
C431 C433 1.327 . S
C431 C437 1.429 . S
C432 C424 1.574 . S
C432 H427 0.949 . S
C432 C438 1.368 . S
C433 C417 1.349 . S
C433 H425 0.950 . S
C433 C431 1.327 . S
C434 C422 1.349 . S
C434 H428 0.950 . S
C434 C435 1.327 . S
C435 H429 0.950 . S
C435 C434 1.327 . S
C435 C439 1.429 . S
C436 C419 1.574 . S
C436 H430 0.949 . S
C436 C440 1.368 . S
C437 C418 1.429 . S
C437 C431 1.429 . S
C437 C438 1.523 . S
C438 C419 1.368 . S
C438 C432 1.368 . S
C438 C437 1.523 . S
C439 C423 1.429 . S
C439 C435 1.429 . S
C439 C440 1.523 . S
C440 C424 1.368 . S
C440 C436 1.368 . S
C440 C439 1.523 . S
H441 C416 0.950 . S
H442 C418 0.950 . S
H443 C419 0.949 . S
H444 C421 0.950 . S
H445 C423 0.950 . S
C446 C447 1.349 . S
C446 C448 1.327 . S
C446 H471 0.950 . S
C447 C446 1.349 . S
C447 C463 1.349 . S
C448 C446 1.327 . S
C448 C467 1.429 . S
C448 H472 0.950 . S
C449 C466 1.574 . S
C449 C468 1.368 . S
C449 H473 0.949 . S
H450 C454 0.949 . S
C451 C452 1.349 . S
C451 C453 1.327 . S
C451 H474 0.950 . S
C452 C451 1.349 . S
C452 C464 1.349 . S
C453 C451 1.327 . S
C453 C469 1.429 . S
C453 H475 0.950 . S
C454 H450 0.949 . S
C454 C462 1.574 . S
C454 C470 1.368 . S
H455 C463 0.950 . S
H456 C461 0.950 . S
H457 C462 0.949 . S
H458 C464 0.950 . S
H459 C465 0.950 . S
H460 C466 0.949 . S
C461 H456 0.950 . S
C461 C463 1.327 . S
C461 C467 1.429 . S
C462 C454 1.574 . S
C462 H457 0.949 . S
C462 C468 1.368 . S
C463 C447 1.349 . S
C463 H455 0.950 . S
C463 C461 1.327 . S
C464 C452 1.349 . S
C464 H458 0.950 . S
C464 C465 1.327 . S
C465 H459 0.950 . S
C465 C464 1.327 . S
C465 C469 1.429 . S
C466 C449 1.574 . S
C466 H460 0.949 . S
C466 C470 1.368 . S
C467 C448 1.429 . S
C467 C461 1.429 . S
C467 C468 1.523 . S
C468 C449 1.368 . S
C468 C462 1.368 . S
C468 C467 1.523 . S
C469 C453 1.429 . S
C469 C465 1.429 . S
C469 C470 1.523 . S
C470 C454 1.368 . S
C470 C466 1.368 . S
C470 C469 1.523 . S
H471 C446 0.950 . S
H472 C448 0.950 . S
H473 C449 0.949 . S
H474 C451 0.950 . S
H475 C453 0.950 . S
C476 C477 1.349 . S
C476 C478 1.327 . S
C476 H501 0.950 . S
C477 C476 1.349 . S
C477 C493 1.349 . S
C478 C476 1.327 . S
C478 C497 1.429 . S
C478 H502 0.950 . S
C479 C496 1.574 . S
C479 C498 1.368 . S
C479 H503 0.949 . S
H480 C484 0.949 . S
C481 C482 1.349 . S
C481 C483 1.327 . S
C481 H504 0.950 . S
C482 C481 1.349 . S
C482 C494 1.349 . S
C483 C481 1.327 . S
C483 C499 1.429 . S
C483 H505 0.950 . S
C484 H480 0.949 . S
C484 C492 1.574 . S
C484 C500 1.368 . S
H485 C493 0.950 . S
H486 C491 0.950 . S
H487 C492 0.949 . S
H488 C494 0.950 . S
H489 C495 0.950 . S
H490 C496 0.949 . S
C491 H486 0.950 . S
C491 C493 1.327 . S
C491 C497 1.429 . S
C492 C484 1.574 . S
C492 H487 0.949 . S
C492 C498 1.368 . S
C493 C477 1.349 . S
C493 H485 0.950 . S
C493 C491 1.327 . S
C494 C482 1.349 . S
C494 H488 0.950 . S
C494 C495 1.327 . S
C495 H489 0.950 . S
C495 C494 1.327 . S
C495 C499 1.429 . S
C496 C479 1.574 . S
C496 H490 0.949 . S
C496 C500 1.368 . S
C497 C478 1.429 . S
C497 C491 1.429 . S
C497 C498 1.523 . S
C498 C479 1.368 . S
C498 C492 1.368 . S
C498 C497 1.523 . S
C499 C483 1.429 . S
C499 C495 1.429 . S
C499 C500 1.523 . S
C500 C484 1.368 . S
C500 C496 1.368 . S
C500 C499 1.523 . S
H501 C476 0.950 . S
H502 C478 0.950 . S
H503 C479 0.949 . S
H504 C481 0.950 . S
H505 C483 0.950 . S
C506 C507 1.349 . S
C506 C508 1.327 . S
C506 H531 0.950 . S
C507 C506 1.349 . S
C507 C523 1.349 . S
C508 C506 1.327 . S
C508 C527 1.429 . S
C508 H532 0.950 . S
C509 C526 1.574 . S
C509 C528 1.368 . S
C509 H533 0.949 . S
H510 C514 0.949 . S
C511 C512 1.349 . S
C511 C513 1.327 . S
C511 H534 0.950 . S
C512 C511 1.349 . S
C512 C524 1.349 . S
C513 C511 1.327 . S
C513 C529 1.429 . S
C513 H535 0.950 . S
C514 H510 0.949 . S
C514 C522 1.574 . S
C514 C530 1.368 . S
H515 C523 0.950 . S
H516 C521 0.950 . S
H517 C522 0.949 . S
H518 C524 0.950 . S
H519 C525 0.950 . S
H520 C526 0.949 . S
C521 H516 0.950 . S
C521 C523 1.327 . S
C521 C527 1.429 . S
C522 C514 1.574 . S
C522 H517 0.949 . S
C522 C528 1.368 . S
C523 C507 1.349 . S
C523 H515 0.950 . S
C523 C521 1.327 . S
C524 C512 1.349 . S
C524 H518 0.950 . S
C524 C525 1.327 . S
C525 H519 0.950 . S
C525 C524 1.327 . S
C525 C529 1.429 . S
C526 C509 1.574 . S
C526 H520 0.949 . S
C526 C530 1.368 . S
C527 C508 1.429 . S
C527 C521 1.429 . S
C527 C528 1.523 . S
C528 C509 1.368 . S
C528 C522 1.368 . S
C528 C527 1.523 . S
C529 C513 1.429 . S
C529 C525 1.429 . S
C529 C530 1.523 . S
C530 C514 1.368 . S
C530 C526 1.368 . S
C530 C529 1.523 . S
H531 C506 0.950 . S
H532 C508 0.950 . S
H533 C509 0.949 . S
H534 C511 0.950 . S
H535 C513 0.950 . S
C536 C537 1.349 . S
C536 C538 1.327 . S
C536 H561 0.950 . S
C537 C536 1.349 . S
C537 C553 1.349 . S
C538 C536 1.327 . S
C538 C557 1.429 . S
C538 H562 0.950 . S
C539 C556 1.574 . S
C539 C558 1.368 . S
C539 H563 0.949 . S
H540 C544 0.949 . S
C541 C542 1.349 . S
C541 C543 1.327 . S
C541 H564 0.950 . S
C542 C541 1.349 . S
C542 C554 1.349 . S
C543 C541 1.327 . S
C543 C559 1.429 . S
C543 H565 0.950 . S
C544 H540 0.949 . S
C544 C552 1.574 . S
C544 C560 1.368 . S
H545 C553 0.950 . S
H546 C551 0.950 . S
H547 C552 0.949 . S
H548 C554 0.950 . S
H549 C555 0.950 . S
H550 C556 0.949 . S
C551 H546 0.950 . S
C551 C553 1.327 . S
C551 C557 1.429 . S
C552 C544 1.574 . S
C552 H547 0.949 . S
C552 C558 1.368 . S
C553 C537 1.349 . S
C553 H545 0.950 . S
C553 C551 1.327 . S
C554 C542 1.349 . S
C554 H548 0.950 . S
C554 C555 1.327 . S
C555 H549 0.950 . S
C555 C554 1.327 . S
C555 C559 1.429 . S
C556 C539 1.574 . S
C556 H550 0.949 . S
C556 C560 1.368 . S
C557 C538 1.429 . S
C557 C551 1.429 . S
C557 C558 1.523 . S
C558 C539 1.368 . S
C558 C552 1.368 . S
C558 C557 1.523 . S
C559 C543 1.429 . S
C559 C555 1.429 . S
C559 C560 1.523 . S
C560 C544 1.368 . S
C560 C556 1.368 . S
C560 C559 1.523 . S
H561 C536 0.950 . S
H562 C538 0.950 . S
H563 C539 0.949 . S
H564 C541 0.950 . S
H565 C543 0.950 . S
C566 C567 1.349 . S
C566 C568 1.327 . S
C566 H591 0.950 . S
C567 C566 1.349 . S
C567 C583 1.349 . S
C568 C566 1.327 . S
C568 C587 1.429 . S
C568 H592 0.950 . S
C569 C586 1.574 . S
C569 C588 1.368 . S
C569 H593 0.949 . S
H570 C574 0.949 . S
C571 C572 1.349 . S
C571 C573 1.327 . S
C571 H594 0.950 . S
C572 C571 1.349 . S
C572 C584 1.349 . S
C573 C571 1.327 . S
C573 C589 1.429 . S
C573 H595 0.950 . S
C574 H570 0.949 . S
C574 C582 1.574 . S
C574 C590 1.368 . S
H575 C583 0.950 . S
H576 C581 0.950 . S
H577 C582 0.949 . S
H578 C584 0.950 . S
H579 C585 0.950 . S
H580 C586 0.949 . S
C581 H576 0.950 . S
C581 C583 1.327 . S
C581 C587 1.429 . S
C582 C574 1.574 . S
C582 H577 0.949 . S
C582 C588 1.368 . S
C583 C567 1.349 . S
C583 H575 0.950 . S
C583 C581 1.327 . S
C584 C572 1.349 . S
C584 H578 0.950 . S
C584 C585 1.327 . S
C585 H579 0.950 . S
C585 C584 1.327 . S
C585 C589 1.429 . S
C586 C569 1.574 . S
C586 H580 0.949 . S
C586 C590 1.368 . S
C587 C568 1.429 . S
C587 C581 1.429 . S
C587 C588 1.523 . S
C588 C569 1.368 . S
C588 C582 1.368 . S
C588 C587 1.523 . S
C589 C573 1.429 . S
C589 C585 1.429 . S
C589 C590 1.523 . S
C590 C574 1.368 . S
C590 C586 1.368 . S
C590 C589 1.523 . S
H591 C566 0.950 . S
H592 C568 0.950 . S
H593 C569 0.949 . S
H594 C571 0.950 . S
H595 C573 0.950 . S
C596 C597 1.349 . S
C596 C598 1.327 . S
C596 H621 0.950 . S
C597 C596 1.349 . S
C597 C613 1.349 . S
C598 C596 1.327 . S
C598 C617 1.429 . S
C598 H622 0.950 . S
C599 C616 1.574 . S
C599 C618 1.368 . S
C599 H623 0.949 . S
H600 C604 0.949 . S
C601 C602 1.349 . S
C601 C603 1.327 . S
C601 H624 0.950 . S
C602 C601 1.349 . S
C602 C614 1.349 . S
C603 C601 1.327 . S
C603 C619 1.429 . S
C603 H625 0.950 . S
C604 H600 0.949 . S
C604 C612 1.574 . S
C604 C620 1.368 . S
H605 C613 0.950 . S
H606 C611 0.950 . S
H607 C612 0.949 . S
H608 C614 0.950 . S
H609 C615 0.950 . S
H610 C616 0.949 . S
C611 H606 0.950 . S
C611 C613 1.327 . S
C611 C617 1.429 . S
C612 C604 1.574 . S
C612 H607 0.949 . S
C612 C618 1.368 . S
C613 C597 1.349 . S
C613 H605 0.950 . S
C613 C611 1.327 . S
C614 C602 1.349 . S
C614 H608 0.950 . S
C614 C615 1.327 . S
C615 H609 0.950 . S
C615 C614 1.327 . S
C615 C619 1.429 . S
C616 C599 1.574 . S
C616 H610 0.949 . S
C616 C620 1.368 . S
C617 C598 1.429 . S
C617 C611 1.429 . S
C617 C618 1.523 . S
C618 C599 1.368 . S
C618 C612 1.368 . S
C618 C617 1.523 . S
C619 C603 1.429 . S
C619 C615 1.429 . S
C619 C620 1.523 . S
C620 C604 1.368 . S
C620 C616 1.368 . S
C620 C619 1.523 . S
H621 C596 0.950 . S
H622 C598 0.950 . S
H623 C599 0.949 . S
H624 C601 0.950 . S
H625 C603 0.950 . S
C626 C627 1.349 . S
C626 C628 1.327 . S
C626 H651 0.950 . S
C627 C626 1.349 . S
C627 C643 1.349 . S
C628 C626 1.327 . S
C628 C647 1.429 . S
C628 H652 0.950 . S
C629 C646 1.574 . S
C629 C648 1.368 . S
C629 H653 0.949 . S
H630 C634 0.949 . S
C631 C632 1.349 . S
C631 C633 1.327 . S
C631 H654 0.950 . S
C632 C631 1.349 . S
C632 C644 1.349 . S
C633 C631 1.327 . S
C633 C649 1.429 . S
C633 H655 0.950 . S
C634 H630 0.949 . S
C634 C642 1.574 . S
C634 C650 1.368 . S
H635 C643 0.950 . S
H636 C641 0.950 . S
H637 C642 0.949 . S
H638 C644 0.950 . S
H639 C645 0.950 . S
H640 C646 0.949 . S
C641 H636 0.950 . S
C641 C643 1.327 . S
C641 C647 1.429 . S
C642 C634 1.574 . S
C642 H637 0.949 . S
C642 C648 1.368 . S
C643 C627 1.349 . S
C643 H635 0.950 . S
C643 C641 1.327 . S
C644 C632 1.349 . S
C644 H638 0.950 . S
C644 C645 1.327 . S
C645 H639 0.950 . S
C645 C644 1.327 . S
C645 C649 1.429 . S
C646 C629 1.574 . S
C646 H640 0.949 . S
C646 C650 1.368 . S
C647 C628 1.429 . S
C647 C641 1.429 . S
C647 C648 1.523 . S
C648 C629 1.368 . S
C648 C642 1.368 . S
C648 C647 1.523 . S
C649 C633 1.429 . S
C649 C645 1.429 . S
C649 C650 1.523 . S
C650 C634 1.368 . S
C650 C646 1.368 . S
C650 C649 1.523 . S
H651 C626 0.950 . S
H652 C628 0.950 . S
H653 C629 0.949 . S
H654 C631 0.950 . S
H655 C633 0.950 . S
C656 C657 1.349 . S
C656 C658 1.327 . S
C656 H681 0.950 . S
C657 C656 1.349 . S
C657 C673 1.349 . S
C658 C656 1.327 . S
C658 C677 1.429 . S
C658 H682 0.950 . S
C659 C676 1.574 . S
C659 C678 1.368 . S
C659 H683 0.949 . S
H660 C664 0.949 . S
C661 C662 1.349 . S
C661 C663 1.327 . S
C661 H684 0.950 . S
C662 C661 1.349 . S
C662 C674 1.349 . S
C663 C661 1.327 . S
C663 C679 1.429 . S
C663 H685 0.950 . S
C664 H660 0.949 . S
C664 C672 1.574 . S
C664 C680 1.368 . S
H665 C673 0.950 . S
H666 C671 0.950 . S
H667 C672 0.949 . S
H668 C674 0.950 . S
H669 C675 0.950 . S
H670 C676 0.949 . S
C671 H666 0.950 . S
C671 C673 1.327 . S
C671 C677 1.429 . S
C672 C664 1.574 . S
C672 H667 0.949 . S
C672 C678 1.368 . S
C673 C657 1.349 . S
C673 H665 0.950 . S
C673 C671 1.327 . S
C674 C662 1.349 . S
C674 H668 0.950 . S
C674 C675 1.327 . S
C675 H669 0.950 . S
C675 C674 1.327 . S
C675 C679 1.429 . S
C676 C659 1.574 . S
C676 H670 0.949 . S
C676 C680 1.368 . S
C677 C658 1.429 . S
C677 C671 1.429 . S
C677 C678 1.523 . S
C678 C659 1.368 . S
C678 C672 1.368 . S
C678 C677 1.523 . S
C679 C663 1.429 . S
C679 C675 1.429 . S
C679 C680 1.523 . S
C680 C664 1.368 . S
C680 C676 1.368 . S
C680 C679 1.523 . S
H681 C656 0.950 . S
H682 C658 0.950 . S
H683 C659 0.949 . S
H684 C661 0.950 . S
H685 C663 0.950 . S
C686 C687 1.349 . S
C686 C688 1.327 . S
C686 H711 0.950 . S
C687 C686 1.349 . S
C687 C703 1.349 . S
C688 C686 1.327 . S
C688 C707 1.429 . S
C688 H712 0.950 . S
C689 C706 1.574 . S
C689 C708 1.368 . S
C689 H713 0.949 . S
H690 C694 0.949 . S
C691 C692 1.349 . S
C691 C693 1.327 . S
C691 H714 0.950 . S
C692 C691 1.349 . S
C692 C704 1.349 . S
C693 C691 1.327 . S
C693 C709 1.429 . S
C693 H715 0.950 . S
C694 H690 0.949 . S
C694 C702 1.574 . S
C694 C710 1.368 . S
H695 C703 0.950 . S
H696 C701 0.950 . S
H697 C702 0.949 . S
H698 C704 0.950 . S
H699 C705 0.950 . S
H700 C706 0.949 . S
C701 H696 0.950 . S
C701 C703 1.327 . S
C701 C707 1.429 . S
C702 C694 1.574 . S
C702 H697 0.949 . S
C702 C708 1.368 . S
C703 C687 1.349 . S
C703 H695 0.950 . S
C703 C701 1.327 . S
C704 C692 1.349 . S
C704 H698 0.950 . S
C704 C705 1.327 . S
C705 H699 0.950 . S
C705 C704 1.327 . S
C705 C709 1.429 . S
C706 C689 1.574 . S
C706 H700 0.949 . S
C706 C710 1.368 . S
C707 C688 1.429 . S
C707 C701 1.429 . S
C707 C708 1.523 . S
C708 C689 1.368 . S
C708 C702 1.368 . S
C708 C707 1.523 . S
C709 C693 1.429 . S
C709 C705 1.429 . S
C709 C710 1.523 . S
C710 C694 1.368 . S
C710 C706 1.368 . S
C710 C709 1.523 . S
H711 C686 0.950 . S
H712 C688 0.950 . S
H713 C689 0.949 . S
H714 C691 0.950 . S
H715 C693 0.950 . S
C716 C717 1.349 . S
C716 C718 1.327 . S
C716 H741 0.950 . S
C717 C716 1.349 . S
C717 C733 1.349 . S
C718 C716 1.327 . S
C718 C737 1.429 . S
C718 H742 0.950 . S
C719 C736 1.574 . S
C719 C738 1.368 . S
C719 H743 0.949 . S
H720 C724 0.949 . S
C721 C722 1.349 . S
C721 C723 1.327 . S
C721 H744 0.950 . S
C722 C721 1.349 . S
C722 C734 1.349 . S
C723 C721 1.327 . S
C723 C739 1.429 . S
C723 H745 0.950 . S
C724 H720 0.949 . S
C724 C732 1.574 . S
C724 C740 1.368 . S
H725 C733 0.950 . S
H726 C731 0.950 . S
H727 C732 0.949 . S
H728 C734 0.950 . S
H729 C735 0.950 . S
H730 C736 0.949 . S
C731 H726 0.950 . S
C731 C733 1.327 . S
C731 C737 1.429 . S
C732 C724 1.574 . S
C732 H727 0.949 . S
C732 C738 1.368 . S
C733 C717 1.349 . S
C733 H725 0.950 . S
C733 C731 1.327 . S
C734 C722 1.349 . S
C734 H728 0.950 . S
C734 C735 1.327 . S
C735 H729 0.950 . S
C735 C734 1.327 . S
C735 C739 1.429 . S
C736 C719 1.574 . S
C736 H730 0.949 . S
C736 C740 1.368 . S
C737 C718 1.429 . S
C737 C731 1.429 . S
C737 C738 1.523 . S
C738 C719 1.368 . S
C738 C732 1.368 . S
C738 C737 1.523 . S
C739 C723 1.429 . S
C739 C735 1.429 . S
C739 C740 1.523 . S
C740 C724 1.368 . S
C740 C736 1.368 . S
C740 C739 1.523 . S
H741 C716 0.950 . S
H742 C718 0.950 . S
H743 C719 0.949 . S
H744 C721 0.950 . S
H745 C723 0.950 . S
C746 C747 1.349 . S
C746 C748 1.327 . S
C746 H771 0.950 . S
C747 C746 1.349 . S
C747 C763 1.349 . S
C748 C746 1.327 . S
C748 C767 1.429 . S
C748 H772 0.950 . S
C749 C766 1.574 . S
C749 C768 1.368 . S
C749 H773 0.949 . S
H750 C754 0.949 . S
C751 C752 1.349 . S
C751 C753 1.327 . S
C751 H774 0.950 . S
C752 C751 1.349 . S
C752 C764 1.349 . S
C753 C751 1.327 . S
C753 C769 1.429 . S
C753 H775 0.950 . S
C754 H750 0.949 . S
C754 C762 1.574 . S
C754 C770 1.368 . S
H755 C763 0.950 . S
H756 C761 0.950 . S
H757 C762 0.949 . S
H758 C764 0.950 . S
H759 C765 0.950 . S
H760 C766 0.949 . S
C761 H756 0.950 . S
C761 C763 1.327 . S
C761 C767 1.429 . S
C762 C754 1.574 . S
C762 H757 0.949 . S
C762 C768 1.368 . S
C763 C747 1.349 . S
C763 H755 0.950 . S
C763 C761 1.327 . S
C764 C752 1.349 . S
C764 H758 0.950 . S
C764 C765 1.327 . S
C765 H759 0.950 . S
C765 C764 1.327 . S
C765 C769 1.429 . S
C766 C749 1.574 . S
C766 H760 0.949 . S
C766 C770 1.368 . S
C767 C748 1.429 . S
C767 C761 1.429 . S
C767 C768 1.523 . S
C768 C749 1.368 . S
C768 C762 1.368 . S
C768 C767 1.523 . S
C769 C753 1.429 . S
C769 C765 1.429 . S
C769 C770 1.523 . S
C770 C754 1.368 . S
C770 C766 1.368 . S
C770 C769 1.523 . S
H771 C746 0.950 . S
H772 C748 0.950 . S
H773 C749 0.949 . S
H774 C751 0.950 . S
H775 C753 0.950 . S
C776 C777 1.349 . S
C776 C778 1.327 . S
C776 H801 0.950 . S
C777 C776 1.349 . S
C777 C793 1.349 . S
C778 C776 1.327 . S
C778 C797 1.429 . S
C778 H802 0.950 . S
C779 C796 1.574 . S
C779 C798 1.368 . S
C779 H803 0.949 . S
H780 C784 0.949 . S
C781 C782 1.349 . S
C781 C783 1.327 . S
C781 H804 0.950 . S
C782 C781 1.349 . S
C782 C794 1.349 . S
C783 C781 1.327 . S
C783 C799 1.429 . S
C783 H805 0.950 . S
C784 H780 0.949 . S
C784 C792 1.574 . S
C784 C800 1.368 . S
H785 C793 0.950 . S
H786 C791 0.950 . S
H787 C792 0.949 . S
H788 C794 0.950 . S
H789 C795 0.950 . S
H790 C796 0.949 . S
C791 H786 0.950 . S
C791 C793 1.327 . S
C791 C797 1.429 . S
C792 C784 1.574 . S
C792 H787 0.949 . S
C792 C798 1.368 . S
C793 C777 1.349 . S
C793 H785 0.950 . S
C793 C791 1.327 . S
C794 C782 1.349 . S
C794 H788 0.950 . S
C794 C795 1.327 . S
C795 H789 0.950 . S
C795 C794 1.327 . S
C795 C799 1.429 . S
C796 C779 1.574 . S
C796 H790 0.949 . S
C796 C800 1.368 . S
C797 C778 1.429 . S
C797 C791 1.429 . S
C797 C798 1.523 . S
C798 C779 1.368 . S
C798 C792 1.368 . S
C798 C797 1.523 . S
C799 C783 1.429 . S
C799 C795 1.429 . S
C799 C800 1.523 . S
C800 C784 1.368 . S
C800 C796 1.368 . S
C800 C799 1.523 . S
H801 C776 0.950 . S
H802 C778 0.950 . S
H803 C779 0.949 . S
H804 C781 0.950 . S
H805 C783 0.950 . S
C806 C807 1.349 . S
C806 C808 1.327 . S
C806 H831 0.950 . S
C807 C806 1.349 . S
C807 C823 1.349 . S
C808 C806 1.327 . S
C808 C827 1.429 . S
C808 H832 0.950 . S
C809 C826 1.574 . S
C809 C828 1.368 . S
C809 H833 0.949 . S
H810 C814 0.949 . S
C811 C812 1.349 . S
C811 C813 1.327 . S
C811 H834 0.950 . S
C812 C811 1.349 . S
C812 C824 1.349 . S
C813 C811 1.327 . S
C813 C829 1.429 . S
C813 H835 0.950 . S
C814 H810 0.949 . S
C814 C822 1.574 . S
C814 C830 1.368 . S
H815 C823 0.950 . S
H816 C821 0.950 . S
H817 C822 0.949 . S
H818 C824 0.950 . S
H819 C825 0.950 . S
H820 C826 0.949 . S
C821 H816 0.950 . S
C821 C823 1.327 . S
C821 C827 1.429 . S
C822 C814 1.574 . S
C822 H817 0.949 . S
C822 C828 1.368 . S
C823 C807 1.349 . S
C823 H815 0.950 . S
C823 C821 1.327 . S
C824 C812 1.349 . S
C824 H818 0.950 . S
C824 C825 1.327 . S
C825 H819 0.950 . S
C825 C824 1.327 . S
C825 C829 1.429 . S
C826 C809 1.574 . S
C826 H820 0.949 . S
C826 C830 1.368 . S
C827 C808 1.429 . S
C827 C821 1.429 . S
C827 C828 1.523 . S
C828 C809 1.368 . S
C828 C822 1.368 . S
C828 C827 1.523 . S
C829 C813 1.429 . S
C829 C825 1.429 . S
C829 C830 1.523 . S
C830 C814 1.368 . S
C830 C826 1.368 . S
C830 C829 1.523 . S
H831 C806 0.950 . S
H832 C808 0.950 . S
H833 C809 0.949 . S
H834 C811 0.950 . S
H835 C813 0.950 . S
C836 C837 1.349 . S
C836 C838 1.327 . S
C836 H861 0.950 . S
C837 C836 1.349 . S
C837 C853 1.349 . S
C838 C836 1.327 . S
C838 C857 1.429 . S
C838 H862 0.950 . S
C839 C856 1.574 . S
C839 C858 1.368 . S
C839 H863 0.949 . S
H840 C844 0.949 . S
C841 C842 1.349 . S
C841 C843 1.327 . S
C841 H864 0.950 . S
C842 C841 1.349 . S
C842 C854 1.349 . S
C843 C841 1.327 . S
C843 C859 1.429 . S
C843 H865 0.950 . S
C844 H840 0.949 . S
C844 C852 1.574 . S
C844 C860 1.368 . S
H845 C853 0.950 . S
H846 C851 0.950 . S
H847 C852 0.949 . S
H848 C854 0.950 . S
H849 C855 0.950 . S
H850 C856 0.949 . S
C851 H846 0.950 . S
C851 C853 1.327 . S
C851 C857 1.429 . S
C852 C844 1.574 . S
C852 H847 0.949 . S
C852 C858 1.368 . S
C853 C837 1.349 . S
C853 H845 0.950 . S
C853 C851 1.327 . S
C854 C842 1.349 . S
C854 H848 0.950 . S
C854 C855 1.327 . S
C855 H849 0.950 . S
C855 C854 1.327 . S
C855 C859 1.429 . S
C856 C839 1.574 . S
C856 H850 0.949 . S
C856 C860 1.368 . S
C857 C838 1.429 . S
C857 C851 1.429 . S
C857 C858 1.523 . S
C858 C839 1.368 . S
C858 C852 1.368 . S
C858 C857 1.523 . S
C859 C843 1.429 . S
C859 C855 1.429 . S
C859 C860 1.523 . S
C860 C844 1.368 . S
C860 C856 1.368 . S
C860 C859 1.523 . S
H861 C836 0.950 . S
H862 C838 0.950 . S
H863 C839 0.949 . S
H864 C841 0.950 . S
H865 C843 0.950 . S
C866 C867 1.349 . S
C866 C868 1.327 . S
C866 H891 0.950 . S
C867 C866 1.349 . S
C867 C883 1.349 . S
C868 C866 1.327 . S
C868 C887 1.429 . S
C868 H892 0.950 . S
C869 C886 1.574 . S
C869 C888 1.368 . S
C869 H893 0.949 . S
H870 C874 0.949 . S
C871 C872 1.349 . S
C871 C873 1.327 . S
C871 H894 0.950 . S
C872 C871 1.349 . S
C872 C884 1.349 . S
C873 C871 1.327 . S
C873 C889 1.429 . S
C873 H895 0.950 . S
C874 H870 0.949 . S
C874 C882 1.574 . S
C874 C890 1.368 . S
H875 C883 0.950 . S
H876 C881 0.950 . S
H877 C882 0.949 . S
H878 C884 0.950 . S
H879 C885 0.950 . S
H880 C886 0.949 . S
C881 H876 0.950 . S
C881 C883 1.327 . S
C881 C887 1.429 . S
C882 C874 1.574 . S
C882 H877 0.949 . S
C882 C888 1.368 . S
C883 C867 1.349 . S
C883 H875 0.950 . S
C883 C881 1.327 . S
C884 C872 1.349 . S
C884 H878 0.950 . S
C884 C885 1.327 . S
C885 H879 0.950 . S
C885 C884 1.327 . S
C885 C889 1.429 . S
C886 C869 1.574 . S
C886 H880 0.949 . S
C886 C890 1.368 . S
C887 C868 1.429 . S
C887 C881 1.429 . S
C887 C888 1.523 . S
C888 C869 1.368 . S
C888 C882 1.368 . S
C888 C887 1.523 . S
C889 C873 1.429 . S
C889 C885 1.429 . S
C889 C890 1.523 . S
C890 C874 1.368 . S
C890 C886 1.368 . S
C890 C889 1.523 . S
H891 C866 0.950 . S
H892 C868 0.950 . S
H893 C869 0.949 . S
H894 C871 0.950 . S
H895 C873 0.950 . S
C896 C897 1.349 . S
C896 C898 1.327 . S
C896 H921 0.950 . S
C897 C896 1.349 . S
C897 C913 1.349 . S
C898 C896 1.327 . S
C898 C917 1.429 . S
C898 H922 0.950 . S
C899 C916 1.574 . S
C899 C918 1.368 . S
C899 H923 0.949 . S
H900 C904 0.949 . S
C901 C902 1.349 . S
C901 C903 1.327 . S
C901 H924 0.950 . S
C902 C901 1.349 . S
C902 C914 1.349 . S
C903 C901 1.327 . S
C903 C919 1.429 . S
C903 H925 0.950 . S
C904 H900 0.949 . S
C904 C912 1.574 . S
C904 C920 1.368 . S
H905 C913 0.950 . S
H906 C911 0.950 . S
H907 C912 0.949 . S
H908 C914 0.950 . S
H909 C915 0.950 . S
H910 C916 0.949 . S
C911 H906 0.950 . S
C911 C913 1.327 . S
C911 C917 1.429 . S
C912 C904 1.574 . S
C912 H907 0.949 . S
C912 C918 1.368 . S
C913 C897 1.349 . S
C913 H905 0.950 . S
C913 C911 1.327 . S
C914 C902 1.349 . S
C914 H908 0.950 . S
C914 C915 1.327 . S
C915 H909 0.950 . S
C915 C914 1.327 . S
C915 C919 1.429 . S
C916 C899 1.574 . S
C916 H910 0.949 . S
C916 C920 1.368 . S
C917 C898 1.429 . S
C917 C911 1.429 . S
C917 C918 1.523 . S
C918 C899 1.368 . S
C918 C912 1.368 . S
C918 C917 1.523 . S
C919 C903 1.429 . S
C919 C915 1.429 . S
C919 C920 1.523 . S
C920 C904 1.368 . S
C920 C916 1.368 . S
C920 C919 1.523 . S
H921 C896 0.950 . S
H922 C898 0.950 . S
H923 C899 0.949 . S
H924 C901 0.950 . S
H925 C903 0.950 . S
C926 C927 1.349 . S
C926 C928 1.327 . S
C926 H951 0.950 . S
C927 C926 1.349 . S
C927 C943 1.349 . S
C928 C926 1.327 . S
C928 C947 1.429 . S
C928 H952 0.950 . S
C929 C946 1.574 . S
C929 C948 1.368 . S
C929 H953 0.949 . S
H930 C934 0.949 . S
C931 C932 1.349 . S
C931 C933 1.327 . S
C931 H954 0.950 . S
C932 C931 1.349 . S
C932 C944 1.349 . S
C933 C931 1.327 . S
C933 C949 1.429 . S
C933 H955 0.950 . S
C934 H930 0.949 . S
C934 C942 1.574 . S
C934 C950 1.368 . S
H935 C943 0.950 . S
H936 C941 0.950 . S
H937 C942 0.949 . S
H938 C944 0.950 . S
H939 C945 0.950 . S
H940 C946 0.949 . S
C941 H936 0.950 . S
C941 C943 1.327 . S
C941 C947 1.429 . S
C942 C934 1.574 . S
C942 H937 0.949 . S
C942 C948 1.368 . S
C943 C927 1.349 . S
C943 H935 0.950 . S
C943 C941 1.327 . S
C944 C932 1.349 . S
C944 H938 0.950 . S
C944 C945 1.327 . S
C945 H939 0.950 . S
C945 C944 1.327 . S
C945 C949 1.429 . S
C946 C929 1.574 . S
C946 H940 0.949 . S
C946 C950 1.368 . S
C947 C928 1.429 . S
C947 C941 1.429 . S
C947 C948 1.523 . S
C948 C929 1.368 . S
C948 C942 1.368 . S
C948 C947 1.523 . S
C949 C933 1.429 . S
C949 C945 1.429 . S
C949 C950 1.523 . S
C950 C934 1.368 . S
C950 C946 1.368 . S
C950 C949 1.523 . S
H951 C926 0.950 . S
H952 C928 0.950 . S
H953 C929 0.949 . S
H954 C931 0.950 . S
H955 C933 0.950 . S
C956 C957 1.349 . S
C956 C958 1.327 . S
C956 H981 0.950 . S
C957 C956 1.349 . S
C957 C973 1.349 . S
C958 C956 1.327 . S
C958 C977 1.429 . S
C958 H982 0.950 . S
C959 C976 1.574 . S
C959 C978 1.368 . S
C959 H983 0.949 . S
H960 C964 0.949 . S
C961 C962 1.349 . S
C961 C963 1.327 . S
C961 H984 0.950 . S
C962 C961 1.349 . S
C962 C974 1.349 . S
C963 C961 1.327 . S
C963 C979 1.429 . S
C963 H985 0.950 . S
C964 H960 0.949 . S
C964 C972 1.574 . S
C964 C980 1.368 . S
H965 C973 0.950 . S
H966 C971 0.950 . S
H967 C972 0.949 . S
H968 C974 0.950 . S
H969 C975 0.950 . S
H970 C976 0.949 . S
C971 H966 0.950 . S
C971 C973 1.327 . S
C971 C977 1.429 . S
C972 C964 1.574 . S
C972 H967 0.949 . S
C972 C978 1.368 . S
C973 C957 1.349 . S
C973 H965 0.950 . S
C973 C971 1.327 . S
C974 C962 1.349 . S
C974 H968 0.950 . S
C974 C975 1.327 . S
C975 H969 0.950 . S
C975 C974 1.327 . S
C975 C979 1.429 . S
C976 C959 1.574 . S
C976 H970 0.949 . S
C976 C980 1.368 . S
C977 C958 1.429 . S
C977 C971 1.429 . S
C977 C978 1.523 . S
C978 C959 1.368 . S
C978 C972 1.368 . S
C978 C977 1.523 . S
C979 C963 1.429 . S
C979 C975 1.429 . S
C979 C980 1.523 . S
C980 C964 1.368 . S
C980 C976 1.368 . S
C980 C979 1.523 . S
H981 C956 0.950 . S
H982 C958 0.950 . S
H983 C959 0.949 . S
H984 C961 0.950 . S
H985 C963 0.950 . S
C986 C987 1.349 . S
C986 C988 1.327 . S
C986 H1011 0.950 . S
C987 C986 1.349 . S
C987 C1003 1.349 . S
C988 C986 1.327 . S
C988 C1007 1.429 . S
C988 H1012 0.950 . S
C989 C1006 1.574 . S
C989 C1008 1.368 . S
C989 H1013 0.949 . S
H990 C994 0.949 . S
C991 C992 1.349 . S
C991 C993 1.327 . S
C991 H1014 0.950 . S
C992 C991 1.349 . S
C992 C1004 1.349 . S
C993 C991 1.327 . S
C993 C1009 1.429 . S
C993 H1015 0.950 . S
C994 H990 0.949 . S
C994 C1002 1.574 . S
C994 C1010 1.368 . S
H995 C1003 0.950 . S
H996 C1001 0.950 . S
H997 C1002 0.949 . S
H998 C1004 0.950 . S
H999 C1005 0.950 . S
H1000 C1006 0.949 . S
C1001 H996 0.950 . S
C1001 C1003 1.327 . S
C1001 C1007 1.429 . S
C1002 C994 1.574 . S
C1002 H997 0.949 . S
C1002 C1008 1.368 . S
C1003 C987 1.349 . S
C1003 H995 0.950 . S
C1003 C1001 1.327 . S
C1004 C992 1.349 . S
C1004 H998 0.950 . S
C1004 C1005 1.327 . S
C1005 H999 0.950 . S
C1005 C1004 1.327 . S
C1005 C1009 1.429 . S
C1006 C989 1.574 . S
C1006 H1000 0.949 . S
C1006 C1010 1.368 . S
C1007 C988 1.429 . S
C1007 C1001 1.429 . S
C1007 C1008 1.523 . S
C1008 C989 1.368 . S
C1008 C1002 1.368 . S
C1008 C1007 1.523 . S
C1009 C993 1.429 . S
C1009 C1005 1.429 . S
C1009 C1010 1.523 . S
C1010 C994 1.368 . S
C1010 C1006 1.368 . S
C1010 C1009 1.523 . S
H1011 C986 0.950 . S
H1012 C988 0.950 . S
H1013 C989 0.949 . S
H1014 C991 0.950 . S
H1015 C993 0.950 . S
C1016 C1017 1.349 . S
C1016 C1018 1.327 . S
C1016 H1041 0.950 . S
C1017 C1016 1.349 . S
C1017 C1033 1.349 . S
C1018 C1016 1.327 . S
C1018 C1037 1.429 . S
C1018 H1042 0.950 . S
C1019 C1036 1.574 . S
C1019 C1038 1.368 . S
C1019 H1043 0.949 . S
H1020 C1024 0.949 . S
C1021 C1022 1.349 . S
C1021 C1023 1.327 . S
C1021 H1044 0.950 . S
C1022 C1021 1.349 . S
C1022 C1034 1.349 . S
C1023 C1021 1.327 . S
C1023 C1039 1.429 . S
C1023 H1045 0.950 . S
C1024 H1020 0.949 . S
C1024 C1032 1.574 . S
C1024 C1040 1.368 . S
H1025 C1033 0.950 . S
H1026 C1031 0.950 . S
H1027 C1032 0.949 . S
H1028 C1034 0.950 . S
H1029 C1035 0.950 . S
H1030 C1036 0.949 . S
C1031 H1026 0.950 . S
C1031 C1033 1.327 . S
C1031 C1037 1.429 . S
C1032 C1024 1.574 . S
C1032 H1027 0.949 . S
C1032 C1038 1.368 . S
C1033 C1017 1.349 . S
C1033 H1025 0.950 . S
C1033 C1031 1.327 . S
C1034 C1022 1.349 . S
C1034 H1028 0.950 . S
C1034 C1035 1.327 . S
C1035 H1029 0.950 . S
C1035 C1034 1.327 . S
C1035 C1039 1.429 . S
C1036 C1019 1.574 . S
C1036 H1030 0.949 . S
C1036 C1040 1.368 . S
C1037 C1018 1.429 . S
C1037 C1031 1.429 . S
C1037 C1038 1.523 . S
C1038 C1019 1.368 . S
C1038 C1032 1.368 . S
C1038 C1037 1.523 . S
C1039 C1023 1.429 . S
C1039 C1035 1.429 . S
C1039 C1040 1.523 . S
C1040 C1024 1.368 . S
C1040 C1036 1.368 . S
C1040 C1039 1.523 . S
H1041 C1016 0.950 . S
H1042 C1018 0.950 . S
H1043 C1019 0.949 . S
H1044 C1021 0.950 . S
H1045 C1023 0.950 . S
C1046 C1047 1.349 . S
C1046 C1048 1.327 . S
C1046 H1071 0.950 . S
C1047 C1046 1.349 . S
C1047 C1063 1.349 . S
C1048 C1046 1.327 . S
C1048 C1067 1.429 . S
C1048 H1072 0.950 . S
C1049 C1066 1.574 . S
C1049 C1068 1.368 . S
C1049 H1073 0.949 . S
H1050 C1054 0.949 . S
C1051 C1052 1.349 . S
C1051 C1053 1.327 . S
C1051 H1074 0.950 . S
C1052 C1051 1.349 . S
C1052 C1064 1.349 . S
C1053 C1051 1.327 . S
C1053 C1069 1.429 . S
C1053 H1075 0.950 . S
C1054 H1050 0.949 . S
C1054 C1062 1.574 . S
C1054 C1070 1.368 . S
H1055 C1063 0.950 . S
H1056 C1061 0.950 . S
H1057 C1062 0.949 . S
H1058 C1064 0.950 . S
H1059 C1065 0.950 . S
H1060 C1066 0.949 . S
C1061 H1056 0.950 . S
C1061 C1063 1.327 . S
C1061 C1067 1.429 . S
C1062 C1054 1.574 . S
C1062 H1057 0.949 . S
C1062 C1068 1.368 . S
C1063 C1047 1.349 . S
C1063 H1055 0.950 . S
C1063 C1061 1.327 . S
C1064 C1052 1.349 . S
C1064 H1058 0.950 . S
C1064 C1065 1.327 . S
C1065 H1059 0.950 . S
C1065 C1064 1.327 . S
C1065 C1069 1.429 . S
C1066 C1049 1.574 . S
C1066 H1060 0.949 . S
C1066 C1070 1.368 . S
C1067 C1048 1.429 . S
C1067 C1061 1.429 . S
C1067 C1068 1.523 . S
C1068 C1049 1.368 . S
C1068 C1062 1.368 . S
C1068 C1067 1.523 . S
C1069 C1053 1.429 . S
C1069 C1065 1.429 . S
C1069 C1070 1.523 . S
C1070 C1054 1.368 . S
C1070 C1066 1.368 . S
C1070 C1069 1.523 . S
H1071 C1046 0.950 . S
H1072 C1048 0.950 . S
H1073 C1049 0.949 . S
H1074 C1051 0.950 . S
H1075 C1053 0.950 . S
C1076 C1077 1.349 . S
C1076 C1078 1.327 . S
C1076 H1101 0.950 . S
C1077 C1076 1.349 . S
C1077 C1093 1.349 . S
C1078 C1076 1.327 . S
C1078 C1097 1.429 . S
C1078 H1102 0.950 . S
C1079 C1096 1.574 . S
C1079 C1098 1.368 . S
C1079 H1103 0.949 . S
H1080 C1084 0.949 . S
C1081 C1082 1.349 . S
C1081 C1083 1.327 . S
C1081 H1104 0.950 . S
C1082 C1081 1.349 . S
C1082 C1094 1.349 . S
C1083 C1081 1.327 . S
C1083 C1099 1.429 . S
C1083 H1105 0.950 . S
C1084 H1080 0.949 . S
C1084 C1092 1.574 . S
C1084 C1100 1.368 . S
H1085 C1093 0.950 . S
H1086 C1091 0.950 . S
H1087 C1092 0.949 . S
H1088 C1094 0.950 . S
H1089 C1095 0.950 . S
H1090 C1096 0.949 . S
C1091 H1086 0.950 . S
C1091 C1093 1.327 . S
C1091 C1097 1.429 . S
C1092 C1084 1.574 . S
C1092 H1087 0.949 . S
C1092 C1098 1.368 . S
C1093 C1077 1.349 . S
C1093 H1085 0.950 . S
C1093 C1091 1.327 . S
C1094 C1082 1.349 . S
C1094 H1088 0.950 . S
C1094 C1095 1.327 . S
C1095 H1089 0.950 . S
C1095 C1094 1.327 . S
C1095 C1099 1.429 . S
C1096 C1079 1.574 . S
C1096 H1090 0.949 . S
C1096 C1100 1.368 . S
C1097 C1078 1.429 . S
C1097 C1091 1.429 . S
C1097 C1098 1.523 . S
C1098 C1079 1.368 . S
C1098 C1092 1.368 . S
C1098 C1097 1.523 . S
C1099 C1083 1.429 . S
C1099 C1095 1.429 . S
C1099 C1100 1.523 . S
C1100 C1084 1.368 . S
C1100 C1096 1.368 . S
C1100 C1099 1.523 . S
H1101 C1076 0.950 . S
H1102 C1078 0.950 . S
H1103 C1079 0.949 . S
H1104 C1081 0.950 . S
H1105 C1083 0.950 . S
C1106 C1107 1.349 . S
C1106 C1108 1.327 . S
C1106 H1131 0.950 . S
C1107 C1106 1.349 . S
C1107 C1123 1.349 . S
C1108 C1106 1.327 . S
C1108 C1127 1.429 . S
C1108 H1132 0.950 . S
C1109 C1126 1.574 . S
C1109 C1128 1.368 . S
C1109 H1133 0.949 . S
H1110 C1114 0.949 . S
C1111 C1112 1.349 . S
C1111 C1113 1.327 . S
C1111 H1134 0.950 . S
C1112 C1111 1.349 . S
C1112 C1124 1.349 . S
C1113 C1111 1.327 . S
C1113 C1129 1.429 . S
C1113 H1135 0.950 . S
C1114 H1110 0.949 . S
C1114 C1122 1.574 . S
C1114 C1130 1.368 . S
H1115 C1123 0.950 . S
H1116 C1121 0.950 . S
H1117 C1122 0.949 . S
H1118 C1124 0.950 . S
H1119 C1125 0.950 . S
H1120 C1126 0.949 . S
C1121 H1116 0.950 . S
C1121 C1123 1.327 . S
C1121 C1127 1.429 . S
C1122 C1114 1.574 . S
C1122 H1117 0.949 . S
C1122 C1128 1.368 . S
C1123 C1107 1.349 . S
C1123 H1115 0.950 . S
C1123 C1121 1.327 . S
C1124 C1112 1.349 . S
C1124 H1118 0.950 . S
C1124 C1125 1.327 . S
C1125 H1119 0.950 . S
C1125 C1124 1.327 . S
C1125 C1129 1.429 . S
C1126 C1109 1.574 . S
C1126 H1120 0.949 . S
C1126 C1130 1.368 . S
C1127 C1108 1.429 . S
C1127 C1121 1.429 . S
C1127 C1128 1.523 . S
C1128 C1109 1.368 . S
C1128 C1122 1.368 . S
C1128 C1127 1.523 . S
C1129 C1113 1.429 . S
C1129 C1125 1.429 . S
C1129 C1130 1.523 . S
C1130 C1114 1.368 . S
C1130 C1126 1.368 . S
C1130 C1129 1.523 . S
H1131 C1106 0.950 . S
H1132 C1108 0.950 . S
H1133 C1109 0.949 . S
H1134 C1111 0.950 . S
H1135 C1113 0.950 . S
C417 C29 1.232 . S
C422 C263 1.235 . S
C447 C49 0.894 . S
C452 C312 0.905 . S
C482 C338 2.455 . S
C477 C93 2.442 . S
C507 C119 2.221 . S
C512 C386 2.213 . S
C542 C298 2.350 . S
C537 C17 2.341 . S
C572 C266 0.929 . S
C567 C61 0.942 . S
C602 C387 1.849 . S
C597 C81 1.855 . S
C632 C355 1.545 . S
C627 C125 1.534 . S
C657 C23 1.665 . S
C662 C383 1.666 . S
C692 C315 2.274 . S
C687 C87 2.305 . S
C717 C113 2.319 . S
C722 C267 2.357 . S
C747 C55 0.758 . S
C752 C352 0.759 . S
C782 C272 1.199 . S
C777 C157 1.087 . S
C807 C189 0.962 . S
C812 C303 0.969 . S
C837 C221 2.391 . S
C842 C347 2.409 . S
C867 C253 2.300 . S
C872 C395 2.304 . S
C897 C145 2.245 . S
C902 C307 2.440 . S
C932 C275 0.870 . S
C927 C183 0.879 . S
C962 C378 1.896 . S
C957 C209 1.880 . S
C992 C346 1.492 . S
C987 C247 1.483 . S
C1017 C151 1.550 . S
C1022 C392 1.679 . S
C1052 C306 2.270 . S
C1047 C215 2.293 . S
C1082 C258 2.305 . S
C1077 C241 2.262 . S
C1107 C177 0.752 . S
C1112 C343 0.752 . S
