# Generated by pormake.
# Topology dag, (6,3)-cn, num edge types: 1
# Building blocks:
#     Node 0, Type 0, BuildingBlock: MIDCAF_clean_sbu_0, # of connection points: 6
#     Node 1, Type 0, BuildingBlock: MIDCAF_clean_sbu_0, # of connection points: 6
#     Node 2, Type 0, BuildingBlock: MIDCAF_clean_sbu_0, # of connection points: 6
#     Node 3, Type 0, BuildingBlock: MIDCAF_clean_sbu_0, # of connection points: 6
#     Node 4, Type 1, BuildingBlock: BELTOD_clean_linker_0, # of connection points: 3
#     Node 5, Type 1, BuildingBlock: BELTOD_clean_linker_0, # of connection points: 3
#     Node 6, Type 1, BuildingBlock: BELTOD_clean_linker_0, # of connection points: 3
#     Node 7, Type 1, BuildingBlock: BELTOD_clean_linker_0, # of connection points: 3
#     Node 8, Type 1, BuildingBlock: BELTOD_clean_linker_0, # of connection points: 3
#     Node 9, Type 1, BuildingBlock: BELTOD_clean_linker_0, # of connection points: 3
#     Node 10, Type 1, BuildingBlock: BELTOD_clean_linker_0, # of connection points: 3
#     Node 11, Type 1, BuildingBlock: BELTOD_clean_linker_0, # of connection points: 3
#     Edge 12, Type (0, 1), BuildingBlock: KIFKEQ_clean_linker_1, # of connection points: 2
#     Edge 13, Type (0, 1), BuildingBlock: KIFKEQ_clean_linker_1, # of connection points: 2
#     Edge 14, Type (0, 1), BuildingBlock: KIFKEQ_clean_linker_1, # of connection points: 2
#     Edge 15, Type (0, 1), BuildingBlock: KIFKEQ_clean_linker_1, # of connection points: 2
#     Edge 16, Type (0, 1), BuildingBlock: KIFKEQ_clean_linker_1, # of connection points: 2
#     Edge 17, Type (0, 1), BuildingBlock: KIFKEQ_clean_linker_1, # of connection points: 2
#     Edge 18, Type (0, 1), BuildingBlock: KIFKEQ_clean_linker_1, # of connection points: 2
#     Edge 19, Type (0, 1), BuildingBlock: KIFKEQ_clean_linker_1, # of connection points: 2
#     Edge 20, Type (0, 1), BuildingBlock: KIFKEQ_clean_linker_1, # of connection points: 2
#     Edge 21, Type (0, 1), BuildingBlock: KIFKEQ_clean_linker_1, # of connection points: 2
#     Edge 22, Type (0, 1), BuildingBlock: KIFKEQ_clean_linker_1, # of connection points: 2
#     Edge 23, Type (0, 1), BuildingBlock: KIFKEQ_clean_linker_1, # of connection points: 2
#     Edge 24, Type (0, 1), BuildingBlock: KIFKEQ_clean_linker_1, # of connection points: 2
#     Edge 25, Type (0, 1), BuildingBlock: KIFKEQ_clean_linker_1, # of connection points: 2
#     Edge 26, Type (0, 1), BuildingBlock: KIFKEQ_clean_linker_1, # of connection points: 2
#     Edge 27, Type (0, 1), BuildingBlock: KIFKEQ_clean_linker_1, # of connection points: 2
#     Edge 28, Type (0, 1), BuildingBlock: KIFKEQ_clean_linker_1, # of connection points: 2
#     Edge 29, Type (0, 1), BuildingBlock: KIFKEQ_clean_linker_1, # of connection points: 2
#     Edge 30, Type (0, 1), BuildingBlock: KIFKEQ_clean_linker_1, # of connection points: 2
#     Edge 31, Type (0, 1), BuildingBlock: KIFKEQ_clean_linker_1, # of connection points: 2
#     Edge 32, Type (0, 1), BuildingBlock: KIFKEQ_clean_linker_1, # of connection points: 2
#     Edge 33, Type (0, 1), BuildingBlock: KIFKEQ_clean_linker_1, # of connection points: 2
#     Edge 34, Type (0, 1), BuildingBlock: KIFKEQ_clean_linker_1, # of connection points: 2
#     Edge 35, Type (0, 1), BuildingBlock: KIFKEQ_clean_linker_1, # of connection points: 2
# Relax obj value: 0.289
# Max RMSD: 0.187
# Mean RMSD: 0.175
data_MOF--net-dag--node1-MIDCAF_clean_sbu_0--node2-BELTOD_clean_linker_0--edge1-KIFKEQ_clean_linker_1
_symmetry_space_group_name_H-M    P1
_symmetry_Int_Tables_number       1
_symmetry_cell_setting            triclinic
loop_
_symmetry_equiv_pos_as_xyz
'x, y, z'
_cell_length_a     45.198408
_cell_length_b     47.458338
_cell_length_c     34.581014
_cell_angle_alpha  94.166756
_cell_angle_beta   89.713482
_cell_angle_gamma 90.351433
loop_
_atom_site_label
_atom_site_type_symbol
_atom_site_fract_x
_atom_site_fract_y
_atom_site_fract_z
_atom_type_partial_charge
Zn0 Zn 0.12311 0.84813 0.12755 0.0
Zn1 Zn 0.19352 0.83864 0.9595 0.0
Zn2 Zn 0.14787 0.83752 0.0612 0.0
C3 C 0.18807 0.88939 0.014 0.0
C4 C 0.12447 0.82044 0.98229 0.0
O5 O 0.16704 0.80698 0.09895 0.0
O6 O 0.13879 0.814 0.15113 0.0
C7 C 0.15743 0.89518 0.11052 0.0
O8 O 0.17187 0.87525 0.03726 0.0
O9 O 0.19959 0.87853 0.98255 0.0
O10 O 0.15072 0.82738 0.97373 0.0
O11 O 0.11617 0.82355 0.01781 0.0
O12 O 0.14334 0.88537 0.13821 0.0
O13 O 0.16018 0.88067 0.078 0.0
O14 O 0.09986 0.83026 0.05188 0.0
O15 O 0.08157 0.84692 0.10842 0.0
C16 C 0.07762 0.83659 0.07414 0.0
O17 O 0.17992 0.80395 0.06261 0.0
O18 O 0.18098 0.82099 0.00703 0.0
C19 C 0.15902 0.80034 0.13287 0.0
C20 C 0.1925 0.80474 0.02979 0.0
Zn21 Zn 0.59713 0.64858 0.43852 0.0
Zn22 Zn 0.64335 0.63431 0.55666 0.0
Zn23 Zn 0.62768 0.63948 0.49397 0.0
C24 C 0.64673 0.58331 0.52348 0.0
C25 C 0.61709 0.68635 0.55418 0.0
O26 O 0.64286 0.68077 0.47382 0.0
O27 O 0.61167 0.6864 0.42593 0.0
C28 C 0.63607 0.60165 0.4189 0.0
O29 O 0.65231 0.59975 0.49636 0.0
O30 O 0.63355 0.59312 0.5538 0.0
O31 O 0.61575 0.66561 0.57525 0.0
O32 O 0.62923 0.68296 0.52039 0.0
O33 O 0.61464 0.61549 0.40652 0.0
O34 O 0.64552 0.60727 0.45347 0.0
O35 O 0.58452 0.63355 0.51851 0.0
O36 O 0.55931 0.64545 0.46796 0.0
C37 C 0.55993 0.63823 0.50241 0.0
O38 O 0.66105 0.6728 0.50595 0.0
O39 O 0.68578 0.64688 0.54477 0.0
C40 C 0.63377 0.69496 0.44572 0.0
C41 C 0.68518 0.66769 0.52386 0.0
Zn42 Zn 0.87429 0.15275 0.93367 0.0
Zn43 Zn 0.81512 0.14946 0.05111 0.0
Zn44 Zn 0.84454 0.15049 0.99324 0.0
C45 C 0.87168 0.14899 0.07724 0.0
C46 C 0.80012 0.10111 0.00947 0.0
O47 O 0.82069 0.17895 0.95621 0.0
O48 O 0.84227 0.16589 0.90045 0.0
C49 C 0.90843 0.17941 0.98976 0.0
O50 O 0.8751 0.1582 0.04332 0.0
O51 O 0.84687 0.13935 0.08689 0.0
O52 O 0.78703 0.11889 0.03235 0.0
O53 O 0.82508 0.1077 0.99427 0.0
O54 O 0.90473 0.18034 0.95374 0.0
O55 O 0.88951 0.16623 0.00998 0.0
O56 O 0.84582 0.10754 0.9634 0.0
O57 O 0.88481 0.11205 0.92565 0.0
C58 C 0.8652 0.09654 0.93944 0.0
O59 O 0.8094 0.18319 0.99308 0.0
O60 O 0.80063 0.18893 0.05591 0.0
C61 C 0.82187 0.17897 0.919 0.0
C62 C 0.79727 0.19708 0.02234 0.0
Zn63 Zn 0.38316 0.33221 0.64803 0.0
Zn64 Zn 0.30711 0.34218 0.48777 0.0
Zn65 Zn 0.35045 0.33818 0.59274 0.0
C66 C 0.37205 0.32875 0.49386 0.0
C67 C 0.31636 0.38127 0.56464 0.0
O68 O 0.32845 0.30679 0.62836 0.0
O69 O 0.35422 0.31423 0.68229 0.0
C70 C 0.41312 0.31144 0.58162 0.0
O71 O 0.37182 0.33093 0.53179 0.0
O72 O 0.34929 0.33221 0.47273 0.0
O73 O 0.31809 0.35943 0.54153 0.0
O74 O 0.33086 0.38039 0.59599 0.0
O75 O 0.41239 0.30821 0.61756 0.0
O76 O 0.39236 0.32499 0.56595 0.0
O77 O 0.35366 0.38093 0.62332 0.0
O78 O 0.3925 0.37321 0.65931 0.0
C79 C 0.37416 0.39028 0.64666 0.0
O80 O 0.31392 0.30747 0.59396 0.0
O81 O 0.31037 0.32779 0.54102 0.0
C82 C 0.33253 0.30278 0.66436 0.0
C83 C 0.30103 0.30862 0.56149 0.0
P84 P 0.09866 0.10759 0.36194 0.0
H85 H 0.15739 0.08239 0.36446 0.0
H86 H 0.1884 0.05757 0.31472 0.0
H87 H 0.12325 0.0738 0.22804 0.0
H88 H 0.0932 0.09877 0.27697 0.0
H89 H 0.10108 0.12044 0.44608 0.0
H90 H 0.12971 0.15507 0.48687 0.0
H91 H 0.16785 0.1874 0.38412 0.0
H92 H 0.13977 0.15243 0.34361 0.0
H93 H 0.0404 0.08389 0.34407 0.0
H94 H 0.08743 0.16143 0.32742 0.0
O95 O 0.0879 0.08174 0.3892 0.0
H96 H 0.00143 0.09776 0.30113 0.0
H97 H 0.0482 0.1757 0.28468 0.0
C98 C 0.12295 0.09243 0.32463 0.0
C99 C 0.15016 0.081 0.33456 0.0
C100 C 0.16782 0.0668 0.30612 0.0
C101 C 0.15841 0.0637 0.26727 0.0
C102 C 0.13162 0.07622 0.25739 0.0
C103 C 0.1141 0.09036 0.28572 0.0
C104 C 0.11837 0.13392 0.39185 0.0
C105 C 0.11558 0.13501 0.43236 0.0
C106 C 0.13195 0.15472 0.45563 0.0
C107 C 0.15087 0.17392 0.4386 0.0
C108 C 0.15315 0.17304 0.39797 0.0
C109 C 0.13716 0.15309 0.37482 0.0
C110 C 0.06662 0.12182 0.33961 0.0
C111 C 0.04185 0.10439 0.33231 0.0
C112 C 0.01955 0.11235 0.30759 0.0
C113 C 0.02171 0.13784 0.28934 0.0
C114 C 0.04601 0.15583 0.29799 0.0
C115 C 0.0683 0.14784 0.32286 0.0
P116 P 0.44359 0.66655 0.83639 0.0
H117 H 0.49939 0.69735 0.82841 0.0
H118 H 0.52003 0.72296 0.7759 0.0
H119 H 0.43733 0.71282 0.71401 0.0
H120 H 0.41701 0.68664 0.76664 0.0
H121 H 0.40703 0.64453 0.89668 0.0
H122 H 0.36868 0.66569 0.93967 0.0
H123 H 0.37918 0.74454 0.88574 0.0
H124 H 0.41777 0.72351 0.84373 0.0
H125 H 0.47424 0.61621 0.80547 0.0
H126 H 0.38482 0.64742 0.80853 0.0
O127 O 0.47146 0.65847 0.865 0.0
H128 H 0.45805 0.5737 0.76729 0.0
H129 H 0.36838 0.60492 0.7698 0.0
C130 C 0.4569 0.68963 0.80099 0.0
C131 C 0.48553 0.70098 0.80384 0.0
C132 C 0.49721 0.71594 0.77388 0.0
C133 C 0.48039 0.71984 0.74055 0.0
C134 C 0.45099 0.70988 0.73902 0.0
C135 C 0.43935 0.69492 0.76905 0.0
C136 C 0.41497 0.68235 0.86681 0.0
C137 C 0.40098 0.66637 0.89419 0.0
C138 C 0.37905 0.67845 0.91863 0.0
C139 C 0.37095 0.70681 0.91619 0.0
C140 C 0.38523 0.72276 0.88877 0.0
C141 C 0.40712 0.71066 0.86439 0.0
C142 C 0.43064 0.63461 0.81054 0.0
C143 C 0.45104 0.61377 0.79816 0.0
C144 C 0.44178 0.58963 0.77595 0.0
C145 C 0.41191 0.58596 0.76532 0.0
C146 C 0.39146 0.60697 0.77782 0.0
C147 C 0.40083 0.63123 0.8 0.0
P148 P 0.79312 0.87974 0.19742 0.0
H149 H 0.76384 0.93439 0.20333 0.0
H150 H 0.74359 0.96205 0.15352 0.0
H151 H 0.74662 0.88877 0.07164 0.0
H152 H 0.76727 0.86114 0.12211 0.0
H153 H 0.78035 0.88761 0.27995 0.0
H154 H 0.75393 0.85921 0.32486 0.0
H155 H 0.73487 0.79662 0.23112 0.0
H156 H 0.76164 0.82539 0.18593 0.0
H157 H 0.82862 0.89892 0.13532 0.0
H158 H 0.82011 0.82247 0.19475 0.0
O159 O 0.81078 0.90534 0.22395 0.0
H160 H 0.86967 0.87883 0.09769 0.0
H161 H 0.8608 0.80144 0.15572 0.0
C162 C 0.768 0.8961 0.16591 0.0
C163 C 0.75924 0.924 0.17506 0.0
C164 C 0.74739 0.93976 0.14645 0.0
C165 C 0.74411 0.92779 0.10822 0.0
C166 C 0.74946 0.89874 0.10057 0.0
C167 C 0.76118 0.88293 0.1294 0.0
C168 C 0.77349 0.85826 0.22978 0.0
C169 C 0.77064 0.86774 0.26894 0.0
C170 C 0.7553 0.8516 0.29461 0.0
C171 C 0.74244 0.82567 0.28155 0.0
C172 C 0.74492 0.81637 0.24207 0.0
C173 C 0.76014 0.83274 0.21626 0.0
C174 C 0.82103 0.86211 0.16746 0.0
C175 C 0.83515 0.87743 0.13954 0.0
C176 C 0.85854 0.86573 0.11767 0.0
C177 C 0.86852 0.8383 0.12321 0.0
C178 C 0.85381 0.82266 0.15075 0.0
C179 C 0.83037 0.83457 0.17294 0.0
P180 P 0.71623 0.2893 0.57666 0.0
H181 H 0.75595 0.33014 0.54152 0.0
H182 H 0.74888 0.37987 0.52836 0.0
H183 H 0.66571 0.3803 0.59038 0.0
H184 H 0.67292 0.33099 0.60362 0.0
H185 H 0.72174 0.23531 0.6105 0.0
H186 H 0.72828 0.22215 0.67695 0.0
H187 H 0.72877 0.31039 0.71777 0.0
H188 H 0.7226 0.32341 0.65132 0.0
H189 H 0.68934 0.29389 0.50152 0.0
H190 H 0.66522 0.25942 0.60949 0.0
O191 O 0.74362 0.2754 0.54908 0.0
H192 H 0.63783 0.28923 0.47996 0.0
H193 H 0.61428 0.25363 0.58723 0.0
C194 C 0.71484 0.32693 0.57333 0.0
C195 C 0.73652 0.34114 0.55291 0.0
C196 C 0.73247 0.36949 0.5454 0.0
C197 C 0.70654 0.38369 0.55785 0.0
C198 C 0.68567 0.36969 0.57992 0.0
C199 C 0.68985 0.34161 0.58769 0.0
C200 C 0.72142 0.28026 0.6259 0.0
C201 C 0.72318 0.2518 0.63379 0.0
C202 C 0.72662 0.24433 0.67182 0.0
C203 C 0.72868 0.26526 0.7027 0.0
C204 C 0.72724 0.29381 0.69462 0.0
C205 C 0.72359 0.30125 0.65654 0.0
C206 C 0.68126 0.27688 0.55701 0.0
C207 C 0.6733 0.2842 0.51989 0.0
C208 C 0.64394 0.28161 0.50759 0.0
C209 C 0.62231 0.27095 0.53191 0.0
C210 C 0.63074 0.26152 0.56778 0.0
C211 C 0.65995 0.2648 0.58049 0.0
P212 P 0.57375 0.37191 0.18437 0.0
H213 H 0.58775 0.43116 0.17289 0.0
H214 H 0.62065 0.46504 0.2076 0.0
H215 H 0.65539 0.39841 0.27279 0.0
H216 H 0.62218 0.36454 0.23784 0.0
H217 H 0.58668 0.37332 0.10254 0.0
H218 H 0.61931 0.34504 0.0587 0.0
H219 H 0.6354 0.28881 0.14889 0.0
H220 H 0.60328 0.31762 0.19304 0.0
H221 H 0.55809 0.39821 0.25955 0.0
H222 H 0.54664 0.31633 0.19865 0.0
O223 O 0.54881 0.38979 0.16066 0.0
H224 H 0.53178 0.38219 0.31514 0.0
H225 H 0.52048 0.29969 0.25525 0.0
C226 C 0.60219 0.39554 0.20342 0.0
C227 C 0.6029 0.42371 0.194 0.0
C228 C 0.62195 0.44301 0.21366 0.0
C229 C 0.64049 0.43441 0.24315 0.0
C230 C 0.64119 0.40568 0.25047 0.0
C231 C 0.62227 0.38635 0.23053 0.0
C232 C 0.59184 0.34705 0.15065 0.0
C233 C 0.59652 0.35443 0.11256 0.0
C234 C 0.6153 0.33842 0.08761 0.0
C235 C 0.62963 0.31468 0.10037 0.0
C236 C 0.62415 0.30674 0.13816 0.0
C237 C 0.6057 0.32308 0.16334 0.0
C238 C 0.55532 0.35818 0.22543 0.0
C239 C 0.5505 0.37648 0.25847 0.0
C240 C 0.5355 0.36722 0.29046 0.0
C241 C 0.52455 0.33943 0.29012 0.0
C242 C 0.52883 0.32117 0.25657 0.0
C243 C 0.54397 0.33056 0.22432 0.0
P244 P 0.21648 0.19458 0.00524 0.0
H245 H 0.25937 0.15634 0.03769 0.0
H246 H 0.25758 0.10542 0.04658 0.0
H247 H 0.17264 0.09958 0.98993 0.0
H248 H 0.17484 0.15008 0.98024 0.0
H249 H 0.27156 0.20878 0.96658 0.0
H250 H 0.28349 0.21779 0.89951 0.0
H251 H 0.19242 0.20166 0.86727 0.0
H252 H 0.18071 0.19217 0.93442 0.0
H253 H 0.17373 0.17686 0.06235 0.0
H254 H 0.18013 0.2419 0.98187 0.0
O255 O 0.24162 0.21039 0.03473 0.0
H256 H 0.12171 0.18732 0.07284 0.0
H257 H 0.12806 0.25355 0.99354 0.0
C258 C 0.21693 0.15699 0.00908 0.0
C259 C 0.24048 0.14404 0.02701 0.0
C260 C 0.23946 0.11503 0.03206 0.0
C261 C 0.21471 0.09882 0.01957 0.0
C262 C 0.19168 0.11176 1.00048 0.0
C263 C 0.19299 0.14053 0.99481 0.0
C264 C 0.22507 0.20079 0.95568 0.0
C265 C 0.25415 0.20719 0.94511 0.0
C266 C 0.261 0.21203 0.90671 0.0
C267 C 0.23882 0.21053 0.87826 0.0
C268 C 0.20985 0.20323 0.88872 0.0
C269 C 0.20313 0.19798 0.92707 0.0
C270 C 0.18031 0.20748 0.01962 0.0
C271 C 0.164 0.19371 0.04728 0.0
C272 C 0.1342 0.20004 0.0537 0.0
C273 C 0.12032 0.22084 0.03328 0.0
C274 C 0.13774 0.23674 0.00877 0.0
C275 C 0.16756 0.23015 1.0021 0.0
P276 P 0.27683 0.58337 0.36636 0.0
H277 H 0.219 0.55517 0.36629 0.0
H278 H 0.19498 0.53004 0.41696 0.0
H279 H 0.25682 0.56897 0.50041 0.0
H280 H 0.27787 0.5956 0.45112 0.0
H281 H 0.27663 0.58531 0.28242 0.0
H282 H 0.25905 0.62032 0.23956 0.0
H283 H 0.2308 0.67374 0.33908 0.0
H284 H 0.24755 0.63805 0.38212 0.0
H285 H 0.32642 0.55048 0.39059 0.0
H286 H 0.30268 0.63848 0.39353 0.0
O287 O 0.28197 0.5531 0.33951 0.0
H288 H 0.36963 0.56262 0.43039 0.0
H289 H 0.34533 0.65075 0.43442 0.0
C290 C 0.25133 0.57595 0.40447 0.0
C291 C 0.22639 0.55907 0.39595 0.0
C292 C 0.213 0.54432 0.42507 0.0
C293 C 0.22535 0.54536 0.46261 0.0
C294 C 0.2469 0.56635 0.47201 0.0
C295 C 0.25955 0.58164 0.44323 0.0
C296 C 0.26316 0.60907 0.3354 0.0
C297 C 0.26641 0.6044 0.29511 0.0
C298 C 0.25645 0.62438 0.27063 0.0
C299 C 0.24372 0.64961 0.28616 0.0
C300 C 0.24076 0.65445 0.32657 0.0
C301 C 0.25019 0.63412 0.35106 0.0
C302 C 0.31171 0.59362 0.3882 0.0
C303 C 0.33084 0.57251 0.39914 0.0
C304 C 0.35523 0.57943 0.4226 0.0
C305 C 0.36078 0.60763 0.43605 0.0
C306 C 0.34187 0.62884 0.42433 0.0
C307 C 0.3175 0.62187 0.40068 0.0
P308 P 0.86854 0.80706 0.75858 0.0
H309 H 0.81943 0.83996 0.79323 0.0
H310 H 0.81598 0.88837 0.8223 0.0
H311 H 0.90829 0.90186 0.79525 0.0
H312 H 0.91113 0.85404 0.76506 0.0
H313 H 0.87908 0.76038 0.7017 0.0
H314 H 0.8588 0.74917 0.63747 0.0
H315 H 0.82196 0.83312 0.63866 0.0
H316 H 0.84179 0.84389 0.70366 0.0
H317 H 0.88976 0.77992 0.82546 0.0
H318 H 0.92612 0.80723 0.71881 0.0
O319 O 0.84295 0.78793 0.77996 0.0
H320 H 0.93923 0.76987 0.84782 0.0
H321 H 0.97611 0.797 0.74098 0.0
C322 C 0.86568 0.84322 0.77775 0.0
C323 C 0.83886 0.85342 0.79348 0.0
C324 C 0.83698 0.88106 0.81028 0.0
C325 C 0.86193 0.89898 0.81153 0.0
C326 C 0.88854 0.88881 0.79457 0.0
C327 C 0.8903 0.86127 0.77757 0.0
C328 C 0.86189 0.80288 0.70742 0.0
C329 C 0.86754 0.77671 0.68758 0.0
C330 C 0.85605 0.77041 0.6506 0.0
C331 C 0.83844 0.79017 0.63299 0.0
C332 C 0.83509 0.81732 0.65166 0.0
C333 C 0.84652 0.82354 0.6888 0.0
C334 C 0.90432 0.79404 0.77041 0.0
C335 C 0.90838 0.7829 0.80633 0.0
C336 C 0.93673 0.77702 0.81898 0.0
C337 C 0.9616 0.78254 0.79608 0.0
C338 C 0.95736 0.79257 0.75924 0.0
C339 C 0.92885 0.79828 0.74649 0.0
H340 H 0.21074 0.90888 0.14181 0.0
H341 H 0.13199 0.94458 0.0961 0.0
H342 H 0.22467 0.95533 0.17209 0.0
H343 H 0.14572 0.99094 0.12583 0.0
H344 H 0.1839 0.01292 0.27842 0.0
H345 H 0.19627 0.9761 0.22904 0.0
H346 H 0.17908 0.03287 0.13978 0.0
H347 H 0.16729 0.07035 0.18963 0.0
C348 C 0.19717 0.927 0.13686 0.0
C349 C 0.17038 0.92347 0.11682 0.0
C350 C 0.20505 0.9535 0.1542 0.0
C351 C 0.18609 0.97669 0.15182 0.0
C352 C 0.16092 0.97358 0.12806 0.0
C353 C 0.15293 0.94705 0.11112 0.0
C354 C 0.18403 0.01811 0.24844 0.0
C355 C 0.17388 0.04443 0.23802 0.0
C356 C 0.1912 -0.00311 0.21996 0.0
C357 C 0.18819 0.00145 0.18045 0.0
C358 C 0.18117 0.02866 0.17002 0.0
C359 C 0.17424 0.05002 0.19858 0.0
H360 H 0.56945 0.71039 0.5229 0.0
H361 H 0.62956 0.71858 0.61933 0.0
H362 H 0.53098 0.73409 0.56297 0.0
H363 H 0.59164 0.74184 0.65947 0.0
H364 H 0.51999 0.76388 0.73719 0.0
H365 H 0.55271 0.77277 0.68288 0.0
H366 H 0.50665 0.7082 0.61154 0.0
H367 H 0.47424 0.69958 0.66522 0.0
C368 C 0.575 0.71891 0.5519 0.0
C369 C 0.60218 0.71244 0.56837 0.0
C370 C 0.55286 0.73211 0.57508 0.0
C371 C 0.55784 0.73895 0.61486 0.0
C372 C 0.58679 0.7368 0.62912 0.0
C373 C 0.60873 0.72351 0.60604 0.0
C374 C 0.51644 0.75215 0.70954 0.0
C375 C 0.49491 0.7306 0.7058 0.0
C376 C 0.5351 0.75732 0.67838 0.0
C377 C 0.53271 0.74092 0.64295 0.0
C378 C 0.50909 0.72152 0.63813 0.0
C379 C 0.49044 0.71643 0.66917 0.0
H380 H 0.74239 0.08567 1.00169 0.0
H381 H 0.83041 0.05182 0.00809 0.0
H382 H 0.72139 0.03874 0.00868 0.0
H383 H 0.80977 0.00517 0.01613 0.0
H384 H 0.77397 0.9247 0.03916 0.0
H385 H 0.78222 0.96338 0.99796 0.0
H386 H 0.71824 0.01363 0.06532 0.0
H387 H 0.70886 0.97443 0.10505 0.0
C388 C 0.75721 0.06797 0.00363 0.0
C389 C 0.78797 0.07223 0.0045 0.0
C390 C 0.74522 0.04114 0.00776 0.0
C391 C 0.7638 0.01819 0.01362 0.0
C392 C 0.79468 0.02217 0.01128 0.0
C393 C 0.80662 0.04896 0.00684 0.0
C394 C 0.76058 0.94348 0.04404 0.0
C395 C 0.7413 0.94678 0.07611 0.0
C396 C 0.76565 0.96584 0.02066 0.0
C397 C 0.7517 0.99198 0.02908 0.0
C398 C 0.72959 -0.00608 0.05796 0.0
C399 C 0.72435 0.97149 0.08111 0.0
H400 H 0.44153 0.26195 0.58724 0.0
H401 H 0.44566 0.33958 0.53052 0.0
H402 H 0.49065 0.24973 0.56351 0.0
H403 H 0.49329 0.326 0.5019 0.0
H404 H 0.59333 0.31956 0.52355 0.0
H405 H 0.54033 0.32675 0.52408 0.0
H406 H 0.52654 0.23616 0.51994 0.0
H407 H 0.58005 0.22954 0.52262 0.0
C408 C 0.45248 0.27576 0.56797 0.0
C409 C 0.43945 0.30133 0.55961 0.0
C410 C 0.48066 0.26864 0.55388 0.0
C411 C 0.49646 0.28686 0.53071 0.0
C412 C 0.4823 0.31156 0.52018 0.0
C413 C 0.45445 0.31903 0.53536 0.0
C414 C 0.57886 0.30122 0.52191 0.0
C415 C 0.59058 0.27405 0.52334 0.0
C416 C 0.5483 0.30524 0.52194 0.0
C417 C 0.52868 0.28208 0.52264 0.0
C418 C 0.54073 0.25464 0.52066 0.0
C419 C 0.57138 0.25071 0.52174 0.0
H420 H 0.63145 0.59437 0.34061 0.0
H421 H 0.66944 0.5569 0.43854 0.0
H422 H 0.64517 0.55328 0.29889 0.0
H423 H 0.68356 0.51531 0.39671 0.0
H424 H 0.64123 0.4368 0.322 0.0
H425 H 0.65199 0.47802 0.36545 0.0
H426 H 0.68294 0.52271 0.26842 0.0
H427 H 0.67178 0.4813 0.22465 0.0
C428 C 0.64324 0.57748 0.3532 0.0
C429 C 0.64882 0.57854 0.39319 0.0
C430 C 0.65149 0.55402 0.32912 0.0
C431 C 0.66537 0.5309 0.34446 0.0
C432 C 0.67268 0.5327 0.38406 0.0
C433 C 0.66463 0.55645 0.40809 0.0
C434 C 0.65144 0.45499 0.31007 0.0
C435 C 0.65509 0.45604 0.2698 0.0
C436 C 0.65767 0.47869 0.33507 0.0
C437 C 0.6677 0.50386 0.32025 0.0
C438 C 0.67457 0.50379 0.28053 0.0
C439 C 0.66821 0.48012 0.25549 0.0
H440 H 0.93327 0.22957 0.97533 0.0
H441 H 0.94571 0.15647 0.04044 0.0
H442 H 0.98291 0.24638 0.99305 0.0
H443 H -0.00461 0.17328 0.05856 0.0
H444 H 0.08189 0.21594 0.0948 0.0
H445 H 0.02805 0.21095 0.09181 0.0
H446 H 0.03061 0.2261 0.97023 0.0
H447 H 0.08398 0.23023 0.97272 0.0
C448 C 0.94642 0.21751 0.99432 0.0
C449 C 0.93566 0.19192 0.00694 0.0
C450 C 0.97481 0.22707 0.00436 0.0
C451 C 0.99314 0.21107 0.02696 0.0
C452 C 0.98168 0.18628 0.04151 0.0
C453 C 0.95322 0.17668 0.03132 0.0
C454 C 0.07094 0.21844 0.0675 0.0
C455 C 0.08745 0.22326 0.03392 0.0
C456 C 0.0401 0.21566 0.06587 0.0
C457 C 0.02511 0.21803 0.03078 0.0
C458 C 0.04142 0.22456 0.99788 0.0
C459 C 0.07216 0.22705 0.99937 0.0
H460 H 0.28692 0.41916 0.61443 0.0
H461 H 0.30428 0.39722 0.49324 0.0
H462 H 0.25381 0.45694 0.59698 0.0
H463 H 0.27246 0.43499 0.47569 0.0
H464 H 0.20864 0.49024 0.44059 0.0
H465 H 0.22323 0.4492 0.47207 0.0
H466 H 0.25273 0.50197 0.57154 0.0
H467 H 0.23448 0.54328 0.54223 0.0
C468 C 0.28403 0.42278 0.58414 0.0
C469 C 0.29828 0.40551 0.55515 0.0
C470 C 0.26489 0.44422 0.57409 0.0
C471 C 0.25987 0.44876 0.53487 0.0
C472 C 0.27474 0.4316 0.50616 0.0
C473 C 0.29343 0.41014 0.51617 0.0
C474 C 0.21685 0.49354 0.46987 0.0
C475 C 0.22225 0.52083 0.48743 0.0
C476 C 0.22586 0.46966 0.48773 0.0
C477 C 0.24118 0.47241 0.52306 0.0
C478 C 0.24199 0.49905 0.54361 0.0
C479 C 0.23194 0.52295 0.5263 0.0
H480 H 0.06983 0.79652 0.99012 0.0
H481 H 0.13287 0.82133 0.90436 0.0
H482 H 0.03504 0.7821 0.93866 0.0
H483 H 0.09814 0.80665 0.8529 0.0
H484 H 0.00579 0.82164 0.79276 0.0
H485 H 0.04927 0.82631 0.83396 0.0
H486 H 0.02801 0.74682 0.88113 0.0
H487 H 0.98452 0.74191 0.83941 0.0
C488 C 0.0763 0.79874 0.96032 0.0
C489 C 0.10389 0.81034 0.95132 0.0
C490 C 0.05657 0.79016 0.93082 0.0
C491 C 0.06401 0.79315 0.89179 0.0
C492 C 0.09185 0.80418 0.88275 0.0
C493 C 0.11168 0.81256 0.91222 0.0
C494 C 0.01096 0.80462 0.81079 0.0
C495 C 0.99149 0.78161 0.81332 0.0
C496 C 0.03583 0.80735 0.83452 0.0
C497 C 0.04162 0.78717 0.86123 0.0
C498 C 0.02365 0.76295 0.86131 0.0
C499 C -0.00116 0.76013 0.83744 0.0
H500 H 0.81633 0.06267 0.92916 0.0
H501 H 0.91134 0.06302 0.91636 0.0
H502 H 0.81443 0.01393 0.90054 0.0
H503 H 0.90942 0.01481 0.88664 0.0
H504 H 0.88818 0.94728 0.78872 0.0
H505 H 0.88852 -0.00597 0.82276 0.0
H506 H 0.83232 0.96357 0.91217 0.0
H507 H 0.83258 0.91638 0.87874 0.0
C508 C 0.83683 0.05204 0.92128 0.0
C509 C 0.864 0.06637 0.92575 0.0
C510 C 0.83573 0.0243 0.90453 0.0
C511 C 0.86177 0.0107 0.89116 0.0
C512 C 0.88898 0.02491 0.89628 0.0
C513 C 0.89008 0.05243 0.91341 0.0
C514 C 0.87611 0.95038 0.81582 0.0
C515 C 0.86056 0.92794 0.8311 0.0
C516 C 0.87627 0.9772 0.83526 0.0
C517 C 0.86067 0.98232 0.87026 0.0
C518 C 0.84443 0.9602 0.88513 0.0
C519 C 0.84449 0.93323 0.86585 0.0
H520 H 0.41103 0.36992 0.4806 0.0
H521 H 0.39422 0.28088 0.45689 0.0
H522 H 0.45261 0.36721 0.43504 0.0
H523 H 0.43577 0.27803 0.41058 0.0
H524 H 0.47378 0.30741 0.28993 0.0
H525 H 0.44136 0.29995 0.34497 0.0
H526 H 0.50325 0.3448 0.42198 0.0
H527 H 0.53608 0.35173 0.36719 0.0
C528 C 0.41692 0.34961 0.46638 0.0
C529 C 0.40018 0.32544 0.47284 0.0
C530 C 0.44065 0.34801 0.44036 0.0
C531 C 0.4475 0.32236 0.41942 0.0
C532 C 0.43101 0.29802 0.42646 0.0
C533 C 0.40748 0.29957 0.45302 0.0
C534 C 0.48094 0.31493 0.3187 0.0
C535 C 0.50731 0.33059 0.32402 0.0
C536 C 0.46234 0.31066 0.35025 0.0
C537 C 0.46967 0.32208 0.38765 0.0
C538 C 0.49689 0.33612 0.39336 0.0
C539 C 0.51558 0.34018 0.36194 0.0
H540 H 0.23861 0.91701 0.03608 0.0
H541 H 0.14674 0.92973 0.01006 0.0
H542 H 0.24618 0.96824 0.04498 0.0
H543 H 0.15423 0.98083 0.01699 0.0
H544 H 0.16958 0.07172 0.05392 0.0
H545 H 0.16395 0.02103 0.06013 0.0
H546 H 0.2491 0.00688 0.00472 0.0
H547 H 0.25504 0.0577 1.00012 0.0
C548 C 0.22007 0.93094 0.03252 0.0
C549 C 0.19212 0.91982 0.02268 0.0
C550 C 0.22436 0.96018 0.03732 0.0
C551 C 0.20086 0.97873 0.03154 0.0
C552 C 0.17274 0.96728 0.02228 0.0
C553 C 0.16841 0.93807 0.01806 0.0
C554 C 0.18715 0.05768 0.04347 0.0
C555 C 0.21262 0.06845 0.02624 0.0
C556 C 0.18392 0.02868 0.04685 0.0
C557 C 0.20589 0.00978 0.0325 0.0
C558 C 0.23187 0.02078 0.01653 0.0
C559 C 0.23527 0.04986 0.01367 0.0
H560 H 0.5326 0.58849 0.51174 0.0
H561 H 0.52255 0.67861 0.53133 0.0
H562 H 0.47902 0.5827 0.51069 0.0
H563 H 0.46886 0.67302 0.53153 0.0
H564 H 0.39839 0.65278 0.43383 0.0
H565 H 0.44364 0.66157 0.47012 0.0
H566 H 0.42729 0.58733 0.5325 0.0
H567 H 0.38144 0.57866 0.49624 0.0
C568 C 0.51886 0.60686 0.51842 0.0
C569 C 0.53147 0.63396 0.52148 0.0
C570 C 0.4881 0.60362 0.51761 0.0
C571 C 0.46971 0.62753 0.51983 0.0
C572 C 0.48249 0.65428 0.5288 0.0
C573 C 0.51321 0.65748 0.52926 0.0
C574 C 0.40391 0.63874 0.456 0.0
C575 C 0.3865 0.61478 0.46163 0.0
C576 C 0.42987 0.64386 0.47708 0.0
C577 C 0.43913 0.62512 0.50429 0.0
C578 C 0.42088 0.60201 0.51152 0.0
C579 C 0.39478 0.59694 0.49051 0.0
H580 H 0.33159 0.43172 0.64971 0.0
H581 H 0.42419 0.41759 0.67088 0.0
H582 H 0.3377 0.48156 0.67326 0.0
H583 H 0.43025 0.4668 0.69403 0.0
H584 H 0.44 0.56039 0.70225 0.0
H585 H 0.42827 0.51494 0.66824 0.0
H586 H 0.35045 0.50769 0.73976 0.0
H587 H 0.36235 0.5532 0.77427 0.0
C588 C 0.35323 0.43931 0.65889 0.0
C589 C 0.37736 0.42075 0.6585 0.0
C590 C 0.35669 0.46772 0.67256 0.0
C591 C 0.38449 0.47808 0.68528 0.0
C592 C 0.40865 0.45958 0.68396 0.0
C593 C 0.4051 0.43129 0.67097 0.0
C594 C 0.42032 0.54918 0.71067 0.0
C595 C 0.40245 0.56015 0.7415 0.0
C596 C 0.41354 0.52323 0.69106 0.0
C597 C 0.38865 0.50763 0.70167 0.0
C598 C 0.36969 0.51933 0.73083 0.0
C599 C 0.37655 0.54536 0.75062 0.0
H600 H 0.04984 0.78583 0.06946 0.0
H601 H 0.03667 0.87428 0.05496 0.0
H602 H -0.00395 0.77832 0.06999 0.0
H603 H 0.9831 0.86687 0.05464 0.0
H604 H 0.91283 0.80701 0.15258 0.0
H605 H 0.96231 0.79968 0.12609 0.0
H606 H 0.9374 0.84 0.02333 0.0
H607 H 0.88721 0.84623 0.04888 0.0
C608 C 0.03539 0.80334 0.06455 0.0
C609 C 0.04712 0.83054 0.06171 0.0
C610 C 0.00472 0.7991 0.06511 0.0
C611 C 0.98546 0.82201 0.06243 0.0
C612 C -0.0026 0.84875 0.05622 0.0
C613 C 0.02801 0.85304 0.05634 0.0
C614 C 0.91735 0.81327 0.12364 0.0
C615 C 0.8961 0.82782 0.10332 0.0
C616 C 0.94583 0.80908 0.10846 0.0
C617 C 0.95375 0.81961 0.07288 0.0
C618 C 0.93191 0.83196 0.05103 0.0
C619 C 0.90327 0.83572 0.06588 0.0
H620 H 0.69999 0.56112 0.49916 0.0
H621 H 0.61478 0.53901 0.54518 0.0
H622 H 0.71614 0.51196 0.50166 0.0
H623 H 0.6309 0.49052 0.54901 0.0
H624 H 0.65638 0.40092 0.5244 0.0
H625 H 0.64315 0.44859 0.50959 0.0
H626 H 0.7285 0.4791 0.55067 0.0
H627 H 0.74199 0.4309 0.5645 0.0
C628 C 0.68462 0.54558 0.50916 0.0
C629 C 0.65595 0.55354 0.52111 0.0
C630 C 0.69393 0.5176 0.51105 0.0
C631 C 0.67475 0.49723 0.52528 0.0
C632 C 0.64605 0.50542 0.53708 0.0
C633 C 0.63682 0.53324 0.53511 0.0
C634 C 0.67235 0.41782 0.53007 0.0
C635 C 0.70001 0.41239 0.54617 0.0
C636 C 0.66479 0.44513 0.52165 0.0
C637 C 0.68457 0.46776 0.52952 0.0
C638 C 0.71281 0.46212 0.54404 0.0
C639 C 0.72051 0.4346 0.55214 0.0
H640 H 0.88362 0.10779 0.12426 0.0
H641 H 0.91373 0.18996 0.09468 0.0
H642 H 0.92029 0.10803 0.17554 0.0
H643 H 0.95111 0.19018 0.14618 0.0
H644 H 0.03228 0.15942 0.21905 0.0
H645 H -0.00293 0.16426 0.1665 0.0
H646 H 0.9267 0.13514 0.23878 0.0
H647 H 0.96168 0.13053 0.29127 0.0
C648 C 0.89835 0.12584 0.1286 0.0
C649 C 0.89613 0.14872 0.1053 0.0
C650 C 0.91922 0.12606 0.15811 0.0
C651 C 0.93832 0.14929 0.16526 0.0
C652 C 0.93673 0.17194 0.14124 0.0
C653 C 0.91557 0.17176 0.11164 0.0
C654 C 0.00917 0.15465 0.22402 0.0
C655 C -0.00017 0.14431 0.25926 0.0
C656 C 0.98905 0.15736 0.19385 0.0
C657 C 0.95924 0.14964 0.1983 0.0
C658 C 0.94968 0.14064 0.23418 0.0
C659 C 0.96971 0.13802 0.26427 0.0
H660 H 0.21646 0.78258 0.12693 0.0
H661 H 0.13204 0.76424 0.17887 0.0
H662 H 0.23918 0.74456 0.16118 0.0
H663 H 0.1545 0.72594 0.21185 0.0
H664 H 0.20436 0.64124 0.22734 0.0
H665 H 0.18526 0.67653 0.18554 0.0
H666 H 0.24093 0.74022 0.24392 0.0
H667 H 0.2595 0.70508 0.28648 0.0
C668 C 0.20276 0.77016 0.14516 0.0
C669 C 0.17261 0.77634 0.15058 0.0
C670 C 0.21572 0.7486 0.16473 0.0
C671 C 0.19844 0.73253 0.18895 0.0
C672 C 0.16814 0.73806 0.19316 0.0
C673 C 0.1554 0.75999 0.17449 0.0
C674 C 0.21261 0.66275 0.23097 0.0
C675 C 0.2332 0.67064 0.2601 0.0
C676 C 0.20177 0.6828 0.20714 0.0
C677 C 0.2119 0.71085 0.21153 0.0
C678 C 0.23312 0.71858 0.23988 0.0
C679 C 0.24349 0.69865 0.26431 0.0
H680 H 0.74298 0.65728 0.53859 0.0
H681 H 0.68319 0.72395 0.513 0.0
H682 H 0.78254 0.69184 0.55016 0.0
H683 H 0.72311 0.7585 0.52272 0.0
H684 H 0.78042 0.80282 0.62325 0.0
H685 H 0.74528 0.77618 0.58276 0.0
H686 H 0.81652 0.72743 0.52823 0.0
H687 H 0.85213 0.75448 0.56914 0.0
C688 C 0.73856 0.67927 0.53442 0.0
C689 C 0.71006 0.68795 0.52494 0.0
C690 C 0.76132 0.69907 0.54051 0.0
C691 C 0.756 0.728 0.5374 0.0
C692 C 0.72788 0.73642 0.52559 0.0
C693 C 0.70507 0.7166 0.51973 0.0
C694 C 0.7889 0.78735 0.60148 0.0
C695 C 0.81909 0.78038 0.60005 0.0
C696 C 0.7686 0.77194 0.57815 0.0
C697 C 0.77802 0.74921 0.55287 0.0
C698 C 0.80854 0.7444 0.54815 0.0
C699 C 0.82892 0.75989 0.57152 0.0
H700 H 0.79677 0.24824 0.06184 0.0
H701 H 0.74994 0.19661 0.97415 0.0
H702 H 0.75476 0.28034 0.06865 0.0
H703 H 0.70723 0.22835 0.98185 0.0
H704 H 0.63452 0.25803 0.08165 0.0
H705 H 0.67609 0.23345 0.04874 0.0
H706 H 0.71838 0.31355 0.03259 0.0
H707 H 0.67657 0.33816 0.06491 0.0
C708 C 0.77784 0.24443 0.04302 0.0
C709 C 0.77643 0.22014 0.01747 0.0
C710 C 0.75383 0.26274 0.04689 0.0
C711 C 0.72774 0.25662 0.02598 0.0
C712 C 0.72714 0.23343 0.99828 0.0
C713 C 0.75155 0.21545 0.9937 0.0
C714 C 0.6524 0.27033 0.07024 0.0
C715 C 0.65247 0.29991 0.07587 0.0
C716 C 0.67599 0.25633 0.05113 0.0
C717 C 0.70029 0.27168 0.03802 0.0
C718 C 0.69978 0.30131 0.04222 0.0
C719 C 0.67592 0.31532 0.06066 0.0
H720 H 0.31619 0.24719 0.65315 0.0
H721 H 0.30121 0.32354 0.72584 0.0
H722 H 0.2871 0.22025 0.69858 0.0
H723 H 0.27171 0.29716 0.77028 0.0
H724 H 0.2085 0.24677 0.83571 0.0
H725 H 0.22452 0.26618 0.77537 0.0
H726 H 0.30102 0.21203 0.77129 0.0
H727 H 0.28505 0.19264 0.8317 0.0
C728 C 0.30591 0.25822 0.6782 0.0
C729 C 0.31081 0.28726 0.68636 0.0
C730 C 0.28944 0.24291 0.70412 0.0
C731 C 0.27716 0.25669 0.73781 0.0
C732 C 0.2806 0.28607 0.74433 0.0
C733 C 0.29755 0.30113 0.71907 0.0
C734 C 0.22828 0.23846 0.82133 0.0
C735 C 0.24574 0.21845 0.83853 0.0
C736 C 0.23745 0.2496 0.78691 0.0
C737 C 0.26401 0.24063 0.76882 0.0
C738 C 0.28031 0.21912 0.78447 0.0
C739 C 0.27136 0.20825 0.81919 0.0
H740 H 0.61234 0.74312 0.41879 0.0
H741 H 0.69336 0.6994 0.4402 0.0
H742 H 0.63997 0.77709 0.38268 0.0
H743 H 0.72122 0.73378 0.40513 0.0
H744 H 0.7473 0.76895 0.28811 0.0
H745 H 0.7224 0.74049 0.33461 0.0
H746 H 0.6783 0.81496 0.38504 0.0
H747 H 0.70276 0.84335 0.33794 0.0
C748 C 0.63622 0.74144 0.41691 0.0
C749 C 0.65086 0.71902 0.4328 0.0
C750 C 0.65203 0.76086 0.3963 0.0
C751 C 0.68272 0.75792 0.3908 0.0
C752 C 0.69754 0.73638 0.40859 0.0
C753 C 0.68171 0.71703 0.42929 0.0
C754 C 0.73215 0.77918 0.30898 0.0
C755 C 0.72691 0.80833 0.30935 0.0
C756 C 0.71823 0.76299 0.33596 0.0
C757 C 0.69864 0.77558 0.36372 0.0
C758 C 0.69329 0.80471 0.364 0.0
C759 C 0.70738 0.82094 0.33717 0.0
H760 H 0.79953 0.23258 0.93145 0.0
H761 H 0.79383 0.15626 0.85606 0.0
H762 H 0.76879 0.25714 0.88594 0.0
H763 H 0.76328 0.18022 0.81129 0.0
H764 H 0.7015 0.223 0.73944 0.0
H765 H 0.71582 0.20443 0.8006 0.0
H766 H 0.78164 0.27043 0.81762 0.0
H767 H 0.76739 0.28898 0.75647 0.0
C768 C 0.79098 0.22094 0.90576 0.0
C769 C 0.79908 0.1927 0.89688 0.0
C770 C 0.77359 0.23493 0.87971 0.0
C771 C 0.76368 0.2206 0.84502 0.0
C772 C 0.77021 0.1918 0.83789 0.0
C773 C 0.78789 0.1781 0.86337 0.0
C774 C 0.71874 0.23377 0.75653 0.0
C775 C 0.73374 0.25708 0.74277 0.0
C776 C 0.72679 0.22325 0.79163 0.0
C777 C 0.75006 0.2358 0.81367 0.0
C778 C 0.76344 0.26047 0.80147 0.0
C779 C 0.75536 0.27101 0.76632 0.0
H780 H 0.28125 0.29988 0.48775 0.0
H781 H 0.26861 0.27146 0.60255 0.0
H782 H 0.24271 0.26823 0.46302 0.0
H783 H 0.229 0.23952 0.57755 0.0
H784 H 0.18624 0.16373 0.49992 0.0
H785 H 0.22093 0.19666 0.53385 0.0
H786 H 0.18993 0.26346 0.46603 0.0
H787 H 0.15608 0.23039 0.43161 0.0
C788 C 0.26994 0.28714 0.50793 0.0
C789 C 0.27774 0.28852 0.54725 0.0
C790 C 0.24764 0.26898 0.4937 0.0
C791 C 0.23231 0.25171 0.51841 0.0
C792 C 0.24039 0.2526 0.55777 0.0
C793 C 0.26299 0.27088 0.57209 0.0
C794 C 0.18661 0.18558 0.49281 0.0
C795 C 0.16887 0.19449 0.46278 0.0
C796 C 0.20639 0.20445 0.51228 0.0
C797 C 0.20857 0.23256 0.50218 0.0
C798 C 0.18937 0.24176 0.47381 0.0
C799 C 0.16992 0.22289 0.45416 0.0
H800 H 0.23669 0.82292 0.98435 0.0
H801 H 0.21244 0.75485 0.05473 0.0
H802 H 0.2813 0.79812 0.96344 0.0
H803 H 0.25812 0.72995 0.03438 0.0
H804 H 0.31797 0.68323 0.93577 0.0
H805 H 0.27677 0.70651 0.9708 0.0
H806 H 0.32909 0.78277 0.98832 0.0
H807 H 0.3703 0.75953 0.95356 0.0
C808 C 0.24086 0.80256 0.99528 0.0
C809 C 0.22076 0.79048 0.02041 0.0
C810 C 0.26675 0.78854 0.98382 0.0
C811 C 0.27322 0.76207 0.99726 0.0
C812 C 0.25355 0.75025 0.02337 0.0
C813 C 0.22758 0.76451 0.03514 0.0
C814 C 0.3209 0.70476 0.94785 0.0
C815 C 0.34722 0.7197 0.94135 0.0
C816 C 0.29732 0.71806 0.96798 0.0
C817 C 0.29962 0.74654 0.9819 0.0
C818 C 0.32652 0.76094 0.9773 0.0
C819 C 0.35006 0.74767 0.95727 0.0
loop_
_geom_bond_atom_site_label_1
_geom_bond_atom_site_label_2
_geom_bond_distance
_geom_bond_site_symmetry_2
_ccdc_geom_bond_type
Zn0 O6 1.920 . S
Zn0 O12 1.898 . S
Zn0 O15 1.905 . S
Zn1 O9 1.905 . S
Zn1 O10 1.898 . S
Zn1 O18 1.920 . S
Zn2 O5 2.080 . S
Zn2 O8 2.114 . S
Zn2 O11 2.120 . S
Zn2 O13 2.120 . S
Zn2 O14 2.114 . S
Zn2 O17 2.080 . S
C3 O8 1.166 . S
C3 O9 1.183 1_554 S
C4 O10 1.167 . S
C4 O11 1.299 1_556 S
O5 Zn2 2.080 . S
O5 C19 1.305 . S
O6 Zn0 1.920 . S
O6 C19 1.234 . S
C7 O12 1.167 . S
C7 O13 1.299 . S
O8 Zn2 2.114 . S
O8 C3 1.166 . S
O9 Zn1 1.905 . S
O9 C3 1.183 1_556 S
O10 Zn1 1.898 . S
O10 C4 1.167 . S
O11 Zn2 2.120 . S
O11 C4 1.299 1_554 S
O12 Zn0 1.898 . S
O12 C7 1.167 . S
O13 Zn2 2.120 . S
O13 C7 1.299 . S
O14 Zn2 2.114 . S
O14 C16 1.166 . S
O15 Zn0 1.905 . S
O15 C16 1.182 . S
C16 O14 1.166 . S
C16 O15 1.182 . S
O17 Zn2 2.080 . S
O17 C20 1.305 . S
O18 Zn1 1.920 . S
O18 C20 1.234 1_556 S
C19 O5 1.305 . S
C19 O6 1.234 . S
C20 O17 1.305 . S
C20 O18 1.234 1_554 S
Zn21 O27 1.920 . S
Zn21 O33 1.898 . S
Zn21 O36 1.905 . S
Zn22 O30 1.905 . S
Zn22 O31 1.898 . S
Zn22 O39 1.920 . S
Zn23 O26 2.080 . S
Zn23 O29 2.114 . S
Zn23 O32 2.120 . S
Zn23 O34 2.120 . S
Zn23 O35 2.114 . S
Zn23 O38 2.080 . S
C24 O29 1.166 . S
C24 O30 1.182 . S
C25 O31 1.167 . S
C25 O32 1.299 . S
O26 Zn23 2.080 . S
O26 C40 1.305 . S
O27 Zn21 1.920 . S
O27 C40 1.234 . S
C28 O33 1.167 . S
C28 O34 1.299 . S
O29 Zn23 2.114 . S
O29 C24 1.166 . S
O30 Zn22 1.905 . S
O30 C24 1.182 . S
O31 Zn22 1.898 . S
O31 C25 1.167 . S
O32 Zn23 2.120 . S
O32 C25 1.299 . S
O33 Zn21 1.898 . S
O33 C28 1.167 . S
O34 Zn23 2.120 . S
O34 C28 1.299 . S
O35 Zn23 2.114 . S
O35 C37 1.166 . S
O36 Zn21 1.905 . S
O36 C37 1.182 . S
C37 O35 1.166 . S
C37 O36 1.182 . S
O38 Zn23 2.080 . S
O38 C41 1.305 . S
O39 Zn22 1.920 . S
O39 C41 1.234 . S
C40 O26 1.305 . S
C40 O27 1.234 . S
C41 O38 1.305 . S
C41 O39 1.234 . S
Zn42 O48 1.920 . S
Zn42 O54 1.898 . S
Zn42 O57 1.905 . S
Zn43 O51 1.905 . S
Zn43 O52 1.898 . S
Zn43 O60 1.920 . S
Zn44 O47 2.071 1_554 S
Zn44 O50 2.123 . S
Zn44 O53 2.124 . S
Zn44 O55 2.116 1_554 S
Zn44 O56 2.108 1_554 S
Zn44 O59 2.086 . S
C45 O50 1.166 . S
C45 O51 1.182 . S
C46 O52 1.167 . S
C46 O53 1.299 . S
O47 Zn44 2.071 1_556 S
O47 C61 1.305 . S
O48 Zn42 1.920 . S
O48 C61 1.234 . S
C49 O54 1.167 . S
C49 O55 1.299 . S
O50 Zn44 2.123 . S
O50 C45 1.166 . S
O51 Zn43 1.905 . S
O51 C45 1.182 . S
O52 Zn43 1.898 . S
O52 C46 1.167 . S
O53 Zn44 2.124 . S
O53 C46 1.299 . S
O54 Zn42 1.898 . S
O54 C49 1.167 . S
O55 Zn44 2.116 1_556 S
O55 C49 1.299 . S
O56 Zn44 2.108 1_556 S
O56 C58 1.166 . S
O57 Zn42 1.905 . S
O57 C58 1.182 . S
C58 O56 1.166 . S
C58 O57 1.182 . S
O59 Zn44 2.086 . S
O59 C62 1.305 . S
O60 Zn43 1.920 . S
O60 C62 1.234 . S
C61 O47 1.305 . S
C61 O48 1.234 . S
C62 O59 1.305 . S
C62 O60 1.234 . S
Zn63 O69 1.920 . S
Zn63 O75 1.898 . S
Zn63 O78 1.905 . S
Zn64 O72 1.905 . S
Zn64 O73 1.898 . S
Zn64 O81 1.920 . S
Zn65 O68 2.080 . S
Zn65 O71 2.114 . S
Zn65 O74 2.120 . S
Zn65 O76 2.120 . S
Zn65 O77 2.114 . S
Zn65 O80 2.080 . S
C66 O71 1.166 . S
C66 O72 1.182 . S
C67 O73 1.167 . S
C67 O74 1.299 . S
O68 Zn65 2.080 . S
O68 C82 1.305 . S
O69 Zn63 1.920 . S
O69 C82 1.234 . S
C70 O75 1.167 . S
C70 O76 1.299 . S
O71 Zn65 2.114 . S
O71 C66 1.166 . S
O72 Zn64 1.905 . S
O72 C66 1.182 . S
O73 Zn64 1.898 . S
O73 C67 1.167 . S
O74 Zn65 2.120 . S
O74 C67 1.299 . S
O75 Zn63 1.898 . S
O75 C70 1.167 . S
O76 Zn65 2.120 . S
O76 C70 1.299 . S
O77 Zn65 2.114 . S
O77 C79 1.166 . S
O78 Zn63 1.905 . S
O78 C79 1.182 . S
C79 O77 1.166 . S
C79 O78 1.182 . S
O80 Zn65 2.080 . S
O80 C83 1.305 . S
O81 Zn64 1.920 . S
O81 C83 1.234 . S
C82 O68 1.305 . S
C82 O69 1.234 . S
C83 O80 1.305 . S
C83 O81 1.234 . S
P84 O95 1.490 . S
P84 C98 1.812 . S
P84 C104 1.803 . S
P84 C110 1.819 . S
H85 C99 0.941 . S
H86 C100 0.939 . S
H87 C102 0.940 . S
H88 C103 0.940 . S
H89 C105 0.939 . S
H90 C106 0.942 . S
H91 C108 0.940 . S
H92 C109 0.939 . S
H93 C111 0.941 . S
H94 C115 0.939 . S
O95 P84 1.490 . S
H96 C112 0.939 . S
H97 C114 0.940 . S
C98 P84 1.812 . S
C98 C99 1.389 . S
C98 C103 1.391 . S
C99 H85 0.941 . S
C99 C98 1.389 . S
C99 C100 1.397 . S
C100 H86 0.939 . S
C100 C99 1.397 . S
C100 C101 1.378 . S
C101 C100 1.378 . S
C101 C102 1.378 . S
C102 H87 0.940 . S
C102 C101 1.378 . S
C102 C103 1.396 . S
C103 H88 0.940 . S
C103 C98 1.391 . S
C103 C102 1.396 . S
C104 P84 1.803 . S
C104 C105 1.378 . S
C104 C109 1.400 . S
C105 H89 0.939 . S
C105 C104 1.378 . S
C105 C106 1.361 . S
C106 H90 0.942 . S
C106 C105 1.361 . S
C106 C107 1.369 . S
C107 C106 1.369 . S
C107 C108 1.404 . S
C108 H91 0.940 . S
C108 C107 1.404 . S
C108 C109 1.389 . S
C109 H92 0.939 . S
C109 C104 1.400 . S
C109 C108 1.389 . S
C110 P84 1.819 . S
C110 C111 1.391 . S
C110 C115 1.391 . S
C111 H93 0.941 . S
C111 C110 1.391 . S
C111 C112 1.396 . S
C112 H96 0.939 . S
C112 C111 1.396 . S
C112 C113 1.397 . S
C113 C112 1.397 . S
C113 C114 1.385 . S
C114 H97 0.940 . S
C114 C113 1.385 . S
C114 C115 1.388 . S
C115 H94 0.939 . S
C115 C110 1.391 . S
C115 C114 1.388 . S
P116 O127 1.490 . S
P116 C130 1.812 . S
P116 C136 1.803 . S
P116 C142 1.819 . S
H117 C131 0.941 . S
H118 C132 0.939 . S
H119 C134 0.940 . S
H120 C135 0.940 . S
H121 C137 0.939 . S
H122 C138 0.942 . S
H123 C140 0.940 . S
H124 C141 0.939 . S
H125 C143 0.941 . S
H126 C147 0.939 . S
O127 P116 1.490 . S
H128 C144 0.939 . S
H129 C146 0.940 . S
C130 P116 1.812 . S
C130 C131 1.389 . S
C130 C135 1.391 . S
C131 H117 0.941 . S
C131 C130 1.389 . S
C131 C132 1.397 . S
C132 H118 0.939 . S
C132 C131 1.397 . S
C132 C133 1.378 . S
C133 C132 1.378 . S
C133 C134 1.378 . S
C134 H119 0.940 . S
C134 C133 1.378 . S
C134 C135 1.396 . S
C135 H120 0.940 . S
C135 C130 1.391 . S
C135 C134 1.396 . S
C136 P116 1.803 . S
C136 C137 1.378 . S
C136 C141 1.400 . S
C137 H121 0.939 . S
C137 C136 1.378 . S
C137 C138 1.361 . S
C138 H122 0.942 . S
C138 C137 1.361 . S
C138 C139 1.369 . S
C139 C138 1.369 . S
C139 C140 1.404 . S
C140 H123 0.940 . S
C140 C139 1.404 . S
C140 C141 1.389 . S
C141 H124 0.939 . S
C141 C136 1.400 . S
C141 C140 1.389 . S
C142 P116 1.819 . S
C142 C143 1.391 . S
C142 C147 1.391 . S
C143 H125 0.941 . S
C143 C142 1.391 . S
C143 C144 1.396 . S
C144 H128 0.939 . S
C144 C143 1.396 . S
C144 C145 1.397 . S
C145 C144 1.397 . S
C145 C146 1.385 . S
C146 H129 0.940 . S
C146 C145 1.385 . S
C146 C147 1.388 . S
C147 H126 0.939 . S
C147 C142 1.391 . S
C147 C146 1.388 . S
P148 O159 1.490 . S
P148 C162 1.812 . S
P148 C168 1.803 . S
P148 C174 1.819 . S
H149 C163 0.941 . S
H150 C164 0.939 . S
H151 C166 0.940 . S
H152 C167 0.940 . S
H153 C169 0.939 . S
H154 C170 0.942 . S
H155 C172 0.940 . S
H156 C173 0.939 . S
H157 C175 0.941 . S
H158 C179 0.939 . S
O159 P148 1.490 . S
H160 C176 0.939 . S
H161 C178 0.940 . S
C162 P148 1.812 . S
C162 C163 1.389 . S
C162 C167 1.391 . S
C163 H149 0.941 . S
C163 C162 1.389 . S
C163 C164 1.397 . S
C164 H150 0.939 . S
C164 C163 1.397 . S
C164 C165 1.378 . S
C165 C164 1.378 . S
C165 C166 1.378 . S
C166 H151 0.940 . S
C166 C165 1.378 . S
C166 C167 1.396 . S
C167 H152 0.940 . S
C167 C162 1.391 . S
C167 C166 1.396 . S
C168 P148 1.803 . S
C168 C169 1.378 . S
C168 C173 1.400 . S
C169 H153 0.939 . S
C169 C168 1.378 . S
C169 C170 1.361 . S
C170 H154 0.942 . S
C170 C169 1.361 . S
C170 C171 1.369 . S
C171 C170 1.369 . S
C171 C172 1.404 . S
C172 H155 0.940 . S
C172 C171 1.404 . S
C172 C173 1.389 . S
C173 H156 0.939 . S
C173 C168 1.400 . S
C173 C172 1.389 . S
C174 P148 1.819 . S
C174 C175 1.391 . S
C174 C179 1.391 . S
C175 H157 0.941 . S
C175 C174 1.391 . S
C175 C176 1.396 . S
C176 H160 0.939 . S
C176 C175 1.396 . S
C176 C177 1.397 . S
C177 C176 1.397 . S
C177 C178 1.385 . S
C178 H161 0.940 . S
C178 C177 1.385 . S
C178 C179 1.388 . S
C179 H158 0.939 . S
C179 C174 1.391 . S
C179 C178 1.388 . S
P180 O191 1.490 . S
P180 C194 1.812 . S
P180 C200 1.803 . S
P180 C206 1.819 . S
H181 C195 0.941 . S
H182 C196 0.939 . S
H183 C198 0.940 . S
H184 C199 0.940 . S
H185 C201 0.939 . S
H186 C202 0.942 . S
H187 C204 0.940 . S
H188 C205 0.939 . S
H189 C207 0.941 . S
H190 C211 0.939 . S
O191 P180 1.490 . S
H192 C208 0.939 . S
H193 C210 0.940 . S
C194 P180 1.812 . S
C194 C195 1.389 . S
C194 C199 1.391 . S
C195 H181 0.941 . S
C195 C194 1.389 . S
C195 C196 1.397 . S
C196 H182 0.939 . S
C196 C195 1.397 . S
C196 C197 1.378 . S
C197 C196 1.378 . S
C197 C198 1.378 . S
C198 H183 0.940 . S
C198 C197 1.378 . S
C198 C199 1.396 . S
C199 H184 0.940 . S
C199 C194 1.391 . S
C199 C198 1.396 . S
C200 P180 1.803 . S
C200 C201 1.378 . S
C200 C205 1.400 . S
C201 H185 0.939 . S
C201 C200 1.378 . S
C201 C202 1.361 . S
C202 H186 0.942 . S
C202 C201 1.361 . S
C202 C203 1.369 . S
C203 C202 1.369 . S
C203 C204 1.404 . S
C204 H187 0.940 . S
C204 C203 1.404 . S
C204 C205 1.389 . S
C205 H188 0.939 . S
C205 C200 1.400 . S
C205 C204 1.389 . S
C206 P180 1.819 . S
C206 C207 1.391 . S
C206 C211 1.391 . S
C207 H189 0.941 . S
C207 C206 1.391 . S
C207 C208 1.396 . S
C208 H192 0.939 . S
C208 C207 1.396 . S
C208 C209 1.397 . S
C209 C208 1.397 . S
C209 C210 1.385 . S
C210 H193 0.940 . S
C210 C209 1.385 . S
C210 C211 1.388 . S
C211 H190 0.939 . S
C211 C206 1.391 . S
C211 C210 1.388 . S
P212 O223 1.490 . S
P212 C226 1.812 . S
P212 C232 1.803 . S
P212 C238 1.819 . S
H213 C227 0.941 . S
H214 C228 0.939 . S
H215 C230 0.940 . S
H216 C231 0.940 . S
H217 C233 0.939 . S
H218 C234 0.942 . S
H219 C236 0.940 . S
H220 C237 0.939 . S
H221 C239 0.941 . S
H222 C243 0.939 . S
O223 P212 1.490 . S
H224 C240 0.939 . S
H225 C242 0.940 . S
C226 P212 1.812 . S
C226 C227 1.389 . S
C226 C231 1.391 . S
C227 H213 0.941 . S
C227 C226 1.389 . S
C227 C228 1.397 . S
C228 H214 0.939 . S
C228 C227 1.397 . S
C228 C229 1.378 . S
C229 C228 1.378 . S
C229 C230 1.378 . S
C230 H215 0.940 . S
C230 C229 1.378 . S
C230 C231 1.396 . S
C231 H216 0.940 . S
C231 C226 1.391 . S
C231 C230 1.396 . S
C232 P212 1.803 . S
C232 C233 1.378 . S
C232 C237 1.400 . S
C233 H217 0.939 . S
C233 C232 1.378 . S
C233 C234 1.361 . S
C234 H218 0.942 . S
C234 C233 1.361 . S
C234 C235 1.369 . S
C235 C234 1.369 . S
C235 C236 1.404 . S
C236 H219 0.940 . S
C236 C235 1.404 . S
C236 C237 1.389 . S
C237 H220 0.939 . S
C237 C232 1.400 . S
C237 C236 1.389 . S
C238 P212 1.819 . S
C238 C239 1.391 . S
C238 C243 1.391 . S
C239 H221 0.941 . S
C239 C238 1.391 . S
C239 C240 1.396 . S
C240 H224 0.939 . S
C240 C239 1.396 . S
C240 C241 1.397 . S
C241 C240 1.397 . S
C241 C242 1.385 . S
C242 H225 0.940 . S
C242 C241 1.385 . S
C242 C243 1.388 . S
C243 H222 0.939 . S
C243 C238 1.391 . S
C243 C242 1.388 . S
P244 O255 1.490 . S
P244 C258 1.812 . S
P244 C264 1.803 . S
P244 C270 1.819 . S
H245 C259 0.941 . S
H246 C260 0.939 . S
H247 C262 0.940 . S
H248 C263 0.940 . S
H249 C265 0.939 . S
H250 C266 0.942 . S
H251 C268 0.940 . S
H252 C269 0.939 . S
H253 C271 0.941 1_554 S
H254 C275 0.939 . S
O255 P244 1.490 . S
H256 C272 0.939 1_554 S
H257 C274 0.940 . S
C258 P244 1.812 . S
C258 C259 1.389 . S
C258 C263 1.391 . S
C259 H245 0.941 . S
C259 C258 1.389 . S
C259 C260 1.397 . S
C260 H246 0.939 . S
C260 C259 1.397 . S
C260 C261 1.378 . S
C261 C260 1.378 . S
C261 C262 1.378 . S
C262 H247 0.940 . S
C262 C261 1.378 . S
C262 C263 1.396 . S
C263 H248 0.940 . S
C263 C258 1.391 . S
C263 C262 1.396 . S
C264 P244 1.803 . S
C264 C265 1.378 . S
C264 C269 1.400 . S
C265 H249 0.939 . S
C265 C264 1.378 . S
C265 C266 1.361 . S
C266 H250 0.942 . S
C266 C265 1.361 . S
C266 C267 1.369 . S
C267 C266 1.369 . S
C267 C268 1.404 . S
C268 H251 0.940 . S
C268 C267 1.404 . S
C268 C269 1.389 . S
C269 H252 0.939 . S
C269 C264 1.400 . S
C269 C268 1.389 . S
C270 P244 1.819 . S
C270 C271 1.391 . S
C270 C275 1.391 . S
C271 H253 0.941 1_556 S
C271 C270 1.391 . S
C271 C272 1.396 . S
C272 H256 0.939 1_556 S
C272 C271 1.396 . S
C272 C273 1.397 . S
C273 C272 1.397 . S
C273 C274 1.385 . S
C274 H257 0.940 . S
C274 C273 1.385 . S
C274 C275 1.388 . S
C275 H254 0.939 . S
C275 C270 1.391 . S
C275 C274 1.388 . S
P276 O287 1.490 . S
P276 C290 1.812 . S
P276 C296 1.803 . S
P276 C302 1.819 . S
H277 C291 0.941 . S
H278 C292 0.939 . S
H279 C294 0.940 . S
H280 C295 0.940 . S
H281 C297 0.939 . S
H282 C298 0.942 . S
H283 C300 0.940 . S
H284 C301 0.939 . S
H285 C303 0.941 . S
H286 C307 0.939 . S
O287 P276 1.490 . S
H288 C304 0.939 . S
H289 C306 0.940 . S
C290 P276 1.812 . S
C290 C291 1.389 . S
C290 C295 1.391 . S
C291 H277 0.941 . S
C291 C290 1.389 . S
C291 C292 1.397 . S
C292 H278 0.939 . S
C292 C291 1.397 . S
C292 C293 1.378 . S
C293 C292 1.378 . S
C293 C294 1.378 . S
C294 H279 0.940 . S
C294 C293 1.378 . S
C294 C295 1.396 . S
C295 H280 0.940 . S
C295 C290 1.391 . S
C295 C294 1.396 . S
C296 P276 1.803 . S
C296 C297 1.378 . S
C296 C301 1.400 . S
C297 H281 0.939 . S
C297 C296 1.378 . S
C297 C298 1.361 . S
C298 H282 0.942 . S
C298 C297 1.361 . S
C298 C299 1.369 . S
C299 C298 1.369 . S
C299 C300 1.404 . S
C300 H283 0.940 . S
C300 C299 1.404 . S
C300 C301 1.389 . S
C301 H284 0.939 . S
C301 C296 1.400 . S
C301 C300 1.389 . S
C302 P276 1.819 . S
C302 C303 1.391 . S
C302 C307 1.391 . S
C303 H285 0.941 . S
C303 C302 1.391 . S
C303 C304 1.396 . S
C304 H288 0.939 . S
C304 C303 1.396 . S
C304 C305 1.397 . S
C305 C304 1.397 . S
C305 C306 1.385 . S
C306 H289 0.940 . S
C306 C305 1.385 . S
C306 C307 1.388 . S
C307 H286 0.939 . S
C307 C302 1.391 . S
C307 C306 1.388 . S
P308 O319 1.490 . S
P308 C322 1.812 . S
P308 C328 1.803 . S
P308 C334 1.819 . S
H309 C323 0.941 . S
H310 C324 0.939 . S
H311 C326 0.940 . S
H312 C327 0.940 . S
H313 C329 0.939 . S
H314 C330 0.942 . S
H315 C332 0.940 . S
H316 C333 0.939 . S
H317 C335 0.941 . S
H318 C339 0.939 . S
O319 P308 1.490 . S
H320 C336 0.939 . S
H321 C338 0.940 1_455 S
C322 P308 1.812 . S
C322 C323 1.389 . S
C322 C327 1.391 . S
C323 H309 0.941 . S
C323 C322 1.389 . S
C323 C324 1.397 . S
C324 H310 0.939 . S
C324 C323 1.397 . S
C324 C325 1.378 . S
C325 C324 1.378 . S
C325 C326 1.378 . S
C326 H311 0.940 . S
C326 C325 1.378 . S
C326 C327 1.396 . S
C327 H312 0.940 . S
C327 C322 1.391 . S
C327 C326 1.396 . S
C328 P308 1.803 . S
C328 C329 1.378 . S
C328 C333 1.400 . S
C329 H313 0.939 . S
C329 C328 1.378 . S
C329 C330 1.361 . S
C330 H314 0.942 . S
C330 C329 1.361 . S
C330 C331 1.369 . S
C331 C330 1.369 . S
C331 C332 1.404 . S
C332 H315 0.940 . S
C332 C331 1.404 . S
C332 C333 1.389 . S
C333 H316 0.939 . S
C333 C328 1.400 . S
C333 C332 1.389 . S
C334 P308 1.819 . S
C334 C335 1.391 . S
C334 C339 1.391 . S
C335 H317 0.941 . S
C335 C334 1.391 . S
C335 C336 1.396 . S
C336 H320 0.939 . S
C336 C335 1.396 . S
C336 C337 1.397 1_655 S
C337 C336 1.397 1_455 S
C337 C338 1.385 1_455 S
C338 H321 0.940 1_655 S
C338 C337 1.385 1_655 S
C338 C339 1.388 . S
C339 H318 0.939 . S
C339 C334 1.391 . S
C339 C338 1.388 . S
H340 C348 0.950 . S
H341 C353 0.950 . S
H342 C350 0.950 . S
H343 C352 0.950 . S
H344 C354 0.950 . S
H345 C356 0.950 . S
H346 C358 0.950 . S
H347 C359 0.950 . S
C348 H340 0.950 . S
C348 C349 1.386 . S
C348 C350 1.391 . S
C349 C348 1.386 . S
C349 C353 1.393 . S
C350 H342 0.950 . S
C350 C348 1.391 . S
C350 C351 1.400 . S
C351 C350 1.400 . S
C351 C352 1.398 . S
C351 C357 1.491 . S
C352 H343 0.950 . S
C352 C351 1.398 . S
C352 C353 1.391 . S
C353 H341 0.950 . S
C353 C349 1.393 . S
C353 C352 1.391 . S
C354 H344 0.950 . S
C354 C355 1.386 . S
C354 C356 1.391 1_545 S
C355 C354 1.386 . S
C355 C359 1.393 1_545 S
C356 H345 0.950 . S
C356 C354 1.391 1_565 S
C356 C357 1.400 . S
C357 C351 1.491 . S
C357 C356 1.400 . S
C357 C358 1.398 . S
C358 H346 0.950 . S
C358 C357 1.398 . S
C358 C359 1.391 . S
C359 H347 0.950 . S
C359 C355 1.393 1_565 S
C359 C358 1.391 . S
H360 C368 0.950 . S
H361 C373 0.950 . S
H362 C370 0.950 . S
H363 C372 0.950 . S
H364 C374 0.950 . S
H365 C376 0.950 . S
H366 C378 0.950 . S
H367 C379 0.950 . S
C368 H360 0.950 . S
C368 C369 1.386 . S
C368 C370 1.391 . S
C369 C368 1.386 . S
C369 C373 1.393 . S
C370 H362 0.950 . S
C370 C368 1.391 . S
C370 C371 1.400 . S
C371 C370 1.400 . S
C371 C372 1.398 . S
C371 C377 1.491 . S
C372 H363 0.950 . S
C372 C371 1.398 . S
C372 C373 1.391 . S
C373 H361 0.950 . S
C373 C369 1.393 . S
C373 C372 1.391 . S
C374 H364 0.950 . S
C374 C375 1.386 . S
C374 C376 1.391 . S
C375 C374 1.386 . S
C375 C379 1.393 . S
C376 H365 0.950 . S
C376 C374 1.391 . S
C376 C377 1.400 . S
C377 C371 1.491 . S
C377 C376 1.400 . S
C377 C378 1.398 . S
C378 H366 0.950 . S
C378 C377 1.398 . S
C378 C379 1.391 . S
C379 H367 0.950 . S
C379 C375 1.393 . S
C379 C378 1.391 . S
H380 C388 0.950 . S
H381 C393 0.950 . S
H382 C390 0.950 . S
H383 C392 0.950 . S
H384 C394 0.950 . S
H385 C396 0.950 . S
H386 C398 0.950 . S
H387 C399 0.950 . S
C388 H380 0.950 . S
C388 C389 1.386 . S
C388 C390 1.391 . S
C389 C388 1.386 . S
C389 C393 1.393 . S
C390 H382 0.950 . S
C390 C388 1.391 . S
C390 C391 1.400 . S
C391 C390 1.400 . S
C391 C392 1.398 . S
C391 C397 1.491 . S
C392 H383 0.950 . S
C392 C391 1.398 . S
C392 C393 1.391 . S
C393 H381 0.950 . S
C393 C389 1.393 . S
C393 C392 1.391 . S
C394 H384 0.950 . S
C394 C395 1.386 . S
C394 C396 1.391 . S
C395 C394 1.386 . S
C395 C399 1.393 . S
C396 H385 0.950 . S
C396 C394 1.391 . S
C396 C397 1.400 1_565 S
C397 C391 1.491 . S
C397 C396 1.400 1_545 S
C397 C398 1.398 . S
C398 H386 0.950 . S
C398 C397 1.398 . S
C398 C399 1.391 1_545 S
C399 H387 0.950 . S
C399 C395 1.393 . S
C399 C398 1.391 1_565 S
H400 C408 0.950 . S
H401 C413 0.950 . S
H402 C410 0.950 . S
H403 C412 0.950 . S
H404 C414 0.950 . S
H405 C416 0.950 . S
H406 C418 0.950 . S
H407 C419 0.950 . S
C408 H400 0.950 . S
C408 C409 1.386 . S
C408 C410 1.391 . S
C409 C408 1.386 . S
C409 C413 1.393 . S
C410 H402 0.950 . S
C410 C408 1.391 . S
C410 C411 1.400 . S
C411 C410 1.400 . S
C411 C412 1.398 . S
C411 C417 1.491 . S
C412 H403 0.950 . S
C412 C411 1.398 . S
C412 C413 1.391 . S
C413 H401 0.950 . S
C413 C409 1.393 . S
C413 C412 1.391 . S
C414 H404 0.950 . S
C414 C415 1.386 . S
C414 C416 1.391 . S
C415 C414 1.386 . S
C415 C419 1.393 . S
C416 H405 0.950 . S
C416 C414 1.391 . S
C416 C417 1.400 . S
C417 C411 1.491 . S
C417 C416 1.400 . S
C417 C418 1.398 . S
C418 H406 0.950 . S
C418 C417 1.398 . S
C418 C419 1.391 . S
C419 H407 0.950 . S
C419 C415 1.393 . S
C419 C418 1.391 . S
H420 C428 0.950 . S
H421 C433 0.950 . S
H422 C430 0.950 . S
H423 C432 0.950 . S
H424 C434 0.950 . S
H425 C436 0.950 . S
H426 C438 0.950 . S
H427 C439 0.950 . S
C428 H420 0.950 . S
C428 C429 1.386 . S
C428 C430 1.391 . S
C429 C428 1.386 . S
C429 C433 1.393 . S
C430 H422 0.950 . S
C430 C428 1.391 . S
C430 C431 1.400 . S
C431 C430 1.400 . S
C431 C432 1.398 . S
C431 C437 1.491 . S
C432 H423 0.950 . S
C432 C431 1.398 . S
C432 C433 1.391 . S
C433 H421 0.950 . S
C433 C429 1.393 . S
C433 C432 1.391 . S
C434 H424 0.950 . S
C434 C435 1.386 . S
C434 C436 1.391 . S
C435 C434 1.386 . S
C435 C439 1.393 . S
C436 H425 0.950 . S
C436 C434 1.391 . S
C436 C437 1.400 . S
C437 C431 1.491 . S
C437 C436 1.400 . S
C437 C438 1.398 . S
C438 H426 0.950 . S
C438 C437 1.398 . S
C438 C439 1.391 . S
C439 H427 0.950 . S
C439 C435 1.393 . S
C439 C438 1.391 . S
H440 C448 0.950 . S
H441 C453 0.950 . S
H442 C450 0.950 . S
H443 C452 0.950 . S
H444 C454 0.950 1_554 S
H445 C456 0.950 1_554 S
H446 C458 0.950 . S
H447 C459 0.950 . S
C448 H440 0.950 . S
C448 C449 1.386 . S
C448 C450 1.391 . S
C449 C448 1.386 . S
C449 C453 1.393 1_556 S
C450 H442 0.950 . S
C450 C448 1.391 . S
C450 C451 1.400 . S
C451 C450 1.400 . S
C451 C452 1.398 1_556 S
C451 C457 1.491 1_655 S
C452 H443 0.950 . S
C452 C451 1.398 1_554 S
C452 C453 1.391 . S
C453 H441 0.950 . S
C453 C449 1.393 1_554 S
C453 C452 1.391 . S
C454 H444 0.950 1_556 S
C454 C455 1.386 . S
C454 C456 1.391 . S
C455 C454 1.386 . S
C455 C459 1.393 . S
C456 H445 0.950 1_556 S
C456 C454 1.391 . S
C456 C457 1.400 . S
C457 C451 1.491 1_455 S
C457 C456 1.400 . S
C457 C458 1.398 . S
C458 H446 0.950 . S
C458 C457 1.398 . S
C458 C459 1.391 . S
C459 H447 0.950 . S
C459 C455 1.393 . S
C459 C458 1.391 . S
H460 C468 0.950 . S
H461 C473 0.950 . S
H462 C470 0.950 . S
H463 C472 0.950 . S
H464 C474 0.950 . S
H465 C476 0.950 . S
H466 C478 0.950 . S
H467 C479 0.950 . S
C468 H460 0.950 . S
C468 C469 1.386 . S
C468 C470 1.391 . S
C469 C468 1.386 . S
C469 C473 1.393 . S
C470 H462 0.950 . S
C470 C468 1.391 . S
C470 C471 1.400 . S
C471 C470 1.400 . S
C471 C472 1.398 . S
C471 C477 1.491 . S
C472 H463 0.950 . S
C472 C471 1.398 . S
C472 C473 1.391 . S
C473 H461 0.950 . S
C473 C469 1.393 . S
C473 C472 1.391 . S
C474 H464 0.950 . S
C474 C475 1.386 . S
C474 C476 1.391 . S
C475 C474 1.386 . S
C475 C479 1.393 . S
C476 H465 0.950 . S
C476 C474 1.391 . S
C476 C477 1.400 . S
C477 C471 1.491 . S
C477 C476 1.400 . S
C477 C478 1.398 . S
C478 H466 0.950 . S
C478 C477 1.398 . S
C478 C479 1.391 . S
C479 H467 0.950 . S
C479 C475 1.393 . S
C479 C478 1.391 . S
H480 C488 0.950 . S
H481 C493 0.950 . S
H482 C490 0.950 . S
H483 C492 0.950 . S
H484 C494 0.950 . S
H485 C496 0.950 . S
H486 C498 0.950 . S
H487 C499 0.950 1_655 S
C488 H480 0.950 . S
C488 C489 1.386 . S
C488 C490 1.391 . S
C489 C488 1.386 . S
C489 C493 1.393 . S
C490 H482 0.950 . S
C490 C488 1.391 . S
C490 C491 1.400 . S
C491 C490 1.400 . S
C491 C492 1.398 . S
C491 C497 1.491 . S
C492 H483 0.950 . S
C492 C491 1.398 . S
C492 C493 1.391 . S
C493 H481 0.950 . S
C493 C489 1.393 . S
C493 C492 1.391 . S
C494 H484 0.950 . S
C494 C495 1.386 . S
C494 C496 1.391 . S
C495 C494 1.386 . S
C495 C499 1.393 . S
C496 H485 0.950 . S
C496 C494 1.391 . S
C496 C497 1.400 . S
C497 C491 1.491 . S
C497 C496 1.400 . S
C497 C498 1.398 . S
C498 H486 0.950 . S
C498 C497 1.398 . S
C498 C499 1.391 . S
C499 H487 0.950 1_455 S
C499 C495 1.393 . S
C499 C498 1.391 . S
H500 C508 0.950 . S
H501 C513 0.950 . S
H502 C510 0.950 . S
H503 C512 0.950 . S
H504 C514 0.950 . S
H505 C516 0.927 1_545 S
H506 C518 0.950 . S
H507 C519 0.950 . S
C508 H500 0.950 . S
C508 C509 1.386 . S
C508 C510 1.391 . S
C509 C508 1.386 . S
C509 C513 1.393 . S
C510 H502 0.950 . S
C510 C508 1.391 . S
C510 C511 1.400 . S
C511 C510 1.400 . S
C511 C512 1.398 . S
C511 C517 1.491 1_545 S
C512 H503 0.950 . S
C512 C511 1.398 . S
C512 C513 1.391 . S
C513 H501 0.950 . S
C513 C509 1.393 . S
C513 C512 1.391 . S
C514 H504 0.950 . S
C514 C515 1.386 . S
C514 C516 1.412 . S
C515 C514 1.386 . S
C515 C519 1.393 . S
C516 H505 0.927 1_565 S
C516 C514 1.412 . S
C516 C517 1.402 . S
C517 C511 1.491 1_565 S
C517 C516 1.402 . S
C517 C518 1.398 . S
C518 H506 0.950 . S
C518 C517 1.398 . S
C518 C519 1.391 . S
C519 H507 0.950 . S
C519 C515 1.393 . S
C519 C518 1.391 . S
H520 C528 0.950 . S
H521 C533 0.950 . S
H522 C530 0.950 . S
H523 C532 0.950 . S
H524 C534 0.950 . S
H525 C536 0.950 . S
H526 C538 0.950 . S
H527 C539 0.950 . S
C528 H520 0.950 . S
C528 C529 1.386 . S
C528 C530 1.391 . S
C529 C528 1.386 . S
C529 C533 1.393 . S
C530 H522 0.950 . S
C530 C528 1.391 . S
C530 C531 1.400 . S
C531 C530 1.400 . S
C531 C532 1.398 . S
C531 C537 1.491 . S
C532 H523 0.950 . S
C532 C531 1.398 . S
C532 C533 1.391 . S
C533 H521 0.950 . S
C533 C529 1.393 . S
C533 C532 1.391 . S
C534 H524 0.950 . S
C534 C535 1.386 . S
C534 C536 1.391 . S
C535 C534 1.386 . S
C535 C539 1.393 . S
C536 H525 0.950 . S
C536 C534 1.391 . S
C536 C537 1.400 . S
C537 C531 1.491 . S
C537 C536 1.400 . S
C537 C538 1.398 . S
C538 H526 0.950 . S
C538 C537 1.398 . S
C538 C539 1.391 . S
C539 H527 0.950 . S
C539 C535 1.393 . S
C539 C538 1.391 . S
H540 C548 0.950 . S
H541 C553 0.950 . S
H542 C550 0.950 . S
H543 C552 0.950 1_545 S
H544 C554 0.950 1_554 S
H545 C556 0.950 . S
H546 C558 0.950 . S
H547 C559 0.950 . S
C548 H540 0.950 . S
C548 C549 1.386 1_556 S
C548 C550 1.391 . S
C549 C548 1.386 1_554 S
C549 C553 1.393 . S
C550 H542 0.950 . S
C550 C548 1.391 . S
C550 C551 1.400 . S
C551 C550 1.400 . S
C551 C552 1.398 1_556 S
C551 C557 1.491 1_565 S
C552 H543 0.950 1_565 S
C552 C551 1.398 1_554 S
C552 C553 1.391 . S
C553 H541 0.950 . S
C553 C549 1.393 . S
C553 C552 1.391 . S
C554 H544 0.950 1_556 S
C554 C555 1.386 . S
C554 C556 1.391 1_556 S
C555 C554 1.386 . S
C555 C559 1.393 . S
C556 H545 0.950 . S
C556 C554 1.391 1_554 S
C556 C557 1.400 1_554 S
C557 C551 1.491 1_545 S
C557 C556 1.400 1_556 S
C557 C558 1.398 . S
C558 H546 0.950 . S
C558 C557 1.398 . S
C558 C559 1.391 . S
C559 H547 0.950 . S
C559 C555 1.393 . S
C559 C558 1.391 . S
H560 C568 0.950 . S
H561 C573 0.950 . S
H562 C570 0.950 . S
H563 C572 0.950 . S
H564 C574 0.950 . S
H565 C576 0.950 . S
H566 C578 0.950 . S
H567 C579 0.950 . S
C568 H560 0.950 . S
C568 C569 1.386 . S
C568 C570 1.391 . S
C569 C568 1.386 . S
C569 C573 1.393 . S
C570 H562 0.950 . S
C570 C568 1.391 . S
C570 C571 1.400 . S
C571 C570 1.400 . S
C571 C572 1.398 . S
C571 C577 1.491 . S
C572 H563 0.950 . S
C572 C571 1.398 . S
C572 C573 1.391 . S
C573 H561 0.950 . S
C573 C569 1.393 . S
C573 C572 1.391 . S
C574 H564 0.950 . S
C574 C575 1.386 . S
C574 C576 1.391 . S
C575 C574 1.386 . S
C575 C579 1.393 . S
C576 H565 0.950 . S
C576 C574 1.391 . S
C576 C577 1.400 . S
C577 C571 1.491 . S
C577 C576 1.400 . S
C577 C578 1.398 . S
C578 H566 0.950 . S
C578 C577 1.398 . S
C578 C579 1.391 . S
C579 H567 0.950 . S
C579 C575 1.393 . S
C579 C578 1.391 . S
H580 C588 0.950 . S
H581 C593 0.950 . S
H582 C590 0.950 . S
H583 C592 0.950 . S
H584 C594 0.950 . S
H585 C596 0.950 . S
H586 C598 0.950 . S
H587 C599 0.950 . S
C588 H580 0.950 . S
C588 C589 1.386 . S
C588 C590 1.391 . S
C589 C588 1.386 . S
C589 C593 1.393 . S
C590 H582 0.950 . S
C590 C588 1.391 . S
C590 C591 1.400 . S
C591 C590 1.400 . S
C591 C592 1.398 . S
C591 C597 1.491 . S
C592 H583 0.950 . S
C592 C591 1.398 . S
C592 C593 1.391 . S
C593 H581 0.950 . S
C593 C589 1.393 . S
C593 C592 1.391 . S
C594 H584 0.950 . S
C594 C595 1.386 . S
C594 C596 1.391 . S
C595 C594 1.386 . S
C595 C599 1.393 . S
C596 H585 0.950 . S
C596 C594 1.391 . S
C596 C597 1.400 . S
C597 C591 1.491 . S
C597 C596 1.400 . S
C597 C598 1.398 . S
C598 H586 0.950 . S
C598 C597 1.398 . S
C598 C599 1.391 . S
C599 H587 0.950 . S
C599 C595 1.393 . S
C599 C598 1.391 . S
H600 C608 0.950 . S
H601 C613 0.950 . S
H602 C610 0.950 . S
H603 C612 0.950 1_655 S
H604 C614 0.950 . S
H605 C616 0.950 . S
H606 C618 0.950 . S
H607 C619 0.950 . S
C608 H600 0.950 . S
C608 C609 1.386 . S
C608 C610 1.391 1_455 S
C609 C608 1.386 . S
C609 C613 1.393 . S
C610 H602 0.950 . S
C610 C608 1.391 1_655 S
C610 C611 1.400 . S
C611 C610 1.400 . S
C611 C612 1.398 1_655 S
C611 C617 1.491 . S
C612 H603 0.950 1_455 S
C612 C611 1.398 1_455 S
C612 C613 1.391 . S
C613 H601 0.950 . S
C613 C609 1.393 . S
C613 C612 1.391 . S
C614 H604 0.950 . S
C614 C615 1.386 . S
C614 C616 1.391 . S
C615 C614 1.386 . S
C615 C619 1.393 . S
C616 H605 0.950 . S
C616 C614 1.391 . S
C616 C617 1.400 . S
C617 C611 1.491 . S
C617 C616 1.400 . S
C617 C618 1.398 . S
C618 H606 0.950 . S
C618 C617 1.398 . S
C618 C619 1.391 . S
C619 H607 0.950 . S
C619 C615 1.393 . S
C619 C618 1.391 . S
H620 C628 0.950 . S
H621 C633 0.950 . S
H622 C630 0.950 . S
H623 C632 0.950 . S
H624 C634 0.950 . S
H625 C636 0.950 . S
H626 C638 0.950 . S
H627 C639 0.950 . S
C628 H620 0.950 . S
C628 C629 1.386 . S
C628 C630 1.391 . S
C629 C628 1.386 . S
C629 C633 1.393 . S
C630 H622 0.950 . S
C630 C628 1.391 . S
C630 C631 1.400 . S
C631 C630 1.400 . S
C631 C632 1.398 . S
C631 C637 1.491 . S
C632 H623 0.950 . S
C632 C631 1.398 . S
C632 C633 1.391 . S
C633 H621 0.950 . S
C633 C629 1.393 . S
C633 C632 1.391 . S
C634 H624 0.950 . S
C634 C635 1.386 . S
C634 C636 1.391 . S
C635 C634 1.386 . S
C635 C639 1.393 . S
C636 H625 0.950 . S
C636 C634 1.391 . S
C636 C637 1.400 . S
C637 C631 1.491 . S
C637 C636 1.400 . S
C637 C638 1.398 . S
C638 H626 0.950 . S
C638 C637 1.398 . S
C638 C639 1.391 . S
C639 H627 0.950 . S
C639 C635 1.393 . S
C639 C638 1.391 . S
H640 C648 0.950 . S
H641 C653 0.950 . S
H642 C650 0.950 . S
H643 C652 0.950 . S
H644 C654 0.950 . S
H645 C656 0.950 . S
H646 C658 0.950 . S
H647 C659 0.950 . S
C648 H640 0.950 . S
C648 C649 1.386 . S
C648 C650 1.391 . S
C649 C648 1.386 . S
C649 C653 1.393 . S
C650 H642 0.950 . S
C650 C648 1.391 . S
C650 C651 1.400 . S
C651 C650 1.400 . S
C651 C652 1.398 . S
C651 C657 1.491 . S
C652 H643 0.950 . S
C652 C651 1.398 . S
C652 C653 1.391 . S
C653 H641 0.950 . S
C653 C649 1.393 . S
C653 C652 1.391 . S
C654 H644 0.950 . S
C654 C655 1.386 . S
C654 C656 1.391 . S
C655 C654 1.386 . S
C655 C659 1.393 1_455 S
C656 H645 0.950 . S
C656 C654 1.391 . S
C656 C657 1.400 1_455 S
C657 C651 1.491 . S
C657 C656 1.400 1_655 S
C657 C658 1.398 . S
C658 H646 0.950 . S
C658 C657 1.398 . S
C658 C659 1.391 . S
C659 H647 0.950 . S
C659 C655 1.393 1_655 S
C659 C658 1.391 . S
H660 C668 0.950 . S
H661 C673 0.950 . S
H662 C670 0.950 . S
H663 C672 0.950 . S
H664 C674 0.950 . S
H665 C676 0.950 . S
H666 C678 0.950 . S
H667 C679 0.950 . S
C668 H660 0.950 . S
C668 C669 1.386 . S
C668 C670 1.391 . S
C669 C668 1.386 . S
C669 C673 1.393 . S
C670 H662 0.950 . S
C670 C668 1.391 . S
C670 C671 1.400 . S
C671 C670 1.400 . S
C671 C672 1.398 . S
C671 C677 1.491 . S
C672 H663 0.950 . S
C672 C671 1.398 . S
C672 C673 1.391 . S
C673 H661 0.950 . S
C673 C669 1.393 . S
C673 C672 1.391 . S
C674 H664 0.950 . S
C674 C675 1.386 . S
C674 C676 1.391 . S
C675 C674 1.386 . S
C675 C679 1.393 . S
C676 H665 0.950 . S
C676 C674 1.391 . S
C676 C677 1.400 . S
C677 C671 1.491 . S
C677 C676 1.400 . S
C677 C678 1.398 . S
C678 H666 0.950 . S
C678 C677 1.398 . S
C678 C679 1.391 . S
C679 H667 0.950 . S
C679 C675 1.393 . S
C679 C678 1.391 . S
H680 C688 0.950 . S
H681 C693 0.950 . S
H682 C690 0.950 . S
H683 C692 0.950 . S
H684 C694 0.950 . S
H685 C696 0.950 . S
H686 C698 0.950 . S
H687 C699 0.950 . S
C688 H680 0.950 . S
C688 C689 1.386 . S
C688 C690 1.391 . S
C689 C688 1.386 . S
C689 C693 1.393 . S
C690 H682 0.950 . S
C690 C688 1.391 . S
C690 C691 1.400 . S
C691 C690 1.400 . S
C691 C692 1.398 . S
C691 C697 1.491 . S
C692 H683 0.950 . S
C692 C691 1.398 . S
C692 C693 1.391 . S
C693 H681 0.950 . S
C693 C689 1.393 . S
C693 C692 1.391 . S
C694 H684 0.950 . S
C694 C695 1.386 . S
C694 C696 1.391 . S
C695 C694 1.386 . S
C695 C699 1.393 . S
C696 H685 0.950 . S
C696 C694 1.391 . S
C696 C697 1.400 . S
C697 C691 1.491 . S
C697 C696 1.400 . S
C697 C698 1.398 . S
C698 H686 0.950 . S
C698 C697 1.398 . S
C698 C699 1.391 . S
C699 H687 0.950 . S
C699 C695 1.393 . S
C699 C698 1.391 . S
H700 C708 0.950 . S
H701 C713 0.950 . S
H702 C710 0.950 . S
H703 C712 0.950 . S
H704 C714 0.950 . S
H705 C716 0.950 . S
H706 C718 0.950 . S
H707 C719 0.950 . S
C708 H700 0.950 . S
C708 C709 1.386 . S
C708 C710 1.391 . S
C709 C708 1.386 . S
C709 C713 1.393 . S
C710 H702 0.950 . S
C710 C708 1.391 . S
C710 C711 1.400 . S
C711 C710 1.400 . S
C711 C712 1.398 . S
C711 C717 1.491 . S
C712 H703 0.950 . S
C712 C711 1.398 . S
C712 C713 1.391 . S
C713 H701 0.950 . S
C713 C709 1.393 . S
C713 C712 1.391 . S
C714 H704 0.950 . S
C714 C715 1.386 . S
C714 C716 1.391 . S
C715 C714 1.386 . S
C715 C719 1.393 . S
C716 H705 0.950 . S
C716 C714 1.391 . S
C716 C717 1.400 . S
C717 C711 1.491 . S
C717 C716 1.400 . S
C717 C718 1.398 . S
C718 H706 0.950 . S
C718 C717 1.398 . S
C718 C719 1.391 . S
C719 H707 0.950 . S
C719 C715 1.393 . S
C719 C718 1.391 . S
H720 C728 0.950 . S
H721 C733 0.950 . S
H722 C730 0.950 . S
H723 C732 0.950 . S
H724 C734 0.950 . S
H725 C736 0.950 . S
H726 C738 0.950 . S
H727 C739 0.950 . S
C728 H720 0.950 . S
C728 C729 1.386 . S
C728 C730 1.391 . S
C729 C728 1.386 . S
C729 C733 1.393 . S
C730 H722 0.950 . S
C730 C728 1.391 . S
C730 C731 1.400 . S
C731 C730 1.400 . S
C731 C732 1.398 . S
C731 C737 1.491 . S
C732 H723 0.950 . S
C732 C731 1.398 . S
C732 C733 1.391 . S
C733 H721 0.950 . S
C733 C729 1.393 . S
C733 C732 1.391 . S
C734 H724 0.950 . S
C734 C735 1.386 . S
C734 C736 1.391 . S
C735 C734 1.386 . S
C735 C739 1.393 . S
C736 H725 0.950 . S
C736 C734 1.391 . S
C736 C737 1.400 . S
C737 C731 1.491 . S
C737 C736 1.400 . S
C737 C738 1.398 . S
C738 H726 0.950 . S
C738 C737 1.398 . S
C738 C739 1.391 . S
C739 H727 0.950 . S
C739 C735 1.393 . S
C739 C738 1.391 . S
H740 C748 0.950 . S
H741 C753 0.950 . S
H742 C750 0.950 . S
H743 C752 0.950 . S
H744 C754 0.950 . S
H745 C756 0.950 . S
H746 C758 0.950 . S
H747 C759 0.950 . S
C748 H740 0.950 . S
C748 C749 1.386 . S
C748 C750 1.391 . S
C749 C748 1.386 . S
C749 C753 1.393 . S
C750 H742 0.950 . S
C750 C748 1.391 . S
C750 C751 1.400 . S
C751 C750 1.400 . S
C751 C752 1.398 . S
C751 C757 1.491 . S
C752 H743 0.950 . S
C752 C751 1.398 . S
C752 C753 1.391 . S
C753 H741 0.950 . S
C753 C749 1.393 . S
C753 C752 1.391 . S
C754 H744 0.950 . S
C754 C755 1.386 . S
C754 C756 1.391 . S
C755 C754 1.386 . S
C755 C759 1.393 . S
C756 H745 0.950 . S
C756 C754 1.391 . S
C756 C757 1.400 . S
C757 C751 1.491 . S
C757 C756 1.400 . S
C757 C758 1.398 . S
C758 H746 0.950 . S
C758 C757 1.398 . S
C758 C759 1.391 . S
C759 H747 0.950 . S
C759 C755 1.393 . S
C759 C758 1.391 . S
H760 C768 0.950 . S
H761 C773 0.950 . S
H762 C770 0.950 . S
H763 C772 0.950 . S
H764 C774 0.950 . S
H765 C776 0.950 . S
H766 C778 0.950 . S
H767 C779 0.950 . S
C768 H760 0.950 . S
C768 C769 1.386 . S
C768 C770 1.391 . S
C769 C768 1.386 . S
C769 C773 1.393 . S
C770 H762 0.950 . S
C770 C768 1.391 . S
C770 C771 1.400 . S
C771 C770 1.400 . S
C771 C772 1.398 . S
C771 C777 1.491 . S
C772 H763 0.950 . S
C772 C771 1.398 . S
C772 C773 1.391 . S
C773 H761 0.950 . S
C773 C769 1.393 . S
C773 C772 1.391 . S
C774 H764 0.950 . S
C774 C775 1.386 . S
C774 C776 1.391 . S
C775 C774 1.386 . S
C775 C779 1.393 . S
C776 H765 0.950 . S
C776 C774 1.391 . S
C776 C777 1.400 . S
C777 C771 1.491 . S
C777 C776 1.400 . S
C777 C778 1.398 . S
C778 H766 0.950 . S
C778 C777 1.398 . S
C778 C779 1.391 . S
C779 H767 0.950 . S
C779 C775 1.393 . S
C779 C778 1.391 . S
H780 C788 0.950 . S
H781 C793 0.950 . S
H782 C790 0.950 . S
H783 C792 0.950 . S
H784 C794 0.950 . S
H785 C796 0.950 . S
H786 C798 0.950 . S
H787 C799 0.950 . S
C788 H780 0.950 . S
C788 C789 1.386 . S
C788 C790 1.391 . S
C789 C788 1.386 . S
C789 C793 1.393 . S
C790 H782 0.950 . S
C790 C788 1.391 . S
C790 C791 1.400 . S
C791 C790 1.400 . S
C791 C792 1.398 . S
C791 C797 1.491 . S
C792 H783 0.950 . S
C792 C791 1.398 . S
C792 C793 1.391 . S
C793 H781 0.950 . S
C793 C789 1.393 . S
C793 C792 1.391 . S
C794 H784 0.950 . S
C794 C795 1.386 . S
C794 C796 1.391 . S
C795 C794 1.386 . S
C795 C799 1.393 . S
C796 H785 0.950 . S
C796 C794 1.391 . S
C796 C797 1.400 . S
C797 C791 1.491 . S
C797 C796 1.400 . S
C797 C798 1.398 . S
C798 H786 0.950 . S
C798 C797 1.398 . S
C798 C799 1.391 . S
C799 H787 0.950 . S
C799 C795 1.393 . S
C799 C798 1.391 . S
H800 C808 0.950 . S
H801 C813 0.950 . S
H802 C810 0.950 . S
H803 C812 0.950 . S
H804 C814 0.950 . S
H805 C816 0.950 . S
H806 C818 0.950 . S
H807 C819 0.950 . S
C808 H800 0.950 . S
C808 C809 1.386 1_556 S
C808 C810 1.391 . S
C809 C808 1.386 1_554 S
C809 C813 1.393 . S
C810 H802 0.950 . S
C810 C808 1.391 . S
C810 C811 1.400 . S
C811 C810 1.400 . S
C811 C812 1.398 1_556 S
C811 C817 1.491 . S
C812 H803 0.950 . S
C812 C811 1.398 1_554 S
C812 C813 1.391 . S
C813 H801 0.950 . S
C813 C809 1.393 . S
C813 C812 1.391 . S
C814 H804 0.950 . S
C814 C815 1.386 . S
C814 C816 1.391 . S
C815 C814 1.386 . S
C815 C819 1.393 . S
C816 H805 0.950 . S
C816 C814 1.391 . S
C816 C817 1.400 . S
C817 C811 1.491 . S
C817 C816 1.400 . S
C817 C818 1.398 . S
C818 H806 0.950 . S
C818 C817 1.398 . S
C818 C819 1.391 . S
C819 H807 0.950 . S
C819 C815 1.393 . S
C819 C818 1.391 . S
C349 C7 0.818 . S
C355 C101 0.804 . S
C369 C25 0.812 . S
C375 C133 0.900 . S
C389 C46 1.031 . S
C395 C165 0.961 . S
C415 C209 0.898 . S
C409 C70 0.892 . S
C435 C229 0.727 . S
C429 C28 0.781 . S
C449 C49 0.896 . S
C455 C273 0.895 . S
C469 C67 0.988 . S
C475 C293 0.994 . S
C489 C4 0.848 . S
C495 C337 0.876 . S
C509 C58 1.675 . S
C515 C325 1.742 . S
C535 C241 1.631 . S
C529 C66 1.560 . S
C555 C261 1.918 . S
C549 C3 1.855 . S
C569 C37 1.764 . S
C575 C305 1.744 . S
C595 C145 1.878 . S
C589 C79 1.710 . S
C609 C16 1.757 . S
C615 C177 1.739 . S
C635 C197 1.870 . S
C629 C24 1.809 . S
C655 C113 1.627 . S
C649 C45 1.536 . S
C675 C299 1.396 . S
C669 C19 1.244 . S
C695 C331 1.256 . S
C689 C41 1.251 . S
C709 C62 1.085 . S
C715 C235 1.159 . S
C735 C267 1.381 . S
C729 C82 1.156 . S
C755 C171 1.422 . S
C749 C40 1.294 . S
C769 C61 1.123 . S
C775 C203 1.346 . S
C795 C107 1.193 . S
C789 C83 1.122 . S
C815 C139 1.337 . S
C809 C20 1.234 . S
