# Generated by pormake.
# Topology nom, (4,4)-cn, num edge types: 1
# Building blocks:
#     Node 0, Type 0, BuildingBlock: AZAVOO_clean_linker_0, # of connection points: 4
#     Node 1, Type 0, BuildingBlock: AZAVOO_clean_linker_0, # of connection points: 4
#     Node 2, Type 0, BuildingBlock: AZAVOO_clean_linker_0, # of connection points: 4
#     Node 3, Type 0, BuildingBlock: AZAVOO_clean_linker_0, # of connection points: 4
#     Node 4, Type 0, BuildingBlock: AZAVOO_clean_linker_0, # of connection points: 4
#     Node 5, Type 0, BuildingBlock: AZAVOO_clean_linker_0, # of connection points: 4
#     Node 6, Type 1, BuildingBlock: QUQFOY_clean_sbu_1, # of connection points: 4
#     Node 7, Type 1, BuildingBlock: QUQFOY_clean_sbu_1, # of connection points: 4
#     Node 8, Type 1, BuildingBlock: QUQFOY_clean_sbu_1, # of connection points: 4
#     Node 9, Type 1, BuildingBlock: QUQFOY_clean_sbu_1, # of connection points: 4
#     Node 10, Type 1, BuildingBlock: QUQFOY_clean_sbu_1, # of connection points: 4
#     Node 11, Type 1, BuildingBlock: QUQFOY_clean_sbu_1, # of connection points: 4
#     Edge 12, Type (0, 1), BuildingBlock: XIVTED_clean_linker_0, # of connection points: 2
#     Edge 13, Type (0, 1), BuildingBlock: XIVTED_clean_linker_0, # of connection points: 2
#     Edge 14, Type (0, 1), BuildingBlock: XIVTED_clean_linker_0, # of connection points: 2
#     Edge 15, Type (0, 1), BuildingBlock: XIVTED_clean_linker_0, # of connection points: 2
#     Edge 16, Type (0, 1), BuildingBlock: XIVTED_clean_linker_0, # of connection points: 2
#     Edge 17, Type (0, 1), BuildingBlock: XIVTED_clean_linker_0, # of connection points: 2
#     Edge 18, Type (0, 1), BuildingBlock: XIVTED_clean_linker_0, # of connection points: 2
#     Edge 19, Type (0, 1), BuildingBlock: XIVTED_clean_linker_0, # of connection points: 2
#     Edge 20, Type (0, 1), BuildingBlock: XIVTED_clean_linker_0, # of connection points: 2
#     Edge 21, Type (0, 1), BuildingBlock: XIVTED_clean_linker_0, # of connection points: 2
#     Edge 22, Type (0, 1), BuildingBlock: XIVTED_clean_linker_0, # of connection points: 2
#     Edge 23, Type (0, 1), BuildingBlock: XIVTED_clean_linker_0, # of connection points: 2
#     Edge 24, Type (0, 1), BuildingBlock: XIVTED_clean_linker_0, # of connection points: 2
#     Edge 25, Type (0, 1), BuildingBlock: XIVTED_clean_linker_0, # of connection points: 2
#     Edge 26, Type (0, 1), BuildingBlock: XIVTED_clean_linker_0, # of connection points: 2
#     Edge 27, Type (0, 1), BuildingBlock: XIVTED_clean_linker_0, # of connection points: 2
#     Edge 28, Type (0, 1), BuildingBlock: XIVTED_clean_linker_0, # of connection points: 2
#     Edge 29, Type (0, 1), BuildingBlock: XIVTED_clean_linker_0, # of connection points: 2
#     Edge 30, Type (0, 1), BuildingBlock: XIVTED_clean_linker_0, # of connection points: 2
#     Edge 31, Type (0, 1), BuildingBlock: XIVTED_clean_linker_0, # of connection points: 2
#     Edge 32, Type (0, 1), BuildingBlock: XIVTED_clean_linker_0, # of connection points: 2
#     Edge 33, Type (0, 1), BuildingBlock: XIVTED_clean_linker_0, # of connection points: 2
#     Edge 34, Type (0, 1), BuildingBlock: XIVTED_clean_linker_0, # of connection points: 2
#     Edge 35, Type (0, 1), BuildingBlock: XIVTED_clean_linker_0, # of connection points: 2
# Relax obj value: 0.179
# Max RMSD: 0.248
# Mean RMSD: 0.188
data_MOF--net-nom--node1-QUQFOY_clean_sbu_1--node2-AZAVOO_clean_linker_0--edge1-XIVTED_clean_linker_0
_symmetry_space_group_name_H-M    P1
_symmetry_Int_Tables_number       1
_symmetry_cell_setting            triclinic
loop_
_symmetry_equiv_pos_as_xyz
'x, y, z'
_cell_length_a     49.792332
_cell_length_b     51.463063
_cell_length_c     57.430475
_cell_angle_alpha  90.15971
_cell_angle_beta   89.784007
_cell_angle_gamma 120.8863
loop_
_atom_site_label
_atom_site_type_symbol
_atom_site_fract_x
_atom_site_fract_y
_atom_site_fract_z
_atom_type_partial_charge
H0 H 0.05318 0.45676 0.16199 0.0
H1 H 0.23636 0.64599 0.37255 0.0
H2 H 0.99322 0.44614 0.27833 0.0
H3 H 0.95175 0.4249 0.24917 0.0
H4 H 0.94379 0.50452 0.25444 0.0
H5 H 0.98618 0.52605 0.28296 0.0
H6 H 0.06487 0.47227 0.26314 0.0
H7 H 0.06294 0.45978 0.22178 0.0
H8 H 0.03317 0.52318 0.20553 0.0
H9 H 0.03565 0.53576 0.24686 0.0
H10 H 0.12431 0.51187 0.29738 0.0
H11 H 0.17683 0.53839 0.28002 0.0
H12 H 0.15469 0.59983 0.24573 0.0
H13 H 0.10253 0.5729 0.26267 0.0
H14 H 0.10451 0.51519 0.35118 0.0
H15 H 0.15349 0.54395 0.37283 0.0
H16 H 0.17509 0.62441 0.33412 0.0
H17 H 0.12582 0.59548 0.31288 0.0
H18 H 0.04008 0.49633 0.37051 0.0
H19 H 0.06091 0.5177 0.40915 0.0
H20 H 0.09545 0.60761 0.38217 0.0
H21 H 0.07387 0.58619 0.34389 0.0
H22 H 0.97501 0.4572 0.33195 0.0
H23 H 0.92595 0.44638 0.35062 0.0
H24 H 0.9586 0.54213 0.35113 0.0
H25 H 0.0075 0.55261 0.33283 0.0
O26 O 0.05394 0.46214 0.17825 0.0
O27 O 0.0384 0.49481 0.17086 0.0
O28 O 0.20465 0.59207 0.38367 0.0
O29 O 0.21706 0.63399 0.36404 0.0
C30 C 0.02291 0.50355 0.29539 0.0
C31 C 0.05099 0.51193 0.28315 0.0
C32 C 0.08004 0.5282 0.29459 0.0
C33 C 0.08111 0.536 0.31826 0.0
C34 C 0.05321 0.52865 0.33026 0.0
C35 C 0.02403 0.51229 0.31892 0.0
C36 C 0.9928 0.48768 0.28263 0.0
C37 C 0.98189 0.45859 0.27364 0.0
C38 C 0.95814 0.44648 0.25701 0.0
C39 C 0.94477 0.46323 0.24923 0.0
C40 C 0.95404 0.49132 0.25975 0.0
C41 C 0.97793 0.50348 0.27628 0.0
C42 C 0.05016 0.50471 0.25799 0.0
C43 C 0.05803 0.48348 0.25059 0.0
C44 C 0.05685 0.47636 0.22697 0.0
C45 C 0.0478 0.49041 0.21035 0.0
C46 C 0.04015 0.51187 0.21786 0.0
C47 C 0.04145 0.51904 0.24147 0.0
C48 C 0.10967 0.54048 0.28123 0.0
C49 C 0.1307 0.5306 0.28563 0.0
C50 C 0.16071 0.54591 0.27583 0.0
C51 C 0.17011 0.57136 0.26152 0.0
C52 C 0.14823 0.58005 0.25626 0.0
C53 C 0.11834 0.56474 0.266 0.0
C54 C 0.11173 0.55321 0.33039 0.0
C55 C 0.11994 0.53899 0.34734 0.0
C56 C 0.14791 0.55548 0.35968 0.0
C57 C 0.16823 0.5865 0.35519 0.0
C58 C 0.16002 0.60057 0.33799 0.0
C59 C 0.13198 0.58408 0.32574 0.0
C60 C 0.05568 0.53976 0.35445 0.0
C61 C 0.05076 0.52048 0.37326 0.0
C62 C 0.06279 0.5327 0.39521 0.0
C63 C 0.08005 0.56424 0.39835 0.0
C64 C 0.08233 0.58323 0.38004 0.0
C65 C 0.06986 0.57103 0.35828 0.0
C66 C 0.9949 0.5057 0.33121 0.0
C67 C 0.97157 0.4758 0.33629 0.0
C68 C 0.94353 0.46967 0.34683 0.0
C69 C 0.93834 0.49339 0.35246 0.0
C70 C 0.96199 0.52335 0.34748 0.0
C71 C 0.98995 0.52941 0.33695 0.0
C72 C 0.04639 0.48267 0.18529 0.0
C73 C 0.19771 0.60423 0.36851 0.0
H74 H 0.47197 0.03965 0.32718 0.0
H75 H 0.49 0.22052 0.55711 0.0
H76 H 0.46919 0.99686 0.47346 0.0
H77 H 0.46484 0.95477 0.45088 0.0
H78 H 0.38661 0.94853 0.41332 0.0
H79 H 0.38996 0.98959 0.43717 0.0
H80 H 0.48578 0.04143 0.42836 0.0
H81 H 0.48718 0.03901 0.38586 0.0
H82 H 0.41173 0.05735 0.38173 0.0
H83 H 0.41035 0.05935 0.42428 0.0
H84 H 0.5116 0.10651 0.44269 0.0
H85 H 0.53705 0.15568 0.42319 0.0
H86 H 0.45882 0.16613 0.4416 0.0
H87 H 0.43307 0.11636 0.46031 0.0
H88 H 0.5172 0.1253 0.49662 0.0
H89 H 0.53711 0.17372 0.51686 0.0
H90 H 0.44214 0.14981 0.53277 0.0
H91 H 0.42261 0.10162 0.51232 0.0
H92 H 0.49905 0.06446 0.52506 0.0
H93 H 0.51492 0.07999 0.56517 0.0
H94 H 0.42389 0.06758 0.58025 0.0
H95 H 0.40828 0.05211 0.53964 0.0
H96 H 0.46457 0.00402 0.51988 0.0
H97 H 0.44034 0.9559 0.54112 0.0
H98 H 0.34933 0.9355 0.51718 0.0
H99 H 0.37369 0.98379 0.49647 0.0
O100 O 0.47103 0.04072 0.34397 0.0
O101 O 0.43237 0.05041 0.3428 0.0
O102 O 0.53117 0.21292 0.54018 0.0
O103 O 0.48279 0.20161 0.5489 0.0
C104 C 0.43604 0.02469 0.46852 0.0
C105 C 0.44663 0.05138 0.45518 0.0
C106 C 0.45664 0.0793 0.46647 0.0
C107 C 0.45649 0.08058 0.49101 0.0
C108 C 0.44635 0.05404 0.50428 0.0
C109 C 0.43509 0.02595 0.49308 0.0
C110 C 0.42992 0.99633 0.45695 0.0
C111 C 0.45045 0.98577 0.46089 0.0
C112 C 0.44822 0.96197 0.44771 0.0
C113 C 0.42574 0.9486 0.42999 0.0
C114 C 0.40407 0.95816 0.42692 0.0
C115 C 0.40606 0.98175 0.4404 0.0
C116 C 0.44782 0.05034 0.42937 0.0
C117 C 0.4695 0.04478 0.41824 0.0
C118 C 0.47028 0.04349 0.39396 0.0
C119 C 0.44952 0.04793 0.38039 0.0
C120 C 0.42801 0.05377 0.39165 0.0
C121 C 0.4272 0.05498 0.41593 0.0
C122 C 0.47045 0.10784 0.45283 0.0
C123 C 0.49971 0.11919 0.44209 0.0
C124 C 0.51436 0.14743 0.43119 0.0
C125 C 0.5001 0.16498 0.43096 0.0
C126 C 0.47032 0.1531 0.44121 0.0
C127 C 0.45563 0.12476 0.45202 0.0
C128 C 0.46852 0.11008 0.50303 0.0
C129 C 0.50079 0.13067 0.50442 0.0
C130 C 0.51206 0.15825 0.51602 0.0
C131 C 0.4912 0.16563 0.52646 0.0
C132 C 0.45884 0.14485 0.52495 0.0
C133 C 0.44762 0.11732 0.51331 0.0
C134 C 0.45251 0.05701 0.52958 0.0
C135 C 0.48221 0.06417 0.53723 0.0
C136 C 0.49119 0.073 0.56018 0.0
C137 C 0.47067 0.07507 0.57591 0.0
C138 C 0.44027 0.0664 0.56847 0.0
C139 C 0.43121 0.05734 0.54541 0.0
C140 C 0.42083 0.99754 0.50686 0.0
C141 C 0.43937 0.98935 0.51956 0.0
C142 C 0.42552 0.96173 0.53148 0.0
C143 C 0.39288 0.94191 0.53093 0.0
C144 C 0.37445 0.95043 0.51831 0.0
C145 C 0.38832 0.97793 0.50636 0.0
C146 C 0.45036 0.04646 0.3546 0.0
C147 C 0.50304 0.19483 0.5389 0.0
H148 H 0.60524 0.58418 0.8024 0.0
H149 H 0.59977 0.45083 0.55779 0.0
H150 H 0.5831 0.63076 0.69026 0.0
H151 H 0.56587 0.64804 0.72378 0.0
H152 H 0.46976 0.58137 0.70828 0.0
H153 H 0.48716 0.56336 0.67518 0.0
H154 H 0.6151 0.59111 0.70079 0.0
H155 H 0.62054 0.59284 0.7432 0.0
H156 H 0.51982 0.53978 0.75028 0.0
H157 H 0.51475 0.53775 0.70788 0.0
H158 H 0.6276 0.55003 0.66097 0.0
H159 H 0.63678 0.51005 0.67457 0.0
H160 H 0.54202 0.46018 0.7011 0.0
H161 H 0.5326 0.49893 0.6862 0.0
H162 H 0.62436 0.57573 0.61252 0.0
H163 H 0.64183 0.55116 0.58485 0.0
H164 H 0.55934 0.46468 0.60044 0.0
H165 H 0.54207 0.48962 0.62796 0.0
H166 H 0.59311 0.60869 0.5964 0.0
H167 H 0.6032 0.59986 0.55626 0.0
H168 H 0.52414 0.50837 0.56013 0.0
H169 H 0.5141 0.5176 0.59984 0.0
H170 H 0.55026 0.63534 0.63999 0.0
H171 H 0.51176 0.64845 0.62719 0.0
H172 H 0.45124 0.55616 0.60398 0.0
H173 H 0.48824 0.54291 0.61863 0.0
O174 O 0.60257 0.58288 0.78567 0.0
O175 O 0.55065 0.55611 0.78834 0.0
O176 O 0.63579 0.50601 0.56168 0.0
O177 O 0.59389 0.46095 0.56914 0.0
C178 C 0.54749 0.57988 0.66509 0.0
C179 C 0.56143 0.56469 0.67552 0.0
C180 C 0.57163 0.5488 0.66157 0.0
C181 C 0.57004 0.54996 0.63715 0.0
C182 C 0.55541 0.56444 0.62673 0.0
C183 C 0.54301 0.57849 0.64068 0.0
C184 C 0.5364 0.59571 0.68041 0.0
C185 C 0.55827 0.62053 0.69364 0.0
C186 C 0.54847 0.63025 0.71279 0.0
C187 C 0.5166 0.61575 0.71859 0.0
C188 C 0.49445 0.59289 0.70401 0.0
C189 C 0.50433 0.58274 0.68507 0.0
C190 C 0.56455 0.56459 0.70128 0.0
C191 C 0.59427 0.57973 0.71154 0.0
C192 C 0.59729 0.58075 0.73576 0.0
C193 C 0.57061 0.56659 0.75014 0.0
C194 C 0.54085 0.55104 0.73973 0.0
C195 C 0.53788 0.54993 0.71552 0.0
C196 C 0.57937 0.52731 0.67248 0.0
C197 C 0.60896 0.53049 0.66983 0.0
C198 C 0.6142 0.50774 0.67774 0.0
C199 C 0.58997 0.48165 0.68859 0.0
C200 C 0.56097 0.47953 0.69228 0.0
C201 C 0.55565 0.50191 0.68409 0.0
C202 C 0.58199 0.53443 0.62221 0.0
C203 C 0.61027 0.55144 0.61008 0.0
C204 C 0.62013 0.53736 0.59425 0.0
C205 C 0.60187 0.50596 0.59032 0.0
C206 C 0.57391 0.4889 0.60299 0.0
C207 C 0.56407 0.50303 0.61881 0.0
C208 C 0.55297 0.56376 0.60101 0.0
C209 C 0.57697 0.58735 0.58808 0.0
C210 C 0.58298 0.58208 0.5653 0.0
C211 C 0.56494 0.55317 0.55524 0.0
C212 C 0.53843 0.53091 0.56726 0.0
C213 C 0.53248 0.5362 0.58999 0.0
C214 C 0.52222 0.58814 0.63018 0.0
C215 C 0.52869 0.61805 0.63205 0.0
C216 C 0.50672 0.62554 0.62456 0.0
C217 C 0.47805 0.6033 0.61479 0.0
C218 C 0.47255 0.57378 0.61196 0.0
C219 C 0.49409 0.56624 0.61989 0.0
C220 C 0.57387 0.56813 0.77586 0.0
C221 C 0.61167 0.49109 0.57288 0.0
H222 H 0.02882 0.4171 0.97831 0.0
H223 H 0.22117 0.49004 0.75153 0.0
H224 H 0.98752 0.44054 0.85312 0.0
H225 H 0.94308 0.42465 0.87917 0.0
H226 H 0.91796 0.33134 0.87068 0.0
H227 H 0.96288 0.34771 0.84423 0.0
H228 H 0.04768 0.45719 0.88126 0.0
H229 H 0.04281 0.44925 0.92345 0.0
H230 H 0.01206 0.35477 0.91277 0.0
H231 H 0.01728 0.36313 0.87063 0.0
H232 H 0.1031 0.49014 0.84494 0.0
H233 H 0.15088 0.51469 0.8679 0.0
H234 H 0.13801 0.42707 0.88465 0.0
H235 H 0.09055 0.40272 0.86063 0.0
H236 H 0.09932 0.49383 0.79627 0.0
H237 H 0.14913 0.51895 0.77518 0.0
H238 H 0.15527 0.43852 0.78235 0.0
H239 H 0.10511 0.41347 0.80305 0.0
H240 H 0.0317 0.47064 0.78233 0.0
H241 H 0.0551 0.4997 0.74704 0.0
H242 H 0.08028 0.43437 0.72534 0.0
H243 H 0.05755 0.40596 0.76131 0.0
H244 H 0.97005 0.4327 0.80917 0.0
H245 H 0.91923 0.40981 0.78999 0.0
H246 H 0.93643 0.34343 0.75804 0.0
H247 H 0.98631 0.36541 0.77859 0.0
O248 O 0.03074 0.41978 0.96158 0.0
O249 O 0.01497 0.37138 0.95514 0.0
O250 O 0.19694 0.52129 0.75638 0.0
O251 O 0.20161 0.48078 0.76006 0.0
C252 C 0.00806 0.4062 0.83416 0.0
C253 C 0.03536 0.41547 0.8474 0.0
C254 C 0.06494 0.4306 0.83654 0.0
C255 C 0.06721 0.43573 0.81232 0.0
C256 C 0.03984 0.42625 0.79898 0.0
C257 C 0.01021 0.4113 0.80987 0.0
C258 C 0.97808 0.39523 0.84661 0.0
C259 C 0.97188 0.41659 0.85634 0.0
C260 C 0.94645 0.40744 0.87119 0.0
C261 C 0.92693 0.37671 0.87688 0.0
C262 C 0.93266 0.35516 0.86659 0.0
C263 C 0.95806 0.36439 0.85141 0.0
C264 C 0.03294 0.41075 0.87299 0.0
C265 C 0.04007 0.43485 0.88812 0.0
C266 C 0.03719 0.43022 0.91218 0.0
C267 C 0.02704 0.40137 0.92149 0.0
C268 C 0.01994 0.37727 0.90619 0.0
C269 C 0.0229 0.38196 0.88214 0.0
C270 C 0.09367 0.44475 0.85091 0.0
C271 C 0.11072 0.47627 0.85347 0.0
C272 C 0.13777 0.4902 0.86689 0.0
C273 C 0.14819 0.47284 0.87829 0.0
C274 C 0.13076 0.4411 0.87594 0.0
C275 C 0.10366 0.42715 0.86232 0.0
C276 C 0.0985 0.45174 0.80095 0.0
C277 C 0.11145 0.48168 0.79323 0.0
C278 C 0.13992 0.49598 0.78123 0.0
C279 C 0.15612 0.48067 0.77698 0.0
C280 C 0.14337 0.4509 0.78525 0.0
C281 C 0.11479 0.43658 0.79715 0.0
C282 C 0.04322 0.4364 0.77446 0.0
C283 C 0.04107 0.46191 0.76949 0.0
C284 C 0.05463 0.47859 0.74926 0.0
C285 C 0.07032 0.46981 0.73357 0.0
C286 C 0.06917 0.44223 0.73738 0.0
C287 C 0.05575 0.42566 0.75772 0.0
C288 C 0.98142 0.40017 0.7958 0.0
C289 C 0.96272 0.41313 0.79811 0.0
C290 C 0.93385 0.40024 0.78682 0.0
C291 C 0.92342 0.37444 0.77266 0.0
C292 C 0.94328 0.36277 0.76927 0.0
C293 C 0.97192 0.37544 0.78083 0.0
C294 C 0.02385 0.39649 0.94706 0.0
C295 C 0.18611 0.49558 0.76387 0.0
H296 H 0.39514 0.00376 0.84063 0.0
H297 H 0.39338 0.82358 0.04944 0.0
H298 H 0.44095 0.06389 0.95434 0.0
H299 H 0.47065 0.10626 0.92763 0.0
H300 H 0.55589 0.10936 0.94768 0.0
H301 H 0.52578 0.0658 0.97287 0.0
H302 H 0.39067 0.99081 0.94197 0.0
H303 H 0.3832 0.99314 0.90009 0.0
H304 H 0.4814 0.02596 0.88854 0.0
H305 H 0.48844 0.02312 0.93037 0.0
H306 H 0.37074 0.92831 0.9762 0.0
H307 H 0.35149 0.8791 0.95697 0.0
H308 H 0.44183 0.91392 0.92416 0.0
H309 H 0.46094 0.96214 0.94376 0.0
H310 H 0.38667 0.948 0.03013 0.0
H311 H 0.36651 0.89938 0.04996 0.0
H312 H 0.43589 0.88674 0.01468 0.0
H313 H 0.45605 0.93556 0.99524 0.0
H314 H 0.42747 0.00919 0.05216 0.0
H315 H 0.43321 0.9955 0.09202 0.0
H316 H 0.50116 0.97326 0.06737 0.0
H317 H 0.49542 0.98715 0.02792 0.0
H318 H 0.45817 0.07698 0.01267 0.0
H319 H 0.49528 0.12518 0.0315 0.0
H320 H 0.56112 0.09466 0.03873 0.0
H321 H 0.5242 0.04702 0.01995 0.0
O322 O 0.39861 0.00299 0.85712 0.0
O323 O 0.44931 0.02004 0.85215 0.0
O324 O 0.36573 0.85051 0.0596 0.0
O325 O 0.4008 0.84283 0.04178 0.0
C326 C 0.46286 0.03226 0.97781 0.0
C327 C 0.44438 0.0055 0.9647 0.0
C328 C 0.43106 0.9769 0.97559 0.0
C329 C 0.43536 0.9751 -0.00031 0.0
C330 C 0.45364 0.00179 0.01278 0.0
C331 C 0.4673 0.03038 0.00193 0.0
C332 C 0.48116 0.06168 0.9655 0.0
C333 C 0.46611 0.07412 0.95322 0.0
C334 C 0.48319 0.09846 0.93808 0.0
C335 C 0.51564 0.11095 0.93525 0.0
C336 C 0.53086 0.09986 0.94902 0.0
C337 C 0.51374 0.07525 0.96376 0.0
C338 C 0.44014 0.00713 0.93923 0.0
C339 C 0.41052 0.99851 0.93035 0.0
C340 C 0.40634 0.99988 0.90643 0.0
C341 C 0.43173 0.00985 0.89097 0.0
C342 C 0.46137 0.01829 0.89996 0.0
C343 C 0.46549 0.01682 0.92386 0.0
C344 C 0.41718 0.94891 0.96123 0.0
C345 C 0.38607 0.92538 0.96447 0.0
C346 C 0.37516 0.89736 0.95355 0.0
C347 C 0.39508 0.89277 0.93894 0.0
C348 C 0.42568 0.91692 0.9349 0.0
C349 C 0.43666 0.94457 0.94607 0.0
C350 C 0.42262 0.94514 0.01114 0.0
C351 C 0.3974 0.93464 0.02669 0.0
C352 C 0.38597 0.90688 0.03799 0.0
C353 C 0.39956 0.88914 0.03387 0.0
C354 C 0.42483 0.89978 0.01822 0.0
C355 C 0.43632 0.92759 0.00701 0.0
C356 C 0.46102 0.9991 0.03728 0.0
C357 C 0.44417 0.00213 0.05559 0.0
C358 C 0.44733 0.99413 0.07823 0.0
C359 C 0.46754 0.98319 0.08278 0.0
C360 C 0.48573 0.98198 0.06453 0.0
C361 C 0.4824 0.98977 0.04197 0.0
C362 C 0.48827 0.05829 0.01532 0.0
C363 C 0.48044 0.08062 0.0187 0.0
C364 C 0.50168 0.10813 0.02932 0.0
C365 C 0.53104 0.11364 0.03677 0.0
C366 C 0.53845 0.0909 0.03372 0.0
C367 C 0.51733 0.06358 0.02303 0.0
C368 C 0.42721 0.01131 0.86558 0.0
C369 C 0.38759 0.85969 0.04589 0.0
H370 H 0.65501 0.66418 0.97596 0.0
H371 H 0.76611 0.57196 0.20647 0.0
H372 H 0.59912 0.64691 0.11773 0.0
H373 H 0.56938 0.66249 0.09429 0.0
H374 H 0.65546 0.74225 0.07239 0.0
H375 H 0.68522 0.72585 0.09583 0.0
H376 H 0.6276 0.63403 0.07463 0.0
H377 H 0.62969 0.64101 0.03242 0.0
H378 H 0.72991 0.70156 0.03644 0.0
H379 H 0.72741 0.69468 0.07872 0.0
H380 H 0.65152 0.59565 0.08818 0.0
H381 H 0.66511 0.56137 0.06924 0.0
H382 H 0.76064 0.61746 0.09264 0.0
H383 H 0.747 0.65229 0.11078 0.0
H384 H 0.65989 0.57841 0.14009 0.0
H385 H 0.67859 0.54839 0.15953 0.0
H386 H 0.75946 0.63083 0.1843 0.0
H387 H 0.74064 0.66053 0.16455 0.0
H388 H 0.62437 0.59933 0.17061 0.0
H389 H 0.62118 0.57661 0.20833 0.0
H390 H 0.70437 0.65892 0.23046 0.0
H391 H 0.70758 0.68132 0.1921 0.0
H392 H 0.60369 0.63703 0.16647 0.0
H393 H 0.57729 0.65798 0.18884 0.0
H394 H 0.65463 0.7484 0.17514 0.0
H395 H 0.68133 0.72708 0.15361 0.0
O396 O 0.65473 0.66177 0.9927 0.0
O397 O 0.70623 0.69254 0.99568 0.0
O398 O 0.71679 0.54156 0.18473 0.0
O399 O 0.75842 0.58326 0.19829 0.0
C400 C 0.66167 0.67234 0.1196 0.0
C401 C 0.67603 0.66031 0.10542 0.0
C402 C 0.68834 0.64372 0.11561 0.0
C403 C 0.68693 0.63976 0.13997 0.0
C404 C 0.6722 0.65138 0.15407 0.0
C405 C 0.65992 0.66801 0.14399 0.0
C406 C 0.64427 0.68527 0.10851 0.0
C407 C 0.61152 0.6682 0.10842 0.0
C408 C 0.59455 0.67726 0.09501 0.0
C409 C 0.60999 0.70368 0.08138 0.0
C410 C 0.64286 0.72162 0.08247 0.0
C411 C 0.65989 0.71245 0.09594 0.0
C412 C 0.67731 0.66413 0.07974 0.0
C413 C 0.64994 0.64896 0.06638 0.0
C414 C 0.65122 0.6529 0.04226 0.0
C415 C 0.67996 0.67192 0.03106 0.0
C416 C 0.70739 0.68682 0.04452 0.0
C417 C 0.70605 0.68291 0.06866 0.0
C418 C 0.6983 0.62649 0.10079 0.0
C419 C 0.6756 0.60104 0.08857 0.0
C420 C 0.68331 0.58127 0.07804 0.0
C421 C 0.71385 0.58646 0.07969 0.0
C422 C 0.73697 0.61293 0.09087 0.0
C423 C 0.72924 0.63281 0.10131 0.0
C424 C 0.69902 0.6216 0.15084 0.0
C425 C 0.68179 0.58991 0.14953 0.0
C426 C 0.69246 0.57284 0.16073 0.0
C427 C 0.72052 0.58723 0.17352 0.0
C428 C 0.73778 0.61904 0.17462 0.0
C429 C 0.72713 0.63606 0.16334 0.0
C430 C 0.66605 0.64198 0.17876 0.0
C431 C 0.6412 0.61286 0.18393 0.0
C432 C 0.63948 0.59991 0.20553 0.0
C433 C 0.66268 0.61586 0.22239 0.0
C434 C 0.68638 0.64593 0.21772 0.0
C435 C 0.68804 0.65892 0.19599 0.0
C436 C 0.64466 0.68052 0.15875 0.0
C437 C 0.61523 0.66131 0.16878 0.0
C438 C 0.59999 0.67337 0.18128 0.0
C439 C 0.61382 0.7049 0.1838 0.0
C440 C 0.64352 0.72402 0.1739 0.0
C441 C 0.65876 0.71192 0.16148 0.0
C442 C 0.68123 0.6761 0.00543 0.0
C443 C 0.7317 0.56921 0.18579 0.0
O444 O 0.6221 0.45394 0.41461 0.0
Cd445 Cd 0.63106 0.43587 0.38578 0.0
Cd446 Cd 0.69029 0.47757 0.3956 0.0
O447 O 0.67107 0.4836 0.42561 0.0
O448 O 0.59305 0.39518 0.38132 0.0
O449 O 0.63957 0.40204 0.38992 0.0
C450 C 0.6101 0.3837 0.38614 0.0
C451 C 0.73463 0.47312 0.39657 0.0
C452 C 0.64196 0.47278 0.42895 0.0
C453 C 0.6629 0.4858 0.3516 0.0
O454 O 0.68556 0.49719 0.36589 0.0
O455 O 0.63897 0.45986 0.35538 0.0
O456 O 0.73626 0.49847 0.40095 0.0
O457 O 0.70737 0.44972 0.39251 0.0
O458 O 0.22769 0.61638 0.60328 0.0
Cd459 Cd 0.2561 0.6389 0.57506 0.0
Cd460 Cd 0.2347 0.67578 0.58578 0.0
O461 O 0.21637 0.65033 0.61543 0.0
O462 O 0.27646 0.61471 0.56982 0.0
O463 O 0.30315 0.66298 0.5797 0.0
C464 C 0.30282 0.63819 0.57534 0.0
C465 C 0.26975 0.72771 0.58557 0.0
C466 C 0.21457 0.62496 0.61788 0.0
C467 C 0.21361 0.64314 0.54061 0.0
O468 O 0.20855 0.65766 0.5562 0.0
O469 O 0.23422 0.63588 0.54367 0.0
O470 O 0.24046 0.71666 0.5902 0.0
O471 O 0.27945 0.70902 0.5821 0.0
O472 O 0.62504 0.22215 0.77708 0.0
Cd473 Cd 0.64065 0.23588 0.74359 0.0
Cd474 Cd 0.60036 0.25631 0.74602 0.0
O475 O 0.59528 0.24219 0.78011 0.0
O476 O 0.67988 0.23487 0.74123 0.0
O477 O 0.67864 0.27714 0.73851 0.0
C478 C 0.69476 0.2639 0.73894 0.0
C479 C 0.60373 0.30232 0.73826 0.0
C480 C 0.607 0.22767 0.78901 0.0
C481 C 0.58691 0.20745 0.71078 0.0
O482 O 0.57791 0.2238 0.72067 0.0
O483 O 0.61244 0.20943 0.71674 0.0
O484 O 0.57788 0.27874 0.7446 0.0
O485 O 0.6284 0.30015 0.73689 0.0
O486 O 0.47476 0.70034 0.93585 0.0
Cd487 Cd 0.44388 0.6921 0.90885 0.0
Cd488 Cd 0.42243 0.63469 0.92087 0.0
O489 O 0.44994 0.65374 0.9497 0.0
O490 O 0.44862 0.73184 0.9012 0.0
O491 O 0.40502 0.69358 0.91582 0.0
C492 C 0.42028 0.72111 0.90831 0.0
C493 C 0.369 0.60214 0.92437 0.0
C494 C 0.47133 0.68139 0.95146 0.0
C495 C 0.45029 0.6526 0.87371 0.0
O496 O 0.4426 0.63321 0.88985 0.0
O497 O 0.45007 0.67684 0.87729 0.0
O498 O 0.38818 0.59269 0.92783 0.0
O499 O 0.38042 0.63045 0.9196 0.0
O500 O 0.80245 0.34583 0.0365 0.0
Cd501 Cd 0.77926 0.34445 0.06675 0.0
Cd502 Cd 0.79976 0.40391 0.05584 0.0
O503 O 0.81198 0.39086 0.02559 0.0
O504 O 0.75068 0.30101 0.07388 0.0
O505 O 0.73395 0.33196 0.06415 0.0
C506 C 0.72767 0.30508 0.06971 0.0
C507 C 0.77897 0.43524 0.05218 0.0
C508 C 0.81252 0.36686 0.02146 0.0
C509 C 0.82202 0.3912 0.10091 0.0
O510 O 0.82472 0.41075 0.08615 0.0
O511 O 0.80403 0.36315 0.09689 0.0
O512 O 0.80818 0.44514 0.04847 0.0
O513 O 0.7611 0.407 0.05749 0.0
O514 O 0.47881 0.86075 0.22919 0.0
Cd515 Cd 0.47814 0.8329 0.2552 0.0
Cd516 Cd 0.41585 0.80333 0.25054 0.0
O517 O 0.42788 0.83365 0.22359 0.0
O518 O 0.51792 0.8326 0.25416 0.0
O519 O 0.47149 0.79254 0.24606 0.0
C520 C 0.50148 0.80464 0.24768 0.0
C521 C 0.37533 0.75383 0.24361 0.0
C522 C 0.45458 0.856 0.21825 0.0
C523 C 0.44229 0.8342 0.2964 0.0
O524 O 0.41813 0.81949 0.28377 0.0
O525 O 0.46912 0.84116 0.28862 0.0
O526 O 0.37036 0.77598 0.24491 0.0
O527 O 0.40361 0.7596 0.24618 0.0
H528 H 0.22324 0.58635 0.28633 0.0
H529 H 0.32266 0.73637 0.21866 0.0
H530 H 0.19291 0.6017 0.2201 0.0
H531 H 0.36751 0.70115 0.26166 0.0
H532 H 0.27524 0.68636 0.21823 0.0
H533 H 0.27664 0.62625 0.27713 0.0
C534 C 0.22784 0.59749 0.26959 0.0
C535 C 0.2033 0.59095 0.25415 0.0
C536 C 0.29561 0.68935 0.2274 0.0
C537 C 0.26432 0.63725 0.24389 0.0
C538 C 0.3226 0.7179 0.22773 0.0
C539 C 0.34881 0.72279 0.24035 0.0
C540 C 0.29452 0.66576 0.24037 0.0
C541 C 0.34768 0.69817 0.25172 0.0
C542 C 0.25839 0.62041 0.26441 0.0
C543 C 0.21085 0.60654 0.23285 0.0
N544 N 0.32065 0.67075 0.25191 0.0
N545 N 0.24055 0.62937 0.22856 0.0
H546 H 0.47602 0.19317 0.40508 0.0
H547 H 0.63773 0.35226 0.40087 0.0
H548 H 0.56242 0.20799 0.43457 0.0
H549 H 0.54936 0.33965 0.37786 0.0
H550 H 0.61178 0.29802 0.40912 0.0
H551 H 0.50362 0.24551 0.39125 0.0
C552 C 0.50079 0.20739 0.40863 0.0
C553 C 0.51685 0.19613 0.42111 0.0
C554 C 0.59812 0.30709 0.4021 0.0
C555 C 0.5487 0.25606 0.40514 0.0
C556 C 0.61295 0.33805 0.39731 0.0
C557 C 0.59565 0.35056 0.38882 0.0
C558 C 0.56577 0.2885 0.39836 0.0
C559 C 0.5636 0.33103 0.38453 0.0
C560 C 0.51658 0.23724 0.40063 0.0
C561 C 0.5491 0.21551 0.42481 0.0
N562 N 0.54967 0.30104 0.38947 0.0
N563 N 0.5639 0.24452 0.41697 0.0
H564 H 0.41459 0.56609 0.6193 0.0
H565 H 0.36381 0.68334 0.58419 0.0
H566 H 0.48428 0.6561 0.59673 0.0
H567 H 0.30555 0.58681 0.57396 0.0
H568 H 0.40816 0.67644 0.59299 0.0
H569 H 0.37382 0.57589 0.60776 0.0
C570 C 0.42147 0.58785 0.61166 0.0
C571 C 0.45316 0.61004 0.60856 0.0
C572 C 0.38567 0.65692 0.58858 0.0
C573 C 0.40604 0.62173 0.59595 0.0
C574 C 0.36041 0.66081 0.58357 0.0
C575 C 0.33088 0.6356 0.57841 0.0
C576 C 0.38107 0.62761 0.58884 0.0
C577 C 0.32779 0.60692 0.57787 0.0
C578 C 0.39803 0.59347 0.6052 0.0
C579 C 0.46025 0.63828 0.5995 0.0
N580 N 0.35241 0.6037 0.58327 0.0
N581 N 0.43685 0.64337 0.59353 0.0
H582 H 0.88331 0.3133 0.76796 0.0
H583 H 0.73433 0.32571 0.73795 0.0
H584 H 0.88936 0.39892 0.7556 0.0
H585 H 0.73408 0.24172 0.73934 0.0
H586 H 0.79141 0.35344 0.74214 0.0
H587 H 0.82921 0.28716 0.75519 0.0
C588 C 0.87351 0.32671 0.76219 0.0
C589 C 0.89113 0.35848 0.76295 0.0
C590 C 0.77885 0.32895 0.74126 0.0
C591 C 0.82843 0.32841 0.74883 0.0
C592 C 0.74628 0.31312 0.73884 0.0
C593 C 0.72937 0.28134 0.73853 0.0
C594 C 0.79449 0.31284 0.74352 0.0
C595 C 0.74608 0.2662 0.7397 0.0
C596 C 0.8424 0.31168 0.75504 0.0
C597 C 0.87662 0.37442 0.75572 0.0
N598 N 0.77761 0.28206 0.74236 0.0
N599 N 0.84604 0.35922 0.74916 0.0
H600 H 0.40429 0.87765 0.89519 0.0
H601 H 0.37268 0.716 0.93589 0.0
H602 H 0.36587 0.83884 0.9624 0.0
H603 H 0.43699 0.77061 0.88158 0.0
H604 H 0.3561 0.75333 0.93971 0.0
H605 H 0.40126 0.83043 0.88381 0.0
C606 C 0.39461 0.85893 0.90737 0.0
C607 C 0.38589 0.86232 0.92992 0.0
C608 C 0.37344 0.75678 0.92671 0.0
C609 C 0.38255 0.8084 0.9171 0.0
C610 C 0.38284 0.73553 0.92449 0.0
C611 C 0.40658 0.74058 0.90866 0.0
C612 C 0.3876 0.78288 0.91274 0.0
C613 C 0.41898 0.76615 0.89428 0.0
C614 C 0.39292 0.83204 0.9009 0.0
C615 C 0.37294 0.83719 0.94488 0.0
N616 N 0.4095 0.78644 0.89676 0.0
N617 N 0.37218 0.8114 0.93835 0.0
H618 H 0.67738 0.52494 0.08423 0.0
H619 H 0.81039 0.49445 0.03869 0.0
H620 H 0.76653 0.59479 0.05717 0.0
H621 H 0.7208 0.42423 0.06479 0.0
H622 H 0.79273 0.53059 0.04185 0.0
H623 H 0.69081 0.48706 0.07372 0.0
C624 C 0.6996 0.5323 0.07572 0.0
C625 C 0.72089 0.56316 0.0716 0.0
C626 C 0.77681 0.50724 0.04672 0.0
C627 C 0.73666 0.51981 0.05992 0.0
C628 C 0.78686 0.48655 0.0449 0.0
C629 C 0.76711 0.45631 0.05169 0.0
C630 C 0.74682 0.49772 0.05551 0.0
C631 C 0.73683 0.44735 0.05946 0.0
C632 C 0.70734 0.51063 0.06988 0.0
C633 C 0.74958 0.57132 0.06096 0.0
N634 N 0.7277 0.46804 0.06136 0.0
N635 N 0.75669 0.54979 0.05561 0.0
H636 H 0.41321 0.90139 0.53248 0.0
H637 H 0.2568 0.77248 0.59388 0.0
H638 H 0.33844 0.91414 0.5563 0.0
H639 H 0.33045 0.75824 0.56969 0.0
H640 H 0.28913 0.82596 0.58396 0.0
H641 H 0.38607 0.85066 0.54957 0.0
C642 C 0.39129 0.89369 0.54157 0.0
C643 C 0.37797 0.912 0.54279 0.0
C644 C 0.29839 0.81124 0.581 0.0
C645 C 0.3466 0.85378 0.56218 0.0
C646 C 0.27994 0.78066 0.58671 0.0
C647 C 0.29082 0.76076 0.58244 0.0
C648 C 0.32794 0.82211 0.57078 0.0
C649 C 0.32107 0.77273 0.57321 0.0
C650 C 0.37572 0.86464 0.55121 0.0
C651 C 0.34933 0.90064 0.55456 0.0
N652 N 0.33846 0.80258 0.56747 0.0
N653 N 0.33456 0.87226 0.56366 0.0
H654 H 0.54736 0.42141 0.68381 0.0
H655 H 0.65457 0.35906 0.72907 0.0
H656 H 0.64167 0.48279 0.70736 0.0
H657 H 0.5536 0.30904 0.73229 0.0
H658 H 0.6531 0.40405 0.71649 0.0
H659 H 0.55222 0.37895 0.69615 0.0
C660 C 0.56906 0.42603 0.69178 0.0
C661 C 0.5939 0.45584 0.69502 0.0
C662 C 0.63139 0.38318 0.72009 0.0
C663 C 0.59985 0.40695 0.70875 0.0
C664 C 0.63218 0.35756 0.72722 0.0
C665 C 0.60416 0.33028 0.73172 0.0
C666 C 0.60238 0.38114 0.71711 0.0
C667 C 0.5758 0.32955 0.72907 0.0
C668 C 0.57186 0.4017 0.69872 0.0
C669 C 0.6219 0.46021 0.70458 0.0
N670 N 0.57565 0.35449 0.7218 0.0
N671 N 0.62412 0.43597 0.7112 0.0
H672 H 0.17037 0.52267 0.90663 0.0
H673 H 0.33817 0.54031 0.92302 0.0
H674 H 0.19401 0.45824 0.88017 0.0
H675 H 0.3223 0.61526 0.92481 0.0
H676 H 0.28202 0.50566 0.91724 0.0
H677 H 0.22278 0.55221 0.9232 0.0
C678 C 0.18648 0.5146 0.90443 0.0
C679 C 0.17796 0.48824 0.89154 0.0
C680 C 0.29085 0.52966 0.9192 0.0
C681 C 0.23774 0.5217 0.91084 0.0
C682 C 0.32282 0.54943 0.92258 0.0
C683 C 0.33491 0.58074 0.92411 0.0
C684 C 0.27086 0.54128 0.9176 0.0
C685 C 0.31398 0.59131 0.92344 0.0
C686 C 0.21632 0.53141 0.91399 0.0
C687 C 0.1995 0.47839 0.88993 0.0
N688 N 0.28296 0.57162 0.9201 0.0
N689 N 0.22854 0.49531 0.89926 0.0
H690 H 0.54608 0.17009 0.02157 0.0
H691 H 0.70634 0.2506 0.09073 0.0
H692 H 0.57068 0.12537 0.07344 0.0
H693 H 0.6755 0.30018 0.04929 0.0
H694 H 0.65464 0.20546 0.08704 0.0
H695 H 0.59055 0.21874 0.0339 0.0
C696 C 0.56045 0.17054 0.03586 0.0
C697 C 0.55491 0.14356 0.04628 0.0
C698 C 0.65895 0.22625 0.07897 0.0
C699 C 0.60612 0.19907 0.06017 0.0
C700 C 0.68853 0.25204 0.08103 0.0
C701 C 0.69528 0.27906 0.07007 0.0
C702 C 0.63603 0.22727 0.0655 0.0
C703 C 0.67125 0.27974 0.05793 0.0
C704 C 0.58594 0.19833 0.04281 0.0
C705 C 0.5745 0.14553 0.06456 0.0
N706 N 0.64276 0.25404 0.05565 0.0
N707 N 0.59941 0.17273 0.07072 0.0
H708 H 0.63778 0.75397 0.21321 0.0
H709 H 0.47457 0.74761 0.22903 0.0
H710 H 0.55122 0.6856 0.1819 0.0
H711 H 0.56345 0.82279 0.25137 0.0
H712 H 0.50127 0.72152 0.21563 0.0
H713 H 0.60996 0.77668 0.23096 0.0
C714 C 0.61293 0.74372 0.21005 0.0
C715 C 0.59689 0.7179 0.19591 0.0
C716 C 0.5149 0.74366 0.22357 0.0
C717 C 0.5648 0.74364 0.21642 0.0
C718 C 0.49966 0.75853 0.23129 0.0
C719 C 0.51683 0.78751 0.24121 0.0
C720 C 0.54754 0.75782 0.22585 0.0
C721 C 0.54929 0.80055 0.24371 0.0
C722 C 0.59703 0.75662 0.22029 0.0
C723 C 0.56454 0.70528 0.19285 0.0
N724 N 0.5636 0.78566 0.236 0.0
N725 N 0.54961 0.71834 0.20293 0.0
H726 H 0.92876 0.52524 0.38658 0.0
H727 H 0.74174 0.42786 0.37778 0.0
H728 H 0.87886 0.44719 0.34189 0.0
H729 H 0.79356 0.5158 0.4103 0.0
H730 H 0.79117 0.42971 0.37006 0.0
H731 H 0.8788 0.51733 0.40069 0.0
C732 C 0.90731 0.5064 0.37974 0.0
C733 C 0.9081 0.48709 0.36278 0.0
C734 C 0.79164 0.44844 0.37909 0.0
C735 C 0.85067 0.47769 0.37911 0.0
C736 C 0.76344 0.44733 0.38361 0.0
C737 C 0.76356 0.47183 0.39452 0.0
C738 C 0.82008 0.47413 0.38568 0.0
C739 C 0.79237 0.49651 0.40165 0.0
C740 C 0.87877 0.50181 0.3879 0.0
C741 C 0.87946 0.46258 0.35504 0.0
N742 N 0.81944 0.4971 0.397 0.0
N743 N 0.85192 0.45872 0.36313 0.0
H744 H 0.14302 0.60032 0.39983 0.0
H745 H 0.15489 0.63384 0.53531 0.0
H746 H 0.06141 0.55745 0.44405 0.0
H747 H 0.22781 0.62944 0.4979 0.0
H748 H 0.12179 0.61505 0.50059 0.0
H749 H 0.17616 0.62051 0.43445 0.0
C750 C 0.13215 0.59546 0.41689 0.0
C751 C 0.09956 0.57742 0.41925 0.0
C752 C 0.14506 0.61829 0.50004 0.0
C753 C 0.13709 0.60048 0.45868 0.0
C754 C 0.16403 0.62918 0.51972 0.0
C755 C 0.19414 0.63319 0.51943 0.0
C756 C 0.15656 0.61205 0.4798 0.0
C757 C 0.20471 0.62656 0.49886 0.0
C758 C 0.15101 0.60678 0.43655 0.0
C759 C 0.08648 0.57137 0.44164 0.0
N760 N 0.186 0.6165 0.47976 0.0
N761 N 0.10533 0.58312 0.46058 0.0
H762 H 0.50825 0.06673 0.60604 0.0
H763 H 0.53416 0.20132 0.69074 0.0
H764 H 0.46072 0.11657 0.59807 0.0
H765 H 0.59446 0.16393 0.6893 0.0
H766 H 0.50202 0.16555 0.66043 0.0
H767 H 0.53444 0.09683 0.64062 0.0
C768 C 0.50307 0.08379 0.61171 0.0
C769 C 0.48247 0.08932 0.59901 0.0
C770 C 0.52223 0.16513 0.66679 0.0
C771 C 0.51235 0.12382 0.63856 0.0
C772 C 0.54064 0.18556 0.68409 0.0
C773 C 0.56721 0.18578 0.69249 0.0
C774 C 0.53031 0.14462 0.65787 0.0
C775 C 0.57434 0.16474 0.68325 0.0
C776 C 0.51804 0.10096 0.63143 0.0
C777 C 0.47622 0.11134 0.60739 0.0
N778 N 0.55602 0.14504 0.66641 0.0
N779 N 0.49132 0.12797 0.62653 0.0
H780 H 0.53673 0.61065 0.76109 0.0
H781 H 0.44925 0.67778 0.83219 0.0
H782 H 0.47436 0.63361 0.72749 0.0
H783 H 0.47187 0.61477 0.86263 0.0
H784 H 0.46481 0.66859 0.79397 0.0
H785 H 0.51988 0.61906 0.79907 0.0
C786 C 0.51967 0.61774 0.76179 0.0
C787 C 0.50702 0.62175 0.7413 0.0
C788 C 0.46625 0.65675 0.80904 0.0
C789 C 0.48776 0.63136 0.78443 0.0
C790 C 0.45756 0.66207 0.83083 0.0
C791 C 0.45934 0.64702 0.85058 0.0
C792 C 0.47739 0.63675 0.8071 0.0
C793 C 0.47005 0.62676 0.84783 0.0
C794 C 0.50991 0.62228 0.78339 0.0
C795 C 0.48463 0.63043 0.743 0.0
N796 N 0.47896 0.6224 0.82648 0.0
N797 N 0.47586 0.63524 0.76427 0.0
H798 H 0.88554 0.39629 0.88181 0.0
H799 H 0.82914 0.32534 0.009 0.0
H800 H 0.91367 0.33817 0.91372 0.0
H801 H 0.82362 0.40082 0.98231 0.0
H802 H 0.85138 0.32217 0.97165 0.0
H803 H 0.85294 0.38961 0.91576 0.0
C804 C 0.88452 0.3818 0.89586 0.0
C805 C 0.90265 0.3681 0.89511 0.0
C806 C 0.8451 0.33927 0.974 0.0
C807 C 0.86553 0.36046 0.93405 0.0
C808 C 0.83242 0.34111 0.99527 0.0
C809 C 0.82483 0.36359 -0.00113 0.0
C810 C 0.84983 0.35984 0.95617 0.0
C811 C 0.82946 0.38335 0.98044 0.0
C812 C 0.86597 0.37803 0.91524 0.0
C813 C 0.90002 0.3491 0.91359 0.0
N814 N 0.8417 0.38104 0.95995 0.0
N815 N 0.88209 0.34612 0.93248 0.0
H816 H 0.51733 0.98924 0.10788 0.0
H817 H 0.40674 0.85572 0.195 0.0
H818 H 0.41663 0.94555 0.10927 0.0
H819 H 0.50762 0.90402 0.19919 0.0
H820 H 0.41048 0.89 0.16441 0.0
H821 H 0.51491 0.9604 0.14248 0.0
C822 C 0.49476 0.97384 0.11564 0.0
C823 C 0.46713 0.96971 0.10564 0.0
C824 C 0.43184 0.89323 0.17204 0.0
C825 C 0.46417 0.93654 0.14504 0.0
C826 C 0.42974 0.87354 0.18947 0.0
C827 C 0.45693 0.87685 0.19961 0.0
C828 C 0.46137 0.9164 0.16448 0.0
C829 C 0.48605 0.90055 0.19181 0.0
C830 C 0.49339 0.95742 0.13537 0.0
C831 C 0.43854 0.94971 0.11651 0.0
N832 N 0.48751 0.91934 0.1746 0.0
N833 N 0.4378 0.93367 0.13546 0.0
H834 H 0.71417 0.61959 0.24286 0.0
H835 H 0.61393 0.47571 0.32381 0.0
H836 H 0.61365 0.57469 0.24944 0.0
H837 H 0.71273 0.53788 0.33427 0.0
H838 H 0.61416 0.50888 0.29335 0.0
H839 H 0.71484 0.58813 0.27437 0.0
C840 C 0.69229 0.60355 0.25121 0.0
C841 C 0.66378 0.5998 0.24346 0.0
C842 C 0.63579 0.51522 0.30231 0.0
C843 C 0.66436 0.56307 0.27899 0.0
C844 C 0.63574 0.49617 0.31955 0.0
C845 C 0.66335 0.50406 0.33163 0.0
C846 C 0.66369 0.54218 0.29693 0.0
C847 C 0.69088 0.53096 0.32545 0.0
C848 C 0.69269 0.58539 0.26903 0.0
C849 C 0.63612 0.57809 0.2546 0.0
N850 N 0.69037 0.54905 0.30849 0.0
N851 N 0.63708 0.56038 0.27166 0.0
H852 H 0.37663 0.89755 0.41004 0.0
H853 H 0.4891 0.87001 0.32696 0.0
H854 H 0.47761 0.95062 0.41182 0.0
H855 H 0.38887 0.82452 0.31822 0.0
H856 H 0.48438 0.89376 0.36232 0.0
H857 H 0.37989 0.86525 0.38014 0.0
C858 C 0.39946 0.90232 0.40427 0.0
C859 C 0.42687 0.92691 0.41346 0.0
C860 C 0.46338 0.87837 0.35278 0.0
C861 C 0.43075 0.88994 0.37943 0.0
C862 C 0.46605 0.86472 0.3326 0.0
C863 C 0.4394 0.84553 0.31941 0.0
C864 C 0.43385 0.87287 0.35983 0.0
C865 C 0.41011 0.8394 0.3277 0.0
C866 C 0.4013 0.88379 0.38729 0.0
C867 C 0.45581 0.93171 0.40556 0.0
N868 N 0.40816 0.85325 0.34726 0.0
N869 N 0.45697 0.91353 0.38893 0.0
H870 H 0.53097 0.517 0.51845 0.0
H871 H 0.67721 0.51418 0.4627 0.0
H872 H 0.62501 0.56851 0.5454 0.0
H873 H 0.58191 0.45752 0.43922 0.0
H874 H 0.65885 0.53554 0.49246 0.0
H875 H 0.54977 0.49705 0.48787 0.0
C876 C 0.55562 0.52437 0.51778 0.0
C877 C 0.57643 0.54453 0.53448 0.0
C878 C 0.64197 0.51836 0.48083 0.0
C879 C 0.59808 0.5216 0.49969 0.0
C880 C 0.65242 0.50605 0.4639 0.0
C881 C 0.6311 0.48402 0.44841 0.0
C882 C 0.60998 0.50867 0.48222 0.0
C883 C 0.59923 0.47444 0.45077 0.0
C884 C 0.56633 0.51291 0.50037 0.0
C885 C 0.60818 0.55343 0.53269 0.0
N886 N 0.58969 0.4869 0.46728 0.0
N887 N 0.61798 0.54177 0.51571 0.0
H888 H 0.12788 0.48087 0.7194 0.0
H889 H 0.16806 0.62552 0.64316 0.0
H890 H 0.06068 0.5085 0.70653 0.0
H891 H 0.21607 0.57613 0.63469 0.0
H892 H 0.13239 0.58715 0.67101 0.0
H893 H 0.16366 0.51913 0.69191 0.0
C894 C 0.12031 0.49454 0.7105 0.0
C895 C 0.09095 0.49114 0.7152 0.0
C896 C 0.15083 0.58484 0.66309 0.0
C897 C 0.13253 0.53589 0.68432 0.0
C898 C 0.17135 0.60684 0.64738 0.0
C899 C 0.19503 0.60397 0.63657 0.0
C900 C 0.15432 0.56008 0.66825 0.0
C901 C 0.19806 0.57916 0.64254 0.0
C902 C 0.14098 0.51664 0.69499 0.0
C903 C 0.08311 0.5104 0.70366 0.0
N904 N 0.17797 0.55819 0.65801 0.0
N905 N 0.10385 0.53206 0.68886 0.0
H906 H 0.50928 0.15834 0.91999 0.0
H907 H 0.62773 0.1959 0.81348 0.0
H908 H 0.56102 0.11335 0.90687 0.0
H909 H 0.56603 0.23149 0.81899 0.0
H910 H 0.60919 0.17167 0.85124 0.0
H911 H 0.53498 0.1909 0.88621 0.0
C912 C 0.52615 0.15542 0.91015 0.0
C913 C 0.53296 0.13303 0.91635 0.0
C914 C 0.59982 0.18493 0.84428 0.0
C915 C 0.56255 0.1703 0.87787 0.0
C916 C 0.61044 0.19883 0.8227 0.0
C917 C 0.59815 0.21547 0.8129 0.0
C918 C 0.57666 0.18758 0.85619 0.0
C919 C 0.57598 0.21867 0.82579 0.0
C920 C 0.54088 0.17408 0.89094 0.0
C921 C 0.55534 0.13057 0.90311 0.0
N922 N 0.56574 0.20462 0.84672 0.0
N923 N 0.56916 0.14884 0.88449 0.0
H924 H 0.55155 0.69614 0.08685 0.0
H925 H 0.53232 0.72782 0.95384 0.0
H926 H 0.62668 0.72563 0.03683 0.0
H927 H 0.45816 0.65734 0.99503 0.0
H928 H 0.56789 0.74082 0.98717 0.0
H929 H 0.51799 0.6964 0.05603 0.0
C930 C 0.56116 0.70306 0.0695 0.0
C931 C 0.59182 0.71021 0.06436 0.0
C932 C 0.54371 0.72278 0.98889 0.0
C933 C 0.5537 0.71114 0.02924 0.0
C934 C 0.52346 0.7154 0.96998 0.0
C935 C 0.49243 0.69127 0.97169 0.0
C936 C 0.53251 0.70637 0.00969 0.0
C937 C 0.48204 0.67584 0.99294 0.0
C938 C 0.54201 0.70328 0.05198 0.0
C939 C 0.60325 0.71994 0.04167 0.0
N940 N 0.50205 0.68367 0.01113 0.0
N941 N 0.58405 0.71981 0.02485 0.0
H942 H 0.94489 0.49759 0.21298 0.0
H943 H 0.81999 0.35617 0.13759 0.0
H944 H 0.89792 0.40544 0.23796 0.0
H945 H 0.86315 0.44921 0.11515 0.0
H946 H 0.84789 0.37356 0.17455 0.0
H947 H 0.91393 0.48017 0.17751 0.0
C948 C 0.92767 0.47372 0.21121 0.0
C949 C 0.92393 0.45296 0.22858 0.0
C950 C 0.85122 0.39015 0.16154 0.0
C951 C 0.88887 0.43271 0.18757 0.0
C952 C 0.83537 0.38024 0.14039 0.0
C953 C 0.83927 0.40125 0.12318 0.0
C954 C 0.87117 0.42129 0.16552 0.0
C955 C 0.85943 0.43217 0.12785 0.0
C956 C 0.9102 0.46374 0.19079 0.0
C957 C 0.90179 0.4222 0.22496 0.0
N958 N 0.87463 0.44122 0.14855 0.0
N959 N 0.88518 0.41299 0.20481 0.0
loop_
_geom_bond_atom_site_label_1
_geom_bond_atom_site_label_2
_geom_bond_distance
_geom_bond_site_symmetry_2
_ccdc_geom_bond_type
H0 O26 0.856 . S
H1 O29 0.854 . S
H2 C37 0.930 1_455 S
H3 C38 0.930 . S
H4 C40 0.930 . S
H5 C41 0.930 . S
H6 C43 0.931 . S
H7 C44 0.930 . S
H8 C46 0.930 . S
H9 C47 0.929 . S
H10 C49 0.930 . S
H11 C50 0.931 . S
H12 C52 0.930 . S
H13 C53 0.929 . S
H14 C55 0.931 . S
H15 C56 0.930 . S
H16 C58 0.930 . S
H17 C59 0.932 . S
H18 C61 0.930 . S
H19 C62 0.929 . S
H20 C64 0.931 . S
H21 C65 0.930 . S
H22 C67 0.929 . S
H23 C68 0.931 . S
H24 C70 0.930 . S
H25 C71 0.929 . S
O26 H0 0.856 . S
O26 C72 1.300 . S
O27 C72 1.209 . S
O28 C73 1.199 . S
O29 H1 0.854 . S
O29 C73 1.297 . S
C30 C31 1.404 . S
C30 C35 1.397 . S
C30 C36 1.492 . S
C31 C30 1.404 . S
C31 C32 1.396 . S
C31 C42 1.492 . S
C32 C31 1.396 . S
C32 C33 1.397 . S
C32 C48 1.509 . S
C33 C32 1.397 . S
C33 C34 1.412 . S
C33 C54 1.485 . S
C34 C33 1.412 . S
C34 C35 1.388 . S
C34 C60 1.490 . S
C35 C30 1.397 . S
C35 C34 1.388 . S
C35 C66 1.519 1_455 S
C36 C30 1.492 . S
C36 C37 1.363 1_455 S
C36 C41 1.390 1_455 S
C37 H2 0.930 1_655 S
C37 C36 1.363 1_655 S
C37 C38 1.372 . S
C38 H3 0.930 . S
C38 C37 1.372 . S
C38 C39 1.383 . S
C39 C38 1.383 . S
C39 C40 1.395 . S
C40 H4 0.930 . S
C40 C39 1.395 . S
C40 C41 1.362 . S
C41 H5 0.930 . S
C41 C36 1.390 1_655 S
C41 C40 1.362 . S
C42 C31 1.492 . S
C42 C43 1.377 . S
C42 C47 1.397 . S
C43 H6 0.931 . S
C43 C42 1.377 . S
C43 C44 1.376 . S
C44 H7 0.930 . S
C44 C43 1.376 . S
C44 C45 1.376 . S
C45 C44 1.376 . S
C45 C46 1.378 . S
C45 C72 1.486 . S
C46 H8 0.930 . S
C46 C45 1.378 . S
C46 C47 1.376 . S
C47 H9 0.929 . S
C47 C42 1.397 . S
C47 C46 1.376 . S
C48 C32 1.509 . S
C48 C49 1.391 . S
C48 C53 1.386 . S
C49 H10 0.930 . S
C49 C48 1.391 . S
C49 C50 1.375 . S
C50 H11 0.931 . S
C50 C49 1.375 . S
C50 C51 1.375 . S
C51 C50 1.375 . S
C51 C52 1.361 . S
C52 H12 0.930 . S
C52 C51 1.361 . S
C52 C53 1.399 . S
C53 H13 0.929 . S
C53 C48 1.386 . S
C53 C52 1.399 . S
C54 C33 1.485 . S
C54 C55 1.394 . S
C54 C59 1.360 . S
C55 H14 0.931 . S
C55 C54 1.394 . S
C55 C56 1.372 . S
C56 H15 0.930 . S
C56 C55 1.372 . S
C56 C57 1.397 . S
C57 C56 1.397 . S
C57 C58 1.390 . S
C57 C73 1.476 . S
C58 H16 0.930 . S
C58 C57 1.390 . S
C58 C59 1.366 . S
C59 H17 0.932 . S
C59 C54 1.360 . S
C59 C58 1.366 . S
C60 C34 1.490 . S
C60 C61 1.380 . S
C60 C65 1.386 . S
C61 H18 0.930 . S
C61 C60 1.380 . S
C61 C62 1.381 . S
C62 H19 0.929 . S
C62 C61 1.381 . S
C62 C63 1.371 . S
C63 C62 1.371 . S
C63 C64 1.380 . S
C64 H20 0.931 . S
C64 C63 1.380 . S
C64 C65 1.387 . S
C65 H21 0.930 . S
C65 C60 1.386 . S
C65 C64 1.387 . S
C66 C35 1.519 1_655 S
C66 C67 1.377 . S
C66 C71 1.361 . S
C67 H22 0.929 . S
C67 C66 1.377 . S
C67 C68 1.386 . S
C68 H23 0.931 . S
C68 C67 1.386 . S
C68 C69 1.363 . S
C69 C68 1.363 . S
C69 C70 1.385 . S
C70 H24 0.930 . S
C70 C69 1.385 . S
C70 C71 1.396 . S
C71 H25 0.929 . S
C71 C66 1.361 . S
C71 C70 1.396 . S
C72 O26 1.300 . S
C72 O27 1.209 . S
C72 C45 1.486 . S
C73 O28 1.199 . S
C73 O29 1.297 . S
C73 C57 1.476 . S
H74 O100 0.856 . S
H75 O103 0.854 . S
H76 C111 0.930 . S
H77 C112 0.930 . S
H78 C114 0.930 . S
H79 C115 0.935 . S
H80 C117 0.931 . S
H81 C118 0.930 . S
H82 C120 0.930 . S
H83 C121 0.929 . S
H84 C123 0.930 . S
H85 C124 0.931 . S
H86 C126 0.930 . S
H87 C127 0.929 . S
H88 C129 0.931 . S
H89 C130 0.930 . S
H90 C132 0.930 . S
H91 C133 0.932 . S
H92 C135 0.930 . S
H93 C136 0.929 . S
H94 C138 0.931 . S
H95 C139 0.930 . S
H96 C141 0.929 1_545 S
H97 C142 0.931 . S
H98 C144 0.930 . S
H99 C145 0.929 . S
O100 H74 0.856 . S
O100 C146 1.300 . S
O101 C146 1.209 . S
O102 C147 1.199 . S
O103 H75 0.854 . S
O103 C147 1.297 . S
C104 C105 1.404 . S
C104 C109 1.397 . S
C104 C110 1.492 . S
C105 C104 1.404 . S
C105 C106 1.396 . S
C105 C116 1.492 . S
C106 C105 1.396 . S
C106 C107 1.397 . S
C106 C122 1.509 . S
C107 C106 1.397 . S
C107 C108 1.412 . S
C107 C128 1.485 . S
C108 C107 1.412 . S
C108 C109 1.388 . S
C108 C134 1.490 . S
C109 C104 1.397 . S
C109 C108 1.388 . S
C109 C140 1.519 . S
C110 C104 1.492 . S
C110 C111 1.363 . S
C110 C115 1.392 . S
C111 H76 0.930 . S
C111 C110 1.363 . S
C111 C112 1.372 1_545 S
C112 H77 0.930 . S
C112 C111 1.372 1_565 S
C112 C113 1.383 . S
C113 C112 1.383 . S
C113 C114 1.395 . S
C114 H78 0.930 . S
C114 C113 1.395 . S
C114 C115 1.355 1_565 S
C115 H79 0.935 . S
C115 C110 1.392 . S
C115 C114 1.355 1_545 S
C116 C105 1.492 . S
C116 C117 1.377 . S
C116 C121 1.397 . S
C117 H80 0.931 . S
C117 C116 1.377 . S
C117 C118 1.376 . S
C118 H81 0.930 . S
C118 C117 1.376 . S
C118 C119 1.376 . S
C119 C118 1.376 . S
C119 C120 1.378 . S
C119 C146 1.486 . S
C120 H82 0.930 . S
C120 C119 1.378 . S
C120 C121 1.376 . S
C121 H83 0.929 . S
C121 C116 1.397 . S
C121 C120 1.376 . S
C122 C106 1.509 . S
C122 C123 1.391 . S
C122 C127 1.386 . S
C123 H84 0.930 . S
C123 C122 1.391 . S
C123 C124 1.375 . S
C124 H85 0.931 . S
C124 C123 1.375 . S
C124 C125 1.375 . S
C125 C124 1.375 . S
C125 C126 1.361 . S
C126 H86 0.930 . S
C126 C125 1.361 . S
C126 C127 1.399 . S
C127 H87 0.929 . S
C127 C122 1.386 . S
C127 C126 1.399 . S
C128 C107 1.485 . S
C128 C129 1.394 . S
C128 C133 1.360 . S
C129 H88 0.931 . S
C129 C128 1.394 . S
C129 C130 1.372 . S
C130 H89 0.930 . S
C130 C129 1.372 . S
C130 C131 1.397 . S
C131 C130 1.397 . S
C131 C132 1.390 . S
C131 C147 1.476 . S
C132 H90 0.930 . S
C132 C131 1.390 . S
C132 C133 1.366 . S
C133 H91 0.932 . S
C133 C128 1.360 . S
C133 C132 1.366 . S
C134 C108 1.490 . S
C134 C135 1.380 . S
C134 C139 1.386 . S
C135 H92 0.930 . S
C135 C134 1.380 . S
C135 C136 1.381 . S
C136 H93 0.929 . S
C136 C135 1.381 . S
C136 C137 1.371 . S
C137 C136 1.371 . S
C137 C138 1.380 . S
C138 H94 0.931 . S
C138 C137 1.380 . S
C138 C139 1.387 . S
C139 H95 0.930 . S
C139 C134 1.386 . S
C139 C138 1.387 . S
C140 C109 1.519 . S
C140 C141 1.377 1_545 S
C140 C145 1.361 . S
C141 H96 0.929 1_565 S
C141 C140 1.377 1_565 S
C141 C142 1.386 . S
C142 H97 0.931 . S
C142 C141 1.386 . S
C142 C143 1.363 . S
C143 C142 1.363 . S
C143 C144 1.385 . S
C144 H98 0.930 . S
C144 C143 1.385 . S
C144 C145 1.396 1_565 S
C145 H99 0.929 . S
C145 C140 1.361 . S
C145 C144 1.396 1_545 S
C146 O100 1.300 . S
C146 O101 1.209 . S
C146 C119 1.486 . S
C147 O102 1.199 . S
C147 O103 1.297 . S
C147 C131 1.476 . S
H148 O174 0.856 . S
H149 O177 0.854 . S
H150 C185 0.930 . S
H151 C186 0.930 . S
H152 C188 0.930 . S
H153 C189 0.930 . S
H154 C191 0.931 . S
H155 C192 0.930 . S
H156 C194 0.930 . S
H157 C195 0.929 . S
H158 C197 0.930 . S
H159 C198 0.931 . S
H160 C200 0.930 . S
H161 C201 0.929 . S
H162 C203 0.931 . S
H163 C204 0.930 . S
H164 C206 0.930 . S
H165 C207 0.932 . S
H166 C209 0.930 . S
H167 C210 0.929 . S
H168 C212 0.931 . S
H169 C213 0.930 . S
H170 C215 0.929 . S
H171 C216 0.931 . S
H172 C218 0.930 . S
H173 C219 0.929 . S
O174 H148 0.856 . S
O174 C220 1.300 . S
O175 C220 1.209 . S
O176 C221 1.199 . S
O177 H149 0.854 . S
O177 C221 1.297 . S
C178 C179 1.404 . S
C178 C183 1.397 . S
C178 C184 1.492 . S
C179 C178 1.404 . S
C179 C180 1.396 . S
C179 C190 1.492 . S
C180 C179 1.396 . S
C180 C181 1.397 . S
C180 C196 1.509 . S
C181 C180 1.397 . S
C181 C182 1.412 . S
C181 C202 1.485 . S
C182 C181 1.412 . S
C182 C183 1.388 . S
C182 C208 1.490 . S
C183 C178 1.397 . S
C183 C182 1.388 . S
C183 C214 1.519 . S
C184 C178 1.492 . S
C184 C185 1.363 . S
C184 C189 1.390 . S
C185 H150 0.930 . S
C185 C184 1.363 . S
C185 C186 1.372 . S
C186 H151 0.930 . S
C186 C185 1.372 . S
C186 C187 1.383 . S
C187 C186 1.383 . S
C187 C188 1.395 . S
C188 H152 0.930 . S
C188 C187 1.395 . S
C188 C189 1.362 . S
C189 H153 0.930 . S
C189 C184 1.390 . S
C189 C188 1.362 . S
C190 C179 1.492 . S
C190 C191 1.377 . S
C190 C195 1.397 . S
C191 H154 0.931 . S
C191 C190 1.377 . S
C191 C192 1.376 . S
C192 H155 0.930 . S
C192 C191 1.376 . S
C192 C193 1.376 . S
C193 C192 1.376 . S
C193 C194 1.378 . S
C193 C220 1.486 . S
C194 H156 0.930 . S
C194 C193 1.378 . S
C194 C195 1.376 . S
C195 H157 0.929 . S
C195 C190 1.397 . S
C195 C194 1.376 . S
C196 C180 1.509 . S
C196 C197 1.391 . S
C196 C201 1.386 . S
C197 H158 0.930 . S
C197 C196 1.391 . S
C197 C198 1.375 . S
C198 H159 0.931 . S
C198 C197 1.375 . S
C198 C199 1.375 . S
C199 C198 1.375 . S
C199 C200 1.361 . S
C200 H160 0.930 . S
C200 C199 1.361 . S
C200 C201 1.399 . S
C201 H161 0.929 . S
C201 C196 1.386 . S
C201 C200 1.399 . S
C202 C181 1.485 . S
C202 C203 1.394 . S
C202 C207 1.360 . S
C203 H162 0.931 . S
C203 C202 1.394 . S
C203 C204 1.372 . S
C204 H163 0.930 . S
C204 C203 1.372 . S
C204 C205 1.397 . S
C205 C204 1.397 . S
C205 C206 1.390 . S
C205 C221 1.476 . S
C206 H164 0.930 . S
C206 C205 1.390 . S
C206 C207 1.366 . S
C207 H165 0.932 . S
C207 C202 1.360 . S
C207 C206 1.366 . S
C208 C182 1.490 . S
C208 C209 1.380 . S
C208 C213 1.386 . S
C209 H166 0.930 . S
C209 C208 1.380 . S
C209 C210 1.381 . S
C210 H167 0.929 . S
C210 C209 1.381 . S
C210 C211 1.371 . S
C211 C210 1.371 . S
C211 C212 1.380 . S
C212 H168 0.931 . S
C212 C211 1.380 . S
C212 C213 1.387 . S
C213 H169 0.930 . S
C213 C208 1.386 . S
C213 C212 1.387 . S
C214 C183 1.519 . S
C214 C215 1.377 . S
C214 C219 1.361 . S
C215 H170 0.929 . S
C215 C214 1.377 . S
C215 C216 1.386 . S
C216 H171 0.931 . S
C216 C215 1.386 . S
C216 C217 1.363 . S
C217 C216 1.363 . S
C217 C218 1.385 . S
C218 H172 0.930 . S
C218 C217 1.385 . S
C218 C219 1.396 . S
C219 H173 0.929 . S
C219 C214 1.361 . S
C219 C218 1.396 . S
C220 O174 1.300 . S
C220 O175 1.209 . S
C220 C193 1.486 . S
C221 O176 1.199 . S
C221 O177 1.297 . S
C221 C205 1.476 . S
H222 O248 0.856 . S
H223 O251 0.854 . S
H224 C259 0.930 1_455 S
H225 C260 0.930 . S
H226 C262 0.930 . S
H227 C263 0.930 . S
H228 C265 0.931 . S
H229 C266 0.930 . S
H230 C268 0.930 . S
H231 C269 0.929 . S
H232 C271 0.930 . S
H233 C272 0.931 . S
H234 C274 0.930 . S
H235 C275 0.929 . S
H236 C277 0.931 . S
H237 C278 0.930 . S
H238 C280 0.930 . S
H239 C281 0.932 . S
H240 C283 0.930 . S
H241 C284 0.929 . S
H242 C286 0.931 . S
H243 C287 0.930 . S
H244 C289 0.929 . S
H245 C290 0.931 . S
H246 C292 0.930 . S
H247 C293 0.929 . S
O248 H222 0.856 . S
O248 C294 1.300 . S
O249 C294 1.209 . S
O250 C295 1.199 . S
O251 H223 0.854 . S
O251 C295 1.297 . S
C252 C253 1.404 . S
C252 C257 1.397 . S
C252 C258 1.492 1_455 S
C253 C252 1.404 . S
C253 C254 1.396 . S
C253 C264 1.492 . S
C254 C253 1.396 . S
C254 C255 1.397 . S
C254 C270 1.509 . S
C255 C254 1.397 . S
C255 C256 1.412 . S
C255 C276 1.485 . S
C256 C255 1.412 . S
C256 C257 1.388 . S
C256 C282 1.490 . S
C257 C252 1.397 . S
C257 C256 1.388 . S
C257 C288 1.519 1_455 S
C258 C252 1.492 1_655 S
C258 C259 1.363 . S
C258 C263 1.390 . S
C259 H224 0.930 1_655 S
C259 C258 1.363 . S
C259 C260 1.372 . S
C260 H225 0.930 . S
C260 C259 1.372 . S
C260 C261 1.383 . S
C261 C260 1.383 . S
C261 C262 1.395 . S
C262 H226 0.930 . S
C262 C261 1.395 . S
C262 C263 1.362 . S
C263 H227 0.930 . S
C263 C258 1.390 . S
C263 C262 1.362 . S
C264 C253 1.492 . S
C264 C265 1.377 . S
C264 C269 1.397 . S
C265 H228 0.931 . S
C265 C264 1.377 . S
C265 C266 1.376 . S
C266 H229 0.930 . S
C266 C265 1.376 . S
C266 C267 1.376 . S
C267 C266 1.376 . S
C267 C268 1.378 . S
C267 C294 1.486 . S
C268 H230 0.930 . S
C268 C267 1.378 . S
C268 C269 1.376 . S
C269 H231 0.929 . S
C269 C264 1.397 . S
C269 C268 1.376 . S
C270 C254 1.509 . S
C270 C271 1.391 . S
C270 C275 1.386 . S
C271 H232 0.930 . S
C271 C270 1.391 . S
C271 C272 1.375 . S
C272 H233 0.931 . S
C272 C271 1.375 . S
C272 C273 1.375 . S
C273 C272 1.375 . S
C273 C274 1.361 . S
C274 H234 0.930 . S
C274 C273 1.361 . S
C274 C275 1.399 . S
C275 H235 0.929 . S
C275 C270 1.386 . S
C275 C274 1.399 . S
C276 C255 1.485 . S
C276 C277 1.394 . S
C276 C281 1.360 . S
C277 H236 0.931 . S
C277 C276 1.394 . S
C277 C278 1.372 . S
C278 H237 0.930 . S
C278 C277 1.372 . S
C278 C279 1.397 . S
C279 C278 1.397 . S
C279 C280 1.390 . S
C279 C295 1.476 . S
C280 H238 0.930 . S
C280 C279 1.390 . S
C280 C281 1.366 . S
C281 H239 0.932 . S
C281 C276 1.360 . S
C281 C280 1.366 . S
C282 C256 1.490 . S
C282 C283 1.380 . S
C282 C287 1.386 . S
C283 H240 0.930 . S
C283 C282 1.380 . S
C283 C284 1.381 . S
C284 H241 0.929 . S
C284 C283 1.381 . S
C284 C285 1.371 . S
C285 C284 1.371 . S
C285 C286 1.380 . S
C286 H242 0.931 . S
C286 C285 1.380 . S
C286 C287 1.387 . S
C287 H243 0.930 . S
C287 C282 1.386 . S
C287 C286 1.387 . S
C288 C257 1.519 1_655 S
C288 C289 1.377 . S
C288 C293 1.361 . S
C289 H244 0.929 . S
C289 C288 1.377 . S
C289 C290 1.386 . S
C290 H245 0.931 . S
C290 C289 1.386 . S
C290 C291 1.363 . S
C291 C290 1.363 . S
C291 C292 1.385 . S
C292 H246 0.930 . S
C292 C291 1.385 . S
C292 C293 1.396 . S
C293 H247 0.929 . S
C293 C288 1.361 . S
C293 C292 1.396 . S
C294 O248 1.300 . S
C294 O249 1.209 . S
C294 C267 1.486 . S
C295 O250 1.199 . S
C295 O251 1.297 . S
C295 C279 1.476 . S
H296 O322 0.856 . S
H297 O325 0.854 . S
H298 C333 0.930 . S
H299 C334 0.930 . S
H300 C336 0.930 . S
H301 C337 0.930 . S
H302 C339 0.931 . S
H303 C340 0.930 . S
H304 C342 0.930 1_545 S
H305 C343 0.929 1_545 S
H306 C345 0.930 . S
H307 C346 0.931 . S
H308 C348 0.930 . S
H309 C349 0.929 . S
H310 C351 0.931 . S
H311 C352 0.930 . S
H312 C354 0.930 . S
H313 C355 0.932 . S
H314 C357 0.930 . S
H315 C358 0.929 . S
H316 C360 0.928 . S
H317 C361 0.930 . S
H318 C363 0.929 1_556 S
H319 C364 0.931 . S
H320 C366 0.930 . S
H321 C367 0.929 . S
O322 H296 0.856 . S
O322 C368 1.300 . S
O323 C368 1.209 . S
O324 C369 1.199 . S
O325 H297 0.854 . S
O325 C369 1.297 . S
C326 C327 1.404 1_545 S
C326 C331 1.397 . S
C326 C332 1.492 . S
C327 C326 1.404 1_565 S
C327 C328 1.396 . S
C327 C338 1.492 . S
C328 C327 1.396 . S
C328 C329 1.448 . S
C328 C344 1.509 . S
C329 C328 1.448 . S
C329 C330 1.394 1_556 S
C329 C350 1.454 1_556 S
C330 C329 1.394 1_554 S
C330 C331 1.388 1_564 S
C330 C356 1.490 1_565 S
C331 C326 1.397 . S
C331 C330 1.388 1_546 S
C331 C362 1.519 1_556 S
C332 C326 1.492 . S
C332 C333 1.363 . S
C332 C337 1.390 . S
C333 H298 0.930 . S
C333 C332 1.363 . S
C333 C334 1.372 . S
C334 H299 0.930 . S
C334 C333 1.372 . S
C334 C335 1.383 . S
C335 C334 1.383 . S
C335 C336 1.395 . S
C336 H300 0.930 . S
C336 C335 1.395 . S
C336 C337 1.362 . S
C337 H301 0.930 . S
C337 C332 1.390 . S
C337 C336 1.362 . S
C338 C327 1.492 . S
C338 C339 1.377 . S
C338 C343 1.397 . S
C339 H302 0.931 . S
C339 C338 1.377 . S
C339 C340 1.376 . S
C340 H303 0.930 . S
C340 C339 1.376 . S
C340 C341 1.376 . S
C341 C340 1.376 . S
C341 C342 1.378 . S
C341 C368 1.486 . S
C342 H304 0.930 1_565 S
C342 C341 1.378 . S
C342 C343 1.376 . S
C343 H305 0.929 1_565 S
C343 C338 1.397 . S
C343 C342 1.376 . S
C344 C328 1.509 . S
C344 C345 1.391 . S
C344 C349 1.386 . S
C345 H306 0.930 . S
C345 C344 1.391 . S
C345 C346 1.375 . S
C346 H307 0.931 . S
C346 C345 1.375 . S
C346 C347 1.375 . S
C347 C346 1.375 . S
C347 C348 1.361 . S
C348 H308 0.930 . S
C348 C347 1.361 . S
C348 C349 1.399 . S
C349 H309 0.929 . S
C349 C344 1.386 . S
C349 C348 1.399 . S
C350 C329 1.454 1_554 S
C350 C351 1.394 . S
C350 C355 1.360 . S
C351 H310 0.931 . S
C351 C350 1.394 . S
C351 C352 1.372 . S
C352 H311 0.930 . S
C352 C351 1.372 . S
C352 C353 1.397 . S
C353 C352 1.397 . S
C353 C354 1.390 . S
C353 C369 1.476 . S
C354 H312 0.930 . S
C354 C353 1.390 . S
C354 C355 1.366 . S
C355 H313 0.932 . S
C355 C350 1.360 . S
C355 C354 1.366 . S
C356 C330 1.490 1_545 S
C356 C357 1.380 . S
C356 C361 1.386 1_545 S
C357 H314 0.930 . S
C357 C356 1.380 . S
C357 C358 1.381 . S
C358 H315 0.929 . S
C358 C357 1.381 . S
C358 C359 1.371 . S
C359 C358 1.371 . S
C359 C360 1.383 1_545 S
C360 H316 0.928 . S
C360 C359 1.383 1_565 S
C360 C361 1.386 . S
C361 H317 0.930 . S
C361 C356 1.386 1_565 S
C361 C360 1.386 . S
C362 C331 1.519 1_554 S
C362 C363 1.377 . S
C362 C367 1.361 . S
C363 H318 0.929 1_554 S
C363 C362 1.377 . S
C363 C364 1.386 . S
C364 H319 0.931 . S
C364 C363 1.386 . S
C364 C365 1.363 . S
C365 C364 1.363 . S
C365 C366 1.385 . S
C366 H320 0.930 . S
C366 C365 1.385 . S
C366 C367 1.396 . S
C367 H321 0.929 . S
C367 C362 1.361 . S
C367 C366 1.396 . S
C368 O322 1.300 . S
C368 O323 1.209 . S
C368 C341 1.486 . S
C369 O324 1.199 . S
C369 O325 1.297 . S
C369 C353 1.476 . S
H370 O396 0.856 1_556 S
H371 O399 0.854 . S
H372 C407 0.930 . S
H373 C408 0.930 . S
H374 C410 0.930 . S
H375 C411 0.930 . S
H376 C413 0.931 . S
H377 C414 0.930 . S
H378 C416 0.930 . S
H379 C417 0.929 . S
H380 C419 0.930 . S
H381 C420 0.931 . S
H382 C422 0.930 . S
H383 C423 0.929 . S
H384 C425 0.931 . S
H385 C426 0.930 . S
H386 C428 0.930 . S
H387 C429 0.932 . S
H388 C431 0.930 . S
H389 C432 0.929 . S
H390 C434 0.931 . S
H391 C435 0.930 . S
H392 C437 0.929 . S
H393 C438 0.931 . S
H394 C440 0.930 . S
H395 C441 0.929 . S
O396 H370 0.856 1_554 S
O396 C442 1.300 . S
O397 C442 1.203 1_556 S
O398 C443 1.199 . S
O399 H371 0.854 . S
O399 C443 1.297 . S
C400 C401 1.404 . S
C400 C405 1.397 . S
C400 C406 1.492 . S
C401 C400 1.404 . S
C401 C402 1.396 . S
C401 C412 1.492 . S
C402 C401 1.396 . S
C402 C403 1.397 . S
C402 C418 1.509 . S
C403 C402 1.397 . S
C403 C404 1.412 . S
C403 C424 1.485 . S
C404 C403 1.412 . S
C404 C405 1.388 . S
C404 C430 1.490 . S
C405 C400 1.397 . S
C405 C404 1.388 . S
C405 C436 1.519 . S
C406 C400 1.492 . S
C406 C407 1.363 . S
C406 C411 1.390 . S
C407 H372 0.930 . S
C407 C406 1.363 . S
C407 C408 1.372 . S
C408 H373 0.930 . S
C408 C407 1.372 . S
C408 C409 1.383 . S
C409 C408 1.383 . S
C409 C410 1.395 . S
C410 H374 0.930 . S
C410 C409 1.395 . S
C410 C411 1.362 . S
C411 H375 0.930 . S
C411 C406 1.390 . S
C411 C410 1.362 . S
C412 C401 1.492 . S
C412 C413 1.377 . S
C412 C417 1.397 . S
C413 H376 0.931 . S
C413 C412 1.377 . S
C413 C414 1.376 . S
C414 H377 0.930 . S
C414 C413 1.376 . S
C414 C415 1.376 . S
C415 C414 1.376 . S
C415 C416 1.378 . S
C415 C442 1.486 . S
C416 H378 0.930 . S
C416 C415 1.378 . S
C416 C417 1.376 . S
C417 H379 0.929 . S
C417 C412 1.397 . S
C417 C416 1.376 . S
C418 C402 1.509 . S
C418 C419 1.391 . S
C418 C423 1.386 . S
C419 H380 0.930 . S
C419 C418 1.391 . S
C419 C420 1.375 . S
C420 H381 0.931 . S
C420 C419 1.375 . S
C420 C421 1.375 . S
C421 C420 1.375 . S
C421 C422 1.361 . S
C422 H382 0.930 . S
C422 C421 1.361 . S
C422 C423 1.399 . S
C423 H383 0.929 . S
C423 C418 1.386 . S
C423 C422 1.399 . S
C424 C403 1.485 . S
C424 C425 1.394 . S
C424 C429 1.360 . S
C425 H384 0.931 . S
C425 C424 1.394 . S
C425 C426 1.372 . S
C426 H385 0.930 . S
C426 C425 1.372 . S
C426 C427 1.397 . S
C427 C426 1.397 . S
C427 C428 1.390 . S
C427 C443 1.476 . S
C428 H386 0.930 . S
C428 C427 1.390 . S
C428 C429 1.366 . S
C429 H387 0.932 . S
C429 C424 1.360 . S
C429 C428 1.366 . S
C430 C404 1.490 . S
C430 C431 1.380 . S
C430 C435 1.386 . S
C431 H388 0.930 . S
C431 C430 1.380 . S
C431 C432 1.381 . S
C432 H389 0.929 . S
C432 C431 1.381 . S
C432 C433 1.371 . S
C433 C432 1.371 . S
C433 C434 1.380 . S
C434 H390 0.931 . S
C434 C433 1.380 . S
C434 C435 1.387 . S
C435 H391 0.930 . S
C435 C430 1.386 . S
C435 C434 1.387 . S
C436 C405 1.519 . S
C436 C437 1.377 . S
C436 C441 1.361 . S
C437 H392 0.929 . S
C437 C436 1.377 . S
C437 C438 1.386 . S
C438 H393 0.931 . S
C438 C437 1.386 . S
C438 C439 1.363 . S
C439 C438 1.363 . S
C439 C440 1.385 . S
C440 H394 0.930 . S
C440 C439 1.385 . S
C440 C441 1.396 . S
C441 H395 0.929 . S
C441 C436 1.361 . S
C441 C440 1.396 . S
C442 O396 1.300 . S
C442 O397 1.203 1_554 S
C442 C415 1.486 . S
C443 O398 1.199 . S
C443 O399 1.297 . S
C443 C427 1.476 . S
O444 Cd445 2.223 . S
O444 C452 1.315 . S
Cd445 O444 2.223 . S
Cd445 O448 2.297 . S
Cd445 O449 2.439 . S
Cd445 O455 2.240 . S
Cd446 O447 2.240 . S
Cd446 O454 2.223 . S
Cd446 O456 2.297 . S
Cd446 O457 2.439 . S
O447 Cd446 2.240 . S
O447 C452 1.279 . S
O448 Cd445 2.297 . S
O448 C450 1.247 . S
O449 Cd445 2.439 . S
O449 C450 1.208 . S
C450 O448 1.247 . S
C450 O449 1.208 . S
C451 O456 1.247 . S
C451 O457 1.208 . S
C452 O444 1.315 . S
C452 O447 1.279 . S
C453 O454 1.315 . S
C453 O455 1.279 . S
O454 Cd446 2.223 . S
O454 C453 1.315 . S
O455 Cd445 2.240 . S
O455 C453 1.279 . S
O456 Cd446 2.297 . S
O456 C451 1.247 . S
O457 Cd446 2.439 . S
O457 C451 1.208 . S
O458 Cd459 2.223 . S
O458 C466 1.315 . S
Cd459 O458 2.223 . S
Cd459 O462 2.297 . S
Cd459 O463 2.439 . S
Cd459 O469 2.240 . S
Cd460 O461 2.240 . S
Cd460 O468 2.223 . S
Cd460 O470 2.297 . S
Cd460 O471 2.439 . S
O461 Cd460 2.240 . S
O461 C466 1.279 . S
O462 Cd459 2.297 . S
O462 C464 1.247 . S
O463 Cd459 2.439 . S
O463 C464 1.208 . S
C464 O462 1.247 . S
C464 O463 1.208 . S
C465 O470 1.247 . S
C465 O471 1.208 . S
C466 O458 1.315 . S
C466 O461 1.279 . S
C467 O468 1.315 . S
C467 O469 1.279 . S
O468 Cd460 2.223 . S
O468 C467 1.315 . S
O469 Cd459 2.240 . S
O469 C467 1.279 . S
O470 Cd460 2.297 . S
O470 C465 1.247 . S
O471 Cd460 2.439 . S
O471 C465 1.208 . S
O472 Cd473 2.223 . S
O472 C480 1.315 . S
Cd473 O472 2.223 . S
Cd473 O476 2.297 . S
Cd473 O477 2.439 . S
Cd473 O483 2.240 . S
Cd474 O475 2.240 . S
Cd474 O482 2.223 . S
Cd474 O484 2.297 . S
Cd474 O485 2.439 . S
O475 Cd474 2.240 . S
O475 C480 1.279 . S
O476 Cd473 2.297 . S
O476 C478 1.247 . S
O477 Cd473 2.439 . S
O477 C478 1.208 . S
C478 O476 1.247 . S
C478 O477 1.208 . S
C479 O484 1.247 . S
C479 O485 1.208 . S
C480 O472 1.315 . S
C480 O475 1.279 . S
C481 O482 1.315 . S
C481 O483 1.279 . S
O482 Cd474 2.223 . S
O482 C481 1.315 . S
O483 Cd473 2.240 . S
O483 C481 1.279 . S
O484 Cd474 2.297 . S
O484 C479 1.247 . S
O485 Cd474 2.439 . S
O485 C479 1.208 . S
O486 Cd487 2.223 . S
O486 C494 1.315 . S
Cd487 O486 2.223 . S
Cd487 O490 2.297 . S
Cd487 O491 2.439 . S
Cd487 O497 2.240 . S
Cd488 O489 2.240 . S
Cd488 O496 2.223 . S
Cd488 O498 2.297 . S
Cd488 O499 2.439 . S
O489 Cd488 2.240 . S
O489 C494 1.279 . S
O490 Cd487 2.297 . S
O490 C492 1.247 . S
O491 Cd487 2.439 . S
O491 C492 1.208 . S
C492 O490 1.247 . S
C492 O491 1.208 . S
C493 O498 1.247 . S
C493 O499 1.208 . S
C494 O486 1.315 . S
C494 O489 1.279 . S
C495 O496 1.315 . S
C495 O497 1.279 . S
O496 Cd488 2.223 . S
O496 C495 1.315 . S
O497 Cd487 2.240 . S
O497 C495 1.279 . S
O498 Cd488 2.297 . S
O498 C493 1.247 . S
O499 Cd488 2.439 . S
O499 C493 1.208 . S
O500 Cd501 2.223 . S
O500 C508 1.315 . S
Cd501 O500 2.223 . S
Cd501 O504 2.297 . S
Cd501 O505 2.439 . S
Cd501 O511 2.240 . S
Cd502 O503 2.240 . S
Cd502 O510 2.223 . S
Cd502 O512 2.297 . S
Cd502 O513 2.439 . S
O503 Cd502 2.240 . S
O503 C508 1.279 . S
O504 Cd501 2.297 . S
O504 C506 1.247 . S
O505 Cd501 2.439 . S
O505 C506 1.208 . S
C506 O504 1.247 . S
C506 O505 1.208 . S
C507 O512 1.247 . S
C507 O513 1.208 . S
C508 O500 1.315 . S
C508 O503 1.279 . S
C509 O510 1.315 . S
C509 O511 1.279 . S
O510 Cd502 2.223 . S
O510 C509 1.315 . S
O511 Cd501 2.240 . S
O511 C509 1.279 . S
O512 Cd502 2.297 . S
O512 C507 1.247 . S
O513 Cd502 2.439 . S
O513 C507 1.208 . S
O514 Cd515 2.223 . S
O514 C522 1.315 . S
Cd515 O514 2.223 . S
Cd515 O518 2.297 . S
Cd515 O519 2.439 . S
Cd515 O525 2.240 . S
Cd516 O517 2.240 . S
Cd516 O524 2.223 . S
Cd516 O526 2.297 . S
Cd516 O527 2.439 . S
O517 Cd516 2.240 . S
O517 C522 1.279 . S
O518 Cd515 2.297 . S
O518 C520 1.247 . S
O519 Cd515 2.439 . S
O519 C520 1.208 . S
C520 O518 1.247 . S
C520 O519 1.208 . S
C521 O526 1.247 . S
C521 O527 1.208 . S
C522 O514 1.315 . S
C522 O517 1.279 . S
C523 O524 1.315 . S
C523 O525 1.279 . S
O524 Cd516 2.223 . S
O524 C523 1.315 . S
O525 Cd515 2.240 . S
O525 C523 1.279 . S
O526 Cd516 2.297 . S
O526 C521 1.247 . S
O527 Cd516 2.439 . S
O527 C521 1.208 . S
H528 C534 0.930 . S
H529 C538 0.930 . S
H530 C543 0.929 . S
H531 C541 0.929 . S
H532 C536 0.929 . S
H533 C542 0.929 . S
C534 H528 0.930 . S
C534 C535 1.367 . S
C534 C542 1.378 . S
C535 C534 1.367 . S
C535 C543 1.433 . S
C536 H532 0.929 . S
C536 C538 1.378 . S
C536 C540 1.350 . S
C537 C540 1.463 . S
C537 C542 1.350 . S
C537 N545 1.427 . S
C538 H529 0.930 . S
C538 C536 1.378 . S
C538 C539 1.367 . S
C539 C538 1.367 . S
C539 C541 1.433 . S
C540 C536 1.350 . S
C540 C537 1.463 . S
C540 N544 1.427 . S
C541 H531 0.929 . S
C541 C539 1.433 . S
C541 N544 1.384 . S
C542 H533 0.929 . S
C542 C534 1.378 . S
C542 C537 1.350 . S
C543 H530 0.929 . S
C543 C535 1.433 . S
C543 N545 1.384 . S
N544 C540 1.427 . S
N544 C541 1.384 . S
N545 C537 1.427 . S
N545 C543 1.384 . S
H546 C552 0.930 . S
H547 C556 0.930 . S
H548 C561 0.929 . S
H549 C559 0.929 . S
H550 C554 0.929 . S
H551 C560 0.929 . S
C552 H546 0.930 . S
C552 C553 1.367 . S
C552 C560 1.378 . S
C553 C552 1.367 . S
C553 C561 1.433 . S
C554 H550 0.929 . S
C554 C556 1.378 . S
C554 C558 1.350 . S
C555 C558 1.463 . S
C555 C560 1.350 . S
C555 N563 1.427 . S
C556 H547 0.930 . S
C556 C554 1.378 . S
C556 C557 1.367 . S
C557 C556 1.367 . S
C557 C559 1.433 . S
C558 C554 1.350 . S
C558 C555 1.463 . S
C558 N562 1.427 . S
C559 H549 0.929 . S
C559 C557 1.433 . S
C559 N562 1.384 . S
C560 H551 0.929 . S
C560 C552 1.378 . S
C560 C555 1.350 . S
C561 H548 0.929 . S
C561 C553 1.433 . S
C561 N563 1.384 . S
N562 C558 1.427 . S
N562 C559 1.384 . S
N563 C555 1.427 . S
N563 C561 1.384 . S
H564 C570 0.930 . S
H565 C574 0.930 . S
H566 C579 0.929 . S
H567 C577 0.929 . S
H568 C572 0.929 . S
H569 C578 0.929 . S
C570 H564 0.930 . S
C570 C571 1.367 . S
C570 C578 1.378 . S
C571 C570 1.367 . S
C571 C579 1.433 . S
C572 H568 0.929 . S
C572 C574 1.378 . S
C572 C576 1.350 . S
C573 C576 1.463 . S
C573 C578 1.350 . S
C573 N581 1.427 . S
C574 H565 0.930 . S
C574 C572 1.378 . S
C574 C575 1.367 . S
C575 C574 1.367 . S
C575 C577 1.433 . S
C576 C572 1.350 . S
C576 C573 1.463 . S
C576 N580 1.427 . S
C577 H567 0.929 . S
C577 C575 1.433 . S
C577 N580 1.384 . S
C578 H569 0.929 . S
C578 C570 1.378 . S
C578 C573 1.350 . S
C579 H566 0.929 . S
C579 C571 1.433 . S
C579 N581 1.384 . S
N580 C576 1.427 . S
N580 C577 1.384 . S
N581 C573 1.427 . S
N581 C579 1.384 . S
H582 C588 0.930 . S
H583 C592 0.930 . S
H584 C597 0.929 . S
H585 C595 0.929 . S
H586 C590 0.929 . S
H587 C596 0.929 . S
C588 H582 0.930 . S
C588 C589 1.367 . S
C588 C596 1.378 . S
C589 C588 1.367 . S
C589 C597 1.433 . S
C590 H586 0.929 . S
C590 C592 1.378 . S
C590 C594 1.350 . S
C591 C594 1.463 . S
C591 C596 1.350 . S
C591 N599 1.427 . S
C592 H583 0.930 . S
C592 C590 1.378 . S
C592 C593 1.367 . S
C593 C592 1.367 . S
C593 C595 1.433 . S
C594 C590 1.350 . S
C594 C591 1.463 . S
C594 N598 1.427 . S
C595 H585 0.929 . S
C595 C593 1.433 . S
C595 N598 1.384 . S
C596 H587 0.929 . S
C596 C588 1.378 . S
C596 C591 1.350 . S
C597 H584 0.929 . S
C597 C589 1.433 . S
C597 N599 1.384 . S
N598 C594 1.427 . S
N598 C595 1.384 . S
N599 C591 1.427 . S
N599 C597 1.384 . S
H600 C606 0.930 . S
H601 C610 0.930 . S
H602 C615 0.929 . S
H603 C613 0.929 . S
H604 C608 0.929 . S
H605 C614 0.929 . S
C606 H600 0.930 . S
C606 C607 1.367 . S
C606 C614 1.378 . S
C607 C606 1.367 . S
C607 C615 1.433 . S
C608 H604 0.929 . S
C608 C610 1.378 . S
C608 C612 1.350 . S
C609 C612 1.463 . S
C609 C614 1.350 . S
C609 N617 1.427 . S
C610 H601 0.930 . S
C610 C608 1.378 . S
C610 C611 1.367 . S
C611 C610 1.367 . S
C611 C613 1.433 . S
C612 C608 1.350 . S
C612 C609 1.463 . S
C612 N616 1.427 . S
C613 H603 0.929 . S
C613 C611 1.433 . S
C613 N616 1.384 . S
C614 H605 0.929 . S
C614 C606 1.378 . S
C614 C609 1.350 . S
C615 H602 0.929 . S
C615 C607 1.433 . S
C615 N617 1.384 . S
N616 C612 1.427 . S
N616 C613 1.384 . S
N617 C609 1.427 . S
N617 C615 1.384 . S
H618 C624 0.930 . S
H619 C628 0.930 . S
H620 C633 0.929 . S
H621 C631 0.929 . S
H622 C626 0.929 . S
H623 C632 0.929 . S
C624 H618 0.930 . S
C624 C625 1.367 . S
C624 C632 1.378 . S
C625 C624 1.367 . S
C625 C633 1.433 . S
C626 H622 0.929 . S
C626 C628 1.378 . S
C626 C630 1.350 . S
C627 C630 1.463 . S
C627 C632 1.350 . S
C627 N635 1.427 . S
C628 H619 0.930 . S
C628 C626 1.378 . S
C628 C629 1.367 . S
C629 C628 1.367 . S
C629 C631 1.433 . S
C630 C626 1.350 . S
C630 C627 1.463 . S
C630 N634 1.427 . S
C631 H621 0.929 . S
C631 C629 1.433 . S
C631 N634 1.384 . S
C632 H623 0.929 . S
C632 C624 1.378 . S
C632 C627 1.350 . S
C633 H620 0.929 . S
C633 C625 1.433 . S
C633 N635 1.384 . S
N634 C630 1.427 . S
N634 C631 1.384 . S
N635 C627 1.427 . S
N635 C633 1.384 . S
H636 C642 0.930 . S
H637 C646 0.930 . S
H638 C651 0.929 . S
H639 C649 0.929 . S
H640 C644 0.929 . S
H641 C650 0.929 . S
C642 H636 0.930 . S
C642 C643 1.367 . S
C642 C650 1.378 . S
C643 C642 1.367 . S
C643 C651 1.433 . S
C644 H640 0.929 . S
C644 C646 1.378 . S
C644 C648 1.350 . S
C645 C648 1.463 . S
C645 C650 1.350 . S
C645 N653 1.427 . S
C646 H637 0.930 . S
C646 C644 1.378 . S
C646 C647 1.367 . S
C647 C646 1.367 . S
C647 C649 1.433 . S
C648 C644 1.350 . S
C648 C645 1.463 . S
C648 N652 1.427 . S
C649 H639 0.929 . S
C649 C647 1.433 . S
C649 N652 1.384 . S
C650 H641 0.929 . S
C650 C642 1.378 . S
C650 C645 1.350 . S
C651 H638 0.929 . S
C651 C643 1.433 . S
C651 N653 1.384 . S
N652 C648 1.427 . S
N652 C649 1.384 . S
N653 C645 1.427 . S
N653 C651 1.384 . S
H654 C660 0.930 . S
H655 C664 0.930 . S
H656 C669 0.929 . S
H657 C667 0.929 . S
H658 C662 0.929 . S
H659 C668 0.929 . S
C660 H654 0.930 . S
C660 C661 1.367 . S
C660 C668 1.378 . S
C661 C660 1.367 . S
C661 C669 1.433 . S
C662 H658 0.929 . S
C662 C664 1.378 . S
C662 C666 1.350 . S
C663 C666 1.463 . S
C663 C668 1.350 . S
C663 N671 1.427 . S
C664 H655 0.930 . S
C664 C662 1.378 . S
C664 C665 1.367 . S
C665 C664 1.367 . S
C665 C667 1.433 . S
C666 C662 1.350 . S
C666 C663 1.463 . S
C666 N670 1.427 . S
C667 H657 0.929 . S
C667 C665 1.433 . S
C667 N670 1.384 . S
C668 H659 0.929 . S
C668 C660 1.378 . S
C668 C663 1.350 . S
C669 H656 0.929 . S
C669 C661 1.433 . S
C669 N671 1.384 . S
N670 C666 1.427 . S
N670 C667 1.384 . S
N671 C663 1.427 . S
N671 C669 1.384 . S
H672 C678 0.930 . S
H673 C682 0.930 . S
H674 C687 0.929 . S
H675 C685 0.929 . S
H676 C680 0.929 . S
H677 C686 0.929 . S
C678 H672 0.930 . S
C678 C679 1.367 . S
C678 C686 1.378 . S
C679 C678 1.367 . S
C679 C687 1.433 . S
C680 H676 0.929 . S
C680 C682 1.378 . S
C680 C684 1.350 . S
C681 C684 1.463 . S
C681 C686 1.350 . S
C681 N689 1.427 . S
C682 H673 0.930 . S
C682 C680 1.378 . S
C682 C683 1.367 . S
C683 C682 1.367 . S
C683 C685 1.433 . S
C684 C680 1.350 . S
C684 C681 1.463 . S
C684 N688 1.427 . S
C685 H675 0.929 . S
C685 C683 1.433 . S
C685 N688 1.384 . S
C686 H677 0.929 . S
C686 C678 1.378 . S
C686 C681 1.350 . S
C687 H674 0.929 . S
C687 C679 1.433 . S
C687 N689 1.384 . S
N688 C684 1.427 . S
N688 C685 1.384 . S
N689 C681 1.427 . S
N689 C687 1.384 . S
H690 C696 0.930 1_556 S
H691 C700 0.930 . S
H692 C705 0.929 . S
H693 C703 0.929 . S
H694 C698 0.929 . S
H695 C704 0.929 1_556 S
C696 H690 0.930 1_554 S
C696 C697 1.367 . S
C696 C704 1.378 . S
C697 C696 1.367 . S
C697 C705 1.433 . S
C698 H694 0.929 . S
C698 C700 1.378 . S
C698 C702 1.350 . S
C699 C702 1.463 . S
C699 C704 1.350 . S
C699 N707 1.427 . S
C700 H691 0.930 . S
C700 C698 1.378 . S
C700 C701 1.367 . S
C701 C700 1.367 . S
C701 C703 1.433 . S
C702 C698 1.350 . S
C702 C699 1.463 . S
C702 N706 1.427 . S
C703 H693 0.929 . S
C703 C701 1.433 . S
C703 N706 1.384 . S
C704 H695 0.929 1_554 S
C704 C696 1.378 . S
C704 C699 1.350 . S
C705 H692 0.929 . S
C705 C697 1.433 . S
C705 N707 1.384 . S
N706 C702 1.427 . S
N706 C703 1.384 . S
N707 C699 1.427 . S
N707 C705 1.384 . S
H708 C714 0.930 . S
H709 C718 0.930 . S
H710 C723 0.929 . S
H711 C721 0.929 . S
H712 C716 0.929 . S
H713 C722 0.929 . S
C714 H708 0.930 . S
C714 C715 1.367 . S
C714 C722 1.378 . S
C715 C714 1.367 . S
C715 C723 1.433 . S
C716 H712 0.929 . S
C716 C718 1.378 . S
C716 C720 1.350 . S
C717 C720 1.463 . S
C717 C722 1.350 . S
C717 N725 1.427 . S
C718 H709 0.930 . S
C718 C716 1.378 . S
C718 C719 1.367 . S
C719 C718 1.367 . S
C719 C721 1.433 . S
C720 C716 1.350 . S
C720 C717 1.463 . S
C720 N724 1.427 . S
C721 H711 0.929 . S
C721 C719 1.433 . S
C721 N724 1.384 . S
C722 H713 0.929 . S
C722 C714 1.378 . S
C722 C717 1.350 . S
C723 H710 0.929 . S
C723 C715 1.433 . S
C723 N725 1.384 . S
N724 C720 1.427 . S
N724 C721 1.384 . S
N725 C717 1.427 . S
N725 C723 1.384 . S
H726 C732 0.930 . S
H727 C736 0.930 . S
H728 C741 0.929 . S
H729 C739 0.929 . S
H730 C734 0.929 . S
H731 C740 0.929 . S
C732 H726 0.930 . S
C732 C733 1.367 . S
C732 C740 1.378 . S
C733 C732 1.367 . S
C733 C741 1.433 . S
C734 H730 0.929 . S
C734 C736 1.378 . S
C734 C738 1.350 . S
C735 C738 1.463 . S
C735 C740 1.350 . S
C735 N743 1.427 . S
C736 H727 0.930 . S
C736 C734 1.378 . S
C736 C737 1.367 . S
C737 C736 1.367 . S
C737 C739 1.433 . S
C738 C734 1.350 . S
C738 C735 1.463 . S
C738 N742 1.427 . S
C739 H729 0.929 . S
C739 C737 1.433 . S
C739 N742 1.384 . S
C740 H731 0.929 . S
C740 C732 1.378 . S
C740 C735 1.350 . S
C741 H728 0.929 . S
C741 C733 1.433 . S
C741 N743 1.384 . S
N742 C738 1.427 . S
N742 C739 1.384 . S
N743 C735 1.427 . S
N743 C741 1.384 . S
H744 C750 0.930 . S
H745 C754 0.930 . S
H746 C759 0.929 . S
H747 C757 0.929 . S
H748 C752 0.929 . S
H749 C758 0.929 . S
C750 H744 0.930 . S
C750 C751 1.367 . S
C750 C758 1.378 . S
C751 C750 1.367 . S
C751 C759 1.433 . S
C752 H748 0.929 . S
C752 C754 1.378 . S
C752 C756 1.350 . S
C753 C756 1.463 . S
C753 C758 1.350 . S
C753 N761 1.427 . S
C754 H745 0.930 . S
C754 C752 1.378 . S
C754 C755 1.367 . S
C755 C754 1.367 . S
C755 C757 1.433 . S
C756 C752 1.350 . S
C756 C753 1.463 . S
C756 N760 1.427 . S
C757 H747 0.929 . S
C757 C755 1.433 . S
C757 N760 1.384 . S
C758 H749 0.929 . S
C758 C750 1.378 . S
C758 C753 1.350 . S
C759 H746 0.929 . S
C759 C751 1.433 . S
C759 N761 1.384 . S
N760 C756 1.427 . S
N760 C757 1.384 . S
N761 C753 1.427 . S
N761 C759 1.384 . S
H762 C768 0.930 . S
H763 C772 0.930 . S
H764 C777 0.929 . S
H765 C775 0.929 . S
H766 C770 0.929 . S
H767 C776 0.929 . S
C768 H762 0.930 . S
C768 C769 1.367 . S
C768 C776 1.378 . S
C769 C768 1.367 . S
C769 C777 1.433 . S
C770 H766 0.929 . S
C770 C772 1.378 . S
C770 C774 1.350 . S
C771 C774 1.463 . S
C771 C776 1.350 . S
C771 N779 1.427 . S
C772 H763 0.930 . S
C772 C770 1.378 . S
C772 C773 1.367 . S
C773 C772 1.367 . S
C773 C775 1.433 . S
C774 C770 1.350 . S
C774 C771 1.463 . S
C774 N778 1.427 . S
C775 H765 0.929 . S
C775 C773 1.433 . S
C775 N778 1.384 . S
C776 H767 0.929 . S
C776 C768 1.378 . S
C776 C771 1.350 . S
C777 H764 0.929 . S
C777 C769 1.433 . S
C777 N779 1.384 . S
N778 C774 1.427 . S
N778 C775 1.384 . S
N779 C771 1.427 . S
N779 C777 1.384 . S
H780 C786 0.930 . S
H781 C790 0.930 . S
H782 C795 0.929 . S
H783 C793 0.929 . S
H784 C788 0.929 . S
H785 C794 0.929 . S
C786 H780 0.930 . S
C786 C787 1.367 . S
C786 C794 1.378 . S
C787 C786 1.367 . S
C787 C795 1.433 . S
C788 H784 0.929 . S
C788 C790 1.378 . S
C788 C792 1.350 . S
C789 C792 1.463 . S
C789 C794 1.350 . S
C789 N797 1.427 . S
C790 H781 0.930 . S
C790 C788 1.378 . S
C790 C791 1.367 . S
C791 C790 1.367 . S
C791 C793 1.433 . S
C792 C788 1.350 . S
C792 C789 1.463 . S
C792 N796 1.427 . S
C793 H783 0.929 . S
C793 C791 1.433 . S
C793 N796 1.384 . S
C794 H785 0.929 . S
C794 C786 1.378 . S
C794 C789 1.350 . S
C795 H782 0.929 . S
C795 C787 1.433 . S
C795 N797 1.384 . S
N796 C792 1.427 . S
N796 C793 1.384 . S
N797 C789 1.427 . S
N797 C795 1.384 . S
H798 C804 0.930 . S
H799 C808 0.930 . S
H800 C813 0.929 . S
H801 C811 0.929 . S
H802 C806 0.929 . S
H803 C812 0.929 . S
C804 H798 0.930 . S
C804 C805 1.367 . S
C804 C812 1.378 . S
C805 C804 1.367 . S
C805 C813 1.433 . S
C806 H802 0.929 . S
C806 C808 1.378 1_556 S
C806 C810 1.350 . S
C807 C810 1.463 . S
C807 C812 1.350 . S
C807 N815 1.427 . S
C808 H799 0.930 . S
C808 C806 1.378 1_554 S
C808 C809 1.367 . S
C809 C808 1.367 . S
C809 C811 1.433 1_554 S
C810 C806 1.350 . S
C810 C807 1.463 . S
C810 N814 1.427 . S
C811 H801 0.929 . S
C811 C809 1.433 1_556 S
C811 N814 1.384 . S
C812 H803 0.929 . S
C812 C804 1.378 . S
C812 C807 1.350 . S
C813 H800 0.929 . S
C813 C805 1.433 . S
C813 N815 1.384 . S
N814 C810 1.427 . S
N814 C811 1.384 . S
N815 C807 1.427 . S
N815 C813 1.384 . S
H816 C822 0.930 . S
H817 C826 0.930 . S
H818 C831 0.929 . S
H819 C829 0.929 . S
H820 C824 0.929 . S
H821 C830 0.929 1_545 S
C822 H816 0.930 . S
C822 C823 1.372 . S
C822 C830 1.378 1_545 S
C823 C822 1.372 . S
C823 C831 1.416 1_545 S
C824 H820 0.929 . S
C824 C826 1.378 . S
C824 C828 1.350 . S
C825 C828 1.463 . S
C825 C830 1.350 . S
C825 N833 1.427 . S
C826 H817 0.930 . S
C826 C824 1.378 . S
C826 C827 1.367 . S
C827 C826 1.367 . S
C827 C829 1.433 . S
C828 C824 1.350 . S
C828 C825 1.463 . S
C828 N832 1.427 . S
C829 H819 0.929 . S
C829 C827 1.433 . S
C829 N832 1.384 . S
C830 H821 0.929 1_565 S
C830 C822 1.378 1_565 S
C830 C825 1.350 . S
C831 H818 0.929 . S
C831 C823 1.416 1_565 S
C831 N833 1.384 . S
N832 C828 1.427 . S
N832 C829 1.384 . S
N833 C825 1.427 . S
N833 C831 1.384 . S
H834 C840 0.930 . S
H835 C844 0.930 . S
H836 C849 0.929 . S
H837 C847 0.929 . S
H838 C842 0.929 . S
H839 C848 0.929 . S
C840 H834 0.930 . S
C840 C841 1.367 . S
C840 C848 1.378 . S
C841 C840 1.367 . S
C841 C849 1.433 . S
C842 H838 0.929 . S
C842 C844 1.378 . S
C842 C846 1.350 . S
C843 C846 1.463 . S
C843 C848 1.350 . S
C843 N851 1.427 . S
C844 H835 0.930 . S
C844 C842 1.378 . S
C844 C845 1.367 . S
C845 C844 1.367 . S
C845 C847 1.433 . S
C846 C842 1.350 . S
C846 C843 1.463 . S
C846 N850 1.427 . S
C847 H837 0.929 . S
C847 C845 1.433 . S
C847 N850 1.384 . S
C848 H839 0.929 . S
C848 C840 1.378 . S
C848 C843 1.350 . S
C849 H836 0.929 . S
C849 C841 1.433 . S
C849 N851 1.384 . S
N850 C846 1.427 . S
N850 C847 1.384 . S
N851 C843 1.427 . S
N851 C849 1.384 . S
H852 C858 0.930 . S
H853 C862 0.930 . S
H854 C867 0.929 . S
H855 C865 0.929 . S
H856 C860 0.929 . S
H857 C866 0.929 . S
C858 H852 0.930 . S
C858 C859 1.367 . S
C858 C866 1.378 . S
C859 C858 1.367 . S
C859 C867 1.433 . S
C860 H856 0.929 . S
C860 C862 1.378 . S
C860 C864 1.350 . S
C861 C864 1.463 . S
C861 C866 1.350 . S
C861 N869 1.427 . S
C862 H853 0.930 . S
C862 C860 1.378 . S
C862 C863 1.367 . S
C863 C862 1.367 . S
C863 C865 1.433 . S
C864 C860 1.350 . S
C864 C861 1.463 . S
C864 N868 1.427 . S
C865 H855 0.929 . S
C865 C863 1.433 . S
C865 N868 1.384 . S
C866 H857 0.929 . S
C866 C858 1.378 . S
C866 C861 1.350 . S
C867 H854 0.929 . S
C867 C859 1.433 . S
C867 N869 1.384 . S
N868 C864 1.427 . S
N868 C865 1.384 . S
N869 C861 1.427 . S
N869 C867 1.384 . S
H870 C876 0.930 . S
H871 C880 0.930 . S
H872 C885 0.929 . S
H873 C883 0.929 . S
H874 C878 0.929 . S
H875 C884 0.929 . S
C876 H870 0.930 . S
C876 C877 1.367 . S
C876 C884 1.378 . S
C877 C876 1.367 . S
C877 C885 1.433 . S
C878 H874 0.929 . S
C878 C880 1.378 . S
C878 C882 1.350 . S
C879 C882 1.463 . S
C879 C884 1.350 . S
C879 N887 1.427 . S
C880 H871 0.930 . S
C880 C878 1.378 . S
C880 C881 1.367 . S
C881 C880 1.367 . S
C881 C883 1.433 . S
C882 C878 1.350 . S
C882 C879 1.463 . S
C882 N886 1.427 . S
C883 H873 0.929 . S
C883 C881 1.433 . S
C883 N886 1.384 . S
C884 H875 0.929 . S
C884 C876 1.378 . S
C884 C879 1.350 . S
C885 H872 0.929 . S
C885 C877 1.433 . S
C885 N887 1.384 . S
N886 C882 1.427 . S
N886 C883 1.384 . S
N887 C879 1.427 . S
N887 C885 1.384 . S
H888 C894 0.930 . S
H889 C898 0.930 . S
H890 C903 0.929 . S
H891 C901 0.929 . S
H892 C896 0.929 . S
H893 C902 0.929 . S
C894 H888 0.930 . S
C894 C895 1.367 . S
C894 C902 1.378 . S
C895 C894 1.367 . S
C895 C903 1.433 . S
C896 H892 0.929 . S
C896 C898 1.378 . S
C896 C900 1.350 . S
C897 C900 1.463 . S
C897 C902 1.350 . S
C897 N905 1.427 . S
C898 H889 0.930 . S
C898 C896 1.378 . S
C898 C899 1.367 . S
C899 C898 1.367 . S
C899 C901 1.433 . S
C900 C896 1.350 . S
C900 C897 1.463 . S
C900 N904 1.427 . S
C901 H891 0.929 . S
C901 C899 1.433 . S
C901 N904 1.384 . S
C902 H893 0.929 . S
C902 C894 1.378 . S
C902 C897 1.350 . S
C903 H890 0.929 . S
C903 C895 1.433 . S
C903 N905 1.384 . S
N904 C900 1.427 . S
N904 C901 1.384 . S
N905 C897 1.427 . S
N905 C903 1.384 . S
H906 C912 0.930 . S
H907 C916 0.930 . S
H908 C921 0.929 . S
H909 C919 0.929 . S
H910 C914 0.929 . S
H911 C920 0.929 . S
C912 H906 0.930 . S
C912 C913 1.367 . S
C912 C920 1.378 . S
C913 C912 1.367 . S
C913 C921 1.433 . S
C914 H910 0.929 . S
C914 C916 1.378 . S
C914 C918 1.350 . S
C915 C918 1.463 . S
C915 C920 1.350 . S
C915 N923 1.427 . S
C916 H907 0.930 . S
C916 C914 1.378 . S
C916 C917 1.367 . S
C917 C916 1.367 . S
C917 C919 1.433 . S
C918 C914 1.350 . S
C918 C915 1.463 . S
C918 N922 1.427 . S
C919 H909 0.929 . S
C919 C917 1.433 . S
C919 N922 1.384 . S
C920 H911 0.929 . S
C920 C912 1.378 . S
C920 C915 1.350 . S
C921 H908 0.929 . S
C921 C913 1.433 . S
C921 N923 1.384 . S
N922 C918 1.427 . S
N922 C919 1.384 . S
N923 C915 1.427 . S
N923 C921 1.384 . S
H924 C930 0.930 . S
H925 C934 0.930 . S
H926 C939 0.929 . S
H927 C937 0.929 . S
H928 C932 0.929 . S
H929 C938 0.929 . S
C930 H924 0.930 . S
C930 C931 1.367 . S
C930 C938 1.378 . S
C931 C930 1.367 . S
C931 C939 1.433 . S
C932 H928 0.929 . S
C932 C934 1.378 . S
C932 C936 1.350 . S
C933 C936 1.463 1_554 S
C933 C938 1.350 . S
C933 N941 1.427 . S
C934 H925 0.930 . S
C934 C932 1.378 . S
C934 C935 1.367 . S
C935 C934 1.367 . S
C935 C937 1.433 . S
C936 C932 1.350 . S
C936 C933 1.463 1_556 S
C936 N940 1.432 . S
C937 H927 0.929 . S
C937 C935 1.433 . S
C937 N940 1.413 . S
C938 H929 0.929 . S
C938 C930 1.378 . S
C938 C933 1.350 . S
C939 H926 0.929 . S
C939 C931 1.433 . S
C939 N941 1.384 . S
N940 C936 1.432 . S
N940 C937 1.413 . S
N941 C933 1.427 . S
N941 C939 1.384 . S
H942 C948 0.930 . S
H943 C952 0.930 . S
H944 C957 0.929 . S
H945 C955 0.929 . S
H946 C950 0.929 . S
H947 C956 0.929 . S
C948 H942 0.930 . S
C948 C949 1.367 . S
C948 C956 1.378 . S
C949 C948 1.367 . S
C949 C957 1.433 . S
C950 H946 0.929 . S
C950 C952 1.378 . S
C950 C954 1.350 . S
C951 C954 1.463 . S
C951 C956 1.350 . S
C951 N959 1.427 . S
C952 H943 0.930 . S
C952 C950 1.378 . S
C952 C953 1.367 . S
C953 C952 1.367 . S
C953 C955 1.433 . S
C954 C950 1.350 . S
C954 C951 1.463 . S
C954 N958 1.427 . S
C955 H945 0.929 . S
C955 C953 1.433 . S
C955 N958 1.384 . S
C956 H947 0.929 . S
C956 C948 1.378 . S
C956 C951 1.350 . S
C957 H944 0.929 . S
C957 C949 1.433 . S
C957 N959 1.384 . S
N958 C954 1.427 . S
N958 C955 1.384 . S
N959 C951 1.427 . S
N959 C957 1.384 . S
C539 C521 1.428 . S
C535 C51 1.424 . S
C553 C125 1.446 . S
C557 C450 1.441 . S
C571 C217 2.621 . S
C575 C464 2.633 . S
C589 C291 1.571 . S
C593 C478 1.549 . S
C611 C492 0.988 . S
C607 C347 0.978 . S
C625 C421 1.137 . S
C629 C507 1.114 . S
C643 C143 2.220 . S
C647 C465 2.204 . S
C661 C199 1.542 . S
C665 C479 1.553 . S
C679 C273 0.732 . S
C683 C493 0.731 . S
C701 C506 1.699 . S
C697 C365 1.684 . S
C719 C520 1.791 . S
C715 C439 1.798 . S
C737 C451 2.558 . S
C733 C69 2.524 . S
C751 C63 1.459 . S
C755 C467 1.578 . S
C769 C137 1.880 . S
C773 C481 1.937 . S
C791 C495 1.391 . S
C787 C187 1.342 . S
C805 C261 1.803 . S
C809 C508 1.803 . S
C827 C522 1.579 . S
C823 C359 1.449 . S
C845 C453 1.489 . S
C841 C433 1.438 . S
C863 C523 1.903 . S
C859 C113 1.947 . S
C877 C211 1.343 . S
C881 C452 1.424 . S
C899 C466 1.933 . S
C895 C285 1.859 . S
C913 C335 1.372 . S
C917 C480 1.433 . S
C931 C409 1.649 . S
C935 C494 1.633 . S
C949 C39 1.601 . S
C953 C509 1.618 . S
