# Generated by pormake.
# Topology ctn, (3,4)-cn, num edge types: 1
# Building blocks:
#     Node 0, Type 0, BuildingBlock: KAKCAD_clean_linker_0, # of connection points: 3
#     Node 1, Type 0, BuildingBlock: KAKCAD_clean_linker_0, # of connection points: 3
#     Node 2, Type 0, BuildingBlock: KAKCAD_clean_linker_0, # of connection points: 3
#     Node 3, Type 0, BuildingBlock: KAKCAD_clean_linker_0, # of connection points: 3
#     Node 4, Type 0, BuildingBlock: KAKCAD_clean_linker_0, # of connection points: 3
#     Node 5, Type 0, BuildingBlock: KAKCAD_clean_linker_0, # of connection points: 3
#     Node 6, Type 0, BuildingBlock: KAKCAD_clean_linker_0, # of connection points: 3
#     Node 7, Type 0, BuildingBlock: KAKCAD_clean_linker_0, # of connection points: 3
#     Node 8, Type 0, BuildingBlock: KAKCAD_clean_linker_0, # of connection points: 3
#     Node 9, Type 0, BuildingBlock: KAKCAD_clean_linker_0, # of connection points: 3
#     Node 10, Type 0, BuildingBlock: KAKCAD_clean_linker_0, # of connection points: 3
#     Node 11, Type 0, BuildingBlock: KAKCAD_clean_linker_0, # of connection points: 3
#     Node 12, Type 0, BuildingBlock: KAKCAD_clean_linker_0, # of connection points: 3
#     Node 13, Type 0, BuildingBlock: KAKCAD_clean_linker_0, # of connection points: 3
#     Node 14, Type 0, BuildingBlock: KAKCAD_clean_linker_0, # of connection points: 3
#     Node 15, Type 0, BuildingBlock: KAKCAD_clean_linker_0, # of connection points: 3
#     Node 16, Type 1, BuildingBlock: UXUYUI_clean_sbu_0, # of connection points: 4
#     Node 17, Type 1, BuildingBlock: UXUYUI_clean_sbu_0, # of connection points: 4
#     Node 18, Type 1, BuildingBlock: UXUYUI_clean_sbu_0, # of connection points: 4
#     Node 19, Type 1, BuildingBlock: UXUYUI_clean_sbu_0, # of connection points: 4
#     Node 20, Type 1, BuildingBlock: UXUYUI_clean_sbu_0, # of connection points: 4
#     Node 21, Type 1, BuildingBlock: UXUYUI_clean_sbu_0, # of connection points: 4
#     Node 22, Type 1, BuildingBlock: UXUYUI_clean_sbu_0, # of connection points: 4
#     Node 23, Type 1, BuildingBlock: UXUYUI_clean_sbu_0, # of connection points: 4
#     Node 24, Type 1, BuildingBlock: UXUYUI_clean_sbu_0, # of connection points: 4
#     Node 25, Type 1, BuildingBlock: UXUYUI_clean_sbu_0, # of connection points: 4
#     Node 26, Type 1, BuildingBlock: UXUYUI_clean_sbu_0, # of connection points: 4
#     Node 27, Type 1, BuildingBlock: UXUYUI_clean_sbu_0, # of connection points: 4
#     Edge 28, Type (0, 1), BuildingBlock: UVAHIK_clean_linker_0, # of connection points: 2
#     Edge 29, Type (0, 1), BuildingBlock: UVAHIK_clean_linker_0, # of connection points: 2
#     Edge 30, Type (0, 1), BuildingBlock: UVAHIK_clean_linker_0, # of connection points: 2
#     Edge 31, Type (0, 1), BuildingBlock: UVAHIK_clean_linker_0, # of connection points: 2
#     Edge 32, Type (0, 1), BuildingBlock: UVAHIK_clean_linker_0, # of connection points: 2
#     Edge 33, Type (0, 1), BuildingBlock: UVAHIK_clean_linker_0, # of connection points: 2
#     Edge 34, Type (0, 1), BuildingBlock: UVAHIK_clean_linker_0, # of connection points: 2
#     Edge 35, Type (0, 1), BuildingBlock: UVAHIK_clean_linker_0, # of connection points: 2
#     Edge 36, Type (0, 1), BuildingBlock: UVAHIK_clean_linker_0, # of connection points: 2
#     Edge 37, Type (0, 1), BuildingBlock: UVAHIK_clean_linker_0, # of connection points: 2
#     Edge 38, Type (0, 1), BuildingBlock: UVAHIK_clean_linker_0, # of connection points: 2
#     Edge 39, Type (0, 1), BuildingBlock: UVAHIK_clean_linker_0, # of connection points: 2
#     Edge 40, Type (0, 1), BuildingBlock: UVAHIK_clean_linker_0, # of connection points: 2
#     Edge 41, Type (0, 1), BuildingBlock: UVAHIK_clean_linker_0, # of connection points: 2
#     Edge 42, Type (0, 1), BuildingBlock: UVAHIK_clean_linker_0, # of connection points: 2
#     Edge 43, Type (0, 1), BuildingBlock: UVAHIK_clean_linker_0, # of connection points: 2
#     Edge 44, Type (0, 1), BuildingBlock: UVAHIK_clean_linker_0, # of connection points: 2
#     Edge 45, Type (0, 1), BuildingBlock: UVAHIK_clean_linker_0, # of connection points: 2
#     Edge 46, Type (0, 1), BuildingBlock: UVAHIK_clean_linker_0, # of connection points: 2
#     Edge 47, Type (0, 1), BuildingBlock: UVAHIK_clean_linker_0, # of connection points: 2
#     Edge 48, Type (0, 1), BuildingBlock: UVAHIK_clean_linker_0, # of connection points: 2
#     Edge 49, Type (0, 1), BuildingBlock: UVAHIK_clean_linker_0, # of connection points: 2
#     Edge 50, Type (0, 1), BuildingBlock: UVAHIK_clean_linker_0, # of connection points: 2
#     Edge 51, Type (0, 1), BuildingBlock: UVAHIK_clean_linker_0, # of connection points: 2
#     Edge 52, Type (0, 1), BuildingBlock: UVAHIK_clean_linker_0, # of connection points: 2
#     Edge 53, Type (0, 1), BuildingBlock: UVAHIK_clean_linker_0, # of connection points: 2
#     Edge 54, Type (0, 1), BuildingBlock: UVAHIK_clean_linker_0, # of connection points: 2
#     Edge 55, Type (0, 1), BuildingBlock: UVAHIK_clean_linker_0, # of connection points: 2
#     Edge 56, Type (0, 1), BuildingBlock: UVAHIK_clean_linker_0, # of connection points: 2
#     Edge 57, Type (0, 1), BuildingBlock: UVAHIK_clean_linker_0, # of connection points: 2
#     Edge 58, Type (0, 1), BuildingBlock: UVAHIK_clean_linker_0, # of connection points: 2
#     Edge 59, Type (0, 1), BuildingBlock: UVAHIK_clean_linker_0, # of connection points: 2
#     Edge 60, Type (0, 1), BuildingBlock: UVAHIK_clean_linker_0, # of connection points: 2
#     Edge 61, Type (0, 1), BuildingBlock: UVAHIK_clean_linker_0, # of connection points: 2
#     Edge 62, Type (0, 1), BuildingBlock: UVAHIK_clean_linker_0, # of connection points: 2
#     Edge 63, Type (0, 1), BuildingBlock: UVAHIK_clean_linker_0, # of connection points: 2
#     Edge 64, Type (0, 1), BuildingBlock: UVAHIK_clean_linker_0, # of connection points: 2
#     Edge 65, Type (0, 1), BuildingBlock: UVAHIK_clean_linker_0, # of connection points: 2
#     Edge 66, Type (0, 1), BuildingBlock: UVAHIK_clean_linker_0, # of connection points: 2
#     Edge 67, Type (0, 1), BuildingBlock: UVAHIK_clean_linker_0, # of connection points: 2
#     Edge 68, Type (0, 1), BuildingBlock: UVAHIK_clean_linker_0, # of connection points: 2
#     Edge 69, Type (0, 1), BuildingBlock: UVAHIK_clean_linker_0, # of connection points: 2
#     Edge 70, Type (0, 1), BuildingBlock: UVAHIK_clean_linker_0, # of connection points: 2
#     Edge 71, Type (0, 1), BuildingBlock: UVAHIK_clean_linker_0, # of connection points: 2
#     Edge 72, Type (0, 1), BuildingBlock: UVAHIK_clean_linker_0, # of connection points: 2
#     Edge 73, Type (0, 1), BuildingBlock: UVAHIK_clean_linker_0, # of connection points: 2
#     Edge 74, Type (0, 1), BuildingBlock: UVAHIK_clean_linker_0, # of connection points: 2
#     Edge 75, Type (0, 1), BuildingBlock: UVAHIK_clean_linker_0, # of connection points: 2
# Relax obj value: 0.000
# Max RMSD: 0.005
# Mean RMSD: 0.004
data_MOF--net-ctn--node1-UXUYUI_clean_sbu_0--node2-KAKCAD_clean_linker_0--edge1-UVAHIK_clean_linker_0
_symmetry_space_group_name_H-M    P1
_symmetry_Int_Tables_number       1
_symmetry_cell_setting            triclinic
loop_
_symmetry_equiv_pos_as_xyz
'x, y, z'
_cell_length_a     97.501933
_cell_length_b     97.411842
_cell_length_c     97.321913
_cell_angle_alpha  90.085882
_cell_angle_beta   90.305336
_cell_angle_gamma 90.216726
loop_
_atom_site_label
_atom_site_type_symbol
_atom_site_fract_x
_atom_site_fract_y
_atom_site_fract_z
_atom_type_partial_charge
C0 C 0.03219 0.07113 0.99704 0.0
C1 C 0.02937 0.08411 0.00267 0.0
C2 C 0.03427 0.0598 0.00557 0.0
C3 C 0.03347 0.06117 0.01992 0.0
C4 C 0.03064 0.07414 0.02556 0.0
C5 C 0.02865 0.0855 0.01703 0.0
C6 C 0.03548 0.0491 0.02899 0.0
C7 C 0.0463 0.03992 0.02663 0.0
C8 C 0.04828 0.02845 0.03516 0.0
C9 C 0.03918 0.0262 0.0461 0.0
C10 C 0.02839 0.03535 0.04869 0.0
C11 C 0.02661 0.04676 0.04007 0.0
C12 C 0.01906 0.03311 0.06049 0.0
C13 C 0.01382 0.01996 0.06336 0.0
C14 C 0.01538 0.04413 0.06902 0.0
C15 C 0.00668 0.04206 0.08019 0.0
C16 C 0.0014 0.02892 0.08306 0.0
C17 C 0.06004 0.01902 0.03284 0.0
C18 C 0.06413 0.01555 0.01945 0.0
C19 C 0.0674 0.01357 0.04403 0.0
C20 C 0.07856 0.00489 0.04188 0.0
C21 C 0.08275 0.00153 0.02848 0.0
C22 C 0.07537 0.00696 0.0173 0.0
C23 C 0.00507 0.0179 0.0745 0.0
H24 H 0.03292 0.06977 0.98602 0.0
H25 H 0.03633 0.04991 0.00094 0.0
H26 H 0.03007 0.07554 0.03659 0.0
H27 H 0.02639 0.09534 0.02167 0.0
H28 H 0.05343 0.04199 0.01838 0.0
H29 H 0.01812 0.05368 0.04181 0.0
H30 H 0.04054 0.01737 0.05272 0.0
H31 H 0.01634 0.0113 0.05686 0.0
H32 H 0.01941 0.05433 0.0672 0.0
H33 H 0.00426 0.05073 0.08671 0.0
H34 H 0.05861 0.01942 0.01059 0.0
H35 H 0.06468 0.01616 0.05449 0.0
H36 H 0.00103 0.00769 0.0763 0.0
H37 H 0.07838 0.00473 0.00683 0.0
H38 H 0.08386 0.00076 0.05075 0.0
C39 C 0.32632 0.73518 0.24475 0.0
C40 C 0.33438 0.72411 0.24925 0.0
C41 C 0.31491 0.73293 0.23627 0.0
C42 C 0.31132 0.71957 0.23207 0.0
C43 C 0.31946 0.70852 0.23648 0.0
C44 C 0.33084 0.71076 0.24498 0.0
C45 C 0.29907 0.71714 0.22321 0.0
C46 C 0.29612 0.72597 0.21218 0.0
C47 C 0.28452 0.72379 0.20379 0.0
C48 C 0.27586 0.71256 0.20655 0.0
C49 C 0.27875 0.70352 0.21741 0.0
C50 C 0.29033 0.70594 0.22572 0.0
C51 C 0.2698 0.69142 0.21996 0.0
C52 C 0.25544 0.69263 0.21949 0.0
C53 C 0.2756 0.67852 0.22273 0.0
C54 C 0.26723 0.66707 0.2249 0.0
C55 C 0.25288 0.66825 0.2244 0.0
C56 C 0.28163 0.73309 0.19199 0.0
C57 C 0.28392 0.74731 0.19313 0.0
C58 C 0.27667 0.7278 0.17945 0.0
C59 C 0.27411 0.7365 0.16833 0.0
C60 C 0.27654 0.7507 0.16942 0.0
C61 C 0.28147 0.75599 0.18197 0.0
C62 C 0.24707 0.68117 0.22172 0.0
H63 H 0.32867 0.74556 0.24801 0.0
H64 H 0.30875 0.74165 0.23321 0.0
H65 H 0.31712 0.69812 0.23324 0.0
H66 H 0.33698 0.70204 0.24808 0.0
H67 H 0.3031 0.73433 0.20991 0.0
H68 H 0.29237 0.69922 0.23435 0.0
H69 H 0.2669 0.71077 0.20016 0.0
H70 H 0.25068 0.70245 0.21749 0.0
H71 H 0.28663 0.67724 0.22304 0.0
H72 H 0.27202 0.65728 0.22708 0.0
H73 H 0.28757 0.75177 0.20267 0.0
H74 H 0.27495 0.71689 0.17813 0.0
H75 H 0.23605 0.68239 0.22115 0.0
H76 H 0.28362 0.76685 0.18315 0.0
H77 H 0.27015 0.73206 0.1589 0.0
C78 C 0.98673 0.47317 0.08527 0.0
C79 C 0.001 0.474 0.08328 0.0
C80 C 0.97784 0.47107 0.07414 0.0
C81 C 0.98302 0.46956 0.0608 0.0
C82 C 0.99725 0.4703 0.05876 0.0
C83 C 0.00613 0.4726 0.06985 0.0
C84 C 0.9736 0.46718 0.04904 0.0
C85 C 0.96207 0.47555 0.04716 0.0
C86 C 0.9531 0.47339 0.03601 0.0
C87 C 0.95571 0.4626 0.0268 0.0
C88 C 0.96711 0.45398 0.02865 0.0
C89 C 0.97607 0.45645 0.03975 0.0
C90 C 0.96946 0.44218 0.01923 0.0
C91 C 0.95839 0.43405 0.01466 0.0
C92 C 0.98278 0.43878 0.01497 0.0
C93 C 0.98499 0.42744 0.00645 0.0
C94 C 0.97394 0.41924 0.00197 0.0
C95 C 0.941 0.4824 0.03401 0.0
C96 C 0.93277 0.4861 0.04522 0.0
C97 C 0.9376 0.48737 0.02088 0.0
C98 C 0.92624 0.49588 0.01901 0.0
C99 C 0.91798 0.49958 0.03022 0.0
C100 C 0.92138 0.49457 0.04335 0.0
C101 C 0.9606 0.42274 0.00612 0.0
H102 H 0.98238 0.47391 0.09545 0.0
H103 H 0.96691 0.47038 0.076 0.0
H104 H 0.00148 0.46932 0.04854 0.0
H105 H 0.01701 0.47344 0.06785 0.0
H106 H 0.96026 0.48397 0.05421 0.0
H107 H 0.98476 0.44974 0.04146 0.0
H108 H 0.94879 0.46085 0.01822 0.0
H109 H 0.94802 0.43626 0.01787 0.0
H110 H 0.99152 0.44492 0.01818 0.0
H111 H 0.99541 0.42498 0.00358 0.0
H112 H 0.93501 0.48227 0.05543 0.0
H113 H 0.94386 0.48486 0.01208 0.0
H114 H 0.95183 0.41677 0.00272 0.0
H115 H 0.91512 0.49703 0.05217 0.0
H116 H 0.92406 0.49974 0.00881 0.0
C117 C 0.70892 0.75911 0.17025 0.0
C118 C 0.7221 0.75407 0.16741 0.0
C119 C 0.70668 0.76738 0.18177 0.0
C120 C 0.71758 0.77089 0.19061 0.0
C121 C 0.73079 0.76598 0.18769 0.0
C122 C 0.73301 0.75761 0.17625 0.0
C123 C 0.71517 0.7795 0.20295 0.0
C124 C 0.70397 0.77677 0.21154 0.0
C125 C 0.70167 0.78474 0.22333 0.0
C126 C 0.71075 0.79555 0.22649 0.0
C127 C 0.7219 0.79862 0.21788 0.0
C128 C 0.72403 0.79047 0.20614 0.0
C129 C 0.73109 0.81052 0.22097 0.0
C130 C 0.72576 0.82272 0.22652 0.0
C131 C 0.74522 0.80989 0.2182 0.0
C132 C 0.75374 0.8212 0.22072 0.0
C133 C 0.7484 0.83341 0.22626 0.0
C134 C 0.68965 0.78193 0.23223 0.0
C135 C 0.6767 0.77929 0.22637 0.0
C136 C 0.69099 0.78206 0.24662 0.0
C137 C 0.6796 0.77969 0.25496 0.0
C138 C 0.66661 0.7772 0.2491 0.0
C139 C 0.6653 0.77698 0.23471 0.0
C140 C 0.73431 0.83395 0.22923 0.0
H141 H 0.7003 0.75647 0.16369 0.0
H142 H 0.69641 0.7711 0.18371 0.0
H143 H 0.73937 0.76845 0.19438 0.0
H144 H 0.74329 0.75396 0.17425 0.0
H145 H 0.69721 0.76821 0.20922 0.0
H146 H 0.73235 0.79287 0.19921 0.0
H147 H 0.70901 0.80166 0.23562 0.0
H148 H 0.71491 0.82371 0.22861 0.0
H149 H 0.74975 0.80062 0.2141 0.0
H150 H 0.76449 0.82041 0.21812 0.0
H151 H 0.67532 0.77923 0.21532 0.0
H152 H 0.70086 0.78394 0.25144 0.0
H153 H 0.72982 0.84306 0.23371 0.0
H154 H 0.65547 0.77494 0.22988 0.0
H155 H 0.68092 0.78005 0.26601 0.0
C156 C 0.99317 0.9726 0.43442 0.0
C157 C 0.99847 0.97686 0.4217 0.0
C158 C 0.0019 0.97047 0.44566 0.0
C159 C 0.01611 0.97259 0.44444 0.0
C160 C 0.0214 0.97684 0.43173 0.0
C161 C 0.01269 0.97894 0.42049 0.0
C162 C 0.02542 0.97035 0.45636 0.0
C163 C 0.02376 0.95883 0.46486 0.0
C164 C 0.03265 0.95651 0.47603 0.0
C165 C 0.04341 0.96588 0.47854 0.0
C166 C 0.04529 0.97745 0.47011 0.0
C167 C 0.03613 0.97964 0.45914 0.0
C168 C 0.05691 0.98714 0.47263 0.0
C169 C 0.06121 0.99036 0.4861 0.0
C170 C 0.06392 0.99316 0.46154 0.0
C171 C 0.07488 0.00216 0.46384 0.0
C172 C 0.07923 0.00521 0.47728 0.0
C173 C 0.03078 0.94427 0.485 0.0
C174 C 0.01756 0.93971 0.48855 0.0
C175 C 0.04218 0.93706 0.49013 0.0
C176 C 0.04041 0.92567 0.49866 0.0
C177 C 0.02719 0.92108 0.50218 0.0
C178 C 0.01579 0.92823 0.49696 0.0
C179 C 0.07232 0.99921 0.48838 0.0
H180 H 0.98225 0.97109 0.43576 0.0
H181 H 0.99749 0.96736 0.45537 0.0
H182 H 0.03232 0.97834 0.43039 0.0
H183 H 0.01714 0.98198 0.41079 0.0
H184 H 0.01574 0.95144 0.46252 0.0
H185 H 0.03718 0.98874 0.45283 0.0
H186 H 0.05038 0.96411 0.48704 0.0
H187 H 0.05593 0.98615 0.4949 0.0
H188 H 0.06111 0.99073 0.45103 0.0
H189 H 0.08015 0.00652 0.45509 0.0
H190 H 0.00854 0.94508 0.48493 0.0
H191 H 0.05252 0.94013 0.48747 0.0
H192 H 0.0754 0.00151 0.49885 0.0
H193 H 0.00545 0.92491 0.49927 0.0
H194 H 0.04945 0.92056 0.50261 0.0
C195 C 0.17136 0.71132 0.75673 0.0
C196 C 0.16827 0.72469 0.75229 0.0
C197 C 0.18281 0.70888 0.76507 0.0
C198 C 0.19139 0.71978 0.76921 0.0
C199 C 0.18826 0.73315 0.76482 0.0
C200 C 0.17685 0.73558 0.75644 0.0
C201 C 0.2036 0.71722 0.77803 0.0
C202 C 0.21222 0.70601 0.7754 0.0
C203 C 0.22388 0.70363 0.78357 0.0
C204 C 0.22695 0.71269 0.79442 0.0
C205 C 0.21835 0.72387 0.79737 0.0
C206 C 0.20667 0.72601 0.78909 0.0
C207 C 0.22138 0.73317 0.8092 0.0
C208 C 0.22693 0.72797 0.8215 0.0
C209 C 0.21858 0.7473 0.80837 0.0
C210 C 0.22104 0.75594 0.8196 0.0
C211 C 0.22657 0.75074 0.83192 0.0
C212 C 0.23277 0.69158 0.78089 0.0
C213 C 0.22692 0.67863 0.77819 0.0
C214 C 0.24713 0.69285 0.78122 0.0
C215 C 0.25546 0.68142 0.77898 0.0
C216 C 0.2496 0.66845 0.77642 0.0
C217 C 0.23524 0.6672 0.77601 0.0
C218 C 0.22959 0.73665 0.83265 0.0
H219 H 0.16503 0.70269 0.75361 0.0
H220 H 0.18488 0.69848 0.76839 0.0
H221 H 0.19474 0.74174 0.76774 0.0
H222 H 0.17468 0.74601 0.7533 0.0
H223 H 0.21001 0.69928 0.76678 0.0
H224 H 0.19972 0.73432 0.79145 0.0
H225 H 0.236 0.71093 0.80065 0.0
H226 H 0.22906 0.71713 0.82263 0.0
H227 H 0.21451 0.75175 0.79902 0.0
H228 H 0.21838 0.76668 0.81866 0.0
H229 H 0.21588 0.6773 0.77799 0.0
H230 H 0.25194 0.70272 0.78314 0.0
H231 H 0.23406 0.73226 0.84185 0.0
H232 H 0.23041 0.65737 0.77393 0.0
H233 H 0.26649 0.6827 0.77947 0.0
C234 C 0.97347 0.58556 0.48489 0.0
C235 C 0.97135 0.58448 0.49913 0.0
C236 C 0.9717 0.57415 0.47633 0.0
C237 C 0.96779 0.56139 0.48181 0.0
C238 C 0.96564 0.56031 0.49604 0.0
C239 C 0.96739 0.57172 0.5046 0.0
C240 C 0.96605 0.5492 0.47274 0.0
C241 C 0.97537 0.54666 0.46209 0.0
C242 C 0.97387 0.53511 0.45355 0.0
C243 C 0.96301 0.52591 0.4559 0.0
C244 C 0.95347 0.5283 0.46643 0.0
C245 C 0.95507 0.54004 0.47473 0.0
C246 C 0.94177 0.51867 0.46868 0.0
C247 C 0.93517 0.51218 0.4575 0.0
C248 C 0.93698 0.51598 0.48204 0.0
C249 C 0.9258 0.50724 0.48414 0.0
C250 C 0.9193 0.50079 0.47295 0.0
C251 C 0.98354 0.53282 0.44202 0.0
C252 C 0.9876 0.54384 0.43364 0.0
C253 C 0.98864 0.51964 0.43919 0.0
C254 C 0.99757 0.51753 0.4282 0.0
C255 C 0.00159 0.52855 0.41979 0.0
C256 C 0.99651 0.54172 0.42266 0.0
C257 C 0.92414 0.50325 0.45963 0.0
H258 H 0.97666 0.5952 0.48037 0.0
H259 H 0.9733 0.57537 0.4654 0.0
H260 H 0.96275 0.5506 0.50061 0.0
H261 H 0.96551 0.57056 0.51549 0.0
H262 H 0.98399 0.55354 0.46062 0.0
H263 H 0.94756 0.54228 0.48257 0.0
H264 H 0.96194 0.51692 0.44942 0.0
H265 H 0.93835 0.51418 0.44705 0.0
H266 H 0.94194 0.52052 0.49094 0.0
H267 H 0.92232 0.50537 0.49453 0.0
H268 H 0.98368 0.55407 0.43541 0.0
H269 H 0.98585 0.51098 0.44557 0.0
H270 H 0.9192 0.49849 0.45083 0.0
H271 H 0.99921 0.55039 0.41625 0.0
H272 H 0.00145 0.50729 0.42639 0.0
C273 C 0.79115 0.75937 0.83225 0.0
C274 C 0.77841 0.75284 0.83407 0.0
C275 C 0.79346 0.7676 0.82073 0.0
C276 C 0.78301 0.76965 0.81097 0.0
C277 C 0.77022 0.76325 0.81288 0.0
C278 C 0.76799 0.75482 0.82427 0.0
C279 C 0.78542 0.77838 0.79878 0.0
C280 C 0.79697 0.77625 0.79052 0.0
C281 C 0.7992 0.78432 0.77878 0.0
C282 C 0.78976 0.79469 0.77545 0.0
C283 C 0.77826 0.79716 0.78377 0.0
C284 C 0.77616 0.78885 0.79538 0.0
C285 C 0.76867 0.8086 0.78056 0.0
C286 C 0.77363 0.82115 0.77537 0.0
C287 C 0.7545 0.80722 0.78296 0.0
C288 C 0.7456 0.81818 0.78052 0.0
C289 C 0.75063 0.83069 0.77542 0.0
C290 C 0.8114 0.78194 0.77003 0.0
C291 C 0.82435 0.77969 0.77602 0.0
C292 C 0.81021 0.78198 0.75563 0.0
C293 C 0.82172 0.77984 0.7474 0.0
C294 C 0.83468 0.77766 0.75339 0.0
C295 C 0.83586 0.7776 0.76779 0.0
C296 C 0.7647 0.83202 0.77274 0.0
H297 H 0.79937 0.75793 0.83963 0.0
H298 H 0.80338 0.77248 0.81951 0.0
H299 H 0.76203 0.76462 0.80545 0.0
H300 H 0.75806 0.74995 0.82549 0.0
H301 H 0.80403 0.76806 0.79305 0.0
H302 H 0.76753 0.79074 0.80208 0.0
H303 H 0.79146 0.80091 0.7664 0.0
H304 H 0.78448 0.82272 0.77363 0.0
H305 H 0.75024 0.79766 0.7867 0.0
H306 H 0.73476 0.81685 0.78254 0.0
H307 H 0.82562 0.77972 0.78708 0.0
H308 H 0.80036 0.78355 0.75071 0.0
H309 H 0.76885 0.84162 0.76895 0.0
H310 H 0.84568 0.77581 0.77272 0.0
H311 H 0.82049 0.78007 0.73634 0.0
C312 C 0.29014 0.25639 0.33053 0.0
C313 C 0.27667 0.25232 0.33363 0.0
C314 C 0.29275 0.26502 0.31938 0.0
C315 C 0.28194 0.26976 0.31105 0.0
C316 C 0.26845 0.26572 0.31418 0.0
C317 C 0.26585 0.25711 0.32536 0.0
C318 C 0.28475 0.27887 0.29913 0.0
C319 C 0.29611 0.27647 0.29065 0.0
C320 C 0.29894 0.28509 0.27945 0.0
C321 C 0.2902 0.2962 0.27673 0.0
C322 C 0.2788 0.2988 0.2851 0.0
C323 C 0.27615 0.29007 0.29626 0.0
C324 C 0.26979 0.31076 0.28231 0.0
C325 C 0.27547 0.32357 0.27883 0.0
C326 C 0.25546 0.30949 0.28321 0.0
C327 C 0.247 0.32078 0.28071 0.0
C328 C 0.25268 0.33361 0.27729 0.0
C329 C 0.31107 0.28254 0.27065 0.0
C330 C 0.32381 0.27926 0.27659 0.0
C331 C 0.31004 0.28347 0.25627 0.0
C332 C 0.3215 0.2812 0.24802 0.0
C333 C 0.33426 0.278 0.25397 0.0
C334 C 0.33529 0.27704 0.26834 0.0
C335 C 0.26702 0.33486 0.27635 0.0
H336 H 0.29868 0.25305 0.33684 0.0
H337 H 0.30323 0.26812 0.31741 0.0
H338 H 0.25992 0.26903 0.30785 0.0
H339 H 0.25537 0.25402 0.32737 0.0
H340 H 0.30263 0.26768 0.29258 0.0
H341 H 0.2676 0.29224 0.30298 0.0
H342 H 0.29233 0.3029 0.26811 0.0
H343 H 0.28648 0.32493 0.27819 0.0
H344 H 0.25076 0.29973 0.28576 0.0
H345 H 0.236 0.3195 0.28165 0.0
H346 H 0.32496 0.27858 0.28765 0.0
H347 H 0.30033 0.28586 0.25138 0.0
H348 H 0.27172 0.34456 0.2736 0.0
H349 H 0.34494 0.27447 0.27323 0.0
H350 H 0.3204 0.28213 0.23698 0.0
C351 C 0.4847 0.97182 0.58504 0.0
C352 C 0.49899 0.97299 0.58331 0.0
C353 C 0.47601 0.97013 0.5737 0.0
C354 C 0.4814 0.96934 0.56039 0.0
C355 C 0.49564 0.97036 0.5586 0.0
C356 C 0.50433 0.97228 0.56991 0.0
C357 C 0.47219 0.96751 0.54838 0.0
C358 C 0.46085 0.97614 0.54658 0.0
C359 C 0.45208 0.97455 0.53518 0.0
C360 C 0.45473 0.96407 0.52562 0.0
C361 C 0.46593 0.95516 0.52739 0.0
C362 C 0.47467 0.95706 0.53878 0.0
C363 C 0.46823 0.94362 0.51761 0.0
C364 C 0.45707 0.93622 0.51211 0.0
C365 C 0.48159 0.93971 0.51391 0.0
C366 C 0.48372 0.92857 0.50513 0.0
C367 C 0.47255 0.92111 0.4997 0.0
C368 C 0.4401 0.98376 0.53333 0.0
C369 C 0.43185 0.9873 0.54458 0.0
C370 C 0.43678 0.98903 0.52029 0.0
C371 C 0.42545 0.99761 0.51855 0.0
C372 C 0.41718 0.00113 0.5298 0.0
C373 C 0.42052 0.99588 0.54284 0.0
C374 C 0.45919 0.92517 0.50322 0.0
H375 H 0.48019 0.97202 0.59518 0.0
H376 H 0.46506 0.96922 0.57535 0.0
H377 H 0.50003 0.96992 0.5484 0.0
H378 H 0.51522 0.97342 0.56809 0.0
H379 H 0.45905 0.98433 0.5539 0.0
H380 H 0.48319 0.95014 0.54048 0.0
H381 H 0.44798 0.96279 0.51684 0.0
H382 H 0.44664 0.93878 0.51485 0.0
H383 H 0.49043 0.94528 0.5178 0.0
H384 H 0.49416 0.92566 0.50279 0.0
H385 H 0.43401 0.98324 0.55472 0.0
H386 H 0.44305 0.98666 0.51145 0.0
H387 H 0.45032 0.91984 0.49909 0.0
H388 H 0.41425 0.99822 0.55168 0.0
H389 H 0.42329 0.00165 0.50841 0.0
C390 C 0.21042 0.25972 0.67107 0.0
C391 C 0.22378 0.25556 0.6677 0.0
C392 C 0.20808 0.26788 0.68263 0.0
C393 C 0.21904 0.27208 0.69111 0.0
C394 C 0.23241 0.26794 0.68773 0.0
C395 C 0.23475 0.25977 0.67617 0.0
C396 C 0.21654 0.28076 0.7034 0.0
C397 C 0.20529 0.2781 0.71198 0.0
C398 C 0.20276 0.28633 0.72355 0.0
C399 C 0.21165 0.29733 0.72652 0.0
C400 C 0.22293 0.30019 0.71806 0.0
C401 C 0.22531 0.29182 0.70654 0.0
C402 C 0.23209 0.31204 0.7211 0.0
C403 C 0.22658 0.32475 0.72506 0.0
C404 C 0.2464 0.31077 0.71997 0.0
C405 C 0.255 0.32197 0.7227 0.0
C406 C 0.24948 0.3347 0.72659 0.0
C407 C 0.19076 0.2835 0.73248 0.0
C408 C 0.17789 0.28039 0.72666 0.0
C409 C 0.19206 0.28404 0.74686 0.0
C410 C 0.18071 0.28159 0.75524 0.0
C411 C 0.16781 0.2786 0.74942 0.0
C412 C 0.16654 0.278 0.73504 0.0
C413 C 0.23518 0.33596 0.72776 0.0
H414 H 0.20173 0.25654 0.66484 0.0
H415 H 0.19768 0.271 0.68487 0.0
H416 H 0.24106 0.27091 0.69412 0.0
H417 H 0.24518 0.25686 0.67379 0.0
H418 H 0.19865 0.2694 0.70982 0.0
H419 H 0.23378 0.29419 0.69976 0.0
H420 H 0.20973 0.30375 0.7354 0.0
H421 H 0.2156 0.32611 0.72589 0.0
H422 H 0.25096 0.30108 0.71706 0.0
H423 H 0.26597 0.3207 0.72158 0.0
H424 H 0.17654 0.28002 0.71561 0.0
H425 H 0.20187 0.28628 0.75165 0.0
H426 H 0.23061 0.34559 0.73086 0.0
H427 H 0.15677 0.27558 0.73025 0.0
H428 H 0.18201 0.28226 0.76628 0.0
C429 C 0.82587 0.23552 0.74566 0.0
C430 C 0.83311 0.22428 0.75107 0.0
C431 C 0.81436 0.23346 0.73728 0.0
C432 C 0.80984 0.2201 0.73405 0.0
C433 C 0.81707 0.20887 0.73947 0.0
C434 C 0.82854 0.21093 0.7479 0.0
C435 C 0.79768 0.21789 0.725 0.0
C436 C 0.79561 0.22615 0.71335 0.0
C437 C 0.78422 0.22408 0.70467 0.0
C438 C 0.77495 0.21341 0.70765 0.0
C439 C 0.77689 0.20494 0.71919 0.0
C440 C 0.7882 0.20739 0.72787 0.0
C441 C 0.76726 0.19338 0.72202 0.0
C442 C 0.7531 0.19473 0.71952 0.0
C443 C 0.77222 0.18078 0.72702 0.0
C444 C 0.76327 0.16981 0.7294 0.0
C445 C 0.74918 0.17113 0.72668 0.0
C446 C 0.78205 0.23304 0.69246 0.0
C447 C 0.78488 0.24719 0.69319 0.0
C448 C 0.77708 0.22756 0.68001 0.0
C449 C 0.77492 0.23602 0.66862 0.0
C450 C 0.7778 0.25017 0.66934 0.0
C451 C 0.78285 0.25563 0.68177 0.0
C452 C 0.74418 0.18369 0.72174 0.0
H453 H 0.82919 0.24594 0.74777 0.0
H454 H 0.80895 0.24234 0.7334 0.0
H455 H 0.81397 0.19844 0.73707 0.0
H456 H 0.83376 0.20203 0.75202 0.0
H457 H 0.8031 0.23398 0.71084 0.0
H458 H 0.78953 0.20124 0.73705 0.0
H459 H 0.76623 0.21165 0.70093 0.0
H460 H 0.74886 0.20434 0.71592 0.0
H461 H 0.78307 0.17925 0.72882 0.0
H462 H 0.76743 0.16018 0.73305 0.0
H463 H 0.78857 0.25182 0.70265 0.0
H464 H 0.77496 0.21669 0.67899 0.0
H465 H 0.73333 0.18502 0.71971 0.0
H466 H 0.78537 0.26643 0.68267 0.0
H467 H 0.77086 0.23146 0.65929 0.0
C468 C 0.53553 0.57174 0.49839 0.0
C469 C 0.53162 0.58449 0.5039 0.0
C470 C 0.5373 0.56036 0.50692 0.0
C471 C 0.53523 0.56144 0.52117 0.0
C472 C 0.53138 0.5742 0.52668 0.0
C473 C 0.52959 0.58558 0.51815 0.0
C474 C 0.537 0.54928 0.53021 0.0
C475 C 0.54797 0.5402 0.52818 0.0
C476 C 0.54962 0.52853 0.53652 0.0
C477 C 0.54014 0.52611 0.5471 0.0
C478 C 0.52925 0.53522 0.54946 0.0
C479 C 0.52772 0.54671 0.5409 0.0
C480 C 0.51958 0.53286 0.56097 0.0
C481 C 0.51451 0.51963 0.56379 0.0
C482 C 0.51547 0.54385 0.56934 0.0
C483 C 0.50653 0.54168 0.5803 0.0
C484 C 0.50147 0.52846 0.58314 0.0
C485 C 0.56133 0.51901 0.53427 0.0
C486 C 0.56591 0.51608 0.52089 0.0
C487 C 0.56813 0.51287 0.54547 0.0
C488 C 0.57917 0.50403 0.54334 0.0
C489 C 0.5838 0.50129 0.52998 0.0
C490 C 0.57708 0.5074 0.51878 0.0
C491 C 0.50555 0.51746 0.57475 0.0
H492 H 0.53733 0.57058 0.48748 0.0
H493 H 0.54014 0.55065 0.50232 0.0
H494 H 0.52984 0.57542 0.53763 0.0
H495 H 0.52645 0.59521 0.52271 0.0
H496 H 0.55544 0.54244 0.52029 0.0
H497 H 0.51908 0.55352 0.54238 0.0
H498 H 0.54127 0.51717 0.55361 0.0
H499 H 0.51734 0.51098 0.55741 0.0
H500 H 0.51937 0.55413 0.56758 0.0
H501 H 0.50378 0.55034 0.5867 0.0
H502 H 0.56078 0.52038 0.512 0.0
H503 H 0.56509 0.51507 0.55593 0.0
H504 H 0.50169 0.50718 0.57655 0.0
H505 H 0.58035 0.50531 0.50837 0.0
H506 H 0.58429 0.49956 0.55216 0.0
C507 C 0.49451 0.47342 0.93468 0.0
C508 C 0.50017 0.47491 0.92148 0.0
C509 C 0.50297 0.47155 0.94616 0.0
C510 C 0.51729 0.47134 0.94474 0.0
C511 C 0.523 0.47289 0.93163 0.0
C512 C 0.51454 0.47455 0.92011 0.0
C513 C 0.52625 0.46957 0.95695 0.0
C514 C 0.52375 0.45888 0.96628 0.0
C515 C 0.53217 0.4571 0.97792 0.0
C516 C 0.54311 0.46632 0.98016 0.0
C517 C 0.54581 0.47701 0.97086 0.0
C518 C 0.53733 0.47853 0.95926 0.0
C519 C 0.55756 0.48654 0.97322 0.0
C520 C 0.56056 0.49151 0.98647 0.0
C521 C 0.56592 0.49063 0.96223 0.0
C522 C 0.57706 0.49945 0.96444 0.0
C523 C 0.58011 0.50436 0.9777 0.0
C524 C 0.52973 0.44545 0.98754 0.0
C525 C 0.5163 0.44107 0.99057 0.0
C526 C 0.54082 0.43845 0.99361 0.0
C527 C 0.53855 0.42741 0.00246 0.0
C528 C 0.52515 0.42296 0.00529 0.0
C529 C 0.51405 0.42988 0.99926 0.0
C530 C 0.57172 0.5003 0.98869 0.0
H531 H 0.48354 0.4739 0.93621 0.0
H532 H 0.49833 0.47053 0.95619 0.0
H533 H 0.53401 0.47261 0.93025 0.0
H534 H 0.5193 0.47538 0.91012 0.0
H535 H 0.51547 0.45172 0.9642 0.0
H536 H 0.53912 0.4869 0.95216 0.0
H537 H 0.54963 0.46512 0.98912 0.0
H538 H 0.5542 0.48874 0.99512 0.0
H539 H 0.56402 0.48682 0.95193 0.0
H540 H 0.58344 0.50222 0.95579 0.0
H541 H 0.5075 0.44633 0.98631 0.0
H542 H 0.5513 0.44131 0.99132 0.0
H543 H 0.57369 0.50406 0.999 0.0
H544 H 0.50361 0.42673 0.0014 0.0
H545 H 0.54729 0.42213 0.00685 0.0
C546 C 0.67285 0.21128 0.25451 0.0
C547 C 0.66941 0.2246 0.25019 0.0
C548 C 0.68432 0.20908 0.26289 0.0
C549 C 0.69257 0.22016 0.26718 0.0
C550 C 0.68914 0.23348 0.26284 0.0
C551 C 0.67771 0.23567 0.25442 0.0
C552 C 0.70465 0.21786 0.27624 0.0
C553 C 0.71358 0.20685 0.27379 0.0
C554 C 0.72498 0.20455 0.28237 0.0
C555 C 0.72746 0.21354 0.29343 0.0
C556 C 0.71862 0.2246 0.2961 0.0
C557 C 0.70721 0.22661 0.28745 0.0
C558 C 0.72116 0.23393 0.30801 0.0
C559 C 0.72631 0.22878 0.32053 0.0
C560 C 0.71834 0.24806 0.30702 0.0
C561 C 0.72042 0.25676 0.31828 0.0
C562 C 0.72558 0.25157 0.33071 0.0
C563 C 0.73416 0.19263 0.27992 0.0
C564 C 0.72867 0.1798 0.27611 0.0
C565 C 0.74845 0.1939 0.28161 0.0
C566 C 0.757 0.18258 0.27971 0.0
C567 C 0.7515 0.16972 0.27601 0.0
C568 C 0.73723 0.1685 0.27415 0.0
C569 C 0.72859 0.23753 0.33171 0.0
H570 H 0.66673 0.20252 0.25131 0.0
H571 H 0.68662 0.19871 0.26615 0.0
H572 H 0.69537 0.24221 0.26588 0.0
H573 H 0.67527 0.24607 0.25137 0.0
H574 H 0.71179 0.20022 0.265 0.0
H575 H 0.70005 0.2348 0.28964 0.0
H576 H 0.73626 0.21186 0.30004 0.0
H577 H 0.72835 0.21794 0.3218 0.0
H578 H 0.71463 0.25246 0.2975 0.0
H579 H 0.71816 0.26759 0.31721 0.0
H580 H 0.71771 0.17841 0.27486 0.0
H581 H 0.75305 0.20366 0.28437 0.0
H582 H 0.73243 0.23326 0.34125 0.0
H583 H 0.73264 0.15881 0.27111 0.0
H584 H 0.76792 0.18387 0.28137 0.0
C585 C 0.47647 0.08484 0.98569 0.0
C586 C 0.47379 0.08388 0.99983 0.0
C587 C 0.47467 0.07344 0.97711 0.0
C588 C 0.47018 0.06083 0.98249 0.0
C589 C 0.46757 0.05986 0.99665 0.0
C590 C 0.46934 0.07126 0.00522 0.0
C591 C 0.4681 0.04875 0.97334 0.0
C592 C 0.47755 0.04582 0.9629 0.0
C593 C 0.47554 0.03461 0.95399 0.0
C594 C 0.46403 0.02607 0.9559 0.0
C595 C 0.45452 0.02873 0.96639 0.0
C596 C 0.4566 0.0402 0.97495 0.0
C597 C 0.44239 0.01958 0.9684 0.0
C598 C 0.43557 0.0136 0.95709 0.0
C599 C 0.43756 0.0167 0.98168 0.0
C600 C 0.42617 0.00819 0.98361 0.0
C601 C 0.41942 0.0021 0.97232 0.0
C602 C 0.48533 0.03195 0.94258 0.0
C603 C 0.49133 0.04295 0.93538 0.0
C604 C 0.4886 0.01845 0.93861 0.0
C605 C 0.49743 0.01603 0.9276 0.0
C606 C 0.50337 0.02705 0.92048 0.0
C607 C 0.50033 0.04052 0.92453 0.0
C608 C 0.42431 0.0049 0.95903 0.0
H609 H 0.47972 0.09447 0.98118 0.0
H610 H 0.47658 0.07459 0.96622 0.0
H611 H 0.46429 0.05023 0.00115 0.0
H612 H 0.46739 0.07013 0.01611 0.0
H613 H 0.48662 0.05219 0.96187 0.0
H614 H 0.44907 0.0427 0.98269 0.0
H615 H 0.46245 0.01735 0.94917 0.0
H616 H 0.43882 0.01571 0.94669 0.0
H617 H 0.44263 0.02094 0.99067 0.0
H618 H 0.42262 0.00649 0.99399 0.0
H619 H 0.48888 0.05348 0.93792 0.0
H620 H 0.48443 0.00971 0.94406 0.0
H621 H 0.41955 0.00028 0.95007 0.0
H622 H 0.50467 0.04919 0.91909 0.0
H623 H 0.49973 0.00554 0.92475 0.0
Li624 Li 0.26371 0.88517 0.99897 0.0
Li625 Li 0.25281 0.86793 0.01391 0.0
Li626 Li 0.24934 0.86772 0.98814 0.0
Li627 Li 0.23803 0.88513 0.0025 0.0
C628 C 0.28008 0.86253 0.9976 0.0
N629 N 0.30788 0.85807 0.99475 0.0
C630 C 0.2879 0.85817 0.00885 0.0
C631 C 0.28635 0.86445 0.98487 0.0
C632 C 0.30195 0.85601 0.0072 0.0
C633 C 0.30044 0.8622 0.98365 0.0
C634 C 0.25299 0.89291 0.02924 0.0
C635 C 0.24106 0.89709 0.05048 0.0
N636 N 0.25277 0.90242 0.056 0.0
C637 C 0.26486 0.89857 0.03507 0.0
C638 C 0.24095 0.89227 0.03695 0.0
C639 C 0.26456 0.90326 0.04864 0.0
C640 C 0.27851 0.90724 0.98769 0.0
N641 N 0.27936 0.89671 0.99679 0.0
C642 C 0.30246 0.90286 0.00244 0.0
C643 C 0.29093 0.89454 0.0043 0.0
C644 C 0.30199 0.91378 0.99301 0.0
C645 C 0.28971 0.91597 0.98567 0.0
H646 H 0.26908 0.90894 0.98206 0.0
H647 H 0.29123 0.88634 0.01175 0.0
C648 C 0.24882 0.84416 0.02977 0.0
N649 N 0.25499 0.85669 0.02977 0.0
C650 C 0.25013 0.83548 0.0411 0.0
C651 C 0.26425 0.8527 0.0522 0.0
C652 C 0.26275 0.861 0.04061 0.0
C653 C 0.25789 0.83973 0.05257 0.0
H654 H 0.24293 0.84087 0.0209 0.0
H655 H 0.26789 0.87081 0.04023 0.0
C656 C 0.24644 0.89021 0.97174 0.0
N657 N 0.24177 0.8944 0.94405 0.0
C658 C 0.23355 0.89448 0.96713 0.0
C659 C 0.25701 0.88826 0.96231 0.0
C660 C 0.23138 0.8965 0.95307 0.0
C661 C 0.25443 0.89037 0.94834 0.0
C662 C 0.22308 0.86034 0.00682 0.0
C663 C 0.21418 0.85455 0.99709 0.0
C664 C 0.219 0.86131 0.02053 0.0
C665 C 0.20122 0.85005 0.0012 0.0
C666 C 0.20596 0.85669 0.02424 0.0
N667 N 0.1974 0.85122 0.01458 0.0
C668 C 0.25617 0.8457 0.9707 0.0
C669 C 0.23664 0.85826 0.9635 0.0
C670 C 0.25497 0.837 0.95933 0.0
N671 N 0.24714 0.85614 0.9725 0.0
C672 C 0.23521 0.84997 0.95186 0.0
C673 C 0.24445 0.83919 0.9497 0.0
H674 H 0.26429 0.84409 0.97812 0.0
H675 H 0.22934 0.86633 0.96539 0.0
C676 C 0.22422 0.90913 0.01025 0.0
N677 N 0.22234 0.89652 0.00455 0.0
C678 C 0.2131 0.91793 0.01206 0.0
C679 C 0.19832 0.90068 0.00191 0.0
C680 C 0.20975 0.89226 0.00021 0.0
C681 C 0.19989 0.91372 0.00794 0.0
H682 H 0.2344 0.91237 0.01336 0.0
H683 H 0.20855 0.88237 0.99534 0.0
O684 O 0.26633 0.86476 0.99904 0.0
O685 O 0.25313 0.88827 0.01598 0.0
O686 O 0.24872 0.88811 0.98545 0.0
O687 O 0.2358 0.8648 0.00294 0.0
H688 H 0.28318 0.85655 0.01875 0.0
H689 H 0.28042 0.86765 0.97604 0.0
H690 H 0.30815 0.8527 0.01583 0.0
H691 H 0.30545 0.86371 0.97388 0.0
H692 H 0.23182 0.89663 0.05657 0.0
H693 H 0.27424 0.89924 0.02921 0.0
H694 H 0.23159 0.88823 0.0325 0.0
H695 H 0.2737 0.90758 0.05331 0.0
H696 H 0.31168 0.90062 0.00826 0.0
H697 H 0.28866 0.92443 0.97856 0.0
H698 H 0.24527 0.82547 0.04077 0.0
H699 H 0.27026 0.85648 0.0608 0.0
H700 H 0.22528 0.89612 0.97431 0.0
H701 H 0.26709 0.88513 0.96573 0.0
H702 H 0.22143 0.89972 0.94934 0.0
H703 H 0.26249 0.88882 0.94091 0.0
H704 H 0.21722 0.85362 0.98645 0.0
H705 H 0.22587 0.86546 0.02824 0.0
H706 H 0.19419 0.84563 0.99377 0.0
H707 H 0.20266 0.8574 0.03481 0.0
H708 H 0.26229 0.82877 0.95799 0.0
H709 H 0.22683 0.85182 0.94475 0.0
H710 H 0.21489 0.92799 0.01648 0.0
H711 H 0.18836 0.89692 0.99866 0.0
Li712 Li 0.11794 0.50389 0.26432 0.0
Li713 Li 0.1349 0.48836 0.25419 0.0
Li714 Li 0.13559 0.51303 0.25061 0.0
Li715 Li 0.11724 0.49916 0.23987 0.0
C716 C 0.14804 0.50999 0.27479 0.0
N717 N 0.1689 0.52465 0.28748 0.0
C718 C 0.16059 0.5037 0.27766 0.0
C719 C 0.14602 0.52366 0.27867 0.0
C720 C 0.17103 0.5113 0.28402 0.0
C721 C 0.15671 0.53092 0.28497 0.0
C722 C 0.1105 0.47622 0.26424 0.0
C723 C 0.09594 0.45728 0.27076 0.0
N724 N 0.10234 0.45678 0.2832 0.0
C725 C 0.11694 0.47553 0.2771 0.0
C726 C 0.0999 0.46704 0.26105 0.0
C727 C 0.11266 0.46563 0.28654 0.0
C728 C 0.09293 0.50339 0.27875 0.0
N729 N 0.10646 0.50664 0.27989 0.0
C730 C 0.10351 0.5133 0.30332 0.0
C731 C 0.11187 0.51143 0.29188 0.0
C732 C 0.08946 0.51013 0.30244 0.0
C733 C 0.08419 0.5051 0.28993 0.0
H734 H 0.08894 0.49945 0.26913 0.0
H735 H 0.1227 0.51367 0.29261 0.0
C736 C 0.15987 0.47437 0.25383 0.0
N737 N 0.14619 0.47235 0.25557 0.0
C738 C 0.16896 0.46336 0.25469 0.0
C739 C 0.14966 0.44823 0.25843 0.0
C740 C 0.14095 0.45954 0.2575 0.0
C741 C 0.16389 0.45008 0.25716 0.0
H742 H 0.16372 0.48459 0.25175 0.0
H743 H 0.13003 0.45798 0.25824 0.0
C744 C 0.10485 0.52468 0.25358 0.0
N745 N 0.08248 0.53893 0.26342 0.0
C746 C 0.09168 0.52169 0.24867 0.0
C747 C 0.10665 0.53507 0.26336 0.0
C748 C 0.0805 0.52897 0.2538 0.0
C749 C 0.09521 0.5421 0.26826 0.0
C750 C 0.14031 0.48903 0.22647 0.0
C751 C 0.15085 0.49171 0.21718 0.0
C752 C 0.13275 0.47685 0.22534 0.0
C753 C 0.15365 0.48215 0.20686 0.0
C754 C 0.13586 0.46755 0.21488 0.0
N755 N 0.14616 0.47038 0.20593 0.0
C756 C 0.1614 0.52588 0.24705 0.0
C757 C 0.14232 0.54088 0.24625 0.0
C758 C 0.17044 0.5369 0.24534 0.0
N759 N 0.14766 0.52809 0.24761 0.0
C760 C 0.15097 0.55218 0.24449 0.0
C761 C 0.16525 0.5503 0.24409 0.0
H762 H 0.16533 0.51556 0.24812 0.0
H763 H 0.13135 0.54232 0.24656 0.0
C764 C 0.0937 0.49035 0.22531 0.0
N765 N 0.10607 0.49668 0.22402 0.0
C766 C 0.08522 0.48853 0.21384 0.0
C767 C 0.10257 0.49941 0.19986 0.0
C768 C 0.11061 0.50123 0.21165 0.0
C769 C 0.08966 0.49307 0.20092 0.0
H770 H 0.09035 0.48689 0.2353 0.0
H771 H 0.12048 0.50628 0.21094 0.0
O772 O 0.13774 0.50275 0.2684 0.0
O773 O 0.11431 0.48598 0.25489 0.0
O774 O 0.1159 0.51743 0.24889 0.0
O775 O 0.13755 0.49827 0.23668 0.0
H776 H 0.16224 0.49304 0.27515 0.0
H777 H 0.13636 0.52865 0.27666 0.0
H778 H 0.18081 0.50656 0.28623 0.0
H779 H 0.15532 0.54155 0.28786 0.0
H780 H 0.08776 0.4501 0.26842 0.0
H781 H 0.12514 0.48253 0.2798 0.0
H782 H 0.0948 0.46744 0.25115 0.0
H783 H 0.11755 0.46498 0.29652 0.0
H784 H 0.10806 0.51696 0.31282 0.0
H785 H 0.07341 0.50264 0.28874 0.0
H786 H 0.17982 0.46522 0.2533 0.0
H787 H 0.14529 0.43818 0.26032 0.0
H788 H 0.09006 0.51376 0.24107 0.0
H789 H 0.11674 0.53764 0.26721 0.0
H790 H 0.07024 0.52669 0.25015 0.0
H791 H 0.09646 0.55009 0.2759 0.0
H792 H 0.15682 0.50107 0.21796 0.0
H793 H 0.12458 0.47456 0.23247 0.0
H794 H 0.16178 0.48409 0.19959 0.0
H795 H 0.1301 0.45809 0.21389 0.0
H796 H 0.18136 0.53497 0.24523 0.0
H797 H 0.1465 0.56228 0.24331 0.0
H798 H 0.07537 0.48352 0.21503 0.0
H799 H 0.10628 0.50314 0.19008 0.0
Li800 Li 0.73892 0.61799 0.99875 0.0
Li801 Li 0.74942 0.63568 0.0133 0.0
Li802 Li 0.75341 0.63457 0.98839 0.0
Li803 Li 0.76407 0.61741 0.00264 0.0
C804 C 0.72226 0.63884 0.9973 0.0
N805 N 0.69398 0.63916 0.99561 0.0
C806 C 0.71443 0.64032 0.00919 0.0
C807 C 0.71573 0.63769 0.98453 0.0
C808 C 0.70013 0.64042 0.00812 0.0
C809 C 0.70141 0.63782 0.9839 0.0
C810 C 0.75433 0.61114 0.02859 0.0
C811 C 0.77084 0.61363 0.04696 0.0
N812 N 0.76566 0.60218 0.05303 0.0
C813 C 0.74919 0.59938 0.03498 0.0
C814 C 0.76526 0.61832 0.0346 0.0
C815 C 0.75505 0.59502 0.04735 0.0
C816 C 0.72031 0.6 0.98516 0.0
N817 N 0.72295 0.60677 0.99711 0.0
C818 C 0.70261 0.59755 0.00721 0.0
C819 C 0.71447 0.60562 0.00809 0.0
C820 C 0.69958 0.59048 0.99497 0.0
C821 C 0.70862 0.59178 0.98385 0.0
H822 H 0.72729 0.60092 0.97665 0.0
H823 H 0.71693 0.61097 0.01753 0.0
C824 C 0.74901 0.66094 0.02738 0.0
N825 N 0.74651 0.64729 0.02882 0.0
C826 C 0.74702 0.6699 0.0384 0.0
C827 C 0.7396 0.65061 0.05212 0.0
C828 C 0.74163 0.64206 0.04079 0.0
C829 C 0.74236 0.66473 0.05102 0.0
H830 H 0.75245 0.66489 0.01762 0.0
H831 H 0.7392 0.63126 0.04156 0.0
C832 C 0.75644 0.61244 0.97183 0.0
N833 N 0.7621 0.60879 0.94428 0.0
C834 C 0.76898 0.60686 0.96779 0.0
C835 C 0.74675 0.61607 0.96186 0.0
C836 C 0.77165 0.60511 0.95381 0.0
C837 C 0.74982 0.61418 0.94798 0.0
C838 C 0.77783 0.64416 0.99701 0.0
C839 C 0.78709 0.63686 0.98889 0.0
C840 C 0.77923 0.65839 0.99828 0.0
C841 C 0.79761 0.64392 0.9822 0.0
C842 C 0.78988 0.66508 0.99142 0.0
N843 N 0.79877 0.65777 0.98359 0.0
C844 C 0.74782 0.6576 0.97189 0.0
C845 C 0.7657 0.64377 0.96311 0.0
C846 C 0.74913 0.66671 0.96089 0.0
N847 N 0.75597 0.64633 0.97275 0.0
C848 C 0.76719 0.65245 0.95183 0.0
C849 C 0.75883 0.66407 0.95063 0.0
H850 H 0.7403 0.65954 0.97978 0.0
H851 H 0.77233 0.635 0.96412 0.0
C852 C 0.77799 0.59219 0.00242 0.0
N853 N 0.7792 0.60563 0.006 0.0
C854 C 0.78888 0.58318 0.00461 0.0
C855 C 0.80196 0.60197 0.01441 0.0
C856 C 0.7908 0.6106 0.01204 0.0
C857 C 0.80112 0.58806 0.01061 0.0
H858 H 0.76855 0.58851 0.9978 0.0
H859 H 0.79142 0.62131 0.01494 0.0
O860 O 0.73625 0.63837 0.99816 0.0
O861 O 0.74882 0.61541 0.01638 0.0
O862 O 0.75363 0.61416 0.98549 0.0
O863 O 0.76739 0.63742 0.00354 0.0
H864 H 0.71933 0.6412 0.01915 0.0
H865 H 0.72165 0.63664 0.97523 0.0
H866 H 0.69394 0.64145 0.01725 0.0
H867 H 0.69621 0.63685 0.9741 0.0
H868 H 0.7793 0.61909 0.05173 0.0
H869 H 0.74076 0.59368 0.03041 0.0
H870 H 0.76939 0.62743 0.02977 0.0
H871 H 0.75117 0.58594 0.05242 0.0
H872 H 0.69602 0.59669 0.01609 0.0
H873 H 0.70662 0.5866 0.97419 0.0
H874 H 0.74925 0.68072 0.03712 0.0
H875 H 0.73571 0.64627 0.06157 0.0
H876 H 0.77661 0.60398 0.97535 0.0
H877 H 0.73703 0.62047 0.96479 0.0
H878 H 0.78134 0.60086 0.95053 0.0
H879 H 0.74245 0.61704 0.94016 0.0
H880 H 0.78602 0.6259 0.98753 0.0
H881 H 0.77218 0.66424 0.00447 0.0
H882 H 0.80478 0.6384 0.97583 0.0
H883 H 0.79107 0.67609 0.99231 0.0
H884 H 0.74251 0.67559 0.96029 0.0
H885 H 0.77494 0.65021 0.94422 0.0
H886 H 0.78768 0.5725 0.00175 0.0
H887 H 0.81121 0.60621 0.01894 0.0
Li888 Li 0.86723 0.01356 0.25317 0.0
Li889 Li 0.88458 0.99855 0.26291 0.0
Li890 Li 0.8845 0.00281 0.23793 0.0
Li891 Li 0.86731 0.98844 0.24863 0.0
C892 C 0.89111 0.02873 0.24779 0.0
N893 N 0.89862 0.05368 0.23661 0.0
C894 C 0.90257 0.03576 0.25288 0.0
C895 C 0.88346 0.03437 0.23701 0.0
C896 C 0.9062 0.04838 0.24709 0.0
C897 C 0.88743 0.047 0.2315 0.0
C898 C 0.86413 0.99724 0.28013 0.0
C899 C 0.86494 0.98357 0.30075 0.0
N900 N 0.86438 0.99523 0.30844 0.0
C901 C 0.86343 0.00908 0.28822 0.0
C902 C 0.86477 0.98437 0.28642 0.0
C903 C 0.86361 0.00785 0.30252 0.0
C904 C 0.84262 0.0284 0.25242 0.0
N905 N 0.85601 0.02918 0.25629 0.0
C906 C 0.85302 0.0522 0.26421 0.0
C907 C 0.86127 0.04068 0.26227 0.0
C908 C 0.83918 0.05178 0.26012 0.0
C909 C 0.83397 0.03964 0.25426 0.0
H910 H 0.83868 0.01903 0.2479 0.0
H911 H 0.87187 0.04093 0.26556 0.0
C912 C 0.90247 0.98438 0.28121 0.0
N913 N 0.89608 0.9965 0.27866 0.0
C914 C 0.91073 0.98288 0.29287 0.0
C915 C 0.90583 0.0064 0.29899 0.0
C916 C 0.89772 0.00747 0.28717 0.0
C917 C 0.91246 0.99397 0.30196 0.0
H918 H 0.90119 0.97588 0.27422 0.0
H919 H 0.89267 0.01705 0.28477 0.0
C920 C 0.85899 0.9993 0.22311 0.0
N921 N 0.84831 0.99032 0.1983 0.0
C922 C 0.86592 0.98942 0.21542 0.0
C923 C 0.84666 0.00467 0.21815 0.0
C924 C 0.86035 0.98499 0.20292 0.0
C925 C 0.84142 0.99999 0.20559 0.0
C926 C 0.8892 0.97165 0.24528 0.0
C927 C 0.89491 0.96725 0.23289 0.0
C928 C 0.88523 0.96194 0.25506 0.0
C929 C 0.8964 0.9532 0.23043 0.0
C930 C 0.88688 0.94798 0.25222 0.0
N931 N 0.89238 0.94394 0.24007 0.0
C932 C 0.90914 0.00181 0.22328 0.0
C933 C 0.89091 0.01219 0.21095 0.0
C934 C 0.91798 0.0037 0.21219 0.0
N935 N 0.89586 0.00591 0.2224 0.0
C936 C 0.89937 0.01426 0.19961 0.0
C937 C 0.9131 0.00994 0.20011 0.0
H938 H 0.91283 0.99702 0.2326 0.0
H939 H 0.88036 0.01556 0.21059 0.0
C940 C 0.84428 0.97218 0.25472 0.0
N941 N 0.85524 0.97301 0.24617 0.0
C942 C 0.83515 0.96113 0.25376 0.0
C943 C 0.8487 0.95197 0.2352 0.0
C944 C 0.85744 0.96329 0.23637 0.0
C945 C 0.83741 0.95078 0.24399 0.0
H946 H 0.84266 0.98009 0.26234 0.0
H947 H 0.86605 0.96419 0.22952 0.0
O948 O 0.88751 0.01633 0.25332 0.0
O949 O 0.86432 0.99826 0.26612 0.0
O950 O 0.86433 0.0039 0.23531 0.0
O951 O 0.88763 0.98538 0.24784 0.0
H952 H 0.9086 0.03151 0.26121 0.0
H953 H 0.87454 0.02909 0.23295 0.0
H954 H 0.91505 0.05394 0.25093 0.0
H955 H 0.8816 0.05148 0.22316 0.0
H956 H 0.86552 0.97368 0.30576 0.0
H957 H 0.86294 0.01912 0.28352 0.0
H958 H 0.86516 0.97511 0.2803 0.0
H959 H 0.8632 0.01692 0.30892 0.0
H960 H 0.85737 0.06128 0.26899 0.0
H961 H 0.82338 0.0389 0.25092 0.0
H962 H 0.91557 0.97308 0.29481 0.0
H963 H 0.90705 0.01527 0.30561 0.0
H964 H 0.87554 0.98527 0.21903 0.0
H965 H 0.84122 0.01243 0.22389 0.0
H966 H 0.86562 0.97733 0.19688 0.0
H967 H 0.83188 0.00407 0.20163 0.0
H968 H 0.89808 0.97458 0.2252 0.0
H969 H 0.88075 0.96514 0.26467 0.0
H970 H 0.90074 0.94966 0.22086 0.0
H971 H 0.88375 0.94037 0.25967 0.0
H972 H 0.92854 0.00043 0.21314 0.0
H973 H 0.89513 0.01902 0.19049 0.0
H974 H 0.82655 0.96054 0.26075 0.0
H975 H 0.85068 0.94429 0.2274 0.0
Li976 Li 0.24907 0.13659 0.51384 0.0
Li977 Li 0.23794 0.11819 0.50039 0.0
Li978 Li 0.26238 0.11849 0.50516 0.0
Li979 Li 0.25257 0.13535 0.48919 0.0
C980 C 0.25142 0.10597 0.52617 0.0
N981 N 0.26078 0.08355 0.54084 0.0
C982 C 0.24599 0.09291 0.52363 0.0
C983 C 0.26149 0.10764 0.53633 0.0
C984 C 0.25087 0.08171 0.53112 0.0
C985 C 0.26613 0.09618 0.54358 0.0
C986 C 0.22501 0.14134 0.48966 0.0
C987 C 0.21335 0.13669 0.46823 0.0
N988 N 0.20463 0.14724 0.47078 0.0
C989 C 0.21597 0.15215 0.49206 0.0
C990 C 0.22373 0.13354 0.47764 0.0
C991 C 0.20572 0.15497 0.48239 0.0
C992 C 0.24546 0.1627 0.5261 0.0
N993 N 0.24635 0.14901 0.52865 0.0
C994 C 0.24408 0.15286 0.55276 0.0
C995 C 0.24556 0.14397 0.54163 0.0
C996 C 0.24335 0.16708 0.55051 0.0
C997 C 0.24397 0.17198 0.53695 0.0
H998 H 0.2461 0.1664 0.51564 0.0
H999 H 0.24612 0.13303 0.54333 0.0
C1000 C 0.22288 0.09474 0.49213 0.0
N1001 N 0.22188 0.1073 0.49812 0.0
C1002 C 0.21124 0.08649 0.49051 0.0
C1003 C 0.1977 0.10444 0.5009 0.0
C1004 C 0.20964 0.11225 0.50253 0.0
C1005 C 0.19846 0.09135 0.4949 0.0
H1006 H 0.23277 0.09107 0.48878 0.0
H1007 H 0.20917 0.12227 0.50732 0.0
C1008 C 0.27322 0.14863 0.51062 0.0
N1009 N 0.28583 0.16977 0.52494 0.0
C1010 C 0.2759 0.16114 0.50415 0.0
C1011 C 0.27726 0.14678 0.5243 0.0
C1012 C 0.28222 0.17172 0.51157 0.0
C1013 C 0.28352 0.15761 0.53139 0.0
C1014 C 0.26207 0.11036 0.47769 0.0
C1015 C 0.27508 0.11641 0.47687 0.0
C1016 C 0.25861 0.09959 0.46881 0.0
C1017 C 0.28438 0.1116 0.46714 0.0
C1018 C 0.26819 0.09509 0.4592 0.0
N1019 N 0.28077 0.10113 0.45857 0.0
C1020 C 0.27627 0.09314 0.50531 0.0
C1021 C 0.28981 0.112 0.51281 0.0
C1022 C 0.28727 0.0842 0.50721 0.0
N1023 N 0.27771 0.10673 0.5082 0.0
C1024 C 0.30108 0.10343 0.51486 0.0
C1025 C 0.29989 0.08932 0.51205 0.0
H1026 H 0.26655 0.08926 0.50151 0.0
H1027 H 0.29077 0.12287 0.51476 0.0
C1028 C 0.2523 0.16 0.47443 0.0
N1029 N 0.25411 0.14625 0.47286 0.0
C1030 C 0.25327 0.16878 0.46314 0.0
C1031 C 0.25732 0.14905 0.44868 0.0
C1032 C 0.25623 0.14066 0.46023 0.0
C1033 C 0.25599 0.16334 0.45007 0.0
H1034 H 0.25012 0.16414 0.4845 0.0
H1035 H 0.25693 0.12969 0.45899 0.0
O1036 O 0.24697 0.11702 0.51871 0.0
O1037 O 0.23516 0.13856 0.499 0.0
O1038 O 0.26686 0.1382 0.50356 0.0
O1039 O 0.25286 0.11468 0.48732 0.0
H1040 H 0.23814 0.0914 0.5159 0.0
H1041 H 0.26578 0.11764 0.53854 0.0
H1042 H 0.2468 0.07154 0.52918 0.0
H1043 H 0.274 0.09732 0.55138 0.0
H1044 H 0.21223 0.13074 0.45889 0.0
H1045 H 0.21687 0.15831 0.50129 0.0
H1046 H 0.23068 0.12517 0.47557 0.0
H1047 H 0.19863 0.16331 0.48411 0.0
H1048 H 0.24339 0.14862 0.56302 0.0
H1049 H 0.24356 0.18287 0.53476 0.0
H1050 H 0.2122 0.07648 0.48576 0.0
H1051 H 0.18803 0.10849 0.5045 0.0
H1052 H 0.27327 0.16266 0.49347 0.0
H1053 H 0.2754 0.13715 0.52944 0.0
H1054 H 0.28428 0.18148 0.50669 0.0
H1055 H 0.28652 0.15635 0.54203 0.0
H1056 H 0.27799 0.12474 0.48365 0.0
H1057 H 0.2486 0.09478 0.46931 0.0
H1058 H 0.29447 0.11619 0.46639 0.0
H1059 H 0.26564 0.08678 0.45224 0.0
H1060 H 0.28586 0.07338 0.50501 0.0
H1061 H 0.31068 0.10786 0.51837 0.0
H1062 H 0.25214 0.17973 0.46469 0.0
H1063 H 0.25902 0.14438 0.43873 0.0
Li1064 Li 0.38607 0.50048 0.76347 0.0
Li1065 Li 0.36773 0.51425 0.75275 0.0
Li1066 Li 0.36833 0.48958 0.74915 0.0
Li1067 Li 0.38533 0.50517 0.73902 0.0
C1068 C 0.36295 0.49029 0.77688 0.0
N1069 N 0.35698 0.47166 0.79739 0.0
C1070 C 0.35239 0.49295 0.78615 0.0
C1071 C 0.37045 0.47813 0.77801 0.0
C1072 C 0.34954 0.4834 0.79646 0.0
C1073 C 0.36728 0.46885 0.78845 0.0
C1074 C 0.3985 0.52603 0.74974 0.0
C1075 C 0.40817 0.5434 0.73498 0.0
N1076 N 0.4209 0.54034 0.73983 0.0
C1077 C 0.41167 0.52315 0.75467 0.0
C1078 C 0.39672 0.53633 0.73991 0.0
C1079 C 0.42286 0.53047 0.7495 0.0
C1080 C 0.40965 0.49177 0.77791 0.0
N1081 N 0.39727 0.49799 0.7793 0.0
C1082 C 0.40075 0.50039 0.80351 0.0
C1083 C 0.39273 0.50234 0.79174 0.0
C1084 C 0.41363 0.49412 0.80236 0.0
C1085 C 0.4181 0.48983 0.78936 0.0
H1086 H 0.41299 0.48846 0.76787 0.0
H1087 H 0.38286 0.5073 0.79252 0.0
C1088 C 0.34193 0.52686 0.7564 0.0
N1089 N 0.35566 0.52924 0.75574 0.0
C1090 C 0.33284 0.53779 0.75799 0.0
C1091 C 0.35223 0.55334 0.75855 0.0
C1092 C 0.36093 0.54212 0.75691 0.0
C1093 C 0.33796 0.55128 0.75901 0.0
H1094 H 0.33805 0.51648 0.75547 0.0
H1095 H 0.3719 0.54369 0.75652 0.0
C1096 C 0.3927 0.47754 0.73905 0.0
N1097 N 0.40086 0.45815 0.72005 0.0
C1098 C 0.38625 0.47678 0.7262 0.0
C1099 C 0.40332 0.46847 0.74221 0.0
C1100 C 0.39052 0.4669 0.71674 0.0
C1101 C 0.40728 0.45872 0.73248 0.0
C1102 C 0.35521 0.51109 0.72862 0.0
C1103 C 0.3426 0.50475 0.72589 0.0
C1104 C 0.35727 0.52473 0.72467 0.0
C1105 C 0.33214 0.51228 0.71959 0.0
C1106 C 0.34656 0.53193 0.71842 0.0
N1107 N 0.33431 0.52561 0.71605 0.0
C1108 C 0.34334 0.47545 0.74973 0.0
C1109 C 0.36219 0.46072 0.74582 0.0
C1110 C 0.33423 0.46438 0.74902 0.0
N1111 N 0.357 0.47351 0.74782 0.0
C1112 C 0.35346 0.44936 0.74503 0.0
C1113 C 0.33925 0.45112 0.74652 0.0
H1114 H 0.33953 0.48565 0.75187 0.0
H1115 H 0.37309 0.45923 0.74494 0.0
C1116 C 0.4103 0.50471 0.72453 0.0
N1117 N 0.39678 0.50789 0.72341 0.0
C1118 C 0.41899 0.50628 0.7133 0.0
C1119 C 0.39965 0.51421 0.69989 0.0
C1120 C 0.39134 0.51249 0.7114 0.0
C1121 C 0.41369 0.51109 0.70075 0.0
H1122 H 0.41431 0.50091 0.73418 0.0
H1123 H 0.38051 0.51467 0.71068 0.0
O1124 O 0.36575 0.49951 0.76668 0.0
O1125 O 0.38744 0.51875 0.75447 0.0
O1126 O 0.3889 0.48729 0.74841 0.0
O1127 O 0.36551 0.50392 0.73496 0.0
H1128 H 0.34646 0.50229 0.78537 0.0
H1129 H 0.37862 0.47586 0.7709 0.0
H1130 H 0.34139 0.48533 0.80371 0.0
H1131 H 0.373 0.45941 0.78945 0.0
H1132 H 0.40694 0.55131 0.7273 0.0
H1133 H 0.41327 0.5153 0.76231 0.0
H1134 H 0.38663 0.53881 0.73605 0.0
H1135 H 0.43312 0.52827 0.75317 0.0
H1136 H 0.39701 0.50393 0.81335 0.0
H1137 H 0.42794 0.48488 0.7881 0.0
H1138 H 0.32193 0.53573 0.75815 0.0
H1139 H 0.35665 0.56351 0.75955 0.0
H1140 H 0.37802 0.4837 0.72352 0.0
H1141 H 0.40844 0.46893 0.7521 0.0
H1142 H 0.38561 0.46619 0.70677 0.0
H1143 H 0.41547 0.45162 0.7348 0.0
H1144 H 0.34091 0.49411 0.72846 0.0
H1145 H 0.36697 0.52976 0.72656 0.0
H1146 H 0.32232 0.50751 0.71748 0.0
H1147 H 0.34798 0.54254 0.71547 0.0
H1148 H 0.32339 0.46617 0.75058 0.0
H1149 H 0.35779 0.43933 0.7431 0.0
H1150 H 0.42977 0.50386 0.71446 0.0
H1151 H 0.39508 0.51771 0.69036 0.0
Li1152 Li 0.76377 0.38445 0.499 0.0
Li1153 Li 0.75291 0.36696 0.51369 0.0
Li1154 Li 0.74912 0.36724 0.48795 0.0
Li1155 Li 0.7381 0.38445 0.50282 0.0
C1156 C 0.77977 0.36133 0.49645 0.0
N1157 N 0.80719 0.35586 0.49216 0.0
C1158 C 0.78793 0.35641 0.50721 0.0
C1159 C 0.7855 0.36329 0.48347 0.0
C1160 C 0.80179 0.35375 0.50484 0.0
C1161 C 0.7994 0.36052 0.48152 0.0
C1162 C 0.75362 0.39151 0.52956 0.0
C1163 C 0.74228 0.39522 0.55119 0.0
N1164 N 0.7542 0.4002 0.55658 0.0
C1165 C 0.76572 0.39681 0.53525 0.0
C1166 C 0.74176 0.39082 0.53753 0.0
C1167 C 0.76582 0.40109 0.54896 0.0
C1168 C 0.77837 0.40711 0.48863 0.0
N1169 N 0.77947 0.39592 0.49689 0.0
C1170 C 0.80291 0.40132 0.50187 0.0
C1171 C 0.79134 0.39305 0.50368 0.0
C1172 C 0.80209 0.41287 0.49331 0.0
C1173 C 0.78961 0.41582 0.48674 0.0
H1174 H 0.76874 0.4093 0.48354 0.0
H1175 H 0.79182 0.38439 0.51057 0.0
C1176 C 0.74869 0.34311 0.52942 0.0
N1177 N 0.75527 0.35544 0.5293 0.0
C1178 C 0.75013 0.33429 0.54063 0.0
C1179 C 0.7652 0.35096 0.55134 0.0
C1180 C 0.76358 0.35938 0.53986 0.0
C1181 C 0.7584 0.33824 0.55182 0.0
H1182 H 0.74233 0.34011 0.52077 0.0
H1183 H 0.7691 0.36898 0.53932 0.0
C1184 C 0.74646 0.39053 0.47213 0.0
N1185 N 0.74205 0.39633 0.4447 0.0
C1186 C 0.7336 0.39505 0.46766 0.0
C1187 C 0.75712 0.38914 0.4627 0.0
C1188 C 0.73157 0.39789 0.45373 0.0
C1189 C 0.75467 0.39207 0.44886 0.0
C1190 C 0.723 0.35966 0.5066 0.0
C1191 C 0.71415 0.35403 0.49673 0.0
C1192 C 0.71881 0.36053 0.52028 0.0
C1193 C 0.70113 0.34957 0.50069 0.0
C1194 C 0.70571 0.35595 0.52383 0.0
N1195 N 0.6972 0.35062 0.51404 0.0
C1196 C 0.75516 0.34508 0.47042 0.0
C1197 C 0.73645 0.35865 0.46298 0.0
C1198 C 0.75372 0.33651 0.45898 0.0
N1199 N 0.74666 0.35596 0.47213 0.0
C1200 C 0.73476 0.35049 0.45128 0.0
C1201 C 0.74346 0.3392 0.44913 0.0
H1202 H 0.763 0.34296 0.47801 0.0
H1203 H 0.72955 0.3671 0.46477 0.0
C1204 C 0.72451 0.40842 0.51108 0.0
N1205 N 0.72249 0.39588 0.50526 0.0
C1206 C 0.71345 0.41725 0.51313 0.0
C1207 C 0.69845 0.40012 0.50308 0.0
C1208 C 0.70982 0.3917 0.50106 0.0
C1209 C 0.7002 0.41306 0.50919 0.0
H1210 H 0.73473 0.41156 0.51415 0.0
H1211 H 0.70852 0.38192 0.49601 0.0
O1212 O 0.76621 0.36405 0.49861 0.0
O1213 O 0.75336 0.38727 0.51616 0.0
O1214 O 0.74862 0.38767 0.48572 0.0
O1215 O 0.73576 0.36412 0.50287 0.0
H1216 H 0.78362 0.35475 0.5173 0.0
H1217 H 0.77928 0.3669 0.475 0.0
H1218 H 0.80825 0.35001 0.51309 0.0
H1219 H 0.80399 0.36205 0.47154 0.0
H1220 H 0.73319 0.39471 0.5575 0.0
H1221 H 0.77496 0.39751 0.52918 0.0
H1222 H 0.73224 0.38705 0.5332 0.0
H1223 H 0.77513 0.40513 0.55354 0.0
H1224 H 0.81232 0.39887 0.50728 0.0
H1225 H 0.78862 0.42466 0.48007 0.0
H1226 H 0.7447 0.32457 0.54063 0.0
H1227 H 0.77189 0.35425 0.55964 0.0
H1228 H 0.72527 0.39626 0.47485 0.0
H1229 H 0.76718 0.38586 0.46604 0.0
H1230 H 0.72165 0.40131 0.4501 0.0
H1231 H 0.76281 0.39098 0.44144 0.0
H1232 H 0.71728 0.35321 0.48611 0.0
H1233 H 0.72563 0.36459 0.52809 0.0
H1234 H 0.69414 0.34527 0.49315 0.0
H1235 H 0.70231 0.35659 0.53438 0.0
H1236 H 0.76046 0.32776 0.458 0.0
H1237 H 0.72679 0.3531 0.44398 0.0
H1238 H 0.7152 0.42716 0.5179 0.0
H1239 H 0.68842 0.39664 0.49968 0.0
Li1240 Li 0.63513 0.98721 0.75274 0.0
Li1241 Li 0.61788 0.00173 0.76413 0.0
Li1242 Li 0.61752 0.99805 0.73833 0.0
Li1243 Li 0.63495 0.01297 0.74924 0.0
C1244 C 0.61155 0.97108 0.75486 0.0
N1245 N 0.60493 0.94365 0.75781 0.0
C1246 C 0.60703 0.9661 0.76752 0.0
C1247 C 0.61251 0.96216 0.74365 0.0
C1248 C 0.60378 0.95218 0.76882 0.0
C1249 C 0.60917 0.94831 0.74537 0.0
C1250 C 0.64248 0.00557 0.77922 0.0
C1251 C 0.64557 0.02229 0.79728 0.0
N1252 N 0.65106 0.0124 0.80545 0.0
C1253 C 0.64828 0.9956 0.78774 0.0
C1254 C 0.64121 0.01905 0.78396 0.0
C1255 C 0.65251 0.99924 0.80099 0.0
C1256 C 0.65774 0.97024 0.7468 0.0
N1257 N 0.64656 0.97155 0.75496 0.0
C1258 C 0.65181 0.95049 0.76634 0.0
C1259 C 0.6436 0.96209 0.76475 0.0
C1260 C 0.66341 0.94874 0.75799 0.0
C1261 C 0.66636 0.9589 0.74816 0.0
H1262 H 0.66005 0.97809 0.7393 0.0
H1263 H 0.63491 0.96357 0.7714 0.0
C1264 C 0.59434 0.01001 0.77843 0.0
N1265 N 0.6067 0.00377 0.77997 0.0
C1266 C 0.58574 0.01177 0.78973 0.0
C1267 C 0.60273 0.0006 0.80398 0.0
C1268 C 0.61089 0.99887 0.79237 0.0
C1269 C 0.58998 0.00713 0.80272 0.0
H1270 H 0.59116 0.01362 0.76841 0.0
H1271 H 0.62051 0.9935 0.79326 0.0
C1272 C 0.64097 0.99547 0.72226 0.0
N1273 N 0.64728 0.99035 0.6951 0.0
C1274 C 0.6459 0.00605 0.71392 0.0
C1275 C 0.63943 0.98226 0.71685 0.0
C1276 C 0.64899 0.00326 0.7002 0.0
C1277 C 0.64262 0.97989 0.70307 0.0
C1278 C 0.61047 0.02844 0.74848 0.0
C1279 C 0.6052 0.03377 0.73622 0.0
C1280 C 0.61125 0.03677 0.76016 0.0
C1281 C 0.60104 0.04747 0.73579 0.0
C1282 C 0.60698 0.05041 0.75931 0.0
N1283 N 0.60202 0.05544 0.74724 0.0
C1284 C 0.59423 0.98817 0.72423 0.0
C1285 C 0.60894 0.0019 0.71059 0.0
C1286 C 0.58531 0.98624 0.71312 0.0
N1287 N 0.60584 0.9958 0.72275 0.0
C1288 C 0.60044 1.00003 0.69915 0.0
C1289 C 0.58846 0.99212 0.70036 0.0
H1290 H 0.59188 0.98363 0.73408 0.0
H1291 H 0.61794 0.00833 0.70979 0.0
C1292 C 0.65814 0.02975 0.75396 0.0
N1293 N 0.64613 0.02885 0.74685 0.0
C1294 C 0.6666 0.04125 0.75252 0.0
C1295 C 0.65026 0.05063 0.73636 0.0
C1296 C 0.64219 0.03889 0.73801 0.0
C1297 C 0.66267 0.05196 0.74368 0.0
H1298 H 0.66119 0.02147 0.76069 0.0
H1299 H 0.63283 0.03777 0.73215 0.0
O1300 O 0.61479 0.98466 0.75342 0.0
O1301 O 0.63825 0.00215 0.76624 0.0
O1302 O 0.63786 0.99804 0.7357 0.0
O1303 O 0.6146 0.01505 0.74906 0.0
H1304 H 0.60613 0.9729 0.77627 0.0
H1305 H 0.61574 0.9659 0.73373 0.0
H1306 H 0.60036 0.94817 0.77858 0.0
H1307 H 0.60992 0.94128 0.73679 0.0
H1308 H 0.64461 0.03267 0.8011 0.0
H1309 H 0.64941 0.98514 0.78418 0.0
H1310 H 0.637 0.02694 0.7774 0.0
H1311 H 0.65694 0.99161 0.80774 0.0
H1312 H 0.64899 0.94294 0.77398 0.0
H1313 H 0.67534 0.95823 0.74171 0.0
H1314 H 0.57597 0.01686 0.78838 0.0
H1315 H 0.60623 0.99667 0.81379 0.0
H1316 H 0.64724 0.01631 0.71799 0.0
H1317 H 0.63585 0.97392 0.72323 0.0
H1318 H 0.65273 0.01136 0.6936 0.0
H1319 H 0.64142 0.96972 0.69873 0.0
H1320 H 0.60443 0.02741 0.72712 0.0
H1321 H 0.61501 0.03272 0.76979 0.0
H1322 H 0.59703 0.05176 0.72635 0.0
H1323 H 0.60756 0.05699 0.76826 0.0
H1324 H 0.57614 0.98007 0.71443 0.0
H1325 H 0.60307 0.00492 0.68952 0.0
H1326 H 0.67621 0.04162 0.75814 0.0
H1327 H 0.64671 0.05862 0.7295 0.0
Li1328 Li 0.01353 0.2541 0.86719 0.0
Li1329 Li 0.99896 0.26336 0.88552 0.0
Li1330 Li 0.00353 0.2391 0.88518 0.0
Li1331 Li 0.98929 0.24941 0.86814 0.0
C1332 C 0.02417 0.26376 0.89481 0.0
N1333 N 0.03721 0.284 0.90998 0.0
C1334 C 0.02791 0.27615 0.88861 0.0
C1335 C 0.02713 0.26164 0.90871 0.0
C1336 C 0.03448 0.28626 0.89646 0.0
C1337 C 0.03371 0.27201 0.91621 0.0
C1338 C 0.98873 0.27428 0.85832 0.0
C1339 C 0.96689 0.28577 0.85703 0.0
N1340 N 0.96831 0.28686 0.84317 0.0
C1341 C 0.99 0.27558 0.84409 0.0
C1342 C 0.97711 0.27945 0.86487 0.0
C1343 C 0.97955 0.28195 0.83661 0.0
C1344 C 0.02677 0.25633 0.84171 0.0
N1345 N 0.02889 0.25664 0.85551 0.0
C1346 C 0.05301 0.25956 0.85233 0.0
C1347 C 0.0417 0.25803 0.86093 0.0
C1348 C 0.05114 0.25949 0.83799 0.0
C1349 C 0.03779 0.25779 0.83271 0.0
H1350 H 0.01653 0.25473 0.83769 0.0
H1351 H 0.04317 0.25784 0.87194 0.0
C1352 C 0.99373 0.27642 0.91085 0.0
N1353 N 0.99645 0.27867 0.89736 0.0
C1354 C 0.99227 0.28749 0.91986 0.0
C1355 C 0.99637 0.30293 0.90087 0.0
C1356 C 0.99779 0.29157 0.89226 0.0
C1357 C 0.9936 0.30099 0.9149 0.0
H1358 H 0.99286 0.26601 0.91462 0.0
H1359 H 1.00007 0.29303 0.8815 0.0
C1360 C 0.01358 0.22652 0.86113 0.0
N1361 N 0.03287 0.20723 0.85363 0.0
C1362 C 0.01087 0.21745 0.85031 0.0
C1363 C 0.02613 0.2258 0.86812 0.0
C1364 C 0.02074 0.20776 0.84668 0.0
C1365 C 0.03574 0.21598 0.86417 0.0
C1366 C 0.97609 0.23848 0.89094 0.0
C1367 C 0.97539 0.22648 0.88306 0.0
C1368 C 0.96696 0.24034 0.9018 0.0
C1369 C 0.96553 0.21654 0.88618 0.0
C1370 C 0.95725 0.23016 0.90458 0.0
N1371 N 0.95674 0.21857 0.89678 0.0
C1372 C 0.00707 0.22554 0.91035 0.0
C1373 C 0.00594 0.21041 0.89131 0.0
C1374 C 0.00861 0.2145 0.91937 0.0
N1375 N 0.00599 0.22334 0.8966 0.0
C1376 C 0.00753 0.19908 0.89992 0.0
C1377 C 0.00894 0.20104 0.91417 0.0
H1378 H 0.00649 0.23588 0.91434 0.0
H1379 H 0.00453 0.20881 0.88042 0.0
C1380 C 0.9757 0.2424 0.84352 0.0
N1381 N 0.97364 0.24681 0.8566 0.0
C1382 C 0.96459 0.24068 0.83456 0.0
C1383 C 0.94946 0.24801 0.85273 0.0
C1384 C 0.96086 0.24965 0.86131 0.0
C1385 C 0.95123 0.24349 0.83914 0.0
H1386 H 0.98601 0.24039 0.84002 0.0
H1387 H 0.95953 0.25329 0.87172 0.0
O1388 O 0.01733 0.25393 0.88736 0.0
O1389 O 0.99865 0.26772 0.8658 0.0
O1390 O 0.00403 0.23616 0.86462 0.0
O1391 O 0.9857 0.24838 0.88823 0.0
H1392 H 0.02554 0.27803 0.8779 0.0
H1393 H 0.02437 0.25212 0.91367 0.0
H1394 H 0.03734 0.29593 0.89181 0.0
H1395 H 0.03603 0.27052 0.92698 0.0
H1396 H 0.9578 0.28972 0.86194 0.0
H1397 H 0.99892 0.27164 0.83886 0.0
H1398 H 0.97586 0.27835 0.87585 0.0
H1399 H 0.98037 0.28297 0.82558 0.0
H1400 H 0.06309 0.26089 0.85686 0.0
H1401 H 0.0359 0.25736 0.82174 0.0
H1402 H 0.99034 0.2855 0.93062 0.0
H1403 H 0.9973 0.31312 0.89655 0.0
H1404 H 0.00122 0.2179 0.84477 0.0
H1405 H 0.02845 0.23271 0.87652 0.0
H1406 H 0.01877 0.20067 0.83833 0.0
H1407 H 0.04548 0.2153 0.8695 0.0
H1408 H 0.98234 0.22482 0.87462 0.0
H1409 H 0.9674 0.24956 0.90801 0.0
H1410 H 0.96488 0.20721 0.88016 0.0
H1411 H 0.95011 0.23146 0.91296 0.0
H1412 H 0.0093 0.2165 0.9303 0.0
H1413 H 0.00776 0.18891 0.89543 0.0
H1414 H 0.96648 0.23739 0.82411 0.0
H1415 H 0.93936 0.25015 0.85676 0.0
Li1416 Li 0.51332 0.75251 0.36805 0.0
Li1417 Li 0.49958 0.7632 0.38628 0.0
Li1418 Li 0.50463 0.73886 0.38598 0.0
Li1419 Li 0.48876 0.74849 0.36886 0.0
C1420 C 0.52535 0.75026 0.39892 0.0
N1421 N 0.53989 0.7412 0.42161 0.0
C1422 C 0.5225 0.75552 0.41196 0.0
C1423 C 0.53574 0.74052 0.39741 0.0
C1424 C 0.52993 0.75079 0.4233 0.0
C1425 C 0.54292 0.73603 0.409 0.0
C1426 C 0.48896 0.77614 0.36308 0.0
C1427 C 0.46737 0.78728 0.36747 0.0
N1428 N 0.46995 0.79624 0.35709 0.0
C1429 C 0.49138 0.78543 0.35244 0.0
C1430 C 0.47685 0.77703 0.37065 0.0
C1431 C 0.48165 0.79553 0.34957 0.0
C1432 C 0.52569 0.75616 0.3421 0.0
N1433 N 0.52817 0.75557 0.35584 0.0
C1434 C 0.55221 0.75851 0.35225 0.0
C1435 C 0.54107 0.75684 0.36104 0.0
C1436 C 0.55004 0.75891 0.33797 0.0
C1437 C 0.53654 0.75778 0.33292 0.0
H1438 H 0.5153 0.75514 0.33828 0.0
H1439 H 0.54271 0.7565 0.37202 0.0
C1440 C 0.49051 0.77791 0.40948 0.0
N1441 N 0.49699 0.77913 0.39722 0.0
C1442 C 0.48849 0.78945 0.41773 0.0
C1443 C 0.4996 0.80331 0.40045 0.0
C1444 C 0.50156 0.79147 0.3926 0.0
C1445 C 0.49302 0.80241 0.41325 0.0
H1446 H 0.48711 0.76793 0.41293 0.0
H1447 H 0.50665 0.79212 0.38278 0.0
C1448 C 0.51054 0.72824 0.35596 0.0
N1449 N 0.52526 0.71579 0.3352 0.0
C1450 C 0.50428 0.72535 0.34333 0.0
C1451 C 0.52422 0.7245 0.35811 0.0
C1452 C 0.5119 0.71912 0.33294 0.0
C1453 C 0.53151 0.71832 0.34747 0.0
C1454 C 0.47707 0.73848 0.39348 0.0
C1455 C 0.4766 0.7255 0.38732 0.0
C1456 C 0.46785 0.74166 0.40395 0.0
C1457 C 0.46687 0.71593 0.39173 0.0
C1458 C 0.45827 0.73181 0.40806 0.0
N1459 N 0.45799 0.71926 0.40192 0.0
C1460 C 0.50496 0.72479 0.4113 0.0
C1461 C 0.5123 0.71145 0.39235 0.0
C1462 C 0.50699 0.71375 0.42021 0.0
N1463 N 0.50774 0.72348 0.39769 0.0
C1464 C 0.51442 0.70013 0.40087 0.0
C1465 C 0.51177 0.7012 0.415 0.0
H1466 H 0.5011 0.73442 0.41522 0.0
H1467 H 0.51421 0.7106 0.38147 0.0
C1468 C 0.47447 0.74853 0.34389 0.0
N1469 N 0.47266 0.74665 0.3576 0.0
C1470 C 0.46339 0.74735 0.33481 0.0
C1471 C 0.44863 0.74294 0.35417 0.0
C1472 C 0.45998 0.74425 0.36287 0.0
C1473 C 0.45027 0.74435 0.33992 0.0
H1474 H 0.48457 0.75091 0.34 0.0
H1475 H 0.45856 0.74348 0.37381 0.0
O1476 O 0.51796 0.75456 0.38772 0.0
O1477 O 0.49839 0.76614 0.3659 0.0
O1478 O 0.50329 0.73452 0.3662 0.0
O1479 O 0.48665 0.74797 0.38953 0.0
H1480 H 0.51458 0.76309 0.41335 0.0
H1481 H 0.53819 0.7364 0.38742 0.0
H1482 H 0.52776 0.75471 0.43346 0.0
H1483 H 0.55091 0.72842 0.40798 0.0
H1484 H 0.45797 0.78809 0.37325 0.0
H1485 H 0.50069 0.78483 0.34645 0.0
H1486 H 0.47476 0.7699 0.37889 0.0
H1487 H 0.48339 0.8028 0.34137 0.0
H1488 H 0.56239 0.7596 0.35661 0.0
H1489 H 0.5344 0.7579 0.32199 0.0
H1490 H 0.4836 0.78816 0.42761 0.0
H1491 H 0.50309 0.81308 0.39644 0.0
H1492 H 0.49362 0.72776 0.34158 0.0
H1493 H 0.5292 0.72653 0.36783 0.0
H1494 H 0.50718 0.71689 0.3231 0.0
H1495 H 0.54215 0.71554 0.34896 0.0
H1496 H 0.48362 0.72281 0.37921 0.0
H1497 H 0.46807 0.75164 0.40883 0.0
H1498 H 0.46639 0.70586 0.38706 0.0
H1499 H 0.45106 0.73414 0.41614 0.0
H1500 H 0.50461 0.71496 0.431 0.0
H1501 H 0.5182 0.69067 0.39644 0.0
H1502 H 0.46512 0.74854 0.32389 0.0
H1503 H 0.43863 0.74101 0.35858 0.0
Li1504 Li 0.00226 0.76378 0.61683 0.0
Li1505 Li 0.98838 0.75315 0.63508 0.0
Li1506 Li 0.01297 0.74937 0.63444 0.0
Li1507 Li 0.99728 0.7394 0.61729 0.0
C1508 C 0.01264 0.77707 0.64009 0.0
N1509 N 0.03153 0.79741 0.64621 0.0
C1510 C 0.01014 0.78631 0.65076 0.0
C1511 C 0.02476 0.77813 0.63254 0.0
C1512 C 0.01982 0.79654 0.65369 0.0
C1513 C 0.03418 0.78849 0.63579 0.0
C1514 C 0.97663 0.75047 0.60409 0.0
C1515 C 0.95898 0.7362 0.59396 0.0
N1516 N 0.96231 0.74108 0.58132 0.0
C1517 C 0.97977 0.75544 0.59101 0.0
C1518 C 0.96605 0.74087 0.6056 0.0
C1519 C 0.97245 0.75054 0.57963 0.0
C1520 C 0.01154 0.77834 0.59361 0.0
N1521 N 0.00491 0.77962 0.60578 0.0
C1522 C 0.00216 0.80372 0.60227 0.0
C1523 C 0.0002 0.79195 0.61022 0.0
C1524 C 0.00888 0.80275 0.58955 0.0
C1525 C 0.01357 0.7898 0.58526 0.0
H1526 H 0.01506 0.76837 0.59031 0.0
H1527 H 0.995 0.79266 0.61998 0.0
C1528 C 0.97591 0.75671 0.66096 0.0
N1529 N 0.97348 0.7562 0.6472 0.0
C1530 C 0.96505 0.75836 0.67011 0.0
C1531 C 0.94946 0.75922 0.65072 0.0
C1532 C 0.96062 0.75754 0.64196 0.0
C1533 C 0.95159 0.75957 0.66502 0.0
H1534 H 0.98628 0.75562 0.66481 0.0
H1535 H 0.95901 0.75724 0.63097 0.0
C1536 C 0.02491 0.73916 0.61013 0.0
N1537 N 0.04414 0.71996 0.60226 0.0
C1538 C 0.02551 0.72641 0.6167 0.0
C1539 C 0.03408 0.74212 0.59955 0.0
C1540 C 0.0353 0.71685 0.61257 0.0
C1541 C 0.04374 0.73228 0.59573 0.0
C1542 C 0.99107 0.72875 0.64711 0.0
C1543 C 0.99728 0.72539 0.65963 0.0
C1544 C 0.97735 0.72519 0.64481 0.0
C1545 C 0.98954 0.71888 0.66978 0.0
C1546 C 0.96994 0.71872 0.65521 0.0
N1547 N 0.97613 0.71574 0.66739 0.0
C1548 C 0.02702 0.74882 0.65956 0.0
C1549 C 0.0418 0.74642 0.64048 0.0
C1550 C 0.03808 0.74775 0.66866 0.0
N1551 N 0.02899 0.7478 0.64578 0.0
C1552 C 0.05317 0.74536 0.64919 0.0
C1553 C 0.05137 0.74587 0.6635 0.0
H1554 H 0.0168 0.75052 0.66348 0.0
H1555 H 0.04329 0.74625 0.62952 0.0
C1556 C 0.99734 0.72511 0.59208 0.0
N1557 N 0.99431 0.72389 0.60565 0.0
C1558 C 0.9954 0.71401 0.58319 0.0
C1559 C 0.98755 0.70051 0.60244 0.0
C1560 C 0.98959 0.71189 0.61095 0.0
C1561 C 0.99044 0.70149 0.58835 0.0
H1562 H 0.00133 0.73472 0.58819 0.0
H1563 H 0.98746 0.71111 0.62179 0.0
O1564 O 0.00328 0.76695 0.6372 0.0
O1565 O 0.9839 0.75494 0.61533 0.0
O1566 O 0.01528 0.74866 0.61382 0.0
O1567 O 0.99845 0.7353 0.63711 0.0
H1568 H 0.00082 0.78558 0.65672 0.0
H1569 H 0.02691 0.77103 0.62428 0.0
H1570 H 0.01802 0.80378 0.66192 0.0
H1571 H 0.0436 0.78944 0.63004 0.0
H1572 H 0.95085 0.72869 0.59498 0.0
H1573 H 0.98785 0.76291 0.58962 0.0
H1574 H 0.96334 0.73699 0.61561 0.0
H1575 H 0.97486 0.75424 0.56944 0.0
H1576 H 0.99856 0.81348 0.60614 0.0
H1577 H 0.01857 0.78845 0.57545 0.0
H1578 H 0.96715 0.75843 0.68105 0.0
H1579 H 0.9393 0.76036 0.64634 0.0
H1580 H 0.01852 0.72389 0.6249 0.0
H1581 H 0.03377 0.75192 0.59435 0.0
H1582 H 0.03588 0.70696 0.61757 0.0
H1583 H 0.05091 0.73445 0.58756 0.0
H1584 H 0.00798 0.72762 0.66148 0.0
H1585 H 0.97242 0.72756 0.63515 0.0
H1586 H 0.99421 0.71628 0.67954 0.0
H1587 H 0.95927 0.71607 0.6536 0.0
H1588 H 0.03628 0.74854 0.6796 0.0
H1589 H 0.06324 0.74396 0.64477 0.0
H1590 H 0.99797 0.71515 0.57244 0.0
H1591 H 0.98363 0.69107 0.60683 0.0
Li1592 Li 0.50144 0.26409 0.11728 0.0
Li1593 Li 0.48778 0.25311 0.13552 0.0
Li1594 Li 0.51242 0.24951 0.13459 0.0
Li1595 Li 0.49665 0.23968 0.11746 0.0
C1596 C 0.51193 0.27711 0.14068 0.0
N1597 N 0.53073 0.29747 0.14701 0.0
C1598 C 0.50948 0.28611 0.15157 0.0
C1599 C 0.52396 0.27842 0.13303 0.0
C1600 C 0.51911 0.29636 0.1546 0.0
C1601 C 0.53333 0.28879 0.13638 0.0
C1602 C 0.47573 0.25061 0.1047 0.0
C1603 C 0.45792 0.23634 0.09484 0.0
N1604 N 0.46116 0.2411 0.08213 0.0
C1605 C 0.47878 0.25545 0.09155 0.0
C1606 C 0.46512 0.24107 0.10638 0.0
C1607 C 0.47133 0.25049 0.08027 0.0
C1608 C 0.50997 0.279 0.09397 0.0
N1609 N 0.50381 0.28011 0.10642 0.0
C1610 C 0.50106 0.30429 0.10344 0.0
C1611 C 0.49934 0.29239 0.11125 0.0
C1612 C 0.5072 0.30342 0.09045 0.0
C1613 C 0.51167 0.29058 0.08571 0.0
H1614 H 0.51338 0.26908 0.0904 0.0
H1615 H 0.49445 0.29295 0.12118 0.0
C1616 C 0.47536 0.25593 0.16155 0.0
N1617 N 0.47295 0.25594 0.14778 0.0
C1618 C 0.46451 0.25751 0.17073 0.0
C1619 C 0.449 0.25939 0.15136 0.0
C1620 C 0.46014 0.25774 0.14257 0.0
C1621 C 0.45109 0.2592 0.16566 0.0
H1622 H 0.48569 0.25451 0.16538 0.0
H1623 H 0.45856 0.25788 0.13157 0.0
C1624 C 0.5242 0.23979 0.10998 0.0
N1625 N 0.54346 0.22087 0.10152 0.0
C1626 C 0.52506 0.22698 0.11641 0.0
C1627 C 0.53312 0.24295 0.09924 0.0
C1628 C 0.53487 0.21756 0.11198 0.0
C1629 C 0.5428 0.23325 0.09513 0.0
C1630 C 0.49087 0.22849 0.14719 0.0
C1631 C 0.49737 0.22477 0.15946 0.0
C1632 C 0.47711 0.22497 0.14511 0.0
C1633 C 0.48988 0.21796 0.16959 0.0
C1634 C 0.46995 0.21818 0.15549 0.0
N1635 N 0.47643 0.21486 0.16743 0.0
C1636 C 0.52672 0.24855 0.15957 0.0
C1637 C 0.54133 0.24678 0.14029 0.0
C1638 C 0.53789 0.24736 0.16852 0.0
N1639 N 0.52856 0.24788 0.14575 0.0
C1640 C 0.5528 0.24561 0.14885 0.0
C1641 C 0.55114 0.24573 0.16318 0.0
H1642 H 0.51653 0.25003 0.16363 0.0
H1643 H 0.54271 0.2469 0.1293 0.0
C1644 C 0.49696 0.22558 0.09213 0.0
N1645 N 0.49371 0.22429 0.10563 0.0
C1646 C 0.49519 0.21452 0.08315 0.0
C1647 C 0.48693 0.20094 0.10218 0.0
C1648 C 0.48885 0.21227 0.11078 0.0
C1649 C 0.49012 0.20197 0.08815 0.0
H1650 H 0.50096 0.23523 0.08835 0.0
H1651 H 0.48661 0.21141 0.12159 0.0
O1652 O 0.50263 0.26697 0.13769 0.0
O1653 O 0.48314 0.25512 0.11583 0.0
O1654 O 0.51454 0.24913 0.11395 0.0
O1655 O 0.49802 0.23532 0.1372 0.0
H1656 H 0.50024 0.28518 0.15762 0.0
H1657 H 0.52607 0.27151 0.1246 0.0
H1658 H 0.51735 0.30341 0.163 0.0
H1659 H 0.54268 0.28993 0.13055 0.0
H1660 H 0.44976 0.22888 0.096 0.0
H1661 H 0.48688 0.26285 0.09002 0.0
H1662 H 0.46248 0.23729 0.11645 0.0
H1663 H 0.47367 0.25409 0.07003 0.0
H1664 H 0.4974 0.314 0.10738 0.0
H1665 H 0.51654 0.28954 0.07579 0.0
H1666 H 0.46659 0.25716 0.18167 0.0
H1667 H 0.43889 0.26093 0.14699 0.0
H1668 H 0.51826 0.2243 0.12472 0.0
H1669 H 0.5326 0.2528 0.09415 0.0
H1670 H 0.53564 0.20762 0.11686 0.0
H1671 H 0.54978 0.23557 0.08684 0.0
H1672 H 0.50811 0.22697 0.16111 0.0
H1673 H 0.47195 0.2276 0.13564 0.0
H1674 H 0.49478 0.21508 0.17916 0.0
H1675 H 0.45924 0.21556 0.15405 0.0
H1676 H 0.53618 0.24785 0.1795 0.0
H1677 H 0.56283 0.24442 0.14429 0.0
H1678 H 0.49768 0.21583 0.0724 0.0
H1679 H 0.48323 0.1914 0.10652 0.0
C1680 C 0.23316 0.77366 0.84214 0.0
C1681 C 0.229 0.75992 0.84397 0.0
C1682 C 0.23512 0.78233 0.85344 0.0
C1683 C 0.24343 0.78252 0.88994 0.0
H1684 H 0.22481 0.8176 0.8909 0.0
C1685 C 0.243 0.81587 0.93895 0.0
C1686 C 0.24305 0.8302 0.93749 0.0
C1687 C 0.24148 0.80738 0.92745 0.0
C1688 C 0.23031 0.80797 0.89073 0.0
H1689 H 0.22357 0.74468 0.85932 0.0
H1690 H 0.22754 0.7597 0.87899 0.0
H1691 H 0.2222 0.80274 0.87087 0.0
H1692 H 0.24187 0.84693 0.92293 0.0
H1693 H 0.23977 0.83217 0.90276 0.0
H1694 H 0.2519 0.78779 0.90955 0.0
C1695 C 0.22924 0.76369 0.86875 0.0
C1696 C 0.22873 0.79943 0.87927 0.0
C1697 C 0.22704 0.75508 0.85745 0.0
C1698 C 0.24171 0.83589 0.92432 0.0
C1699 C 0.24043 0.82741 0.91279 0.0
C1700 C 0.24521 0.79114 0.90131 0.0
C1701 C 0.23321 0.77741 0.86684 0.0
C1702 C 0.2352 0.7866 0.87882 0.0
C1703 C 0.24021 0.81302 0.91419 0.0
C1704 C 0.23859 0.80395 0.90192 0.0
H1705 H 0.23505 0.77772 0.83197 0.0
H1706 H 0.23832 0.79285 0.85172 0.0
H1707 H 0.24865 0.77272 0.88976 0.0
H1708 H 0.24387 0.81124 0.94903 0.0
H1709 H 0.24108 0.79638 0.92903 0.0
C1710 C 0.02135 0.53589 0.40503 0.0
C1711 C 0.01094 0.52632 0.40799 0.0
C1712 C 0.02992 0.53399 0.39373 0.0
C1713 C 0.04249 0.50763 0.36963 0.0
H1714 H 0.05122 0.53899 0.34675 0.0
C1715 C 0.07026 0.50215 0.31762 0.0
C1716 C 0.08039 0.51196 0.31452 0.0
C1717 C 0.0618 0.50383 0.32904 0.0
C1718 C 0.04901 0.53016 0.35312 0.0
H1719 H 0.00137 0.50729 0.40134 0.0
H1720 H 0.01637 0.50397 0.38164 0.0
H1721 H 0.03656 0.54199 0.36673 0.0
H1722 H 0.08946 0.53132 0.32094 0.0
H1723 H 0.07489 0.53412 0.34101 0.0
H1724 H 0.05497 0.49581 0.35603 0.0
C1725 C 0.018 0.51285 0.38817 0.0
C1726 C 0.04061 0.53187 0.36457 0.0
C1727 C 0.00941 0.51475 0.39947 0.0
C1728 C 0.08185 0.5235 0.32311 0.0
C1729 C 0.07339 0.52518 0.33452 0.0
C1730 C 0.05091 0.50592 0.35818 0.0
C1731 C 0.02831 0.52249 0.38513 0.0
C1732 C 0.03726 0.52063 0.37297 0.0
C1733 C 0.06327 0.51537 0.33763 0.0
C1734 C 0.05428 0.51716 0.34979 0.0
H1735 H 0.02296 0.54479 0.41152 0.0
H1736 H 0.03792 0.54149 0.39181 0.0
H1737 H 0.04026 0.4988 0.376 0.0
H1738 H 0.06896 0.49307 0.31131 0.0
H1739 H 0.05401 0.49615 0.33106 0.0
C1740 C 0.77068 0.7306 0.84434 0.0
C1741 C 0.77605 0.74389 0.84611 0.0
C1742 C 0.76866 0.72205 0.85567 0.0
C1743 C 0.76243 0.72226 0.89252 0.0
H1744 H 0.77763 0.68555 0.89205 0.0
C1745 C 0.76175 0.68757 0.94063 0.0
C1746 C 0.76027 0.67336 0.9387 0.0
C1747 C 0.76353 0.69627 0.92936 0.0
C1748 C 0.77309 0.69567 0.8923 0.0
H1749 H 0.78329 0.75878 0.86106 0.0
H1750 H 0.77949 0.74388 0.88096 0.0
H1751 H 0.7807 0.7005 0.87225 0.0
H1752 H 0.75909 0.65711 0.92355 0.0
H1753 H 0.76165 0.67226 0.90384 0.0
H1754 H 0.75444 0.7174 0.91233 0.0
C1755 C 0.77696 0.74008 0.87079 0.0
C1756 C 0.77494 0.70425 0.88096 0.0
C1757 C 0.77921 0.74854 0.85943 0.0
C1758 C 0.76037 0.66802 0.92531 0.0
C1759 C 0.76193 0.67673 0.91403 0.0
C1760 C 0.76038 0.71361 0.90378 0.0
C1761 C 0.77175 0.72672 0.869 0.0
C1762 C 0.76967 0.71763 0.88099 0.0
C1763 C 0.76366 0.69097 0.91589 0.0
C1764 C 0.76572 0.70019 0.90385 0.0
H1765 H 0.76824 0.72676 0.83416 0.0
H1766 H 0.76457 0.71182 0.85404 0.0
H1767 H 0.75815 0.73251 0.89272 0.0
H1768 H 0.76183 0.69192 0.95089 0.0
H1769 H 0.76507 0.70712 0.93127 0.0
C1770 C 0.97829 0.97001 0.40698 0.0
C1771 C 0.98923 0.97908 0.4097 0.0
C1772 C 0.9698 0.97196 0.39554 0.0
C1773 C 0.96907 0.98847 0.36151 0.0
H1774 H 0.92975 0.98306 0.36419 0.0
C1775 C 0.93383 0.98568 0.31376 0.0
C1776 C 0.92121 0.99258 0.31442 0.0
C1777 C 0.94205 0.9843 0.32547 0.0
C1778 C 0.9407 0.98471 0.3633 0.0
H1779 H 0.99957 0.99753 0.4027 0.0
H1780 H 0.98479 0.00088 0.38271 0.0
H1781 H 0.94414 0.98041 0.38461 0.0
H1782 H 0.90727 0.00333 0.32794 0.0
H1783 H 0.92171 0.00105 0.34839 0.0
H1784 H 0.96563 0.99291 0.34024 0.0
C1785 C 0.98292 0.99214 0.38932 0.0
C1786 C 0.94895 0.98304 0.37496 0.0
C1787 C 0.99139 0.99021 0.40077 0.0
C1788 C 0.917 0.99807 0.32707 0.0
C1789 C 0.92519 0.99664 0.33881 0.0
C1790 C 0.96082 0.99008 0.34984 0.0
C1791 C 0.97206 0.98301 0.38654 0.0
C1792 C 0.96324 0.9849 0.3742 0.0
C1793 C 0.93782 0.98974 0.33814 0.0
C1794 C 0.94655 0.9882 0.3506 0.0
H1795 H 0.97646 0.96123 0.41353 0.0
H1796 H 0.96163 0.96464 0.39358 0.0
H1797 H 0.98005 0.98984 0.36054 0.0
H1798 H 0.93743 0.98145 0.30414 0.0
H1799 H 0.95165 0.97882 0.32464 0.0
C1800 C 0.23558 0.23585 0.65608 0.0
C1801 C 0.22625 0.24681 0.65545 0.0
C1802 C 0.23775 0.2275 0.64462 0.0
C1803 C 0.2337 0.22645 0.60683 0.0
H1804 H 0.23636 0.18708 0.61198 0.0
C1805 C 0.23299 0.18798 0.56147 0.0
C1806 C 0.24191 0.1767 0.56228 0.0
C1807 C 0.23139 0.19678 0.5727 0.0
C1808 C 0.23581 0.19807 0.61038 0.0
H1809 H 0.21207 0.25771 0.64217 0.0
H1810 H 0.21569 0.24298 0.62224 0.0
H1811 H 0.23301 0.20195 0.63182 0.0
H1812 H 0.25646 0.16608 0.57539 0.0
H1813 H 0.25366 0.18143 0.59497 0.0
H1814 H 0.23646 0.22254 0.58537 0.0
C1815 C 0.22141 0.24092 0.63158 0.0
C1816 C 0.23389 0.20659 0.62176 0.0
C1817 C 0.21922 0.24927 0.64305 0.0
C1818 C 0.24932 0.17453 0.57452 0.0
C1819 C 0.24771 0.18333 0.58574 0.0
C1820 C 0.23562 0.21792 0.59544 0.0
C1821 C 0.23066 0.22991 0.63224 0.0
C1822 C 0.23281 0.22088 0.62012 0.0
C1823 C 0.23867 0.19451 0.585 0.0
C1824 C 0.2367 0.20362 0.59709 0.0
H1825 H 0.24107 0.2336 0.66551 0.0
H1826 H 0.24506 0.21919 0.64543 0.0
H1827 H 0.2331 0.23743 0.60524 0.0
H1828 H 0.22701 0.18984 0.55225 0.0
H1829 H 0.22421 0.2052 0.57186 0.0
C1830 C 0.48162 0.53562 0.59782 0.0
C1831 C 0.49208 0.52617 0.59491 0.0
C1832 C 0.47299 0.53365 0.60907 0.0
C1833 C 0.47109 0.51575 0.6424 0.0
H1834 H 0.43225 0.52371 0.6394 0.0
C1835 C 0.43274 0.5028 0.6856 0.0
C1836 C 0.42269 0.51267 0.68857 0.0
C1837 C 0.44114 0.50424 0.67409 0.0
C1838 C 0.4431 0.52157 0.64044 0.0
H1839 H 0.50166 0.50724 0.60157 0.0
H1840 H 0.48643 0.50367 0.62105 0.0
H1841 H 0.44692 0.52644 0.61937 0.0
H1842 H 0.41376 0.53191 0.68189 0.0
H1843 H 0.42839 0.53441 0.66181 0.0
H1844 H 0.46726 0.5109 0.66349 0.0
C1845 C 0.485 0.51269 0.61471 0.0
C1846 C 0.45151 0.52314 0.62896 0.0
C1847 C 0.49363 0.51465 0.60345 0.0
C1848 C 0.42125 0.52402 0.67978 0.0
C1849 C 0.42964 0.52545 0.66827 0.0
C1850 C 0.46268 0.51417 0.65388 0.0
C1851 C 0.47461 0.5222 0.61768 0.0
C1852 C 0.46561 0.52028 0.62982 0.0
C1853 C 0.43967 0.51557 0.66528 0.0
C1854 C 0.44859 0.5171 0.65304 0.0
H1855 H 0.48004 0.54452 0.59136 0.0
H1856 H 0.46518 0.54125 0.61114 0.0
H1857 H 0.48195 0.51367 0.64347 0.0
H1858 H 0.43398 0.49383 0.69203 0.0
H1859 H 0.44864 0.49635 0.67197 0.0
C1860 C 0.77832 0.25443 0.64383 0.0
C1861 C 0.77554 0.25919 0.65719 0.0
C1862 C 0.7762 0.26291 0.63244 0.0
C1863 C 0.77421 0.29901 0.62228 0.0
H1864 H 0.75497 0.28509 0.59016 0.0
C1865 C 0.75918 0.33443 0.57727 0.0
C1866 C 0.76005 0.32911 0.56389 0.0
C1867 C 0.76082 0.32586 0.58866 0.0
C1868 C 0.76053 0.2891 0.59896 0.0
H1869 H 0.76811 0.27659 0.66894 0.0
H1870 H 0.76477 0.29144 0.64907 0.0
H1871 H 0.7585 0.27016 0.60996 0.0
H1872 H 0.76348 0.31069 0.55191 0.0
H1873 H 0.76666 0.29576 0.57175 0.0
H1874 H 0.77655 0.31783 0.61127 0.0
C1875 C 0.76865 0.28116 0.64747 0.0
C1876 C 0.76251 0.28054 0.61031 0.0
C1877 C 0.77062 0.27265 0.65885 0.0
C1878 C 0.76259 0.31504 0.56212 0.0
C1879 C 0.76437 0.30649 0.5735 0.0
C1880 C 0.77237 0.30752 0.61088 0.0
C1881 C 0.7714 0.27637 0.63416 0.0
C1882 C 0.76933 0.28543 0.62209 0.0
C1883 C 0.76351 0.31178 0.58693 0.0
C1884 C 0.76548 0.30269 0.59907 0.0
H1885 H 0.78235 0.24423 0.64215 0.0
H1886 H 0.77857 0.25901 0.6223 0.0
H1887 H 0.77966 0.30298 0.63117 0.0
H1888 H 0.75705 0.34521 0.57894 0.0
H1889 H 0.75981 0.33027 0.59882 0.0
C1890 C 0.5214 0.96907 0.59569 0.0
C1891 C 0.50825 0.97497 0.5954 0.0
C1892 C 0.53011 0.971 0.60698 0.0
C1893 C 0.53505 0.99306 0.63801 0.0
H1894 H 0.55956 0.96377 0.64906 0.0
C1895 C 0.56513 0.99257 0.6895 0.0
C1896 C 0.57926 0.99008 0.68838 0.0
C1897 C 0.55648 0.99083 0.67813 0.0
C1898 C 0.5528 0.97205 0.64602 0.0
H1899 H 0.49409 0.98767 0.60691 0.0
H1900 H 0.5089 0.99036 0.62684 0.0
H1901 H 0.54424 0.96038 0.62945 0.0
H1902 H 0.59543 0.98363 0.67465 0.0
H1903 H 0.58021 0.98027 0.6548 0.0
H1904 H 0.54339 0.0045 0.65496 0.0
C1905 C 0.51267 0.98453 0.61817 0.0
C1906 C 0.54407 0.97017 0.63474 0.0
C1907 C 0.50404 0.98278 0.60679 0.0
C1908 C 0.58458 0.98568 0.67574 0.0
C1909 C 0.57589 0.98369 0.66444 0.0
C1910 C 0.54362 0.99484 0.64943 0.0
C1911 C 0.52585 0.97871 0.61841 0.0
C1912 C 0.5351 0.98067 0.63053 0.0
C1913 C 0.56178 0.98632 0.66552 0.0
C1914 C 0.55261 0.98437 0.6535 0.0
H1915 H 0.52498 0.96282 0.58723 0.0
H1916 H 0.54025 0.96653 0.60665 0.0
H1917 H 0.52852 0.0015 0.63495 0.0
H1918 H 0.56082 0.99605 0.69913 0.0
H1919 H 0.54563 0.99285 0.67922 0.0
C1920 C 0.85689 0.21785 0.75876 0.0
C1921 C 0.8454 0.22644 0.75996 0.0
C1922 C 0.86838 0.2198 0.76719 0.0
C1923 C 0.88613 0.24564 0.78849 0.0
H1924 H 0.9033 0.21403 0.80547 0.0
C1925 C 0.92828 0.25107 0.83008 0.0
C1926 C 0.93922 0.24171 0.8298 0.0
C1927 C 0.91692 0.2493 0.82144 0.0
C1928 C 0.89875 0.22296 0.80067 0.0
H1929 H 0.83697 0.24376 0.77111 0.0
H1930 H 0.85711 0.24724 0.7857 0.0
H1931 H 0.88338 0.2108 0.79056 0.0
H1932 H 0.94672 0.22309 0.82021 0.0
H1933 H 0.9271 0.22023 0.80487 0.0
H1934 H 0.90155 0.2578 0.79847 0.0
C1935 C 0.85725 0.23907 0.77813 0.0
C1936 C 0.88732 0.2211 0.79214 0.0
C1937 C 0.84572 0.23709 0.76975 0.0
C1938 C 0.93855 0.23058 0.8206 0.0
C1939 C 0.92721 0.22884 0.81192 0.0
C1940 C 0.89761 0.2475 0.79695 0.0
C1941 C 0.86869 0.23042 0.77697 0.0
C1942 C 0.88087 0.23242 0.78598 0.0
C1943 C 0.91622 0.23815 0.81227 0.0
C1944 C 0.90406 0.23618 0.80317 0.0
H1945 H 0.85711 0.20972 0.75117 0.0
H1946 H 0.87712 0.21309 0.76592 0.0
H1947 H 0.88149 0.25454 0.78373 0.0
H1948 H 0.92853 0.25986 0.83691 0.0
H1949 H 0.90859 0.25659 0.82209 0.0
C1950 C 0.46625 0.89739 0.49153 0.0
C1951 C 0.4748 0.90901 0.49061 0.0
C1952 C 0.46832 0.88602 0.48304 0.0
C1953 C 0.48563 0.87524 0.45085 0.0
H1954 H 0.47933 0.83874 0.46545 0.0
C1955 C 0.50095 0.82533 0.4224 0.0
C1956 C 0.49096 0.81486 0.4219 0.0
C1957 C 0.49905 0.83695 0.43061 0.0
C1958 C 0.48103 0.84888 0.46121 0.0
H1959 H 0.49221 0.91774 0.47986 0.0
H1960 H 0.49618 0.89771 0.46548 0.0
H1961 H 0.47616 0.85869 0.48021 0.0
H1962 H 0.47098 0.80866 0.4295 0.0
H1963 H 0.46788 0.82875 0.44408 0.0
H1964 H 0.49079 0.86528 0.43192 0.0
C1965 C 0.48768 0.89749 0.47259 0.0
C1966 C 0.47917 0.86033 0.46965 0.0
C1967 C 0.48552 0.90893 0.48099 0.0
C1968 C 0.47902 0.81634 0.42982 0.0
C1969 C 0.4772 0.82788 0.43814 0.0
C1970 C 0.48764 0.86376 0.44247 0.0
C1971 C 0.4791 0.88589 0.47349 0.0
C1972 C 0.48136 0.87368 0.46456 0.0
C1973 C 0.48719 0.83829 0.43862 0.0
C1974 C 0.48528 0.85048 0.44755 0.0
H1975 H 0.45802 0.89697 0.49894 0.0
H1976 H 0.46137 0.87738 0.48392 0.0
H1977 H 0.4872 0.88534 0.4465 0.0
H1978 H 0.51038 0.82446 0.41664 0.0
H1979 H 0.50698 0.84476 0.4309 0.0
C1980 C 0.15681 0.26836 0.77034 0.0
C1981 C 0.1557 0.27628 0.75832 0.0
C1982 C 0.14543 0.26631 0.77877 0.0
C1983 C 0.11187 0.2812 0.78745 0.0
H1984 H 0.10452 0.24528 0.80293 0.0
C1985 C 0.06194 0.26917 0.81671 0.0
C1986 C 0.06303 0.26112 0.82863 0.0
C1987 C 0.07316 0.27084 0.80799 0.0
C1988 C 0.10652 0.25541 0.79882 0.0
H1989 H 0.14178 0.28835 0.74581 0.0
H1990 H 0.12189 0.28463 0.76045 0.0
H1991 H 0.1243 0.24853 0.78802 0.0
H1992 H 0.07676 0.2483 0.8406 0.0
H1993 H 0.09642 0.25147 0.82557 0.0
H1994 H 0.09417 0.28812 0.7983 0.0
C1995 C 0.13158 0.28008 0.76339 0.0
C1996 C 0.11784 0.25726 0.79026 0.0
C1997 C 0.14295 0.28209 0.75493 0.0
C1998 C 0.0756 0.25471 0.83159 0.0
C1999 C 0.08683 0.25639 0.82288 0.0
C2000 C 0.10057 0.27935 0.79603 0.0
C2001 C 0.1327 0.27219 0.77542 0.0
C2002 C 0.12065 0.27018 0.78448 0.0
C2003 C 0.08576 0.2645 0.81099 0.0
C2004 C 0.09775 0.26643 0.80181 0.0
H2005 H 0.16646 0.26365 0.77317 0.0
H2006 H 0.14665 0.26028 0.78804 0.0
H2007 H 0.11387 0.29133 0.78333 0.0
H2008 H 0.05245 0.27436 0.81419 0.0
H2009 H 0.07193 0.27703 0.79883 0.0
C2010 C 0.52318 0.59509 0.48192 0.0
C2011 C 0.52963 0.59657 0.4948 0.0
C2012 C 0.52132 0.60644 0.47336 0.0
C2013 C 0.51955 0.64425 0.47375 0.0
H2014 H 0.52646 0.6407 0.4347 0.0
C2015 C 0.51991 0.69098 0.43726 0.0
C2016 C 0.51385 0.68925 0.42423 0.0
C2017 C 0.5219 0.67972 0.44592 0.0
C2018 C 0.52433 0.64183 0.44556 0.0
H2019 H 0.53934 0.61115 0.50868 0.0
H2020 H 0.53603 0.63096 0.49374 0.0
H2021 H 0.52977 0.62097 0.44972 0.0
H2022 H 0.50488 0.67438 0.41019 0.0
H2023 H 0.50828 0.65475 0.4253 0.0
H2024 H 0.51405 0.66508 0.46959 0.0
C2025 C 0.53226 0.62104 0.49036 0.0
C2026 C 0.52624 0.63052 0.45416 0.0
C2027 C 0.53415 0.60968 0.49892 0.0
C2028 C 0.50978 0.67602 0.42007 0.0
C2029 C 0.51174 0.66477 0.42874 0.0
C2030 C 0.51762 0.65555 0.46514 0.0
C2031 C 0.52584 0.61954 0.47748 0.0
C2032 C 0.52386 0.63159 0.46835 0.0
C2033 C 0.51784 0.66648 0.44175 0.0
C2034 C 0.51997 0.65448 0.45094 0.0
H2035 H 0.51937 0.58519 0.47853 0.0
H2036 H 0.51614 0.60498 0.46359 0.0
H2037 H 0.51745 0.64535 0.48461 0.0
H2038 H 0.52332 0.70102 0.44068 0.0
H2039 H 0.52682 0.68137 0.45579 0.0
C2040 C 0.85948 0.78191 0.74792 0.0
C2041 C 0.84693 0.77552 0.74464 0.0
C2042 C 0.87097 0.78002 0.73961 0.0
C2043 C 0.8855 0.75673 0.71357 0.0
H2044 H 0.9084 0.78805 0.70457 0.0
C2045 C 0.92735 0.75428 0.67192 0.0
C2046 C 0.93981 0.76114 0.67453 0.0
C2047 C 0.91622 0.75586 0.68075 0.0
C2048 C 0.90222 0.77916 0.70713 0.0
H2049 H 0.83668 0.76196 0.73015 0.0
H2050 H 0.85668 0.7588 0.71554 0.0
H2051 H 0.88863 0.79111 0.71948 0.0
H2052 H 0.95029 0.77509 0.68848 0.0
H2053 H 0.93095 0.77764 0.70404 0.0
H2054 H 0.89909 0.74477 0.70122 0.0
C2055 C 0.85766 0.7652 0.72461 0.0
C2056 C 0.89088 0.78092 0.71566 0.0
C2057 C 0.84616 0.76713 0.73289 0.0
C2058 C 0.94089 0.76956 0.68624 0.0
C2059 C 0.92975 0.77115 0.69507 0.0
C2060 C 0.89686 0.75496 0.70505 0.0
C2061 C 0.87019 0.77165 0.72785 0.0
C2062 C 0.88236 0.76973 0.71894 0.0
C2063 C 0.91726 0.76434 0.69241 0.0
C2064 C 0.90533 0.76616 0.70169 0.0
H2065 H 0.86038 0.78854 0.75683 0.0
H2066 H 0.88051 0.78503 0.74247 0.0
H2067 H 0.87927 0.74786 0.71607 0.0
H2068 H 0.92622 0.74758 0.66309 0.0
H2069 H 0.90671 0.75058 0.67832 0.0
C2070 C 0.01466 0.90851 0.52093 0.0
C2071 C 0.02531 0.9089 0.51124 0.0
C2072 C 0.01288 0.89707 0.5294 0.0
C2073 C 0.02241 0.86026 0.53264 0.0
H2074 H 0.01061 0.86535 0.57029 0.0
C2075 C 0.02287 0.81668 0.5729 0.0
C2076 C 0.01089 0.8151 0.58077 0.0
C2077 C 0.02463 0.82814 0.56446 0.0
C2078 C 0.01382 0.86378 0.55977 0.0
H2079 H 0.04237 0.8974 0.50285 0.0
H2080 H 0.03964 0.87779 0.51799 0.0
H2081 H 0.01385 0.88531 0.55556 0.0
H2082 H 0.99134 0.82443 0.58577 0.0
H2083 H 0.99464 0.84459 0.57132 0.0
H2084 H 0.02265 0.83872 0.53703 0.0
C2085 C 0.03246 0.8862 0.51887 0.0
C2086 C 0.01563 0.87521 0.55129 0.0
C2087 C 0.03416 0.89757 0.5103 0.0
C2088 C 0.0008 0.82539 0.58007 0.0
C2089 C 0.00265 0.83692 0.57175 0.0
C2090 C 0.02076 0.84886 0.54117 0.0
C2091 C 0.02177 0.88577 0.52851 0.0
C2092 C 0.01991 0.8736 0.53759 0.0
C2093 C 0.01455 0.83838 0.56381 0.0
C2094 C 0.01641 0.8505 0.55481 0.0
H2095 H 0.00775 0.9171 0.5221 0.0
H2096 H 0.00442 0.89706 0.53656 0.0
H2097 H 0.02546 0.85858 0.52209 0.0
H2098 H 0.03098 0.80914 0.57336 0.0
H2099 H 0.03399 0.8291 0.55858 0.0
C2100 C 0.15715 0.73626 0.7321 0.0
C2101 C 0.15618 0.72726 0.74333 0.0
C2102 C 0.1458 0.73862 0.72361 0.0
C2103 C 0.10803 0.73634 0.7227 0.0
H2104 H 0.11287 0.73704 0.68318 0.0
C2105 C 0.06223 0.73623 0.68482 0.0
C2106 C 0.06328 0.74437 0.67296 0.0
C2107 C 0.07352 0.73451 0.69355 0.0
C2108 C 0.11136 0.73706 0.6942 0.0
H2109 H 0.14246 0.71383 0.75457 0.0
H2110 H 0.12268 0.71783 0.73965 0.0
H2111 H 0.13265 0.73336 0.69813 0.0
H2112 H 0.07691 0.75738 0.66115 0.0
H2113 H 0.09659 0.75446 0.67642 0.0
H2114 H 0.08675 0.74006 0.71879 0.0
C2115 C 0.13221 0.72313 0.73746 0.0
C2116 C 0.1227 0.73494 0.70276 0.0
C2117 C 0.14358 0.72072 0.74592 0.0
C2118 C 0.07583 0.75087 0.6701 0.0
C2119 C 0.08711 0.74918 0.67884 0.0
C2120 C 0.09669 0.7385 0.71414 0.0
C2121 C 0.1332 0.73208 0.72619 0.0
C2122 C 0.12116 0.73451 0.71711 0.0
C2123 C 0.08612 0.74092 0.69064 0.0
C2124 C 0.09821 0.73885 0.69978 0.0
H2125 H 0.16674 0.74136 0.72975 0.0
H2126 H 0.14686 0.74567 0.71508 0.0
H2127 H 0.10654 0.73626 0.73372 0.0
H2128 H 0.05275 0.73093 0.68721 0.0
H2129 H 0.07244 0.72791 0.70242 0.0
C2130 C 0.97963 0.59516 0.5212 0.0
C2131 C 0.9733 0.59659 0.50826 0.0
C2132 C 0.98143 0.60653 0.52981 0.0
C2133 C 0.98328 0.64433 0.52952 0.0
H2134 H 0.97584 0.64082 0.56846 0.0
C2135 C 0.98257 0.69115 0.566 0.0
C2136 C 0.98842 0.68949 0.57912 0.0
C2137 C 0.98066 0.67985 0.55733 0.0
C2138 C 0.97812 0.64194 0.55764 0.0
H2139 H 0.96375 0.6111 0.49433 0.0
H2140 H 0.96697 0.63095 0.50933 0.0
H2141 H 0.9727 0.62104 0.55338 0.0
H2142 H 0.9971 0.67471 0.59332 0.0
H2143 H 0.99385 0.655 0.57816 0.0
H2144 H 0.98879 0.6652 0.53378 0.0
C2145 C 0.97068 0.62105 0.51273 0.0
C2146 C 0.97631 0.6306 0.549 0.0
C2147 C 0.96885 0.60967 0.50413 0.0
C2148 C 0.99236 0.67629 0.58336 0.0
C2149 C 0.99049 0.665 0.57467 0.0
C2150 C 0.98514 0.65566 0.53817 0.0
C2151 C 0.97697 0.6196 0.52567 0.0
C2152 C 0.97887 0.63167 0.53484 0.0
C2153 C 0.9846 0.66663 0.56156 0.0
C2154 C 0.98258 0.6546 0.55234 0.0
H2155 H 0.98339 0.58528 0.52461 0.0
H2156 H 0.9865 0.60511 0.53963 0.0
H2157 H 0.98553 0.64543 0.51869 0.0
H2158 H 0.97925 0.70117 0.56252 0.0
H2159 H 0.9759 0.68144 0.54738 0.0
C2160 C 0.75245 0.85895 0.22665 0.0
C2161 C 0.75742 0.84557 0.22873 0.0
C2162 C 0.76089 0.87037 0.22888 0.0
C2163 C 0.79382 0.88106 0.24548 0.0
H2164 H 0.78984 0.91266 0.22161 0.0
C2165 C 0.83341 0.92543 0.24236 0.0
C2166 C 0.82808 0.93879 0.24295 0.0
C2167 C 0.82464 0.9141 0.24121 0.0
C2168 C 0.79098 0.90395 0.22842 0.0
H2169 H 0.77527 0.83383 0.23499 0.0
H2170 H 0.79017 0.85364 0.23815 0.0
H2171 H 0.77502 0.89273 0.21825 0.0
H2172 H 0.80944 0.95083 0.24275 0.0
H2173 H 0.79407 0.93099 0.24049 0.0
H2174 H 0.81015 0.89224 0.2553 0.0
C2175 C 0.77961 0.85536 0.23512 0.0
C2176 C 0.78245 0.89253 0.22655 0.0
C2177 C 0.7711 0.84394 0.23308 0.0
C2178 C 0.8138 0.94063 0.24238 0.0
C2179 C 0.80504 0.92931 0.24101 0.0
C2180 C 0.80248 0.89241 0.2472 0.0
C2181 C 0.77463 0.86874 0.23305 0.0
C2182 C 0.78373 0.88093 0.23508 0.0
C2183 C 0.81038 0.91595 0.24041 0.0
C2184 C 0.80112 0.90397 0.2387 0.0
H2185 H 0.74205 0.86067 0.22311 0.0
H2186 H 0.75659 0.88049 0.22738 0.0
H2187 H 0.79496 0.87246 0.25242 0.0
H2188 H 0.84438 0.92374 0.24287 0.0
H2189 H 0.82902 0.90391 0.24069 0.0
C2190 C 0.75639 0.14455 0.27886 0.0
C2191 C 0.76057 0.15759 0.27427 0.0
C2192 C 0.76491 0.13316 0.27731 0.0
C2193 C 0.79494 0.12068 0.25775 0.0
H2194 H 0.79678 0.09354 0.28681 0.0
C2195 C 0.83507 0.07714 0.25854 0.0
C2196 C 0.83025 0.06396 0.26191 0.0
C2197 C 0.82661 0.08859 0.26005 0.0
C2198 C 0.79628 0.10097 0.27856 0.0
H2199 H 0.77701 0.16878 0.2643 0.0
H2200 H 0.79205 0.14902 0.26199 0.0
H2201 H 0.78204 0.11352 0.28946 0.0
H2202 H 0.81288 0.05247 0.26972 0.0
H2203 H 0.79809 0.07249 0.27234 0.0
H2204 H 0.80933 0.10817 0.24693 0.0
C2205 C 0.78207 0.14756 0.26661 0.0
C2206 C 0.78781 0.11241 0.28005 0.0
C2207 C 0.77351 0.15894 0.2681 0.0
C2208 C 0.81683 0.06249 0.26692 0.0
C2209 C 0.80842 0.07395 0.26854 0.0
C2210 C 0.80348 0.10928 0.2563 0.0
C2211 C 0.77788 0.13452 0.2712 0.0
C2212 C 0.787 0.1224 0.26965 0.0
C2213 C 0.8132 0.08713 0.26508 0.0
C2214 C 0.80421 0.09929 0.26667 0.0
H2215 H 0.74656 0.14315 0.28382 0.0
H2216 H 0.76127 0.12326 0.28081 0.0
H2217 H 0.7944 0.12803 0.24943 0.0
H2218 H 0.84532 0.07859 0.25454 0.0
H2219 H 0.83062 0.09863 0.25741 0.0
C2220 C 0.40661 0.98424 0.98596 0.0
C2221 C 0.40735 0.99289 0.9744 0.0
C2222 C 0.39522 0.97575 0.988 0.0
C2223 C 0.36788 0.95764 0.97006 0.0
H2224 H 0.34857 0.95886 0.00476 0.0
C2225 C 0.31694 0.92842 0.97785 0.0
C2226 C 0.31415 0.92285 0.99087 0.0
C2227 C 0.32827 0.93701 0.97586 0.0
C2228 C 0.35395 0.95818 0.99508 0.0
H2229 H 0.39645 0.99935 0.95599 0.0
H2230 H 0.37687 0.98409 0.95933 0.0
H2231 H 0.36861 0.97346 0.0013 0.0
H2232 H 0.32123 0.92214 0.01206 0.0
H2233 H 0.34133 0.93638 0.00842 0.0
H2234 H 0.35363 0.94206 0.96392 0.0
C2235 C 0.38516 0.984 0.9668 0.0
C2236 C 0.36539 0.96662 0.9931 0.0
C2237 C 0.39643 0.99267 0.96486 0.0
C2238 C 0.3231 0.92603 0.00182 0.0
C2239 C 0.33455 0.93444 0.99978 0.0
C2240 C 0.35659 0.94901 0.97211 0.0
C2241 C 0.38443 0.97552 0.97842 0.0
C2242 C 0.3724 0.96647 0.98055 0.0
C2243 C 0.33727 0.9401 0.98678 0.0
C2244 C 0.34942 0.9492 0.98464 0.0
H2245 H 0.41491 0.98387 0.99338 0.0
H2246 H 0.39495 0.96918 0.99697 0.0
H2247 H 0.37322 0.95724 0.96033 0.0
H2248 H 0.31045 0.92607 0.96909 0.0
H2249 H 0.32986 0.94131 0.96574 0.0
C2250 C 0.23145 0.3443 0.26728 0.0
C2251 C 0.24371 0.34567 0.27483 0.0
C2252 C 0.22298 0.35564 0.26506 0.0
C2253 C 0.2151 0.39 0.27889 0.0
H2254 H 0.19808 0.39573 0.24326 0.0
C2255 C 0.18579 0.43965 0.26585 0.0
C2256 C 0.17338 0.43825 0.25855 0.0
C2257 C 0.19453 0.42844 0.26753 0.0
C2258 C 0.20264 0.3942 0.25331 0.0
H2259 H 0.25663 0.36003 0.28606 0.0
H2260 H 0.24199 0.37985 0.28199 0.0
H2261 H 0.21297 0.37597 0.24682 0.0
H2262 H 0.16061 0.42401 0.247 0.0
H2263 H 0.17575 0.40438 0.25015 0.0
H2264 H 0.20474 0.40818 0.2854 0.0
C2265 C 0.23886 0.36998 0.27789 0.0
C2266 C 0.21117 0.38287 0.25535 0.0
C2267 C 0.24733 0.35865 0.28008 0.0
C2268 C 0.17001 0.4254 0.25282 0.0
C2269 C 0.17877 0.41419 0.25449 0.0
C2270 C 0.20656 0.40131 0.27685 0.0
C2271 C 0.22657 0.36861 0.27036 0.0
C2272 C 0.21751 0.38065 0.26816 0.0
C2273 C 0.19109 0.41556 0.26194 0.0
C2274 C 0.20024 0.40355 0.26404 0.0
H2275 H 0.22843 0.33447 0.26299 0.0
H2276 H 0.21353 0.35421 0.25933 0.0
H2277 H 0.21964 0.38846 0.28894 0.0
H2278 H 0.18864 0.44936 0.27051 0.0
H2279 H 0.20403 0.42989 0.27319 0.0
C2280 C 0.10179 0.0106 0.48848 0.0
C2281 C 0.09107 0.0145 0.47965 0.0
C2282 C 0.1132 0.01915 0.49035 0.0
C2283 C 0.13132 0.04879 0.47437 0.0
H2284 H 0.14997 0.05026 0.50964 0.0
C2285 C 0.17396 0.08828 0.4876 0.0
C2286 C 0.18598 0.08276 0.49333 0.0
C2287 C 0.16222 0.08013 0.48602 0.0
C2288 C 0.14489 0.04989 0.49972 0.0
H2289 H 0.08362 0.0305 0.46616 0.0
H2290 H 0.10325 0.04568 0.46977 0.0
H2291 H 0.12953 0.03599 0.50694 0.0
H2292 H 0.19513 0.06453 0.50213 0.0
H2293 H 0.17452 0.05031 0.49957 0.0
H2294 H 0.14657 0.063 0.46733 0.0
C2295 C 0.10314 0.03585 0.47493 0.0
C2296 C 0.13321 0.04166 0.49813 0.0
C2297 C 0.09184 0.0272 0.47291 0.0
C2298 C 0.18602 0.06899 0.49759 0.0
C2299 C 0.17422 0.0609 0.49622 0.0
C2300 C 0.14288 0.05717 0.47604 0.0
C2301 C 0.11404 0.03189 0.48358 0.0
C2302 C 0.12631 0.04092 0.4854 0.0
C2303 C 0.16224 0.06638 0.49036 0.0
C2304 C 0.14981 0.05773 0.4887 0.0
H2305 H 0.10151 0.00078 0.49368 0.0
H2306 H 0.12147 0.01561 0.49689 0.0
H2307 H 0.12649 0.0483 0.46434 0.0
H2308 H 0.17369 0.09885 0.48417 0.0
H2309 H 0.15309 0.0846 0.48153 0.0
C2310 C 0.73036 0.15554 0.71843 0.0
C2311 C 0.7398 0.15931 0.72873 0.0
C2312 C 0.72186 0.1441 0.72014 0.0
C2313 C 0.70635 0.12193 0.74616 0.0
H2314 H 0.70411 0.09506 0.71679 0.0
C2315 C 0.67881 0.06985 0.75327 0.0
C2316 C 0.67148 0.06438 0.74202 0.0
C2317 C 0.68709 0.08148 0.7517 0.0
C2318 C 0.70442 0.10255 0.72502 0.0
H2319 H 0.74756 0.15427 0.74901 0.0
H2320 H 0.73256 0.13431 0.75207 0.0
H2321 H 0.7183 0.11549 0.71395 0.0
H2322 H 0.66731 0.06689 0.72024 0.0
H2323 H 0.68119 0.08745 0.71766 0.0
H2324 H 0.69226 0.10922 0.75715 0.0
C2325 C 0.7318 0.1402 0.74266 0.0
C2326 C 0.71261 0.11423 0.72339 0.0
C2327 C 0.74043 0.15154 0.74087 0.0
C2328 C 0.67262 0.07089 0.72919 0.0
C2329 C 0.68079 0.0826 0.72765 0.0
C2330 C 0.69802 0.11033 0.74773 0.0
C2331 C 0.72251 0.1363 0.73226 0.0
C2332 C 0.71368 0.12401 0.73396 0.0
C2333 C 0.68817 0.08804 0.73888 0.0
C2334 C 0.69697 0.10045 0.73719 0.0
H2335 H 0.72974 0.1613 0.70894 0.0
H2336 H 0.71473 0.14137 0.712 0.0
H2337 H 0.70688 0.12939 0.75441 0.0
H2338 H 0.67806 0.06525 0.76335 0.0
H2339 H 0.69275 0.08524 0.76054 0.0
C2340 C 0.40212 0.02045 0.53766 0.0
C2341 C 0.4051 0.0102 0.52794 0.0
C2342 C 0.39072 0.02893 0.53596 0.0
C2343 C 0.36643 0.04162 0.50968 0.0
H2344 H 0.34394 0.05057 0.54117 0.0
C2345 C 0.31466 0.06974 0.5043 0.0
C2346 C 0.31181 0.08005 0.51399 0.0
C2347 C 0.32597 0.06113 0.50603 0.0
C2348 C 0.3502 0.04829 0.5323 0.0
H2349 H 0.39829 0.00073 0.5089 0.0
H2350 H 0.37839 0.01554 0.50592 0.0
H2351 H 0.36385 0.03576 0.54411 0.0
H2352 H 0.31851 0.08927 0.53319 0.0
H2353 H 0.33838 0.0744 0.5361 0.0
H2354 H 0.3528 0.05416 0.49787 0.0
C2355 C 0.385 0.01714 0.51476 0.0
C2356 C 0.36161 0.0398 0.53398 0.0
C2357 C 0.39641 0.00866 0.51647 0.0
C2358 C 0.3205 0.08151 0.52547 0.0
C2359 C 0.3318 0.07289 0.52722 0.0
C2360 C 0.35503 0.05011 0.50799 0.0
C2361 C 0.38201 0.02737 0.52449 0.0
C2362 C 0.36987 0.03638 0.52269 0.0
C2363 C 0.33469 0.06262 0.5175 0.0
C2364 C 0.34678 0.05355 0.51929 0.0
H2365 H 0.40873 0.02205 0.54651 0.0
H2366 H 0.38883 0.03685 0.54353 0.0
H2367 H 0.3727 0.03935 0.50081 0.0
H2368 H 0.30825 0.06843 0.49527 0.0
H2369 H 0.32783 0.05323 0.49843 0.0
C2370 C 0.60649 0.49627 0.51916 0.0
C2371 C 0.5957 0.49215 0.52775 0.0
C2372 C 0.61782 0.48775 0.5172 0.0
C2373 C 0.62859 0.45195 0.51809 0.0
H2374 H 0.66531 0.46676 0.5226 0.0
C2375 C 0.67622 0.41702 0.51732 0.0
C2376 C 0.68827 0.42216 0.51139 0.0
C2377 C 0.66496 0.42558 0.51941 0.0
C2378 C 0.65515 0.46248 0.52107 0.0
H2379 H 0.58817 0.47587 0.54087 0.0
H2380 H 0.60791 0.46085 0.53727 0.0
H2381 H 0.64554 0.48167 0.52576 0.0
H2382 H 0.69796 0.44021 0.50276 0.0
H2383 H 0.67819 0.4551 0.50597 0.0
H2384 H 0.63808 0.43287 0.51303 0.0
C2385 C 0.60762 0.4707 0.53213 0.0
C2386 C 0.64383 0.47103 0.52295 0.0
C2387 C 0.59639 0.47931 0.53425 0.0
C2388 C 0.68884 0.43603 0.50751 0.0
C2389 C 0.67751 0.44456 0.50942 0.0
C2390 C 0.6399 0.44344 0.51602 0.0
C2391 C 0.61847 0.47487 0.52364 0.0
C2392 C 0.63045 0.46583 0.52153 0.0
C2393 C 0.66542 0.43946 0.51543 0.0
C2394 C 0.65335 0.44857 0.51753 0.0
H2395 H 0.60624 0.50617 0.5141 0.0
H2396 H 0.62601 0.49117 0.51054 0.0
H2397 H 0.61837 0.44773 0.51678 0.0
H2398 H 0.67558 0.40639 0.52055 0.0
H2399 H 0.65596 0.42133 0.52432 0.0
C2400 C 0.71717 0.26962 0.34691 0.0
C2401 C 0.72766 0.26077 0.34268 0.0
C2402 C 0.71903 0.27814 0.35833 0.0
C2403 C 0.7413 0.28288 0.38924 0.0
H2404 H 0.72441 0.31886 0.38986 0.0
C2405 C 0.75328 0.32429 0.43045 0.0
C2406 C 0.7418 0.33027 0.43677 0.0
C2407 C 0.7517 0.31581 0.41894 0.0
C2408 C 0.72912 0.30881 0.38983 0.0
H2409 H 0.74841 0.25405 0.34684 0.0
H2410 H 0.7519 0.26927 0.36648 0.0
H2411 H 0.72166 0.30427 0.36965 0.0
H2412 H 0.71957 0.33176 0.43589 0.0
H2413 H 0.71694 0.31741 0.41552 0.0
H2414 H 0.74906 0.28771 0.40934 0.0
C2415 C 0.74206 0.26937 0.36129 0.0
C2416 C 0.72749 0.30039 0.37829 0.0
C2417 C 0.74011 0.26069 0.34999 0.0
C2418 C 0.7287 0.32761 0.43118 0.0
C2419 C 0.72715 0.31932 0.41954 0.0
C2420 C 0.74309 0.2914 0.40069 0.0
C2421 C 0.73151 0.27817 0.36567 0.0
C2422 C 0.73349 0.28727 0.37787 0.0
C2423 C 0.73863 0.31331 0.41336 0.0
C2424 C 0.73695 0.3044 0.40112 0.0
H2425 H 0.70742 0.26975 0.34153 0.0
H2426 H 0.71056 0.28454 0.36152 0.0
H2427 H 0.74585 0.27277 0.38945 0.0
H2428 H 0.76355 0.32628 0.43425 0.0
H2429 H 0.76073 0.3114 0.41426 0.0
C2430 C 0.50851 0.01567 0.89802 0.0
C2431 C 0.51257 0.02452 0.90869 0.0
C2432 C 0.51697 0.01365 0.88666 0.0
C2433 C 0.54689 0.02913 0.86858 0.0
H2434 H 0.54769 0.99376 0.85025 0.0
C2435 C 0.58662 0.01463 0.82707 0.0
C2436 C 0.58116 0.00904 0.8149 0.0
C2437 C 0.57829 0.01652 0.83856 0.0
C2438 C 0.54749 0.00371 0.85524 0.0
H2439 H 0.52876 0.03792 0.9161 0.0
H2440 H 0.54382 0.03403 0.89656 0.0
H2441 H 0.53338 0.99681 0.8705 0.0
H2442 H 0.56282 0.00086 0.8052 0.0
H2443 H 0.54828 0.00392 0.82542 0.0
H2444 H 0.56135 0.03582 0.85347 0.0
C2445 C 0.53392 0.02897 0.89667 0.0
C2446 C 0.53925 0.0055 0.86681 0.0
C2447 C 0.52534 0.03115 0.90792 0.0
C2448 C 0.56725 0.00526 0.81444 0.0
C2449 C 0.55897 0.00693 0.82601 0.0
C2450 C 0.55529 0.02725 0.85715 0.0
C2451 C 0.5298 0.02028 0.88581 0.0
C2452 C 0.53878 0.01827 0.87361 0.0
C2453 C 0.56441 0.01263 0.83814 0.0
C2454 C 0.55561 0.01455 0.85034 0.0
H2455 H 0.49863 0.01056 0.89832 0.0
H2456 H 0.51331 0.0071 0.87842 0.0
H2457 H 0.54661 0.03918 0.87332 0.0
H2458 H 0.59731 0.01769 0.82765 0.0
H2459 H 0.58274 0.02087 0.84782 0.0
C2460 C 0.28246 0.23174 0.34799 0.0
C2461 C 0.27394 0.24307 0.34544 0.0
C2462 C 0.27997 0.22307 0.35913 0.0
C2463 C 0.26301 0.2219 0.39284 0.0
H2464 H 0.26645 0.1825 0.3884 0.0
C2465 C 0.24873 0.18371 0.43599 0.0
C2466 C 0.25752 0.17247 0.43795 0.0
C2467 C 0.25026 0.19229 0.42458 0.0
C2468 C 0.26558 0.19349 0.38986 0.0
H2469 H 0.25617 0.25424 0.35266 0.0
H2470 H 0.25174 0.239 0.37205 0.0
H2471 H 0.26999 0.19752 0.36872 0.0
H2472 H 0.27495 0.16157 0.4296 0.0
H2473 H 0.27766 0.17655 0.40978 0.0
H2474 H 0.25873 0.21788 0.41401 0.0
C2475 C 0.2604 0.23688 0.36547 0.0
C2476 C 0.2676 0.20209 0.37857 0.0
C2477 C 0.26285 0.24553 0.35428 0.0
C2478 C 0.26787 0.17001 0.42826 0.0
C2479 C 0.26941 0.1786 0.41689 0.0
C2480 C 0.26102 0.21329 0.40415 0.0
C2481 C 0.26893 0.22555 0.36801 0.0
C2482 C 0.26641 0.2164 0.37994 0.0
C2483 C 0.26062 0.18983 0.4149 0.0
C2484 C 0.26236 0.19899 0.40281 0.0
H2485 H 0.291 0.22949 0.34129 0.0
H2486 H 0.28681 0.21451 0.36089 0.0
H2487 H 0.26219 0.23289 0.39428 0.0
H2488 H 0.24054 0.18577 0.44316 0.0
H2489 H 0.24319 0.20075 0.42326 0.0
C2490 C 0.49525 0.48545 0.89836 0.0
C2491 C 0.49115 0.47688 0.90922 0.0
C2492 C 0.48684 0.48724 0.88684 0.0
C2493 C 0.45679 0.47184 0.86858 0.0
H2494 H 0.45595 0.50723 0.85039 0.0
C2495 C 0.41699 0.48634 0.82667 0.0
C2496 C 0.42242 0.49214 0.81466 0.0
C2497 C 0.42532 0.48438 0.83824 0.0
C2498 C 0.45616 0.49727 0.85534 0.0
H2499 H 0.47489 0.46339 0.91631 0.0
H2500 H 0.45996 0.46707 0.89663 0.0
H2501 H 0.47037 0.50412 0.87068 0.0
H2502 H 0.44071 0.50064 0.80534 0.0
H2503 H 0.45524 0.49742 0.82566 0.0
H2504 H 0.44223 0.46519 0.85336 0.0
C2505 C 0.46985 0.47217 0.89683 0.0
C2506 C 0.46447 0.49545 0.86693 0.0
C2507 C 0.47835 0.47022 0.90827 0.0
C2508 C 0.4363 0.49606 0.81445 0.0
C2509 C 0.44457 0.49431 0.82608 0.0
C2510 C 0.44833 0.47374 0.85711 0.0
C2511 C 0.47399 0.48067 0.88593 0.0
C2512 C 0.46497 0.48268 0.87367 0.0
C2513 C 0.43917 0.48841 0.83806 0.0
C2514 C 0.44799 0.48645 0.85034 0.0
H2515 H 0.50493 0.49091 0.89877 0.0
H2516 H 0.4905 0.49371 0.87859 0.0
H2517 H 0.45707 0.46179 0.8733 0.0
H2518 H 0.40634 0.48316 0.82706 0.0
H2519 H 0.4209 0.47988 0.84738 0.0
C2520 C 0.73231 0.73308 0.15665 0.0
C2521 C 0.72441 0.74505 0.15536 0.0
C2522 C 0.7343 0.72445 0.14536 0.0
C2523 C 0.73397 0.72388 0.10761 0.0
H2524 H 0.72953 0.68456 0.11206 0.0
C2525 C 0.73393 0.68678 0.06126 0.0
C2526 C 0.74034 0.674 0.06295 0.0
C2527 C 0.73198 0.69547 0.07252 0.0
C2528 C 0.731 0.69549 0.11066 0.0
H2529 H 0.71258 0.75747 0.14118 0.0
H2530 H 0.71607 0.74238 0.12142 0.0
H2531 H 0.72635 0.69972 0.13173 0.0
H2532 H 0.74996 0.6604 0.0777 0.0
H2533 H 0.74679 0.67563 0.09731 0.0
H2534 H 0.73881 0.7197 0.08661 0.0
C2535 C 0.72073 0.7397 0.13118 0.0
C2536 C 0.72914 0.70417 0.12194 0.0
C2537 C 0.71863 0.74826 0.1425 0.0
C2538 C 0.74481 0.67011 0.07612 0.0
C2539 C 0.74296 0.67884 0.08736 0.0
C2540 C 0.73593 0.71519 0.09635 0.0
C2541 C 0.72853 0.72766 0.1325 0.0
C2542 C 0.73058 0.71846 0.12053 0.0
C2543 C 0.73649 0.69163 0.08572 0.0
C2544 C 0.73445 0.70089 0.09772 0.0
H2545 H 0.7368 0.73028 0.16646 0.0
H2546 H 0.74046 0.7153 0.14666 0.0
H2547 H 0.73531 0.73483 0.10626 0.0
H2548 H 0.7302 0.68998 0.05127 0.0
H2549 H 0.72675 0.70513 0.0709 0.0
C2550 C 0.99336 0.01497 0.10322 0.0
C2551 C 0.99215 0.02675 0.09498 0.0
C2552 C 0.98478 0.01304 0.11452 0.0
C2553 C 0.96308 0.03198 0.13885 0.0
H2554 H 0.94682 0.9963 0.14584 0.0
C2555 C 0.92162 0.02393 0.18019 0.0
C2556 C 0.92227 0.01187 0.18809 0.0
C2557 C 0.93016 0.02569 0.16884 0.0
C2558 C 0.95142 0.00629 0.14414 0.0
H2559 H 0.98072 0.0456 0.092 0.0
H2560 H 0.96585 0.04228 0.11178 0.0
H2561 H 0.96171 0.99941 0.12602 0.0
H2562 H 0.93236 0.99216 0.19014 0.0
H2563 H 0.94749 0.99539 0.17057 0.0
H2564 H 0.95291 0.03886 0.15701 0.0
C2565 C 0.97356 0.03462 0.1096 0.0
C2566 C 0.95993 0.00807 0.13277 0.0
C2567 C 0.9821 0.03652 0.09827 0.0
C2568 C 0.93169 0.00164 0.18438 0.0
C2569 C 0.94025 0.00342 0.17305 0.0
C2570 C 0.95462 0.03019 0.15026 0.0
C2571 C 0.97482 0.02288 0.11787 0.0
C2572 C 0.96583 0.02095 0.12998 0.0
C2573 C 0.93958 0.01545 0.16512 0.0
C2574 C 0.94866 0.01733 0.15303 0.0
H2575 H 0.00112 0.00734 0.1011 0.0
H2576 H 0.98611 0.00397 0.1208 0.0
H2577 H 0.96765 0.04198 0.1371 0.0
H2578 H 0.91459 0.03208 0.18284 0.0
H2579 H 0.92925 0.03502 0.16288 0.0
C2580 C 0.26877 0.77319 0.15936 0.0
C2581 C 0.2741 0.75992 0.15746 0.0
C2582 C 0.26668 0.7819 0.14814 0.0
C2583 C 0.26134 0.78189 0.11077 0.0
H2584 H 0.27394 0.81966 0.11283 0.0
C2585 C 0.24848 0.82241 0.06927 0.0
C2586 C 0.25946 0.83065 0.06478 0.0
C2587 C 0.24999 0.81383 0.08067 0.0
C2588 C 0.2704 0.80913 0.1121 0.0
H2589 H 0.28155 0.74553 0.14219 0.0
H2590 H 0.27761 0.76063 0.12264 0.0
H2591 H 0.27707 0.80449 0.13258 0.0
H2592 H 0.28073 0.83611 0.06875 0.0
H2593 H 0.28323 0.82135 0.08879 0.0
H2594 H 0.25472 0.78651 0.09026 0.0
C2595 C 0.27497 0.76422 0.13282 0.0
C2596 C 0.27209 0.80049 0.12343 0.0
C2597 C 0.27719 0.75556 0.14404 0.0
C2598 C 0.27197 0.83012 0.07204 0.0
C2599 C 0.27343 0.82164 0.08351 0.0
C2600 C 0.25952 0.79057 0.09949 0.0
C2601 C 0.26975 0.7775 0.13476 0.0
C2602 C 0.26765 0.78676 0.12285 0.0
C2603 C 0.26247 0.81338 0.08792 0.0
C2604 C 0.26411 0.80426 0.10001 0.0
H2605 H 0.26604 0.77682 0.1695 0.0
H2606 H 0.26248 0.79203 0.14992 0.0
H2607 H 0.25772 0.77138 0.11007 0.0
H2608 H 0.23863 0.82271 0.06409 0.0
H2609 H 0.24132 0.80769 0.08394 0.0
C2610 C 0.0234 0.46992 0.0956 0.0
C2611 C 0.01047 0.47627 0.09515 0.0
C2612 C 0.03225 0.47201 0.10676 0.0
C2613 C 0.03824 0.49507 0.13682 0.0
H2614 H 0.06081 0.4649 0.14954 0.0
C2615 C 0.06696 0.49514 0.18899 0.0
C2616 C 0.08082 0.4913 0.18862 0.0
C2617 C 0.05862 0.49356 0.17737 0.0
C2618 C 0.05463 0.47343 0.14603 0.0
H2619 H 0.99686 0.48999 0.10614 0.0
H2620 H 0.01193 0.49304 0.12584 0.0
H2621 H 0.04566 0.46158 0.1298 0.0
H2622 H 0.09682 0.48265 0.17593 0.0
H2623 H 0.08214 0.47966 0.15563 0.0
H2624 H 0.04698 0.50674 0.1534 0.0
C2625 C 0.01541 0.48669 0.11742 0.0
C2626 C 0.04599 0.47157 0.13467 0.0
C2627 C 0.00664 0.48475 0.10618 0.0
C2628 C 0.08618 0.48576 0.17645 0.0
C2629 C 0.07778 0.48398 0.16489 0.0
C2630 C 0.04674 0.49685 0.1483 0.0
C2631 C 0.02835 0.48036 0.11786 0.0
C2632 C 0.03767 0.48237 0.1299 0.0
C2633 C 0.06394 0.48791 0.16523 0.0
C2634 C 0.05502 0.48605 0.15299 0.0
H2635 H 0.02667 0.46318 0.0874 0.0
H2636 H 0.0422 0.46711 0.1066 0.0
H2637 H 0.03222 0.50371 0.13332 0.0
H2638 H 0.06261 0.49952 0.19822 0.0
H2639 H 0.04796 0.49659 0.17792 0.0
C2640 C 0.3489 0.7176 0.26957 0.0
C2641 C 0.34638 0.72644 0.25845 0.0
C2642 C 0.3602 0.71972 0.27821 0.0
C2643 C 0.38528 0.74617 0.28922 0.0
H2644 H 0.40599 0.71472 0.30197 0.0
C2645 C 0.43652 0.75137 0.31916 0.0
C2646 C 0.43838 0.74257 0.33046 0.0
C2647 C 0.42537 0.74958 0.31024 0.0
C2648 C 0.40023 0.7236 0.29861 0.0
H2649 H 0.35385 0.74437 0.24759 0.0
H2650 H 0.37364 0.74804 0.26264 0.0
H2651 H 0.38644 0.71127 0.28663 0.0
H2652 H 0.43005 0.72491 0.34114 0.0
H2653 H 0.41051 0.7219 0.32569 0.0
H2654 H 0.39912 0.75849 0.3012 0.0
C2655 C 0.36674 0.73959 0.26481 0.0
C2656 C 0.38902 0.72162 0.28982 0.0
C2657 C 0.35541 0.73748 0.25618 0.0
C2658 C 0.42884 0.73195 0.33262 0.0
C2659 C 0.41773 0.73013 0.32368 0.0
C2660 C 0.39652 0.74814 0.29799 0.0
C2661 C 0.36928 0.73072 0.27591 0.0
C2662 C 0.38136 0.73288 0.28507 0.0
C2663 C 0.41587 0.7389 0.31237 0.0
C2664 C 0.40408 0.73687 0.30284 0.0
H2665 H 0.34201 0.70914 0.27174 0.0
H2666 H 0.3617 0.71284 0.28681 0.0
H2667 H 0.37949 0.75505 0.2859 0.0
H2668 H 0.44363 0.75973 0.31729 0.0
H2669 H 0.42428 0.75644 0.30156 0.0
C2670 C 0.96882 0.39483 0.99524 0.0
C2671 C 0.97629 0.40701 0.99313 0.0
C2672 C 0.97099 0.38334 0.98694 0.0
C2673 C 0.98514 0.373 0.95328 0.0
H2674 H 0.98476 0.33661 0.96939 0.0
C2675 C 0.00055 0.32459 0.92282 0.0
C2676 C 0.99207 0.31297 0.92425 0.0
C2677 C 0.99891 0.33599 0.93138 0.0
C2678 C 0.98478 0.3467 0.96473 0.0
H2679 H 0.99188 0.41665 0.98054 0.0
H2680 H 0.99594 0.39649 0.9663 0.0
H2681 H 0.98147 0.35666 0.98402 0.0
H2682 H 0.97518 0.30429 0.93581 0.0
H2683 H 0.97243 0.32413 0.95084 0.0
H2684 H 0.98853 0.363 0.93399 0.0
C2685 C 0.98824 0.39588 0.97426 0.0
C2686 C 0.98287 0.35819 0.9731 0.0
C2687 C 0.98604 0.40739 0.98254 0.0
C2688 C 0.98202 0.31297 0.93456 0.0
C2689 C 0.98042 0.32435 0.94316 0.0
C2690 C 0.98711 0.3615 0.94492 0.0
C2691 C 0.98073 0.38371 0.97635 0.0
C2692 C 0.98297 0.37149 0.96747 0.0
C2693 C 0.9888 0.33601 0.94161 0.0
C2694 C 0.98691 0.34822 0.95054 0.0
H2695 H 0.96135 0.39411 0.00341 0.0
H2696 H 0.9649 0.3742 0.98874 0.0
H2697 H 0.98506 0.38306 0.94856 0.0
H2698 H 0.00857 0.32484 0.91517 0.0
H2699 H 0.00567 0.34474 0.93008 0.0
C2700 C 0.64186 0.78124 0.25473 0.0
C2701 C 0.65444 0.77499 0.25795 0.0
C2702 C 0.63044 0.77932 0.26313 0.0
C2703 C 0.61606 0.75612 0.28933 0.0
H2704 H 0.5933 0.78738 0.29839 0.0
C2705 C 0.57421 0.75358 0.33099 0.0
C2706 C 0.5618 0.76046 0.32843 0.0
C2707 C 0.58535 0.75517 0.32215 0.0
C2708 C 0.59944 0.77851 0.29582 0.0
H2709 H 0.66484 0.76167 0.27244 0.0
H2710 H 0.64494 0.75843 0.28721 0.0
H2711 H 0.61303 0.79048 0.28342 0.0
H2712 H 0.55141 0.77443 0.31454 0.0
H2713 H 0.57075 0.77697 0.29896 0.0
H2714 H 0.60246 0.74414 0.3017 0.0
C2715 C 0.64389 0.76475 0.27812 0.0
C2716 C 0.61076 0.78029 0.28725 0.0
C2717 C 0.65533 0.76672 0.26975 0.0
C2718 C 0.56077 0.76889 0.31675 0.0
C2719 C 0.57191 0.77047 0.30791 0.0
C2720 C 0.60472 0.75433 0.29787 0.0
C2721 C 0.63133 0.77106 0.27493 0.0
C2722 C 0.61922 0.76913 0.28393 0.0
C2723 C 0.58435 0.76367 0.31053 0.0
C2724 C 0.59629 0.76551 0.30125 0.0
H2725 H 0.64088 0.78779 0.24579 0.0
H2726 H 0.62088 0.78422 0.26032 0.0
H2727 H 0.62226 0.74728 0.2868 0.0
H2728 H 0.5753 0.74688 0.33979 0.0
H2729 H 0.59481 0.74989 0.32456 0.0
C2730 C 0.03319 0.10889 0.99677 0.0
C2731 C 0.02714 0.09615 0.99362 0.0
C2732 C 0.03109 0.12023 0.98826 0.0
C2733 C 0.02016 0.12966 0.95298 0.0
H2734 H 0.01541 0.16575 0.96913 0.0
C2735 C 0.00349 0.17677 0.92113 0.0
C2736 C 0.01068 0.1891 0.92354 0.0
C2737 C 0.00533 0.16547 0.92976 0.0
C2738 C 0.01684 0.15575 0.96447 0.0
H2739 H 0.01395 0.08537 0.97918 0.0
H2740 H 0.01012 0.10519 0.96439 0.0
H2741 H 0.01887 0.14593 0.98401 0.0
H2742 H 0.0255 0.19913 0.93694 0.0
H2743 H 0.02856 0.17945 0.95209 0.0
H2744 H 0.01799 0.13951 0.93344 0.0
C2745 C 0.01674 0.10637 0.97329 0.0
C2746 C 0.01885 0.14439 0.97299 0.0
C2747 C 0.01891 0.09501 0.98177 0.0
C2748 C 0.01964 0.18988 0.93489 0.0
C2749 C 0.02142 0.1786 0.94356 0.0
C2750 C 0.01807 0.14101 0.94447 0.0
C2751 C 0.02282 0.11912 0.97642 0.0
C2752 C 0.02057 0.13121 0.96735 0.0
C2753 C 0.01434 0.16625 0.94105 0.0
C2754 C 0.01642 0.15418 0.95012 0.0
H2755 H 0.03974 0.11004 0.00573 0.0
H2756 H 0.03613 0.12983 0.99085 0.0
H2757 H 0.02168 0.11971 0.94827 0.0
H2758 H 0.99631 0.17587 0.91265 0.0
H2759 H 0.99958 0.15615 0.92768 0.0
C2760 C 0.34545 0.26803 0.23304 0.0
C2761 C 0.34648 0.27577 0.2452 0.0
C2762 C 0.35693 0.26599 0.22476 0.0
C2763 C 0.39085 0.28065 0.21681 0.0
H2764 H 0.39777 0.24484 0.20092 0.0
C2765 C 0.4406 0.26871 0.18721 0.0
C2766 C 0.43933 0.26077 0.17519 0.0
C2767 C 0.42946 0.27032 0.19605 0.0
C2768 C 0.39591 0.25494 0.20515 0.0
H2769 H 0.36037 0.28753 0.25816 0.0
H2770 H 0.38046 0.28386 0.24378 0.0
H2771 H 0.37793 0.24809 0.21571 0.0
H2772 H 0.42537 0.24807 0.16321 0.0
H2773 H 0.40588 0.25116 0.17841 0.0
H2774 H 0.40873 0.28756 0.20616 0.0
C2775 C 0.37074 0.27943 0.24061 0.0
C2776 C 0.38454 0.2568 0.21364 0.0
C2777 C 0.35927 0.28141 0.24891 0.0
C2778 C 0.42667 0.2544 0.17228 0.0
C2779 C 0.41553 0.25603 0.1811 0.0
C2780 C 0.40219 0.27881 0.20829 0.0
C2781 C 0.3697 0.2717 0.22843 0.0
C2782 C 0.38187 0.26968 0.21954 0.0
C2783 C 0.41678 0.26404 0.19307 0.0
C2784 C 0.40484 0.26594 0.20233 0.0
H2785 H 0.33577 0.26344 0.22996 0.0
H2786 H 0.35577 0.2601 0.21538 0.0
H2787 H 0.38896 0.29076 0.22105 0.0
H2788 H 0.45016 0.27386 0.18971 0.0
H2789 H 0.43082 0.27644 0.20526 0.0
C2790 C 0.51407 0.40024 0.01009 0.0
C2791 C 0.5228 0.41096 0.01432 0.0
C2792 C 0.51221 0.38871 0.0184 0.0
C2793 C 0.51383 0.37681 0.0539 0.0
H2794 H 0.51867 0.34067 0.03794 0.0
C2795 C 0.51447 0.32792 0.08738 0.0
C2796 C 0.50884 0.31583 0.08183 0.0
C2797 C 0.51613 0.33958 0.07919 0.0
C2798 C 0.51704 0.35065 0.04254 0.0
H2799 H 0.53619 0.41821 0.03065 0.0
H2800 H 0.53272 0.3981 0.04533 0.0
H2801 H 0.52122 0.36098 0.02359 0.0
H2802 H 0.5002 0.30651 0.0635 0.0
H2803 H 0.50261 0.32695 0.0493 0.0
H2804 H 0.50927 0.36658 0.07275 0.0
C2805 C 0.52742 0.3986 0.03554 0.0
C2806 C 0.51857 0.36228 0.03431 0.0
C2807 C 0.52946 0.41004 0.02713 0.0
C2808 C 0.50475 0.31565 0.06798 0.0
C2809 C 0.5062 0.32737 0.05984 0.0
C2810 C 0.51208 0.36517 0.0621 0.0
C2811 C 0.51886 0.38778 0.0312 0.0
C2812 C 0.51703 0.37547 0.03992 0.0
C2813 C 0.51198 0.33948 0.06531 0.0
C2814 C 0.51371 0.35192 0.05655 0.0
H2815 H 0.50889 0.40067 0.00022 0.0
H2816 H 0.5055 0.38053 0.01486 0.0
H2817 H 0.51245 0.38687 0.05844 0.0
H2818 H 0.51784 0.32827 0.098 0.0
H2819 H 0.52085 0.3486 0.08372 0.0
C2820 C 0.65778 0.23612 0.23024 0.0
C2821 C 0.65717 0.22695 0.24136 0.0
C2822 C 0.64626 0.23833 0.22193 0.0
C2823 C 0.61301 0.2227 0.21195 0.0
H2824 H 0.60465 0.25942 0.19912 0.0
C2825 C 0.56226 0.23558 0.18412 0.0
C2826 C 0.56314 0.24406 0.17248 0.0
C2827 C 0.57365 0.23369 0.19268 0.0
C2828 C 0.60692 0.24909 0.20252 0.0
H2829 H 0.64392 0.21308 0.25261 0.0
H2830 H 0.6238 0.21697 0.23818 0.0
H2831 H 0.62468 0.25571 0.21376 0.0
H2832 H 0.5766 0.25744 0.16088 0.0
H2833 H 0.59653 0.25402 0.17574 0.0
H2834 H 0.59523 0.21609 0.20074 0.0
C2835 C 0.63325 0.22228 0.23571 0.0
C2836 C 0.61841 0.24695 0.21089 0.0
C2837 C 0.64477 0.22005 0.244 0.0
C2838 C 0.57563 0.25073 0.16969 0.0
C2839 C 0.587 0.24888 0.17828 0.0
C2840 C 0.60151 0.22484 0.20361 0.0
C2841 C 0.63385 0.23143 0.22457 0.0
C2842 C 0.6216 0.23373 0.2157 0.0
C2843 C 0.58616 0.24028 0.18983 0.0
C2844 C 0.59834 0.23805 0.19879 0.0
H2845 H 0.66723 0.24145 0.22782 0.0
H2846 H 0.64715 0.24527 0.2133 0.0
H2847 H 0.61529 0.21235 0.21528 0.0
H2848 H 0.55283 0.2302 0.18649 0.0
H2849 H 0.57263 0.22711 0.20158 0.0
C2850 C 0.48689 0.10485 0.00742 0.0
C2851 C 0.47553 0.09604 0.00892 0.0
C2852 C 0.48848 0.11632 0.01593 0.0
C2853 C 0.46905 0.13977 0.03831 0.0
H2854 H 0.5049 0.1488 0.05328 0.0
C2855 C 0.47684 0.18133 0.08003 0.0
C2856 C 0.48834 0.18998 0.07885 0.0
C2857 C 0.47525 0.16995 0.0714 0.0
C2858 C 0.49485 0.14652 0.04905 0.0
H2859 H 0.45689 0.09248 0.02045 0.0
H2860 H 0.45977 0.11239 0.03542 0.0
H2861 H 0.50221 0.12877 0.03844 0.0
H2862 H 0.50726 0.19338 0.06769 0.0
H2863 H 0.50435 0.17369 0.05245 0.0
H2864 H 0.46168 0.15752 0.0489 0.0
C2865 C 0.46739 0.11048 0.02759 0.0
C2866 C 0.49331 0.13503 0.04055 0.0
C2867 C 0.46582 0.09898 0.01912 0.0
C2868 C 0.4982 0.18701 0.06879 0.0
C2869 C 0.49661 0.17563 0.06016 0.0
C2870 C 0.47059 0.15126 0.04679 0.0
C2871 C 0.47874 0.11928 0.02609 0.0
C2872 C 0.48039 0.13152 0.03509 0.0
C2873 C 0.48514 0.16694 0.06138 0.0
C2874 C 0.48351 0.15477 0.05228 0.0
H2875 H 0.49462 0.1028 0.99975 0.0
H2876 H 0.49727 0.12297 0.01442 0.0
H2877 H 0.459 0.13746 0.0341 0.0
H2878 H 0.46898 0.1834 0.08758 0.0
H2879 H 0.46636 0.16339 0.07271 0.0
C2880 C 0.25506 0.35979 0.72445 0.0
C2881 C 0.2586 0.34668 0.72929 0.0
C2882 C 0.26367 0.37104 0.72688 0.0
C2883 C 0.29954 0.38004 0.73544 0.0
H2884 H 0.28399 0.41542 0.74473 0.0
C2885 C 0.33324 0.42642 0.75108 0.0
C2886 C 0.32974 0.4392 0.74538 0.0
C2887 C 0.32446 0.41513 0.74966 0.0
C2888 C 0.28848 0.40564 0.74203 0.0
H2889 H 0.27386 0.33515 0.74069 0.0
H2890 H 0.28888 0.3548 0.74496 0.0
H2891 H 0.26888 0.39569 0.74126 0.0
H2892 H 0.31424 0.45009 0.73365 0.0
H2893 H 0.29891 0.4304 0.73122 0.0
H2894 H 0.31913 0.38999 0.73616 0.0
C2895 C 0.27954 0.35634 0.7391 0.0
C2896 C 0.27982 0.39433 0.74003 0.0
C2897 C 0.27093 0.34508 0.73665 0.0
C2898 C 0.31717 0.44045 0.73835 0.0
C2899 C 0.30838 0.42917 0.73695 0.0
C2900 C 0.30819 0.39134 0.73745 0.0
C2901 C 0.27602 0.36945 0.73422 0.0
C2902 C 0.28525 0.38141 0.73665 0.0
C2903 C 0.31195 0.41636 0.74253 0.0
C2904 C 0.30276 0.40428 0.74071 0.0
H2905 H 0.24574 0.36132 0.71855 0.0
H2906 H 0.26076 0.38095 0.72278 0.0
H2907 H 0.30404 0.37028 0.73264 0.0
H2908 H 0.34274 0.42516 0.75676 0.0
H2909 H 0.32741 0.40546 0.75427 0.0
C2910 C 0.25515 0.64365 0.7806 0.0
C2911 C 0.25844 0.65624 0.77435 0.0
C2912 C 0.26352 0.63219 0.77879 0.0
C2913 C 0.28973 0.61768 0.75583 0.0
H2914 H 0.29861 0.59487 0.78724 0.0
C2915 C 0.33111 0.57552 0.75359 0.0
C2916 C 0.32852 0.56313 0.76052 0.0
C2917 C 0.32235 0.58673 0.75512 0.0
C2918 C 0.29609 0.60102 0.77833 0.0
H2919 H 0.27301 0.66659 0.76114 0.0
H2920 H 0.28772 0.64661 0.75809 0.0
H2921 H 0.28371 0.61469 0.79018 0.0
H2922 H 0.31464 0.55285 0.77453 0.0
H2923 H 0.29918 0.5723 0.77695 0.0
H2924 H 0.30206 0.604 0.74396 0.0
C2925 C 0.27861 0.64559 0.76433 0.0
C2926 C 0.28756 0.61239 0.78002 0.0
C2927 C 0.27026 0.65708 0.76619 0.0
C2928 C 0.31688 0.5622 0.76894 0.0
C2929 C 0.3081 0.57341 0.77046 0.0
C2930 C 0.29822 0.60628 0.75413 0.0
C2931 C 0.27535 0.63303 0.77064 0.0
C2932 C 0.28431 0.62087 0.7688 0.0
C2933 C 0.31075 0.58583 0.7636 0.0
C2934 C 0.30154 0.59783 0.76536 0.0
H2935 H 0.24618 0.6427 0.78706 0.0
H2936 H 0.26067 0.62263 0.78369 0.0
H2937 H 0.28725 0.6239 0.74695 0.0
H2938 H 0.33988 0.57654 0.74688 0.0
H2939 H 0.32479 0.59618 0.7498 0.0
C2940 C 0.8962 0.49608 0.48298 0.0
C2941 C 0.90739 0.49161 0.47518 0.0
C2942 C 0.88484 0.48752 0.48492 0.0
C2943 C 0.86816 0.45577 0.47112 0.0
H2944 H 0.848 0.4576 0.50531 0.0
C2945 C 0.82683 0.41615 0.48741 0.0
C2946 C 0.8142 0.42181 0.4913 0.0
C2947 C 0.83824 0.42462 0.48536 0.0
C2948 C 0.85352 0.45705 0.4957 0.0
H2949 H 0.9157 0.47467 0.46351 0.0
H2950 H 0.89618 0.45945 0.46735 0.0
H2951 H 0.86809 0.47221 0.50211 0.0
H2952 H 0.80359 0.44064 0.49632 0.0
H2953 H 0.8237 0.45545 0.49307 0.0
H2954 H 0.85375 0.44021 0.46499 0.0
C2955 C 0.89587 0.46971 0.47161 0.0
C2956 C 0.86499 0.46547 0.4938 0.0
C2957 C 0.90711 0.47838 0.46946 0.0
C2958 C 0.81321 0.43606 0.49325 0.0
C2959 C 0.82469 0.44449 0.49147 0.0
C2960 C 0.85685 0.44717 0.47313 0.0
C2961 C 0.88453 0.47418 0.47931 0.0
C2962 C 0.87243 0.46502 0.48144 0.0
C2963 C 0.83728 0.43885 0.48745 0.0
C2964 C 0.84939 0.4478 0.4854 0.0
H2965 H 0.89612 0.50631 0.48736 0.0
H2966 H 0.87623 0.49147 0.49066 0.0
H2967 H 0.87342 0.45528 0.46136 0.0
H2968 H 0.82781 0.40519 0.48578 0.0
H2969 H 0.84786 0.42003 0.48232 0.0
C2970 C 0.74158 0.84989 0.7609 0.0
C2971 C 0.74129 0.84245 0.77325 0.0
C2972 C 0.73296 0.86118 0.759 0.0
C2973 C 0.71493 0.88781 0.77787 0.0
H2974 H 0.69236 0.89125 0.74514 0.0
C2975 C 0.67469 0.93069 0.77265 0.0
C2976 C 0.6724 0.9365 0.75961 0.0
C2977 C 0.683 0.91913 0.77416 0.0
C2978 C 0.69875 0.8906 0.75425 0.0
H2979 H 0.73189 0.84098 0.79332 0.0
H2980 H 0.71696 0.86088 0.79008 0.0
H2981 H 0.70716 0.87129 0.74792 0.0
H2982 H 0.67712 0.93453 0.73792 0.0
H2983 H 0.69215 0.91489 0.74066 0.0
H2984 H 0.70695 0.90723 0.78409 0.0
C2985 C 0.72378 0.85791 0.78186 0.0
C2986 C 0.70717 0.87911 0.75585 0.0
C2987 C 0.73223 0.84649 0.78367 0.0
C2988 C 0.67877 0.93049 0.74815 0.0
C2989 C 0.68724 0.91904 0.7497 0.0
C2990 C 0.70668 0.89939 0.77619 0.0
C2991 C 0.72408 0.86536 0.76952 0.0
C2992 C 0.71527 0.87758 0.76771 0.0
C2993 C 0.68944 0.91317 0.76272 0.0
C2994 C 0.69841 0.90092 0.76439 0.0
H2995 H 0.74843 0.84694 0.75269 0.0
H2996 H 0.73342 0.8668 0.74942 0.0
H2997 H 0.72122 0.88696 0.78704 0.0
H2998 H 0.67016 0.93511 0.78176 0.0
H2999 H 0.68426 0.91482 0.78433 0.0
C3000 C 0.60077 0.51159 0.99148 0.0
C3001 C 0.59208 0.51356 0.98007 0.0
C3002 C 0.61219 0.52007 0.99356 0.0
C3003 C 0.62672 0.55385 0.98427 0.0
H3004 H 0.66125 0.5373 0.99504 0.0
C3005 C 0.67452 0.58611 0.99912 0.0
C3006 C 0.68714 0.58169 0.9938 0.0
C3007 C 0.66279 0.57788 0.99783 0.0
C3008 C 0.6517 0.54207 0.99197 0.0
H3009 H 0.58844 0.52614 0.96207 0.0
H3010 H 0.60847 0.54084 0.96561 0.0
H3011 H 0.64099 0.52285 0.99189 0.0
H3012 H 0.69738 0.56508 0.98318 0.0
H3013 H 0.6769 0.55082 0.98079 0.0
H3014 H 0.6375 0.57304 0.98412 0.0
C3015 C 0.6064 0.53279 0.97299 0.0
C3016 C 0.64006 0.53381 0.99031 0.0
C3017 C 0.59501 0.52428 0.97088 0.0
C3018 C 0.68779 0.56884 0.98726 0.0
C3019 C 0.67609 0.5606 0.98603 0.0
C3020 C 0.63835 0.56212 0.98599 0.0
C3021 C 0.61515 0.53075 0.98432 0.0
C3022 C 0.62745 0.53959 0.98638 0.0
C3023 C 0.66345 0.56504 0.99127 0.0
C3024 C 0.65099 0.55631 0.98979 0.0
H3025 H 0.59886 0.50335 0.99868 0.0
H3026 H 0.61866 0.51832 0.00246 0.0
H3027 H 0.61713 0.55863 0.98137 0.0
H3028 H 0.67366 0.59601 0.00411 0.0
H3029 H 0.65323 0.58154 0.00209 0.0
C3030 C 0.23218 0.6569 0.23472 0.0
C3031 C 0.244 0.65602 0.22657 0.0
C3032 C 0.22386 0.64538 0.23678 0.0
C3033 C 0.21504 0.61171 0.22175 0.0
H3034 H 0.2008 0.6039 0.25804 0.0
C3035 C 0.18625 0.5613 0.23395 0.0
C3036 C 0.17463 0.56224 0.24238 0.0
C3037 C 0.19492 0.57261 0.23218 0.0
C3038 C 0.20456 0.60601 0.24781 0.0
H3039 H 0.25627 0.64238 0.21406 0.0
H3040 H 0.24183 0.62223 0.21776 0.0
H3041 H 0.21541 0.62395 0.25459 0.0
H3042 H 0.16319 0.57577 0.2558 0.0
H3043 H 0.17811 0.59557 0.25246 0.0
H3044 H 0.20411 0.59385 0.21493 0.0
C3045 C 0.23896 0.63186 0.2225 0.0
C3046 C 0.21295 0.6175 0.24584 0.0
C3047 C 0.2473 0.64336 0.2205 0.0
C3048 C 0.17195 0.57473 0.24909 0.0
C3049 C 0.18061 0.58604 0.24731 0.0
C3050 C 0.20662 0.60024 0.22371 0.0
C3051 C 0.22715 0.63273 0.23067 0.0
C3052 C 0.21827 0.62049 0.23278 0.0
C3053 C 0.19218 0.58514 0.23881 0.0
C3054 C 0.20127 0.59726 0.23676 0.0
H3055 H 0.22942 0.66648 0.23964 0.0
H3056 H 0.21476 0.64641 0.24302 0.0
H3057 H 0.21882 0.61384 0.21152 0.0
H3058 H 0.18855 0.55187 0.22853 0.0
H3059 H 0.20384 0.57151 0.22569 0.0
C3060 C 0.90276 0.51887 0.03793 0.0
C3061 C 0.90588 0.50863 0.02824 0.0
C3062 C 0.89138 0.52735 0.03608 0.0
C3063 C 0.8678 0.54042 0.00948 0.0
H3064 H 0.84425 0.54861 0.04039 0.0
C3065 C 0.81638 0.56886 0.00283 0.0
C3066 C 0.81297 0.57873 0.01278 0.0
C3067 C 0.82763 0.56021 0.00477 0.0
C3068 C 0.85081 0.54656 0.03169 0.0
H3069 H 0.89932 0.4992 0.00908 0.0
H3070 H 0.87952 0.51409 0.0058 0.0
H3071 H 0.8641 0.53379 0.04366 0.0
H3072 H 0.81864 0.58709 0.0327 0.0
H3073 H 0.83845 0.57225 0.03593 0.0
H3074 H 0.8546 0.55327 0.99752 0.0
C3075 C 0.88599 0.51564 0.01476 0.0
C3076 C 0.86218 0.53806 0.03356 0.0
C3077 C 0.89735 0.50712 0.01663 0.0
C3078 C 0.82106 0.57971 0.02475 0.0
C3079 C 0.83233 0.57108 0.02668 0.0
C3080 C 0.85647 0.54897 0.00762 0.0
C3081 C 0.88287 0.52584 0.02447 0.0
C3082 C 0.8708 0.53488 0.02248 0.0
C3083 C 0.83576 0.56124 0.0167 0.0
C3084 C 0.84782 0.55214 0.01869 0.0
H3085 H 0.90924 0.52047 0.04687 0.0
H3086 H 0.88936 0.53525 0.04364 0.0
H3087 H 0.87436 0.53833 0.00078 0.0
H3088 H 0.81047 0.56792 0.99342 0.0
H3089 H 0.82989 0.55265 0.99694 0.0
C3090 C 0.09488 0.98287 0.01541 0.0
C3091 C 0.09482 0.99249 0.02622 0.0
C3092 C 0.10623 0.97442 0.0133 0.0
C3093 C 0.13586 0.95947 0.03105 0.0
H3094 H 0.15068 0.95495 0.99444 0.0
C3095 C 0.18681 0.93116 0.0217 0.0
C3096 C 0.18785 0.92286 0.00992 0.0
C3097 C 0.1755 0.9397 0.02359 0.0
C3098 C 0.14657 0.95593 0.00471 0.0
H3099 H 0.10687 0.00087 0.04311 0.0
H3100 H 0.1265 0.98589 0.03959 0.0
H3101 H 0.13074 0.96957 0.99791 0.0
H3102 H 0.17776 0.91724 0.99077 0.0
H3103 H 0.15781 0.93169 0.99431 0.0
H3104 H 0.15145 0.94566 0.03787 0.0
C3105 C 0.1177 0.98486 0.03283 0.0
C3106 C 0.13517 0.96434 0.00668 0.0
C3107 C 0.10641 0.99341 0.03486 0.0
C3108 C 0.17724 0.92333 1.00007 0.0
C3109 C 0.16587 0.93179 0.00201 0.0
C3110 C 0.14717 0.95094 0.02907 0.0
C3111 C 0.11773 0.97529 0.02202 0.0
C3112 C 0.12973 0.96624 0.01988 0.0
C3113 C 0.16485 0.9401 0.01379 0.0
C3114 C 0.15272 0.9491 0.01588 0.0
H3115 H 0.08607 0.9817 0.00869 0.0
H3116 H 0.10592 0.96702 0.00498 0.0
H3117 H 0.13177 0.9606 0.04132 0.0
H3118 H 0.19468 0.93095 0.0296 0.0
H3119 H 0.17517 0.94608 0.0327 0.0
loop_
_geom_bond_atom_site_label_1
_geom_bond_atom_site_label_2
_geom_bond_distance
_geom_bond_site_symmetry_2
_ccdc_geom_bond_type
C0 C1 1.386 . S
C0 C2 1.387 1_556 S
C0 H24 0.931 . S
C1 C0 1.386 . S
C1 C5 1.397 1_556 S
C2 C0 1.387 1_554 S
C2 C3 1.401 . S
C2 H25 0.924 1_554 S
C3 C2 1.401 . S
C3 C4 1.377 . S
C3 C6 1.481 . S
C4 C3 1.377 . S
C4 C5 1.389 . S
C4 H26 0.929 . S
C5 C1 1.397 1_554 S
C5 C4 1.389 . S
C5 H27 0.931 . S
C6 C3 1.481 . S
C6 C7 1.387 . S
C6 C11 1.390 . S
C7 C6 1.387 . S
C7 C8 1.401 . S
C7 H28 0.930 . S
C8 C7 1.401 . S
C8 C9 1.376 . S
C8 C17 1.511 . S
C9 C8 1.376 . S
C9 C10 1.392 . S
C9 H30 0.931 . S
C10 C9 1.392 . S
C10 C11 1.361 . S
C10 C12 1.500 . S
C11 C6 1.390 . S
C11 C10 1.361 . S
C11 H29 0.931 . S
C12 C10 1.500 . S
C12 C13 1.371 . S
C12 C14 1.365 . S
C13 C12 1.371 . S
C13 C23 1.386 . S
C13 H31 0.931 . S
C14 C12 1.365 . S
C14 C15 1.353 1_455 S
C14 H32 0.929 . S
C15 C14 1.353 1_655 S
C15 C16 1.399 . S
C15 H33 0.974 . S
C16 C15 1.399 . S
C16 C23 1.357 1_655 S
C17 C8 1.511 . S
C17 C18 1.341 . S
C17 C19 1.371 . S
C18 C17 1.341 . S
C18 C22 1.394 . S
C18 H34 0.930 . S
C19 C17 1.371 . S
C19 C20 1.392 1_545 S
C19 H35 0.931 . S
C20 C19 1.392 1_565 S
C20 C21 1.331 . S
C20 H38 0.932 . S
C21 C20 1.331 . S
C21 C22 1.336 1_565 S
C22 C18 1.394 . S
C22 C21 1.336 1_545 S
C22 H37 0.929 . S
C23 C13 1.386 . S
C23 C16 1.357 1_455 S
C23 H36 0.928 . S
H24 C0 0.931 . S
H25 C2 0.924 1_556 S
H26 C4 0.929 . S
H27 C5 0.931 . S
H28 C7 0.930 . S
H29 C11 0.931 . S
H30 C9 0.931 . S
H31 C13 0.931 . S
H32 C14 0.929 . S
H33 C15 0.974 . S
H34 C18 0.930 . S
H35 C19 0.931 . S
H36 C23 0.928 . S
H37 C22 0.929 . S
H38 C20 0.932 . S
C39 C40 1.386 . S
C39 C41 1.397 . S
C39 H63 0.931 . S
C40 C39 1.386 . S
C40 C44 1.397 . S
C41 C39 1.397 . S
C41 C42 1.384 . S
C41 H64 0.930 . S
C42 C41 1.384 . S
C42 C43 1.377 . S
C42 C45 1.481 . S
C43 C42 1.377 . S
C43 C44 1.389 . S
C43 H65 0.929 . S
C44 C40 1.397 . S
C44 C43 1.389 . S
C44 H66 0.931 . S
C45 C42 1.481 . S
C45 C46 1.387 . S
C45 C50 1.390 . S
C46 C45 1.387 . S
C46 C47 1.401 . S
C46 H67 0.930 . S
C47 C46 1.401 . S
C47 C48 1.376 . S
C47 C56 1.511 . S
C48 C47 1.376 . S
C48 C49 1.392 . S
C48 H69 0.931 . S
C49 C48 1.392 . S
C49 C50 1.361 . S
C49 C51 1.500 . S
C50 C45 1.390 . S
C50 C49 1.361 . S
C50 H68 0.931 . S
C51 C49 1.500 . S
C51 C52 1.371 . S
C51 C53 1.365 . S
C52 C51 1.371 . S
C52 C62 1.386 . S
C52 H70 0.931 . S
C53 C51 1.365 . S
C53 C54 1.409 . S
C53 H71 0.929 . S
C54 C53 1.409 . S
C54 C55 1.380 . S
C54 H72 0.930 . S
C55 C54 1.380 . S
C55 C62 1.357 . S
C56 C47 1.511 . S
C56 C57 1.341 . S
C56 C58 1.371 . S
C57 C56 1.341 . S
C57 C61 1.394 . S
C57 H73 0.930 . S
C58 C56 1.371 . S
C58 C59 1.392 . S
C58 H74 0.931 . S
C59 C58 1.392 . S
C59 C60 1.331 . S
C59 H77 0.932 . S
C60 C59 1.331 . S
C60 C61 1.336 . S
C61 C57 1.394 . S
C61 C60 1.336 . S
C61 H76 0.929 . S
C62 C52 1.386 . S
C62 C55 1.357 . S
C62 H75 0.928 . S
H63 C39 0.931 . S
H64 C41 0.930 . S
H65 C43 0.929 . S
H66 C44 0.931 . S
H67 C46 0.930 . S
H68 C50 0.931 . S
H69 C48 0.931 . S
H70 C52 0.931 . S
H71 C53 0.929 . S
H72 C54 0.930 . S
H73 C57 0.930 . S
H74 C58 0.931 . S
H75 C62 0.928 . S
H76 C61 0.929 . S
H77 C59 0.932 . S
C78 C79 1.386 1_655 S
C78 C80 1.397 . S
C78 H102 0.931 . S
C79 C78 1.386 1_455 S
C79 C83 1.397 . S
C80 C78 1.397 . S
C80 C81 1.384 . S
C80 H103 0.930 . S
C81 C80 1.384 . S
C81 C82 1.378 1_655 S
C81 C84 1.481 . S
C82 C81 1.378 1_455 S
C82 C83 1.388 . S
C82 H104 0.929 . S
C83 C79 1.397 . S
C83 C82 1.388 . S
C83 H105 0.931 . S
C84 C81 1.481 . S
C84 C85 1.387 . S
C84 C89 1.390 . S
C85 C84 1.387 . S
C85 C86 1.401 . S
C85 H106 0.930 . S
C86 C85 1.401 . S
C86 C87 1.376 . S
C86 C95 1.511 . S
C87 C86 1.376 . S
C87 C88 1.392 . S
C87 H108 0.931 . S
C88 C87 1.392 . S
C88 C89 1.361 . S
C88 C90 1.500 . S
C89 C84 1.390 . S
C89 C88 1.361 . S
C89 H107 0.931 . S
C90 C88 1.500 . S
C90 C91 1.371 . S
C90 C92 1.365 . S
C91 C90 1.371 . S
C91 C101 1.382 1_554 S
C91 H109 0.931 . S
C92 C90 1.365 . S
C92 C93 1.409 . S
C92 H110 0.929 . S
C93 C92 1.409 . S
C93 C94 1.380 1_554 S
C93 H111 0.930 . S
C94 C93 1.380 1_556 S
C94 C101 1.358 . S
C95 C86 1.511 . S
C95 C96 1.341 . S
C95 C97 1.371 . S
C96 C95 1.341 . S
C96 C100 1.394 . S
C96 H112 0.930 . S
C97 C95 1.371 . S
C97 C98 1.392 . S
C97 H113 0.931 . S
C98 C97 1.392 . S
C98 C99 1.331 . S
C98 H116 0.932 . S
C99 C98 1.331 . S
C99 C100 1.336 . S
C100 C96 1.394 . S
C100 C99 1.336 . S
C100 H115 0.929 . S
C101 C91 1.382 1_556 S
C101 C94 1.358 . S
C101 H114 0.931 . S
H102 C78 0.931 . S
H103 C80 0.930 . S
H104 C82 0.929 . S
H105 C83 0.931 . S
H106 C85 0.930 . S
H107 C89 0.931 . S
H108 C87 0.931 . S
H109 C91 0.931 . S
H110 C92 0.929 . S
H111 C93 0.930 . S
H112 C96 0.930 . S
H113 C97 0.931 . S
H114 C101 0.931 . S
H115 C100 0.929 . S
H116 C98 0.932 . S
C117 C118 1.386 . S
C117 C119 1.397 . S
C117 H141 0.931 . S
C118 C117 1.386 . S
C118 C122 1.397 . S
C119 C117 1.397 . S
C119 C120 1.384 . S
C119 H142 0.930 . S
C120 C119 1.384 . S
C120 C121 1.377 . S
C120 C123 1.481 . S
C121 C120 1.377 . S
C121 C122 1.389 . S
C121 H143 0.929 . S
C122 C118 1.397 . S
C122 C121 1.389 . S
C122 H144 0.931 . S
C123 C120 1.481 . S
C123 C124 1.387 . S
C123 C128 1.390 . S
C124 C123 1.387 . S
C124 C125 1.401 . S
C124 H145 0.930 . S
C125 C124 1.401 . S
C125 C126 1.376 . S
C125 C134 1.511 . S
C126 C125 1.376 . S
C126 C127 1.392 . S
C126 H147 0.931 . S
C127 C126 1.392 . S
C127 C128 1.361 . S
C127 C129 1.500 . S
C128 C123 1.390 . S
C128 C127 1.361 . S
C128 H146 0.931 . S
C129 C127 1.500 . S
C129 C130 1.371 . S
C129 C131 1.365 . S
C130 C129 1.371 . S
C130 C140 1.386 . S
C130 H148 0.931 . S
C131 C129 1.365 . S
C131 C132 1.409 . S
C131 H149 0.929 . S
C132 C131 1.409 . S
C132 C133 1.380 . S
C132 H150 0.930 . S
C133 C132 1.380 . S
C133 C140 1.357 . S
C134 C125 1.511 . S
C134 C135 1.341 . S
C134 C136 1.371 . S
C135 C134 1.341 . S
C135 C139 1.394 . S
C135 H151 0.930 . S
C136 C134 1.371 . S
C136 C137 1.392 . S
C136 H152 0.931 . S
C137 C136 1.392 . S
C137 C138 1.331 . S
C137 H155 0.932 . S
C138 C137 1.331 . S
C138 C139 1.336 . S
C139 C135 1.394 . S
C139 C138 1.336 . S
C139 H154 0.929 . S
C140 C130 1.386 . S
C140 C133 1.357 . S
C140 H153 0.928 . S
H141 C117 0.931 . S
H142 C119 0.930 . S
H143 C121 0.929 . S
H144 C122 0.931 . S
H145 C124 0.930 . S
H146 C128 0.931 . S
H147 C126 0.931 . S
H148 C130 0.931 . S
H149 C131 0.929 . S
H150 C132 0.930 . S
H151 C135 0.930 . S
H152 C136 0.931 . S
H153 C140 0.928 . S
H154 C139 0.929 . S
H155 C137 0.932 . S
C156 C157 1.386 . S
C156 C158 1.399 1_655 S
C156 H180 0.931 . S
C157 C156 1.386 . S
C157 C161 1.397 1_655 S
C158 C156 1.399 1_455 S
C158 C159 1.380 . S
C158 H181 0.932 1_455 S
C159 C158 1.380 . S
C159 C160 1.377 . S
C159 C162 1.481 . S
C160 C159 1.377 . S
C160 C161 1.389 . S
C160 H182 0.929 . S
C161 C157 1.397 1_455 S
C161 C160 1.389 . S
C161 H183 0.931 . S
C162 C159 1.481 . S
C162 C163 1.387 . S
C162 C167 1.390 . S
C163 C162 1.387 . S
C163 C164 1.401 . S
C163 H184 0.930 . S
C164 C163 1.401 . S
C164 C165 1.376 . S
C164 C173 1.511 . S
C165 C164 1.376 . S
C165 C166 1.392 . S
C165 H186 0.931 . S
C166 C165 1.392 . S
C166 C167 1.361 . S
C166 C168 1.500 . S
C167 C162 1.390 . S
C167 C166 1.361 . S
C167 H185 0.931 . S
C168 C166 1.500 . S
C168 C169 1.371 . S
C168 C170 1.365 . S
C169 C168 1.371 . S
C169 C179 1.411 . S
C169 H187 0.931 . S
C170 C168 1.365 . S
C170 C171 1.409 1_565 S
C170 H188 0.929 . S
C171 C170 1.409 1_545 S
C171 C172 1.380 . S
C171 H189 0.930 . S
C172 C171 1.380 . S
C172 C179 1.340 1_545 S
C173 C164 1.511 . S
C173 C174 1.341 . S
C173 C175 1.371 . S
C174 C173 1.341 . S
C174 C178 1.394 . S
C174 H190 0.930 . S
C175 C173 1.371 . S
C175 C176 1.392 . S
C175 H191 0.931 . S
C176 C175 1.392 . S
C176 C177 1.331 . S
C176 H194 0.932 . S
C177 C176 1.331 . S
C177 C178 1.336 . S
C178 C174 1.394 . S
C178 C177 1.336 . S
C178 H193 0.929 . S
C179 C169 1.411 . S
C179 C172 1.340 1_565 S
C179 H192 0.922 1_565 S
H180 C156 0.931 . S
H181 C158 0.932 1_655 S
H182 C160 0.929 . S
H183 C161 0.931 . S
H184 C163 0.930 . S
H185 C167 0.931 . S
H186 C165 0.931 . S
H187 C169 0.931 . S
H188 C170 0.929 . S
H189 C171 0.930 . S
H190 C174 0.930 . S
H191 C175 0.931 . S
H192 C179 0.922 1_545 S
H193 C178 0.929 . S
H194 C176 0.932 . S
C195 C196 1.386 . S
C195 C197 1.397 . S
C195 H219 0.931 . S
C196 C195 1.386 . S
C196 C200 1.397 . S
C197 C195 1.397 . S
C197 C198 1.384 . S
C197 H220 0.930 . S
C198 C197 1.384 . S
C198 C199 1.377 . S
C198 C201 1.481 . S
C199 C198 1.377 . S
C199 C200 1.389 . S
C199 H221 0.929 . S
C200 C196 1.397 . S
C200 C199 1.389 . S
C200 H222 0.931 . S
C201 C198 1.481 . S
C201 C202 1.387 . S
C201 C206 1.390 . S
C202 C201 1.387 . S
C202 C203 1.401 . S
C202 H223 0.930 . S
C203 C202 1.401 . S
C203 C204 1.376 . S
C203 C212 1.511 . S
C204 C203 1.376 . S
C204 C205 1.392 . S
C204 H225 0.931 . S
C205 C204 1.392 . S
C205 C206 1.361 . S
C205 C207 1.500 . S
C206 C201 1.390 . S
C206 C205 1.361 . S
C206 H224 0.931 . S
C207 C205 1.500 . S
C207 C208 1.371 . S
C207 C209 1.365 . S
C208 C207 1.371 . S
C208 C218 1.386 . S
C208 H226 0.931 . S
C209 C207 1.365 . S
C209 C210 1.409 . S
C209 H227 0.929 . S
C210 C209 1.409 . S
C210 C211 1.380 . S
C210 H228 0.930 . S
C211 C210 1.380 . S
C211 C218 1.357 . S
C212 C203 1.511 . S
C212 C213 1.341 . S
C212 C214 1.371 . S
C213 C212 1.341 . S
C213 C217 1.394 . S
C213 H229 0.930 . S
C214 C212 1.371 . S
C214 C215 1.392 . S
C214 H230 0.931 . S
C215 C214 1.392 . S
C215 C216 1.331 . S
C215 H233 0.932 . S
C216 C215 1.331 . S
C216 C217 1.336 . S
C217 C213 1.394 . S
C217 C216 1.336 . S
C217 H232 0.929 . S
C218 C208 1.386 . S
C218 C211 1.357 . S
C218 H231 0.928 . S
H219 C195 0.931 . S
H220 C197 0.930 . S
H221 C199 0.929 . S
H222 C200 0.931 . S
H223 C202 0.930 . S
H224 C206 0.931 . S
H225 C204 0.931 . S
H226 C208 0.931 . S
H227 C209 0.929 . S
H228 C210 0.930 . S
H229 C213 0.930 . S
H230 C214 0.931 . S
H231 C218 0.928 . S
H232 C217 0.929 . S
H233 C215 0.932 . S
C234 C235 1.386 . S
C234 C236 1.397 . S
C234 H258 0.931 . S
C235 C234 1.386 . S
C235 C239 1.397 . S
C236 C234 1.397 . S
C236 C237 1.384 . S
C236 H259 0.930 . S
C237 C236 1.384 . S
C237 C238 1.377 . S
C237 C240 1.481 . S
C238 C237 1.377 . S
C238 C239 1.389 . S
C238 H260 0.929 . S
C239 C235 1.397 . S
C239 C238 1.389 . S
C239 H261 0.931 . S
C240 C237 1.481 . S
C240 C241 1.387 . S
C240 C245 1.390 . S
C241 C240 1.387 . S
C241 C242 1.401 . S
C241 H262 0.930 . S
C242 C241 1.401 . S
C242 C243 1.376 . S
C242 C251 1.511 . S
C243 C242 1.376 . S
C243 C244 1.392 . S
C243 H264 0.931 . S
C244 C243 1.392 . S
C244 C245 1.361 . S
C244 C246 1.500 . S
C245 C240 1.390 . S
C245 C244 1.361 . S
C245 H263 0.931 . S
C246 C244 1.500 . S
C246 C247 1.371 . S
C246 C248 1.365 . S
C247 C246 1.371 . S
C247 C257 1.386 . S
C247 H265 0.931 . S
C248 C246 1.365 . S
C248 C249 1.409 . S
C248 H266 0.929 . S
C249 C248 1.409 . S
C249 C250 1.380 . S
C249 H267 0.930 . S
C250 C249 1.380 . S
C250 C257 1.357 . S
C251 C242 1.511 . S
C251 C252 1.341 . S
C251 C253 1.371 . S
C252 C251 1.341 . S
C252 C256 1.394 1_655 S
C252 H268 0.930 . S
C253 C251 1.371 . S
C253 C254 1.392 . S
C253 H269 0.931 . S
C254 C253 1.392 . S
C254 C255 1.331 1_655 S
C254 H272 0.932 . S
C255 C254 1.331 1_455 S
C255 C256 1.336 . S
C256 C252 1.394 1_455 S
C256 C255 1.336 . S
C256 H271 0.929 . S
C257 C247 1.386 . S
C257 C250 1.357 . S
C257 H270 0.928 . S
H258 C234 0.931 . S
H259 C236 0.930 . S
H260 C238 0.929 . S
H261 C239 0.931 . S
H262 C241 0.930 . S
H263 C245 0.931 . S
H264 C243 0.931 . S
H265 C247 0.931 . S
H266 C248 0.929 . S
H267 C249 0.930 . S
H268 C252 0.930 . S
H269 C253 0.931 . S
H270 C257 0.928 . S
H271 C256 0.929 . S
H272 C254 0.932 . S
C273 C274 1.386 . S
C273 C275 1.397 . S
C273 H297 0.931 . S
C274 C273 1.386 . S
C274 C278 1.397 . S
C275 C273 1.397 . S
C275 C276 1.384 . S
C275 H298 0.930 . S
C276 C275 1.384 . S
C276 C277 1.377 . S
C276 C279 1.481 . S
C277 C276 1.377 . S
C277 C278 1.389 . S
C277 H299 0.929 . S
C278 C274 1.397 . S
C278 C277 1.389 . S
C278 H300 0.931 . S
C279 C276 1.481 . S
C279 C280 1.387 . S
C279 C284 1.390 . S
C280 C279 1.387 . S
C280 C281 1.401 . S
C280 H301 0.930 . S
C281 C280 1.401 . S
C281 C282 1.376 . S
C281 C290 1.511 . S
C282 C281 1.376 . S
C282 C283 1.392 . S
C282 H303 0.931 . S
C283 C282 1.392 . S
C283 C284 1.361 . S
C283 C285 1.500 . S
C284 C279 1.390 . S
C284 C283 1.361 . S
C284 H302 0.931 . S
C285 C283 1.500 . S
C285 C286 1.371 . S
C285 C287 1.365 . S
C286 C285 1.371 . S
C286 C296 1.386 . S
C286 H304 0.931 . S
C287 C285 1.365 . S
C287 C288 1.409 . S
C287 H305 0.929 . S
C288 C287 1.409 . S
C288 C289 1.380 . S
C288 H306 0.930 . S
C289 C288 1.380 . S
C289 C296 1.357 . S
C290 C281 1.511 . S
C290 C291 1.341 . S
C290 C292 1.371 . S
C291 C290 1.341 . S
C291 C295 1.394 . S
C291 H307 0.930 . S
C292 C290 1.371 . S
C292 C293 1.392 . S
C292 H308 0.931 . S
C293 C292 1.392 . S
C293 C294 1.331 . S
C293 H311 0.932 . S
C294 C293 1.331 . S
C294 C295 1.336 . S
C295 C291 1.394 . S
C295 C294 1.336 . S
C295 H310 0.929 . S
C296 C286 1.386 . S
C296 C289 1.357 . S
C296 H309 0.928 . S
H297 C273 0.931 . S
H298 C275 0.930 . S
H299 C277 0.929 . S
H300 C278 0.931 . S
H301 C280 0.930 . S
H302 C284 0.931 . S
H303 C282 0.931 . S
H304 C286 0.931 . S
H305 C287 0.929 . S
H306 C288 0.930 . S
H307 C291 0.930 . S
H308 C292 0.931 . S
H309 C296 0.928 . S
H310 C295 0.929 . S
H311 C293 0.932 . S
C312 C313 1.386 . S
C312 C314 1.397 . S
C312 H336 0.931 . S
C313 C312 1.386 . S
C313 C317 1.397 . S
C314 C312 1.397 . S
C314 C315 1.384 . S
C314 H337 0.930 . S
C315 C314 1.384 . S
C315 C316 1.377 . S
C315 C318 1.481 . S
C316 C315 1.377 . S
C316 C317 1.389 . S
C316 H338 0.929 . S
C317 C313 1.397 . S
C317 C316 1.389 . S
C317 H339 0.931 . S
C318 C315 1.481 . S
C318 C319 1.387 . S
C318 C323 1.390 . S
C319 C318 1.387 . S
C319 C320 1.401 . S
C319 H340 0.930 . S
C320 C319 1.401 . S
C320 C321 1.376 . S
C320 C329 1.511 . S
C321 C320 1.376 . S
C321 C322 1.392 . S
C321 H342 0.931 . S
C322 C321 1.392 . S
C322 C323 1.361 . S
C322 C324 1.500 . S
C323 C318 1.390 . S
C323 C322 1.361 . S
C323 H341 0.931 . S
C324 C322 1.500 . S
C324 C325 1.371 . S
C324 C326 1.365 . S
C325 C324 1.371 . S
C325 C335 1.386 . S
C325 H343 0.931 . S
C326 C324 1.365 . S
C326 C327 1.409 . S
C326 H344 0.929 . S
C327 C326 1.409 . S
C327 C328 1.380 . S
C327 H345 0.930 . S
C328 C327 1.380 . S
C328 C335 1.357 . S
C329 C320 1.511 . S
C329 C330 1.341 . S
C329 C331 1.371 . S
C330 C329 1.341 . S
C330 C334 1.394 . S
C330 H346 0.930 . S
C331 C329 1.371 . S
C331 C332 1.392 . S
C331 H347 0.931 . S
C332 C331 1.392 . S
C332 C333 1.331 . S
C332 H350 0.932 . S
C333 C332 1.331 . S
C333 C334 1.336 . S
C334 C330 1.394 . S
C334 C333 1.336 . S
C334 H349 0.929 . S
C335 C325 1.386 . S
C335 C328 1.357 . S
C335 H348 0.928 . S
H336 C312 0.931 . S
H337 C314 0.930 . S
H338 C316 0.929 . S
H339 C317 0.931 . S
H340 C319 0.930 . S
H341 C323 0.931 . S
H342 C321 0.931 . S
H343 C325 0.931 . S
H344 C326 0.929 . S
H345 C327 0.930 . S
H346 C330 0.930 . S
H347 C331 0.931 . S
H348 C335 0.928 . S
H349 C334 0.929 . S
H350 C332 0.932 . S
C351 C352 1.386 . S
C351 C353 1.397 . S
C351 H375 0.931 . S
C352 C351 1.386 . S
C352 C356 1.397 . S
C353 C351 1.397 . S
C353 C354 1.384 . S
C353 H376 0.930 . S
C354 C353 1.384 . S
C354 C355 1.377 . S
C354 C357 1.481 . S
C355 C354 1.377 . S
C355 C356 1.389 . S
C355 H377 0.929 . S
C356 C352 1.397 . S
C356 C355 1.389 . S
C356 H378 0.931 . S
C357 C354 1.481 . S
C357 C358 1.387 . S
C357 C362 1.390 . S
C358 C357 1.387 . S
C358 C359 1.401 . S
C358 H379 0.930 . S
C359 C358 1.401 . S
C359 C360 1.376 . S
C359 C368 1.511 . S
C360 C359 1.376 . S
C360 C361 1.392 . S
C360 H381 0.931 . S
C361 C360 1.392 . S
C361 C362 1.361 . S
C361 C363 1.500 . S
C362 C357 1.390 . S
C362 C361 1.361 . S
C362 H380 0.931 . S
C363 C361 1.500 . S
C363 C364 1.371 . S
C363 C365 1.365 . S
C364 C363 1.371 . S
C364 C374 1.386 . S
C364 H382 0.931 . S
C365 C363 1.365 . S
C365 C366 1.409 . S
C365 H383 0.929 . S
C366 C365 1.409 . S
C366 C367 1.380 . S
C366 H384 0.930 . S
C367 C366 1.380 . S
C367 C374 1.357 . S
C368 C359 1.511 . S
C368 C369 1.341 . S
C368 C370 1.371 . S
C369 C368 1.341 . S
C369 C373 1.394 1_565 S
C369 H385 0.930 . S
C370 C368 1.371 . S
C370 C371 1.392 . S
C370 H386 0.931 . S
C371 C370 1.392 . S
C371 C372 1.331 1_565 S
C371 H389 0.932 . S
C372 C371 1.331 1_545 S
C372 C373 1.336 . S
C373 C369 1.394 1_545 S
C373 C372 1.336 . S
C373 H388 0.929 . S
C374 C364 1.386 . S
C374 C367 1.357 . S
C374 H387 0.928 . S
H375 C351 0.931 . S
H376 C353 0.930 . S
H377 C355 0.929 . S
H378 C356 0.931 . S
H379 C358 0.930 . S
H380 C362 0.931 . S
H381 C360 0.931 . S
H382 C364 0.931 . S
H383 C365 0.929 . S
H384 C366 0.930 . S
H385 C369 0.930 . S
H386 C370 0.931 . S
H387 C374 0.928 . S
H388 C373 0.929 . S
H389 C371 0.932 . S
C390 C391 1.386 . S
C390 C392 1.397 . S
C390 H414 0.931 . S
C391 C390 1.386 . S
C391 C395 1.397 . S
C392 C390 1.397 . S
C392 C393 1.384 . S
C392 H415 0.930 . S
C393 C392 1.384 . S
C393 C394 1.377 . S
C393 C396 1.481 . S
C394 C393 1.377 . S
C394 C395 1.389 . S
C394 H416 0.929 . S
C395 C391 1.397 . S
C395 C394 1.389 . S
C395 H417 0.931 . S
C396 C393 1.481 . S
C396 C397 1.387 . S
C396 C401 1.390 . S
C397 C396 1.387 . S
C397 C398 1.401 . S
C397 H418 0.930 . S
C398 C397 1.401 . S
C398 C399 1.376 . S
C398 C407 1.511 . S
C399 C398 1.376 . S
C399 C400 1.392 . S
C399 H420 0.931 . S
C400 C399 1.392 . S
C400 C401 1.361 . S
C400 C402 1.500 . S
C401 C396 1.390 . S
C401 C400 1.361 . S
C401 H419 0.931 . S
C402 C400 1.500 . S
C402 C403 1.371 . S
C402 C404 1.365 . S
C403 C402 1.371 . S
C403 C413 1.386 . S
C403 H421 0.931 . S
C404 C402 1.365 . S
C404 C405 1.409 . S
C404 H422 0.929 . S
C405 C404 1.409 . S
C405 C406 1.380 . S
C405 H423 0.930 . S
C406 C405 1.380 . S
C406 C413 1.357 . S
C407 C398 1.511 . S
C407 C408 1.341 . S
C407 C409 1.371 . S
C408 C407 1.341 . S
C408 C412 1.394 . S
C408 H424 0.930 . S
C409 C407 1.371 . S
C409 C410 1.392 . S
C409 H425 0.931 . S
C410 C409 1.392 . S
C410 C411 1.331 . S
C410 H428 0.932 . S
C411 C410 1.331 . S
C411 C412 1.336 . S
C412 C408 1.394 . S
C412 C411 1.336 . S
C412 H427 0.929 . S
C413 C403 1.386 . S
C413 C406 1.357 . S
C413 H426 0.928 . S
H414 C390 0.931 . S
H415 C392 0.930 . S
H416 C394 0.929 . S
H417 C395 0.931 . S
H418 C397 0.930 . S
H419 C401 0.931 . S
H420 C399 0.931 . S
H421 C403 0.931 . S
H422 C404 0.929 . S
H423 C405 0.930 . S
H424 C408 0.930 . S
H425 C409 0.931 . S
H426 C413 0.928 . S
H427 C412 0.929 . S
H428 C410 0.932 . S
C429 C430 1.386 . S
C429 C431 1.397 . S
C429 H453 0.931 . S
C430 C429 1.386 . S
C430 C434 1.397 . S
C431 C429 1.397 . S
C431 C432 1.384 . S
C431 H454 0.930 . S
C432 C431 1.384 . S
C432 C433 1.377 . S
C432 C435 1.481 . S
C433 C432 1.377 . S
C433 C434 1.389 . S
C433 H455 0.929 . S
C434 C430 1.397 . S
C434 C433 1.389 . S
C434 H456 0.931 . S
C435 C432 1.481 . S
C435 C436 1.387 . S
C435 C440 1.390 . S
C436 C435 1.387 . S
C436 C437 1.401 . S
C436 H457 0.930 . S
C437 C436 1.401 . S
C437 C438 1.376 . S
C437 C446 1.511 . S
C438 C437 1.376 . S
C438 C439 1.392 . S
C438 H459 0.931 . S
C439 C438 1.392 . S
C439 C440 1.361 . S
C439 C441 1.500 . S
C440 C435 1.390 . S
C440 C439 1.361 . S
C440 H458 0.931 . S
C441 C439 1.500 . S
C441 C442 1.371 . S
C441 C443 1.365 . S
C442 C441 1.371 . S
C442 C452 1.386 . S
C442 H460 0.931 . S
C443 C441 1.365 . S
C443 C444 1.409 . S
C443 H461 0.929 . S
C444 C443 1.409 . S
C444 C445 1.380 . S
C444 H462 0.930 . S
C445 C444 1.380 . S
C445 C452 1.357 . S
C446 C437 1.511 . S
C446 C447 1.341 . S
C446 C448 1.371 . S
C447 C446 1.341 . S
C447 C451 1.394 . S
C447 H463 0.930 . S
C448 C446 1.371 . S
C448 C449 1.392 . S
C448 H464 0.931 . S
C449 C448 1.392 . S
C449 C450 1.331 . S
C449 H467 0.932 . S
C450 C449 1.331 . S
C450 C451 1.336 . S
C451 C447 1.394 . S
C451 C450 1.336 . S
C451 H466 0.929 . S
C452 C442 1.386 . S
C452 C445 1.357 . S
C452 H465 0.928 . S
H453 C429 0.931 . S
H454 C431 0.930 . S
H455 C433 0.929 . S
H456 C434 0.931 . S
H457 C436 0.930 . S
H458 C440 0.931 . S
H459 C438 0.931 . S
H460 C442 0.931 . S
H461 C443 0.929 . S
H462 C444 0.930 . S
H463 C447 0.930 . S
H464 C448 0.931 . S
H465 C452 0.928 . S
H466 C451 0.929 . S
H467 C449 0.932 . S
C468 C469 1.386 . S
C468 C470 1.397 . S
C468 H492 0.931 . S
C469 C468 1.386 . S
C469 C473 1.397 . S
C470 C468 1.397 . S
C470 C471 1.384 . S
C470 H493 0.930 . S
C471 C470 1.384 . S
C471 C472 1.377 . S
C471 C474 1.481 . S
C472 C471 1.377 . S
C472 C473 1.389 . S
C472 H494 0.929 . S
C473 C469 1.397 . S
C473 C472 1.389 . S
C473 H495 0.931 . S
C474 C471 1.481 . S
C474 C475 1.387 . S
C474 C479 1.390 . S
C475 C474 1.387 . S
C475 C476 1.401 . S
C475 H496 0.930 . S
C476 C475 1.401 . S
C476 C477 1.376 . S
C476 C485 1.511 . S
C477 C476 1.376 . S
C477 C478 1.392 . S
C477 H498 0.931 . S
C478 C477 1.392 . S
C478 C479 1.361 . S
C478 C480 1.500 . S
C479 C474 1.390 . S
C479 C478 1.361 . S
C479 H497 0.931 . S
C480 C478 1.500 . S
C480 C481 1.371 . S
C480 C482 1.365 . S
C481 C480 1.371 . S
C481 C491 1.386 . S
C481 H499 0.931 . S
C482 C480 1.365 . S
C482 C483 1.409 . S
C482 H500 0.929 . S
C483 C482 1.409 . S
C483 C484 1.380 . S
C483 H501 0.930 . S
C484 C483 1.380 . S
C484 C491 1.357 . S
C485 C476 1.511 . S
C485 C486 1.341 . S
C485 C487 1.371 . S
C486 C485 1.341 . S
C486 C490 1.394 . S
C486 H502 0.930 . S
C487 C485 1.371 . S
C487 C488 1.392 . S
C487 H503 0.931 . S
C488 C487 1.392 . S
C488 C489 1.331 . S
C488 H506 0.932 . S
C489 C488 1.331 . S
C489 C490 1.336 . S
C490 C486 1.394 . S
C490 C489 1.336 . S
C490 H505 0.929 . S
C491 C481 1.386 . S
C491 C484 1.357 . S
C491 H504 0.928 . S
H492 C468 0.931 . S
H493 C470 0.930 . S
H494 C472 0.929 . S
H495 C473 0.931 . S
H496 C475 0.930 . S
H497 C479 0.931 . S
H498 C477 0.931 . S
H499 C481 0.931 . S
H500 C482 0.929 . S
H501 C483 0.930 . S
H502 C486 0.930 . S
H503 C487 0.931 . S
H504 C491 0.928 . S
H505 C490 0.929 . S
H506 C488 0.932 . S
C507 C508 1.386 . S
C507 C509 1.397 . S
C507 H531 0.931 . S
C508 C507 1.386 . S
C508 C512 1.397 . S
C509 C507 1.397 . S
C509 C510 1.384 . S
C509 H532 0.930 . S
C510 C509 1.384 . S
C510 C511 1.377 . S
C510 C513 1.481 . S
C511 C510 1.377 . S
C511 C512 1.389 . S
C511 H533 0.929 . S
C512 C508 1.397 . S
C512 C511 1.389 . S
C512 H534 0.931 . S
C513 C510 1.481 . S
C513 C514 1.387 . S
C513 C518 1.390 . S
C514 C513 1.387 . S
C514 C515 1.401 . S
C514 H535 0.930 . S
C515 C514 1.401 . S
C515 C516 1.376 . S
C515 C524 1.511 . S
C516 C515 1.376 . S
C516 C517 1.392 . S
C516 H537 0.931 . S
C517 C516 1.392 . S
C517 C518 1.361 . S
C517 C519 1.500 . S
C518 C513 1.390 . S
C518 C517 1.361 . S
C518 H536 0.931 . S
C519 C517 1.500 . S
C519 C520 1.371 . S
C519 C521 1.365 . S
C520 C519 1.371 . S
C520 C530 1.386 . S
C520 H538 0.931 . S
C521 C519 1.365 . S
C521 C522 1.409 . S
C521 H539 0.929 . S
C522 C521 1.409 . S
C522 C523 1.380 . S
C522 H540 0.930 . S
C523 C522 1.380 . S
C523 C530 1.357 . S
C524 C515 1.511 . S
C524 C525 1.341 . S
C524 C526 1.371 . S
C525 C524 1.341 . S
C525 C529 1.394 . S
C525 H541 0.930 . S
C526 C524 1.371 . S
C526 C527 1.392 1_556 S
C526 H542 0.931 . S
C527 C526 1.392 1_554 S
C527 C528 1.331 . S
C527 H545 0.932 . S
C528 C527 1.331 . S
C528 C529 1.336 1_554 S
C529 C525 1.394 . S
C529 C528 1.336 1_556 S
C529 H544 0.929 . S
C530 C520 1.386 . S
C530 C523 1.357 . S
C530 H543 0.928 . S
H531 C507 0.931 . S
H532 C509 0.930 . S
H533 C511 0.929 . S
H534 C512 0.931 . S
H535 C514 0.930 . S
H536 C518 0.931 . S
H537 C516 0.931 . S
H538 C520 0.931 . S
H539 C521 0.929 . S
H540 C522 0.930 . S
H541 C525 0.930 . S
H542 C526 0.931 . S
H543 C530 0.928 . S
H544 C529 0.929 . S
H545 C527 0.932 . S
C546 C547 1.386 . S
C546 C548 1.397 . S
C546 H570 0.931 . S
C547 C546 1.386 . S
C547 C551 1.397 . S
C548 C546 1.397 . S
C548 C549 1.384 . S
C548 H571 0.930 . S
C549 C548 1.384 . S
C549 C550 1.377 . S
C549 C552 1.481 . S
C550 C549 1.377 . S
C550 C551 1.389 . S
C550 H572 0.929 . S
C551 C547 1.397 . S
C551 C550 1.389 . S
C551 H573 0.931 . S
C552 C549 1.481 . S
C552 C553 1.387 . S
C552 C557 1.390 . S
C553 C552 1.387 . S
C553 C554 1.401 . S
C553 H574 0.930 . S
C554 C553 1.401 . S
C554 C555 1.376 . S
C554 C563 1.511 . S
C555 C554 1.376 . S
C555 C556 1.392 . S
C555 H576 0.931 . S
C556 C555 1.392 . S
C556 C557 1.361 . S
C556 C558 1.500 . S
C557 C552 1.390 . S
C557 C556 1.361 . S
C557 H575 0.931 . S
C558 C556 1.500 . S
C558 C559 1.371 . S
C558 C560 1.365 . S
C559 C558 1.371 . S
C559 C569 1.386 . S
C559 H577 0.931 . S
C560 C558 1.365 . S
C560 C561 1.409 . S
C560 H578 0.929 . S
C561 C560 1.409 . S
C561 C562 1.380 . S
C561 H579 0.930 . S
C562 C561 1.380 . S
C562 C569 1.357 . S
C563 C554 1.511 . S
C563 C564 1.341 . S
C563 C565 1.371 . S
C564 C563 1.341 . S
C564 C568 1.394 . S
C564 H580 0.930 . S
C565 C563 1.371 . S
C565 C566 1.392 . S
C565 H581 0.931 . S
C566 C565 1.392 . S
C566 C567 1.331 . S
C566 H584 0.932 . S
C567 C566 1.331 . S
C567 C568 1.336 . S
C568 C564 1.394 . S
C568 C567 1.336 . S
C568 H583 0.929 . S
C569 C559 1.386 . S
C569 C562 1.357 . S
C569 H582 0.928 . S
H570 C546 0.931 . S
H571 C548 0.930 . S
H572 C550 0.929 . S
H573 C551 0.931 . S
H574 C553 0.930 . S
H575 C557 0.931 . S
H576 C555 0.931 . S
H577 C559 0.931 . S
H578 C560 0.929 . S
H579 C561 0.930 . S
H580 C564 0.930 . S
H581 C565 0.931 . S
H582 C569 0.928 . S
H583 C568 0.929 . S
H584 C566 0.932 . S
C585 C586 1.386 1_556 S
C585 C587 1.397 . S
C585 H609 0.931 . S
C586 C585 1.386 1_554 S
C586 C590 1.397 . S
C587 C585 1.397 . S
C587 C588 1.384 . S
C587 H610 0.930 . S
C588 C587 1.384 . S
C588 C589 1.377 1_556 S
C588 C591 1.481 . S
C589 C588 1.377 1_554 S
C589 C590 1.389 . S
C589 H611 0.929 . S
C590 C586 1.397 . S
C590 C589 1.389 . S
C590 H612 0.931 . S
C591 C588 1.481 . S
C591 C592 1.387 . S
C591 C596 1.390 . S
C592 C591 1.387 . S
C592 C593 1.401 . S
C592 H613 0.930 . S
C593 C592 1.401 . S
C593 C594 1.376 . S
C593 C602 1.511 . S
C594 C593 1.376 . S
C594 C595 1.392 . S
C594 H615 0.931 . S
C595 C594 1.392 . S
C595 C596 1.361 . S
C595 C597 1.500 . S
C596 C591 1.390 . S
C596 C595 1.361 . S
C596 H614 0.931 . S
C597 C595 1.500 . S
C597 C598 1.371 . S
C597 C599 1.365 . S
C598 C597 1.371 . S
C598 C608 1.386 1_545 S
C598 H616 0.931 . S
C599 C597 1.365 . S
C599 C600 1.409 . S
C599 H617 0.929 . S
C600 C599 1.409 . S
C600 C601 1.380 1_545 S
C600 H618 0.930 . S
C601 C600 1.380 1_565 S
C601 C608 1.357 . S
C602 C593 1.511 . S
C602 C603 1.341 . S
C602 C604 1.371 . S
C603 C602 1.341 . S
C603 C607 1.394 . S
C603 H619 0.930 . S
C604 C602 1.371 . S
C604 C605 1.392 . S
C604 H620 0.931 . S
C605 C604 1.392 . S
C605 C606 1.331 . S
C605 H623 0.932 . S
C606 C605 1.331 . S
C606 C607 1.336 . S
C607 C603 1.394 . S
C607 C606 1.336 . S
C607 H622 0.929 . S
C608 C598 1.386 1_565 S
C608 C601 1.357 . S
C608 H621 0.928 . S
H609 C585 0.931 . S
H610 C587 0.930 . S
H611 C589 0.929 . S
H612 C590 0.931 . S
H613 C592 0.930 . S
H614 C596 0.931 . S
H615 C594 0.931 . S
H616 C598 0.931 . S
H617 C599 0.929 . S
H618 C600 0.930 . S
H619 C603 0.930 . S
H620 C604 0.931 . S
H621 C608 0.928 . S
H622 C607 0.929 . S
H623 C605 0.932 . S
Li624 N641 1.990 . S
Li624 O684 1.959 . S
Li624 O685 1.970 1_556 S
Li624 O686 1.961 . S
Li625 N649 1.990 . S
Li625 O684 1.911 1_554 S
Li625 O685 1.956 . S
Li625 O687 1.961 . S
Li626 N671 1.990 . S
Li626 O684 2.007 . S
Li626 O686 1.956 . S
Li626 O687 1.970 1_556 S
Li627 N677 1.990 . S
Li627 O685 1.961 . S
Li627 O686 1.970 1_554 S
Li627 O687 1.956 . S
C628 C630 1.348 1_556 S
C628 C631 1.356 . S
C628 O684 1.337 . S
N629 C632 1.314 1_556 S
N629 C633 1.279 . S
C630 C628 1.348 1_554 S
C630 C632 1.353 . S
C630 H688 0.929 . S
C631 C628 1.356 . S
C631 C633 1.358 . S
C631 H689 0.930 . S
C632 N629 1.314 1_554 S
C632 C630 1.353 . S
C632 H690 0.930 . S
C633 N629 1.279 . S
C633 C631 1.358 . S
C633 H691 0.930 . S
C634 C637 1.348 . S
C634 C638 1.356 . S
C634 O685 1.325 . S
C635 N636 1.279 . S
C635 C638 1.358 . S
C635 H692 0.930 . S
N636 C635 1.279 . S
N636 C639 1.314 . S
C637 C634 1.348 . S
C637 C639 1.353 . S
C637 H693 0.929 . S
C638 C634 1.356 . S
C638 C635 1.358 . S
C638 H694 0.930 . S
C639 N636 1.314 . S
C639 C637 1.353 . S
C639 H695 0.930 . S
C640 N641 1.314 . S
C640 C645 1.353 . S
C640 H646 0.930 . S
N641 Li624 1.990 . S
N641 C640 1.314 . S
N641 C643 1.279 . S
C642 C643 1.358 . S
C642 C644 1.356 . S
C642 H696 0.930 . S
C643 N641 1.279 . S
C643 C642 1.358 . S
C643 H647 0.951 . S
C644 C642 1.356 . S
C644 C645 1.348 . S
C645 C640 1.353 . S
C645 C644 1.348 . S
C645 H697 0.929 . S
H646 C640 0.930 . S
H647 C643 0.951 . S
C648 N649 1.314 . S
C648 C650 1.353 . S
C648 H654 0.930 . S
N649 Li625 1.990 . S
N649 C648 1.314 . S
N649 C652 1.279 . S
C650 C648 1.353 . S
C650 C653 1.348 . S
C650 H698 0.929 . S
C651 C652 1.358 . S
C651 C653 1.356 . S
C651 H699 0.930 . S
C652 N649 1.279 . S
C652 C651 1.358 . S
C652 H655 0.930 . S
C653 C650 1.348 . S
C653 C651 1.356 . S
H654 C648 0.930 . S
H655 C652 0.930 . S
C656 C658 1.348 . S
C656 C659 1.356 . S
C656 O686 1.325 . S
N657 C660 1.314 . S
N657 C661 1.279 . S
C658 C656 1.348 . S
C658 C660 1.353 . S
C658 H700 0.929 . S
C659 C656 1.356 . S
C659 C661 1.358 . S
C659 H701 0.930 . S
C660 N657 1.314 . S
C660 C658 1.353 . S
C660 H702 0.930 . S
C661 N657 1.279 . S
C661 C659 1.358 . S
C661 H703 0.930 . S
C662 C663 1.348 1_554 S
C662 C664 1.356 . S
C662 O687 1.325 . S
C663 C662 1.348 1_556 S
C663 C665 1.353 . S
C663 H704 0.929 . S
C664 C662 1.356 . S
C664 C666 1.358 . S
C664 H705 0.930 . S
C665 C663 1.353 . S
C665 N667 1.314 1_556 S
C665 H706 0.930 . S
C666 C664 1.358 . S
C666 N667 1.279 . S
C666 H707 0.930 . S
N667 C665 1.314 1_554 S
N667 C666 1.279 . S
C668 C670 1.353 . S
C668 N671 1.314 . S
C668 H674 0.930 . S
C669 N671 1.279 . S
C669 C672 1.358 . S
C669 H675 0.930 . S
C670 C668 1.353 . S
C670 C673 1.348 . S
C670 H708 0.929 . S
N671 Li626 1.990 . S
N671 C668 1.314 . S
N671 C669 1.279 . S
C672 C669 1.358 . S
C672 C673 1.356 . S
C672 H709 0.930 . S
C673 C670 1.348 . S
C673 C672 1.356 . S
H674 C668 0.930 . S
H675 C669 0.930 . S
C676 N677 1.314 . S
C676 C678 1.353 . S
C676 H682 0.930 . S
N677 Li627 1.990 . S
N677 C676 1.314 . S
N677 C680 1.279 . S
C678 C676 1.353 . S
C678 C681 1.348 . S
C678 H710 0.929 . S
C679 C680 1.358 . S
C679 C681 1.356 . S
C679 H711 0.930 . S
C680 N677 1.279 . S
C680 C679 1.358 . S
C680 H683 0.930 . S
C681 C678 1.348 . S
C681 C679 1.356 . S
H682 C676 0.930 . S
H683 C680 0.930 . S
O684 Li624 1.959 . S
O684 Li625 1.911 1_556 S
O684 Li626 2.007 . S
O684 C628 1.337 . S
O685 Li624 1.970 1_554 S
O685 Li625 1.956 . S
O685 Li627 1.961 . S
O685 C634 1.325 . S
O686 Li624 1.961 . S
O686 Li626 1.956 . S
O686 Li627 1.970 1_556 S
O686 C656 1.325 . S
O687 Li625 1.961 . S
O687 Li626 1.970 1_554 S
O687 Li627 1.956 . S
O687 C662 1.325 . S
H688 C630 0.929 . S
H689 C631 0.930 . S
H690 C632 0.930 . S
H691 C633 0.930 . S
H692 C635 0.930 . S
H693 C637 0.929 . S
H694 C638 0.930 . S
H695 C639 0.930 . S
H696 C642 0.930 . S
H697 C645 0.929 . S
H698 C650 0.929 . S
H699 C651 0.930 . S
H700 C658 0.929 . S
H701 C659 0.930 . S
H702 C660 0.930 . S
H703 C661 0.930 . S
H704 C663 0.929 . S
H705 C664 0.930 . S
H706 C665 0.930 . S
H707 C666 0.930 . S
H708 C670 0.929 . S
H709 C672 0.930 . S
H710 C678 0.929 . S
H711 C679 0.930 . S
Li712 N729 1.990 . S
Li712 O772 1.956 . S
Li712 O773 1.970 . S
Li712 O774 1.961 . S
Li713 N737 1.990 . S
Li713 O772 1.970 . S
Li713 O773 1.956 . S
Li713 O775 1.961 . S
Li714 N759 1.990 . S
Li714 O772 1.961 . S
Li714 O774 1.956 . S
Li714 O775 1.970 . S
Li715 N765 1.990 . S
Li715 O773 1.961 . S
Li715 O774 1.970 . S
Li715 O775 1.956 . S
C716 C718 1.348 . S
C716 C719 1.356 . S
C716 O772 1.325 . S
N717 C720 1.314 . S
N717 C721 1.279 . S
C718 C716 1.348 . S
C718 C720 1.353 . S
C718 H776 0.929 . S
C719 C716 1.356 . S
C719 C721 1.358 . S
C719 H777 0.930 . S
C720 N717 1.314 . S
C720 C718 1.353 . S
C720 H778 0.930 . S
C721 N717 1.279 . S
C721 C719 1.358 . S
C721 H779 0.930 . S
C722 C725 1.348 . S
C722 C726 1.356 . S
C722 O773 1.325 . S
C723 N724 1.279 . S
C723 C726 1.358 . S
C723 H780 0.930 . S
N724 C723 1.279 . S
N724 C727 1.314 . S
C725 C722 1.348 . S
C725 C727 1.353 . S
C725 H781 0.929 . S
C726 C722 1.356 . S
C726 C723 1.358 . S
C726 H782 0.930 . S
C727 N724 1.314 . S
C727 C725 1.353 . S
C727 H783 0.930 . S
C728 N729 1.314 . S
C728 C733 1.353 . S
C728 H734 0.930 . S
N729 Li712 1.990 . S
N729 C728 1.314 . S
N729 C731 1.279 . S
C730 C731 1.358 . S
C730 C732 1.356 . S
C730 H784 0.930 . S
C731 N729 1.279 . S
C731 C730 1.358 . S
C731 H735 0.930 . S
C732 C730 1.356 . S
C732 C733 1.348 . S
C733 C728 1.353 . S
C733 C732 1.348 . S
C733 H785 0.929 . S
H734 C728 0.930 . S
H735 C731 0.930 . S
C736 N737 1.314 . S
C736 C738 1.353 . S
C736 H742 0.930 . S
N737 Li713 1.990 . S
N737 C736 1.314 . S
N737 C740 1.279 . S
C738 C736 1.353 . S
C738 C741 1.348 . S
C738 H786 0.929 . S
C739 C740 1.358 . S
C739 C741 1.356 . S
C739 H787 0.930 . S
C740 N737 1.279 . S
C740 C739 1.358 . S
C740 H743 0.930 . S
C741 C738 1.348 . S
C741 C739 1.356 . S
H742 C736 0.930 . S
H743 C740 0.930 . S
C744 C746 1.348 . S
C744 C747 1.356 . S
C744 O774 1.325 . S
N745 C748 1.314 . S
N745 C749 1.279 . S
C746 C744 1.348 . S
C746 C748 1.353 . S
C746 H788 0.929 . S
C747 C744 1.356 . S
C747 C749 1.358 . S
C747 H789 0.930 . S
C748 N745 1.314 . S
C748 C746 1.353 . S
C748 H790 0.930 . S
C749 N745 1.279 . S
C749 C747 1.358 . S
C749 H791 0.930 . S
C750 C751 1.348 . S
C750 C752 1.356 . S
C750 O775 1.325 . S
C751 C750 1.348 . S
C751 C753 1.353 . S
C751 H792 0.929 . S
C752 C750 1.356 . S
C752 C754 1.358 . S
C752 H793 0.930 . S
C753 C751 1.353 . S
C753 N755 1.314 . S
C753 H794 0.930 . S
C754 C752 1.358 . S
C754 N755 1.279 . S
C754 H795 0.930 . S
N755 C753 1.314 . S
N755 C754 1.279 . S
C756 C758 1.353 . S
C756 N759 1.314 . S
C756 H762 0.930 . S
C757 N759 1.279 . S
C757 C760 1.358 . S
C757 H763 0.930 . S
C758 C756 1.353 . S
C758 C761 1.348 . S
C758 H796 0.929 . S
N759 Li714 1.990 . S
N759 C756 1.314 . S
N759 C757 1.279 . S
C760 C757 1.358 . S
C760 C761 1.356 . S
C760 H797 0.930 . S
C761 C758 1.348 . S
C761 C760 1.356 . S
H762 C756 0.930 . S
H763 C757 0.930 . S
C764 N765 1.314 . S
C764 C766 1.353 . S
C764 H770 0.930 . S
N765 Li715 1.990 . S
N765 C764 1.314 . S
N765 C768 1.279 . S
C766 C764 1.353 . S
C766 C769 1.348 . S
C766 H798 0.929 . S
C767 C768 1.358 . S
C767 C769 1.356 . S
C767 H799 0.930 . S
C768 N765 1.279 . S
C768 C767 1.358 . S
C768 H771 0.930 . S
C769 C766 1.348 . S
C769 C767 1.356 . S
H770 C764 0.930 . S
H771 C768 0.930 . S
O772 Li712 1.956 . S
O772 Li713 1.970 . S
O772 Li714 1.961 . S
O772 C716 1.325 . S
O773 Li712 1.970 . S
O773 Li713 1.956 . S
O773 Li715 1.961 . S
O773 C722 1.325 . S
O774 Li712 1.961 . S
O774 Li714 1.956 . S
O774 Li715 1.970 . S
O774 C744 1.325 . S
O775 Li713 1.961 . S
O775 Li714 1.970 . S
O775 Li715 1.956 . S
O775 C750 1.325 . S
H776 C718 0.929 . S
H777 C719 0.930 . S
H778 C720 0.930 . S
H779 C721 0.930 . S
H780 C723 0.930 . S
H781 C725 0.929 . S
H782 C726 0.930 . S
H783 C727 0.930 . S
H784 C730 0.930 . S
H785 C733 0.929 . S
H786 C738 0.929 . S
H787 C739 0.930 . S
H788 C746 0.929 . S
H789 C747 0.930 . S
H790 C748 0.930 . S
H791 C749 0.930 . S
H792 C751 0.929 . S
H793 C752 0.930 . S
H794 C753 0.930 . S
H795 C754 0.930 . S
H796 C758 0.929 . S
H797 C760 0.930 . S
H798 C766 0.929 . S
H799 C767 0.930 . S
Li800 N817 1.990 . S
Li800 O860 1.958 . S
Li800 O861 1.970 1_556 S
Li800 O862 1.961 . S
Li801 N825 1.990 . S
Li801 O860 1.914 1_554 S
Li801 O861 1.956 . S
Li801 O863 1.961 . S
Li802 N847 1.990 . S
Li802 O860 2.005 . S
Li802 O862 1.956 . S
Li802 O863 1.970 1_556 S
Li803 N853 1.990 . S
Li803 O861 1.961 . S
Li803 O862 1.970 1_554 S
Li803 O863 1.956 . S
C804 C806 1.348 1_556 S
C804 C807 1.356 . S
C804 O860 1.337 . S
N805 C808 1.314 1_556 S
N805 C809 1.279 . S
C806 C804 1.348 1_554 S
C806 C808 1.353 . S
C806 H864 0.929 . S
C807 C804 1.356 . S
C807 C809 1.358 . S
C807 H865 0.930 . S
C808 N805 1.314 1_554 S
C808 C806 1.353 . S
C808 H866 0.930 . S
C809 N805 1.279 . S
C809 C807 1.358 . S
C809 H867 0.930 . S
C810 C813 1.348 . S
C810 C814 1.356 . S
C810 O861 1.325 . S
C811 N812 1.279 . S
C811 C814 1.358 . S
C811 H868 0.930 . S
N812 C811 1.279 . S
N812 C815 1.314 . S
C813 C810 1.348 . S
C813 C815 1.353 . S
C813 H869 0.929 . S
C814 C810 1.356 . S
C814 C811 1.358 . S
C814 H870 0.930 . S
C815 N812 1.314 . S
C815 C813 1.353 . S
C815 H871 0.930 . S
C816 N817 1.314 . S
C816 C821 1.353 . S
C816 H822 0.930 . S
N817 Li800 1.990 . S
N817 C816 1.314 . S
N817 C819 1.279 . S
C818 C819 1.358 . S
C818 C820 1.356 . S
C818 H872 0.930 . S
C819 N817 1.279 . S
C819 C818 1.358 . S
C819 H823 0.930 . S
C820 C818 1.356 . S
C820 C821 1.348 . S
C821 C816 1.353 . S
C821 C820 1.348 . S
C821 H873 0.929 . S
H822 C816 0.930 . S
H823 C819 0.930 . S
C824 N825 1.314 . S
C824 C826 1.353 . S
C824 H830 0.930 . S
N825 Li801 1.990 . S
N825 C824 1.314 . S
N825 C828 1.279 . S
C826 C824 1.353 . S
C826 C829 1.348 . S
C826 H874 0.929 . S
C827 C828 1.358 . S
C827 C829 1.356 . S
C827 H875 0.930 . S
C828 N825 1.279 . S
C828 C827 1.358 . S
C828 H831 0.930 . S
C829 C826 1.348 . S
C829 C827 1.356 . S
H830 C824 0.930 . S
H831 C828 0.930 . S
C832 C834 1.348 . S
C832 C835 1.356 . S
C832 O862 1.325 . S
N833 C836 1.314 . S
N833 C837 1.279 . S
C834 C832 1.348 . S
C834 C836 1.353 . S
C834 H876 0.929 . S
C835 C832 1.356 . S
C835 C837 1.358 . S
C835 H877 0.930 . S
C836 N833 1.314 . S
C836 C834 1.353 . S
C836 H878 0.930 . S
C837 N833 1.279 . S
C837 C835 1.358 . S
C837 H879 0.930 . S
C838 C839 1.348 1_554 S
C838 C840 1.356 . S
C838 O863 1.325 . S
C839 C838 1.348 1_556 S
C839 C841 1.353 . S
C839 H880 0.929 . S
C840 C838 1.356 . S
C840 C842 1.358 . S
C840 H881 0.930 . S
C841 C839 1.353 . S
C841 N843 1.314 1_556 S
C841 H882 0.930 . S
C842 C840 1.358 . S
C842 N843 1.279 . S
C842 H883 0.930 . S
N843 C841 1.314 1_554 S
N843 C842 1.279 . S
C844 C846 1.353 . S
C844 N847 1.314 . S
C844 H850 0.930 . S
C845 N847 1.279 . S
C845 C848 1.358 . S
C845 H851 0.930 . S
C846 C844 1.353 . S
C846 C849 1.348 . S
C846 H884 0.929 . S
N847 Li802 1.990 . S
N847 C844 1.314 . S
N847 C845 1.279 . S
C848 C845 1.358 . S
C848 C849 1.356 . S
C848 H885 0.930 . S
C849 C846 1.348 . S
C849 C848 1.356 . S
H850 C844 0.930 . S
H851 C845 0.930 . S
C852 N853 1.314 . S
C852 C854 1.353 . S
C852 H858 0.930 . S
N853 Li803 1.990 . S
N853 C852 1.314 . S
N853 C856 1.279 . S
C854 C852 1.353 . S
C854 C857 1.348 . S
C854 H886 0.929 . S
C855 C856 1.358 . S
C855 C857 1.356 . S
C855 H887 0.930 . S
C856 N853 1.279 . S
C856 C855 1.358 . S
C856 H859 0.930 . S
C857 C854 1.348 . S
C857 C855 1.356 . S
H858 C852 0.930 . S
H859 C856 0.930 . S
O860 Li800 1.958 . S
O860 Li801 1.914 1_556 S
O860 Li802 2.005 . S
O860 C804 1.337 . S
O861 Li800 1.970 1_554 S
O861 Li801 1.956 . S
O861 Li803 1.961 . S
O861 C810 1.325 . S
O862 Li800 1.961 . S
O862 Li802 1.956 . S
O862 Li803 1.970 1_556 S
O862 C832 1.325 . S
O863 Li801 1.961 . S
O863 Li802 1.970 1_554 S
O863 Li803 1.956 . S
O863 C838 1.325 . S
H864 C806 0.929 . S
H865 C807 0.930 . S
H866 C808 0.930 . S
H867 C809 0.930 . S
H868 C811 0.930 . S
H869 C813 0.929 . S
H870 C814 0.930 . S
H871 C815 0.930 . S
H872 C818 0.930 . S
H873 C821 0.929 . S
H874 C826 0.929 . S
H875 C827 0.930 . S
H876 C834 0.929 . S
H877 C835 0.930 . S
H878 C836 0.930 . S
H879 C837 0.930 . S
H880 C839 0.929 . S
H881 C840 0.930 . S
H882 C841 0.930 . S
H883 C842 0.930 . S
H884 C846 0.929 . S
H885 C848 0.930 . S
H886 C854 0.929 . S
H887 C855 0.930 . S
Li888 N905 1.990 . S
Li888 O948 1.956 . S
Li888 O949 1.944 1_545 S
Li888 O950 1.961 . S
Li889 N913 2.002 . S
Li889 O948 1.917 1_565 S
Li889 O949 1.956 . S
Li889 O951 2.001 . S
Li890 N935 1.990 . S
Li890 O948 1.961 . S
Li890 O950 1.956 . S
Li890 O951 1.970 1_545 S
Li891 N941 1.990 . S
Li891 O949 1.981 . S
Li891 O950 1.970 1_565 S
Li891 O951 1.956 . S
C892 C894 1.348 . S
C892 C895 1.356 . S
C892 O948 1.325 . S
N893 C896 1.314 . S
N893 C897 1.279 . S
C894 C892 1.348 . S
C894 C896 1.353 . S
C894 H952 0.929 . S
C895 C892 1.356 . S
C895 C897 1.358 . S
C895 H953 0.930 . S
C896 N893 1.314 . S
C896 C894 1.353 . S
C896 H954 0.930 . S
C897 N893 1.279 . S
C897 C895 1.358 . S
C897 H955 0.930 . S
C898 C901 1.348 1_565 S
C898 C902 1.356 . S
C898 O949 1.330 . S
C899 N900 1.279 . S
C899 C902 1.358 . S
C899 H956 0.930 . S
N900 C899 1.279 . S
N900 C903 1.314 1_565 S
C901 C898 1.348 1_545 S
C901 C903 1.353 . S
C901 H957 0.929 . S
C902 C898 1.356 . S
C902 C899 1.358 . S
C902 H958 0.930 . S
C903 N900 1.314 1_545 S
C903 C901 1.353 . S
C903 H959 0.930 . S
C904 N905 1.314 . S
C904 C909 1.353 . S
C904 H910 0.930 . S
N905 Li888 1.990 . S
N905 C904 1.314 . S
N905 C907 1.279 . S
C906 C907 1.358 . S
C906 C908 1.356 . S
C906 H960 0.930 . S
C907 N905 1.279 . S
C907 C906 1.358 . S
C907 H911 0.930 . S
C908 C906 1.356 . S
C908 C909 1.348 . S
C909 C904 1.353 . S
C909 C908 1.348 . S
C909 H961 0.929 . S
H910 C904 0.930 . S
H911 C907 0.930 . S
C912 N913 1.314 . S
C912 C914 1.353 . S
C912 H918 0.930 . S
N913 Li889 2.002 . S
N913 C912 1.314 . S
N913 C916 1.279 . S
C914 C912 1.353 . S
C914 C917 1.348 . S
C914 H962 0.929 . S
C915 C916 1.358 . S
C915 C917 1.356 . S
C915 H963 0.930 . S
C916 N913 1.279 . S
C916 C915 1.358 . S
C916 H919 0.942 . S
C917 C914 1.348 . S
C917 C915 1.356 . S
H918 C912 0.930 . S
H919 C916 0.942 . S
C920 C922 1.348 1_545 S
C920 C923 1.356 . S
C920 O950 1.325 . S
N921 C924 1.314 1_545 S
N921 C925 1.279 . S
C922 C920 1.348 1_565 S
C922 C924 1.353 . S
C922 H964 0.929 . S
C923 C920 1.356 . S
C923 C925 1.358 . S
C923 H965 0.930 . S
C924 N921 1.314 1_565 S
C924 C922 1.353 . S
C924 H966 0.930 . S
C925 N921 1.279 . S
C925 C923 1.358 . S
C925 H967 0.930 . S
C926 C927 1.348 . S
C926 C928 1.356 . S
C926 O951 1.325 . S
C927 C926 1.348 . S
C927 C929 1.353 . S
C927 H968 0.929 . S
C928 C926 1.356 . S
C928 C930 1.358 . S
C928 H969 0.930 . S
C929 C927 1.353 . S
C929 N931 1.314 . S
C929 H970 0.930 . S
C930 C928 1.358 . S
C930 N931 1.279 . S
C930 H971 0.930 . S
N931 C929 1.314 . S
N931 C930 1.279 . S
C932 C934 1.353 . S
C932 N935 1.314 . S
C932 H938 0.930 . S
C933 N935 1.279 . S
C933 C936 1.358 . S
C933 H939 0.930 . S
C934 C932 1.353 . S
C934 C937 1.348 . S
C934 H972 0.929 . S
N935 Li890 1.990 . S
N935 C932 1.314 . S
N935 C933 1.279 . S
C936 C933 1.358 . S
C936 C937 1.356 . S
C936 H973 0.930 . S
C937 C934 1.348 . S
C937 C936 1.356 . S
H938 C932 0.930 . S
H939 C933 0.930 . S
C940 N941 1.314 . S
C940 C942 1.353 . S
C940 H946 0.930 . S
N941 Li891 1.990 . S
N941 C940 1.314 . S
N941 C944 1.279 . S
C942 C940 1.353 . S
C942 C945 1.348 . S
C942 H974 0.929 . S
C943 C944 1.358 . S
C943 C945 1.356 . S
C943 H975 0.930 . S
C944 N941 1.279 . S
C944 C943 1.358 . S
C944 H947 0.930 . S
C945 C942 1.348 . S
C945 C943 1.356 . S
H946 C940 0.930 . S
H947 C944 0.930 . S
O948 Li888 1.956 . S
O948 Li889 1.917 1_545 S
O948 Li890 1.961 . S
O948 C892 1.325 . S
O949 Li888 1.944 1_565 S
O949 Li889 1.956 . S
O949 Li891 1.981 . S
O949 C898 1.330 . S
O950 Li888 1.961 . S
O950 Li890 1.956 . S
O950 Li891 1.970 1_545 S
O950 C920 1.325 . S
O951 Li889 2.001 . S
O951 Li890 1.970 1_565 S
O951 Li891 1.956 . S
O951 C926 1.325 . S
H952 C894 0.929 . S
H953 C895 0.930 . S
H954 C896 0.930 . S
H955 C897 0.930 . S
H956 C899 0.930 . S
H957 C901 0.929 . S
H958 C902 0.930 . S
H959 C903 0.930 . S
H960 C906 0.930 . S
H961 C909 0.929 . S
H962 C914 0.929 . S
H963 C915 0.930 . S
H964 C922 0.929 . S
H965 C923 0.930 . S
H966 C924 0.930 . S
H967 C925 0.930 . S
H968 C927 0.929 . S
H969 C928 0.930 . S
H970 C929 0.930 . S
H971 C930 0.930 . S
H972 C934 0.929 . S
H973 C936 0.930 . S
H974 C942 0.929 . S
H975 C943 0.930 . S
Li976 N993 1.990 . S
Li976 O1036 1.956 . S
Li976 O1037 1.970 . S
Li976 O1038 1.961 . S
Li977 N1001 1.990 . S
Li977 O1036 1.970 . S
Li977 O1037 1.956 . S
Li977 O1039 1.961 . S
Li978 N1023 1.990 . S
Li978 O1036 1.961 . S
Li978 O1038 1.956 . S
Li978 O1039 1.970 . S
Li979 N1029 1.990 . S
Li979 O1037 1.961 . S
Li979 O1038 1.970 . S
Li979 O1039 1.956 . S
C980 C982 1.348 . S
C980 C983 1.356 . S
C980 O1036 1.325 . S
N981 C984 1.314 . S
N981 C985 1.279 . S
C982 C980 1.348 . S
C982 C984 1.353 . S
C982 H1040 0.929 . S
C983 C980 1.356 . S
C983 C985 1.358 . S
C983 H1041 0.930 . S
C984 N981 1.314 . S
C984 C982 1.353 . S
C984 H1042 0.930 . S
C985 N981 1.279 . S
C985 C983 1.358 . S
C985 H1043 0.930 . S
C986 C989 1.348 . S
C986 C990 1.356 . S
C986 O1037 1.325 . S
C987 N988 1.279 . S
C987 C990 1.358 . S
C987 H1044 0.930 . S
N988 C987 1.279 . S
N988 C991 1.314 . S
C989 C986 1.348 . S
C989 C991 1.353 . S
C989 H1045 0.929 . S
C990 C986 1.356 . S
C990 C987 1.358 . S
C990 H1046 0.930 . S
C991 N988 1.314 . S
C991 C989 1.353 . S
C991 H1047 0.930 . S
C992 N993 1.314 . S
C992 C997 1.353 . S
C992 H998 0.930 . S
N993 Li976 1.990 . S
N993 C992 1.314 . S
N993 C995 1.279 . S
C994 C995 1.358 . S
C994 C996 1.356 . S
C994 H1048 0.930 . S
C995 N993 1.279 . S
C995 C994 1.358 . S
C995 H999 0.930 . S
C996 C994 1.356 . S
C996 C997 1.348 . S
C997 C992 1.353 . S
C997 C996 1.348 . S
C997 H1049 0.929 . S
H998 C992 0.930 . S
H999 C995 0.930 . S
C1000 N1001 1.314 . S
C1000 C1002 1.353 . S
C1000 H1006 0.930 . S
N1001 Li977 1.990 . S
N1001 C1000 1.314 . S
N1001 C1004 1.279 . S
C1002 C1000 1.353 . S
C1002 C1005 1.348 . S
C1002 H1050 0.929 . S
C1003 C1004 1.358 . S
C1003 C1005 1.356 . S
C1003 H1051 0.930 . S
C1004 N1001 1.279 . S
C1004 C1003 1.358 . S
C1004 H1007 0.930 . S
C1005 C1002 1.348 . S
C1005 C1003 1.356 . S
H1006 C1000 0.930 . S
H1007 C1004 0.930 . S
C1008 C1010 1.348 . S
C1008 C1011 1.356 . S
C1008 O1038 1.325 . S
N1009 C1012 1.314 . S
N1009 C1013 1.279 . S
C1010 C1008 1.348 . S
C1010 C1012 1.353 . S
C1010 H1052 0.929 . S
C1011 C1008 1.356 . S
C1011 C1013 1.358 . S
C1011 H1053 0.930 . S
C1012 N1009 1.314 . S
C1012 C1010 1.353 . S
C1012 H1054 0.930 . S
C1013 N1009 1.279 . S
C1013 C1011 1.358 . S
C1013 H1055 0.930 . S
C1014 C1015 1.348 . S
C1014 C1016 1.356 . S
C1014 O1039 1.325 . S
C1015 C1014 1.348 . S
C1015 C1017 1.353 . S
C1015 H1056 0.929 . S
C1016 C1014 1.356 . S
C1016 C1018 1.358 . S
C1016 H1057 0.930 . S
C1017 C1015 1.353 . S
C1017 N1019 1.314 . S
C1017 H1058 0.930 . S
C1018 C1016 1.358 . S
C1018 N1019 1.279 . S
C1018 H1059 0.930 . S
N1019 C1017 1.314 . S
N1019 C1018 1.279 . S
C1020 C1022 1.353 . S
C1020 N1023 1.314 . S
C1020 H1026 0.930 . S
C1021 N1023 1.279 . S
C1021 C1024 1.358 . S
C1021 H1027 0.930 . S
C1022 C1020 1.353 . S
C1022 C1025 1.348 . S
C1022 H1060 0.929 . S
N1023 Li978 1.990 . S
N1023 C1020 1.314 . S
N1023 C1021 1.279 . S
C1024 C1021 1.358 . S
C1024 C1025 1.356 . S
C1024 H1061 0.930 . S
C1025 C1022 1.348 . S
C1025 C1024 1.356 . S
H1026 C1020 0.930 . S
H1027 C1021 0.930 . S
C1028 N1029 1.314 . S
C1028 C1030 1.353 . S
C1028 H1034 0.930 . S
N1029 Li979 1.990 . S
N1029 C1028 1.314 . S
N1029 C1032 1.279 . S
C1030 C1028 1.353 . S
C1030 C1033 1.348 . S
C1030 H1062 0.929 . S
C1031 C1032 1.358 . S
C1031 C1033 1.356 . S
C1031 H1063 0.930 . S
C1032 N1029 1.279 . S
C1032 C1031 1.358 . S
C1032 H1035 0.930 . S
C1033 C1030 1.348 . S
C1033 C1031 1.356 . S
H1034 C1028 0.930 . S
H1035 C1032 0.930 . S
O1036 Li976 1.956 . S
O1036 Li977 1.970 . S
O1036 Li978 1.961 . S
O1036 C980 1.325 . S
O1037 Li976 1.970 . S
O1037 Li977 1.956 . S
O1037 Li979 1.961 . S
O1037 C986 1.325 . S
O1038 Li976 1.961 . S
O1038 Li978 1.956 . S
O1038 Li979 1.970 . S
O1038 C1008 1.325 . S
O1039 Li977 1.961 . S
O1039 Li978 1.970 . S
O1039 Li979 1.956 . S
O1039 C1014 1.325 . S
H1040 C982 0.929 . S
H1041 C983 0.930 . S
H1042 C984 0.930 . S
H1043 C985 0.930 . S
H1044 C987 0.930 . S
H1045 C989 0.929 . S
H1046 C990 0.930 . S
H1047 C991 0.930 . S
H1048 C994 0.930 . S
H1049 C997 0.929 . S
H1050 C1002 0.929 . S
H1051 C1003 0.930 . S
H1052 C1010 0.929 . S
H1053 C1011 0.930 . S
H1054 C1012 0.930 . S
H1055 C1013 0.930 . S
H1056 C1015 0.929 . S
H1057 C1016 0.930 . S
H1058 C1017 0.930 . S
H1059 C1018 0.930 . S
H1060 C1022 0.929 . S
H1061 C1024 0.930 . S
H1062 C1030 0.929 . S
H1063 C1031 0.930 . S
Li1064 N1081 1.990 . S
Li1064 O1124 1.956 . S
Li1064 O1125 1.970 . S
Li1064 O1126 1.961 . S
Li1065 N1089 1.990 . S
Li1065 O1124 1.970 . S
Li1065 O1125 1.956 . S
Li1065 O1127 1.961 . S
Li1066 N1111 1.990 . S
Li1066 O1124 1.961 . S
Li1066 O1126 1.956 . S
Li1066 O1127 1.970 . S
Li1067 N1117 1.990 . S
Li1067 O1125 1.961 . S
Li1067 O1126 1.970 . S
Li1067 O1127 1.956 . S
C1068 C1070 1.348 . S
C1068 C1071 1.356 . S
C1068 O1124 1.325 . S
N1069 C1072 1.314 . S
N1069 C1073 1.279 . S
C1070 C1068 1.348 . S
C1070 C1072 1.353 . S
C1070 H1128 0.929 . S
C1071 C1068 1.356 . S
C1071 C1073 1.358 . S
C1071 H1129 0.930 . S
C1072 N1069 1.314 . S
C1072 C1070 1.353 . S
C1072 H1130 0.930 . S
C1073 N1069 1.279 . S
C1073 C1071 1.358 . S
C1073 H1131 0.930 . S
C1074 C1077 1.348 . S
C1074 C1078 1.356 . S
C1074 O1125 1.325 . S
C1075 N1076 1.279 . S
C1075 C1078 1.358 . S
C1075 H1132 0.930 . S
N1076 C1075 1.279 . S
N1076 C1079 1.314 . S
C1077 C1074 1.348 . S
C1077 C1079 1.353 . S
C1077 H1133 0.929 . S
C1078 C1074 1.356 . S
C1078 C1075 1.358 . S
C1078 H1134 0.930 . S
C1079 N1076 1.314 . S
C1079 C1077 1.353 . S
C1079 H1135 0.930 . S
C1080 N1081 1.314 . S
C1080 C1085 1.353 . S
C1080 H1086 0.930 . S
N1081 Li1064 1.990 . S
N1081 C1080 1.314 . S
N1081 C1083 1.279 . S
C1082 C1083 1.358 . S
C1082 C1084 1.356 . S
C1082 H1136 0.930 . S
C1083 N1081 1.279 . S
C1083 C1082 1.358 . S
C1083 H1087 0.930 . S
C1084 C1082 1.356 . S
C1084 C1085 1.348 . S
C1085 C1080 1.353 . S
C1085 C1084 1.348 . S
C1085 H1137 0.929 . S
H1086 C1080 0.930 . S
H1087 C1083 0.930 . S
C1088 N1089 1.314 . S
C1088 C1090 1.353 . S
C1088 H1094 0.930 . S
N1089 Li1065 1.990 . S
N1089 C1088 1.314 . S
N1089 C1092 1.279 . S
C1090 C1088 1.353 . S
C1090 C1093 1.348 . S
C1090 H1138 0.929 . S
C1091 C1092 1.358 . S
C1091 C1093 1.356 . S
C1091 H1139 0.930 . S
C1092 N1089 1.279 . S
C1092 C1091 1.358 . S
C1092 H1095 0.930 . S
C1093 C1090 1.348 . S
C1093 C1091 1.356 . S
H1094 C1088 0.930 . S
H1095 C1092 0.930 . S
C1096 C1098 1.348 . S
C1096 C1099 1.356 . S
C1096 O1126 1.325 . S
N1097 C1100 1.314 . S
N1097 C1101 1.279 . S
C1098 C1096 1.348 . S
C1098 C1100 1.353 . S
C1098 H1140 0.929 . S
C1099 C1096 1.356 . S
C1099 C1101 1.358 . S
C1099 H1141 0.930 . S
C1100 N1097 1.314 . S
C1100 C1098 1.353 . S
C1100 H1142 0.930 . S
C1101 N1097 1.279 . S
C1101 C1099 1.358 . S
C1101 H1143 0.930 . S
C1102 C1103 1.348 . S
C1102 C1104 1.356 . S
C1102 O1127 1.325 . S
C1103 C1102 1.348 . S
C1103 C1105 1.353 . S
C1103 H1144 0.929 . S
C1104 C1102 1.356 . S
C1104 C1106 1.358 . S
C1104 H1145 0.930 . S
C1105 C1103 1.353 . S
C1105 N1107 1.314 . S
C1105 H1146 0.930 . S
C1106 C1104 1.358 . S
C1106 N1107 1.279 . S
C1106 H1147 0.930 . S
N1107 C1105 1.314 . S
N1107 C1106 1.279 . S
C1108 C1110 1.353 . S
C1108 N1111 1.314 . S
C1108 H1114 0.930 . S
C1109 N1111 1.279 . S
C1109 C1112 1.358 . S
C1109 H1115 0.930 . S
C1110 C1108 1.353 . S
C1110 C1113 1.348 . S
C1110 H1148 0.929 . S
N1111 Li1066 1.990 . S
N1111 C1108 1.314 . S
N1111 C1109 1.279 . S
C1112 C1109 1.358 . S
C1112 C1113 1.356 . S
C1112 H1149 0.930 . S
C1113 C1110 1.348 . S
C1113 C1112 1.356 . S
H1114 C1108 0.930 . S
H1115 C1109 0.930 . S
C1116 N1117 1.314 . S
C1116 C1118 1.353 . S
C1116 H1122 0.930 . S
N1117 Li1067 1.990 . S
N1117 C1116 1.314 . S
N1117 C1120 1.279 . S
C1118 C1116 1.353 . S
C1118 C1121 1.348 . S
C1118 H1150 0.929 . S
C1119 C1120 1.358 . S
C1119 C1121 1.356 . S
C1119 H1151 0.930 . S
C1120 N1117 1.279 . S
C1120 C1119 1.358 . S
C1120 H1123 0.930 . S
C1121 C1118 1.348 . S
C1121 C1119 1.356 . S
H1122 C1116 0.930 . S
H1123 C1120 0.930 . S
O1124 Li1064 1.956 . S
O1124 Li1065 1.970 . S
O1124 Li1066 1.961 . S
O1124 C1068 1.325 . S
O1125 Li1064 1.970 . S
O1125 Li1065 1.956 . S
O1125 Li1067 1.961 . S
O1125 C1074 1.325 . S
O1126 Li1064 1.961 . S
O1126 Li1066 1.956 . S
O1126 Li1067 1.970 . S
O1126 C1096 1.325 . S
O1127 Li1065 1.961 . S
O1127 Li1066 1.970 . S
O1127 Li1067 1.956 . S
O1127 C1102 1.325 . S
H1128 C1070 0.929 . S
H1129 C1071 0.930 . S
H1130 C1072 0.930 . S
H1131 C1073 0.930 . S
H1132 C1075 0.930 . S
H1133 C1077 0.929 . S
H1134 C1078 0.930 . S
H1135 C1079 0.930 . S
H1136 C1082 0.930 . S
H1137 C1085 0.929 . S
H1138 C1090 0.929 . S
H1139 C1091 0.930 . S
H1140 C1098 0.929 . S
H1141 C1099 0.930 . S
H1142 C1100 0.930 . S
H1143 C1101 0.930 . S
H1144 C1103 0.929 . S
H1145 C1104 0.930 . S
H1146 C1105 0.930 . S
H1147 C1106 0.930 . S
H1148 C1110 0.929 . S
H1149 C1112 0.930 . S
H1150 C1118 0.929 . S
H1151 C1119 0.930 . S
Li1152 N1169 1.990 . S
Li1152 O1212 1.956 . S
Li1152 O1213 1.970 . S
Li1152 O1214 1.961 . S
Li1153 N1177 1.990 . S
Li1153 O1212 1.970 . S
Li1153 O1213 1.956 . S
Li1153 O1215 1.961 . S
Li1154 N1199 1.990 . S
Li1154 O1212 1.961 . S
Li1154 O1214 1.956 . S
Li1154 O1215 1.970 . S
Li1155 N1205 1.990 . S
Li1155 O1213 1.961 . S
Li1155 O1214 1.970 . S
Li1155 O1215 1.956 . S
C1156 C1158 1.348 . S
C1156 C1159 1.356 . S
C1156 O1212 1.325 . S
N1157 C1160 1.314 . S
N1157 C1161 1.279 . S
C1158 C1156 1.348 . S
C1158 C1160 1.353 . S
C1158 H1216 0.929 . S
C1159 C1156 1.356 . S
C1159 C1161 1.358 . S
C1159 H1217 0.930 . S
C1160 N1157 1.314 . S
C1160 C1158 1.353 . S
C1160 H1218 0.930 . S
C1161 N1157 1.279 . S
C1161 C1159 1.358 . S
C1161 H1219 0.930 . S
C1162 C1165 1.348 . S
C1162 C1166 1.356 . S
C1162 O1213 1.325 . S
C1163 N1164 1.279 . S
C1163 C1166 1.358 . S
C1163 H1220 0.930 . S
N1164 C1163 1.279 . S
N1164 C1167 1.314 . S
C1165 C1162 1.348 . S
C1165 C1167 1.353 . S
C1165 H1221 0.929 . S
C1166 C1162 1.356 . S
C1166 C1163 1.358 . S
C1166 H1222 0.930 . S
C1167 N1164 1.314 . S
C1167 C1165 1.353 . S
C1167 H1223 0.930 . S
C1168 N1169 1.314 . S
C1168 C1173 1.353 . S
C1168 H1174 0.930 . S
N1169 Li1152 1.990 . S
N1169 C1168 1.314 . S
N1169 C1171 1.279 . S
C1170 C1171 1.358 . S
C1170 C1172 1.356 . S
C1170 H1224 0.930 . S
C1171 N1169 1.279 . S
C1171 C1170 1.358 . S
C1171 H1175 0.930 . S
C1172 C1170 1.356 . S
C1172 C1173 1.348 . S
C1173 C1168 1.353 . S
C1173 C1172 1.348 . S
C1173 H1225 0.929 . S
H1174 C1168 0.930 . S
H1175 C1171 0.930 . S
C1176 N1177 1.314 . S
C1176 C1178 1.353 . S
C1176 H1182 0.930 . S
N1177 Li1153 1.990 . S
N1177 C1176 1.314 . S
N1177 C1180 1.279 . S
C1178 C1176 1.353 . S
C1178 C1181 1.348 . S
C1178 H1226 0.929 . S
C1179 C1180 1.358 . S
C1179 C1181 1.356 . S
C1179 H1227 0.930 . S
C1180 N1177 1.279 . S
C1180 C1179 1.358 . S
C1180 H1183 0.930 . S
C1181 C1178 1.348 . S
C1181 C1179 1.356 . S
H1182 C1176 0.930 . S
H1183 C1180 0.930 . S
C1184 C1186 1.348 . S
C1184 C1187 1.356 . S
C1184 O1214 1.325 . S
N1185 C1188 1.314 . S
N1185 C1189 1.279 . S
C1186 C1184 1.348 . S
C1186 C1188 1.353 . S
C1186 H1228 0.929 . S
C1187 C1184 1.356 . S
C1187 C1189 1.358 . S
C1187 H1229 0.930 . S
C1188 N1185 1.314 . S
C1188 C1186 1.353 . S
C1188 H1230 0.930 . S
C1189 N1185 1.279 . S
C1189 C1187 1.358 . S
C1189 H1231 0.930 . S
C1190 C1191 1.348 . S
C1190 C1192 1.356 . S
C1190 O1215 1.325 . S
C1191 C1190 1.348 . S
C1191 C1193 1.353 . S
C1191 H1232 0.929 . S
C1192 C1190 1.356 . S
C1192 C1194 1.358 . S
C1192 H1233 0.930 . S
C1193 C1191 1.353 . S
C1193 N1195 1.314 . S
C1193 H1234 0.930 . S
C1194 C1192 1.358 . S
C1194 N1195 1.279 . S
C1194 H1235 0.930 . S
N1195 C1193 1.314 . S
N1195 C1194 1.279 . S
C1196 C1198 1.353 . S
C1196 N1199 1.314 . S
C1196 H1202 0.930 . S
C1197 N1199 1.279 . S
C1197 C1200 1.358 . S
C1197 H1203 0.930 . S
C1198 C1196 1.353 . S
C1198 C1201 1.348 . S
C1198 H1236 0.929 . S
N1199 Li1154 1.990 . S
N1199 C1196 1.314 . S
N1199 C1197 1.279 . S
C1200 C1197 1.358 . S
C1200 C1201 1.356 . S
C1200 H1237 0.930 . S
C1201 C1198 1.348 . S
C1201 C1200 1.356 . S
H1202 C1196 0.930 . S
H1203 C1197 0.930 . S
C1204 N1205 1.314 . S
C1204 C1206 1.353 . S
C1204 H1210 0.930 . S
N1205 Li1155 1.990 . S
N1205 C1204 1.314 . S
N1205 C1208 1.279 . S
C1206 C1204 1.353 . S
C1206 C1209 1.348 . S
C1206 H1238 0.929 . S
C1207 C1208 1.358 . S
C1207 C1209 1.356 . S
C1207 H1239 0.930 . S
C1208 N1205 1.279 . S
C1208 C1207 1.358 . S
C1208 H1211 0.930 . S
C1209 C1206 1.348 . S
C1209 C1207 1.356 . S
H1210 C1204 0.930 . S
H1211 C1208 0.930 . S
O1212 Li1152 1.956 . S
O1212 Li1153 1.970 . S
O1212 Li1154 1.961 . S
O1212 C1156 1.325 . S
O1213 Li1152 1.970 . S
O1213 Li1153 1.956 . S
O1213 Li1155 1.961 . S
O1213 C1162 1.325 . S
O1214 Li1152 1.961 . S
O1214 Li1154 1.956 . S
O1214 Li1155 1.970 . S
O1214 C1184 1.325 . S
O1215 Li1153 1.961 . S
O1215 Li1154 1.970 . S
O1215 Li1155 1.956 . S
O1215 C1190 1.325 . S
H1216 C1158 0.929 . S
H1217 C1159 0.930 . S
H1218 C1160 0.930 . S
H1219 C1161 0.930 . S
H1220 C1163 0.930 . S
H1221 C1165 0.929 . S
H1222 C1166 0.930 . S
H1223 C1167 0.930 . S
H1224 C1170 0.930 . S
H1225 C1173 0.929 . S
H1226 C1178 0.929 . S
H1227 C1179 0.930 . S
H1228 C1186 0.929 . S
H1229 C1187 0.930 . S
H1230 C1188 0.930 . S
H1231 C1189 0.930 . S
H1232 C1191 0.929 . S
H1233 C1192 0.930 . S
H1234 C1193 0.930 . S
H1235 C1194 0.930 . S
H1236 C1198 0.929 . S
H1237 C1200 0.930 . S
H1238 C1206 0.929 . S
H1239 C1207 0.930 . S
Li1240 N1257 1.990 . S
Li1240 O1300 1.956 . S
Li1240 O1301 1.970 1_565 S
Li1240 O1302 1.961 . S
Li1241 N1265 1.990 . S
Li1241 O1300 1.970 1_545 S
Li1241 O1301 1.956 . S
Li1241 O1303 1.961 . S
Li1242 N1287 1.990 . S
Li1242 O1300 1.961 . S
Li1242 O1302 1.956 . S
Li1242 O1303 1.970 1_565 S
Li1243 N1293 1.990 . S
Li1243 O1301 1.961 . S
Li1243 O1302 1.970 1_545 S
Li1243 O1303 1.956 . S
C1244 C1246 1.348 . S
C1244 C1247 1.356 . S
C1244 O1300 1.325 . S
N1245 C1248 1.314 . S
N1245 C1249 1.279 . S
C1246 C1244 1.348 . S
C1246 C1248 1.353 . S
C1246 H1304 0.929 . S
C1247 C1244 1.356 . S
C1247 C1249 1.358 . S
C1247 H1305 0.930 . S
C1248 N1245 1.314 . S
C1248 C1246 1.353 . S
C1248 H1306 0.930 . S
C1249 N1245 1.279 . S
C1249 C1247 1.358 . S
C1249 H1307 0.930 . S
C1250 C1253 1.348 1_545 S
C1250 C1254 1.356 . S
C1250 O1301 1.325 . S
C1251 N1252 1.279 . S
C1251 C1254 1.358 . S
C1251 H1308 0.930 . S
N1252 C1251 1.279 . S
N1252 C1255 1.314 1_545 S
C1253 C1250 1.348 1_565 S
C1253 C1255 1.353 . S
C1253 H1309 0.929 . S
C1254 C1250 1.356 . S
C1254 C1251 1.358 . S
C1254 H1310 0.930 . S
C1255 N1252 1.314 1_565 S
C1255 C1253 1.353 . S
C1255 H1311 0.930 . S
C1256 N1257 1.314 . S
C1256 C1261 1.353 . S
C1256 H1262 0.930 . S
N1257 Li1240 1.990 . S
N1257 C1256 1.314 . S
N1257 C1259 1.279 . S
C1258 C1259 1.358 . S
C1258 C1260 1.356 . S
C1258 H1312 0.930 . S
C1259 N1257 1.279 . S
C1259 C1258 1.358 . S
C1259 H1263 0.930 . S
C1260 C1258 1.356 . S
C1260 C1261 1.348 . S
C1261 C1256 1.353 . S
C1261 C1260 1.348 . S
C1261 H1313 0.929 . S
H1262 C1256 0.930 . S
H1263 C1259 0.930 . S
C1264 N1265 1.314 . S
C1264 C1266 1.353 . S
C1264 H1270 0.930 . S
N1265 Li1241 1.990 . S
N1265 C1264 1.314 . S
N1265 C1268 1.279 . S
C1266 C1264 1.353 . S
C1266 C1269 1.348 . S
C1266 H1314 0.929 . S
C1267 C1268 1.358 . S
C1267 C1269 1.356 . S
C1267 H1315 0.930 . S
C1268 N1265 1.279 . S
C1268 C1267 1.358 . S
C1268 H1271 0.930 . S
C1269 C1266 1.348 . S
C1269 C1267 1.356 . S
H1270 C1264 0.930 . S
H1271 C1268 0.930 . S
C1272 C1274 1.348 1_565 S
C1272 C1275 1.356 . S
C1272 O1302 1.325 . S
N1273 C1276 1.314 1_565 S
N1273 C1277 1.279 . S
C1274 C1272 1.348 1_545 S
C1274 C1276 1.353 . S
C1274 H1316 0.929 . S
C1275 C1272 1.356 . S
C1275 C1277 1.358 . S
C1275 H1317 0.930 . S
C1276 N1273 1.314 1_545 S
C1276 C1274 1.353 . S
C1276 H1318 0.930 . S
C1277 N1273 1.279 . S
C1277 C1275 1.358 . S
C1277 H1319 0.930 . S
C1278 C1279 1.348 . S
C1278 C1280 1.356 . S
C1278 O1303 1.325 . S
C1279 C1278 1.348 . S
C1279 C1281 1.353 . S
C1279 H1320 0.929 . S
C1280 C1278 1.356 . S
C1280 C1282 1.358 . S
C1280 H1321 0.930 . S
C1281 C1279 1.353 . S
C1281 N1283 1.314 . S
C1281 H1322 0.930 . S
C1282 C1280 1.358 . S
C1282 N1283 1.279 . S
C1282 H1323 0.930 . S
N1283 C1281 1.314 . S
N1283 C1282 1.279 . S
C1284 C1286 1.353 . S
C1284 N1287 1.314 . S
C1284 H1290 0.930 . S
C1285 N1287 1.279 . S
C1285 C1288 1.358 . S
C1285 H1291 0.930 . S
C1286 C1284 1.353 . S
C1286 C1289 1.348 . S
C1286 H1324 0.929 . S
N1287 Li1242 1.990 . S
N1287 C1284 1.314 . S
N1287 C1285 1.279 . S
C1288 C1285 1.358 . S
C1288 C1289 1.356 . S
C1288 H1325 0.930 . S
C1289 C1286 1.348 . S
C1289 C1288 1.356 . S
H1290 C1284 0.930 . S
H1291 C1285 0.930 . S
C1292 N1293 1.314 . S
C1292 C1294 1.353 . S
C1292 H1298 0.930 . S
N1293 Li1243 1.990 . S
N1293 C1292 1.314 . S
N1293 C1296 1.279 . S
C1294 C1292 1.353 . S
C1294 C1297 1.348 . S
C1294 H1326 0.929 . S
C1295 C1296 1.358 . S
C1295 C1297 1.356 . S
C1295 H1327 0.930 . S
C1296 N1293 1.279 . S
C1296 C1295 1.358 . S
C1296 H1299 0.930 . S
C1297 C1294 1.348 . S
C1297 C1295 1.356 . S
H1298 C1292 0.930 . S
H1299 C1296 0.930 . S
O1300 Li1240 1.956 . S
O1300 Li1241 1.970 1_565 S
O1300 Li1242 1.961 . S
O1300 C1244 1.325 . S
O1301 Li1240 1.970 1_545 S
O1301 Li1241 1.956 . S
O1301 Li1243 1.961 . S
O1301 C1250 1.325 . S
O1302 Li1240 1.961 . S
O1302 Li1242 1.956 . S
O1302 Li1243 1.970 1_565 S
O1302 C1272 1.325 . S
O1303 Li1241 1.961 . S
O1303 Li1242 1.970 1_545 S
O1303 Li1243 1.956 . S
O1303 C1278 1.325 . S
H1304 C1246 0.929 . S
H1305 C1247 0.930 . S
H1306 C1248 0.930 . S
H1307 C1249 0.930 . S
H1308 C1251 0.930 . S
H1309 C1253 0.929 . S
H1310 C1254 0.930 . S
H1311 C1255 0.930 . S
H1312 C1258 0.930 . S
H1313 C1261 0.929 . S
H1314 C1266 0.929 . S
H1315 C1267 0.930 . S
H1316 C1274 0.929 . S
H1317 C1275 0.930 . S
H1318 C1276 0.930 . S
H1319 C1277 0.930 . S
H1320 C1279 0.929 . S
H1321 C1280 0.930 . S
H1322 C1281 0.930 . S
H1323 C1282 0.930 . S
H1324 C1286 0.929 . S
H1325 C1288 0.930 . S
H1326 C1294 0.929 . S
H1327 C1295 0.930 . S
Li1328 N1345 1.990 . S
Li1328 O1388 1.956 . S
Li1328 O1389 1.970 1_455 S
Li1328 O1390 1.961 . S
Li1329 N1353 1.990 . S
Li1329 O1388 1.970 1_655 S
Li1329 O1389 1.956 . S
Li1329 O1391 1.961 . S
Li1330 N1375 1.990 . S
Li1330 O1388 1.961 . S
Li1330 O1390 1.956 . S
Li1330 O1391 1.970 1_455 S
Li1331 N1381 1.990 . S
Li1331 O1389 1.961 . S
Li1331 O1390 1.970 1_655 S
Li1331 O1391 1.956 . S
C1332 C1334 1.348 . S
C1332 C1335 1.356 . S
C1332 O1388 1.325 . S
N1333 C1336 1.314 . S
N1333 C1337 1.279 . S
C1334 C1332 1.348 . S
C1334 C1336 1.353 . S
C1334 H1392 0.929 . S
C1335 C1332 1.356 . S
C1335 C1337 1.358 . S
C1335 H1393 0.930 . S
C1336 N1333 1.314 . S
C1336 C1334 1.353 . S
C1336 H1394 0.930 . S
C1337 N1333 1.279 . S
C1337 C1335 1.358 . S
C1337 H1395 0.930 . S
C1338 C1341 1.348 1_655 S
C1338 C1342 1.356 . S
C1338 O1389 1.325 . S
C1339 N1340 1.279 . S
C1339 C1342 1.358 . S
C1339 H1396 0.930 . S
N1340 C1339 1.279 . S
N1340 C1343 1.314 1_655 S
C1341 C1338 1.348 1_455 S
C1341 C1343 1.353 . S
C1341 H1397 0.929 . S
C1342 C1338 1.356 . S
C1342 C1339 1.358 . S
C1342 H1398 0.930 . S
C1343 N1340 1.314 1_455 S
C1343 C1341 1.353 . S
C1343 H1399 0.930 . S
C1344 N1345 1.314 . S
C1344 C1349 1.353 . S
C1344 H1350 0.930 . S
N1345 Li1328 1.990 . S
N1345 C1344 1.314 . S
N1345 C1347 1.279 . S
C1346 C1347 1.358 . S
C1346 C1348 1.356 . S
C1346 H1400 0.930 . S
C1347 N1345 1.279 . S
C1347 C1346 1.358 . S
C1347 H1351 0.930 . S
C1348 C1346 1.356 . S
C1348 C1349 1.348 . S
C1349 C1344 1.353 . S
C1349 C1348 1.348 . S
C1349 H1401 0.929 . S
H1350 C1344 0.930 . S
H1351 C1347 0.930 . S
C1352 N1353 1.314 . S
C1352 C1354 1.353 . S
C1352 H1358 0.930 . S
N1353 Li1329 1.990 . S
N1353 C1352 1.314 . S
N1353 C1356 1.279 . S
C1354 C1352 1.353 . S
C1354 C1357 1.348 . S
C1354 H1402 0.929 . S
C1355 C1356 1.358 . S
C1355 C1357 1.356 . S
C1355 H1403 0.930 . S
C1356 N1353 1.279 . S
C1356 C1355 1.358 . S
C1356 H1359 0.930 . S
C1357 C1354 1.348 . S
C1357 C1355 1.356 . S
H1358 C1352 0.930 . S
H1359 C1356 0.930 . S
C1360 C1362 1.348 1_455 S
C1360 C1363 1.356 . S
C1360 O1390 1.325 . S
N1361 C1364 1.314 1_455 S
N1361 C1365 1.279 . S
C1362 C1360 1.348 1_655 S
C1362 C1364 1.353 . S
C1362 H1404 0.929 . S
C1363 C1360 1.356 . S
C1363 C1365 1.358 . S
C1363 H1405 0.930 . S
C1364 N1361 1.314 1_655 S
C1364 C1362 1.353 . S
C1364 H1406 0.930 . S
C1365 N1361 1.279 . S
C1365 C1363 1.358 . S
C1365 H1407 0.930 . S
C1366 C1367 1.348 . S
C1366 C1368 1.356 . S
C1366 O1391 1.325 . S
C1367 C1366 1.348 . S
C1367 C1369 1.353 . S
C1367 H1408 0.929 . S
C1368 C1366 1.356 . S
C1368 C1370 1.358 . S
C1368 H1409 0.930 . S
C1369 C1367 1.353 . S
C1369 N1371 1.314 . S
C1369 H1410 0.930 . S
C1370 C1368 1.358 . S
C1370 N1371 1.279 . S
C1370 H1411 0.930 . S
N1371 C1369 1.314 . S
N1371 C1370 1.279 . S
C1372 C1374 1.353 . S
C1372 N1375 1.314 . S
C1372 H1378 0.930 . S
C1373 N1375 1.279 . S
C1373 C1376 1.358 . S
C1373 H1379 0.930 . S
C1374 C1372 1.353 . S
C1374 C1377 1.348 . S
C1374 H1412 0.929 . S
N1375 Li1330 1.990 . S
N1375 C1372 1.314 . S
N1375 C1373 1.279 . S
C1376 C1373 1.358 . S
C1376 C1377 1.356 . S
C1376 H1413 0.930 . S
C1377 C1374 1.348 . S
C1377 C1376 1.356 . S
H1378 C1372 0.930 . S
H1379 C1373 0.930 . S
C1380 N1381 1.314 . S
C1380 C1382 1.353 . S
C1380 H1386 0.930 . S
N1381 Li1331 1.990 . S
N1381 C1380 1.314 . S
N1381 C1384 1.279 . S
C1382 C1380 1.353 . S
C1382 C1385 1.348 . S
C1382 H1414 0.929 . S
C1383 C1384 1.358 . S
C1383 C1385 1.356 . S
C1383 H1415 0.930 . S
C1384 N1381 1.279 . S
C1384 C1383 1.358 . S
C1384 H1387 0.930 . S
C1385 C1382 1.348 . S
C1385 C1383 1.356 . S
H1386 C1380 0.930 . S
H1387 C1384 0.930 . S
O1388 Li1328 1.956 . S
O1388 Li1329 1.970 1_455 S
O1388 Li1330 1.961 . S
O1388 C1332 1.325 . S
O1389 Li1328 1.970 1_655 S
O1389 Li1329 1.956 . S
O1389 Li1331 1.961 . S
O1389 C1338 1.325 . S
O1390 Li1328 1.961 . S
O1390 Li1330 1.956 . S
O1390 Li1331 1.970 1_455 S
O1390 C1360 1.325 . S
O1391 Li1329 1.961 . S
O1391 Li1330 1.970 1_655 S
O1391 Li1331 1.956 . S
O1391 C1366 1.325 . S
H1392 C1334 0.929 . S
H1393 C1335 0.930 . S
H1394 C1336 0.930 . S
H1395 C1337 0.930 . S
H1396 C1339 0.930 . S
H1397 C1341 0.929 . S
H1398 C1342 0.930 . S
H1399 C1343 0.930 . S
H1400 C1346 0.930 . S
H1401 C1349 0.929 . S
H1402 C1354 0.929 . S
H1403 C1355 0.930 . S
H1404 C1362 0.929 . S
H1405 C1363 0.930 . S
H1406 C1364 0.930 . S
H1407 C1365 0.930 . S
H1408 C1367 0.929 . S
H1409 C1368 0.930 . S
H1410 C1369 0.930 . S
H1411 C1370 0.930 . S
H1412 C1374 0.929 . S
H1413 C1376 0.930 . S
H1414 C1382 0.929 . S
H1415 C1383 0.930 . S
Li1416 N1433 1.990 . S
Li1416 O1476 1.956 . S
Li1416 O1477 1.970 . S
Li1416 O1478 1.961 . S
Li1417 N1441 1.990 . S
Li1417 O1476 1.970 . S
Li1417 O1477 1.956 . S
Li1417 O1479 1.961 . S
Li1418 N1463 1.990 . S
Li1418 O1476 1.961 . S
Li1418 O1478 1.956 . S
Li1418 O1479 1.970 . S
Li1419 N1469 1.990 . S
Li1419 O1477 1.961 . S
Li1419 O1478 1.970 . S
Li1419 O1479 1.956 . S
C1420 C1422 1.348 . S
C1420 C1423 1.356 . S
C1420 O1476 1.325 . S
N1421 C1424 1.314 . S
N1421 C1425 1.279 . S
C1422 C1420 1.348 . S
C1422 C1424 1.353 . S
C1422 H1480 0.929 . S
C1423 C1420 1.356 . S
C1423 C1425 1.358 . S
C1423 H1481 0.930 . S
C1424 N1421 1.314 . S
C1424 C1422 1.353 . S
C1424 H1482 0.930 . S
C1425 N1421 1.279 . S
C1425 C1423 1.358 . S
C1425 H1483 0.930 . S
C1426 C1429 1.348 . S
C1426 C1430 1.356 . S
C1426 O1477 1.325 . S
C1427 N1428 1.279 . S
C1427 C1430 1.358 . S
C1427 H1484 0.930 . S
N1428 C1427 1.279 . S
N1428 C1431 1.314 . S
C1429 C1426 1.348 . S
C1429 C1431 1.353 . S
C1429 H1485 0.929 . S
C1430 C1426 1.356 . S
C1430 C1427 1.358 . S
C1430 H1486 0.930 . S
C1431 N1428 1.314 . S
C1431 C1429 1.353 . S
C1431 H1487 0.930 . S
C1432 N1433 1.314 . S
C1432 C1437 1.353 . S
C1432 H1438 0.930 . S
N1433 Li1416 1.990 . S
N1433 C1432 1.314 . S
N1433 C1435 1.279 . S
C1434 C1435 1.358 . S
C1434 C1436 1.356 . S
C1434 H1488 0.930 . S
C1435 N1433 1.279 . S
C1435 C1434 1.358 . S
C1435 H1439 0.930 . S
C1436 C1434 1.356 . S
C1436 C1437 1.348 . S
C1437 C1432 1.353 . S
C1437 C1436 1.348 . S
C1437 H1489 0.929 . S
H1438 C1432 0.930 . S
H1439 C1435 0.930 . S
C1440 N1441 1.314 . S
C1440 C1442 1.353 . S
C1440 H1446 0.930 . S
N1441 Li1417 1.990 . S
N1441 C1440 1.314 . S
N1441 C1444 1.279 . S
C1442 C1440 1.353 . S
C1442 C1445 1.348 . S
C1442 H1490 0.929 . S
C1443 C1444 1.358 . S
C1443 C1445 1.356 . S
C1443 H1491 0.930 . S
C1444 N1441 1.279 . S
C1444 C1443 1.358 . S
C1444 H1447 0.930 . S
C1445 C1442 1.348 . S
C1445 C1443 1.356 . S
H1446 C1440 0.930 . S
H1447 C1444 0.930 . S
C1448 C1450 1.348 . S
C1448 C1451 1.356 . S
C1448 O1478 1.325 . S
N1449 C1452 1.314 . S
N1449 C1453 1.279 . S
C1450 C1448 1.348 . S
C1450 C1452 1.353 . S
C1450 H1492 0.929 . S
C1451 C1448 1.356 . S
C1451 C1453 1.358 . S
C1451 H1493 0.930 . S
C1452 N1449 1.314 . S
C1452 C1450 1.353 . S
C1452 H1494 0.930 . S
C1453 N1449 1.279 . S
C1453 C1451 1.358 . S
C1453 H1495 0.930 . S
C1454 C1455 1.348 . S
C1454 C1456 1.356 . S
C1454 O1479 1.325 . S
C1455 C1454 1.348 . S
C1455 C1457 1.353 . S
C1455 H1496 0.929 . S
C1456 C1454 1.356 . S
C1456 C1458 1.358 . S
C1456 H1497 0.930 . S
C1457 C1455 1.353 . S
C1457 N1459 1.314 . S
C1457 H1498 0.930 . S
C1458 C1456 1.358 . S
C1458 N1459 1.279 . S
C1458 H1499 0.930 . S
N1459 C1457 1.314 . S
N1459 C1458 1.279 . S
C1460 C1462 1.353 . S
C1460 N1463 1.314 . S
C1460 H1466 0.930 . S
C1461 N1463 1.279 . S
C1461 C1464 1.358 . S
C1461 H1467 0.930 . S
C1462 C1460 1.353 . S
C1462 C1465 1.348 . S
C1462 H1500 0.929 . S
N1463 Li1418 1.990 . S
N1463 C1460 1.314 . S
N1463 C1461 1.279 . S
C1464 C1461 1.358 . S
C1464 C1465 1.356 . S
C1464 H1501 0.930 . S
C1465 C1462 1.348 . S
C1465 C1464 1.356 . S
H1466 C1460 0.930 . S
H1467 C1461 0.930 . S
C1468 N1469 1.314 . S
C1468 C1470 1.353 . S
C1468 H1474 0.930 . S
N1469 Li1419 1.990 . S
N1469 C1468 1.314 . S
N1469 C1472 1.279 . S
C1470 C1468 1.353 . S
C1470 C1473 1.348 . S
C1470 H1502 0.929 . S
C1471 C1472 1.358 . S
C1471 C1473 1.356 . S
C1471 H1503 0.930 . S
C1472 N1469 1.279 . S
C1472 C1471 1.358 . S
C1472 H1475 0.930 . S
C1473 C1470 1.348 . S
C1473 C1471 1.356 . S
H1474 C1468 0.930 . S
H1475 C1472 0.930 . S
O1476 Li1416 1.956 . S
O1476 Li1417 1.970 . S
O1476 Li1418 1.961 . S
O1476 C1420 1.325 . S
O1477 Li1416 1.970 . S
O1477 Li1417 1.956 . S
O1477 Li1419 1.961 . S
O1477 C1426 1.325 . S
O1478 Li1416 1.961 . S
O1478 Li1418 1.956 . S
O1478 Li1419 1.970 . S
O1478 C1448 1.325 . S
O1479 Li1417 1.961 . S
O1479 Li1418 1.970 . S
O1479 Li1419 1.956 . S
O1479 C1454 1.325 . S
H1480 C1422 0.929 . S
H1481 C1423 0.930 . S
H1482 C1424 0.930 . S
H1483 C1425 0.930 . S
H1484 C1427 0.930 . S
H1485 C1429 0.929 . S
H1486 C1430 0.930 . S
H1487 C1431 0.930 . S
H1488 C1434 0.930 . S
H1489 C1437 0.929 . S
H1490 C1442 0.929 . S
H1491 C1443 0.930 . S
H1492 C1450 0.929 . S
H1493 C1451 0.930 . S
H1494 C1452 0.930 . S
H1495 C1453 0.930 . S
H1496 C1455 0.929 . S
H1497 C1456 0.930 . S
H1498 C1457 0.930 . S
H1499 C1458 0.930 . S
H1500 C1462 0.929 . S
H1501 C1464 0.930 . S
H1502 C1470 0.929 . S
H1503 C1471 0.930 . S
Li1504 N1521 1.990 . S
Li1504 O1564 1.956 . S
Li1504 O1565 1.970 1_455 S
Li1504 O1566 1.961 . S
Li1505 N1529 1.990 . S
Li1505 O1564 1.970 1_655 S
Li1505 O1565 1.956 . S
Li1505 O1567 1.961 . S
Li1506 N1551 1.990 . S
Li1506 O1564 1.961 . S
Li1506 O1566 1.956 . S
Li1506 O1567 1.970 1_455 S
Li1507 N1557 1.990 . S
Li1507 O1565 1.961 . S
Li1507 O1566 1.970 1_655 S
Li1507 O1567 1.956 . S
C1508 C1510 1.348 1_455 S
C1508 C1511 1.356 . S
C1508 O1564 1.325 . S
N1509 C1512 1.314 1_455 S
N1509 C1513 1.279 . S
C1510 C1508 1.348 1_655 S
C1510 C1512 1.353 . S
C1510 H1568 0.929 . S
C1511 C1508 1.356 . S
C1511 C1513 1.358 . S
C1511 H1569 0.930 . S
C1512 N1509 1.314 1_655 S
C1512 C1510 1.353 . S
C1512 H1570 0.930 . S
C1513 N1509 1.279 . S
C1513 C1511 1.358 . S
C1513 H1571 0.930 . S
C1514 C1517 1.348 . S
C1514 C1518 1.356 . S
C1514 O1565 1.325 . S
C1515 N1516 1.279 . S
C1515 C1518 1.358 . S
C1515 H1572 0.930 . S
N1516 C1515 1.279 . S
N1516 C1519 1.314 . S
C1517 C1514 1.348 . S
C1517 C1519 1.353 . S
C1517 H1573 0.929 . S
C1518 C1514 1.356 . S
C1518 C1515 1.358 . S
C1518 H1574 0.930 . S
C1519 N1516 1.314 . S
C1519 C1517 1.353 . S
C1519 H1575 0.930 . S
C1520 N1521 1.314 . S
C1520 C1525 1.353 . S
C1520 H1526 0.930 . S
N1521 Li1504 1.990 . S
N1521 C1520 1.314 . S
N1521 C1523 1.279 . S
C1522 C1523 1.358 . S
C1522 C1524 1.356 . S
C1522 H1576 0.930 . S
C1523 N1521 1.279 . S
C1523 C1522 1.358 . S
C1523 H1527 0.930 . S
C1524 C1522 1.356 . S
C1524 C1525 1.348 . S
C1525 C1520 1.353 . S
C1525 C1524 1.348 . S
C1525 H1577 0.929 . S
H1526 C1520 0.930 . S
H1527 C1523 0.930 . S
C1528 N1529 1.314 . S
C1528 C1530 1.353 . S
C1528 H1534 0.930 . S
N1529 Li1505 1.990 . S
N1529 C1528 1.314 . S
N1529 C1532 1.279 . S
C1530 C1528 1.353 . S
C1530 C1533 1.348 . S
C1530 H1578 0.929 . S
C1531 C1532 1.358 . S
C1531 C1533 1.356 . S
C1531 H1579 0.930 . S
C1532 N1529 1.279 . S
C1532 C1531 1.358 . S
C1532 H1535 0.930 . S
C1533 C1530 1.348 . S
C1533 C1531 1.356 . S
H1534 C1528 0.930 . S
H1535 C1532 0.930 . S
C1536 C1538 1.348 . S
C1536 C1539 1.356 . S
C1536 O1566 1.325 . S
N1537 C1540 1.314 . S
N1537 C1541 1.279 . S
C1538 C1536 1.348 . S
C1538 C1540 1.353 . S
C1538 H1580 0.929 . S
C1539 C1536 1.356 . S
C1539 C1541 1.358 . S
C1539 H1581 0.930 . S
C1540 N1537 1.314 . S
C1540 C1538 1.353 . S
C1540 H1582 0.930 . S
C1541 N1537 1.279 . S
C1541 C1539 1.358 . S
C1541 H1583 0.930 . S
C1542 C1543 1.348 1_655 S
C1542 C1544 1.356 . S
C1542 O1567 1.325 . S
C1543 C1542 1.348 1_455 S
C1543 C1545 1.353 . S
C1543 H1584 0.929 . S
C1544 C1542 1.356 . S
C1544 C1546 1.358 . S
C1544 H1585 0.930 . S
C1545 C1543 1.353 . S
C1545 N1547 1.314 1_455 S
C1545 H1586 0.930 . S
C1546 C1544 1.358 . S
C1546 N1547 1.279 . S
C1546 H1587 0.930 . S
N1547 C1545 1.314 1_655 S
N1547 C1546 1.279 . S
C1548 C1550 1.353 . S
C1548 N1551 1.314 . S
C1548 H1554 0.930 . S
C1549 N1551 1.279 . S
C1549 C1552 1.358 . S
C1549 H1555 0.930 . S
C1550 C1548 1.353 . S
C1550 C1553 1.348 . S
C1550 H1588 0.929 . S
N1551 Li1506 1.990 . S
N1551 C1548 1.314 . S
N1551 C1549 1.279 . S
C1552 C1549 1.358 . S
C1552 C1553 1.356 . S
C1552 H1589 0.930 . S
C1553 C1550 1.348 . S
C1553 C1552 1.356 . S
H1554 C1548 0.930 . S
H1555 C1549 0.930 . S
C1556 N1557 1.314 . S
C1556 C1558 1.353 . S
C1556 H1562 0.930 . S
N1557 Li1507 1.990 . S
N1557 C1556 1.314 . S
N1557 C1560 1.279 . S
C1558 C1556 1.353 . S
C1558 C1561 1.348 . S
C1558 H1590 0.929 . S
C1559 C1560 1.358 . S
C1559 C1561 1.356 . S
C1559 H1591 0.930 . S
C1560 N1557 1.279 . S
C1560 C1559 1.358 . S
C1560 H1563 0.930 . S
C1561 C1558 1.348 . S
C1561 C1559 1.356 . S
H1562 C1556 0.930 . S
H1563 C1560 0.930 . S
O1564 Li1504 1.956 . S
O1564 Li1505 1.970 1_455 S
O1564 Li1506 1.961 . S
O1564 C1508 1.325 . S
O1565 Li1504 1.970 1_655 S
O1565 Li1505 1.956 . S
O1565 Li1507 1.961 . S
O1565 C1514 1.325 . S
O1566 Li1504 1.961 . S
O1566 Li1506 1.956 . S
O1566 Li1507 1.970 1_455 S
O1566 C1536 1.325 . S
O1567 Li1505 1.961 . S
O1567 Li1506 1.970 1_655 S
O1567 Li1507 1.956 . S
O1567 C1542 1.325 . S
H1568 C1510 0.929 . S
H1569 C1511 0.930 . S
H1570 C1512 0.930 . S
H1571 C1513 0.930 . S
H1572 C1515 0.930 . S
H1573 C1517 0.929 . S
H1574 C1518 0.930 . S
H1575 C1519 0.930 . S
H1576 C1522 0.930 . S
H1577 C1525 0.929 . S
H1578 C1530 0.929 . S
H1579 C1531 0.930 . S
H1580 C1538 0.929 . S
H1581 C1539 0.930 . S
H1582 C1540 0.930 . S
H1583 C1541 0.930 . S
H1584 C1543 0.929 . S
H1585 C1544 0.930 . S
H1586 C1545 0.930 . S
H1587 C1546 0.930 . S
H1588 C1550 0.929 . S
H1589 C1552 0.930 . S
H1590 C1558 0.929 . S
H1591 C1559 0.930 . S
Li1592 N1609 1.990 . S
Li1592 O1652 1.956 . S
Li1592 O1653 1.970 . S
Li1592 O1654 1.961 . S
Li1593 N1617 1.990 . S
Li1593 O1652 1.970 . S
Li1593 O1653 1.956 . S
Li1593 O1655 1.961 . S
Li1594 N1639 1.990 . S
Li1594 O1652 1.961 . S
Li1594 O1654 1.956 . S
Li1594 O1655 1.970 . S
Li1595 N1645 1.990 . S
Li1595 O1653 1.961 . S
Li1595 O1654 1.970 . S
Li1595 O1655 1.956 . S
C1596 C1598 1.348 . S
C1596 C1599 1.356 . S
C1596 O1652 1.325 . S
N1597 C1600 1.314 . S
N1597 C1601 1.279 . S
C1598 C1596 1.348 . S
C1598 C1600 1.353 . S
C1598 H1656 0.929 . S
C1599 C1596 1.356 . S
C1599 C1601 1.358 . S
C1599 H1657 0.930 . S
C1600 N1597 1.314 . S
C1600 C1598 1.353 . S
C1600 H1658 0.930 . S
C1601 N1597 1.279 . S
C1601 C1599 1.358 . S
C1601 H1659 0.930 . S
C1602 C1605 1.348 . S
C1602 C1606 1.356 . S
C1602 O1653 1.325 . S
C1603 N1604 1.279 . S
C1603 C1606 1.358 . S
C1603 H1660 0.930 . S
N1604 C1603 1.279 . S
N1604 C1607 1.314 . S
C1605 C1602 1.348 . S
C1605 C1607 1.353 . S
C1605 H1661 0.929 . S
C1606 C1602 1.356 . S
C1606 C1603 1.358 . S
C1606 H1662 0.930 . S
C1607 N1604 1.314 . S
C1607 C1605 1.353 . S
C1607 H1663 0.930 . S
C1608 N1609 1.314 . S
C1608 C1613 1.353 . S
C1608 H1614 0.930 . S
N1609 Li1592 1.990 . S
N1609 C1608 1.314 . S
N1609 C1611 1.279 . S
C1610 C1611 1.358 . S
C1610 C1612 1.356 . S
C1610 H1664 0.930 . S
C1611 N1609 1.279 . S
C1611 C1610 1.358 . S
C1611 H1615 0.930 . S
C1612 C1610 1.356 . S
C1612 C1613 1.348 . S
C1613 C1608 1.353 . S
C1613 C1612 1.348 . S
C1613 H1665 0.929 . S
H1614 C1608 0.930 . S
H1615 C1611 0.930 . S
C1616 N1617 1.314 . S
C1616 C1618 1.353 . S
C1616 H1622 0.930 . S
N1617 Li1593 1.990 . S
N1617 C1616 1.314 . S
N1617 C1620 1.279 . S
C1618 C1616 1.353 . S
C1618 C1621 1.348 . S
C1618 H1666 0.929 . S
C1619 C1620 1.358 . S
C1619 C1621 1.356 . S
C1619 H1667 0.930 . S
C1620 N1617 1.279 . S
C1620 C1619 1.358 . S
C1620 H1623 0.930 . S
C1621 C1618 1.348 . S
C1621 C1619 1.356 . S
H1622 C1616 0.930 . S
H1623 C1620 0.930 . S
C1624 C1626 1.348 . S
C1624 C1627 1.356 . S
C1624 O1654 1.325 . S
N1625 C1628 1.314 . S
N1625 C1629 1.279 . S
C1626 C1624 1.348 . S
C1626 C1628 1.353 . S
C1626 H1668 0.929 . S
C1627 C1624 1.356 . S
C1627 C1629 1.358 . S
C1627 H1669 0.930 . S
C1628 N1625 1.314 . S
C1628 C1626 1.353 . S
C1628 H1670 0.930 . S
C1629 N1625 1.279 . S
C1629 C1627 1.358 . S
C1629 H1671 0.930 . S
C1630 C1631 1.348 . S
C1630 C1632 1.356 . S
C1630 O1655 1.325 . S
C1631 C1630 1.348 . S
C1631 C1633 1.353 . S
C1631 H1672 0.929 . S
C1632 C1630 1.356 . S
C1632 C1634 1.358 . S
C1632 H1673 0.930 . S
C1633 C1631 1.353 . S
C1633 N1635 1.314 . S
C1633 H1674 0.930 . S
C1634 C1632 1.358 . S
C1634 N1635 1.279 . S
C1634 H1675 0.930 . S
N1635 C1633 1.314 . S
N1635 C1634 1.279 . S
C1636 C1638 1.353 . S
C1636 N1639 1.314 . S
C1636 H1642 0.930 . S
C1637 N1639 1.279 . S
C1637 C1640 1.358 . S
C1637 H1643 0.930 . S
C1638 C1636 1.353 . S
C1638 C1641 1.348 . S
C1638 H1676 0.929 . S
N1639 Li1594 1.990 . S
N1639 C1636 1.314 . S
N1639 C1637 1.279 . S
C1640 C1637 1.358 . S
C1640 C1641 1.356 . S
C1640 H1677 0.930 . S
C1641 C1638 1.348 . S
C1641 C1640 1.356 . S
H1642 C1636 0.930 . S
H1643 C1637 0.930 . S
C1644 N1645 1.314 . S
C1644 C1646 1.353 . S
C1644 H1650 0.930 . S
N1645 Li1595 1.990 . S
N1645 C1644 1.314 . S
N1645 C1648 1.279 . S
C1646 C1644 1.353 . S
C1646 C1649 1.348 . S
C1646 H1678 0.929 . S
C1647 C1648 1.358 . S
C1647 C1649 1.356 . S
C1647 H1679 0.930 . S
C1648 N1645 1.279 . S
C1648 C1647 1.358 . S
C1648 H1651 0.930 . S
C1649 C1646 1.348 . S
C1649 C1647 1.356 . S
H1650 C1644 0.930 . S
H1651 C1648 0.930 . S
O1652 Li1592 1.956 . S
O1652 Li1593 1.970 . S
O1652 Li1594 1.961 . S
O1652 C1596 1.325 . S
O1653 Li1592 1.970 . S
O1653 Li1593 1.956 . S
O1653 Li1595 1.961 . S
O1653 C1602 1.325 . S
O1654 Li1592 1.961 . S
O1654 Li1594 1.956 . S
O1654 Li1595 1.970 . S
O1654 C1624 1.325 . S
O1655 Li1593 1.961 . S
O1655 Li1594 1.970 . S
O1655 Li1595 1.956 . S
O1655 C1630 1.325 . S
H1656 C1598 0.929 . S
H1657 C1599 0.930 . S
H1658 C1600 0.930 . S
H1659 C1601 0.930 . S
H1660 C1603 0.930 . S
H1661 C1605 0.929 . S
H1662 C1606 0.930 . S
H1663 C1607 0.930 . S
H1664 C1610 0.930 . S
H1665 C1613 0.929 . S
H1666 C1618 0.929 . S
H1667 C1619 0.930 . S
H1668 C1626 0.929 . S
H1669 C1627 0.930 . S
H1670 C1628 0.930 . S
H1671 C1629 0.930 . S
H1672 C1631 0.929 . S
H1673 C1632 0.930 . S
H1674 C1633 0.930 . S
H1675 C1634 0.930 . S
H1676 C1638 0.929 . S
H1677 C1640 0.930 . S
H1678 C1646 0.929 . S
H1679 C1647 0.930 . S
C1680 C1681 1.349 . S
C1680 C1682 1.327 . S
C1680 H1705 0.950 . S
C1681 C1680 1.349 . S
C1681 C1697 1.349 . S
C1682 C1680 1.327 . S
C1682 C1701 1.429 . S
C1682 H1706 0.950 . S
C1683 C1700 1.574 . S
C1683 C1702 1.368 . S
C1683 H1707 0.949 . S
H1684 C1688 0.949 . S
C1685 C1686 1.349 . S
C1685 C1687 1.327 . S
C1685 H1708 0.950 . S
C1686 C1685 1.349 . S
C1686 C1698 1.349 . S
C1687 C1685 1.327 . S
C1687 C1703 1.429 . S
C1687 H1709 0.950 . S
C1688 H1684 0.949 . S
C1688 C1696 1.574 . S
C1688 C1704 1.368 . S
H1689 C1697 0.950 . S
H1690 C1695 0.950 . S
H1691 C1696 0.949 . S
H1692 C1698 0.950 . S
H1693 C1699 0.950 . S
H1694 C1700 0.949 . S
C1695 H1690 0.950 . S
C1695 C1697 1.327 . S
C1695 C1701 1.429 . S
C1696 C1688 1.574 . S
C1696 H1691 0.949 . S
C1696 C1702 1.368 . S
C1697 C1681 1.349 . S
C1697 H1689 0.950 . S
C1697 C1695 1.327 . S
C1698 C1686 1.349 . S
C1698 H1692 0.950 . S
C1698 C1699 1.327 . S
C1699 H1693 0.950 . S
C1699 C1698 1.327 . S
C1699 C1703 1.429 . S
C1700 C1683 1.574 . S
C1700 H1694 0.949 . S
C1700 C1704 1.368 . S
C1701 C1682 1.429 . S
C1701 C1695 1.429 . S
C1701 C1702 1.523 . S
C1702 C1683 1.368 . S
C1702 C1696 1.368 . S
C1702 C1701 1.523 . S
C1703 C1687 1.429 . S
C1703 C1699 1.429 . S
C1703 C1704 1.523 . S
C1704 C1688 1.368 . S
C1704 C1700 1.368 . S
C1704 C1703 1.523 . S
H1705 C1680 0.950 . S
H1706 C1682 0.950 . S
H1707 C1683 0.949 . S
H1708 C1685 0.950 . S
H1709 C1687 0.950 . S
C1710 C1711 1.349 . S
C1710 C1712 1.327 . S
C1710 H1735 0.950 . S
C1711 C1710 1.349 . S
C1711 C1727 1.349 . S
C1712 C1710 1.327 . S
C1712 C1731 1.429 . S
C1712 H1736 0.950 . S
C1713 C1730 1.574 . S
C1713 C1732 1.368 . S
C1713 H1737 0.949 . S
H1714 C1718 0.949 . S
C1715 C1716 1.349 . S
C1715 C1717 1.327 . S
C1715 H1738 0.950 . S
C1716 C1715 1.349 . S
C1716 C1728 1.349 . S
C1717 C1715 1.327 . S
C1717 C1733 1.429 . S
C1717 H1739 0.950 . S
C1718 H1714 0.949 . S
C1718 C1726 1.574 . S
C1718 C1734 1.368 . S
H1719 C1727 0.950 . S
H1720 C1725 0.950 . S
H1721 C1726 0.949 . S
H1722 C1728 0.950 . S
H1723 C1729 0.950 . S
H1724 C1730 0.949 . S
C1725 H1720 0.950 . S
C1725 C1727 1.327 . S
C1725 C1731 1.429 . S
C1726 C1718 1.574 . S
C1726 H1721 0.949 . S
C1726 C1732 1.368 . S
C1727 C1711 1.349 . S
C1727 H1719 0.950 . S
C1727 C1725 1.327 . S
C1728 C1716 1.349 . S
C1728 H1722 0.950 . S
C1728 C1729 1.327 . S
C1729 H1723 0.950 . S
C1729 C1728 1.327 . S
C1729 C1733 1.429 . S
C1730 C1713 1.574 . S
C1730 H1724 0.949 . S
C1730 C1734 1.368 . S
C1731 C1712 1.429 . S
C1731 C1725 1.429 . S
C1731 C1732 1.523 . S
C1732 C1713 1.368 . S
C1732 C1726 1.368 . S
C1732 C1731 1.523 . S
C1733 C1717 1.429 . S
C1733 C1729 1.429 . S
C1733 C1734 1.523 . S
C1734 C1718 1.368 . S
C1734 C1730 1.368 . S
C1734 C1733 1.523 . S
H1735 C1710 0.950 . S
H1736 C1712 0.950 . S
H1737 C1713 0.949 . S
H1738 C1715 0.950 . S
H1739 C1717 0.950 . S
C1740 C1741 1.349 . S
C1740 C1742 1.327 . S
C1740 H1765 0.950 . S
C1741 C1740 1.349 . S
C1741 C1757 1.349 . S
C1742 C1740 1.327 . S
C1742 C1761 1.429 . S
C1742 H1766 0.950 . S
C1743 C1760 1.574 . S
C1743 C1762 1.368 . S
C1743 H1767 0.949 . S
H1744 C1748 0.949 . S
C1745 C1746 1.349 . S
C1745 C1747 1.327 . S
C1745 H1768 0.950 . S
C1746 C1745 1.349 . S
C1746 C1758 1.349 . S
C1747 C1745 1.327 . S
C1747 C1763 1.429 . S
C1747 H1769 0.950 . S
C1748 H1744 0.949 . S
C1748 C1756 1.574 . S
C1748 C1764 1.368 . S
H1749 C1757 0.950 . S
H1750 C1755 0.950 . S
H1751 C1756 0.949 . S
H1752 C1758 0.950 . S
H1753 C1759 0.950 . S
H1754 C1760 0.949 . S
C1755 H1750 0.950 . S
C1755 C1757 1.327 . S
C1755 C1761 1.429 . S
C1756 C1748 1.574 . S
C1756 H1751 0.949 . S
C1756 C1762 1.368 . S
C1757 C1741 1.349 . S
C1757 H1749 0.950 . S
C1757 C1755 1.327 . S
C1758 C1746 1.349 . S
C1758 H1752 0.950 . S
C1758 C1759 1.327 . S
C1759 H1753 0.950 . S
C1759 C1758 1.327 . S
C1759 C1763 1.429 . S
C1760 C1743 1.574 . S
C1760 H1754 0.949 . S
C1760 C1764 1.368 . S
C1761 C1742 1.429 . S
C1761 C1755 1.429 . S
C1761 C1762 1.523 . S
C1762 C1743 1.368 . S
C1762 C1756 1.368 . S
C1762 C1761 1.523 . S
C1763 C1747 1.429 . S
C1763 C1759 1.429 . S
C1763 C1764 1.523 . S
C1764 C1748 1.368 . S
C1764 C1760 1.368 . S
C1764 C1763 1.523 . S
H1765 C1740 0.950 . S
H1766 C1742 0.950 . S
H1767 C1743 0.949 . S
H1768 C1745 0.950 . S
H1769 C1747 0.950 . S
C1770 C1771 1.349 . S
C1770 C1772 1.327 . S
C1770 H1795 0.950 . S
C1771 C1770 1.349 . S
C1771 C1787 1.349 . S
C1772 C1770 1.327 . S
C1772 C1791 1.429 . S
C1772 H1796 0.950 . S
C1773 C1790 1.574 . S
C1773 C1792 1.368 . S
C1773 H1797 0.937 1_565 S
H1774 C1778 0.949 . S
C1775 C1776 1.342 1_545 S
C1775 C1777 1.322 1_545 S
C1775 H1798 0.958 . S
C1776 C1775 1.342 1_565 S
C1776 C1788 1.349 . S
C1777 C1775 1.322 1_565 S
C1777 C1793 1.482 . S
C1777 H1799 0.905 1_565 S
C1778 H1774 0.949 . S
C1778 C1786 1.574 . S
C1778 C1794 1.368 . S
H1779 C1787 1.014 . S
H1780 C1785 0.950 . S
H1781 C1786 0.949 . S
H1782 C1788 0.950 . S
H1783 C1789 0.950 . S
H1784 C1790 0.949 1_545 S
C1785 H1780 0.950 . S
C1785 C1787 1.327 . S
C1785 C1791 1.429 . S
C1786 C1778 1.574 . S
C1786 H1781 0.949 . S
C1786 C1792 1.368 . S
C1787 C1771 1.349 . S
C1787 H1779 1.014 . S
C1787 C1785 1.327 . S
C1788 C1776 1.349 . S
C1788 H1782 0.950 . S
C1788 C1789 1.327 . S
C1789 H1783 0.950 . S
C1789 C1788 1.327 . S
C1789 C1793 1.429 . S
C1790 C1773 1.574 . S
C1790 H1784 0.949 1_565 S
C1790 C1794 1.368 . S
C1791 C1772 1.429 . S
C1791 C1785 1.429 . S
C1791 C1792 1.523 . S
C1792 C1773 1.368 . S
C1792 C1786 1.368 . S
C1792 C1791 1.523 . S
C1793 C1777 1.482 . S
C1793 C1789 1.429 . S
C1793 C1794 1.523 . S
C1794 C1778 1.368 . S
C1794 C1790 1.368 . S
C1794 C1793 1.523 . S
H1795 C1770 0.950 . S
H1796 C1772 0.950 . S
H1797 C1773 0.937 1_545 S
H1798 C1775 0.958 . S
H1799 C1777 0.905 1_545 S
C1800 C1801 1.349 . S
C1800 C1802 1.327 . S
C1800 H1825 0.950 . S
C1801 C1800 1.349 . S
C1801 C1817 1.349 . S
C1802 C1800 1.327 . S
C1802 C1821 1.429 . S
C1802 H1826 0.950 . S
C1803 C1820 1.574 . S
C1803 C1822 1.368 . S
C1803 H1827 0.949 . S
H1804 C1808 0.949 . S
C1805 C1806 1.349 . S
C1805 C1807 1.327 . S
C1805 H1828 0.950 . S
C1806 C1805 1.349 . S
C1806 C1818 1.349 . S
C1807 C1805 1.327 . S
C1807 C1823 1.429 . S
C1807 H1829 0.950 . S
C1808 H1804 0.949 . S
C1808 C1816 1.574 . S
C1808 C1824 1.368 . S
H1809 C1817 0.950 . S
H1810 C1815 0.950 . S
H1811 C1816 0.949 . S
H1812 C1818 0.950 . S
H1813 C1819 0.950 . S
H1814 C1820 0.949 . S
C1815 H1810 0.950 . S
C1815 C1817 1.327 . S
C1815 C1821 1.429 . S
C1816 C1808 1.574 . S
C1816 H1811 0.949 . S
C1816 C1822 1.368 . S
C1817 C1801 1.349 . S
C1817 H1809 0.950 . S
C1817 C1815 1.327 . S
C1818 C1806 1.349 . S
C1818 H1812 0.950 . S
C1818 C1819 1.327 . S
C1819 H1813 0.950 . S
C1819 C1818 1.327 . S
C1819 C1823 1.429 . S
C1820 C1803 1.574 . S
C1820 H1814 0.949 . S
C1820 C1824 1.368 . S
C1821 C1802 1.429 . S
C1821 C1815 1.429 . S
C1821 C1822 1.523 . S
C1822 C1803 1.368 . S
C1822 C1816 1.368 . S
C1822 C1821 1.523 . S
C1823 C1807 1.429 . S
C1823 C1819 1.429 . S
C1823 C1824 1.523 . S
C1824 C1808 1.368 . S
C1824 C1820 1.368 . S
C1824 C1823 1.523 . S
H1825 C1800 0.950 . S
H1826 C1802 0.950 . S
H1827 C1803 0.949 . S
H1828 C1805 0.950 . S
H1829 C1807 0.950 . S
C1830 C1831 1.349 . S
C1830 C1832 1.327 . S
C1830 H1855 0.950 . S
C1831 C1830 1.349 . S
C1831 C1847 1.349 . S
C1832 C1830 1.327 . S
C1832 C1851 1.429 . S
C1832 H1856 0.950 . S
C1833 C1850 1.574 . S
C1833 C1852 1.368 . S
C1833 H1857 0.949 . S
H1834 C1838 0.949 . S
C1835 C1836 1.349 . S
C1835 C1837 1.327 . S
C1835 H1858 0.950 . S
C1836 C1835 1.349 . S
C1836 C1848 1.349 . S
C1837 C1835 1.327 . S
C1837 C1853 1.429 . S
C1837 H1859 0.950 . S
C1838 H1834 0.949 . S
C1838 C1846 1.574 . S
C1838 C1854 1.368 . S
H1839 C1847 0.950 . S
H1840 C1845 0.950 . S
H1841 C1846 0.949 . S
H1842 C1848 0.950 . S
H1843 C1849 0.950 . S
H1844 C1850 0.949 . S
C1845 H1840 0.950 . S
C1845 C1847 1.327 . S
C1845 C1851 1.429 . S
C1846 C1838 1.574 . S
C1846 H1841 0.949 . S
C1846 C1852 1.368 . S
C1847 C1831 1.349 . S
C1847 H1839 0.950 . S
C1847 C1845 1.327 . S
C1848 C1836 1.349 . S
C1848 H1842 0.950 . S
C1848 C1849 1.327 . S
C1849 H1843 0.950 . S
C1849 C1848 1.327 . S
C1849 C1853 1.429 . S
C1850 C1833 1.574 . S
C1850 H1844 0.949 . S
C1850 C1854 1.368 . S
C1851 C1832 1.429 . S
C1851 C1845 1.429 . S
C1851 C1852 1.523 . S
C1852 C1833 1.368 . S
C1852 C1846 1.368 . S
C1852 C1851 1.523 . S
C1853 C1837 1.429 . S
C1853 C1849 1.429 . S
C1853 C1854 1.523 . S
C1854 C1838 1.368 . S
C1854 C1850 1.368 . S
C1854 C1853 1.523 . S
H1855 C1830 0.950 . S
H1856 C1832 0.950 . S
H1857 C1833 0.949 . S
H1858 C1835 0.950 . S
H1859 C1837 0.950 . S
C1860 C1861 1.349 . S
C1860 C1862 1.327 . S
C1860 H1885 0.950 . S
C1861 C1860 1.349 . S
C1861 C1877 1.349 . S
C1862 C1860 1.327 . S
C1862 C1881 1.429 . S
C1862 H1886 0.950 . S
C1863 C1880 1.574 . S
C1863 C1882 1.368 . S
C1863 H1887 0.949 . S
H1864 C1868 0.949 . S
C1865 C1866 1.349 . S
C1865 C1867 1.327 . S
C1865 H1888 0.950 . S
C1866 C1865 1.349 . S
C1866 C1878 1.349 . S
C1867 C1865 1.327 . S
C1867 C1883 1.429 . S
C1867 H1889 0.950 . S
C1868 H1864 0.949 . S
C1868 C1876 1.574 . S
C1868 C1884 1.368 . S
H1869 C1877 0.950 . S
H1870 C1875 0.950 . S
H1871 C1876 0.949 . S
H1872 C1878 0.950 . S
H1873 C1879 0.950 . S
H1874 C1880 0.949 . S
C1875 H1870 0.950 . S
C1875 C1877 1.327 . S
C1875 C1881 1.429 . S
C1876 C1868 1.574 . S
C1876 H1871 0.949 . S
C1876 C1882 1.368 . S
C1877 C1861 1.349 . S
C1877 H1869 0.950 . S
C1877 C1875 1.327 . S
C1878 C1866 1.349 . S
C1878 H1872 0.950 . S
C1878 C1879 1.327 . S
C1879 H1873 0.950 . S
C1879 C1878 1.327 . S
C1879 C1883 1.429 . S
C1880 C1863 1.574 . S
C1880 H1874 0.949 . S
C1880 C1884 1.368 . S
C1881 C1862 1.429 . S
C1881 C1875 1.429 . S
C1881 C1882 1.523 . S
C1882 C1863 1.368 . S
C1882 C1876 1.368 . S
C1882 C1881 1.523 . S
C1883 C1867 1.429 . S
C1883 C1879 1.429 . S
C1883 C1884 1.523 . S
C1884 C1868 1.368 . S
C1884 C1880 1.368 . S
C1884 C1883 1.523 . S
H1885 C1860 0.950 . S
H1886 C1862 0.950 . S
H1887 C1863 0.949 . S
H1888 C1865 0.950 . S
H1889 C1867 0.950 . S
C1890 C1891 1.349 . S
C1890 C1892 1.327 . S
C1890 H1915 0.950 . S
C1891 C1890 1.349 . S
C1891 C1907 1.349 . S
C1892 C1890 1.327 . S
C1892 C1911 1.429 . S
C1892 H1916 0.950 . S
C1893 C1910 1.574 . S
C1893 C1912 1.368 . S
C1893 H1917 0.949 1_565 S
H1894 C1898 0.949 . S
C1895 C1896 1.304 1_545 S
C1895 C1897 1.324 1_545 S
C1895 H1918 1.002 . S
C1896 C1895 1.304 1_565 S
C1896 C1908 1.349 . S
C1897 C1895 1.324 1_565 S
C1897 C1913 1.441 . S
C1897 H1919 0.938 1_565 S
C1898 H1894 0.949 . S
C1898 C1906 1.574 . S
C1898 C1914 1.368 . S
H1899 C1907 0.950 . S
H1900 C1905 0.923 1_545 S
H1901 C1906 0.949 . S
H1902 C1908 0.950 . S
H1903 C1909 0.950 . S
H1904 C1910 0.949 1_545 S
C1905 H1900 0.923 1_565 S
C1905 C1907 1.327 . S
C1905 C1911 1.429 . S
C1906 C1898 1.574 . S
C1906 H1901 0.949 . S
C1906 C1912 1.368 . S
C1907 C1891 1.349 . S
C1907 H1899 0.950 . S
C1907 C1905 1.327 . S
C1908 C1896 1.349 . S
C1908 H1902 0.950 . S
C1908 C1909 1.327 . S
C1909 H1903 0.950 . S
C1909 C1908 1.327 . S
C1909 C1913 1.429 . S
C1910 C1893 1.574 . S
C1910 H1904 0.949 1_565 S
C1910 C1914 1.368 . S
C1911 C1892 1.429 . S
C1911 C1905 1.429 . S
C1911 C1912 1.523 . S
C1912 C1893 1.368 . S
C1912 C1906 1.368 . S
C1912 C1911 1.523 . S
C1913 C1897 1.441 . S
C1913 C1909 1.429 . S
C1913 C1914 1.523 . S
C1914 C1898 1.368 . S
C1914 C1910 1.368 . S
C1914 C1913 1.523 . S
H1915 C1890 0.950 . S
H1916 C1892 0.950 . S
H1917 C1893 0.949 1_545 S
H1918 C1895 1.002 . S
H1919 C1897 0.938 1_545 S
C1920 C1921 1.349 . S
C1920 C1922 1.327 . S
C1920 H1945 0.950 . S
C1921 C1920 1.349 . S
C1921 C1937 1.349 . S
C1922 C1920 1.327 . S
C1922 C1941 1.429 . S
C1922 H1946 0.950 . S
C1923 C1940 1.574 . S
C1923 C1942 1.368 . S
C1923 H1947 0.949 . S
H1924 C1928 0.949 . S
C1925 C1926 1.349 . S
C1925 C1927 1.327 . S
C1925 H1948 0.950 . S
C1926 C1925 1.349 . S
C1926 C1938 1.349 . S
C1927 C1925 1.327 . S
C1927 C1943 1.429 . S
C1927 H1949 0.950 . S
C1928 H1924 0.949 . S
C1928 C1936 1.574 . S
C1928 C1944 1.368 . S
H1929 C1937 0.950 . S
H1930 C1935 0.950 . S
H1931 C1936 0.949 . S
H1932 C1938 0.950 . S
H1933 C1939 0.950 . S
H1934 C1940 0.949 . S
C1935 H1930 0.950 . S
C1935 C1937 1.327 . S
C1935 C1941 1.429 . S
C1936 C1928 1.574 . S
C1936 H1931 0.949 . S
C1936 C1942 1.368 . S
C1937 C1921 1.349 . S
C1937 H1929 0.950 . S
C1937 C1935 1.327 . S
C1938 C1926 1.349 . S
C1938 H1932 0.950 . S
C1938 C1939 1.327 . S
C1939 H1933 0.950 . S
C1939 C1938 1.327 . S
C1939 C1943 1.429 . S
C1940 C1923 1.574 . S
C1940 H1934 0.949 . S
C1940 C1944 1.368 . S
C1941 C1922 1.429 . S
C1941 C1935 1.429 . S
C1941 C1942 1.523 . S
C1942 C1923 1.368 . S
C1942 C1936 1.368 . S
C1942 C1941 1.523 . S
C1943 C1927 1.429 . S
C1943 C1939 1.429 . S
C1943 C1944 1.523 . S
C1944 C1928 1.368 . S
C1944 C1940 1.368 . S
C1944 C1943 1.523 . S
H1945 C1920 0.950 . S
H1946 C1922 0.950 . S
H1947 C1923 0.949 . S
H1948 C1925 0.950 . S
H1949 C1927 0.950 . S
C1950 C1951 1.349 . S
C1950 C1952 1.327 . S
C1950 H1975 0.950 . S
C1951 C1950 1.349 . S
C1951 C1967 1.349 . S
C1952 C1950 1.327 . S
C1952 C1971 1.429 . S
C1952 H1976 0.950 . S
C1953 C1970 1.574 . S
C1953 C1972 1.368 . S
C1953 H1977 0.949 . S
H1954 C1958 0.949 . S
C1955 C1956 1.349 . S
C1955 C1957 1.327 . S
C1955 H1978 0.950 . S
C1956 C1955 1.349 . S
C1956 C1968 1.349 . S
C1957 C1955 1.327 . S
C1957 C1973 1.429 . S
C1957 H1979 0.950 . S
C1958 H1954 0.949 . S
C1958 C1966 1.574 . S
C1958 C1974 1.368 . S
H1959 C1967 0.950 . S
H1960 C1965 0.950 . S
H1961 C1966 0.949 . S
H1962 C1968 0.950 . S
H1963 C1969 0.950 . S
H1964 C1970 0.949 . S
C1965 H1960 0.950 . S
C1965 C1967 1.327 . S
C1965 C1971 1.429 . S
C1966 C1958 1.574 . S
C1966 H1961 0.949 . S
C1966 C1972 1.368 . S
C1967 C1951 1.349 . S
C1967 H1959 0.950 . S
C1967 C1965 1.327 . S
C1968 C1956 1.349 . S
C1968 H1962 0.950 . S
C1968 C1969 1.327 . S
C1969 H1963 0.950 . S
C1969 C1968 1.327 . S
C1969 C1973 1.429 . S
C1970 C1953 1.574 . S
C1970 H1964 0.949 . S
C1970 C1974 1.368 . S
C1971 C1952 1.429 . S
C1971 C1965 1.429 . S
C1971 C1972 1.523 . S
C1972 C1953 1.368 . S
C1972 C1966 1.368 . S
C1972 C1971 1.523 . S
C1973 C1957 1.429 . S
C1973 C1969 1.429 . S
C1973 C1974 1.523 . S
C1974 C1958 1.368 . S
C1974 C1970 1.368 . S
C1974 C1973 1.523 . S
H1975 C1950 0.950 . S
H1976 C1952 0.950 . S
H1977 C1953 0.949 . S
H1978 C1955 0.950 . S
H1979 C1957 0.950 . S
C1980 C1981 1.349 . S
C1980 C1982 1.327 . S
C1980 H2005 0.950 . S
C1981 C1980 1.349 . S
C1981 C1997 1.349 . S
C1982 C1980 1.327 . S
C1982 C2001 1.429 . S
C1982 H2006 0.950 . S
C1983 C2000 1.574 . S
C1983 C2002 1.368 . S
C1983 H2007 0.949 . S
H1984 C1988 0.949 . S
C1985 C1986 1.349 . S
C1985 C1987 1.327 . S
C1985 H2008 0.950 . S
C1986 C1985 1.349 . S
C1986 C1998 1.349 . S
C1987 C1985 1.327 . S
C1987 C2003 1.429 . S
C1987 H2009 0.950 . S
C1988 H1984 0.949 . S
C1988 C1996 1.574 . S
C1988 C2004 1.368 . S
H1989 C1997 0.950 . S
H1990 C1995 0.950 . S
H1991 C1996 0.949 . S
H1992 C1998 0.950 . S
H1993 C1999 0.950 . S
H1994 C2000 0.949 . S
C1995 H1990 0.950 . S
C1995 C1997 1.327 . S
C1995 C2001 1.429 . S
C1996 C1988 1.574 . S
C1996 H1991 0.949 . S
C1996 C2002 1.368 . S
C1997 C1981 1.349 . S
C1997 H1989 0.950 . S
C1997 C1995 1.327 . S
C1998 C1986 1.349 . S
C1998 H1992 0.950 . S
C1998 C1999 1.327 . S
C1999 H1993 0.950 . S
C1999 C1998 1.327 . S
C1999 C2003 1.429 . S
C2000 C1983 1.574 . S
C2000 H1994 0.949 . S
C2000 C2004 1.368 . S
C2001 C1982 1.429 . S
C2001 C1995 1.429 . S
C2001 C2002 1.523 . S
C2002 C1983 1.368 . S
C2002 C1996 1.368 . S
C2002 C2001 1.523 . S
C2003 C1987 1.429 . S
C2003 C1999 1.429 . S
C2003 C2004 1.523 . S
C2004 C1988 1.368 . S
C2004 C2000 1.368 . S
C2004 C2003 1.523 . S
H2005 C1980 0.950 . S
H2006 C1982 0.950 . S
H2007 C1983 0.949 . S
H2008 C1985 0.950 . S
H2009 C1987 0.950 . S
C2010 C2011 1.349 . S
C2010 C2012 1.327 . S
C2010 H2035 0.950 . S
C2011 C2010 1.349 . S
C2011 C2027 1.349 . S
C2012 C2010 1.327 . S
C2012 C2031 1.429 . S
C2012 H2036 0.950 . S
C2013 C2030 1.574 . S
C2013 C2032 1.368 . S
C2013 H2037 0.949 . S
H2014 C2018 0.949 . S
C2015 C2016 1.349 . S
C2015 C2017 1.327 . S
C2015 H2038 0.950 . S
C2016 C2015 1.349 . S
C2016 C2028 1.349 . S
C2017 C2015 1.327 . S
C2017 C2033 1.429 . S
C2017 H2039 0.950 . S
C2018 H2014 0.949 . S
C2018 C2026 1.574 . S
C2018 C2034 1.368 . S
H2019 C2027 0.950 . S
H2020 C2025 0.950 . S
H2021 C2026 0.949 . S
H2022 C2028 0.950 . S
H2023 C2029 0.950 . S
H2024 C2030 0.949 . S
C2025 H2020 0.950 . S
C2025 C2027 1.327 . S
C2025 C2031 1.429 . S
C2026 C2018 1.574 . S
C2026 H2021 0.949 . S
C2026 C2032 1.368 . S
C2027 C2011 1.349 . S
C2027 H2019 0.950 . S
C2027 C2025 1.327 . S
C2028 C2016 1.349 . S
C2028 H2022 0.950 . S
C2028 C2029 1.327 . S
C2029 H2023 0.950 . S
C2029 C2028 1.327 . S
C2029 C2033 1.429 . S
C2030 C2013 1.574 . S
C2030 H2024 0.949 . S
C2030 C2034 1.368 . S
C2031 C2012 1.429 . S
C2031 C2025 1.429 . S
C2031 C2032 1.523 . S
C2032 C2013 1.368 . S
C2032 C2026 1.368 . S
C2032 C2031 1.523 . S
C2033 C2017 1.429 . S
C2033 C2029 1.429 . S
C2033 C2034 1.523 . S
C2034 C2018 1.368 . S
C2034 C2030 1.368 . S
C2034 C2033 1.523 . S
H2035 C2010 0.950 . S
H2036 C2012 0.950 . S
H2037 C2013 0.949 . S
H2038 C2015 0.950 . S
H2039 C2017 0.950 . S
C2040 C2041 1.349 . S
C2040 C2042 1.327 . S
C2040 H2065 0.950 . S
C2041 C2040 1.349 . S
C2041 C2057 1.349 . S
C2042 C2040 1.327 . S
C2042 C2061 1.429 . S
C2042 H2066 0.950 . S
C2043 C2060 1.574 . S
C2043 C2062 1.368 . S
C2043 H2067 0.949 . S
H2044 C2048 0.949 . S
C2045 C2046 1.349 . S
C2045 C2047 1.327 . S
C2045 H2068 0.950 . S
C2046 C2045 1.349 . S
C2046 C2058 1.349 . S
C2047 C2045 1.327 . S
C2047 C2063 1.429 . S
C2047 H2069 0.950 . S
C2048 H2044 0.949 . S
C2048 C2056 1.574 . S
C2048 C2064 1.368 . S
H2049 C2057 0.950 . S
H2050 C2055 0.950 . S
H2051 C2056 0.949 . S
H2052 C2058 0.950 . S
H2053 C2059 0.950 . S
H2054 C2060 0.949 . S
C2055 H2050 0.950 . S
C2055 C2057 1.327 . S
C2055 C2061 1.429 . S
C2056 C2048 1.574 . S
C2056 H2051 0.949 . S
C2056 C2062 1.368 . S
C2057 C2041 1.349 . S
C2057 H2049 0.950 . S
C2057 C2055 1.327 . S
C2058 C2046 1.349 . S
C2058 H2052 0.950 . S
C2058 C2059 1.327 . S
C2059 H2053 0.950 . S
C2059 C2058 1.327 . S
C2059 C2063 1.429 . S
C2060 C2043 1.574 . S
C2060 H2054 0.949 . S
C2060 C2064 1.368 . S
C2061 C2042 1.429 . S
C2061 C2055 1.429 . S
C2061 C2062 1.523 . S
C2062 C2043 1.368 . S
C2062 C2056 1.368 . S
C2062 C2061 1.523 . S
C2063 C2047 1.429 . S
C2063 C2059 1.429 . S
C2063 C2064 1.523 . S
C2064 C2048 1.368 . S
C2064 C2060 1.368 . S
C2064 C2063 1.523 . S
H2065 C2040 0.950 . S
H2066 C2042 0.950 . S
H2067 C2043 0.949 . S
H2068 C2045 0.950 . S
H2069 C2047 0.950 . S
C2070 C2071 1.349 . S
C2070 C2072 1.327 . S
C2070 H2095 0.950 . S
C2071 C2070 1.349 . S
C2071 C2087 1.349 . S
C2072 C2070 1.327 . S
C2072 C2091 1.429 . S
C2072 H2096 0.950 . S
C2073 C2090 1.574 . S
C2073 C2092 1.368 . S
C2073 H2097 0.949 . S
H2074 C2078 0.949 . S
C2075 C2076 1.349 . S
C2075 C2077 1.327 . S
C2075 H2098 0.950 . S
C2076 C2075 1.349 . S
C2076 C2088 1.349 . S
C2077 C2075 1.327 . S
C2077 C2093 1.429 . S
C2077 H2099 0.950 . S
C2078 H2074 0.949 . S
C2078 C2086 1.574 . S
C2078 C2094 1.368 . S
H2079 C2087 0.950 . S
H2080 C2085 0.950 . S
H2081 C2086 0.949 . S
H2082 C2088 0.950 1_655 S
H2083 C2089 0.964 . S
H2084 C2090 0.949 . S
C2085 H2080 0.950 . S
C2085 C2087 1.327 . S
C2085 C2091 1.429 . S
C2086 C2078 1.574 . S
C2086 H2081 0.949 . S
C2086 C2092 1.368 . S
C2087 C2071 1.349 . S
C2087 H2079 0.950 . S
C2087 C2085 1.327 . S
C2088 C2076 1.349 . S
C2088 H2082 0.950 1_455 S
C2088 C2089 1.327 . S
C2089 H2083 0.964 . S
C2089 C2088 1.327 . S
C2089 C2093 1.429 . S
C2090 C2073 1.574 . S
C2090 H2084 0.949 . S
C2090 C2094 1.368 . S
C2091 C2072 1.429 . S
C2091 C2085 1.429 . S
C2091 C2092 1.523 . S
C2092 C2073 1.368 . S
C2092 C2086 1.368 . S
C2092 C2091 1.523 . S
C2093 C2077 1.429 . S
C2093 C2089 1.429 . S
C2093 C2094 1.523 . S
C2094 C2078 1.368 . S
C2094 C2090 1.368 . S
C2094 C2093 1.523 . S
H2095 C2070 0.950 . S
H2096 C2072 0.950 . S
H2097 C2073 0.949 . S
H2098 C2075 0.950 . S
H2099 C2077 0.950 . S
C2100 C2101 1.349 . S
C2100 C2102 1.327 . S
C2100 H2125 0.950 . S
C2101 C2100 1.349 . S
C2101 C2117 1.349 . S
C2102 C2100 1.327 . S
C2102 C2121 1.429 . S
C2102 H2126 0.950 . S
C2103 C2120 1.574 . S
C2103 C2122 1.368 . S
C2103 H2127 0.949 . S
H2104 C2108 0.949 . S
C2105 C2106 1.349 . S
C2105 C2107 1.327 . S
C2105 H2128 0.950 . S
C2106 C2105 1.349 . S
C2106 C2118 1.349 . S
C2107 C2105 1.327 . S
C2107 C2123 1.429 . S
C2107 H2129 0.950 . S
C2108 H2104 0.949 . S
C2108 C2116 1.574 . S
C2108 C2124 1.368 . S
H2109 C2117 0.950 . S
H2110 C2115 0.950 . S
H2111 C2116 0.949 . S
H2112 C2118 0.950 . S
H2113 C2119 0.950 . S
H2114 C2120 0.949 . S
C2115 H2110 0.950 . S
C2115 C2117 1.327 . S
C2115 C2121 1.429 . S
C2116 C2108 1.574 . S
C2116 H2111 0.949 . S
C2116 C2122 1.368 . S
C2117 C2101 1.349 . S
C2117 H2109 0.950 . S
C2117 C2115 1.327 . S
C2118 C2106 1.349 . S
C2118 H2112 0.950 . S
C2118 C2119 1.327 . S
C2119 H2113 0.950 . S
C2119 C2118 1.327 . S
C2119 C2123 1.429 . S
C2120 C2103 1.574 . S
C2120 H2114 0.949 . S
C2120 C2124 1.368 . S
C2121 C2102 1.429 . S
C2121 C2115 1.429 . S
C2121 C2122 1.523 . S
C2122 C2103 1.368 . S
C2122 C2116 1.368 . S
C2122 C2121 1.523 . S
C2123 C2107 1.429 . S
C2123 C2119 1.429 . S
C2123 C2124 1.523 . S
C2124 C2108 1.368 . S
C2124 C2120 1.368 . S
C2124 C2123 1.523 . S
H2125 C2100 0.950 . S
H2126 C2102 0.950 . S
H2127 C2103 0.949 . S
H2128 C2105 0.950 . S
H2129 C2107 0.950 . S
C2130 C2131 1.349 . S
C2130 C2132 1.327 . S
C2130 H2155 0.950 . S
C2131 C2130 1.349 . S
C2131 C2147 1.349 . S
C2132 C2130 1.327 . S
C2132 C2151 1.429 . S
C2132 H2156 0.950 . S
C2133 C2150 1.574 . S
C2133 C2152 1.368 . S
C2133 H2157 0.949 . S
H2134 C2138 0.949 . S
C2135 C2136 1.349 . S
C2135 C2137 1.327 . S
C2135 H2158 0.950 . S
C2136 C2135 1.349 . S
C2136 C2148 1.349 . S
C2137 C2135 1.327 . S
C2137 C2153 1.429 . S
C2137 H2159 0.950 . S
C2138 H2134 0.949 . S
C2138 C2146 1.574 . S
C2138 C2154 1.368 . S
H2139 C2147 0.950 . S
H2140 C2145 0.950 . S
H2141 C2146 0.949 . S
H2142 C2148 0.950 . S
H2143 C2149 0.950 . S
H2144 C2150 0.949 . S
C2145 H2140 0.950 . S
C2145 C2147 1.327 . S
C2145 C2151 1.429 . S
C2146 C2138 1.574 . S
C2146 H2141 0.949 . S
C2146 C2152 1.368 . S
C2147 C2131 1.349 . S
C2147 H2139 0.950 . S
C2147 C2145 1.327 . S
C2148 C2136 1.349 . S
C2148 H2142 0.950 . S
C2148 C2149 1.327 . S
C2149 H2143 0.950 . S
C2149 C2148 1.327 . S
C2149 C2153 1.429 . S
C2150 C2133 1.574 . S
C2150 H2144 0.949 . S
C2150 C2154 1.368 . S
C2151 C2132 1.429 . S
C2151 C2145 1.429 . S
C2151 C2152 1.523 . S
C2152 C2133 1.368 . S
C2152 C2146 1.368 . S
C2152 C2151 1.523 . S
C2153 C2137 1.429 . S
C2153 C2149 1.429 . S
C2153 C2154 1.523 . S
C2154 C2138 1.368 . S
C2154 C2150 1.368 . S
C2154 C2153 1.523 . S
H2155 C2130 0.950 . S
H2156 C2132 0.950 . S
H2157 C2133 0.949 . S
H2158 C2135 0.950 . S
H2159 C2137 0.950 . S
C2160 C2161 1.349 . S
C2160 C2162 1.327 . S
C2160 H2185 0.950 . S
C2161 C2160 1.349 . S
C2161 C2177 1.349 . S
C2162 C2160 1.327 . S
C2162 C2181 1.429 . S
C2162 H2186 0.950 . S
C2163 C2180 1.574 . S
C2163 C2182 1.368 . S
C2163 H2187 0.949 . S
H2164 C2168 0.949 . S
C2165 C2166 1.349 . S
C2165 C2167 1.327 . S
C2165 H2188 0.950 . S
C2166 C2165 1.349 . S
C2166 C2178 1.349 . S
C2167 C2165 1.327 . S
C2167 C2183 1.429 . S
C2167 H2189 0.950 . S
C2168 H2164 0.949 . S
C2168 C2176 1.574 . S
C2168 C2184 1.368 . S
H2169 C2177 0.950 . S
H2170 C2175 0.950 . S
H2171 C2176 0.949 . S
H2172 C2178 0.950 . S
H2173 C2179 0.950 . S
H2174 C2180 0.949 . S
C2175 H2170 0.950 . S
C2175 C2177 1.327 . S
C2175 C2181 1.429 . S
C2176 C2168 1.574 . S
C2176 H2171 0.949 . S
C2176 C2182 1.368 . S
C2177 C2161 1.349 . S
C2177 H2169 0.950 . S
C2177 C2175 1.327 . S
C2178 C2166 1.349 . S
C2178 H2172 0.950 . S
C2178 C2179 1.327 . S
C2179 H2173 0.950 . S
C2179 C2178 1.327 . S
C2179 C2183 1.429 . S
C2180 C2163 1.574 . S
C2180 H2174 0.949 . S
C2180 C2184 1.368 . S
C2181 C2162 1.429 . S
C2181 C2175 1.429 . S
C2181 C2182 1.523 . S
C2182 C2163 1.368 . S
C2182 C2176 1.368 . S
C2182 C2181 1.523 . S
C2183 C2167 1.429 . S
C2183 C2179 1.429 . S
C2183 C2184 1.523 . S
C2184 C2168 1.368 . S
C2184 C2180 1.368 . S
C2184 C2183 1.523 . S
H2185 C2160 0.950 . S
H2186 C2162 0.950 . S
H2187 C2163 0.949 . S
H2188 C2165 0.950 . S
H2189 C2167 0.950 . S
C2190 C2191 1.349 . S
C2190 C2192 1.327 . S
C2190 H2215 0.950 . S
C2191 C2190 1.349 . S
C2191 C2207 1.349 . S
C2192 C2190 1.327 . S
C2192 C2211 1.429 . S
C2192 H2216 0.950 . S
C2193 C2210 1.574 . S
C2193 C2212 1.368 . S
C2193 H2217 0.949 . S
H2194 C2198 0.949 . S
C2195 C2196 1.349 . S
C2195 C2197 1.327 . S
C2195 H2218 0.950 . S
C2196 C2195 1.349 . S
C2196 C2208 1.349 . S
C2197 C2195 1.327 . S
C2197 C2213 1.429 . S
C2197 H2219 0.950 . S
C2198 H2194 0.949 . S
C2198 C2206 1.574 . S
C2198 C2214 1.368 . S
H2199 C2207 0.950 . S
H2200 C2205 0.950 . S
H2201 C2206 0.949 . S
H2202 C2208 0.950 . S
H2203 C2209 0.950 . S
H2204 C2210 0.949 . S
C2205 H2200 0.950 . S
C2205 C2207 1.327 . S
C2205 C2211 1.429 . S
C2206 C2198 1.574 . S
C2206 H2201 0.949 . S
C2206 C2212 1.368 . S
C2207 C2191 1.349 . S
C2207 H2199 0.950 . S
C2207 C2205 1.327 . S
C2208 C2196 1.349 . S
C2208 H2202 0.950 . S
C2208 C2209 1.327 . S
C2209 H2203 0.950 . S
C2209 C2208 1.327 . S
C2209 C2213 1.429 . S
C2210 C2193 1.574 . S
C2210 H2204 0.949 . S
C2210 C2214 1.368 . S
C2211 C2192 1.429 . S
C2211 C2205 1.429 . S
C2211 C2212 1.523 . S
C2212 C2193 1.368 . S
C2212 C2206 1.368 . S
C2212 C2211 1.523 . S
C2213 C2197 1.429 . S
C2213 C2209 1.429 . S
C2213 C2214 1.523 . S
C2214 C2198 1.368 . S
C2214 C2210 1.368 . S
C2214 C2213 1.523 . S
H2215 C2190 0.950 . S
H2216 C2192 0.950 . S
H2217 C2193 0.949 . S
H2218 C2195 0.950 . S
H2219 C2197 0.950 . S
C2220 C2221 1.349 . S
C2220 C2222 1.327 . S
C2220 H2245 0.885 1_556 S
C2221 C2220 1.349 . S
C2221 C2237 1.349 . S
C2222 C2220 1.327 . S
C2222 C2241 1.429 . S
C2222 H2246 0.950 1_556 S
C2223 C2240 1.574 . S
C2223 C2242 1.368 . S
C2223 H2247 0.949 . S
H2224 C2228 0.947 1_554 S
C2225 C2226 1.349 . S
C2225 C2227 1.327 . S
C2225 H2248 0.950 . S
C2226 C2225 1.349 . S
C2226 C2238 1.349 1_556 S
C2227 C2225 1.327 . S
C2227 C2243 1.429 . S
C2227 H2249 0.950 . S
C2228 H2224 0.947 1_556 S
C2228 C2236 1.574 . S
C2228 C2244 1.371 . S
H2229 C2237 0.950 . S
H2230 C2235 0.950 . S
H2231 C2236 0.949 1_554 S
H2232 C2238 0.950 . S
H2233 C2239 0.950 . S
H2234 C2240 0.949 . S
C2235 H2230 0.950 . S
C2235 C2237 1.327 . S
C2235 C2241 1.429 . S
C2236 C2228 1.574 . S
C2236 H2231 0.949 1_556 S
C2236 C2242 1.368 . S
C2237 C2221 1.349 . S
C2237 H2229 0.950 . S
C2237 C2235 1.327 . S
C2238 C2226 1.349 1_554 S
C2238 H2232 0.950 . S
C2238 C2239 1.327 . S
C2239 H2233 0.950 . S
C2239 C2238 1.327 . S
C2239 C2243 1.429 1_554 S
C2240 C2223 1.574 . S
C2240 H2234 0.949 . S
C2240 C2244 1.368 . S
C2241 C2222 1.429 . S
C2241 C2235 1.429 . S
C2241 C2242 1.523 . S
C2242 C2223 1.368 . S
C2242 C2236 1.368 . S
C2242 C2241 1.523 . S
C2243 C2227 1.429 . S
C2243 C2239 1.429 1_556 S
C2243 C2244 1.523 . S
C2244 C2228 1.371 . S
C2244 C2240 1.368 . S
C2244 C2243 1.523 . S
H2245 C2220 0.885 1_554 S
H2246 C2222 0.950 1_554 S
H2247 C2223 0.949 . S
H2248 C2225 0.950 . S
H2249 C2227 0.950 . S
C2250 C2251 1.349 . S
C2250 C2252 1.327 . S
C2250 H2275 0.950 . S
C2251 C2250 1.349 . S
C2251 C2267 1.349 . S
C2252 C2250 1.327 . S
C2252 C2271 1.429 . S
C2252 H2276 0.950 . S
C2253 C2270 1.574 . S
C2253 C2272 1.368 . S
C2253 H2277 0.949 . S
H2254 C2258 0.949 . S
C2255 C2256 1.349 . S
C2255 C2257 1.327 . S
C2255 H2278 0.950 . S
C2256 C2255 1.349 . S
C2256 C2268 1.349 . S
C2257 C2255 1.327 . S
C2257 C2273 1.429 . S
C2257 H2279 0.950 . S
C2258 H2254 0.949 . S
C2258 C2266 1.574 . S
C2258 C2274 1.368 . S
H2259 C2267 0.950 . S
H2260 C2265 0.950 . S
H2261 C2266 0.949 . S
H2262 C2268 0.950 . S
H2263 C2269 0.950 . S
H2264 C2270 0.949 . S
C2265 H2260 0.950 . S
C2265 C2267 1.327 . S
C2265 C2271 1.429 . S
C2266 C2258 1.574 . S
C2266 H2261 0.949 . S
C2266 C2272 1.368 . S
C2267 C2251 1.349 . S
C2267 H2259 0.950 . S
C2267 C2265 1.327 . S
C2268 C2256 1.349 . S
C2268 H2262 0.950 . S
C2268 C2269 1.327 . S
C2269 H2263 0.950 . S
C2269 C2268 1.327 . S
C2269 C2273 1.429 . S
C2270 C2253 1.574 . S
C2270 H2264 0.949 . S
C2270 C2274 1.368 . S
C2271 C2252 1.429 . S
C2271 C2265 1.429 . S
C2271 C2272 1.523 . S
C2272 C2253 1.368 . S
C2272 C2266 1.368 . S
C2272 C2271 1.523 . S
C2273 C2257 1.429 . S
C2273 C2269 1.429 . S
C2273 C2274 1.523 . S
C2274 C2258 1.368 . S
C2274 C2270 1.368 . S
C2274 C2273 1.523 . S
H2275 C2250 0.950 . S
H2276 C2252 0.950 . S
H2277 C2253 0.949 . S
H2278 C2255 0.950 . S
H2279 C2257 0.950 . S
C2280 C2281 1.349 . S
C2280 C2282 1.327 . S
C2280 H2305 0.950 . S
C2281 C2280 1.349 . S
C2281 C2297 1.349 . S
C2282 C2280 1.327 . S
C2282 C2301 1.429 . S
C2282 H2306 0.950 . S
C2283 C2300 1.574 . S
C2283 C2302 1.368 . S
C2283 H2307 0.949 . S
H2284 C2288 0.949 . S
C2285 C2286 1.349 . S
C2285 C2287 1.327 . S
C2285 H2308 0.950 . S
C2286 C2285 1.349 . S
C2286 C2298 1.349 . S
C2287 C2285 1.327 . S
C2287 C2303 1.429 . S
C2287 H2309 0.950 . S
C2288 H2284 0.949 . S
C2288 C2296 1.574 . S
C2288 C2304 1.368 . S
H2289 C2297 0.950 . S
H2290 C2295 0.950 . S
H2291 C2296 0.949 . S
H2292 C2298 0.950 . S
H2293 C2299 0.950 . S
H2294 C2300 0.949 . S
C2295 H2290 0.950 . S
C2295 C2297 1.327 . S
C2295 C2301 1.429 . S
C2296 C2288 1.574 . S
C2296 H2291 0.949 . S
C2296 C2302 1.368 . S
C2297 C2281 1.349 . S
C2297 H2289 0.950 . S
C2297 C2295 1.327 . S
C2298 C2286 1.349 . S
C2298 H2292 0.950 . S
C2298 C2299 1.327 . S
C2299 H2293 0.950 . S
C2299 C2298 1.327 . S
C2299 C2303 1.429 . S
C2300 C2283 1.574 . S
C2300 H2294 0.949 . S
C2300 C2304 1.368 . S
C2301 C2282 1.429 . S
C2301 C2295 1.429 . S
C2301 C2302 1.523 . S
C2302 C2283 1.368 . S
C2302 C2296 1.368 . S
C2302 C2301 1.523 . S
C2303 C2287 1.429 . S
C2303 C2299 1.429 . S
C2303 C2304 1.523 . S
C2304 C2288 1.368 . S
C2304 C2300 1.368 . S
C2304 C2303 1.523 . S
H2305 C2280 0.950 . S
H2306 C2282 0.950 . S
H2307 C2283 0.949 . S
H2308 C2285 0.950 . S
H2309 C2287 0.950 . S
C2310 C2311 1.349 . S
C2310 C2312 1.327 . S
C2310 H2335 0.950 . S
C2311 C2310 1.349 . S
C2311 C2327 1.349 . S
C2312 C2310 1.327 . S
C2312 C2331 1.429 . S
C2312 H2336 0.950 . S
C2313 C2330 1.574 . S
C2313 C2332 1.368 . S
C2313 H2337 0.949 . S
H2314 C2318 0.949 . S
C2315 C2316 1.349 . S
C2315 C2317 1.327 . S
C2315 H2338 0.950 . S
C2316 C2315 1.349 . S
C2316 C2328 1.349 . S
C2317 C2315 1.327 . S
C2317 C2333 1.429 . S
C2317 H2339 0.950 . S
C2318 H2314 0.949 . S
C2318 C2326 1.574 . S
C2318 C2334 1.368 . S
H2319 C2327 0.950 . S
H2320 C2325 0.950 . S
H2321 C2326 0.949 . S
H2322 C2328 0.950 . S
H2323 C2329 0.950 . S
H2324 C2330 0.949 . S
C2325 H2320 0.950 . S
C2325 C2327 1.327 . S
C2325 C2331 1.429 . S
C2326 C2318 1.574 . S
C2326 H2321 0.949 . S
C2326 C2332 1.368 . S
C2327 C2311 1.349 . S
C2327 H2319 0.950 . S
C2327 C2325 1.327 . S
C2328 C2316 1.349 . S
C2328 H2322 0.950 . S
C2328 C2329 1.327 . S
C2329 H2323 0.950 . S
C2329 C2328 1.327 . S
C2329 C2333 1.429 . S
C2330 C2313 1.574 . S
C2330 H2324 0.949 . S
C2330 C2334 1.368 . S
C2331 C2312 1.429 . S
C2331 C2325 1.429 . S
C2331 C2332 1.523 . S
C2332 C2313 1.368 . S
C2332 C2326 1.368 . S
C2332 C2331 1.523 . S
C2333 C2317 1.429 . S
C2333 C2329 1.429 . S
C2333 C2334 1.523 . S
C2334 C2318 1.368 . S
C2334 C2330 1.368 . S
C2334 C2333 1.523 . S
H2335 C2310 0.950 . S
H2336 C2312 0.950 . S
H2337 C2313 0.949 . S
H2338 C2315 0.950 . S
H2339 C2317 0.950 . S
C2340 C2341 1.349 . S
C2340 C2342 1.327 . S
C2340 H2365 0.950 . S
C2341 C2340 1.349 . S
C2341 C2357 1.349 . S
C2342 C2340 1.327 . S
C2342 C2361 1.429 . S
C2342 H2366 0.950 . S
C2343 C2360 1.574 . S
C2343 C2362 1.368 . S
C2343 H2367 0.949 . S
H2344 C2348 0.949 . S
C2345 C2346 1.349 . S
C2345 C2347 1.327 . S
C2345 H2368 0.950 . S
C2346 C2345 1.349 . S
C2346 C2358 1.349 . S
C2347 C2345 1.327 . S
C2347 C2363 1.429 . S
C2347 H2369 0.950 . S
C2348 H2344 0.949 . S
C2348 C2356 1.574 . S
C2348 C2364 1.368 . S
H2349 C2357 0.950 . S
H2350 C2355 0.950 . S
H2351 C2356 0.949 . S
H2352 C2358 0.950 . S
H2353 C2359 0.950 . S
H2354 C2360 0.949 . S
C2355 H2350 0.950 . S
C2355 C2357 1.327 . S
C2355 C2361 1.429 . S
C2356 C2348 1.574 . S
C2356 H2351 0.949 . S
C2356 C2362 1.368 . S
C2357 C2341 1.349 . S
C2357 H2349 0.950 . S
C2357 C2355 1.327 . S
C2358 C2346 1.349 . S
C2358 H2352 0.950 . S
C2358 C2359 1.327 . S
C2359 H2353 0.950 . S
C2359 C2358 1.327 . S
C2359 C2363 1.429 . S
C2360 C2343 1.574 . S
C2360 H2354 0.949 . S
C2360 C2364 1.368 . S
C2361 C2342 1.429 . S
C2361 C2355 1.429 . S
C2361 C2362 1.523 . S
C2362 C2343 1.368 . S
C2362 C2356 1.368 . S
C2362 C2361 1.523 . S
C2363 C2347 1.429 . S
C2363 C2359 1.429 . S
C2363 C2364 1.523 . S
C2364 C2348 1.368 . S
C2364 C2360 1.368 . S
C2364 C2363 1.523 . S
H2365 C2340 0.950 . S
H2366 C2342 0.950 . S
H2367 C2343 0.949 . S
H2368 C2345 0.950 . S
H2369 C2347 0.950 . S
C2370 C2371 1.349 . S
C2370 C2372 1.327 . S
C2370 H2395 0.950 . S
C2371 C2370 1.349 . S
C2371 C2387 1.349 . S
C2372 C2370 1.327 . S
C2372 C2391 1.429 . S
C2372 H2396 0.950 . S
C2373 C2390 1.574 . S
C2373 C2392 1.368 . S
C2373 H2397 0.949 . S
H2374 C2378 0.949 . S
C2375 C2376 1.349 . S
C2375 C2377 1.327 . S
C2375 H2398 0.950 . S
C2376 C2375 1.349 . S
C2376 C2388 1.349 . S
C2377 C2375 1.327 . S
C2377 C2393 1.429 . S
C2377 H2399 0.950 . S
C2378 H2374 0.949 . S
C2378 C2386 1.574 . S
C2378 C2394 1.368 . S
H2379 C2387 0.950 . S
H2380 C2385 0.950 . S
H2381 C2386 0.949 . S
H2382 C2388 0.950 . S
H2383 C2389 0.950 . S
H2384 C2390 0.949 . S
C2385 H2380 0.950 . S
C2385 C2387 1.327 . S
C2385 C2391 1.429 . S
C2386 C2378 1.574 . S
C2386 H2381 0.949 . S
C2386 C2392 1.368 . S
C2387 C2371 1.349 . S
C2387 H2379 0.950 . S
C2387 C2385 1.327 . S
C2388 C2376 1.349 . S
C2388 H2382 0.950 . S
C2388 C2389 1.327 . S
C2389 H2383 0.950 . S
C2389 C2388 1.327 . S
C2389 C2393 1.429 . S
C2390 C2373 1.574 . S
C2390 H2384 0.949 . S
C2390 C2394 1.368 . S
C2391 C2372 1.429 . S
C2391 C2385 1.429 . S
C2391 C2392 1.523 . S
C2392 C2373 1.368 . S
C2392 C2386 1.368 . S
C2392 C2391 1.523 . S
C2393 C2377 1.429 . S
C2393 C2389 1.429 . S
C2393 C2394 1.523 . S
C2394 C2378 1.368 . S
C2394 C2390 1.368 . S
C2394 C2393 1.523 . S
H2395 C2370 0.950 . S
H2396 C2372 0.950 . S
H2397 C2373 0.949 . S
H2398 C2375 0.950 . S
H2399 C2377 0.950 . S
C2400 C2401 1.349 . S
C2400 C2402 1.327 . S
C2400 H2425 0.950 . S
C2401 C2400 1.349 . S
C2401 C2417 1.349 . S
C2402 C2400 1.327 . S
C2402 C2421 1.429 . S
C2402 H2426 0.950 . S
C2403 C2420 1.574 . S
C2403 C2422 1.368 . S
C2403 H2427 0.949 . S
H2404 C2408 0.949 . S
C2405 C2406 1.349 . S
C2405 C2407 1.327 . S
C2405 H2428 0.950 . S
C2406 C2405 1.349 . S
C2406 C2418 1.349 . S
C2407 C2405 1.327 . S
C2407 C2423 1.429 . S
C2407 H2429 0.950 . S
C2408 H2404 0.949 . S
C2408 C2416 1.574 . S
C2408 C2424 1.368 . S
H2409 C2417 0.950 . S
H2410 C2415 0.950 . S
H2411 C2416 0.949 . S
H2412 C2418 0.950 . S
H2413 C2419 0.950 . S
H2414 C2420 0.949 . S
C2415 H2410 0.950 . S
C2415 C2417 1.327 . S
C2415 C2421 1.429 . S
C2416 C2408 1.574 . S
C2416 H2411 0.949 . S
C2416 C2422 1.368 . S
C2417 C2401 1.349 . S
C2417 H2409 0.950 . S
C2417 C2415 1.327 . S
C2418 C2406 1.349 . S
C2418 H2412 0.950 . S
C2418 C2419 1.327 . S
C2419 H2413 0.950 . S
C2419 C2418 1.327 . S
C2419 C2423 1.429 . S
C2420 C2403 1.574 . S
C2420 H2414 0.949 . S
C2420 C2424 1.368 . S
C2421 C2402 1.429 . S
C2421 C2415 1.429 . S
C2421 C2422 1.523 . S
C2422 C2403 1.368 . S
C2422 C2416 1.368 . S
C2422 C2421 1.523 . S
C2423 C2407 1.429 . S
C2423 C2419 1.429 . S
C2423 C2424 1.523 . S
C2424 C2408 1.368 . S
C2424 C2420 1.368 . S
C2424 C2423 1.523 . S
H2425 C2400 0.950 . S
H2426 C2402 0.950 . S
H2427 C2403 0.949 . S
H2428 C2405 0.950 . S
H2429 C2407 0.950 . S
C2430 C2431 1.349 . S
C2430 C2432 1.327 . S
C2430 H2455 0.950 . S
C2431 C2430 1.349 . S
C2431 C2447 1.349 . S
C2432 C2430 1.327 . S
C2432 C2451 1.429 . S
C2432 H2456 1.020 . S
C2433 C2450 1.574 . S
C2433 C2452 1.368 . S
C2433 H2457 0.949 . S
H2434 C2438 0.949 1_565 S
C2435 C2436 1.349 . S
C2435 C2437 1.327 . S
C2435 H2458 0.950 . S
C2436 C2435 1.349 . S
C2436 C2448 1.355 . S
C2437 C2435 1.327 . S
C2437 C2453 1.429 . S
C2437 H2459 0.950 . S
C2438 H2434 0.949 1_545 S
C2438 C2446 1.574 . S
C2438 C2454 1.368 . S
H2439 C2447 0.950 . S
H2440 C2445 0.950 . S
H2441 C2446 0.949 1_565 S
H2442 C2448 0.942 1_565 S
H2443 C2449 0.950 1_565 S
H2444 C2450 0.949 . S
C2445 H2440 0.950 . S
C2445 C2447 1.327 . S
C2445 C2451 1.429 . S
C2446 C2438 1.574 . S
C2446 H2441 0.949 1_545 S
C2446 C2452 1.368 . S
C2447 C2431 1.349 . S
C2447 H2439 0.950 . S
C2447 C2445 1.327 . S
C2448 C2436 1.355 . S
C2448 H2442 0.942 1_545 S
C2448 C2449 1.328 . S
C2449 H2443 0.950 1_545 S
C2449 C2448 1.328 . S
C2449 C2453 1.429 . S
C2450 C2433 1.574 . S
C2450 H2444 0.949 . S
C2450 C2454 1.368 . S
C2451 C2432 1.429 . S
C2451 C2445 1.429 . S
C2451 C2452 1.523 . S
C2452 C2433 1.368 . S
C2452 C2446 1.368 . S
C2452 C2451 1.523 . S
C2453 C2437 1.429 . S
C2453 C2449 1.429 . S
C2453 C2454 1.523 . S
C2454 C2438 1.368 . S
C2454 C2450 1.368 . S
C2454 C2453 1.523 . S
H2455 C2430 0.950 . S
H2456 C2432 1.020 . S
H2457 C2433 0.949 . S
H2458 C2435 0.950 . S
H2459 C2437 0.950 . S
C2460 C2461 1.349 . S
C2460 C2462 1.327 . S
C2460 H2485 0.950 . S
C2461 C2460 1.349 . S
C2461 C2477 1.349 . S
C2462 C2460 1.327 . S
C2462 C2481 1.429 . S
C2462 H2486 0.950 . S
C2463 C2480 1.574 . S
C2463 C2482 1.368 . S
C2463 H2487 0.949 . S
H2464 C2468 0.949 . S
C2465 C2466 1.349 . S
C2465 C2467 1.327 . S
C2465 H2488 0.950 . S
C2466 C2465 1.349 . S
C2466 C2478 1.349 . S
C2467 C2465 1.327 . S
C2467 C2483 1.429 . S
C2467 H2489 0.950 . S
C2468 H2464 0.949 . S
C2468 C2476 1.574 . S
C2468 C2484 1.368 . S
H2469 C2477 0.950 . S
H2470 C2475 0.950 . S
H2471 C2476 0.949 . S
H2472 C2478 0.950 . S
H2473 C2479 0.950 . S
H2474 C2480 0.949 . S
C2475 H2470 0.950 . S
C2475 C2477 1.327 . S
C2475 C2481 1.429 . S
C2476 C2468 1.574 . S
C2476 H2471 0.949 . S
C2476 C2482 1.368 . S
C2477 C2461 1.349 . S
C2477 H2469 0.950 . S
C2477 C2475 1.327 . S
C2478 C2466 1.349 . S
C2478 H2472 0.950 . S
C2478 C2479 1.327 . S
C2479 H2473 0.950 . S
C2479 C2478 1.327 . S
C2479 C2483 1.429 . S
C2480 C2463 1.574 . S
C2480 H2474 0.949 . S
C2480 C2484 1.368 . S
C2481 C2462 1.429 . S
C2481 C2475 1.429 . S
C2481 C2482 1.523 . S
C2482 C2463 1.368 . S
C2482 C2476 1.368 . S
C2482 C2481 1.523 . S
C2483 C2467 1.429 . S
C2483 C2479 1.429 . S
C2483 C2484 1.523 . S
C2484 C2468 1.368 . S
C2484 C2480 1.368 . S
C2484 C2483 1.523 . S
H2485 C2460 0.950 . S
H2486 C2462 0.950 . S
H2487 C2463 0.949 . S
H2488 C2465 0.950 . S
H2489 C2467 0.950 . S
C2490 C2491 1.349 . S
C2490 C2492 1.327 . S
C2490 H2515 0.950 . S
C2491 C2490 1.349 . S
C2491 C2507 1.349 . S
C2492 C2490 1.327 . S
C2492 C2511 1.429 . S
C2492 H2516 0.950 . S
C2493 C2510 1.574 . S
C2493 C2512 1.368 . S
C2493 H2517 0.949 . S
H2494 C2498 0.949 . S
C2495 C2496 1.349 . S
C2495 C2497 1.327 . S
C2495 H2518 0.950 . S
C2496 C2495 1.349 . S
C2496 C2508 1.349 . S
C2497 C2495 1.327 . S
C2497 C2513 1.429 . S
C2497 H2519 0.950 . S
C2498 H2494 0.949 . S
C2498 C2506 1.574 . S
C2498 C2514 1.368 . S
H2499 C2507 0.950 . S
H2500 C2505 0.950 . S
H2501 C2506 0.949 . S
H2502 C2508 0.950 . S
H2503 C2509 0.950 . S
H2504 C2510 0.949 . S
C2505 H2500 0.950 . S
C2505 C2507 1.327 . S
C2505 C2511 1.429 . S
C2506 C2498 1.574 . S
C2506 H2501 0.949 . S
C2506 C2512 1.368 . S
C2507 C2491 1.349 . S
C2507 H2499 0.950 . S
C2507 C2505 1.327 . S
C2508 C2496 1.349 . S
C2508 H2502 0.950 . S
C2508 C2509 1.327 . S
C2509 H2503 0.950 . S
C2509 C2508 1.327 . S
C2509 C2513 1.429 . S
C2510 C2493 1.574 . S
C2510 H2504 0.949 . S
C2510 C2514 1.368 . S
C2511 C2492 1.429 . S
C2511 C2505 1.429 . S
C2511 C2512 1.523 . S
C2512 C2493 1.368 . S
C2512 C2506 1.368 . S
C2512 C2511 1.523 . S
C2513 C2497 1.429 . S
C2513 C2509 1.429 . S
C2513 C2514 1.523 . S
C2514 C2498 1.368 . S
C2514 C2510 1.368 . S
C2514 C2513 1.523 . S
H2515 C2490 0.950 . S
H2516 C2492 0.950 . S
H2517 C2493 0.949 . S
H2518 C2495 0.950 . S
H2519 C2497 0.950 . S
C2520 C2521 1.349 . S
C2520 C2522 1.327 . S
C2520 H2545 0.950 . S
C2521 C2520 1.349 . S
C2521 C2537 1.349 . S
C2522 C2520 1.327 . S
C2522 C2541 1.429 . S
C2522 H2546 0.950 . S
C2523 C2540 1.574 . S
C2523 C2542 1.368 . S
C2523 H2547 0.949 . S
H2524 C2528 0.949 . S
C2525 C2526 1.349 . S
C2525 C2527 1.327 . S
C2525 H2548 0.950 . S
C2526 C2525 1.349 . S
C2526 C2538 1.349 . S
C2527 C2525 1.327 . S
C2527 C2543 1.429 . S
C2527 H2549 0.950 . S
C2528 H2524 0.949 . S
C2528 C2536 1.574 . S
C2528 C2544 1.368 . S
H2529 C2537 0.950 . S
H2530 C2535 0.950 . S
H2531 C2536 0.949 . S
H2532 C2538 0.950 . S
H2533 C2539 0.950 . S
H2534 C2540 0.949 . S
C2535 H2530 0.950 . S
C2535 C2537 1.327 . S
C2535 C2541 1.429 . S
C2536 C2528 1.574 . S
C2536 H2531 0.949 . S
C2536 C2542 1.368 . S
C2537 C2521 1.349 . S
C2537 H2529 0.950 . S
C2537 C2535 1.327 . S
C2538 C2526 1.349 . S
C2538 H2532 0.950 . S
C2538 C2539 1.327 . S
C2539 H2533 0.950 . S
C2539 C2538 1.327 . S
C2539 C2543 1.429 . S
C2540 C2523 1.574 . S
C2540 H2534 0.949 . S
C2540 C2544 1.368 . S
C2541 C2522 1.429 . S
C2541 C2535 1.429 . S
C2541 C2542 1.523 . S
C2542 C2523 1.368 . S
C2542 C2536 1.368 . S
C2542 C2541 1.523 . S
C2543 C2527 1.429 . S
C2543 C2539 1.429 . S
C2543 C2544 1.523 . S
C2544 C2528 1.368 . S
C2544 C2540 1.368 . S
C2544 C2543 1.523 . S
H2545 C2520 0.950 . S
H2546 C2522 0.950 . S
H2547 C2523 0.949 . S
H2548 C2525 0.950 . S
H2549 C2527 0.950 . S
C2550 C2551 1.349 . S
C2550 C2552 1.327 . S
C2550 H2575 0.950 . S
C2551 C2550 1.349 . S
C2551 C2567 1.349 . S
C2552 C2550 1.327 . S
C2552 C2571 1.429 . S
C2552 H2576 0.950 . S
C2553 C2570 1.574 . S
C2553 C2572 1.368 . S
C2553 H2577 0.949 . S
H2554 C2558 0.949 1_565 S
C2555 C2556 1.349 . S
C2555 C2557 1.327 . S
C2555 H2578 0.950 . S
C2556 C2555 1.349 . S
C2556 C2568 1.400 . S
C2557 C2555 1.327 . S
C2557 C2573 1.429 . S
C2557 H2579 0.950 . S
C2558 H2554 0.949 1_545 S
C2558 C2566 1.574 . S
C2558 C2574 1.368 . S
H2559 C2567 0.950 . S
H2560 C2565 0.950 . S
H2561 C2566 0.906 1_565 S
H2562 C2568 0.894 1_565 S
H2563 C2569 0.950 1_565 S
H2564 C2570 0.949 . S
C2565 H2560 0.950 . S
C2565 C2567 1.327 . S
C2565 C2571 1.429 . S
C2566 C2558 1.574 . S
C2566 H2561 0.906 1_545 S
C2566 C2572 1.368 . S
C2567 C2551 1.349 . S
C2567 H2559 0.950 . S
C2567 C2565 1.327 . S
C2568 C2556 1.400 . S
C2568 H2562 0.894 1_545 S
C2568 C2569 1.334 . S
C2569 H2563 0.950 1_545 S
C2569 C2568 1.334 . S
C2569 C2573 1.429 . S
C2570 C2553 1.574 . S
C2570 H2564 0.949 . S
C2570 C2574 1.368 . S
C2571 C2552 1.429 . S
C2571 C2565 1.429 . S
C2571 C2572 1.523 . S
C2572 C2553 1.368 . S
C2572 C2566 1.368 . S
C2572 C2571 1.523 . S
C2573 C2557 1.429 . S
C2573 C2569 1.429 . S
C2573 C2574 1.523 . S
C2574 C2558 1.368 . S
C2574 C2570 1.368 . S
C2574 C2573 1.523 . S
H2575 C2550 0.950 . S
H2576 C2552 0.950 . S
H2577 C2553 0.949 . S
H2578 C2555 0.950 . S
H2579 C2557 0.950 . S
C2580 C2581 1.349 . S
C2580 C2582 1.327 . S
C2580 H2605 0.950 . S
C2581 C2580 1.349 . S
C2581 C2597 1.349 . S
C2582 C2580 1.327 . S
C2582 C2601 1.429 . S
C2582 H2606 0.950 . S
C2583 C2600 1.574 . S
C2583 C2602 1.368 . S
C2583 H2607 0.949 . S
H2584 C2588 0.949 . S
C2585 C2586 1.349 . S
C2585 C2587 1.327 . S
C2585 H2608 0.950 . S
C2586 C2585 1.349 . S
C2586 C2598 1.349 . S
C2587 C2585 1.327 . S
C2587 C2603 1.429 . S
C2587 H2609 0.950 . S
C2588 H2584 0.949 . S
C2588 C2596 1.574 . S
C2588 C2604 1.368 . S
H2589 C2597 0.950 . S
H2590 C2595 0.950 . S
H2591 C2596 0.949 . S
H2592 C2598 0.950 . S
H2593 C2599 0.950 . S
H2594 C2600 0.949 . S
C2595 H2590 0.950 . S
C2595 C2597 1.327 . S
C2595 C2601 1.429 . S
C2596 C2588 1.574 . S
C2596 H2591 0.949 . S
C2596 C2602 1.368 . S
C2597 C2581 1.349 . S
C2597 H2589 0.950 . S
C2597 C2595 1.327 . S
C2598 C2586 1.349 . S
C2598 H2592 0.950 . S
C2598 C2599 1.327 . S
C2599 H2593 0.950 . S
C2599 C2598 1.327 . S
C2599 C2603 1.429 . S
C2600 C2583 1.574 . S
C2600 H2594 0.949 . S
C2600 C2604 1.368 . S
C2601 C2582 1.429 . S
C2601 C2595 1.429 . S
C2601 C2602 1.523 . S
C2602 C2583 1.368 . S
C2602 C2596 1.368 . S
C2602 C2601 1.523 . S
C2603 C2587 1.429 . S
C2603 C2599 1.429 . S
C2603 C2604 1.523 . S
C2604 C2588 1.368 . S
C2604 C2600 1.368 . S
C2604 C2603 1.523 . S
H2605 C2580 0.950 . S
H2606 C2582 0.950 . S
H2607 C2583 0.949 . S
H2608 C2585 0.950 . S
H2609 C2587 0.950 . S
C2610 C2611 1.349 . S
C2610 C2612 1.327 . S
C2610 H2635 0.950 . S
C2611 C2610 1.349 . S
C2611 C2627 1.349 . S
C2612 C2610 1.327 . S
C2612 C2631 1.429 . S
C2612 H2636 0.950 . S
C2613 C2630 1.574 . S
C2613 C2632 1.368 . S
C2613 H2637 0.949 . S
H2614 C2618 0.949 . S
C2615 C2616 1.349 . S
C2615 C2617 1.327 . S
C2615 H2638 0.950 . S
C2616 C2615 1.349 . S
C2616 C2628 1.349 . S
C2617 C2615 1.327 . S
C2617 C2633 1.429 . S
C2617 H2639 0.950 . S
C2618 H2614 0.949 . S
C2618 C2626 1.574 . S
C2618 C2634 1.368 . S
H2619 C2627 0.950 . S
H2620 C2625 0.950 . S
H2621 C2626 0.949 . S
H2622 C2628 0.950 . S
H2623 C2629 0.950 . S
H2624 C2630 0.949 . S
C2625 H2620 0.950 . S
C2625 C2627 1.327 . S
C2625 C2631 1.429 . S
C2626 C2618 1.574 . S
C2626 H2621 0.949 . S
C2626 C2632 1.368 . S
C2627 C2611 1.349 . S
C2627 H2619 0.950 . S
C2627 C2625 1.327 . S
C2628 C2616 1.349 . S
C2628 H2622 0.950 . S
C2628 C2629 1.327 . S
C2629 H2623 0.950 . S
C2629 C2628 1.327 . S
C2629 C2633 1.429 . S
C2630 C2613 1.574 . S
C2630 H2624 0.949 . S
C2630 C2634 1.368 . S
C2631 C2612 1.429 . S
C2631 C2625 1.429 . S
C2631 C2632 1.523 . S
C2632 C2613 1.368 . S
C2632 C2626 1.368 . S
C2632 C2631 1.523 . S
C2633 C2617 1.429 . S
C2633 C2629 1.429 . S
C2633 C2634 1.523 . S
C2634 C2618 1.368 . S
C2634 C2630 1.368 . S
C2634 C2633 1.523 . S
H2635 C2610 0.950 . S
H2636 C2612 0.950 . S
H2637 C2613 0.949 . S
H2638 C2615 0.950 . S
H2639 C2617 0.950 . S
C2640 C2641 1.349 . S
C2640 C2642 1.327 . S
C2640 H2665 0.950 . S
C2641 C2640 1.349 . S
C2641 C2657 1.349 . S
C2642 C2640 1.327 . S
C2642 C2661 1.429 . S
C2642 H2666 0.950 . S
C2643 C2660 1.574 . S
C2643 C2662 1.368 . S
C2643 H2667 0.949 . S
H2644 C2648 0.949 . S
C2645 C2646 1.349 . S
C2645 C2647 1.327 . S
C2645 H2668 0.950 . S
C2646 C2645 1.349 . S
C2646 C2658 1.349 . S
C2647 C2645 1.327 . S
C2647 C2663 1.429 . S
C2647 H2669 0.950 . S
C2648 H2644 0.949 . S
C2648 C2656 1.574 . S
C2648 C2664 1.368 . S
H2649 C2657 0.950 . S
H2650 C2655 0.950 . S
H2651 C2656 0.949 . S
H2652 C2658 0.950 . S
H2653 C2659 0.950 . S
H2654 C2660 0.949 . S
C2655 H2650 0.950 . S
C2655 C2657 1.327 . S
C2655 C2661 1.429 . S
C2656 C2648 1.574 . S
C2656 H2651 0.949 . S
C2656 C2662 1.368 . S
C2657 C2641 1.349 . S
C2657 H2649 0.950 . S
C2657 C2655 1.327 . S
C2658 C2646 1.349 . S
C2658 H2652 0.950 . S
C2658 C2659 1.327 . S
C2659 H2653 0.950 . S
C2659 C2658 1.327 . S
C2659 C2663 1.429 . S
C2660 C2643 1.574 . S
C2660 H2654 0.949 . S
C2660 C2664 1.368 . S
C2661 C2642 1.429 . S
C2661 C2655 1.429 . S
C2661 C2662 1.523 . S
C2662 C2643 1.368 . S
C2662 C2656 1.368 . S
C2662 C2661 1.523 . S
C2663 C2647 1.429 . S
C2663 C2659 1.429 . S
C2663 C2664 1.523 . S
C2664 C2648 1.368 . S
C2664 C2660 1.368 . S
C2664 C2663 1.523 . S
H2665 C2640 0.950 . S
H2666 C2642 0.950 . S
H2667 C2643 0.949 . S
H2668 C2645 0.950 . S
H2669 C2647 0.950 . S
C2670 C2671 1.349 . S
C2670 C2672 1.327 . S
C2670 H2695 0.950 1_556 S
C2671 C2670 1.349 . S
C2671 C2687 1.349 . S
C2672 C2670 1.327 . S
C2672 C2691 1.429 . S
C2672 H2696 0.950 . S
C2673 C2690 1.574 . S
C2673 C2692 1.368 . S
C2673 H2697 0.949 . S
H2674 C2678 0.949 . S
C2675 C2676 1.349 . S
C2675 C2677 1.327 . S
C2675 H2698 0.950 1_655 S
C2676 C2675 1.349 . S
C2676 C2688 1.349 . S
C2677 C2675 1.327 . S
C2677 C2693 1.429 . S
C2677 H2699 0.952 . S
C2678 H2674 0.949 . S
C2678 C2686 1.574 . S
C2678 C2694 1.368 . S
H2679 C2687 0.950 . S
H2680 C2685 0.950 . S
H2681 C2686 0.949 . S
H2682 C2688 0.950 . S
H2683 C2689 0.950 . S
H2684 C2690 0.949 . S
C2685 H2680 0.950 . S
C2685 C2687 1.327 . S
C2685 C2691 1.429 . S
C2686 C2678 1.574 . S
C2686 H2681 0.949 . S
C2686 C2692 1.368 . S
C2687 C2671 1.349 . S
C2687 H2679 0.950 . S
C2687 C2685 1.327 . S
C2688 C2676 1.349 . S
C2688 H2682 0.950 . S
C2688 C2689 1.327 . S
C2689 H2683 0.950 . S
C2689 C2688 1.327 . S
C2689 C2693 1.429 . S
C2690 C2673 1.574 . S
C2690 H2684 0.949 . S
C2690 C2694 1.368 . S
C2691 C2672 1.429 . S
C2691 C2685 1.429 . S
C2691 C2692 1.523 . S
C2692 C2673 1.368 . S
C2692 C2686 1.368 . S
C2692 C2691 1.523 . S
C2693 C2677 1.429 . S
C2693 C2689 1.429 . S
C2693 C2694 1.523 . S
C2694 C2678 1.368 . S
C2694 C2690 1.368 . S
C2694 C2693 1.523 . S
H2695 C2670 0.950 1_554 S
H2696 C2672 0.950 . S
H2697 C2673 0.949 . S
H2698 C2675 0.950 1_455 S
H2699 C2677 0.952 . S
C2700 C2701 1.349 . S
C2700 C2702 1.327 . S
C2700 H2725 0.950 . S
C2701 C2700 1.349 . S
C2701 C2717 1.349 . S
C2702 C2700 1.327 . S
C2702 C2721 1.429 . S
C2702 H2726 0.950 . S
C2703 C2720 1.574 . S
C2703 C2722 1.368 . S
C2703 H2727 0.949 . S
H2704 C2708 0.949 . S
C2705 C2706 1.349 . S
C2705 C2707 1.327 . S
C2705 H2728 0.950 . S
C2706 C2705 1.349 . S
C2706 C2718 1.349 . S
C2707 C2705 1.327 . S
C2707 C2723 1.429 . S
C2707 H2729 0.950 . S
C2708 H2704 0.949 . S
C2708 C2716 1.574 . S
C2708 C2724 1.368 . S
H2709 C2717 0.950 . S
H2710 C2715 0.950 . S
H2711 C2716 0.949 . S
H2712 C2718 0.950 . S
H2713 C2719 0.950 . S
H2714 C2720 0.949 . S
C2715 H2710 0.950 . S
C2715 C2717 1.327 . S
C2715 C2721 1.429 . S
C2716 C2708 1.574 . S
C2716 H2711 0.949 . S
C2716 C2722 1.368 . S
C2717 C2701 1.349 . S
C2717 H2709 0.950 . S
C2717 C2715 1.327 . S
C2718 C2706 1.349 . S
C2718 H2712 0.950 . S
C2718 C2719 1.327 . S
C2719 H2713 0.950 . S
C2719 C2718 1.327 . S
C2719 C2723 1.429 . S
C2720 C2703 1.574 . S
C2720 H2714 0.949 . S
C2720 C2724 1.368 . S
C2721 C2702 1.429 . S
C2721 C2715 1.429 . S
C2721 C2722 1.523 . S
C2722 C2703 1.368 . S
C2722 C2716 1.368 . S
C2722 C2721 1.523 . S
C2723 C2707 1.429 . S
C2723 C2719 1.429 . S
C2723 C2724 1.523 . S
C2724 C2708 1.368 . S
C2724 C2720 1.368 . S
C2724 C2723 1.523 . S
H2725 C2700 0.950 . S
H2726 C2702 0.950 . S
H2727 C2703 0.949 . S
H2728 C2705 0.950 . S
H2729 C2707 0.950 . S
C2730 C2731 1.349 . S
C2730 C2732 1.327 . S
C2730 H2755 0.942 . S
C2731 C2730 1.349 . S
C2731 C2747 1.349 . S
C2732 C2730 1.327 . S
C2732 C2751 1.429 . S
C2732 H2756 0.950 . S
C2733 C2750 1.574 . S
C2733 C2752 1.368 . S
C2733 H2757 0.949 . S
H2734 C2738 0.949 . S
C2735 C2736 1.349 . S
C2735 C2737 1.327 . S
C2735 H2758 0.950 1_455 S
C2736 C2735 1.349 . S
C2736 C2748 1.349 . S
C2737 C2735 1.327 . S
C2737 C2753 1.429 . S
C2737 H2759 0.942 1_455 S
C2738 H2734 0.949 . S
C2738 C2746 1.574 . S
C2738 C2754 1.368 . S
H2739 C2747 0.950 . S
H2740 C2745 0.950 . S
H2741 C2746 0.949 . S
H2742 C2748 0.950 . S
H2743 C2749 0.950 . S
H2744 C2750 0.949 . S
C2745 H2740 0.950 . S
C2745 C2747 1.327 . S
C2745 C2751 1.429 . S
C2746 C2738 1.574 . S
C2746 H2741 0.949 . S
C2746 C2752 1.368 . S
C2747 C2731 1.349 . S
C2747 H2739 0.950 . S
C2747 C2745 1.327 . S
C2748 C2736 1.349 . S
C2748 H2742 0.950 . S
C2748 C2749 1.327 . S
C2749 H2743 0.950 . S
C2749 C2748 1.327 . S
C2749 C2753 1.429 . S
C2750 C2733 1.574 . S
C2750 H2744 0.949 . S
C2750 C2754 1.368 . S
C2751 C2732 1.429 . S
C2751 C2745 1.429 . S
C2751 C2752 1.523 . S
C2752 C2733 1.368 . S
C2752 C2746 1.368 . S
C2752 C2751 1.523 . S
C2753 C2737 1.429 . S
C2753 C2749 1.429 . S
C2753 C2754 1.523 . S
C2754 C2738 1.368 . S
C2754 C2750 1.368 . S
C2754 C2753 1.523 . S
H2755 C2730 0.942 . S
H2756 C2732 0.950 . S
H2757 C2733 0.949 . S
H2758 C2735 0.950 1_655 S
H2759 C2737 0.942 1_655 S
C2760 C2761 1.349 . S
C2760 C2762 1.327 . S
C2760 H2785 0.950 . S
C2761 C2760 1.349 . S
C2761 C2777 1.349 . S
C2762 C2760 1.327 . S
C2762 C2781 1.429 . S
C2762 H2786 0.950 . S
C2763 C2780 1.574 . S
C2763 C2782 1.368 . S
C2763 H2787 0.949 . S
H2764 C2768 0.949 . S
C2765 C2766 1.349 . S
C2765 C2767 1.327 . S
C2765 H2788 0.950 . S
C2766 C2765 1.349 . S
C2766 C2778 1.349 . S
C2767 C2765 1.327 . S
C2767 C2783 1.429 . S
C2767 H2789 0.950 . S
C2768 H2764 0.949 . S
C2768 C2776 1.574 . S
C2768 C2784 1.368 . S
H2769 C2777 0.950 . S
H2770 C2775 0.950 . S
H2771 C2776 0.949 . S
H2772 C2778 0.950 . S
H2773 C2779 0.950 . S
H2774 C2780 0.949 . S
C2775 H2770 0.950 . S
C2775 C2777 1.327 . S
C2775 C2781 1.429 . S
C2776 C2768 1.574 . S
C2776 H2771 0.949 . S
C2776 C2782 1.368 . S
C2777 C2761 1.349 . S
C2777 H2769 0.950 . S
C2777 C2775 1.327 . S
C2778 C2766 1.349 . S
C2778 H2772 0.950 . S
C2778 C2779 1.327 . S
C2779 H2773 0.950 . S
C2779 C2778 1.327 . S
C2779 C2783 1.429 . S
C2780 C2763 1.574 . S
C2780 H2774 0.949 . S
C2780 C2784 1.368 . S
C2781 C2762 1.429 . S
C2781 C2775 1.429 . S
C2781 C2782 1.523 . S
C2782 C2763 1.368 . S
C2782 C2776 1.368 . S
C2782 C2781 1.523 . S
C2783 C2767 1.429 . S
C2783 C2779 1.429 . S
C2783 C2784 1.523 . S
C2784 C2768 1.368 . S
C2784 C2780 1.368 . S
C2784 C2783 1.523 . S
H2785 C2760 0.950 . S
H2786 C2762 0.950 . S
H2787 C2763 0.949 . S
H2788 C2765 0.950 . S
H2789 C2767 0.950 . S
C2790 C2791 1.349 . S
C2790 C2792 1.327 . S
C2790 H2815 0.873 1_554 S
C2791 C2790 1.349 . S
C2791 C2807 1.349 . S
C2792 C2790 1.327 . S
C2792 C2811 1.429 . S
C2792 H2816 0.950 . S
C2793 C2810 1.574 . S
C2793 C2812 1.368 . S
C2793 H2817 0.949 . S
H2794 C2798 0.949 . S
C2795 C2796 1.349 . S
C2795 C2797 1.327 . S
C2795 H2818 0.950 . S
C2796 C2795 1.349 . S
C2796 C2808 1.349 . S
C2797 C2795 1.327 . S
C2797 C2813 1.429 . S
C2797 H2819 0.950 . S
C2798 H2794 0.949 . S
C2798 C2806 1.574 . S
C2798 C2814 1.368 . S
H2799 C2807 0.950 . S
H2800 C2805 0.950 . S
H2801 C2806 0.949 . S
H2802 C2808 0.950 . S
H2803 C2809 0.950 . S
H2804 C2810 0.949 . S
C2805 H2800 0.950 . S
C2805 C2807 1.327 . S
C2805 C2811 1.429 . S
C2806 C2798 1.574 . S
C2806 H2801 0.949 . S
C2806 C2812 1.368 . S
C2807 C2791 1.349 . S
C2807 H2799 0.950 . S
C2807 C2805 1.327 . S
C2808 C2796 1.349 . S
C2808 H2802 0.950 . S
C2808 C2809 1.327 . S
C2809 H2803 0.950 . S
C2809 C2808 1.327 . S
C2809 C2813 1.429 . S
C2810 C2793 1.574 . S
C2810 H2804 0.949 . S
C2810 C2814 1.368 . S
C2811 C2792 1.429 . S
C2811 C2805 1.429 . S
C2811 C2812 1.523 . S
C2812 C2793 1.368 . S
C2812 C2806 1.368 . S
C2812 C2811 1.523 . S
C2813 C2797 1.429 . S
C2813 C2809 1.429 . S
C2813 C2814 1.523 . S
C2814 C2798 1.368 . S
C2814 C2810 1.368 . S
C2814 C2813 1.523 . S
H2815 C2790 0.873 1_556 S
H2816 C2792 0.950 . S
H2817 C2793 0.949 . S
H2818 C2795 0.950 . S
H2819 C2797 0.950 . S
C2820 C2821 1.349 . S
C2820 C2822 1.327 . S
C2820 H2845 0.950 . S
C2821 C2820 1.349 . S
C2821 C2837 1.349 . S
C2822 C2820 1.327 . S
C2822 C2841 1.429 . S
C2822 H2846 0.950 . S
C2823 C2840 1.574 . S
C2823 C2842 1.368 . S
C2823 H2847 0.949 . S
H2824 C2828 0.949 . S
C2825 C2826 1.349 . S
C2825 C2827 1.327 . S
C2825 H2848 0.950 . S
C2826 C2825 1.349 . S
C2826 C2838 1.349 . S
C2827 C2825 1.327 . S
C2827 C2843 1.429 . S
C2827 H2849 0.950 . S
C2828 H2824 0.949 . S
C2828 C2836 1.574 . S
C2828 C2844 1.368 . S
H2829 C2837 0.950 . S
H2830 C2835 0.950 . S
H2831 C2836 0.949 . S
H2832 C2838 0.950 . S
H2833 C2839 0.950 . S
H2834 C2840 0.949 . S
C2835 H2830 0.950 . S
C2835 C2837 1.327 . S
C2835 C2841 1.429 . S
C2836 C2828 1.574 . S
C2836 H2831 0.949 . S
C2836 C2842 1.368 . S
C2837 C2821 1.349 . S
C2837 H2829 0.950 . S
C2837 C2835 1.327 . S
C2838 C2826 1.349 . S
C2838 H2832 0.950 . S
C2838 C2839 1.327 . S
C2839 H2833 0.950 . S
C2839 C2838 1.327 . S
C2839 C2843 1.429 . S
C2840 C2823 1.574 . S
C2840 H2834 0.949 . S
C2840 C2844 1.368 . S
C2841 C2822 1.429 . S
C2841 C2835 1.429 . S
C2841 C2842 1.523 . S
C2842 C2823 1.368 . S
C2842 C2836 1.368 . S
C2842 C2841 1.523 . S
C2843 C2827 1.429 . S
C2843 C2839 1.429 . S
C2843 C2844 1.523 . S
C2844 C2828 1.368 . S
C2844 C2840 1.368 . S
C2844 C2843 1.523 . S
H2845 C2820 0.950 . S
H2846 C2822 0.950 . S
H2847 C2823 0.949 . S
H2848 C2825 0.950 . S
H2849 C2827 0.950 . S
C2850 C2851 1.349 . S
C2850 C2852 1.327 . S
C2850 H2875 0.950 . S
C2851 C2850 1.349 . S
C2851 C2867 1.349 . S
C2852 C2850 1.327 . S
C2852 C2871 1.429 . S
C2852 H2876 0.950 . S
C2853 C2870 1.574 . S
C2853 C2872 1.368 . S
C2853 H2877 0.949 . S
H2854 C2858 0.949 . S
C2855 C2856 1.349 . S
C2855 C2857 1.327 . S
C2855 H2878 0.950 . S
C2856 C2855 1.349 . S
C2856 C2868 1.349 . S
C2857 C2855 1.327 . S
C2857 C2873 1.429 . S
C2857 H2879 0.950 . S
C2858 H2854 0.949 . S
C2858 C2866 1.574 . S
C2858 C2874 1.368 . S
H2859 C2867 0.950 . S
H2860 C2865 0.950 . S
H2861 C2866 0.949 . S
H2862 C2868 0.950 . S
H2863 C2869 0.950 . S
H2864 C2870 0.949 . S
C2865 H2860 0.950 . S
C2865 C2867 1.327 . S
C2865 C2871 1.429 . S
C2866 C2858 1.574 . S
C2866 H2861 0.949 . S
C2866 C2872 1.368 . S
C2867 C2851 1.349 . S
C2867 H2859 0.950 . S
C2867 C2865 1.327 . S
C2868 C2856 1.349 . S
C2868 H2862 0.950 . S
C2868 C2869 1.327 . S
C2869 H2863 0.950 . S
C2869 C2868 1.327 . S
C2869 C2873 1.429 . S
C2870 C2853 1.574 . S
C2870 H2864 0.949 . S
C2870 C2874 1.368 . S
C2871 C2852 1.429 . S
C2871 C2865 1.429 . S
C2871 C2872 1.523 . S
C2872 C2853 1.368 . S
C2872 C2866 1.368 . S
C2872 C2871 1.523 . S
C2873 C2857 1.429 . S
C2873 C2869 1.429 . S
C2873 C2874 1.523 . S
C2874 C2858 1.368 . S
C2874 C2870 1.368 . S
C2874 C2873 1.523 . S
H2875 C2850 0.950 . S
H2876 C2852 0.950 . S
H2877 C2853 0.949 . S
H2878 C2855 0.950 . S
H2879 C2857 0.950 . S
C2880 C2881 1.349 . S
C2880 C2882 1.327 . S
C2880 H2905 0.950 . S
C2881 C2880 1.349 . S
C2881 C2897 1.349 . S
C2882 C2880 1.327 . S
C2882 C2901 1.429 . S
C2882 H2906 0.950 . S
C2883 C2900 1.574 . S
C2883 C2902 1.368 . S
C2883 H2907 0.949 . S
H2884 C2888 0.949 . S
C2885 C2886 1.349 . S
C2885 C2887 1.327 . S
C2885 H2908 0.950 . S
C2886 C2885 1.349 . S
C2886 C2898 1.349 . S
C2887 C2885 1.327 . S
C2887 C2903 1.429 . S
C2887 H2909 0.950 . S
C2888 H2884 0.949 . S
C2888 C2896 1.574 . S
C2888 C2904 1.368 . S
H2889 C2897 0.950 . S
H2890 C2895 0.950 . S
H2891 C2896 0.949 . S
H2892 C2898 0.950 . S
H2893 C2899 0.950 . S
H2894 C2900 0.949 . S
C2895 H2890 0.950 . S
C2895 C2897 1.327 . S
C2895 C2901 1.429 . S
C2896 C2888 1.574 . S
C2896 H2891 0.949 . S
C2896 C2902 1.368 . S
C2897 C2881 1.349 . S
C2897 H2889 0.950 . S
C2897 C2895 1.327 . S
C2898 C2886 1.349 . S
C2898 H2892 0.950 . S
C2898 C2899 1.327 . S
C2899 H2893 0.950 . S
C2899 C2898 1.327 . S
C2899 C2903 1.429 . S
C2900 C2883 1.574 . S
C2900 H2894 0.949 . S
C2900 C2904 1.368 . S
C2901 C2882 1.429 . S
C2901 C2895 1.429 . S
C2901 C2902 1.523 . S
C2902 C2883 1.368 . S
C2902 C2896 1.368 . S
C2902 C2901 1.523 . S
C2903 C2887 1.429 . S
C2903 C2899 1.429 . S
C2903 C2904 1.523 . S
C2904 C2888 1.368 . S
C2904 C2900 1.368 . S
C2904 C2903 1.523 . S
H2905 C2880 0.950 . S
H2906 C2882 0.950 . S
H2907 C2883 0.949 . S
H2908 C2885 0.950 . S
H2909 C2887 0.950 . S
C2910 C2911 1.349 . S
C2910 C2912 1.327 . S
C2910 H2935 0.950 . S
C2911 C2910 1.349 . S
C2911 C2927 1.349 . S
C2912 C2910 1.327 . S
C2912 C2931 1.429 . S
C2912 H2936 0.950 . S
C2913 C2930 1.574 . S
C2913 C2932 1.368 . S
C2913 H2937 0.949 . S
H2914 C2918 0.949 . S
C2915 C2916 1.349 . S
C2915 C2917 1.327 . S
C2915 H2938 0.950 . S
C2916 C2915 1.349 . S
C2916 C2928 1.349 . S
C2917 C2915 1.327 . S
C2917 C2933 1.429 . S
C2917 H2939 0.950 . S
C2918 H2914 0.949 . S
C2918 C2926 1.574 . S
C2918 C2934 1.368 . S
H2919 C2927 0.950 . S
H2920 C2925 0.950 . S
H2921 C2926 0.949 . S
H2922 C2928 0.950 . S
H2923 C2929 0.950 . S
H2924 C2930 0.949 . S
C2925 H2920 0.950 . S
C2925 C2927 1.327 . S
C2925 C2931 1.429 . S
C2926 C2918 1.574 . S
C2926 H2921 0.949 . S
C2926 C2932 1.368 . S
C2927 C2911 1.349 . S
C2927 H2919 0.950 . S
C2927 C2925 1.327 . S
C2928 C2916 1.349 . S
C2928 H2922 0.950 . S
C2928 C2929 1.327 . S
C2929 H2923 0.950 . S
C2929 C2928 1.327 . S
C2929 C2933 1.429 . S
C2930 C2913 1.574 . S
C2930 H2924 0.949 . S
C2930 C2934 1.368 . S
C2931 C2912 1.429 . S
C2931 C2925 1.429 . S
C2931 C2932 1.523 . S
C2932 C2913 1.368 . S
C2932 C2926 1.368 . S
C2932 C2931 1.523 . S
C2933 C2917 1.429 . S
C2933 C2929 1.429 . S
C2933 C2934 1.523 . S
C2934 C2918 1.368 . S
C2934 C2930 1.368 . S
C2934 C2933 1.523 . S
H2935 C2910 0.950 . S
H2936 C2912 0.950 . S
H2937 C2913 0.949 . S
H2938 C2915 0.950 . S
H2939 C2917 0.950 . S
C2940 C2941 1.349 . S
C2940 C2942 1.327 . S
C2940 H2965 0.950 . S
C2941 C2940 1.349 . S
C2941 C2957 1.349 . S
C2942 C2940 1.327 . S
C2942 C2961 1.429 . S
C2942 H2966 0.950 . S
C2943 C2960 1.574 . S
C2943 C2962 1.368 . S
C2943 H2967 0.949 . S
H2944 C2948 0.949 . S
C2945 C2946 1.349 . S
C2945 C2947 1.327 . S
C2945 H2968 0.950 . S
C2946 C2945 1.349 . S
C2946 C2958 1.349 . S
C2947 C2945 1.327 . S
C2947 C2963 1.429 . S
C2947 H2969 0.950 . S
C2948 H2944 0.949 . S
C2948 C2956 1.574 . S
C2948 C2964 1.368 . S
H2949 C2957 0.950 . S
H2950 C2955 0.950 . S
H2951 C2956 0.949 . S
H2952 C2958 0.950 . S
H2953 C2959 0.950 . S
H2954 C2960 0.949 . S
C2955 H2950 0.950 . S
C2955 C2957 1.327 . S
C2955 C2961 1.429 . S
C2956 C2948 1.574 . S
C2956 H2951 0.949 . S
C2956 C2962 1.368 . S
C2957 C2941 1.349 . S
C2957 H2949 0.950 . S
C2957 C2955 1.327 . S
C2958 C2946 1.349 . S
C2958 H2952 0.950 . S
C2958 C2959 1.327 . S
C2959 H2953 0.950 . S
C2959 C2958 1.327 . S
C2959 C2963 1.429 . S
C2960 C2943 1.574 . S
C2960 H2954 0.949 . S
C2960 C2964 1.368 . S
C2961 C2942 1.429 . S
C2961 C2955 1.429 . S
C2961 C2962 1.523 . S
C2962 C2943 1.368 . S
C2962 C2956 1.368 . S
C2962 C2961 1.523 . S
C2963 C2947 1.429 . S
C2963 C2959 1.429 . S
C2963 C2964 1.523 . S
C2964 C2948 1.368 . S
C2964 C2960 1.368 . S
C2964 C2963 1.523 . S
H2965 C2940 0.950 . S
H2966 C2942 0.950 . S
H2967 C2943 0.949 . S
H2968 C2945 0.950 . S
H2969 C2947 0.950 . S
C2970 C2971 1.349 . S
C2970 C2972 1.327 . S
C2970 H2995 0.950 . S
C2971 C2970 1.349 . S
C2971 C2987 1.349 . S
C2972 C2970 1.327 . S
C2972 C2991 1.429 . S
C2972 H2996 0.950 . S
C2973 C2990 1.574 . S
C2973 C2992 1.368 . S
C2973 H2997 0.949 . S
H2974 C2978 0.949 . S
C2975 C2976 1.349 . S
C2975 C2977 1.327 . S
C2975 H2998 0.950 . S
C2976 C2975 1.349 . S
C2976 C2988 1.349 . S
C2977 C2975 1.327 . S
C2977 C2993 1.429 . S
C2977 H2999 0.950 . S
C2978 H2974 0.949 . S
C2978 C2986 1.574 . S
C2978 C2994 1.368 . S
H2979 C2987 0.950 . S
H2980 C2985 0.950 . S
H2981 C2986 0.949 . S
H2982 C2988 0.950 . S
H2983 C2989 0.950 . S
H2984 C2990 0.949 . S
C2985 H2980 0.950 . S
C2985 C2987 1.327 . S
C2985 C2991 1.429 . S
C2986 C2978 1.574 . S
C2986 H2981 0.949 . S
C2986 C2992 1.368 . S
C2987 C2971 1.349 . S
C2987 H2979 0.950 . S
C2987 C2985 1.327 . S
C2988 C2976 1.349 . S
C2988 H2982 0.950 . S
C2988 C2989 1.327 . S
C2989 H2983 0.950 . S
C2989 C2988 1.327 . S
C2989 C2993 1.429 . S
C2990 C2973 1.574 . S
C2990 H2984 0.949 . S
C2990 C2994 1.368 . S
C2991 C2972 1.429 . S
C2991 C2985 1.429 . S
C2991 C2992 1.523 . S
C2992 C2973 1.368 . S
C2992 C2986 1.368 . S
C2992 C2991 1.523 . S
C2993 C2977 1.429 . S
C2993 C2989 1.429 . S
C2993 C2994 1.523 . S
C2994 C2978 1.368 . S
C2994 C2990 1.368 . S
C2994 C2993 1.523 . S
H2995 C2970 0.950 . S
H2996 C2972 0.950 . S
H2997 C2973 0.949 . S
H2998 C2975 0.950 . S
H2999 C2977 0.950 . S
C3000 C3001 1.349 . S
C3000 C3002 1.327 . S
C3000 H3025 0.950 . S
C3001 C3000 1.349 . S
C3001 C3017 1.349 . S
C3002 C3000 1.327 . S
C3002 C3021 1.429 . S
C3002 H3026 0.950 . S
C3003 C3020 1.574 . S
C3003 C3022 1.368 . S
C3003 H3027 0.949 . S
H3004 C3008 0.903 1_554 S
C3005 C3006 1.349 . S
C3005 C3007 1.327 . S
C3005 H3028 0.950 . S
C3006 C3005 1.349 . S
C3006 C3018 1.349 . S
C3007 C3005 1.327 . S
C3007 C3023 1.429 . S
C3007 H3029 0.950 . S
C3008 H3004 0.903 1_556 S
C3008 C3016 1.574 . S
C3008 C3024 1.368 . S
H3009 C3017 0.950 . S
H3010 C3015 0.950 . S
H3011 C3016 0.949 . S
H3012 C3018 0.950 1_554 S
H3013 C3019 0.950 1_554 S
H3014 C3020 0.949 . S
C3015 H3010 0.950 . S
C3015 C3017 1.327 . S
C3015 C3021 1.429 . S
C3016 C3008 1.574 . S
C3016 H3011 0.949 . S
C3016 C3022 1.368 . S
C3017 C3001 1.349 . S
C3017 H3009 0.950 . S
C3017 C3015 1.327 . S
C3018 C3006 1.349 . S
C3018 H3012 0.950 1_556 S
C3018 C3019 1.327 . S
C3019 H3013 0.950 1_556 S
C3019 C3018 1.327 . S
C3019 C3023 1.429 . S
C3020 C3003 1.574 . S
C3020 H3014 0.949 . S
C3020 C3024 1.368 . S
C3021 C3002 1.429 . S
C3021 C3015 1.429 . S
C3021 C3022 1.523 . S
C3022 C3003 1.368 . S
C3022 C3016 1.368 . S
C3022 C3021 1.523 . S
C3023 C3007 1.429 . S
C3023 C3019 1.429 . S
C3023 C3024 1.523 . S
C3024 C3008 1.368 . S
C3024 C3020 1.368 . S
C3024 C3023 1.523 . S
H3025 C3000 0.950 . S
H3026 C3002 0.950 . S
H3027 C3003 0.949 . S
H3028 C3005 0.950 . S
H3029 C3007 0.950 . S
C3030 C3031 1.349 . S
C3030 C3032 1.327 . S
C3030 H3055 0.950 . S
C3031 C3030 1.349 . S
C3031 C3047 1.349 . S
C3032 C3030 1.327 . S
C3032 C3051 1.429 . S
C3032 H3056 0.950 . S
C3033 C3050 1.574 . S
C3033 C3052 1.368 . S
C3033 H3057 0.949 . S
H3034 C3038 0.949 . S
C3035 C3036 1.349 . S
C3035 C3037 1.327 . S
C3035 H3058 0.950 . S
C3036 C3035 1.349 . S
C3036 C3048 1.349 . S
C3037 C3035 1.327 . S
C3037 C3053 1.429 . S
C3037 H3059 0.950 . S
C3038 H3034 0.949 . S
C3038 C3046 1.574 . S
C3038 C3054 1.368 . S
H3039 C3047 0.950 . S
H3040 C3045 0.950 . S
H3041 C3046 0.949 . S
H3042 C3048 0.950 . S
H3043 C3049 0.950 . S
H3044 C3050 0.949 . S
C3045 H3040 0.950 . S
C3045 C3047 1.327 . S
C3045 C3051 1.429 . S
C3046 C3038 1.574 . S
C3046 H3041 0.949 . S
C3046 C3052 1.368 . S
C3047 C3031 1.349 . S
C3047 H3039 0.950 . S
C3047 C3045 1.327 . S
C3048 C3036 1.349 . S
C3048 H3042 0.950 . S
C3048 C3049 1.327 . S
C3049 H3043 0.950 . S
C3049 C3048 1.327 . S
C3049 C3053 1.429 . S
C3050 C3033 1.574 . S
C3050 H3044 0.949 . S
C3050 C3054 1.368 . S
C3051 C3032 1.429 . S
C3051 C3045 1.429 . S
C3051 C3052 1.523 . S
C3052 C3033 1.368 . S
C3052 C3046 1.368 . S
C3052 C3051 1.523 . S
C3053 C3037 1.429 . S
C3053 C3049 1.429 . S
C3053 C3054 1.523 . S
C3054 C3038 1.368 . S
C3054 C3050 1.368 . S
C3054 C3053 1.523 . S
H3055 C3030 0.950 . S
H3056 C3032 0.950 . S
H3057 C3033 0.949 . S
H3058 C3035 0.950 . S
H3059 C3037 0.950 . S
C3060 C3061 1.349 . S
C3060 C3062 1.327 . S
C3060 H3085 0.950 . S
C3061 C3060 1.349 . S
C3061 C3077 1.349 . S
C3062 C3060 1.327 . S
C3062 C3081 1.429 . S
C3062 H3086 0.950 . S
C3063 C3080 1.574 . S
C3063 C3082 1.368 . S
C3063 H3087 0.949 . S
H3064 C3068 0.949 . S
C3065 C3066 1.349 . S
C3065 C3067 1.327 . S
C3065 H3088 0.950 1_554 S
C3066 C3065 1.349 . S
C3066 C3078 1.349 . S
C3067 C3065 1.327 . S
C3067 C3083 1.429 . S
C3067 H3089 0.950 1_554 S
C3068 H3064 0.949 . S
C3068 C3076 1.574 . S
C3068 C3084 1.368 . S
H3069 C3077 0.950 . S
H3070 C3075 0.950 . S
H3071 C3076 0.949 . S
H3072 C3078 0.950 . S
H3073 C3079 0.950 . S
H3074 C3080 0.897 1_556 S
C3075 H3070 0.950 . S
C3075 C3077 1.327 . S
C3075 C3081 1.429 . S
C3076 C3068 1.574 . S
C3076 H3071 0.949 . S
C3076 C3082 1.368 . S
C3077 C3061 1.349 . S
C3077 H3069 0.950 . S
C3077 C3075 1.327 . S
C3078 C3066 1.349 . S
C3078 H3072 0.950 . S
C3078 C3079 1.327 . S
C3079 H3073 0.950 . S
C3079 C3078 1.327 . S
C3079 C3083 1.429 . S
C3080 C3063 1.574 . S
C3080 H3074 0.897 1_554 S
C3080 C3084 1.368 . S
C3081 C3062 1.429 . S
C3081 C3075 1.429 . S
C3081 C3082 1.523 . S
C3082 C3063 1.368 . S
C3082 C3076 1.368 . S
C3082 C3081 1.523 . S
C3083 C3067 1.429 . S
C3083 C3079 1.429 . S
C3083 C3084 1.523 . S
C3084 C3068 1.368 . S
C3084 C3080 1.368 . S
C3084 C3083 1.523 . S
H3085 C3060 0.950 . S
H3086 C3062 0.950 . S
H3087 C3063 0.949 . S
H3088 C3065 0.950 1_556 S
H3089 C3067 0.950 1_556 S
C3090 C3091 1.349 . S
C3090 C3092 1.327 . S
C3090 H3115 1.017 . S
C3091 C3090 1.349 . S
C3091 C3107 1.349 . S
C3092 C3090 1.327 . S
C3092 C3111 1.429 . S
C3092 H3116 0.950 1_554 S
C3093 C3110 1.574 . S
C3093 C3112 1.368 . S
C3093 H3117 0.949 . S
H3094 C3098 0.949 1_556 S
C3095 C3096 1.349 . S
C3095 C3097 1.327 . S
C3095 H3118 0.950 . S
C3096 C3095 1.349 . S
C3096 C3108 1.349 1_554 S
C3097 C3095 1.327 . S
C3097 C3113 1.429 . S
C3097 H3119 0.950 . S
C3098 H3094 0.949 1_554 S
C3098 C3106 1.574 . S
C3098 C3114 1.368 . S
H3099 C3107 0.950 . S
H3100 C3105 0.950 . S
H3101 C3106 0.949 1_556 S
H3102 C3108 0.950 . S
H3103 C3109 0.954 . S
H3104 C3110 0.949 . S
C3105 H3100 0.950 . S
C3105 C3107 1.327 . S
C3105 C3111 1.429 . S
C3106 C3098 1.574 . S
C3106 H3101 0.949 1_554 S
C3106 C3112 1.368 . S
C3107 C3091 1.349 . S
C3107 H3099 0.950 . S
C3107 C3105 1.327 . S
C3108 C3096 1.349 1_556 S
C3108 H3102 0.950 . S
C3108 C3109 1.328 . S
C3109 H3103 0.954 . S
C3109 C3108 1.328 . S
C3109 C3113 1.424 1_556 S
C3110 C3093 1.574 . S
C3110 H3104 0.949 . S
C3110 C3114 1.368 . S
C3111 C3092 1.429 . S
C3111 C3105 1.429 . S
C3111 C3112 1.523 . S
C3112 C3093 1.368 . S
C3112 C3106 1.368 . S
C3112 C3111 1.523 . S
C3113 C3097 1.429 . S
C3113 C3109 1.424 1_554 S
C3113 C3114 1.523 . S
C3114 C3098 1.368 . S
C3114 C3110 1.368 . S
C3114 C3113 1.523 . S
H3115 C3090 1.017 . S
H3116 C3092 0.950 1_556 S
H3117 C3093 0.949 . S
H3118 C3095 0.950 . S
H3119 C3097 0.950 . S
C1686 C673 1.503 . S
C1681 C211 1.502 . S
C1716 C732 1.516 . S
C1711 C255 1.513 . S
C1741 C274 1.508 . S
C1746 C849 1.509 . S
C1776 C917 1.525 . S
C1771 C157 1.525 . S
C1806 C996 1.519 . S
C1801 C391 1.517 . S
C1836 C1121 1.522 . S
C1831 C484 1.520 . S
C1861 C450 1.505 . S
C1866 C1181 1.505 . S
C1896 C1289 1.526 . S
C1891 C352 1.524 . S
C1921 C430 1.505 . S
C1926 C1385 1.505 . S
C1956 C1445 1.534 . S
C1951 C367 1.533 . S
C1981 C411 1.529 . S
C1986 C1348 1.532 . S
C2016 C1465 1.519 . S
C2011 C469 1.518 . S
C2041 C294 1.502 . S
C2046 C1533 1.505 . S
C2071 C177 1.525 . S
C2076 C1524 1.526 . S
C2101 C196 1.508 . S
C2106 C1553 1.509 . S
C2131 C235 1.515 . S
C2136 C1561 1.518 . S
C2161 C133 1.510 . S
C2166 C945 1.510 . S
C2191 C567 1.502 . S
C2196 C908 1.505 . S
C2226 C644 1.518 . S
C2221 C601 1.517 . S
C2256 C741 1.511 . S
C2251 C328 1.510 . S
C2281 C172 1.519 . S
C2286 C1005 1.521 . S
C2316 C1297 1.509 . S
C2311 C445 1.508 . S
C2346 C1025 1.542 . S
C2341 C372 1.539 . S
C2376 C1209 1.509 . S
C2371 C489 1.508 . S
C2406 C1201 1.502 . S
C2401 C562 1.502 . S
C2431 C606 1.513 . S
C2436 C1269 1.516 . S
C2461 C313 1.508 . S
C2466 C1033 1.510 . S
C2496 C1084 1.525 . S
C2491 C508 1.525 . S
C2521 C118 1.517 . S
C2526 C829 1.519 . S
C2556 C937 1.522 . S
C2551 C16 1.520 . S
C2586 C653 1.504 . S
C2581 C60 1.505 . S
C2616 C769 1.526 . S
C2611 C79 1.524 . S
C2641 C40 1.505 . S
C2646 C1473 1.505 . S
C2671 C94 1.533 . S
C2676 C1357 1.534 . S
C2701 C138 1.529 . S
C2706 C1436 1.532 . S
C2731 C1 1.518 . S
C2736 C1377 1.519 . S
C2766 C1621 1.505 . S
C2761 C333 1.503 . S
C2796 C1612 1.526 . S
C2791 C528 1.525 . S
C2826 C1641 1.509 . S
C2821 C547 1.508 . S
C2851 C586 1.515 . S
C2856 C1649 1.518 . S
C2881 C406 1.510 . S
C2886 C1113 1.510 . S
C2916 C1093 1.505 . S
C2911 C216 1.502 . S
C2946 C1172 1.518 . S
C2941 C250 1.517 . S
C2976 C1260 1.511 . S
C2971 C289 1.510 . S
C3001 C523 1.519 . S
C3006 C820 1.520 . S
C3036 C761 1.509 . S
C3031 C55 1.508 . S
C3061 C99 1.539 . S
C3066 C857 1.542 . S
C3096 C681 1.509 . S
C3091 C21 1.508 . S
