# Generated by pormake.
# Topology anh, (6,3)-cn, num edge types: 1
# Building blocks:
#     Node 0, Type 0, BuildingBlock: INOVEN_clean_sbu_0, # of connection points: 6
#     Node 1, Type 0, BuildingBlock: INOVEN_clean_sbu_0, # of connection points: 6
#     Node 2, Type 0, BuildingBlock: INOVEN_clean_sbu_0, # of connection points: 6
#     Node 3, Type 1, BuildingBlock: BELTOD_clean_linker_0, # of connection points: 3
#     Node 4, Type 1, BuildingBlock: BELTOD_clean_linker_0, # of connection points: 3
#     Node 5, Type 1, BuildingBlock: BELTOD_clean_linker_0, # of connection points: 3
#     Node 6, Type 1, BuildingBlock: BELTOD_clean_linker_0, # of connection points: 3
#     Node 7, Type 1, BuildingBlock: BELTOD_clean_linker_0, # of connection points: 3
#     Node 8, Type 1, BuildingBlock: BELTOD_clean_linker_0, # of connection points: 3
#     Edge 9, Type (0, 1), BuildingBlock: CIFDUS_clean_linker_0, # of connection points: 2
#     Edge 10, Type (0, 1), BuildingBlock: CIFDUS_clean_linker_0, # of connection points: 2
#     Edge 11, Type (0, 1), BuildingBlock: CIFDUS_clean_linker_0, # of connection points: 2
#     Edge 12, Type (0, 1), BuildingBlock: CIFDUS_clean_linker_0, # of connection points: 2
#     Edge 13, Type (0, 1), BuildingBlock: CIFDUS_clean_linker_0, # of connection points: 2
#     Edge 14, Type (0, 1), BuildingBlock: CIFDUS_clean_linker_0, # of connection points: 2
#     Edge 15, Type (0, 1), BuildingBlock: CIFDUS_clean_linker_0, # of connection points: 2
#     Edge 16, Type (0, 1), BuildingBlock: CIFDUS_clean_linker_0, # of connection points: 2
#     Edge 17, Type (0, 1), BuildingBlock: CIFDUS_clean_linker_0, # of connection points: 2
#     Edge 18, Type (0, 1), BuildingBlock: CIFDUS_clean_linker_0, # of connection points: 2
#     Edge 19, Type (0, 1), BuildingBlock: CIFDUS_clean_linker_0, # of connection points: 2
#     Edge 20, Type (0, 1), BuildingBlock: CIFDUS_clean_linker_0, # of connection points: 2
#     Edge 21, Type (0, 1), BuildingBlock: CIFDUS_clean_linker_0, # of connection points: 2
#     Edge 22, Type (0, 1), BuildingBlock: CIFDUS_clean_linker_0, # of connection points: 2
#     Edge 23, Type (0, 1), BuildingBlock: CIFDUS_clean_linker_0, # of connection points: 2
#     Edge 24, Type (0, 1), BuildingBlock: CIFDUS_clean_linker_0, # of connection points: 2
#     Edge 25, Type (0, 1), BuildingBlock: CIFDUS_clean_linker_0, # of connection points: 2
#     Edge 26, Type (0, 1), BuildingBlock: CIFDUS_clean_linker_0, # of connection points: 2
# Relax obj value: 0.190
# Max RMSD: 0.219
# Mean RMSD: 0.154
data_MOF--net-anh--node1-INOVEN_clean_sbu_0--node2-BELTOD_clean_linker_0--edge1-CIFDUS_clean_linker_0
_symmetry_space_group_name_H-M    P1
_symmetry_Int_Tables_number       1
_symmetry_cell_setting            triclinic
loop_
_symmetry_equiv_pos_as_xyz
'x, y, z'
_cell_length_a     30.522303
_cell_length_b     37.502844
_cell_length_c     54.440769
_cell_angle_alpha  93.163095
_cell_angle_beta   88.664466
_cell_angle_gamma 129.31912
loop_
_atom_site_label
_atom_site_type_symbol
_atom_site_fract_x
_atom_site_fract_y
_atom_site_fract_z
_atom_type_partial_charge
Gd0 Gd 0.17708 0.55585 0.15427 0.0
Gd1 Gd 0.10664 0.58455 0.16675 0.0
C2 C 0.24079 0.6655 0.1607 0.0
C3 C 0.23861 0.53567 0.13725 0.0
C4 C 0.28215 0.54117 0.12147 0.0
C5 C 0.32951 0.55025 0.13266 0.0
C6 C 0.26987 0.52584 0.09654 0.0
C7 C 0.34269 0.51779 0.09631 0.0
C8 C 0.29984 0.51402 0.08409 0.0
C9 C 0.35986 0.53886 0.12009 0.0
C10 C 0.1437 0.54513 0.20163 0.0
C11 C 1.04365 0.47776 0.1567 0.0
C12 C 1.04665 0.60395 0.18672 0.0
C13 C 0.98418 0.57253 0.18819 0.0
C14 C 0.95298 0.57899 0.17337 0.0
C15 C 0.95527 0.53141 0.20073 0.0
C16 C 0.86732 0.50066 0.17996 0.0
C17 C 0.89745 0.49586 0.19664 0.0
C18 C 0.89511 0.54335 0.16923 0.0
C19 C 0.10883 0.56502 0.11815 0.0
O20 O 0.24477 0.63311 0.15411 0.0
O21 O 0.19199 0.6554 0.16693 0.0
O22 O 0.25309 0.56258 0.15712 0.0
O23 O 0.19077 0.5205 0.12699 0.0
O24 O 0.14652 0.51653 0.18896 0.0
O25 O 0.16078 0.57877 0.18904 0.0
O26 O 1.04383 0.50764 0.17078 0.0
O27 O 0.08907 0.49122 0.1443 0.0
O28 O 1.06727 0.61631 0.16457 0.0
O29 O 1.07204 0.59297 0.19951 0.0
O30 O 1.06405 0.55445 0.12912 0.0
O31 O 0.15001 0.58672 0.13302 0.0
H32 H 0.33967 0.56183 0.15188 0.0
H33 H 0.23378 0.51872 0.08735 0.0
H34 H 0.28634 0.49821 0.06563 0.0
H35 H 0.39271 0.54197 0.1299 0.0
H36 H 0.97411 0.61025 0.16351 0.0
H37 H 0.9778 0.52523 0.21247 0.0
H38 H 0.87702 0.46372 0.20553 0.0
H39 H 0.87327 0.54815 0.15614 0.0
Gd40 Gd 0.62222 0.01802 0.47968 0.0
Gd41 Gd 0.55292 0.04752 0.47194 0.0
C42 C 0.48612 0.94028 0.47019 0.0
C43 C 0.66475 0.98114 0.49457 0.0
C44 C 0.64976 0.93569 0.49798 0.0
C45 C 0.66203 0.91543 0.47962 0.0
C46 C 0.62852 0.91448 0.52053 0.0
C47 C 0.63605 0.85565 0.50692 0.0
C48 C 0.62154 0.87478 0.52491 0.0
C49 C 0.65507 0.87576 0.48402 0.0
C50 C 0.61773 0.03497 0.43278 0.0
C51 C 0.69074 0.12551 0.47913 0.0
C52 C 0.51437 0.0888 0.45981 0.0
C53 C 0.52965 0.13275 0.4695 0.0
C54 C 0.57191 0.15875 0.4878 0.0
C55 C 0.5011 0.14813 0.46152 0.0
C56 C 0.55582 0.21456 0.49078 0.0
C57 C 0.51419 0.18889 0.47205 0.0
C58 C 0.58501 0.1993 0.49827 0.0
C59 C 0.56263 0.0352 0.51943 0.0
O60 O 0.532 0.95107 0.48077 0.0
O61 O 0.48639 0.97239 0.46115 0.0
O62 O 0.66897 0.99321 0.472 0.0
O63 O 0.64169 0.99368 0.50931 0.0
O64 O 0.66265 0.04567 0.44325 0.0
O65 O 0.5762 0.01382 0.44712 0.0
O66 O 0.64326 0.11506 0.47078 0.0
O67 O 0.69183 0.09352 0.48715 0.0
O68 O 0.48941 0.05627 0.47552 0.0
O69 O 0.55403 0.09194 0.44758 0.0
O70 O 0.51735 0.02524 0.51 0.0
O71 O 0.60138 0.05387 0.50386 0.0
H72 H 0.67883 0.93105 0.46211 0.0
H73 H 0.61927 0.92948 0.53518 0.0
H74 H 0.60745 0.86046 0.54286 0.0
H75 H 0.66599 0.86151 0.46969 0.0
H76 H 0.59426 0.1473 0.49427 0.0
H77 H 0.46818 0.12829 0.44747 0.0
H78 H 0.49079 0.19966 0.466 0.0
H79 H 0.61797 0.21868 0.51233 0.0
Gd80 Gd 0.64638 0.5711 0.85042 0.0
Gd81 Gd 0.56655 0.46724 0.84101 0.0
C82 C 0.51092 0.51591 0.8455 0.0
C83 C 0.7025 0.65922 0.84958 0.0
C84 C 0.69557 0.69293 0.84276 0.0
C85 C 0.71985 0.73282 0.858 0.0
C86 C 0.66807 0.68738 0.82079 0.0
C87 C 0.6933 0.76313 0.82861 0.0
C88 C 0.667 0.72222 0.81377 0.0
C89 C 0.71859 0.76748 0.85107 0.0
C90 C 0.6132 0.52131 0.89082 0.0
C91 C 0.70496 0.52438 0.84709 0.0
C92 C 0.51259 0.37933 0.84205 0.0
C93 C 0.51917 0.346 0.83159 0.0
C94 C 0.54638 0.35301 0.8091 0.0
C95 C 0.50066 0.30789 0.84496 0.0
C96 C 0.53654 0.28393 0.8135 0.0
C97 C 0.5093 0.27712 0.83603 0.0
C98 C 0.55472 0.32209 0.80007 0.0
C99 C 0.60067 0.51523 0.7999 0.0
O100 O 0.56253 0.55352 0.84029 0.0
O101 O 0.50249 0.47791 0.85093 0.0
O102 O 0.67522 0.63562 0.86891 0.0
O103 O 0.70269 0.63458 0.83163 0.0
O104 O 0.66387 0.56002 0.8883 0.0
O105 O 0.58274 0.51252 0.87257 0.0
O106 O 0.65276 0.48398 0.84617 0.0
O107 O 0.71359 0.56366 0.84681 0.0
O108 O 0.49989 0.39736 0.82673 0.0
O109 O 0.55124 0.40969 0.85827 0.0
O110 O 0.55101 0.47575 0.80241 0.0
O111 O 0.63118 0.52557 0.81849 0.0
H112 H 0.74097 0.73766 0.87508 0.0
H113 H 0.64872 0.65673 0.80876 0.0
H114 H 0.64744 0.71782 0.7963 0.0
H115 H 0.73823 0.79805 0.86318 0.0
H116 H 0.56182 0.38269 0.79869 0.0
H117 H 0.48002 0.3022 0.86247 0.0
H118 H 0.49449 0.2479 0.8467 0.0
H119 H 0.57658 0.32865 0.78285 0.0
P120 P 0.6697 0.06633 0.2044 0.0
H121 H 0.63578 0.00486 0.16082 0.0
H122 H 0.54421 0.93286 0.14731 0.0
H123 H 0.46196 0.95713 0.20344 0.0
H124 H 0.5535 0.0302 0.21594 0.0
H125 H 0.78321 0.12858 0.18452 0.0
H126 H 0.84269 0.20852 0.17394 0.0
H127 H 0.7033 0.20974 0.1867 0.0
H128 H 0.64368 0.12883 0.19799 0.0
H129 H 0.60171 0.99563 0.23998 0.0
H130 H 0.72452 0.14432 0.24142 0.0
O131 O 0.70783 0.0487 0.20041 0.0
H132 H 0.59683 0.99873 0.28482 0.0
H133 H 0.71997 0.14748 0.28625 0.0
C134 C 0.60161 0.02219 0.18984 0.0
C135 C 0.59784 0.9953 0.16976 0.0
C136 C 0.5454 0.95378 0.16225 0.0
C137 C 0.49569 0.93823 0.1748 0.0
C138 C 0.49917 0.96768 0.19337 0.0
C139 C 0.55169 0.00954 0.20065 0.0
C140 C 0.70868 0.12243 0.19179 0.0
C141 C 0.76475 0.14547 0.18455 0.0
C142 C 0.79891 0.19148 0.17837 0.0
C143 C 0.77795 0.21584 0.1793 0.0
C144 C 0.72101 0.19221 0.18591 0.0
C145 C 0.68666 0.14584 0.19211 0.0
C146 C 0.66218 0.06974 0.23721 0.0
C147 C 0.6266 0.029 0.24987 0.0
C148 C 0.6238 0.03078 0.27551 0.0
C149 C 0.65767 0.07337 0.28901 0.0
C150 C 0.69332 0.11418 0.27629 0.0
C151 C 0.69564 0.11238 0.25061 0.0
P152 P 0.73296 0.59981 0.57895 0.0
H153 H 0.74947 0.57498 0.53019 0.0
H154 H 0.70667 0.50079 0.50816 0.0
H155 H 0.59262 0.43016 0.56854 0.0
H156 H 0.63621 0.50423 0.59057 0.0
H157 H 0.80586 0.699 0.57394 0.0
H158 H 0.79168 0.74874 0.55521 0.0
H159 H 0.62113 0.62924 0.53393 0.0
H160 H 0.63574 0.57947 0.55279 0.0
H161 H 0.77485 0.59002 0.62354 0.0
H162 H 0.64005 0.59126 0.60337 0.0
O163 O 0.80204 0.626 0.5787 0.0
H164 H 0.74136 0.57502 0.66584 0.0
H165 H 0.60681 0.57701 0.64572 0.0
C166 C 0.69664 0.5451 0.56212 0.0
C167 C 0.71495 0.54347 0.53856 0.0
C168 C 0.69017 0.50106 0.52593 0.0
C169 C 0.64651 0.45952 0.53668 0.0
C170 C 0.62681 0.46149 0.55993 0.0
C171 C 0.65164 0.50393 0.57254 0.0
C172 C 0.72224 0.63558 0.56431 0.0
C173 C 0.76564 0.68342 0.56501 0.0
C174 C 0.75751 0.71179 0.55425 0.0
C175 C 0.70547 0.69281 0.54289 0.0
C176 C 0.66164 0.64479 0.54256 0.0
C177 C 0.67005 0.61635 0.55318 0.0
C178 C 0.71059 0.59259 0.61043 0.0
C179 C 0.73865 0.5879 0.62832 0.0
C180 C 0.71958 0.5795 0.65252 0.0
C181 C 0.67164 0.57514 0.65919 0.0
C182 C 0.64372 0.58001 0.64116 0.0
C183 C 0.66294 0.58851 0.61696 0.0
P184 P 0.12499 0.54819 0.8873 0.0
H185 H 0.24663 0.6045 0.87988 0.0
H186 H 0.31047 0.58803 0.87145 0.0
H187 H 0.16795 0.44232 0.86412 0.0
H188 H 0.10335 0.45949 0.87333 0.0
H189 H 0.09382 0.57625 0.84615 0.0
H190 H 1.00511 0.55975 0.83551 0.0
H191 H 0.91689 0.45109 0.88677 0.0
H192 H 1.00575 0.46721 0.89688 0.0
H193 H 0.15472 0.51269 0.92566 0.0
H194 H 1.06978 0.57022 0.9212 0.0
O195 O 0.16431 0.60492 0.88425 0.0
H196 H 0.1395 0.50703 0.97015 0.0
H197 H 1.05453 0.56466 0.96545 0.0
C198 C 0.16946 0.53344 0.87663 0.0
C199 C 0.22842 0.5689 0.87591 0.0
C200 C 0.26545 0.55936 0.871 0.0
C201 C 0.24514 0.51375 0.86673 0.0
C202 C 0.18573 0.47796 0.86736 0.0
C203 C 0.1484 0.48769 0.87233 0.0
C204 C 1.05717 0.52327 0.87248 0.0
C205 C 1.05518 0.54782 0.85455 0.0
C206 C 1.0042 0.53883 0.84878 0.0
C207 C 0.9534 0.50483 0.8607 0.0
C208 C 0.9547 0.47762 0.87713 0.0
C209 C 1.00582 0.48665 0.88287 0.0
C210 C 0.11282 0.54144 0.91999 0.0
C211 C 0.13251 0.52383 0.93413 0.0
C212 C 0.12402 0.5208 0.95962 0.0
C213 C 0.09544 0.53509 0.97133 0.0
C214 C 1.07578 0.55258 0.957 0.0
C215 C 0.08468 0.55594 0.93167 0.0
P216 P 0.1263 0.51306 0.43055 0.0
H217 H 0.19777 0.55941 0.47448 0.0
H218 H 0.26456 0.64048 0.48831 0.0
H219 H 0.20528 0.67491 0.42992 0.0
H220 H 0.13521 0.59318 0.41777 0.0
H221 H 0.09551 0.45602 0.47223 0.0
H222 H 1.00476 0.38876 0.48681 0.0
H223 H 0.91829 0.40852 0.43441 0.0
H224 H 1.00957 0.47782 0.42125 0.0
H225 H 0.19949 0.58029 0.39362 0.0
H226 H 1.04342 0.44009 0.39398 0.0
O227 O 0.16697 0.49851 0.43501 0.0
H228 H 0.19326 0.57794 0.34897 0.0
H229 H 1.03669 0.43773 0.3493 0.0
C230 C 0.16328 0.57052 0.44443 0.0
C231 C 0.19824 0.58434 0.46506 0.0
C232 C 0.23708 0.63099 0.47273 0.0
C233 C 0.2425 0.66497 0.45961 0.0
C234 C 0.20318 0.65022 0.44044 0.0
C235 C 0.16321 0.60329 0.43325 0.0
C236 C 1.0593 0.4708 0.44496 0.0
C237 C 1.05697 0.44639 0.46421 0.0
C238 C 1.00484 0.40749 0.47235 0.0
C239 C 0.95381 0.39181 0.46119 0.0
C240 C 0.95638 0.41906 0.44342 0.0
C241 C 1.00872 0.45865 0.43568 0.0
C242 C 0.11974 0.51159 0.3975 0.0
C243 C 0.16272 0.54955 0.38426 0.0
C244 C 0.15933 0.54809 0.35864 0.0
C245 C 0.11376 0.50803 0.34563 0.0
C246 C 1.07196 0.46932 0.35882 0.0
C247 C 1.07532 0.47094 0.38448 0.0
P248 P 0.7073 0.0727 0.73939 0.0
H249 H 0.75052 0.14254 0.77963 0.0
H250 H 0.71189 0.17628 0.80062 0.0
H251 H 0.55354 0.07799 0.76089 0.0
H252 H 0.59239 0.04393 0.74007 0.0
H253 H 0.77762 0.04559 0.7418 0.0
H254 H 0.76275 0.97948 0.75805 0.0
H255 H 0.59438 0.92452 0.78027 0.0
H256 H 0.60931 0.99069 0.76333 0.0
H257 H 0.67002 0.1109 0.70853 0.0
H258 H 0.69914 0.01235 0.6997 0.0
O259 O 0.77702 0.11602 0.73971 0.0
H260 H 0.6452 0.09945 0.6649 0.0
H261 H 0.67648 1.00233 0.65568 0.0
C262 C 0.67485 0.09161 0.75779 0.0
C263 C 0.70723 0.12779 0.77566 0.0
C264 C 0.685 0.14693 0.78775 0.0
C265 C 0.62996 0.13018 0.78213 0.0
C266 C 0.59641 0.09206 0.76527 0.0
C267 C 0.6185 0.07254 0.75343 0.0
C268 C 0.69507 0.02358 0.75185 0.0
C269 C 0.73762 0.01952 0.75032 0.0
C270 C 0.7291 0.9817 0.75971 0.0
C271 C 0.67764 0.94694 0.77081 0.0
C272 C 0.63446 0.9506 0.77181 0.0
C273 C 0.64307 0.98858 0.76231 0.0
C274 C 0.68418 0.06104 0.70769 0.0
C275 C 0.66977 0.08596 0.69741 0.0
C276 C 0.65596 0.07968 0.67242 0.0
C277 C 0.65841 0.04968 0.65708 0.0
C278 C 0.67394 0.02542 0.66723 0.0
C279 C 0.68656 0.03096 0.69239 0.0
P280 P 0.44328 0.24808 0.04322 0.0
H281 H 0.46823 0.22207 0.08767 0.0
H282 H 0.54207 0.26929 0.11979 0.0
H283 H 0.62183 0.38897 0.0767 0.0
H284 H 0.54946 0.3423 0.04488 0.0
H285 H 0.35362 0.23148 0.07561 0.0
H286 H 0.32236 0.27712 0.08518 0.0
H287 H 0.44278 0.37684 0.03352 0.0
H288 H 0.4738 0.33217 0.02432 0.0
H289 H 0.54846 0.28697 0.01512 0.0
H290 H 0.37429 0.22367 0.00019 0.0
O291 O 0.39563 0.19247 0.04928 0.0
H292 H 0.57615 0.32633 0.9767 0.0
H293 H 0.40123 0.26443 0.96285 0.0
C294 C 0.50378 0.27843 0.06365 0.0
C295 C 0.50255 0.25817 0.08485 0.0
C296 C 0.54435 0.28512 0.10324 0.0
C297 C 0.58685 0.33275 0.10077 0.0
C298 C 0.58896 0.35243 0.07916 0.0
C299 C 0.54786 0.32555 0.06081 0.0
C300 C 0.41525 0.27788 0.04896 0.0
C301 C 0.37261 0.26284 0.06617 0.0
C302 C 0.35489 0.28889 0.07161 0.0
C303 C 0.38044 0.33059 0.06014 0.0
C304 C 0.42285 0.3452 0.04286 0.0
C305 C 0.44022 0.31928 0.03744 0.0
C306 C 0.45966 0.25414 0.01098 0.0
C307 C 0.5159 0.28054 0.00327 0.0
C308 C 0.53176 0.30359 0.98139 0.0
C309 C 0.49156 0.30082 0.96719 0.0
C310 C 0.43395 0.26825 0.97318 0.0
C311 C 0.41815 0.24449 0.99469 0.0
H312 H 0.27402 0.42777 0.08255 0.0
H313 H 0.45036 0.54748 0.09046 0.0
H314 H 0.47762 0.49954 0.07971 0.0
H315 H 0.45055 0.42303 0.07 0.0
H316 H 0.2738 0.30308 0.06381 0.0
H317 H 0.24704 0.3517 0.07242 0.0
C318 C 0.31845 0.44347 0.08138 0.0
C319 C 0.36031 0.49107 0.08679 0.0
C320 C 0.33346 0.41558 0.07599 0.0
C321 C 0.41765 0.51094 0.08604 0.0
C322 C 0.43308 0.48354 0.08007 0.0
C323 C 0.40618 0.40764 0.07036 0.0
C324 C 0.3641 0.35962 0.06623 0.0
C325 C 0.39127 0.43574 0.07534 0.0
C326 C 0.30681 0.3399 0.06717 0.0
C327 C 0.29157 0.36769 0.0719 0.0
H328 H 0.70424 0.20404 0.4733 0.0
H329 H 0.79811 0.15542 0.48357 0.0
H330 H 0.88693 0.23329 0.47975 0.0
H331 H 0.93786 0.31381 0.47108 0.0
H332 H 0.84589 0.36467 0.46284 0.0
H333 H 0.75656 0.28713 0.46788 0.0
C334 C 0.74415 0.21055 0.47484 0.0
C335 C 0.74433 0.17374 0.47859 0.0
C336 C 0.79548 0.25572 0.47277 0.0
C337 C 0.79651 0.18295 0.48075 0.0
C338 C 0.84747 0.22753 0.47848 0.0
C339 C 0.8986 0.30854 0.47097 0.0
C340 C 0.89918 0.34552 0.46651 0.0
C341 C 0.84745 0.26405 0.47424 0.0
C342 C 0.84716 0.33703 0.46582 0.0
C343 C 0.7959 0.29263 0.46884 0.0
H344 H 0.61213 0.7599 0.80518 0.0
H345 H 0.78454 0.8548 0.83271 0.0
H346 H 0.7936 0.91951 0.8184 0.0
H347 H 0.75398 0.94941 0.79728 0.0
H348 H 0.58324 0.85532 0.76799 0.0
H349 H 0.57209 0.79027 0.78392 0.0
C350 C 0.65175 0.79471 0.80794 0.0
C351 C 0.69744 0.8023 0.82015 0.0
C352 C 0.65704 0.83202 0.79938 0.0
C353 C 0.74827 0.84781 0.8238 0.0
C354 C 0.75371 0.88493 0.81545 0.0
C355 C 0.71442 0.91465 0.79418 0.0
C356 C 0.6697 0.90734 0.78129 0.0
C357 C 0.70855 0.87744 0.8031 0.0
C358 C 0.61827 0.86208 0.778 0.0
C359 C 0.61199 0.8248 0.78697 0.0
H360 H 0.77744 0.49699 0.17033 0.0
H361 H 0.82868 0.41286 0.16927 0.0
H362 H 0.74122 0.34998 0.14764 0.0
H363 H 0.65697 0.32334 0.12355 0.0
H364 H 0.60992 0.41 0.12215 0.0
H365 H 0.68875 0.46737 0.15 0.0
C366 C 0.76917 0.46472 0.16557 0.0
C367 C 0.80983 0.45993 0.17118 0.0
C368 C 0.71977 0.4293 0.15234 0.0
C369 C 0.79798 0.4175 0.16536 0.0
C370 C 0.74818 0.3816 0.15272 0.0
C371 C 0.66347 0.35436 0.12983 0.0
C372 C 0.62848 0.36293 0.12069 0.0
C373 C 0.70975 0.38773 0.14534 0.0
C374 C 0.63707 0.40319 0.12879 0.0
C375 C 0.68203 0.43593 0.14467 0.0
H376 H 0.47728 0.86516 0.4783 0.0
H377 H 0.37857 0.90454 0.45681 0.0
H378 H 0.29384 0.82325 0.45296 0.0
H379 H 0.24804 0.74082 0.45533 0.0
H380 H 0.35018 0.70285 0.47392 0.0
H381 H 0.4324 0.78359 0.47995 0.0
C382 C 0.43725 0.85611 0.47284 0.0
C383 C 0.43443 0.89105 0.46787 0.0
C384 C 0.38891 0.80937 0.47039 0.0
C385 C 0.38212 0.87843 0.46067 0.0
C386 C 0.33356 0.8319 0.45852 0.0
C387 C 0.28824 0.75001 0.46055 0.0
C388 C 0.29197 0.71507 0.46441 0.0
C389 C 0.33648 0.79699 0.46322 0.0
C390 C 0.34482 0.72834 0.47147 0.0
C391 C 0.39244 0.77478 0.47464 0.0
H392 H 0.57604 0.24921 0.83941 0.0
H393 H 0.52089 0.2471 0.76671 0.0
H394 H 0.5417 0.19704 0.75096 0.0
H395 H 0.57929 0.15654 0.75747 0.0
H396 H 0.63641 0.15991 0.82992 0.0
H397 H 0.61054 0.20638 0.84623 0.0
C398 C 0.56789 0.23729 0.82019 0.0
C399 C 0.54703 0.25193 0.80425 0.0
C400 C 0.58035 0.20877 0.81123 0.0
C401 C 0.53753 0.23676 0.7793 0.0
C402 C 0.54917 0.20797 0.77031 0.0
C403 C 0.58516 0.1668 0.77691 0.0
C404 C 0.60954 0.1547 0.79249 0.0
C405 C 0.57105 0.19409 0.78605 0.0
C406 C 0.61795 0.169 0.81755 0.0
C407 C 0.60315 0.19553 0.82687 0.0
H408 H 0.71759 0.84872 0.49624 0.0
H409 H 0.55585 0.77782 0.53149 0.0
H410 H 0.56144 0.71939 0.54459 0.0
H411 H 0.61535 0.69131 0.5481 0.0
H412 H 0.77748 0.76335 0.51306 0.0
H413 H 0.76838 0.81826 0.49754 0.0
C414 C 0.68297 0.81998 0.50635 0.0
C415 C 0.63636 0.81762 0.51286 0.0
C416 C 0.68675 0.7869 0.51399 0.0
C417 C 0.59243 0.78064 0.52643 0.0
C418 C 0.59556 0.74719 0.53387 0.0
C419 C 0.64821 0.71862 0.53675 0.0
C420 C 0.69719 0.72348 0.53187 0.0
C421 C 0.64295 0.75039 0.52808 0.0
C422 C 0.73976 0.75931 0.51735 0.0
C423 C 0.73451 0.79061 0.50841 0.0
H424 H 0.70993 0.45327 0.85082 0.0
H425 H 0.81628 0.60121 0.84658 0.0
H426 H 0.90042 0.6078 0.84978 0.0
H427 H 0.94536 0.57287 0.85488 0.0
H428 H 0.84127 0.42524 0.8589 0.0
H429 H 0.75597 0.41768 0.85498 0.0
C430 C 0.75147 0.48694 0.8505 0.0
C431 C 0.75594 0.52663 0.84845 0.0
C432 C 0.80073 0.49079 0.85245 0.0
C433 C 0.81066 0.56987 0.84815 0.0
C434 C 0.85927 0.57381 0.84999 0.0
C435 C 0.90419 0.53882 0.85452 0.0
C436 C 0.90058 0.49973 0.85714 0.0
C437 C 0.85499 0.53463 0.85223 0.0
C438 C 0.8461 0.45618 0.85719 0.0
C439 C 0.79699 0.45176 0.85483 0.0
H440 H 0.24993 0.74308 0.1665 0.0
H441 H 0.3498 0.69858 0.15605 0.0
H442 H 0.4364 0.77853 0.15841 0.0
H443 H 0.48427 0.86064 0.16538 0.0
H444 H 0.38586 0.90657 0.1747 0.0
H445 H 0.29843 0.82651 0.17108 0.0
C446 C 0.29061 0.75084 0.16467 0.0
C447 C 0.29307 0.7146 0.16123 0.0
C448 C 0.34065 0.79719 0.16595 0.0
C449 C 0.34631 0.72552 0.15872 0.0
C450 C 0.39605 0.77136 0.1601 0.0
C451 C 0.44383 0.85346 0.16608 0.0
C452 C 0.44201 0.88993 0.17029 0.0
C453 C 0.39376 0.80742 0.16388 0.0
C454 C 0.38882 0.87937 0.17175 0.0
C455 C 0.33871 0.83352 0.16961 0.0
H456 H 0.56842 0.28471 0.46936 0.0
H457 H 0.57115 0.23862 0.5398 0.0
H458 H 0.59735 0.3094 0.56016 0.0
H459 H 0.62363 0.38568 0.55787 0.0
H460 H 0.62031 0.43236 0.48779 0.0
H461 H 0.59007 0.36002 0.46739 0.0
C462 C 0.57407 0.28995 0.48919 0.0
C463 C 0.56837 0.25661 0.503 0.0
C464 C 0.58926 0.33089 0.50084 0.0
C465 C 0.57629 0.26409 0.52868 0.0
C466 C 0.591 0.30445 0.54037 0.0
C467 C 0.61533 0.37976 0.53819 0.0
C468 C 0.62422 0.4144 0.5244 0.0
C469 C 0.59819 0.33828 0.52661 0.0
C470 C 0.61436 0.40645 0.49882 0.0
C471 C 0.59689 0.36505 0.48715 0.0
H472 H 0.40285 0.45569 0.86497 0.0
H473 H 0.51197 0.58243 0.82707 0.0
H474 H 0.43976 0.59141 0.82911 0.0
H475 H 0.34684 0.5654 0.84247 0.0
H476 H 0.23763 0.44078 0.88199 0.0
H477 H 0.30738 0.42863 0.87792 0.0
C478 C 0.41067 0.48507 0.85698 0.0
C479 C 0.46348 0.51833 0.84591 0.0
C480 C 0.36858 0.49055 0.85844 0.0
C481 C 0.47236 0.55624 0.83582 0.0
C482 C 0.43084 0.5615 0.83696 0.0
C483 C 0.33807 0.53564 0.85042 0.0
C484 C 0.2864 0.50433 0.8627 0.0
C485 C 0.37903 0.52924 0.84844 0.0
C486 C 0.27622 0.46545 0.87219 0.0
C487 C 0.31657 0.45861 0.87005 0.0
H488 H 0.94714 0.43425 0.18399 0.0
H489 H 1.02613 0.40919 0.12657 0.0
H490 H 0.94782 0.32663 0.12672 0.0
H491 H 0.86079 0.261 0.14506 0.0
H492 H 0.78369 0.28467 0.20405 0.0
H493 H 0.85604 0.36801 0.20071 0.0
C494 C 0.94701 0.41078 0.17136 0.0
C495 C 0.99303 0.42807 0.15551 0.0
C496 C 0.90196 0.36292 0.17174 0.0
C497 C 0.99177 0.39703 0.13917 0.0
C498 C 0.94688 0.34967 0.13921 0.0
C499 C 0.85971 0.2843 0.15724 0.0
C500 C 0.81707 0.2663 0.175 0.0
C501 C 0.90243 0.33216 0.15577 0.0
C502 C 0.81565 0.29727 0.1901 0.0
C503 C 0.85745 0.34506 0.18839 0.0
H504 H 1.02765 0.5294 0.08267 0.0
H505 H 0.20052 0.58532 0.0939 0.0
H506 H 0.21071 0.57823 0.04964 0.0
H507 H 0.17224 0.56041 0.00743 0.0
H508 H 0.99977 0.50557 -0.00385 0.0
H509 H 0.98777 0.50814 0.04056 0.0
C510 C 1.06739 0.53977 0.0754 0.0
C511 C 0.11334 0.55813 0.09148 0.0
C512 C 1.07317 0.53609 0.04986 0.0
C513 C 0.16459 0.57132 0.08185 0.0
C514 C 0.17047 0.5673 0.05654 0.0
C515 C 0.13178 0.54837 0.01471 0.0
C516 C 0.0871 0.53308 -0.00155 0.0
C517 C 0.12529 0.5503 0.04032 0.0
C518 C 1.03512 0.51811 0.00823 0.0
C519 C 1.02815 0.51943 0.03364 0.0
H520 H 0.70534 0.0887 0.40265 0.0
H521 H 0.52284 0.99362 0.40408 0.0
H522 H 0.5188 0.99846 0.35955 0.0
H523 H 0.56782 0.02689 0.31991 0.0
H524 H 0.7505 0.12275 0.3192 0.0
H525 H 0.75389 0.12091 0.36382 0.0
C526 C 0.66468 0.06922 0.39321 0.0
C527 C 0.61447 0.04044 0.40645 0.0
C528 C 0.6628 0.07236 0.36777 0.0
C529 C 0.56204 0.01586 0.39416 0.0
C530 C 0.55976 0.01855 0.36874 0.0
C531 C 0.60828 0.04746 0.3296 0.0
C532 C 0.65884 0.0748 0.31629 0.0
C533 C 0.60992 0.04618 0.3553 0.0
C534 C 0.71101 0.10177 0.32905 0.0
C535 C 0.713 0.10051 0.35453 0.0
H536 H 0.54044 0.49064 0.75792 0.0
H537 H 0.70999 0.58662 0.78823 0.0
H538 H 0.74686 0.6157 0.74736 0.0
H539 H 0.73119 0.61022 0.70261 0.0
H540 H 0.56137 0.51237 0.67258 0.0
H541 H 0.52423 0.48804 0.71378 0.0
C542 C 0.58542 0.51819 0.75559 0.0
C543 C 0.62256 0.53621 0.77593 0.0
C544 C 0.60624 0.53428 0.73209 0.0
C545 C 0.68064 0.57213 0.77277 0.0
C546 C 0.70172 0.58862 0.74942 0.0
C547 C 0.68607 0.58358 0.70511 0.0
C548 C 0.64917 0.56304 0.68451 0.0
C549 C 0.665 0.56933 0.72887 0.0
C550 C 0.59068 0.52911 0.6881 0.0
C551 C 0.56941 0.51493 0.71165 0.0
H552 H 0.65462 0.05429 0.54159 0.0
H553 H 0.48927 0.01325 0.55645 0.0
H554 H 0.50395 0.01362 0.60045 0.0
H555 H 0.5649 0.02737 0.63484 0.0
H556 H 0.72738 0.06318 0.61971 0.0
H557 H 0.71238 0.06209 0.57557 0.0
C558 C 0.62153 0.04479 0.55443 0.0
C559 C 0.57095 0.0337 0.54582 0.0
C560 C 0.62974 0.04405 0.57961 0.0
C561 C 0.52861 0.02193 0.56267 0.0
C562 C 0.53696 0.02213 0.58781 0.0
C563 C 0.59676 0.03469 0.62179 0.0
C564 C 0.64722 0.04555 0.63036 0.0
C565 C 0.58749 0.0334 0.5965 0.0
C566 C 0.68812 0.05454 0.61341 0.0
C567 C 0.67967 0.05415 0.58824 0.0
H568 H 0.51498 0.43426 0.89236 0.0
H569 H 0.67684 0.53145 0.92933 0.0
H570 H 0.65389 0.47141 0.95617 0.0
H571 H 0.58821 0.39124 0.96834 0.0
H572 H 0.43546 0.29112 0.92511 0.0
H573 H 0.4558 0.35227 0.90065 0.0
C574 C 0.54567 0.44215 0.90603 0.0
C575 C 0.59787 0.48688 0.9086 0.0
C576 C 0.53415 0.4068 0.91994 0.0
C577 C 0.63647 0.49707 0.92691 0.0
C578 C 0.62357 0.46269 0.94207 0.0
C579 C 0.55992 0.38214 0.95316 0.0
C580 C 0.5096 0.33623 0.94907 0.0
C581 C 0.57286 0.41722 0.93846 0.0
C582 C 0.47356 0.32606 0.92937 0.0
C583 C 0.48516 0.36106 0.91527 0.0
H584 H 0.10953 0.47547 0.23041 0.0
H585 H 0.15799 0.61148 0.23275 0.0
H586 H 0.15038 0.61114 0.27761 0.0
H587 H 0.13468 0.57363 0.31627 0.0
H588 H 0.08791 0.43812 0.31372 0.0
H589 H 0.08949 0.43656 0.26883 0.0
C590 C 0.11809 0.50491 0.24076 0.0
C591 C 0.13469 0.54358 0.2284 0.0
C592 C 0.11403 0.50456 0.26648 0.0
C593 C 0.14522 0.58135 0.24193 0.0
C594 C 0.14105 0.58122 0.26755 0.0
C595 C 0.1249 0.5438 0.30586 0.0
C596 C 0.11147 0.50615 0.31833 0.0
C597 C 0.12636 0.5433 0.28005 0.0
C598 C 0.09791 0.46739 0.30459 0.0
C599 C 0.09915 0.46658 0.27892 0.0
loop_
_geom_bond_atom_site_label_1
_geom_bond_atom_site_label_2
_geom_bond_distance
_geom_bond_site_symmetry_2
_ccdc_geom_bond_type
Gd0 C3 2.818 . S
Gd0 O20 2.377 . S
Gd0 O22 2.448 . S
Gd0 O23 2.506 . S
Gd0 O24 2.435 . S
Gd0 O25 2.717 . S
Gd0 O27 2.395 1_455 S
Gd0 O31 2.327 . S
Gd1 C12 2.809 1_455 S
Gd1 O21 2.403 . S
Gd1 O25 2.333 . S
Gd1 O26 2.377 1_455 S
Gd1 O28 2.439 1_455 S
Gd1 O29 2.498 1_455 S
Gd1 O30 2.437 . S
Gd1 O31 2.725 . S
C2 O20 1.240 . S
C2 O21 1.240 . S
C3 Gd0 2.818 . S
C3 C4 1.510 . S
C3 O22 1.249 . S
C3 O23 1.252 . S
C4 C3 1.510 . S
C4 C5 1.404 . S
C4 C6 1.352 . S
C5 C4 1.404 . S
C5 C9 1.389 . S
C5 H32 0.930 . S
C6 C4 1.352 . S
C6 C8 1.374 . S
C6 H33 0.931 . S
C7 C8 1.359 . S
C7 C9 1.364 . S
C8 C6 1.374 . S
C8 C7 1.359 . S
C8 H34 0.931 . S
C9 C5 1.389 . S
C9 C7 1.364 . S
C9 H35 0.931 . S
C10 O24 1.256 . S
C10 O25 1.257 . S
C11 O26 1.240 . S
C11 O27 1.240 . S
C12 Gd1 2.809 1_655 S
C12 C13 1.510 . S
C12 O28 1.249 . S
C12 O29 1.252 . S
C13 C12 1.510 . S
C13 C14 1.404 . S
C13 C15 1.352 . S
C14 C13 1.404 . S
C14 C18 1.389 . S
C14 H36 0.930 . S
C15 C13 1.352 . S
C15 C17 1.374 . S
C15 H37 0.931 . S
C16 C17 1.359 . S
C16 C18 1.364 . S
C17 C15 1.374 . S
C17 C16 1.359 . S
C17 H38 0.931 . S
C18 C14 1.389 . S
C18 C16 1.364 . S
C18 H39 0.931 . S
C19 O30 1.256 . S
C19 O31 1.257 . S
O20 Gd0 2.377 . S
O20 C2 1.240 . S
O21 Gd1 2.403 . S
O21 C2 1.240 . S
O22 Gd0 2.448 . S
O22 C3 1.249 . S
O23 Gd0 2.506 . S
O23 C3 1.252 . S
O24 Gd0 2.435 . S
O24 C10 1.256 . S
O25 Gd0 2.717 . S
O25 Gd1 2.333 . S
O25 C10 1.257 . S
O26 Gd1 2.377 1_655 S
O26 C11 1.240 . S
O27 Gd0 2.395 1_655 S
O27 C11 1.240 . S
O28 Gd1 2.439 1_655 S
O28 C12 1.249 . S
O29 Gd1 2.498 1_655 S
O29 C12 1.252 . S
O30 Gd1 2.437 . S
O30 C19 1.256 . S
O31 Gd0 2.327 . S
O31 Gd1 2.725 . S
O31 C19 1.257 . S
H32 C5 0.930 . S
H33 C6 0.931 . S
H34 C8 0.931 . S
H35 C9 0.931 . S
H36 C14 0.930 . S
H37 C15 0.931 . S
H38 C17 0.931 . S
H39 C18 0.931 . S
Gd40 C43 2.818 . S
Gd40 O60 2.377 . S
Gd40 O62 2.448 . S
Gd40 O63 2.506 . S
Gd40 O64 2.435 . S
Gd40 O65 2.717 1_565 S
Gd40 O67 2.395 1_565 S
Gd40 O71 2.327 1_565 S
Gd41 C52 2.818 . S
Gd41 O61 2.395 1_545 S
Gd41 O65 2.327 . S
Gd41 O66 2.377 . S
Gd41 O68 2.448 . S
Gd41 O69 2.506 . S
Gd41 O70 2.435 . S
Gd41 O71 2.717 . S
C42 O60 1.240 . S
C42 O61 1.240 . S
C43 Gd40 2.818 . S
C43 C44 1.510 . S
C43 O62 1.249 . S
C43 O63 1.252 . S
C44 C43 1.510 . S
C44 C45 1.404 . S
C44 C46 1.352 . S
C45 C44 1.404 . S
C45 C49 1.389 . S
C45 H72 0.930 . S
C46 C44 1.352 . S
C46 C48 1.374 . S
C46 H73 0.931 . S
C47 C48 1.359 . S
C47 C49 1.364 . S
C48 C46 1.374 . S
C48 C47 1.359 . S
C48 H74 0.931 . S
C49 C45 1.389 . S
C49 C47 1.364 . S
C49 H75 0.931 . S
C50 O64 1.256 1_545 S
C50 O65 1.257 . S
C51 O66 1.240 . S
C51 O67 1.240 . S
C52 Gd41 2.818 . S
C52 C53 1.510 . S
C52 O68 1.249 . S
C52 O69 1.252 . S
C53 C52 1.510 . S
C53 C54 1.404 . S
C53 C55 1.352 . S
C54 C53 1.404 . S
C54 C58 1.389 . S
C54 H76 0.930 . S
C55 C53 1.352 . S
C55 C57 1.374 . S
C55 H77 0.931 . S
C56 C57 1.359 . S
C56 C58 1.364 . S
C57 C55 1.374 . S
C57 C56 1.359 . S
C57 H78 0.931 . S
C58 C54 1.389 . S
C58 C56 1.364 . S
C58 H79 0.931 . S
C59 O70 1.256 . S
C59 O71 1.257 . S
O60 Gd40 2.377 . S
O60 C42 1.240 . S
O61 Gd41 2.395 1_565 S
O61 C42 1.240 . S
O62 Gd40 2.448 . S
O62 C43 1.249 . S
O63 Gd40 2.506 . S
O63 C43 1.252 . S
O64 Gd40 2.435 . S
O64 C50 1.256 1_565 S
O65 Gd40 2.717 1_545 S
O65 Gd41 2.327 . S
O65 C50 1.257 . S
O66 Gd41 2.377 . S
O66 C51 1.240 . S
O67 Gd40 2.395 1_545 S
O67 C51 1.240 . S
O68 Gd41 2.448 . S
O68 C52 1.249 . S
O69 Gd41 2.506 . S
O69 C52 1.252 . S
O70 Gd41 2.435 . S
O70 C59 1.256 . S
O71 Gd40 2.327 1_545 S
O71 Gd41 2.717 . S
O71 C59 1.257 . S
H72 C45 0.930 . S
H73 C46 0.931 . S
H74 C48 0.931 . S
H75 C49 0.931 . S
H76 C54 0.930 . S
H77 C55 0.931 . S
H78 C57 0.931 . S
H79 C58 0.931 . S
Gd80 C83 2.818 . S
Gd80 O100 2.377 . S
Gd80 O102 2.448 . S
Gd80 O103 2.506 . S
Gd80 O104 2.435 . S
Gd80 O105 2.717 . S
Gd80 O107 2.395 . S
Gd80 O111 2.327 . S
Gd81 C92 2.818 . S
Gd81 O101 2.395 . S
Gd81 O105 2.327 . S
Gd81 O106 2.377 . S
Gd81 O108 2.448 . S
Gd81 O109 2.506 . S
Gd81 O110 2.435 . S
Gd81 O111 2.717 . S
C82 O100 1.240 . S
C82 O101 1.240 . S
C83 Gd80 2.818 . S
C83 C84 1.510 . S
C83 O102 1.249 . S
C83 O103 1.252 . S
C84 C83 1.510 . S
C84 C85 1.404 . S
C84 C86 1.352 . S
C85 C84 1.404 . S
C85 C89 1.389 . S
C85 H112 0.930 . S
C86 C84 1.352 . S
C86 C88 1.374 . S
C86 H113 0.931 . S
C87 C88 1.359 . S
C87 C89 1.364 . S
C88 C86 1.374 . S
C88 C87 1.359 . S
C88 H114 0.931 . S
C89 C85 1.389 . S
C89 C87 1.364 . S
C89 H115 0.931 . S
C90 O104 1.256 . S
C90 O105 1.257 . S
C91 O106 1.240 . S
C91 O107 1.240 . S
C92 Gd81 2.818 . S
C92 C93 1.510 . S
C92 O108 1.249 . S
C92 O109 1.252 . S
C93 C92 1.510 . S
C93 C94 1.404 . S
C93 C95 1.352 . S
C94 C93 1.404 . S
C94 C98 1.389 . S
C94 H116 0.930 . S
C95 C93 1.352 . S
C95 C97 1.374 . S
C95 H117 0.931 . S
C96 C97 1.359 . S
C96 C98 1.364 . S
C97 C95 1.374 . S
C97 C96 1.359 . S
C97 H118 0.931 . S
C98 C94 1.389 . S
C98 C96 1.364 . S
C98 H119 0.931 . S
C99 O110 1.256 . S
C99 O111 1.257 . S
O100 Gd80 2.377 . S
O100 C82 1.240 . S
O101 Gd81 2.395 . S
O101 C82 1.240 . S
O102 Gd80 2.448 . S
O102 C83 1.249 . S
O103 Gd80 2.506 . S
O103 C83 1.252 . S
O104 Gd80 2.435 . S
O104 C90 1.256 . S
O105 Gd80 2.717 . S
O105 Gd81 2.327 . S
O105 C90 1.257 . S
O106 Gd81 2.377 . S
O106 C91 1.240 . S
O107 Gd80 2.395 . S
O107 C91 1.240 . S
O108 Gd81 2.448 . S
O108 C92 1.249 . S
O109 Gd81 2.506 . S
O109 C92 1.252 . S
O110 Gd81 2.435 . S
O110 C99 1.256 . S
O111 Gd80 2.327 . S
O111 Gd81 2.717 . S
O111 C99 1.257 . S
H112 C85 0.930 . S
H113 C86 0.931 . S
H114 C88 0.931 . S
H115 C89 0.931 . S
H116 C94 0.930 . S
H117 C95 0.931 . S
H118 C97 0.931 . S
H119 C98 0.931 . S
P120 O131 1.490 1_545 S
P120 C134 1.812 1_545 S
P120 C140 1.803 . S
P120 C146 1.819 . S
H121 C135 0.941 . S
H122 C136 0.939 . S
H123 C138 0.940 . S
H124 C139 0.940 . S
H125 C141 0.939 . S
H126 C142 0.942 . S
H127 C144 0.940 . S
H128 C145 0.939 . S
H129 C147 0.941 . S
H130 C151 0.939 . S
O131 P120 1.490 1_565 S
H132 C148 0.939 . S
H133 C150 0.940 . S
C134 P120 1.812 1_565 S
C134 C135 1.389 . S
C134 C139 1.391 . S
C135 H121 0.941 . S
C135 C134 1.389 . S
C135 C136 1.397 . S
C136 H122 0.939 . S
C136 C135 1.397 . S
C136 C137 1.378 . S
C137 C136 1.378 . S
C137 C138 1.378 . S
C138 H123 0.940 . S
C138 C137 1.378 . S
C138 C139 1.396 . S
C139 H124 0.940 . S
C139 C134 1.391 . S
C139 C138 1.396 . S
C140 P120 1.803 . S
C140 C141 1.378 . S
C140 C145 1.400 . S
C141 H125 0.939 . S
C141 C140 1.378 . S
C141 C142 1.361 . S
C142 H126 0.942 . S
C142 C141 1.361 . S
C142 C143 1.369 . S
C143 C142 1.369 . S
C143 C144 1.404 . S
C144 H127 0.940 . S
C144 C143 1.404 . S
C144 C145 1.389 . S
C145 H128 0.939 . S
C145 C140 1.400 . S
C145 C144 1.389 . S
C146 P120 1.819 . S
C146 C147 1.391 1_545 S
C146 C151 1.391 . S
C147 H129 0.941 . S
C147 C146 1.391 1_565 S
C147 C148 1.396 . S
C148 H132 0.939 . S
C148 C147 1.396 . S
C148 C149 1.397 1_565 S
C149 C148 1.397 1_545 S
C149 C150 1.385 . S
C150 H133 0.940 . S
C150 C149 1.385 . S
C150 C151 1.388 . S
C151 H130 0.939 . S
C151 C146 1.391 . S
C151 C150 1.388 . S
P152 O163 1.490 . S
P152 C166 1.812 . S
P152 C172 1.803 . S
P152 C178 1.819 . S
H153 C167 0.941 . S
H154 C168 0.939 . S
H155 C170 0.940 . S
H156 C171 0.940 . S
H157 C173 0.939 . S
H158 C174 0.942 . S
H159 C176 0.940 . S
H160 C177 0.939 . S
H161 C179 0.941 . S
H162 C183 0.939 . S
O163 P152 1.490 . S
H164 C180 0.939 . S
H165 C182 0.940 . S
C166 P152 1.812 . S
C166 C167 1.389 . S
C166 C171 1.391 . S
C167 H153 0.941 . S
C167 C166 1.389 . S
C167 C168 1.397 . S
C168 H154 0.939 . S
C168 C167 1.397 . S
C168 C169 1.378 . S
C169 C168 1.378 . S
C169 C170 1.378 . S
C170 H155 0.940 . S
C170 C169 1.378 . S
C170 C171 1.396 . S
C171 H156 0.940 . S
C171 C166 1.391 . S
C171 C170 1.396 . S
C172 P152 1.803 . S
C172 C173 1.378 . S
C172 C177 1.400 . S
C173 H157 0.939 . S
C173 C172 1.378 . S
C173 C174 1.361 . S
C174 H158 0.942 . S
C174 C173 1.361 . S
C174 C175 1.369 . S
C175 C174 1.369 . S
C175 C176 1.404 . S
C176 H159 0.940 . S
C176 C175 1.404 . S
C176 C177 1.389 . S
C177 H160 0.939 . S
C177 C172 1.400 . S
C177 C176 1.389 . S
C178 P152 1.819 . S
C178 C179 1.391 . S
C178 C183 1.391 . S
C179 H161 0.941 . S
C179 C178 1.391 . S
C179 C180 1.396 . S
C180 H164 0.939 . S
C180 C179 1.396 . S
C180 C181 1.397 . S
C181 C180 1.397 . S
C181 C182 1.385 . S
C182 H165 0.940 . S
C182 C181 1.385 . S
C182 C183 1.388 . S
C183 H162 0.939 . S
C183 C178 1.391 . S
C183 C182 1.388 . S
P184 O195 1.490 . S
P184 C198 1.812 . S
P184 C204 1.803 . S
P184 C210 1.819 . S
H185 C199 0.941 . S
H186 C200 0.939 . S
H187 C202 0.940 . S
H188 C203 0.940 . S
H189 C205 0.939 . S
H190 C206 0.942 . S
H191 C208 0.940 . S
H192 C209 0.939 . S
H193 C211 0.941 . S
H194 C215 0.939 . S
O195 P184 1.490 . S
H196 C212 0.939 . S
H197 C214 0.940 1_655 S
C198 P184 1.812 . S
C198 C199 1.389 . S
C198 C203 1.391 . S
C199 H185 0.941 . S
C199 C198 1.389 . S
C199 C200 1.397 . S
C200 H186 0.939 . S
C200 C199 1.397 . S
C200 C201 1.378 . S
C201 C200 1.378 . S
C201 C202 1.378 . S
C202 H187 0.940 . S
C202 C201 1.378 . S
C202 C203 1.396 . S
C203 H188 0.940 . S
C203 C198 1.391 . S
C203 C202 1.396 . S
C204 P184 1.803 . S
C204 C205 1.378 . S
C204 C209 1.400 . S
C205 H189 0.939 . S
C205 C204 1.378 . S
C205 C206 1.361 1_455 S
C206 H190 0.942 . S
C206 C205 1.361 1_655 S
C206 C207 1.369 . S
C207 C206 1.369 . S
C207 C208 1.404 . S
C208 H191 0.940 . S
C208 C207 1.404 . S
C208 C209 1.389 1_655 S
C209 H192 0.939 . S
C209 C204 1.400 . S
C209 C208 1.389 1_455 S
C210 P184 1.819 . S
C210 C211 1.391 . S
C210 C215 1.391 . S
C211 H193 0.941 . S
C211 C210 1.391 . S
C211 C212 1.396 . S
C212 H196 0.939 . S
C212 C211 1.396 . S
C212 C213 1.397 . S
C213 C212 1.397 . S
C213 C214 1.385 . S
C214 H197 0.940 1_455 S
C214 C213 1.385 . S
C214 C215 1.388 . S
C215 H194 0.939 . S
C215 C210 1.391 . S
C215 C214 1.388 . S
P216 O227 1.490 . S
P216 C230 1.812 . S
P216 C236 1.803 1_455 S
P216 C242 1.819 . S
H217 C231 0.941 . S
H218 C232 0.939 . S
H219 C234 0.940 . S
H220 C235 0.940 . S
H221 C237 0.939 . S
H222 C238 0.942 . S
H223 C240 0.940 . S
H224 C241 0.939 . S
H225 C243 0.941 . S
H226 C247 0.939 . S
O227 P216 1.490 . S
H228 C244 0.939 . S
H229 C246 0.940 . S
C230 P216 1.812 . S
C230 C231 1.389 . S
C230 C235 1.391 . S
C231 H217 0.941 . S
C231 C230 1.389 . S
C231 C232 1.397 . S
C232 H218 0.939 . S
C232 C231 1.397 . S
C232 C233 1.378 . S
C233 C232 1.378 . S
C233 C234 1.378 . S
C234 H219 0.940 . S
C234 C233 1.378 . S
C234 C235 1.396 . S
C235 H220 0.940 . S
C235 C230 1.391 . S
C235 C234 1.396 . S
C236 P216 1.803 1_655 S
C236 C237 1.378 . S
C236 C241 1.400 . S
C237 H221 0.939 . S
C237 C236 1.378 . S
C237 C238 1.361 . S
C238 H222 0.942 . S
C238 C237 1.361 . S
C238 C239 1.369 . S
C239 C238 1.369 . S
C239 C240 1.404 . S
C240 H223 0.940 . S
C240 C239 1.404 . S
C240 C241 1.389 . S
C241 H224 0.939 . S
C241 C236 1.400 . S
C241 C240 1.389 . S
C242 P216 1.819 . S
C242 C243 1.391 . S
C242 C247 1.391 1_455 S
C243 H225 0.941 . S
C243 C242 1.391 . S
C243 C244 1.396 . S
C244 H228 0.939 . S
C244 C243 1.396 . S
C244 C245 1.397 . S
C245 C244 1.397 . S
C245 C246 1.385 1_455 S
C246 H229 0.940 . S
C246 C245 1.385 1_655 S
C246 C247 1.388 . S
C247 H226 0.939 . S
C247 C242 1.391 1_655 S
C247 C246 1.388 . S
P248 O259 1.490 . S
P248 C262 1.812 . S
P248 C268 1.803 1_545 S
P248 C274 1.819 . S
H249 C263 0.941 . S
H250 C264 0.939 . S
H251 C266 0.940 . S
H252 C267 0.940 . S
H253 C269 0.940 . S
H254 C270 0.942 . S
H255 C272 0.940 . S
H256 C273 0.939 . S
H257 C275 0.941 . S
H258 C279 0.939 . S
O259 P248 1.490 . S
H260 C276 0.939 . S
H261 C278 0.940 . S
C262 P248 1.812 . S
C262 C263 1.389 . S
C262 C267 1.391 . S
C263 H249 0.941 . S
C263 C262 1.389 . S
C263 C264 1.397 . S
C264 H250 0.939 . S
C264 C263 1.397 . S
C264 C265 1.378 . S
C265 C264 1.378 . S
C265 C266 1.378 . S
C266 H251 0.940 . S
C266 C265 1.378 . S
C266 C267 1.396 . S
C267 H252 0.940 . S
C267 C262 1.391 . S
C267 C266 1.396 . S
C268 P248 1.803 1_565 S
C268 C269 1.378 . S
C268 C273 1.400 . S
C269 H253 0.940 . S
C269 C268 1.378 . S
C269 C270 1.361 . S
C270 H254 0.942 . S
C270 C269 1.361 . S
C270 C271 1.369 . S
C271 C270 1.369 . S
C271 C272 1.404 . S
C272 H255 0.940 . S
C272 C271 1.404 . S
C272 C273 1.389 . S
C273 H256 0.939 . S
C273 C268 1.400 . S
C273 C272 1.389 . S
C274 P248 1.819 . S
C274 C275 1.391 . S
C274 C279 1.391 1_545 S
C275 H257 0.941 . S
C275 C274 1.391 . S
C275 C276 1.396 . S
C276 H260 0.939 . S
C276 C275 1.396 . S
C276 C277 1.397 . S
C277 C276 1.397 . S
C277 C278 1.385 1_545 S
C278 H261 0.940 . S
C278 C277 1.385 1_565 S
C278 C279 1.388 . S
C279 H258 0.939 . S
C279 C274 1.391 1_565 S
C279 C278 1.388 . S
P280 O291 1.490 . S
P280 C294 1.812 . S
P280 C300 1.803 . S
P280 C306 1.819 . S
H281 C295 0.941 . S
H282 C296 0.939 . S
H283 C298 0.940 . S
H284 C299 0.940 . S
H285 C301 0.939 . S
H286 C302 0.942 . S
H287 C304 0.940 . S
H288 C305 0.939 . S
H289 C307 0.941 . S
H290 C311 0.939 . S
O291 P280 1.490 . S
H292 C308 0.956 . S
H293 C310 0.940 . S
C294 P280 1.812 . S
C294 C295 1.389 . S
C294 C299 1.391 . S
C295 H281 0.941 . S
C295 C294 1.389 . S
C295 C296 1.397 . S
C296 H282 0.939 . S
C296 C295 1.397 . S
C296 C297 1.378 . S
C297 C296 1.378 . S
C297 C298 1.378 . S
C298 H283 0.940 . S
C298 C297 1.378 . S
C298 C299 1.396 . S
C299 H284 0.940 . S
C299 C294 1.391 . S
C299 C298 1.396 . S
C300 P280 1.803 . S
C300 C301 1.378 . S
C300 C305 1.400 . S
C301 H285 0.939 . S
C301 C300 1.378 . S
C301 C302 1.361 . S
C302 H286 0.942 . S
C302 C301 1.361 . S
C302 C303 1.369 . S
C303 C302 1.369 . S
C303 C304 1.404 . S
C304 H287 0.940 . S
C304 C303 1.404 . S
C304 C305 1.389 . S
C305 H288 0.939 . S
C305 C300 1.400 . S
C305 C304 1.389 . S
C306 P280 1.819 . S
C306 C307 1.391 . S
C306 C311 1.391 . S
C307 H289 0.941 . S
C307 C306 1.391 . S
C307 C308 1.396 . S
C308 H292 0.956 . S
C308 C307 1.396 . S
C308 C309 1.397 . S
C309 C308 1.397 . S
C309 C310 1.385 . S
C310 H293 0.940 . S
C310 C309 1.385 . S
C310 C311 1.388 . S
C311 H290 0.939 . S
C311 C306 1.391 . S
C311 C310 1.388 . S
H312 C318 0.930 . S
H313 C321 0.930 . S
H314 C322 0.930 . S
H315 C323 0.930 . S
H316 C326 0.930 . S
H317 C327 0.930 . S
C318 H312 0.930 . S
C318 C319 1.355 . S
C318 C320 1.415 . S
C319 C318 1.355 . S
C319 C321 1.419 . S
C320 C318 1.415 . S
C320 C325 1.425 . S
C320 C327 1.409 . S
C321 H313 0.930 . S
C321 C319 1.419 . S
C321 C322 1.362 . S
C322 H314 0.930 . S
C322 C321 1.362 . S
C322 C325 1.409 . S
C323 H315 0.930 . S
C323 C324 1.355 . S
C323 C325 1.415 . S
C324 C323 1.355 . S
C324 C326 1.419 . S
C325 C320 1.425 . S
C325 C322 1.409 . S
C325 C323 1.415 . S
C326 H316 0.930 . S
C326 C324 1.419 . S
C326 C327 1.362 . S
C327 H317 0.930 . S
C327 C320 1.409 . S
C327 C326 1.362 . S
H328 C334 0.930 . S
H329 C337 0.930 . S
H330 C338 0.930 . S
H331 C339 0.930 . S
H332 C342 0.930 . S
H333 C343 0.930 . S
C334 H328 0.930 . S
C334 C335 1.355 . S
C334 C336 1.415 . S
C335 C334 1.355 . S
C335 C337 1.419 . S
C336 C334 1.415 . S
C336 C341 1.425 . S
C336 C343 1.409 . S
C337 H329 0.930 . S
C337 C335 1.419 . S
C337 C338 1.362 . S
C338 H330 0.930 . S
C338 C337 1.362 . S
C338 C341 1.409 . S
C339 H331 0.930 . S
C339 C340 1.355 . S
C339 C341 1.415 . S
C340 C339 1.355 . S
C340 C342 1.419 . S
C341 C336 1.425 . S
C341 C338 1.409 . S
C341 C339 1.415 . S
C342 H332 0.930 . S
C342 C340 1.419 . S
C342 C343 1.362 . S
C343 H333 0.930 . S
C343 C336 1.409 . S
C343 C342 1.362 . S
H344 C350 0.930 . S
H345 C353 0.930 . S
H346 C354 0.930 . S
H347 C355 0.930 . S
H348 C358 0.930 . S
H349 C359 0.930 . S
C350 H344 0.930 . S
C350 C351 1.355 . S
C350 C352 1.415 . S
C351 C350 1.355 . S
C351 C353 1.419 . S
C352 C350 1.415 . S
C352 C357 1.425 . S
C352 C359 1.409 . S
C353 H345 0.930 . S
C353 C351 1.419 . S
C353 C354 1.362 . S
C354 H346 0.930 . S
C354 C353 1.362 . S
C354 C357 1.409 . S
C355 H347 0.930 . S
C355 C356 1.355 . S
C355 C357 1.415 . S
C356 C355 1.355 . S
C356 C358 1.419 . S
C357 C352 1.425 . S
C357 C354 1.409 . S
C357 C355 1.415 . S
C358 H348 0.930 . S
C358 C356 1.419 . S
C358 C359 1.362 . S
C359 H349 0.930 . S
C359 C352 1.409 . S
C359 C358 1.362 . S
H360 C366 0.930 . S
H361 C369 0.930 . S
H362 C370 0.930 . S
H363 C371 0.930 . S
H364 C374 0.930 . S
H365 C375 0.930 . S
C366 H360 0.930 . S
C366 C367 1.355 . S
C366 C368 1.415 . S
C367 C366 1.355 . S
C367 C369 1.419 . S
C368 C366 1.415 . S
C368 C373 1.425 . S
C368 C375 1.409 . S
C369 H361 0.930 . S
C369 C367 1.419 . S
C369 C370 1.362 . S
C370 H362 0.930 . S
C370 C369 1.362 . S
C370 C373 1.409 . S
C371 H363 0.930 . S
C371 C372 1.355 . S
C371 C373 1.415 . S
C372 C371 1.355 . S
C372 C374 1.419 . S
C373 C368 1.425 . S
C373 C370 1.409 . S
C373 C371 1.415 . S
C374 H364 0.930 . S
C374 C372 1.419 . S
C374 C375 1.362 . S
C375 H365 0.930 . S
C375 C368 1.409 . S
C375 C374 1.362 . S
H376 C382 0.930 . S
H377 C385 0.930 . S
H378 C386 0.930 . S
H379 C387 0.930 . S
H380 C390 0.930 . S
H381 C391 0.930 . S
C382 H376 0.930 . S
C382 C383 1.355 . S
C382 C384 1.415 . S
C383 C382 1.355 . S
C383 C385 1.419 . S
C384 C382 1.415 . S
C384 C389 1.425 . S
C384 C391 1.409 . S
C385 H377 0.930 . S
C385 C383 1.419 . S
C385 C386 1.362 . S
C386 H378 0.930 . S
C386 C385 1.362 . S
C386 C389 1.409 . S
C387 H379 0.930 . S
C387 C388 1.355 . S
C387 C389 1.415 . S
C388 C387 1.355 . S
C388 C390 1.419 . S
C389 C384 1.425 . S
C389 C386 1.409 . S
C389 C387 1.415 . S
C390 H380 0.930 . S
C390 C388 1.419 . S
C390 C391 1.362 . S
C391 H381 0.930 . S
C391 C384 1.409 . S
C391 C390 1.362 . S
H392 C398 0.930 . S
H393 C401 0.930 . S
H394 C402 0.930 . S
H395 C403 0.930 . S
H396 C406 0.930 . S
H397 C407 0.930 . S
C398 H392 0.930 . S
C398 C399 1.355 . S
C398 C400 1.415 . S
C399 C398 1.355 . S
C399 C401 1.419 . S
C400 C398 1.415 . S
C400 C405 1.425 . S
C400 C407 1.409 . S
C401 H393 0.930 . S
C401 C399 1.419 . S
C401 C402 1.362 . S
C402 H394 0.930 . S
C402 C401 1.362 . S
C402 C405 1.409 . S
C403 H395 0.930 . S
C403 C404 1.355 . S
C403 C405 1.415 . S
C404 C403 1.355 . S
C404 C406 1.419 . S
C405 C400 1.425 . S
C405 C402 1.409 . S
C405 C403 1.415 . S
C406 H396 0.930 . S
C406 C404 1.419 . S
C406 C407 1.362 . S
C407 H397 0.930 . S
C407 C400 1.409 . S
C407 C406 1.362 . S
H408 C414 0.930 . S
H409 C417 0.930 . S
H410 C418 0.930 . S
H411 C419 0.930 . S
H412 C422 0.930 . S
H413 C423 0.930 . S
C414 H408 0.930 . S
C414 C415 1.355 . S
C414 C416 1.415 . S
C415 C414 1.355 . S
C415 C417 1.419 . S
C416 C414 1.415 . S
C416 C421 1.425 . S
C416 C423 1.409 . S
C417 H409 0.930 . S
C417 C415 1.419 . S
C417 C418 1.362 . S
C418 H410 0.930 . S
C418 C417 1.362 . S
C418 C421 1.409 . S
C419 H411 0.930 . S
C419 C420 1.355 . S
C419 C421 1.415 . S
C420 C419 1.355 . S
C420 C422 1.419 . S
C421 C416 1.425 . S
C421 C418 1.409 . S
C421 C419 1.415 . S
C422 H412 0.930 . S
C422 C420 1.419 . S
C422 C423 1.362 . S
C423 H413 0.930 . S
C423 C416 1.409 . S
C423 C422 1.362 . S
H424 C430 0.930 . S
H425 C433 0.930 . S
H426 C434 0.930 . S
H427 C435 0.930 . S
H428 C438 0.930 . S
H429 C439 0.930 . S
C430 H424 0.930 . S
C430 C431 1.355 . S
C430 C432 1.415 . S
C431 C430 1.355 . S
C431 C433 1.419 . S
C432 C430 1.415 . S
C432 C437 1.425 . S
C432 C439 1.409 . S
C433 H425 0.930 . S
C433 C431 1.419 . S
C433 C434 1.362 . S
C434 H426 0.930 . S
C434 C433 1.362 . S
C434 C437 1.409 . S
C435 H427 0.930 . S
C435 C436 1.355 . S
C435 C437 1.415 . S
C436 C435 1.355 . S
C436 C438 1.419 . S
C437 C432 1.425 . S
C437 C434 1.409 . S
C437 C435 1.415 . S
C438 H428 0.930 . S
C438 C436 1.419 . S
C438 C439 1.362 . S
C439 H429 0.930 . S
C439 C432 1.409 . S
C439 C438 1.362 . S
H440 C446 0.930 . S
H441 C449 0.930 . S
H442 C450 0.930 . S
H443 C451 0.930 . S
H444 C454 0.930 . S
H445 C455 0.930 . S
C446 H440 0.930 . S
C446 C447 1.355 . S
C446 C448 1.415 . S
C447 C446 1.355 . S
C447 C449 1.419 . S
C448 C446 1.415 . S
C448 C453 1.425 . S
C448 C455 1.409 . S
C449 H441 0.930 . S
C449 C447 1.419 . S
C449 C450 1.362 . S
C450 H442 0.930 . S
C450 C449 1.362 . S
C450 C453 1.409 . S
C451 H443 0.930 . S
C451 C452 1.355 . S
C451 C453 1.415 . S
C452 C451 1.355 . S
C452 C454 1.419 . S
C453 C448 1.425 . S
C453 C450 1.409 . S
C453 C451 1.415 . S
C454 H444 0.930 . S
C454 C452 1.419 . S
C454 C455 1.362 . S
C455 H445 0.930 . S
C455 C448 1.409 . S
C455 C454 1.362 . S
H456 C462 0.930 . S
H457 C465 0.930 . S
H458 C466 0.930 . S
H459 C467 0.930 . S
H460 C470 0.930 . S
H461 C471 0.930 . S
C462 H456 0.930 . S
C462 C463 1.355 . S
C462 C464 1.415 . S
C463 C462 1.355 . S
C463 C465 1.419 . S
C464 C462 1.415 . S
C464 C469 1.425 . S
C464 C471 1.409 . S
C465 H457 0.930 . S
C465 C463 1.419 . S
C465 C466 1.362 . S
C466 H458 0.930 . S
C466 C465 1.362 . S
C466 C469 1.409 . S
C467 H459 0.930 . S
C467 C468 1.355 . S
C467 C469 1.415 . S
C468 C467 1.355 . S
C468 C470 1.419 . S
C469 C464 1.425 . S
C469 C466 1.409 . S
C469 C467 1.415 . S
C470 H460 0.930 . S
C470 C468 1.419 . S
C470 C471 1.362 . S
C471 H461 0.930 . S
C471 C464 1.409 . S
C471 C470 1.362 . S
H472 C478 0.930 . S
H473 C481 0.930 . S
H474 C482 0.930 . S
H475 C483 0.930 . S
H476 C486 0.930 . S
H477 C487 0.930 . S
C478 H472 0.930 . S
C478 C479 1.355 . S
C478 C480 1.415 . S
C479 C478 1.355 . S
C479 C481 1.419 . S
C480 C478 1.415 . S
C480 C485 1.425 . S
C480 C487 1.409 . S
C481 H473 0.930 . S
C481 C479 1.419 . S
C481 C482 1.362 . S
C482 H474 0.930 . S
C482 C481 1.362 . S
C482 C485 1.409 . S
C483 H475 0.930 . S
C483 C484 1.355 . S
C483 C485 1.415 . S
C484 C483 1.355 . S
C484 C486 1.419 . S
C485 C480 1.425 . S
C485 C482 1.409 . S
C485 C483 1.415 . S
C486 H476 0.930 . S
C486 C484 1.419 . S
C486 C487 1.362 . S
C487 H477 0.930 . S
C487 C480 1.409 . S
C487 C486 1.362 . S
H488 C494 0.930 . S
H489 C497 0.930 . S
H490 C498 0.930 . S
H491 C499 0.930 . S
H492 C502 0.930 . S
H493 C503 0.930 . S
C494 H488 0.930 . S
C494 C495 1.355 . S
C494 C496 1.415 . S
C495 C494 1.355 . S
C495 C497 1.419 . S
C496 C494 1.415 . S
C496 C501 1.425 . S
C496 C503 1.409 . S
C497 H489 0.930 . S
C497 C495 1.419 . S
C497 C498 1.362 . S
C498 H490 0.930 . S
C498 C497 1.362 . S
C498 C501 1.409 . S
C499 H491 0.930 . S
C499 C500 1.355 . S
C499 C501 1.415 . S
C500 C499 1.355 . S
C500 C502 1.419 . S
C501 C496 1.425 . S
C501 C498 1.409 . S
C501 C499 1.415 . S
C502 H492 0.930 . S
C502 C500 1.419 . S
C502 C503 1.362 . S
C503 H493 0.930 . S
C503 C496 1.409 . S
C503 C502 1.362 . S
H504 C510 0.930 1_655 S
H505 C513 0.930 . S
H506 C514 0.930 . S
H507 C515 0.930 . S
H508 C518 0.930 1_556 S
H509 C519 0.930 . S
C510 H504 0.930 1_455 S
C510 C511 1.355 . S
C510 C512 1.415 . S
C511 C510 1.355 . S
C511 C513 1.419 . S
C512 C510 1.415 . S
C512 C517 1.425 . S
C512 C519 1.409 1_455 S
C513 H505 0.930 . S
C513 C511 1.419 . S
C513 C514 1.362 . S
C514 H506 0.930 . S
C514 C513 1.362 . S
C514 C517 1.409 . S
C515 H507 0.930 . S
C515 C516 1.355 1_554 S
C515 C517 1.415 . S
C516 C515 1.355 1_556 S
C516 C518 1.419 1_456 S
C517 C512 1.425 . S
C517 C514 1.409 . S
C517 C515 1.415 . S
C518 H508 0.930 1_554 S
C518 C516 1.419 1_654 S
C518 C519 1.362 . S
C519 H509 0.930 . S
C519 C512 1.409 1_655 S
C519 C518 1.362 . S
H520 C526 0.910 1_565 S
H521 C529 0.930 . S
H522 C530 0.930 . S
H523 C531 0.930 . S
H524 C534 0.915 1_565 S
H525 C535 0.930 1_565 S
C526 H520 0.910 1_545 S
C526 C527 1.355 . S
C526 C528 1.415 . S
C527 C526 1.355 . S
C527 C529 1.419 . S
C528 C526 1.415 . S
C528 C533 1.425 . S
C528 C535 1.409 . S
C529 H521 0.930 . S
C529 C527 1.419 . S
C529 C530 1.362 . S
C530 H522 0.930 . S
C530 C529 1.362 . S
C530 C533 1.409 . S
C531 H523 0.930 . S
C531 C532 1.355 . S
C531 C533 1.415 . S
C532 C531 1.355 . S
C532 C534 1.419 . S
C533 C528 1.425 . S
C533 C530 1.409 . S
C533 C531 1.415 . S
C534 H524 0.915 1_545 S
C534 C532 1.419 . S
C534 C535 1.362 . S
C535 H525 0.930 1_545 S
C535 C528 1.409 . S
C535 C534 1.362 . S
H536 C542 0.930 . S
H537 C545 0.930 . S
H538 C546 0.930 . S
H539 C547 0.930 . S
H540 C550 0.930 . S
H541 C551 0.930 . S
C542 H536 0.930 . S
C542 C543 1.355 . S
C542 C544 1.415 . S
C543 C542 1.355 . S
C543 C545 1.419 . S
C544 C542 1.415 . S
C544 C549 1.425 . S
C544 C551 1.409 . S
C545 H537 0.930 . S
C545 C543 1.419 . S
C545 C546 1.362 . S
C546 H538 0.930 . S
C546 C545 1.362 . S
C546 C549 1.409 . S
C547 H539 0.930 . S
C547 C548 1.355 . S
C547 C549 1.415 . S
C548 C547 1.355 . S
C548 C550 1.419 . S
C549 C544 1.425 . S
C549 C546 1.409 . S
C549 C547 1.415 . S
C550 H540 0.930 . S
C550 C548 1.419 . S
C550 C551 1.362 . S
C551 H541 0.930 . S
C551 C544 1.409 . S
C551 C550 1.362 . S
H552 C558 0.930 . S
H553 C561 0.930 . S
H554 C562 0.930 . S
H555 C563 0.930 . S
H556 C566 0.930 . S
H557 C567 0.930 . S
C558 H552 0.930 . S
C558 C559 1.355 1_565 S
C558 C560 1.415 . S
C559 C558 1.355 1_545 S
C559 C561 1.419 . S
C560 C558 1.415 . S
C560 C565 1.425 1_565 S
C560 C567 1.409 . S
C561 H553 0.930 . S
C561 C559 1.419 . S
C561 C562 1.362 . S
C562 H554 0.930 . S
C562 C561 1.362 . S
C562 C565 1.409 . S
C563 H555 0.930 . S
C563 C564 1.355 1_545 S
C563 C565 1.415 . S
C564 C563 1.355 1_565 S
C564 C566 1.419 . S
C565 C560 1.425 1_545 S
C565 C562 1.409 . S
C565 C563 1.415 . S
C566 H556 0.930 . S
C566 C564 1.419 . S
C566 C567 1.362 . S
C567 H557 0.930 . S
C567 C560 1.409 . S
C567 C566 1.362 . S
H568 C574 0.930 . S
H569 C577 0.930 . S
H570 C578 0.930 . S
H571 C579 0.930 . S
H572 C582 0.930 . S
H573 C583 0.930 . S
C574 H568 0.930 . S
C574 C575 1.355 . S
C574 C576 1.415 . S
C575 C574 1.355 . S
C575 C577 1.419 . S
C576 C574 1.415 . S
C576 C581 1.425 . S
C576 C583 1.409 . S
C577 H569 0.930 . S
C577 C575 1.419 . S
C577 C578 1.362 . S
C578 H570 0.930 . S
C578 C577 1.362 . S
C578 C581 1.409 . S
C579 H571 0.930 . S
C579 C580 1.355 . S
C579 C581 1.415 . S
C580 C579 1.355 . S
C580 C582 1.419 . S
C581 C576 1.425 . S
C581 C578 1.409 . S
C581 C579 1.415 . S
C582 H572 0.930 . S
C582 C580 1.419 . S
C582 C583 1.362 . S
C583 H573 0.930 . S
C583 C576 1.409 . S
C583 C582 1.362 . S
H584 C590 0.930 . S
H585 C593 0.930 . S
H586 C594 0.930 1_655 S
H587 C595 0.930 1_655 S
H588 C598 0.930 . S
H589 C599 0.930 . S
C590 H584 0.930 . S
C590 C591 1.355 . S
C590 C592 1.415 . S
C591 C590 1.355 . S
C591 C593 1.419 . S
C592 C590 1.415 . S
C592 C597 1.425 . S
C592 C599 1.409 . S
C593 H585 0.930 . S
C593 C591 1.419 . S
C593 C594 1.362 . S
C594 H586 0.930 1_455 S
C594 C593 1.362 . S
C594 C597 1.409 . S
C595 H587 0.930 1_455 S
C595 C596 1.355 . S
C595 C597 1.415 . S
C596 C595 1.355 . S
C596 C598 1.419 . S
C597 C592 1.425 . S
C597 C594 1.409 . S
C597 C595 1.415 . S
C598 H588 0.930 . S
C598 C596 1.419 . S
C598 C599 1.362 . S
C599 H589 0.930 . S
C599 C592 1.409 . S
C599 C598 1.362 . S
C319 C7 0.860 . S
C324 C303 0.790 . S
C335 C51 1.920 . S
C340 C239 1.865 . S
C351 C87 1.311 . S
C356 C271 1.322 . S
C367 C16 0.529 . S
C372 C297 0.554 . S
C388 C233 1.905 . S
C383 C42 2.001 . S
C404 C265 1.334 . S
C399 C96 1.311 . S
C415 C47 1.252 . S
C420 C175 1.241 . S
C431 C91 3.083 . S
C436 C207 3.018 . S
C447 C2 2.055 . S
C452 C137 2.004 . S
C468 C169 1.325 . S
C463 C56 1.300 . S
C484 C201 2.954 . S
C479 C82 3.014 . S
C495 C11 1.899 . S
C500 C143 1.884 . S
C516 C213 1.750 . S
C511 C19 1.731 . S
C527 C50 1.369 . S
C532 C149 1.314 . S
C543 C99 1.465 . S
C548 C181 1.504 . S
C564 C277 1.439 1_565 S
C559 C59 1.417 . S
C580 C309 1.096 1_556 S
C575 C90 1.109 . S
C591 C10 1.361 . S
C596 C245 1.293 . S
