# Generated by pormake.
# Topology tbo, (3,4)-cn, num edge types: 1
# Building blocks:
#     Node 0, Type 0, BuildingBlock: BELTOD_clean_linker_0, # of connection points: 3
#     Node 1, Type 0, BuildingBlock: BELTOD_clean_linker_0, # of connection points: 3
#     Node 2, Type 0, BuildingBlock: BELTOD_clean_linker_0, # of connection points: 3
#     Node 3, Type 0, BuildingBlock: BELTOD_clean_linker_0, # of connection points: 3
#     Node 4, Type 0, BuildingBlock: BELTOD_clean_linker_0, # of connection points: 3
#     Node 5, Type 0, BuildingBlock: BELTOD_clean_linker_0, # of connection points: 3
#     Node 6, Type 0, BuildingBlock: BELTOD_clean_linker_0, # of connection points: 3
#     Node 7, Type 0, BuildingBlock: BELTOD_clean_linker_0, # of connection points: 3
#     Node 8, Type 0, BuildingBlock: BELTOD_clean_linker_0, # of connection points: 3
#     Node 9, Type 0, BuildingBlock: BELTOD_clean_linker_0, # of connection points: 3
#     Node 10, Type 0, BuildingBlock: BELTOD_clean_linker_0, # of connection points: 3
#     Node 11, Type 0, BuildingBlock: BELTOD_clean_linker_0, # of connection points: 3
#     Node 12, Type 0, BuildingBlock: BELTOD_clean_linker_0, # of connection points: 3
#     Node 13, Type 0, BuildingBlock: BELTOD_clean_linker_0, # of connection points: 3
#     Node 14, Type 0, BuildingBlock: BELTOD_clean_linker_0, # of connection points: 3
#     Node 15, Type 0, BuildingBlock: BELTOD_clean_linker_0, # of connection points: 3
#     Node 16, Type 0, BuildingBlock: BELTOD_clean_linker_0, # of connection points: 3
#     Node 17, Type 0, BuildingBlock: BELTOD_clean_linker_0, # of connection points: 3
#     Node 18, Type 0, BuildingBlock: BELTOD_clean_linker_0, # of connection points: 3
#     Node 19, Type 0, BuildingBlock: BELTOD_clean_linker_0, # of connection points: 3
#     Node 20, Type 0, BuildingBlock: BELTOD_clean_linker_0, # of connection points: 3
#     Node 21, Type 0, BuildingBlock: BELTOD_clean_linker_0, # of connection points: 3
#     Node 22, Type 0, BuildingBlock: BELTOD_clean_linker_0, # of connection points: 3
#     Node 23, Type 0, BuildingBlock: BELTOD_clean_linker_0, # of connection points: 3
#     Node 24, Type 0, BuildingBlock: BELTOD_clean_linker_0, # of connection points: 3
#     Node 25, Type 0, BuildingBlock: BELTOD_clean_linker_0, # of connection points: 3
#     Node 26, Type 0, BuildingBlock: BELTOD_clean_linker_0, # of connection points: 3
#     Node 27, Type 0, BuildingBlock: BELTOD_clean_linker_0, # of connection points: 3
#     Node 28, Type 0, BuildingBlock: BELTOD_clean_linker_0, # of connection points: 3
#     Node 29, Type 0, BuildingBlock: BELTOD_clean_linker_0, # of connection points: 3
#     Node 30, Type 0, BuildingBlock: BELTOD_clean_linker_0, # of connection points: 3
#     Node 31, Type 0, BuildingBlock: BELTOD_clean_linker_0, # of connection points: 3
#     Node 32, Type 1, BuildingBlock: ESEHIV_clean_sbu_0, # of connection points: 4
#     Node 33, Type 1, BuildingBlock: ESEHIV_clean_sbu_0, # of connection points: 4
#     Node 34, Type 1, BuildingBlock: ESEHIV_clean_sbu_0, # of connection points: 4
#     Node 35, Type 1, BuildingBlock: ESEHIV_clean_sbu_0, # of connection points: 4
#     Node 36, Type 1, BuildingBlock: ESEHIV_clean_sbu_0, # of connection points: 4
#     Node 37, Type 1, BuildingBlock: ESEHIV_clean_sbu_0, # of connection points: 4
#     Node 38, Type 1, BuildingBlock: ESEHIV_clean_sbu_0, # of connection points: 4
#     Node 39, Type 1, BuildingBlock: ESEHIV_clean_sbu_0, # of connection points: 4
#     Node 40, Type 1, BuildingBlock: ESEHIV_clean_sbu_0, # of connection points: 4
#     Node 41, Type 1, BuildingBlock: ESEHIV_clean_sbu_0, # of connection points: 4
#     Node 42, Type 1, BuildingBlock: ESEHIV_clean_sbu_0, # of connection points: 4
#     Node 43, Type 1, BuildingBlock: ESEHIV_clean_sbu_0, # of connection points: 4
#     Node 44, Type 1, BuildingBlock: ESEHIV_clean_sbu_0, # of connection points: 4
#     Node 45, Type 1, BuildingBlock: ESEHIV_clean_sbu_0, # of connection points: 4
#     Node 46, Type 1, BuildingBlock: ESEHIV_clean_sbu_0, # of connection points: 4
#     Node 47, Type 1, BuildingBlock: ESEHIV_clean_sbu_0, # of connection points: 4
#     Node 48, Type 1, BuildingBlock: ESEHIV_clean_sbu_0, # of connection points: 4
#     Node 49, Type 1, BuildingBlock: ESEHIV_clean_sbu_0, # of connection points: 4
#     Node 50, Type 1, BuildingBlock: ESEHIV_clean_sbu_0, # of connection points: 4
#     Node 51, Type 1, BuildingBlock: ESEHIV_clean_sbu_0, # of connection points: 4
#     Node 52, Type 1, BuildingBlock: ESEHIV_clean_sbu_0, # of connection points: 4
#     Node 53, Type 1, BuildingBlock: ESEHIV_clean_sbu_0, # of connection points: 4
#     Node 54, Type 1, BuildingBlock: ESEHIV_clean_sbu_0, # of connection points: 4
#     Node 55, Type 1, BuildingBlock: ESEHIV_clean_sbu_0, # of connection points: 4
#     Edge 56, Type (0, 1), BuildingBlock: CIFDUS_clean_linker_0, # of connection points: 2
#     Edge 57, Type (0, 1), BuildingBlock: CIFDUS_clean_linker_0, # of connection points: 2
#     Edge 58, Type (0, 1), BuildingBlock: CIFDUS_clean_linker_0, # of connection points: 2
#     Edge 59, Type (0, 1), BuildingBlock: CIFDUS_clean_linker_0, # of connection points: 2
#     Edge 60, Type (0, 1), BuildingBlock: CIFDUS_clean_linker_0, # of connection points: 2
#     Edge 61, Type (0, 1), BuildingBlock: CIFDUS_clean_linker_0, # of connection points: 2
#     Edge 62, Type (0, 1), BuildingBlock: CIFDUS_clean_linker_0, # of connection points: 2
#     Edge 63, Type (0, 1), BuildingBlock: CIFDUS_clean_linker_0, # of connection points: 2
#     Edge 64, Type (0, 1), BuildingBlock: CIFDUS_clean_linker_0, # of connection points: 2
#     Edge 65, Type (0, 1), BuildingBlock: CIFDUS_clean_linker_0, # of connection points: 2
#     Edge 66, Type (0, 1), BuildingBlock: CIFDUS_clean_linker_0, # of connection points: 2
#     Edge 67, Type (0, 1), BuildingBlock: CIFDUS_clean_linker_0, # of connection points: 2
#     Edge 68, Type (0, 1), BuildingBlock: CIFDUS_clean_linker_0, # of connection points: 2
#     Edge 69, Type (0, 1), BuildingBlock: CIFDUS_clean_linker_0, # of connection points: 2
#     Edge 70, Type (0, 1), BuildingBlock: CIFDUS_clean_linker_0, # of connection points: 2
#     Edge 71, Type (0, 1), BuildingBlock: CIFDUS_clean_linker_0, # of connection points: 2
#     Edge 72, Type (0, 1), BuildingBlock: CIFDUS_clean_linker_0, # of connection points: 2
#     Edge 73, Type (0, 1), BuildingBlock: CIFDUS_clean_linker_0, # of connection points: 2
#     Edge 74, Type (0, 1), BuildingBlock: CIFDUS_clean_linker_0, # of connection points: 2
#     Edge 75, Type (0, 1), BuildingBlock: CIFDUS_clean_linker_0, # of connection points: 2
#     Edge 76, Type (0, 1), BuildingBlock: CIFDUS_clean_linker_0, # of connection points: 2
#     Edge 77, Type (0, 1), BuildingBlock: CIFDUS_clean_linker_0, # of connection points: 2
#     Edge 78, Type (0, 1), BuildingBlock: CIFDUS_clean_linker_0, # of connection points: 2
#     Edge 79, Type (0, 1), BuildingBlock: CIFDUS_clean_linker_0, # of connection points: 2
#     Edge 80, Type (0, 1), BuildingBlock: CIFDUS_clean_linker_0, # of connection points: 2
#     Edge 81, Type (0, 1), BuildingBlock: CIFDUS_clean_linker_0, # of connection points: 2
#     Edge 82, Type (0, 1), BuildingBlock: CIFDUS_clean_linker_0, # of connection points: 2
#     Edge 83, Type (0, 1), BuildingBlock: CIFDUS_clean_linker_0, # of connection points: 2
#     Edge 84, Type (0, 1), BuildingBlock: CIFDUS_clean_linker_0, # of connection points: 2
#     Edge 85, Type (0, 1), BuildingBlock: CIFDUS_clean_linker_0, # of connection points: 2
#     Edge 86, Type (0, 1), BuildingBlock: CIFDUS_clean_linker_0, # of connection points: 2
#     Edge 87, Type (0, 1), BuildingBlock: CIFDUS_clean_linker_0, # of connection points: 2
#     Edge 88, Type (0, 1), BuildingBlock: CIFDUS_clean_linker_0, # of connection points: 2
#     Edge 89, Type (0, 1), BuildingBlock: CIFDUS_clean_linker_0, # of connection points: 2
#     Edge 90, Type (0, 1), BuildingBlock: CIFDUS_clean_linker_0, # of connection points: 2
#     Edge 91, Type (0, 1), BuildingBlock: CIFDUS_clean_linker_0, # of connection points: 2
#     Edge 92, Type (0, 1), BuildingBlock: CIFDUS_clean_linker_0, # of connection points: 2
#     Edge 93, Type (0, 1), BuildingBlock: CIFDUS_clean_linker_0, # of connection points: 2
#     Edge 94, Type (0, 1), BuildingBlock: CIFDUS_clean_linker_0, # of connection points: 2
#     Edge 95, Type (0, 1), BuildingBlock: CIFDUS_clean_linker_0, # of connection points: 2
#     Edge 96, Type (0, 1), BuildingBlock: CIFDUS_clean_linker_0, # of connection points: 2
#     Edge 97, Type (0, 1), BuildingBlock: CIFDUS_clean_linker_0, # of connection points: 2
#     Edge 98, Type (0, 1), BuildingBlock: CIFDUS_clean_linker_0, # of connection points: 2
#     Edge 99, Type (0, 1), BuildingBlock: CIFDUS_clean_linker_0, # of connection points: 2
#     Edge 100, Type (0, 1), BuildingBlock: CIFDUS_clean_linker_0, # of connection points: 2
#     Edge 101, Type (0, 1), BuildingBlock: CIFDUS_clean_linker_0, # of connection points: 2
#     Edge 102, Type (0, 1), BuildingBlock: CIFDUS_clean_linker_0, # of connection points: 2
#     Edge 103, Type (0, 1), BuildingBlock: CIFDUS_clean_linker_0, # of connection points: 2
#     Edge 104, Type (0, 1), BuildingBlock: CIFDUS_clean_linker_0, # of connection points: 2
#     Edge 105, Type (0, 1), BuildingBlock: CIFDUS_clean_linker_0, # of connection points: 2
#     Edge 106, Type (0, 1), BuildingBlock: CIFDUS_clean_linker_0, # of connection points: 2
#     Edge 107, Type (0, 1), BuildingBlock: CIFDUS_clean_linker_0, # of connection points: 2
#     Edge 108, Type (0, 1), BuildingBlock: CIFDUS_clean_linker_0, # of connection points: 2
#     Edge 109, Type (0, 1), BuildingBlock: CIFDUS_clean_linker_0, # of connection points: 2
#     Edge 110, Type (0, 1), BuildingBlock: CIFDUS_clean_linker_0, # of connection points: 2
#     Edge 111, Type (0, 1), BuildingBlock: CIFDUS_clean_linker_0, # of connection points: 2
#     Edge 112, Type (0, 1), BuildingBlock: CIFDUS_clean_linker_0, # of connection points: 2
#     Edge 113, Type (0, 1), BuildingBlock: CIFDUS_clean_linker_0, # of connection points: 2
#     Edge 114, Type (0, 1), BuildingBlock: CIFDUS_clean_linker_0, # of connection points: 2
#     Edge 115, Type (0, 1), BuildingBlock: CIFDUS_clean_linker_0, # of connection points: 2
#     Edge 116, Type (0, 1), BuildingBlock: CIFDUS_clean_linker_0, # of connection points: 2
#     Edge 117, Type (0, 1), BuildingBlock: CIFDUS_clean_linker_0, # of connection points: 2
#     Edge 118, Type (0, 1), BuildingBlock: CIFDUS_clean_linker_0, # of connection points: 2
#     Edge 119, Type (0, 1), BuildingBlock: CIFDUS_clean_linker_0, # of connection points: 2
#     Edge 120, Type (0, 1), BuildingBlock: CIFDUS_clean_linker_0, # of connection points: 2
#     Edge 121, Type (0, 1), BuildingBlock: CIFDUS_clean_linker_0, # of connection points: 2
#     Edge 122, Type (0, 1), BuildingBlock: CIFDUS_clean_linker_0, # of connection points: 2
#     Edge 123, Type (0, 1), BuildingBlock: CIFDUS_clean_linker_0, # of connection points: 2
#     Edge 124, Type (0, 1), BuildingBlock: CIFDUS_clean_linker_0, # of connection points: 2
#     Edge 125, Type (0, 1), BuildingBlock: CIFDUS_clean_linker_0, # of connection points: 2
#     Edge 126, Type (0, 1), BuildingBlock: CIFDUS_clean_linker_0, # of connection points: 2
#     Edge 127, Type (0, 1), BuildingBlock: CIFDUS_clean_linker_0, # of connection points: 2
#     Edge 128, Type (0, 1), BuildingBlock: CIFDUS_clean_linker_0, # of connection points: 2
#     Edge 129, Type (0, 1), BuildingBlock: CIFDUS_clean_linker_0, # of connection points: 2
#     Edge 130, Type (0, 1), BuildingBlock: CIFDUS_clean_linker_0, # of connection points: 2
#     Edge 131, Type (0, 1), BuildingBlock: CIFDUS_clean_linker_0, # of connection points: 2
#     Edge 132, Type (0, 1), BuildingBlock: CIFDUS_clean_linker_0, # of connection points: 2
#     Edge 133, Type (0, 1), BuildingBlock: CIFDUS_clean_linker_0, # of connection points: 2
#     Edge 134, Type (0, 1), BuildingBlock: CIFDUS_clean_linker_0, # of connection points: 2
#     Edge 135, Type (0, 1), BuildingBlock: CIFDUS_clean_linker_0, # of connection points: 2
#     Edge 136, Type (0, 1), BuildingBlock: CIFDUS_clean_linker_0, # of connection points: 2
#     Edge 137, Type (0, 1), BuildingBlock: CIFDUS_clean_linker_0, # of connection points: 2
#     Edge 138, Type (0, 1), BuildingBlock: CIFDUS_clean_linker_0, # of connection points: 2
#     Edge 139, Type (0, 1), BuildingBlock: CIFDUS_clean_linker_0, # of connection points: 2
#     Edge 140, Type (0, 1), BuildingBlock: CIFDUS_clean_linker_0, # of connection points: 2
#     Edge 141, Type (0, 1), BuildingBlock: CIFDUS_clean_linker_0, # of connection points: 2
#     Edge 142, Type (0, 1), BuildingBlock: CIFDUS_clean_linker_0, # of connection points: 2
#     Edge 143, Type (0, 1), BuildingBlock: CIFDUS_clean_linker_0, # of connection points: 2
#     Edge 144, Type (0, 1), BuildingBlock: CIFDUS_clean_linker_0, # of connection points: 2
#     Edge 145, Type (0, 1), BuildingBlock: CIFDUS_clean_linker_0, # of connection points: 2
#     Edge 146, Type (0, 1), BuildingBlock: CIFDUS_clean_linker_0, # of connection points: 2
#     Edge 147, Type (0, 1), BuildingBlock: CIFDUS_clean_linker_0, # of connection points: 2
#     Edge 148, Type (0, 1), BuildingBlock: CIFDUS_clean_linker_0, # of connection points: 2
#     Edge 149, Type (0, 1), BuildingBlock: CIFDUS_clean_linker_0, # of connection points: 2
#     Edge 150, Type (0, 1), BuildingBlock: CIFDUS_clean_linker_0, # of connection points: 2
#     Edge 151, Type (0, 1), BuildingBlock: CIFDUS_clean_linker_0, # of connection points: 2
# Relax obj value: 0.003
# Max RMSD: 0.122
# Mean RMSD: 0.051
data_MOF--net-tbo--node1-ESEHIV_clean_sbu_0--node2-BELTOD_clean_linker_0--edge1-CIFDUS_clean_linker_0
_symmetry_space_group_name_H-M    P1
_symmetry_Int_Tables_number       1
_symmetry_cell_setting            triclinic
loop_
_symmetry_equiv_pos_as_xyz
'x, y, z'
_cell_length_a     75.074874
_cell_length_b     75.635841
_cell_length_c     74.207421
_cell_angle_alpha  90.452867
_cell_angle_beta   92.472453
_cell_angle_gamma 90.737818
loop_
_atom_site_label
_atom_site_type_symbol
_atom_site_fract_x
_atom_site_fract_y
_atom_site_fract_z
_atom_type_partial_charge
P0 P 0.19534 0.18361 0.20221 0.0
H1 H 0.17795 0.17658 0.23552 0.0
H2 H 0.1476 0.18071 0.24502 0.0
H3 H 0.13132 0.19542 0.19063 0.0
H4 H 0.16198 0.19181 0.18143 0.0
H5 H 0.22927 0.17533 0.22074 0.0
H6 H 0.24166 0.14785 0.23266 0.0
H7 H 0.19606 0.11883 0.20994 0.0
H8 H 0.18345 0.14655 0.1983 0.0
H9 H 0.20278 0.21635 0.18345 0.0
H10 H 0.19602 0.16115 0.16951 0.0
O11 O 0.20537 0.19966 0.21462 0.0
H12 H 0.21119 0.22274 0.15285 0.0
H13 H 0.20395 0.1675 0.13854 0.0
C14 C 0.17221 0.1838 0.20778 0.0
C15 C 0.16777 0.18042 0.22558 0.0
C16 C 0.15034 0.18271 0.23097 0.0
C17 C 0.13691 0.18846 0.21863 0.0
C18 C 0.14134 0.19124 0.20058 0.0
C19 C 0.15886 0.18903 0.19523 0.0
C20 C 0.20529 0.163 0.20893 0.0
C21 C 0.22196 0.16308 0.21819 0.0
C22 C 0.22908 0.14737 0.22494 0.0
C23 C 0.21978 0.13127 0.22224 0.0
C24 C 0.20354 0.13107 0.21207 0.0
C25 C 0.1963 0.14687 0.20553 0.0
C26 C 0.19915 0.18822 0.17888 0.0
C27 C 0.20291 0.2056 0.17372 0.0
C28 C 0.20757 0.20927 0.15611 0.0
C29 C 0.20839 0.19562 0.14318 0.0
C30 C 0.20379 0.17829 0.14822 0.0
C31 C 0.19916 0.17464 0.16592 0.0
P32 P 0.85725 0.171 0.16066 0.0
H33 H 0.87046 0.15956 0.19609 0.0
H34 H 0.89111 0.17287 0.21869 0.0
H35 H 0.89447 0.22 0.18638 0.0
H36 H 0.87405 0.20633 0.16356 0.0
H37 H 0.84565 0.13517 0.15035 0.0
H38 H 0.82427 0.11447 0.16266 0.0
H39 H 0.81059 0.15372 0.20222 0.0
H40 H 0.83245 0.17424 0.19003 0.0
H41 H 0.85682 0.17497 0.12152 0.0
H42 H 0.83296 0.20035 0.1666 0.0
O43 O 0.87153 0.15915 0.14905 0.0
H44 H 0.84133 0.195 0.10084 0.0
H45 H 0.81698 0.22035 0.14583 0.0
C46 C 0.87027 0.18214 0.1784 0.0
C47 C 0.87532 0.17291 0.19404 0.0
C48 C 0.88716 0.18057 0.20697 0.0
C49 C 0.89438 0.1976 0.20446 0.0
C50 C 0.88924 0.20685 0.18873 0.0
C51 C 0.87738 0.19913 0.17577 0.0
C52 C 0.8409 0.15611 0.16952 0.0
C53 C 0.83809 0.13932 0.1617 0.0
C54 C 0.82569 0.12753 0.16866 0.0
C55 C 0.8157 0.13236 0.1835 0.0
C56 C 0.81824 0.14944 0.19098 0.0
C57 C 0.83068 0.16122 0.18399 0.0
C58 C 0.84611 0.18625 0.14561 0.0
C59 C 0.84825 0.18488 0.12699 0.0
C60 C 0.83926 0.19628 0.11514 0.0
C61 C 0.82783 0.20923 0.12165 0.0
C62 C 0.82581 0.21064 0.14039 0.0
C63 C 0.83484 0.19918 0.15226 0.0
P64 P 0.86744 0.87979 0.16911 0.0
H65 H 0.85637 0.91515 0.15915 0.0
H66 H 0.83811 0.93718 0.17345 0.0
H67 H 0.82745 0.90042 0.21609 0.0
H68 H 0.8461 0.87841 0.20169 0.0
H69 H 0.87788 0.84235 0.16866 0.0
H70 H 0.89775 0.82532 0.18832 0.0
H71 H 0.90314 0.86981 0.22518 0.0
H72 H 0.88383 0.88708 0.20488 0.0
H73 H 0.87992 0.86295 0.13686 0.0
H74 H 0.82975 0.86836 0.16239 0.0
O75 O 0.88322 0.89172 0.15947 0.0
H76 H 0.86539 0.84484 0.11301 0.0
H77 H 0.815 0.85018 0.13829 0.0
C78 C 0.85286 0.89528 0.17952 0.0
C79 C 0.85011 0.91181 0.17157 0.0
C80 C 0.83957 0.92437 0.17974 0.0
C81 C 0.83135 0.92062 0.19599 0.0
C82 C 0.83382 0.90384 0.20374 0.0
C83 C 0.84439 0.89122 0.19549 0.0
C84 C 0.87905 0.86595 0.1854 0.0
C85 C 0.88305 0.8484 0.18108 0.0
C86 C 0.89445 0.83859 0.19246 0.0
C87 C 0.90216 0.84612 0.20843 0.0
C88 C 0.89771 0.8636 0.21291 0.0
C89 C 0.88642 0.87344 0.20143 0.0
C90 C 0.85593 0.86708 0.15136 0.0
C91 C 0.86572 0.86036 0.13725 0.0
C92 C 0.8574 0.84996 0.12364 0.0
C93 C 0.83905 0.84608 0.12378 0.0
C94 C 0.82912 0.8531 0.13775 0.0
C95 C 0.83755 0.86341 0.15156 0.0
P96 P 0.14206 0.86153 0.1542 0.0
H97 H 0.15401 0.89773 0.14861 0.0
H98 H 0.17001 0.91952 0.16794 0.0
H99 H 0.17492 0.88095 0.21039 0.0
H100 H 0.15916 0.85903 0.19079 0.0
H101 H 0.13475 0.84788 0.11781 0.0
H102 H 0.15367 0.83577 0.09492 0.0
H103 H 0.19927 0.84004 0.13234 0.0
H104 H 0.18018 0.85236 0.15519 0.0
H105 H 0.12381 0.86444 0.18797 0.0
H106 H 0.13148 0.82418 0.14765 0.0
O107 O 0.1269 0.87329 0.14257 0.0
H108 H 0.10484 0.84415 0.2042 0.0
H109 H 0.11201 0.80391 0.16369 0.0
C110 C 0.15492 0.87693 0.16844 0.0
C111 C 0.15856 0.89393 0.16206 0.0
C112 C 0.16778 0.90636 0.17309 0.0
C113 C 0.17354 0.90201 0.19077 0.0
C114 C 0.17037 0.88476 0.19694 0.0
C115 C 0.16135 0.87224 0.18576 0.0
C116 C 0.1561 0.85126 0.1381 0.0
C117 C 0.14881 0.84615 0.12112 0.0
C118 C 0.15964 0.83912 0.10807 0.0
C119 C 0.17803 0.83701 0.11174 0.0
C120 C 0.18521 0.84174 0.12898 0.0
C121 C 0.17431 0.84871 0.14209 0.0
C122 C 0.12969 0.84566 0.16697 0.0
C123 C 0.12176 0.85111 0.18281 0.0
C124 C 0.11081 0.83953 0.19203 0.0
C125 C 0.10709 0.82239 0.1853 0.0
C126 C 0.11471 0.81702 0.16921 0.0
C127 C 0.12596 0.82857 0.16013 0.0
P128 P 0.18624 0.84123 0.81791 0.0
H129 H 0.17027 0.84535 0.78184 0.0
H130 H 0.13955 0.8428 0.7694 0.0
H131 H 0.12113 0.83416 0.82301 0.0
H132 H 0.15173 0.83665 0.8353 0.0
H133 H 0.22217 0.85263 0.8097 0.0
H134 H 0.23716 0.88141 0.81004 0.0
H135 H 0.18833 0.90612 0.82521 0.0
H136 H 0.17324 0.8772 0.82409 0.0
H137 H 0.20251 0.80984 0.8345 0.0
H138 H 0.17657 0.85704 0.85223 0.0
O139 O 0.19715 0.8274 0.80479 0.0
H140 H 0.21039 0.80247 0.86578 0.0
H141 H 0.18398 0.84952 0.8836 0.0
C142 C 0.16333 0.84115 0.80948 0.0
C143 C 0.15957 0.84305 0.79092 0.0
C144 C 0.14204 0.84151 0.78381 0.0
C145 C 0.1279 0.83823 0.7952 0.0
C146 C 0.13169 0.83687 0.81388 0.0
C147 C 0.14925 0.83826 0.82095 0.0
C148 C 0.19651 0.86282 0.81652 0.0
C149 C 0.2146 0.86428 0.81279 0.0
C150 C 0.22323 0.88076 0.81324 0.0
C151 C 0.21402 0.89617 0.81776 0.0
C152 C 0.19581 0.89463 0.82143 0.0
C153 C 0.18715 0.87809 0.82083 0.0
C154 C 0.1891 0.8341 0.841 0.0
C155 C 0.19818 0.81845 0.84513 0.0
C156 C 0.20258 0.81417 0.86308 0.0
C157 C 0.19798 0.82548 0.87723 0.0
C158 C 0.18802 0.84066 0.87303 0.0
C159 C 0.18369 0.84496 0.85509 0.0
P160 P 0.20353 0.21158 0.85872 0.0
H161 H 0.23554 0.22163 0.88063 0.0
H162 H 0.23959 0.23293 0.91149 0.0
H163 H 0.18438 0.22074 0.9207 0.0
H164 H 0.1804 0.20955 0.88977 0.0
H165 H 0.1894 0.19407 0.82603 0.0
H166 H 0.19405 0.16493 0.81288 0.0
H167 H 0.22545 0.15037 0.8605 0.0
H168 H 0.22041 0.17959 0.87374 0.0
H169 H 0.19468 0.24609 0.84358 0.0
H170 H 0.16627 0.19912 0.85918 0.0
O171 O 0.21961 0.22218 0.84814 0.0
H172 H 0.16653 0.25966 0.83391 0.0
H173 H 0.13793 0.21276 0.84967 0.0
C174 C 0.20754 0.21515 0.8827 0.0
C175 C 0.22438 0.22101 0.88939 0.0
C176 C 0.22673 0.2274 0.90712 0.0
C177 C 0.21223 0.22804 0.91848 0.0
C178 C 0.19574 0.22075 0.91217 0.0
C179 C 0.19345 0.21429 0.89447 0.0
C180 C 0.20416 0.18888 0.85108 0.0
C181 C 0.19687 0.18446 0.83388 0.0
C182 C 0.19974 0.16783 0.82626 0.0
C183 C 0.21018 0.15528 0.83558 0.0
C184 C 0.21713 0.15961 0.85304 0.0
C185 C 0.21425 0.17632 0.86066 0.0
C186 C 0.18259 0.22148 0.85183 0.0
C187 C 0.18239 0.23866 0.84487 0.0
C188 C 0.16629 0.24641 0.83933 0.0
C189 C 0.15003 0.23724 0.84092 0.0
C190 C 0.15023 0.22018 0.84834 0.0
C191 C 0.1664 0.21235 0.85369 0.0
P192 P 0.88155 0.17084 0.85999 0.0
H193 H 0.88339 0.13263 0.85387 0.0
H194 H 0.8612 0.11064 0.84321 0.0
H195 H 0.82376 0.15233 0.83139 0.0
H196 H 0.84604 0.17427 0.84218 0.0
H197 H 0.89683 0.20654 0.86222 0.0
H198 H 0.91679 0.22291 0.84327 0.0
H199 H 0.91644 0.17909 0.80561 0.0
H200 H 0.89588 0.16277 0.8246 0.0
H201 H 0.87331 0.1679 0.89796 0.0
H202 H 0.86122 0.20347 0.85413 0.0
O203 O 0.89636 0.1598 0.87283 0.0
H204 H 0.85622 0.18619 0.9181 0.0
H205 H 0.84393 0.2218 0.87418 0.0
C206 C 0.86628 0.15509 0.84911 0.0
C207 C 0.87049 0.13708 0.84879 0.0
C208 C 0.85779 0.1245 0.84262 0.0
C209 C 0.84061 0.12971 0.83666 0.0
C210 C 0.83675 0.14786 0.83622 0.0
C211 C 0.84952 0.16044 0.84229 0.0
C212 C 0.89421 0.1837 0.84449 0.0
C213 C 0.90048 0.20062 0.8496 0.0
C214 C 0.91202 0.20996 0.83878 0.0
C215 C 0.91802 0.20239 0.82281 0.0
C216 C 0.91195 0.1853 0.81778 0.0
C217 C 0.9001 0.17605 0.82853 0.0
C218 C 0.86895 0.18459 0.87469 0.0
C219 C 0.86704 0.17971 0.89269 0.0
C220 C 0.85712 0.19009 0.90415 0.0
C221 C 0.8488 0.20552 0.89778 0.0
C222 C 0.85043 0.21016 0.87959 0.0
C223 C 0.86029 0.1997 0.86811 0.0
P224 P 0.87304 0.88064 0.86633 0.0
H225 H 0.90737 0.88636 0.85016 0.0
H226 H 0.92855 0.86614 0.83702 0.0
H227 H 0.8914 0.82273 0.8432 0.0
H228 H 0.87033 0.84299 0.85635 0.0
H229 H 0.86534 0.91827 0.86241 0.0
H230 H 0.84577 0.93468 0.84163 0.0
H231 H 0.82948 0.88587 0.81481 0.0
H232 H 0.84944 0.86945 0.83556 0.0
H233 H 0.88453 0.8651 0.90034 0.0
H234 H 0.83593 0.86678 0.86728 0.0
O235 O 0.8859 0.89519 0.87806 0.0
H236 H 0.8704 0.84464 0.92081 0.0
H237 H 0.82163 0.84646 0.8878 0.0
C238 C 0.88747 0.86611 0.85458 0.0
C239 C 0.90374 0.87251 0.84855 0.0
C240 C 0.9158 0.86095 0.84098 0.0
C241 C 0.91173 0.84279 0.83929 0.0
C242 C 0.89505 0.83658 0.84466 0.0
C243 C 0.88297 0.84818 0.85212 0.0
C244 C 0.8588 0.8926 0.85059 0.0
C245 C 0.85771 0.91106 0.85198 0.0
C246 C 0.84661 0.92048 0.83999 0.0
C247 C 0.83615 0.91158 0.82653 0.0
C248 C 0.83736 0.89307 0.82508 0.0
C249 C 0.84872 0.88368 0.83692 0.0
C250 C 0.86125 0.86768 0.88241 0.0
C251 C 0.87068 0.86135 0.89769 0.0
C252 C 0.86258 0.84965 0.9094 0.0
C253 C 0.84487 0.84389 0.90597 0.0
C254 C 0.83535 0.85049 0.89075 0.0
C255 C 0.84348 0.86224 0.87904 0.0
P256 P 0.19956 0.70277 0.68048 0.0
H257 H 0.17956 0.73253 0.69381 0.0
H258 H 0.15029 0.73513 0.70648 0.0
H259 H 0.14259 0.67854 0.70142 0.0
H260 H 0.17147 0.67617 0.68807 0.0
H261 H 0.22951 0.69169 0.7041 0.0
H262 H 0.24368 0.6634 0.70948 0.0
H263 H 0.20556 0.63826 0.67181 0.0
H264 H 0.19202 0.66698 0.66578 0.0
H265 H 0.18319 0.7321 0.66069 0.0
H266 H 0.21513 0.6869 0.64831 0.0
O267 O 0.21257 0.71814 0.69082 0.0
H268 H 0.18502 0.74217 0.62954 0.0
H269 H 0.21645 0.69662 0.61723 0.0
C270 C 0.17785 0.70417 0.68999 0.0
C271 C 0.17155 0.72067 0.69535 0.0
C272 C 0.15484 0.72212 0.70279 0.0
C273 C 0.14405 0.70703 0.70514 0.0
C274 C 0.1504 0.69048 0.69965 0.0
C275 C 0.16708 0.68909 0.69207 0.0
C276 C 0.20963 0.68149 0.68457 0.0
C277 C 0.22419 0.68014 0.69693 0.0
C278 C 0.23223 0.66384 0.70011 0.0
C279 C 0.22573 0.64842 0.69119 0.0
C280 C 0.21109 0.64984 0.67879 0.0
C281 C 0.20317 0.66623 0.67548 0.0
C282 C 0.19855 0.70843 0.65686 0.0
C283 C 0.19016 0.72406 0.65124 0.0
C284 C 0.1913 0.72989 0.63346 0.0
C285 C 0.20072 0.72008 0.62095 0.0
C286 C 0.2088 0.70426 0.6265 0.0
C287 C 0.20795 0.69863 0.64434 0.0
P288 P 0.86861 0.67623 0.6401 0.0
H289 H 0.89061 0.67133 0.67297 0.0
H290 H 0.9131 0.68971 0.68899 0.0
H291 H 0.90523 0.73073 0.64941 0.0
H292 H 0.88238 0.71223 0.63343 0.0
H293 H 0.85703 0.63927 0.63742 0.0
H294 H 0.84316 0.61922 0.65852 0.0
H295 H 0.84057 0.66186 0.69733 0.0
H296 H 0.85439 0.68195 0.67602 0.0
H297 H 0.85846 0.67451 0.60152 0.0
H298 H 0.84317 0.70394 0.64823 0.0
O299 O 0.8806 0.66358 0.62678 0.0
H300 H 0.83783 0.69151 0.58243 0.0
H301 H 0.82207 0.7208 0.62925 0.0
C302 C 0.88426 0.69066 0.6524 0.0
C303 C 0.89336 0.68443 0.66792 0.0
C304 C 0.9063 0.69494 0.67704 0.0
C305 C 0.91077 0.71178 0.6706 0.0
C306 C 0.90201 0.71785 0.65474 0.0
C307 C 0.88884 0.70735 0.6457 0.0
C308 C 0.8571 0.66199 0.6553 0.0
C309 C 0.85344 0.64434 0.65043 0.0
C310 C 0.84544 0.6329 0.66249 0.0
C311 C 0.84094 0.63892 0.67967 0.0
C312 C 0.84417 0.65678 0.68432 0.0
C313 C 0.85199 0.66827 0.67213 0.0
C314 C 0.85256 0.68817 0.62627 0.0
C315 C 0.85055 0.68455 0.60772 0.0
C316 C 0.83856 0.69417 0.5968 0.0
C317 C 0.82829 0.70759 0.60424 0.0
C318 C 0.82995 0.71074 0.623 0.0
C319 C 0.84196 0.7011 0.6339 0.0
P320 P 0.86502 0.4018 0.67373 0.0
H321 H 0.86546 0.41654 0.71032 0.0
H322 H 0.84484 0.43488 0.72619 0.0
H323 H 0.80819 0.43337 0.67973 0.0
H324 H 0.82902 0.41449 0.66381 0.0
H325 H 0.90409 0.4022 0.67441 0.0
H326 H 0.92672 0.38931 0.69481 0.0
H327 H 0.88525 0.36631 0.72609 0.0
H328 H 0.8626 0.37926 0.70552 0.0
H329 H 0.87599 0.38842 0.6392 0.0
H330 H 0.83533 0.3762 0.67658 0.0
O331 O 0.87493 0.41684 0.66107 0.0
H332 H 0.86601 0.36357 0.62007 0.0
H333 H 0.8249 0.35136 0.65723 0.0
C334 C 0.84851 0.41347 0.6861 0.0
C335 C 0.8528 0.41961 0.70364 0.0
C336 C 0.841 0.43025 0.7127 0.0
C337 C 0.82475 0.43541 0.70431 0.0
C338 C 0.82056 0.42954 0.68658 0.0
C339 C 0.83236 0.41863 0.67755 0.0
C340 C 0.88166 0.392 0.68868 0.0
C341 C 0.89984 0.39443 0.68567 0.0
C342 C 0.91278 0.38696 0.69728 0.0
C343 C 0.90778 0.3769 0.71215 0.0
C344 C 0.88952 0.37422 0.71492 0.0
C345 C 0.87658 0.38156 0.70317 0.0
C346 C 0.85609 0.38445 0.65905 0.0
C347 C 0.86464 0.38058 0.6431 0.0
C348 C 0.85889 0.36633 0.63214 0.0
C349 C 0.84453 0.3555 0.63698 0.0
C350 C 0.83605 0.35935 0.65312 0.0
C351 C 0.84186 0.37366 0.6641 0.0
P352 P 0.1587 0.38089 0.67388 0.0
H353 H 0.16548 0.41905 0.67467 0.0
H354 H 0.1849 0.43816 0.6938 0.0
H355 H 0.20003 0.39326 0.72627 0.0
H356 H 0.18026 0.37419 0.70733 0.0
H357 H 0.15508 0.37299 0.63531 0.0
H358 H 0.17567 0.36166 0.6136 0.0
H359 H 0.21531 0.3541 0.65674 0.0
H360 H 0.19474 0.36583 0.67832 0.0
H361 H 0.12059 0.37874 0.6801 0.0
H362 H 0.16717 0.34768 0.69288 0.0
O363 O 0.14486 0.39366 0.66169 0.0
H364 H 0.10233 0.35821 0.69677 0.0
H365 H 0.14889 0.32725 0.71012 0.0
C366 C 0.17129 0.39514 0.68958 0.0
C367 C 0.17263 0.41332 0.68614 0.0
C368 C 0.18371 0.42429 0.69712 0.0
C369 C 0.19395 0.41721 0.71155 0.0
C370 C 0.19229 0.39906 0.71523 0.0
C371 C 0.18097 0.38815 0.7044 0.0
C372 C 0.17345 0.37062 0.65842 0.0
C373 C 0.16818 0.36885 0.64013 0.0
C374 C 0.17996 0.36224 0.62772 0.0
C375 C 0.19726 0.35709 0.63336 0.0
C376 C 0.20224 0.35827 0.65185 0.0
C377 C 0.19043 0.36491 0.66426 0.0
C378 C 0.14529 0.3648 0.68525 0.0
C379 C 0.1269 0.36741 0.68633 0.0
C380 C 0.11641 0.35559 0.6958 0.0
C381 C 0.12415 0.34107 0.70468 0.0
C382 C 0.14257 0.33834 0.70341 0.0
C383 C 0.15303 0.35004 0.69363 0.0
P384 P 0.18786 0.31779 0.33472 0.0
H385 H 0.17588 0.3007 0.30089 0.0
H386 H 0.14665 0.29177 0.28828 0.0
H387 H 0.12269 0.30915 0.3372 0.0
H388 H 0.15208 0.31861 0.3495 0.0
H389 H 0.20637 0.34736 0.35435 0.0
H390 H 0.21221 0.37803 0.34592 0.0
H391 H 0.18115 0.36955 0.29609 0.0
H392 H 0.17475 0.33947 0.305 0.0
H393 H 0.20881 0.2893 0.35072 0.0
H394 H 0.17636 0.33158 0.36973 0.0
O395 O 0.20325 0.30835 0.32236 0.0
H396 H 0.21614 0.28073 0.38157 0.0
H397 H 0.1829 0.32249 0.40092 0.0
C398 C 0.16625 0.30993 0.32633 0.0
C399 C 0.16439 0.30242 0.30902 0.0
C400 C 0.14761 0.2973 0.3018 0.0
C401 C 0.13227 0.29961 0.31175 0.0
C402 C 0.13418 0.30731 0.32908 0.0
C403 C 0.15102 0.31252 0.33626 0.0
C404 C 0.18969 0.3412 0.33057 0.0
C405 C 0.20035 0.35231 0.3419 0.0
C406 C 0.20389 0.36981 0.33691 0.0
C407 C 0.19716 0.37642 0.32028 0.0
C408 C 0.18623 0.36523 0.30918 0.0
C409 C 0.18258 0.34788 0.31426 0.0
C410 C 0.19228 0.31131 0.35788 0.0
C411 C 0.20312 0.2967 0.36157 0.0
C412 C 0.20713 0.29162 0.37933 0.0
C413 C 0.20016 0.30086 0.39392 0.0
C414 C 0.18879 0.3152 0.39012 0.0
C415 C 0.18492 0.32038 0.37226 0.0
P416 P 0.19824 0.67193 0.342 0.0
H417 H 0.23346 0.68105 0.35795 0.0
H418 H 0.24382 0.69011 0.38838 0.0
H419 H 0.19028 0.68362 0.40663 0.0
H420 H 0.18 0.67453 0.37613 0.0
H421 H 0.18402 0.64851 0.31298 0.0
H422 H 0.19182 0.61846 0.30387 0.0
H423 H 0.22695 0.61446 0.35121 0.0
H424 H 0.21896 0.64421 0.36038 0.0
H425 H 0.18673 0.708 0.33874 0.0
H426 H 0.16152 0.65645 0.33786 0.0
O427 O 0.21164 0.68225 0.32799 0.0
H428 H 0.15765 0.72183 0.33505 0.0
H429 H 0.13214 0.67032 0.33388 0.0
C430 C 0.2059 0.67751 0.36472 0.0
C431 C 0.22396 0.68153 0.36851 0.0
C432 C 0.2299 0.68656 0.38594 0.0
C433 C 0.21784 0.68769 0.39987 0.0
C434 C 0.19983 0.6831 0.39611 0.0
C435 C 0.19395 0.67791 0.3787 0.0
C436 C 0.2005 0.64855 0.3376 0.0
C437 C 0.19291 0.64095 0.32172 0.0
C438 C 0.19746 0.6238 0.31648 0.0
C439 C 0.21005 0.61412 0.32681 0.0
C440 C 0.2173 0.62162 0.34292 0.0
C441 C 0.21257 0.63864 0.34826 0.0
C442 C 0.17634 0.68119 0.3382 0.0
C443 C 0.1749 0.69963 0.33756 0.0
C444 C 0.15825 0.70755 0.33559 0.0
C445 C 0.14258 0.69718 0.33419 0.0
C446 C 0.144 0.67864 0.33476 0.0
C447 C 0.16077 0.67069 0.33698 0.0
P448 P 0.87217 0.66392 0.35525 0.0
H449 H 0.87684 0.62585 0.35795 0.0
H450 H 0.85785 0.60053 0.35033 0.0
H451 H 0.81608 0.63545 0.33127 0.0
H452 H 0.83582 0.66099 0.33822 0.0
H453 H 0.89545 0.65004 0.32821 0.0
H454 H 0.91218 0.66417 0.3046 0.0
H455 H 0.88672 0.71375 0.31626 0.0
H456 H 0.86921 0.6992 0.33854 0.0
H457 H 0.83709 0.66707 0.37229 0.0
H458 H 0.88665 0.69642 0.37123 0.0
O459 O 0.88952 0.65604 0.36735 0.0
H460 H 0.82578 0.68858 0.39353 0.0
H461 H 0.87536 0.71808 0.39228 0.0
C462 C 0.8576 0.64539 0.34913 0.0
C463 C 0.86359 0.62817 0.35221 0.0
C464 C 0.85257 0.6136 0.34795 0.0
C465 C 0.83516 0.61582 0.34057 0.0
C466 C 0.82935 0.63315 0.33697 0.0
C467 C 0.84057 0.6478 0.34106 0.0
C468 C 0.88137 0.67362 0.33544 0.0
C469 C 0.8932 0.66386 0.3253 0.0
C470 C 0.90295 0.67206 0.31193 0.0
C471 C 0.90123 0.6903 0.3086 0.0
C472 C 0.88847 0.6997 0.31814 0.0
C473 C 0.87851 0.6914 0.33121 0.0
C474 C 0.86259 0.68035 0.3697 0.0
C475 C 0.84542 0.67832 0.37624 0.0
C476 C 0.83895 0.69066 0.38847 0.0
C477 C 0.84963 0.70512 0.3946 0.0
C478 C 0.86681 0.70706 0.38799 0.0
C479 C 0.87323 0.69475 0.37579 0.0
P480 P 0.881 0.36467 0.38809 0.0
H481 H 0.9194 0.35914 0.38673 0.0
H482 H 0.93716 0.33654 0.37262 0.0
H483 H 0.88889 0.30945 0.35348 0.0
H484 H 0.87114 0.33231 0.36752 0.0
H485 H 0.85927 0.39589 0.39072 0.0
H486 H 0.84845 0.41746 0.36869 0.0
H487 H 0.87138 0.38706 0.3261 0.0
H488 H 0.88268 0.36591 0.34832 0.0
H489 H 0.87825 0.35931 0.42683 0.0
H490 H 0.84545 0.34988 0.37848 0.0
O491 O 0.89448 0.37698 0.40171 0.0
H492 H 0.85526 0.34596 0.44489 0.0
H493 H 0.82242 0.33623 0.39652 0.0
C494 C 0.89392 0.3473 0.37842 0.0
C495 C 0.91259 0.34826 0.37967 0.0
C496 C 0.92276 0.33526 0.37164 0.0
C497 C 0.91446 0.3211 0.36201 0.0
C498 C 0.8957 0.32022 0.36073 0.0
C499 C 0.88553 0.3332 0.36887 0.0
C500 C 0.87169 0.37927 0.37119 0.0
C501 C 0.86183 0.39381 0.37661 0.0
C502 C 0.85557 0.40609 0.36396 0.0
C503 C 0.85901 0.40403 0.34557 0.0
C504 C 0.86868 0.3892 0.34016 0.0
C505 C 0.87502 0.37697 0.35287 0.0
C506 C 0.86354 0.3556 0.40131 0.0
C507 C 0.86601 0.35453 0.42011 0.0
C508 C 0.8528 0.34702 0.43045 0.0
C509 C 0.83698 0.34016 0.42214 0.0
C510 C 0.83448 0.34141 0.40329 0.0
C511 C 0.84763 0.34914 0.39297 0.0
P512 P 0.71168 0.19345 0.69557 0.0
H513 H 0.70349 0.20851 0.73056 0.0
H514 H 0.67571 0.21735 0.7438 0.0
H515 H 0.64625 0.20029 0.69537 0.0
H516 H 0.67418 0.19172 0.682 0.0
H517 H 0.74242 0.17241 0.70747 0.0
H518 H 0.74604 0.14101 0.71353 0.0
H519 H 0.6921 0.13094 0.69289 0.0
H520 H 0.68834 0.16249 0.68769 0.0
H521 H 0.72801 0.22461 0.67986 0.0
H522 H 0.69697 0.17935 0.66077 0.0
O523 O 0.72822 0.20357 0.70756 0.0
H524 H 0.73113 0.23431 0.64896 0.0
H525 H 0.69924 0.18943 0.62977 0.0
C526 C 0.69098 0.19966 0.70518 0.0
C527 C 0.6911 0.20675 0.7227 0.0
C528 C 0.67521 0.21181 0.73028 0.0
C529 C 0.65883 0.20959 0.72058 0.0
C530 C 0.65868 0.20208 0.70318 0.0
C531 C 0.67464 0.19724 0.6955 0.0
C532 C 0.71497 0.1699 0.69746 0.0
C533 C 0.73138 0.16345 0.70414 0.0
C534 C 0.73352 0.14539 0.70743 0.0
C535 C 0.71931 0.13336 0.7039 0.0
C536 C 0.70322 0.13982 0.69616 0.0
C537 C 0.70106 0.15791 0.69306 0.0
C538 C 0.71264 0.20101 0.67263 0.0
C539 C 0.72171 0.21681 0.66901 0.0
C540 C 0.72327 0.22251 0.65128 0.0
C541 C 0.71553 0.21263 0.63675 0.0
C542 C 0.7057 0.1972 0.64055 0.0
C543 C 0.70433 0.19142 0.65832 0.0
P544 P 0.3699 0.17772 0.66436 0.0
H545 H 0.38777 0.21196 0.65804 0.0
H546 H 0.40946 0.22981 0.67641 0.0
H547 H 0.40752 0.19104 0.71874 0.0
H548 H 0.38606 0.17358 0.70065 0.0
H549 H 0.37406 0.14008 0.67218 0.0
H550 H 0.36158 0.12088 0.69481 0.0
H551 H 0.32815 0.16347 0.71176 0.0
H552 H 0.34105 0.18275 0.68931 0.0
H553 H 0.3567 0.17337 0.62687 0.0
H554 H 0.3487 0.20933 0.67104 0.0
O555 O 0.38258 0.16595 0.65091 0.0
H556 H 0.33764 0.19132 0.60704 0.0
H557 H 0.32892 0.22697 0.65154 0.0
C558 C 0.38479 0.19171 0.67817 0.0
C559 C 0.39184 0.20749 0.67141 0.0
C560 C 0.40435 0.21759 0.68183 0.0
C561 C 0.41003 0.212 0.69917 0.0
C562 C 0.40311 0.19601 0.70567 0.0
C563 C 0.39074 0.18597 0.69527 0.0
C564 C 0.35826 0.16278 0.6788 0.0
C565 C 0.36378 0.14521 0.6805 0.0
C566 C 0.35662 0.13421 0.69349 0.0
C567 C 0.34385 0.1406 0.70517 0.0
C568 C 0.33809 0.15816 0.70315 0.0
C569 C 0.34528 0.16915 0.69013 0.0
C570 C 0.35443 0.19022 0.65035 0.0
C571 C 0.35067 0.18505 0.63237 0.0
C572 C 0.33956 0.19524 0.62106 0.0
C573 C 0.33181 0.21075 0.62756 0.0
C574 C 0.33493 0.21534 0.64591 0.0
C575 C 0.34617 0.20521 0.65715 0.0
P576 P 0.34878 0.90521 0.66943 0.0
H577 H 0.3232 0.93184 0.65714 0.0
H578 H 0.30169 0.94983 0.67275 0.0
H579 H 0.31622 0.92343 0.72262 0.0
H580 H 0.337 0.90523 0.70688 0.0
H581 H 0.38522 0.91808 0.67816 0.0
H582 H 0.40954 0.90663 0.69736 0.0
H583 H 0.37464 0.86495 0.71515 0.0
H584 H 0.35059 0.87614 0.69529 0.0
H585 H 0.31386 0.89757 0.65111 0.0
H586 H 0.3648 0.87222 0.6579 0.0
O587 O 0.35792 0.91897 0.65487 0.0
H588 H 0.30335 0.87373 0.6308 0.0
H589 H 0.35416 0.84795 0.63849 0.0
C590 C 0.33187 0.91727 0.68082 0.0
C591 C 0.32158 0.92982 0.67141 0.0
C592 C 0.30934 0.94018 0.68039 0.0
C593 C 0.30718 0.93819 0.69901 0.0
C594 C 0.31723 0.92521 0.70824 0.0
C595 C 0.32933 0.91481 0.69923 0.0
C596 C 0.36615 0.89785 0.68515 0.0
C597 C 0.38277 0.90652 0.68624 0.0
C598 C 0.39667 0.90001 0.69737 0.0
C599 C 0.39415 0.88475 0.70776 0.0
C600 C 0.37721 0.8765 0.70709 0.0
C601 C 0.36338 0.88296 0.69586 0.0
C602 C 0.33998 0.88652 0.65645 0.0
C603 C 0.32265 0.88669 0.64862 0.0
C604 C 0.31663 0.87296 0.63701 0.0
C605 C 0.32788 0.85882 0.63294 0.0
C606 C 0.34517 0.85868 0.64104 0.0
C607 C 0.35121 0.87248 0.65244 0.0
P608 P 0.64401 0.87104 0.65007 0.0
H609 H 0.64797 0.90955 0.65278 0.0
H610 H 0.66324 0.92922 0.67485 0.0
H611 H 0.68035 0.88404 0.70593 0.0
H612 H 0.66478 0.86435 0.68394 0.0
H613 H 0.6405 0.85787 0.61316 0.0
H614 H 0.66194 0.84711 0.59202 0.0
H615 H 0.70345 0.84988 0.6342 0.0
H616 H 0.682 0.86115 0.6551 0.0
H617 H 0.60568 0.86999 0.65511 0.0
H618 H 0.65102 0.83777 0.66941 0.0
O619 O 0.63096 0.88357 0.63676 0.0
H620 H 0.58658 0.8508 0.67241 0.0
H621 H 0.63191 0.81862 0.68721 0.0
C622 C 0.6551 0.88543 0.66672 0.0
C623 C 0.65484 0.90382 0.6644 0.0
C624 C 0.66354 0.91509 0.67705 0.0
C625 C 0.67293 0.90817 0.69214 0.0
C626 C 0.67327 0.88974 0.6944 0.0
C627 C 0.66431 0.87848 0.68186 0.0
C628 C 0.65965 0.86063 0.63564 0.0
C629 C 0.65419 0.85605 0.6179 0.0
C630 C 0.66649 0.84978 0.60583 0.0
C631 C 0.68453 0.84777 0.6113 0.0
C632 C 0.68977 0.85162 0.62938 0.0
C633 C 0.67744 0.85797 0.64144 0.0
C634 C 0.6298 0.8553 0.66092 0.0
C635 C 0.6115 0.85859 0.66171 0.0
C636 C 0.60053 0.84755 0.67156 0.0
C637 C 0.60771 0.83316 0.68113 0.0
C638 C 0.626 0.82963 0.67998 0.0
C639 C 0.63694 0.84056 0.66986 0.0
P640 P 0.67005 0.82753 0.31793 0.0
H641 H 0.65209 0.80951 0.28709 0.0
H642 H 0.62116 0.8007 0.28031 0.0
H643 H 0.60612 0.82465 0.33044 0.0
H644 H 0.63729 0.83271 0.33743 0.0
H645 H 0.70278 0.84747 0.31259 0.0
H646 H 0.7087 0.87733 0.30175 0.0
H647 H 0.65221 0.88784 0.30037 0.0
H648 H 0.6464 0.85792 0.31079 0.0
H649 H 0.68706 0.79718 0.33536 0.0
H650 H 0.6669 0.84766 0.35167 0.0
O651 O 0.68272 0.81527 0.3049 0.0
H652 H 0.69791 0.79167 0.36625 0.0
H653 H 0.67702 0.84197 0.38284 0.0
C654 C 0.64706 0.82134 0.31299 0.0
C655 C 0.64216 0.81275 0.29669 0.0
C656 C 0.62437 0.80794 0.29269 0.0
C657 C 0.61106 0.81187 0.30485 0.0
C658 C 0.61602 0.82107 0.32092 0.0
C659 C 0.63385 0.8257 0.32497 0.0
C660 C 0.67416 0.85034 0.31227 0.0
C661 C 0.69169 0.85627 0.31009 0.0
C662 C 0.69506 0.8734 0.30397 0.0
C663 C 0.68091 0.88498 0.29999 0.0
C664 C 0.66339 0.87918 0.30294 0.0
C665 C 0.66006 0.86204 0.30904 0.0
C666 C 0.67656 0.82303 0.34114 0.0
C667 C 0.68481 0.80703 0.34566 0.0
C668 C 0.69084 0.80379 0.36343 0.0
C669 C 0.68853 0.81642 0.37713 0.0
C670 C 0.67941 0.83209 0.37263 0.0
C671 C 0.67354 0.83537 0.3548 0.0
P672 P 0.69675 0.18436 0.33548 0.0
H673 H 0.71741 0.21461 0.35017 0.0
H674 H 0.73025 0.22146 0.38014 0.0
H675 H 0.70493 0.17464 0.40091 0.0
H676 H 0.69246 0.16763 0.37057 0.0
H677 H 0.73107 0.16797 0.33099 0.0
H678 H 0.7402 0.13756 0.3258 0.0
H679 H 0.68505 0.12038 0.32662 0.0
H680 H 0.6763 0.15064 0.33292 0.0
H681 H 0.66943 0.20481 0.35402 0.0
H682 H 0.67298 0.17388 0.3053 0.0
O683 O 0.70796 0.19665 0.32109 0.0
H684 H 0.63825 0.21166 0.34559 0.0
H685 H 0.64205 0.18054 0.2969 0.0
C686 C 0.70412 0.19052 0.35812 0.0
C687 C 0.71448 0.20587 0.36117 0.0
C688 C 0.72176 0.20983 0.3784 0.0
C689 C 0.71871 0.19856 0.39299 0.0
C690 C 0.70779 0.18346 0.38995 0.0
C691 C 0.70053 0.1795 0.37266 0.0
C692 C 0.70296 0.16167 0.33182 0.0
C693 C 0.72097 0.15761 0.33006 0.0
C694 C 0.72615 0.14018 0.32698 0.0
C695 C 0.71339 0.12638 0.32552 0.0
C696 C 0.69534 0.13052 0.32779 0.0
C697 C 0.69023 0.14794 0.33113 0.0
C698 C 0.67336 0.18831 0.33057 0.0
C699 C 0.66345 0.19926 0.34167 0.0
C700 C 0.64569 0.20332 0.33676 0.0
C701 C 0.63759 0.19646 0.32069 0.0
C702 C 0.64773 0.18572 0.30956 0.0
C703 C 0.66542 0.18185 0.31437 0.0
P704 P 0.36503 0.16217 0.37244 0.0
H705 H 0.35454 0.1267 0.38358 0.0
H706 H 0.33269 0.10524 0.37148 0.0
H707 H 0.31389 0.1435 0.3323 0.0
H708 H 0.33648 0.16475 0.34416 0.0
H709 H 0.37782 0.14715 0.33921 0.0
H710 H 0.39685 0.15886 0.3161 0.0
H711 H 0.39695 0.21012 0.34232 0.0
H712 H 0.37727 0.1986 0.36463 0.0
H713 H 0.32958 0.17494 0.38262 0.0
H714 H 0.38487 0.18543 0.3974 0.0
O715 O 0.38044 0.15012 0.38337 0.0
H716 H 0.32069 0.19619 0.40549 0.0
H717 H 0.37626 0.2073 0.4195 0.0
C718 C 0.34734 0.14723 0.36458 0.0
C719 C 0.3457 0.13053 0.37242 0.0
C720 C 0.33301 0.11826 0.36556 0.0
C721 C 0.32148 0.12251 0.3508 0.0
C722 C 0.32273 0.1396 0.34344 0.0
C723 C 0.33556 0.15183 0.35027 0.0
C724 C 0.37604 0.17194 0.35369 0.0
C725 C 0.3816 0.16102 0.33971 0.0
C726 C 0.3927 0.1677 0.32661 0.0
C727 C 0.39871 0.18542 0.3274 0.0
C728 C 0.39252 0.19647 0.34109 0.0
C729 C 0.38129 0.18981 0.35405 0.0
C730 C 0.3579 0.17852 0.38838 0.0
C731 C 0.33982 0.18194 0.39065 0.0
C732 C 0.33477 0.19424 0.40367 0.0
C733 C 0.34773 0.20347 0.41453 0.0
C734 C 0.36584 0.20022 0.41179 0.0
C735 C 0.37082 0.18778 0.39901 0.0
P736 P 0.3616 0.86498 0.36954 0.0
H737 H 0.39977 0.86223 0.36368 0.0
H738 H 0.41769 0.8393 0.35037 0.0
H739 H 0.36977 0.80898 0.33651 0.0
H740 H 0.35195 0.83185 0.3504 0.0
H741 H 0.36352 0.90218 0.35891 0.0
H742 H 0.34366 0.92054 0.34039 0.0
H743 H 0.31122 0.87448 0.32619 0.0
H744 H 0.3309 0.85628 0.34525 0.0
H745 H 0.36487 0.8324 0.39033 0.0
H746 H 0.32769 0.87522 0.38477 0.0
O747 O 0.37547 0.87845 0.38147 0.0
H748 H 0.34673 0.819 0.41311 0.0
H749 H 0.3093 0.86173 0.40759 0.0
C750 C 0.37452 0.84872 0.35811 0.0
C751 C 0.39308 0.85071 0.35771 0.0
C752 C 0.40333 0.83759 0.34998 0.0
C753 C 0.39521 0.82223 0.34238 0.0
C754 C 0.37651 0.8205 0.34246 0.0
C755 C 0.36627 0.83365 0.35022 0.0
C756 C 0.34859 0.87788 0.3536 0.0
C757 C 0.35227 0.89597 0.35164 0.0
C758 C 0.34096 0.90646 0.3409 0.0
C759 C 0.32575 0.89904 0.33188 0.0
C760 C 0.32266 0.88068 0.33316 0.0
C761 C 0.33397 0.87022 0.34395 0.0
C762 C 0.34735 0.8545 0.38537 0.0
C763 C 0.3526 0.83874 0.39372 0.0
C764 C 0.34218 0.83108 0.40678 0.0
C765 C 0.32641 0.83917 0.412 0.0
C766 C 0.32134 0.85516 0.40384 0.0
C767 C 0.33177 0.86279 0.39068 0.0
P768 P 0.68891 0.68521 0.19442 0.0
H769 H 0.6739 0.67756 0.22877 0.0
H770 H 0.64368 0.67799 0.23951 0.0
H771 H 0.62343 0.68994 0.1856 0.0
H772 H 0.65394 0.68998 0.17511 0.0
H773 H 0.72644 0.67669 0.19763 0.0
H774 H 0.74245 0.64881 0.1993 0.0
H775 H 0.69217 0.62022 0.19839 0.0
H776 H 0.67629 0.64821 0.19617 0.0
H777 H 0.69768 0.71926 0.17829 0.0
H778 H 0.68667 0.66582 0.16003 0.0
O779 O 0.69938 0.69999 0.20807 0.0
H780 H 0.70793 0.72689 0.14851 0.0
H781 H 0.69681 0.67338 0.13011 0.0
C782 C 0.66616 0.68378 0.20119 0.0
C783 C 0.66292 0.68012 0.21924 0.0
C784 C 0.64558 0.68026 0.22533 0.0
C785 C 0.63102 0.68401 0.21346 0.0
C786 C 0.63431 0.68724 0.1952 0.0
C787 C 0.65175 0.68715 0.18912 0.0
C788 C 0.70022 0.66452 0.19725 0.0
C789 C 0.71889 0.66441 0.19801 0.0
C790 C 0.72802 0.64845 0.19896 0.0
C791 C 0.71862 0.63225 0.19909 0.0
C792 C 0.69984 0.63244 0.19817 0.0
C793 C 0.69072 0.64845 0.19714 0.0
C794 C 0.69172 0.6919 0.17145 0.0
C795 C 0.69707 0.70927 0.16774 0.0
C796 C 0.70289 0.71363 0.15067 0.0
C797 C 0.70346 0.70066 0.13701 0.0
C798 C 0.69685 0.68358 0.14044 0.0
C799 C 0.69094 0.67927 0.1575 0.0
P800 P 0.34267 0.65787 0.14076 0.0
H801 H 0.37989 0.66859 0.13655 0.0
H802 H 0.40221 0.68304 0.15694 0.0
H803 H 0.36287 0.68761 0.19748 0.0
H804 H 0.34075 0.67291 0.17711 0.0
H805 H 0.30432 0.65771 0.14863 0.0
H806 H 0.2858 0.6371 0.16478 0.0
H807 H 0.33246 0.60649 0.1793 0.0
H808 H 0.35071 0.62669 0.1621 0.0
H809 H 0.31408 0.65294 0.11315 0.0
H810 H 0.34313 0.69674 0.13837 0.0
O811 O 0.35357 0.64512 0.12659 0.0
H812 H 0.29666 0.67357 0.0945 0.0
H813 H 0.32657 0.71726 0.11932 0.0
C814 C 0.35884 0.66921 0.15554 0.0
C815 C 0.3761 0.67268 0.14985 0.0
C816 C 0.3888 0.68112 0.16144 0.0
C817 C 0.38439 0.68633 0.17892 0.0
C818 C 0.36681 0.68347 0.18424 0.0
C819 C 0.35414 0.67506 0.17263 0.0
C820 C 0.32887 0.64352 0.1538 0.0
C821 C 0.31057 0.64648 0.15509 0.0
C822 C 0.29998 0.63473 0.16459 0.0
C823 C 0.30753 0.61995 0.17332 0.0
C824 C 0.32603 0.61741 0.17242 0.0
C825 C 0.33655 0.62905 0.16271 0.0
C826 C 0.32973 0.67328 0.12734 0.0
C827 C 0.3167 0.667 0.11466 0.0
C828 C 0.30685 0.67881 0.1039 0.0
C829 C 0.31005 0.69716 0.10543 0.0
C830 C 0.32334 0.7033 0.11803 0.0
C831 C 0.333 0.6915 0.12891 0.0
P832 P 0.37032 0.36666 0.18377 0.0
H833 H 0.37847 0.40038 0.20193 0.0
H834 H 0.36153 0.41957 0.22131 0.0
H835 H 0.31821 0.38134 0.21935 0.0
H836 H 0.33534 0.36211 0.20027 0.0
H837 H 0.37809 0.32925 0.17647 0.0
H838 H 0.4009 0.30969 0.18834 0.0
H839 H 0.41907 0.35007 0.22659 0.0
H840 H 0.39523 0.36943 0.21521 0.0
H841 H 0.36435 0.37392 0.14528 0.0
H842 H 0.34432 0.33691 0.18365 0.0
O843 O 0.38413 0.38038 0.17349 0.0
H844 H 0.3469 0.35917 0.12113 0.0
H845 H 0.32603 0.32248 0.15956 0.0
C846 C 0.35808 0.37991 0.1993 0.0
C847 C 0.36534 0.39608 0.2057 0.0
C848 C 0.3556 0.40711 0.21673 0.0
C849 C 0.3384 0.40213 0.22176 0.0
C850 C 0.33144 0.38559 0.21585 0.0
C851 C 0.34121 0.37457 0.20478 0.0
C852 C 0.38457 0.35077 0.19516 0.0
C853 C 0.38642 0.33379 0.18786 0.0
C854 C 0.3998 0.32264 0.1945 0.0
C855 C 0.41211 0.32838 0.20823 0.0
C856 C 0.40979 0.34514 0.2161 0.0
C857 C 0.39614 0.35624 0.20958 0.0
C858 C 0.35575 0.35654 0.16635 0.0
C859 C 0.35599 0.36276 0.14861 0.0
C860 C 0.34582 0.35435 0.13474 0.0
C861 C 0.33497 0.33957 0.13828 0.0
C862 C 0.33438 0.33366 0.15622 0.0
C863 C 0.34467 0.34206 0.17009 0.0
P864 P 0.66048 0.37331 0.16756 0.0
H865 H 0.69727 0.38508 0.16312 0.0
H866 H 0.71806 0.40296 0.18184 0.0
H867 H 0.67937 0.4061 0.22313 0.0
H868 H 0.65848 0.38795 0.20419 0.0
H869 H 0.65363 0.36939 0.12862 0.0
H870 H 0.66716 0.35128 0.10563 0.0
H871 H 0.70346 0.3298 0.14633 0.0
H872 H 0.68987 0.34813 0.1693 0.0
H873 H 0.62261 0.36513 0.16219 0.0
H874 H 0.66632 0.34818 0.19717 0.0
O875 O 0.64827 0.38893 0.15742 0.0
H876 H 0.60293 0.34349 0.17562 0.0
H877 H 0.64673 0.32611 0.21053 0.0
C878 C 0.67654 0.38459 0.18252 0.0
C879 C 0.69336 0.38917 0.17638 0.0
C880 C 0.70525 0.3995 0.18709 0.0
C881 C 0.70046 0.40581 0.20408 0.0
C882 C 0.68347 0.40142 0.21013 0.0
C883 C 0.6716 0.39091 0.19941 0.0
C884 C 0.67101 0.36038 0.15059 0.0
C885 C 0.6646 0.36091 0.13259 0.0
C886 C 0.67225 0.35043 0.11947 0.0
C887 C 0.68643 0.33913 0.12413 0.0
C888 C 0.69274 0.33855 0.14225 0.0
C889 C 0.68497 0.34898 0.15539 0.0
C890 C 0.64581 0.35854 0.17899 0.0
C891 C 0.62793 0.35687 0.17294 0.0
C892 C 0.61673 0.34432 0.18049 0.0
C893 C 0.62324 0.333 0.19412 0.0
C894 C 0.64121 0.33477 0.20022 0.0
C895 C 0.65243 0.34737 0.19261 0.0
P896 P 0.6944 0.35447 0.83146 0.0
H897 H 0.67616 0.35721 0.79622 0.0
H898 H 0.6453 0.35144 0.7855 0.0
H899 H 0.63081 0.3417 0.8403 0.0
H900 H 0.66154 0.34771 0.85088 0.0
H901 H 0.73054 0.36666 0.82624 0.0
H902 H 0.7443 0.39594 0.82451 0.0
H903 H 0.69287 0.41978 0.8307 0.0
H904 H 0.67912 0.39023 0.83201 0.0
H905 H 0.70262 0.3203 0.84766 0.0
H906 H 0.69496 0.37378 0.86603 0.0
O907 O 0.70538 0.34079 0.81825 0.0
H908 H 0.71106 0.31151 0.87842 0.0
H909 H 0.70314 0.36504 0.89694 0.0
C910 C 0.67117 0.35281 0.82431 0.0
C911 C 0.66625 0.35407 0.80593 0.0
C912 C 0.64864 0.35064 0.79981 0.0
C913 C 0.63557 0.34596 0.81201 0.0
C914 C 0.64046 0.34541 0.83054 0.0
C915 C 0.6581 0.34879 0.83663 0.0
C916 C 0.70377 0.37629 0.82883 0.0
C917 C 0.72218 0.37819 0.82698 0.0
C918 C 0.73007 0.39496 0.82622 0.0
C919 C 0.71972 0.41026 0.82753 0.0
C920 C 0.7012 0.40829 0.82942 0.0
C921 C 0.69331 0.39142 0.83016 0.0
C922 C 0.69855 0.34776 0.8545 0.0
C923 C 0.7026 0.33012 0.85835 0.0
C924 C 0.70731 0.32509 0.87599 0.0
C925 C 0.70794 0.33761 0.89015 0.0
C926 C 0.70311 0.35515 0.88631 0.0
C927 C 0.69837 0.36015 0.86864 0.0
P928 P 0.6971 0.71822 0.8386 0.0
H929 H 0.72875 0.73582 0.8551 0.0
H930 H 0.73595 0.7471 0.88548 0.0
H931 H 0.68629 0.72548 0.90344 0.0
H932 H 0.67919 0.71409 0.87292 0.0
H933 H 0.70701 0.70085 0.80541 0.0
H934 H 0.71509 0.67063 0.79806 0.0
H935 H 0.70267 0.65452 0.85192 0.0
H936 H 0.69528 0.68508 0.85934 0.0
H937 H 0.68119 0.75077 0.82561 0.0
H938 H 0.66277 0.69954 0.84252 0.0
O939 O 0.70964 0.73039 0.82523 0.0
H940 H 0.65044 0.76016 0.82058 0.0
H941 H 0.63174 0.70891 0.8375 0.0
C942 C 0.70332 0.72428 0.86165 0.0
C943 C 0.71943 0.73338 0.86556 0.0
C944 C 0.72348 0.73997 0.88294 0.0
C945 C 0.71156 0.73746 0.89684 0.0
C946 C 0.69575 0.72766 0.89305 0.0
C947 C 0.69166 0.72116 0.87559 0.0
C948 C 0.70102 0.69533 0.83308 0.0
C949 C 0.70599 0.69081 0.81565 0.0
C950 C 0.71043 0.67341 0.81138 0.0
C951 C 0.70976 0.66004 0.82441 0.0
C952 C 0.70376 0.6645 0.84163 0.0
C953 C 0.69946 0.68198 0.84591 0.0
C954 C 0.67426 0.72432 0.83401 0.0
C955 C 0.67051 0.74144 0.828 0.0
C956 C 0.65291 0.74681 0.82514 0.0
C957 C 0.63866 0.73523 0.82848 0.0
C958 C 0.64244 0.71813 0.83482 0.0
C959 C 0.66014 0.71271 0.83755 0.0
P960 P 0.37548 0.67212 0.85899 0.0
H961 H 0.38602 0.63709 0.8477 0.0
H962 H 0.36939 0.61033 0.83877 0.0
H963 H 0.31992 0.63824 0.84353 0.0
H964 H 0.33678 0.66521 0.852 0.0
H965 H 0.38708 0.70899 0.85674 0.0
H966 H 0.4052 0.72479 0.8356 0.0
H967 H 0.40656 0.67801 0.80198 0.0
H968 H 0.38818 0.66219 0.82325 0.0
H969 H 0.37276 0.67497 0.89807 0.0
H970 H 0.34928 0.69995 0.85089 0.0
O971 O 0.39233 0.66444 0.87195 0.0
H972 H 0.35657 0.69478 0.91741 0.0
H973 H 0.33305 0.72005 0.87027 0.0
C974 C 0.36269 0.65311 0.85073 0.0
C975 C 0.3716 0.63751 0.84671 0.0
C976 C 0.36204 0.62215 0.84175 0.0
C977 C 0.34327 0.62199 0.84076 0.0
C978 C 0.33435 0.63787 0.84415 0.0
C979 C 0.34399 0.65331 0.84907 0.0
C980 C 0.38572 0.68452 0.84137 0.0
C981 C 0.39071 0.70224 0.84454 0.0
C982 C 0.40117 0.71128 0.83242 0.0
C983 C 0.40724 0.70271 0.81699 0.0
C984 C 0.40211 0.68498 0.81373 0.0
C985 C 0.39145 0.67597 0.82582 0.0
C986 C 0.36247 0.68618 0.87303 0.0
C987 C 0.36415 0.68477 0.89185 0.0
C988 C 0.35494 0.69619 0.90292 0.0
C989 C 0.3437 0.70918 0.89541 0.0
C990 C 0.34158 0.71018 0.8765 0.0
C991 C 0.35089 0.69875 0.8654 0.0
P992 P 0.38348 0.37246 0.87781 0.0
H993 H 0.41393 0.38208 0.85707 0.0
H994 H 0.43546 0.36484 0.84079 0.0
H995 H 0.40719 0.31678 0.85376 0.0
H996 H 0.38579 0.33413 0.87018 0.0
H997 H 0.36157 0.40253 0.88597 0.0
H998 H 0.34529 0.42377 0.86714 0.0
H999 H 0.35904 0.39466 0.81947 0.0
H1000 H 0.3755 0.37357 0.83844 0.0
H1001 H 0.39065 0.35718 0.91312 0.0
H1002 H 0.34721 0.35723 0.8732 0.0
O1003 O 0.39613 0.38563 0.89137 0.0
H1004 H 0.37292 0.33903 0.93282 0.0
H1005 H 0.32939 0.33865 0.89273 0.0
C1006 C 0.39838 0.3594 0.86495 0.0
C1007 C 0.41234 0.36784 0.85634 0.0
C1008 C 0.42458 0.35796 0.84696 0.0
C1009 C 0.42308 0.33942 0.84602 0.0
C1010 C 0.40885 0.33102 0.85444 0.0
C1011 C 0.39656 0.34094 0.86377 0.0
C1012 C 0.36992 0.38663 0.86362 0.0
C1013 C 0.36095 0.40065 0.87147 0.0
C1014 C 0.35157 0.41273 0.86067 0.0
C1015 C 0.35094 0.41099 0.84176 0.0
C1016 C 0.35951 0.39655 0.83396 0.0
C1017 C 0.36887 0.38443 0.84481 0.0
C1018 C 0.3701 0.35884 0.8919 0.0
C1019 C 0.37725 0.35326 0.9086 0.0
C1020 C 0.36714 0.34272 0.91979 0.0
C1021 C 0.34969 0.33737 0.91439 0.0
C1022 C 0.34267 0.34274 0.89742 0.0
C1023 C 0.35285 0.35333 0.88622 0.0
Cu1024 Cu 0.27033 0.27441 0.02666 0.0
N1025 N 0.28839 0.27087 0.01047 0.0
N1026 N 0.3076 0.2761 0.98886 0.0
C1027 C 0.29361 0.28226 0.9978 0.0
C1028 C 0.31124 0.26021 0.99625 0.0
C1029 C 0.29942 0.25706 0.00958 0.0
O1030 O 0.25152 0.28941 0.01658 0.0
C1031 C 0.28394 0.30324 0.04777 0.0
O1032 O 0.27933 0.31224 0.03327 0.0
H1033 H 0.28758 0.29502 0.99563 0.0
H1034 H 0.29908 0.24564 0.01824 0.0
N1035 N 0.26023 0.25343 0.03488 0.0
N1036 N 0.24541 0.23568 0.05316 0.0
C1037 C 0.25054 0.25243 0.04968 0.0
C1038 C 0.26123 0.23672 0.02866 0.0
C1039 C 0.25215 0.22571 0.03998 0.0
C1040 C 0.23905 0.28875 1.00427 0.0
O1041 O 0.22868 0.30258 1.00282 0.0
H1042 H 0.24777 0.26378 0.05803 0.0
H1043 H 0.26816 0.23277 0.01683 0.0
O1044 O 0.28121 0.28659 0.04774 0.0
H1045 H 0.32175 0.25148 0.99239 0.0
H1046 H 0.25061 0.21151 0.0386 0.0
Cu1047 Cu 0.75309 0.26465 0.00764 0.0
N1048 N 0.73252 0.26675 0.02273 0.0
N1049 N 0.71393 0.27686 0.04299 0.0
C1050 C 0.72979 0.27923 0.03532 0.0
C1051 C 0.70651 0.26234 0.03485 0.0
C1052 C 0.71804 0.25612 0.02236 0.0
O1053 O 0.76641 0.25126 0.02756 0.0
C1054 C 0.74186 0.29253 0.98233 0.0
O1055 O 0.75359 0.30241 0.99155 0.0
H1056 H 0.73906 0.28999 0.03853 0.0
H1057 H 0.71601 0.24471 0.0136 0.0
N1058 N 0.77373 0.26272 0.99263 0.0
N1059 N 0.79277 0.25282 0.97271 0.0
C1060 C 0.77735 0.24966 0.98096 0.0
C1061 C 0.78723 0.27448 0.99186 0.0
C1062 C 0.799 0.26843 0.97955 0.0
C1063 C 0.77424 0.25836 0.04138 0.0
O1064 O 0.77402 0.27562 0.04345 0.0
H1065 H 0.76875 0.23823 0.97845 0.0
H1066 H 0.78843 0.28656 0.99975 0.0
O1067 O 0.73928 0.2766 0.98703 0.0
H1068 H 0.69373 0.25651 0.03781 0.0
H1069 H 0.81135 0.27488 0.97615 0.0
Cu1070 Cu 0.76907 0.77478 0.01641 0.0
N1071 N 0.78851 0.77166 1.00187 0.0
N1072 N 0.80772 0.7807 0.98154 0.0
C1073 C 0.7991 0.78496 0.99653 0.0
C1074 C 0.8026 0.76392 0.97749 0.0
C1075 C 0.7907 0.75841 0.98999 0.0
O1076 O 0.74886 0.7776 0.99945 0.0
C1077 C 0.78824 0.79095 0.04394 0.0
O1078 O 0.79643 0.77585 0.04198 0.0
H1079 H 0.79874 0.7982 1.00217 0.0
H1080 H 0.78277 0.74638 0.98924 0.0
N1081 N 0.76399 0.75486 0.03009 0.0
N1082 N 0.75092 0.73862 0.05106 0.0
C1083 C 0.75332 0.75496 0.0442 0.0
C1084 C 0.76866 0.73791 0.02787 0.0
C1085 C 0.76063 0.72787 0.04077 0.0
C1086 C 0.74993 0.78735 0.98563 0.0
O1087 O 0.7628 0.79925 0.9853 0.0
H1088 H 0.74747 0.76691 0.04924 0.0
H1089 H 0.77705 0.7331 0.01749 0.0
O1090 O 0.7748 0.79412 0.03339 0.0
H1091 H 0.80612 0.75663 0.96557 0.0
H1092 H 0.76163 0.71368 0.04211 0.0
Cu1093 Cu 0.26262 0.78056 0.99926 0.0
N1094 N 0.25886 0.80022 0.0142 0.0
N1095 N 0.24769 0.81656 0.03625 0.0
C1096 C 0.24715 0.80082 0.02746 0.0
C1097 C 0.26021 0.82624 0.02807 0.0
C1098 C 0.26705 0.81614 0.01451 0.0
O1099 O 0.2626 0.75951 0.01423 0.0
C1100 C 0.24476 0.79502 0.97029 0.0
O1101 O 0.25611 0.80769 0.97524 0.0
H1102 H 0.23872 0.78972 0.03081 0.0
H1103 H 0.27725 0.82018 1.00549 0.0
N1104 N 0.28485 0.78115 0.98888 0.0
N1105 N 0.30667 0.77238 0.97136 0.0
C1106 C 0.28921 0.77091 0.97485 0.0
C1107 C 0.30006 0.78943 0.99455 0.0
C1108 C 0.31353 0.7841 0.98373 0.0
C1109 C 0.27178 0.76094 0.02904 0.0
O1110 O 0.2799 0.77604 0.03304 0.0
H1111 H 0.27988 0.76184 0.96799 0.0
H1112 H 0.30143 0.79815 1.00615 0.0
O1113 O 0.24482 0.78077 0.97935 0.0
H1114 H 0.26406 0.83973 0.03146 0.0
H1115 H 0.32737 0.78824 0.98516 0.0
Cu1116 Cu 0.01165 0.24265 0.27925 0.0
N1117 N 0.02439 0.2218 0.27692 0.0
N1118 N 0.046 0.20398 0.26805 0.0
C1119 C 0.03965 0.22061 0.26814 0.0
C1120 C 0.03419 0.19433 0.27725 0.0
C1121 C 0.02084 0.20536 0.28267 0.0
O1122 O 0.02947 0.26116 0.27636 0.0
C1123 C 0.97877 0.23225 0.26434 0.0
O1124 O 0.97893 0.2235 0.27957 0.0
H1125 H 0.04604 0.23187 0.26211 0.0
H1126 H 0.00935 0.20166 0.29017 0.0
N1127 N 1.00244 0.24481 0.30218 0.0
N1128 N 0.98642 0.25519 0.32461 0.0
C1129 C 0.98894 0.25532 0.30669 0.0
C1130 C 0.00859 0.23762 0.3177 0.0
C1131 C 0.99875 0.244 0.33157 0.0
C1132 C 0.03061 0.27555 0.28537 0.0
O1133 O 0.01713 0.28052 0.2948 0.0
H1134 H 0.98173 0.26355 0.29709 0.0
H1135 H 0.01975 0.22874 0.3189 0.0
O1136 O 0.9921 0.24216 0.2611 0.0
H1137 H 0.03496 0.18028 0.2797 0.0
H1138 H 1.00073 0.24083 0.34571 0.0
Cu1139 Cu 0.7502 0.01596 0.25025 0.0
N1140 N 0.74653 0.03059 0.23038 0.0
N1141 N 0.75249 0.05261 0.21149 0.0
C1142 C 0.75667 0.045 0.22749 0.0
C1143 C 0.7391 0.0425 0.20403 0.0
C1144 C 0.73546 0.0289 0.21571 0.0
O1145 O 0.7547 0.03241 0.27039 0.0
C1146 C 0.77925 0.99111 0.25466 0.0
O1147 O 0.77716 0.99177 0.27214 0.0
H1148 H 0.76749 0.04928 0.23667 0.0
H1149 H 0.72583 0.01827 0.21343 0.0
N1150 N 0.73054 1.00115 0.25399 0.0
N1151 N 0.71485 0.97815 0.26402 0.0
C1152 C 0.73115 0.98573 0.26292 0.0
C1153 C 0.71324 1.00348 0.24922 0.0
C1154 C 0.70352 0.98927 0.25534 0.0
C1155 C 0.74334 0.03511 0.28237 0.0
O1156 O 0.72985 0.02402 0.2836 0.0
H1157 H 0.74337 0.98015 0.26845 0.0
H1158 H 0.70802 0.01483 0.24209 0.0
O1159 O 0.76993 1.00096 0.24425 0.0
H1160 H 0.73255 0.04457 0.19095 0.0
H1161 H 0.6892 0.98751 0.25388 0.0
Cu1162 Cu 0.01468 0.76175 0.26893 0.0
N1163 N 1.00294 0.78329 0.27183 0.0
N1164 N 0.98389 0.80516 0.2656 0.0
C1165 C 0.9892 0.78879 0.2611 0.0
C1166 C 0.99484 0.81024 0.27966 0.0
C1167 C 1.00656 0.79671 0.2835 0.0
O1168 O 0.99665 0.7431 0.26441 0.0
C1169 C 0.04443 0.77648 0.2556 0.0
O1170 O 0.0443 0.78277 0.27215 0.0
H1171 H 0.98348 0.78103 0.24992 0.0
H1172 H 0.01715 0.79679 0.29385 0.0
N1173 N 0.02812 0.75466 0.28943 0.0
N1174 N 0.04964 0.74072 0.30535 0.0
C1175 C 0.04175 0.74328 0.2889 0.0
C1176 C 0.02718 0.7594 0.30687 0.0
C1177 C 0.04053 0.75089 0.31672 0.0
C1178 C 0.98258 0.7442 0.27341 0.0
O1179 O 0.98083 0.75767 0.28442 0.0
H1180 H 0.04608 0.73738 0.27652 0.0
H1181 H 0.01758 0.76847 0.31204 0.0
O1182 O 0.03181 0.76598 0.25021 0.0
H1183 H 0.99442 0.82284 0.28665 0.0
H1184 H 0.04325 0.75205 0.33113 0.0
Cu1185 Cu 0.24884 1.00623 0.2797 0.0
N1186 N 0.25052 0.01854 0.30174 0.0
N1187 N 0.25984 0.03928 0.32186 0.0
C1188 C 0.26114 0.03281 0.30495 0.0
C1189 C 0.24794 0.02849 0.32962 0.0
C1190 C 0.24223 0.01571 0.31719 0.0
O1191 O 0.2501 0.02414 0.26109 0.0
C1192 C 0.26527 0.97609 0.29107 0.0
O1193 O 0.25044 0.9756 0.29983 0.0
H1194 H 0.26985 0.03813 0.29504 0.0
H1195 H 0.23278 1.00511 0.3193 0.0
N1196 N 0.22721 0.99387 0.27575 0.0
N1197 N 0.20764 0.97395 0.2639 0.0
C1198 C 0.22438 0.98068 0.2636 0.0
C1199 C 0.2117 0.99567 0.28397 0.0
C1200 C 0.19962 0.98335 0.27674 0.0
C1201 C 0.239 0.03654 0.26308 0.0
O1202 O 0.22797 0.0356 0.27632 0.0
H1203 H 0.23456 0.97592 0.25496 0.0
H1204 H 0.2093 1.00528 0.29442 0.0
O1205 O 0.26789 0.98898 0.28049 0.0
H1206 H 0.24353 0.02975 0.34325 0.0
H1207 H 0.18593 0.98163 0.28047 0.0
Cu1208 Cu 0.01559 0.76864 0.75233 0.0
N1209 N 0.02975 0.7486 0.75474 0.0
N1210 N 0.05413 0.73246 0.75136 0.0
C1211 C 0.04756 0.74885 0.75324 0.0
C1212 C 0.03992 0.72141 0.75187 0.0
C1213 C 0.02488 0.73141 0.75399 0.0
O1214 O 0.03245 0.78732 0.74596 0.0
C1215 C 0.98345 0.75373 0.74067 0.0
O1216 O 0.98478 0.74849 0.7575 0.0
H1217 H 0.05534 0.76088 0.75198 0.0
H1218 H 0.01128 0.72651 0.75372 0.0
N1219 N 1.00545 0.77461 0.77409 0.0
N1220 N 0.98729 0.78794 0.79282 0.0
C1221 C 0.99178 0.78577 0.77557 0.0
C1222 C 0.00966 0.76928 0.79099 0.0
C1223 C 0.9984 0.77749 0.80262 0.0
C1224 C 0.03461 0.80172 0.7549 0.0
O1225 O 0.02218 0.80673 0.76566 0.0
H1226 H 0.98535 0.79227 0.76413 0.0
H1227 H 0.02024 0.76023 0.79458 0.0
O1228 O 0.99602 0.76325 0.73468 0.0
H1229 H 0.04025 0.70721 0.74995 0.0
H1230 H 0.99868 0.77624 0.81715 0.0
Cu1231 Cu 0.26299 0.03878 0.78365 0.0
N1232 N 0.28484 0.05078 0.78341 0.0
N1233 N 0.30519 0.06848 0.7714 0.0
C1234 C 0.29185 0.05663 0.76813 0.0
C1235 C 0.3067 0.07013 0.78954 0.0
C1236 C 0.29409 0.05918 0.79693 0.0
O1237 O 0.24542 0.05662 0.78964 0.0
C1238 C 0.2715 0.01476 0.75846 0.0
O1239 O 0.28331 0.01202 0.77168 0.0
H1240 H 0.2862 0.05341 0.75482 0.0
H1241 H 0.29105 0.05837 0.81102 0.0
N1242 N 0.26227 0.02031 0.8003 0.0
N1243 N 0.25313 0.99445 0.81136 0.0
C1244 C 0.24984 1.00735 0.79924 0.0
C1245 C 0.27396 0.01557 0.81359 0.0
C1246 C 0.26833 0.9996 0.82047 0.0
C1247 C 0.24357 0.05984 0.80638 0.0
O1248 O 0.25234 0.05022 0.81835 0.0
H1249 H 0.23909 1.007 0.78904 0.0
H1250 H 0.28598 0.02289 0.81758 0.0
O1251 O 0.26014 0.02702 0.76014 0.0
H1252 H 0.31569 0.07917 0.79689 0.0
H1253 H 0.27509 0.99225 0.83113 0.0
Cu1254 Cu 0.0183 0.28869 0.77935 0.0
N1255 N 1.00705 0.31058 0.77751 0.0
N1256 N 0.98853 0.33085 0.76592 0.0
C1257 C 0.99639 0.31516 0.76331 0.0
C1258 C 0.99454 0.33645 0.78242 0.0
C1259 C 1.00609 0.32395 0.78952 0.0
O1260 O 0.99945 0.27044 0.77864 0.0
C1261 C 0.04812 0.299 0.76204 0.0
O1262 O 0.04954 0.30855 0.77691 0.0
H1263 H 0.99389 0.30674 0.75159 0.0
H1264 H 0.01289 0.32437 0.80266 0.0
N1265 N 0.03163 0.28595 0.80106 0.0
N1266 N 0.05359 0.2769 0.82001 0.0
C1267 C 0.04741 0.27771 0.80269 0.0
C1268 C 0.02754 0.29034 0.81799 0.0
C1269 C 0.04108 0.28477 0.82972 0.0
C1270 C 0.98638 0.27384 0.7885 0.0
O1271 O 0.98677 0.28861 0.79793 0.0
H1272 H 0.05405 0.27208 0.79137 0.0
H1273 H 0.01548 0.29692 0.82159 0.0
O1274 O 0.03485 0.28837 0.75974 0.0
H1275 H 0.99077 0.34862 0.78892 0.0
H1276 H 0.0417 0.28647 0.84423 0.0
Cu1277 Cu 0.75746 0.01366 0.76778 0.0
N1278 N 0.76262 0.02808 0.78792 0.0
N1279 N 0.77784 0.0488 0.80403 0.0
C1280 C 0.77648 0.03954 0.78844 0.0
C1281 C 0.76422 0.04295 0.8138 0.0
C1282 C 0.75489 0.03003 0.80385 0.0
O1283 O 0.75685 0.03001 0.74751 0.0
C1284 C 0.774 0.98286 0.77861 0.0
O1285 O 0.75927 0.98175 0.78748 0.0
H1286 H 0.78529 0.04117 0.7774 0.0
H1287 H 0.74347 0.02254 0.80805 0.0
N1288 N 0.73522 1.00195 0.76764 0.0
N1289 N 0.71308 0.98378 0.75779 0.0
C1290 C 0.73022 0.98883 0.75604 0.0
C1291 C 0.72072 1.00529 0.77712 0.0
C1292 C 0.70702 0.99414 0.77102 0.0
C1293 C 0.74397 0.04082 0.74805 0.0
O1294 O 0.7329 0.03936 0.7612 0.0
H1295 H 0.73883 0.98357 0.74602 0.0
H1296 H 0.71989 0.01554 0.78725 0.0
O1297 O 0.77618 0.99593 0.76812 0.0
H1298 H 0.76143 0.04744 0.82726 0.0
H1299 H 0.69359 0.99386 0.77577 0.0
Cu1300 Cu 0.27356 0.76752 0.51944 0.0
N1301 N 0.29329 0.77157 0.53512 0.0
N1302 N 0.31054 0.78514 0.55644 0.0
C1303 C 0.29427 0.78422 0.54799 0.0
C1304 C 0.32018 0.7725 0.54856 0.0
C1305 C 0.30948 0.76412 0.53542 0.0
O1306 O 0.25282 0.77119 0.53388 0.0
C1307 C 0.28823 0.77851 0.48844 0.0
O1308 O 0.29787 0.76467 0.49269 0.0
H1309 H 0.28342 0.79306 0.55059 0.0
H1310 H 0.31335 0.75365 0.52645 0.0
N1311 N 0.27284 0.74434 0.51037 0.0
N1312 N 0.26633 0.7222 0.491 0.0
C1313 C 0.26453 0.73955 0.49463 0.0
C1314 C 0.28028 0.7295 0.51696 0.0
C1315 C 0.27635 0.71578 0.50494 0.0
C1316 C 0.23902 0.7612 0.53279 0.0
O1317 O 0.2367 0.75038 0.51896 0.0
H1318 H 0.2575 0.74875 0.48588 0.0
H1319 H 0.28805 0.72873 0.52954 0.0
O1320 O 0.27601 0.78313 0.49885 0.0
H1321 H 0.334 0.76962 0.55192 0.0
H1322 H 0.28037 0.70216 0.50642 0.0
Cu1323 Cu 0.76086 0.77591 0.49647 0.0
N1324 N 0.78144 0.77727 0.4832 0.0
N1325 N 0.80009 0.76838 0.46231 0.0
C1326 C 0.78342 0.76731 0.46834 0.0
C1327 C 0.809 0.77957 0.47389 0.0
C1328 C 0.79743 0.78506 0.48678 0.0
O1329 O 0.74123 0.77437 0.47826 0.0
C1330 C 0.77607 0.75991 0.52584 0.0
O1331 O 0.78365 0.77566 0.52611 0.0
H1332 H 0.77304 0.75859 0.46271 0.0
H1333 H 0.8007 0.79347 0.49834 0.0
N1334 N 0.75649 0.79575 0.51087 0.0
N1335 N 0.74282 0.81164 0.53165 0.0
C1336 C 0.74314 0.79622 0.52239 0.0
C1337 C 0.76502 0.81144 0.51283 0.0
C1338 C 0.75662 0.82128 0.52569 0.0
C1339 C 0.73997 0.78852 0.46902 0.0
O1340 O 0.75112 0.80162 0.47313 0.0
H1341 H 0.73406 0.7852 0.52414 0.0
H1342 H 0.77651 0.81544 0.50548 0.0
O1343 O 0.76455 0.7562 0.51314 0.0
H1344 H 0.82296 0.78321 0.47335 0.0
H1345 H 0.76028 0.83455 0.53011 0.0
Cu1346 Cu 0.77607 0.26952 0.52536 0.0
N1347 N 0.77517 0.2504 0.50911 0.0
N1348 N 0.76612 0.23539 0.48422 0.0
C1349 C 0.76354 0.2496 0.49484 0.0
C1350 C 0.77991 0.22676 0.49228 0.0
C1351 C 0.78556 0.23612 0.50762 0.0
O1352 O 0.77711 0.29046 0.51022 0.0
C1353 C 0.75313 0.25179 0.54697 0.0
O1354 O 0.76256 0.23875 0.5408 0.0
H1355 H 0.75351 0.25952 0.49222 0.0
H1356 H 0.79667 0.233 0.51675 0.0
N1357 N 0.79633 0.2707 0.54082 0.0
N1358 N 0.81434 0.2841 0.56166 0.0
C1359 C 0.80329 0.28618 0.54703 0.0
C1360 C 0.80328 0.25828 0.55183 0.0
C1361 C 0.81445 0.26652 0.56472 0.0
C1362 C 0.78945 0.28937 0.49897 0.0
O1363 O 0.79975 0.27546 0.49936 0.0
H1364 H 0.79895 0.29888 0.54198 0.0
H1365 H 0.79941 0.24445 0.55144 0.0
O1366 O 0.75604 0.26737 0.54119 0.0
H1367 H 0.78591 0.21492 0.48712 0.0
H1368 H 0.82133 0.26019 0.576 0.0
Cu1369 Cu 0.26866 0.28119 0.51817 0.0
N1370 N 0.26559 0.30135 0.53256 0.0
N1371 N 0.25295 0.31839 0.55308 0.0
C1372 C 0.25189 0.30314 0.5435 0.0
C1373 C 0.26801 0.32654 0.54794 0.0
C1374 C 0.27576 0.316 0.53521 0.0
O1375 O 0.27162 0.26143 0.53501 0.0
C1376 C 0.24703 0.29511 0.49189 0.0
O1377 O 0.25805 0.30819 0.49643 0.0
H1378 H 0.24157 0.29316 0.5447 0.0
H1379 H 0.288 0.31874 0.52853 0.0
N1380 N 0.28904 0.28167 0.50454 0.0
N1381 N 0.3068 0.27203 0.48321 0.0
C1382 C 0.29 0.2727 0.48887 0.0
C1383 C 0.30585 0.28705 0.50891 0.0
C1384 C 0.31687 0.28104 0.49578 0.0
C1385 C 0.28338 0.26471 0.54761 0.0
O1386 O 0.29168 0.28009 0.54766 0.0
H1387 H 0.27877 0.26565 0.48244 0.0
H1388 H 0.31 0.29396 0.52123 0.0
O1389 O 0.24869 0.28049 0.50026 0.0
H1390 H 0.273 0.33923 0.55291 0.0
H1391 H 0.33123 0.28259 0.49582 0.0
Cu1392 Cu 0.76977 0.54433 0.77151 0.0
N1393 N 0.79121 0.55702 0.77053 0.0
N1394 N 0.81053 0.57601 0.75873 0.0
C1395 C 0.7939 0.569 0.7576 0.0
C1396 C 0.81864 0.56814 0.7731 0.0
C1397 C 0.8067 0.55634 0.78031 0.0
O1398 O 0.75124 0.56222 0.77291 0.0
C1399 C 0.7811 0.5161 0.75294 0.0
O1400 O 0.79152 0.51654 0.76762 0.0
H1401 H 0.78374 0.57243 0.74749 0.0
H1402 H 0.80932 0.54762 0.79155 0.0
N1403 N 0.76765 0.52965 0.79158 0.0
N1404 N 0.75728 0.50656 0.80683 0.0
C1405 C 0.75585 0.51612 0.79158 0.0
C1406 C 0.77691 0.52876 0.80748 0.0
C1407 C 0.77056 0.51446 0.81691 0.0
C1408 C 0.75277 0.57123 0.78755 0.0
O1409 O 0.76574 0.56731 0.79923 0.0
H1410 H 0.74685 0.51298 0.78019 0.0
H1411 H 0.78762 0.53768 0.81186 0.0
O1412 O 0.76941 0.52812 0.75075 0.0
H1413 H 0.83237 0.57034 0.77774 0.0
H1414 H 0.7754 0.5102 0.8301 0.0
Cu1415 Cu 0.27843 0.52177 0.76502 0.0
N1416 N 0.29941 0.50868 0.76651 0.0
N1417 N 0.31869 0.4879 0.77561 0.0
C1418 C 0.30174 0.49367 0.77591 0.0
C1419 C 0.32728 0.49976 0.76545 0.0
C1420 C 0.31537 0.51257 0.75989 0.0
O1421 O 0.25801 0.50552 0.76291 0.0
C1422 C 0.28994 0.53881 0.79824 0.0
O1423 O 0.29994 0.5249 0.80099 0.0
H1424 H 0.29116 0.48732 0.78302 0.0
H1425 H 0.31823 0.52415 0.75201 0.0
N1426 N 0.27746 0.53619 0.74479 0.0
N1427 N 0.27054 0.56017 0.72864 0.0
C1428 C 0.27014 0.5523 0.74487 0.0
C1429 C 0.28269 0.53359 0.72787 0.0
C1430 C 0.27839 0.54841 0.71783 0.0
C1431 C 0.25942 0.49237 0.75222 0.0
O1432 O 0.27425 0.49051 0.74367 0.0
H1433 H 0.26423 0.55794 0.75661 0.0
H1434 H 0.28907 0.52177 0.72317 0.0
O1435 O 0.27843 0.53864 0.7851 0.0
H1436 H 0.34133 0.49961 0.76275 0.0
H1437 H 0.28098 0.55039 0.70375 0.0
Cu1438 Cu 0.25183 0.50425 0.25949 0.0
N1439 N 0.23317 0.48762 0.25883 0.0
N1440 N 0.21554 0.46532 0.26712 0.0
C1441 C 0.2287 0.47683 0.27233 0.0
C1442 C 0.21135 0.46924 0.24975 0.0
C1443 C 0.22228 0.48298 0.24466 0.0
O1444 O 0.27437 0.49204 0.25676 0.0
C1445 C 0.25978 0.53228 0.28404 0.0
O1446 O 0.27383 0.53469 0.27435 0.0
H1447 H 0.23522 0.47719 0.28562 0.0
H1448 H 0.22265 0.4888 0.23142 0.0
N1449 N 0.24916 0.51994 0.24032 0.0
N1450 N 0.25658 0.54097 0.22092 0.0
C1451 C 0.26244 0.52748 0.23131 0.0
C1452 C 0.23439 0.5289 0.23542 0.0
C1453 C 0.23892 0.54189 0.22344 0.0
C1454 C 0.27808 0.47713 0.26376 0.0
O1455 O 0.26754 0.47044 0.27568 0.0
H1456 H 0.27632 0.524 0.23335 0.0
H1457 H 0.22146 0.52679 0.24098 0.0
O1458 O 0.24984 0.51875 0.28099 0.0
H1459 H 0.20167 0.46217 0.24109 0.0
H1460 H 0.23005 0.55163 0.21752 0.0
Cu1461 Cu 0.77703 0.51253 0.26477 0.0
N1462 N 0.79761 0.50011 0.27143 0.0
N1463 N 0.81488 0.48041 0.28586 0.0
C1464 C 0.7981 0.48612 0.28251 0.0
C1465 C 0.82533 0.49123 0.27633 0.0
C1466 C 0.81463 0.5034 0.26746 0.0
O1467 O 0.75714 0.49569 0.26116 0.0
C1468 C 0.78227 0.53271 0.2976 0.0
O1469 O 0.79028 0.51871 0.3042 0.0
H1470 H 0.78628 0.4804 0.28809 0.0
H1471 H 0.81896 0.51411 0.25905 0.0
N1472 N 0.77941 0.52446 0.24308 0.0
N1473 N 0.77483 0.54731 0.22461 0.0
C1474 C 0.77781 0.54209 0.24178 0.0
C1475 C 0.77767 0.51823 0.22604 0.0
C1476 C 0.77479 0.53234 0.21459 0.0
C1477 C 0.76044 0.48157 0.25244 0.0
O1478 O 0.7767 0.47917 0.24713 0.0
H1479 H 0.77688 0.55073 0.25336 0.0
H1480 H 0.77694 0.5044 0.2223 0.0
O1481 O 0.77386 0.53153 0.28234 0.0
H1482 H 0.83973 0.49079 0.27619 0.0
H1483 H 0.7717 0.53152 0.20022 0.0
Cu1484 Cu 0.52754 0.26566 0.767 0.0
N1485 N 0.51727 0.26787 0.78941 0.0
N1486 N 0.49872 0.27681 0.81033 0.0
C1487 C 0.50258 0.27716 0.79273 0.0
C1488 C 0.51148 0.26676 0.81835 0.0
C1489 C 0.52292 0.26128 0.8054 0.0
O1490 O 0.50838 0.26354 0.7483 0.0
C1491 C 0.54583 0.29858 0.77454 0.0
O1492 O 0.53314 0.30151 0.78576 0.0
H1493 H 0.49495 0.28406 0.78235 0.0
H1494 H 0.53466 0.2533 0.80751 0.0
N1495 N 0.54103 0.24516 0.7661 0.0
N1496 N 0.56319 0.22733 0.75893 0.0
C1497 C 0.55708 0.24403 0.7588 0.0
C1498 C 0.53681 0.22863 0.77112 0.0
C1499 C 0.55046 0.21756 0.76665 0.0
C1500 C 0.49537 0.25333 0.75191 0.0
O1501 O 0.49574 0.24521 0.7675 0.0
H1502 H 0.56386 0.25518 0.75295 0.0
H1503 H 0.52458 0.22484 0.77734 0.0
O1504 O 0.54461 0.28509 0.76411 0.0
H1505 H 0.51277 0.26393 0.83261 0.0
H1506 H 0.55097 0.20345 0.7689 0.0
Cu1507 Cu 0.50407 0.78717 0.76316 0.0
N1508 N 0.52004 0.78411 0.78292 0.0
N1509 N 0.54495 0.77582 0.79795 0.0
C1510 C 0.53612 0.77665 0.78179 0.0
C1511 C 0.53387 0.7828 0.80987 0.0
C1512 C 0.51847 0.78795 0.80053 0.0
O1513 O 0.51821 0.78712 0.74164 0.0
C1514 C 0.47379 0.77208 0.77608 0.0
O1515 O 0.47552 0.7865 0.786 0.0
H1516 H 0.54125 0.77183 0.76928 0.0
H1517 H 0.50702 0.79412 0.80616 0.0
N1518 N 0.49265 0.80898 0.76334 0.0
N1519 N 0.47178 0.82878 0.75582 0.0
C1520 C 0.47843 0.81265 0.75245 0.0
C1521 C 0.49534 0.82334 0.77396 0.0
C1522 C 0.48248 0.83563 0.76932 0.0
C1523 C 0.53118 0.79823 0.74248 0.0
O1524 O 0.53341 0.80835 0.7569 0.0
H1525 H 0.47304 0.80346 0.74232 0.0
H1526 H 0.50565 0.82463 0.78455 0.0
O1527 O 0.4854 0.76892 0.76444 0.0
H1528 H 0.53684 0.78441 0.8242 0.0
H1529 H 0.48085 0.84836 0.77575 0.0
Cu1530 Cu 0.49511 0.74315 0.25596 0.0
N1531 N 0.48171 0.74519 0.27659 0.0
N1532 N 0.46395 0.75864 0.29573 0.0
C1533 C 0.47286 0.76001 0.2804 0.0
C1534 C 0.46726 0.74217 0.30182 0.0
C1535 C 0.47832 0.73391 0.29 0.0
O1536 O 0.47793 0.74023 0.23558 0.0
C1537 C 0.52006 0.76515 0.27109 0.0
O1538 O 0.51723 0.75344 0.28367 0.0
H1539 H 0.47283 0.77154 0.27186 0.0
H1540 H 0.48347 0.72066 0.29111 0.0
N1541 N 0.51081 0.72414 0.25552 0.0
N1542 N 0.53493 0.70976 0.24675 0.0
C1543 C 0.52593 0.72509 0.24647 0.0
C1544 C 0.51011 0.70757 0.26193 0.0
C1545 C 0.52504 0.69867 0.25659 0.0
C1546 C 0.46725 0.72719 0.23751 0.0
O1547 O 0.46936 0.71745 0.25201 0.0
H1548 H 0.53015 0.73698 0.23977 0.0
H1549 H 0.4994 0.7022 0.26958 0.0
O1550 O 0.51088 0.76388 0.25623 0.0
H1551 H 0.46228 0.73659 0.31404 0.0
H1552 H 0.52806 0.68499 0.25936 0.0
Cu1553 Cu 0.51822 0.24703 0.25939 0.0
N1554 N 0.50351 0.22675 0.25951 0.0
N1555 N 0.48177 0.20851 0.26801 0.0
C1556 C 0.48919 0.22483 0.26971 0.0
C1557 C 0.49177 0.19983 0.25622 0.0
C1558 C 0.50511 0.21112 0.25095 0.0
O1559 O 0.50216 0.26721 0.2596 0.0
C1560 C 0.54555 0.23132 0.27842 0.0
O1561 O 0.54176 0.2199 0.26536 0.0
H1562 H 0.48471 0.23503 0.27872 0.0
H1563 H 0.51555 0.20791 0.24194 0.0
N1564 N 0.53113 0.24904 0.23845 0.0
N1565 N 0.55039 0.26072 0.2195 0.0
C1566 C 0.54386 0.26143 0.23616 0.0
C1567 C 0.52951 0.24011 0.2227 0.0
C1568 C 0.54138 0.24728 0.21099 0.0
C1569 C 0.49191 0.26766 0.24543 0.0
O1570 O 0.49328 0.25508 0.23328 0.0
H1571 H 0.54774 0.27119 0.24638 0.0
H1572 H 0.52003 0.22953 0.21969 0.0
O1573 O 0.53628 0.24533 0.27917 0.0
H1574 H 0.48973 0.18623 0.25189 0.0
H1575 H 0.54307 0.243 0.19723 0.0
H1576 H 0.20137 0.22437 0.12213 0.0
H1577 H 0.23046 0.17551 0.12312 0.0
H1578 H 0.24346 0.18297 0.09453 0.0
H1579 H 0.24845 0.20449 0.07042 0.0
H1580 H 0.22032 0.25383 0.07027 0.0
H1581 H 0.20538 0.24524 0.09749 0.0
C1582 C 0.21058 0.21535 0.11614 0.0
C1583 C 0.21496 0.19944 0.1249 0.0
C1584 C 0.21836 0.21991 0.0999 0.0
C1585 C 0.22665 0.18776 0.11666 0.0
C1586 C 0.23424 0.19209 0.10035 0.0
C1587 C 0.23886 0.21323 0.0762 0.0
C1588 C 0.23563 0.22985 0.06839 0.0
C1589 C 0.23043 0.20827 0.092 0.0
C1590 C 0.22327 0.24111 0.07617 0.0
C1591 C 0.21466 0.23617 0.0917 0.0
H1592 H 0.81106 0.19989 0.08979 0.0
H1593 H 0.82216 0.24488 0.12476 0.0
H1594 H 0.80642 0.26411 0.10318 0.0
H1595 H 0.79 0.26818 0.07396 0.0
H1596 H 0.77939 0.22285 0.03918 0.0
H1597 H 0.79467 0.20384 0.06099 0.0
C1598 C 0.81019 0.21393 0.09264 0.0
C1599 C 0.81789 0.22093 0.10883 0.0
C1600 C 0.80126 0.22489 0.08016 0.0
C1601 C 0.81625 0.23911 0.11247 0.0
C1602 C 0.80734 0.25013 0.10008 0.0
C1603 C 0.79105 0.25415 0.07115 0.0
C1604 C 0.78356 0.24701 0.0549 0.0
C1605 C 0.79986 0.24318 0.08382 0.0
C1606 C 0.78499 0.22876 0.05155 0.0
C1607 C 0.79374 0.21783 0.06402 0.0
H1608 H 0.80834 0.85042 0.10275 0.0
H1609 H 0.85135 0.81421 0.11366 0.0
H1610 H 0.83936 0.79425 0.09011 0.0
H1611 H 0.81727 0.7872 0.06622 0.0
H1612 H 0.77411 0.82292 0.05416 0.0
H1613 H 0.78554 0.84296 0.07831 0.0
C1614 C 0.81496 0.83809 0.10001 0.0
C1615 C 0.8308 0.83386 0.10988 0.0
C1616 C 0.80804 0.82665 0.0862 0.0
C1617 C 0.8393 0.81789 0.10612 0.0
C1618 C 0.83243 0.80644 0.09268 0.0
C1619 C 0.81027 0.79935 0.0688 0.0
C1620 C 0.79483 0.80352 0.05833 0.0
C1621 C 0.81692 0.81074 0.08257 0.0
C1622 C 0.78604 0.81938 0.06196 0.0
C1623 C 0.79257 0.83083 0.0758 0.0
H1624 H 0.21101 0.84918 0.10334 0.0
H1625 H 0.171 0.80986 0.08779 0.0
H1626 H 0.18904 0.80002 0.0631 0.0
H1627 H 0.21574 0.80313 0.04538 0.0
H1628 H 0.25608 0.84203 0.06132 0.0
H1629 H 0.23833 0.85147 0.0863 0.0
C1630 C 0.20634 0.83829 0.09471 0.0
C1631 C 0.18962 0.83033 0.09742 0.0
C1632 C 0.21678 0.8327 0.08049 0.0
C1633 C 0.18369 0.8164 0.0859 0.0
C1634 C 0.19404 0.81071 0.0718 0.0
C1635 C 0.2208 0.81353 0.05441 0.0
C1636 C 0.23727 0.82186 0.0513 0.0
C1637 C 0.21054 0.81886 0.06887 0.0
C1638 C 0.24337 0.83552 0.0631 0.0
C1639 C 0.23326 0.84088 0.07751 0.0
H1640 H 0.20063 0.79412 0.89565 0.0
H1641 H 0.21179 0.85013 0.90095 0.0
H1642 H 0.22582 0.84561 0.93065 0.0
H1643 H 0.23683 0.82583 0.95416 0.0
H1644 H 0.22671 0.76969 0.94946 0.0
H1645 H 0.21035 0.77418 0.92052 0.0
C1646 C 0.20609 0.80532 0.90334 0.0
C1647 C 0.20509 0.82246 0.896 0.0
C1648 C 0.21441 0.80261 0.92048 0.0
C1649 C 0.21206 0.83685 0.90629 0.0
C1650 C 0.22025 0.83427 0.92326 0.0
C1651 C 0.23096 0.81454 0.94689 0.0
C1652 C 0.23314 0.79743 0.95386 0.0
C1653 C 0.22175 0.81721 0.93033 0.0
C1654 C 0.22523 0.783 0.94437 0.0
C1655 C 0.21596 0.78557 0.92779 0.0
H1656 H 0.23921 0.22793 0.94485 0.0
H1657 H 0.1886 0.25172 0.9307 0.0
H1658 H 0.1919 0.27135 0.95679 0.0
H1659 H 0.21006 0.28353 0.98198 0.0
H1660 H 0.26022 0.25984 0.99711 0.0
H1661 H 0.25625 0.23846 0.97247 0.0
C1662 C 0.22886 0.23731 0.94759 0.0
C1663 C 0.21368 0.23831 0.93575 0.0
C1664 C 0.23085 0.24874 0.9627 0.0
C1665 C 0.2003 0.25045 0.93963 0.0
C1666 C 0.20224 0.26182 0.9545 0.0
C1667 C 0.22016 0.27365 0.98004 0.0
C1668 C 0.23584 0.27378 0.99122 0.0
C1669 C 0.2176 0.26133 0.96589 0.0
C1670 C 0.24838 0.26051 0.9886 0.0
C1671 C 0.24602 0.24818 0.97444 0.0
H1672 H 0.82546 0.19511 0.92293 0.0
H1673 H 0.8497 0.24156 0.90048 0.0
H1674 H 0.8341 0.26034 0.92139 0.0
H1675 H 0.81413 0.26355 0.94652 0.0
H1676 H 0.7902 0.21717 0.96934 0.0
H1677 H 0.80505 0.1984 0.94781 0.0
C1678 C 0.82739 0.20934 0.92268 0.0
C1679 C 0.83878 0.21689 0.91017 0.0
C1680 C 0.81842 0.22008 0.93481 0.0
C1681 C 0.84088 0.23539 0.90982 0.0
C1682 C 0.83205 0.24614 0.92186 0.0
C1683 C 0.81225 0.24934 0.94687 0.0
C1684 C 0.80112 0.2418 0.95961 0.0
C1685 C 0.82088 0.23862 0.93448 0.0
C1686 C 0.79855 0.22335 0.9596 0.0
C1687 C 0.80713 0.21259 0.94735 0.0
H1688 H 0.8473 0.84234 0.94276 0.0
H1689 H 0.8241 0.81528 0.89582 0.0
H1690 H 0.81109 0.79295 0.91505 0.0
H1691 H 0.80606 0.78121 0.94518 0.0
H1692 H 0.82901 0.80817 0.99218 0.0
H1693 H 0.84258 0.83032 0.97295 0.0
C1694 C 0.83951 0.83148 0.93672 0.0
C1695 C 0.83666 0.83055 0.91785 0.0
C1696 C 0.83212 0.81861 0.94787 0.0
C1697 C 0.8263 0.81651 0.9103 0.0
C1698 C 0.81897 0.80364 0.92128 0.0
C1699 C 0.81428 0.79175 0.9512 0.0
C1700 C 0.81669 0.79295 0.97009 0.0
C1701 C 0.8218 0.80454 0.94007 0.0
C1702 C 0.82699 0.80699 0.97769 0.0
C1703 C 0.83472 0.81964 0.9667 0.0
H1704 H 0.1175 0.1707 0.2434 0.0
H1705 H 0.11551 0.21591 0.20821 0.0
H1706 H 0.08684 0.22409 0.21973 0.0
H1707 H 0.06295 0.21927 0.24062 0.0
H1708 H 0.06555 0.17513 0.2771 0.0
H1709 H 0.09331 0.16574 0.26423 0.0
C1710 C 0.11085 0.18239 0.23828 0.0
C1711 C 0.11878 0.19263 0.2249 0.0
C1712 C 0.09446 0.18729 0.24524 0.0
C1713 C 0.10971 0.20756 0.21825 0.0
C1714 C 0.09334 0.21238 0.22497 0.0
C1715 C 0.0696 0.20768 0.24592 0.0
C1716 C 0.06211 0.19804 0.25997 0.0
C1717 C 0.0857 0.20247 0.23862 0.0
C1718 C 0.07083 0.18278 0.26625 0.0
C1719 C 0.08681 0.17744 0.25895 0.0
H1720 H 0.79304 0.10875 0.16587 0.0
H1721 H 0.8104 0.12663 0.21925 0.0
H1722 H 0.79141 0.10429 0.23256 0.0
H1723 H 0.77104 0.07877 0.22915 0.0
H1724 H 0.75477 0.05989 0.17585 0.0
H1725 H 0.77204 0.08357 0.16248 0.0
C1726 C 0.79274 0.10773 0.18042 0.0
C1727 C 0.80324 0.11937 0.1915 0.0
C1728 C 0.78197 0.09464 0.18804 0.0
C1729 C 0.80235 0.11803 0.21034 0.0
C1730 C 0.79158 0.10515 0.218 0.0
C1731 C 0.77131 0.07974 0.2146 0.0
C1732 C 0.76168 0.06738 0.20358 0.0
C1733 C 0.78152 0.09324 0.20698 0.0
C1734 C 0.7619 0.06921 0.18473 0.0
C1735 C 0.7719 0.08271 0.17705 0.0
H1736 H 0.9324 0.85872 0.2264 0.0
H1737 H 0.90181 0.81066 0.21614 0.0
H1738 H 0.92441 0.79379 0.23287 0.0
H1739 H 0.95322 0.7925 0.24997 0.0
H1740 H 0.98318 0.84061 0.2612 0.0
H1741 H 0.96024 0.85767 0.24499 0.0
C1742 C 0.93045 0.84461 0.22806 0.0
C1743 C 0.91537 0.83604 0.21982 0.0
C1744 C 0.94342 0.83496 0.23793 0.0
C1745 C 0.91338 0.81764 0.22197 0.0
C1746 C 0.92627 0.80796 0.23165 0.0
C1747 C 0.95473 0.80672 0.24881 0.0
C1748 C 0.96995 0.81526 0.25669 0.0
C1749 C 0.94144 0.81644 0.23952 0.0
C1750 C 0.97156 0.83373 0.25538 0.0
C1751 C 0.95848 0.84348 0.24602 0.0
H1752 H 0.16643 0.91012 0.22553 0.0
H1753 H 0.20063 0.92462 0.18268 0.0
H1754 H 0.21445 0.94801 0.20166 0.0
H1755 H 0.21627 0.96489 0.23015 0.0
H1756 H 0.1817 0.95081 0.27284 0.0
H1757 H 0.16852 0.92684 0.25423 0.0
C1758 C 0.17705 0.91829 0.22044 0.0
C1759 C 0.18251 0.91561 0.20273 0.0
C1760 C 0.18477 0.93189 0.23136 0.0
C1761 C 0.1961 0.92648 0.19622 0.0
C1762 C 0.20403 0.93984 0.20707 0.0
C1763 C 0.20598 0.95647 0.23546 0.0
C1764 C 0.20001 0.95969 0.2529 0.0
C1765 C 0.19839 0.94275 0.22462 0.0
C1766 C 0.18642 0.9488 0.25941 0.0
C1767 C 0.17894 0.93501 0.2488 0.0
H1768 H 0.11681 0.81844 0.76581 0.0
H1769 H 0.09728 0.85187 0.8078 0.0
H1770 H 0.06659 0.84527 0.79738 0.0
H1771 H 0.0454 0.82804 0.77818 0.0
H1772 H 0.06472 0.79344 0.73701 0.0
H1773 H 0.09535 0.80287 0.74493 0.0
C1774 C 0.10584 0.82453 0.77247 0.0
C1775 C 0.10935 0.83553 0.78767 0.0
C1776 C 0.08818 0.82048 0.76654 0.0
C1777 C 0.09495 0.84315 0.79626 0.0
C1778 C 0.0774 0.83944 0.79025 0.0
C1779 C 0.05624 0.82277 0.77067 0.0
C1780 C 0.05268 0.80995 0.75706 0.0
C1781 C 0.07385 0.82783 0.77567 0.0
C1782 C 0.067 0.80331 0.74754 0.0
C1783 C 0.08456 0.80861 0.75216 0.0
H1784 H 0.21126 0.12235 0.85038 0.0
H1785 H 0.21939 0.14989 0.80066 0.0
H1786 H 0.22843 0.12242 0.78641 0.0
H1787 H 0.23638 0.09085 0.78876 0.0
H1788 H 0.22919 0.06383 0.83896 0.0
H1789 H 0.21741 0.09062 0.85217 0.0
C1790 C 0.215 0.12235 0.83643 0.0
C1791 C 0.21468 0.13823 0.82668 0.0
C1792 C 0.22039 0.10651 0.82833 0.0
C1793 C 0.21932 0.13787 0.80849 0.0
C1794 C 0.2246 0.12215 0.80033 0.0
C1795 C 0.23188 0.09076 0.80245 0.0
C1796 C 0.2337 0.07536 0.81285 0.0
C1797 C 0.22544 0.10641 0.81018 0.0
C1798 C 0.22801 0.07552 0.83066 0.0
C1799 C 0.22132 0.09087 0.83828 0.0
H1800 H 0.91645 0.2365 0.81226 0.0
H1801 H 0.94929 0.19034 0.80967 0.0
H1802 H 0.97295 0.2079 0.79629 0.0
H1803 H 0.98565 0.23743 0.78883 0.0
H1804 H 0.95248 0.28333 0.7928 0.0
H1805 H 0.92767 0.26491 0.80189 0.0
C1806 C 0.92872 0.23025 0.80858 0.0
C1807 C 0.9312 0.21222 0.81214 0.0
C1808 C 0.94229 0.24046 0.80119 0.0
C1809 C 0.94704 0.20421 0.80703 0.0
C1810 C 0.96062 0.21429 0.79949 0.0
C1811 C 0.97284 0.24326 0.79125 0.0
C1812 C 0.97093 0.26173 0.79026 0.0
C1813 C 0.95861 0.23256 0.79696 0.0
C1814 C 0.95431 0.26916 0.79361 0.0
C1815 C 0.94012 0.25865 0.79887 0.0
H1816 H 0.84176 0.94214 0.80802 0.0
H1817 H 0.80118 0.90343 0.81946 0.0
H1818 H 0.77863 0.92133 0.80382 0.0
H1819 H 0.76997 0.94925 0.78965 0.0
H1820 H 0.81019 0.98811 0.77772 0.0
H1821 H 0.83342 0.96881 0.79053 0.0
C1822 C 0.828 0.93758 0.80691 0.0
C1823 C 0.82311 0.92154 0.81503 0.0
C1824 C 0.81506 0.94798 0.79786 0.0
C1825 C 0.80529 0.91566 0.81328 0.0
C1826 C 0.79238 0.92594 0.80442 0.0
C1827 C 0.78386 0.95338 0.7896 0.0
C1828 C 0.78836 0.97013 0.78292 0.0
C1829 C 0.79704 0.94229 0.79705 0.0
C1830 C 0.8064 0.97524 0.78273 0.0
C1831 C 0.81966 0.96427 0.7902 0.0
H1832 H 0.22555 0.09841 0.20804 0.0
H1833 H 0.22776 0.12826 0.25787 0.0
H1834 H 0.23551 0.10168 0.2747 0.0
H1835 H 0.23924 0.06967 0.27559 0.0
H1836 H 0.23831 0.03931 0.22623 0.0
H1837 H 0.23276 0.06635 0.20873 0.0
C1838 C 0.2279 0.09902 0.22255 0.0
C1839 C 0.22601 0.1152 0.23175 0.0
C1840 C 0.23257 0.08365 0.23216 0.0
C1841 C 0.22923 0.11596 0.25053 0.0
C1842 C 0.23359 0.10077 0.26016 0.0
C1843 C 0.2381 0.06906 0.26096 0.0
C1844 C 0.23904 0.05266 0.25213 0.0
C1845 C 0.23498 0.08453 0.25116 0.0
C1846 C 0.23772 0.0519 0.23322 0.0
C1847 C 0.2344 0.06731 0.22329 0.0
H1848 H 0.20141 0.92844 0.80723 0.0
H1849 H 0.2481 0.90336 0.8308 0.0
H1850 H 0.26421 0.93156 0.83128 0.0
H1851 H 0.26542 0.96323 0.82416 0.0
H1852 H 0.2183 0.98849 0.80184 0.0
H1853 H 0.20203 0.96042 0.80194 0.0
C1854 C 0.21502 0.92914 0.81272 0.0
C1855 C 0.22351 0.91365 0.81879 0.0
C1856 C 0.22421 0.94548 0.81315 0.0
C1857 C 0.24128 0.91491 0.82565 0.0
C1858 C 0.2505 0.93109 0.82606 0.0
C1859 C 0.25153 0.96269 0.81956 0.0
C1860 C 0.24323 0.97803 0.81283 0.0
C1861 C 0.24216 0.94645 0.81972 0.0
C1862 C 0.22521 0.97691 0.80677 0.0
C1863 C 0.21583 0.96084 0.8069 0.0
H1864 H 0.11883 0.23898 0.85837 0.0
H1865 H 0.14315 0.25382 0.809 0.0
H1866 H 0.11543 0.26748 0.79819 0.0
H1867 H 0.08431 0.27527 0.80273 0.0
H1868 H 0.05991 0.26094 0.85217 0.0
H1869 H 0.0876 0.24715 0.86305 0.0
C1870 C 0.11799 0.24512 0.84521 0.0
C1871 C 0.13302 0.24538 0.8345 0.0
C1872 C 0.10202 0.2531 0.83913 0.0
C1873 C 0.13182 0.25358 0.81757 0.0
C1874 C 0.11596 0.26134 0.81134 0.0
C1875 C 0.08501 0.26901 0.81582 0.0
C1876 C 0.07002 0.26906 0.82658 0.0
C1877 C 0.10098 0.26118 0.822 0.0
C1878 C 0.07128 0.26121 0.84369 0.0
C1879 C 0.08709 0.25323 0.84987 0.0
H1880 H 0.84399 0.09975 0.8165 0.0
H1881 H 0.80573 0.12925 0.84587 0.0
H1882 H 0.78292 0.10663 0.83873 0.0
H1883 H 0.77382 0.07822 0.82421 0.0
H1884 H 0.81218 0.04899 0.79479 0.0
H1885 H 0.83495 0.07157 0.802 0.0
C1886 C 0.83068 0.10119 0.82141 0.0
C1887 C 0.8266 0.1162 0.83169 0.0
C1888 C 0.81763 0.08811 0.81729 0.0
C1889 C 0.8092 0.11796 0.83773 0.0
C1890 C 0.79616 0.10495 0.83377 0.0
C1891 C 0.78721 0.07676 0.81954 0.0
C1892 C 0.79129 0.06196 0.80897 0.0
C1893 C 0.80023 0.08993 0.8236 0.0
C1894 C 0.80864 0.06035 0.80278 0.0
C1895 C 0.82169 0.07324 0.80694 0.0
H1896 H 0.9325 0.84692 0.81044 0.0
H1897 H 0.92095 0.81064 0.85308 0.0
H1898 H 0.94348 0.7904 0.84258 0.0
H1899 H 0.96676 0.78312 0.82134 0.0
H1900 H 0.97807 0.81948 0.77874 0.0
H1901 H 0.95548 0.83958 0.78918 0.0
C1902 C 0.93498 0.83462 0.81748 0.0
C1903 C 0.92507 0.83031 0.83251 0.0
C1904 C 0.94795 0.82305 0.81138 0.0
C1905 C 0.92826 0.81419 0.84134 0.0
C1906 C 0.94122 0.80266 0.83542 0.0
C1907 C 0.96432 0.79549 0.81446 0.0
C1908 C 0.97405 0.79977 0.79928 0.0
C1909 C 0.9512 0.80697 0.82048 0.0
C1910 C 0.97061 0.81576 0.79031 0.0
C1911 C 0.95774 0.82731 0.79632 0.0
H1912 H 0.83023 0.92934 0.23187 0.0
H1913 H 0.80738 0.94261 0.17939 0.0
H1914 H 0.79013 0.96596 0.19282 0.0
H1915 H 0.78132 0.98253 0.21925 0.0
H1916 H 0.80304 0.96905 0.27209 0.0
H1917 H 0.82088 0.94587 0.25872 0.0
C1918 C 0.82134 0.93723 0.2234 0.0
C1919 C 0.82024 0.93425 0.2046 0.0
C1920 C 0.81131 0.95066 0.23125 0.0
C1921 C 0.80876 0.94475 0.19384 0.0
C1922 C 0.79881 0.95809 0.20152 0.0
C1923 C 0.79003 0.97464 0.2279 0.0
C1924 C 0.79088 0.97764 0.24667 0.0
C1925 C 0.80003 0.96121 0.22017 0.0
C1926 C 0.80215 0.9671 0.2576 0.0
C1927 C 0.81233 0.9538 0.24996 0.0
H1928 H 0.10905 0.81473 0.22077 0.0
H1929 H 0.07807 0.80337 0.17176 0.0
H1930 H 0.05639 0.7865 0.18881 0.0
H1931 H 0.0449 0.77728 0.21839 0.0
H1932 H 0.07664 0.78929 0.26697 0.0
H1933 H 0.09928 0.80339 0.24942 0.0
C1934 C 0.0976 0.80845 0.21382 0.0
C1935 C 0.09504 0.81045 0.19511 0.0
C1936 C 0.08524 0.79891 0.22368 0.0
C1937 C 0.08033 0.802 0.18619 0.0
C1938 C 0.06789 0.79243 0.19595 0.0
C1939 C 0.05692 0.78271 0.22504 0.0
C1940 C 0.05892 0.78242 0.244 0.0
C1941 C 0.07 0.79109 0.21481 0.0
C1942 C 0.07459 0.78954 0.25243 0.0
C1943 C 0.0876 0.79764 0.24241 0.0
H1944 H 0.9248 0.21666 0.19827 0.0
H1945 H 0.89383 0.1958 0.24117 0.0
H1946 H 0.91682 0.2055 0.26336 0.0
H1947 H 0.94636 0.21824 0.27053 0.0
H1948 H 0.97744 0.23974 0.22812 0.0
H1949 H 0.95355 0.23184 0.20584 0.0
C1950 C 0.92291 0.21451 0.21249 0.0
C1951 C 0.90766 0.20526 0.21797 0.0
C1952 C 0.93622 0.22021 0.22528 0.0
C1953 C 0.90557 0.20251 0.23649 0.0
C1954 C 0.91868 0.20814 0.24923 0.0
C1955 C 0.9479 0.22132 0.25642 0.0
C1956 C 0.96375 0.2294 0.25097 0.0
C1957 C 0.93419 0.21669 0.24375 0.0
C1958 C 0.96539 0.23351 0.23268 0.0
C1959 C 0.95175 0.22892 0.21993 0.0
H1960 H 0.21246 0.75267 0.61148 0.0
H1961 H 0.19508 0.70223 0.58917 0.0
H1962 H 0.20293 0.71177 0.55908 0.0
H1963 H 0.21779 0.73305 0.53993 0.0
H1964 H 0.2375 0.78264 0.5626 0.0
H1965 H 0.22531 0.77504 0.59162 0.0
C1966 C 0.21006 0.74394 0.59994 0.0
C1967 C 0.20326 0.72676 0.60249 0.0
C1968 C 0.21509 0.74935 0.58278 0.0
C1969 C 0.20043 0.71546 0.58751 0.0
C1970 C 0.2049 0.72092 0.57033 0.0
C1971 C 0.2191 0.7424 0.55108 0.0
C1972 C 0.22862 0.75838 0.54909 0.0
C1973 C 0.21269 0.73764 0.5679 0.0
C1974 C 0.23027 0.77024 0.56377 0.0
C1975 C 0.22339 0.76586 0.5804 0.0
H1976 H 0.80676 0.69813 0.57463 0.0
H1977 H 0.82477 0.74328 0.60681 0.0
H1978 H 0.8087 0.76294 0.5863 0.0
H1979 H 0.79165 0.76773 0.55821 0.0
H1980 H 0.77388 0.72339 0.52494 0.0
H1981 H 0.78764 0.70299 0.54694 0.0
C1982 C 0.80712 0.71227 0.57716 0.0
C1983 C 0.81704 0.71916 0.59231 0.0
C1984 C 0.79796 0.72365 0.56509 0.0
C1985 C 0.81711 0.73752 0.59548 0.0
C1986 C 0.80802 0.74883 0.58366 0.0
C1987 C 0.79064 0.75358 0.55577 0.0
C1988 C 0.78192 0.74709 0.53985 0.0
C1989 C 0.7987 0.74208 0.56829 0.0
C1990 C 0.7805 0.72872 0.53709 0.0
C1991 C 0.78848 0.71709 0.54961 0.0
H1992 H 0.84167 0.35404 0.60022 0.0
H1993 H 0.83427 0.3223 0.64746 0.0
H1994 H 0.82503 0.29709 0.62832 0.0
H1995 H 0.81859 0.28412 0.59806 0.0
H1996 H 0.82616 0.31596 0.55101 0.0
H1997 H 0.83611 0.34092 0.57015 0.0
C1998 C 0.83823 0.34156 0.60637 0.0
C1999 C 0.83868 0.34015 0.6253 0.0
C2000 C 0.83303 0.32707 0.59528 0.0
C2001 C 0.83382 0.32391 0.63296 0.0
C2002 C 0.82867 0.30941 0.62201 0.0
C2003 C 0.8227 0.29643 0.59201 0.0
C2004 C 0.82167 0.29816 0.5731 0.0
C2005 C 0.8282 0.31083 0.60314 0.0
C2006 C 0.82673 0.31433 0.5655 0.0
C2007 C 0.83241 0.32861 0.57644 0.0
H2008 H 0.19064 0.33565 0.60399 0.0
H2009 H 0.23294 0.36497 0.63243 0.0
H2010 H 0.25394 0.35568 0.61009 0.0
H2011 H 0.26029 0.33936 0.58224 0.0
H2012 H 0.2177 0.31073 0.55356 0.0
H2013 H 0.19686 0.31976 0.57608 0.0
C2014 C 0.20441 0.34014 0.60525 0.0
C2015 C 0.21014 0.351 0.61993 0.0
C2016 C 0.2164 0.3349 0.59225 0.0
C2017 C 0.22816 0.35641 0.62145 0.0
C2018 C 0.24018 0.35121 0.60858 0.0
C2019 C 0.24642 0.33524 0.58083 0.0
C2020 C 0.24063 0.32432 0.56621 0.0
C2021 C 0.23444 0.3405 0.59388 0.0
C2022 C 0.22262 0.31891 0.56477 0.0
C2023 C 0.21064 0.32414 0.57762 0.0
H2024 H 0.20645 0.32315 0.42267 0.0
H2025 H 0.20647 0.26779 0.4081 0.0
H2026 H 0.21939 0.26061 0.43786 0.0
H2027 H 0.2334 0.27049 0.46726 0.0
H2028 H 0.23261 0.32594 0.48128 0.0
H2029 H 0.21677 0.33244 0.45289 0.0
C2030 C 0.20881 0.30943 0.42606 0.0
C2031 C 0.20568 0.29613 0.4129 0.0
C2032 C 0.21616 0.30535 0.44325 0.0
C2033 C 0.20913 0.27845 0.4177 0.0
C2034 C 0.21644 0.27428 0.43481 0.0
C2035 C 0.22934 0.2839 0.46425 0.0
C2036 C 0.23432 0.29772 0.47633 0.0
C2037 C 0.22042 0.28767 0.44759 0.0
C2038 C 0.2291 0.31506 0.47216 0.0
C2039 C 0.22007 0.31884 0.45587 0.0
H2040 H 0.24768 0.67883 0.41998 0.0
H2041 H 0.20155 0.71226 0.42021 0.0
H2042 H 0.21216 0.72535 0.44893 0.0
H2043 H 0.23517 0.72831 0.47326 0.0
H2044 H 0.28134 0.69506 0.47341 0.0
H2045 H 0.27008 0.68077 0.44535 0.0
C2046 C 0.23996 0.68896 0.42636 0.0
C2047 C 0.22387 0.6946 0.41794 0.0
C2048 C 0.24617 0.69647 0.4429 0.0
C2049 C 0.21388 0.70757 0.42648 0.0
C2050 C 0.21999 0.71514 0.44284 0.0
C2051 C 0.24277 0.71795 0.46711 0.0
C2052 C 0.25915 0.71287 0.47526 0.0
C2053 C 0.23621 0.70985 0.45105 0.0
C2054 C 0.26867 0.69915 0.4674 0.0
C2055 C 0.26228 0.69106 0.45132 0.0
H2056 H 0.81652 0.7195 0.39633 0.0
H2057 H 0.86833 0.71924 0.42385 0.0
H2058 H 0.85795 0.73966 0.44663 0.0
H2059 H 0.83377 0.75668 0.45955 0.0
H2060 H 0.7819 0.75668 0.43223 0.0
H2061 H 0.79261 0.7372 0.40877 0.0
C2062 C 0.82552 0.72384 0.40736 0.0
C2063 C 0.84319 0.7178 0.40831 0.0
C2064 C 0.81943 0.73553 0.42053 0.0
C2065 C 0.85472 0.7238 0.4226 0.0
C2066 C 0.84877 0.73543 0.43572 0.0
C2067 C 0.82489 0.75263 0.44833 0.0
C2068 C 0.80702 0.75809 0.44775 0.0
C2069 C 0.83112 0.74132 0.43489 0.0
C2070 C 0.79564 0.7525 0.43318 0.0
C2071 C 0.80177 0.74139 0.41971 0.0
H2072 H 0.82326 0.34993 0.45427 0.0
H2073 H 0.8219 0.30803 0.4144 0.0
H2074 H 0.80437 0.2895 0.43393 0.0
H2075 H 0.79311 0.28372 0.46381 0.0
H2076 H 0.79429 0.32503 0.50412 0.0
H2077 H 0.80794 0.34545 0.48291 0.0
C2078 C 0.81889 0.33683 0.44981 0.0
C2079 C 0.82403 0.33029 0.43298 0.0
C2080 C 0.80884 0.32616 0.4612 0.0
C2081 C 0.81808 0.3134 0.42723 0.0
C2082 C 0.80814 0.30275 0.43844 0.0
C2083 C 0.79592 0.29737 0.46774 0.0
C2084 C 0.79279 0.30296 0.4854 0.0
C2085 C 0.80394 0.3088 0.45563 0.0
C2086 C 0.79643 0.32058 0.49048 0.0
C2087 C 0.80443 0.33214 0.47843 0.0
H2088 H 0.13459 0.7287 0.73267 0.0
H2089 H 0.11319 0.6889 0.69541 0.0
H2090 H 0.08378 0.69209 0.70767 0.0
H2091 H 0.06364 0.70751 0.72765 0.0
H2092 H 0.0846 0.74856 0.76348 0.0
H2093 H 0.11461 0.74375 0.75294 0.0
C2094 C 0.12349 0.7208 0.7271 0.0
C2095 C 0.1262 0.70861 0.71306 0.0
C2096 C 0.10649 0.72297 0.73394 0.0
C2097 C 0.11165 0.69823 0.70635 0.0
C2098 C 0.09475 0.70013 0.71328 0.0
C2099 C 0.07484 0.71516 0.73337 0.0
C2100 C 0.07195 0.72832 0.74638 0.0
C2101 C 0.09197 0.71257 0.72695 0.0
C2102 C 0.08653 0.7384 0.75341 0.0
C2103 C 0.10366 0.73566 0.74738 0.0
H2104 H 0.85005 0.63489 0.71541 0.0
H2105 H 0.81405 0.61492 0.67292 0.0
H2106 H 0.80156 0.59364 0.69366 0.0
H2107 H 0.80114 0.5804 0.7236 0.0
H2108 H 0.83699 0.60004 0.76634 0.0
H2109 H 0.8494 0.62164 0.74574 0.0
C2110 C 0.83935 0.62599 0.71077 0.0
C2111 C 0.83299 0.6265 0.69264 0.0
C2112 C 0.8323 0.61366 0.72276 0.0
C2113 C 0.81929 0.6147 0.68675 0.0
C2114 C 0.81211 0.60256 0.69861 0.0
C2115 C 0.81152 0.58952 0.72851 0.0
C2116 C 0.81803 0.58864 0.74656 0.0
C2117 C 0.81855 0.60187 0.71661 0.0
C2118 C 0.83182 0.60032 0.7525 0.0
C2119 C 0.83884 0.61274 0.74075 0.0
H2120 H 0.93785 0.35953 0.7036 0.0
H2121 H 0.90868 0.37731 0.749 0.0
H2122 H 0.93148 0.3652 0.76979 0.0
H2123 H 0.95969 0.34922 0.77507 0.0
H2124 H 0.98829 0.33079 0.7296 0.0
H2125 H 0.96589 0.34358 0.70885 0.0
C2126 C 0.93655 0.36086 0.71805 0.0
C2127 C 0.9216 0.36934 0.72473 0.0
C2128 C 0.94965 0.35376 0.72991 0.0
C2129 C 0.91998 0.3707 0.7435 0.0
C2130 C 0.93306 0.36386 0.7554 0.0
C2131 C 0.96107 0.3482 0.76062 0.0
C2132 C 0.97564 0.33913 0.75386 0.0
C2133 C 0.94796 0.35535 0.74876 0.0
C2134 C 0.97713 0.33761 0.7351 0.0
C2135 C 0.96435 0.34495 0.72324 0.0
H2136 H 0.18974 0.44986 0.72683 0.0
H2137 H 0.22881 0.40968 0.71824 0.0
H2138 H 0.2523 0.429 0.73135 0.0
H2139 H 0.26213 0.45808 0.7429 0.0
H2140 H 0.22345 0.49831 0.75255 0.0
H2141 H 0.19936 0.4782 0.74159 0.0
C2142 C 0.20339 0.44533 0.72802 0.0
C2143 C 0.20756 0.4284 0.72149 0.0
C2144 C 0.21687 0.45653 0.73568 0.0
C2145 C 0.22524 0.42259 0.72327 0.0
C2146 C 0.2387 0.43367 0.73066 0.0
C2147 C 0.24839 0.46238 0.74279 0.0
C2148 C 0.24455 0.47969 0.74833 0.0
C2149 C 0.23472 0.45076 0.73658 0.0
C2150 C 0.22671 0.48502 0.74838 0.0
C2151 C 0.21297 0.47356 0.742 0.0
H2152 H 0.10018 0.31609 0.31428 0.0
H2153 H 0.12425 0.26967 0.29203 0.0
H2154 H 0.09524 0.25943 0.27992 0.0
H2155 H 0.06289 0.26246 0.2774 0.0
H2156 H 0.03823 0.30772 0.30125 0.0
H2157 H 0.0676 0.31961 0.31087 0.0
C2158 C 0.09908 0.30369 0.30686 0.0
C2159 C 0.11446 0.29369 0.30412 0.0
C2160 C 0.08224 0.29767 0.30016 0.0
C2161 C 0.11275 0.27779 0.29418 0.0
C2162 C 0.09612 0.27185 0.28731 0.0
C2163 C 0.06389 0.27509 0.28442 0.0
C2164 C 0.04833 0.28418 0.28859 0.0
C2165 C 0.08076 0.28157 0.29038 0.0
C2166 C 0.04997 0.30044 0.29786 0.0
C2167 C 0.06677 0.3072 0.30346 0.0
H2168 H 0.24439 0.60364 0.32474 0.0
H2169 H 0.19017 0.58592 0.31374 0.0
H2170 H 0.20085 0.55811 0.30131 0.0
H2171 H 0.22561 0.53966 0.29187 0.0
H2172 H 0.2798 0.55836 0.3009 0.0
H2173 H 0.26918 0.5848 0.31611 0.0
C2174 C 0.23492 0.59357 0.31986 0.0
C2175 C 0.21651 0.59681 0.32021 0.0
C2176 C 0.24118 0.57778 0.3124 0.0
C2177 C 0.2044 0.58378 0.31353 0.0
C2178 C 0.21051 0.56787 0.30647 0.0
C2179 C 0.23511 0.54935 0.29748 0.0
C2180 C 0.2535 0.54697 0.29539 0.0
C2181 C 0.22887 0.56481 0.30563 0.0
C2182 C 0.2656 0.55985 0.3024 0.0
C2183 C 0.25953 0.575 0.31103 0.0
H2184 H 0.93625 0.68292 0.30216 0.0
H2185 H 0.89429 0.7194 0.28744 0.0
H2186 H 0.91575 0.73844 0.2731 0.0
H2187 H 0.94704 0.74677 0.26856 0.0
H2188 H 0.98864 0.70965 0.28123 0.0
H2189 H 0.96654 0.68844 0.29187 0.0
C2190 C 0.93155 0.69471 0.29536 0.0
C2191 C 0.9136 0.69988 0.29655 0.0
C2192 C 0.94393 0.70551 0.2867 0.0
C2193 C 0.90806 0.71533 0.28754 0.0
C2194 C 0.92032 0.72621 0.27913 0.0
C2195 C 0.95114 0.73376 0.27306 0.0
C2196 C 0.96936 0.72969 0.27411 0.0
C2197 C 0.93838 0.72175 0.27923 0.0
C2198 C 0.97463 0.71292 0.28007 0.0
C2199 C 0.96201 0.70091 0.28638 0.0
H2200 H 0.82757 0.42171 0.34423 0.0
H2201 H 0.87688 0.41689 0.31687 0.0
H2202 H 0.86737 0.43973 0.29562 0.0
H2203 H 0.84532 0.46163 0.28523 0.0
H2204 H 0.79684 0.46738 0.31388 0.0
H2205 H 0.80583 0.44374 0.33415 0.0
C2206 C 0.83633 0.42573 0.33373 0.0
C2207 C 0.85294 0.41755 0.33223 0.0
C2208 C 0.83093 0.4391 0.32174 0.0
C2209 C 0.86392 0.42274 0.31825 0.0
C2210 C 0.85855 0.43593 0.30616 0.0
C2211 C 0.83677 0.45783 0.29598 0.0
C2212 C 0.82036 0.46634 0.29786 0.0
C2213 C 0.84213 0.4443 0.30784 0.0
C2214 C 0.80939 0.46097 0.31179 0.0
C2215 C 0.81457 0.44748 0.32353 0.0
H2216 H 0.2388 0.63629 0.72355 0.0
H2217 H 0.23151 0.62114 0.66748 0.0
H2218 H 0.24492 0.5925 0.67401 0.0
H2219 H 0.25853 0.57158 0.69582 0.0
H2220 H 0.26705 0.58786 0.75145 0.0
H2221 H 0.25364 0.61628 0.74479 0.0
C2222 C 0.24037 0.62688 0.71264 0.0
C2223 C 0.2341 0.63097 0.69503 0.0
C2224 C 0.24835 0.61057 0.71641 0.0
C2225 C 0.23593 0.61833 0.68123 0.0
C2226 C 0.24374 0.60197 0.68492 0.0
C2227 C 0.25765 0.58142 0.70643 0.0
C2228 C 0.26363 0.57741 0.72417 0.0
C2229 C 0.24998 0.59792 0.70248 0.0
C2230 C 0.26223 0.59034 0.73777 0.0
C2231 C 0.25464 0.60669 0.73396 0.0
H2232 H 0.17711 0.39977 0.3002 0.0
H2233 H 0.22958 0.39337 0.32536 0.0
H2234 H 0.23937 0.42111 0.31235 0.0
H2235 H 0.23392 0.44593 0.29174 0.0
H2236 H 0.18223 0.45131 0.2649 0.0
H2237 H 0.17142 0.425 0.28026 0.0
C2238 C 0.19072 0.40435 0.30282 0.0
C2239 C 0.20254 0.39429 0.31376 0.0
C2240 C 0.1965 0.42008 0.29478 0.0
C2241 C 0.22002 0.40082 0.31726 0.0
C2242 C 0.22573 0.41665 0.30965 0.0
C2243 C 0.22021 0.44152 0.28948 0.0
C2244 C 0.20888 0.45057 0.27718 0.0
C2245 C 0.21419 0.42622 0.29814 0.0
C2246 C 0.19124 0.44448 0.27417 0.0
C2247 C 0.18505 0.42947 0.28299 0.0
H2248 H 0.11495 0.68932 0.31018 0.0
H2249 H 0.13074 0.72495 0.3538 0.0
H2250 H 0.10297 0.74112 0.34932 0.0
H2251 H 0.07486 0.74616 0.33196 0.0
H2252 H 0.05925 0.71095 0.28795 0.0
H2253 H 0.08615 0.69368 0.29358 0.0
C2254 C 0.11218 0.70048 0.31885 0.0
C2255 C 0.12495 0.70595 0.33225 0.0
C2256 C 0.09624 0.70991 0.31602 0.0
C2257 C 0.12123 0.72057 0.34325 0.0
C2258 C 0.10533 0.72982 0.34072 0.0
C2259 C 0.07722 0.73458 0.32377 0.0
C2260 C 0.06505 0.72995 0.30949 0.0
C2261 C 0.09284 0.72477 0.32699 0.0
C2262 C 0.06849 0.71499 0.29886 0.0
C2263 C 0.08385 0.70504 0.30212 0.0
H2264 H 0.81077 0.61033 0.31221 0.0
H2265 H 0.83283 0.58543 0.36022 0.0
H2266 H 0.81709 0.55804 0.35204 0.0
H2267 H 0.79935 0.54024 0.32992 0.0
H2268 H 0.77602 0.56526 0.28264 0.0
H2269 H 0.78943 0.59353 0.29223 0.0
C2270 C 0.81188 0.59907 0.32111 0.0
C2271 C 0.82346 0.59995 0.33658 0.0
C2272 C 0.80252 0.58328 0.31647 0.0
C2273 C 0.82458 0.58508 0.34789 0.0
C2274 C 0.81544 0.56938 0.34331 0.0
C2275 C 0.79691 0.55192 0.32185 0.0
C2276 C 0.78694 0.55046 0.30539 0.0
C2277 C 0.80475 0.56818 0.3274 0.0
C2278 C 0.78377 0.56586 0.29527 0.0
C2279 C 0.79153 0.58208 0.30071 0.0
H2280 H 0.94455 0.30521 0.37538 0.0
H2281 H 0.90899 0.30682 0.3282 0.0
H2282 H 0.92774 0.28593 0.31269 0.0
H2283 H 0.95488 0.26806 0.31211 0.0
H2284 H 0.99074 0.26705 0.35911 0.0
H2285 H 0.97122 0.28673 0.37508 0.0
C2286 C 0.94093 0.30103 0.36168 0.0
C2287 C 0.92541 0.30766 0.35296 0.0
C2288 C 0.95184 0.2891 0.35279 0.0
C2289 C 0.92075 0.30183 0.33531 0.0
C2290 C 0.93154 0.28997 0.32638 0.0
C2291 C 0.95847 0.27219 0.32582 0.0
C2292 C 0.97434 0.26609 0.33432 0.0
C2293 C 0.94722 0.28365 0.33492 0.0
C2294 C 0.97856 0.27134 0.35225 0.0
C2295 C 0.96745 0.28272 0.36138 0.0
H2296 H 0.80808 0.46561 0.69245 0.0
H2297 H 0.81444 0.43158 0.73863 0.0
H2298 H 0.79907 0.45281 0.75708 0.0
H2299 H 0.78738 0.48241 0.76113 0.0
H2300 H 0.78107 0.5173 0.7158 0.0
H2301 H 0.79241 0.49427 0.69583 0.0
C2302 C 0.80573 0.46271 0.70644 0.0
C2303 C 0.81269 0.44715 0.71425 0.0
C2304 C 0.79697 0.47517 0.71712 0.0
C2305 C 0.80954 0.44358 0.7324 0.0
C2306 C 0.80072 0.4557 0.74296 0.0
C2307 C 0.78814 0.48484 0.74678 0.0
C2308 C 0.78354 0.50151 0.73992 0.0
C2309 C 0.79493 0.47175 0.73562 0.0
C2310 C 0.78443 0.5045 0.72134 0.0
C2311 C 0.79109 0.4914 0.70999 0.0
H2312 H 0.0916 0.32559 0.69671 0.0
H2313 H 0.13214 0.33182 0.73934 0.0
H2314 H 0.11271 0.31739 0.76047 0.0
H2315 H 0.08308 0.30616 0.76762 0.0
H2316 H 0.04241 0.29925 0.7253 0.0
H2317 H 0.06303 0.31053 0.70316 0.0
C2318 C 0.09622 0.32355 0.71058 0.0
C2319 C 0.11323 0.3299 0.71651 0.0
C2320 C 0.08493 0.31521 0.72269 0.0
C2321 C 0.11916 0.32699 0.73444 0.0
C2322 C 0.10801 0.31884 0.74655 0.0
C2323 C 0.07885 0.30682 0.75347 0.0
C2324 C 0.06125 0.30206 0.74807 0.0
C2325 C 0.09072 0.31335 0.74094 0.0
C2326 C 0.05594 0.30278 0.72973 0.0
C2327 C 0.06767 0.30938 0.71712 0.0
H2328 H 0.91356 0.71822 0.70647 0.0
H2329 H 0.93917 0.7298 0.65699 0.0
H2330 H 0.96357 0.74516 0.67403 0.0
H2331 H 0.97877 0.75325 0.70352 0.0
H2332 H 0.95243 0.74086 0.75256 0.0
H2333 H 0.92734 0.72795 0.73522 0.0
C2334 C 0.92447 0.72415 0.6994 0.0
C2335 C 0.92467 0.72269 0.68054 0.0
C2336 C 0.93843 0.73277 0.70925 0.0
C2337 C 0.9387 0.73076 0.67153 0.0
C2338 C 0.9527 0.73946 0.68128 0.0
C2339 C 0.96743 0.74792 0.71035 0.0
C2340 C 0.96765 0.74786 0.72935 0.0
C2341 C 0.95289 0.74027 0.70022 0.0
C2342 C 0.95281 0.7409 0.73798 0.0
C2343 C 0.93837 0.7335 0.72808 0.0
H2344 H 0.71782 0.24591 0.62218 0.0
H2345 H 0.72152 0.19046 0.6085 0.0
H2346 H 0.73071 0.19806 0.57854 0.0
H2347 H 0.74112 0.22002 0.55754 0.0
H2348 H 0.7399 0.2755 0.57128 0.0
H2349 H 0.72624 0.26831 0.59981 0.0
C2350 C 0.7206 0.23547 0.61264 0.0
C2351 C 0.71904 0.21759 0.61778 0.0
C2352 C 0.72644 0.23993 0.59545 0.0
C2353 C 0.72233 0.20431 0.60501 0.0
C2354 C 0.72778 0.20863 0.58785 0.0
C2355 C 0.73766 0.23061 0.56665 0.0
C2356 C 0.74173 0.24826 0.56239 0.0
C2357 C 0.73033 0.22635 0.58313 0.0
C2358 C 0.73692 0.2618 0.57423 0.0
C2359 C 0.72924 0.25767 0.59061 0.0
H2360 H 0.30849 0.20223 0.59886 0.0
H2361 H 0.33305 0.24675 0.62765 0.0
H2362 H 0.31884 0.26694 0.60645 0.0
H2363 H 0.30133 0.27217 0.57887 0.0
H2364 H 0.27735 0.2285 0.54853 0.0
H2365 H 0.28943 0.20779 0.57123 0.0
C2366 C 0.31073 0.21635 0.6005 0.0
C2367 C 0.32186 0.22286 0.615 0.0
C2368 C 0.3027 0.22806 0.58794 0.0
C2369 C 0.32436 0.24125 0.61695 0.0
C2370 C 0.31635 0.25287 0.60469 0.0
C2371 C 0.29862 0.25811 0.57717 0.0
C2372 C 0.28859 0.25188 0.56189 0.0
C2373 C 0.30575 0.24642 0.59004 0.0
C2374 C 0.28503 0.23365 0.56015 0.0
C2375 C 0.29202 0.22182 0.57308 0.0
H2376 H 0.34749 0.84211 0.6079 0.0
H2377 H 0.29461 0.84341 0.62854 0.0
H2378 H 0.2846 0.82072 0.60668 0.0
H2379 H 0.29084 0.80048 0.58163 0.0
H2380 H 0.34394 0.79861 0.56178 0.0
H2381 H 0.35401 0.82111 0.58383 0.0
C2382 C 0.33384 0.83727 0.60787 0.0
C2383 C 0.32186 0.84458 0.61992 0.0
C2384 C 0.32822 0.82401 0.59545 0.0
C2385 C 0.3041 0.83831 0.6193 0.0
C2386 C 0.29838 0.82521 0.60686 0.0
C2387 C 0.3046 0.80505 0.5821 0.0
C2388 C 0.3166 0.79788 0.57002 0.0
C2389 C 0.3103 0.81802 0.59483 0.0
C2390 C 0.33446 0.80374 0.57101 0.0
C2391 C 0.3402 0.81671 0.58355 0.0
H2392 H 0.68038 0.82332 0.58406 0.0
H2393 H 0.7188 0.86016 0.60848 0.0
H2394 H 0.74029 0.85217 0.58615 0.0
H2395 H 0.74808 0.83504 0.55926 0.0
H2396 H 0.70903 0.79921 0.53427 0.0
H2397 H 0.68795 0.80663 0.55708 0.0
C2398 C 0.69339 0.82973 0.58445 0.0
C2399 C 0.69788 0.84234 0.59802 0.0
C2400 C 0.70563 0.82528 0.57138 0.0
C2401 C 0.71499 0.85021 0.59842 0.0
C2402 C 0.72728 0.84576 0.58553 0.0
C2403 C 0.73492 0.82897 0.5587 0.0
C2404 C 0.73027 0.81651 0.54503 0.0
C2405 C 0.72272 0.83338 0.57187 0.0
C2406 C 0.71317 0.80862 0.54473 0.0
C2407 C 0.70101 0.81293 0.55774 0.0
H2408 H 0.69147 0.78573 0.39692 0.0
H2409 H 0.70473 0.84151 0.39899 0.0
H2410 H 0.72013 0.83779 0.42812 0.0
H2411 H 0.73165 0.81877 0.45196 0.0
H2412 H 0.72019 0.76274 0.45022 0.0
H2413 H 0.70228 0.76651 0.42202 0.0
C2414 C 0.69773 0.79708 0.40373 0.0
C2415 C 0.69681 0.81393 0.39563 0.0
C2416 C 0.70697 0.7948 0.42051 0.0
C2417 C 0.70484 0.82846 0.40488 0.0
C2418 C 0.71384 0.82633 0.42154 0.0
C2419 C 0.72519 0.80732 0.44553 0.0
C2420 C 0.72741 0.79045 0.45315 0.0
C2421 C 0.71521 0.80956 0.42932 0.0
C2422 C 0.7187 0.77587 0.44467 0.0
C2423 C 0.70855 0.77803 0.42849 0.0
H2424 H 0.72326 0.23056 0.4098 0.0
H2425 H 0.73387 0.17506 0.41689 0.0
H2426 H 0.74936 0.18147 0.44589 0.0
H2427 H 0.76055 0.20303 0.46903 0.0
H2428 H 0.7507 0.25855 0.46096 0.0
H2429 H 0.73448 0.25194 0.43257 0.0
C2430 C 0.72906 0.21985 0.4176 0.0
C2431 C 0.7274 0.20236 0.41108 0.0
C2432 C 0.73817 0.22364 0.43414 0.0
C2433 C 0.73472 0.18864 0.42163 0.0
C2434 C 0.74373 0.1923 0.43817 0.0
C2435 C 0.75495 0.21367 0.46099 0.0
C2436 C 0.75678 0.23125 0.46726 0.0
C2437 C 0.74565 0.20978 0.44451 0.0
C2438 C 0.74926 0.24487 0.45672 0.0
C2439 C 0.74005 0.24112 0.44038 0.0
H2440 H 0.31954 0.22631 0.41405 0.0
H2441 H 0.36418 0.20903 0.44784 0.0
H2442 H 0.35635 0.22977 0.47132 0.0
H2443 H 0.3362 0.25211 0.48298 0.0
H2444 H 0.29033 0.26784 0.45044 0.0
H2445 H 0.29908 0.24831 0.42594 0.0
C2446 C 0.32749 0.22692 0.4266 0.0
C2447 C 0.34256 0.21611 0.42896 0.0
C2448 C 0.32266 0.23864 0.44035 0.0
C2449 C 0.35275 0.21738 0.44533 0.0
C2450 C 0.34821 0.22918 0.4589 0.0
C2451 C 0.3283 0.25142 0.47041 0.0
C2452 C 0.31274 0.26148 0.46843 0.0
C2453 C 0.33319 0.23985 0.45659 0.0
C2454 C 0.30236 0.26019 0.45223 0.0
C2455 C 0.30736 0.24903 0.43826 0.0
H2456 H 0.31771 0.80454 0.41548 0.0
H2457 H 0.31103 0.8555 0.44053 0.0
H2458 H 0.29627 0.84146 0.46561 0.0
H2459 H 0.28816 0.81417 0.48202 0.0
H2460 H 0.29686 0.76345 0.45718 0.0
H2461 H 0.30781 0.77784 0.4305 0.0
C2462 C 0.313 0.81259 0.42641 0.0
C2463 C 0.31569 0.831 0.42624 0.0
C2464 C 0.3049 0.80442 0.4409 0.0
C2465 C 0.30911 0.84129 0.4403 0.0
C2466 C 0.30075 0.83325 0.45471 0.0
C2467 C 0.29211 0.80636 0.47057 0.0
C2468 C 0.2918 0.7878 0.47154 0.0
C2469 C 0.29894 0.81477 0.45538 0.0
C2470 C 0.29712 0.77777 0.45675 0.0
C2471 C 0.30342 0.78598 0.4415 0.0
H2472 H 0.62753 0.19115 0.72228 0.0
H2473 H 0.65264 0.24114 0.73685 0.0
H2474 H 0.62523 0.25104 0.75016 0.0
H2475 H 0.59412 0.24551 0.75763 0.0
H2476 H 0.56902 0.1954 0.74366 0.0
H2477 H 0.59642 0.18543 0.73031 0.0
C2478 C 0.62693 0.20423 0.72829 0.0
C2479 C 0.64206 0.21542 0.72855 0.0
C2480 C 0.61116 0.20977 0.73611 0.0
C2481 C 0.6412 0.23225 0.7366 0.0
C2482 C 0.62553 0.23793 0.74417 0.0
C2483 C 0.59463 0.23245 0.75157 0.0
C2484 C 0.57952 0.22125 0.75158 0.0
C2485 C 0.61043 0.22681 0.74399 0.0
C2486 C 0.58049 0.20422 0.74398 0.0
C2487 C 0.59613 0.19856 0.73624 0.0
H2488 H 0.33495 0.10548 0.70331 0.0
H2489 H 0.3377 0.15006 0.74003 0.0
H2490 H 0.32676 0.13151 0.76406 0.0
H2491 H 0.31581 0.10268 0.77457 0.0
H2492 H 0.31319 0.05816 0.73788 0.0
H2493 H 0.32497 0.07652 0.71406 0.0
C2494 C 0.33333 0.11112 0.71661 0.0
C2495 C 0.33708 0.1292 0.71977 0.0
C2496 C 0.32712 0.10034 0.73044 0.0
C2497 C 0.33463 0.13628 0.73707 0.0
C2498 C 0.32851 0.12564 0.7509 0.0
C2499 C 0.3181 0.09694 0.76145 0.0
C2500 C 0.31365 0.07906 0.75801 0.0
C2501 C 0.32467 0.10765 0.74773 0.0
C2502 C 0.31639 0.07191 0.74082 0.0
C2503 C 0.32312 0.0824 0.7272 0.0
H2504 H 0.40187 0.84993 0.71229 0.0
H2505 H 0.4208 0.90228 0.72757 0.0
H2506 H 0.44649 0.88962 0.74389 0.0
H2507 H 0.464 0.86361 0.75323 0.0
H2508 H 0.44391 0.81138 0.73895 0.0
H2509 H 0.41827 0.82411 0.72302 0.0
C2510 C 0.41141 0.85861 0.71944 0.0
C2511 C 0.40933 0.87707 0.71861 0.0
C2512 C 0.42607 0.85126 0.72893 0.0
C2513 C 0.42213 0.88804 0.7277 0.0
C2514 C 0.4368 0.88081 0.73714 0.0
C2515 C 0.45394 0.855 0.74681 0.0
C2516 C 0.45616 0.83653 0.74714 0.0
C2517 C 0.43899 0.86242 0.73775 0.0
C2518 C 0.44293 0.82563 0.7386 0.0
C2519 C 0.42811 0.8329 0.72957 0.0
H2520 H 0.66049 0.93776 0.70812 0.0
H2521 H 0.70724 0.90549 0.7054 0.0
H2522 H 0.72383 0.92598 0.72578 0.0
H2523 H 0.72526 0.95357 0.74374 0.0
H2524 H 0.67829 0.9854 0.74702 0.0
H2525 H 0.66154 0.9646 0.72718 0.0
C2526 C 0.67431 0.93525 0.712 0.0
C2527 C 0.68266 0.9202 0.7052 0.0
C2528 C 0.68372 0.94701 0.72383 0.0
C2529 C 0.7005 0.91694 0.71054 0.0
C2530 C 0.71001 0.92869 0.72212 0.0
C2531 C 0.71137 0.95593 0.74006 0.0
C2532 C 0.70305 0.97104 0.74677 0.0
C2533 C 0.7018 0.94384 0.72874 0.0
C2534 C 0.68495 0.9738 0.74216 0.0
C2535 C 0.6754 0.96196 0.73073 0.0
H2536 H 0.59158 0.80997 0.27256 0.0
H2537 H 0.58846 0.79866 0.32935 0.0
H2538 H 0.55901 0.78556 0.3239 0.0
H2539 H 0.53552 0.77471 0.30302 0.0
H2540 H 0.53863 0.78377 0.24594 0.0
H2541 H 0.56665 0.80047 0.2515 0.0
C2542 C 0.58446 0.80465 0.28374 0.0
C2543 C 0.59238 0.80532 0.30137 0.0
C2544 C 0.56755 0.79667 0.28047 0.0
C2545 C 0.58273 0.79863 0.31571 0.0
C2546 C 0.56589 0.79096 0.31259 0.0
C2547 C 0.5422 0.78047 0.29176 0.0
C2548 C 0.5351 0.77785 0.27407 0.0
C2549 C 0.55838 0.78958 0.29502 0.0
C2550 C 0.5438 0.78563 0.25968 0.0
C2551 C 0.55989 0.79504 0.26287 0.0
H2552 H 0.73971 0.11559 0.30356 0.0
H2553 H 0.69926 0.09525 0.33785 0.0
H2554 H 0.70606 0.06516 0.32871 0.0
H2555 H 0.72199 0.04472 0.3094 0.0
H2556 H 0.76301 0.06495 0.27583 0.0
H2557 H 0.75795 0.09487 0.28691 0.0
C2558 C 0.7326 0.10462 0.30939 0.0
C2559 C 0.71875 0.10788 0.32121 0.0
C2560 C 0.73675 0.08725 0.30428 0.0
C2561 C 0.70963 0.09332 0.32835 0.0
C2562 C 0.71362 0.07604 0.32326 0.0
C2563 C 0.73005 0.05562 0.30472 0.0
C2564 C 0.74277 0.05254 0.29168 0.0
C2565 C 0.72691 0.07286 0.31097 0.0
C2566 C 0.75315 0.06686 0.28587 0.0
C2567 C 0.75016 0.08403 0.2921 0.0
H2568 H 0.42688 0.16767 0.31419 0.0
H2569 H 0.40108 0.21837 0.31218 0.0
H2570 H 0.42455 0.23 0.29366 0.0
H2571 H 0.45292 0.22602 0.27859 0.0
H2572 H 0.47787 0.17501 0.27969 0.0
H2573 H 0.45398 0.16316 0.29758 0.0
C2574 C 0.42613 0.18117 0.30944 0.0
C2575 C 0.41219 0.1921 0.31476 0.0
C2576 C 0.43956 0.18774 0.29859 0.0
C2577 C 0.41176 0.20968 0.30864 0.0
C2578 C 0.42515 0.21635 0.29795 0.0
C2579 C 0.45309 0.21232 0.28278 0.0
C2580 C 0.46719 0.20143 0.27788 0.0
C2581 C 0.43923 0.20556 0.29301 0.0
C2582 C 0.46711 0.18363 0.28315 0.0
C2583 C 0.4535 0.17687 0.29347 0.0
H2584 H 0.33145 0.9279 0.3105 0.0
H2585 H 0.28963 0.89644 0.33311 0.0
H2586 H 0.26735 0.91668 0.32099 0.0
H2587 H 0.2598 0.94439 0.30628 0.0
H2588 H 0.30103 0.97681 0.28412 0.0
H2589 H 0.32347 0.95511 0.29373 0.0
C2590 C 0.31746 0.92546 0.31271 0.0
C2591 C 0.31229 0.91062 0.32275 0.0
C2592 C 0.30461 0.93737 0.3059 0.0
C2593 C 0.29405 0.90754 0.32525 0.0
C2594 C 0.28126 0.91922 0.31845 0.0
C2595 C 0.27368 0.94671 0.30342 0.0
C2596 C 0.27877 0.9623 0.29468 0.0
C2597 C 0.28642 0.93432 0.30908 0.0
C2598 C 0.29677 0.96492 0.29085 0.0
C2599 C 0.3096 0.95256 0.29642 0.0
H2600 H 0.74811 0.11113 0.70295 0.0
H2601 H 0.69353 0.11342 0.71904 0.0
H2602 H 0.69597 0.08412 0.7319 0.0
H2603 H 0.71409 0.05919 0.7413 0.0
H2604 H 0.76909 0.05663 0.72711 0.0
H2605 H 0.76597 0.08461 0.71073 0.0
C2606 C 0.73674 0.1052 0.70922 0.0
C2607 C 0.72065 0.11462 0.70997 0.0
C2608 C 0.73832 0.08832 0.71703 0.0
C2609 C 0.70599 0.10652 0.71792 0.0
C2610 C 0.7074 0.08976 0.72548 0.0
C2611 C 0.7254 0.06463 0.73448 0.0
C2612 C 0.74186 0.05594 0.73558 0.0
C2613 C 0.72358 0.08075 0.72546 0.0
C2614 C 0.75627 0.06305 0.72644 0.0
C2615 C 0.75451 0.07911 0.7172 0.0
H2616 H 0.70795 0.90843 0.30894 0.0
H2617 H 0.66168 0.90134 0.27292 0.0
H2618 H 0.66772 0.92978 0.25902 0.0
H2619 H 0.6868 0.95622 0.25623 0.0
H2620 H 0.73323 0.96311 0.29204 0.0
H2621 H 0.72669 0.9351 0.30652 0.0
C2622 C 0.69923 0.91305 0.29799 0.0
C2623 C 0.68436 0.90269 0.29205 0.0
C2624 C 0.7029 0.92936 0.28986 0.0
C2625 C 0.67307 0.90909 0.278 0.0
C2626 C 0.67659 0.92532 0.26992 0.0
C2627 C 0.69539 0.9517 0.26732 0.0
C2628 C 0.71056 0.96179 0.2729 0.0
C2629 C 0.69152 0.93554 0.27566 0.0
C2630 C 0.72164 0.95554 0.28719 0.0
C2631 C 0.71785 0.93954 0.29559 0.0
H2632 H 0.62032 0.22835 0.32088 0.0
H2633 H 0.6123 0.17292 0.30832 0.0
H2634 H 0.58244 0.17882 0.29589 0.0
H2635 H 0.55975 0.19974 0.28612 0.0
H2636 H 0.56699 0.25535 0.29776 0.0
H2637 H 0.59579 0.24936 0.31341 0.0
C2638 C 0.6119 0.21756 0.3157 0.0
C2639 C 0.61868 0.20023 0.31528 0.0
C2640 C 0.59463 0.22108 0.30837 0.0
C2641 C 0.60758 0.1864 0.30848 0.0
C2642 C 0.59047 0.18975 0.30142 0.0
C2643 C 0.56751 0.21058 0.29226 0.0
C2644 C 0.56132 0.22799 0.29062 0.0
C2645 C 0.58405 0.20705 0.30089 0.0
C2646 C 0.57143 0.24183 0.29886 0.0
C2647 C 0.58797 0.23839 0.30768 0.0
H2648 H 0.3024 0.09712 0.36815 0.0
H2649 H 0.31222 0.11692 0.31502 0.0
H2650 H 0.29322 0.09359 0.30151 0.0
H2651 H 0.27493 0.06675 0.30459 0.0
H2652 H 0.26671 0.0458 0.35758 0.0
H2653 H 0.28395 0.07034 0.37122 0.0
C2654 C 0.30051 0.09631 0.3536 0.0
C2655 C 0.30887 0.10886 0.34269 0.0
C2656 C 0.28987 0.08256 0.34584 0.0
C2657 C 0.30584 0.1077 0.32386 0.0
C2658 C 0.29507 0.09422 0.31607 0.0
C2659 C 0.277 0.0674 0.31911 0.0
C2660 C 0.26954 0.05423 0.32996 0.0
C2661 C 0.28721 0.08144 0.32691 0.0
C2662 C 0.27209 0.05571 0.34882 0.0
C2663 C 0.28208 0.06972 0.35666 0.0
H2664 H 0.42443 0.82607 0.32214 0.0
H2665 H 0.39091 0.78631 0.3454 0.0
H2666 H 0.40933 0.76303 0.33323 0.0
H2667 H 0.43512 0.75393 0.31592 0.0
H2668 H 0.46882 0.79398 0.29345 0.0
H2669 H 0.45034 0.8171 0.30554 0.0
C2670 C 0.42122 0.81233 0.32472 0.0
C2671 C 0.40627 0.80801 0.33469 0.0
C2672 C 0.43196 0.79901 0.31783 0.0
C2673 C 0.40218 0.79006 0.33757 0.0
C2674 C 0.41279 0.77672 0.33072 0.0
C2675 C 0.4385 0.76771 0.31384 0.0
C2676 C 0.4533 0.77217 0.30368 0.0
C2677 C 0.42775 0.78103 0.32085 0.0
C2678 C 0.45737 0.79013 0.30094 0.0
C2679 C 0.44684 0.80339 0.30793 0.0
H2680 H 0.30134 0.97363 0.69397 0.0
H2681 H 0.28603 0.92957 0.72688 0.0
H2682 H 0.27084 0.94958 0.74679 0.0
H2683 H 0.26569 0.97987 0.75727 0.0
H2684 H 0.2805 0.024 0.72462 0.0
H2685 H 0.2915 1.00367 0.70178 0.0
C2686 C 0.29428 0.96829 0.70519 0.0
C2687 C 0.2953 0.95008 0.70913 0.0
C2688 C 0.28541 0.97991 0.71661 0.0
C2689 C 0.28603 0.94354 0.72381 0.0
C2690 C 0.2772 0.95497 0.73516 0.0
C2691 C 0.27068 0.98495 0.74478 0.0
C2692 C 0.27212 1.0033 0.74241 0.0
C2693 C 0.27734 0.97321 0.73204 0.0
C2694 C 0.27893 0.00988 0.72646 0.0
C2695 C 0.28546 0.99825 0.71357 0.0
H2696 H 0.57411 0.81931 0.67467 0.0
H2697 H 0.61601 0.82507 0.71604 0.0
H2698 H 0.59637 0.81294 0.73833 0.0
H2699 H 0.56645 0.80387 0.74675 0.0
H2700 H 0.52433 0.7974 0.70585 0.0
H2701 H 0.54489 0.80643 0.6826 0.0
C2702 C 0.57897 0.81767 0.68853 0.0
C2703 C 0.59647 0.82321 0.69372 0.0
C2704 C 0.56754 0.81068 0.70134 0.0
C2705 C 0.60267 0.82082 0.71166 0.0
C2706 C 0.5914 0.814 0.72445 0.0
C2707 C 0.56186 0.80417 0.73268 0.0
C2708 C 0.54391 0.80019 0.72797 0.0
C2709 C 0.5737 0.80935 0.71954 0.0
C2710 C 0.53812 0.80037 0.70974 0.0
C2711 C 0.54984 0.80567 0.69651 0.0
H2712 H 0.44096 0.22844 0.68918 0.0
H2713 H 0.40875 0.21905 0.73506 0.0
H2714 H 0.43183 0.2323 0.75506 0.0
H2715 H 0.46204 0.24405 0.76001 0.0
H2716 H 0.4947 0.25419 0.71478 0.0
H2717 H 0.47045 0.24354 0.69399 0.0
C2718 C 0.43887 0.2296 0.70351 0.0
C2719 C 0.42325 0.2224 0.71063 0.0
C2720 C 0.4523 0.2373 0.71506 0.0
C2721 C 0.42079 0.22406 0.72925 0.0
C2722 C 0.43396 0.2317 0.74072 0.0
C2723 C 0.46381 0.24411 0.74557 0.0
C2724 C 0.48019 0.24968 0.73894 0.0
C2725 C 0.44993 0.23792 0.73384 0.0
C2726 C 0.48219 0.24996 0.72021 0.0
C2727 C 0.46836 0.24377 0.70835 0.0
H2728 H 0.70035 0.7301 0.11606 0.0
H2729 H 0.72706 0.68001 0.11985 0.0
H2730 H 0.74381 0.68712 0.09334 0.0
H2731 H 0.75208 0.70817 0.07015 0.0
H2732 H 0.72486 0.75805 0.06592 0.0
H2733 H 0.70753 0.75054 0.09172 0.0
C2734 C 0.70981 0.72073 0.11105 0.0
C2735 C 0.71241 0.70454 0.11995 0.0
C2736 C 0.71953 0.72495 0.09585 0.0
C2737 C 0.72459 0.69247 0.11314 0.0
C2738 C 0.73431 0.69658 0.09806 0.0
C2739 C 0.74225 0.71737 0.07464 0.0
C2740 C 0.7401 0.73379 0.06601 0.0
C2741 C 0.73204 0.71287 0.08942 0.0
C2742 C 0.72726 0.74549 0.07235 0.0
C2743 C 0.71716 0.74115 0.0871 0.0
H2744 H 0.29848 0.69318 0.06994 0.0
H2745 H 0.29849 0.72997 0.1148 0.0
H2746 H 0.28532 0.75239 0.09527 0.0
H2747 H 0.2762 0.76245 0.06509 0.0
H2748 H 0.27465 0.72582 0.02026 0.0
H2749 H 0.28545 0.70222 0.0403 0.0
C2750 C 0.29528 0.70596 0.07557 0.0
C2751 C 0.29995 0.70994 0.0938 0.0
C2752 C 0.28739 0.71882 0.06428 0.0
C2753 C 0.29566 0.72665 0.10074 0.0
C2754 C 0.28796 0.73948 0.08961 0.0
C2755 C 0.27796 0.7492 0.05977 0.0
C2756 C 0.27482 0.74586 0.04125 0.0
C2757 C 0.28419 0.73585 0.0713 0.0
C2758 C 0.27693 0.72865 0.03451 0.0
C2759 C 0.28325 0.71523 0.04594 0.0
H2760 H 0.31802 0.35384 0.10852 0.0
H2761 H 0.32923 0.3038 0.13391 0.0
H2762 H 0.31391 0.28823 0.10869 0.0
H2763 H 0.2983 0.28867 0.07874 0.0
H2764 H 0.28842 0.33878 0.05295 0.0
H2765 H 0.30252 0.35432 0.0788 0.0
C2766 C 0.31728 0.33952 0.10853 0.0
C2767 C 0.32487 0.33009 0.12321 0.0
C2768 C 0.30875 0.33058 0.09379 0.0
C2769 C 0.32334 0.31151 0.12301 0.0
C2770 C 0.31469 0.30254 0.10848 0.0
C2771 C 0.29918 0.30299 0.07879 0.0
C2772 C 0.2923 0.31249 0.06383 0.0
C2773 C 0.30747 0.31192 0.09371 0.0
C2774 C 0.29362 0.33106 0.06419 0.0
C2775 C 0.30168 0.34 0.079 0.0
H2776 H 0.66917 0.31989 0.09743 0.0
H2777 H 0.72182 0.33316 0.1194 0.0
H2778 H 0.73507 0.31508 0.09616 0.0
H2779 H 0.73166 0.29554 0.06942 0.0
H2780 H 0.67892 0.28245 0.04759 0.0
H2781 H 0.66577 0.30042 0.07087 0.0
C2782 C 0.68355 0.31894 0.09705 0.0
C2783 C 0.69447 0.32793 0.11011 0.0
C2784 C 0.69107 0.30852 0.08366 0.0
C2785 C 0.71309 0.32627 0.10962 0.0
C2786 C 0.72068 0.316 0.09626 0.0
C2787 C 0.7173 0.29675 0.06968 0.0
C2788 C 0.70631 0.28764 0.05675 0.0
C2789 C 0.7098 0.3071 0.08318 0.0
C2790 C 0.6877 0.28912 0.05747 0.0
C2791 C 0.68016 0.29948 0.07074 0.0
H2792 H 0.70018 0.30749 0.90838 0.0
H2793 H 0.73048 0.35628 0.91341 0.0
H2794 H 0.74281 0.34718 0.94282 0.0
H2795 H 0.74637 0.3246 0.96636 0.0
H2796 H 0.71656 0.27551 0.96084 0.0
H2797 H 0.70283 0.28545 0.9324 0.0
C2798 C 0.70951 0.31613 0.91589 0.0
C2799 C 0.71442 0.33252 0.90862 0.0
C2800 C 0.71674 0.31072 0.93271 0.0
C2801 C 0.72629 0.34367 0.91872 0.0
C2802 C 0.73347 0.33842 0.93551 0.0
C2803 C 0.73677 0.31613 0.95902 0.0
C2804 C 0.73262 0.29928 0.96573 0.0
C2805 C 0.72897 0.32187 0.94254 0.0
C2806 C 0.72011 0.2885 0.956 0.0
C2807 C 0.71223 0.29417 0.93969 0.0
H2808 H 0.7247 0.77039 0.90522 0.0
H2809 H 0.70753 0.72186 0.92964 0.0
H2810 H 0.71584 0.73388 0.95956 0.0
H2811 H 0.73025 0.75724 0.97855 0.0
H2812 H 0.74831 0.80539 0.9539 0.0
H2813 H 0.73725 0.79452 0.9244 0.0
C2814 C 0.7228 0.76243 0.91709 0.0
C2815 C 0.71567 0.74516 0.91514 0.0
C2816 C 0.72774 0.76938 0.93424 0.0
C2817 C 0.71293 0.73519 0.93072 0.0
C2818 C 0.71775 0.74204 0.94784 0.0
C2819 C 0.73146 0.76553 0.9668 0.0
C2820 C 0.74018 0.78213 0.96851 0.0
C2821 C 0.72542 0.75902 0.94975 0.0
C2822 C 0.74169 0.79258 0.95304 0.0
C2823 C 0.73546 0.78632 0.93611 0.0
H2824 H 0.35733 0.72626 0.92547 0.0
H2825 H 0.30908 0.72017 0.89215 0.0
H2826 H 0.29351 0.73981 0.91236 0.0
H2827 H 0.29338 0.758 0.94004 0.0
H2828 H 0.34157 0.76345 0.97358 0.0
H2829 H 0.35736 0.74489 0.95271 0.0
C2830 C 0.34337 0.72914 0.92268 0.0
C2831 C 0.33437 0.72163 0.90736 0.0
C2832 C 0.33449 0.74038 0.93439 0.0
C2833 C 0.31638 0.72584 0.90376 0.0
C2834 C 0.30744 0.737 0.91537 0.0
C2835 C 0.30731 0.75508 0.94284 0.0
C2836 C 0.3162 0.76212 0.95846 0.0
C2837 C 0.31632 0.74423 0.93081 0.0
C2838 C 0.33438 0.75842 0.96163 0.0
C2839 C 0.34342 0.74768 0.94974 0.0
H2840 H 0.36067 0.30974 0.93524 0.0
H2841 H 0.31427 0.34063 0.92114 0.0
H2842 H 0.2969 0.3239 0.94245 0.0
H2843 H 0.29521 0.30122 0.96596 0.0
H2844 H 0.34209 0.2713 0.98078 0.0
H2845 H 0.35888 0.28692 0.95837 0.0
C2846 C 0.34678 0.31291 0.93689 0.0
C2847 C 0.33885 0.32652 0.92664 0.0
C2848 C 0.33694 0.3034 0.94935 0.0
C2849 C 0.32071 0.33013 0.9287 0.0
C2850 C 0.31079 0.32065 0.941 0.0
C2851 C 0.30912 0.29818 0.96438 0.0
C2852 C 0.31732 0.28508 0.97516 0.0
C2853 C 0.31882 0.30738 0.95154 0.0
C2854 C 0.33531 0.28112 0.97261 0.0
C2855 C 0.34499 0.29015 0.95984 0.0
H2856 H 0.60531 0.70779 0.20395 0.0
H2857 H 0.61542 0.66331 0.23882 0.0
H2858 H 0.58651 0.66715 0.25208 0.0
H2859 H 0.55879 0.68395 0.25468 0.0
H2860 H 0.54842 0.7275 0.21858 0.0
H2861 H 0.57684 0.72309 0.20497 0.0
C2862 C 0.6011 0.6987 0.21421 0.0
C2863 C 0.61269 0.68535 0.2204 0.0
C2864 C 0.58439 0.7009 0.22174 0.0
C2865 C 0.60698 0.67391 0.23396 0.0
C2866 C 0.59038 0.67604 0.24152 0.0
C2867 C 0.56261 0.69236 0.24371 0.0
C2868 C 0.55142 0.70624 0.23799 0.0
C2869 C 0.57904 0.68964 0.23567 0.0
C2870 C 0.55679 0.717 0.22372 0.0
C2871 C 0.57307 0.71441 0.21576 0.0
H2872 H 0.31083 0.58399 0.17577 0.0
H2873 H 0.27851 0.62718 0.19332 0.0
H2874 H 0.25943 0.60646 0.20877 0.0
H2875 H 0.25213 0.57609 0.21786 0.0
H2876 H 0.28546 0.5332 0.20212 0.0
H2877 H 0.30418 0.55382 0.18576 0.0
C2878 C 0.29978 0.58897 0.18317 0.0
C2879 C 0.29616 0.60722 0.1832 0.0
C2880 C 0.28904 0.577 0.19241 0.0
C2881 C 0.28151 0.61323 0.19267 0.0
C2882 C 0.27062 0.60138 0.20165 0.0
C2883 C 0.26339 0.57127 0.21069 0.0
C2884 C 0.26734 0.55314 0.21105 0.0
C2885 C 0.27423 0.58324 0.20159 0.0
C2886 C 0.28221 0.5471 0.20205 0.0
C2887 C 0.29287 0.55888 0.19268 0.0
H2888 H 0.42868 0.32262 0.2417 0.0
H2889 H 0.4321 0.31004 0.18505 0.0
H2890 H 0.45724 0.29103 0.19173 0.0
H2891 H 0.47756 0.27705 0.21329 0.0
H2892 H 0.47575 0.28931 0.26999 0.0
H2893 H 0.45102 0.30971 0.26362 0.0
C2894 C 0.43502 0.31582 0.23083 0.0
C2895 C 0.42809 0.31748 0.21291 0.0
C2896 C 0.44982 0.30491 0.23474 0.0
C2897 C 0.43663 0.30862 0.19901 0.0
C2898 C 0.45118 0.29784 0.20278 0.0
C2899 C 0.47184 0.28421 0.22432 0.0
C2900 C 0.47838 0.28153 0.24211 0.0
C2901 C 0.45772 0.29571 0.22056 0.0
C2902 C 0.47097 0.29116 0.25616 0.0
C2903 C 0.45677 0.30273 0.25251 0.0
H2904 H 0.69379 0.43654 0.22238 0.0
H2905 H 0.73589 0.40049 0.21046 0.0
H2906 H 0.75779 0.42023 0.22555 0.0
H2907 H 0.76535 0.44844 0.24013 0.0
H2908 H 0.72391 0.48515 0.25212 0.0
H2909 H 0.70133 0.46429 0.23935 0.0
C2910 C 0.70772 0.4329 0.22336 0.0
C2911 C 0.71322 0.41713 0.21508 0.0
C2912 C 0.72035 0.44444 0.232 0.0
C2913 C 0.73134 0.41266 0.21641 0.0
C2914 C 0.74387 0.42392 0.22509 0.0
C2915 C 0.75136 0.45189 0.2401 0.0
C2916 C 0.74635 0.46843 0.24691 0.0
C2917 C 0.73858 0.43998 0.23258 0.0
C2918 C 0.72814 0.47252 0.24695 0.0
C2919 C 0.71525 0.46062 0.23957 0.0
H2920 H 0.6257 0.32534 0.78281 0.0
H2921 H 0.604 0.35485 0.82658 0.0
H2922 H 0.57405 0.34416 0.81766 0.0
H2923 H 0.55439 0.32474 0.79891 0.0
H2924 H 0.57609 0.29459 0.75555 0.0
H2925 H 0.60555 0.30763 0.76253 0.0
C2926 C 0.61438 0.32971 0.7902 0.0
C2927 C 0.61716 0.3408 0.80545 0.0
C2928 C 0.59717 0.3234 0.78506 0.0
C2929 C 0.60232 0.34611 0.81498 0.0
C2930 C 0.58517 0.34006 0.80983 0.0
C2931 C 0.56547 0.3212 0.79077 0.0
C2932 C 0.56297 0.3086 0.77676 0.0
C2933 C 0.58248 0.32844 0.79511 0.0
C2934 C 0.57757 0.30422 0.7664 0.0
C2935 C 0.59448 0.31161 0.77046 0.0
H2936 H 0.70659 0.64057 0.79276 0.0
H2937 H 0.7291 0.63889 0.84731 0.0
H2938 H 0.74279 0.61075 0.84092 0.0
H2939 H 0.75034 0.58776 0.81962 0.0
H2940 H 0.72945 0.58919 0.76459 0.0
H2941 H 0.71323 0.6163 0.7714 0.0
C2942 C 0.71449 0.63406 0.80326 0.0
C2943 C 0.71672 0.642 0.82055 0.0
C2944 C 0.72274 0.61788 0.79939 0.0
C2945 C 0.7268 0.63311 0.834 0.0
C2946 C 0.73483 0.61704 0.83031 0.0
C2947 C 0.74218 0.5939 0.80906 0.0
C2948 C 0.74127 0.58651 0.79155 0.0
C2949 C 0.73314 0.60947 0.81302 0.0
C2950 C 0.73041 0.59458 0.77817 0.0
C2951 C 0.72121 0.61013 0.78206 0.0
H2952 H 0.4051 0.73641 0.8048 0.0
H2953 H 0.43783 0.69008 0.80287 0.0
H2954 H 0.4606 0.70684 0.78736 0.0
H2955 H 0.47287 0.73585 0.77781 0.0
H2956 H 0.44032 0.78216 0.78168 0.0
H2957 H 0.4159 0.76432 0.79276 0.0
C2958 C 0.41716 0.72994 0.80086 0.0
C2959 C 0.41982 0.71208 0.8052 0.0
C2960 C 0.43033 0.73973 0.79232 0.0
C2961 C 0.43538 0.7038 0.79966 0.0
C2962 C 0.44849 0.71343 0.79089 0.0
C2963 C 0.46025 0.74187 0.78064 0.0
C2964 C 0.45837 0.76027 0.77899 0.0
C2965 C 0.44635 0.73155 0.78759 0.0
C2966 C 0.44206 0.76801 0.78293 0.0
C2967 C 0.42812 0.75784 0.78934 0.0
H2968 H 0.36235 0.4256 0.8107 0.0
H2969 H 0.31915 0.42704 0.84719 0.0
H2970 H 0.30526 0.45081 0.8298 0.0
H2971 H 0.30597 0.47191 0.80504 0.0
H2972 H 0.34866 0.47008 0.76793 0.0
H2973 H 0.36214 0.44576 0.7848 0.0
C2974 C 0.34975 0.43091 0.81469 0.0
C2975 C 0.34187 0.42456 0.83031 0.0
C2976 C 0.34181 0.44462 0.80461 0.0
C2977 C 0.32566 0.43182 0.83541 0.0
C2978 C 0.31767 0.44539 0.82542 0.0
C2979 C 0.31806 0.46608 0.8004 0.0
C2980 C 0.32625 0.47298 0.78518 0.0
C2981 C 0.32571 0.45201 0.81011 0.0
C2982 C 0.34214 0.4653 0.7797 0.0
C2983 C 0.34984 0.45129 0.7893 0.0
H2984 H 0.74842 0.62514 0.21986 0.0
H2985 H 0.71077 0.6011 0.18116 0.0
H2986 H 0.72593 0.57285 0.1844 0.0
H2987 H 0.74882 0.55454 0.19965 0.0
H2988 H 0.78623 0.57865 0.2384 0.0
H2989 H 0.77252 0.60744 0.23337 0.0
C2990 C 0.74368 0.61382 0.21188 0.0
C2991 C 0.72838 0.61526 0.20037 0.0
C2992 C 0.75248 0.59763 0.21378 0.0
C2993 C 0.72231 0.60032 0.19037 0.0
C2994 C 0.73106 0.58417 0.19211 0.0
C2995 C 0.75423 0.56618 0.20664 0.0
C2996 C 0.76853 0.5645 0.21937 0.0
C2997 C 0.74603 0.58262 0.20394 0.0
C2998 C 0.77518 0.57965 0.2286 0.0
C2999 C 0.76732 0.59607 0.22577 0.0
H3000 H 0.70742 0.4395 0.8099 0.0
H3001 H 0.75151 0.42113 0.84368 0.0
H3002 H 0.76676 0.4496 0.8409 0.0
H3003 H 0.76826 0.47928 0.82766 0.0
H3004 H 0.72391 0.49776 0.79438 0.0
H3005 H 0.70808 0.46981 0.79833 0.0
C3006 C 0.72024 0.44179 0.81689 0.0
C3007 C 0.72834 0.42809 0.82684 0.0
C3008 C 0.72897 0.45823 0.81526 0.0
C3009 C 0.74508 0.4313 0.83563 0.0
C3010 C 0.75379 0.44763 0.83414 0.0
C3011 C 0.75503 0.47731 0.82151 0.0
C3012 C 0.7474 0.49059 0.81059 0.0
C3013 C 0.74597 0.46113 0.8238 0.0
C3014 C 0.73027 0.48768 0.80257 0.0
C3015 C 0.72115 0.4717 0.80489 0.0
H3016 H 0.62489 0.75279 0.79951 0.0
H3017 H 0.61054 0.73095 0.85047 0.0
H3018 H 0.58014 0.74191 0.84575 0.0
H3019 H 0.55767 0.75813 0.82711 0.0
H3020 H 0.5724 0.77945 0.77606 0.0
H3021 H 0.60262 0.76845 0.78089 0.0
C3022 C 0.61513 0.7505 0.80963 0.0
C3023 C 0.61999 0.74116 0.82535 0.0
C3024 C 0.59775 0.75682 0.80682 0.0
C3025 C 0.6071 0.73801 0.83819 0.0
C3026 C 0.58975 0.74437 0.83555 0.0
C3027 C 0.56757 0.76043 0.81716 0.0
C3028 C 0.56282 0.76956 0.80126 0.0
C3029 C 0.58494 0.75388 0.81994 0.0
C3030 C 0.57568 0.77228 0.78831 0.0
C3031 C 0.59298 0.76605 0.79109 0.0
H3032 H 0.31301 0.61705 0.81908 0.0
H3033 H 0.35092 0.58897 0.8532 0.0
H3034 H 0.33658 0.56095 0.84449 0.0
H3035 H 0.31486 0.54416 0.82547 0.0
H3036 H 0.27687 0.57189 0.79114 0.0
H3037 H 0.28927 0.6002 0.80211 0.0
C3038 C 0.31796 0.60483 0.82483 0.0
C3039 C 0.33328 0.60517 0.83652 0.0
C3040 C 0.30959 0.58864 0.81978 0.0
C3041 C 0.33948 0.58914 0.8438 0.0
C3042 C 0.3312 0.57307 0.83893 0.0
C3043 C 0.30907 0.55638 0.82057 0.0
C3044 C 0.29503 0.55581 0.80738 0.0
C3045 C 0.31649 0.57262 0.82666 0.0
C3046 C 0.28767 0.57185 0.8013 0.0
C3047 C 0.29486 0.58809 0.80747 0.0
H3048 H 0.43896 0.30891 0.8571 0.0
H3049 H 0.43751 0.34654 0.81366 0.0
H3050 H 0.46075 0.3304 0.79876 0.0
H3051 H 0.48201 0.30618 0.79847 0.0
H3052 H 0.48323 0.2681 0.84148 0.0
H3053 H 0.4596 0.28389 0.85617 0.0
C3054 C 0.44357 0.31344 0.84425 0.0
C3055 C 0.43653 0.32896 0.83655 0.0
C3056 C 0.45698 0.3041 0.83574 0.0
C3057 C 0.44285 0.33478 0.82002 0.0
C3058 C 0.45609 0.32552 0.81145 0.0
C3059 C 0.47698 0.30114 0.81091 0.0
C3060 C 0.48446 0.28592 0.81881 0.0
C3061 C 0.46334 0.31024 0.81925 0.0
C3062 C 0.47793 0.27988 0.83518 0.0
C3063 C 0.46432 0.28885 0.84355 0.0
H3064 H 0.33523 0.43792 0.2185 0.0
H3065 H 0.31708 0.39372 0.24957 0.0
H3066 H 0.29789 0.41326 0.2662 0.0
H3067 H 0.28508 0.44256 0.27085 0.0
H3068 H 0.30285 0.48673 0.23948 0.0
H3069 H 0.32368 0.46761 0.2244 0.0
C3070 C 0.32731 0.43258 0.2291 0.0
C3071 C 0.32757 0.4143 0.23267 0.0
C3072 C 0.31623 0.44391 0.23861 0.0
C3073 C 0.31697 0.40765 0.24631 0.0
C3074 C 0.30605 0.41884 0.25591 0.0
C3075 C 0.29367 0.4481 0.2609 0.0
C3076 C 0.29232 0.4661 0.25631 0.0
C3077 C 0.30539 0.43696 0.25202 0.0
C3078 C 0.30355 0.47295 0.24329 0.0
C3079 C 0.31543 0.462 0.2346 0.0
H3080 H 0.59891 0.31176 0.17589 0.0
H3081 H 0.62081 0.32335 0.22947 0.0
H3082 H 0.60063 0.30148 0.242 0.0
H3083 H 0.57621 0.27964 0.2378 0.0
H3084 H 0.55376 0.26888 0.18426 0.0
H3085 H 0.57474 0.28979 0.1717 0.0
C3086 C 0.59919 0.30962 0.19034 0.0
C3087 C 0.61131 0.3193 0.20172 0.0
C3088 C 0.58745 0.29713 0.19747 0.0
C3089 C 0.61174 0.31602 0.22036 0.0
C3090 C 0.60012 0.30358 0.22755 0.0
C3091 C 0.5758 0.28193 0.2234 0.0
C3092 C 0.5633 0.27266 0.21205 0.0
C3093 C 0.58783 0.29415 0.21625 0.0
C3094 C 0.56329 0.2756 0.19335 0.0
C3095 C 0.57523 0.28768 0.18614 0.0
H3096 H 0.41087 0.7109 0.17312 0.0
H3097 H 0.38942 0.67763 0.21419 0.0
H3098 H 0.41262 0.68797 0.23576 0.0
H3099 H 0.43942 0.70537 0.24283 0.0
H3100 H 0.46173 0.73885 0.20252 0.0
H3101 H 0.43777 0.7295 0.18076 0.0
C3102 C 0.41131 0.70592 0.18679 0.0
C3103 C 0.39832 0.69352 0.192 0.0
C3104 C 0.42485 0.71189 0.19923 0.0
C3105 C 0.399 0.68736 0.20984 0.0
C3106 C 0.41237 0.69316 0.22218 0.0
C3107 C 0.43912 0.71069 0.22929 0.0
C3108 C 0.45247 0.72268 0.22427 0.0
C3109 C 0.4254 0.70529 0.21699 0.0
C3110 C 0.45164 0.72958 0.20673 0.0
C3111 C 0.43797 0.72419 0.19429 0.0
loop_
_geom_bond_atom_site_label_1
_geom_bond_atom_site_label_2
_geom_bond_distance
_geom_bond_site_symmetry_2
_ccdc_geom_bond_type
P0 O11 1.490 . S
P0 C14 1.812 . S
P0 C20 1.803 . S
P0 C26 1.819 . S
H1 C15 0.941 . S
H2 C16 0.939 . S
H3 C18 0.940 . S
H4 C19 0.940 . S
H5 C21 0.939 . S
H6 C22 0.942 . S
H7 C24 0.940 . S
H8 C25 0.939 . S
H9 C27 0.941 . S
H10 C31 0.939 . S
O11 P0 1.490 . S
H12 C28 0.939 . S
H13 C30 0.940 . S
C14 P0 1.812 . S
C14 C15 1.389 . S
C14 C19 1.391 . S
C15 H1 0.941 . S
C15 C14 1.389 . S
C15 C16 1.397 . S
C16 H2 0.939 . S
C16 C15 1.397 . S
C16 C17 1.378 . S
C17 C16 1.378 . S
C17 C18 1.378 . S
C18 H3 0.940 . S
C18 C17 1.378 . S
C18 C19 1.396 . S
C19 H4 0.940 . S
C19 C14 1.391 . S
C19 C18 1.396 . S
C20 P0 1.803 . S
C20 C21 1.378 . S
C20 C25 1.400 . S
C21 H5 0.939 . S
C21 C20 1.378 . S
C21 C22 1.361 . S
C22 H6 0.942 . S
C22 C21 1.361 . S
C22 C23 1.369 . S
C23 C22 1.369 . S
C23 C24 1.404 . S
C24 H7 0.940 . S
C24 C23 1.404 . S
C24 C25 1.389 . S
C25 H8 0.939 . S
C25 C20 1.400 . S
C25 C24 1.389 . S
C26 P0 1.819 . S
C26 C27 1.391 . S
C26 C31 1.391 . S
C27 H9 0.941 . S
C27 C26 1.391 . S
C27 C28 1.396 . S
C28 H12 0.939 . S
C28 C27 1.396 . S
C28 C29 1.397 . S
C29 C28 1.397 . S
C29 C30 1.385 . S
C30 H13 0.940 . S
C30 C29 1.385 . S
C30 C31 1.388 . S
C31 H10 0.939 . S
C31 C26 1.391 . S
C31 C30 1.388 . S
P32 O43 1.490 . S
P32 C46 1.812 . S
P32 C52 1.803 . S
P32 C58 1.819 . S
H33 C47 0.941 . S
H34 C48 0.939 . S
H35 C50 0.940 . S
H36 C51 0.940 . S
H37 C53 0.939 . S
H38 C54 0.942 . S
H39 C56 0.940 . S
H40 C57 0.939 . S
H41 C59 0.941 . S
H42 C63 0.939 . S
O43 P32 1.490 . S
H44 C60 0.939 . S
H45 C62 0.940 . S
C46 P32 1.812 . S
C46 C47 1.389 . S
C46 C51 1.391 . S
C47 H33 0.941 . S
C47 C46 1.389 . S
C47 C48 1.397 . S
C48 H34 0.939 . S
C48 C47 1.397 . S
C48 C49 1.378 . S
C49 C48 1.378 . S
C49 C50 1.378 . S
C50 H35 0.940 . S
C50 C49 1.378 . S
C50 C51 1.396 . S
C51 H36 0.940 . S
C51 C46 1.391 . S
C51 C50 1.396 . S
C52 P32 1.803 . S
C52 C53 1.378 . S
C52 C57 1.400 . S
C53 H37 0.939 . S
C53 C52 1.378 . S
C53 C54 1.361 . S
C54 H38 0.942 . S
C54 C53 1.361 . S
C54 C55 1.369 . S
C55 C54 1.369 . S
C55 C56 1.404 . S
C56 H39 0.940 . S
C56 C55 1.404 . S
C56 C57 1.389 . S
C57 H40 0.939 . S
C57 C52 1.400 . S
C57 C56 1.389 . S
C58 P32 1.819 . S
C58 C59 1.391 . S
C58 C63 1.391 . S
C59 H41 0.941 . S
C59 C58 1.391 . S
C59 C60 1.396 . S
C60 H44 0.939 . S
C60 C59 1.396 . S
C60 C61 1.397 . S
C61 C60 1.397 . S
C61 C62 1.385 . S
C62 H45 0.940 . S
C62 C61 1.385 . S
C62 C63 1.388 . S
C63 H42 0.939 . S
C63 C58 1.391 . S
C63 C62 1.388 . S
P64 O75 1.490 . S
P64 C78 1.812 . S
P64 C84 1.803 . S
P64 C90 1.819 . S
H65 C79 0.941 . S
H66 C80 0.939 . S
H67 C82 0.940 . S
H68 C83 0.940 . S
H69 C85 0.939 . S
H70 C86 0.942 . S
H71 C88 0.940 . S
H72 C89 0.939 . S
H73 C91 0.941 . S
H74 C95 0.939 . S
O75 P64 1.490 . S
H76 C92 0.939 . S
H77 C94 0.940 . S
C78 P64 1.812 . S
C78 C79 1.389 . S
C78 C83 1.391 . S
C79 H65 0.941 . S
C79 C78 1.389 . S
C79 C80 1.397 . S
C80 H66 0.939 . S
C80 C79 1.397 . S
C80 C81 1.378 . S
C81 C80 1.378 . S
C81 C82 1.378 . S
C82 H67 0.940 . S
C82 C81 1.378 . S
C82 C83 1.396 . S
C83 H68 0.940 . S
C83 C78 1.391 . S
C83 C82 1.396 . S
C84 P64 1.803 . S
C84 C85 1.378 . S
C84 C89 1.400 . S
C85 H69 0.939 . S
C85 C84 1.378 . S
C85 C86 1.361 . S
C86 H70 0.942 . S
C86 C85 1.361 . S
C86 C87 1.369 . S
C87 C86 1.369 . S
C87 C88 1.404 . S
C88 H71 0.940 . S
C88 C87 1.404 . S
C88 C89 1.389 . S
C89 H72 0.939 . S
C89 C84 1.400 . S
C89 C88 1.389 . S
C90 P64 1.819 . S
C90 C91 1.391 . S
C90 C95 1.391 . S
C91 H73 0.941 . S
C91 C90 1.391 . S
C91 C92 1.396 . S
C92 H76 0.939 . S
C92 C91 1.396 . S
C92 C93 1.397 . S
C93 C92 1.397 . S
C93 C94 1.385 . S
C94 H77 0.940 . S
C94 C93 1.385 . S
C94 C95 1.388 . S
C95 H74 0.939 . S
C95 C90 1.391 . S
C95 C94 1.388 . S
P96 O107 1.490 . S
P96 C110 1.812 . S
P96 C116 1.803 . S
P96 C122 1.819 . S
H97 C111 0.941 . S
H98 C112 0.939 . S
H99 C114 0.940 . S
H100 C115 0.940 . S
H101 C117 0.939 . S
H102 C118 0.942 . S
H103 C120 0.940 . S
H104 C121 0.939 . S
H105 C123 0.941 . S
H106 C127 0.939 . S
O107 P96 1.490 . S
H108 C124 0.939 . S
H109 C126 0.940 . S
C110 P96 1.812 . S
C110 C111 1.389 . S
C110 C115 1.391 . S
C111 H97 0.941 . S
C111 C110 1.389 . S
C111 C112 1.397 . S
C112 H98 0.939 . S
C112 C111 1.397 . S
C112 C113 1.378 . S
C113 C112 1.378 . S
C113 C114 1.378 . S
C114 H99 0.940 . S
C114 C113 1.378 . S
C114 C115 1.396 . S
C115 H100 0.940 . S
C115 C110 1.391 . S
C115 C114 1.396 . S
C116 P96 1.803 . S
C116 C117 1.378 . S
C116 C121 1.400 . S
C117 H101 0.939 . S
C117 C116 1.378 . S
C117 C118 1.361 . S
C118 H102 0.942 . S
C118 C117 1.361 . S
C118 C119 1.369 . S
C119 C118 1.369 . S
C119 C120 1.404 . S
C120 H103 0.940 . S
C120 C119 1.404 . S
C120 C121 1.389 . S
C121 H104 0.939 . S
C121 C116 1.400 . S
C121 C120 1.389 . S
C122 P96 1.819 . S
C122 C123 1.391 . S
C122 C127 1.391 . S
C123 H105 0.941 . S
C123 C122 1.391 . S
C123 C124 1.396 . S
C124 H108 0.939 . S
C124 C123 1.396 . S
C124 C125 1.397 . S
C125 C124 1.397 . S
C125 C126 1.385 . S
C126 H109 0.940 . S
C126 C125 1.385 . S
C126 C127 1.388 . S
C127 H106 0.939 . S
C127 C122 1.391 . S
C127 C126 1.388 . S
P128 O139 1.490 . S
P128 C142 1.812 . S
P128 C148 1.803 . S
P128 C154 1.819 . S
H129 C143 0.941 . S
H130 C144 0.939 . S
H131 C146 0.940 . S
H132 C147 0.940 . S
H133 C149 0.939 . S
H134 C150 0.942 . S
H135 C152 0.940 . S
H136 C153 0.939 . S
H137 C155 0.941 . S
H138 C159 0.939 . S
O139 P128 1.490 . S
H140 C156 0.939 . S
H141 C158 0.940 . S
C142 P128 1.812 . S
C142 C143 1.389 . S
C142 C147 1.391 . S
C143 H129 0.941 . S
C143 C142 1.389 . S
C143 C144 1.397 . S
C144 H130 0.939 . S
C144 C143 1.397 . S
C144 C145 1.378 . S
C145 C144 1.378 . S
C145 C146 1.378 . S
C146 H131 0.940 . S
C146 C145 1.378 . S
C146 C147 1.396 . S
C147 H132 0.940 . S
C147 C142 1.391 . S
C147 C146 1.396 . S
C148 P128 1.803 . S
C148 C149 1.378 . S
C148 C153 1.400 . S
C149 H133 0.939 . S
C149 C148 1.378 . S
C149 C150 1.361 . S
C150 H134 0.942 . S
C150 C149 1.361 . S
C150 C151 1.369 . S
C151 C150 1.369 . S
C151 C152 1.404 . S
C152 H135 0.940 . S
C152 C151 1.404 . S
C152 C153 1.389 . S
C153 H136 0.939 . S
C153 C148 1.400 . S
C153 C152 1.389 . S
C154 P128 1.819 . S
C154 C155 1.391 . S
C154 C159 1.391 . S
C155 H137 0.941 . S
C155 C154 1.391 . S
C155 C156 1.396 . S
C156 H140 0.939 . S
C156 C155 1.396 . S
C156 C157 1.397 . S
C157 C156 1.397 . S
C157 C158 1.385 . S
C158 H141 0.940 . S
C158 C157 1.385 . S
C158 C159 1.388 . S
C159 H138 0.939 . S
C159 C154 1.391 . S
C159 C158 1.388 . S
P160 O171 1.490 . S
P160 C174 1.812 . S
P160 C180 1.803 . S
P160 C186 1.819 . S
H161 C175 0.941 . S
H162 C176 0.939 . S
H163 C178 0.940 . S
H164 C179 0.940 . S
H165 C181 0.939 . S
H166 C182 0.942 . S
H167 C184 0.940 . S
H168 C185 0.939 . S
H169 C187 0.941 . S
H170 C191 0.939 . S
O171 P160 1.490 . S
H172 C188 0.939 . S
H173 C190 0.940 . S
C174 P160 1.812 . S
C174 C175 1.389 . S
C174 C179 1.391 . S
C175 H161 0.941 . S
C175 C174 1.389 . S
C175 C176 1.397 . S
C176 H162 0.939 . S
C176 C175 1.397 . S
C176 C177 1.378 . S
C177 C176 1.378 . S
C177 C178 1.378 . S
C178 H163 0.940 . S
C178 C177 1.378 . S
C178 C179 1.396 . S
C179 H164 0.940 . S
C179 C174 1.391 . S
C179 C178 1.396 . S
C180 P160 1.803 . S
C180 C181 1.378 . S
C180 C185 1.400 . S
C181 H165 0.939 . S
C181 C180 1.378 . S
C181 C182 1.361 . S
C182 H166 0.942 . S
C182 C181 1.361 . S
C182 C183 1.369 . S
C183 C182 1.369 . S
C183 C184 1.404 . S
C184 H167 0.940 . S
C184 C183 1.404 . S
C184 C185 1.389 . S
C185 H168 0.939 . S
C185 C180 1.400 . S
C185 C184 1.389 . S
C186 P160 1.819 . S
C186 C187 1.391 . S
C186 C191 1.391 . S
C187 H169 0.941 . S
C187 C186 1.391 . S
C187 C188 1.396 . S
C188 H172 0.939 . S
C188 C187 1.396 . S
C188 C189 1.397 . S
C189 C188 1.397 . S
C189 C190 1.385 . S
C190 H173 0.940 . S
C190 C189 1.385 . S
C190 C191 1.388 . S
C191 H170 0.939 . S
C191 C186 1.391 . S
C191 C190 1.388 . S
P192 O203 1.490 . S
P192 C206 1.812 . S
P192 C212 1.803 . S
P192 C218 1.819 . S
H193 C207 0.941 . S
H194 C208 0.939 . S
H195 C210 0.940 . S
H196 C211 0.940 . S
H197 C213 0.939 . S
H198 C214 0.942 . S
H199 C216 0.940 . S
H200 C217 0.939 . S
H201 C219 0.941 . S
H202 C223 0.939 . S
O203 P192 1.490 . S
H204 C220 0.939 . S
H205 C222 0.940 . S
C206 P192 1.812 . S
C206 C207 1.389 . S
C206 C211 1.391 . S
C207 H193 0.941 . S
C207 C206 1.389 . S
C207 C208 1.397 . S
C208 H194 0.939 . S
C208 C207 1.397 . S
C208 C209 1.378 . S
C209 C208 1.378 . S
C209 C210 1.378 . S
C210 H195 0.940 . S
C210 C209 1.378 . S
C210 C211 1.396 . S
C211 H196 0.940 . S
C211 C206 1.391 . S
C211 C210 1.396 . S
C212 P192 1.803 . S
C212 C213 1.378 . S
C212 C217 1.400 . S
C213 H197 0.939 . S
C213 C212 1.378 . S
C213 C214 1.361 . S
C214 H198 0.942 . S
C214 C213 1.361 . S
C214 C215 1.369 . S
C215 C214 1.369 . S
C215 C216 1.404 . S
C216 H199 0.940 . S
C216 C215 1.404 . S
C216 C217 1.389 . S
C217 H200 0.939 . S
C217 C212 1.400 . S
C217 C216 1.389 . S
C218 P192 1.819 . S
C218 C219 1.391 . S
C218 C223 1.391 . S
C219 H201 0.941 . S
C219 C218 1.391 . S
C219 C220 1.396 . S
C220 H204 0.939 . S
C220 C219 1.396 . S
C220 C221 1.397 . S
C221 C220 1.397 . S
C221 C222 1.385 . S
C222 H205 0.940 . S
C222 C221 1.385 . S
C222 C223 1.388 . S
C223 H202 0.939 . S
C223 C218 1.391 . S
C223 C222 1.388 . S
P224 O235 1.490 . S
P224 C238 1.812 . S
P224 C244 1.803 . S
P224 C250 1.819 . S
H225 C239 0.941 . S
H226 C240 0.939 . S
H227 C242 0.940 . S
H228 C243 0.940 . S
H229 C245 0.939 . S
H230 C246 0.942 . S
H231 C248 0.940 . S
H232 C249 0.939 . S
H233 C251 0.941 . S
H234 C255 0.939 . S
O235 P224 1.490 . S
H236 C252 0.939 . S
H237 C254 0.940 . S
C238 P224 1.812 . S
C238 C239 1.389 . S
C238 C243 1.391 . S
C239 H225 0.941 . S
C239 C238 1.389 . S
C239 C240 1.397 . S
C240 H226 0.939 . S
C240 C239 1.397 . S
C240 C241 1.378 . S
C241 C240 1.378 . S
C241 C242 1.378 . S
C242 H227 0.940 . S
C242 C241 1.378 . S
C242 C243 1.396 . S
C243 H228 0.940 . S
C243 C238 1.391 . S
C243 C242 1.396 . S
C244 P224 1.803 . S
C244 C245 1.378 . S
C244 C249 1.400 . S
C245 H229 0.939 . S
C245 C244 1.378 . S
C245 C246 1.361 . S
C246 H230 0.942 . S
C246 C245 1.361 . S
C246 C247 1.369 . S
C247 C246 1.369 . S
C247 C248 1.404 . S
C248 H231 0.940 . S
C248 C247 1.404 . S
C248 C249 1.389 . S
C249 H232 0.939 . S
C249 C244 1.400 . S
C249 C248 1.389 . S
C250 P224 1.819 . S
C250 C251 1.391 . S
C250 C255 1.391 . S
C251 H233 0.941 . S
C251 C250 1.391 . S
C251 C252 1.396 . S
C252 H236 0.939 . S
C252 C251 1.396 . S
C252 C253 1.397 . S
C253 C252 1.397 . S
C253 C254 1.385 . S
C254 H237 0.940 . S
C254 C253 1.385 . S
C254 C255 1.388 . S
C255 H234 0.939 . S
C255 C250 1.391 . S
C255 C254 1.388 . S
P256 O267 1.490 . S
P256 C270 1.812 . S
P256 C276 1.803 . S
P256 C282 1.819 . S
H257 C271 0.941 . S
H258 C272 0.939 . S
H259 C274 0.940 . S
H260 C275 0.940 . S
H261 C277 0.939 . S
H262 C278 0.942 . S
H263 C280 0.940 . S
H264 C281 0.939 . S
H265 C283 0.941 . S
H266 C287 0.939 . S
O267 P256 1.490 . S
H268 C284 0.939 . S
H269 C286 0.940 . S
C270 P256 1.812 . S
C270 C271 1.389 . S
C270 C275 1.391 . S
C271 H257 0.941 . S
C271 C270 1.389 . S
C271 C272 1.397 . S
C272 H258 0.939 . S
C272 C271 1.397 . S
C272 C273 1.378 . S
C273 C272 1.378 . S
C273 C274 1.378 . S
C274 H259 0.940 . S
C274 C273 1.378 . S
C274 C275 1.396 . S
C275 H260 0.940 . S
C275 C270 1.391 . S
C275 C274 1.396 . S
C276 P256 1.803 . S
C276 C277 1.378 . S
C276 C281 1.400 . S
C277 H261 0.939 . S
C277 C276 1.378 . S
C277 C278 1.361 . S
C278 H262 0.942 . S
C278 C277 1.361 . S
C278 C279 1.369 . S
C279 C278 1.369 . S
C279 C280 1.404 . S
C280 H263 0.940 . S
C280 C279 1.404 . S
C280 C281 1.389 . S
C281 H264 0.939 . S
C281 C276 1.400 . S
C281 C280 1.389 . S
C282 P256 1.819 . S
C282 C283 1.391 . S
C282 C287 1.391 . S
C283 H265 0.941 . S
C283 C282 1.391 . S
C283 C284 1.396 . S
C284 H268 0.939 . S
C284 C283 1.396 . S
C284 C285 1.397 . S
C285 C284 1.397 . S
C285 C286 1.385 . S
C286 H269 0.940 . S
C286 C285 1.385 . S
C286 C287 1.388 . S
C287 H266 0.939 . S
C287 C282 1.391 . S
C287 C286 1.388 . S
P288 O299 1.490 . S
P288 C302 1.812 . S
P288 C308 1.803 . S
P288 C314 1.819 . S
H289 C303 0.941 . S
H290 C304 0.939 . S
H291 C306 0.940 . S
H292 C307 0.940 . S
H293 C309 0.939 . S
H294 C310 0.942 . S
H295 C312 0.940 . S
H296 C313 0.939 . S
H297 C315 0.941 . S
H298 C319 0.939 . S
O299 P288 1.490 . S
H300 C316 0.939 . S
H301 C318 0.940 . S
C302 P288 1.812 . S
C302 C303 1.389 . S
C302 C307 1.391 . S
C303 H289 0.941 . S
C303 C302 1.389 . S
C303 C304 1.397 . S
C304 H290 0.939 . S
C304 C303 1.397 . S
C304 C305 1.378 . S
C305 C304 1.378 . S
C305 C306 1.378 . S
C306 H291 0.940 . S
C306 C305 1.378 . S
C306 C307 1.396 . S
C307 H292 0.940 . S
C307 C302 1.391 . S
C307 C306 1.396 . S
C308 P288 1.803 . S
C308 C309 1.378 . S
C308 C313 1.400 . S
C309 H293 0.939 . S
C309 C308 1.378 . S
C309 C310 1.361 . S
C310 H294 0.942 . S
C310 C309 1.361 . S
C310 C311 1.369 . S
C311 C310 1.369 . S
C311 C312 1.404 . S
C312 H295 0.940 . S
C312 C311 1.404 . S
C312 C313 1.389 . S
C313 H296 0.939 . S
C313 C308 1.400 . S
C313 C312 1.389 . S
C314 P288 1.819 . S
C314 C315 1.391 . S
C314 C319 1.391 . S
C315 H297 0.941 . S
C315 C314 1.391 . S
C315 C316 1.396 . S
C316 H300 0.939 . S
C316 C315 1.396 . S
C316 C317 1.397 . S
C317 C316 1.397 . S
C317 C318 1.385 . S
C318 H301 0.940 . S
C318 C317 1.385 . S
C318 C319 1.388 . S
C319 H298 0.939 . S
C319 C314 1.391 . S
C319 C318 1.388 . S
P320 O331 1.490 . S
P320 C334 1.812 . S
P320 C340 1.803 . S
P320 C346 1.819 . S
H321 C335 0.941 . S
H322 C336 0.939 . S
H323 C338 0.940 . S
H324 C339 0.940 . S
H325 C341 0.939 . S
H326 C342 0.942 . S
H327 C344 0.940 . S
H328 C345 0.939 . S
H329 C347 0.941 . S
H330 C351 0.939 . S
O331 P320 1.490 . S
H332 C348 0.939 . S
H333 C350 0.940 . S
C334 P320 1.812 . S
C334 C335 1.389 . S
C334 C339 1.391 . S
C335 H321 0.941 . S
C335 C334 1.389 . S
C335 C336 1.397 . S
C336 H322 0.939 . S
C336 C335 1.397 . S
C336 C337 1.378 . S
C337 C336 1.378 . S
C337 C338 1.378 . S
C338 H323 0.940 . S
C338 C337 1.378 . S
C338 C339 1.396 . S
C339 H324 0.940 . S
C339 C334 1.391 . S
C339 C338 1.396 . S
C340 P320 1.803 . S
C340 C341 1.378 . S
C340 C345 1.400 . S
C341 H325 0.939 . S
C341 C340 1.378 . S
C341 C342 1.361 . S
C342 H326 0.942 . S
C342 C341 1.361 . S
C342 C343 1.369 . S
C343 C342 1.369 . S
C343 C344 1.404 . S
C344 H327 0.940 . S
C344 C343 1.404 . S
C344 C345 1.389 . S
C345 H328 0.939 . S
C345 C340 1.400 . S
C345 C344 1.389 . S
C346 P320 1.819 . S
C346 C347 1.391 . S
C346 C351 1.391 . S
C347 H329 0.941 . S
C347 C346 1.391 . S
C347 C348 1.396 . S
C348 H332 0.939 . S
C348 C347 1.396 . S
C348 C349 1.397 . S
C349 C348 1.397 . S
C349 C350 1.385 . S
C350 H333 0.940 . S
C350 C349 1.385 . S
C350 C351 1.388 . S
C351 H330 0.939 . S
C351 C346 1.391 . S
C351 C350 1.388 . S
P352 O363 1.490 . S
P352 C366 1.812 . S
P352 C372 1.803 . S
P352 C378 1.819 . S
H353 C367 0.941 . S
H354 C368 0.939 . S
H355 C370 0.940 . S
H356 C371 0.940 . S
H357 C373 0.939 . S
H358 C374 0.942 . S
H359 C376 0.940 . S
H360 C377 0.939 . S
H361 C379 0.941 . S
H362 C383 0.939 . S
O363 P352 1.490 . S
H364 C380 0.939 . S
H365 C382 0.940 . S
C366 P352 1.812 . S
C366 C367 1.389 . S
C366 C371 1.391 . S
C367 H353 0.941 . S
C367 C366 1.389 . S
C367 C368 1.397 . S
C368 H354 0.939 . S
C368 C367 1.397 . S
C368 C369 1.378 . S
C369 C368 1.378 . S
C369 C370 1.378 . S
C370 H355 0.940 . S
C370 C369 1.378 . S
C370 C371 1.396 . S
C371 H356 0.940 . S
C371 C366 1.391 . S
C371 C370 1.396 . S
C372 P352 1.803 . S
C372 C373 1.378 . S
C372 C377 1.400 . S
C373 H357 0.939 . S
C373 C372 1.378 . S
C373 C374 1.361 . S
C374 H358 0.942 . S
C374 C373 1.361 . S
C374 C375 1.369 . S
C375 C374 1.369 . S
C375 C376 1.404 . S
C376 H359 0.940 . S
C376 C375 1.404 . S
C376 C377 1.389 . S
C377 H360 0.939 . S
C377 C372 1.400 . S
C377 C376 1.389 . S
C378 P352 1.819 . S
C378 C379 1.391 . S
C378 C383 1.391 . S
C379 H361 0.941 . S
C379 C378 1.391 . S
C379 C380 1.396 . S
C380 H364 0.939 . S
C380 C379 1.396 . S
C380 C381 1.397 . S
C381 C380 1.397 . S
C381 C382 1.385 . S
C382 H365 0.940 . S
C382 C381 1.385 . S
C382 C383 1.388 . S
C383 H362 0.939 . S
C383 C378 1.391 . S
C383 C382 1.388 . S
P384 O395 1.490 . S
P384 C398 1.812 . S
P384 C404 1.803 . S
P384 C410 1.819 . S
H385 C399 0.941 . S
H386 C400 0.939 . S
H387 C402 0.940 . S
H388 C403 0.940 . S
H389 C405 0.939 . S
H390 C406 0.942 . S
H391 C408 0.940 . S
H392 C409 0.939 . S
H393 C411 0.941 . S
H394 C415 0.939 . S
O395 P384 1.490 . S
H396 C412 0.939 . S
H397 C414 0.940 . S
C398 P384 1.812 . S
C398 C399 1.389 . S
C398 C403 1.391 . S
C399 H385 0.941 . S
C399 C398 1.389 . S
C399 C400 1.397 . S
C400 H386 0.939 . S
C400 C399 1.397 . S
C400 C401 1.378 . S
C401 C400 1.378 . S
C401 C402 1.378 . S
C402 H387 0.940 . S
C402 C401 1.378 . S
C402 C403 1.396 . S
C403 H388 0.940 . S
C403 C398 1.391 . S
C403 C402 1.396 . S
C404 P384 1.803 . S
C404 C405 1.378 . S
C404 C409 1.400 . S
C405 H389 0.939 . S
C405 C404 1.378 . S
C405 C406 1.361 . S
C406 H390 0.942 . S
C406 C405 1.361 . S
C406 C407 1.369 . S
C407 C406 1.369 . S
C407 C408 1.404 . S
C408 H391 0.940 . S
C408 C407 1.404 . S
C408 C409 1.389 . S
C409 H392 0.939 . S
C409 C404 1.400 . S
C409 C408 1.389 . S
C410 P384 1.819 . S
C410 C411 1.391 . S
C410 C415 1.391 . S
C411 H393 0.941 . S
C411 C410 1.391 . S
C411 C412 1.396 . S
C412 H396 0.939 . S
C412 C411 1.396 . S
C412 C413 1.397 . S
C413 C412 1.397 . S
C413 C414 1.385 . S
C414 H397 0.940 . S
C414 C413 1.385 . S
C414 C415 1.388 . S
C415 H394 0.939 . S
C415 C410 1.391 . S
C415 C414 1.388 . S
P416 O427 1.490 . S
P416 C430 1.812 . S
P416 C436 1.803 . S
P416 C442 1.819 . S
H417 C431 0.941 . S
H418 C432 0.939 . S
H419 C434 0.940 . S
H420 C435 0.940 . S
H421 C437 0.939 . S
H422 C438 0.942 . S
H423 C440 0.940 . S
H424 C441 0.939 . S
H425 C443 0.941 . S
H426 C447 0.939 . S
O427 P416 1.490 . S
H428 C444 0.939 . S
H429 C446 0.940 . S
C430 P416 1.812 . S
C430 C431 1.389 . S
C430 C435 1.391 . S
C431 H417 0.941 . S
C431 C430 1.389 . S
C431 C432 1.397 . S
C432 H418 0.939 . S
C432 C431 1.397 . S
C432 C433 1.378 . S
C433 C432 1.378 . S
C433 C434 1.378 . S
C434 H419 0.940 . S
C434 C433 1.378 . S
C434 C435 1.396 . S
C435 H420 0.940 . S
C435 C430 1.391 . S
C435 C434 1.396 . S
C436 P416 1.803 . S
C436 C437 1.378 . S
C436 C441 1.400 . S
C437 H421 0.939 . S
C437 C436 1.378 . S
C437 C438 1.361 . S
C438 H422 0.942 . S
C438 C437 1.361 . S
C438 C439 1.369 . S
C439 C438 1.369 . S
C439 C440 1.404 . S
C440 H423 0.940 . S
C440 C439 1.404 . S
C440 C441 1.389 . S
C441 H424 0.939 . S
C441 C436 1.400 . S
C441 C440 1.389 . S
C442 P416 1.819 . S
C442 C443 1.391 . S
C442 C447 1.391 . S
C443 H425 0.941 . S
C443 C442 1.391 . S
C443 C444 1.396 . S
C444 H428 0.939 . S
C444 C443 1.396 . S
C444 C445 1.397 . S
C445 C444 1.397 . S
C445 C446 1.385 . S
C446 H429 0.940 . S
C446 C445 1.385 . S
C446 C447 1.388 . S
C447 H426 0.939 . S
C447 C442 1.391 . S
C447 C446 1.388 . S
P448 O459 1.490 . S
P448 C462 1.812 . S
P448 C468 1.803 . S
P448 C474 1.819 . S
H449 C463 0.941 . S
H450 C464 0.939 . S
H451 C466 0.940 . S
H452 C467 0.940 . S
H453 C469 0.939 . S
H454 C470 0.942 . S
H455 C472 0.940 . S
H456 C473 0.939 . S
H457 C475 0.941 . S
H458 C479 0.939 . S
O459 P448 1.490 . S
H460 C476 0.939 . S
H461 C478 0.940 . S
C462 P448 1.812 . S
C462 C463 1.389 . S
C462 C467 1.391 . S
C463 H449 0.941 . S
C463 C462 1.389 . S
C463 C464 1.397 . S
C464 H450 0.939 . S
C464 C463 1.397 . S
C464 C465 1.378 . S
C465 C464 1.378 . S
C465 C466 1.378 . S
C466 H451 0.940 . S
C466 C465 1.378 . S
C466 C467 1.396 . S
C467 H452 0.940 . S
C467 C462 1.391 . S
C467 C466 1.396 . S
C468 P448 1.803 . S
C468 C469 1.378 . S
C468 C473 1.400 . S
C469 H453 0.939 . S
C469 C468 1.378 . S
C469 C470 1.361 . S
C470 H454 0.942 . S
C470 C469 1.361 . S
C470 C471 1.369 . S
C471 C470 1.369 . S
C471 C472 1.404 . S
C472 H455 0.940 . S
C472 C471 1.404 . S
C472 C473 1.389 . S
C473 H456 0.939 . S
C473 C468 1.400 . S
C473 C472 1.389 . S
C474 P448 1.819 . S
C474 C475 1.391 . S
C474 C479 1.391 . S
C475 H457 0.941 . S
C475 C474 1.391 . S
C475 C476 1.396 . S
C476 H460 0.939 . S
C476 C475 1.396 . S
C476 C477 1.397 . S
C477 C476 1.397 . S
C477 C478 1.385 . S
C478 H461 0.940 . S
C478 C477 1.385 . S
C478 C479 1.388 . S
C479 H458 0.939 . S
C479 C474 1.391 . S
C479 C478 1.388 . S
P480 O491 1.490 . S
P480 C494 1.812 . S
P480 C500 1.803 . S
P480 C506 1.819 . S
H481 C495 0.941 . S
H482 C496 0.939 . S
H483 C498 0.940 . S
H484 C499 0.940 . S
H485 C501 0.939 . S
H486 C502 0.942 . S
H487 C504 0.940 . S
H488 C505 0.939 . S
H489 C507 0.941 . S
H490 C511 0.939 . S
O491 P480 1.490 . S
H492 C508 0.939 . S
H493 C510 0.940 . S
C494 P480 1.812 . S
C494 C495 1.389 . S
C494 C499 1.391 . S
C495 H481 0.941 . S
C495 C494 1.389 . S
C495 C496 1.397 . S
C496 H482 0.939 . S
C496 C495 1.397 . S
C496 C497 1.378 . S
C497 C496 1.378 . S
C497 C498 1.378 . S
C498 H483 0.940 . S
C498 C497 1.378 . S
C498 C499 1.396 . S
C499 H484 0.940 . S
C499 C494 1.391 . S
C499 C498 1.396 . S
C500 P480 1.803 . S
C500 C501 1.378 . S
C500 C505 1.400 . S
C501 H485 0.939 . S
C501 C500 1.378 . S
C501 C502 1.361 . S
C502 H486 0.942 . S
C502 C501 1.361 . S
C502 C503 1.369 . S
C503 C502 1.369 . S
C503 C504 1.404 . S
C504 H487 0.940 . S
C504 C503 1.404 . S
C504 C505 1.389 . S
C505 H488 0.939 . S
C505 C500 1.400 . S
C505 C504 1.389 . S
C506 P480 1.819 . S
C506 C507 1.391 . S
C506 C511 1.391 . S
C507 H489 0.941 . S
C507 C506 1.391 . S
C507 C508 1.396 . S
C508 H492 0.939 . S
C508 C507 1.396 . S
C508 C509 1.397 . S
C509 C508 1.397 . S
C509 C510 1.385 . S
C510 H493 0.940 . S
C510 C509 1.385 . S
C510 C511 1.388 . S
C511 H490 0.939 . S
C511 C506 1.391 . S
C511 C510 1.388 . S
P512 O523 1.490 . S
P512 C526 1.812 . S
P512 C532 1.803 . S
P512 C538 1.819 . S
H513 C527 0.941 . S
H514 C528 0.939 . S
H515 C530 0.940 . S
H516 C531 0.940 . S
H517 C533 0.939 . S
H518 C534 0.942 . S
H519 C536 0.940 . S
H520 C537 0.939 . S
H521 C539 0.941 . S
H522 C543 0.939 . S
O523 P512 1.490 . S
H524 C540 0.939 . S
H525 C542 0.940 . S
C526 P512 1.812 . S
C526 C527 1.389 . S
C526 C531 1.391 . S
C527 H513 0.941 . S
C527 C526 1.389 . S
C527 C528 1.397 . S
C528 H514 0.939 . S
C528 C527 1.397 . S
C528 C529 1.378 . S
C529 C528 1.378 . S
C529 C530 1.378 . S
C530 H515 0.940 . S
C530 C529 1.378 . S
C530 C531 1.396 . S
C531 H516 0.940 . S
C531 C526 1.391 . S
C531 C530 1.396 . S
C532 P512 1.803 . S
C532 C533 1.378 . S
C532 C537 1.400 . S
C533 H517 0.939 . S
C533 C532 1.378 . S
C533 C534 1.361 . S
C534 H518 0.942 . S
C534 C533 1.361 . S
C534 C535 1.369 . S
C535 C534 1.369 . S
C535 C536 1.404 . S
C536 H519 0.940 . S
C536 C535 1.404 . S
C536 C537 1.389 . S
C537 H520 0.939 . S
C537 C532 1.400 . S
C537 C536 1.389 . S
C538 P512 1.819 . S
C538 C539 1.391 . S
C538 C543 1.391 . S
C539 H521 0.941 . S
C539 C538 1.391 . S
C539 C540 1.396 . S
C540 H524 0.939 . S
C540 C539 1.396 . S
C540 C541 1.397 . S
C541 C540 1.397 . S
C541 C542 1.385 . S
C542 H525 0.940 . S
C542 C541 1.385 . S
C542 C543 1.388 . S
C543 H522 0.939 . S
C543 C538 1.391 . S
C543 C542 1.388 . S
P544 O555 1.490 . S
P544 C558 1.812 . S
P544 C564 1.803 . S
P544 C570 1.819 . S
H545 C559 0.941 . S
H546 C560 0.939 . S
H547 C562 0.940 . S
H548 C563 0.940 . S
H549 C565 0.939 . S
H550 C566 0.942 . S
H551 C568 0.940 . S
H552 C569 0.939 . S
H553 C571 0.941 . S
H554 C575 0.939 . S
O555 P544 1.490 . S
H556 C572 0.939 . S
H557 C574 0.940 . S
C558 P544 1.812 . S
C558 C559 1.389 . S
C558 C563 1.391 . S
C559 H545 0.941 . S
C559 C558 1.389 . S
C559 C560 1.397 . S
C560 H546 0.939 . S
C560 C559 1.397 . S
C560 C561 1.378 . S
C561 C560 1.378 . S
C561 C562 1.378 . S
C562 H547 0.940 . S
C562 C561 1.378 . S
C562 C563 1.396 . S
C563 H548 0.940 . S
C563 C558 1.391 . S
C563 C562 1.396 . S
C564 P544 1.803 . S
C564 C565 1.378 . S
C564 C569 1.400 . S
C565 H549 0.939 . S
C565 C564 1.378 . S
C565 C566 1.361 . S
C566 H550 0.942 . S
C566 C565 1.361 . S
C566 C567 1.369 . S
C567 C566 1.369 . S
C567 C568 1.404 . S
C568 H551 0.940 . S
C568 C567 1.404 . S
C568 C569 1.389 . S
C569 H552 0.939 . S
C569 C564 1.400 . S
C569 C568 1.389 . S
C570 P544 1.819 . S
C570 C571 1.391 . S
C570 C575 1.391 . S
C571 H553 0.941 . S
C571 C570 1.391 . S
C571 C572 1.396 . S
C572 H556 0.939 . S
C572 C571 1.396 . S
C572 C573 1.397 . S
C573 C572 1.397 . S
C573 C574 1.385 . S
C574 H557 0.940 . S
C574 C573 1.385 . S
C574 C575 1.388 . S
C575 H554 0.939 . S
C575 C570 1.391 . S
C575 C574 1.388 . S
P576 O587 1.490 . S
P576 C590 1.812 . S
P576 C596 1.803 . S
P576 C602 1.819 . S
H577 C591 0.941 . S
H578 C592 0.939 . S
H579 C594 0.940 . S
H580 C595 0.940 . S
H581 C597 0.939 . S
H582 C598 0.942 . S
H583 C600 0.940 . S
H584 C601 0.939 . S
H585 C603 0.941 . S
H586 C607 0.939 . S
O587 P576 1.490 . S
H588 C604 0.939 . S
H589 C606 0.940 . S
C590 P576 1.812 . S
C590 C591 1.389 . S
C590 C595 1.391 . S
C591 H577 0.941 . S
C591 C590 1.389 . S
C591 C592 1.397 . S
C592 H578 0.939 . S
C592 C591 1.397 . S
C592 C593 1.378 . S
C593 C592 1.378 . S
C593 C594 1.378 . S
C594 H579 0.940 . S
C594 C593 1.378 . S
C594 C595 1.396 . S
C595 H580 0.940 . S
C595 C590 1.391 . S
C595 C594 1.396 . S
C596 P576 1.803 . S
C596 C597 1.378 . S
C596 C601 1.400 . S
C597 H581 0.939 . S
C597 C596 1.378 . S
C597 C598 1.361 . S
C598 H582 0.942 . S
C598 C597 1.361 . S
C598 C599 1.369 . S
C599 C598 1.369 . S
C599 C600 1.404 . S
C600 H583 0.940 . S
C600 C599 1.404 . S
C600 C601 1.389 . S
C601 H584 0.939 . S
C601 C596 1.400 . S
C601 C600 1.389 . S
C602 P576 1.819 . S
C602 C603 1.391 . S
C602 C607 1.391 . S
C603 H585 0.941 . S
C603 C602 1.391 . S
C603 C604 1.396 . S
C604 H588 0.939 . S
C604 C603 1.396 . S
C604 C605 1.397 . S
C605 C604 1.397 . S
C605 C606 1.385 . S
C606 H589 0.940 . S
C606 C605 1.385 . S
C606 C607 1.388 . S
C607 H586 0.939 . S
C607 C602 1.391 . S
C607 C606 1.388 . S
P608 O619 1.490 . S
P608 C622 1.812 . S
P608 C628 1.803 . S
P608 C634 1.819 . S
H609 C623 0.941 . S
H610 C624 0.939 . S
H611 C626 0.940 . S
H612 C627 0.940 . S
H613 C629 0.939 . S
H614 C630 0.942 . S
H615 C632 0.940 . S
H616 C633 0.939 . S
H617 C635 0.941 . S
H618 C639 0.939 . S
O619 P608 1.490 . S
H620 C636 0.939 . S
H621 C638 0.940 . S
C622 P608 1.812 . S
C622 C623 1.389 . S
C622 C627 1.391 . S
C623 H609 0.941 . S
C623 C622 1.389 . S
C623 C624 1.397 . S
C624 H610 0.939 . S
C624 C623 1.397 . S
C624 C625 1.378 . S
C625 C624 1.378 . S
C625 C626 1.378 . S
C626 H611 0.940 . S
C626 C625 1.378 . S
C626 C627 1.396 . S
C627 H612 0.940 . S
C627 C622 1.391 . S
C627 C626 1.396 . S
C628 P608 1.803 . S
C628 C629 1.378 . S
C628 C633 1.400 . S
C629 H613 0.939 . S
C629 C628 1.378 . S
C629 C630 1.361 . S
C630 H614 0.942 . S
C630 C629 1.361 . S
C630 C631 1.369 . S
C631 C630 1.369 . S
C631 C632 1.404 . S
C632 H615 0.940 . S
C632 C631 1.404 . S
C632 C633 1.389 . S
C633 H616 0.939 . S
C633 C628 1.400 . S
C633 C632 1.389 . S
C634 P608 1.819 . S
C634 C635 1.391 . S
C634 C639 1.391 . S
C635 H617 0.941 . S
C635 C634 1.391 . S
C635 C636 1.396 . S
C636 H620 0.939 . S
C636 C635 1.396 . S
C636 C637 1.397 . S
C637 C636 1.397 . S
C637 C638 1.385 . S
C638 H621 0.940 . S
C638 C637 1.385 . S
C638 C639 1.388 . S
C639 H618 0.939 . S
C639 C634 1.391 . S
C639 C638 1.388 . S
P640 O651 1.490 . S
P640 C654 1.812 . S
P640 C660 1.803 . S
P640 C666 1.819 . S
H641 C655 0.941 . S
H642 C656 0.939 . S
H643 C658 0.940 . S
H644 C659 0.940 . S
H645 C661 0.939 . S
H646 C662 0.942 . S
H647 C664 0.940 . S
H648 C665 0.939 . S
H649 C667 0.941 . S
H650 C671 0.939 . S
O651 P640 1.490 . S
H652 C668 0.939 . S
H653 C670 0.940 . S
C654 P640 1.812 . S
C654 C655 1.389 . S
C654 C659 1.391 . S
C655 H641 0.941 . S
C655 C654 1.389 . S
C655 C656 1.397 . S
C656 H642 0.939 . S
C656 C655 1.397 . S
C656 C657 1.378 . S
C657 C656 1.378 . S
C657 C658 1.378 . S
C658 H643 0.940 . S
C658 C657 1.378 . S
C658 C659 1.396 . S
C659 H644 0.940 . S
C659 C654 1.391 . S
C659 C658 1.396 . S
C660 P640 1.803 . S
C660 C661 1.378 . S
C660 C665 1.400 . S
C661 H645 0.939 . S
C661 C660 1.378 . S
C661 C662 1.361 . S
C662 H646 0.942 . S
C662 C661 1.361 . S
C662 C663 1.369 . S
C663 C662 1.369 . S
C663 C664 1.404 . S
C664 H647 0.940 . S
C664 C663 1.404 . S
C664 C665 1.389 . S
C665 H648 0.939 . S
C665 C660 1.400 . S
C665 C664 1.389 . S
C666 P640 1.819 . S
C666 C667 1.391 . S
C666 C671 1.391 . S
C667 H649 0.941 . S
C667 C666 1.391 . S
C667 C668 1.396 . S
C668 H652 0.939 . S
C668 C667 1.396 . S
C668 C669 1.397 . S
C669 C668 1.397 . S
C669 C670 1.385 . S
C670 H653 0.940 . S
C670 C669 1.385 . S
C670 C671 1.388 . S
C671 H650 0.939 . S
C671 C666 1.391 . S
C671 C670 1.388 . S
P672 O683 1.490 . S
P672 C686 1.812 . S
P672 C692 1.803 . S
P672 C698 1.819 . S
H673 C687 0.941 . S
H674 C688 0.939 . S
H675 C690 0.940 . S
H676 C691 0.940 . S
H677 C693 0.939 . S
H678 C694 0.942 . S
H679 C696 0.940 . S
H680 C697 0.939 . S
H681 C699 0.941 . S
H682 C703 0.939 . S
O683 P672 1.490 . S
H684 C700 0.939 . S
H685 C702 0.940 . S
C686 P672 1.812 . S
C686 C687 1.389 . S
C686 C691 1.391 . S
C687 H673 0.941 . S
C687 C686 1.389 . S
C687 C688 1.397 . S
C688 H674 0.939 . S
C688 C687 1.397 . S
C688 C689 1.378 . S
C689 C688 1.378 . S
C689 C690 1.378 . S
C690 H675 0.940 . S
C690 C689 1.378 . S
C690 C691 1.396 . S
C691 H676 0.940 . S
C691 C686 1.391 . S
C691 C690 1.396 . S
C692 P672 1.803 . S
C692 C693 1.378 . S
C692 C697 1.400 . S
C693 H677 0.939 . S
C693 C692 1.378 . S
C693 C694 1.361 . S
C694 H678 0.942 . S
C694 C693 1.361 . S
C694 C695 1.369 . S
C695 C694 1.369 . S
C695 C696 1.404 . S
C696 H679 0.940 . S
C696 C695 1.404 . S
C696 C697 1.389 . S
C697 H680 0.939 . S
C697 C692 1.400 . S
C697 C696 1.389 . S
C698 P672 1.819 . S
C698 C699 1.391 . S
C698 C703 1.391 . S
C699 H681 0.941 . S
C699 C698 1.391 . S
C699 C700 1.396 . S
C700 H684 0.939 . S
C700 C699 1.396 . S
C700 C701 1.397 . S
C701 C700 1.397 . S
C701 C702 1.385 . S
C702 H685 0.940 . S
C702 C701 1.385 . S
C702 C703 1.388 . S
C703 H682 0.939 . S
C703 C698 1.391 . S
C703 C702 1.388 . S
P704 O715 1.490 . S
P704 C718 1.812 . S
P704 C724 1.803 . S
P704 C730 1.819 . S
H705 C719 0.941 . S
H706 C720 0.939 . S
H707 C722 0.940 . S
H708 C723 0.940 . S
H709 C725 0.939 . S
H710 C726 0.942 . S
H711 C728 0.940 . S
H712 C729 0.939 . S
H713 C731 0.941 . S
H714 C735 0.939 . S
O715 P704 1.490 . S
H716 C732 0.939 . S
H717 C734 0.940 . S
C718 P704 1.812 . S
C718 C719 1.389 . S
C718 C723 1.391 . S
C719 H705 0.941 . S
C719 C718 1.389 . S
C719 C720 1.397 . S
C720 H706 0.939 . S
C720 C719 1.397 . S
C720 C721 1.378 . S
C721 C720 1.378 . S
C721 C722 1.378 . S
C722 H707 0.940 . S
C722 C721 1.378 . S
C722 C723 1.396 . S
C723 H708 0.940 . S
C723 C718 1.391 . S
C723 C722 1.396 . S
C724 P704 1.803 . S
C724 C725 1.378 . S
C724 C729 1.400 . S
C725 H709 0.939 . S
C725 C724 1.378 . S
C725 C726 1.361 . S
C726 H710 0.942 . S
C726 C725 1.361 . S
C726 C727 1.369 . S
C727 C726 1.369 . S
C727 C728 1.404 . S
C728 H711 0.940 . S
C728 C727 1.404 . S
C728 C729 1.389 . S
C729 H712 0.939 . S
C729 C724 1.400 . S
C729 C728 1.389 . S
C730 P704 1.819 . S
C730 C731 1.391 . S
C730 C735 1.391 . S
C731 H713 0.941 . S
C731 C730 1.391 . S
C731 C732 1.396 . S
C732 H716 0.939 . S
C732 C731 1.396 . S
C732 C733 1.397 . S
C733 C732 1.397 . S
C733 C734 1.385 . S
C734 H717 0.940 . S
C734 C733 1.385 . S
C734 C735 1.388 . S
C735 H714 0.939 . S
C735 C730 1.391 . S
C735 C734 1.388 . S
P736 O747 1.490 . S
P736 C750 1.812 . S
P736 C756 1.803 . S
P736 C762 1.819 . S
H737 C751 0.941 . S
H738 C752 0.939 . S
H739 C754 0.940 . S
H740 C755 0.940 . S
H741 C757 0.939 . S
H742 C758 0.942 . S
H743 C760 0.940 . S
H744 C761 0.939 . S
H745 C763 0.941 . S
H746 C767 0.939 . S
O747 P736 1.490 . S
H748 C764 0.939 . S
H749 C766 0.940 . S
C750 P736 1.812 . S
C750 C751 1.389 . S
C750 C755 1.391 . S
C751 H737 0.941 . S
C751 C750 1.389 . S
C751 C752 1.397 . S
C752 H738 0.939 . S
C752 C751 1.397 . S
C752 C753 1.378 . S
C753 C752 1.378 . S
C753 C754 1.378 . S
C754 H739 0.940 . S
C754 C753 1.378 . S
C754 C755 1.396 . S
C755 H740 0.940 . S
C755 C750 1.391 . S
C755 C754 1.396 . S
C756 P736 1.803 . S
C756 C757 1.378 . S
C756 C761 1.400 . S
C757 H741 0.939 . S
C757 C756 1.378 . S
C757 C758 1.361 . S
C758 H742 0.942 . S
C758 C757 1.361 . S
C758 C759 1.369 . S
C759 C758 1.369 . S
C759 C760 1.404 . S
C760 H743 0.940 . S
C760 C759 1.404 . S
C760 C761 1.389 . S
C761 H744 0.939 . S
C761 C756 1.400 . S
C761 C760 1.389 . S
C762 P736 1.819 . S
C762 C763 1.391 . S
C762 C767 1.391 . S
C763 H745 0.941 . S
C763 C762 1.391 . S
C763 C764 1.396 . S
C764 H748 0.939 . S
C764 C763 1.396 . S
C764 C765 1.397 . S
C765 C764 1.397 . S
C765 C766 1.385 . S
C766 H749 0.940 . S
C766 C765 1.385 . S
C766 C767 1.388 . S
C767 H746 0.939 . S
C767 C762 1.391 . S
C767 C766 1.388 . S
P768 O779 1.490 . S
P768 C782 1.812 . S
P768 C788 1.803 . S
P768 C794 1.819 . S
H769 C783 0.941 . S
H770 C784 0.939 . S
H771 C786 0.940 . S
H772 C787 0.940 . S
H773 C789 0.939 . S
H774 C790 0.942 . S
H775 C792 0.940 . S
H776 C793 0.939 . S
H777 C795 0.941 . S
H778 C799 0.939 . S
O779 P768 1.490 . S
H780 C796 0.939 . S
H781 C798 0.940 . S
C782 P768 1.812 . S
C782 C783 1.389 . S
C782 C787 1.391 . S
C783 H769 0.941 . S
C783 C782 1.389 . S
C783 C784 1.397 . S
C784 H770 0.939 . S
C784 C783 1.397 . S
C784 C785 1.378 . S
C785 C784 1.378 . S
C785 C786 1.378 . S
C786 H771 0.940 . S
C786 C785 1.378 . S
C786 C787 1.396 . S
C787 H772 0.940 . S
C787 C782 1.391 . S
C787 C786 1.396 . S
C788 P768 1.803 . S
C788 C789 1.378 . S
C788 C793 1.400 . S
C789 H773 0.939 . S
C789 C788 1.378 . S
C789 C790 1.361 . S
C790 H774 0.942 . S
C790 C789 1.361 . S
C790 C791 1.369 . S
C791 C790 1.369 . S
C791 C792 1.404 . S
C792 H775 0.940 . S
C792 C791 1.404 . S
C792 C793 1.389 . S
C793 H776 0.939 . S
C793 C788 1.400 . S
C793 C792 1.389 . S
C794 P768 1.819 . S
C794 C795 1.391 . S
C794 C799 1.391 . S
C795 H777 0.941 . S
C795 C794 1.391 . S
C795 C796 1.396 . S
C796 H780 0.939 . S
C796 C795 1.396 . S
C796 C797 1.397 . S
C797 C796 1.397 . S
C797 C798 1.385 . S
C798 H781 0.940 . S
C798 C797 1.385 . S
C798 C799 1.388 . S
C799 H778 0.939 . S
C799 C794 1.391 . S
C799 C798 1.388 . S
P800 O811 1.490 . S
P800 C814 1.812 . S
P800 C820 1.803 . S
P800 C826 1.819 . S
H801 C815 0.941 . S
H802 C816 0.939 . S
H803 C818 0.940 . S
H804 C819 0.940 . S
H805 C821 0.939 . S
H806 C822 0.942 . S
H807 C824 0.940 . S
H808 C825 0.939 . S
H809 C827 0.941 . S
H810 C831 0.939 . S
O811 P800 1.490 . S
H812 C828 0.939 . S
H813 C830 0.940 . S
C814 P800 1.812 . S
C814 C815 1.389 . S
C814 C819 1.391 . S
C815 H801 0.941 . S
C815 C814 1.389 . S
C815 C816 1.397 . S
C816 H802 0.939 . S
C816 C815 1.397 . S
C816 C817 1.378 . S
C817 C816 1.378 . S
C817 C818 1.378 . S
C818 H803 0.940 . S
C818 C817 1.378 . S
C818 C819 1.396 . S
C819 H804 0.940 . S
C819 C814 1.391 . S
C819 C818 1.396 . S
C820 P800 1.803 . S
C820 C821 1.378 . S
C820 C825 1.400 . S
C821 H805 0.939 . S
C821 C820 1.378 . S
C821 C822 1.361 . S
C822 H806 0.942 . S
C822 C821 1.361 . S
C822 C823 1.369 . S
C823 C822 1.369 . S
C823 C824 1.404 . S
C824 H807 0.940 . S
C824 C823 1.404 . S
C824 C825 1.389 . S
C825 H808 0.939 . S
C825 C820 1.400 . S
C825 C824 1.389 . S
C826 P800 1.819 . S
C826 C827 1.391 . S
C826 C831 1.391 . S
C827 H809 0.941 . S
C827 C826 1.391 . S
C827 C828 1.396 . S
C828 H812 0.939 . S
C828 C827 1.396 . S
C828 C829 1.397 . S
C829 C828 1.397 . S
C829 C830 1.385 . S
C830 H813 0.940 . S
C830 C829 1.385 . S
C830 C831 1.388 . S
C831 H810 0.939 . S
C831 C826 1.391 . S
C831 C830 1.388 . S
P832 O843 1.490 . S
P832 C846 1.812 . S
P832 C852 1.803 . S
P832 C858 1.819 . S
H833 C847 0.941 . S
H834 C848 0.939 . S
H835 C850 0.940 . S
H836 C851 0.940 . S
H837 C853 0.939 . S
H838 C854 0.942 . S
H839 C856 0.940 . S
H840 C857 0.939 . S
H841 C859 0.941 . S
H842 C863 0.939 . S
O843 P832 1.490 . S
H844 C860 0.939 . S
H845 C862 0.940 . S
C846 P832 1.812 . S
C846 C847 1.389 . S
C846 C851 1.391 . S
C847 H833 0.941 . S
C847 C846 1.389 . S
C847 C848 1.397 . S
C848 H834 0.939 . S
C848 C847 1.397 . S
C848 C849 1.378 . S
C849 C848 1.378 . S
C849 C850 1.378 . S
C850 H835 0.940 . S
C850 C849 1.378 . S
C850 C851 1.396 . S
C851 H836 0.940 . S
C851 C846 1.391 . S
C851 C850 1.396 . S
C852 P832 1.803 . S
C852 C853 1.378 . S
C852 C857 1.400 . S
C853 H837 0.939 . S
C853 C852 1.378 . S
C853 C854 1.361 . S
C854 H838 0.942 . S
C854 C853 1.361 . S
C854 C855 1.369 . S
C855 C854 1.369 . S
C855 C856 1.404 . S
C856 H839 0.940 . S
C856 C855 1.404 . S
C856 C857 1.389 . S
C857 H840 0.939 . S
C857 C852 1.400 . S
C857 C856 1.389 . S
C858 P832 1.819 . S
C858 C859 1.391 . S
C858 C863 1.391 . S
C859 H841 0.941 . S
C859 C858 1.391 . S
C859 C860 1.396 . S
C860 H844 0.939 . S
C860 C859 1.396 . S
C860 C861 1.397 . S
C861 C860 1.397 . S
C861 C862 1.385 . S
C862 H845 0.940 . S
C862 C861 1.385 . S
C862 C863 1.388 . S
C863 H842 0.939 . S
C863 C858 1.391 . S
C863 C862 1.388 . S
P864 O875 1.490 . S
P864 C878 1.812 . S
P864 C884 1.803 . S
P864 C890 1.819 . S
H865 C879 0.941 . S
H866 C880 0.939 . S
H867 C882 0.940 . S
H868 C883 0.940 . S
H869 C885 0.939 . S
H870 C886 0.942 . S
H871 C888 0.940 . S
H872 C889 0.939 . S
H873 C891 0.941 . S
H874 C895 0.939 . S
O875 P864 1.490 . S
H876 C892 0.939 . S
H877 C894 0.940 . S
C878 P864 1.812 . S
C878 C879 1.389 . S
C878 C883 1.391 . S
C879 H865 0.941 . S
C879 C878 1.389 . S
C879 C880 1.397 . S
C880 H866 0.939 . S
C880 C879 1.397 . S
C880 C881 1.378 . S
C881 C880 1.378 . S
C881 C882 1.378 . S
C882 H867 0.940 . S
C882 C881 1.378 . S
C882 C883 1.396 . S
C883 H868 0.940 . S
C883 C878 1.391 . S
C883 C882 1.396 . S
C884 P864 1.803 . S
C884 C885 1.378 . S
C884 C889 1.400 . S
C885 H869 0.939 . S
C885 C884 1.378 . S
C885 C886 1.361 . S
C886 H870 0.942 . S
C886 C885 1.361 . S
C886 C887 1.369 . S
C887 C886 1.369 . S
C887 C888 1.404 . S
C888 H871 0.940 . S
C888 C887 1.404 . S
C888 C889 1.389 . S
C889 H872 0.939 . S
C889 C884 1.400 . S
C889 C888 1.389 . S
C890 P864 1.819 . S
C890 C891 1.391 . S
C890 C895 1.391 . S
C891 H873 0.941 . S
C891 C890 1.391 . S
C891 C892 1.396 . S
C892 H876 0.939 . S
C892 C891 1.396 . S
C892 C893 1.397 . S
C893 C892 1.397 . S
C893 C894 1.385 . S
C894 H877 0.940 . S
C894 C893 1.385 . S
C894 C895 1.388 . S
C895 H874 0.939 . S
C895 C890 1.391 . S
C895 C894 1.388 . S
P896 O907 1.490 . S
P896 C910 1.812 . S
P896 C916 1.803 . S
P896 C922 1.819 . S
H897 C911 0.941 . S
H898 C912 0.939 . S
H899 C914 0.940 . S
H900 C915 0.940 . S
H901 C917 0.939 . S
H902 C918 0.942 . S
H903 C920 0.940 . S
H904 C921 0.939 . S
H905 C923 0.941 . S
H906 C927 0.939 . S
O907 P896 1.490 . S
H908 C924 0.939 . S
H909 C926 0.940 . S
C910 P896 1.812 . S
C910 C911 1.389 . S
C910 C915 1.391 . S
C911 H897 0.941 . S
C911 C910 1.389 . S
C911 C912 1.397 . S
C912 H898 0.939 . S
C912 C911 1.397 . S
C912 C913 1.378 . S
C913 C912 1.378 . S
C913 C914 1.378 . S
C914 H899 0.940 . S
C914 C913 1.378 . S
C914 C915 1.396 . S
C915 H900 0.940 . S
C915 C910 1.391 . S
C915 C914 1.396 . S
C916 P896 1.803 . S
C916 C917 1.378 . S
C916 C921 1.400 . S
C917 H901 0.939 . S
C917 C916 1.378 . S
C917 C918 1.361 . S
C918 H902 0.942 . S
C918 C917 1.361 . S
C918 C919 1.369 . S
C919 C918 1.369 . S
C919 C920 1.404 . S
C920 H903 0.940 . S
C920 C919 1.404 . S
C920 C921 1.389 . S
C921 H904 0.939 . S
C921 C916 1.400 . S
C921 C920 1.389 . S
C922 P896 1.819 . S
C922 C923 1.391 . S
C922 C927 1.391 . S
C923 H905 0.941 . S
C923 C922 1.391 . S
C923 C924 1.396 . S
C924 H908 0.939 . S
C924 C923 1.396 . S
C924 C925 1.397 . S
C925 C924 1.397 . S
C925 C926 1.385 . S
C926 H909 0.940 . S
C926 C925 1.385 . S
C926 C927 1.388 . S
C927 H906 0.939 . S
C927 C922 1.391 . S
C927 C926 1.388 . S
P928 O939 1.490 . S
P928 C942 1.812 . S
P928 C948 1.803 . S
P928 C954 1.819 . S
H929 C943 0.941 . S
H930 C944 0.939 . S
H931 C946 0.940 . S
H932 C947 0.940 . S
H933 C949 0.939 . S
H934 C950 0.942 . S
H935 C952 0.940 . S
H936 C953 0.939 . S
H937 C955 0.941 . S
H938 C959 0.939 . S
O939 P928 1.490 . S
H940 C956 0.939 . S
H941 C958 0.940 . S
C942 P928 1.812 . S
C942 C943 1.389 . S
C942 C947 1.391 . S
C943 H929 0.941 . S
C943 C942 1.389 . S
C943 C944 1.397 . S
C944 H930 0.939 . S
C944 C943 1.397 . S
C944 C945 1.378 . S
C945 C944 1.378 . S
C945 C946 1.378 . S
C946 H931 0.940 . S
C946 C945 1.378 . S
C946 C947 1.396 . S
C947 H932 0.940 . S
C947 C942 1.391 . S
C947 C946 1.396 . S
C948 P928 1.803 . S
C948 C949 1.378 . S
C948 C953 1.400 . S
C949 H933 0.939 . S
C949 C948 1.378 . S
C949 C950 1.361 . S
C950 H934 0.942 . S
C950 C949 1.361 . S
C950 C951 1.369 . S
C951 C950 1.369 . S
C951 C952 1.404 . S
C952 H935 0.940 . S
C952 C951 1.404 . S
C952 C953 1.389 . S
C953 H936 0.939 . S
C953 C948 1.400 . S
C953 C952 1.389 . S
C954 P928 1.819 . S
C954 C955 1.391 . S
C954 C959 1.391 . S
C955 H937 0.941 . S
C955 C954 1.391 . S
C955 C956 1.396 . S
C956 H940 0.939 . S
C956 C955 1.396 . S
C956 C957 1.397 . S
C957 C956 1.397 . S
C957 C958 1.385 . S
C958 H941 0.940 . S
C958 C957 1.385 . S
C958 C959 1.388 . S
C959 H938 0.939 . S
C959 C954 1.391 . S
C959 C958 1.388 . S
P960 O971 1.490 . S
P960 C974 1.812 . S
P960 C980 1.803 . S
P960 C986 1.819 . S
H961 C975 0.941 . S
H962 C976 0.939 . S
H963 C978 0.940 . S
H964 C979 0.940 . S
H965 C981 0.939 . S
H966 C982 0.942 . S
H967 C984 0.940 . S
H968 C985 0.939 . S
H969 C987 0.941 . S
H970 C991 0.939 . S
O971 P960 1.490 . S
H972 C988 0.939 . S
H973 C990 0.940 . S
C974 P960 1.812 . S
C974 C975 1.389 . S
C974 C979 1.391 . S
C975 H961 0.941 . S
C975 C974 1.389 . S
C975 C976 1.397 . S
C976 H962 0.939 . S
C976 C975 1.397 . S
C976 C977 1.378 . S
C977 C976 1.378 . S
C977 C978 1.378 . S
C978 H963 0.940 . S
C978 C977 1.378 . S
C978 C979 1.396 . S
C979 H964 0.940 . S
C979 C974 1.391 . S
C979 C978 1.396 . S
C980 P960 1.803 . S
C980 C981 1.378 . S
C980 C985 1.400 . S
C981 H965 0.939 . S
C981 C980 1.378 . S
C981 C982 1.361 . S
C982 H966 0.942 . S
C982 C981 1.361 . S
C982 C983 1.369 . S
C983 C982 1.369 . S
C983 C984 1.404 . S
C984 H967 0.940 . S
C984 C983 1.404 . S
C984 C985 1.389 . S
C985 H968 0.939 . S
C985 C980 1.400 . S
C985 C984 1.389 . S
C986 P960 1.819 . S
C986 C987 1.391 . S
C986 C991 1.391 . S
C987 H969 0.941 . S
C987 C986 1.391 . S
C987 C988 1.396 . S
C988 H972 0.939 . S
C988 C987 1.396 . S
C988 C989 1.397 . S
C989 C988 1.397 . S
C989 C990 1.385 . S
C990 H973 0.940 . S
C990 C989 1.385 . S
C990 C991 1.388 . S
C991 H970 0.939 . S
C991 C986 1.391 . S
C991 C990 1.388 . S
P992 O1003 1.490 . S
P992 C1006 1.812 . S
P992 C1012 1.803 . S
P992 C1018 1.819 . S
H993 C1007 0.941 . S
H994 C1008 0.939 . S
H995 C1010 0.940 . S
H996 C1011 0.940 . S
H997 C1013 0.939 . S
H998 C1014 0.942 . S
H999 C1016 0.940 . S
H1000 C1017 0.939 . S
H1001 C1019 0.941 . S
H1002 C1023 0.939 . S
O1003 P992 1.490 . S
H1004 C1020 0.939 . S
H1005 C1022 0.940 . S
C1006 P992 1.812 . S
C1006 C1007 1.389 . S
C1006 C1011 1.391 . S
C1007 H993 0.941 . S
C1007 C1006 1.389 . S
C1007 C1008 1.397 . S
C1008 H994 0.939 . S
C1008 C1007 1.397 . S
C1008 C1009 1.378 . S
C1009 C1008 1.378 . S
C1009 C1010 1.378 . S
C1010 H995 0.940 . S
C1010 C1009 1.378 . S
C1010 C1011 1.396 . S
C1011 H996 0.940 . S
C1011 C1006 1.391 . S
C1011 C1010 1.396 . S
C1012 P992 1.803 . S
C1012 C1013 1.378 . S
C1012 C1017 1.400 . S
C1013 H997 0.939 . S
C1013 C1012 1.378 . S
C1013 C1014 1.361 . S
C1014 H998 0.942 . S
C1014 C1013 1.361 . S
C1014 C1015 1.369 . S
C1015 C1014 1.369 . S
C1015 C1016 1.404 . S
C1016 H999 0.940 . S
C1016 C1015 1.404 . S
C1016 C1017 1.389 . S
C1017 H1000 0.939 . S
C1017 C1012 1.400 . S
C1017 C1016 1.389 . S
C1018 P992 1.819 . S
C1018 C1019 1.391 . S
C1018 C1023 1.391 . S
C1019 H1001 0.941 . S
C1019 C1018 1.391 . S
C1019 C1020 1.396 . S
C1020 H1004 0.939 . S
C1020 C1019 1.396 . S
C1020 C1021 1.397 . S
C1021 C1020 1.397 . S
C1021 C1022 1.385 . S
C1022 H1005 0.940 . S
C1022 C1021 1.385 . S
C1022 C1023 1.388 . S
C1023 H1002 0.939 . S
C1023 C1018 1.391 . S
C1023 C1022 1.388 . S
Cu1024 N1025 1.999 . S
Cu1024 O1030 1.974 . S
Cu1024 N1035 1.985 . S
Cu1024 O1044 1.959 . S
N1025 Cu1024 1.999 . S
N1025 C1027 1.263 1_554 S
N1025 C1029 1.389 . S
N1026 C1027 1.358 . S
N1026 C1028 1.400 . S
C1027 N1025 1.263 1_556 S
C1027 N1026 1.358 . S
C1027 H1033 0.930 . S
C1028 N1026 1.400 . S
C1028 C1029 1.351 1_556 S
C1028 H1045 0.930 . S
C1029 N1025 1.389 . S
C1029 C1028 1.351 1_554 S
C1029 H1034 0.930 . S
O1030 Cu1024 1.974 . S
O1030 C1040 1.282 1_554 S
C1031 O1032 1.261 . S
C1031 O1044 1.251 . S
O1032 C1031 1.261 . S
H1033 C1027 0.930 . S
H1034 C1029 0.930 . S
N1035 Cu1024 1.985 . S
N1035 C1037 1.335 . S
N1035 C1038 1.390 . S
N1036 C1037 1.345 . S
N1036 C1039 1.336 . S
C1037 N1035 1.335 . S
C1037 N1036 1.345 . S
C1037 H1042 0.930 . S
C1038 N1035 1.390 . S
C1038 C1039 1.346 . S
C1038 H1043 0.930 . S
C1039 N1036 1.336 . S
C1039 C1038 1.346 . S
C1039 H1046 0.929 . S
C1040 O1030 1.282 1_556 S
C1040 O1041 1.216 . S
O1041 C1040 1.216 . S
H1042 C1037 0.930 . S
H1043 C1038 0.930 . S
O1044 Cu1024 1.959 . S
O1044 C1031 1.251 . S
H1045 C1028 0.930 . S
H1046 C1039 0.929 . S
Cu1047 N1048 1.999 . S
Cu1047 O1053 1.974 . S
Cu1047 N1058 1.985 1_554 S
Cu1047 O1067 1.959 1_554 S
N1048 Cu1047 1.999 . S
N1048 C1050 1.263 . S
N1048 C1052 1.389 . S
N1049 C1050 1.358 . S
N1049 C1051 1.400 . S
C1050 N1048 1.263 . S
C1050 N1049 1.358 . S
C1050 H1056 0.930 . S
C1051 N1049 1.400 . S
C1051 C1052 1.351 . S
C1051 H1068 0.930 . S
C1052 N1048 1.389 . S
C1052 C1051 1.351 . S
C1052 H1057 0.930 . S
O1053 Cu1047 1.974 . S
O1053 C1063 1.282 . S
C1054 O1055 1.261 . S
C1054 O1067 1.251 . S
O1055 C1054 1.261 . S
H1056 C1050 0.930 . S
H1057 C1052 0.930 . S
N1058 Cu1047 1.985 1_556 S
N1058 C1060 1.335 . S
N1058 C1061 1.390 . S
N1059 C1060 1.345 . S
N1059 C1062 1.336 . S
C1060 N1058 1.335 . S
C1060 N1059 1.345 . S
C1060 H1065 0.930 . S
C1061 N1058 1.390 . S
C1061 C1062 1.346 . S
C1061 H1066 0.930 1_556 S
C1062 N1059 1.336 . S
C1062 C1061 1.346 . S
C1062 H1069 0.929 . S
C1063 O1053 1.282 . S
C1063 O1064 1.216 . S
O1064 C1063 1.216 . S
H1065 C1060 0.930 . S
H1066 C1061 0.930 1_554 S
O1067 Cu1047 1.959 1_556 S
O1067 C1054 1.251 . S
H1068 C1051 0.930 . S
H1069 C1062 0.929 . S
Cu1070 N1071 1.999 1_554 S
Cu1070 O1076 1.974 1_554 S
Cu1070 N1081 1.985 . S
Cu1070 O1090 1.959 . S
N1071 Cu1070 1.999 1_556 S
N1071 C1073 1.263 . S
N1071 C1075 1.389 . S
N1072 C1073 1.358 . S
N1072 C1074 1.400 . S
C1073 N1071 1.263 . S
C1073 N1072 1.358 . S
C1073 H1079 0.930 . S
C1074 N1072 1.400 . S
C1074 C1075 1.351 . S
C1074 H1091 0.930 . S
C1075 N1071 1.389 . S
C1075 C1074 1.351 . S
C1075 H1080 0.930 1_556 S
O1076 Cu1070 1.974 1_556 S
O1076 C1086 1.282 . S
C1077 O1078 1.261 . S
C1077 O1090 1.251 . S
O1078 C1077 1.261 . S
H1079 C1073 0.930 . S
H1080 C1075 0.930 1_554 S
N1081 Cu1070 1.985 . S
N1081 C1083 1.335 . S
N1081 C1084 1.390 . S
N1082 C1083 1.345 . S
N1082 C1085 1.336 . S
C1083 N1081 1.335 . S
C1083 N1082 1.345 . S
C1083 H1088 0.930 . S
C1084 N1081 1.390 . S
C1084 C1085 1.346 . S
C1084 H1089 0.930 . S
C1085 N1082 1.336 . S
C1085 C1084 1.346 . S
C1085 H1092 0.929 . S
C1086 O1076 1.282 . S
C1086 O1087 1.216 . S
O1087 C1086 1.216 . S
H1088 C1083 0.930 . S
H1089 C1084 0.930 . S
O1090 Cu1070 1.959 . S
O1090 C1077 1.251 . S
H1091 C1074 0.930 . S
H1092 C1085 0.929 . S
Cu1093 N1094 1.987 1_556 S
Cu1093 O1099 1.959 1_556 S
Cu1093 N1104 1.997 . S
Cu1093 O1113 1.974 . S
N1094 Cu1093 1.987 1_554 S
N1094 C1096 1.263 . S
N1094 C1098 1.389 . S
N1095 C1096 1.358 . S
N1095 C1097 1.400 . S
C1096 N1094 1.263 . S
C1096 N1095 1.358 . S
C1096 H1102 0.930 . S
C1097 N1095 1.400 . S
C1097 C1098 1.351 . S
C1097 H1114 0.930 . S
C1098 N1094 1.389 . S
C1098 C1097 1.351 . S
C1098 H1103 0.930 . S
O1099 Cu1093 1.959 1_554 S
O1099 C1109 1.282 . S
C1100 O1101 1.261 . S
C1100 O1113 1.251 . S
O1101 C1100 1.261 . S
H1102 C1096 0.930 . S
H1103 C1098 0.930 . S
N1104 Cu1093 1.997 . S
N1104 C1106 1.335 . S
N1104 C1107 1.390 . S
N1105 C1106 1.345 . S
N1105 C1108 1.336 . S
C1106 N1104 1.335 . S
C1106 N1105 1.345 . S
C1106 H1111 0.930 . S
C1107 N1104 1.390 . S
C1107 C1108 1.346 . S
C1107 H1112 0.927 1_556 S
C1108 N1105 1.336 . S
C1108 C1107 1.346 . S
C1108 H1115 0.929 . S
C1109 O1099 1.282 . S
C1109 O1110 1.216 . S
O1110 C1109 1.216 . S
H1111 C1106 0.930 . S
H1112 C1107 0.927 1_554 S
O1113 Cu1093 1.974 . S
O1113 C1100 1.251 . S
H1114 C1097 0.930 . S
H1115 C1108 0.929 . S
Cu1116 N1117 1.999 . S
Cu1116 O1122 1.974 . S
Cu1116 N1127 1.985 1_455 S
Cu1116 O1136 1.959 1_455 S
N1117 Cu1116 1.999 . S
N1117 C1119 1.263 . S
N1117 C1121 1.389 . S
N1118 C1119 1.358 . S
N1118 C1120 1.400 . S
C1119 N1117 1.263 . S
C1119 N1118 1.358 . S
C1119 H1125 0.930 . S
C1120 N1118 1.400 . S
C1120 C1121 1.351 . S
C1120 H1137 0.930 . S
C1121 N1117 1.389 . S
C1121 C1120 1.351 . S
C1121 H1126 0.930 . S
O1122 Cu1116 1.974 . S
O1122 C1132 1.282 . S
C1123 O1124 1.261 . S
C1123 O1136 1.251 . S
O1124 C1123 1.261 . S
H1125 C1119 0.930 . S
H1126 C1121 0.930 . S
N1127 Cu1116 1.985 1_655 S
N1127 C1129 1.335 . S
N1127 C1130 1.390 . S
N1128 C1129 1.345 . S
N1128 C1131 1.336 . S
C1129 N1127 1.335 . S
C1129 N1128 1.345 . S
C1129 H1134 0.930 . S
C1130 N1127 1.390 . S
C1130 C1131 1.346 . S
C1130 H1135 0.930 1_655 S
C1131 N1128 1.336 . S
C1131 C1130 1.346 . S
C1131 H1138 0.929 . S
C1132 O1122 1.282 . S
C1132 O1133 1.216 . S
O1133 C1132 1.216 . S
H1134 C1129 0.930 . S
H1135 C1130 0.930 1_455 S
O1136 Cu1116 1.959 1_655 S
O1136 C1123 1.251 . S
H1137 C1120 0.930 . S
H1138 C1131 0.929 . S
Cu1139 N1140 1.999 . S
Cu1139 O1145 1.974 . S
Cu1139 N1150 1.985 1_545 S
Cu1139 O1159 1.959 1_545 S
N1140 Cu1139 1.999 . S
N1140 C1142 1.263 . S
N1140 C1144 1.389 . S
N1141 C1142 1.358 . S
N1141 C1143 1.400 . S
C1142 N1140 1.263 . S
C1142 N1141 1.358 . S
C1142 H1148 0.930 . S
C1143 N1141 1.400 . S
C1143 C1144 1.351 . S
C1143 H1160 0.930 . S
C1144 N1140 1.389 . S
C1144 C1143 1.351 . S
C1144 H1149 0.930 . S
O1145 Cu1139 1.974 . S
O1145 C1155 1.282 . S
C1146 O1147 1.261 . S
C1146 O1159 1.251 . S
O1147 C1146 1.261 . S
H1148 C1142 0.930 . S
H1149 C1144 0.930 . S
N1150 Cu1139 1.985 1_565 S
N1150 C1152 1.335 . S
N1150 C1153 1.390 . S
N1151 C1152 1.345 . S
N1151 C1154 1.336 . S
C1152 N1150 1.335 . S
C1152 N1151 1.345 . S
C1152 H1157 0.930 . S
C1153 N1150 1.390 . S
C1153 C1154 1.346 . S
C1153 H1158 0.930 1_565 S
C1154 N1151 1.336 . S
C1154 C1153 1.346 . S
C1154 H1161 0.929 . S
C1155 O1145 1.282 . S
C1155 O1156 1.216 . S
O1156 C1155 1.216 . S
H1157 C1152 0.930 . S
H1158 C1153 0.930 1_545 S
O1159 Cu1139 1.959 1_565 S
O1159 C1146 1.251 . S
H1160 C1143 0.930 . S
H1161 C1154 0.929 . S
Cu1162 N1163 1.998 1_455 S
Cu1162 O1168 1.972 1_455 S
Cu1162 N1173 1.986 . S
Cu1162 O1182 1.961 . S
N1163 Cu1162 1.998 1_655 S
N1163 C1165 1.263 . S
N1163 C1167 1.389 . S
N1164 C1165 1.358 . S
N1164 C1166 1.400 . S
C1165 N1163 1.263 . S
C1165 N1164 1.358 . S
C1165 H1171 0.930 . S
C1166 N1164 1.400 . S
C1166 C1167 1.351 . S
C1166 H1183 0.930 . S
C1167 N1163 1.389 . S
C1167 C1166 1.351 . S
C1167 H1172 0.930 . S
O1168 Cu1162 1.972 1_655 S
O1168 C1178 1.282 . S
C1169 O1170 1.261 . S
C1169 O1182 1.251 . S
O1170 C1169 1.261 . S
H1171 C1165 0.930 . S
H1172 C1167 0.930 . S
N1173 Cu1162 1.986 . S
N1173 C1175 1.335 . S
N1173 C1176 1.390 . S
N1174 C1175 1.345 . S
N1174 C1177 1.336 . S
C1175 N1173 1.335 . S
C1175 N1174 1.345 . S
C1175 H1180 0.930 . S
C1176 N1173 1.390 . S
C1176 C1177 1.346 . S
C1176 H1181 0.930 . S
C1177 N1174 1.336 . S
C1177 C1176 1.346 . S
C1177 H1184 0.929 . S
C1178 O1168 1.282 . S
C1178 O1179 1.216 . S
O1179 C1178 1.216 . S
H1180 C1175 0.930 . S
H1181 C1176 0.930 . S
O1182 Cu1162 1.961 . S
O1182 C1169 1.251 . S
H1183 C1166 0.930 . S
H1184 C1177 0.929 . S
Cu1185 N1186 1.985 1_565 S
Cu1185 O1191 1.956 1_565 S
Cu1185 N1196 1.998 . S
Cu1185 O1205 1.977 . S
N1186 Cu1185 1.985 1_545 S
N1186 C1188 1.263 . S
N1186 C1190 1.389 . S
N1187 C1188 1.358 . S
N1187 C1189 1.400 . S
C1188 N1186 1.263 . S
C1188 N1187 1.358 . S
C1188 H1194 0.930 . S
C1189 N1187 1.400 . S
C1189 C1190 1.351 . S
C1189 H1206 0.930 . S
C1190 N1186 1.389 . S
C1190 C1189 1.351 . S
C1190 H1195 0.930 . S
O1191 Cu1185 1.956 1_545 S
O1191 C1201 1.282 . S
C1192 O1193 1.261 . S
C1192 O1205 1.251 . S
O1193 C1192 1.261 . S
H1194 C1188 0.930 . S
H1195 C1190 0.930 . S
N1196 Cu1185 1.998 . S
N1196 C1198 1.335 . S
N1196 C1199 1.390 . S
N1197 C1198 1.345 . S
N1197 C1200 1.336 . S
C1198 N1196 1.335 . S
C1198 N1197 1.345 . S
C1198 H1203 0.930 . S
C1199 N1196 1.390 . S
C1199 C1200 1.346 . S
C1199 H1204 0.930 . S
C1200 N1197 1.336 . S
C1200 C1199 1.346 . S
C1200 H1207 0.929 . S
C1201 O1191 1.282 . S
C1201 O1202 1.216 . S
O1202 C1201 1.216 . S
H1203 C1198 0.930 . S
H1204 C1199 0.930 . S
O1205 Cu1185 1.977 . S
O1205 C1192 1.251 . S
H1206 C1189 0.930 . S
H1207 C1200 0.929 . S
Cu1208 N1209 1.999 . S
Cu1208 O1214 1.974 . S
Cu1208 N1219 1.985 1_455 S
Cu1208 O1228 1.959 1_455 S
N1209 Cu1208 1.999 . S
N1209 C1211 1.263 . S
N1209 C1213 1.389 . S
N1210 C1211 1.358 . S
N1210 C1212 1.400 . S
C1211 N1209 1.263 . S
C1211 N1210 1.358 . S
C1211 H1217 0.930 . S
C1212 N1210 1.400 . S
C1212 C1213 1.351 . S
C1212 H1229 0.930 . S
C1213 N1209 1.389 . S
C1213 C1212 1.351 . S
C1213 H1218 0.930 . S
O1214 Cu1208 1.974 . S
O1214 C1224 1.282 . S
C1215 O1216 1.261 . S
C1215 O1228 1.251 . S
O1216 C1215 1.261 . S
H1217 C1211 0.930 . S
H1218 C1213 0.930 . S
N1219 Cu1208 1.985 1_655 S
N1219 C1221 1.335 . S
N1219 C1222 1.390 . S
N1220 C1221 1.345 . S
N1220 C1223 1.336 . S
C1221 N1219 1.335 . S
C1221 N1220 1.345 . S
C1221 H1226 0.930 . S
C1222 N1219 1.390 . S
C1222 C1223 1.346 . S
C1222 H1227 0.930 1_655 S
C1223 N1220 1.336 . S
C1223 C1222 1.346 . S
C1223 H1230 0.929 . S
C1224 O1214 1.282 . S
C1224 O1225 1.216 . S
O1225 C1224 1.216 . S
H1226 C1221 0.930 . S
H1227 C1222 0.930 1_455 S
O1228 Cu1208 1.959 1_655 S
O1228 C1215 1.251 . S
H1229 C1212 0.930 . S
H1230 C1223 0.929 . S
Cu1231 N1232 1.999 . S
Cu1231 O1237 1.974 . S
Cu1231 N1242 1.985 1_545 S
Cu1231 O1251 1.959 1_545 S
N1232 Cu1231 1.999 . S
N1232 C1234 1.263 . S
N1232 C1236 1.389 . S
N1233 C1234 1.358 . S
N1233 C1235 1.400 . S
C1234 N1232 1.263 . S
C1234 N1233 1.358 . S
C1234 H1240 0.930 . S
C1235 N1233 1.400 . S
C1235 C1236 1.351 . S
C1235 H1252 0.930 . S
C1236 N1232 1.389 . S
C1236 C1235 1.351 . S
C1236 H1241 0.930 . S
O1237 Cu1231 1.974 . S
O1237 C1247 1.282 . S
C1238 O1239 1.261 . S
C1238 O1251 1.251 . S
O1239 C1238 1.261 . S
H1240 C1234 0.930 . S
H1241 C1236 0.930 . S
N1242 Cu1231 1.985 1_565 S
N1242 C1244 1.335 . S
N1242 C1245 1.394 . S
N1243 C1244 1.345 . S
N1243 C1246 1.336 . S
C1244 N1242 1.335 . S
C1244 N1243 1.345 . S
C1244 H1249 0.930 . S
C1245 N1242 1.394 . S
C1245 C1246 1.367 . S
C1245 H1250 0.909 1_565 S
C1246 N1243 1.336 . S
C1246 C1245 1.367 . S
C1246 H1253 0.929 . S
C1247 O1237 1.282 . S
C1247 O1248 1.216 . S
O1248 C1247 1.216 . S
H1249 C1244 0.930 . S
H1250 C1245 0.909 1_545 S
O1251 Cu1231 1.959 1_565 S
O1251 C1238 1.251 . S
H1252 C1235 0.930 . S
H1253 C1246 0.929 . S
Cu1254 N1255 1.999 . S
Cu1254 O1260 1.974 . S
Cu1254 N1265 1.985 . S
Cu1254 O1274 1.959 . S
N1255 Cu1254 1.999 . S
N1255 C1257 1.263 1_455 S
N1255 C1259 1.389 . S
N1256 C1257 1.358 . S
N1256 C1258 1.400 . S
C1257 N1255 1.263 1_655 S
C1257 N1256 1.358 . S
C1257 H1263 0.930 . S
C1258 N1256 1.400 . S
C1258 C1259 1.351 1_655 S
C1258 H1275 0.930 . S
C1259 N1255 1.389 . S
C1259 C1258 1.351 1_455 S
C1259 H1264 0.930 . S
O1260 Cu1254 1.974 . S
O1260 C1270 1.282 1_455 S
C1261 O1262 1.261 . S
C1261 O1274 1.251 . S
O1262 C1261 1.261 . S
H1263 C1257 0.930 . S
H1264 C1259 0.930 . S
N1265 Cu1254 1.985 . S
N1265 C1267 1.335 . S
N1265 C1268 1.390 . S
N1266 C1267 1.345 . S
N1266 C1269 1.336 . S
C1267 N1265 1.335 . S
C1267 N1266 1.345 . S
C1267 H1272 0.930 . S
C1268 N1265 1.390 . S
C1268 C1269 1.346 . S
C1268 H1273 0.930 . S
C1269 N1266 1.336 . S
C1269 C1268 1.346 . S
C1269 H1276 0.929 . S
C1270 O1260 1.282 1_655 S
C1270 O1271 1.216 1_655 S
O1271 C1270 1.216 1_455 S
H1272 C1267 0.930 . S
H1273 C1268 0.930 . S
O1274 Cu1254 1.959 . S
O1274 C1261 1.251 . S
H1275 C1258 0.930 . S
H1276 C1269 0.929 . S
Cu1277 N1278 1.999 . S
Cu1277 O1283 1.974 . S
Cu1277 N1288 1.985 . S
Cu1277 O1297 1.959 1_545 S
N1278 Cu1277 1.999 . S
N1278 C1280 1.263 . S
N1278 C1282 1.389 . S
N1279 C1280 1.358 . S
N1279 C1281 1.400 . S
C1280 N1278 1.263 . S
C1280 N1279 1.358 . S
C1280 H1286 0.930 . S
C1281 N1279 1.400 . S
C1281 C1282 1.351 . S
C1281 H1298 0.930 . S
C1282 N1278 1.389 . S
C1282 C1281 1.351 . S
C1282 H1287 0.930 . S
O1283 Cu1277 1.974 . S
O1283 C1293 1.282 . S
C1284 O1285 1.243 1_565 S
C1284 O1297 1.251 . S
O1285 C1284 1.243 1_545 S
H1286 C1280 0.930 . S
H1287 C1282 0.930 . S
N1288 Cu1277 1.985 . S
N1288 C1290 1.335 1_545 S
N1288 C1291 1.390 . S
N1289 C1290 1.345 . S
N1289 C1292 1.336 . S
C1290 N1288 1.335 1_565 S
C1290 N1289 1.345 . S
C1290 H1295 0.930 . S
C1291 N1288 1.390 . S
C1291 C1292 1.346 1_545 S
C1291 H1296 0.930 . S
C1292 N1289 1.336 . S
C1292 C1291 1.346 1_565 S
C1292 H1299 0.929 . S
C1293 O1283 1.282 . S
C1293 O1294 1.216 . S
O1294 C1293 1.216 . S
H1295 C1290 0.930 . S
H1296 C1291 0.930 . S
O1297 Cu1277 1.959 1_565 S
O1297 C1284 1.251 . S
H1298 C1281 0.930 . S
H1299 C1292 0.929 . S
Cu1300 N1301 1.999 . S
Cu1300 O1306 1.974 . S
Cu1300 N1311 1.985 . S
Cu1300 O1320 1.959 . S
N1301 Cu1300 1.999 . S
N1301 C1303 1.263 . S
N1301 C1305 1.389 . S
N1302 C1303 1.358 . S
N1302 C1304 1.400 . S
C1303 N1301 1.263 . S
C1303 N1302 1.358 . S
C1303 H1309 0.930 . S
C1304 N1302 1.400 . S
C1304 C1305 1.351 . S
C1304 H1321 0.930 . S
C1305 N1301 1.389 . S
C1305 C1304 1.351 . S
C1305 H1310 0.930 . S
O1306 Cu1300 1.974 . S
O1306 C1316 1.282 . S
C1307 O1308 1.261 . S
C1307 O1320 1.251 . S
O1308 C1307 1.261 . S
H1309 C1303 0.930 . S
H1310 C1305 0.930 . S
N1311 Cu1300 1.985 . S
N1311 C1313 1.335 . S
N1311 C1314 1.390 . S
N1312 C1313 1.345 . S
N1312 C1315 1.336 . S
C1313 N1311 1.335 . S
C1313 N1312 1.345 . S
C1313 H1318 0.930 . S
C1314 N1311 1.390 . S
C1314 C1315 1.346 . S
C1314 H1319 0.930 . S
C1315 N1312 1.336 . S
C1315 C1314 1.346 . S
C1315 H1322 0.929 . S
C1316 O1306 1.282 . S
C1316 O1317 1.216 . S
O1317 C1316 1.216 . S
H1318 C1313 0.930 . S
H1319 C1314 0.930 . S
O1320 Cu1300 1.959 . S
O1320 C1307 1.251 . S
H1321 C1304 0.930 . S
H1322 C1315 0.929 . S
Cu1323 N1324 1.999 . S
Cu1323 O1329 1.974 . S
Cu1323 N1334 1.985 . S
Cu1323 O1343 1.959 . S
N1324 Cu1323 1.999 . S
N1324 C1326 1.263 . S
N1324 C1328 1.389 . S
N1325 C1326 1.358 . S
N1325 C1327 1.400 . S
C1326 N1324 1.263 . S
C1326 N1325 1.358 . S
C1326 H1332 0.930 . S
C1327 N1325 1.400 . S
C1327 C1328 1.351 . S
C1327 H1344 0.930 . S
C1328 N1324 1.389 . S
C1328 C1327 1.351 . S
C1328 H1333 0.930 . S
O1329 Cu1323 1.974 . S
O1329 C1339 1.282 . S
C1330 O1331 1.261 . S
C1330 O1343 1.251 . S
O1331 C1330 1.261 . S
H1332 C1326 0.930 . S
H1333 C1328 0.930 . S
N1334 Cu1323 1.985 . S
N1334 C1336 1.335 . S
N1334 C1337 1.390 . S
N1335 C1336 1.345 . S
N1335 C1338 1.336 . S
C1336 N1334 1.335 . S
C1336 N1335 1.345 . S
C1336 H1341 0.930 . S
C1337 N1334 1.390 . S
C1337 C1338 1.346 . S
C1337 H1342 0.930 . S
C1338 N1335 1.336 . S
C1338 C1337 1.346 . S
C1338 H1345 0.929 . S
C1339 O1329 1.282 . S
C1339 O1340 1.216 . S
O1340 C1339 1.216 . S
H1341 C1336 0.930 . S
H1342 C1337 0.930 . S
O1343 Cu1323 1.959 . S
O1343 C1330 1.251 . S
H1344 C1327 0.930 . S
H1345 C1338 0.929 . S
Cu1346 N1347 1.999 . S
Cu1346 O1352 1.974 . S
Cu1346 N1357 1.985 . S
Cu1346 O1366 1.959 . S
N1347 Cu1346 1.999 . S
N1347 C1349 1.263 . S
N1347 C1351 1.389 . S
N1348 C1349 1.358 . S
N1348 C1350 1.400 . S
C1349 N1347 1.263 . S
C1349 N1348 1.358 . S
C1349 H1355 0.930 . S
C1350 N1348 1.400 . S
C1350 C1351 1.351 . S
C1350 H1367 0.930 . S
C1351 N1347 1.389 . S
C1351 C1350 1.351 . S
C1351 H1356 0.930 . S
O1352 Cu1346 1.974 . S
O1352 C1362 1.282 . S
C1353 O1354 1.261 . S
C1353 O1366 1.251 . S
O1354 C1353 1.261 . S
H1355 C1349 0.930 . S
H1356 C1351 0.930 . S
N1357 Cu1346 1.985 . S
N1357 C1359 1.335 . S
N1357 C1360 1.390 . S
N1358 C1359 1.345 . S
N1358 C1361 1.336 . S
C1359 N1357 1.335 . S
C1359 N1358 1.345 . S
C1359 H1364 0.930 . S
C1360 N1357 1.390 . S
C1360 C1361 1.346 . S
C1360 H1365 0.930 . S
C1361 N1358 1.336 . S
C1361 C1360 1.346 . S
C1361 H1368 0.929 . S
C1362 O1352 1.282 . S
C1362 O1363 1.216 . S
O1363 C1362 1.216 . S
H1364 C1359 0.930 . S
H1365 C1360 0.930 . S
O1366 Cu1346 1.959 . S
O1366 C1353 1.251 . S
H1367 C1350 0.930 . S
H1368 C1361 0.929 . S
Cu1369 N1370 1.999 . S
Cu1369 O1375 1.974 . S
Cu1369 N1380 1.985 . S
Cu1369 O1389 1.959 . S
N1370 Cu1369 1.999 . S
N1370 C1372 1.263 . S
N1370 C1374 1.389 . S
N1371 C1372 1.358 . S
N1371 C1373 1.400 . S
C1372 N1370 1.263 . S
C1372 N1371 1.358 . S
C1372 H1378 0.930 . S
C1373 N1371 1.400 . S
C1373 C1374 1.351 . S
C1373 H1390 0.930 . S
C1374 N1370 1.389 . S
C1374 C1373 1.351 . S
C1374 H1379 0.930 . S
O1375 Cu1369 1.974 . S
O1375 C1385 1.282 . S
C1376 O1377 1.261 . S
C1376 O1389 1.251 . S
O1377 C1376 1.261 . S
H1378 C1372 0.930 . S
H1379 C1374 0.930 . S
N1380 Cu1369 1.985 . S
N1380 C1382 1.335 . S
N1380 C1383 1.390 . S
N1381 C1382 1.345 . S
N1381 C1384 1.336 . S
C1382 N1380 1.335 . S
C1382 N1381 1.345 . S
C1382 H1387 0.930 . S
C1383 N1380 1.390 . S
C1383 C1384 1.346 . S
C1383 H1388 0.930 . S
C1384 N1381 1.336 . S
C1384 C1383 1.346 . S
C1384 H1391 0.929 . S
C1385 O1375 1.282 . S
C1385 O1386 1.216 . S
O1386 C1385 1.216 . S
H1387 C1382 0.930 . S
H1388 C1383 0.930 . S
O1389 Cu1369 1.959 . S
O1389 C1376 1.251 . S
H1390 C1373 0.930 . S
H1391 C1384 0.929 . S
Cu1392 N1393 1.999 . S
Cu1392 O1398 1.974 . S
Cu1392 N1403 1.985 . S
Cu1392 O1412 1.959 . S
N1393 Cu1392 1.999 . S
N1393 C1395 1.263 . S
N1393 C1397 1.389 . S
N1394 C1395 1.358 . S
N1394 C1396 1.400 . S
C1395 N1393 1.263 . S
C1395 N1394 1.358 . S
C1395 H1401 0.930 . S
C1396 N1394 1.400 . S
C1396 C1397 1.351 . S
C1396 H1413 0.930 . S
C1397 N1393 1.389 . S
C1397 C1396 1.351 . S
C1397 H1402 0.930 . S
O1398 Cu1392 1.974 . S
O1398 C1408 1.282 . S
C1399 O1400 1.261 . S
C1399 O1412 1.251 . S
O1400 C1399 1.261 . S
H1401 C1395 0.930 . S
H1402 C1397 0.930 . S
N1403 Cu1392 1.985 . S
N1403 C1405 1.335 . S
N1403 C1406 1.390 . S
N1404 C1405 1.345 . S
N1404 C1407 1.336 . S
C1405 N1403 1.335 . S
C1405 N1404 1.345 . S
C1405 H1410 0.930 . S
C1406 N1403 1.390 . S
C1406 C1407 1.346 . S
C1406 H1411 0.930 . S
C1407 N1404 1.336 . S
C1407 C1406 1.346 . S
C1407 H1414 0.929 . S
C1408 O1398 1.282 . S
C1408 O1409 1.216 . S
O1409 C1408 1.216 . S
H1410 C1405 0.930 . S
H1411 C1406 0.930 . S
O1412 Cu1392 1.959 . S
O1412 C1399 1.251 . S
H1413 C1396 0.930 . S
H1414 C1407 0.929 . S
Cu1415 N1416 1.999 . S
Cu1415 O1421 1.974 . S
Cu1415 N1426 1.985 . S
Cu1415 O1435 1.959 . S
N1416 Cu1415 1.999 . S
N1416 C1418 1.263 . S
N1416 C1420 1.389 . S
N1417 C1418 1.358 . S
N1417 C1419 1.400 . S
C1418 N1416 1.263 . S
C1418 N1417 1.358 . S
C1418 H1424 0.930 . S
C1419 N1417 1.400 . S
C1419 C1420 1.351 . S
C1419 H1436 0.930 . S
C1420 N1416 1.389 . S
C1420 C1419 1.351 . S
C1420 H1425 0.930 . S
O1421 Cu1415 1.974 . S
O1421 C1431 1.282 . S
C1422 O1423 1.261 . S
C1422 O1435 1.251 . S
O1423 C1422 1.261 . S
H1424 C1418 0.930 . S
H1425 C1420 0.930 . S
N1426 Cu1415 1.985 . S
N1426 C1428 1.335 . S
N1426 C1429 1.390 . S
N1427 C1428 1.345 . S
N1427 C1430 1.336 . S
C1428 N1426 1.335 . S
C1428 N1427 1.345 . S
C1428 H1433 0.930 . S
C1429 N1426 1.390 . S
C1429 C1430 1.346 . S
C1429 H1434 0.930 . S
C1430 N1427 1.336 . S
C1430 C1429 1.346 . S
C1430 H1437 0.929 . S
C1431 O1421 1.282 . S
C1431 O1432 1.216 . S
O1432 C1431 1.216 . S
H1433 C1428 0.930 . S
H1434 C1429 0.930 . S
O1435 Cu1415 1.959 . S
O1435 C1422 1.251 . S
H1436 C1419 0.930 . S
H1437 C1430 0.929 . S
Cu1438 N1439 1.999 . S
Cu1438 O1444 1.974 . S
Cu1438 N1449 1.985 . S
Cu1438 O1458 1.959 . S
N1439 Cu1438 1.999 . S
N1439 C1441 1.263 . S
N1439 C1443 1.389 . S
N1440 C1441 1.358 . S
N1440 C1442 1.400 . S
C1441 N1439 1.263 . S
C1441 N1440 1.358 . S
C1441 H1447 0.930 . S
C1442 N1440 1.400 . S
C1442 C1443 1.351 . S
C1442 H1459 0.930 . S
C1443 N1439 1.389 . S
C1443 C1442 1.351 . S
C1443 H1448 0.930 . S
O1444 Cu1438 1.974 . S
O1444 C1454 1.282 . S
C1445 O1446 1.261 . S
C1445 O1458 1.251 . S
O1446 C1445 1.261 . S
H1447 C1441 0.930 . S
H1448 C1443 0.930 . S
N1449 Cu1438 1.985 . S
N1449 C1451 1.335 . S
N1449 C1452 1.390 . S
N1450 C1451 1.345 . S
N1450 C1453 1.336 . S
C1451 N1449 1.335 . S
C1451 N1450 1.345 . S
C1451 H1456 0.930 . S
C1452 N1449 1.390 . S
C1452 C1453 1.346 . S
C1452 H1457 0.930 . S
C1453 N1450 1.336 . S
C1453 C1452 1.346 . S
C1453 H1460 0.929 . S
C1454 O1444 1.282 . S
C1454 O1455 1.216 . S
O1455 C1454 1.216 . S
H1456 C1451 0.930 . S
H1457 C1452 0.930 . S
O1458 Cu1438 1.959 . S
O1458 C1445 1.251 . S
H1459 C1442 0.930 . S
H1460 C1453 0.929 . S
Cu1461 N1462 1.999 . S
Cu1461 O1467 1.974 . S
Cu1461 N1472 1.985 . S
Cu1461 O1481 1.959 . S
N1462 Cu1461 1.999 . S
N1462 C1464 1.263 . S
N1462 C1466 1.389 . S
N1463 C1464 1.358 . S
N1463 C1465 1.400 . S
C1464 N1462 1.263 . S
C1464 N1463 1.358 . S
C1464 H1470 0.930 . S
C1465 N1463 1.400 . S
C1465 C1466 1.351 . S
C1465 H1482 0.930 . S
C1466 N1462 1.389 . S
C1466 C1465 1.351 . S
C1466 H1471 0.930 . S
O1467 Cu1461 1.974 . S
O1467 C1477 1.282 . S
C1468 O1469 1.261 . S
C1468 O1481 1.251 . S
O1469 C1468 1.261 . S
H1470 C1464 0.930 . S
H1471 C1466 0.930 . S
N1472 Cu1461 1.985 . S
N1472 C1474 1.335 . S
N1472 C1475 1.390 . S
N1473 C1474 1.345 . S
N1473 C1476 1.336 . S
C1474 N1472 1.335 . S
C1474 N1473 1.345 . S
C1474 H1479 0.930 . S
C1475 N1472 1.390 . S
C1475 C1476 1.346 . S
C1475 H1480 0.930 . S
C1476 N1473 1.336 . S
C1476 C1475 1.346 . S
C1476 H1483 0.929 . S
C1477 O1467 1.282 . S
C1477 O1478 1.216 . S
O1478 C1477 1.216 . S
H1479 C1474 0.930 . S
H1480 C1475 0.930 . S
O1481 Cu1461 1.959 . S
O1481 C1468 1.251 . S
H1482 C1465 0.930 . S
H1483 C1476 0.929 . S
Cu1484 N1485 1.999 . S
Cu1484 O1490 1.974 . S
Cu1484 N1495 1.985 . S
Cu1484 O1504 1.959 . S
N1485 Cu1484 1.999 . S
N1485 C1487 1.263 . S
N1485 C1489 1.389 . S
N1486 C1487 1.358 . S
N1486 C1488 1.400 . S
C1487 N1485 1.263 . S
C1487 N1486 1.358 . S
C1487 H1493 0.930 . S
C1488 N1486 1.400 . S
C1488 C1489 1.351 . S
C1488 H1505 0.930 . S
C1489 N1485 1.389 . S
C1489 C1488 1.351 . S
C1489 H1494 0.930 . S
O1490 Cu1484 1.974 . S
O1490 C1500 1.282 . S
C1491 O1492 1.261 . S
C1491 O1504 1.251 . S
O1492 C1491 1.261 . S
H1493 C1487 0.930 . S
H1494 C1489 0.930 . S
N1495 Cu1484 1.985 . S
N1495 C1497 1.335 . S
N1495 C1498 1.390 . S
N1496 C1497 1.345 . S
N1496 C1499 1.336 . S
C1497 N1495 1.335 . S
C1497 N1496 1.345 . S
C1497 H1502 0.930 . S
C1498 N1495 1.390 . S
C1498 C1499 1.346 . S
C1498 H1503 0.930 . S
C1499 N1496 1.336 . S
C1499 C1498 1.346 . S
C1499 H1506 0.929 . S
C1500 O1490 1.282 . S
C1500 O1501 1.216 . S
O1501 C1500 1.216 . S
H1502 C1497 0.930 . S
H1503 C1498 0.930 . S
O1504 Cu1484 1.959 . S
O1504 C1491 1.251 . S
H1505 C1488 0.930 . S
H1506 C1499 0.929 . S
Cu1507 N1508 1.999 . S
Cu1507 O1513 1.974 . S
Cu1507 N1518 1.985 . S
Cu1507 O1527 1.959 . S
N1508 Cu1507 1.999 . S
N1508 C1510 1.263 . S
N1508 C1512 1.389 . S
N1509 C1510 1.358 . S
N1509 C1511 1.400 . S
C1510 N1508 1.263 . S
C1510 N1509 1.358 . S
C1510 H1516 0.930 . S
C1511 N1509 1.400 . S
C1511 C1512 1.351 . S
C1511 H1528 0.930 . S
C1512 N1508 1.389 . S
C1512 C1511 1.351 . S
C1512 H1517 0.930 . S
O1513 Cu1507 1.974 . S
O1513 C1523 1.282 . S
C1514 O1515 1.261 . S
C1514 O1527 1.251 . S
O1515 C1514 1.261 . S
H1516 C1510 0.930 . S
H1517 C1512 0.930 . S
N1518 Cu1507 1.985 . S
N1518 C1520 1.335 . S
N1518 C1521 1.390 . S
N1519 C1520 1.345 . S
N1519 C1522 1.336 . S
C1520 N1518 1.335 . S
C1520 N1519 1.345 . S
C1520 H1525 0.930 . S
C1521 N1518 1.390 . S
C1521 C1522 1.346 . S
C1521 H1526 0.930 . S
C1522 N1519 1.336 . S
C1522 C1521 1.346 . S
C1522 H1529 0.929 . S
C1523 O1513 1.282 . S
C1523 O1524 1.216 . S
O1524 C1523 1.216 . S
H1525 C1520 0.930 . S
H1526 C1521 0.930 . S
O1527 Cu1507 1.959 . S
O1527 C1514 1.251 . S
H1528 C1511 0.930 . S
H1529 C1522 0.929 . S
Cu1530 N1531 1.999 . S
Cu1530 O1536 1.974 . S
Cu1530 N1541 1.985 . S
Cu1530 O1550 1.959 . S
N1531 Cu1530 1.999 . S
N1531 C1533 1.263 . S
N1531 C1535 1.389 . S
N1532 C1533 1.358 . S
N1532 C1534 1.400 . S
C1533 N1531 1.263 . S
C1533 N1532 1.358 . S
C1533 H1539 0.930 . S
C1534 N1532 1.400 . S
C1534 C1535 1.351 . S
C1534 H1551 0.930 . S
C1535 N1531 1.389 . S
C1535 C1534 1.351 . S
C1535 H1540 0.930 . S
O1536 Cu1530 1.974 . S
O1536 C1546 1.282 . S
C1537 O1538 1.261 . S
C1537 O1550 1.251 . S
O1538 C1537 1.261 . S
H1539 C1533 0.930 . S
H1540 C1535 0.930 . S
N1541 Cu1530 1.985 . S
N1541 C1543 1.335 . S
N1541 C1544 1.390 . S
N1542 C1543 1.345 . S
N1542 C1545 1.336 . S
C1543 N1541 1.335 . S
C1543 N1542 1.345 . S
C1543 H1548 0.930 . S
C1544 N1541 1.390 . S
C1544 C1545 1.346 . S
C1544 H1549 0.930 . S
C1545 N1542 1.336 . S
C1545 C1544 1.346 . S
C1545 H1552 0.929 . S
C1546 O1536 1.282 . S
C1546 O1547 1.216 . S
O1547 C1546 1.216 . S
H1548 C1543 0.930 . S
H1549 C1544 0.930 . S
O1550 Cu1530 1.959 . S
O1550 C1537 1.251 . S
H1551 C1534 0.930 . S
H1552 C1545 0.929 . S
Cu1553 N1554 1.999 . S
Cu1553 O1559 1.974 . S
Cu1553 N1564 1.985 . S
Cu1553 O1573 1.959 . S
N1554 Cu1553 1.999 . S
N1554 C1556 1.263 . S
N1554 C1558 1.389 . S
N1555 C1556 1.358 . S
N1555 C1557 1.400 . S
C1556 N1554 1.263 . S
C1556 N1555 1.358 . S
C1556 H1562 0.930 . S
C1557 N1555 1.400 . S
C1557 C1558 1.351 . S
C1557 H1574 0.930 . S
C1558 N1554 1.389 . S
C1558 C1557 1.351 . S
C1558 H1563 0.930 . S
O1559 Cu1553 1.974 . S
O1559 C1569 1.282 . S
C1560 O1561 1.261 . S
C1560 O1573 1.251 . S
O1561 C1560 1.261 . S
H1562 C1556 0.930 . S
H1563 C1558 0.930 . S
N1564 Cu1553 1.985 . S
N1564 C1566 1.335 . S
N1564 C1567 1.390 . S
N1565 C1566 1.345 . S
N1565 C1568 1.336 . S
C1566 N1564 1.335 . S
C1566 N1565 1.345 . S
C1566 H1571 0.930 . S
C1567 N1564 1.390 . S
C1567 C1568 1.346 . S
C1567 H1572 0.930 . S
C1568 N1565 1.336 . S
C1568 C1567 1.346 . S
C1568 H1575 0.929 . S
C1569 O1559 1.282 . S
C1569 O1570 1.216 . S
O1570 C1569 1.216 . S
H1571 C1566 0.930 . S
H1572 C1567 0.930 . S
O1573 Cu1553 1.959 . S
O1573 C1560 1.251 . S
H1574 C1557 0.930 . S
H1575 C1568 0.929 . S
H1576 C1582 0.930 . S
H1577 C1585 0.930 . S
H1578 C1586 0.930 . S
H1579 C1587 0.930 . S
H1580 C1590 0.930 . S
H1581 C1591 0.930 . S
C1582 H1576 0.930 . S
C1582 C1583 1.355 . S
C1582 C1584 1.415 . S
C1583 C1582 1.355 . S
C1583 C1585 1.419 . S
C1584 C1582 1.415 . S
C1584 C1589 1.425 . S
C1584 C1591 1.409 . S
C1585 H1577 0.930 . S
C1585 C1583 1.419 . S
C1585 C1586 1.362 . S
C1586 H1578 0.930 . S
C1586 C1585 1.362 . S
C1586 C1589 1.409 . S
C1587 H1579 0.930 . S
C1587 C1588 1.355 . S
C1587 C1589 1.415 . S
C1588 C1587 1.355 . S
C1588 C1590 1.419 . S
C1589 C1584 1.425 . S
C1589 C1586 1.409 . S
C1589 C1587 1.415 . S
C1590 H1580 0.930 . S
C1590 C1588 1.419 . S
C1590 C1591 1.362 . S
C1591 H1581 0.930 . S
C1591 C1584 1.409 . S
C1591 C1590 1.362 . S
H1592 C1598 0.930 . S
H1593 C1601 0.930 . S
H1594 C1602 0.930 . S
H1595 C1603 0.930 . S
H1596 C1606 0.930 . S
H1597 C1607 0.930 . S
C1598 H1592 0.930 . S
C1598 C1599 1.355 . S
C1598 C1600 1.415 . S
C1599 C1598 1.355 . S
C1599 C1601 1.419 . S
C1600 C1598 1.415 . S
C1600 C1605 1.425 . S
C1600 C1607 1.409 . S
C1601 H1593 0.930 . S
C1601 C1599 1.419 . S
C1601 C1602 1.362 . S
C1602 H1594 0.930 . S
C1602 C1601 1.362 . S
C1602 C1605 1.409 . S
C1603 H1595 0.930 . S
C1603 C1604 1.355 . S
C1603 C1605 1.415 . S
C1604 C1603 1.355 . S
C1604 C1606 1.419 . S
C1605 C1600 1.425 . S
C1605 C1602 1.409 . S
C1605 C1603 1.415 . S
C1606 H1596 0.930 . S
C1606 C1604 1.419 . S
C1606 C1607 1.362 . S
C1607 H1597 0.930 . S
C1607 C1600 1.409 . S
C1607 C1606 1.362 . S
H1608 C1614 0.930 . S
H1609 C1617 0.930 . S
H1610 C1618 0.930 . S
H1611 C1619 0.930 . S
H1612 C1622 0.930 . S
H1613 C1623 0.930 . S
C1614 H1608 0.930 . S
C1614 C1615 1.355 . S
C1614 C1616 1.415 . S
C1615 C1614 1.355 . S
C1615 C1617 1.419 . S
C1616 C1614 1.415 . S
C1616 C1621 1.425 . S
C1616 C1623 1.409 . S
C1617 H1609 0.930 . S
C1617 C1615 1.419 . S
C1617 C1618 1.362 . S
C1618 H1610 0.930 . S
C1618 C1617 1.362 . S
C1618 C1621 1.409 . S
C1619 H1611 0.930 . S
C1619 C1620 1.355 . S
C1619 C1621 1.415 . S
C1620 C1619 1.355 . S
C1620 C1622 1.419 . S
C1621 C1616 1.425 . S
C1621 C1618 1.409 . S
C1621 C1619 1.415 . S
C1622 H1612 0.930 . S
C1622 C1620 1.419 . S
C1622 C1623 1.362 . S
C1623 H1613 0.930 . S
C1623 C1616 1.409 . S
C1623 C1622 1.362 . S
H1624 C1630 0.930 . S
H1625 C1633 0.930 . S
H1626 C1634 0.930 . S
H1627 C1635 0.930 . S
H1628 C1638 0.930 . S
H1629 C1639 0.930 . S
C1630 H1624 0.930 . S
C1630 C1631 1.355 . S
C1630 C1632 1.415 . S
C1631 C1630 1.355 . S
C1631 C1633 1.419 . S
C1632 C1630 1.415 . S
C1632 C1637 1.425 . S
C1632 C1639 1.409 . S
C1633 H1625 0.930 . S
C1633 C1631 1.419 . S
C1633 C1634 1.362 . S
C1634 H1626 0.930 . S
C1634 C1633 1.362 . S
C1634 C1637 1.409 . S
C1635 H1627 0.930 . S
C1635 C1636 1.355 . S
C1635 C1637 1.415 . S
C1636 C1635 1.355 . S
C1636 C1638 1.419 . S
C1637 C1632 1.425 . S
C1637 C1634 1.409 . S
C1637 C1635 1.415 . S
C1638 H1628 0.930 . S
C1638 C1636 1.419 . S
C1638 C1639 1.362 . S
C1639 H1629 0.930 . S
C1639 C1632 1.409 . S
C1639 C1638 1.362 . S
H1640 C1646 0.930 . S
H1641 C1649 0.930 . S
H1642 C1650 0.930 . S
H1643 C1651 0.930 . S
H1644 C1654 0.930 . S
H1645 C1655 0.930 . S
C1646 H1640 0.930 . S
C1646 C1647 1.355 . S
C1646 C1648 1.415 . S
C1647 C1646 1.355 . S
C1647 C1649 1.419 . S
C1648 C1646 1.415 . S
C1648 C1653 1.425 . S
C1648 C1655 1.409 . S
C1649 H1641 0.930 . S
C1649 C1647 1.419 . S
C1649 C1650 1.362 . S
C1650 H1642 0.930 . S
C1650 C1649 1.362 . S
C1650 C1653 1.409 . S
C1651 H1643 0.930 . S
C1651 C1652 1.355 . S
C1651 C1653 1.415 . S
C1652 C1651 1.355 . S
C1652 C1654 1.419 . S
C1653 C1648 1.425 . S
C1653 C1650 1.409 . S
C1653 C1651 1.415 . S
C1654 H1644 0.930 . S
C1654 C1652 1.419 . S
C1654 C1655 1.362 . S
C1655 H1645 0.930 . S
C1655 C1648 1.409 . S
C1655 C1654 1.362 . S
H1656 C1662 0.930 . S
H1657 C1665 0.930 . S
H1658 C1666 0.930 . S
H1659 C1667 0.930 . S
H1660 C1670 0.930 . S
H1661 C1671 0.930 . S
C1662 H1656 0.930 . S
C1662 C1663 1.355 . S
C1662 C1664 1.415 . S
C1663 C1662 1.355 . S
C1663 C1665 1.419 . S
C1664 C1662 1.415 . S
C1664 C1669 1.425 . S
C1664 C1671 1.409 . S
C1665 H1657 0.930 . S
C1665 C1663 1.419 . S
C1665 C1666 1.362 . S
C1666 H1658 0.930 . S
C1666 C1665 1.362 . S
C1666 C1669 1.409 . S
C1667 H1659 0.930 . S
C1667 C1668 1.355 . S
C1667 C1669 1.415 . S
C1668 C1667 1.355 . S
C1668 C1670 1.419 . S
C1669 C1664 1.425 . S
C1669 C1666 1.409 . S
C1669 C1667 1.415 . S
C1670 H1660 0.930 . S
C1670 C1668 1.419 . S
C1670 C1671 1.362 . S
C1671 H1661 0.930 . S
C1671 C1664 1.409 . S
C1671 C1670 1.362 . S
H1672 C1678 0.930 . S
H1673 C1681 0.930 . S
H1674 C1682 0.930 . S
H1675 C1683 0.930 . S
H1676 C1686 0.930 . S
H1677 C1687 0.930 . S
C1678 H1672 0.930 . S
C1678 C1679 1.355 . S
C1678 C1680 1.415 . S
C1679 C1678 1.355 . S
C1679 C1681 1.419 . S
C1680 C1678 1.415 . S
C1680 C1685 1.425 . S
C1680 C1687 1.409 . S
C1681 H1673 0.930 . S
C1681 C1679 1.419 . S
C1681 C1682 1.362 . S
C1682 H1674 0.930 . S
C1682 C1681 1.362 . S
C1682 C1685 1.409 . S
C1683 H1675 0.930 . S
C1683 C1684 1.355 . S
C1683 C1685 1.415 . S
C1684 C1683 1.355 . S
C1684 C1686 1.419 . S
C1685 C1680 1.425 . S
C1685 C1682 1.409 . S
C1685 C1683 1.415 . S
C1686 H1676 0.930 . S
C1686 C1684 1.419 . S
C1686 C1687 1.362 . S
C1687 H1677 0.930 . S
C1687 C1680 1.409 . S
C1687 C1686 1.362 . S
H1688 C1694 0.930 . S
H1689 C1697 0.930 . S
H1690 C1698 0.930 . S
H1691 C1699 0.930 . S
H1692 C1702 0.930 . S
H1693 C1703 0.930 . S
C1694 H1688 0.930 . S
C1694 C1695 1.355 . S
C1694 C1696 1.415 . S
C1695 C1694 1.355 . S
C1695 C1697 1.419 . S
C1696 C1694 1.415 . S
C1696 C1701 1.425 . S
C1696 C1703 1.409 . S
C1697 H1689 0.930 . S
C1697 C1695 1.419 . S
C1697 C1698 1.362 . S
C1698 H1690 0.930 . S
C1698 C1697 1.362 . S
C1698 C1701 1.409 . S
C1699 H1691 0.930 . S
C1699 C1700 1.355 . S
C1699 C1701 1.415 . S
C1700 C1699 1.355 . S
C1700 C1702 1.419 . S
C1701 C1696 1.425 . S
C1701 C1698 1.409 . S
C1701 C1699 1.415 . S
C1702 H1692 0.930 . S
C1702 C1700 1.419 . S
C1702 C1703 1.362 . S
C1703 H1693 0.930 . S
C1703 C1696 1.409 . S
C1703 C1702 1.362 . S
H1704 C1710 0.930 . S
H1705 C1713 0.930 . S
H1706 C1714 0.930 . S
H1707 C1715 0.930 . S
H1708 C1718 0.930 . S
H1709 C1719 0.930 . S
C1710 H1704 0.930 . S
C1710 C1711 1.355 . S
C1710 C1712 1.415 . S
C1711 C1710 1.355 . S
C1711 C1713 1.419 . S
C1712 C1710 1.415 . S
C1712 C1717 1.425 . S
C1712 C1719 1.409 . S
C1713 H1705 0.930 . S
C1713 C1711 1.419 . S
C1713 C1714 1.362 . S
C1714 H1706 0.930 . S
C1714 C1713 1.362 . S
C1714 C1717 1.409 . S
C1715 H1707 0.930 . S
C1715 C1716 1.355 . S
C1715 C1717 1.415 . S
C1716 C1715 1.355 . S
C1716 C1718 1.419 . S
C1717 C1712 1.425 . S
C1717 C1714 1.409 . S
C1717 C1715 1.415 . S
C1718 H1708 0.930 . S
C1718 C1716 1.419 . S
C1718 C1719 1.362 . S
C1719 H1709 0.930 . S
C1719 C1712 1.409 . S
C1719 C1718 1.362 . S
H1720 C1726 0.930 . S
H1721 C1729 0.930 . S
H1722 C1730 0.930 . S
H1723 C1731 0.930 . S
H1724 C1734 0.930 . S
H1725 C1735 0.930 . S
C1726 H1720 0.930 . S
C1726 C1727 1.355 . S
C1726 C1728 1.415 . S
C1727 C1726 1.355 . S
C1727 C1729 1.419 . S
C1728 C1726 1.415 . S
C1728 C1733 1.425 . S
C1728 C1735 1.409 . S
C1729 H1721 0.930 . S
C1729 C1727 1.419 . S
C1729 C1730 1.362 . S
C1730 H1722 0.930 . S
C1730 C1729 1.362 . S
C1730 C1733 1.409 . S
C1731 H1723 0.930 . S
C1731 C1732 1.355 . S
C1731 C1733 1.415 . S
C1732 C1731 1.355 . S
C1732 C1734 1.419 . S
C1733 C1728 1.425 . S
C1733 C1730 1.409 . S
C1733 C1731 1.415 . S
C1734 H1724 0.930 . S
C1734 C1732 1.419 . S
C1734 C1735 1.362 . S
C1735 H1725 0.930 . S
C1735 C1728 1.409 . S
C1735 C1734 1.362 . S
H1736 C1742 0.930 . S
H1737 C1745 0.930 . S
H1738 C1746 0.930 . S
H1739 C1747 0.930 . S
H1740 C1750 0.930 . S
H1741 C1751 0.930 . S
C1742 H1736 0.930 . S
C1742 C1743 1.355 . S
C1742 C1744 1.415 . S
C1743 C1742 1.355 . S
C1743 C1745 1.419 . S
C1744 C1742 1.415 . S
C1744 C1749 1.425 . S
C1744 C1751 1.409 . S
C1745 H1737 0.930 . S
C1745 C1743 1.419 . S
C1745 C1746 1.362 . S
C1746 H1738 0.930 . S
C1746 C1745 1.362 . S
C1746 C1749 1.409 . S
C1747 H1739 0.930 . S
C1747 C1748 1.355 . S
C1747 C1749 1.415 . S
C1748 C1747 1.355 . S
C1748 C1750 1.419 . S
C1749 C1744 1.425 . S
C1749 C1746 1.409 . S
C1749 C1747 1.415 . S
C1750 H1740 0.930 . S
C1750 C1748 1.419 . S
C1750 C1751 1.362 . S
C1751 H1741 0.930 . S
C1751 C1744 1.409 . S
C1751 C1750 1.362 . S
H1752 C1758 0.930 . S
H1753 C1761 0.930 . S
H1754 C1762 0.930 . S
H1755 C1763 0.930 . S
H1756 C1766 0.930 . S
H1757 C1767 0.930 . S
C1758 H1752 0.930 . S
C1758 C1759 1.355 . S
C1758 C1760 1.415 . S
C1759 C1758 1.355 . S
C1759 C1761 1.419 . S
C1760 C1758 1.415 . S
C1760 C1765 1.425 . S
C1760 C1767 1.409 . S
C1761 H1753 0.930 . S
C1761 C1759 1.419 . S
C1761 C1762 1.362 . S
C1762 H1754 0.930 . S
C1762 C1761 1.362 . S
C1762 C1765 1.409 . S
C1763 H1755 0.930 . S
C1763 C1764 1.355 . S
C1763 C1765 1.415 . S
C1764 C1763 1.355 . S
C1764 C1766 1.419 . S
C1765 C1760 1.425 . S
C1765 C1762 1.409 . S
C1765 C1763 1.415 . S
C1766 H1756 0.930 . S
C1766 C1764 1.419 . S
C1766 C1767 1.362 . S
C1767 H1757 0.930 . S
C1767 C1760 1.409 . S
C1767 C1766 1.362 . S
H1768 C1774 0.930 . S
H1769 C1777 0.930 . S
H1770 C1778 0.930 . S
H1771 C1779 0.930 . S
H1772 C1782 0.930 . S
H1773 C1783 0.930 . S
C1774 H1768 0.930 . S
C1774 C1775 1.355 . S
C1774 C1776 1.415 . S
C1775 C1774 1.355 . S
C1775 C1777 1.419 . S
C1776 C1774 1.415 . S
C1776 C1781 1.425 . S
C1776 C1783 1.409 . S
C1777 H1769 0.930 . S
C1777 C1775 1.419 . S
C1777 C1778 1.362 . S
C1778 H1770 0.930 . S
C1778 C1777 1.362 . S
C1778 C1781 1.409 . S
C1779 H1771 0.930 . S
C1779 C1780 1.355 . S
C1779 C1781 1.415 . S
C1780 C1779 1.355 . S
C1780 C1782 1.419 . S
C1781 C1776 1.425 . S
C1781 C1778 1.409 . S
C1781 C1779 1.415 . S
C1782 H1772 0.930 . S
C1782 C1780 1.419 . S
C1782 C1783 1.362 . S
C1783 H1773 0.930 . S
C1783 C1776 1.409 . S
C1783 C1782 1.362 . S
H1784 C1790 0.930 . S
H1785 C1793 0.930 . S
H1786 C1794 0.930 . S
H1787 C1795 0.930 . S
H1788 C1798 0.930 . S
H1789 C1799 0.930 . S
C1790 H1784 0.930 . S
C1790 C1791 1.355 . S
C1790 C1792 1.415 . S
C1791 C1790 1.355 . S
C1791 C1793 1.419 . S
C1792 C1790 1.415 . S
C1792 C1797 1.425 . S
C1792 C1799 1.409 . S
C1793 H1785 0.930 . S
C1793 C1791 1.419 . S
C1793 C1794 1.362 . S
C1794 H1786 0.930 . S
C1794 C1793 1.362 . S
C1794 C1797 1.409 . S
C1795 H1787 0.930 . S
C1795 C1796 1.355 . S
C1795 C1797 1.415 . S
C1796 C1795 1.355 . S
C1796 C1798 1.419 . S
C1797 C1792 1.425 . S
C1797 C1794 1.409 . S
C1797 C1795 1.415 . S
C1798 H1788 0.930 . S
C1798 C1796 1.419 . S
C1798 C1799 1.362 . S
C1799 H1789 0.930 . S
C1799 C1792 1.409 . S
C1799 C1798 1.362 . S
H1800 C1806 0.930 . S
H1801 C1809 0.930 . S
H1802 C1810 0.930 . S
H1803 C1811 0.930 . S
H1804 C1814 0.930 . S
H1805 C1815 0.930 . S
C1806 H1800 0.930 . S
C1806 C1807 1.355 . S
C1806 C1808 1.415 . S
C1807 C1806 1.355 . S
C1807 C1809 1.419 . S
C1808 C1806 1.415 . S
C1808 C1813 1.425 . S
C1808 C1815 1.409 . S
C1809 H1801 0.930 . S
C1809 C1807 1.419 . S
C1809 C1810 1.362 . S
C1810 H1802 0.930 . S
C1810 C1809 1.362 . S
C1810 C1813 1.409 . S
C1811 H1803 0.930 . S
C1811 C1812 1.355 . S
C1811 C1813 1.415 . S
C1812 C1811 1.355 . S
C1812 C1814 1.419 . S
C1813 C1808 1.425 . S
C1813 C1810 1.409 . S
C1813 C1811 1.415 . S
C1814 H1804 0.930 . S
C1814 C1812 1.419 . S
C1814 C1815 1.362 . S
C1815 H1805 0.930 . S
C1815 C1808 1.409 . S
C1815 C1814 1.362 . S
H1816 C1822 0.930 . S
H1817 C1825 0.930 . S
H1818 C1826 0.930 . S
H1819 C1827 0.930 . S
H1820 C1830 0.930 . S
H1821 C1831 0.930 . S
C1822 H1816 0.930 . S
C1822 C1823 1.355 . S
C1822 C1824 1.415 . S
C1823 C1822 1.355 . S
C1823 C1825 1.419 . S
C1824 C1822 1.415 . S
C1824 C1829 1.425 . S
C1824 C1831 1.409 . S
C1825 H1817 0.930 . S
C1825 C1823 1.419 . S
C1825 C1826 1.362 . S
C1826 H1818 0.930 . S
C1826 C1825 1.362 . S
C1826 C1829 1.409 . S
C1827 H1819 0.930 . S
C1827 C1828 1.355 . S
C1827 C1829 1.415 . S
C1828 C1827 1.355 . S
C1828 C1830 1.419 . S
C1829 C1824 1.425 . S
C1829 C1826 1.409 . S
C1829 C1827 1.415 . S
C1830 H1820 0.930 . S
C1830 C1828 1.419 . S
C1830 C1831 1.362 . S
C1831 H1821 0.930 . S
C1831 C1824 1.409 . S
C1831 C1830 1.362 . S
H1832 C1838 0.930 . S
H1833 C1841 0.930 . S
H1834 C1842 0.930 . S
H1835 C1843 0.930 . S
H1836 C1846 0.930 . S
H1837 C1847 0.930 . S
C1838 H1832 0.930 . S
C1838 C1839 1.355 . S
C1838 C1840 1.415 . S
C1839 C1838 1.355 . S
C1839 C1841 1.419 . S
C1840 C1838 1.415 . S
C1840 C1845 1.425 . S
C1840 C1847 1.409 . S
C1841 H1833 0.930 . S
C1841 C1839 1.419 . S
C1841 C1842 1.362 . S
C1842 H1834 0.930 . S
C1842 C1841 1.362 . S
C1842 C1845 1.409 . S
C1843 H1835 0.930 . S
C1843 C1844 1.355 . S
C1843 C1845 1.415 . S
C1844 C1843 1.355 . S
C1844 C1846 1.419 . S
C1845 C1840 1.425 . S
C1845 C1842 1.409 . S
C1845 C1843 1.415 . S
C1846 H1836 0.930 . S
C1846 C1844 1.419 . S
C1846 C1847 1.362 . S
C1847 H1837 0.930 . S
C1847 C1840 1.409 . S
C1847 C1846 1.362 . S
H1848 C1854 0.930 . S
H1849 C1857 0.930 . S
H1850 C1858 0.930 . S
H1851 C1859 0.930 . S
H1852 C1862 0.930 . S
H1853 C1863 0.930 . S
C1854 H1848 0.930 . S
C1854 C1855 1.355 . S
C1854 C1856 1.415 . S
C1855 C1854 1.355 . S
C1855 C1857 1.419 . S
C1856 C1854 1.415 . S
C1856 C1861 1.425 . S
C1856 C1863 1.409 . S
C1857 H1849 0.930 . S
C1857 C1855 1.419 . S
C1857 C1858 1.362 . S
C1858 H1850 0.930 . S
C1858 C1857 1.362 . S
C1858 C1861 1.409 . S
C1859 H1851 0.930 . S
C1859 C1860 1.355 . S
C1859 C1861 1.415 . S
C1860 C1859 1.355 . S
C1860 C1862 1.419 . S
C1861 C1856 1.425 . S
C1861 C1858 1.409 . S
C1861 C1859 1.415 . S
C1862 H1852 0.930 . S
C1862 C1860 1.419 . S
C1862 C1863 1.362 . S
C1863 H1853 0.930 . S
C1863 C1856 1.409 . S
C1863 C1862 1.362 . S
H1864 C1870 0.930 . S
H1865 C1873 0.930 . S
H1866 C1874 0.930 . S
H1867 C1875 0.930 . S
H1868 C1878 0.930 . S
H1869 C1879 0.930 . S
C1870 H1864 0.930 . S
C1870 C1871 1.355 . S
C1870 C1872 1.415 . S
C1871 C1870 1.355 . S
C1871 C1873 1.419 . S
C1872 C1870 1.415 . S
C1872 C1877 1.425 . S
C1872 C1879 1.409 . S
C1873 H1865 0.930 . S
C1873 C1871 1.419 . S
C1873 C1874 1.362 . S
C1874 H1866 0.930 . S
C1874 C1873 1.362 . S
C1874 C1877 1.409 . S
C1875 H1867 0.930 . S
C1875 C1876 1.355 . S
C1875 C1877 1.415 . S
C1876 C1875 1.355 . S
C1876 C1878 1.419 . S
C1877 C1872 1.425 . S
C1877 C1874 1.409 . S
C1877 C1875 1.415 . S
C1878 H1868 0.930 . S
C1878 C1876 1.419 . S
C1878 C1879 1.362 . S
C1879 H1869 0.930 . S
C1879 C1872 1.409 . S
C1879 C1878 1.362 . S
H1880 C1886 0.930 . S
H1881 C1889 0.930 . S
H1882 C1890 0.930 . S
H1883 C1891 0.930 . S
H1884 C1894 0.930 . S
H1885 C1895 0.930 . S
C1886 H1880 0.930 . S
C1886 C1887 1.355 . S
C1886 C1888 1.415 . S
C1887 C1886 1.355 . S
C1887 C1889 1.419 . S
C1888 C1886 1.415 . S
C1888 C1893 1.425 . S
C1888 C1895 1.409 . S
C1889 H1881 0.930 . S
C1889 C1887 1.419 . S
C1889 C1890 1.362 . S
C1890 H1882 0.930 . S
C1890 C1889 1.362 . S
C1890 C1893 1.409 . S
C1891 H1883 0.930 . S
C1891 C1892 1.355 . S
C1891 C1893 1.415 . S
C1892 C1891 1.355 . S
C1892 C1894 1.419 . S
C1893 C1888 1.425 . S
C1893 C1890 1.409 . S
C1893 C1891 1.415 . S
C1894 H1884 0.930 . S
C1894 C1892 1.419 . S
C1894 C1895 1.362 . S
C1895 H1885 0.930 . S
C1895 C1888 1.409 . S
C1895 C1894 1.362 . S
H1896 C1902 0.930 . S
H1897 C1905 0.930 . S
H1898 C1906 0.930 . S
H1899 C1907 0.930 . S
H1900 C1910 0.930 . S
H1901 C1911 0.930 . S
C1902 H1896 0.930 . S
C1902 C1903 1.355 . S
C1902 C1904 1.415 . S
C1903 C1902 1.355 . S
C1903 C1905 1.419 . S
C1904 C1902 1.415 . S
C1904 C1909 1.425 . S
C1904 C1911 1.409 . S
C1905 H1897 0.930 . S
C1905 C1903 1.419 . S
C1905 C1906 1.362 . S
C1906 H1898 0.930 . S
C1906 C1905 1.362 . S
C1906 C1909 1.409 . S
C1907 H1899 0.930 . S
C1907 C1908 1.355 . S
C1907 C1909 1.415 . S
C1908 C1907 1.355 . S
C1908 C1910 1.419 . S
C1909 C1904 1.425 . S
C1909 C1906 1.409 . S
C1909 C1907 1.415 . S
C1910 H1900 0.930 . S
C1910 C1908 1.419 . S
C1910 C1911 1.362 . S
C1911 H1901 0.930 . S
C1911 C1904 1.409 . S
C1911 C1910 1.362 . S
H1912 C1918 0.930 . S
H1913 C1921 0.930 . S
H1914 C1922 0.930 . S
H1915 C1923 0.930 . S
H1916 C1926 0.930 . S
H1917 C1927 0.930 . S
C1918 H1912 0.930 . S
C1918 C1919 1.355 . S
C1918 C1920 1.415 . S
C1919 C1918 1.355 . S
C1919 C1921 1.419 . S
C1920 C1918 1.415 . S
C1920 C1925 1.425 . S
C1920 C1927 1.409 . S
C1921 H1913 0.930 . S
C1921 C1919 1.419 . S
C1921 C1922 1.362 . S
C1922 H1914 0.930 . S
C1922 C1921 1.362 . S
C1922 C1925 1.409 . S
C1923 H1915 0.930 . S
C1923 C1924 1.355 . S
C1923 C1925 1.415 . S
C1924 C1923 1.355 . S
C1924 C1926 1.419 . S
C1925 C1920 1.425 . S
C1925 C1922 1.409 . S
C1925 C1923 1.415 . S
C1926 H1916 0.930 . S
C1926 C1924 1.419 . S
C1926 C1927 1.362 . S
C1927 H1917 0.930 . S
C1927 C1920 1.409 . S
C1927 C1926 1.362 . S
H1928 C1934 0.930 . S
H1929 C1937 0.930 . S
H1930 C1938 0.930 . S
H1931 C1939 0.930 . S
H1932 C1942 0.930 . S
H1933 C1943 0.930 . S
C1934 H1928 0.930 . S
C1934 C1935 1.355 . S
C1934 C1936 1.415 . S
C1935 C1934 1.355 . S
C1935 C1937 1.419 . S
C1936 C1934 1.415 . S
C1936 C1941 1.425 . S
C1936 C1943 1.409 . S
C1937 H1929 0.930 . S
C1937 C1935 1.419 . S
C1937 C1938 1.362 . S
C1938 H1930 0.930 . S
C1938 C1937 1.362 . S
C1938 C1941 1.409 . S
C1939 H1931 0.930 . S
C1939 C1940 1.355 . S
C1939 C1941 1.415 . S
C1940 C1939 1.355 . S
C1940 C1942 1.419 . S
C1941 C1936 1.425 . S
C1941 C1938 1.409 . S
C1941 C1939 1.415 . S
C1942 H1932 0.930 . S
C1942 C1940 1.419 . S
C1942 C1943 1.362 . S
C1943 H1933 0.930 . S
C1943 C1936 1.409 . S
C1943 C1942 1.362 . S
H1944 C1950 0.930 . S
H1945 C1953 0.930 . S
H1946 C1954 0.930 . S
H1947 C1955 0.930 . S
H1948 C1958 0.930 . S
H1949 C1959 0.930 . S
C1950 H1944 0.930 . S
C1950 C1951 1.355 . S
C1950 C1952 1.415 . S
C1951 C1950 1.355 . S
C1951 C1953 1.419 . S
C1952 C1950 1.415 . S
C1952 C1957 1.425 . S
C1952 C1959 1.409 . S
C1953 H1945 0.930 . S
C1953 C1951 1.419 . S
C1953 C1954 1.362 . S
C1954 H1946 0.930 . S
C1954 C1953 1.362 . S
C1954 C1957 1.409 . S
C1955 H1947 0.930 . S
C1955 C1956 1.355 . S
C1955 C1957 1.415 . S
C1956 C1955 1.355 . S
C1956 C1958 1.419 . S
C1957 C1952 1.425 . S
C1957 C1954 1.409 . S
C1957 C1955 1.415 . S
C1958 H1948 0.930 . S
C1958 C1956 1.419 . S
C1958 C1959 1.362 . S
C1959 H1949 0.930 . S
C1959 C1952 1.409 . S
C1959 C1958 1.362 . S
H1960 C1966 0.930 . S
H1961 C1969 0.930 . S
H1962 C1970 0.930 . S
H1963 C1971 0.930 . S
H1964 C1974 0.930 . S
H1965 C1975 0.930 . S
C1966 H1960 0.930 . S
C1966 C1967 1.355 . S
C1966 C1968 1.415 . S
C1967 C1966 1.355 . S
C1967 C1969 1.419 . S
C1968 C1966 1.415 . S
C1968 C1973 1.425 . S
C1968 C1975 1.409 . S
C1969 H1961 0.930 . S
C1969 C1967 1.419 . S
C1969 C1970 1.362 . S
C1970 H1962 0.930 . S
C1970 C1969 1.362 . S
C1970 C1973 1.409 . S
C1971 H1963 0.930 . S
C1971 C1972 1.355 . S
C1971 C1973 1.415 . S
C1972 C1971 1.355 . S
C1972 C1974 1.419 . S
C1973 C1968 1.425 . S
C1973 C1970 1.409 . S
C1973 C1971 1.415 . S
C1974 H1964 0.930 . S
C1974 C1972 1.419 . S
C1974 C1975 1.362 . S
C1975 H1965 0.930 . S
C1975 C1968 1.409 . S
C1975 C1974 1.362 . S
H1976 C1982 0.930 . S
H1977 C1985 0.930 . S
H1978 C1986 0.930 . S
H1979 C1987 0.930 . S
H1980 C1990 0.930 . S
H1981 C1991 0.930 . S
C1982 H1976 0.930 . S
C1982 C1983 1.355 . S
C1982 C1984 1.415 . S
C1983 C1982 1.355 . S
C1983 C1985 1.419 . S
C1984 C1982 1.415 . S
C1984 C1989 1.425 . S
C1984 C1991 1.409 . S
C1985 H1977 0.930 . S
C1985 C1983 1.419 . S
C1985 C1986 1.362 . S
C1986 H1978 0.930 . S
C1986 C1985 1.362 . S
C1986 C1989 1.409 . S
C1987 H1979 0.930 . S
C1987 C1988 1.355 . S
C1987 C1989 1.415 . S
C1988 C1987 1.355 . S
C1988 C1990 1.419 . S
C1989 C1984 1.425 . S
C1989 C1986 1.409 . S
C1989 C1987 1.415 . S
C1990 H1980 0.930 . S
C1990 C1988 1.419 . S
C1990 C1991 1.362 . S
C1991 H1981 0.930 . S
C1991 C1984 1.409 . S
C1991 C1990 1.362 . S
H1992 C1998 0.930 . S
H1993 C2001 0.930 . S
H1994 C2002 0.930 . S
H1995 C2003 0.930 . S
H1996 C2006 0.930 . S
H1997 C2007 0.930 . S
C1998 H1992 0.930 . S
C1998 C1999 1.355 . S
C1998 C2000 1.415 . S
C1999 C1998 1.355 . S
C1999 C2001 1.419 . S
C2000 C1998 1.415 . S
C2000 C2005 1.425 . S
C2000 C2007 1.409 . S
C2001 H1993 0.930 . S
C2001 C1999 1.419 . S
C2001 C2002 1.362 . S
C2002 H1994 0.930 . S
C2002 C2001 1.362 . S
C2002 C2005 1.409 . S
C2003 H1995 0.930 . S
C2003 C2004 1.355 . S
C2003 C2005 1.415 . S
C2004 C2003 1.355 . S
C2004 C2006 1.419 . S
C2005 C2000 1.425 . S
C2005 C2002 1.409 . S
C2005 C2003 1.415 . S
C2006 H1996 0.930 . S
C2006 C2004 1.419 . S
C2006 C2007 1.362 . S
C2007 H1997 0.930 . S
C2007 C2000 1.409 . S
C2007 C2006 1.362 . S
H2008 C2014 0.930 . S
H2009 C2017 0.930 . S
H2010 C2018 0.930 . S
H2011 C2019 0.930 . S
H2012 C2022 0.930 . S
H2013 C2023 0.930 . S
C2014 H2008 0.930 . S
C2014 C2015 1.355 . S
C2014 C2016 1.415 . S
C2015 C2014 1.355 . S
C2015 C2017 1.419 . S
C2016 C2014 1.415 . S
C2016 C2021 1.425 . S
C2016 C2023 1.409 . S
C2017 H2009 0.930 . S
C2017 C2015 1.419 . S
C2017 C2018 1.362 . S
C2018 H2010 0.930 . S
C2018 C2017 1.362 . S
C2018 C2021 1.409 . S
C2019 H2011 0.930 . S
C2019 C2020 1.355 . S
C2019 C2021 1.415 . S
C2020 C2019 1.355 . S
C2020 C2022 1.419 . S
C2021 C2016 1.425 . S
C2021 C2018 1.409 . S
C2021 C2019 1.415 . S
C2022 H2012 0.930 . S
C2022 C2020 1.419 . S
C2022 C2023 1.362 . S
C2023 H2013 0.930 . S
C2023 C2016 1.409 . S
C2023 C2022 1.362 . S
H2024 C2030 0.930 . S
H2025 C2033 0.930 . S
H2026 C2034 0.930 . S
H2027 C2035 0.930 . S
H2028 C2038 0.930 . S
H2029 C2039 0.930 . S
C2030 H2024 0.930 . S
C2030 C2031 1.355 . S
C2030 C2032 1.415 . S
C2031 C2030 1.355 . S
C2031 C2033 1.419 . S
C2032 C2030 1.415 . S
C2032 C2037 1.425 . S
C2032 C2039 1.409 . S
C2033 H2025 0.930 . S
C2033 C2031 1.419 . S
C2033 C2034 1.362 . S
C2034 H2026 0.930 . S
C2034 C2033 1.362 . S
C2034 C2037 1.409 . S
C2035 H2027 0.930 . S
C2035 C2036 1.355 . S
C2035 C2037 1.415 . S
C2036 C2035 1.355 . S
C2036 C2038 1.419 . S
C2037 C2032 1.425 . S
C2037 C2034 1.409 . S
C2037 C2035 1.415 . S
C2038 H2028 0.930 . S
C2038 C2036 1.419 . S
C2038 C2039 1.362 . S
C2039 H2029 0.930 . S
C2039 C2032 1.409 . S
C2039 C2038 1.362 . S
H2040 C2046 0.930 . S
H2041 C2049 0.930 . S
H2042 C2050 0.930 . S
H2043 C2051 0.930 . S
H2044 C2054 0.930 . S
H2045 C2055 0.930 . S
C2046 H2040 0.930 . S
C2046 C2047 1.355 . S
C2046 C2048 1.415 . S
C2047 C2046 1.355 . S
C2047 C2049 1.419 . S
C2048 C2046 1.415 . S
C2048 C2053 1.425 . S
C2048 C2055 1.409 . S
C2049 H2041 0.930 . S
C2049 C2047 1.419 . S
C2049 C2050 1.362 . S
C2050 H2042 0.930 . S
C2050 C2049 1.362 . S
C2050 C2053 1.409 . S
C2051 H2043 0.930 . S
C2051 C2052 1.355 . S
C2051 C2053 1.415 . S
C2052 C2051 1.355 . S
C2052 C2054 1.419 . S
C2053 C2048 1.425 . S
C2053 C2050 1.409 . S
C2053 C2051 1.415 . S
C2054 H2044 0.930 . S
C2054 C2052 1.419 . S
C2054 C2055 1.362 . S
C2055 H2045 0.930 . S
C2055 C2048 1.409 . S
C2055 C2054 1.362 . S
H2056 C2062 0.930 . S
H2057 C2065 0.930 . S
H2058 C2066 0.930 . S
H2059 C2067 0.930 . S
H2060 C2070 0.930 . S
H2061 C2071 0.930 . S
C2062 H2056 0.930 . S
C2062 C2063 1.355 . S
C2062 C2064 1.415 . S
C2063 C2062 1.355 . S
C2063 C2065 1.419 . S
C2064 C2062 1.415 . S
C2064 C2069 1.425 . S
C2064 C2071 1.409 . S
C2065 H2057 0.930 . S
C2065 C2063 1.419 . S
C2065 C2066 1.362 . S
C2066 H2058 0.930 . S
C2066 C2065 1.362 . S
C2066 C2069 1.409 . S
C2067 H2059 0.930 . S
C2067 C2068 1.355 . S
C2067 C2069 1.415 . S
C2068 C2067 1.355 . S
C2068 C2070 1.419 . S
C2069 C2064 1.425 . S
C2069 C2066 1.409 . S
C2069 C2067 1.415 . S
C2070 H2060 0.930 . S
C2070 C2068 1.419 . S
C2070 C2071 1.362 . S
C2071 H2061 0.930 . S
C2071 C2064 1.409 . S
C2071 C2070 1.362 . S
H2072 C2078 0.930 . S
H2073 C2081 0.930 . S
H2074 C2082 0.930 . S
H2075 C2083 0.930 . S
H2076 C2086 0.930 . S
H2077 C2087 0.930 . S
C2078 H2072 0.930 . S
C2078 C2079 1.355 . S
C2078 C2080 1.415 . S
C2079 C2078 1.355 . S
C2079 C2081 1.419 . S
C2080 C2078 1.415 . S
C2080 C2085 1.425 . S
C2080 C2087 1.409 . S
C2081 H2073 0.930 . S
C2081 C2079 1.419 . S
C2081 C2082 1.362 . S
C2082 H2074 0.930 . S
C2082 C2081 1.362 . S
C2082 C2085 1.409 . S
C2083 H2075 0.930 . S
C2083 C2084 1.355 . S
C2083 C2085 1.415 . S
C2084 C2083 1.355 . S
C2084 C2086 1.419 . S
C2085 C2080 1.425 . S
C2085 C2082 1.409 . S
C2085 C2083 1.415 . S
C2086 H2076 0.930 . S
C2086 C2084 1.419 . S
C2086 C2087 1.362 . S
C2087 H2077 0.930 . S
C2087 C2080 1.409 . S
C2087 C2086 1.362 . S
H2088 C2094 0.930 . S
H2089 C2097 0.930 . S
H2090 C2098 0.930 . S
H2091 C2099 0.930 . S
H2092 C2102 0.930 . S
H2093 C2103 0.930 . S
C2094 H2088 0.930 . S
C2094 C2095 1.355 . S
C2094 C2096 1.415 . S
C2095 C2094 1.355 . S
C2095 C2097 1.419 . S
C2096 C2094 1.415 . S
C2096 C2101 1.425 . S
C2096 C2103 1.409 . S
C2097 H2089 0.930 . S
C2097 C2095 1.419 . S
C2097 C2098 1.362 . S
C2098 H2090 0.930 . S
C2098 C2097 1.362 . S
C2098 C2101 1.409 . S
C2099 H2091 0.930 . S
C2099 C2100 1.355 . S
C2099 C2101 1.415 . S
C2100 C2099 1.355 . S
C2100 C2102 1.419 . S
C2101 C2096 1.425 . S
C2101 C2098 1.409 . S
C2101 C2099 1.415 . S
C2102 H2092 0.930 . S
C2102 C2100 1.419 . S
C2102 C2103 1.362 . S
C2103 H2093 0.930 . S
C2103 C2096 1.409 . S
C2103 C2102 1.362 . S
H2104 C2110 0.930 . S
H2105 C2113 0.930 . S
H2106 C2114 0.930 . S
H2107 C2115 0.930 . S
H2108 C2118 0.930 . S
H2109 C2119 0.930 . S
C2110 H2104 0.930 . S
C2110 C2111 1.355 . S
C2110 C2112 1.415 . S
C2111 C2110 1.355 . S
C2111 C2113 1.419 . S
C2112 C2110 1.415 . S
C2112 C2117 1.425 . S
C2112 C2119 1.409 . S
C2113 H2105 0.930 . S
C2113 C2111 1.419 . S
C2113 C2114 1.362 . S
C2114 H2106 0.930 . S
C2114 C2113 1.362 . S
C2114 C2117 1.409 . S
C2115 H2107 0.930 . S
C2115 C2116 1.355 . S
C2115 C2117 1.415 . S
C2116 C2115 1.355 . S
C2116 C2118 1.419 . S
C2117 C2112 1.425 . S
C2117 C2114 1.409 . S
C2117 C2115 1.415 . S
C2118 H2108 0.930 . S
C2118 C2116 1.419 . S
C2118 C2119 1.362 . S
C2119 H2109 0.930 . S
C2119 C2112 1.409 . S
C2119 C2118 1.362 . S
H2120 C2126 0.930 . S
H2121 C2129 0.930 . S
H2122 C2130 0.930 . S
H2123 C2131 0.930 . S
H2124 C2134 0.930 . S
H2125 C2135 0.930 . S
C2126 H2120 0.930 . S
C2126 C2127 1.355 . S
C2126 C2128 1.415 . S
C2127 C2126 1.355 . S
C2127 C2129 1.419 . S
C2128 C2126 1.415 . S
C2128 C2133 1.425 . S
C2128 C2135 1.409 . S
C2129 H2121 0.930 . S
C2129 C2127 1.419 . S
C2129 C2130 1.362 . S
C2130 H2122 0.930 . S
C2130 C2129 1.362 . S
C2130 C2133 1.409 . S
C2131 H2123 0.930 . S
C2131 C2132 1.355 . S
C2131 C2133 1.415 . S
C2132 C2131 1.355 . S
C2132 C2134 1.419 . S
C2133 C2128 1.425 . S
C2133 C2130 1.409 . S
C2133 C2131 1.415 . S
C2134 H2124 0.930 . S
C2134 C2132 1.419 . S
C2134 C2135 1.362 . S
C2135 H2125 0.930 . S
C2135 C2128 1.409 . S
C2135 C2134 1.362 . S
H2136 C2142 0.930 . S
H2137 C2145 0.930 . S
H2138 C2146 0.930 . S
H2139 C2147 0.930 . S
H2140 C2150 0.930 . S
H2141 C2151 0.930 . S
C2142 H2136 0.930 . S
C2142 C2143 1.355 . S
C2142 C2144 1.415 . S
C2143 C2142 1.355 . S
C2143 C2145 1.419 . S
C2144 C2142 1.415 . S
C2144 C2149 1.425 . S
C2144 C2151 1.409 . S
C2145 H2137 0.930 . S
C2145 C2143 1.419 . S
C2145 C2146 1.362 . S
C2146 H2138 0.930 . S
C2146 C2145 1.362 . S
C2146 C2149 1.409 . S
C2147 H2139 0.930 . S
C2147 C2148 1.355 . S
C2147 C2149 1.415 . S
C2148 C2147 1.355 . S
C2148 C2150 1.419 . S
C2149 C2144 1.425 . S
C2149 C2146 1.409 . S
C2149 C2147 1.415 . S
C2150 H2140 0.930 . S
C2150 C2148 1.419 . S
C2150 C2151 1.362 . S
C2151 H2141 0.930 . S
C2151 C2144 1.409 . S
C2151 C2150 1.362 . S
H2152 C2158 0.930 . S
H2153 C2161 0.930 . S
H2154 C2162 0.930 . S
H2155 C2163 0.930 . S
H2156 C2166 0.930 . S
H2157 C2167 0.930 . S
C2158 H2152 0.930 . S
C2158 C2159 1.355 . S
C2158 C2160 1.415 . S
C2159 C2158 1.355 . S
C2159 C2161 1.419 . S
C2160 C2158 1.415 . S
C2160 C2165 1.425 . S
C2160 C2167 1.409 . S
C2161 H2153 0.930 . S
C2161 C2159 1.419 . S
C2161 C2162 1.362 . S
C2162 H2154 0.930 . S
C2162 C2161 1.362 . S
C2162 C2165 1.409 . S
C2163 H2155 0.930 . S
C2163 C2164 1.355 . S
C2163 C2165 1.415 . S
C2164 C2163 1.355 . S
C2164 C2166 1.419 . S
C2165 C2160 1.425 . S
C2165 C2162 1.409 . S
C2165 C2163 1.415 . S
C2166 H2156 0.930 . S
C2166 C2164 1.419 . S
C2166 C2167 1.362 . S
C2167 H2157 0.930 . S
C2167 C2160 1.409 . S
C2167 C2166 1.362 . S
H2168 C2174 0.930 . S
H2169 C2177 0.930 . S
H2170 C2178 0.930 . S
H2171 C2179 0.930 . S
H2172 C2182 0.930 . S
H2173 C2183 0.930 . S
C2174 H2168 0.930 . S
C2174 C2175 1.355 . S
C2174 C2176 1.415 . S
C2175 C2174 1.355 . S
C2175 C2177 1.419 . S
C2176 C2174 1.415 . S
C2176 C2181 1.425 . S
C2176 C2183 1.409 . S
C2177 H2169 0.930 . S
C2177 C2175 1.419 . S
C2177 C2178 1.362 . S
C2178 H2170 0.930 . S
C2178 C2177 1.362 . S
C2178 C2181 1.409 . S
C2179 H2171 0.930 . S
C2179 C2180 1.355 . S
C2179 C2181 1.415 . S
C2180 C2179 1.355 . S
C2180 C2182 1.419 . S
C2181 C2176 1.425 . S
C2181 C2178 1.409 . S
C2181 C2179 1.415 . S
C2182 H2172 0.930 . S
C2182 C2180 1.419 . S
C2182 C2183 1.362 . S
C2183 H2173 0.930 . S
C2183 C2176 1.409 . S
C2183 C2182 1.362 . S
H2184 C2190 0.930 . S
H2185 C2193 0.930 . S
H2186 C2194 0.930 . S
H2187 C2195 0.930 . S
H2188 C2198 0.930 . S
H2189 C2199 0.930 . S
C2190 H2184 0.930 . S
C2190 C2191 1.355 . S
C2190 C2192 1.415 . S
C2191 C2190 1.355 . S
C2191 C2193 1.419 . S
C2192 C2190 1.415 . S
C2192 C2197 1.425 . S
C2192 C2199 1.409 . S
C2193 H2185 0.930 . S
C2193 C2191 1.419 . S
C2193 C2194 1.362 . S
C2194 H2186 0.930 . S
C2194 C2193 1.362 . S
C2194 C2197 1.409 . S
C2195 H2187 0.930 . S
C2195 C2196 1.355 . S
C2195 C2197 1.415 . S
C2196 C2195 1.355 . S
C2196 C2198 1.419 . S
C2197 C2192 1.425 . S
C2197 C2194 1.409 . S
C2197 C2195 1.415 . S
C2198 H2188 0.930 . S
C2198 C2196 1.419 . S
C2198 C2199 1.362 . S
C2199 H2189 0.930 . S
C2199 C2192 1.409 . S
C2199 C2198 1.362 . S
H2200 C2206 0.930 . S
H2201 C2209 0.930 . S
H2202 C2210 0.930 . S
H2203 C2211 0.930 . S
H2204 C2214 0.930 . S
H2205 C2215 0.930 . S
C2206 H2200 0.930 . S
C2206 C2207 1.355 . S
C2206 C2208 1.415 . S
C2207 C2206 1.355 . S
C2207 C2209 1.419 . S
C2208 C2206 1.415 . S
C2208 C2213 1.425 . S
C2208 C2215 1.409 . S
C2209 H2201 0.930 . S
C2209 C2207 1.419 . S
C2209 C2210 1.362 . S
C2210 H2202 0.930 . S
C2210 C2209 1.362 . S
C2210 C2213 1.409 . S
C2211 H2203 0.930 . S
C2211 C2212 1.355 . S
C2211 C2213 1.415 . S
C2212 C2211 1.355 . S
C2212 C2214 1.419 . S
C2213 C2208 1.425 . S
C2213 C2210 1.409 . S
C2213 C2211 1.415 . S
C2214 H2204 0.930 . S
C2214 C2212 1.419 . S
C2214 C2215 1.362 . S
C2215 H2205 0.930 . S
C2215 C2208 1.409 . S
C2215 C2214 1.362 . S
H2216 C2222 0.930 . S
H2217 C2225 0.930 . S
H2218 C2226 0.930 . S
H2219 C2227 0.930 . S
H2220 C2230 0.930 . S
H2221 C2231 0.930 . S
C2222 H2216 0.930 . S
C2222 C2223 1.355 . S
C2222 C2224 1.415 . S
C2223 C2222 1.355 . S
C2223 C2225 1.419 . S
C2224 C2222 1.415 . S
C2224 C2229 1.425 . S
C2224 C2231 1.409 . S
C2225 H2217 0.930 . S
C2225 C2223 1.419 . S
C2225 C2226 1.362 . S
C2226 H2218 0.930 . S
C2226 C2225 1.362 . S
C2226 C2229 1.409 . S
C2227 H2219 0.930 . S
C2227 C2228 1.355 . S
C2227 C2229 1.415 . S
C2228 C2227 1.355 . S
C2228 C2230 1.419 . S
C2229 C2224 1.425 . S
C2229 C2226 1.409 . S
C2229 C2227 1.415 . S
C2230 H2220 0.930 . S
C2230 C2228 1.419 . S
C2230 C2231 1.362 . S
C2231 H2221 0.930 . S
C2231 C2224 1.409 . S
C2231 C2230 1.362 . S
H2232 C2238 0.930 . S
H2233 C2241 0.930 . S
H2234 C2242 0.930 . S
H2235 C2243 0.930 . S
H2236 C2246 0.930 . S
H2237 C2247 0.930 . S
C2238 H2232 0.930 . S
C2238 C2239 1.355 . S
C2238 C2240 1.415 . S
C2239 C2238 1.355 . S
C2239 C2241 1.419 . S
C2240 C2238 1.415 . S
C2240 C2245 1.425 . S
C2240 C2247 1.409 . S
C2241 H2233 0.930 . S
C2241 C2239 1.419 . S
C2241 C2242 1.362 . S
C2242 H2234 0.930 . S
C2242 C2241 1.362 . S
C2242 C2245 1.409 . S
C2243 H2235 0.930 . S
C2243 C2244 1.355 . S
C2243 C2245 1.415 . S
C2244 C2243 1.355 . S
C2244 C2246 1.419 . S
C2245 C2240 1.425 . S
C2245 C2242 1.409 . S
C2245 C2243 1.415 . S
C2246 H2236 0.930 . S
C2246 C2244 1.419 . S
C2246 C2247 1.362 . S
C2247 H2237 0.930 . S
C2247 C2240 1.409 . S
C2247 C2246 1.362 . S
H2248 C2254 0.930 . S
H2249 C2257 0.930 . S
H2250 C2258 0.930 . S
H2251 C2259 0.930 . S
H2252 C2262 0.930 . S
H2253 C2263 0.930 . S
C2254 H2248 0.930 . S
C2254 C2255 1.355 . S
C2254 C2256 1.415 . S
C2255 C2254 1.355 . S
C2255 C2257 1.419 . S
C2256 C2254 1.415 . S
C2256 C2261 1.425 . S
C2256 C2263 1.409 . S
C2257 H2249 0.930 . S
C2257 C2255 1.419 . S
C2257 C2258 1.362 . S
C2258 H2250 0.930 . S
C2258 C2257 1.362 . S
C2258 C2261 1.409 . S
C2259 H2251 0.930 . S
C2259 C2260 1.355 . S
C2259 C2261 1.415 . S
C2260 C2259 1.355 . S
C2260 C2262 1.419 . S
C2261 C2256 1.425 . S
C2261 C2258 1.409 . S
C2261 C2259 1.415 . S
C2262 H2252 0.930 . S
C2262 C2260 1.419 . S
C2262 C2263 1.362 . S
C2263 H2253 0.930 . S
C2263 C2256 1.409 . S
C2263 C2262 1.362 . S
H2264 C2270 0.930 . S
H2265 C2273 0.930 . S
H2266 C2274 0.930 . S
H2267 C2275 0.930 . S
H2268 C2278 0.930 . S
H2269 C2279 0.930 . S
C2270 H2264 0.930 . S
C2270 C2271 1.355 . S
C2270 C2272 1.415 . S
C2271 C2270 1.355 . S
C2271 C2273 1.419 . S
C2272 C2270 1.415 . S
C2272 C2277 1.425 . S
C2272 C2279 1.409 . S
C2273 H2265 0.930 . S
C2273 C2271 1.419 . S
C2273 C2274 1.362 . S
C2274 H2266 0.930 . S
C2274 C2273 1.362 . S
C2274 C2277 1.409 . S
C2275 H2267 0.930 . S
C2275 C2276 1.355 . S
C2275 C2277 1.415 . S
C2276 C2275 1.355 . S
C2276 C2278 1.419 . S
C2277 C2272 1.425 . S
C2277 C2274 1.409 . S
C2277 C2275 1.415 . S
C2278 H2268 0.930 . S
C2278 C2276 1.419 . S
C2278 C2279 1.362 . S
C2279 H2269 0.930 . S
C2279 C2272 1.409 . S
C2279 C2278 1.362 . S
H2280 C2286 0.930 . S
H2281 C2289 0.930 . S
H2282 C2290 0.930 . S
H2283 C2291 0.930 . S
H2284 C2294 0.930 . S
H2285 C2295 0.930 . S
C2286 H2280 0.930 . S
C2286 C2287 1.355 . S
C2286 C2288 1.415 . S
C2287 C2286 1.355 . S
C2287 C2289 1.419 . S
C2288 C2286 1.415 . S
C2288 C2293 1.425 . S
C2288 C2295 1.409 . S
C2289 H2281 0.930 . S
C2289 C2287 1.419 . S
C2289 C2290 1.362 . S
C2290 H2282 0.930 . S
C2290 C2289 1.362 . S
C2290 C2293 1.409 . S
C2291 H2283 0.930 . S
C2291 C2292 1.355 . S
C2291 C2293 1.415 . S
C2292 C2291 1.355 . S
C2292 C2294 1.419 . S
C2293 C2288 1.425 . S
C2293 C2290 1.409 . S
C2293 C2291 1.415 . S
C2294 H2284 0.930 . S
C2294 C2292 1.419 . S
C2294 C2295 1.362 . S
C2295 H2285 0.930 . S
C2295 C2288 1.409 . S
C2295 C2294 1.362 . S
H2296 C2302 0.930 . S
H2297 C2305 0.930 . S
H2298 C2306 0.930 . S
H2299 C2307 0.930 . S
H2300 C2310 0.930 . S
H2301 C2311 0.930 . S
C2302 H2296 0.930 . S
C2302 C2303 1.355 . S
C2302 C2304 1.415 . S
C2303 C2302 1.355 . S
C2303 C2305 1.419 . S
C2304 C2302 1.415 . S
C2304 C2309 1.425 . S
C2304 C2311 1.409 . S
C2305 H2297 0.930 . S
C2305 C2303 1.419 . S
C2305 C2306 1.362 . S
C2306 H2298 0.930 . S
C2306 C2305 1.362 . S
C2306 C2309 1.409 . S
C2307 H2299 0.930 . S
C2307 C2308 1.355 . S
C2307 C2309 1.415 . S
C2308 C2307 1.355 . S
C2308 C2310 1.419 . S
C2309 C2304 1.425 . S
C2309 C2306 1.409 . S
C2309 C2307 1.415 . S
C2310 H2300 0.930 . S
C2310 C2308 1.419 . S
C2310 C2311 1.362 . S
C2311 H2301 0.930 . S
C2311 C2304 1.409 . S
C2311 C2310 1.362 . S
H2312 C2318 0.930 . S
H2313 C2321 0.930 . S
H2314 C2322 0.930 . S
H2315 C2323 0.930 . S
H2316 C2326 0.930 . S
H2317 C2327 0.930 . S
C2318 H2312 0.930 . S
C2318 C2319 1.355 . S
C2318 C2320 1.415 . S
C2319 C2318 1.355 . S
C2319 C2321 1.419 . S
C2320 C2318 1.415 . S
C2320 C2325 1.425 . S
C2320 C2327 1.409 . S
C2321 H2313 0.930 . S
C2321 C2319 1.419 . S
C2321 C2322 1.362 . S
C2322 H2314 0.930 . S
C2322 C2321 1.362 . S
C2322 C2325 1.409 . S
C2323 H2315 0.930 . S
C2323 C2324 1.355 . S
C2323 C2325 1.415 . S
C2324 C2323 1.355 . S
C2324 C2326 1.419 . S
C2325 C2320 1.425 . S
C2325 C2322 1.409 . S
C2325 C2323 1.415 . S
C2326 H2316 0.930 . S
C2326 C2324 1.419 . S
C2326 C2327 1.362 . S
C2327 H2317 0.930 . S
C2327 C2320 1.409 . S
C2327 C2326 1.362 . S
H2328 C2334 0.930 . S
H2329 C2337 0.930 . S
H2330 C2338 0.930 . S
H2331 C2339 0.930 . S
H2332 C2342 0.930 . S
H2333 C2343 0.930 . S
C2334 H2328 0.930 . S
C2334 C2335 1.355 . S
C2334 C2336 1.415 . S
C2335 C2334 1.355 . S
C2335 C2337 1.419 . S
C2336 C2334 1.415 . S
C2336 C2341 1.425 . S
C2336 C2343 1.409 . S
C2337 H2329 0.930 . S
C2337 C2335 1.419 . S
C2337 C2338 1.362 . S
C2338 H2330 0.930 . S
C2338 C2337 1.362 . S
C2338 C2341 1.409 . S
C2339 H2331 0.930 . S
C2339 C2340 1.355 . S
C2339 C2341 1.415 . S
C2340 C2339 1.355 . S
C2340 C2342 1.419 . S
C2341 C2336 1.425 . S
C2341 C2338 1.409 . S
C2341 C2339 1.415 . S
C2342 H2332 0.930 . S
C2342 C2340 1.419 . S
C2342 C2343 1.362 . S
C2343 H2333 0.930 . S
C2343 C2336 1.409 . S
C2343 C2342 1.362 . S
H2344 C2350 0.930 . S
H2345 C2353 0.930 . S
H2346 C2354 0.930 . S
H2347 C2355 0.930 . S
H2348 C2358 0.930 . S
H2349 C2359 0.930 . S
C2350 H2344 0.930 . S
C2350 C2351 1.355 . S
C2350 C2352 1.415 . S
C2351 C2350 1.355 . S
C2351 C2353 1.419 . S
C2352 C2350 1.415 . S
C2352 C2357 1.425 . S
C2352 C2359 1.409 . S
C2353 H2345 0.930 . S
C2353 C2351 1.419 . S
C2353 C2354 1.362 . S
C2354 H2346 0.930 . S
C2354 C2353 1.362 . S
C2354 C2357 1.409 . S
C2355 H2347 0.930 . S
C2355 C2356 1.355 . S
C2355 C2357 1.415 . S
C2356 C2355 1.355 . S
C2356 C2358 1.419 . S
C2357 C2352 1.425 . S
C2357 C2354 1.409 . S
C2357 C2355 1.415 . S
C2358 H2348 0.930 . S
C2358 C2356 1.419 . S
C2358 C2359 1.362 . S
C2359 H2349 0.930 . S
C2359 C2352 1.409 . S
C2359 C2358 1.362 . S
H2360 C2366 0.930 . S
H2361 C2369 0.930 . S
H2362 C2370 0.930 . S
H2363 C2371 0.930 . S
H2364 C2374 0.930 . S
H2365 C2375 0.930 . S
C2366 H2360 0.930 . S
C2366 C2367 1.355 . S
C2366 C2368 1.415 . S
C2367 C2366 1.355 . S
C2367 C2369 1.419 . S
C2368 C2366 1.415 . S
C2368 C2373 1.425 . S
C2368 C2375 1.409 . S
C2369 H2361 0.930 . S
C2369 C2367 1.419 . S
C2369 C2370 1.362 . S
C2370 H2362 0.930 . S
C2370 C2369 1.362 . S
C2370 C2373 1.409 . S
C2371 H2363 0.930 . S
C2371 C2372 1.355 . S
C2371 C2373 1.415 . S
C2372 C2371 1.355 . S
C2372 C2374 1.419 . S
C2373 C2368 1.425 . S
C2373 C2370 1.409 . S
C2373 C2371 1.415 . S
C2374 H2364 0.930 . S
C2374 C2372 1.419 . S
C2374 C2375 1.362 . S
C2375 H2365 0.930 . S
C2375 C2368 1.409 . S
C2375 C2374 1.362 . S
H2376 C2382 0.930 . S
H2377 C2385 0.930 . S
H2378 C2386 0.930 . S
H2379 C2387 0.930 . S
H2380 C2390 0.930 . S
H2381 C2391 0.930 . S
C2382 H2376 0.930 . S
C2382 C2383 1.355 . S
C2382 C2384 1.415 . S
C2383 C2382 1.355 . S
C2383 C2385 1.419 . S
C2384 C2382 1.415 . S
C2384 C2389 1.425 . S
C2384 C2391 1.409 . S
C2385 H2377 0.930 . S
C2385 C2383 1.419 . S
C2385 C2386 1.362 . S
C2386 H2378 0.930 . S
C2386 C2385 1.362 . S
C2386 C2389 1.409 . S
C2387 H2379 0.930 . S
C2387 C2388 1.355 . S
C2387 C2389 1.415 . S
C2388 C2387 1.355 . S
C2388 C2390 1.419 . S
C2389 C2384 1.425 . S
C2389 C2386 1.409 . S
C2389 C2387 1.415 . S
C2390 H2380 0.930 . S
C2390 C2388 1.419 . S
C2390 C2391 1.362 . S
C2391 H2381 0.930 . S
C2391 C2384 1.409 . S
C2391 C2390 1.362 . S
H2392 C2398 0.930 . S
H2393 C2401 0.930 . S
H2394 C2402 0.930 . S
H2395 C2403 0.930 . S
H2396 C2406 0.930 . S
H2397 C2407 0.930 . S
C2398 H2392 0.930 . S
C2398 C2399 1.355 . S
C2398 C2400 1.415 . S
C2399 C2398 1.355 . S
C2399 C2401 1.419 . S
C2400 C2398 1.415 . S
C2400 C2405 1.425 . S
C2400 C2407 1.409 . S
C2401 H2393 0.930 . S
C2401 C2399 1.419 . S
C2401 C2402 1.362 . S
C2402 H2394 0.930 . S
C2402 C2401 1.362 . S
C2402 C2405 1.409 . S
C2403 H2395 0.930 . S
C2403 C2404 1.355 . S
C2403 C2405 1.415 . S
C2404 C2403 1.355 . S
C2404 C2406 1.419 . S
C2405 C2400 1.425 . S
C2405 C2402 1.409 . S
C2405 C2403 1.415 . S
C2406 H2396 0.930 . S
C2406 C2404 1.419 . S
C2406 C2407 1.362 . S
C2407 H2397 0.930 . S
C2407 C2400 1.409 . S
C2407 C2406 1.362 . S
H2408 C2414 0.930 . S
H2409 C2417 0.930 . S
H2410 C2418 0.930 . S
H2411 C2419 0.930 . S
H2412 C2422 0.930 . S
H2413 C2423 0.930 . S
C2414 H2408 0.930 . S
C2414 C2415 1.355 . S
C2414 C2416 1.415 . S
C2415 C2414 1.355 . S
C2415 C2417 1.419 . S
C2416 C2414 1.415 . S
C2416 C2421 1.425 . S
C2416 C2423 1.409 . S
C2417 H2409 0.930 . S
C2417 C2415 1.419 . S
C2417 C2418 1.362 . S
C2418 H2410 0.930 . S
C2418 C2417 1.362 . S
C2418 C2421 1.409 . S
C2419 H2411 0.930 . S
C2419 C2420 1.355 . S
C2419 C2421 1.415 . S
C2420 C2419 1.355 . S
C2420 C2422 1.419 . S
C2421 C2416 1.425 . S
C2421 C2418 1.409 . S
C2421 C2419 1.415 . S
C2422 H2412 0.930 . S
C2422 C2420 1.419 . S
C2422 C2423 1.362 . S
C2423 H2413 0.930 . S
C2423 C2416 1.409 . S
C2423 C2422 1.362 . S
H2424 C2430 0.930 . S
H2425 C2433 0.930 . S
H2426 C2434 0.930 . S
H2427 C2435 0.930 . S
H2428 C2438 0.930 . S
H2429 C2439 0.930 . S
C2430 H2424 0.930 . S
C2430 C2431 1.355 . S
C2430 C2432 1.415 . S
C2431 C2430 1.355 . S
C2431 C2433 1.419 . S
C2432 C2430 1.415 . S
C2432 C2437 1.425 . S
C2432 C2439 1.409 . S
C2433 H2425 0.930 . S
C2433 C2431 1.419 . S
C2433 C2434 1.362 . S
C2434 H2426 0.930 . S
C2434 C2433 1.362 . S
C2434 C2437 1.409 . S
C2435 H2427 0.930 . S
C2435 C2436 1.355 . S
C2435 C2437 1.415 . S
C2436 C2435 1.355 . S
C2436 C2438 1.419 . S
C2437 C2432 1.425 . S
C2437 C2434 1.409 . S
C2437 C2435 1.415 . S
C2438 H2428 0.930 . S
C2438 C2436 1.419 . S
C2438 C2439 1.362 . S
C2439 H2429 0.930 . S
C2439 C2432 1.409 . S
C2439 C2438 1.362 . S
H2440 C2446 0.930 . S
H2441 C2449 0.930 . S
H2442 C2450 0.930 . S
H2443 C2451 0.930 . S
H2444 C2454 0.930 . S
H2445 C2455 0.930 . S
C2446 H2440 0.930 . S
C2446 C2447 1.355 . S
C2446 C2448 1.415 . S
C2447 C2446 1.355 . S
C2447 C2449 1.419 . S
C2448 C2446 1.415 . S
C2448 C2453 1.425 . S
C2448 C2455 1.409 . S
C2449 H2441 0.930 . S
C2449 C2447 1.419 . S
C2449 C2450 1.362 . S
C2450 H2442 0.930 . S
C2450 C2449 1.362 . S
C2450 C2453 1.409 . S
C2451 H2443 0.930 . S
C2451 C2452 1.355 . S
C2451 C2453 1.415 . S
C2452 C2451 1.355 . S
C2452 C2454 1.419 . S
C2453 C2448 1.425 . S
C2453 C2450 1.409 . S
C2453 C2451 1.415 . S
C2454 H2444 0.930 . S
C2454 C2452 1.419 . S
C2454 C2455 1.362 . S
C2455 H2445 0.930 . S
C2455 C2448 1.409 . S
C2455 C2454 1.362 . S
H2456 C2462 0.930 . S
H2457 C2465 0.930 . S
H2458 C2466 0.930 . S
H2459 C2467 0.930 . S
H2460 C2470 0.930 . S
H2461 C2471 0.930 . S
C2462 H2456 0.930 . S
C2462 C2463 1.355 . S
C2462 C2464 1.415 . S
C2463 C2462 1.355 . S
C2463 C2465 1.419 . S
C2464 C2462 1.415 . S
C2464 C2469 1.425 . S
C2464 C2471 1.409 . S
C2465 H2457 0.930 . S
C2465 C2463 1.419 . S
C2465 C2466 1.362 . S
C2466 H2458 0.930 . S
C2466 C2465 1.362 . S
C2466 C2469 1.409 . S
C2467 H2459 0.930 . S
C2467 C2468 1.355 . S
C2467 C2469 1.415 . S
C2468 C2467 1.355 . S
C2468 C2470 1.419 . S
C2469 C2464 1.425 . S
C2469 C2466 1.409 . S
C2469 C2467 1.415 . S
C2470 H2460 0.930 . S
C2470 C2468 1.419 . S
C2470 C2471 1.362 . S
C2471 H2461 0.930 . S
C2471 C2464 1.409 . S
C2471 C2470 1.362 . S
H2472 C2478 0.930 . S
H2473 C2481 0.930 . S
H2474 C2482 0.930 . S
H2475 C2483 0.930 . S
H2476 C2486 0.930 . S
H2477 C2487 0.930 . S
C2478 H2472 0.930 . S
C2478 C2479 1.355 . S
C2478 C2480 1.415 . S
C2479 C2478 1.355 . S
C2479 C2481 1.419 . S
C2480 C2478 1.415 . S
C2480 C2485 1.425 . S
C2480 C2487 1.409 . S
C2481 H2473 0.930 . S
C2481 C2479 1.419 . S
C2481 C2482 1.362 . S
C2482 H2474 0.930 . S
C2482 C2481 1.362 . S
C2482 C2485 1.409 . S
C2483 H2475 0.930 . S
C2483 C2484 1.355 . S
C2483 C2485 1.415 . S
C2484 C2483 1.355 . S
C2484 C2486 1.419 . S
C2485 C2480 1.425 . S
C2485 C2482 1.409 . S
C2485 C2483 1.415 . S
C2486 H2476 0.930 . S
C2486 C2484 1.419 . S
C2486 C2487 1.362 . S
C2487 H2477 0.930 . S
C2487 C2480 1.409 . S
C2487 C2486 1.362 . S
H2488 C2494 0.930 . S
H2489 C2497 0.930 . S
H2490 C2498 0.930 . S
H2491 C2499 0.930 . S
H2492 C2502 0.930 . S
H2493 C2503 0.930 . S
C2494 H2488 0.930 . S
C2494 C2495 1.355 . S
C2494 C2496 1.415 . S
C2495 C2494 1.355 . S
C2495 C2497 1.419 . S
C2496 C2494 1.415 . S
C2496 C2501 1.425 . S
C2496 C2503 1.409 . S
C2497 H2489 0.930 . S
C2497 C2495 1.419 . S
C2497 C2498 1.362 . S
C2498 H2490 0.930 . S
C2498 C2497 1.362 . S
C2498 C2501 1.409 . S
C2499 H2491 0.930 . S
C2499 C2500 1.355 . S
C2499 C2501 1.415 . S
C2500 C2499 1.355 . S
C2500 C2502 1.419 . S
C2501 C2496 1.425 . S
C2501 C2498 1.409 . S
C2501 C2499 1.415 . S
C2502 H2492 0.930 . S
C2502 C2500 1.419 . S
C2502 C2503 1.362 . S
C2503 H2493 0.930 . S
C2503 C2496 1.409 . S
C2503 C2502 1.362 . S
H2504 C2510 0.930 . S
H2505 C2513 0.930 . S
H2506 C2514 0.930 . S
H2507 C2515 0.930 . S
H2508 C2518 0.930 . S
H2509 C2519 0.930 . S
C2510 H2504 0.930 . S
C2510 C2511 1.355 . S
C2510 C2512 1.415 . S
C2511 C2510 1.355 . S
C2511 C2513 1.419 . S
C2512 C2510 1.415 . S
C2512 C2517 1.425 . S
C2512 C2519 1.409 . S
C2513 H2505 0.930 . S
C2513 C2511 1.419 . S
C2513 C2514 1.362 . S
C2514 H2506 0.930 . S
C2514 C2513 1.362 . S
C2514 C2517 1.409 . S
C2515 H2507 0.930 . S
C2515 C2516 1.355 . S
C2515 C2517 1.415 . S
C2516 C2515 1.355 . S
C2516 C2518 1.419 . S
C2517 C2512 1.425 . S
C2517 C2514 1.409 . S
C2517 C2515 1.415 . S
C2518 H2508 0.930 . S
C2518 C2516 1.419 . S
C2518 C2519 1.362 . S
C2519 H2509 0.930 . S
C2519 C2512 1.409 . S
C2519 C2518 1.362 . S
H2520 C2526 0.930 . S
H2521 C2529 0.930 . S
H2522 C2530 0.930 . S
H2523 C2531 0.930 . S
H2524 C2534 0.930 . S
H2525 C2535 0.930 . S
C2526 H2520 0.930 . S
C2526 C2527 1.355 . S
C2526 C2528 1.415 . S
C2527 C2526 1.355 . S
C2527 C2529 1.419 . S
C2528 C2526 1.415 . S
C2528 C2533 1.425 . S
C2528 C2535 1.409 . S
C2529 H2521 0.930 . S
C2529 C2527 1.419 . S
C2529 C2530 1.362 . S
C2530 H2522 0.930 . S
C2530 C2529 1.362 . S
C2530 C2533 1.409 . S
C2531 H2523 0.930 . S
C2531 C2532 1.355 . S
C2531 C2533 1.415 . S
C2532 C2531 1.355 . S
C2532 C2534 1.419 . S
C2533 C2528 1.425 . S
C2533 C2530 1.409 . S
C2533 C2531 1.415 . S
C2534 H2524 0.930 . S
C2534 C2532 1.419 . S
C2534 C2535 1.362 . S
C2535 H2525 0.930 . S
C2535 C2528 1.409 . S
C2535 C2534 1.362 . S
H2536 C2542 0.930 . S
H2537 C2545 0.930 . S
H2538 C2546 0.930 . S
H2539 C2547 0.930 . S
H2540 C2550 0.930 . S
H2541 C2551 0.930 . S
C2542 H2536 0.930 . S
C2542 C2543 1.355 . S
C2542 C2544 1.415 . S
C2543 C2542 1.355 . S
C2543 C2545 1.419 . S
C2544 C2542 1.415 . S
C2544 C2549 1.425 . S
C2544 C2551 1.409 . S
C2545 H2537 0.930 . S
C2545 C2543 1.419 . S
C2545 C2546 1.362 . S
C2546 H2538 0.930 . S
C2546 C2545 1.362 . S
C2546 C2549 1.409 . S
C2547 H2539 0.930 . S
C2547 C2548 1.355 . S
C2547 C2549 1.415 . S
C2548 C2547 1.355 . S
C2548 C2550 1.419 . S
C2549 C2544 1.425 . S
C2549 C2546 1.409 . S
C2549 C2547 1.415 . S
C2550 H2540 0.930 . S
C2550 C2548 1.419 . S
C2550 C2551 1.362 . S
C2551 H2541 0.930 . S
C2551 C2544 1.409 . S
C2551 C2550 1.362 . S
H2552 C2558 0.930 . S
H2553 C2561 0.930 . S
H2554 C2562 0.930 . S
H2555 C2563 0.930 . S
H2556 C2566 0.930 . S
H2557 C2567 0.930 . S
C2558 H2552 0.930 . S
C2558 C2559 1.355 . S
C2558 C2560 1.415 . S
C2559 C2558 1.355 . S
C2559 C2561 1.419 . S
C2560 C2558 1.415 . S
C2560 C2565 1.425 . S
C2560 C2567 1.409 . S
C2561 H2553 0.930 . S
C2561 C2559 1.419 . S
C2561 C2562 1.362 . S
C2562 H2554 0.930 . S
C2562 C2561 1.362 . S
C2562 C2565 1.409 . S
C2563 H2555 0.930 . S
C2563 C2564 1.355 . S
C2563 C2565 1.415 . S
C2564 C2563 1.355 . S
C2564 C2566 1.419 . S
C2565 C2560 1.425 . S
C2565 C2562 1.409 . S
C2565 C2563 1.415 . S
C2566 H2556 0.930 . S
C2566 C2564 1.419 . S
C2566 C2567 1.362 . S
C2567 H2557 0.930 . S
C2567 C2560 1.409 . S
C2567 C2566 1.362 . S
H2568 C2574 0.930 . S
H2569 C2577 0.930 . S
H2570 C2578 0.930 . S
H2571 C2579 0.930 . S
H2572 C2582 0.930 . S
H2573 C2583 0.930 . S
C2574 H2568 0.930 . S
C2574 C2575 1.355 . S
C2574 C2576 1.415 . S
C2575 C2574 1.355 . S
C2575 C2577 1.419 . S
C2576 C2574 1.415 . S
C2576 C2581 1.425 . S
C2576 C2583 1.409 . S
C2577 H2569 0.930 . S
C2577 C2575 1.419 . S
C2577 C2578 1.362 . S
C2578 H2570 0.930 . S
C2578 C2577 1.362 . S
C2578 C2581 1.409 . S
C2579 H2571 0.930 . S
C2579 C2580 1.355 . S
C2579 C2581 1.415 . S
C2580 C2579 1.355 . S
C2580 C2582 1.419 . S
C2581 C2576 1.425 . S
C2581 C2578 1.409 . S
C2581 C2579 1.415 . S
C2582 H2572 0.930 . S
C2582 C2580 1.419 . S
C2582 C2583 1.362 . S
C2583 H2573 0.930 . S
C2583 C2576 1.409 . S
C2583 C2582 1.362 . S
H2584 C2590 0.930 . S
H2585 C2593 0.930 . S
H2586 C2594 0.930 . S
H2587 C2595 0.930 . S
H2588 C2598 0.930 . S
H2589 C2599 0.930 . S
C2590 H2584 0.930 . S
C2590 C2591 1.355 . S
C2590 C2592 1.415 . S
C2591 C2590 1.355 . S
C2591 C2593 1.419 . S
C2592 C2590 1.415 . S
C2592 C2597 1.425 . S
C2592 C2599 1.409 . S
C2593 H2585 0.930 . S
C2593 C2591 1.419 . S
C2593 C2594 1.362 . S
C2594 H2586 0.930 . S
C2594 C2593 1.362 . S
C2594 C2597 1.409 . S
C2595 H2587 0.930 . S
C2595 C2596 1.355 . S
C2595 C2597 1.415 . S
C2596 C2595 1.355 . S
C2596 C2598 1.419 . S
C2597 C2592 1.425 . S
C2597 C2594 1.409 . S
C2597 C2595 1.415 . S
C2598 H2588 0.930 . S
C2598 C2596 1.419 . S
C2598 C2599 1.362 . S
C2599 H2589 0.930 . S
C2599 C2592 1.409 . S
C2599 C2598 1.362 . S
H2600 C2606 0.930 . S
H2601 C2609 0.930 . S
H2602 C2610 0.930 . S
H2603 C2611 0.930 . S
H2604 C2614 0.930 . S
H2605 C2615 0.930 . S
C2606 H2600 0.930 . S
C2606 C2607 1.355 . S
C2606 C2608 1.415 . S
C2607 C2606 1.355 . S
C2607 C2609 1.419 . S
C2608 C2606 1.415 . S
C2608 C2613 1.425 . S
C2608 C2615 1.409 . S
C2609 H2601 0.930 . S
C2609 C2607 1.419 . S
C2609 C2610 1.362 . S
C2610 H2602 0.930 . S
C2610 C2609 1.362 . S
C2610 C2613 1.409 . S
C2611 H2603 0.930 . S
C2611 C2612 1.355 . S
C2611 C2613 1.415 . S
C2612 C2611 1.355 . S
C2612 C2614 1.419 . S
C2613 C2608 1.425 . S
C2613 C2610 1.409 . S
C2613 C2611 1.415 . S
C2614 H2604 0.930 . S
C2614 C2612 1.419 . S
C2614 C2615 1.362 . S
C2615 H2605 0.930 . S
C2615 C2608 1.409 . S
C2615 C2614 1.362 . S
H2616 C2622 0.930 . S
H2617 C2625 0.930 . S
H2618 C2626 0.930 . S
H2619 C2627 0.930 . S
H2620 C2630 0.930 . S
H2621 C2631 0.930 . S
C2622 H2616 0.930 . S
C2622 C2623 1.355 . S
C2622 C2624 1.415 . S
C2623 C2622 1.355 . S
C2623 C2625 1.419 . S
C2624 C2622 1.415 . S
C2624 C2629 1.425 . S
C2624 C2631 1.409 . S
C2625 H2617 0.930 . S
C2625 C2623 1.419 . S
C2625 C2626 1.362 . S
C2626 H2618 0.930 . S
C2626 C2625 1.362 . S
C2626 C2629 1.409 . S
C2627 H2619 0.930 . S
C2627 C2628 1.355 . S
C2627 C2629 1.415 . S
C2628 C2627 1.355 . S
C2628 C2630 1.419 . S
C2629 C2624 1.425 . S
C2629 C2626 1.409 . S
C2629 C2627 1.415 . S
C2630 H2620 0.930 . S
C2630 C2628 1.419 . S
C2630 C2631 1.362 . S
C2631 H2621 0.930 . S
C2631 C2624 1.409 . S
C2631 C2630 1.362 . S
H2632 C2638 0.930 . S
H2633 C2641 0.930 . S
H2634 C2642 0.930 . S
H2635 C2643 0.930 . S
H2636 C2646 0.930 . S
H2637 C2647 0.930 . S
C2638 H2632 0.930 . S
C2638 C2639 1.355 . S
C2638 C2640 1.415 . S
C2639 C2638 1.355 . S
C2639 C2641 1.419 . S
C2640 C2638 1.415 . S
C2640 C2645 1.425 . S
C2640 C2647 1.409 . S
C2641 H2633 0.930 . S
C2641 C2639 1.419 . S
C2641 C2642 1.362 . S
C2642 H2634 0.930 . S
C2642 C2641 1.362 . S
C2642 C2645 1.409 . S
C2643 H2635 0.930 . S
C2643 C2644 1.355 . S
C2643 C2645 1.415 . S
C2644 C2643 1.355 . S
C2644 C2646 1.419 . S
C2645 C2640 1.425 . S
C2645 C2642 1.409 . S
C2645 C2643 1.415 . S
C2646 H2636 0.930 . S
C2646 C2644 1.419 . S
C2646 C2647 1.362 . S
C2647 H2637 0.930 . S
C2647 C2640 1.409 . S
C2647 C2646 1.362 . S
H2648 C2654 0.930 . S
H2649 C2657 0.930 . S
H2650 C2658 0.930 . S
H2651 C2659 0.930 . S
H2652 C2662 0.930 . S
H2653 C2663 0.930 . S
C2654 H2648 0.930 . S
C2654 C2655 1.355 . S
C2654 C2656 1.415 . S
C2655 C2654 1.355 . S
C2655 C2657 1.419 . S
C2656 C2654 1.415 . S
C2656 C2661 1.425 . S
C2656 C2663 1.409 . S
C2657 H2649 0.930 . S
C2657 C2655 1.419 . S
C2657 C2658 1.362 . S
C2658 H2650 0.930 . S
C2658 C2657 1.362 . S
C2658 C2661 1.409 . S
C2659 H2651 0.930 . S
C2659 C2660 1.355 . S
C2659 C2661 1.415 . S
C2660 C2659 1.355 . S
C2660 C2662 1.419 . S
C2661 C2656 1.425 . S
C2661 C2658 1.409 . S
C2661 C2659 1.415 . S
C2662 H2652 0.930 . S
C2662 C2660 1.419 . S
C2662 C2663 1.362 . S
C2663 H2653 0.930 . S
C2663 C2656 1.409 . S
C2663 C2662 1.362 . S
H2664 C2670 0.930 . S
H2665 C2673 0.930 . S
H2666 C2674 0.930 . S
H2667 C2675 0.930 . S
H2668 C2678 0.930 . S
H2669 C2679 0.930 . S
C2670 H2664 0.930 . S
C2670 C2671 1.355 . S
C2670 C2672 1.415 . S
C2671 C2670 1.355 . S
C2671 C2673 1.419 . S
C2672 C2670 1.415 . S
C2672 C2677 1.425 . S
C2672 C2679 1.409 . S
C2673 H2665 0.930 . S
C2673 C2671 1.419 . S
C2673 C2674 1.362 . S
C2674 H2666 0.930 . S
C2674 C2673 1.362 . S
C2674 C2677 1.409 . S
C2675 H2667 0.930 . S
C2675 C2676 1.355 . S
C2675 C2677 1.415 . S
C2676 C2675 1.355 . S
C2676 C2678 1.419 . S
C2677 C2672 1.425 . S
C2677 C2674 1.409 . S
C2677 C2675 1.415 . S
C2678 H2668 0.930 . S
C2678 C2676 1.419 . S
C2678 C2679 1.362 . S
C2679 H2669 0.930 . S
C2679 C2672 1.409 . S
C2679 C2678 1.362 . S
H2680 C2686 0.930 . S
H2681 C2689 0.930 . S
H2682 C2690 0.930 . S
H2683 C2691 0.930 . S
H2684 C2694 0.930 . S
H2685 C2695 0.930 . S
C2686 H2680 0.930 . S
C2686 C2687 1.355 . S
C2686 C2688 1.415 . S
C2687 C2686 1.355 . S
C2687 C2689 1.419 . S
C2688 C2686 1.415 . S
C2688 C2693 1.425 . S
C2688 C2695 1.409 . S
C2689 H2681 0.930 . S
C2689 C2687 1.419 . S
C2689 C2690 1.362 . S
C2690 H2682 0.930 . S
C2690 C2689 1.362 . S
C2690 C2693 1.409 . S
C2691 H2683 0.930 . S
C2691 C2692 1.355 . S
C2691 C2693 1.415 . S
C2692 C2691 1.355 . S
C2692 C2694 1.419 . S
C2693 C2688 1.425 . S
C2693 C2690 1.409 . S
C2693 C2691 1.415 . S
C2694 H2684 0.930 . S
C2694 C2692 1.419 . S
C2694 C2695 1.362 . S
C2695 H2685 0.930 . S
C2695 C2688 1.409 . S
C2695 C2694 1.362 . S
H2696 C2702 0.930 . S
H2697 C2705 0.930 . S
H2698 C2706 0.930 . S
H2699 C2707 0.930 . S
H2700 C2710 0.930 . S
H2701 C2711 0.930 . S
C2702 H2696 0.930 . S
C2702 C2703 1.355 . S
C2702 C2704 1.415 . S
C2703 C2702 1.355 . S
C2703 C2705 1.419 . S
C2704 C2702 1.415 . S
C2704 C2709 1.425 . S
C2704 C2711 1.409 . S
C2705 H2697 0.930 . S
C2705 C2703 1.419 . S
C2705 C2706 1.362 . S
C2706 H2698 0.930 . S
C2706 C2705 1.362 . S
C2706 C2709 1.409 . S
C2707 H2699 0.930 . S
C2707 C2708 1.355 . S
C2707 C2709 1.415 . S
C2708 C2707 1.355 . S
C2708 C2710 1.419 . S
C2709 C2704 1.425 . S
C2709 C2706 1.409 . S
C2709 C2707 1.415 . S
C2710 H2700 0.930 . S
C2710 C2708 1.419 . S
C2710 C2711 1.362 . S
C2711 H2701 0.930 . S
C2711 C2704 1.409 . S
C2711 C2710 1.362 . S
H2712 C2718 0.930 . S
H2713 C2721 0.930 . S
H2714 C2722 0.930 . S
H2715 C2723 0.930 . S
H2716 C2726 0.930 . S
H2717 C2727 0.930 . S
C2718 H2712 0.930 . S
C2718 C2719 1.355 . S
C2718 C2720 1.415 . S
C2719 C2718 1.355 . S
C2719 C2721 1.419 . S
C2720 C2718 1.415 . S
C2720 C2725 1.425 . S
C2720 C2727 1.409 . S
C2721 H2713 0.930 . S
C2721 C2719 1.419 . S
C2721 C2722 1.362 . S
C2722 H2714 0.930 . S
C2722 C2721 1.362 . S
C2722 C2725 1.409 . S
C2723 H2715 0.930 . S
C2723 C2724 1.355 . S
C2723 C2725 1.415 . S
C2724 C2723 1.355 . S
C2724 C2726 1.419 . S
C2725 C2720 1.425 . S
C2725 C2722 1.409 . S
C2725 C2723 1.415 . S
C2726 H2716 0.930 . S
C2726 C2724 1.419 . S
C2726 C2727 1.362 . S
C2727 H2717 0.930 . S
C2727 C2720 1.409 . S
C2727 C2726 1.362 . S
H2728 C2734 0.930 . S
H2729 C2737 0.930 . S
H2730 C2738 0.930 . S
H2731 C2739 0.930 . S
H2732 C2742 0.930 . S
H2733 C2743 0.930 . S
C2734 H2728 0.930 . S
C2734 C2735 1.355 . S
C2734 C2736 1.415 . S
C2735 C2734 1.355 . S
C2735 C2737 1.419 . S
C2736 C2734 1.415 . S
C2736 C2741 1.425 . S
C2736 C2743 1.409 . S
C2737 H2729 0.930 . S
C2737 C2735 1.419 . S
C2737 C2738 1.362 . S
C2738 H2730 0.930 . S
C2738 C2737 1.362 . S
C2738 C2741 1.409 . S
C2739 H2731 0.930 . S
C2739 C2740 1.355 . S
C2739 C2741 1.415 . S
C2740 C2739 1.355 . S
C2740 C2742 1.419 . S
C2741 C2736 1.425 . S
C2741 C2738 1.409 . S
C2741 C2739 1.415 . S
C2742 H2732 0.930 . S
C2742 C2740 1.419 . S
C2742 C2743 1.362 . S
C2743 H2733 0.930 . S
C2743 C2736 1.409 . S
C2743 C2742 1.362 . S
H2744 C2750 0.930 . S
H2745 C2753 0.930 . S
H2746 C2754 0.930 . S
H2747 C2755 0.930 . S
H2748 C2758 0.930 . S
H2749 C2759 0.930 . S
C2750 H2744 0.930 . S
C2750 C2751 1.355 . S
C2750 C2752 1.415 . S
C2751 C2750 1.355 . S
C2751 C2753 1.419 . S
C2752 C2750 1.415 . S
C2752 C2757 1.425 . S
C2752 C2759 1.409 . S
C2753 H2745 0.930 . S
C2753 C2751 1.419 . S
C2753 C2754 1.362 . S
C2754 H2746 0.930 . S
C2754 C2753 1.362 . S
C2754 C2757 1.409 . S
C2755 H2747 0.930 . S
C2755 C2756 1.355 . S
C2755 C2757 1.415 . S
C2756 C2755 1.355 . S
C2756 C2758 1.419 . S
C2757 C2752 1.425 . S
C2757 C2754 1.409 . S
C2757 C2755 1.415 . S
C2758 H2748 0.930 . S
C2758 C2756 1.419 . S
C2758 C2759 1.362 . S
C2759 H2749 0.930 . S
C2759 C2752 1.409 . S
C2759 C2758 1.362 . S
H2760 C2766 0.930 . S
H2761 C2769 0.930 . S
H2762 C2770 0.930 . S
H2763 C2771 0.930 . S
H2764 C2774 0.930 . S
H2765 C2775 0.930 . S
C2766 H2760 0.930 . S
C2766 C2767 1.355 . S
C2766 C2768 1.415 . S
C2767 C2766 1.355 . S
C2767 C2769 1.419 . S
C2768 C2766 1.415 . S
C2768 C2773 1.425 . S
C2768 C2775 1.409 . S
C2769 H2761 0.930 . S
C2769 C2767 1.419 . S
C2769 C2770 1.362 . S
C2770 H2762 0.930 . S
C2770 C2769 1.362 . S
C2770 C2773 1.409 . S
C2771 H2763 0.930 . S
C2771 C2772 1.355 . S
C2771 C2773 1.415 . S
C2772 C2771 1.355 . S
C2772 C2774 1.419 . S
C2773 C2768 1.425 . S
C2773 C2770 1.409 . S
C2773 C2771 1.415 . S
C2774 H2764 0.930 . S
C2774 C2772 1.419 . S
C2774 C2775 1.362 . S
C2775 H2765 0.930 . S
C2775 C2768 1.409 . S
C2775 C2774 1.362 . S
H2776 C2782 0.930 . S
H2777 C2785 0.930 . S
H2778 C2786 0.930 . S
H2779 C2787 0.930 . S
H2780 C2790 0.930 . S
H2781 C2791 0.930 . S
C2782 H2776 0.930 . S
C2782 C2783 1.355 . S
C2782 C2784 1.415 . S
C2783 C2782 1.355 . S
C2783 C2785 1.419 . S
C2784 C2782 1.415 . S
C2784 C2789 1.425 . S
C2784 C2791 1.409 . S
C2785 H2777 0.930 . S
C2785 C2783 1.419 . S
C2785 C2786 1.362 . S
C2786 H2778 0.930 . S
C2786 C2785 1.362 . S
C2786 C2789 1.409 . S
C2787 H2779 0.930 . S
C2787 C2788 1.355 . S
C2787 C2789 1.415 . S
C2788 C2787 1.355 . S
C2788 C2790 1.419 . S
C2789 C2784 1.425 . S
C2789 C2786 1.409 . S
C2789 C2787 1.415 . S
C2790 H2780 0.930 . S
C2790 C2788 1.419 . S
C2790 C2791 1.362 . S
C2791 H2781 0.930 . S
C2791 C2784 1.409 . S
C2791 C2790 1.362 . S
H2792 C2798 0.930 . S
H2793 C2801 0.930 . S
H2794 C2802 0.930 . S
H2795 C2803 0.930 . S
H2796 C2806 0.930 . S
H2797 C2807 0.930 . S
C2798 H2792 0.930 . S
C2798 C2799 1.355 . S
C2798 C2800 1.415 . S
C2799 C2798 1.355 . S
C2799 C2801 1.419 . S
C2800 C2798 1.415 . S
C2800 C2805 1.425 . S
C2800 C2807 1.409 . S
C2801 H2793 0.930 . S
C2801 C2799 1.419 . S
C2801 C2802 1.362 . S
C2802 H2794 0.930 . S
C2802 C2801 1.362 . S
C2802 C2805 1.409 . S
C2803 H2795 0.930 . S
C2803 C2804 1.355 . S
C2803 C2805 1.415 . S
C2804 C2803 1.355 . S
C2804 C2806 1.419 . S
C2805 C2800 1.425 . S
C2805 C2802 1.409 . S
C2805 C2803 1.415 . S
C2806 H2796 0.930 . S
C2806 C2804 1.419 . S
C2806 C2807 1.362 . S
C2807 H2797 0.930 . S
C2807 C2800 1.409 . S
C2807 C2806 1.362 . S
H2808 C2814 0.930 . S
H2809 C2817 0.930 . S
H2810 C2818 0.930 . S
H2811 C2819 0.930 . S
H2812 C2822 0.930 . S
H2813 C2823 0.930 . S
C2814 H2808 0.930 . S
C2814 C2815 1.355 . S
C2814 C2816 1.415 . S
C2815 C2814 1.355 . S
C2815 C2817 1.419 . S
C2816 C2814 1.415 . S
C2816 C2821 1.425 . S
C2816 C2823 1.409 . S
C2817 H2809 0.930 . S
C2817 C2815 1.419 . S
C2817 C2818 1.362 . S
C2818 H2810 0.930 . S
C2818 C2817 1.362 . S
C2818 C2821 1.409 . S
C2819 H2811 0.930 . S
C2819 C2820 1.355 . S
C2819 C2821 1.415 . S
C2820 C2819 1.355 . S
C2820 C2822 1.419 . S
C2821 C2816 1.425 . S
C2821 C2818 1.409 . S
C2821 C2819 1.415 . S
C2822 H2812 0.930 . S
C2822 C2820 1.419 . S
C2822 C2823 1.362 . S
C2823 H2813 0.930 . S
C2823 C2816 1.409 . S
C2823 C2822 1.362 . S
H2824 C2830 0.930 . S
H2825 C2833 0.930 . S
H2826 C2834 0.930 . S
H2827 C2835 0.930 . S
H2828 C2838 0.930 . S
H2829 C2839 0.930 . S
C2830 H2824 0.930 . S
C2830 C2831 1.355 . S
C2830 C2832 1.415 . S
C2831 C2830 1.355 . S
C2831 C2833 1.419 . S
C2832 C2830 1.415 . S
C2832 C2837 1.425 . S
C2832 C2839 1.409 . S
C2833 H2825 0.930 . S
C2833 C2831 1.419 . S
C2833 C2834 1.362 . S
C2834 H2826 0.930 . S
C2834 C2833 1.362 . S
C2834 C2837 1.409 . S
C2835 H2827 0.930 . S
C2835 C2836 1.355 . S
C2835 C2837 1.415 . S
C2836 C2835 1.355 . S
C2836 C2838 1.419 . S
C2837 C2832 1.425 . S
C2837 C2834 1.409 . S
C2837 C2835 1.415 . S
C2838 H2828 0.930 . S
C2838 C2836 1.419 . S
C2838 C2839 1.362 . S
C2839 H2829 0.930 . S
C2839 C2832 1.409 . S
C2839 C2838 1.362 . S
H2840 C2846 0.930 . S
H2841 C2849 0.930 . S
H2842 C2850 0.930 . S
H2843 C2851 0.930 . S
H2844 C2854 0.930 . S
H2845 C2855 0.930 . S
C2846 H2840 0.930 . S
C2846 C2847 1.355 . S
C2846 C2848 1.415 . S
C2847 C2846 1.355 . S
C2847 C2849 1.419 . S
C2848 C2846 1.415 . S
C2848 C2853 1.425 . S
C2848 C2855 1.409 . S
C2849 H2841 0.930 . S
C2849 C2847 1.419 . S
C2849 C2850 1.362 . S
C2850 H2842 0.930 . S
C2850 C2849 1.362 . S
C2850 C2853 1.409 . S
C2851 H2843 0.930 . S
C2851 C2852 1.355 . S
C2851 C2853 1.415 . S
C2852 C2851 1.355 . S
C2852 C2854 1.419 . S
C2853 C2848 1.425 . S
C2853 C2850 1.409 . S
C2853 C2851 1.415 . S
C2854 H2844 0.930 . S
C2854 C2852 1.419 . S
C2854 C2855 1.362 . S
C2855 H2845 0.930 . S
C2855 C2848 1.409 . S
C2855 C2854 1.362 . S
H2856 C2862 0.930 . S
H2857 C2865 0.930 . S
H2858 C2866 0.930 . S
H2859 C2867 0.930 . S
H2860 C2870 0.930 . S
H2861 C2871 0.930 . S
C2862 H2856 0.930 . S
C2862 C2863 1.355 . S
C2862 C2864 1.415 . S
C2863 C2862 1.355 . S
C2863 C2865 1.419 . S
C2864 C2862 1.415 . S
C2864 C2869 1.425 . S
C2864 C2871 1.409 . S
C2865 H2857 0.930 . S
C2865 C2863 1.419 . S
C2865 C2866 1.362 . S
C2866 H2858 0.930 . S
C2866 C2865 1.362 . S
C2866 C2869 1.409 . S
C2867 H2859 0.930 . S
C2867 C2868 1.355 . S
C2867 C2869 1.415 . S
C2868 C2867 1.355 . S
C2868 C2870 1.419 . S
C2869 C2864 1.425 . S
C2869 C2866 1.409 . S
C2869 C2867 1.415 . S
C2870 H2860 0.930 . S
C2870 C2868 1.419 . S
C2870 C2871 1.362 . S
C2871 H2861 0.930 . S
C2871 C2864 1.409 . S
C2871 C2870 1.362 . S
H2872 C2878 0.930 . S
H2873 C2881 0.930 . S
H2874 C2882 0.930 . S
H2875 C2883 0.930 . S
H2876 C2886 0.930 . S
H2877 C2887 0.930 . S
C2878 H2872 0.930 . S
C2878 C2879 1.355 . S
C2878 C2880 1.415 . S
C2879 C2878 1.355 . S
C2879 C2881 1.419 . S
C2880 C2878 1.415 . S
C2880 C2885 1.425 . S
C2880 C2887 1.409 . S
C2881 H2873 0.930 . S
C2881 C2879 1.419 . S
C2881 C2882 1.362 . S
C2882 H2874 0.930 . S
C2882 C2881 1.362 . S
C2882 C2885 1.409 . S
C2883 H2875 0.930 . S
C2883 C2884 1.355 . S
C2883 C2885 1.415 . S
C2884 C2883 1.355 . S
C2884 C2886 1.419 . S
C2885 C2880 1.425 . S
C2885 C2882 1.409 . S
C2885 C2883 1.415 . S
C2886 H2876 0.930 . S
C2886 C2884 1.419 . S
C2886 C2887 1.362 . S
C2887 H2877 0.930 . S
C2887 C2880 1.409 . S
C2887 C2886 1.362 . S
H2888 C2894 0.930 . S
H2889 C2897 0.930 . S
H2890 C2898 0.930 . S
H2891 C2899 0.930 . S
H2892 C2902 0.930 . S
H2893 C2903 0.930 . S
C2894 H2888 0.930 . S
C2894 C2895 1.355 . S
C2894 C2896 1.415 . S
C2895 C2894 1.355 . S
C2895 C2897 1.419 . S
C2896 C2894 1.415 . S
C2896 C2901 1.425 . S
C2896 C2903 1.409 . S
C2897 H2889 0.930 . S
C2897 C2895 1.419 . S
C2897 C2898 1.362 . S
C2898 H2890 0.930 . S
C2898 C2897 1.362 . S
C2898 C2901 1.409 . S
C2899 H2891 0.930 . S
C2899 C2900 1.355 . S
C2899 C2901 1.415 . S
C2900 C2899 1.355 . S
C2900 C2902 1.419 . S
C2901 C2896 1.425 . S
C2901 C2898 1.409 . S
C2901 C2899 1.415 . S
C2902 H2892 0.930 . S
C2902 C2900 1.419 . S
C2902 C2903 1.362 . S
C2903 H2893 0.930 . S
C2903 C2896 1.409 . S
C2903 C2902 1.362 . S
H2904 C2910 0.930 . S
H2905 C2913 0.930 . S
H2906 C2914 0.930 . S
H2907 C2915 0.930 . S
H2908 C2918 0.930 . S
H2909 C2919 0.930 . S
C2910 H2904 0.930 . S
C2910 C2911 1.355 . S
C2910 C2912 1.415 . S
C2911 C2910 1.355 . S
C2911 C2913 1.419 . S
C2912 C2910 1.415 . S
C2912 C2917 1.425 . S
C2912 C2919 1.409 . S
C2913 H2905 0.930 . S
C2913 C2911 1.419 . S
C2913 C2914 1.362 . S
C2914 H2906 0.930 . S
C2914 C2913 1.362 . S
C2914 C2917 1.409 . S
C2915 H2907 0.930 . S
C2915 C2916 1.355 . S
C2915 C2917 1.415 . S
C2916 C2915 1.355 . S
C2916 C2918 1.419 . S
C2917 C2912 1.425 . S
C2917 C2914 1.409 . S
C2917 C2915 1.415 . S
C2918 H2908 0.930 . S
C2918 C2916 1.419 . S
C2918 C2919 1.362 . S
C2919 H2909 0.930 . S
C2919 C2912 1.409 . S
C2919 C2918 1.362 . S
H2920 C2926 0.930 . S
H2921 C2929 0.930 . S
H2922 C2930 0.930 . S
H2923 C2931 0.930 . S
H2924 C2934 0.930 . S
H2925 C2935 0.930 . S
C2926 H2920 0.930 . S
C2926 C2927 1.355 . S
C2926 C2928 1.415 . S
C2927 C2926 1.355 . S
C2927 C2929 1.419 . S
C2928 C2926 1.415 . S
C2928 C2933 1.425 . S
C2928 C2935 1.409 . S
C2929 H2921 0.930 . S
C2929 C2927 1.419 . S
C2929 C2930 1.362 . S
C2930 H2922 0.930 . S
C2930 C2929 1.362 . S
C2930 C2933 1.409 . S
C2931 H2923 0.930 . S
C2931 C2932 1.355 . S
C2931 C2933 1.415 . S
C2932 C2931 1.355 . S
C2932 C2934 1.419 . S
C2933 C2928 1.425 . S
C2933 C2930 1.409 . S
C2933 C2931 1.415 . S
C2934 H2924 0.930 . S
C2934 C2932 1.419 . S
C2934 C2935 1.362 . S
C2935 H2925 0.930 . S
C2935 C2928 1.409 . S
C2935 C2934 1.362 . S
H2936 C2942 0.930 . S
H2937 C2945 0.930 . S
H2938 C2946 0.930 . S
H2939 C2947 0.930 . S
H2940 C2950 0.930 . S
H2941 C2951 0.930 . S
C2942 H2936 0.930 . S
C2942 C2943 1.355 . S
C2942 C2944 1.415 . S
C2943 C2942 1.355 . S
C2943 C2945 1.419 . S
C2944 C2942 1.415 . S
C2944 C2949 1.425 . S
C2944 C2951 1.409 . S
C2945 H2937 0.930 . S
C2945 C2943 1.419 . S
C2945 C2946 1.362 . S
C2946 H2938 0.930 . S
C2946 C2945 1.362 . S
C2946 C2949 1.409 . S
C2947 H2939 0.930 . S
C2947 C2948 1.355 . S
C2947 C2949 1.415 . S
C2948 C2947 1.355 . S
C2948 C2950 1.419 . S
C2949 C2944 1.425 . S
C2949 C2946 1.409 . S
C2949 C2947 1.415 . S
C2950 H2940 0.930 . S
C2950 C2948 1.419 . S
C2950 C2951 1.362 . S
C2951 H2941 0.930 . S
C2951 C2944 1.409 . S
C2951 C2950 1.362 . S
H2952 C2958 0.930 . S
H2953 C2961 0.930 . S
H2954 C2962 0.930 . S
H2955 C2963 0.930 . S
H2956 C2966 0.930 . S
H2957 C2967 0.930 . S
C2958 H2952 0.930 . S
C2958 C2959 1.355 . S
C2958 C2960 1.415 . S
C2959 C2958 1.355 . S
C2959 C2961 1.419 . S
C2960 C2958 1.415 . S
C2960 C2965 1.425 . S
C2960 C2967 1.409 . S
C2961 H2953 0.930 . S
C2961 C2959 1.419 . S
C2961 C2962 1.362 . S
C2962 H2954 0.930 . S
C2962 C2961 1.362 . S
C2962 C2965 1.409 . S
C2963 H2955 0.930 . S
C2963 C2964 1.355 . S
C2963 C2965 1.415 . S
C2964 C2963 1.355 . S
C2964 C2966 1.419 . S
C2965 C2960 1.425 . S
C2965 C2962 1.409 . S
C2965 C2963 1.415 . S
C2966 H2956 0.930 . S
C2966 C2964 1.419 . S
C2966 C2967 1.362 . S
C2967 H2957 0.930 . S
C2967 C2960 1.409 . S
C2967 C2966 1.362 . S
H2968 C2974 0.930 . S
H2969 C2977 0.930 . S
H2970 C2978 0.930 . S
H2971 C2979 0.930 . S
H2972 C2982 0.930 . S
H2973 C2983 0.930 . S
C2974 H2968 0.930 . S
C2974 C2975 1.355 . S
C2974 C2976 1.415 . S
C2975 C2974 1.355 . S
C2975 C2977 1.419 . S
C2976 C2974 1.415 . S
C2976 C2981 1.425 . S
C2976 C2983 1.409 . S
C2977 H2969 0.930 . S
C2977 C2975 1.419 . S
C2977 C2978 1.362 . S
C2978 H2970 0.930 . S
C2978 C2977 1.362 . S
C2978 C2981 1.409 . S
C2979 H2971 0.930 . S
C2979 C2980 1.355 . S
C2979 C2981 1.415 . S
C2980 C2979 1.355 . S
C2980 C2982 1.419 . S
C2981 C2976 1.425 . S
C2981 C2978 1.409 . S
C2981 C2979 1.415 . S
C2982 H2972 0.930 . S
C2982 C2980 1.419 . S
C2982 C2983 1.362 . S
C2983 H2973 0.930 . S
C2983 C2976 1.409 . S
C2983 C2982 1.362 . S
H2984 C2990 0.930 . S
H2985 C2993 0.930 . S
H2986 C2994 0.930 . S
H2987 C2995 0.930 . S
H2988 C2998 0.930 . S
H2989 C2999 0.930 . S
C2990 H2984 0.930 . S
C2990 C2991 1.355 . S
C2990 C2992 1.415 . S
C2991 C2990 1.355 . S
C2991 C2993 1.419 . S
C2992 C2990 1.415 . S
C2992 C2997 1.425 . S
C2992 C2999 1.409 . S
C2993 H2985 0.930 . S
C2993 C2991 1.419 . S
C2993 C2994 1.362 . S
C2994 H2986 0.930 . S
C2994 C2993 1.362 . S
C2994 C2997 1.409 . S
C2995 H2987 0.930 . S
C2995 C2996 1.355 . S
C2995 C2997 1.415 . S
C2996 C2995 1.355 . S
C2996 C2998 1.419 . S
C2997 C2992 1.425 . S
C2997 C2994 1.409 . S
C2997 C2995 1.415 . S
C2998 H2988 0.930 . S
C2998 C2996 1.419 . S
C2998 C2999 1.362 . S
C2999 H2989 0.930 . S
C2999 C2992 1.409 . S
C2999 C2998 1.362 . S
H3000 C3006 0.930 . S
H3001 C3009 0.930 . S
H3002 C3010 0.930 . S
H3003 C3011 0.930 . S
H3004 C3014 0.930 . S
H3005 C3015 0.930 . S
C3006 H3000 0.930 . S
C3006 C3007 1.355 . S
C3006 C3008 1.415 . S
C3007 C3006 1.355 . S
C3007 C3009 1.419 . S
C3008 C3006 1.415 . S
C3008 C3013 1.425 . S
C3008 C3015 1.409 . S
C3009 H3001 0.930 . S
C3009 C3007 1.419 . S
C3009 C3010 1.362 . S
C3010 H3002 0.930 . S
C3010 C3009 1.362 . S
C3010 C3013 1.409 . S
C3011 H3003 0.930 . S
C3011 C3012 1.355 . S
C3011 C3013 1.415 . S
C3012 C3011 1.355 . S
C3012 C3014 1.419 . S
C3013 C3008 1.425 . S
C3013 C3010 1.409 . S
C3013 C3011 1.415 . S
C3014 H3004 0.930 . S
C3014 C3012 1.419 . S
C3014 C3015 1.362 . S
C3015 H3005 0.930 . S
C3015 C3008 1.409 . S
C3015 C3014 1.362 . S
H3016 C3022 0.930 . S
H3017 C3025 0.930 . S
H3018 C3026 0.930 . S
H3019 C3027 0.930 . S
H3020 C3030 0.930 . S
H3021 C3031 0.930 . S
C3022 H3016 0.930 . S
C3022 C3023 1.355 . S
C3022 C3024 1.415 . S
C3023 C3022 1.355 . S
C3023 C3025 1.419 . S
C3024 C3022 1.415 . S
C3024 C3029 1.425 . S
C3024 C3031 1.409 . S
C3025 H3017 0.930 . S
C3025 C3023 1.419 . S
C3025 C3026 1.362 . S
C3026 H3018 0.930 . S
C3026 C3025 1.362 . S
C3026 C3029 1.409 . S
C3027 H3019 0.930 . S
C3027 C3028 1.355 . S
C3027 C3029 1.415 . S
C3028 C3027 1.355 . S
C3028 C3030 1.419 . S
C3029 C3024 1.425 . S
C3029 C3026 1.409 . S
C3029 C3027 1.415 . S
C3030 H3020 0.930 . S
C3030 C3028 1.419 . S
C3030 C3031 1.362 . S
C3031 H3021 0.930 . S
C3031 C3024 1.409 . S
C3031 C3030 1.362 . S
H3032 C3038 0.930 . S
H3033 C3041 0.930 . S
H3034 C3042 0.930 . S
H3035 C3043 0.930 . S
H3036 C3046 0.930 . S
H3037 C3047 0.930 . S
C3038 H3032 0.930 . S
C3038 C3039 1.355 . S
C3038 C3040 1.415 . S
C3039 C3038 1.355 . S
C3039 C3041 1.419 . S
C3040 C3038 1.415 . S
C3040 C3045 1.425 . S
C3040 C3047 1.409 . S
C3041 H3033 0.930 . S
C3041 C3039 1.419 . S
C3041 C3042 1.362 . S
C3042 H3034 0.930 . S
C3042 C3041 1.362 . S
C3042 C3045 1.409 . S
C3043 H3035 0.930 . S
C3043 C3044 1.355 . S
C3043 C3045 1.415 . S
C3044 C3043 1.355 . S
C3044 C3046 1.419 . S
C3045 C3040 1.425 . S
C3045 C3042 1.409 . S
C3045 C3043 1.415 . S
C3046 H3036 0.930 . S
C3046 C3044 1.419 . S
C3046 C3047 1.362 . S
C3047 H3037 0.930 . S
C3047 C3040 1.409 . S
C3047 C3046 1.362 . S
H3048 C3054 0.930 . S
H3049 C3057 0.930 . S
H3050 C3058 0.930 . S
H3051 C3059 0.930 . S
H3052 C3062 0.930 . S
H3053 C3063 0.930 . S
C3054 H3048 0.930 . S
C3054 C3055 1.355 . S
C3054 C3056 1.415 . S
C3055 C3054 1.355 . S
C3055 C3057 1.419 . S
C3056 C3054 1.415 . S
C3056 C3061 1.425 . S
C3056 C3063 1.409 . S
C3057 H3049 0.930 . S
C3057 C3055 1.419 . S
C3057 C3058 1.362 . S
C3058 H3050 0.930 . S
C3058 C3057 1.362 . S
C3058 C3061 1.409 . S
C3059 H3051 0.930 . S
C3059 C3060 1.355 . S
C3059 C3061 1.415 . S
C3060 C3059 1.355 . S
C3060 C3062 1.419 . S
C3061 C3056 1.425 . S
C3061 C3058 1.409 . S
C3061 C3059 1.415 . S
C3062 H3052 0.930 . S
C3062 C3060 1.419 . S
C3062 C3063 1.362 . S
C3063 H3053 0.930 . S
C3063 C3056 1.409 . S
C3063 C3062 1.362 . S
H3064 C3070 0.930 . S
H3065 C3073 0.930 . S
H3066 C3074 0.930 . S
H3067 C3075 0.930 . S
H3068 C3078 0.930 . S
H3069 C3079 0.930 . S
C3070 H3064 0.930 . S
C3070 C3071 1.355 . S
C3070 C3072 1.415 . S
C3071 C3070 1.355 . S
C3071 C3073 1.419 . S
C3072 C3070 1.415 . S
C3072 C3077 1.425 . S
C3072 C3079 1.409 . S
C3073 H3065 0.930 . S
C3073 C3071 1.419 . S
C3073 C3074 1.362 . S
C3074 H3066 0.930 . S
C3074 C3073 1.362 . S
C3074 C3077 1.409 . S
C3075 H3067 0.930 . S
C3075 C3076 1.355 . S
C3075 C3077 1.415 . S
C3076 C3075 1.355 . S
C3076 C3078 1.419 . S
C3077 C3072 1.425 . S
C3077 C3074 1.409 . S
C3077 C3075 1.415 . S
C3078 H3068 0.930 . S
C3078 C3076 1.419 . S
C3078 C3079 1.362 . S
C3079 H3069 0.930 . S
C3079 C3072 1.409 . S
C3079 C3078 1.362 . S
H3080 C3086 0.930 . S
H3081 C3089 0.930 . S
H3082 C3090 0.930 . S
H3083 C3091 0.930 . S
H3084 C3094 0.930 . S
H3085 C3095 0.930 . S
C3086 H3080 0.930 . S
C3086 C3087 1.355 . S
C3086 C3088 1.415 . S
C3087 C3086 1.355 . S
C3087 C3089 1.419 . S
C3088 C3086 1.415 . S
C3088 C3093 1.425 . S
C3088 C3095 1.409 . S
C3089 H3081 0.930 . S
C3089 C3087 1.419 . S
C3089 C3090 1.362 . S
C3090 H3082 0.930 . S
C3090 C3089 1.362 . S
C3090 C3093 1.409 . S
C3091 H3083 0.930 . S
C3091 C3092 1.355 . S
C3091 C3093 1.415 . S
C3092 C3091 1.355 . S
C3092 C3094 1.419 . S
C3093 C3088 1.425 . S
C3093 C3090 1.409 . S
C3093 C3091 1.415 . S
C3094 H3084 0.930 . S
C3094 C3092 1.419 . S
C3094 C3095 1.362 . S
C3095 H3085 0.930 . S
C3095 C3088 1.409 . S
C3095 C3094 1.362 . S
H3096 C3102 0.930 . S
H3097 C3105 0.930 . S
H3098 C3106 0.930 . S
H3099 C3107 0.930 . S
H3100 C3110 0.930 . S
H3101 C3111 0.930 . S
C3102 H3096 0.930 . S
C3102 C3103 1.355 . S
C3102 C3104 1.415 . S
C3103 C3102 1.355 . S
C3103 C3105 1.419 . S
C3104 C3102 1.415 . S
C3104 C3109 1.425 . S
C3104 C3111 1.409 . S
C3105 H3097 0.930 . S
C3105 C3103 1.419 . S
C3105 C3106 1.362 . S
C3106 H3098 0.930 . S
C3106 C3105 1.362 . S
C3106 C3109 1.409 . S
C3107 H3099 0.930 . S
C3107 C3108 1.355 . S
C3107 C3109 1.415 . S
C3108 C3107 1.355 . S
C3108 C3110 1.419 . S
C3109 C3104 1.425 . S
C3109 C3106 1.409 . S
C3109 C3107 1.415 . S
C3110 H3100 0.930 . S
C3110 C3108 1.419 . S
C3110 C3111 1.362 . S
C3111 H3101 0.930 . S
C3111 C3104 1.409 . S
C3111 C3110 1.362 . S
C1588 N1036 1.479 . S
C1583 C29 1.480 . S
C1604 C1063 1.598 . S
C1599 C61 1.607 . S
C1615 C93 1.490 . S
C1620 C1077 1.540 . S
C1636 N1095 1.466 . S
C1631 C119 1.443 . S
C1647 C157 1.535 . S
C1652 C1100 1.601 . S
C1663 C177 1.489 . S
C1668 C1040 1.513 . S
C1679 C221 1.424 . S
C1684 N1059 1.417 . S
C1700 N1072 1.471 . S
C1695 C253 1.506 . S
C1716 N1118 1.418 . S
C1711 C17 1.407 . S
C1727 C55 1.478 . S
C1732 N1141 1.456 . S
C1743 C87 1.512 . S
C1748 N1164 1.540 . S
C1764 N1197 1.441 . S
C1759 C113 1.424 . S
C1775 C145 1.502 . S
C1780 C1224 1.506 . S
C1796 C1247 1.539 . S
C1791 C183 1.491 . S
C1807 C215 1.491 . S
C1812 C1270 1.497 . S
C1828 C1284 1.394 . S
C1823 C247 1.407 . S
C1839 C23 1.353 . S
C1844 C1201 1.420 . S
C1855 C151 1.430 . S
C1860 N1243 1.432 . S
C1876 N1266 1.421 . S
C1871 C189 1.425 . S
C1887 C209 1.475 . S
C1892 N1279 1.400 . S
C1908 N1220 1.403 . S
C1903 C241 1.485 . S
C1924 C1146 1.653 . S
C1919 C81 1.617 . S
C1935 C125 1.513 . S
C1940 C1169 1.526 . S
C1956 C1123 1.603 . S
C1951 C49 1.557 . S
C1972 C1316 1.515 . S
C1967 C285 1.482 . S
C1983 C317 1.612 . S
C1988 C1330 1.609 . S
C1999 C349 1.509 . S
C2004 N1358 1.470 . S
C2020 N1371 1.408 . S
C2015 C375 1.446 . S
C2031 C413 1.570 . S
C2036 C1376 1.621 . S
C2047 C433 1.495 . S
C2052 N1312 1.472 . S
C2063 C477 1.497 . S
C2068 N1325 1.501 . S
C2079 C509 1.484 . S
C2084 C1362 1.459 . S
C2100 N1210 1.431 . S
C2095 C273 1.421 . S
C2111 C311 1.450 . S
C2116 N1394 1.459 . S
C2132 N1256 1.403 . S
C2127 C343 1.467 . S
C2143 C369 1.489 . S
C2148 C1431 1.505 . S
C2159 C401 1.491 . S
C2164 C1132 1.540 . S
C2180 C1445 1.579 . S
C2175 C439 1.551 . S
C2191 C471 1.533 . S
C2196 C1178 1.509 . S
C2212 N1463 1.356 . S
C2207 C503 1.382 . S
C2223 C279 1.436 . S
C2228 N1427 1.437 . S
C2244 N1440 1.443 . S
C2239 C407 1.419 . S
C2255 C445 1.424 . S
C2260 N1174 1.432 . S
C2276 C1468 1.444 . S
C2271 C465 1.408 . S
C2287 C497 1.454 . S
C2292 N1128 1.381 . S
C2303 C337 1.519 . S
C2308 C1399 1.559 . S
C2319 C381 1.579 . S
C2324 C1261 1.563 . S
C2335 C305 1.590 . S
C2340 C1215 1.591 . S
C2351 C541 1.535 . S
C2356 C1353 1.571 . S
C2372 C1385 1.543 . S
C2367 C573 1.557 . S
C2383 C605 1.488 . S
C2388 N1302 1.476 . S
C2399 C631 1.451 . S
C2404 N1335 1.380 . S
C2415 C669 1.559 . S
C2420 C1339 1.626 . S
C2431 C689 1.537 . S
C2436 N1348 1.519 . S
C2452 N1381 1.400 . S
C2447 C733 1.400 . S
C2463 C765 1.512 . S
C2468 C1307 1.520 . S
C2484 N1496 1.399 . S
C2479 C529 1.416 . S
C2495 C567 1.430 . S
C2500 N1233 1.369 . S
C2516 N1519 1.403 . S
C2511 C599 1.391 . S
C2527 C625 1.467 . S
C2532 N1289 1.412 . S
C2543 C657 1.487 . S
C2548 C1537 1.527 . S
C2559 C695 1.620 . S
C2564 C1155 1.639 . S
C2580 N1555 1.349 . S
C2575 C727 1.424 . S
C2591 C759 1.457 . S
C2596 C1192 1.441 . S
C2612 C1293 1.478 . S
C2607 C535 1.438 . S
C2628 N1151 1.457 . S
C2623 C663 1.471 . S
C2639 C701 1.570 . S
C2644 C1560 1.592 . S
C2655 C721 1.412 . S
C2660 N1187 1.330 . S
C2676 N1532 1.465 . S
C2671 C753 1.525 . S
C2692 C1238 1.546 . S
C2687 C593 1.554 . S
C2708 C1523 1.575 . S
C2703 C637 1.582 . S
C2724 C1500 1.559 . S
C2719 C561 1.563 . S
C2735 C797 1.416 . S
C2740 N1082 1.419 . S
C2751 C829 1.564 . S
C2756 C1109 1.558 . S
C2772 C1031 1.557 . S
C2767 C861 1.550 . S
C2788 N1049 1.356 . S
C2783 C887 1.404 . S
C2804 C1054 1.611 . S
C2799 C925 1.557 . S
C2820 C1086 1.526 . S
C2815 C945 1.514 . S
C2836 N1105 1.456 . S
C2831 C989 1.536 . S
C2847 C1021 1.537 . S
C2852 N1026 1.471 . S
C2863 C785 1.322 . S
C2868 N1542 1.333 . S
C2884 N1450 1.450 . S
C2879 C823 1.416 . S
C2900 C1569 1.578 . S
C2895 C855 1.530 . S
C2916 C1477 1.398 . S
C2911 C881 1.355 . S
C2927 C913 1.540 . S
C2932 C1491 1.555 . S
C2948 C1408 1.560 . S
C2943 C951 1.507 . S
C2964 C1514 1.638 . S
C2959 C983 1.621 . S
C2975 C1015 1.431 . S
C2980 N1417 1.442 . S
C2996 N1473 1.357 . S
C2991 C791 1.354 . S
C3012 N1404 1.400 . S
C3007 C919 1.400 . S
C3028 N1509 1.418 . S
C3023 C957 1.431 . S
C3039 C977 1.478 . S
C3044 C1422 1.511 . S
C3055 C1009 1.436 . S
C3060 N1486 1.459 . S
C3071 C849 1.638 . S
C3076 C1454 1.648 . S
C3087 C893 1.453 . S
C3092 N1565 1.375 . S
C3108 C1546 1.532 . S
C3103 C817 1.542 . S
