# Generated by pormake.
# Topology anh, (6,3)-cn, num edge types: 1
# Building blocks:
#     Node 0, Type 0, BuildingBlock: CUKXOW_clean_sbu_0, # of connection points: 6
#     Node 1, Type 0, BuildingBlock: CUKXOW_clean_sbu_0, # of connection points: 6
#     Node 2, Type 0, BuildingBlock: CUKXOW_clean_sbu_0, # of connection points: 6
#     Node 3, Type 1, BuildingBlock: ESEHIV_clean_linker_0, # of connection points: 3
#     Node 4, Type 1, BuildingBlock: ESEHIV_clean_linker_0, # of connection points: 3
#     Node 5, Type 1, BuildingBlock: ESEHIV_clean_linker_0, # of connection points: 3
#     Node 6, Type 1, BuildingBlock: ESEHIV_clean_linker_0, # of connection points: 3
#     Node 7, Type 1, BuildingBlock: ESEHIV_clean_linker_0, # of connection points: 3
#     Node 8, Type 1, BuildingBlock: ESEHIV_clean_linker_0, # of connection points: 3
#     Edge 9, Type (0, 1), BuildingBlock: UVAHIK_clean_linker_0, # of connection points: 2
#     Edge 10, Type (0, 1), BuildingBlock: UVAHIK_clean_linker_0, # of connection points: 2
#     Edge 11, Type (0, 1), BuildingBlock: UVAHIK_clean_linker_0, # of connection points: 2
#     Edge 12, Type (0, 1), BuildingBlock: UVAHIK_clean_linker_0, # of connection points: 2
#     Edge 13, Type (0, 1), BuildingBlock: UVAHIK_clean_linker_0, # of connection points: 2
#     Edge 14, Type (0, 1), BuildingBlock: UVAHIK_clean_linker_0, # of connection points: 2
#     Edge 15, Type (0, 1), BuildingBlock: UVAHIK_clean_linker_0, # of connection points: 2
#     Edge 16, Type (0, 1), BuildingBlock: UVAHIK_clean_linker_0, # of connection points: 2
#     Edge 17, Type (0, 1), BuildingBlock: UVAHIK_clean_linker_0, # of connection points: 2
#     Edge 18, Type (0, 1), BuildingBlock: UVAHIK_clean_linker_0, # of connection points: 2
#     Edge 19, Type (0, 1), BuildingBlock: UVAHIK_clean_linker_0, # of connection points: 2
#     Edge 20, Type (0, 1), BuildingBlock: UVAHIK_clean_linker_0, # of connection points: 2
#     Edge 21, Type (0, 1), BuildingBlock: UVAHIK_clean_linker_0, # of connection points: 2
#     Edge 22, Type (0, 1), BuildingBlock: UVAHIK_clean_linker_0, # of connection points: 2
#     Edge 23, Type (0, 1), BuildingBlock: UVAHIK_clean_linker_0, # of connection points: 2
#     Edge 24, Type (0, 1), BuildingBlock: UVAHIK_clean_linker_0, # of connection points: 2
#     Edge 25, Type (0, 1), BuildingBlock: UVAHIK_clean_linker_0, # of connection points: 2
#     Edge 26, Type (0, 1), BuildingBlock: UVAHIK_clean_linker_0, # of connection points: 2
# Relax obj value: 0.134
# Max RMSD: 0.194
# Mean RMSD: 0.139
data_MOF--net-anh--node1-CUKXOW_clean_sbu_0--node2-ESEHIV_clean_linker_0--edge1-UVAHIK_clean_linker_0
_symmetry_space_group_name_H-M    P1
_symmetry_Int_Tables_number       1
_symmetry_cell_setting            triclinic
loop_
_symmetry_equiv_pos_as_xyz
'x, y, z'
_cell_length_a     35.542696
_cell_length_b     34.529919
_cell_length_c     66.352109
_cell_angle_alpha  95.605563
_cell_angle_beta   90.021618
_cell_angle_gamma 114.56753
loop_
_atom_site_label
_atom_site_type_symbol
_atom_site_fract_x
_atom_site_fract_y
_atom_site_fract_z
_atom_type_partial_charge
Tb0 Tb 0.07058 0.53291 0.15025 0.0
C1 C 0.02872 0.48774 0.18829 0.0
Tb2 Tb 1.00997 0.43585 0.14392 0.0
O3 O 0.02369 0.5598 0.14989 0.0
O4 O 1.00672 0.49524 0.14601 0.0
O5 O 0.05753 0.52232 0.18157 0.0
C6 C 0.94462 0.36058 0.14311 0.0
O7 O 1.00568 0.45235 0.17632 0.0
C8 C 0.08952 0.45251 0.1409 0.0
C9 C 0.0455 0.48425 0.1063 0.0
O10 O 0.97894 0.37174 0.15372 0.0
O11 O 0.94739 0.39159 0.13275 0.0
O12 O 0.05918 0.4184 0.13227 0.0
O13 O 0.07408 0.47306 0.15241 0.0
O14 O 0.01293 0.4532 0.11318 0.0
O15 O 0.07521 0.51415 0.11844 0.0
C16 C 0.14079 0.6039 0.15602 0.0
O17 O 0.11318 0.5954 0.14148 0.0
O18 O 0.12866 0.57268 0.16731 0.0
C19 C 0.99199 0.52281 0.14686 0.0
Tb20 Tb 0.49778 -0.00089 0.50042 0.0
C21 C 0.53956 0.03712 0.46134 0.0
Tb22 Tb 0.58703 0.06837 0.50463 0.0
O23 O 0.475 0.04535 0.49152 0.0
O24 O 0.52756 0.06507 0.51081 0.0
O25 O 0.51107 0.00312 0.46862 0.0
C26 C 0.65649 0.13958 0.50397 0.0
O27 O 0.56869 0.06874 0.47311 0.0
C28 C 0.57891 0.98944 0.50417 0.0
C29 C 0.54511 0.03121 0.54394 0.0
O30 O 0.65079 0.10192 0.49557 0.0
O31 O 0.62321 0.13709 0.51285 0.0
O32 O 0.60934 0.02204 0.51374 0.0
O33 O 0.55725 0.00251 0.49417 0.0
O34 O 0.5745 0.06443 0.53652 0.0
O35 O 0.5149 0.00025 0.53233 0.0
C36 C 0.42978 0.92589 0.49919 0.0
O37 O 0.432 0.96338 0.50597 0.0
O38 O 0.46574 0.92976 0.49319 0.0
C39 C 0.50566 0.07804 0.50091 0.0
Tb40 Tb 0.52267 0.53843 0.82594 0.0
C41 C 0.56025 0.53039 0.86665 0.0
Tb42 Tb 0.60844 0.53871 0.82558 0.0
O43 O 0.49356 0.4708 0.83163 0.0
O44 O 0.54788 0.49484 0.81571 0.0
O45 O 0.53499 0.54458 0.85838 0.0
C46 C 0.67174 0.5169 0.8268 0.0
O47 O 0.58744 0.52075 0.85589 0.0
C48 C 0.60692 0.61426 0.82773 0.0
C49 C 0.56912 0.54337 0.78418 0.0
O50 O 0.66977 0.54939 0.83762 0.0
O51 O 0.63831 0.49697 0.81545 0.0
O52 O 0.63594 0.60587 0.81915 0.0
O53 O 0.58312 0.58212 0.83597 0.0
O54 O 0.59925 0.5372 0.79311 0.0
O55 O 0.53777 0.54598 0.79418 0.0
C56 C 0.4663 0.5688 0.8206 0.0
O57 O 0.45788 0.52923 0.82319 0.0
O58 O 0.50593 0.5909 0.82152 0.0
C59 C 0.5233 0.46258 0.82367 0.0
H60 H 0.49036 0.96417 0.24226 0.0
H61 H 0.60561 0.07494 0.24104 0.0
H62 H 0.54352 0.00067 0.18525 0.0
C63 C 0.51532 0.98544 0.23386 0.0
C64 C 0.51371 0.9777 0.21267 0.0
C65 C 0.54827 0.02031 0.24431 0.0
C66 C 0.57941 0.04854 0.23312 0.0
C67 C 0.57788 0.04196 0.2118 0.0
C68 C 0.54484 0.00633 0.20164 0.0
H69 H 0.54151 0.60363 0.56706 0.0
H70 H 0.55931 0.48781 0.56337 0.0
H71 H 0.53882 0.53536 0.50869 0.0
C72 C 0.54317 0.57652 0.55802 0.0
C73 C 0.53878 0.57303 0.53677 0.0
C74 C 0.5511 0.54625 0.5677 0.0
C75 C 0.55448 0.51206 0.55591 0.0
C76 C 0.55014 0.50777 0.53467 0.0
C77 C 0.54224 0.53842 0.52507 0.0
H78 H 0.01885 0.49708 0.88731 0.0
H79 H 0.14746 0.58123 0.89728 0.0
H80 H 0.08993 0.55329 0.83722 0.0
C81 C 0.04829 0.51674 0.88135 0.0
C82 C 0.0504 0.52307 0.86075 0.0
C83 C 0.08331 0.53702 0.89454 0.0
C84 C 0.1206 0.56495 0.887 0.0
C85 C 0.12362 0.57126 0.86631 0.0
C86 C 0.0882 0.54987 0.85328 0.0
H87 H 0.95504 0.47099 0.40932 0.0
H88 H 0.0752 0.5743 0.40645 0.0
H89 H 0.02572 0.53925 0.46431 0.0
C90 C 0.98259 0.49614 0.41691 0.0
C91 C 0.98645 0.50168 0.43822 0.0
C92 C 0.01421 0.52242 0.40528 0.0
C93 C 0.05019 0.55428 0.41523 0.0
C94 C 0.05444 0.56049 0.43646 0.0
C95 C 0.02237 0.53441 0.4479 0.0
H96 H 0.55754 0.08674 0.76448 0.0
H97 H 0.54771 0.95835 0.76132 0.0
H98 H 0.55285 0.02866 0.81953 0.0
C99 C 0.55589 0.05968 0.77207 0.0
C100 C 0.55604 0.06248 0.79332 0.0
C101 C 0.55265 0.02229 0.76045 0.0
C102 C 0.54916 0.98696 0.77029 0.0
C103 C 0.54926 0.98871 0.79158 0.0
C104 C 0.55266 0.02678 0.80314 0.0
H105 H 0.48147 0.48648 0.08306 0.0
H106 H 0.60741 0.50091 0.08582 0.0
H107 H 0.53831 0.48421 0.14011 0.0
C108 C 0.50816 0.48853 0.09178 0.0
C109 C 0.50515 0.48499 0.11271 0.0
C110 C 0.54473 0.49429 0.08191 0.0
C111 C 0.57887 0.49612 0.09324 0.0
C112 C 0.57707 0.49232 0.11413 0.0
C113 C 0.54008 0.48715 0.124 0.0
C114 C 0.14479 0.43129 0.12731 0.0
C115 C 0.13398 0.45942 0.1403 0.0
C116 C 0.18562 0.43511 0.12697 0.0
C117 C 0.29585 0.50938 0.14006 0.0
H118 H 0.31084 0.40395 0.13469 0.0
C119 C 0.4608 0.50911 0.13622 0.0
C120 C 0.46451 0.47841 0.12175 0.0
C121 C 0.42144 0.50709 0.14124 0.0
C122 C 0.30747 0.43383 0.136 0.0
H123 H 0.15845 0.51421 0.16301 0.0
H124 H 0.23025 0.52142 0.16226 0.0
H125 H 0.24161 0.40123 0.13754 0.0
H126 H 0.42967 0.42088 0.10176 0.0
H127 H 0.36184 0.41701 0.11045 0.0
H128 H 0.36188 0.54191 0.13812 0.0
C129 C 0.20684 0.49627 0.15227 0.0
C130 C 0.26748 0.43225 0.13765 0.0
C131 C 0.16562 0.4922 0.15271 0.0
C132 C 0.42796 0.44475 0.11314 0.0
C133 C 0.38887 0.44258 0.11819 0.0
C134 C 0.33603 0.51098 0.13831 0.0
C135 C 0.21737 0.46734 0.13956 0.0
C136 C 0.26081 0.46989 0.13934 0.0
C137 C 0.38477 0.47414 0.13201 0.0
C138 C 0.34247 0.47313 0.13588 0.0
H139 H 0.12144 0.4058 0.11742 0.0
H140 H 0.19233 0.41272 0.11666 0.0
H141 H 0.29216 0.5391 0.14124 0.0
H142 H 0.4883 0.53583 0.14289 0.0
H143 H 0.41981 0.53178 0.15211 0.0
C144 C 0.72581 0.17877 0.49027 0.0
C145 C 0.6935 0.17942 0.50221 0.0
C146 C 0.75954 0.2169 0.48729 0.0
C147 C 0.78827 0.33257 0.48812 0.0
H148 H 0.89818 0.33678 0.4813 0.0
C149 C 0.96436 0.45516 0.46667 0.0
C150 C 0.95373 0.47183 0.45017 0.0
C151 C 0.93374 0.42373 0.47659 0.0
C152 C 0.86789 0.33653 0.48349 0.0
H153 H 0.6714 0.21992 0.52095 0.0
H154 H 0.73082 0.28667 0.5161 0.0
H155 H 0.84381 0.27346 0.49281 0.0
H156 H 0.90242 0.47034 0.43191 0.0
H157 H 0.84924 0.41464 0.44871 0.0
H158 H 0.81246 0.39578 0.47893 0.0
C159 C 0.72983 0.25684 0.50873 0.0
C160 C 0.83653 0.29992 0.48982 0.0
C161 C 0.69596 0.21866 0.51162 0.0
C162 C 0.9117 0.45766 0.44436 0.0
C163 C 0.88114 0.42611 0.45419 0.0
C164 C 0.8197 0.3693 0.4819 0.0
C165 C 0.76175 0.25646 0.49629 0.0
C166 C 0.79612 0.2971 0.49177 0.0
C167 C 0.89184 0.40815 0.47018 0.0
C168 C 0.85966 0.37135 0.47907 0.0
H169 H 0.72452 0.14889 0.48278 0.0
H170 H 0.78319 0.21541 0.47736 0.0
H171 H 0.75745 0.33142 0.48932 0.0
H172 H 0.99647 0.46518 0.47146 0.0
H173 H 0.94301 0.41105 0.48904 0.0
C174 C 0.61882 0.68035 0.8114 0.0
C175 C 0.60132 0.65422 0.82686 0.0
C176 C 0.61155 0.71678 0.80971 0.0
C177 C 0.57989 0.79539 0.83776 0.0
H178 H 0.55164 0.81287 0.78398 0.0
C179 C 0.57777 0.95452 0.81575 0.0
C180 C 0.54754 0.95069 0.80108 0.0
C181 C 0.58119 0.91787 0.82137 0.0
C182 C 0.55911 0.80835 0.79916 0.0
H183 H 0.56398 0.64654 0.85322 0.0
H184 H 0.55138 0.71047 0.85035 0.0
H185 H 0.56478 0.75049 0.78868 0.0
H186 H 0.49499 0.9055 0.78215 0.0
H187 H 0.5006 0.84189 0.79204 0.0
H188 H 0.57429 0.85362 0.84816 0.0
C189 C 0.5706 0.70273 0.83948 0.0
C190 C 0.56713 0.77279 0.8018 0.0
C191 C 0.57761 0.66604 0.84106 0.0
C192 C 0.51898 0.90949 0.79328 0.0
C193 C 0.52236 0.87305 0.79886 0.0
C194 C 0.57221 0.83134 0.83508 0.0
C195 C 0.58702 0.72821 0.8236 0.0
C196 C 0.57782 0.76591 0.8211 0.0
C197 C 0.55441 0.87677 0.8124 0.0
C198 C 0.56168 0.83823 0.81572 0.0
H199 H 0.63735 0.67207 0.8003 0.0
H200 H 0.62515 0.73603 0.79747 0.0
H201 H 0.58821 0.79109 0.85282 0.0
H202 H 0.60038 0.98584 0.82192 0.0
H203 H 0.60626 0.92189 0.83183 0.0
C204 C 0.9143 0.47587 0.14321 0.0
C205 C 0.94774 0.51655 0.14531 0.0
C206 C 0.87309 0.47157 0.14151 0.0
C207 C 0.81204 0.53349 0.12911 0.0
H208 H 0.72153 0.44474 0.15301 0.0
C209 C 0.6492 0.53322 0.12927 0.0
C210 C 0.61489 0.49376 0.12465 0.0
C211 C 0.68856 0.53497 0.1338 0.0
C212 C 0.74633 0.46959 0.1461 0.0
H213 H 0.96367 0.58462 0.14779 0.0
H214 H 0.89283 0.57743 0.14523 0.0
H215 H 0.79174 0.44889 0.15628 0.0
H216 H 0.59509 0.42513 0.12129 0.0
H217 H 0.66352 0.4279 0.1294 0.0
H218 H 0.767 0.55417 0.11885 0.0
C219 C 0.89793 0.54852 0.14436 0.0
C220 C 0.78679 0.47192 0.14793 0.0
C221 C 0.93883 0.5527 0.146 0.0
C222 C 0.62064 0.456 0.12541 0.0
C223 C 0.66008 0.45769 0.12993 0.0
C224 C 0.7718 0.53124 0.12733 0.0
C225 C 0.86422 0.50792 0.14189 0.0
C226 C 0.82046 0.50413 0.13957 0.0
C227 C 0.69501 0.49726 0.1336 0.0
C228 C 0.73818 0.49945 0.13588 0.0
H229 H 0.9199 0.44739 0.14286 0.0
H230 H 0.84826 0.43968 0.13956 0.0
H231 H 0.83657 0.55815 0.12196 0.0
H232 H 0.64598 0.56286 0.12834 0.0
H233 H 0.71425 0.56611 0.13689 0.0
C234 C 0.35378 0.88497 0.50298 0.0
C235 C 0.39184 0.8858 0.49678 0.0
C236 C 0.31733 0.84758 0.49899 0.0
C237 C 0.27385 0.75276 0.46234 0.0
H238 H 0.18797 0.70734 0.50064 0.0
C239 C 0.13146 0.59603 0.44054 0.0
C240 C 0.0929 0.59406 0.44648 0.0
C241 C 0.16799 0.62955 0.44866 0.0
C242 C 0.21147 0.71989 0.48971 0.0
H243 H 0.4222 0.84813 0.48235 0.0
H244 H 0.35859 0.78297 0.47526 0.0
H245 H 0.25185 0.77036 0.51148 0.0
H246 H 0.06197 0.62466 0.46589 0.0
H247 H 0.12592 0.68425 0.47975 0.0
H248 H 0.23356 0.70365 0.44039 0.0
C249 C 0.35681 0.81118 0.48306 0.0
C250 C 0.24805 0.75585 0.49595 0.0
C251 C 0.39318 0.84838 0.48718 0.0
C252 C 0.09144 0.62548 0.46117 0.0
C253 C 0.12807 0.65946 0.46913 0.0
C254 C 0.23729 0.71722 0.45607 0.0
C255 C 0.31844 0.81063 0.48858 0.0
C256 C 0.27965 0.77244 0.48233 0.0
C257 C 0.16678 0.66229 0.46268 0.0
C258 C 0.2057 0.70011 0.46968 0.0
H259 H 0.35204 0.91348 0.51045 0.0
H260 H 0.28814 0.84806 0.50332 0.0
H261 H 0.29733 0.7654 0.4514 0.0
H262 H 0.13332 0.57175 0.42945 0.0
H263 H 0.19721 0.63003 0.44375 0.0
C264 C 0.55433 0.41298 0.80995 0.0
C265 C 0.52655 0.42104 0.82283 0.0
C266 C 0.55852 0.3744 0.80937 0.0
C267 C 0.53354 0.27768 0.83709 0.0
H268 H 0.55862 0.23242 0.78561 0.0
C269 C 0.52673 0.10483 0.81606 0.0
C270 C 0.55919 0.10335 0.80438 0.0
C271 C 0.52435 0.14411 0.82154 0.0
C272 C 0.55196 0.24481 0.80016 0.0
H273 H 0.48037 0.39446 0.84487 0.0
H274 H 0.48621 0.32604 0.84328 0.0
H275 H 0.54914 0.2983 0.7878 0.0
H276 H 0.61634 0.14179 0.79084 0.0
H277 H 0.61235 0.20995 0.80043 0.0
H278 H 0.53502 0.22256 0.84908 0.0
C279 C 0.50596 0.35014 0.83408 0.0
C280 C 0.54671 0.28285 0.80147 0.0
C281 C 0.50225 0.38919 0.83485 0.0
C282 C 0.59092 0.14202 0.79979 0.0
C283 C 0.58845 0.18098 0.80514 0.0
C284 C 0.53821 0.23904 0.83567 0.0
C285 C 0.53421 0.34215 0.82131 0.0
C286 C 0.53802 0.30034 0.82 0.0
C287 C 0.55429 0.18231 0.8153 0.0
C288 C 0.5481 0.22258 0.81723 0.0
H289 H 0.57261 0.43635 0.80007 0.0
H290 H 0.58112 0.37008 0.79956 0.0
H291 H 0.52722 0.29015 0.85168 0.0
H292 H 0.50167 0.07545 0.8196 0.0
H293 H 0.49769 0.14421 0.8294 0.0
C294 C 0.58953 0.93305 0.52087 0.0
C295 C 0.57106 0.94424 0.50508 0.0
C296 C 0.58182 0.89029 0.52213 0.0
C297 C 0.54834 0.78507 0.49231 0.0
H298 H 0.52753 0.74339 0.54518 0.0
C299 C 0.55924 0.62991 0.51297 0.0
C300 C 0.53222 0.60709 0.52736 0.0
C301 C 0.55858 0.66782 0.50748 0.0
C302 C 0.53276 0.75425 0.53024 0.0
H303 H 0.53132 0.92 0.47781 0.0
H304 H 0.51747 0.84485 0.48007 0.0
H305 H 0.53738 0.81631 0.5415 0.0
H306 H 0.48093 0.60359 0.54585 0.0
H307 H 0.47926 0.66912 0.53605 0.0
H308 H 0.54399 0.72277 0.48114 0.0
C309 C 0.53781 0.86916 0.49151 0.0
C310 C 0.53892 0.79627 0.52819 0.0
C311 C 0.54536 0.91203 0.49033 0.0
C312 C 0.50245 0.62093 0.53492 0.0
C313 C 0.50168 0.65856 0.52939 0.0
C314 C 0.54243 0.74292 0.49439 0.0
C315 C 0.55573 0.85781 0.50753 0.0
C316 C 0.54719 0.81234 0.50927 0.0
C317 C 0.5308 0.68338 0.51625 0.0
C318 C 0.53476 0.72712 0.51342 0.0
H319 H 0.60962 0.95733 0.53239 0.0
H320 H 0.59658 0.88267 0.53449 0.0
H321 H 0.55487 0.79664 0.47754 0.0
H322 H 0.58264 0.62005 0.50702 0.0
H323 H 0.5815 0.68625 0.49735 0.0
C324 C 0.73817 0.52321 0.84207 0.0
C325 C 0.70665 0.50481 0.82685 0.0
C326 C 0.77152 0.51189 0.8419 0.0
C327 C 0.83507 0.47975 0.80879 0.0
H328 H 0.87175 0.45135 0.85806 0.0
C329 C 0.98218 0.4627 0.84966 0.0
C330 C 0.01206 0.50426 0.84765 0.0
C331 C 0.94214 0.44901 0.84132 0.0
C332 C 0.86151 0.45816 0.84399 0.0
H333 H 0.68473 0.46038 0.79954 0.0
H334 H 0.74407 0.44153 0.79895 0.0
H335 H 0.80474 0.45468 0.85637 0.0
H336 H 0.02496 0.56218 0.83345 0.0
H337 H 0.95519 0.53826 0.81886 0.0
H338 H 0.89321 0.48605 0.7969 0.0
C339 C 0.74258 0.46419 0.81107 0.0
C340 C 0.82339 0.4605 0.84314 0.0
C341 C 0.70881 0.47494 0.81145 0.0
C342 C 1.00259 0.52998 0.83524 0.0
C343 C 0.9626 0.5162 0.82682 0.0
C344 C 0.87358 0.47796 0.80972 0.0
C345 C 0.77407 0.48253 0.82633 0.0
C346 C 0.81057 0.47269 0.8258 0.0
C347 C 0.93151 0.47659 0.83076 0.0
C348 C 0.88764 0.4685 0.82759 0.0
H349 H 0.73704 0.54628 0.85408 0.0
H350 H 0.79582 0.52676 0.85369 0.0
H351 H 0.82566 0.48929 0.79527 0.0
H352 H 0.98902 0.44183 0.85876 0.0
H353 H 0.91878 0.41807 0.84431 0.0
C354 C 0.18917 0.67646 0.14732 0.0
C355 C 0.1798 0.64272 0.15941 0.0
C356 C 0.22591 0.71368 0.15113 0.0
C357 C 0.3044 0.77365 0.19228 0.0
H358 H 0.37315 0.83114 0.14947 0.0
C359 C 0.4684 0.89958 0.2104 0.0
C360 C 0.47943 0.93896 0.20253 0.0
C361 C 0.43279 0.86403 0.20306 0.0
C362 C 0.35399 0.81556 0.16153 0.0
H363 H 0.20164 0.62054 0.18445 0.0
H364 H 0.26578 0.68491 0.19093 0.0
H365 H 0.30812 0.76765 0.14076 0.0
H366 H 0.46337 0.97143 0.17992 0.0
H367 H 0.40057 0.90862 0.16689 0.0
H368 H 0.35017 0.8209 0.21305 0.0
C369 C 0.24458 0.68328 0.17881 0.0
C370 C 0.31681 0.77933 0.15657 0.0
C371 C 0.20795 0.64631 0.17505 0.0
C372 C 0.4555 0.94139 0.18623 0.0
C373 C 0.41965 0.90556 0.17882 0.0
C374 C 0.34144 0.80951 0.1972 0.0
C375 C 0.25379 0.71764 0.16708 0.0
C376 C 0.29199 0.75759 0.17194 0.0
C377 C 0.40736 0.86696 0.18764 0.0
C378 C 0.36698 0.83042 0.18192 0.0
H379 H 0.1679 0.67433 0.13513 0.0
H380 H 0.23202 0.73967 0.1419 0.0
H381 H 0.28549 0.75839 0.20447 0.0
H382 H 0.48678 0.89659 0.22269 0.0
H383 H 0.4246 0.8344 0.2098 0.0
C384 C 0.48811 0.13506 0.48852 0.0
C385 C 0.51194 0.12316 0.50138 0.0
C386 C 0.49382 0.17787 0.48932 0.0
C387 C 0.53875 0.2799 0.52351 0.0
H388 H 0.52664 0.33118 0.47583 0.0
C389 C 0.58501 0.45873 0.52799 0.0
C390 C 0.55247 0.46979 0.52325 0.0
C391 C 0.58241 0.41791 0.52181 0.0
C392 C 0.53003 0.31712 0.48923 0.0
H393 H 0.5597 0.14632 0.52539 0.0
H394 H 0.57171 0.22094 0.52595 0.0
H395 H 0.51736 0.25634 0.47251 0.0
H396 H 0.49348 0.44833 0.50677 0.0
H397 H 0.48917 0.37654 0.49561 0.0
H398 H 0.55223 0.34073 0.54012 0.0
C399 C 0.54787 0.19747 0.51552 0.0
C400 C 0.5245 0.27423 0.4874 0.0
C401 C 0.54163 0.15472 0.51495 0.0
C402 C 0.51907 0.44063 0.51053 0.0
C403 C 0.51654 0.39959 0.50422 0.0
C404 C 0.54488 0.32268 0.52525 0.0
C405 C 0.52371 0.20967 0.50292 0.0
C406 C 0.52901 0.25511 0.50454 0.0
C407 C 0.54733 0.38734 0.51064 0.0
C408 C 0.54082 0.34182 0.50816 0.0
H409 H 0.46481 0.11123 0.47797 0.0
H410 H 0.4742 0.18579 0.47957 0.0
H411 H 0.54122 0.2662 0.53718 0.0
H412 H 0.61129 0.48081 0.53762 0.0
H413 H 0.60686 0.40945 0.52668 0.0
C414 C 0.39399 0.5596 0.8141 0.0
C415 C 0.43624 0.58648 0.81685 0.0
C416 C 0.36542 0.57699 0.81169 0.0
C417 C 0.31024 0.6205 0.80265 0.0
H418 H 0.31898 0.69332 0.85237 0.0
C419 C 0.16654 0.62016 0.84109 0.0
C420 C 0.16418 0.59785 0.8581 0.0
C421 C 0.20414 0.63984 0.83178 0.0
C422 C 0.31658 0.6744 0.838 0.0
H423 H 0.48241 0.65215 0.81812 0.0
H424 H 0.43212 0.68271 0.81452 0.0
H425 H 0.38003 0.68476 0.84028 0.0
H426 H 0.20061 0.58108 0.87912 0.0
H427 H 0.26563 0.61705 0.86366 0.0
H428 H 0.24574 0.60665 0.80164 0.0
C429 C 0.42118 0.64828 0.81404 0.0
C430 C 0.35148 0.66941 0.83107 0.0
C431 C 0.4498 0.63081 0.81624 0.0
C432 C 0.20089 0.59857 0.86642 0.0
C433 C 0.23841 0.61924 0.85751 0.0
C434 C 0.27541 0.6258 0.80951 0.0
C435 C 0.37867 0.62158 0.81215 0.0
C436 C 0.34771 0.63972 0.81427 0.0
C437 C 0.24016 0.6388 0.83977 0.0
C438 C 0.27777 0.64999 0.82811 0.0
H439 H 0.38294 0.5253 0.81436 0.0
H440 H 0.33275 0.55568 0.81067 0.0
H441 H 0.30683 0.59796 0.78947 0.0
H442 H 0.13917 0.62131 0.83453 0.0
H443 H 0.20487 0.6545 0.81799 0.0
C444 C 0.86992 0.31502 0.13415 0.0
C445 C 0.90657 0.32161 0.14479 0.0
C446 C 0.83267 0.28074 0.13755 0.0
C447 C 0.78779 0.17834 0.16087 0.0
H448 H 0.69417 0.20741 0.16894 0.0
C449 C 0.6274 0.11621 0.20584 0.0
C450 C 0.61162 0.07181 0.20035 0.0
C451 C 0.66095 0.14433 0.19606 0.0
C452 C 0.72001 0.19877 0.16674 0.0
H453 H 0.93363 0.29691 0.16672 0.0
H454 H 0.86861 0.2373 0.17285 0.0
H455 H 0.75836 0.25976 0.1572 0.0
H456 H 0.61819 0.02211 0.18002 0.0
H457 H 0.67666 0.0714 0.16271 0.0
H458 H 0.7499 0.11798 0.17127 0.0
C459 C 0.86854 0.25817 0.16169 0.0
C460 C 0.75667 0.22859 0.15976 0.0
C461 C 0.90577 0.29243 0.15827 0.0
C462 C 0.62949 0.05619 0.18449 0.0
C463 C 0.66321 0.08436 0.17472 0.0
C464 C 0.75107 0.14847 0.16784 0.0
C465 C 0.8314 0.25244 0.15168 0.0
C466 C 0.79124 0.21902 0.15709 0.0
C467 C 0.67957 0.12872 0.18054 0.0
C468 C 0.71704 0.15868 0.17121 0.0
H469 H 0.86976 0.33706 0.12363 0.0
H470 H 0.80473 0.27685 0.12938 0.0
H471 H 0.81371 0.16981 0.15875 0.0
H472 H 0.61401 0.12923 0.21787 0.0
H473 H 0.67306 0.17826 0.20107 0.0
C474 C 0.07916 0.52256 0.07679 0.0
C475 C 0.04961 0.48579 0.08424 0.0
C476 C 0.08337 0.52465 0.05602 0.0
C477 C 0.0276 0.4765 0.00674 0.0
H478 H 0.13662 0.53652 0.98614 0.0
C479 C 0.0574 0.48711 0.92143 0.0
C480 C 0.08076 0.52866 0.91612 0.0
C481 C 0.05424 0.47915 0.94171 0.0
C482 C 0.10602 0.5198 0.99173 0.0
H483 H 1.00154 0.42212 0.07572 0.0
H484 H 1.0095 0.42543 0.03929 0.0
H485 H 0.12987 0.5261 0.022 0.0
H486 H 0.11913 0.5944 0.92804 0.0
H487 H 0.11437 0.58015 0.96346 0.0
H488 H 1.00395 0.47003 0.97631 0.0
C489 C 0.0289 0.45296 0.04958 0.0
C490 C 0.10208 0.51392 0.01224 0.0
C491 C 0.02444 0.45099 0.07044 0.0
C492 C 0.10141 0.56193 0.93156 0.0
C493 C 0.09863 0.55383 0.95183 0.0
C494 C 0.03161 0.482 0.98616 0.0
C495 C 0.05842 0.48988 0.04215 0.0
C496 C 0.06276 0.49288 0.02006 0.0
C497 C 0.0748 0.51244 0.95707 0.0
C498 C 0.0708 0.50429 0.97857 0.0
H499 H 0.09883 0.55013 0.08699 0.0
H500 H 0.10577 0.55394 0.05084 0.0
H501 H 0.99684 0.46064 0.01229 0.0
H502 H 0.04178 0.46058 0.9099 0.0
H503 H 0.03605 0.44687 0.94538 0.0
C504 C 0.51731 0.00235 0.42594 0.0
C505 C 0.53953 0.03934 0.43921 0.0
C506 C 0.51824 0.00388 0.40501 0.0
C507 C 0.57904 0.0692 0.36541 0.0
H508 H 0.48194 0.99541 0.33145 0.0
C509 C 0.56396 0.06743 0.27757 0.0
C510 C 0.55008 0.02633 0.26687 0.0
C511 C 0.56356 0.07238 0.29875 0.0
C512 C 0.50927 0.01616 0.34078 0.0
H513 H 0.57946 0.10724 0.44094 0.0
H514 H 0.58008 0.11024 0.40436 0.0
H515 H 0.47814 -0.00139 0.36818 0.0
H516 H 0.52698 0.95844 0.27026 0.0
H517 H 0.52499 0.96717 0.307 0.0
H518 H 0.60975 0.08702 0.33772 0.0
C519 C 0.56277 0.07975 0.41011 0.0
C520 C 0.50724 0.01784 0.36182 0.0
C521 C 0.56224 0.07809 0.43109 0.0
C522 C 0.53676 0.99049 0.27789 0.0
C523 C 0.53578 0.99542 0.29895 0.0
C524 C 0.58086 0.06794 0.34431 0.0
C525 C 0.54094 0.04259 0.3968 0.0
C526 C 0.54232 0.04368 0.37443 0.0
C527 C 0.54878 0.03632 0.30956 0.0
C528 C 0.54621 0.04075 0.33184 0.0
H529 H 0.49982 0.97188 0.43169 0.0
H530 H 0.50176 0.9744 0.39527 0.0
H531 H 0.60681 0.0891 0.3746 0.0
H532 H 0.57412 0.0957 0.26957 0.0
H533 H 0.5737 0.10426 0.30665 0.0
C534 C 0.539 0.55502 0.75248 0.0
C535 C 0.5693 0.54602 0.76206 0.0
C536 C 0.53839 0.55676 0.73158 0.0
C537 C 0.60302 0.5698 0.68704 0.0
H538 H 0.49681 0.51743 0.65725 0.0
C539 C 0.58661 0.54202 0.59953 0.0
C540 C 0.55538 0.54983 0.59012 0.0
C541 C 0.58953 0.54346 0.6206 0.0
C542 C 0.52666 0.53266 0.66538 0.0
H543 H 0.62304 0.5322 0.75713 0.0
H544 H 0.62165 0.53479 0.72053 0.0
H545 H 0.49969 0.51575 0.69381 0.0
H546 H 0.503 0.5657 0.59541 0.0
H547 H 0.50842 0.56877 0.63226 0.0
H548 H 0.62995 0.58641 0.6585 0.0
C549 C 0.59864 0.54096 0.72929 0.0
C550 C 0.52832 0.53169 0.68633 0.0
C551 C 0.59929 0.53926 0.75025 0.0
C552 C 0.52756 0.55983 0.60224 0.0
C553 C 0.5304 0.56113 0.62331 0.0
C554 C 0.60135 0.57071 0.66605 0.0
C555 C 0.56801 0.54948 0.71971 0.0
C556 C 0.5665 0.55032 0.69741 0.0
C557 C 0.56121 0.55262 0.63271 0.0
C558 C 0.56314 0.55221 0.65501 0.0
H559 H 0.5156 0.56076 0.7611 0.0
H560 H 0.51482 0.56413 0.72472 0.0
H561 H 0.63285 0.58492 0.69518 0.0
H562 H 0.60876 0.53467 0.59059 0.0
H563 H 0.6134 0.53643 0.62738 0.0
C564 C 0.51693 0.99302 0.57458 0.0
C565 C 0.54589 0.02873 0.56609 0.0
C566 C 0.51766 0.99093 0.59551 0.0
C567 C 0.55397 0.05953 0.64393 0.0
H568 H 0.53978 0.95428 0.66567 0.0
C569 C 0.58163 0.05535 0.72879 0.0
C570 C 0.55317 0.02059 0.73802 0.0
C571 C 0.58097 0.05497 0.70775 0.0
C572 C 0.54334 0.98377 0.65983 0.0
H573 H 0.59859 0.09008 0.57298 0.0
H574 H 0.5999 0.08626 0.60938 0.0
H575 H 0.53774 0.95627 0.62899 0.0
H576 H 0.5021 0.95786 0.73244 0.0
H577 H 0.50074 0.95724 0.69557 0.0
H578 H 0.55936 0.08706 0.67465 0.0
C579 C 0.57634 0.0601 0.59988 0.0
C580 C 0.54218 0.9849 0.63883 0.0
C581 C 0.5757 0.06215 0.57898 0.0
C582 C 0.52462 0.98496 0.72572 0.0
C583 C 0.52388 0.98461 0.70462 0.0
C584 C 0.55504 0.05838 0.66488 0.0
C585 C 0.54726 0.02455 0.60839 0.0
C586 C 0.54771 0.02288 0.63066 0.0
C587 C 0.55176 0.01985 0.69542 0.0
C588 C 0.54999 0.02058 0.67309 0.0
H589 H 0.49356 0.96666 0.56511 0.0
H590 H 0.49461 0.96329 0.60164 0.0
H591 H 0.55756 0.08906 0.63811 0.0
H592 H 0.6045 0.08292 0.73786 0.0
H593 H 0.60346 0.08222 0.70112 0.0
C594 C 0.58074 0.50586 0.89758 0.0
C595 C 0.55866 0.52596 0.88868 0.0
C596 C 0.57951 0.50211 0.9184 0.0
C597 C 0.55933 0.55042 0.96681 0.0
H598 H 0.5446 0.4433 0.98665 0.0
C599 C 0.52884 0.52177 0.0507 0.0
C600 C 0.54715 0.49822 0.05972 0.0
C601 C 0.5307 0.52512 0.02986 0.0
C602 C 0.54932 0.47365 0.98141 0.0
H603 H 0.51788 0.5578 0.89478 0.0
H604 H 0.51588 0.55132 0.93105 0.0
H605 H 0.54721 0.44913 0.95028 0.0
H606 H 0.58164 0.4595 0.05373 0.0
H607 H 0.58604 0.46648 0.01754 0.0
H608 H 0.56194 0.57521 -0.00215 0.0
C609 C 0.53432 0.53868 0.92193 0.0
C610 C 0.55072 0.47693 0.96055 0.0
C611 C 0.53528 0.54214 0.90109 0.0
C612 C 0.56758 0.4783 0.04736 0.0
C613 C 0.56962 0.48182 0.02652 0.0
C614 C 0.55821 0.54725 0.98766 0.0
C615 C 0.55645 0.51868 0.93083 0.0
C616 C 0.55555 0.5153 0.95301 0.0
C617 C 0.55113 0.50521 0.01748 0.0
C618 C 0.553 0.50876 -0.00475 0.0
H619 H 0.59902 0.49297 0.88848 0.0
H620 H 0.59716 0.48683 0.92484 0.0
H621 H 0.56373 0.58063 0.96149 0.0
H622 H 0.51328 0.53798 0.05977 0.0
H623 H 0.51565 0.54295 0.02343 0.0
C624 C 0.999 0.45105 0.21912 0.0
C625 C 0.02195 0.48888 0.2103 0.0
C626 C 0.9937 0.4523 0.24003 0.0
C627 C 0.99604 0.52448 0.28505 0.0
H628 H 0.02037 0.44609 0.31505 0.0
C629 C 0.02388 0.55209 0.37167 0.0
C630 C 1.01009 0.51642 0.38277 0.0
C631 C 0.02135 0.54666 0.35051 0.0
C632 C 0.01273 0.46774 0.3069 0.0
H633 H 0.05662 0.55776 0.21648 0.0
H634 H 0.04711 0.55983 0.25283 0.0
H635 H 0.02241 0.43994 0.27817 0.0
H636 H 0.98247 0.44696 0.38026 0.0
H637 H 0.97682 0.43748 0.34333 0.0
H638 H 0.9863 0.55234 0.31366 0.0
C639 C 0.03321 0.52926 0.24359 0.0
C640 C 0.014 0.46423 0.28577 0.0
C641 C 0.03889 0.52799 0.22277 0.0
C642 C 0.99302 0.47514 0.37219 0.0
C643 C 0.99026 0.4697 0.351 0.0
C644 C 0.99444 0.52778 0.30614 0.0
C645 C 1.01078 0.49144 0.25245 0.0
C646 C 1.0063 0.493 0.27468 0.0
C647 C 1.00466 0.50542 0.3399 0.0
C648 C 1.00342 0.4999 0.31736 0.0
H649 H 0.98556 0.42039 0.20995 0.0
H650 H 0.97606 0.4227 0.24647 0.0
H651 H 0.98937 0.54668 0.27683 0.0
H652 H 0.03669 0.58433 0.37933 0.0
H653 H 0.03325 0.57492 0.34249 0.0
loop_
_geom_bond_atom_site_label_1
_geom_bond_atom_site_label_2
_geom_bond_distance
_geom_bond_site_symmetry_2
_ccdc_geom_bond_type
Tb0 O3 2.453 1_455 S
Tb0 O4 2.596 1_455 S
Tb0 O5 2.374 . S
Tb0 O13 2.343 . S
Tb0 O15 2.353 . S
Tb0 O17 2.427 . S
Tb0 O18 2.513 . S
C1 O5 1.251 . S
C1 O7 1.263 . S
Tb2 O4 2.343 1_455 S
Tb2 O7 2.353 . S
Tb2 O10 2.427 1_455 S
Tb2 O11 2.513 1_455 S
Tb2 O12 2.453 . S
Tb2 O13 2.596 . S
Tb2 O14 2.374 . S
O3 Tb0 2.453 1_655 S
O3 C19 1.245 . S
O4 Tb0 2.596 1_655 S
O4 Tb2 2.343 1_655 S
O4 C19 1.259 . S
O5 Tb0 2.374 . S
O5 C1 1.251 . S
C6 O10 1.275 . S
C6 O11 1.246 . S
O7 C1 1.263 . S
O7 Tb2 2.353 . S
C8 O12 1.245 . S
C8 O13 1.259 . S
C9 O14 1.250 . S
C9 O15 1.263 . S
O10 Tb2 2.427 1_655 S
O10 C6 1.275 . S
O11 Tb2 2.513 1_655 S
O11 C6 1.246 . S
O12 Tb2 2.453 . S
O12 C8 1.245 . S
O13 Tb0 2.343 . S
O13 Tb2 2.596 . S
O13 C8 1.259 . S
O14 Tb2 2.374 . S
O14 C9 1.250 . S
O15 Tb0 2.353 . S
O15 C9 1.263 . S
C16 O17 1.275 . S
C16 O18 1.246 . S
O17 Tb0 2.427 . S
O17 C16 1.275 . S
O18 Tb0 2.513 . S
O18 C16 1.246 . S
C19 O3 1.245 . S
C19 O4 1.259 . S
Tb20 O23 2.453 . S
Tb20 O24 2.596 . S
Tb20 O25 2.374 . S
Tb20 O33 2.343 1_545 S
Tb20 O35 2.353 . S
Tb20 O37 2.427 1_545 S
Tb20 O38 2.513 1_545 S
C21 O25 1.251 . S
C21 O27 1.263 . S
Tb22 O24 2.343 . S
Tb22 O27 2.353 . S
Tb22 O30 2.427 . S
Tb22 O31 2.513 . S
Tb22 O32 2.453 1_545 S
Tb22 O33 2.596 1_545 S
Tb22 O34 2.374 . S
O23 Tb20 2.453 . S
O23 C39 1.245 . S
O24 Tb20 2.596 . S
O24 Tb22 2.343 . S
O24 C39 1.259 . S
O25 Tb20 2.374 . S
O25 C21 1.251 . S
C26 O30 1.275 . S
C26 O31 1.246 . S
O27 C21 1.263 . S
O27 Tb22 2.353 . S
C28 O32 1.245 . S
C28 O33 1.259 . S
C29 O34 1.250 . S
C29 O35 1.263 . S
O30 Tb22 2.427 . S
O30 C26 1.275 . S
O31 Tb22 2.513 . S
O31 C26 1.246 . S
O32 Tb22 2.453 1_565 S
O32 C28 1.245 . S
O33 Tb20 2.343 1_565 S
O33 Tb22 2.596 1_565 S
O33 C28 1.259 . S
O34 Tb22 2.374 . S
O34 C29 1.250 . S
O35 Tb20 2.353 . S
O35 C29 1.263 . S
C36 O37 1.275 . S
C36 O38 1.246 . S
O37 Tb20 2.427 1_565 S
O37 C36 1.275 . S
O38 Tb20 2.513 1_565 S
O38 C36 1.246 . S
C39 O23 1.245 . S
C39 O24 1.259 . S
Tb40 O43 2.453 . S
Tb40 O44 2.596 . S
Tb40 O45 2.374 . S
Tb40 O53 2.343 . S
Tb40 O55 2.353 . S
Tb40 O57 2.427 . S
Tb40 O58 2.513 . S
C41 O45 1.251 . S
C41 O47 1.263 . S
Tb42 O44 2.343 . S
Tb42 O47 2.353 . S
Tb42 O50 2.427 . S
Tb42 O51 2.513 . S
Tb42 O52 2.453 . S
Tb42 O53 2.596 . S
Tb42 O54 2.374 . S
O43 Tb40 2.453 . S
O43 C59 1.245 . S
O44 Tb40 2.596 . S
O44 Tb42 2.343 . S
O44 C59 1.259 . S
O45 Tb40 2.374 . S
O45 C41 1.251 . S
C46 O50 1.275 . S
C46 O51 1.246 . S
O47 C41 1.263 . S
O47 Tb42 2.353 . S
C48 O52 1.245 . S
C48 O53 1.259 . S
C49 O54 1.250 . S
C49 O55 1.263 . S
O50 Tb42 2.427 . S
O50 C46 1.275 . S
O51 Tb42 2.513 . S
O51 C46 1.246 . S
O52 Tb42 2.453 . S
O52 C48 1.245 . S
O53 Tb40 2.343 . S
O53 Tb42 2.596 . S
O53 C48 1.259 . S
O54 Tb42 2.374 . S
O54 C49 1.250 . S
O55 Tb40 2.353 . S
O55 C49 1.263 . S
C56 O57 1.275 . S
C56 O58 1.246 . S
O57 Tb40 2.427 . S
O57 C56 1.275 . S
O58 Tb40 2.513 . S
O58 C56 1.246 . S
C59 O43 1.245 . S
C59 O44 1.259 . S
H60 C63 0.931 1_565 S
H61 C66 0.928 . S
H62 C68 0.930 . S
C63 H60 0.931 1_545 S
C63 C64 1.413 . S
C63 C65 1.360 . S
C64 C63 1.413 . S
C64 C68 1.429 . S
C65 C63 1.360 . S
C65 C66 1.372 . S
C66 H61 0.928 . S
C66 C65 1.372 . S
C66 C67 1.404 . S
C67 C66 1.404 . S
C67 C68 1.391 . S
C68 H62 0.930 . S
C68 C64 1.429 . S
C68 C67 1.391 . S
H69 C72 0.931 . S
H70 C75 0.928 . S
H71 C77 0.930 . S
C72 H69 0.931 . S
C72 C73 1.413 . S
C72 C74 1.360 . S
C73 C72 1.413 . S
C73 C77 1.429 . S
C74 C72 1.360 . S
C74 C75 1.372 . S
C75 H70 0.928 . S
C75 C74 1.372 . S
C75 C76 1.404 . S
C76 C75 1.404 . S
C76 C77 1.391 . S
C77 H71 0.930 . S
C77 C73 1.429 . S
C77 C76 1.391 . S
H78 C81 0.931 . S
H79 C84 0.928 . S
H80 C86 0.930 . S
C81 H78 0.931 . S
C81 C82 1.413 . S
C81 C83 1.360 . S
C82 C81 1.413 . S
C82 C86 1.429 . S
C83 C81 1.360 . S
C83 C84 1.372 . S
C84 H79 0.928 . S
C84 C83 1.372 . S
C84 C85 1.404 . S
C85 C84 1.404 . S
C85 C86 1.391 . S
C86 H80 0.930 . S
C86 C82 1.429 . S
C86 C85 1.391 . S
H87 C90 0.931 . S
H88 C93 0.928 . S
H89 C95 0.930 . S
C90 H87 0.931 . S
C90 C91 1.413 . S
C90 C92 1.360 1_655 S
C91 C90 1.413 . S
C91 C95 1.429 1_655 S
C92 C90 1.360 1_455 S
C92 C93 1.372 . S
C93 H88 0.928 . S
C93 C92 1.372 . S
C93 C94 1.404 . S
C94 C93 1.404 . S
C94 C95 1.391 . S
C95 H89 0.930 . S
C95 C91 1.429 1_455 S
C95 C94 1.391 . S
H96 C99 0.931 . S
H97 C102 0.928 . S
H98 C104 0.930 . S
C99 H96 0.931 . S
C99 C100 1.413 . S
C99 C101 1.360 . S
C100 C99 1.413 . S
C100 C104 1.429 . S
C101 C99 1.360 . S
C101 C102 1.372 1_545 S
C102 H97 0.928 . S
C102 C101 1.372 1_565 S
C102 C103 1.404 . S
C103 C102 1.404 . S
C103 C104 1.391 1_565 S
C104 H98 0.930 . S
C104 C100 1.429 . S
C104 C103 1.391 1_545 S
H105 C108 0.931 . S
H106 C111 0.928 . S
H107 C113 0.930 . S
C108 H105 0.931 . S
C108 C109 1.413 . S
C108 C110 1.360 . S
C109 C108 1.413 . S
C109 C113 1.429 . S
C110 C108 1.360 . S
C110 C111 1.372 . S
C111 H106 0.928 . S
C111 C110 1.372 . S
C111 C112 1.404 . S
C112 C111 1.404 . S
C112 C113 1.391 . S
C113 H107 0.930 . S
C113 C109 1.429 . S
C113 C112 1.391 . S
C114 C115 1.349 . S
C114 C116 1.327 . S
C114 H139 0.950 . S
C115 C114 1.349 . S
C115 C131 1.349 . S
C116 C114 1.327 . S
C116 C135 1.429 . S
C116 H140 0.950 . S
C117 C134 1.574 . S
C117 C136 1.368 . S
C117 H141 0.949 . S
H118 C122 0.949 . S
C119 C120 1.349 . S
C119 C121 1.327 . S
C119 H142 0.950 . S
C120 C119 1.349 . S
C120 C132 1.349 . S
C121 C119 1.327 . S
C121 C137 1.429 . S
C121 H143 0.950 . S
C122 H118 0.949 . S
C122 C130 1.574 . S
C122 C138 1.368 . S
H123 C131 0.950 . S
H124 C129 0.950 . S
H125 C130 0.949 . S
H126 C132 0.950 . S
H127 C133 0.950 . S
H128 C134 0.949 . S
C129 H124 0.950 . S
C129 C131 1.327 . S
C129 C135 1.429 . S
C130 C122 1.574 . S
C130 H125 0.949 . S
C130 C136 1.368 . S
C131 C115 1.349 . S
C131 H123 0.950 . S
C131 C129 1.327 . S
C132 C120 1.349 . S
C132 H126 0.950 . S
C132 C133 1.327 . S
C133 H127 0.950 . S
C133 C132 1.327 . S
C133 C137 1.429 . S
C134 C117 1.574 . S
C134 H128 0.949 . S
C134 C138 1.368 . S
C135 C116 1.429 . S
C135 C129 1.429 . S
C135 C136 1.523 . S
C136 C117 1.368 . S
C136 C130 1.368 . S
C136 C135 1.523 . S
C137 C121 1.429 . S
C137 C133 1.429 . S
C137 C138 1.523 . S
C138 C122 1.368 . S
C138 C134 1.368 . S
C138 C137 1.523 . S
H139 C114 0.950 . S
H140 C116 0.950 . S
H141 C117 0.949 . S
H142 C119 0.950 . S
H143 C121 0.950 . S
C144 C145 1.349 . S
C144 C146 1.327 . S
C144 H169 0.950 . S
C145 C144 1.349 . S
C145 C161 1.349 . S
C146 C144 1.327 . S
C146 C165 1.429 . S
C146 H170 0.950 . S
C147 C164 1.574 . S
C147 C166 1.368 . S
C147 H171 0.949 . S
H148 C152 0.949 . S
C149 C150 1.349 . S
C149 C151 1.327 . S
C149 H172 0.950 . S
C150 C149 1.349 . S
C150 C162 1.349 . S
C151 C149 1.327 . S
C151 C167 1.429 . S
C151 H173 0.950 . S
C152 H148 0.949 . S
C152 C160 1.574 . S
C152 C168 1.368 . S
H153 C161 0.950 . S
H154 C159 0.950 . S
H155 C160 0.949 . S
H156 C162 0.950 . S
H157 C163 0.950 . S
H158 C164 0.949 . S
C159 H154 0.950 . S
C159 C161 1.327 . S
C159 C165 1.429 . S
C160 C152 1.574 . S
C160 H155 0.949 . S
C160 C166 1.368 . S
C161 C145 1.349 . S
C161 H153 0.950 . S
C161 C159 1.327 . S
C162 C150 1.349 . S
C162 H156 0.950 . S
C162 C163 1.327 . S
C163 H157 0.950 . S
C163 C162 1.327 . S
C163 C167 1.429 . S
C164 C147 1.574 . S
C164 H158 0.949 . S
C164 C168 1.368 . S
C165 C146 1.429 . S
C165 C159 1.429 . S
C165 C166 1.523 . S
C166 C147 1.368 . S
C166 C160 1.368 . S
C166 C165 1.523 . S
C167 C151 1.429 . S
C167 C163 1.429 . S
C167 C168 1.523 . S
C168 C152 1.368 . S
C168 C164 1.368 . S
C168 C167 1.523 . S
H169 C144 0.950 . S
H170 C146 0.950 . S
H171 C147 0.949 . S
H172 C149 0.950 . S
H173 C151 0.950 . S
C174 C175 1.349 . S
C174 C176 1.327 . S
C174 H199 0.950 . S
C175 C174 1.349 . S
C175 C191 1.349 . S
C176 C174 1.327 . S
C176 C195 1.429 . S
C176 H200 0.950 . S
C177 C194 1.574 . S
C177 C196 1.368 . S
C177 H201 0.949 . S
H178 C182 0.949 . S
C179 C180 1.349 . S
C179 C181 1.327 . S
C179 H202 0.950 . S
C180 C179 1.349 . S
C180 C192 1.349 . S
C181 C179 1.327 . S
C181 C197 1.429 . S
C181 H203 0.950 . S
C182 H178 0.949 . S
C182 C190 1.574 . S
C182 C198 1.368 . S
H183 C191 0.950 . S
H184 C189 0.950 . S
H185 C190 0.949 . S
H186 C192 0.950 . S
H187 C193 0.950 . S
H188 C194 0.949 . S
C189 H184 0.950 . S
C189 C191 1.327 . S
C189 C195 1.429 . S
C190 C182 1.574 . S
C190 H185 0.949 . S
C190 C196 1.368 . S
C191 C175 1.349 . S
C191 H183 0.950 . S
C191 C189 1.327 . S
C192 C180 1.349 . S
C192 H186 0.950 . S
C192 C193 1.327 . S
C193 H187 0.950 . S
C193 C192 1.327 . S
C193 C197 1.429 . S
C194 C177 1.574 . S
C194 H188 0.949 . S
C194 C198 1.368 . S
C195 C176 1.429 . S
C195 C189 1.429 . S
C195 C196 1.523 . S
C196 C177 1.368 . S
C196 C190 1.368 . S
C196 C195 1.523 . S
C197 C181 1.429 . S
C197 C193 1.429 . S
C197 C198 1.523 . S
C198 C182 1.368 . S
C198 C194 1.368 . S
C198 C197 1.523 . S
H199 C174 0.950 . S
H200 C176 0.950 . S
H201 C177 0.949 . S
H202 C179 0.950 . S
H203 C181 0.950 . S
C204 C205 1.349 . S
C204 C206 1.327 . S
C204 H229 0.950 . S
C205 C204 1.349 . S
C205 C221 1.349 . S
C206 C204 1.327 . S
C206 C225 1.429 . S
C206 H230 0.950 . S
C207 C224 1.574 . S
C207 C226 1.368 . S
C207 H231 0.949 . S
H208 C212 0.949 . S
C209 C210 1.349 . S
C209 C211 1.327 . S
C209 H232 0.950 . S
C210 C209 1.349 . S
C210 C222 1.349 . S
C211 C209 1.327 . S
C211 C227 1.429 . S
C211 H233 0.950 . S
C212 H208 0.949 . S
C212 C220 1.574 . S
C212 C228 1.368 . S
H213 C221 0.950 . S
H214 C219 0.950 . S
H215 C220 0.949 . S
H216 C222 0.950 . S
H217 C223 0.950 . S
H218 C224 0.949 . S
C219 H214 0.950 . S
C219 C221 1.327 . S
C219 C225 1.429 . S
C220 C212 1.574 . S
C220 H215 0.949 . S
C220 C226 1.368 . S
C221 C205 1.349 . S
C221 H213 0.950 . S
C221 C219 1.327 . S
C222 C210 1.349 . S
C222 H216 0.950 . S
C222 C223 1.327 . S
C223 H217 0.950 . S
C223 C222 1.327 . S
C223 C227 1.429 . S
C224 C207 1.574 . S
C224 H218 0.949 . S
C224 C228 1.368 . S
C225 C206 1.429 . S
C225 C219 1.429 . S
C225 C226 1.523 . S
C226 C207 1.368 . S
C226 C220 1.368 . S
C226 C225 1.523 . S
C227 C211 1.429 . S
C227 C223 1.429 . S
C227 C228 1.523 . S
C228 C212 1.368 . S
C228 C224 1.368 . S
C228 C227 1.523 . S
H229 C204 0.950 . S
H230 C206 0.950 . S
H231 C207 0.949 . S
H232 C209 0.950 . S
H233 C211 0.950 . S
C234 C235 1.349 . S
C234 C236 1.327 . S
C234 H259 0.950 . S
C235 C234 1.349 . S
C235 C251 1.349 . S
C236 C234 1.327 . S
C236 C255 1.429 . S
C236 H260 0.950 . S
C237 C254 1.574 . S
C237 C256 1.368 . S
C237 H261 0.949 . S
H238 C242 0.949 . S
C239 C240 1.349 . S
C239 C241 1.327 . S
C239 H262 0.950 . S
C240 C239 1.349 . S
C240 C252 1.349 . S
C241 C239 1.327 . S
C241 C257 1.429 . S
C241 H263 0.950 . S
C242 H238 0.949 . S
C242 C250 1.574 . S
C242 C258 1.368 . S
H243 C251 0.950 . S
H244 C249 0.950 . S
H245 C250 0.949 . S
H246 C252 0.950 . S
H247 C253 0.950 . S
H248 C254 0.949 . S
C249 H244 0.950 . S
C249 C251 1.327 . S
C249 C255 1.429 . S
C250 C242 1.574 . S
C250 H245 0.949 . S
C250 C256 1.368 . S
C251 C235 1.349 . S
C251 H243 0.950 . S
C251 C249 1.327 . S
C252 C240 1.349 . S
C252 H246 0.950 . S
C252 C253 1.327 . S
C253 H247 0.950 . S
C253 C252 1.327 . S
C253 C257 1.429 . S
C254 C237 1.574 . S
C254 H248 0.949 . S
C254 C258 1.368 . S
C255 C236 1.429 . S
C255 C249 1.429 . S
C255 C256 1.523 . S
C256 C237 1.368 . S
C256 C250 1.368 . S
C256 C255 1.523 . S
C257 C241 1.429 . S
C257 C253 1.429 . S
C257 C258 1.523 . S
C258 C242 1.368 . S
C258 C254 1.368 . S
C258 C257 1.523 . S
H259 C234 0.950 . S
H260 C236 0.950 . S
H261 C237 0.949 . S
H262 C239 0.950 . S
H263 C241 0.950 . S
C264 C265 1.349 . S
C264 C266 1.327 . S
C264 H289 0.950 . S
C265 C264 1.349 . S
C265 C281 1.349 . S
C266 C264 1.327 . S
C266 C285 1.429 . S
C266 H290 0.950 . S
C267 C284 1.574 . S
C267 C286 1.368 . S
C267 H291 0.949 . S
H268 C272 0.949 . S
C269 C270 1.349 . S
C269 C271 1.327 . S
C269 H292 0.950 . S
C270 C269 1.349 . S
C270 C282 1.349 . S
C271 C269 1.327 . S
C271 C287 1.429 . S
C271 H293 0.950 . S
C272 H268 0.949 . S
C272 C280 1.574 . S
C272 C288 1.368 . S
H273 C281 0.950 . S
H274 C279 0.950 . S
H275 C280 0.949 . S
H276 C282 0.950 . S
H277 C283 0.950 . S
H278 C284 0.949 . S
C279 H274 0.950 . S
C279 C281 1.327 . S
C279 C285 1.429 . S
C280 C272 1.574 . S
C280 H275 0.949 . S
C280 C286 1.368 . S
C281 C265 1.349 . S
C281 H273 0.950 . S
C281 C279 1.327 . S
C282 C270 1.349 . S
C282 H276 0.950 . S
C282 C283 1.327 . S
C283 H277 0.950 . S
C283 C282 1.327 . S
C283 C287 1.429 . S
C284 C267 1.574 . S
C284 H278 0.949 . S
C284 C288 1.368 . S
C285 C266 1.429 . S
C285 C279 1.429 . S
C285 C286 1.523 . S
C286 C267 1.368 . S
C286 C280 1.368 . S
C286 C285 1.523 . S
C287 C271 1.429 . S
C287 C283 1.429 . S
C287 C288 1.523 . S
C288 C272 1.368 . S
C288 C284 1.368 . S
C288 C287 1.523 . S
H289 C264 0.950 . S
H290 C266 0.950 . S
H291 C267 0.949 . S
H292 C269 0.950 . S
H293 C271 0.950 . S
C294 C295 1.349 . S
C294 C296 1.327 . S
C294 H319 0.950 . S
C295 C294 1.349 . S
C295 C311 1.349 . S
C296 C294 1.327 . S
C296 C315 1.429 . S
C296 H320 0.950 . S
C297 C314 1.574 . S
C297 C316 1.368 . S
C297 H321 0.949 . S
H298 C302 0.949 . S
C299 C300 1.349 . S
C299 C301 1.327 . S
C299 H322 0.950 . S
C300 C299 1.349 . S
C300 C312 1.349 . S
C301 C299 1.327 . S
C301 C317 1.429 . S
C301 H323 0.950 . S
C302 H298 0.949 . S
C302 C310 1.574 . S
C302 C318 1.368 . S
H303 C311 0.950 . S
H304 C309 0.950 . S
H305 C310 0.949 . S
H306 C312 0.950 . S
H307 C313 0.950 . S
H308 C314 0.949 . S
C309 H304 0.950 . S
C309 C311 1.327 . S
C309 C315 1.429 . S
C310 C302 1.574 . S
C310 H305 0.949 . S
C310 C316 1.368 . S
C311 C295 1.349 . S
C311 H303 0.950 . S
C311 C309 1.327 . S
C312 C300 1.349 . S
C312 H306 0.950 . S
C312 C313 1.327 . S
C313 H307 0.950 . S
C313 C312 1.327 . S
C313 C317 1.429 . S
C314 C297 1.574 . S
C314 H308 0.949 . S
C314 C318 1.368 . S
C315 C296 1.429 . S
C315 C309 1.429 . S
C315 C316 1.523 . S
C316 C297 1.368 . S
C316 C310 1.368 . S
C316 C315 1.523 . S
C317 C301 1.429 . S
C317 C313 1.429 . S
C317 C318 1.523 . S
C318 C302 1.368 . S
C318 C314 1.368 . S
C318 C317 1.523 . S
H319 C294 0.950 . S
H320 C296 0.950 . S
H321 C297 0.949 . S
H322 C299 0.950 . S
H323 C301 0.950 . S
C324 C325 1.349 . S
C324 C326 1.327 . S
C324 H349 0.950 . S
C325 C324 1.349 . S
C325 C341 1.349 . S
C326 C324 1.327 . S
C326 C345 1.429 . S
C326 H350 0.950 . S
C327 C344 1.574 . S
C327 C346 1.368 . S
C327 H351 0.949 . S
H328 C332 0.949 . S
C329 C330 1.349 1_655 S
C329 C331 1.327 . S
C329 H352 0.950 . S
C330 C329 1.349 1_455 S
C330 C342 1.349 . S
C331 C329 1.327 . S
C331 C347 1.429 . S
C331 H353 0.950 . S
C332 H328 0.949 . S
C332 C340 1.574 . S
C332 C348 1.368 . S
H333 C341 0.950 . S
H334 C339 0.950 . S
H335 C340 0.949 . S
H336 C342 0.950 . S
H337 C343 0.950 . S
H338 C344 0.949 . S
C339 H334 0.950 . S
C339 C341 1.327 . S
C339 C345 1.429 . S
C340 C332 1.574 . S
C340 H335 0.949 . S
C340 C346 1.368 . S
C341 C325 1.349 . S
C341 H333 0.950 . S
C341 C339 1.327 . S
C342 C330 1.349 . S
C342 H336 0.950 . S
C342 C343 1.327 1_455 S
C343 H337 0.950 . S
C343 C342 1.327 1_655 S
C343 C347 1.429 . S
C344 C327 1.574 . S
C344 H338 0.949 . S
C344 C348 1.368 . S
C345 C326 1.429 . S
C345 C339 1.429 . S
C345 C346 1.523 . S
C346 C327 1.368 . S
C346 C340 1.368 . S
C346 C345 1.523 . S
C347 C331 1.429 . S
C347 C343 1.429 . S
C347 C348 1.523 . S
C348 C332 1.368 . S
C348 C344 1.368 . S
C348 C347 1.523 . S
H349 C324 0.950 . S
H350 C326 0.950 . S
H351 C327 0.949 . S
H352 C329 0.950 . S
H353 C331 0.950 . S
C354 C355 1.349 . S
C354 C356 1.327 . S
C354 H379 0.950 . S
C355 C354 1.349 . S
C355 C371 1.349 . S
C356 C354 1.327 . S
C356 C375 1.429 . S
C356 H380 0.950 . S
C357 C374 1.574 . S
C357 C376 1.368 . S
C357 H381 0.949 . S
H358 C362 0.949 . S
C359 C360 1.349 . S
C359 C361 1.327 . S
C359 H382 0.950 . S
C360 C359 1.349 . S
C360 C372 1.349 . S
C361 C359 1.327 . S
C361 C377 1.429 . S
C361 H383 0.950 . S
C362 H358 0.949 . S
C362 C370 1.574 . S
C362 C378 1.368 . S
H363 C371 0.950 . S
H364 C369 0.950 . S
H365 C370 0.949 . S
H366 C372 0.950 . S
H367 C373 0.950 . S
H368 C374 0.949 . S
C369 H364 0.950 . S
C369 C371 1.327 . S
C369 C375 1.429 . S
C370 C362 1.574 . S
C370 H365 0.949 . S
C370 C376 1.368 . S
C371 C355 1.349 . S
C371 H363 0.950 . S
C371 C369 1.327 . S
C372 C360 1.349 . S
C372 H366 0.950 . S
C372 C373 1.327 . S
C373 H367 0.950 . S
C373 C372 1.327 . S
C373 C377 1.429 . S
C374 C357 1.574 . S
C374 H368 0.949 . S
C374 C378 1.368 . S
C375 C356 1.429 . S
C375 C369 1.429 . S
C375 C376 1.523 . S
C376 C357 1.368 . S
C376 C370 1.368 . S
C376 C375 1.523 . S
C377 C361 1.429 . S
C377 C373 1.429 . S
C377 C378 1.523 . S
C378 C362 1.368 . S
C378 C374 1.368 . S
C378 C377 1.523 . S
H379 C354 0.950 . S
H380 C356 0.950 . S
H381 C357 0.949 . S
H382 C359 0.950 . S
H383 C361 0.950 . S
C384 C385 1.349 . S
C384 C386 1.327 . S
C384 H409 0.950 . S
C385 C384 1.349 . S
C385 C401 1.349 . S
C386 C384 1.327 . S
C386 C405 1.429 . S
C386 H410 0.950 . S
C387 C404 1.574 . S
C387 C406 1.368 . S
C387 H411 0.949 . S
H388 C392 0.949 . S
C389 C390 1.349 . S
C389 C391 1.327 . S
C389 H412 0.950 . S
C390 C389 1.349 . S
C390 C402 1.349 . S
C391 C389 1.327 . S
C391 C407 1.429 . S
C391 H413 0.950 . S
C392 H388 0.949 . S
C392 C400 1.574 . S
C392 C408 1.368 . S
H393 C401 0.950 . S
H394 C399 0.950 . S
H395 C400 0.949 . S
H396 C402 0.950 . S
H397 C403 0.950 . S
H398 C404 0.949 . S
C399 H394 0.950 . S
C399 C401 1.327 . S
C399 C405 1.429 . S
C400 C392 1.574 . S
C400 H395 0.949 . S
C400 C406 1.368 . S
C401 C385 1.349 . S
C401 H393 0.950 . S
C401 C399 1.327 . S
C402 C390 1.349 . S
C402 H396 0.950 . S
C402 C403 1.327 . S
C403 H397 0.950 . S
C403 C402 1.327 . S
C403 C407 1.429 . S
C404 C387 1.574 . S
C404 H398 0.949 . S
C404 C408 1.368 . S
C405 C386 1.429 . S
C405 C399 1.429 . S
C405 C406 1.523 . S
C406 C387 1.368 . S
C406 C400 1.368 . S
C406 C405 1.523 . S
C407 C391 1.429 . S
C407 C403 1.429 . S
C407 C408 1.523 . S
C408 C392 1.368 . S
C408 C404 1.368 . S
C408 C407 1.523 . S
H409 C384 0.950 . S
H410 C386 0.950 . S
H411 C387 0.949 . S
H412 C389 0.950 . S
H413 C391 0.950 . S
C414 C415 1.349 . S
C414 C416 1.327 . S
C414 H439 0.950 . S
C415 C414 1.349 . S
C415 C431 1.349 . S
C416 C414 1.327 . S
C416 C435 1.429 . S
C416 H440 0.950 . S
C417 C434 1.574 . S
C417 C436 1.368 . S
C417 H441 0.949 . S
H418 C422 0.949 . S
C419 C420 1.349 . S
C419 C421 1.327 . S
C419 H442 0.950 . S
C420 C419 1.349 . S
C420 C432 1.349 . S
C421 C419 1.327 . S
C421 C437 1.429 . S
C421 H443 0.950 . S
C422 H418 0.949 . S
C422 C430 1.574 . S
C422 C438 1.368 . S
H423 C431 0.950 . S
H424 C429 0.950 . S
H425 C430 0.949 . S
H426 C432 0.950 . S
H427 C433 0.950 . S
H428 C434 0.949 . S
C429 H424 0.950 . S
C429 C431 1.327 . S
C429 C435 1.429 . S
C430 C422 1.574 . S
C430 H425 0.949 . S
C430 C436 1.368 . S
C431 C415 1.349 . S
C431 H423 0.950 . S
C431 C429 1.327 . S
C432 C420 1.349 . S
C432 H426 0.950 . S
C432 C433 1.327 . S
C433 H427 0.950 . S
C433 C432 1.327 . S
C433 C437 1.429 . S
C434 C417 1.574 . S
C434 H428 0.949 . S
C434 C438 1.368 . S
C435 C416 1.429 . S
C435 C429 1.429 . S
C435 C436 1.523 . S
C436 C417 1.368 . S
C436 C430 1.368 . S
C436 C435 1.523 . S
C437 C421 1.429 . S
C437 C433 1.429 . S
C437 C438 1.523 . S
C438 C422 1.368 . S
C438 C434 1.368 . S
C438 C437 1.523 . S
H439 C414 0.950 . S
H440 C416 0.950 . S
H441 C417 0.949 . S
H442 C419 0.950 . S
H443 C421 0.950 . S
C444 C445 1.349 . S
C444 C446 1.327 . S
C444 H469 0.950 . S
C445 C444 1.349 . S
C445 C461 1.349 . S
C446 C444 1.327 . S
C446 C465 1.429 . S
C446 H470 0.950 . S
C447 C464 1.574 . S
C447 C466 1.368 . S
C447 H471 0.949 . S
H448 C452 0.949 . S
C449 C450 1.349 . S
C449 C451 1.327 . S
C449 H472 0.950 . S
C450 C449 1.349 . S
C450 C462 1.349 . S
C451 C449 1.327 . S
C451 C467 1.429 . S
C451 H473 0.950 . S
C452 H448 0.949 . S
C452 C460 1.574 . S
C452 C468 1.368 . S
H453 C461 0.950 . S
H454 C459 0.950 . S
H455 C460 0.949 . S
H456 C462 0.950 . S
H457 C463 0.950 . S
H458 C464 0.949 . S
C459 H454 0.950 . S
C459 C461 1.327 . S
C459 C465 1.429 . S
C460 C452 1.574 . S
C460 H455 0.949 . S
C460 C466 1.368 . S
C461 C445 1.349 . S
C461 H453 0.950 . S
C461 C459 1.327 . S
C462 C450 1.349 . S
C462 H456 0.950 . S
C462 C463 1.327 . S
C463 H457 0.950 . S
C463 C462 1.327 . S
C463 C467 1.429 . S
C464 C447 1.574 . S
C464 H458 0.949 . S
C464 C468 1.368 . S
C465 C446 1.429 . S
C465 C459 1.429 . S
C465 C466 1.523 . S
C466 C447 1.368 . S
C466 C460 1.368 . S
C466 C465 1.523 . S
C467 C451 1.429 . S
C467 C463 1.429 . S
C467 C468 1.523 . S
C468 C452 1.368 . S
C468 C464 1.368 . S
C468 C467 1.523 . S
H469 C444 0.950 . S
H470 C446 0.950 . S
H471 C447 0.949 . S
H472 C449 0.950 . S
H473 C451 0.950 . S
C474 C475 1.349 . S
C474 C476 1.327 . S
C474 H499 0.950 . S
C475 C474 1.349 . S
C475 C491 1.349 . S
C476 C474 1.327 . S
C476 C495 1.429 . S
C476 H500 0.950 . S
C477 C494 1.583 . S
C477 C496 1.368 . S
C477 H501 0.956 . S
H478 C482 0.949 . S
C479 C480 1.349 . S
C479 C481 1.327 . S
C479 H502 0.950 . S
C480 C479 1.349 . S
C480 C492 1.349 . S
C481 C479 1.327 . S
C481 C497 1.429 . S
C481 H503 0.950 . S
C482 H478 0.949 . S
C482 C490 1.574 . S
C482 C498 1.368 1_554 S
H483 C491 0.950 1_655 S
H484 C489 0.950 1_655 S
H485 C490 0.949 . S
H486 C492 0.950 . S
H487 C493 0.950 . S
H488 C494 0.943 1_556 S
C489 H484 0.950 1_455 S
C489 C491 1.327 . S
C489 C495 1.429 . S
C490 C482 1.574 . S
C490 H485 0.949 . S
C490 C496 1.368 . S
C491 C475 1.349 . S
C491 H483 0.950 1_455 S
C491 C489 1.327 . S
C492 C480 1.349 . S
C492 H486 0.950 . S
C492 C493 1.327 . S
C493 H487 0.950 . S
C493 C492 1.327 . S
C493 C497 1.429 . S
C494 C477 1.583 . S
C494 H488 0.943 1_554 S
C494 C498 1.366 1_554 S
C495 C476 1.429 . S
C495 C489 1.429 . S
C495 C496 1.523 . S
C496 C477 1.368 . S
C496 C490 1.368 . S
C496 C495 1.523 . S
C497 C481 1.429 . S
C497 C493 1.429 . S
C497 C498 1.523 . S
C498 C482 1.368 1_556 S
C498 C494 1.366 1_556 S
C498 C497 1.523 . S
H499 C474 0.950 . S
H500 C476 0.950 . S
H501 C477 0.956 . S
H502 C479 0.950 . S
H503 C481 0.950 . S
C504 C505 1.349 . S
C504 C506 1.327 . S
C504 H529 0.950 1_545 S
C505 C504 1.349 . S
C505 C521 1.349 . S
C506 C504 1.327 . S
C506 C525 1.429 . S
C506 H530 0.950 1_545 S
C507 C524 1.574 . S
C507 C526 1.368 . S
C507 H531 0.949 . S
H508 C512 0.949 1_565 S
C509 C510 1.349 . S
C509 C511 1.327 . S
C509 H532 0.950 . S
C510 C509 1.349 . S
C510 C522 1.349 . S
C511 C509 1.327 . S
C511 C527 1.429 . S
C511 H533 0.950 . S
C512 H508 0.949 1_545 S
C512 C520 1.574 . S
C512 C528 1.368 . S
H513 C521 0.950 . S
H514 C519 0.950 . S
H515 C520 0.949 1_565 S
H516 C522 0.950 1_565 S
H517 C523 0.950 1_565 S
H518 C524 0.949 . S
C519 H514 0.950 . S
C519 C521 1.327 . S
C519 C525 1.429 . S
C520 C512 1.574 . S
C520 H515 0.949 1_545 S
C520 C526 1.368 . S
C521 C505 1.349 . S
C521 H513 0.950 . S
C521 C519 1.327 . S
C522 C510 1.349 . S
C522 H516 0.950 1_545 S
C522 C523 1.327 . S
C523 H517 0.950 1_545 S
C523 C522 1.327 . S
C523 C527 1.429 . S
C524 C507 1.574 . S
C524 H518 0.949 . S
C524 C528 1.368 . S
C525 C506 1.429 . S
C525 C519 1.429 . S
C525 C526 1.523 . S
C526 C507 1.368 . S
C526 C520 1.368 . S
C526 C525 1.523 . S
C527 C511 1.429 . S
C527 C523 1.429 . S
C527 C528 1.523 . S
C528 C512 1.368 . S
C528 C524 1.368 . S
C528 C527 1.523 . S
H529 C504 0.950 1_565 S
H530 C506 0.950 1_565 S
H531 C507 0.949 . S
H532 C509 0.950 . S
H533 C511 0.950 . S
C534 C535 1.349 . S
C534 C536 1.327 . S
C534 H559 0.950 . S
C535 C534 1.349 . S
C535 C551 1.349 . S
C536 C534 1.327 . S
C536 C555 1.429 . S
C536 H560 0.950 . S
C537 C554 1.574 . S
C537 C556 1.368 . S
C537 H561 0.949 . S
H538 C542 0.949 . S
C539 C540 1.349 . S
C539 C541 1.327 . S
C539 H562 0.950 . S
C540 C539 1.349 . S
C540 C552 1.349 . S
C541 C539 1.327 . S
C541 C557 1.429 . S
C541 H563 0.950 . S
C542 H538 0.949 . S
C542 C550 1.574 . S
C542 C558 1.368 . S
H543 C551 0.950 . S
H544 C549 0.950 . S
H545 C550 0.949 . S
H546 C552 0.950 . S
H547 C553 0.950 . S
H548 C554 0.949 . S
C549 H544 0.950 . S
C549 C551 1.327 . S
C549 C555 1.429 . S
C550 C542 1.574 . S
C550 H545 0.949 . S
C550 C556 1.368 . S
C551 C535 1.349 . S
C551 H543 0.950 . S
C551 C549 1.327 . S
C552 C540 1.349 . S
C552 H546 0.950 . S
C552 C553 1.327 . S
C553 H547 0.950 . S
C553 C552 1.327 . S
C553 C557 1.429 . S
C554 C537 1.574 . S
C554 H548 0.949 . S
C554 C558 1.368 . S
C555 C536 1.429 . S
C555 C549 1.429 . S
C555 C556 1.523 . S
C556 C537 1.368 . S
C556 C550 1.368 . S
C556 C555 1.523 . S
C557 C541 1.429 . S
C557 C553 1.429 . S
C557 C558 1.523 . S
C558 C542 1.368 . S
C558 C554 1.368 . S
C558 C557 1.523 . S
H559 C534 0.950 . S
H560 C536 0.950 . S
H561 C537 0.949 . S
H562 C539 0.950 . S
H563 C541 0.950 . S
C564 C565 1.349 1_565 S
C564 C566 1.327 . S
C564 H589 0.950 . S
C565 C564 1.349 1_545 S
C565 C581 1.349 . S
C566 C564 1.327 . S
C566 C585 1.429 1_565 S
C566 H590 0.950 . S
C567 C584 1.574 . S
C567 C586 1.368 . S
C567 H591 0.949 . S
H568 C572 0.949 . S
C569 C570 1.349 . S
C569 C571 1.327 . S
C569 H592 0.950 . S
C570 C569 1.349 . S
C570 C582 1.349 1_545 S
C571 C569 1.327 . S
C571 C587 1.429 . S
C571 H593 0.950 . S
C572 H568 0.949 . S
C572 C580 1.574 . S
C572 C588 1.368 1_565 S
H573 C581 0.950 . S
H574 C579 0.950 . S
H575 C580 0.949 . S
H576 C582 0.950 . S
H577 C583 0.950 . S
H578 C584 0.949 . S
C579 H574 0.950 . S
C579 C581 1.327 . S
C579 C585 1.429 . S
C580 C572 1.574 . S
C580 H575 0.949 . S
C580 C586 1.368 1_565 S
C581 C565 1.349 . S
C581 H573 0.950 . S
C581 C579 1.327 . S
C582 C570 1.349 1_565 S
C582 H576 0.950 . S
C582 C583 1.327 . S
C583 H577 0.950 . S
C583 C582 1.327 . S
C583 C587 1.429 1_565 S
C584 C567 1.574 . S
C584 H578 0.949 . S
C584 C588 1.368 . S
C585 C566 1.429 1_545 S
C585 C579 1.429 . S
C585 C586 1.523 . S
C586 C567 1.368 . S
C586 C580 1.368 1_545 S
C586 C585 1.523 . S
C587 C571 1.429 . S
C587 C583 1.429 1_545 S
C587 C588 1.523 . S
C588 C572 1.368 1_545 S
C588 C584 1.368 . S
C588 C587 1.523 . S
H589 C564 0.950 . S
H590 C566 0.950 . S
H591 C567 0.949 . S
H592 C569 0.950 . S
H593 C571 0.950 . S
C594 C595 1.349 . S
C594 C596 1.327 . S
C594 H619 0.950 . S
C595 C594 1.349 . S
C595 C611 1.349 . S
C596 C594 1.327 . S
C596 C615 1.429 . S
C596 H620 0.950 . S
C597 C614 1.574 . S
C597 C616 1.368 . S
C597 H621 0.949 . S
H598 C602 0.949 . S
C599 C600 1.349 . S
C599 C601 1.327 . S
C599 H622 0.950 . S
C600 C599 1.349 . S
C600 C612 1.349 . S
C601 C599 1.327 . S
C601 C617 1.429 . S
C601 H623 0.950 . S
C602 H598 0.949 . S
C602 C610 1.574 . S
C602 C618 1.367 . S
H603 C611 0.950 . S
H604 C609 0.950 . S
H605 C610 0.949 . S
H606 C612 0.950 . S
H607 C613 0.950 . S
H608 C614 0.949 1_554 S
C609 H604 0.950 . S
C609 C611 1.327 . S
C609 C615 1.429 . S
C610 C602 1.574 . S
C610 H605 0.949 . S
C610 C616 1.368 . S
C611 C595 1.349 . S
C611 H603 0.950 . S
C611 C609 1.327 . S
C612 C600 1.349 . S
C612 H606 0.950 . S
C612 C613 1.327 . S
C613 H607 0.950 . S
C613 C612 1.327 . S
C613 C617 1.429 . S
C614 C597 1.574 . S
C614 H608 0.949 1_556 S
C614 C618 1.368 . S
C615 C596 1.429 . S
C615 C609 1.429 . S
C615 C616 1.523 . S
C616 C597 1.368 . S
C616 C610 1.368 . S
C616 C615 1.523 . S
C617 C601 1.429 . S
C617 C613 1.429 . S
C617 C618 1.525 1_554 S
C618 C602 1.367 . S
C618 C614 1.368 . S
C618 C617 1.525 1_556 S
H619 C594 0.950 . S
H620 C596 0.950 . S
H621 C597 0.949 . S
H622 C599 0.950 . S
H623 C601 0.950 . S
C624 C625 1.349 . S
C624 C626 1.327 . S
C624 H649 0.950 . S
C625 C624 1.349 . S
C625 C641 1.349 . S
C626 C624 1.327 . S
C626 C645 1.429 . S
C626 H650 0.950 . S
C627 C644 1.574 . S
C627 C646 1.368 . S
C627 H651 0.949 . S
H628 C632 0.949 . S
C629 C630 1.349 1_655 S
C629 C631 1.328 . S
C629 H652 0.950 . S
C630 C629 1.349 1_455 S
C630 C642 1.349 . S
C631 C629 1.328 . S
C631 C647 1.424 1_655 S
C631 H653 0.953 . S
C632 H628 0.949 . S
C632 C640 1.574 . S
C632 C648 1.368 . S
H633 C641 0.950 . S
H634 C639 0.950 . S
H635 C640 0.949 . S
H636 C642 0.950 . S
H637 C643 0.950 . S
H638 C644 0.947 . S
C639 H634 0.950 . S
C639 C641 1.327 . S
C639 C645 1.429 . S
C640 C632 1.574 . S
C640 H635 0.949 . S
C640 C646 1.368 . S
C641 C625 1.349 . S
C641 H633 0.950 . S
C641 C639 1.327 . S
C642 C630 1.349 . S
C642 H636 0.950 . S
C642 C643 1.327 . S
C643 H637 0.950 . S
C643 C642 1.327 . S
C643 C647 1.429 . S
C644 C627 1.574 . S
C644 H638 0.947 . S
C644 C648 1.368 . S
C645 C626 1.429 . S
C645 C639 1.429 . S
C645 C646 1.523 . S
C646 C627 1.368 . S
C646 C640 1.368 . S
C646 C645 1.523 . S
C647 C631 1.424 1_455 S
C647 C643 1.429 . S
C647 C648 1.523 . S
C648 C632 1.368 . S
C648 C644 1.368 . S
C648 C647 1.523 . S
H649 C624 0.950 . S
H650 C626 0.950 . S
H651 C627 0.949 . S
H652 C629 0.950 . S
H653 C631 0.953 . S
C115 C8 1.861 . S
C120 C109 1.915 . S
C145 C26 1.244 . S
C150 C91 1.260 . S
C175 C48 1.381 . S
C180 C103 1.417 . S
C205 C19 1.631 . S
C210 C112 1.710 . S
C240 C94 1.361 . S
C235 C36 1.337 . S
C270 C100 1.590 . S
C265 C59 1.500 . S
C295 C28 1.413 . S
C300 C73 1.457 . S
C325 C46 1.101 . S
C330 C82 1.117 . S
C355 C16 1.412 . S
C360 C64 1.444 1_565 S
C390 C76 1.534 . S
C385 C39 1.462 . S
C420 C85 0.919 . S
C415 C56 0.904 . S
C445 C6 1.268 . S
C450 C67 1.274 . S
C480 C83 1.435 . S
C475 C9 1.403 . S
C505 C21 1.478 . S
C510 C65 1.499 . S
C535 C49 1.463 . S
C540 C74 1.483 . S
C570 C101 1.460 . S
C565 C29 1.444 . S
C600 C110 1.584 . S
C595 C41 1.565 . S
C625 C1 1.489 . S
C630 C92 1.506 . S
