# Generated by pormake.
# Topology tbo, (3,4)-cn, num edge types: 1
# Building blocks:
#     Node 0, Type 0, BuildingBlock: WUSLED_clean_sbu_0, # of connection points: 3
#     Node 1, Type 0, BuildingBlock: WUSLED_clean_sbu_0, # of connection points: 3
#     Node 2, Type 0, BuildingBlock: WUSLED_clean_sbu_0, # of connection points: 3
#     Node 3, Type 0, BuildingBlock: WUSLED_clean_sbu_0, # of connection points: 3
#     Node 4, Type 0, BuildingBlock: WUSLED_clean_sbu_0, # of connection points: 3
#     Node 5, Type 0, BuildingBlock: WUSLED_clean_sbu_0, # of connection points: 3
#     Node 6, Type 0, BuildingBlock: WUSLED_clean_sbu_0, # of connection points: 3
#     Node 7, Type 0, BuildingBlock: WUSLED_clean_sbu_0, # of connection points: 3
#     Node 8, Type 0, BuildingBlock: WUSLED_clean_sbu_0, # of connection points: 3
#     Node 9, Type 0, BuildingBlock: WUSLED_clean_sbu_0, # of connection points: 3
#     Node 10, Type 0, BuildingBlock: WUSLED_clean_sbu_0, # of connection points: 3
#     Node 11, Type 0, BuildingBlock: WUSLED_clean_sbu_0, # of connection points: 3
#     Node 12, Type 0, BuildingBlock: WUSLED_clean_sbu_0, # of connection points: 3
#     Node 13, Type 0, BuildingBlock: WUSLED_clean_sbu_0, # of connection points: 3
#     Node 14, Type 0, BuildingBlock: WUSLED_clean_sbu_0, # of connection points: 3
#     Node 15, Type 0, BuildingBlock: WUSLED_clean_sbu_0, # of connection points: 3
#     Node 16, Type 0, BuildingBlock: WUSLED_clean_sbu_0, # of connection points: 3
#     Node 17, Type 0, BuildingBlock: WUSLED_clean_sbu_0, # of connection points: 3
#     Node 18, Type 0, BuildingBlock: WUSLED_clean_sbu_0, # of connection points: 3
#     Node 19, Type 0, BuildingBlock: WUSLED_clean_sbu_0, # of connection points: 3
#     Node 20, Type 0, BuildingBlock: WUSLED_clean_sbu_0, # of connection points: 3
#     Node 21, Type 0, BuildingBlock: WUSLED_clean_sbu_0, # of connection points: 3
#     Node 22, Type 0, BuildingBlock: WUSLED_clean_sbu_0, # of connection points: 3
#     Node 23, Type 0, BuildingBlock: WUSLED_clean_sbu_0, # of connection points: 3
#     Node 24, Type 0, BuildingBlock: WUSLED_clean_sbu_0, # of connection points: 3
#     Node 25, Type 0, BuildingBlock: WUSLED_clean_sbu_0, # of connection points: 3
#     Node 26, Type 0, BuildingBlock: WUSLED_clean_sbu_0, # of connection points: 3
#     Node 27, Type 0, BuildingBlock: WUSLED_clean_sbu_0, # of connection points: 3
#     Node 28, Type 0, BuildingBlock: WUSLED_clean_sbu_0, # of connection points: 3
#     Node 29, Type 0, BuildingBlock: WUSLED_clean_sbu_0, # of connection points: 3
#     Node 30, Type 0, BuildingBlock: WUSLED_clean_sbu_0, # of connection points: 3
#     Node 31, Type 0, BuildingBlock: WUSLED_clean_sbu_0, # of connection points: 3
#     Node 32, Type 1, BuildingBlock: MIFKUJ_clean_linker_1, # of connection points: 4
#     Node 33, Type 1, BuildingBlock: MIFKUJ_clean_linker_1, # of connection points: 4
#     Node 34, Type 1, BuildingBlock: MIFKUJ_clean_linker_1, # of connection points: 4
#     Node 35, Type 1, BuildingBlock: MIFKUJ_clean_linker_1, # of connection points: 4
#     Node 36, Type 1, BuildingBlock: MIFKUJ_clean_linker_1, # of connection points: 4
#     Node 37, Type 1, BuildingBlock: MIFKUJ_clean_linker_1, # of connection points: 4
#     Node 38, Type 1, BuildingBlock: MIFKUJ_clean_linker_1, # of connection points: 4
#     Node 39, Type 1, BuildingBlock: MIFKUJ_clean_linker_1, # of connection points: 4
#     Node 40, Type 1, BuildingBlock: MIFKUJ_clean_linker_1, # of connection points: 4
#     Node 41, Type 1, BuildingBlock: MIFKUJ_clean_linker_1, # of connection points: 4
#     Node 42, Type 1, BuildingBlock: MIFKUJ_clean_linker_1, # of connection points: 4
#     Node 43, Type 1, BuildingBlock: MIFKUJ_clean_linker_1, # of connection points: 4
#     Node 44, Type 1, BuildingBlock: MIFKUJ_clean_linker_1, # of connection points: 4
#     Node 45, Type 1, BuildingBlock: MIFKUJ_clean_linker_1, # of connection points: 4
#     Node 46, Type 1, BuildingBlock: MIFKUJ_clean_linker_1, # of connection points: 4
#     Node 47, Type 1, BuildingBlock: MIFKUJ_clean_linker_1, # of connection points: 4
#     Node 48, Type 1, BuildingBlock: MIFKUJ_clean_linker_1, # of connection points: 4
#     Node 49, Type 1, BuildingBlock: MIFKUJ_clean_linker_1, # of connection points: 4
#     Node 50, Type 1, BuildingBlock: MIFKUJ_clean_linker_1, # of connection points: 4
#     Node 51, Type 1, BuildingBlock: MIFKUJ_clean_linker_1, # of connection points: 4
#     Node 52, Type 1, BuildingBlock: MIFKUJ_clean_linker_1, # of connection points: 4
#     Node 53, Type 1, BuildingBlock: MIFKUJ_clean_linker_1, # of connection points: 4
#     Node 54, Type 1, BuildingBlock: MIFKUJ_clean_linker_1, # of connection points: 4
#     Node 55, Type 1, BuildingBlock: MIFKUJ_clean_linker_1, # of connection points: 4
#     Edge 56, Type (0, 1), BuildingBlock: XIVTED_clean_linker_0, # of connection points: 2
#     Edge 57, Type (0, 1), BuildingBlock: XIVTED_clean_linker_0, # of connection points: 2
#     Edge 58, Type (0, 1), BuildingBlock: XIVTED_clean_linker_0, # of connection points: 2
#     Edge 59, Type (0, 1), BuildingBlock: XIVTED_clean_linker_0, # of connection points: 2
#     Edge 60, Type (0, 1), BuildingBlock: XIVTED_clean_linker_0, # of connection points: 2
#     Edge 61, Type (0, 1), BuildingBlock: XIVTED_clean_linker_0, # of connection points: 2
#     Edge 62, Type (0, 1), BuildingBlock: XIVTED_clean_linker_0, # of connection points: 2
#     Edge 63, Type (0, 1), BuildingBlock: XIVTED_clean_linker_0, # of connection points: 2
#     Edge 64, Type (0, 1), BuildingBlock: XIVTED_clean_linker_0, # of connection points: 2
#     Edge 65, Type (0, 1), BuildingBlock: XIVTED_clean_linker_0, # of connection points: 2
#     Edge 66, Type (0, 1), BuildingBlock: XIVTED_clean_linker_0, # of connection points: 2
#     Edge 67, Type (0, 1), BuildingBlock: XIVTED_clean_linker_0, # of connection points: 2
#     Edge 68, Type (0, 1), BuildingBlock: XIVTED_clean_linker_0, # of connection points: 2
#     Edge 69, Type (0, 1), BuildingBlock: XIVTED_clean_linker_0, # of connection points: 2
#     Edge 70, Type (0, 1), BuildingBlock: XIVTED_clean_linker_0, # of connection points: 2
#     Edge 71, Type (0, 1), BuildingBlock: XIVTED_clean_linker_0, # of connection points: 2
#     Edge 72, Type (0, 1), BuildingBlock: XIVTED_clean_linker_0, # of connection points: 2
#     Edge 73, Type (0, 1), BuildingBlock: XIVTED_clean_linker_0, # of connection points: 2
#     Edge 74, Type (0, 1), BuildingBlock: XIVTED_clean_linker_0, # of connection points: 2
#     Edge 75, Type (0, 1), BuildingBlock: XIVTED_clean_linker_0, # of connection points: 2
#     Edge 76, Type (0, 1), BuildingBlock: XIVTED_clean_linker_0, # of connection points: 2
#     Edge 77, Type (0, 1), BuildingBlock: XIVTED_clean_linker_0, # of connection points: 2
#     Edge 78, Type (0, 1), BuildingBlock: XIVTED_clean_linker_0, # of connection points: 2
#     Edge 79, Type (0, 1), BuildingBlock: XIVTED_clean_linker_0, # of connection points: 2
#     Edge 80, Type (0, 1), BuildingBlock: XIVTED_clean_linker_0, # of connection points: 2
#     Edge 81, Type (0, 1), BuildingBlock: XIVTED_clean_linker_0, # of connection points: 2
#     Edge 82, Type (0, 1), BuildingBlock: XIVTED_clean_linker_0, # of connection points: 2
#     Edge 83, Type (0, 1), BuildingBlock: XIVTED_clean_linker_0, # of connection points: 2
#     Edge 84, Type (0, 1), BuildingBlock: XIVTED_clean_linker_0, # of connection points: 2
#     Edge 85, Type (0, 1), BuildingBlock: XIVTED_clean_linker_0, # of connection points: 2
#     Edge 86, Type (0, 1), BuildingBlock: XIVTED_clean_linker_0, # of connection points: 2
#     Edge 87, Type (0, 1), BuildingBlock: XIVTED_clean_linker_0, # of connection points: 2
#     Edge 88, Type (0, 1), BuildingBlock: XIVTED_clean_linker_0, # of connection points: 2
#     Edge 89, Type (0, 1), BuildingBlock: XIVTED_clean_linker_0, # of connection points: 2
#     Edge 90, Type (0, 1), BuildingBlock: XIVTED_clean_linker_0, # of connection points: 2
#     Edge 91, Type (0, 1), BuildingBlock: XIVTED_clean_linker_0, # of connection points: 2
#     Edge 92, Type (0, 1), BuildingBlock: XIVTED_clean_linker_0, # of connection points: 2
#     Edge 93, Type (0, 1), BuildingBlock: XIVTED_clean_linker_0, # of connection points: 2
#     Edge 94, Type (0, 1), BuildingBlock: XIVTED_clean_linker_0, # of connection points: 2
#     Edge 95, Type (0, 1), BuildingBlock: XIVTED_clean_linker_0, # of connection points: 2
#     Edge 96, Type (0, 1), BuildingBlock: XIVTED_clean_linker_0, # of connection points: 2
#     Edge 97, Type (0, 1), BuildingBlock: XIVTED_clean_linker_0, # of connection points: 2
#     Edge 98, Type (0, 1), BuildingBlock: XIVTED_clean_linker_0, # of connection points: 2
#     Edge 99, Type (0, 1), BuildingBlock: XIVTED_clean_linker_0, # of connection points: 2
#     Edge 100, Type (0, 1), BuildingBlock: XIVTED_clean_linker_0, # of connection points: 2
#     Edge 101, Type (0, 1), BuildingBlock: XIVTED_clean_linker_0, # of connection points: 2
#     Edge 102, Type (0, 1), BuildingBlock: XIVTED_clean_linker_0, # of connection points: 2
#     Edge 103, Type (0, 1), BuildingBlock: XIVTED_clean_linker_0, # of connection points: 2
#     Edge 104, Type (0, 1), BuildingBlock: XIVTED_clean_linker_0, # of connection points: 2
#     Edge 105, Type (0, 1), BuildingBlock: XIVTED_clean_linker_0, # of connection points: 2
#     Edge 106, Type (0, 1), BuildingBlock: XIVTED_clean_linker_0, # of connection points: 2
#     Edge 107, Type (0, 1), BuildingBlock: XIVTED_clean_linker_0, # of connection points: 2
#     Edge 108, Type (0, 1), BuildingBlock: XIVTED_clean_linker_0, # of connection points: 2
#     Edge 109, Type (0, 1), BuildingBlock: XIVTED_clean_linker_0, # of connection points: 2
#     Edge 110, Type (0, 1), BuildingBlock: XIVTED_clean_linker_0, # of connection points: 2
#     Edge 111, Type (0, 1), BuildingBlock: XIVTED_clean_linker_0, # of connection points: 2
#     Edge 112, Type (0, 1), BuildingBlock: XIVTED_clean_linker_0, # of connection points: 2
#     Edge 113, Type (0, 1), BuildingBlock: XIVTED_clean_linker_0, # of connection points: 2
#     Edge 114, Type (0, 1), BuildingBlock: XIVTED_clean_linker_0, # of connection points: 2
#     Edge 115, Type (0, 1), BuildingBlock: XIVTED_clean_linker_0, # of connection points: 2
#     Edge 116, Type (0, 1), BuildingBlock: XIVTED_clean_linker_0, # of connection points: 2
#     Edge 117, Type (0, 1), BuildingBlock: XIVTED_clean_linker_0, # of connection points: 2
#     Edge 118, Type (0, 1), BuildingBlock: XIVTED_clean_linker_0, # of connection points: 2
#     Edge 119, Type (0, 1), BuildingBlock: XIVTED_clean_linker_0, # of connection points: 2
#     Edge 120, Type (0, 1), BuildingBlock: XIVTED_clean_linker_0, # of connection points: 2
#     Edge 121, Type (0, 1), BuildingBlock: XIVTED_clean_linker_0, # of connection points: 2
#     Edge 122, Type (0, 1), BuildingBlock: XIVTED_clean_linker_0, # of connection points: 2
#     Edge 123, Type (0, 1), BuildingBlock: XIVTED_clean_linker_0, # of connection points: 2
#     Edge 124, Type (0, 1), BuildingBlock: XIVTED_clean_linker_0, # of connection points: 2
#     Edge 125, Type (0, 1), BuildingBlock: XIVTED_clean_linker_0, # of connection points: 2
#     Edge 126, Type (0, 1), BuildingBlock: XIVTED_clean_linker_0, # of connection points: 2
#     Edge 127, Type (0, 1), BuildingBlock: XIVTED_clean_linker_0, # of connection points: 2
#     Edge 128, Type (0, 1), BuildingBlock: XIVTED_clean_linker_0, # of connection points: 2
#     Edge 129, Type (0, 1), BuildingBlock: XIVTED_clean_linker_0, # of connection points: 2
#     Edge 130, Type (0, 1), BuildingBlock: XIVTED_clean_linker_0, # of connection points: 2
#     Edge 131, Type (0, 1), BuildingBlock: XIVTED_clean_linker_0, # of connection points: 2
#     Edge 132, Type (0, 1), BuildingBlock: XIVTED_clean_linker_0, # of connection points: 2
#     Edge 133, Type (0, 1), BuildingBlock: XIVTED_clean_linker_0, # of connection points: 2
#     Edge 134, Type (0, 1), BuildingBlock: XIVTED_clean_linker_0, # of connection points: 2
#     Edge 135, Type (0, 1), BuildingBlock: XIVTED_clean_linker_0, # of connection points: 2
#     Edge 136, Type (0, 1), BuildingBlock: XIVTED_clean_linker_0, # of connection points: 2
#     Edge 137, Type (0, 1), BuildingBlock: XIVTED_clean_linker_0, # of connection points: 2
#     Edge 138, Type (0, 1), BuildingBlock: XIVTED_clean_linker_0, # of connection points: 2
#     Edge 139, Type (0, 1), BuildingBlock: XIVTED_clean_linker_0, # of connection points: 2
#     Edge 140, Type (0, 1), BuildingBlock: XIVTED_clean_linker_0, # of connection points: 2
#     Edge 141, Type (0, 1), BuildingBlock: XIVTED_clean_linker_0, # of connection points: 2
#     Edge 142, Type (0, 1), BuildingBlock: XIVTED_clean_linker_0, # of connection points: 2
#     Edge 143, Type (0, 1), BuildingBlock: XIVTED_clean_linker_0, # of connection points: 2
#     Edge 144, Type (0, 1), BuildingBlock: XIVTED_clean_linker_0, # of connection points: 2
#     Edge 145, Type (0, 1), BuildingBlock: XIVTED_clean_linker_0, # of connection points: 2
#     Edge 146, Type (0, 1), BuildingBlock: XIVTED_clean_linker_0, # of connection points: 2
#     Edge 147, Type (0, 1), BuildingBlock: XIVTED_clean_linker_0, # of connection points: 2
#     Edge 148, Type (0, 1), BuildingBlock: XIVTED_clean_linker_0, # of connection points: 2
#     Edge 149, Type (0, 1), BuildingBlock: XIVTED_clean_linker_0, # of connection points: 2
#     Edge 150, Type (0, 1), BuildingBlock: XIVTED_clean_linker_0, # of connection points: 2
#     Edge 151, Type (0, 1), BuildingBlock: XIVTED_clean_linker_0, # of connection points: 2
# Relax obj value: 0.000
# Max RMSD: 0.011
# Mean RMSD: 0.006
data_MOF--net-tbo--node1-WUSLED_clean_sbu_0--node2-MIFKUJ_clean_linker_1--edge1-XIVTED_clean_linker_0
_symmetry_space_group_name_H-M    P1
_symmetry_Int_Tables_number       1
_symmetry_cell_setting            triclinic
loop_
_symmetry_equiv_pos_as_xyz
'x, y, z'
_cell_length_a     108.54223
_cell_length_b     108.98218
_cell_length_c     108.78243
_cell_angle_alpha  89.678161
_cell_angle_beta   90.310675
_cell_angle_gamma 90.715387
loop_
_atom_site_label
_atom_site_type_symbol
_atom_site_fract_x
_atom_site_fract_y
_atom_site_fract_z
_atom_type_partial_charge
C0 C 0.18389 0.15079 0.20155 0.0
C1 C 0.19641 0.14931 0.19883 0.0
C2 C 0.19651 0.12979 0.20997 0.0
C3 C 0.20267 0.1389 0.20301 0.0
C4 C 0.18389 0.13125 0.21241 0.0
C5 C 0.17767 0.14165 0.20826 0.0
U6 U 0.17891 0.17887 0.1806 0.0
O7 O 0.16167 0.18659 0.17341 0.0
O8 O 0.17351 0.19761 0.18562 0.0
C9 C 0.16283 0.19668 0.17992 0.0
C10 C 0.17717 0.16187 0.19775 0.0
C11 C 0.15194 0.2005 0.18704 0.0
C12 C 0.13147 0.19661 0.19539 0.0
C13 C 0.14186 0.19253 0.18909 0.0
C14 C 0.14115 0.21657 0.19793 0.0
C15 C 0.13097 0.20869 0.19984 0.0
C16 C 0.15149 0.21252 0.19156 0.0
C17 C 0.20101 0.18518 0.15365 0.0
C18 C 0.19714 0.19828 0.13588 0.0
C19 C 0.21777 0.19108 0.14003 0.0
C20 C 0.21349 0.18484 0.15046 0.0
C21 C 0.20964 0.19777 0.13251 0.0
C22 C 0.19287 0.19205 0.14637 0.0
C23 C 0.19672 0.17802 0.16438 0.0
O24 O 0.18304 0.17238 0.19932 0.0
O25 O 0.17127 0.16121 0.1872 0.0
O26 O 0.18613 0.17218 0.16307 0.0
O27 O 0.19797 0.18337 0.17512 0.0
H28 H 0.20137 0.15625 0.19362 0.0
H29 H 0.2124 0.13814 0.20104 0.0
H30 H 0.17878 0.12433 0.21751 0.0
H31 H 0.16799 0.1426 0.21038 0.0
H32 H 0.12383 0.19027 0.19682 0.0
H33 H 0.14194 0.18318 0.18578 0.0
H34 H 0.14102 0.22597 0.2011 0.0
H35 H 0.15911 0.21886 0.19004 0.0
H36 H 0.19059 0.20324 0.13027 0.0
H37 H 0.22749 0.19067 0.13789 0.0
H38 H 0.21993 0.17965 0.15601 0.0
H39 H 0.18319 0.19246 0.14869 0.0
C40 C 0.8165 0.18547 0.15563 0.0
C41 C 0.82491 0.19131 0.1477 0.0
C42 C 0.80805 0.19789 0.13439 0.0
C43 C 0.82073 0.19743 0.13716 0.0
C44 C 0.79967 0.1922 0.14252 0.0
C45 C 0.80387 0.18603 0.15301 0.0
U46 U 0.83908 0.18044 0.18228 0.0
O47 O 0.83537 0.17515 0.2015 0.0
O48 O 0.84663 0.16338 0.18986 0.0
C49 C 0.84093 0.16457 0.20041 0.0
C50 C 0.82066 0.17871 0.16663 0.0
C51 C 0.83383 0.15374 0.20455 0.0
C52 C 0.81922 0.13713 0.20055 0.0
C53 C 0.82566 0.14761 0.19656 0.0
C54 C 0.82885 0.13897 0.22062 0.0
C55 C 0.82077 0.13267 0.21262 0.0
C56 C 0.83532 0.1494 0.2166 0.0
C57 C 0.86686 0.20198 0.18628 0.0
C58 C 0.87997 0.20208 0.20447 0.0
C59 C 0.88611 0.21357 0.18633 0.0
C60 C 0.87536 0.20968 0.18029 0.0
C61 C 0.88854 0.20984 0.1985 0.0
C62 C 0.86924 0.19814 0.19839 0.0
C63 C 0.85561 0.19805 0.17974 0.0
O64 O 0.83096 0.17258 0.16549 0.0
O65 O 0.81995 0.18467 0.17706 0.0
O66 O 0.84524 0.19941 0.18574 0.0
O67 O 0.85628 0.18747 0.17405 0.0
H68 H 0.83472 0.19105 0.14959 0.0
H69 H 0.82746 0.20158 0.13106 0.0
H70 H 0.78984 0.19256 0.14085 0.0
H71 H 0.79723 0.18166 0.15908 0.0
H72 H 0.81296 0.13258 0.19422 0.0
H73 H 0.82432 0.15089 0.18724 0.0
H74 H 0.83035 0.13571 0.22992 0.0
H75 H 0.84159 0.15403 0.22288 0.0
H76 H 0.88163 0.19893 0.21379 0.0
H77 H 0.89243 0.21965 0.18152 0.0
H78 H 0.87367 0.21273 0.17095 0.0
H79 H 0.8628 0.19212 0.20313 0.0
C80 C 0.82077 0.83661 0.1522 0.0
C81 C 0.82365 0.82416 0.15091 0.0
C82 C 0.81326 0.82364 0.13095 0.0
C83 C 0.81988 0.81771 0.1404 0.0
C84 C 0.81047 0.83613 0.13232 0.0
C85 C 0.81418 0.84253 0.14283 0.0
U86 U 0.84176 0.84236 0.18017 0.0
O87 O 0.84935 0.85984 0.18718 0.0
O88 O 0.83714 0.84855 0.19876 0.0
C89 C 0.84309 0.85906 0.19747 0.0
C90 C 0.82454 0.84364 0.16316 0.0
C91 C 0.83639 0.87018 0.20104 0.0
C92 C 0.81742 0.88158 0.20351 0.0
C93 C 0.82358 0.87112 0.19949 0.0
C94 C 0.83683 0.89041 0.21036 0.0
C95 C 0.82395 0.89132 0.2091 0.0
C96 C 0.84295 0.87994 0.2064 0.0
C97 C 0.86847 0.82037 0.18694 0.0
C98 C 0.88585 0.82451 0.20059 0.0
C99 C 0.88239 0.80401 0.1927 0.0
C100 C 0.87199 0.80807 0.18632 0.0
C101 C 0.88955 0.81219 0.19982 0.0
C102 C 0.87539 0.82856 0.19421 0.0
C103 C 0.85773 0.82444 0.17971 0.0
O104 O 0.82291 0.83814 0.17383 0.0
O105 O 0.83517 0.84947 0.16235 0.0
O106 O 0.85916 0.83477 0.17354 0.0
O107 O 0.847 0.8235 0.18519 0.0
H108 H 0.82881 0.81944 0.15801 0.0
H109 H 0.82229 0.80814 0.13958 0.0
H110 H 0.80526 0.84094 0.12532 0.0
H111 H 0.81186 0.85213 0.14367 0.0
H112 H 0.8075 0.88189 0.20247 0.0
H113 H 0.81831 0.86371 0.19533 0.0
H114 H 0.84222 0.8978 0.21438 0.0
H115 H 0.85285 0.87944 0.20761 0.0
H116 H 0.89118 0.83109 0.20589 0.0
H117 H 0.8848 0.79442 0.19208 0.0
H118 H 0.86672 0.8016 0.18082 0.0
H119 H 0.8728 0.83811 0.19483 0.0
C120 C 0.15329 0.81785 0.18828 0.0
C121 C 0.14717 0.82607 0.19597 0.0
C122 C 0.13257 0.80994 0.20194 0.0
C123 C 0.13687 0.82216 0.20271 0.0
C124 C 0.13887 0.80173 0.19434 0.0
C125 C 0.14911 0.80566 0.18757 0.0
U126 U 0.18032 0.83973 0.18131 0.0
O127 O 0.19891 0.83575 0.17462 0.0
O128 O 0.18659 0.84726 0.16355 0.0
C129 C 0.19715 0.84151 0.16411 0.0
C130 C 0.16389 0.82183 0.18079 0.0
C131 C 0.20063 0.83478 0.15298 0.0
C132 C 0.2009 0.81621 0.14069 0.0
C133 C 0.1972 0.82244 0.15125 0.0
C134 C 0.2113 0.83463 0.13341 0.0
C135 C 0.20801 0.82224 0.13164 0.0
C136 C 0.20765 0.84083 0.14398 0.0
C137 C 0.18727 0.86703 0.2025 0.0
C138 C 0.19701 0.88666 0.19749 0.0
C139 C 0.19724 0.87918 0.21849 0.0
C140 C 0.19072 0.86865 0.21484 0.0
C141 C 0.20036 0.88836 0.20988 0.0
C142 C 0.19057 0.87607 0.19382 0.0
C143 C 0.18003 0.856 0.19901 0.0
O144 O 0.16258 0.83224 0.17478 0.0
O145 O 0.17477 0.82076 0.18603 0.0
O146 O 0.18579 0.8455 0.19997 0.0
O147 O 0.17326 0.85687 0.18898 0.0
H148 H 0.15032 0.83551 0.1967 0.0
H149 H 0.13233 0.82867 0.20858 0.0
H150 H 0.13572 0.79231 0.19341 0.0
H151 H 0.15371 0.7992 0.18167 0.0
H152 H 0.1981 0.80671 0.13955 0.0
H153 H 0.19171 0.81764 0.15808 0.0
H154 H 0.2169 0.83951 0.12673 0.0
H155 H 0.2104 0.85034 0.14516 0.0
H156 H 0.1994 0.8935 0.19061 0.0
H157 H 0.19958 0.88026 0.22812 0.0
H158 H 0.18826 0.86181 0.22169 0.0
H159 H 0.18812 0.87501 0.18422 0.0
C160 C 0.15429 0.81642 0.83678 0.0
C161 C 0.14653 0.8246 0.83054 0.0
C162 C 0.13331 0.80758 0.82396 0.0
C163 C 0.13611 0.82023 0.82424 0.0
C164 C 0.14127 0.79943 0.83006 0.0
C165 C 0.15163 0.80382 0.83643 0.0
U166 U 0.18063 0.83942 0.84177 0.0
O167 O 0.18777 0.84765 0.85886 0.0
O168 O 0.19985 0.8365 0.84743 0.0
C169 C 0.19851 0.84232 0.85788 0.0
C170 C 0.16515 0.82084 0.84372 0.0
C171 C 0.20277 0.83575 0.86892 0.0
C172 C 0.2032 0.81751 0.88187 0.0
C173 C 0.19894 0.82364 0.87137 0.0
C174 C 0.21503 0.83559 0.88765 0.0
C175 C 0.21134 0.8234 0.89013 0.0
C176 C 0.21079 0.84169 0.87714 0.0
C177 C 0.18469 0.86627 0.81932 0.0
C178 C 0.19857 0.88355 0.82298 0.0
C179 C 0.18904 0.8809 0.80296 0.0
C180 C 0.18301 0.8703 0.80719 0.0
C181 C 0.19684 0.88771 0.81082 0.0
C182 C 0.19256 0.8729 0.82719 0.0
C183 C 0.17819 0.85512 0.82355 0.0
O184 O 0.17574 0.82011 0.83799 0.0
O185 O 0.1638 0.83124 0.84961 0.0
O186 O 0.17228 0.85605 0.83402 0.0
O187 O 0.1844 0.84489 0.82263 0.0
H188 H 0.14846 0.83438 0.83064 0.0
H189 H 0.13015 0.82681 0.81978 0.0
H190 H 0.13956 0.78962 0.82986 0.0
H191 H 0.15757 0.79735 0.84111 0.0
H192 H 0.20027 0.8081 0.88341 0.0
H193 H 0.19271 0.81892 0.86512 0.0
H194 H 0.2211 0.8405 0.8939 0.0
H195 H 0.21378 0.85107 0.87543 0.0
H196 H 0.2044 0.88862 0.82932 0.0
H197 H 0.18766 0.88369 0.79349 0.0
H198 H 0.17704 0.86523 0.80097 0.0
H199 H 0.194 0.86988 0.83659 0.0
C200 C 0.1516 0.18272 0.81995 0.0
C201 C 0.14507 0.19021 0.82803 0.0
C202 C 0.13053 0.19541 0.81166 0.0
C203 C 0.13462 0.19649 0.82393 0.0
C204 C 0.13729 0.18806 0.80358 0.0
C205 C 0.1477 0.18177 0.8077 0.0
U206 U 0.17858 0.17659 0.84209 0.0
O207 O 0.18519 0.15901 0.84956 0.0
O208 O 0.19736 0.17045 0.83808 0.0
C209 C 0.19576 0.15987 0.84377 0.0
C210 C 0.16234 0.17563 0.8241 0.0
C211 C 0.19946 0.14886 0.83698 0.0
C212 C 0.20067 0.13695 0.81816 0.0
C213 C 0.19687 0.14746 0.82439 0.0
C214 C 0.2095 0.12905 0.83707 0.0
C215 C 0.20703 0.1276 0.82444 0.0
C216 C 0.20576 0.13956 0.84325 0.0
C217 C 0.18437 0.1981 0.86953 0.0
C218 C 0.20324 0.1996 0.88165 0.0
C219 C 0.18464 0.20922 0.88883 0.0
C220 C 0.1783 0.20498 0.87844 0.0
C221 C 0.19723 0.20671 0.89053 0.0
C222 C 0.19686 0.19532 0.87125 0.0
C223 C 0.17752 0.19418 0.85846 0.0
O224 O 0.17311 0.1812 0.82309 0.0
O225 O 0.16104 0.16961 0.83453 0.0
O226 O 0.17126 0.18382 0.85943 0.0
O227 O 0.18338 0.19532 0.84796 0.0
H228 H 0.14796 0.19108 0.83754 0.0
H229 H 0.12959 0.20197 0.83044 0.0
H230 H 0.13459 0.18718 0.79402 0.0
H231 H 0.15267 0.1761 0.8013 0.0
H232 H 0.19851 0.13607 0.80848 0.0
H233 H 0.19193 0.1545 0.81939 0.0
H234 H 0.21451 0.12212 0.84215 0.0
H235 H 0.20785 0.14047 0.85296 0.0
H236 H 0.21294 0.19756 0.88259 0.0
H237 H 0.17963 0.21444 0.89557 0.0
H238 H 0.16864 0.20715 0.87731 0.0
H239 H 0.20171 0.18997 0.86449 0.0
C240 C 0.81784 0.15312 0.83713 0.0
C241 C 0.826 0.14695 0.82941 0.0
C242 C 0.80977 0.13228 0.82386 0.0
C243 C 0.82202 0.13659 0.82287 0.0
C244 C 0.80164 0.13859 0.83154 0.0
C245 C 0.80565 0.14889 0.83812 0.0
U246 U 0.83971 0.18038 0.84282 0.0
O247 O 0.83552 0.19922 0.84855 0.0
O248 O 0.8473 0.18764 0.86013 0.0
C249 C 0.8414 0.19807 0.85908 0.0
C250 C 0.82184 0.16396 0.84421 0.0
C251 C 0.83466 0.20205 0.87003 0.0
C252 C 0.82088 0.19795 0.88718 0.0
C253 C 0.82694 0.19396 0.87661 0.0
C254 C 0.83002 0.21818 0.88456 0.0
C255 C 0.82241 0.2101 0.89134 0.0
C256 C 0.83609 0.21418 0.87404 0.0
C257 C 0.86674 0.18639 0.82097 0.0
C258 C 0.88387 0.20036 0.82521 0.0
C259 C 0.88089 0.19229 0.80469 0.0
C260 C 0.87051 0.18571 0.8087 0.0
C261 C 0.88773 0.19967 0.81289 0.0
C262 C 0.87343 0.19382 0.8292 0.0
C263 C 0.85584 0.17927 0.82496 0.0
O264 O 0.83235 0.16296 0.85017 0.0
O265 O 0.82065 0.17457 0.83857 0.0
O266 O 0.84524 0.18487 0.82385 0.0
O267 O 0.85698 0.17323 0.83539 0.0
H268 H 0.83545 0.15014 0.82846 0.0
H269 H 0.82848 0.13203 0.81693 0.0
H270 H 0.7922 0.13544 0.83264 0.0
H271 H 0.79922 0.15354 0.84403 0.0
H272 H 0.81519 0.19144 0.89221 0.0
H273 H 0.8257 0.18456 0.87363 0.0
H274 H 0.83124 0.22764 0.88732 0.0
H275 H 0.84194 0.22057 0.86903 0.0
H276 H 0.88885 0.20607 0.83172 0.0
H277 H 0.88368 0.19142 0.79519 0.0
H278 H 0.86546 0.18002 0.80222 0.0
H279 H 0.8706 0.19454 0.8387 0.0
C280 C 0.835 0.86836 0.81997 0.0
C281 C 0.83209 0.87769 0.82831 0.0
C282 C 0.82198 0.88933 0.812 0.0
C283 C 0.82569 0.88808 0.82435 0.0
C284 C 0.82471 0.87987 0.80373 0.0
C285 C 0.83118 0.86953 0.80767 0.0
U286 U 0.84188 0.84125 0.84159 0.0
O287 O 0.8478 0.82252 0.83735 0.0
O288 O 0.85965 0.83451 0.84859 0.0
C289 C 0.8585 0.82394 0.84291 0.0
C290 C 0.84229 0.85757 0.82373 0.0
C291 C 0.8694 0.81988 0.83611 0.0
C292 C 0.8816 0.81871 0.81745 0.0
C293 C 0.87128 0.82304 0.82372 0.0
C294 C 0.88833 0.80822 0.83595 0.0
C295 C 0.89021 0.81115 0.82347 0.0
C296 C 0.87804 0.81253 0.84217 0.0
C297 C 0.82119 0.83541 0.86963 0.0
C298 C 0.82051 0.8166 0.88178 0.0
C299 C 0.81083 0.83495 0.88937 0.0
C300 C 0.81451 0.84132 0.87879 0.0
C301 C 0.81374 0.8225 0.89099 0.0
C302 C 0.82425 0.82301 0.87121 0.0
C303 C 0.82472 0.84233 0.85848 0.0
O304 O 0.84886 0.85865 0.83387 0.0
O305 O 0.8367 0.84684 0.82276 0.0
O306 O 0.82322 0.83655 0.84799 0.0
O307 O 0.83515 0.84853 0.85915 0.0
H308 H 0.83483 0.87701 0.83788 0.0
H309 H 0.82361 0.89513 0.83098 0.0
H310 H 0.8221 0.88059 0.79413 0.0
H311 H 0.83335 0.86249 0.80106 0.0
H312 H 0.8827 0.82108 0.80784 0.0
H313 H 0.86472 0.82874 0.81888 0.0
H314 H 0.89487 0.80265 0.84096 0.0
H315 H 0.87679 0.81006 0.85175 0.0
H316 H 0.82302 0.80706 0.8828 0.0
H317 H 0.80551 0.83974 0.89619 0.0
H318 H 0.81205 0.85088 0.87773 0.0
H319 H 0.82948 0.8183 0.86426 0.0
C320 C 0.18332 0.65036 0.70157 0.0
C321 C 0.19583 0.64892 0.69877 0.0
C322 C 0.19587 0.62905 0.70924 0.0
C323 C 0.20207 0.63837 0.70262 0.0
C324 C 0.18331 0.63054 0.71192 0.0
C325 C 0.17712 0.64109 0.70814 0.0
U326 U 0.17839 0.67848 0.68074 0.0
O327 O 0.1611 0.68576 0.67309 0.0
O328 O 0.17244 0.69707 0.68548 0.0
C329 C 0.16199 0.69598 0.67941 0.0
C330 C 0.17653 0.6614 0.6978 0.0
C331 C 0.15082 0.69957 0.68607 0.0
C332 C 0.13822 0.6998 0.70451 0.0
C333 C 0.1488 0.69599 0.69832 0.0
C334 C 0.1315 0.7106 0.68619 0.0
C335 C 0.12945 0.70717 0.69851 0.0
C336 C 0.14208 0.70685 0.68006 0.0
C337 C 0.2008 0.68535 0.65429 0.0
C338 C 0.1968 0.69904 0.63701 0.0
C339 C 0.21746 0.69167 0.64072 0.0
C340 C 0.21324 0.68506 0.65096 0.0
C341 C 0.20928 0.69868 0.63357 0.0
C342 C 0.1926 0.69247 0.64731 0.0
C343 C 0.19657 0.67799 0.6649 0.0
O344 O 0.18222 0.67198 0.69953 0.0
O345 O 0.17083 0.66072 0.68713 0.0
O346 O 0.18614 0.6719 0.66339 0.0
O347 O 0.19748 0.68333 0.67567 0.0
H348 H 0.20076 0.65594 0.69363 0.0
H349 H 0.21169 0.63745 0.70028 0.0
H350 H 0.17829 0.62364 0.71713 0.0
H351 H 0.16746 0.64205 0.71039 0.0
H352 H 0.13686 0.69688 0.71394 0.0
H353 H 0.15541 0.6903 0.70311 0.0
H354 H 0.12504 0.7164 0.68134 0.0
H355 H 0.14349 0.70972 0.67061 0.0
H356 H 0.19029 0.70446 0.63179 0.0
H357 H 0.22708 0.69106 0.63826 0.0
H358 H 0.2197 0.67961 0.65622 0.0
H359 H 0.18296 0.69288 0.64977 0.0
C360 C 0.81789 0.68409 0.6543 0.0
C361 C 0.8219 0.69616 0.6519 0.0
C362 C 0.81 0.69643 0.63284 0.0
C363 C 0.81794 0.7023 0.64128 0.0
C364 C 0.8061 0.68429 0.63527 0.0
C365 C 0.81 0.6782 0.64592 0.0
U366 U 0.8397 0.68039 0.68162 0.0
O367 O 0.83576 0.67531 0.70083 0.0
O368 O 0.84779 0.6638 0.68971 0.0
C369 C 0.84182 0.66498 0.70012 0.0
C370 C 0.82187 0.67753 0.66545 0.0
C371 C 0.83515 0.65396 0.70443 0.0
C372 C 0.82123 0.6367 0.70078 0.0
C373 C 0.82727 0.64733 0.69657 0.0
C374 C 0.8307 0.63938 0.72082 0.0
C375 C 0.82292 0.63255 0.71296 0.0
C376 C 0.83677 0.64996 0.71658 0.0
C377 C 0.86638 0.70328 0.68581 0.0
C378 C 0.87936 0.70396 0.70408 0.0
C379 C 0.88483 0.7161 0.68614 0.0
C380 C 0.8744 0.7116 0.67998 0.0
C381 C 0.88743 0.71238 0.69829 0.0
C382 C 0.86894 0.69943 0.69788 0.0
C383 C 0.85548 0.69868 0.67912 0.0
O384 O 0.8325 0.67195 0.66465 0.0
O385 O 0.82056 0.68351 0.67582 0.0
O386 O 0.84491 0.69967 0.68486 0.0
O387 O 0.85679 0.68804 0.6737 0.0
H388 H 0.82808 0.70083 0.65824 0.0
H389 H 0.82123 0.71158 0.6396 0.0
H390 H 0.79987 0.67956 0.62904 0.0
H391 H 0.80682 0.66888 0.64763 0.0
H392 H 0.81541 0.63162 0.69443 0.0
H393 H 0.82589 0.65031 0.68715 0.0
H394 H 0.83206 0.6366 0.7303 0.0
H395 H 0.84275 0.65502 0.7228 0.0
H396 H 0.881 0.70099 0.71345 0.0
H397 H 0.89093 0.72239 0.68131 0.0
H398 H 0.8726 0.71459 0.67064 0.0
H399 H 0.86285 0.69297 0.7025 0.0
C400 C 0.82063 0.3357 0.65217 0.0
C401 C 0.82362 0.32326 0.65102 0.0
C402 C 0.81317 0.32243 0.6311 0.0
C403 C 0.81987 0.31666 0.64059 0.0
C404 C 0.81025 0.3349 0.63234 0.0
C405 C 0.81394 0.34145 0.64277 0.0
U406 U 0.84162 0.34214 0.68006 0.0
O407 O 0.84912 0.35984 0.68661 0.0
O408 O 0.83694 0.3488 0.69847 0.0
C409 C 0.84288 0.35928 0.69692 0.0
C410 C 0.82439 0.34291 0.66301 0.0
C411 C 0.83624 0.3705 0.70034 0.0
C412 C 0.8173 0.38175 0.70359 0.0
C413 C 0.82334 0.37122 0.69957 0.0
C414 C 0.83698 0.39108 0.70885 0.0
C415 C 0.82405 0.39177 0.70843 0.0
C416 C 0.84299 0.38055 0.70488 0.0
C417 C 0.86859 0.32078 0.68772 0.0
C418 C 0.8884 0.32537 0.69738 0.0
C419 C 0.8801 0.30465 0.69804 0.0
C420 C 0.86972 0.3085 0.69145 0.0
C421 C 0.88963 0.31302 0.70098 0.0
C422 C 0.87797 0.32923 0.69087 0.0
C423 C 0.8578 0.32441 0.68024 0.0
O424 O 0.82281 0.3376 0.67379 0.0
O425 O 0.83499 0.34879 0.66208 0.0
O426 O 0.85903 0.33446 0.67358 0.0
O427 O 0.84702 0.32347 0.68565 0.0
H428 H 0.82885 0.31867 0.65815 0.0
H429 H 0.82237 0.30711 0.63987 0.0
H430 H 0.80497 0.33959 0.62531 0.0
H431 H 0.81154 0.35104 0.6435 0.0
H432 H 0.80734 0.3819 0.70321 0.0
H433 H 0.81792 0.36359 0.69605 0.0
H434 H 0.84251 0.39868 0.71226 0.0
H435 H 0.85295 0.38021 0.70549 0.0
H436 H 0.8955 0.33207 0.69964 0.0
H437 H 0.8808 0.29506 0.70055 0.0
H438 H 0.86263 0.30181 0.6891 0.0
H439 H 0.87731 0.33879 0.6882 0.0
C440 C 0.1526 0.31861 0.68552 0.0
C441 C 0.15075 0.32198 0.6978 0.0
C442 C 0.13163 0.30995 0.69838 0.0
C443 C 0.14037 0.31767 0.70418 0.0
C444 C 0.1335 0.30677 0.686 0.0
C445 C 0.14388 0.31105 0.67966 0.0
U446 U 0.17974 0.34085 0.68058 0.0
O447 O 0.1988 0.3372 0.67508 0.0
O448 O 0.18708 0.34871 0.66338 0.0
C449 C 0.19765 0.34305 0.66455 0.0
C450 C 0.16353 0.32285 0.67867 0.0
C451 C 0.20184 0.33644 0.6536 0.0
C452 C 0.20247 0.3181 0.64098 0.0
C453 C 0.19812 0.32428 0.65133 0.0
C454 C 0.21411 0.33626 0.635 0.0
C455 C 0.21059 0.324 0.63272 0.0
C456 C 0.20978 0.34239 0.64534 0.0
C457 C 0.1847 0.36769 0.70281 0.0
C458 C 0.20323 0.38046 0.70362 0.0
C459 C 0.18518 0.38619 0.71515 0.0
C460 C 0.17888 0.37584 0.71075 0.0
C461 C 0.19747 0.3886 0.71173 0.0
C462 C 0.19689 0.3701 0.69918 0.0
C463 C 0.17791 0.35673 0.69853 0.0
O464 O 0.16242 0.33338 0.67287 0.0
O465 O 0.17415 0.32176 0.68443 0.0
O466 O 0.18371 0.34626 0.69965 0.0
O467 O 0.1721 0.35791 0.68797 0.0
H468 H 0.15737 0.32787 0.70247 0.0
H469 H 0.13932 0.32022 0.71372 0.0
H470 H 0.12687 0.30105 0.68115 0.0
H471 H 0.14511 0.30843 0.67015 0.0
H472 H 0.19965 0.30865 0.63959 0.0
H473 H 0.19195 0.31953 0.6576 0.0
H474 H 0.22014 0.34118 0.62874 0.0
H475 H 0.21268 0.35181 0.64691 0.0
H476 H 0.2127 0.38196 0.70087 0.0
H477 H 0.18036 0.39236 0.72118 0.0
H478 H 0.16945 0.37417 0.71358 0.0
H479 H 0.20152 0.36392 0.69302 0.0
C480 C 0.15303 0.31797 0.33817 0.0
C481 C 0.15053 0.322 0.32615 0.0
C482 C 0.13188 0.30929 0.32556 0.0
C483 C 0.14006 0.31768 0.31988 0.0
C484 C 0.13438 0.30545 0.33769 0.0
C485 C 0.14486 0.30974 0.34391 0.0
U486 U 0.18025 0.34014 0.34225 0.0
O487 O 0.18835 0.34807 0.35901 0.0
O488 O 0.19953 0.33632 0.34725 0.0
C489 C 0.19876 0.34217 0.35775 0.0
C490 C 0.16415 0.32214 0.34479 0.0
C491 C 0.20312 0.3354 0.36866 0.0
C492 C 0.19919 0.32326 0.38708 0.0
C493 C 0.19485 0.32937 0.3766 0.0
C494 C 0.22013 0.32885 0.38163 0.0
C495 C 0.21189 0.32297 0.38977 0.0
C496 C 0.21577 0.33503 0.37121 0.0
C497 C 0.18446 0.36704 0.31981 0.0
C498 C 0.20337 0.37895 0.3172 0.0
C499 C 0.18408 0.38669 0.30918 0.0
C500 C 0.17795 0.37623 0.3136 0.0
C501 C 0.19689 0.38817 0.31084 0.0
C502 C 0.1972 0.36851 0.32167 0.0
C503 C 0.17777 0.35606 0.32424 0.0
O504 O 0.17455 0.32105 0.33879 0.0
O505 O 0.16323 0.33268 0.35051 0.0
O506 O 0.1723 0.35719 0.33491 0.0
O507 O 0.18346 0.34556 0.32303 0.0
H508 H 0.15674 0.32838 0.32157 0.0
H509 H 0.1385 0.32074 0.31052 0.0
H510 H 0.12818 0.29919 0.34243 0.0
H511 H 0.14661 0.3066 0.35322 0.0
H512 H 0.19256 0.31896 0.39319 0.0
H513 H 0.18503 0.32949 0.37478 0.0
H514 H 0.22998 0.32864 0.38325 0.0
H515 H 0.2223 0.33954 0.36513 0.0
H516 H 0.21324 0.3797 0.31854 0.0
H517 H 0.17875 0.39368 0.30456 0.0
H518 H 0.1681 0.3753 0.31216 0.0
H519 H 0.20239 0.36154 0.32651 0.0
C520 C 0.15082 0.68273 0.32083 0.0
C521 C 0.14932 0.69512 0.32392 0.0
C522 C 0.12988 0.69563 0.31254 0.0
C523 C 0.13895 0.70151 0.31981 0.0
C524 C 0.13135 0.68314 0.30972 0.0
C525 C 0.14172 0.67679 0.3138 0.0
U526 U 0.1788 0.67687 0.34188 0.0
O527 O 0.18622 0.65939 0.34863 0.0
O528 O 0.19758 0.67134 0.33684 0.0
C529 C 0.19642 0.66057 0.34224 0.0
C530 C 0.16188 0.67589 0.32453 0.0
C531 C 0.20007 0.64985 0.33488 0.0
C532 C 0.19539 0.63031 0.32503 0.0
C533 C 0.19153 0.64066 0.33147 0.0
C534 C 0.21629 0.63832 0.32498 0.0
C535 C 0.20783 0.62898 0.32177 0.0
C536 C 0.21245 0.64861 0.3315 0.0
C537 C 0.18495 0.69768 0.36979 0.0
C538 C 0.20401 0.69893 0.38165 0.0
C539 C 0.18535 0.70776 0.38967 0.0
C540 C 0.17892 0.70399 0.37914 0.0
C541 C 0.19797 0.7053 0.39106 0.0
C542 C 0.19754 0.69511 0.37112 0.0
C543 C 0.17789 0.69396 0.35879 0.0
O544 O 0.17248 0.68172 0.32327 0.0
O545 O 0.16106 0.66965 0.33487 0.0
O546 O 0.1719 0.68344 0.35965 0.0
O547 O 0.18341 0.69553 0.34815 0.0
H548 H 0.15624 0.69987 0.32938 0.0
H549 H 0.13817 0.71113 0.32209 0.0
H550 H 0.12447 0.67824 0.30437 0.0
H551 H 0.14268 0.66722 0.31138 0.0
H552 H 0.18861 0.62335 0.32257 0.0
H553 H 0.1819 0.6414 0.33387 0.0
H554 H 0.22595 0.63753 0.32273 0.0
H555 H 0.21921 0.65556 0.33405 0.0
H556 H 0.21369 0.69678 0.38249 0.0
H557 H 0.18044 0.71278 0.39663 0.0
H558 H 0.16922 0.70608 0.37828 0.0
H559 H 0.20236 0.69017 0.36404 0.0
C560 C 0.81736 0.65284 0.33789 0.0
C561 C 0.82549 0.64654 0.33024 0.0
C562 C 0.80936 0.6315 0.32537 0.0
C563 C 0.82153 0.63595 0.32405 0.0
C564 C 0.80125 0.63798 0.33294 0.0
C565 C 0.80523 0.64852 0.33914 0.0
U566 U 0.83936 0.68011 0.34301 0.0
O567 O 0.8352 0.69915 0.34809 0.0
O568 O 0.84671 0.68785 0.3602 0.0
C569 C 0.84082 0.69824 0.35878 0.0
C570 C 0.82134 0.66388 0.34464 0.0
C571 C 0.83374 0.70235 0.36948 0.0
C572 C 0.81943 0.69833 0.38619 0.0
C573 C 0.82585 0.69428 0.37587 0.0
C574 C 0.82855 0.71858 0.38368 0.0
C575 C 0.82072 0.71053 0.39023 0.0
C576 C 0.835 0.71451 0.37342 0.0
C577 C 0.8669 0.68493 0.32144 0.0
C578 C 0.87952 0.70351 0.32047 0.0
C579 C 0.88576 0.68533 0.30953 0.0
C580 C 0.87534 0.67904 0.31385 0.0
C581 C 0.88795 0.69768 0.31269 0.0
C582 C 0.86909 0.69718 0.32482 0.0
C583 C 0.85584 0.67815 0.32556 0.0
O584 O 0.83174 0.663 0.35082 0.0
O585 O 0.82035 0.6743 0.33859 0.0
O586 O 0.84532 0.68382 0.32406 0.0
O587 O 0.85679 0.67256 0.33625 0.0
H588 H 0.8349 0.64976 0.32913 0.0
H589 H 0.82806 0.63114 0.31841 0.0
H590 H 0.79176 0.63498 0.33401 0.0
H591 H 0.7988 0.65332 0.34494 0.0
H592 H 0.81337 0.69193 0.39093 0.0
H593 H 0.8247 0.68486 0.3729 0.0
H594 H 0.82988 0.72799 0.38662 0.0
H595 H 0.84106 0.72086 0.3686 0.0
H596 H 0.88084 0.71303 0.323 0.0
H597 H 0.89215 0.68046 0.30377 0.0
H598 H 0.87384 0.66956 0.31122 0.0
H599 H 0.86268 0.70187 0.33071 0.0
C600 C 0.83646 0.36895 0.31999 0.0
C601 C 0.82409 0.37073 0.32316 0.0
C602 C 0.82395 0.39012 0.31179 0.0
C603 C 0.81788 0.38121 0.31908 0.0
C604 C 0.83642 0.38835 0.30886 0.0
C605 C 0.84258 0.37787 0.31291 0.0
U606 U 0.84181 0.34118 0.34128 0.0
O607 O 0.84677 0.32225 0.33648 0.0
O608 O 0.85919 0.33341 0.34799 0.0
C609 C 0.85761 0.32312 0.34189 0.0
C610 C 0.84311 0.3578 0.32371 0.0
C611 C 0.86821 0.31887 0.33468 0.0
C612 C 0.88725 0.32274 0.32347 0.0
C613 C 0.87691 0.32711 0.32967 0.0
C614 C 0.88014 0.30186 0.32691 0.0
C615 C 0.88907 0.31004 0.32213 0.0
C616 C 0.86986 0.30624 0.33314 0.0
C617 C 0.82107 0.33576 0.36936 0.0
C618 C 0.81988 0.31687 0.38137 0.0
C619 C 0.81106 0.33552 0.38929 0.0
C620 C 0.81478 0.34184 0.37869 0.0
C621 C 0.81355 0.32296 0.39077 0.0
C622 C 0.82366 0.32324 0.37077 0.0
C623 C 0.82481 0.3427 0.35829 0.0
O624 O 0.84948 0.35857 0.33399 0.0
O625 O 0.837 0.34737 0.32261 0.0
O626 O 0.823 0.33719 0.3477 0.0
O627 O 0.83552 0.34841 0.35901 0.0
H628 H 0.8192 0.36395 0.32866 0.0
H629 H 0.80827 0.3822 0.32143 0.0
H630 H 0.84147 0.3951 0.30349 0.0
H631 H 0.85215 0.3767 0.31043 0.0
H632 H 0.89396 0.32931 0.32002 0.0
H633 H 0.87583 0.33692 0.33069 0.0
H634 H 0.88106 0.29205 0.32585 0.0
H635 H 0.86323 0.29972 0.33687 0.0
H636 H 0.82206 0.30724 0.38227 0.0
H637 H 0.80607 0.34046 0.39625 0.0
H638 H 0.81269 0.3515 0.37776 0.0
H639 H 0.82859 0.31839 0.3637 0.0
C640 C 0.68367 0.151 0.70191 0.0
C641 C 0.69621 0.14956 0.69924 0.0
C642 C 0.69647 0.13028 0.71079 0.0
C643 C 0.70256 0.13929 0.70365 0.0
C644 C 0.68384 0.13172 0.71322 0.0
C645 C 0.67754 0.14197 0.70884 0.0
U646 U 0.67808 0.17848 0.68019 0.0
O647 O 0.66051 0.18522 0.67268 0.0
O648 O 0.67186 0.19706 0.68456 0.0
C649 C 0.66132 0.19562 0.6787 0.0
C650 C 0.67678 0.16185 0.69775 0.0
C651 C 0.6502 0.19924 0.68544 0.0
C652 C 0.63793 0.19988 0.70407 0.0
C653 C 0.64843 0.19599 0.69782 0.0
C654 C 0.63079 0.2101 0.68559 0.0
C655 C 0.62898 0.20701 0.69803 0.0
C656 C 0.64129 0.20626 0.67937 0.0
C657 C 0.69981 0.18528 0.65308 0.0
C658 C 0.69564 0.19435 0.63298 0.0
C659 C 0.71624 0.19544 0.64158 0.0
C660 C 0.71216 0.18909 0.65204 0.0
C661 C 0.70806 0.19804 0.63186 0.0
C662 C 0.69154 0.18808 0.64349 0.0
C663 C 0.69593 0.17806 0.66399 0.0
O664 O 0.68237 0.17254 0.69907 0.0
O665 O 0.67098 0.16075 0.68717 0.0
O666 O 0.68569 0.17157 0.66291 0.0
O667 O 0.69698 0.18362 0.67464 0.0
H668 H 0.70111 0.15642 0.69385 0.0
H669 H 0.71228 0.13855 0.70167 0.0
H670 H 0.67877 0.12487 0.71846 0.0
H671 H 0.66784 0.14287 0.71093 0.0
H672 H 0.63676 0.19721 0.71361 0.0
H673 H 0.65518 0.19051 0.70265 0.0
H674 H 0.62419 0.21571 0.68069 0.0
H675 H 0.64251 0.20889 0.66983 0.0
H676 H 0.68907 0.19635 0.62573 0.0
H677 H 0.72588 0.19803 0.64097 0.0
H678 H 0.71871 0.187 0.65928 0.0
H679 H 0.68193 0.18534 0.64406 0.0
C680 C 0.31648 0.18527 0.6552 0.0
C681 C 0.3206 0.19729 0.6528 0.0
C682 C 0.30761 0.19814 0.63444 0.0
C683 C 0.31619 0.20369 0.64251 0.0
C684 C 0.30361 0.18604 0.63691 0.0
C685 C 0.308 0.17969 0.64719 0.0
U686 U 0.33936 0.18013 0.68162 0.0
O687 O 0.33613 0.17383 0.70056 0.0
O688 O 0.34744 0.16282 0.68822 0.0
C689 C 0.3418 0.16339 0.69886 0.0
C690 C 0.32098 0.17832 0.66591 0.0
C691 C 0.33506 0.15216 0.70267 0.0
C692 C 0.316 0.14118 0.70746 0.0
C693 C 0.32214 0.15185 0.70352 0.0
C694 C 0.33556 0.13088 0.70947 0.0
C695 C 0.32265 0.13058 0.7105 0.0
C696 C 0.3417 0.14158 0.70564 0.0
C697 C 0.36642 0.20234 0.68693 0.0
C698 C 0.38606 0.19795 0.69679 0.0
C699 C 0.37871 0.21883 0.69591 0.0
C700 C 0.36813 0.2148 0.68967 0.0
C701 C 0.38784 0.21046 0.69946 0.0
C702 C 0.37541 0.19391 0.69065 0.0
C703 C 0.35527 0.19839 0.68012 0.0
O704 O 0.33157 0.17283 0.6644 0.0
O705 O 0.3201 0.18381 0.6766 0.0
O706 O 0.34485 0.19911 0.68616 0.0
O707 O 0.35617 0.18825 0.67369 0.0
H708 H 0.32719 0.20173 0.65888 0.0
H709 H 0.31937 0.21302 0.64096 0.0
H710 H 0.29721 0.18139 0.63079 0.0
H711 H 0.3048 0.17037 0.64887 0.0
H712 H 0.30604 0.14118 0.70802 0.0
H713 H 0.31677 0.15985 0.70117 0.0
H714 H 0.34095 0.1229 0.71186 0.0
H715 H 0.35166 0.14162 0.70506 0.0
H716 H 0.39286 0.19126 0.69954 0.0
H717 H 0.37987 0.22854 0.69774 0.0
H718 H 0.3613 0.22146 0.68689 0.0
H719 H 0.37426 0.18421 0.68876 0.0
C720 C 0.31977 0.83508 0.65276 0.0
C721 C 0.32826 0.82801 0.64627 0.0
C722 C 0.31211 0.82165 0.63185 0.0
C723 C 0.32447 0.82139 0.63587 0.0
C724 C 0.30367 0.82869 0.63848 0.0
C725 C 0.30747 0.83534 0.64881 0.0
U726 U 0.34139 0.84192 0.68 0.0
O727 O 0.34792 0.85962 0.68731 0.0
O728 O 0.33679 0.84729 0.69892 0.0
C729 C 0.34201 0.85818 0.69775 0.0
C730 C 0.3235 0.84226 0.66364 0.0
C731 C 0.33459 0.86865 0.70178 0.0
C732 C 0.3209 0.88568 0.69747 0.0
C733 C 0.32753 0.87553 0.69343 0.0
C734 C 0.32812 0.88204 0.71827 0.0
C735 C 0.32114 0.88909 0.70994 0.0
C736 C 0.33478 0.87195 0.71421 0.0
C737 C 0.36977 0.82168 0.68555 0.0
C738 C 0.38101 0.81851 0.70471 0.0
C739 C 0.39025 0.81292 0.68536 0.0
C740 C 0.37976 0.81693 0.67909 0.0
C741 C 0.39098 0.8135 0.69827 0.0
C742 C 0.37052 0.82258 0.69841 0.0
C743 C 0.3586 0.82524 0.67867 0.0
O744 O 0.32263 0.83649 0.67424 0.0
O745 O 0.33369 0.84882 0.66258 0.0
O746 O 0.35921 0.83578 0.67276 0.0
O747 O 0.34802 0.8234 0.68427 0.0
H748 H 0.33779 0.82763 0.64923 0.0
H749 H 0.33118 0.81596 0.63107 0.0
H750 H 0.29413 0.82924 0.63556 0.0
H751 H 0.30079 0.84075 0.6537 0.0
H752 H 0.31552 0.89082 0.69085 0.0
H753 H 0.32719 0.87308 0.68379 0.0
H754 H 0.32864 0.88448 0.72789 0.0
H755 H 0.34019 0.86678 0.72079 0.0
H756 H 0.38118 0.81902 0.71465 0.0
H757 H 0.39782 0.80936 0.68006 0.0
H758 H 0.3794 0.81622 0.66916 0.0
H759 H 0.36293 0.82626 0.7036 0.0
C760 C 0.65216 0.81902 0.68592 0.0
C761 C 0.65152 0.81996 0.69877 0.0
C762 C 0.63099 0.81052 0.69858 0.0
C763 C 0.64104 0.81572 0.70505 0.0
C764 C 0.63164 0.80985 0.68568 0.0
C765 C 0.64212 0.81402 0.67944 0.0
U766 U 0.68021 0.84029 0.68043 0.0
O767 O 0.69881 0.83582 0.6741 0.0
O768 O 0.68717 0.84794 0.66296 0.0
C769 C 0.69749 0.8418 0.66365 0.0
C770 C 0.66319 0.82301 0.67903 0.0
C771 C 0.70096 0.83512 0.65248 0.0
C772 C 0.70134 0.81657 0.64015 0.0
C773 C 0.69765 0.82275 0.65075 0.0
C774 C 0.71149 0.83511 0.63283 0.0
C775 C 0.70831 0.82268 0.63106 0.0
C776 C 0.70786 0.84125 0.64343 0.0
C777 C 0.68743 0.86713 0.70212 0.0
C778 C 0.6973 0.88683 0.69764 0.0
C779 C 0.69756 0.87875 0.71842 0.0
C780 C 0.69096 0.86837 0.71449 0.0
C781 C 0.7007 0.88817 0.71007 0.0
C782 C 0.69078 0.8764 0.69369 0.0
C783 C 0.67998 0.85633 0.69835 0.0
O784 O 0.66235 0.8336 0.67327 0.0
O785 O 0.67389 0.82147 0.68452 0.0
O786 O 0.6854 0.84564 0.6993 0.0
O787 O 0.67346 0.8575 0.68819 0.0
H788 H 0.65915 0.82384 0.70397 0.0
H789 H 0.64092 0.8163 0.71498 0.0
H790 H 0.62401 0.80615 0.68036 0.0
H791 H 0.6424 0.8133 0.66951 0.0
H792 H 0.69862 0.80705 0.63902 0.0
H793 H 0.69225 0.81788 0.65761 0.0
H794 H 0.71698 0.84006 0.62611 0.0
H795 H 0.71052 0.85079 0.64461 0.0
H796 H 0.69971 0.89385 0.69096 0.0
H797 H 0.69994 0.87954 0.72807 0.0
H798 H 0.68846 0.86136 0.72115 0.0
H799 H 0.68828 0.87565 0.68407 0.0
C800 C 0.65422 0.81653 0.33709 0.0
C801 C 0.64626 0.82477 0.33117 0.0
C802 C 0.63293 0.80778 0.32471 0.0
C803 C 0.63569 0.82043 0.32508 0.0
C804 C 0.64108 0.79958 0.33049 0.0
C805 C 0.65159 0.80393 0.33663 0.0
U806 U 0.68107 0.83915 0.34156 0.0
O807 O 0.68878 0.84726 0.35841 0.0
O808 O 0.70033 0.83565 0.34688 0.0
C809 C 0.69932 0.84154 0.35732 0.0
C810 C 0.66526 0.82087 0.34378 0.0
C811 C 0.70368 0.83492 0.36833 0.0
C812 C 0.69979 0.82294 0.38686 0.0
C813 C 0.69544 0.82889 0.37629 0.0
C814 C 0.7207 0.82872 0.38146 0.0
C815 C 0.71249 0.82283 0.38962 0.0
C816 C 0.71633 0.83473 0.37095 0.0
C817 C 0.68535 0.86599 0.31917 0.0
C818 C 0.69919 0.8833 0.32292 0.0
C819 C 0.69007 0.88045 0.30274 0.0
C820 C 0.68394 0.8699 0.30696 0.0
C821 C 0.69772 0.88734 0.31068 0.0
C822 C 0.69308 0.8727 0.32711 0.0
C823 C 0.67869 0.85494 0.32342 0.0
O824 O 0.67572 0.81995 0.33785 0.0
O825 O 0.6642 0.83131 0.34966 0.0
O826 O 0.67293 0.85594 0.33396 0.0
O827 O 0.68467 0.84459 0.32237 0.0
H828 H 0.64816 0.83455 0.33134 0.0
H829 H 0.62958 0.82704 0.32087 0.0
H830 H 0.6394 0.78977 0.3302 0.0
H831 H 0.65767 0.79743 0.34106 0.0
H832 H 0.69318 0.81863 0.39297 0.0
H833 H 0.68563 0.82887 0.3744 0.0
H834 H 0.73054 0.82864 0.38314 0.0
H835 H 0.72284 0.83926 0.36486 0.0
H836 H 0.70489 0.88843 0.32933 0.0
H837 H 0.6889 0.88313 0.29321 0.0
H838 H 0.67808 0.86478 0.30068 0.0
H839 H 0.69432 0.86979 0.33658 0.0
C840 C 0.65061 0.18261 0.32133 0.0
C841 C 0.6494 0.1951 0.32414 0.0
C842 C 0.62935 0.19546 0.31388 0.0
C843 C 0.63888 0.20148 0.32039 0.0
C844 C 0.63063 0.18293 0.31117 0.0
C845 C 0.64115 0.17659 0.31485 0.0
U846 U 0.67869 0.17723 0.34219 0.0
O847 O 0.68572 0.15989 0.34986 0.0
O848 O 0.69729 0.17107 0.33754 0.0
C849 C 0.696 0.16064 0.34357 0.0
C850 C 0.66159 0.17566 0.32507 0.0
C851 C 0.69947 0.14946 0.3369 0.0
C852 C 0.70045 0.13735 0.3182 0.0
C853 C 0.69675 0.14794 0.32435 0.0
C854 C 0.70941 0.1296 0.3371 0.0
C855 C 0.70685 0.12805 0.3245 0.0
C856 C 0.70577 0.1402 0.34321 0.0
C857 C 0.68548 0.19959 0.36874 0.0
C858 C 0.69885 0.19573 0.38634 0.0
C859 C 0.69127 0.21621 0.38249 0.0
C860 C 0.68498 0.21197 0.37207 0.0
C861 C 0.69818 0.20813 0.38986 0.0
C862 C 0.69256 0.1915 0.37587 0.0
C863 C 0.67826 0.19533 0.35804 0.0
O864 O 0.67229 0.18118 0.32338 0.0
O865 O 0.66081 0.16993 0.3357 0.0
O866 O 0.67206 0.18498 0.35951 0.0
O867 O 0.68376 0.19617 0.34733 0.0
H868 H 0.65657 0.1999 0.32922 0.0
H869 H 0.63813 0.21109 0.32274 0.0
H870 H 0.62356 0.17804 0.30603 0.0
H871 H 0.64192 0.16695 0.31259 0.0
H872 H 0.69821 0.13639 0.30854 0.0
H873 H 0.69181 0.15495 0.31932 0.0
H874 H 0.71444 0.12271 0.3422 0.0
H875 H 0.70797 0.1412 0.35289 0.0
H876 H 0.704 0.18923 0.39183 0.0
H877 H 0.69073 0.22585 0.38475 0.0
H878 H 0.67962 0.21836 0.36664 0.0
H879 H 0.69309 0.18189 0.37344 0.0
C880 C 0.31696 0.15339 0.33735 0.0
C881 C 0.32519 0.147 0.3299 0.0
C882 C 0.30906 0.13206 0.32474 0.0
C883 C 0.32128 0.13642 0.32366 0.0
C884 C 0.30083 0.13866 0.33208 0.0
C885 C 0.30475 0.14919 0.33833 0.0
U886 U 0.3388 0.18073 0.34326 0.0
O887 O 0.33446 0.19956 0.34888 0.0
O888 O 0.34596 0.188 0.36074 0.0
C889 C 0.34005 0.19841 0.35955 0.0
C890 C 0.3209 0.16431 0.34432 0.0
C891 C 0.33299 0.20235 0.37032 0.0
C892 C 0.3189 0.19813 0.38718 0.0
C893 C 0.32535 0.19415 0.37685 0.0
C894 C 0.32749 0.21857 0.38442 0.0
C895 C 0.31989 0.2104 0.39109 0.0
C896 C 0.33397 0.21458 0.37416 0.0
C897 C 0.36646 0.18688 0.32214 0.0
C898 C 0.38621 0.19669 0.32679 0.0
C899 C 0.37852 0.19651 0.30585 0.0
C900 C 0.36799 0.19007 0.30972 0.0
C901 C 0.3878 0.1998 0.31432 0.0
C902 C 0.37562 0.19034 0.33067 0.0
C903 C 0.35542 0.17973 0.32586 0.0
O904 O 0.33128 0.16333 0.35051 0.0
O905 O 0.31987 0.17487 0.33853 0.0
O906 O 0.34482 0.18527 0.32443 0.0
O907 O 0.35621 0.17352 0.33623 0.0
H908 H 0.33466 0.15013 0.329 0.0
H909 H 0.3279 0.13153 0.31819 0.0
H910 H 0.2913 0.13573 0.33296 0.0
H911 H 0.29825 0.15405 0.34398 0.0
H912 H 0.31302 0.19164 0.39202 0.0
H913 H 0.32441 0.18468 0.37397 0.0
H914 H 0.3286 0.22803 0.38726 0.0
H915 H 0.33983 0.22104 0.36924 0.0
H916 H 0.39312 0.19923 0.33356 0.0
H917 H 0.37952 0.19865 0.29617 0.0
H918 H 0.36107 0.18748 0.30297 0.0
H919 H 0.37465 0.18809 0.34033 0.0
C920 C 0.3351 0.86854 0.32056 0.0
C921 C 0.33198 0.87769 0.32902 0.0
C922 C 0.32236 0.8897 0.31268 0.0
C923 C 0.32573 0.88819 0.3251 0.0
C924 C 0.32529 0.88042 0.3043 0.0
C925 C 0.33164 0.86998 0.3082 0.0
U926 U 0.3412 0.8409 0.34175 0.0
O927 O 0.34715 0.82226 0.33725 0.0
O928 O 0.35872 0.83391 0.34912 0.0
C929 C 0.35772 0.82352 0.3431 0.0
C930 C 0.34224 0.85764 0.32431 0.0
C931 C 0.36877 0.8197 0.33637 0.0
C932 C 0.38112 0.81889 0.31779 0.0
C933 C 0.37071 0.82303 0.32404 0.0
C934 C 0.38784 0.80826 0.33621 0.0
C935 C 0.38977 0.81135 0.32378 0.0
C936 C 0.37745 0.81238 0.34241 0.0
C937 C 0.31922 0.83458 0.36882 0.0
C938 C 0.32326 0.82139 0.38647 0.0
C939 C 0.30263 0.82876 0.38265 0.0
C940 C 0.3068 0.83501 0.37219 0.0
C941 C 0.31081 0.82197 0.39002 0.0
C942 C 0.32743 0.82764 0.37595 0.0
C943 C 0.32337 0.84164 0.35797 0.0
O944 O 0.34847 0.85847 0.33469 0.0
O945 O 0.33668 0.84696 0.32289 0.0
O946 O 0.32227 0.83603 0.34735 0.0
O947 O 0.33381 0.84776 0.35916 0.0
H948 H 0.33445 0.87681 0.33864 0.0
H949 H 0.32347 0.8951 0.33182 0.0
H950 H 0.32295 0.88135 0.29465 0.0
H951 H 0.33397 0.86307 0.30151 0.0
H952 H 0.38225 0.82138 0.30821 0.0
H953 H 0.36412 0.82872 0.31922 0.0
H954 H 0.3944 0.8027 0.3412 0.0
H955 H 0.37615 0.80978 0.35195 0.0
H956 H 0.32985 0.81634 0.39197 0.0
H957 H 0.29295 0.82923 0.38493 0.0
H958 H 0.30031 0.84025 0.36675 0.0
H959 H 0.33706 0.82716 0.37348 0.0
C960 C 0.68349 0.65096 0.20215 0.0
C961 C 0.69605 0.64941 0.19962 0.0
C962 C 0.69592 0.62991 0.21079 0.0
C963 C 0.70221 0.63899 0.20392 0.0
C964 C 0.68327 0.63142 0.21304 0.0
C965 C 0.67715 0.64184 0.20879 0.0
U966 U 0.6783 0.67881 0.18086 0.0
O967 O 0.66093 0.68648 0.17395 0.0
O968 O 0.67309 0.69766 0.1857 0.0
C969 C 0.66235 0.69674 0.18013 0.0
C970 C 0.67686 0.66207 0.19828 0.0
C971 C 0.65162 0.70095 0.18719 0.0
C972 C 0.63233 0.6971 0.19795 0.0
C973 C 0.64271 0.69272 0.19184 0.0
C974 C 0.63981 0.71794 0.19514 0.0
C975 C 0.63067 0.70979 0.19958 0.0
C976 C 0.65013 0.71356 0.189 0.0
C977 C 0.69956 0.68509 0.15325 0.0
C978 C 0.69548 0.69401 0.13306 0.0
C979 C 0.71598 0.69539 0.14186 0.0
C980 C 0.71188 0.68904 0.15231 0.0
C981 C 0.70787 0.69785 0.13205 0.0
C982 C 0.69136 0.68774 0.14357 0.0
C983 C 0.69566 0.67787 0.16416 0.0
O984 O 0.68285 0.67255 0.19956 0.0
O985 O 0.67072 0.66128 0.18787 0.0
O986 O 0.68513 0.67182 0.16328 0.0
O987 O 0.69724 0.68321 0.17487 0.0
H988 H 0.70112 0.65634 0.19448 0.0
H989 H 0.71196 0.63818 0.20209 0.0
H990 H 0.67805 0.62453 0.21807 0.0
H991 H 0.66744 0.64283 0.21076 0.0
H992 H 0.62546 0.69055 0.20113 0.0
H993 H 0.64367 0.68292 0.1906 0.0
H994 H 0.639 0.72774 0.19643 0.0
H995 H 0.65692 0.72007 0.18556 0.0
H996 H 0.68896 0.69589 0.12574 0.0
H997 H 0.7256 0.69809 0.14133 0.0
H998 H 0.7184 0.68706 0.15962 0.0
H999 H 0.68178 0.68488 0.14403 0.0
C1000 C 0.31771 0.68434 0.15402 0.0
C1001 C 0.32145 0.69651 0.15173 0.0
C1002 C 0.30981 0.69657 0.1325 0.0
C1003 C 0.31749 0.7026 0.14108 0.0
C1004 C 0.30615 0.68436 0.13486 0.0
C1005 C 0.31006 0.67832 0.14553 0.0
U1006 U 0.33979 0.68021 0.18116 0.0
O1007 O 0.33613 0.67483 0.20032 0.0
O1008 O 0.34775 0.66327 0.18879 0.0
C1009 C 0.34186 0.66432 0.19925 0.0
C1010 C 0.3218 0.67774 0.16511 0.0
C1011 C 0.33508 0.65323 0.20341 0.0
C1012 C 0.31599 0.64233 0.20824 0.0
C1013 C 0.32215 0.65292 0.20413 0.0
C1014 C 0.33555 0.63212 0.21074 0.0
C1015 C 0.32262 0.63181 0.21159 0.0
C1016 C 0.3417 0.64275 0.20674 0.0
C1017 C 0.36673 0.7028 0.18552 0.0
C1018 C 0.37965 0.70342 0.20383 0.0
C1019 C 0.38527 0.71548 0.18589 0.0
C1020 C 0.37484 0.71103 0.1797 0.0
C1021 C 0.38779 0.71179 0.19806 0.0
C1022 C 0.36922 0.69895 0.1976 0.0
C1023 C 0.35575 0.69837 0.17884 0.0
O1024 O 0.33237 0.67209 0.16414 0.0
O1025 O 0.32065 0.68364 0.17554 0.0
O1026 O 0.34523 0.69937 0.18466 0.0
O1027 O 0.35692 0.68779 0.17326 0.0
H1028 H 0.32746 0.70128 0.15816 0.0
H1029 H 0.32058 0.71196 0.13947 0.0
H1030 H 0.30012 0.6795 0.12852 0.0
H1031 H 0.30709 0.66892 0.14715 0.0
H1032 H 0.30602 0.64232 0.20866 0.0
H1033 H 0.31679 0.66085 0.20151 0.0
H1034 H 0.34092 0.62421 0.21337 0.0
H1035 H 0.35167 0.64279 0.20627 0.0
H1036 H 0.38123 0.70047 0.21322 0.0
H1037 H 0.39143 0.72172 0.18108 0.0
H1038 H 0.37309 0.71403 0.17034 0.0
H1039 H 0.36306 0.69255 0.20222 0.0
C1040 C 0.3198 0.33557 0.15256 0.0
C1041 C 0.32802 0.32847 0.14575 0.0
C1042 C 0.31151 0.32276 0.13146 0.0
C1043 C 0.32392 0.32214 0.13529 0.0
C1044 C 0.3033 0.3297 0.1385 0.0
C1045 C 0.30742 0.33604 0.14891 0.0
U1046 U 0.34174 0.34176 0.17974 0.0
O1047 O 0.34945 0.35934 0.18638 0.0
O1048 O 0.33766 0.34807 0.19841 0.0
C1049 C 0.34354 0.35859 0.19688 0.0
C1050 C 0.32395 0.34275 0.1633 0.0
C1051 C 0.33694 0.36971 0.20064 0.0
C1052 C 0.31805 0.38111 0.20364 0.0
C1053 C 0.3241 0.37067 0.19941 0.0
C1054 C 0.33763 0.38987 0.21008 0.0
C1055 C 0.32473 0.39081 0.20915 0.0
C1056 C 0.34364 0.37943 0.2059 0.0
C1057 C 0.36862 0.31984 0.18601 0.0
C1058 C 0.38626 0.32403 0.19931 0.0
C1059 C 0.38251 0.30344 0.19178 0.0
C1060 C 0.37203 0.3075 0.18551 0.0
C1061 C 0.38984 0.31166 0.19868 0.0
C1062 C 0.37574 0.32808 0.19304 0.0
C1063 C 0.35772 0.32386 0.179 0.0
O1064 O 0.32268 0.33734 0.17405 0.0
O1065 O 0.33452 0.34864 0.16212 0.0
O1066 O 0.35898 0.33413 0.17271 0.0
O1067 O 0.34714 0.32295 0.18476 0.0
H1068 H 0.33763 0.32795 0.14843 0.0
H1069 H 0.33053 0.31699 0.13006 0.0
H1070 H 0.29365 0.3302 0.13601 0.0
H1071 H 0.30092 0.34141 0.15409 0.0
H1072 H 0.30811 0.38144 0.20285 0.0
H1073 H 0.31872 0.36328 0.19533 0.0
H1074 H 0.34312 0.39723 0.21403 0.0
H1075 H 0.35357 0.37891 0.20688 0.0
H1076 H 0.39173 0.33064 0.20444 0.0
H1077 H 0.38481 0.29382 0.19127 0.0
H1078 H 0.36661 0.30098 0.1802 0.0
H1079 H 0.37323 0.33765 0.19358 0.0
C1080 C 0.65326 0.31797 0.18749 0.0
C1081 C 0.6472 0.32616 0.19525 0.0
C1082 C 0.63241 0.31012 0.20098 0.0
C1083 C 0.63683 0.32228 0.2019 0.0
C1084 C 0.63864 0.30193 0.19331 0.0
C1085 C 0.64896 0.30583 0.18662 0.0
U1086 U 0.68025 0.33993 0.18078 0.0
O1087 O 0.69898 0.33606 0.17443 0.0
O1088 O 0.68676 0.3474 0.16308 0.0
C1089 C 0.69737 0.34177 0.16387 0.0
C1090 C 0.66394 0.32193 0.1801 0.0
C1091 C 0.7012 0.33508 0.15284 0.0
C1092 C 0.7021 0.31648 0.14063 0.0
C1093 C 0.69788 0.32273 0.15099 0.0
C1094 C 0.71276 0.33492 0.13379 0.0
C1095 C 0.7097 0.32247 0.13196 0.0
C1096 C 0.70857 0.34113 0.14413 0.0
C1097 C 0.68677 0.36729 0.20203 0.0
C1098 C 0.69619 0.38714 0.19727 0.0
C1099 C 0.69687 0.37923 0.21811 0.0
C1100 C 0.69041 0.3687 0.21434 0.0
C1101 C 0.69974 0.38862 0.20964 0.0
C1102 C 0.68982 0.37656 0.19349 0.0
C1103 C 0.67961 0.35624 0.19843 0.0
O1104 O 0.66266 0.3323 0.17402 0.0
O1105 O 0.67475 0.32094 0.18548 0.0
O1106 O 0.68538 0.34575 0.19951 0.0
O1107 O 0.67301 0.35706 0.18829 0.0
H1108 H 0.65044 0.33556 0.1961 0.0
H1109 H 0.63234 0.32878 0.20783 0.0
H1110 H 0.63541 0.29255 0.19227 0.0
H1111 H 0.65351 0.29938 0.18067 0.0
H1112 H 0.69964 0.30688 0.13957 0.0
H1113 H 0.69217 0.3179 0.15762 0.0
H1114 H 0.71838 0.3399 0.12721 0.0
H1115 H 0.71116 0.35068 0.14537 0.0
H1116 H 0.6984 0.39414 0.19051 0.0
H1117 H 0.69936 0.38014 0.22772 0.0
H1118 H 0.68814 0.36169 0.22109 0.0
H1119 H 0.68722 0.37568 0.1839 0.0
C1120 C 0.65349 0.31804 0.83704 0.0
C1121 C 0.65128 0.32185 0.8249 0.0
C1122 C 0.63233 0.30959 0.8243 0.0
C1123 C 0.64079 0.31765 0.81857 0.0
C1124 C 0.63455 0.30597 0.83655 0.0
C1125 C 0.64503 0.31014 0.84284 0.0
U1126 U 0.68125 0.33958 0.84131 0.0
O1127 O 0.68911 0.3476 0.85815 0.0
O1128 O 0.70025 0.3353 0.84694 0.0
C1129 C 0.69934 0.34132 0.85732 0.0
C1130 C 0.66458 0.32209 0.84377 0.0
C1131 C 0.70325 0.33457 0.86845 0.0
C1132 C 0.69876 0.3247 0.88807 0.0
C1133 C 0.69476 0.3309 0.87751 0.0
C1134 C 0.71972 0.32551 0.88056 0.0
C1135 C 0.71129 0.32195 0.88972 0.0
C1136 C 0.71574 0.33179 0.87005 0.0
C1137 C 0.68706 0.36587 0.81862 0.0
C1138 C 0.7015 0.38266 0.82248 0.0
C1139 C 0.69248 0.38011 0.80221 0.0
C1140 C 0.68591 0.3698 0.80639 0.0
C1141 C 0.70029 0.38671 0.81023 0.0
C1142 C 0.69497 0.3723 0.82663 0.0
C1143 C 0.67985 0.35517 0.82289 0.0
O1144 O 0.67508 0.3206 0.83804 0.0
O1145 O 0.66381 0.33278 0.84924 0.0
O1146 O 0.67398 0.3566 0.83332 0.0
O1147 O 0.68536 0.34454 0.82209 0.0
H1148 H 0.65771 0.32798 0.82028 0.0
H1149 H 0.63945 0.32053 0.80912 0.0
H1150 H 0.62813 0.29997 0.84133 0.0
H1151 H 0.64656 0.30718 0.85224 0.0
H1152 H 0.69203 0.32196 0.8949 0.0
H1153 H 0.68504 0.33282 0.87644 0.0
H1154 H 0.72945 0.32363 0.88161 0.0
H1155 H 0.72243 0.33455 0.86319 0.0
H1156 H 0.70755 0.38746 0.82883 0.0
H1157 H 0.69123 0.38306 0.79277 0.0
H1158 H 0.67984 0.36495 0.80009 0.0
H1159 H 0.69605 0.36934 0.8361 0.0
C1160 C 0.65226 0.68407 0.81997 0.0
C1161 C 0.64437 0.68974 0.82834 0.0
C1162 C 0.63138 0.69696 0.81146 0.0
C1163 C 0.63402 0.6961 0.82413 0.0
C1164 C 0.6395 0.69148 0.80313 0.0
C1165 C 0.6498 0.68509 0.80735 0.0
U1166 U 0.67893 0.67727 0.8423 0.0
O1167 O 0.68538 0.65952 0.84948 0.0
O1168 O 0.69773 0.67116 0.83839 0.0
C1169 C 0.69603 0.66047 0.84385 0.0
C1170 C 0.66291 0.67682 0.82412 0.0
C1171 C 0.69979 0.64959 0.83688 0.0
C1172 C 0.70081 0.63789 0.81793 0.0
C1173 C 0.69699 0.64829 0.82433 0.0
C1174 C 0.7101 0.62994 0.83659 0.0
C1175 C 0.70742 0.62858 0.82399 0.0
C1176 C 0.70634 0.64034 0.84294 0.0
C1177 C 0.68449 0.69816 0.8703 0.0
C1178 C 0.70354 0.70156 0.88179 0.0
C1179 C 0.68401 0.70705 0.89074 0.0
C1180 C 0.67788 0.70292 0.88018 0.0
C1181 C 0.69694 0.70658 0.89163 0.0
C1182 C 0.69738 0.69736 0.87123 0.0
C1183 C 0.67776 0.69449 0.85905 0.0
O1184 O 0.67373 0.68232 0.82333 0.0
O1185 O 0.66147 0.67052 0.83437 0.0
O1186 O 0.67143 0.68415 0.85972 0.0
O1187 O 0.68369 0.69587 0.84861 0.0
H1188 H 0.64612 0.68912 0.83814 0.0
H1189 H 0.62793 0.7001 0.83083 0.0
H1190 H 0.63794 0.69214 0.79331 0.0
H1191 H 0.65581 0.68084 0.80073 0.0
H1192 H 0.69848 0.63707 0.80828 0.0
H1193 H 0.69186 0.6553 0.8195 0.0
H1194 H 0.71531 0.62304 0.84151 0.0
H1195 H 0.70859 0.64119 0.85262 0.0
H1196 H 0.7135 0.70113 0.88208 0.0
H1197 H 0.67858 0.71062 0.89821 0.0
H1198 H 0.66793 0.70355 0.87968 0.0
H1199 H 0.70269 0.69367 0.86374 0.0
C1200 C 0.31698 0.653 0.83688 0.0
C1201 C 0.32519 0.64695 0.82911 0.0
C1202 C 0.30907 0.63219 0.82348 0.0
C1203 C 0.32128 0.6366 0.8225 0.0
C1204 C 0.30089 0.63837 0.83121 0.0
C1205 C 0.30482 0.64866 0.83786 0.0
U1206 U 0.33868 0.68034 0.8427 0.0
O1207 O 0.3344 0.69913 0.84849 0.0
O1208 O 0.34619 0.68757 0.86006 0.0
C1209 C 0.34021 0.69795 0.85905 0.0
C1210 C 0.3209 0.66382 0.84402 0.0
C1211 C 0.33329 0.70174 0.86997 0.0
C1212 C 0.31901 0.69735 0.88663 0.0
C1213 C 0.32542 0.69353 0.8762 0.0
C1214 C 0.32815 0.71765 0.88456 0.0
C1215 C 0.3203 0.70947 0.89092 0.0
C1216 C 0.33458 0.7138 0.87419 0.0
C1217 C 0.36568 0.68642 0.82063 0.0
C1218 C 0.38447 0.69817 0.82469 0.0
C1219 C 0.37845 0.69364 0.80372 0.0
C1220 C 0.36797 0.6874 0.808 0.0
C1221 C 0.38692 0.69899 0.81201 0.0
C1222 C 0.37393 0.69197 0.82897 0.0
C1223 C 0.35479 0.67937 0.82482 0.0
O1224 O 0.33141 0.66285 0.84999 0.0
O1225 O 0.31966 0.67445 0.83842 0.0
O1226 O 0.34417 0.68494 0.82374 0.0
O1227 O 0.35597 0.67329 0.83523 0.0
H1228 H 0.33461 0.65023 0.82817 0.0
H1229 H 0.32777 0.63214 0.81653 0.0
H1230 H 0.29148 0.63514 0.8323 0.0
H1231 H 0.29836 0.65322 0.84381 0.0
H1232 H 0.31293 0.69087 0.89123 0.0
H1233 H 0.32423 0.68418 0.87302 0.0
H1234 H 0.32949 0.72698 0.88769 0.0
H1235 H 0.34062 0.72026 0.8695 0.0
H1236 H 0.39082 0.70208 0.83135 0.0
H1237 H 0.37987 0.69428 0.7939 0.0
H1238 H 0.36168 0.68326 0.80142 0.0
H1239 H 0.37232 0.69138 0.83877 0.0
C1240 C 0.33757 0.36987 0.82084 0.0
C1241 C 0.32518 0.37155 0.82398 0.0
C1242 C 0.3251 0.39123 0.81313 0.0
C1243 C 0.31898 0.38212 0.82011 0.0
C1244 C 0.33755 0.38949 0.81011 0.0
C1245 C 0.3437 0.37892 0.81392 0.0
U1246 U 0.34276 0.3422 0.84218 0.0
O1247 O 0.34817 0.32336 0.83773 0.0
O1248 O 0.36017 0.33478 0.8494 0.0
C1249 C 0.35884 0.32439 0.84343 0.0
C1250 C 0.3443 0.3588 0.82463 0.0
C1251 C 0.36971 0.32034 0.83655 0.0
C1252 C 0.3819 0.31953 0.81787 0.0
C1253 C 0.37161 0.32377 0.82424 0.0
C1254 C 0.38857 0.30859 0.83612 0.0
C1255 C 0.39048 0.31181 0.82371 0.0
C1256 C 0.37829 0.3128 0.84244 0.0
C1257 C 0.32121 0.33667 0.86972 0.0
C1258 C 0.3178 0.31755 0.88096 0.0
C1259 C 0.31163 0.33682 0.88987 0.0
C1260 C 0.31598 0.34309 0.87949 0.0
C1261 C 0.31235 0.32395 0.89071 0.0
C1262 C 0.3222 0.32386 0.87057 0.0
C1263 C 0.32529 0.34356 0.85873 0.0
O1264 O 0.35043 0.35963 0.83505 0.0
O1265 O 0.33836 0.34829 0.82338 0.0
O1266 O 0.32382 0.33803 0.8481 0.0
O1267 O 0.33591 0.3494 0.85973 0.0
H1268 H 0.3203 0.36471 0.8294 0.0
H1269 H 0.30944 0.38322 0.82272 0.0
H1270 H 0.34251 0.39622 0.80462 0.0
H1271 H 0.35326 0.37778 0.8114 0.0
H1272 H 0.38301 0.32212 0.80831 0.0
H1273 H 0.36509 0.32963 0.81953 0.0
H1274 H 0.39508 0.30288 0.841 0.0
H1275 H 0.37702 0.31013 0.85197 0.0
H1276 H 0.31842 0.30765 0.88122 0.0
H1277 H 0.30775 0.3421 0.89728 0.0
H1278 H 0.3152 0.35298 0.87905 0.0
H1279 H 0.32626 0.3187 0.86316 0.0
H1280 H 0.23155 0.25488 0.99282 0.0
H1281 H 0.22213 0.24679 0.97404 0.0
H1282 H 0.25792 0.23563 0.96138 0.0
H1283 H 0.26728 0.24352 0.98035 0.0
H1284 H 0.24403 0.24355 0.0109 0.0
H1285 H 0.25234 0.27503 0.98099 0.0
H1286 H 0.2602 0.28418 0.96203 0.0
H1287 H 0.29728 0.27479 0.97295 0.0
H1288 H 0.28926 0.26513 0.99164 0.0
H1289 H 0.28962 0.26532 0.0298 0.0
H1290 H 0.29756 0.27521 0.04845 0.0
H1291 H 0.26045 0.28473 0.05854 0.0
H1292 H 0.25263 0.27513 0.03977 0.0
H1293 H 0.27749 0.27495 0.01048 0.0
H1294 H 0.26934 0.24363 0.04037 0.0
H1295 H 0.26156 0.23444 0.05939 0.0
H1296 H 0.22444 0.24379 0.04867 0.0
H1297 H 0.23233 0.25327 0.0298 0.0
C1298 C 0.25014 0.2499 0.98797 0.0
C1299 C 0.23737 0.25066 0.98602 0.0
C1300 C 0.23201 0.24612 0.97523 0.0
C1301 C 0.23928 0.24062 0.96616 0.0
C1302 C 0.25205 0.23973 0.9682 0.0
C1303 C 0.25743 0.24433 0.979 0.0
C1304 C 0.25572 0.25487 0.99947 0.0
C1305 C 0.25125 0.25052 0.01081 0.0
C1306 C 0.26541 0.26372 0.99933 0.0
C1307 C 0.27017 0.26922 0.9877 0.0
C1308 C 0.26214 0.27476 0.97922 0.0
C1309 C 0.26669 0.28014 0.96842 0.0
C1310 C 0.2794 0.28026 0.96591 0.0
C1311 C 0.28742 0.27472 0.97445 0.0
C1312 C 0.28286 0.26929 0.98522 0.0
C1313 C 0.27052 0.26938 0.03341 0.0
C1314 C 0.2832 0.26954 0.03604 0.0
C1315 C 0.28771 0.27512 0.04675 0.0
C1316 C 0.27964 0.28077 0.05501 0.0
C1317 C 0.26694 0.28058 0.05234 0.0
C1318 C 0.26244 0.27498 0.04166 0.0
C1319 C 0.26572 0.26369 0.0219 0.0
C1320 C 0.27033 0.26792 0.01056 0.0
C1321 C 0.25617 0.25472 0.02202 0.0
C1322 C 0.25144 0.24925 0.03368 0.0
C1323 C 0.25954 0.24382 0.04217 0.0
C1324 C 0.25506 0.23846 0.05299 0.0
C1325 C 0.24236 0.23835 0.05556 0.0
C1326 C 0.23428 0.24383 0.04706 0.0
C1327 C 0.23877 0.24917 0.03621 0.0
H1328 H 0.76447 0.23194 0.99215 0.0
H1329 H 0.77421 0.2241 0.97358 0.0
H1330 H 0.78728 0.2607 0.96476 0.0
H1331 H 0.77781 0.26839 0.98348 0.0
H1332 H 0.77456 0.24264 0.012 0.0
H1333 H 0.74565 0.25389 0.98083 0.0
H1334 H 0.73785 0.26325 0.96189 0.0
H1335 H 0.74851 0.29906 0.97537 0.0
H1336 H 0.75649 0.28966 0.9942 0.0
H1337 H 0.75749 0.28858 0.03056 0.0
H1338 H 0.74943 0.29759 0.04934 0.0
H1339 H 0.73492 0.26212 0.06035 0.0
H1340 H 0.74274 0.25322 0.04134 0.0
H1341 H 0.74575 0.27759 0.01172 0.0
H1342 H 0.77549 0.26606 0.04254 0.0
H1343 H 0.78252 0.25669 0.06174 0.0
H1344 H 0.77026 0.22117 0.04868 0.0
H1345 H 0.76271 0.2307 0.02977 0.0
C1346 C 0.77031 0.25077 0.98918 0.0
C1347 C 0.76944 0.23826 0.98621 0.0
C1348 C 0.77493 0.23382 0.97554 0.0
C1349 C 0.78152 0.24177 0.96766 0.0
C1350 C 0.78239 0.25429 0.97068 0.0
C1351 C 0.77687 0.25873 0.98132 0.0
C1352 C 0.76465 0.25545 1.00063 0.0
C1353 C 0.76811 0.25016 0.01193 0.0
C1354 C 0.75641 0.26543 1.00054 0.0
C1355 C 0.7518 0.27104 0.98892 0.0
C1356 C 0.74648 0.26374 0.97965 0.0
C1357 C 0.742 0.2691 0.96883 0.0
C1358 C 0.74256 0.2819 0.96714 0.0
C1359 C 0.74782 0.28919 0.97646 0.0
C1360 C 0.75241 0.28382 0.98722 0.0
C1361 C 0.75082 0.2702 0.03457 0.0
C1362 C 0.75253 0.28275 0.03699 0.0
C1363 C 0.74801 0.28786 0.0478 0.0
C1364 C 0.74159 0.28056 0.0564 0.0
C1365 C 0.73975 0.26801 0.05389 0.0
C1366 C 0.74431 0.26289 0.04307 0.0
C1367 C 0.75577 0.26488 0.02307 0.0
C1368 C 0.75217 0.27004 0.01177 0.0
C1369 C 0.76387 0.25478 0.02316 0.0
C1370 C 0.76838 0.24912 0.03478 0.0
C1371 C 0.77417 0.25628 0.04388 0.0
C1372 C 0.77833 0.25087 0.05481 0.0
C1373 C 0.77693 0.23816 0.05681 0.0
C1374 C 0.77129 0.231 0.04757 0.0
C1375 C 0.76708 0.23642 0.03669 0.0
H1376 H 0.76496 0.78793 0.02951 0.0
H1377 H 0.77334 0.79727 0.04815 0.0
H1378 H 0.78629 0.76185 0.06028 0.0
H1379 H 0.77777 0.75253 0.04159 0.0
H1380 H 0.77635 0.77657 0.01137 0.0
H1381 H 0.74582 0.76578 0.0414 0.0
H1382 H 0.73734 0.75677 0.06023 0.0
H1383 H 0.74847 0.72085 0.04831 0.0
H1384 H 0.75709 0.72992 0.02957 0.0
H1385 H 0.75634 0.73043 0.9923 0.0
H1386 H 0.74662 0.72218 0.97374 0.0
H1387 H 0.7362 0.75883 0.96285 0.0
H1388 H 0.74541 0.76692 0.98168 0.0
H1389 H 0.74664 0.74166 0.01119 0.0
H1390 H 0.77733 0.7528 0.98105 0.0
H1391 H 0.786 0.76221 0.96248 0.0
H1392 H 0.77381 0.79773 0.97463 0.0
H1393 H 0.7653 0.78828 0.99317 0.0
C1394 C 0.77066 0.76952 0.03416 0.0
C1395 C 0.76961 0.78217 0.03618 0.0
C1396 C 0.77446 0.78751 0.04684 0.0
C1397 C 0.78055 0.78033 0.05572 0.0
C1398 C 0.78153 0.76763 0.05372 0.0
C1399 C 0.77668 0.76229 0.04302 0.0
C1400 C 0.76574 0.76404 0.02259 0.0
C1401 C 0.76974 0.76901 0.01133 0.0
C1402 C 0.75736 0.75396 0.02256 0.0
C1403 C 0.75227 0.74856 0.0341 0.0
C1404 C 0.7466 0.75599 0.0429 0.0
C1405 C 0.74173 0.75082 0.05367 0.0
C1406 C 0.74224 0.73809 0.05578 0.0
C1407 C 0.74781 0.73067 0.04691 0.0
C1408 C 0.75277 0.73585 0.0362 0.0
C1409 C 0.75174 0.74932 0.98837 0.0
C1410 C 0.75195 0.73669 0.98591 0.0
C1411 C 0.74648 0.73199 0.97522 0.0
C1412 C 0.74062 0.73982 0.96674 0.0
C1413 C 0.74048 0.75249 0.96921 0.0
C1414 C 0.74591 0.75716 0.97993 0.0
C1415 C 0.7572 0.75424 0.99996 0.0
C1416 C 0.7533 0.74916 0.01123 0.0
C1417 C 0.76566 0.76425 1.00002 0.0
C1418 C 0.7706 0.76982 0.98851 0.0
C1419 C 0.77643 0.7626 0.97965 0.0
C1420 C 0.78137 0.768 0.96902 0.0
C1421 C 0.78066 0.78075 0.96706 0.0
C1422 C 0.77474 0.78792 0.97592 0.0
C1423 C 0.76981 0.78252 0.98652 0.0
H1424 H 0.26293 0.73208 0.99225 0.0
H1425 H 0.27152 0.72389 0.97327 0.0
H1426 H 0.28631 0.75983 0.9643 0.0
H1427 H 0.27763 0.76793 0.9832 0.0
H1428 H 0.27382 0.74257 0.01196 0.0
H1429 H 0.24384 0.75482 0.98172 0.0
H1430 H 0.2366 0.76418 0.96254 0.0
H1431 H 0.25129 0.79926 0.97431 0.0
H1432 H 0.25873 0.78979 0.99334 0.0
H1433 H 0.25779 0.78933 0.03043 0.0
H1434 H 0.24936 0.79856 0.04892 0.0
H1435 H 0.23444 0.76326 0.05996 0.0
H1436 H 0.24299 0.75406 0.04145 0.0
H1437 H 0.24631 0.77857 0.01167 0.0
H1438 H 0.27649 0.76638 0.04178 0.0
H1439 H 0.28454 0.75697 0.06057 0.0
H1440 H 0.26938 0.72192 0.04927 0.0
H1441 H 0.2615 0.73138 0.03044 0.0
C1442 C 0.26949 0.75066 0.98909 0.0
C1443 C 0.26804 0.73818 0.98619 0.0
C1444 C 0.27299 0.73351 0.97535 0.0
C1445 C 0.27957 0.74121 0.9672 0.0
C1446 C 0.2811 0.75368 0.97022 0.0
C1447 C 0.27616 0.75833 0.98105 0.0
C1448 C 0.26423 0.75563 1.00061 0.0
C1449 C 0.26764 0.75032 0.0119 0.0
C1450 C 0.2564 0.76592 1.00054 0.0
C1451 C 0.25192 0.77158 0.98892 0.0
C1452 C 0.24557 0.76451 0.98013 0.0
C1453 C 0.24135 0.76989 0.96921 0.0
C1454 C 0.24339 0.78246 0.96689 0.0
C1455 C 0.24971 0.78952 0.97574 0.0
C1456 C 0.25388 0.78415 0.98667 0.0
C1457 C 0.2511 0.77099 0.03456 0.0
C1458 C 0.25271 0.78357 0.03683 0.0
C1459 C 0.24783 0.78885 0.0474 0.0
C1460 C 0.24117 0.78167 0.05593 0.0
C1461 C 0.23965 0.76903 0.05368 0.0
C1462 C 0.24453 0.76376 0.04309 0.0
C1463 C 0.25596 0.76557 0.02307 0.0
C1464 C 0.25245 0.77079 0.01176 0.0
C1465 C 0.26371 0.75521 0.02314 0.0
C1466 C 0.26831 0.74961 0.03474 0.0
C1467 C 0.27481 0.7567 0.04341 0.0
C1468 C 0.27939 0.7513 0.05417 0.0
C1469 C 0.27763 0.73867 0.05645 0.0
C1470 C 0.27108 0.73162 0.04774 0.0
C1471 C 0.26651 0.73702 0.03699 0.0
H1472 H 0.02883 0.25781 0.23144 0.0
H1473 H 0.04736 0.24938 0.22222 0.0
H1474 H 0.05911 0.23623 0.25787 0.0
H1475 H 0.04048 0.24453 0.26704 0.0
H1476 H 0.01028 0.24701 0.24247 0.0
H1477 H 0.04056 0.27747 0.25478 0.0
H1478 H 0.05975 0.28497 0.26419 0.0
H1479 H 0.04823 0.26987 0.29916 0.0
H1480 H 0.02922 0.26218 0.28964 0.0
H1481 H 0.99214 0.26349 0.28964 0.0
H1482 H 0.97343 0.27149 0.29883 0.0
H1483 H 0.9615 0.28446 0.26313 0.0
H1484 H 0.9805 0.27692 0.25411 0.0
H1485 H 0.01073 0.27446 0.27867 0.0
H1486 H 0.98062 0.24397 0.26657 0.0
H1487 H 0.9618 0.23562 0.25719 0.0
H1488 H 0.97286 0.25076 0.22207 0.0
H1489 H 0.99169 0.25894 0.23148 0.0
C1490 C 0.03328 0.25195 0.24997 0.0
C1491 C 0.03538 0.2531 0.23728 0.0
C1492 C 0.04597 0.24825 0.23201 0.0
C1493 C 0.05472 0.24213 0.23931 0.0
C1494 C 0.05264 0.24103 0.25202 0.0
C1495 C 0.04199 0.24581 0.25728 0.0
C1496 C 0.02176 0.2568 0.25543 0.0
C1497 C 0.01039 0.25317 0.25027 0.0
C1498 C 0.02186 0.26456 0.26583 0.0
C1499 C 0.0335 0.26916 0.27148 0.0
C1500 C 0.04222 0.2757 0.26445 0.0
C1501 C 0.05313 0.28007 0.26987 0.0
C1502 C 0.05553 0.27799 0.28242 0.0
C1503 C 0.04675 0.27148 0.28944 0.0
C1504 C 0.03583 0.26717 0.28403 0.0
C1505 C 0.98771 0.26946 0.27115 0.0
C1506 C 0.98552 0.2681 0.2838 0.0
C1507 C 0.97473 0.27259 0.28902 0.0
C1508 C 0.96587 0.27857 0.28173 0.0
C1509 C 0.96814 0.28001 0.26907 0.0
C1510 C 0.97896 0.27556 0.26386 0.0
C1511 C 0.99925 0.26471 0.26568 0.0
C1512 C 0.01062 0.26834 0.27084 0.0
C1513 C 0.99916 0.25692 0.2553 0.0
C1514 C 0.98753 0.25215 0.24974 0.0
C1515 C 0.97892 0.24558 0.25687 0.0
C1516 C 0.96815 0.24083 0.2515 0.0
C1517 C 0.96581 0.24249 0.23886 0.0
C1518 C 0.97444 0.24913 0.23178 0.0
C1519 C 0.9852 0.25387 0.23715 0.0
H1520 H 0.76439 0.02968 0.2336 0.0
H1521 H 0.77306 0.04905 0.22591 0.0
H1522 H 0.78525 0.05814 0.26269 0.0
H1523 H 0.77638 0.03886 0.27031 0.0
H1524 H 0.77572 0.01045 0.24512 0.0
H1525 H 0.74397 0.03962 0.25485 0.0
H1526 H 0.73524 0.058 0.264 0.0
H1527 H 0.74662 0.04538 0.3 0.0
H1528 H 0.7552 0.027 0.2908 0.0
H1529 H 0.75449 0.98969 0.28956 0.0
H1530 H 0.7449 0.97063 0.29703 0.0
H1531 H 0.73477 0.96115 0.25977 0.0
H1532 H 0.74413 0.98033 0.25241 0.0
H1533 H 0.74429 0.00883 0.27804 0.0
H1534 H 0.77547 0.98006 0.26954 0.0
H1535 H 0.78491 0.96157 0.26157 0.0
H1536 H 0.77679 0.97353 0.22448 0.0
H1537 H 0.76684 0.99177 0.23257 0.0
C1538 C 0.76963 0.03288 0.25254 0.0
C1539 C 0.76894 0.03586 0.23999 0.0
C1540 C 0.77395 0.04692 0.23561 0.0
C1541 C 0.77986 0.05519 0.24367 0.0
C1542 C 0.78058 0.05212 0.25624 0.0
C1543 C 0.77555 0.04107 0.26062 0.0
C1544 C 0.76436 0.02109 0.25713 0.0
C1545 C 0.7687 0.01007 0.25218 0.0
C1546 C 0.75552 0.02065 0.26665 0.0
C1547 C 0.75033 0.03195 0.27212 0.0
C1548 C 0.74467 0.04086 0.2647 0.0
C1549 C 0.73969 0.05139 0.26995 0.0
C1550 C 0.7402 0.0532 0.28275 0.0
C1551 C 0.74588 0.04423 0.29014 0.0
C1552 C 0.75084 0.03372 0.28489 0.0
C1553 C 0.75009 0.98641 0.27042 0.0
C1554 C 0.7502 0.98349 0.28301 0.0
C1555 C 0.74481 0.97256 0.28725 0.0
C1556 C 0.73908 0.96437 0.27899 0.0
C1557 C 0.73901 0.96731 0.26638 0.0
C1558 C 0.74445 0.97822 0.26215 0.0
C1559 C 0.75557 0.99817 0.26598 0.0
C1560 C 0.75128 0.00918 0.27095 0.0
C1561 C 0.76456 0.9986 0.25658 0.0
C1562 C 0.77027 0.98727 0.25168 0.0
C1563 C 0.77554 0.97863 0.25969 0.0
C1564 C 0.78109 0.9681 0.2551 0.0
C1565 C 0.78165 0.96602 0.24235 0.0
C1566 C 0.77639 0.97471 0.23434 0.0
C1567 C 0.77079 0.98523 0.23896 0.0
H1568 H 0.0275 0.73175 0.26656 0.0
H1569 H 0.04625 0.72223 0.27438 0.0
H1570 H 0.05939 0.75756 0.2871 0.0
H1571 H 0.04043 0.76699 0.27951 0.0
H1572 H 0.00952 0.74341 0.27805 0.0
H1573 H 0.03872 0.75327 0.24662 0.0
H1574 H 0.05779 0.76129 0.23769 0.0
H1575 H 0.04915 0.79749 0.25092 0.0
H1576 H 0.02999 0.78939 0.25972 0.0
H1577 H 0.99073 0.78959 0.25872 0.0
H1578 H 0.97218 0.7977 0.24882 0.0
H1579 H 0.96229 0.76117 0.23672 0.0
H1580 H 0.98098 0.75322 0.24629 0.0
H1581 H 0.01025 0.77833 0.2486 0.0
H1582 H 0.97969 0.76756 0.27906 0.0
H1583 H 0.96039 0.75851 0.28665 0.0
H1584 H 0.9719 0.72288 0.27418 0.0
H1585 H 0.99102 0.73202 0.26641 0.0
C1586 C 0.03257 0.7501 0.27236 0.0
C1587 C 0.0344 0.73745 0.27107 0.0
C1588 C 0.04518 0.73203 0.27546 0.0
C1589 C 0.05437 0.73913 0.28132 0.0
C1590 C 0.05247 0.7518 0.28272 0.0
C1591 C 0.04168 0.75723 0.27828 0.0
C1592 C 0.02108 0.75577 0.26758 0.0
C1593 C 0.00968 0.75098 0.27153 0.0
C1594 C 0.02129 0.76581 0.25925 0.0
C1595 C 0.03298 0.77069 0.25397 0.0
C1596 C 0.04099 0.76291 0.2477 0.0
C1597 C 0.05193 0.76752 0.24262 0.0
C1598 C 0.05507 0.78004 0.24362 0.0
C1599 C 0.04698 0.78783 0.24985 0.0
C1600 C 0.03603 0.78321 0.25493 0.0
C1601 C 0.98721 0.77078 0.25337 0.0
C1602 C 0.98455 0.78334 0.25394 0.0
C1603 C 0.97389 0.78794 0.24835 0.0
C1604 C 0.96573 0.78009 0.24197 0.0
C1605 C 0.96843 0.7675 0.24143 0.0
C1606 C 0.97906 0.76292 0.24703 0.0
C1607 C 0.99869 0.76591 0.25901 0.0
C1608 C 0.01009 0.77085 0.25523 0.0
C1609 C 0.99849 0.75591 0.26739 0.0
C1610 C 0.98677 0.75048 0.27207 0.0
C1611 C 0.97801 0.75781 0.27789 0.0
C1612 C 0.96703 0.75261 0.28231 0.0
C1613 C 0.96458 0.73997 0.28099 0.0
C1614 C 0.97341 0.73267 0.27521 0.0
C1615 C 0.9844 0.73786 0.27084 0.0
H1616 H 0.23106 0.02755 0.25776 0.0
H1617 H 0.22145 0.04617 0.24984 0.0
H1618 H 0.25711 0.05994 0.2384 0.0
H1619 H 0.26664 0.04113 0.24608 0.0
H1620 H 0.24344 0.01005 0.24628 0.0
H1621 H 0.25183 0.03859 0.27853 0.0
H1622 H 0.25927 0.05752 0.2881 0.0
H1623 H 0.29626 0.04961 0.27627 0.0
H1624 H 0.28868 0.03081 0.26641 0.0
H1625 H 0.29009 0.99302 0.26619 0.0
H1626 H 0.29923 0.97431 0.27453 0.0
H1627 H 0.26307 0.96097 0.2848 0.0
H1628 H 0.25398 0.97978 0.27662 0.0
H1629 H 0.27774 0.01076 0.27656 0.0
H1630 H 0.26835 0.9804 0.24566 0.0
H1631 H 0.2597 0.96133 0.23727 0.0
H1632 H 0.22326 0.97265 0.24777 0.0
H1633 H 0.23195 0.99156 0.25633 0.0
C1634 C 0.24958 0.03296 0.25261 0.0
C1635 C 0.23681 0.03457 0.25352 0.0
C1636 C 0.23134 0.04527 0.24907 0.0
C1637 C 0.23851 0.05459 0.24353 0.0
C1638 C 0.2513 0.05292 0.24253 0.0
C1639 C 0.25678 0.04221 0.24702 0.0
C1640 C 0.2553 0.02152 0.25735 0.0
C1641 C 0.25085 0.01018 0.25301 0.0
C1642 C 0.26515 0.02172 0.26595 0.0
C1643 C 0.26967 0.03333 0.27163 0.0
C1644 C 0.26152 0.04099 0.27787 0.0
C1645 C 0.26582 0.05177 0.28345 0.0
C1646 C 0.27838 0.05509 0.28298 0.0
C1647 C 0.28651 0.0474 0.27669 0.0
C1648 C 0.28221 0.03661 0.27113 0.0
C1649 C 0.27132 0.98777 0.27061 0.0
C1650 C 0.28412 0.98609 0.27029 0.0
C1651 C 0.28934 0.9754 0.27508 0.0
C1652 C 0.28187 0.96613 0.28029 0.0
C1653 C 0.26906 0.96785 0.28068 0.0
C1654 C 0.26385 0.9786 0.27599 0.0
C1655 C 0.26585 0.99922 0.26553 0.0
C1656 C 0.27037 0.01059 0.26979 0.0
C1657 C 0.25596 0.99902 0.25694 0.0
C1658 C 0.25083 0.98739 0.25177 0.0
C1659 C 0.25851 0.97872 0.24629 0.0
C1660 C 0.25356 0.96783 0.24148 0.0
C1661 C 0.24079 0.96549 0.24185 0.0
C1662 C 0.23311 0.97424 0.24721 0.0
C1663 C 0.23808 0.98505 0.25213 0.0
H1664 H 0.02861 0.76225 0.79002 0.0
H1665 H 0.04771 0.76947 0.7996 0.0
H1666 H 0.06082 0.78198 0.76416 0.0
H1667 H 0.0414 0.77531 0.75476 0.0
H1668 H 0.01096 0.77409 0.77889 0.0
H1669 H 0.03934 0.74268 0.76682 0.0
H1670 H 0.05766 0.73386 0.7575 0.0
H1671 H 0.04706 0.74921 0.72234 0.0
H1672 H 0.02875 0.7579 0.73169 0.0
H1673 H 0.99097 0.75948 0.73181 0.0
H1674 H 0.9717 0.7519 0.72268 0.0
H1675 H 0.96083 0.73693 0.75791 0.0
H1676 H 0.98024 0.74431 0.76691 0.0
H1677 H 0.00956 0.74687 0.74252 0.0
H1678 H 0.9811 0.77801 0.75455 0.0
H1679 H 0.96223 0.78591 0.76362 0.0
H1680 H 0.97311 0.77115 0.79893 0.0
H1681 H 0.99177 0.76297 0.78973 0.0
C1682 C 0.03359 0.7681 0.77164 0.0
C1683 C 0.03557 0.76659 0.78432 0.0
C1684 C 0.04658 0.77062 0.78977 0.0
C1685 C 0.05588 0.77625 0.78266 0.0
C1686 C 0.05384 0.7778 0.76996 0.0
C1687 C 0.04278 0.77384 0.76453 0.0
C1688 C 0.02177 0.76391 0.76597 0.0
C1689 C 0.01066 0.76801 0.77103 0.0
C1690 C 0.02138 0.75621 0.75552 0.0
C1691 C 0.03269 0.75104 0.74998 0.0
C1692 C 0.04103 0.74424 0.75712 0.0
C1693 C 0.05152 0.73921 0.75178 0.0
C1694 C 0.05385 0.7408 0.73915 0.0
C1695 C 0.04548 0.74763 0.73204 0.0
C1696 C 0.03502 0.75266 0.73739 0.0
C1697 C 0.987 0.75256 0.75006 0.0
C1698 C 0.98443 0.75456 0.73756 0.0
C1699 C 0.97338 0.7503 0.73238 0.0
C1700 C 0.96471 0.74384 0.73958 0.0
C1701 C 0.96735 0.74178 0.7521 0.0
C1702 C 0.97839 0.74609 0.75728 0.0
C1703 C 0.99881 0.757 0.75549 0.0
C1704 C 0.00989 0.75296 0.75037 0.0
C1705 C 0.99919 0.76473 0.7659 0.0
C1706 C 0.9878 0.76976 0.77142 0.0
C1707 C 0.97937 0.77639 0.76423 0.0
C1708 C 0.96863 0.78101 0.76945 0.0
C1709 C 0.96611 0.77914 0.78201 0.0
C1710 C 0.97465 0.7726 0.7892 0.0
C1711 C 0.98539 0.76801 0.78398 0.0
H1712 H 0.26582 0.02837 0.73308 0.0
H1713 H 0.27498 0.04738 0.72503 0.0
H1714 H 0.28478 0.05832 0.76195 0.0
H1715 H 0.2758 0.03922 0.76994 0.0
H1716 H 0.27573 0.00985 0.74477 0.0
H1717 H 0.24432 0.03921 0.75472 0.0
H1718 H 0.23554 0.05761 0.76382 0.0
H1719 H 0.24711 0.0452 0.79983 0.0
H1720 H 0.25574 0.02681 0.79068 0.0
H1721 H 0.25555 0.98936 0.78965 0.0
H1722 H 0.24606 0.97039 0.79743 0.0
H1723 H 0.23462 0.96099 0.76051 0.0
H1724 H 0.24389 0.9801 0.75285 0.0
H1725 H 0.24491 0.0086 0.77825 0.0
H1726 H 0.27629 0.97972 0.76887 0.0
H1727 H 0.2852 0.96112 0.76045 0.0
H1728 H 0.2741 0.97245 0.72393 0.0
H1729 H 0.26533 0.99112 0.73244 0.0
C1730 C 0.26998 0.0324 0.75214 0.0
C1731 C 0.26996 0.03486 0.73945 0.0
C1732 C 0.27521 0.04571 0.73485 0.0
C1733 C 0.28057 0.05437 0.74286 0.0
C1734 C 0.28055 0.05192 0.75556 0.0
C1735 C 0.2754 0.04101 0.76015 0.0
C1736 C 0.26467 0.02068 0.75692 0.0
C1737 C 0.26885 0.00959 0.75196 0.0
C1738 C 0.25596 0.02032 0.76658 0.0
C1739 C 0.25078 0.03165 0.772 0.0
C1740 C 0.24505 0.04051 0.76456 0.0
C1741 C 0.24005 0.05104 0.76978 0.0
C1742 C 0.24059 0.0529 0.78258 0.0
C1743 C 0.24634 0.04399 0.78998 0.0
C1744 C 0.25133 0.03348 0.78476 0.0
C1745 C 0.2505 0.98611 0.77066 0.0
C1746 C 0.25101 0.9832 0.78324 0.0
C1747 C 0.24566 0.97231 0.78766 0.0
C1748 C 0.23959 0.96417 0.77959 0.0
C1749 C 0.23912 0.96712 0.76699 0.0
C1750 C 0.24452 0.97798 0.76257 0.0
C1751 C 0.25592 0.99783 0.76604 0.0
C1752 C 0.25177 0.00889 0.77104 0.0
C1753 C 0.26468 0.99817 0.75645 0.0
C1754 C 0.27002 0.98678 0.75131 0.0
C1755 C 0.27568 0.97815 0.75906 0.0
C1756 C 0.28075 0.96749 0.75422 0.0
C1757 C 0.28034 0.96523 0.74149 0.0
C1758 C 0.27473 0.97394 0.73375 0.0
C1759 C 0.26966 0.98461 0.7386 0.0
H1760 H 0.99218 0.26539 0.73329 0.0
H1761 H 0.97344 0.27398 0.72436 0.0
H1762 H 0.96131 0.28429 0.76057 0.0
H1763 H 0.98018 0.27585 0.76946 0.0
H1764 H 0.0106 0.27519 0.74498 0.0
H1765 H 0.98068 0.24412 0.75486 0.0
H1766 H 0.96166 0.23529 0.76314 0.0
H1767 H 0.97218 0.24758 0.79947 0.0
H1768 H 0.99129 0.25626 0.79111 0.0
H1769 H 0.03024 0.25549 0.79066 0.0
H1770 H 0.04884 0.24565 0.79861 0.0
H1771 H 0.05743 0.23337 0.76198 0.0
H1772 H 0.03868 0.24292 0.75418 0.0
H1773 H 0.01018 0.2453 0.77953 0.0
H1774 H 0.04128 0.27563 0.76844 0.0
H1775 H 0.06046 0.28298 0.75902 0.0
H1776 H 0.0473 0.27065 0.72357 0.0
H1777 H 0.02828 0.26312 0.73307 0.0
C1778 C 0.98758 0.26985 0.75208 0.0
C1779 C 0.98552 0.26955 0.73932 0.0
C1780 C 0.97481 0.27449 0.73422 0.0
C1781 C 0.96588 0.27982 0.74175 0.0
C1782 C 0.96793 0.28011 0.75453 0.0
C1783 C 0.97872 0.27526 0.75963 0.0
C1784 C 0.99912 0.2647 0.75739 0.0
C1785 C 0.01048 0.26855 0.75245 0.0
C1786 C 0.99902 0.2562 0.76731 0.0
C1787 C 0.98737 0.25097 0.77234 0.0
C1788 C 0.97884 0.24501 0.76459 0.0
C1789 C 0.96794 0.23999 0.76935 0.0
C1790 C 0.96533 0.24075 0.78198 0.0
C1791 C 0.97393 0.24668 0.78973 0.0
C1792 C 0.98485 0.2517 0.78496 0.0
C1793 C 0.03311 0.25006 0.7718 0.0
C1794 C 0.03614 0.25068 0.78435 0.0
C1795 C 0.04683 0.24512 0.78887 0.0
C1796 C 0.05465 0.23872 0.78094 0.0
C1797 C 0.05157 0.23811 0.76837 0.0
C1798 C 0.04091 0.24368 0.76387 0.0
C1799 C 0.02162 0.25574 0.76705 0.0
C1800 C 0.01028 0.252 0.77212 0.0
C1801 C 0.02172 0.26419 0.75712 0.0
C1802 C 0.03337 0.26873 0.75148 0.0
C1803 C 0.04257 0.27444 0.75865 0.0
C1804 C 0.05349 0.27873 0.75324 0.0
C1805 C 0.05543 0.27737 0.74054 0.0
C1806 C 0.04618 0.27169 0.73339 0.0
C1807 C 0.03525 0.26747 0.73879 0.0
H1808 H 0.73131 0.02815 0.75785 0.0
H1809 H 0.72193 0.04685 0.74982 0.0
H1810 H 0.75768 0.05988 0.73783 0.0
H1811 H 0.76696 0.04098 0.7456 0.0
H1812 H 0.74327 0.01027 0.74648 0.0
H1813 H 0.75267 0.03915 0.77831 0.0
H1814 H 0.76064 0.05805 0.78751 0.0
H1815 H 0.79713 0.04955 0.77458 0.0
H1816 H 0.78909 0.03056 0.76553 0.0
H1817 H 0.79013 0.9931 0.7657 0.0
H1818 H 0.7994 0.97448 0.77405 0.0
H1819 H 0.76341 0.96118 0.78494 0.0
H1820 H 0.75418 0.97992 0.77674 0.0
H1821 H 0.77808 0.01086 0.77618 0.0
H1822 H 0.76795 0.98043 0.74561 0.0
H1823 H 0.75903 0.96145 0.73728 0.0
H1824 H 0.72284 0.97306 0.74827 0.0
H1825 H 0.7318 0.99189 0.75677 0.0
C1826 C 0.74986 0.03318 0.75243 0.0
C1827 C 0.73712 0.03502 0.75346 0.0
C1828 C 0.73179 0.04577 0.74895 0.0
C1829 C 0.73905 0.05491 0.74322 0.0
C1830 C 0.75179 0.053 0.7421 0.0
C1831 C 0.75713 0.04224 0.74664 0.0
C1832 C 0.75545 0.0217 0.75725 0.0
C1833 C 0.75079 0.01037 0.75309 0.0
C1834 C 0.76543 0.02187 0.76569 0.0
C1835 C 0.77026 0.03348 0.77111 0.0
C1836 C 0.76237 0.04141 0.77735 0.0
C1837 C 0.76695 0.05225 0.78259 0.0
C1838 C 0.77954 0.05538 0.78177 0.0
C1839 C 0.78742 0.04737 0.77554 0.0
C1840 C 0.78283 0.03653 0.77031 0.0
C1841 C 0.77143 0.98789 0.77043 0.0
C1842 C 0.78422 0.98621 0.76992 0.0
C1843 C 0.78952 0.97556 0.77473 0.0
C1844 C 0.78214 0.96633 0.78014 0.0
C1845 C 0.76933 0.96803 0.78067 0.0
C1846 C 0.76404 0.97874 0.77597 0.0
C1847 C 0.7659 0.99935 0.76542 0.0
C1848 C 0.77059 0.01071 0.76954 0.0
C1849 C 0.75587 0.99918 0.75701 0.0
C1850 C 0.75058 0.98757 0.75195 0.0
C1851 C 0.75812 0.97883 0.74637 0.0
C1852 C 0.75301 0.96798 0.7416 0.0
C1853 C 0.74023 0.96576 0.74211 0.0
C1854 C 0.7327 0.97456 0.74761 0.0
C1855 C 0.73782 0.98533 0.75248 0.0
H1856 H 0.28932 0.76352 0.49177 0.0
H1857 H 0.2973 0.77307 0.47297 0.0
H1858 H 0.2604 0.78386 0.4629 0.0
H1859 H 0.25256 0.77463 0.48187 0.0
H1860 H 0.27789 0.77386 0.51095 0.0
H1861 H 0.26745 0.74278 0.48101 0.0
H1862 H 0.25815 0.73395 0.46247 0.0
H1863 H 0.22222 0.7451 0.47482 0.0
H1864 H 0.23156 0.7538 0.49333 0.0
H1865 H 0.23218 0.75382 0.53012 0.0
H1866 H 0.22376 0.74526 0.54916 0.0
H1867 H 0.26028 0.73412 0.56023 0.0
H1868 H 0.26863 0.74283 0.54123 0.0
H1869 H 0.24379 0.74315 0.51153 0.0
H1870 H 0.25322 0.77486 0.54031 0.0
H1871 H 0.26136 0.78403 0.55914 0.0
H1872 H 0.29803 0.77285 0.54918 0.0
H1873 H 0.28979 0.76377 0.53027 0.0
C1874 C 0.27032 0.76825 0.48821 0.0
C1875 C 0.28295 0.76794 0.4855 0.0
C1876 C 0.28749 0.77332 0.4747 0.0
C1877 C 0.2795 0.77923 0.4664 0.0
C1878 C 0.26684 0.7795 0.46913 0.0
C1879 C 0.26232 0.77411 0.47993 0.0
C1880 C 0.26557 0.76282 0.49986 0.0
C1881 C 0.27058 0.76698 0.51107 0.0
C1882 C 0.25575 0.75413 0.50003 0.0
C1883 C 0.25022 0.74902 0.48856 0.0
C1884 C 0.25758 0.74342 0.47966 0.0
C1885 C 0.25225 0.73839 0.46905 0.0
C1886 C 0.23941 0.73877 0.46714 0.0
C1887 C 0.2321 0.74444 0.47606 0.0
C1888 C 0.23744 0.74947 0.48665 0.0
C1889 C 0.25106 0.74907 0.53427 0.0
C1890 C 0.23837 0.74953 0.53665 0.0
C1891 C 0.23356 0.74458 0.54754 0.0
C1892 C 0.24133 0.73899 0.55627 0.0
C1893 C 0.25405 0.73854 0.55383 0.0
C1894 C 0.25884 0.74349 0.54294 0.0
C1895 C 0.25609 0.75421 0.52259 0.0
C1896 C 0.25115 0.74998 0.5114 0.0
C1897 C 0.26587 0.76294 0.52243 0.0
C1898 C 0.27086 0.76849 0.53392 0.0
C1899 C 0.263 0.77428 0.54223 0.0
C1900 C 0.26768 0.77951 0.55302 0.0
C1901 C 0.28036 0.77914 0.55574 0.0
C1902 C 0.28824 0.77343 0.54734 0.0
C1903 C 0.28354 0.76819 0.53653 0.0
H1904 H 0.76362 0.73162 0.49221 0.0
H1905 H 0.77241 0.72354 0.47329 0.0
H1906 H 0.7868 0.75965 0.46438 0.0
H1907 H 0.77788 0.76766 0.48322 0.0
H1908 H 0.77432 0.74212 0.51189 0.0
H1909 H 0.74518 0.75395 0.48115 0.0
H1910 H 0.73795 0.76326 0.46201 0.0
H1911 H 0.74963 0.79894 0.47517 0.0
H1912 H 0.75741 0.78947 0.494 0.0
H1913 H 0.75795 0.78856 0.53056 0.0
H1914 H 0.74961 0.79769 0.54914 0.0
H1915 H 0.73484 0.76231 0.5601 0.0
H1916 H 0.7433 0.75321 0.5415 0.0
H1917 H 0.74634 0.77775 0.51181 0.0
H1918 H 0.77677 0.76555 0.54191 0.0
H1919 H 0.78487 0.75592 0.56058 0.0
H1920 H 0.76971 0.721 0.54888 0.0
H1921 H 0.76181 0.73067 0.53018 0.0
C1922 C 0.76997 0.75027 0.48908 0.0
C1923 C 0.76868 0.73778 0.48617 0.0
C1924 C 0.77375 0.73318 0.47536 0.0
C1925 C 0.78029 0.74095 0.46726 0.0
C1926 C 0.78163 0.75344 0.47026 0.0
C1927 C 0.77656 0.75804 0.48107 0.0
C1928 C 0.7646 0.75514 0.5006 0.0
C1929 C 0.76806 0.7498 0.51186 0.0
C1930 C 0.7566 0.76532 0.50057 0.0
C1931 C 0.75201 0.77098 0.48897 0.0
C1932 C 0.74634 0.76376 0.47984 0.0
C1933 C 0.74206 0.76913 0.46895 0.0
C1934 C 0.74322 0.78187 0.467 0.0
C1935 C 0.74877 0.78908 0.47623 0.0
C1936 C 0.75312 0.78369 0.48709 0.0
C1937 C 0.75134 0.77018 0.53465 0.0
C1938 C 0.75292 0.78276 0.53696 0.0
C1939 C 0.74809 0.78798 0.54758 0.0
C1940 C 0.7415 0.78075 0.55612 0.0
C1941 C 0.74 0.76812 0.55382 0.0
C1942 C 0.74483 0.7629 0.54317 0.0
C1943 C 0.75618 0.76483 0.52311 0.0
C1944 C 0.75259 0.77006 0.51183 0.0
C1945 C 0.76403 0.75455 0.52312 0.0
C1946 C 0.76861 0.74885 0.53468 0.0
C1947 C 0.7751 0.75585 0.54343 0.0
C1948 C 0.77971 0.75032 0.55412 0.0
C1949 C 0.77797 0.73766 0.55624 0.0
C1950 C 0.7714 0.73071 0.54747 0.0
C1951 C 0.76682 0.73624 0.53679 0.0
H1952 H 0.76524 0.28769 0.52891 0.0
H1953 H 0.7737 0.2971 0.54747 0.0
H1954 H 0.78651 0.26169 0.55979 0.0
H1955 H 0.77792 0.2523 0.54117 0.0
H1956 H 0.77653 0.27625 0.51082 0.0
H1957 H 0.74608 0.2656 0.54094 0.0
H1958 H 0.7376 0.25669 0.55981 0.0
H1959 H 0.74852 0.22068 0.54797 0.0
H1960 H 0.75715 0.22965 0.52919 0.0
H1961 H 0.75699 0.23024 0.49146 0.0
H1962 H 0.74738 0.22211 0.47275 0.0
H1963 H 0.73568 0.25862 0.46281 0.0
H1964 H 0.74497 0.2666 0.48168 0.0
H1965 H 0.74679 0.24136 0.51077 0.0
H1966 H 0.7773 0.25236 0.48053 0.0
H1967 H 0.78578 0.26165 0.46182 0.0
H1968 H 0.77387 0.29727 0.47393 0.0
H1969 H 0.76552 0.28795 0.49261 0.0
C1970 C 0.77088 0.26927 0.53364 0.0
C1971 C 0.76988 0.28194 0.5356 0.0
C1972 C 0.77477 0.28732 0.54621 0.0
C1973 C 0.78086 0.28017 0.55512 0.0
C1974 C 0.78177 0.26745 0.5532 0.0
C1975 C 0.77687 0.26206 0.54254 0.0
C1976 C 0.76593 0.26375 0.5221 0.0
C1977 C 0.76992 0.2687 0.51082 0.0
C1978 C 0.75753 0.25368 0.52211 0.0
C1979 C 0.75243 0.24834 0.53368 0.0
C1980 C 0.74682 0.25581 0.54247 0.0
C1981 C 0.74194 0.2507 0.55326 0.0
C1982 C 0.74239 0.23797 0.55541 0.0
C1983 C 0.74791 0.2305 0.54654 0.0
C1984 C 0.75287 0.23562 0.53581 0.0
C1985 C 0.75181 0.24905 0.48795 0.0
C1986 C 0.75235 0.23649 0.48524 0.0
C1987 C 0.74693 0.23186 0.47449 0.0
C1988 C 0.74076 0.2397 0.46625 0.0
C1989 C 0.74024 0.25229 0.46899 0.0
C1990 C 0.74567 0.2569 0.47973 0.0
C1991 C 0.75733 0.25392 0.49952 0.0
C1992 C 0.75346 0.24885 0.5108 0.0
C1993 C 0.76579 0.26392 0.49953 0.0
C1994 C 0.7707 0.26944 0.48797 0.0
C1995 C 0.77641 0.26216 0.47909 0.0
C1996 C 0.78125 0.26749 0.46838 0.0
C1997 C 0.78056 0.28023 0.46636 0.0
C1998 C 0.77477 0.28747 0.47526 0.0
C1999 C 0.76994 0.28214 0.48594 0.0
H2000 H 0.26316 0.23259 0.49313 0.0
H2001 H 0.27179 0.2242 0.47428 0.0
H2002 H 0.28648 0.26006 0.46488 0.0
H2003 H 0.27774 0.26838 0.48367 0.0
H2004 H 0.27397 0.24324 0.51269 0.0
H2005 H 0.24495 0.25513 0.4817 0.0
H2006 H 0.23797 0.26438 0.46243 0.0
H2007 H 0.25018 0.29999 0.47533 0.0
H2008 H 0.25769 0.29056 0.4943 0.0
H2009 H 0.25831 0.28997 0.53106 0.0
H2010 H 0.25042 0.29917 0.54984 0.0
H2011 H 0.23518 0.264 0.56086 0.0
H2012 H 0.24283 0.25493 0.54189 0.0
H2013 H 0.24634 0.27916 0.51217 0.0
H2014 H 0.27688 0.26721 0.54212 0.0
H2015 H 0.28425 0.25813 0.56138 0.0
H2016 H 0.26881 0.22306 0.55056 0.0
H2017 H 0.26124 0.23226 0.53144 0.0
C2018 C 0.26967 0.25114 0.48976 0.0
C2019 C 0.26825 0.23863 0.48701 0.0
C2020 C 0.27323 0.23384 0.47624 0.0
C2021 C 0.2798 0.24146 0.46801 0.0
C2022 C 0.28129 0.25397 0.47087 0.0
C2023 C 0.27632 0.25874 0.48164 0.0
C2024 C 0.26436 0.25622 0.50122 0.0
C2025 C 0.26778 0.25099 0.51255 0.0
C2026 C 0.25648 0.26649 0.50107 0.0
C2027 C 0.25201 0.27211 0.4894 0.0
C2028 C 0.24626 0.2649 0.48031 0.0
C2029 C 0.24214 0.27024 0.46934 0.0
C2030 C 0.24353 0.28295 0.46728 0.0
C2031 C 0.24914 0.29015 0.47648 0.0
C2032 C 0.25333 0.28479 0.48741 0.0
C2033 C 0.25126 0.27174 0.5351 0.0
C2034 C 0.25324 0.28425 0.53751 0.0
C2035 C 0.24881 0.28947 0.54831 0.0
C2036 C 0.24222 0.28231 0.5569 0.0
C2037 C 0.24014 0.2698 0.55441 0.0
C2038 C 0.24461 0.26457 0.54361 0.0
C2039 C 0.25604 0.26626 0.5236 0.0
C2040 C 0.2525 0.2714 0.51227 0.0
C2041 C 0.26383 0.25593 0.52374 0.0
C2042 C 0.26839 0.25044 0.5354 0.0
C2043 C 0.27501 0.25758 0.54394 0.0
C2044 C 0.27931 0.25236 0.5549 0.0
C2045 C 0.27709 0.23987 0.55752 0.0
C2046 C 0.27052 0.23273 0.5489 0.0
C2047 C 0.26627 0.23795 0.53793 0.0
H2048 H 0.75571 0.52722 0.79034 0.0
H2049 H 0.74711 0.54547 0.79976 0.0
H2050 H 0.73553 0.55843 0.76395 0.0
H2051 H 0.74428 0.54016 0.75457 0.0
H2052 H 0.74489 0.50919 0.77777 0.0
H2053 H 0.7767 0.53901 0.76981 0.0
H2054 H 0.78589 0.55824 0.76237 0.0
H2055 H 0.77409 0.54946 0.72542 0.0
H2056 H 0.76466 0.53036 0.73298 0.0
H2057 H 0.766 0.49204 0.73182 0.0
H2058 H 0.77569 0.47377 0.72344 0.0
H2059 H 0.78551 0.46221 0.76025 0.0
H2060 H 0.77629 0.48071 0.76847 0.0
H2061 H 0.77557 0.51089 0.74416 0.0
H2062 H 0.74426 0.48037 0.75257 0.0
H2063 H 0.7355 0.46117 0.76053 0.0
H2064 H 0.74744 0.47109 0.79717 0.0
H2065 H 0.75598 0.49036 0.78915 0.0
C2066 C 0.75073 0.53233 0.77173 0.0
C2067 C 0.75131 0.53398 0.78451 0.0
C2068 C 0.74633 0.54442 0.78989 0.0
C2069 C 0.74057 0.55344 0.78263 0.0
C2070 C 0.74004 0.55178 0.76981 0.0
C2071 C 0.74503 0.54132 0.76443 0.0
C2072 C 0.75583 0.52105 0.76614 0.0
C2073 C 0.75171 0.50957 0.77052 0.0
C2074 C 0.76449 0.52152 0.75646 0.0
C2075 C 0.76989 0.5333 0.75197 0.0
C2076 C 0.77598 0.54129 0.76013 0.0
C2077 C 0.78133 0.55223 0.75584 0.0
C2078 C 0.78073 0.55539 0.7433 0.0
C2079 C 0.77458 0.54738 0.73515 0.0
C2080 C 0.76927 0.53641 0.73944 0.0
C2081 C 0.77029 0.48772 0.75079 0.0
C2082 C 0.77026 0.48558 0.73807 0.0
C2083 C 0.77572 0.47505 0.73331 0.0
C2084 C 0.78138 0.46646 0.74116 0.0
C2085 C 0.78137 0.46866 0.7539 0.0
C2086 C 0.77596 0.47919 0.75864 0.0
C2087 C 0.76468 0.49902 0.75585 0.0
C2088 C 0.76869 0.51051 0.75136 0.0
C2089 C 0.75595 0.49857 0.76548 0.0
C2090 C 0.75083 0.48678 0.77026 0.0
C2091 C 0.74506 0.47836 0.7623 0.0
C2092 C 0.74009 0.46736 0.76687 0.0
C2093 C 0.74077 0.46455 0.77951 0.0
C2094 C 0.74659 0.47301 0.78743 0.0
C2095 C 0.75152 0.48402 0.78286 0.0
H2096 H 0.28883 0.53047 0.76491 0.0
H2097 H 0.29683 0.54955 0.77381 0.0
H2098 H 0.26041 0.55787 0.78704 0.0
H2099 H 0.25248 0.53888 0.77801 0.0
H2100 H 0.27828 0.51077 0.77564 0.0
H2101 H 0.26637 0.54035 0.74518 0.0
H2102 H 0.25693 0.55883 0.73672 0.0
H2103 H 0.22135 0.54614 0.74956 0.0
H2104 H 0.23084 0.52765 0.7579 0.0
H2105 H 0.23179 0.49072 0.75925 0.0
H2106 H 0.22271 0.47165 0.75145 0.0
H2107 H 0.25817 0.46126 0.73725 0.0
H2108 H 0.26714 0.48053 0.74485 0.0
H2109 H 0.24253 0.50956 0.74706 0.0
H2110 H 0.25464 0.48029 0.7781 0.0
H2111 H 0.26414 0.46181 0.78651 0.0
H2112 H 0.29942 0.47394 0.77241 0.0
H2113 H 0.28987 0.49243 0.76413 0.0
C2114 C 0.27003 0.53329 0.77067 0.0
C2115 C 0.28258 0.53642 0.76972 0.0
C2116 C 0.28715 0.54732 0.77486 0.0
C2117 C 0.27927 0.55529 0.78113 0.0
C2118 C 0.26671 0.55209 0.78209 0.0
C2119 C 0.26215 0.5412 0.77694 0.0
C2120 C 0.26522 0.52159 0.76542 0.0
C2121 C 0.27058 0.51051 0.76923 0.0
C2122 C 0.25501 0.52125 0.75725 0.0
C2123 C 0.24934 0.53263 0.75227 0.0
C2124 C 0.25655 0.5416 0.74627 0.0
C2125 C 0.25113 0.55219 0.74144 0.0
C2126 C 0.23836 0.554 0.74243 0.0
C2127 C 0.23117 0.54498 0.74845 0.0
C2128 C 0.2366 0.53441 0.75328 0.0
C2129 C 0.25016 0.48703 0.75273 0.0
C2130 C 0.2376 0.48435 0.75444 0.0
C2131 C 0.23245 0.47339 0.75006 0.0
C2132 C 0.23972 0.46489 0.74377 0.0
C2133 C 0.25229 0.46764 0.74198 0.0
C2134 C 0.25746 0.4786 0.74641 0.0
C2135 C 0.25552 0.49875 0.75737 0.0
C2136 C 0.25026 0.50983 0.75343 0.0
C2137 C 0.26583 0.49909 0.76541 0.0
C2138 C 0.27152 0.48772 0.77037 0.0
C2139 C 0.2644 0.47891 0.77672 0.0
C2140 C 0.26985 0.46833 0.78151 0.0
C2141 C 0.28256 0.46635 0.78015 0.0
C2142 C 0.28965 0.47522 0.7738 0.0
C2143 C 0.2842 0.48579 0.769 0.0
H2144 H 0.26715 0.52833 0.23267 0.0
H2145 H 0.27641 0.54731 0.22469 0.0
H2146 H 0.28526 0.5586 0.26173 0.0
H2147 H 0.27615 0.53952 0.26967 0.0
H2148 H 0.27697 0.50996 0.24493 0.0
H2149 H 0.24575 0.53988 0.25351 0.0
H2150 H 0.23717 0.55853 0.26232 0.0
H2151 H 0.24587 0.54522 0.29878 0.0
H2152 H 0.25457 0.52669 0.28994 0.0
H2153 H 0.25401 0.49041 0.28919 0.0
H2154 H 0.24441 0.47153 0.29691 0.0
H2155 H 0.23671 0.46024 0.25958 0.0
H2156 H 0.24578 0.47941 0.25198 0.0
H2157 H 0.24469 0.50887 0.277 0.0
H2158 H 0.27618 0.47965 0.26918 0.0
H2159 H 0.28538 0.46102 0.26118 0.0
H2160 H 0.27734 0.47311 0.22411 0.0
H2161 H 0.26768 0.49149 0.23223 0.0
C2162 C 0.27082 0.53253 0.25178 0.0
C2163 C 0.27111 0.53487 0.23908 0.0
C2164 C 0.27642 0.54572 0.23452 0.0
C2165 C 0.28154 0.55446 0.24258 0.0
C2166 C 0.28123 0.55212 0.2553 0.0
C2167 C 0.27601 0.54122 0.25985 0.0
C2168 C 0.26538 0.52084 0.25651 0.0
C2169 C 0.26977 0.50972 0.25181 0.0
C2170 C 0.25626 0.52054 0.2658 0.0
C2171 C 0.25096 0.53191 0.27104 0.0
C2172 C 0.24594 0.54103 0.26339 0.0
C2173 C 0.24102 0.55169 0.26844 0.0
C2174 C 0.24084 0.55337 0.28125 0.0
C2175 C 0.24574 0.54416 0.28888 0.0
C2176 C 0.25074 0.53356 0.28384 0.0
C2177 C 0.25073 0.48631 0.26999 0.0
C2178 C 0.25022 0.48388 0.28267 0.0
C2179 C 0.24482 0.47301 0.28707 0.0
C2180 C 0.2398 0.46431 0.27888 0.0
C2181 C 0.24035 0.46677 0.26617 0.0
C2182 C 0.24568 0.47768 0.26179 0.0
C2183 C 0.25626 0.49801 0.2654 0.0
C2184 C 0.25188 0.50912 0.27011 0.0
C2185 C 0.26545 0.49831 0.2562 0.0
C2186 C 0.27108 0.48694 0.25133 0.0
C2187 C 0.27625 0.47822 0.25934 0.0
C2188 C 0.28165 0.46762 0.25472 0.0
C2189 C 0.28213 0.46552 0.24197 0.0
C2190 C 0.27699 0.4743 0.23398 0.0
C2191 C 0.27155 0.48489 0.23861 0.0
H2192 H 0.73074 0.52767 0.25792 0.0
H2193 H 0.72125 0.54628 0.24983 0.0
H2194 H 0.75701 0.55977 0.23839 0.0
H2195 H 0.76641 0.54097 0.24621 0.0
H2196 H 0.74288 0.50999 0.24675 0.0
H2197 H 0.75171 0.53849 0.27873 0.0
H2198 H 0.75921 0.55736 0.28839 0.0
H2199 H 0.79612 0.54954 0.27627 0.0
H2200 H 0.78848 0.53081 0.26633 0.0
H2201 H 0.78981 0.49276 0.26435 0.0
H2202 H 0.79938 0.47407 0.27218 0.0
H2203 H 0.76397 0.46117 0.28524 0.0
H2204 H 0.75451 0.48005 0.27764 0.0
H2205 H 0.77782 0.51071 0.2763 0.0
H2206 H 0.7678 0.48046 0.24551 0.0
H2207 H 0.75904 0.46143 0.23717 0.0
H2208 H 0.72282 0.4725 0.24866 0.0
H2209 H 0.73164 0.49139 0.25717 0.0
C2210 C 0.7493 0.53293 0.25278 0.0
C2211 C 0.73654 0.53462 0.25365 0.0
C2212 C 0.73113 0.54532 0.2491 0.0
C2213 C 0.73837 0.55456 0.24349 0.0
C2214 C 0.75115 0.55281 0.24255 0.0
C2215 C 0.75656 0.54211 0.24714 0.0
C2216 C 0.75497 0.52148 0.25757 0.0
C2217 C 0.75041 0.51013 0.25334 0.0
C2218 C 0.76495 0.52168 0.26601 0.0
C2219 C 0.76951 0.53328 0.27169 0.0
C2220 C 0.7614 0.5409 0.27802 0.0
C2221 C 0.76572 0.55163 0.28366 0.0
C2222 C 0.77827 0.55496 0.28313 0.0
C2223 C 0.78638 0.54733 0.27673 0.0
C2224 C 0.78204 0.53657 0.27113 0.0
C2225 C 0.77142 0.48777 0.27029 0.0
C2226 C 0.78411 0.48592 0.26893 0.0
C2227 C 0.78955 0.47518 0.27333 0.0
C2228 C 0.78244 0.46607 0.27928 0.0
C2229 C 0.76974 0.46802 0.28078 0.0
C2230 C 0.7643 0.47876 0.27634 0.0
C2231 C 0.76572 0.4992 0.26549 0.0
C2232 C 0.7703 0.51056 0.2697 0.0
C2233 C 0.75562 0.49897 0.25717 0.0
C2234 C 0.75042 0.48733 0.25212 0.0
C2235 C 0.758 0.47872 0.24639 0.0
C2236 C 0.75298 0.46785 0.2416 0.0
C2237 C 0.74023 0.46546 0.24225 0.0
C2238 C 0.73265 0.47413 0.24789 0.0
C2239 C 0.73769 0.48493 0.25278 0.0
H2240 H 0.52863 0.25826 0.73164 0.0
H2241 H 0.54692 0.24961 0.7222 0.0
H2242 H 0.55799 0.23472 0.75741 0.0
H2243 H 0.53969 0.24348 0.76681 0.0
H2244 H 0.5097 0.24703 0.7427 0.0
H2245 H 0.54064 0.27695 0.75476 0.0
H2246 H 0.55999 0.28415 0.76406 0.0
H2247 H 0.54847 0.2692 0.79909 0.0
H2248 H 0.52929 0.2618 0.78968 0.0
H2249 H 0.49202 0.26314 0.78988 0.0
H2250 H 0.47335 0.27109 0.79925 0.0
H2251 H 0.46199 0.28576 0.76404 0.0
H2252 H 0.48087 0.27804 0.75479 0.0
H2253 H 0.51096 0.27447 0.77891 0.0
H2254 H 0.47971 0.24547 0.7674 0.0
H2255 H 0.4605 0.23765 0.75838 0.0
H2256 H 0.47249 0.24997 0.72254 0.0
H2257 H 0.49158 0.25802 0.73163 0.0
C2258 C 0.53281 0.25163 0.74996 0.0
C2259 C 0.535 0.25315 0.73734 0.0
C2260 C 0.54545 0.24814 0.73194 0.0
C2261 C 0.55394 0.24142 0.73903 0.0
C2262 C 0.55176 0.23998 0.7517 0.0
C2263 C 0.54128 0.24498 0.75709 0.0
C2264 C 0.52144 0.25664 0.75553 0.0
C2265 C 0.50997 0.2532 0.75049 0.0
C2266 C 0.52179 0.26438 0.76595 0.0
C2267 C 0.53357 0.26873 0.7715 0.0
C2268 C 0.54234 0.27514 0.76442 0.0
C2269 C 0.55335 0.27934 0.76977 0.0
C2270 C 0.55579 0.27722 0.78231 0.0
C2271 C 0.54696 0.27083 0.78938 0.0
C2272 C 0.53595 0.26668 0.78404 0.0
C2273 C 0.48782 0.26989 0.77161 0.0
C2274 C 0.48554 0.26811 0.78419 0.0
C2275 C 0.47479 0.27258 0.78951 0.0
C2276 C 0.46611 0.27901 0.78239 0.0
C2277 C 0.46851 0.28093 0.76981 0.0
C2278 C 0.47925 0.27642 0.76449 0.0
C2279 C 0.4992 0.26494 0.766 0.0
C2280 C 0.51067 0.26836 0.77106 0.0
C2281 C 0.49884 0.25714 0.75563 0.0
C2282 C 0.48705 0.25251 0.75023 0.0
C2283 C 0.47813 0.24668 0.75764 0.0
C2284 C 0.46716 0.24218 0.75247 0.0
C2285 C 0.46499 0.24321 0.73975 0.0
C2286 C 0.47396 0.24894 0.73235 0.0
C2287 C 0.48486 0.25357 0.73754 0.0
H2288 H 0.52711 0.73141 0.76787 0.0
H2289 H 0.54582 0.72196 0.77576 0.0
H2290 H 0.56021 0.75776 0.7856 0.0
H2291 H 0.54119 0.76711 0.77814 0.0
H2292 H 0.50971 0.74376 0.77846 0.0
H2293 H 0.53916 0.75214 0.74698 0.0
H2294 H 0.55822 0.7598 0.73777 0.0
H2295 H 0.54856 0.79679 0.74771 0.0
H2296 H 0.52977 0.78897 0.75742 0.0
H2297 H 0.49147 0.7893 0.75715 0.0
H2298 H 0.47304 0.79741 0.74713 0.0
H2299 H 0.46181 0.76055 0.73728 0.0
H2300 H 0.48049 0.7526 0.74681 0.0
H2301 H 0.51036 0.77739 0.74758 0.0
H2302 H 0.47929 0.76771 0.77795 0.0
H2303 H 0.45996 0.75872 0.78546 0.0
H2304 H 0.47273 0.72265 0.77577 0.0
H2305 H 0.49174 0.73174 0.76782 0.0
C2306 C 0.53274 0.74999 0.77229 0.0
C2307 C 0.53425 0.73723 0.7718 0.0
C2308 C 0.54504 0.73184 0.7762 0.0
C2309 C 0.55461 0.73909 0.78124 0.0
C2310 C 0.55302 0.75188 0.78187 0.0
C2311 C 0.54218 0.75726 0.77749 0.0
C2312 C 0.52125 0.7556 0.76741 0.0
C2313 C 0.50985 0.75105 0.77163 0.0
C2314 C 0.52144 0.76528 0.75865 0.0
C2315 C 0.53309 0.76995 0.75307 0.0
C2316 C 0.54123 0.76188 0.74735 0.0
C2317 C 0.55208 0.76631 0.74193 0.0
C2318 C 0.55497 0.77894 0.74197 0.0
C2319 C 0.54676 0.787 0.74766 0.0
C2320 C 0.53593 0.78255 0.75313 0.0
C2321 C 0.48733 0.77032 0.75287 0.0
C2322 C 0.48503 0.78297 0.75282 0.0
C2323 C 0.47442 0.78759 0.74717 0.0
C2324 C 0.46588 0.77965 0.74139 0.0
C2325 C 0.46822 0.76697 0.7415 0.0
C2326 C 0.47885 0.76237 0.74709 0.0
C2327 C 0.49881 0.76548 0.75857 0.0
C2328 C 0.51022 0.77019 0.75451 0.0
C2329 C 0.49863 0.75581 0.76733 0.0
C2330 C 0.48694 0.75043 0.77217 0.0
C2331 C 0.47786 0.75788 0.77733 0.0
C2332 C 0.46686 0.7527 0.78175 0.0
C2333 C 0.46473 0.73995 0.78118 0.0
C2334 C 0.47393 0.73252 0.77616 0.0
C2335 C 0.48488 0.73769 0.77172 0.0
H2336 H 0.52828 0.7577 0.23219 0.0
H2337 H 0.54682 0.74939 0.22295 0.0
H2338 H 0.55843 0.73586 0.25855 0.0
H2339 H 0.53959 0.74375 0.26762 0.0
H2340 H 0.50947 0.74691 0.24317 0.0
H2341 H 0.54073 0.77603 0.25519 0.0
H2342 H 0.56006 0.78312 0.26447 0.0
H2343 H 0.54736 0.77051 0.30002 0.0
H2344 H 0.52835 0.76289 0.29057 0.0
H2345 H 0.49147 0.7626 0.29031 0.0
H2346 H 0.47275 0.77048 0.29965 0.0
H2347 H 0.46153 0.78536 0.26448 0.0
H2348 H 0.48046 0.77773 0.25527 0.0
H2349 H 0.51041 0.77428 0.27943 0.0
H2350 H 0.48003 0.744 0.26738 0.0
H2351 H 0.46072 0.7365 0.25825 0.0
H2352 H 0.47167 0.75168 0.22313 0.0
H2353 H 0.49082 0.75939 0.23238 0.0
C2354 C 0.53257 0.75149 0.25064 0.0
C2355 C 0.5348 0.7529 0.238 0.0
C2356 C 0.54548 0.74823 0.23275 0.0
C2357 C 0.55421 0.742 0.24 0.0
C2358 C 0.55189 0.7405 0.25265 0.0
C2359 C 0.54117 0.74514 0.25789 0.0
C2360 C 0.52114 0.75648 0.25613 0.0
C2361 C 0.50971 0.75303 0.251 0.0
C2362 C 0.5214 0.76426 0.26654 0.0
C2363 C 0.53313 0.76875 0.27214 0.0
C2364 C 0.54218 0.77464 0.26496 0.0
C2365 C 0.55319 0.77883 0.27032 0.0
C2366 C 0.55533 0.77737 0.28301 0.0
C2367 C 0.54616 0.77161 0.29019 0.0
C2368 C 0.53521 0.76734 0.28482 0.0
C2369 C 0.48734 0.76946 0.27206 0.0
C2370 C 0.485 0.76759 0.28461 0.0
C2371 C 0.47423 0.77202 0.28992 0.0
C2372 C 0.46558 0.7785 0.2828 0.0
C2373 C 0.46802 0.78048 0.27025 0.0
C2374 C 0.47879 0.77602 0.26494 0.0
C2375 C 0.4988 0.76466 0.26649 0.0
C2376 C 0.51022 0.76816 0.2716 0.0
C2377 C 0.49855 0.75692 0.25608 0.0
C2378 C 0.48681 0.75237 0.25059 0.0
C2379 C 0.47822 0.7458 0.25774 0.0
C2380 C 0.46723 0.74143 0.25248 0.0
C2381 C 0.46464 0.74352 0.23996 0.0
C2382 C 0.4733 0.75006 0.23283 0.0
C2383 C 0.4843 0.75439 0.23808 0.0
H2384 H 0.52744 0.23112 0.26663 0.0
H2385 H 0.54601 0.22167 0.27492 0.0
H2386 H 0.55922 0.25722 0.28694 0.0
H2387 H 0.54063 0.26664 0.27851 0.0
H2388 H 0.50959 0.24328 0.27774 0.0
H2389 H 0.53905 0.25218 0.24609 0.0
H2390 H 0.55821 0.26002 0.23719 0.0
H2391 H 0.54942 0.2965 0.24955 0.0
H2392 H 0.53016 0.28858 0.25829 0.0
H2393 H 0.49124 0.28896 0.25699 0.0
H2394 H 0.47273 0.29703 0.24703 0.0
H2395 H 0.46226 0.2603 0.236 0.0
H2396 H 0.48093 0.25237 0.24567 0.0
H2397 H 0.51053 0.27725 0.24723 0.0
H2398 H 0.47933 0.26771 0.27698 0.0
H2399 H 0.4602 0.25896 0.28525 0.0
H2400 H 0.47252 0.22262 0.27607 0.0
H2401 H 0.49151 0.23141 0.26765 0.0
C2402 C 0.53265 0.24961 0.27187 0.0
C2403 C 0.53433 0.23688 0.27107 0.0
C2404 C 0.54495 0.23148 0.27587 0.0
C2405 C 0.55413 0.23867 0.28165 0.0
C2406 C 0.55244 0.25143 0.28241 0.0
C2407 C 0.54179 0.25683 0.27761 0.0
C2408 C 0.52121 0.2552 0.26688 0.0
C2409 C 0.50978 0.25061 0.27095 0.0
C2410 C 0.52148 0.265 0.25827 0.0
C2411 C 0.53322 0.26977 0.25298 0.0
C2412 C 0.5413 0.26185 0.24698 0.0
C2413 C 0.55229 0.26635 0.24192 0.0
C2414 C 0.55542 0.2789 0.24268 0.0
C2415 C 0.54725 0.28682 0.24865 0.0
C2416 C 0.53626 0.2823 0.2537 0.0
C2417 C 0.48744 0.27004 0.25218 0.0
C2418 C 0.48495 0.28265 0.25242 0.0
C2419 C 0.47431 0.28724 0.2468 0.0
C2420 C 0.46599 0.27932 0.24072 0.0
C2421 C 0.46852 0.26669 0.24049 0.0
C2422 C 0.47914 0.26211 0.24613 0.0
C2423 C 0.49887 0.2652 0.25796 0.0
C2424 C 0.51032 0.26996 0.25406 0.0
C2425 C 0.4986 0.25546 0.26665 0.0
C2426 C 0.48685 0.25024 0.27157 0.0
C2427 C 0.47785 0.25787 0.27659 0.0
C2428 C 0.46692 0.25286 0.28134 0.0
C2429 C 0.46485 0.24009 0.28133 0.0
C2430 C 0.47389 0.23248 0.27636 0.0
C2431 C 0.48476 0.2375 0.27152 0.0
H2432 H 0.20299 0.22021 0.12287 0.0
H2433 H 0.2496 0.21666 0.06609 0.0
H2434 H 0.22665 0.18947 0.11602 0.0
H2435 H 0.22413 0.2463 0.07099 0.0
H2436 H 0.24165 0.20691 0.08473 0.0
H2437 H 0.21073 0.23011 0.10415 0.0
C2438 C 0.20976 0.2155 0.11742 0.0
C2439 C 0.21419 0.20397 0.12111 0.0
C2440 C 0.23778 0.21555 0.08175 0.0
C2441 C 0.22321 0.21536 0.09969 0.0
C2442 C 0.24239 0.22117 0.07113 0.0
C2443 C 0.23756 0.23235 0.06695 0.0
C2444 C 0.22828 0.22113 0.08832 0.0
C2445 C 0.22805 0.23763 0.07378 0.0
C2446 C 0.21423 0.2212 0.10675 0.0
C2447 C 0.2231 0.19843 0.11371 0.0
N2448 N 0.22375 0.23199 0.08413 0.0
N2449 N 0.2273 0.20416 0.1034 0.0
H2450 H 0.81684 0.21918 0.12361 0.0
H2451 H 0.76598 0.21951 0.07007 0.0
H2452 H 0.78901 0.19087 0.11913 0.0
H2453 H 0.79789 0.24356 0.0702 0.0
H2454 H 0.77354 0.20981 0.08886 0.0
H2455 H 0.80935 0.22909 0.10484 0.0
C2456 C 0.8092 0.215 0.11867 0.0
C2457 C 0.80356 0.20415 0.12302 0.0
C2458 C 0.7789 0.2172 0.08477 0.0
C2459 C 0.79481 0.21559 0.10158 0.0
C2460 C 0.77462 0.22272 0.07398 0.0
C2461 C 0.78132 0.23236 0.06845 0.0
C2462 C 0.78996 0.22136 0.09016 0.0
C2463 C 0.79232 0.23628 0.07417 0.0
C2464 C 0.80489 0.22071 0.10798 0.0
C2465 C 0.79354 0.19931 0.1163 0.0
N2466 N 0.79629 0.23077 0.0847 0.0
N2467 N 0.7895 0.20506 0.10595 0.0
H2468 H 0.81383 0.83163 0.10702 0.0
H2469 H 0.7807 0.77153 0.07952 0.0
H2470 H 0.80349 0.80027 0.12924 0.0
H2471 H 0.7928 0.80244 0.05751 0.0
H2472 H 0.78931 0.78158 0.09778 0.0
H2473 H 0.80637 0.82085 0.08879 0.0
C2474 C 0.80996 0.82248 0.10808 0.0
C2475 C 0.80923 0.81689 0.11972 0.0
C2476 C 0.7901 0.78615 0.08895 0.0
C2477 C 0.8007 0.80441 0.09878 0.0
C2478 C 0.78524 0.78039 0.0785 0.0
C2479 C 0.78595 0.78616 0.06693 0.0
C2480 C 0.79574 0.79778 0.08786 0.0
C2481 C 0.79182 0.79771 0.06624 0.0
C2482 C 0.80575 0.81629 0.09764 0.0
C2483 C 0.80433 0.80491 0.12046 0.0
N2484 N 0.79644 0.80313 0.07653 0.0
N2485 N 0.80019 0.7991 0.11015 0.0
H2486 H 0.2168 0.79875 0.12988 0.0
H2487 H 0.22977 0.80393 0.05753 0.0
H2488 H 0.20866 0.83073 0.10786 0.0
H2489 H 0.23994 0.77254 0.07956 0.0
H2490 H 0.22124 0.81347 0.07578 0.0
H2491 H 0.2243 0.7885 0.11145 0.0
C2492 C 0.21649 0.80359 0.12116 0.0
C2493 C 0.21213 0.81566 0.12045 0.0
C2494 C 0.22532 0.80449 0.07664 0.0
C2495 C 0.22082 0.804 0.09932 0.0
C2496 C 0.23028 0.79905 0.06622 0.0
C2497 C 0.23568 0.78743 0.06699 0.0
C2498 C 0.22573 0.79829 0.08799 0.0
C2499 C 0.23579 0.78147 0.07849 0.0
C2500 C 0.22084 0.79775 0.11065 0.0
C2501 C 0.2121 0.8215 0.10891 0.0
N2502 N 0.23093 0.78697 0.08853 0.0
N2503 N 0.21638 0.81564 0.09883 0.0
H2504 H 0.19879 0.80747 0.90544 0.0
H2505 H 0.25542 0.79914 0.95214 0.0
H2506 H 0.23455 0.82446 0.90029 0.0
H2507 H 0.22113 0.77893 0.95524 0.0
H2508 H 0.24772 0.80886 0.93338 0.0
H2509 H 0.20665 0.79712 0.92381 0.0
C2510 C 0.20832 0.80897 0.9081 0.0
C2511 C 0.216 0.8169 0.90128 0.0
C2512 C 0.24188 0.80228 0.93814 0.0
C2513 C 0.22501 0.80517 0.92245 0.0
C2514 C 0.24625 0.79678 0.9489 0.0
C2515 C 0.2389 0.78822 0.9553 0.0
C2516 C 0.23003 0.79928 0.93374 0.0
C2517 C 0.22716 0.78538 0.95054 0.0
C2518 C 0.21278 0.8031 0.91865 0.0
C2519 C 0.22821 0.81861 0.90534 0.0
N2520 N 0.22307 0.79093 0.94009 0.0
N2521 N 0.23232 0.81282 0.91564 0.0
H2522 H 0.21515 0.19553 0.90459 0.0
H2523 H 0.2213 0.2513 0.95207 0.0
H2524 H 0.1949 0.22925 0.90136 0.0
H2525 H 0.24405 0.21915 0.95396 0.0
H2526 H 0.21142 0.24315 0.93358 0.0
H2527 H 0.22587 0.20387 0.92261 0.0
C2528 C 0.21299 0.20471 0.9076 0.0
C2529 C 0.20402 0.21166 0.90143 0.0
C2530 C 0.21859 0.23787 0.93801 0.0
C2531 C 0.21621 0.22122 0.92219 0.0
C2532 C 0.22419 0.2425 0.94862 0.0
C2533 C 0.23349 0.23588 0.95464 0.0
C2534 C 0.22224 0.2265 0.93333 0.0
C2535 C 0.237 0.22462 0.94958 0.0
C2536 C 0.21909 0.20944 0.91794 0.0
C2537 C 0.20155 0.22344 0.90591 0.0
N2538 N 0.23134 0.22026 0.93926 0.0
N2539 N 0.20757 0.22782 0.91599 0.0
H2540 H 0.79903 0.20447 0.89958 0.0
H2541 H 0.80436 0.24787 0.95869 0.0
H2542 H 0.83166 0.22545 0.90916 0.0
H2543 H 0.77267 0.22478 0.9511 0.0
H2544 H 0.81425 0.24006 0.94026 0.0
H2545 H 0.78909 0.21187 0.91822 0.0
C2546 C 0.80415 0.21057 0.90562 0.0
C2547 C 0.81622 0.21436 0.90273 0.0
C2548 C 0.80513 0.23669 0.94261 0.0
C2549 C 0.80479 0.22299 0.92404 0.0
C2550 C 0.79944 0.24121 0.95311 0.0
C2551 C 0.78764 0.23701 0.95646 0.0
C2552 C 0.79899 0.22791 0.93533 0.0
C2553 C 0.78182 0.2282 0.94895 0.0
C2554 C 0.79843 0.21484 0.91624 0.0
C2555 C 0.82229 0.22242 0.91086 0.0
N2556 N 0.78753 0.22397 0.93874 0.0
N2557 N 0.81652 0.22646 0.9211 0.0
H2558 H 0.80417 0.79906 0.89272 0.0
H2559 H 0.79332 0.80266 0.96547 0.0
H2560 H 0.81384 0.83051 0.91486 0.0
H2561 H 0.78074 0.77225 0.94324 0.0
H2562 H 0.80182 0.81246 0.94712 0.0
H2563 H 0.79671 0.78849 0.91122 0.0
C2564 C 0.80482 0.80372 0.90148 0.0
C2565 C 0.8096 0.81573 0.90221 0.0
C2566 C 0.79721 0.80364 0.94624 0.0
C2567 C 0.80097 0.80371 0.92342 0.0
C2568 C 0.79227 0.79806 0.95672 0.0
C2569 C 0.78619 0.78663 0.95593 0.0
C2570 C 0.79611 0.79779 0.9348 0.0
C2571 C 0.78542 0.78101 0.94434 0.0
C2572 C 0.80049 0.7977 0.91203 0.0
C2573 C 0.81007 0.82134 0.9138 0.0
N2574 N 0.79028 0.78666 0.93424 0.0
N2575 N 0.8058 0.81529 0.92392 0.0
H2576 H 0.12972 0.22294 0.22053 0.0
H2577 H 0.0563 0.22923 0.21781 0.0
H2578 H 0.10672 0.20476 0.19359 0.0
H2579 H 0.0786 0.24284 0.24786 0.0
H2580 H 0.07476 0.22078 0.20846 0.0
H2581 H 0.11123 0.23083 0.23036 0.0
C2582 C 0.12078 0.22062 0.21667 0.0
C2583 C 0.11979 0.21318 0.2062 0.0
C2584 C 0.07563 0.22559 0.21712 0.0
C2585 C 0.09854 0.22218 0.21743 0.0
C2586 C 0.06509 0.23049 0.22242 0.0
C2587 C 0.06589 0.2368 0.23363 0.0
C2588 C 0.08711 0.22706 0.22298 0.0
C2589 C 0.07752 0.23796 0.23927 0.0
C2590 C 0.11022 0.22508 0.22233 0.0
C2591 C 0.10794 0.21035 0.20171 0.0
N2592 N 0.08767 0.2332 0.23386 0.0
N2593 N 0.0978 0.2149 0.2073 0.0
H2594 H 0.81717 0.11115 0.20008 0.0
H2595 H 0.77999 0.0779 0.25457 0.0
H2596 H 0.80939 0.1284 0.23474 0.0
H2597 H 0.79233 0.05922 0.22207 0.0
H2598 H 0.78956 0.09684 0.24693 0.0
H2599 H 0.80674 0.09248 0.20734 0.0
C2600 C 0.81318 0.11105 0.20918 0.0
C2601 C 0.81418 0.12137 0.21682 0.0
C2602 C 0.79016 0.0886 0.24146 0.0
C2603 C 0.8023 0.09996 0.22524 0.0
C2604 C 0.78475 0.07775 0.24586 0.0
C2605 C 0.78537 0.06689 0.23899 0.0
C2606 C 0.79623 0.08865 0.23009 0.0
C2607 C 0.79147 0.06736 0.22763 0.0
C2608 C 0.8073 0.10036 0.21336 0.0
C2609 C 0.80898 0.12063 0.2286 0.0
N2610 N 0.79666 0.07804 0.22355 0.0
N2611 N 0.80327 0.11013 0.23244 0.0
H2612 H 0.89838 0.81851 0.22278 0.0
H2613 H 0.95638 0.77381 0.21936 0.0
H2614 H 0.90675 0.79604 0.19143 0.0
H2615 H 0.94966 0.79759 0.25013 0.0
H2616 H 0.93801 0.78172 0.20921 0.0
H2617 H 0.91701 0.81106 0.23303 0.0
C2618 C 0.90415 0.81207 0.21801 0.0
C2619 C 0.90092 0.80787 0.20622 0.0
C2620 C 0.94053 0.78523 0.21818 0.0
C2621 C 0.92222 0.79919 0.21798 0.0
C2622 C 0.951 0.78065 0.22403 0.0
C2623 C 0.95458 0.78499 0.23566 0.0
C2624 C 0.9335 0.79423 0.22397 0.0
C2625 C 0.94734 0.79405 0.24112 0.0
C2626 C 0.91476 0.80776 0.22391 0.0
C2627 C 0.90871 0.79939 0.20059 0.0
N2628 N 0.93713 0.79834 0.23525 0.0
N2629 N 0.91895 0.79534 0.20652 0.0
H2630 H 0.19548 0.91206 0.20306 0.0
H2631 H 0.24924 0.94196 0.24437 0.0
H2632 H 0.2199 0.89073 0.22589 0.0
H2633 H 0.22016 0.96286 0.22743 0.0
H2634 H 0.23992 0.92314 0.23607 0.0
H2635 H 0.20575 0.93081 0.21026 0.0
C2636 C 0.20307 0.91131 0.20951 0.0
C2637 C 0.20682 0.8998 0.21389 0.0
C2638 C 0.23558 0.93185 0.23417 0.0
C2639 C 0.21858 0.92125 0.22225 0.0
C2640 C 0.24094 0.9426 0.23884 0.0
C2641 C 0.23544 0.954 0.23663 0.0
C2642 C 0.22471 0.9325 0.22714 0.0
C2643 C 0.22462 0.95426 0.2295 0.0
C2644 C 0.20888 0.92203 0.21368 0.0
C2645 C 0.21661 0.89941 0.22237 0.0
N2646 N 0.21963 0.94368 0.225 0.0
N2647 N 0.22216 0.90997 0.22626 0.0
H2648 H 0.12309 0.81584 0.80224 0.0
H2649 H 0.06906 0.76523 0.80124 0.0
H2650 H 0.11777 0.78868 0.83086 0.0
H2651 H 0.06952 0.7971 0.77747 0.0
H2652 H 0.08789 0.77276 0.81114 0.0
H2653 H 0.10443 0.80821 0.79203 0.0
C2654 C 0.11799 0.80832 0.80643 0.0
C2655 C 0.12206 0.80292 0.81747 0.0
C2656 C 0.08387 0.7781 0.80376 0.0
C2657 C 0.10075 0.79401 0.80567 0.0
C2658 C 0.07306 0.77385 0.79813 0.0
C2659 C 0.06759 0.78056 0.78852 0.0
C2660 C 0.08936 0.78914 0.79973 0.0
C2661 C 0.07343 0.79152 0.78472 0.0
C2662 C 0.10736 0.80392 0.80054 0.0
C2663 C 0.11515 0.79303 0.82228 0.0
N2664 N 0.08398 0.79546 0.79034 0.0
N2665 N 0.10487 0.7889 0.81635 0.0
H2666 H 0.20614 0.10371 0.83248 0.0
H2667 H 0.24093 0.0767 0.7739 0.0
H2668 H 0.21743 0.12596 0.8015 0.0
H2669 H 0.2277 0.05449 0.80416 0.0
H2670 H 0.23213 0.09479 0.78358 0.0
H2671 H 0.21385 0.08559 0.82207 0.0
C2672 C 0.21027 0.1048 0.82349 0.0
C2673 C 0.21119 0.11642 0.8179 0.0
C2674 C 0.23114 0.08595 0.78809 0.0
C2675 C 0.22001 0.09561 0.80585 0.0
C2676 C 0.23611 0.07559 0.78253 0.0
C2677 C 0.23512 0.06402 0.78823 0.0
C2678 C 0.22512 0.08477 0.79945 0.0
C2679 C 0.2289 0.06323 0.79951 0.0
C2680 C 0.21462 0.09442 0.81751 0.0
C2681 C 0.21643 0.11719 0.80613 0.0
N2682 N 0.22417 0.07343 0.80474 0.0
N2683 N 0.2207 0.10695 0.80053 0.0
H2684 H 0.89091 0.21238 0.79127 0.0
H2685 H 0.96213 0.22827 0.80381 0.0
H2686 H 0.91004 0.20246 0.82468 0.0
H2687 H 0.94211 0.24061 0.77174 0.0
H2688 H 0.94315 0.21896 0.81172 0.0
H2689 H 0.90958 0.22279 0.784 0.0
C2690 C 0.89905 0.21237 0.79708 0.0
C2691 C 0.8989 0.20648 0.8086 0.0
C2692 C 0.9429 0.22373 0.80296 0.0
C2693 C 0.92035 0.21846 0.80033 0.0
C2694 C 0.95373 0.22912 0.79846 0.0
C2695 C 0.95377 0.23524 0.78705 0.0
C2696 C 0.93198 0.22441 0.79602 0.0
C2697 C 0.94261 0.23583 0.78047 0.0
C2698 C 0.9097 0.21837 0.79294 0.0
C2699 C 0.90968 0.20696 0.8158 0.0
N2700 N 0.9322 0.23048 0.78503 0.0
N2701 N 0.91997 0.21278 0.81152 0.0
H2702 H 0.80209 0.89097 0.79637 0.0
H2703 H 0.80315 0.96446 0.79411 0.0
H2704 H 0.8273 0.91332 0.81767 0.0
H2705 H 0.77411 0.94243 0.77788 0.0
H2706 H 0.81258 0.94577 0.80214 0.0
H2707 H 0.79214 0.90964 0.78886 0.0
C2708 C 0.80554 0.89981 0.79945 0.0
C2709 C 0.81556 0.90057 0.80766 0.0
C2710 C 0.80413 0.94502 0.79685 0.0
C2711 C 0.8042 0.922 0.7991 0.0
C2712 C 0.79878 0.95568 0.7922 0.0
C2713 C 0.78783 0.95502 0.78527 0.0
C2714 C 0.79857 0.93355 0.7945 0.0
C2715 C 0.78249 0.94339 0.78325 0.0
C2716 C 0.79982 0.91046 0.79521 0.0
C2717 C 0.81953 0.91227 0.81146 0.0
N2718 N 0.78794 0.93312 0.78779 0.0
N2719 N 0.81389 0.9225 0.8071 0.0
H2720 H 0.21452 0.11628 0.19871 0.0
H2721 H 0.22032 0.06801 0.25428 0.0
H2722 H 0.19383 0.1184 0.2324 0.0
H2723 H 0.24326 0.06716 0.22203 0.0
H2724 H 0.21037 0.08635 0.24619 0.0
H2725 H 0.22515 0.09831 0.20694 0.0
C2726 C 0.21225 0.11303 0.20786 0.0
C2727 C 0.2032 0.11888 0.21483 0.0
C2728 C 0.21759 0.08218 0.24087 0.0
C2729 C 0.21526 0.09819 0.22426 0.0
C2730 C 0.22324 0.07165 0.24546 0.0
C2731 C 0.23262 0.06598 0.23881 0.0
C2732 C 0.22129 0.08711 0.22949 0.0
C2733 C 0.23615 0.07127 0.22753 0.0
C2734 C 0.21828 0.10272 0.21253 0.0
C2735 C 0.20056 0.11411 0.22657 0.0
N2736 N 0.23045 0.0815 0.22321 0.0
N2737 N 0.20653 0.10407 0.23089 0.0
H2738 H 0.18751 0.90548 0.79552 0.0
H2739 H 0.24829 0.94791 0.79686 0.0
H2740 H 0.22037 0.89608 0.81586 0.0
H2741 H 0.21703 0.95456 0.77317 0.0
H2742 H 0.23794 0.9294 0.80469 0.0
H2743 H 0.19795 0.92392 0.78789 0.0
C2744 C 0.19695 0.90723 0.79834 0.0
C2745 C 0.20307 0.89913 0.80631 0.0
C2746 C 0.23336 0.9349 0.79776 0.0
C2747 C 0.21506 0.92042 0.79772 0.0
C2748 C 0.23923 0.9455 0.79333 0.0
C2749 C 0.23353 0.9528 0.78433 0.0
C2750 C 0.22165 0.93159 0.79321 0.0
C2751 C 0.22185 0.94914 0.77999 0.0
C2752 C 0.2029 0.91782 0.79402 0.0
C2753 C 0.21523 0.90209 0.80984 0.0
N2754 N 0.21629 0.93882 0.78449 0.0
N2755 N 0.22082 0.91248 0.80551 0.0
H2756 H 0.11269 0.18671 0.79586 0.0
H2757 H 0.07134 0.24709 0.79819 0.0
H2758 H 0.12235 0.2185 0.81753 0.0
H2759 H 0.06353 0.21613 0.77473 0.0
H2760 H 0.08965 0.23661 0.80596 0.0
H2761 H 0.09438 0.19724 0.78848 0.0
C2762 C 0.11102 0.19594 0.79902 0.0
C2763 C 0.11918 0.20173 0.80729 0.0
C2764 C 0.08393 0.23212 0.7991 0.0
C2765 C 0.098 0.21383 0.79896 0.0
C2766 C 0.07343 0.23807 0.79471 0.0
C2767 C 0.06586 0.23251 0.78576 0.0
C2768 C 0.08689 0.22048 0.79457 0.0
C2769 C 0.06916 0.22087 0.78149 0.0
C2770 C 0.10049 0.20193 0.79485 0.0
C2771 C 0.11631 0.21361 0.81125 0.0
N2772 N 0.07938 0.21525 0.78593 0.0
N2773 N 0.10598 0.21927 0.80704 0.0
H2774 H 0.78783 0.12869 0.81168 0.0
H2775 H 0.8015 0.0589 0.79408 0.0
H2776 H 0.82192 0.1106 0.82046 0.0
H2777 H 0.76877 0.07807 0.78265 0.0
H2778 H 0.80917 0.07771 0.80372 0.0
H2779 H 0.78066 0.11018 0.80112 0.0
C2780 C 0.7938 0.12081 0.81142 0.0
C2781 C 0.80549 0.12121 0.81702 0.0
C2782 C 0.80032 0.07781 0.79907 0.0
C2783 C 0.79734 0.09995 0.80485 0.0
C2784 C 0.79595 0.06708 0.79349 0.0
C2785 C 0.78444 0.06684 0.78752 0.0
C2786 C 0.79314 0.08844 0.79874 0.0
C2787 C 0.7776 0.07772 0.78729 0.0
C2788 C 0.78972 0.11026 0.80532 0.0
C2789 C 0.8129 0.11076 0.81619 0.0
N2790 N 0.78204 0.08804 0.79282 0.0
N2791 N 0.80868 0.10056 0.81028 0.0
H2792 H 0.90017 0.7882 0.82543 0.0
H2793 H 0.95504 0.80139 0.77791 0.0
H2794 H 0.90501 0.82273 0.80631 0.0
H2795 H 0.95096 0.76784 0.79885 0.0
H2796 H 0.93629 0.8091 0.78743 0.0
H2797 H 0.91835 0.78042 0.81514 0.0
C2798 C 0.90508 0.79419 0.81911 0.0
C2799 C 0.90106 0.8062 0.81684 0.0
C2800 C 0.9395 0.80005 0.78993 0.0
C2801 C 0.92191 0.79723 0.80484 0.0
C2802 C 0.95017 0.7956 0.78445 0.0
C2803 C 0.95464 0.78394 0.78759 0.0
C2804 C 0.93318 0.79277 0.79861 0.0
C2805 C 0.948 0.77695 0.79626 0.0
C2806 C 0.91545 0.7897 0.81317 0.0
C2807 C 0.90768 0.81339 0.80831 0.0
N2808 N 0.93764 0.78146 0.80144 0.0
N2809 N 0.91779 0.80882 0.80265 0.0
H2810 H 0.8041 0.90334 0.19892 0.0
H2811 H 0.80276 0.95512 0.25088 0.0
H2812 H 0.82881 0.9044 0.23014 0.0
H2813 H 0.7749 0.95163 0.2226 0.0
H2814 H 0.81278 0.93695 0.2429 0.0
H2815 H 0.79362 0.92133 0.20695 0.0
C2816 C 0.8073 0.90729 0.20748 0.0
C2817 C 0.81741 0.9023 0.21382 0.0
C2818 C 0.80446 0.94014 0.23844 0.0
C2819 C 0.80552 0.92306 0.223 0.0
C2820 C 0.79867 0.9505 0.24305 0.0
C2821 C 0.7879 0.95494 0.23747 0.0
C2822 C 0.79952 0.93412 0.22811 0.0
C2823 C 0.78325 0.94866 0.22714 0.0
C2824 C 0.80134 0.91762 0.21203 0.0
C2825 C 0.82122 0.90799 0.22479 0.0
N2826 N 0.78907 0.93858 0.22281 0.0
N2827 N 0.81529 0.91804 0.229 0.0
H2828 H 0.12896 0.78824 0.21442 0.0
H2829 H 0.05878 0.802 0.23151 0.0
H2830 H 0.11082 0.8221 0.2052 0.0
H2831 H 0.07785 0.7693 0.24295 0.0
H2832 H 0.07777 0.80964 0.22206 0.0
H2833 H 0.11033 0.7812 0.22497 0.0
C2834 C 0.12105 0.79419 0.21459 0.0
C2835 C 0.12146 0.80577 0.20886 0.0
C2836 C 0.07781 0.80081 0.22667 0.0
C2837 C 0.10006 0.79778 0.22101 0.0
C2838 C 0.06697 0.79646 0.23214 0.0
C2839 C 0.06666 0.78495 0.23804 0.0
C2840 C 0.08846 0.79362 0.22706 0.0
C2841 C 0.07756 0.77813 0.23835 0.0
C2842 C 0.11042 0.79019 0.22068 0.0
C2843 C 0.11098 0.81316 0.20958 0.0
N2844 N 0.08798 0.78254 0.23292 0.0
N2845 N 0.1007 0.80902 0.21548 0.0
H2846 H 0.89113 0.21776 0.22231 0.0
H2847 H 0.96355 0.23154 0.2163 0.0
H2848 H 0.91195 0.21163 0.18927 0.0
H2849 H 0.94227 0.24128 0.24813 0.0
H2850 H 0.94489 0.22327 0.20669 0.0
H2851 H 0.90995 0.22523 0.23243 0.0
C2852 C 0.89967 0.2179 0.21721 0.0
C2853 C 0.89994 0.21409 0.2049 0.0
C2854 C 0.94429 0.22721 0.21578 0.0
C2855 C 0.92151 0.22273 0.21641 0.0
C2856 C 0.95494 0.23201 0.22125 0.0
C2857 C 0.9545 0.2372 0.23303 0.0
C2858 C 0.93305 0.22755 0.22211 0.0
C2859 C 0.9431 0.23728 0.23909 0.0
C2860 C 0.9104 0.22224 0.22297 0.0
C2861 C 0.91126 0.21463 0.19871 0.0
N2862 N 0.93284 0.23255 0.23355 0.0
N2863 N 0.92156 0.21886 0.20452 0.0
H2864 H 0.23081 0.71189 0.63076 0.0
H2865 H 0.21964 0.72601 0.55921 0.0
H2866 H 0.19802 0.70072 0.61097 0.0
H2867 H 0.25124 0.73936 0.57961 0.0
H2868 H 0.21149 0.71688 0.57808 0.0
H2869 H 0.23842 0.72203 0.61214 0.0
C2870 C 0.22521 0.71155 0.62249 0.0
C2871 C 0.21377 0.70538 0.62244 0.0
C2872 C 0.2202 0.72183 0.57845 0.0
C2873 C 0.22242 0.71707 0.60105 0.0
C2874 C 0.22484 0.72712 0.56767 0.0
C2875 C 0.23618 0.73349 0.56777 0.0
C2876 C 0.22693 0.72286 0.58946 0.0
C2877 C 0.24257 0.7344 0.57901 0.0
C2878 C 0.22954 0.7174 0.61187 0.0
C2879 C 0.20684 0.70544 0.61149 0.0
N2880 N 0.23787 0.72914 0.58937 0.0
N2881 N 0.21129 0.71113 0.60124 0.0
H2882 H 0.80236 0.72026 0.63049 0.0
H2883 H 0.78879 0.7151 0.55822 0.0
H2884 H 0.80792 0.68736 0.60945 0.0
H2885 H 0.779 0.74656 0.57987 0.0
H2886 H 0.79684 0.70525 0.57672 0.0
H2887 H 0.795 0.73056 0.61185 0.0
C2888 C 0.80211 0.71523 0.62194 0.0
C2889 C 0.80574 0.70291 0.62155 0.0
C2890 C 0.79293 0.71431 0.57744 0.0
C2891 C 0.79723 0.71463 0.60018 0.0
C2892 C 0.78825 0.71992 0.56687 0.0
C2893 C 0.78312 0.73167 0.56746 0.0
C2894 C 0.79252 0.72046 0.58873 0.0
C2895 C 0.78296 0.73756 0.57892 0.0
C2896 C 0.79783 0.72109 0.61131 0.0
C2897 C 0.80506 0.6968 0.61022 0.0
N2898 N 0.78757 0.73189 0.5891 0.0
N2899 N 0.80091 0.70272 0.60001 0.0
H2900 H 0.80366 0.29894 0.62964 0.0
H2901 H 0.79331 0.30217 0.55664 0.0
H2902 H 0.81355 0.3302 0.60709 0.0
H2903 H 0.78104 0.2716 0.57902 0.0
H2904 H 0.80166 0.31205 0.57498 0.0
H2905 H 0.79643 0.28819 0.61118 0.0
C2906 C 0.80441 0.30351 0.6208 0.0
C2907 C 0.80917 0.31553 0.61994 0.0
C2908 C 0.79715 0.30317 0.57591 0.0
C2909 C 0.80082 0.30331 0.59877 0.0
C2910 C 0.7923 0.29754 0.56542 0.0
C2911 C 0.78634 0.28606 0.56626 0.0
C2912 C 0.79608 0.29732 0.58739 0.0
C2913 C 0.78562 0.28041 0.57789 0.0
C2914 C 0.80021 0.2974 0.61027 0.0
C2915 C 0.80978 0.32103 0.60824 0.0
N2916 N 0.79038 0.28611 0.588 0.0
N2917 N 0.80564 0.3149 0.59816 0.0
H2918 H 0.23391 0.32526 0.6231 0.0
H2919 H 0.21977 0.27855 0.56799 0.0
H2920 H 0.19847 0.30769 0.61746 0.0
H2921 H 0.25391 0.29889 0.57201 0.0
H2922 H 0.21214 0.28819 0.58668 0.0
H2923 H 0.24162 0.31492 0.60492 0.0
C2924 C 0.22771 0.31928 0.61801 0.0
C2925 C 0.21547 0.31744 0.62182 0.0
C2926 C 0.2213 0.29054 0.58348 0.0
C2927 C 0.22436 0.30537 0.60099 0.0
C2928 C 0.2257 0.28498 0.57284 0.0
C2929 C 0.2375 0.28793 0.56838 0.0
C2930 C 0.22877 0.29908 0.58977 0.0
C2931 C 0.24469 0.29646 0.57499 0.0
C2932 C 0.23216 0.31331 0.60765 0.0
C2933 C 0.208 0.30933 0.61497 0.0
N2934 N 0.24022 0.30171 0.58532 0.0
N2935 N 0.21254 0.30363 0.60489 0.0
H2936 H 0.20345 0.30152 0.40049 0.0
H2937 H 0.2544 0.3016 0.45394 0.0
H2938 H 0.23095 0.33015 0.40496 0.0
H2939 H 0.22258 0.27742 0.45392 0.0
H2940 H 0.24677 0.31122 0.43513 0.0
H2941 H 0.2111 0.29165 0.41921 0.0
C2942 C 0.21105 0.30578 0.40541 0.0
C2943 C 0.21654 0.31672 0.40108 0.0
C2944 C 0.24145 0.30381 0.43924 0.0
C2945 C 0.22548 0.30532 0.42247 0.0
C2946 C 0.24577 0.29834 0.45004 0.0
C2947 C 0.23911 0.28869 0.45562 0.0
C2948 C 0.2304 0.29959 0.43388 0.0
C2949 C 0.22812 0.28471 0.44992 0.0
C2950 C 0.21546 0.30009 0.41608 0.0
C2951 C 0.22652 0.32164 0.40779 0.0
N2952 N 0.22411 0.29017 0.43938 0.0
N2953 N 0.23066 0.31591 0.41811 0.0
H2954 H 0.22119 0.71562 0.39269 0.0
H2955 H 0.21777 0.72557 0.46558 0.0
H2956 H 0.19022 0.70452 0.41501 0.0
H2957 H 0.24784 0.73908 0.44328 0.0
H2958 H 0.20808 0.71695 0.44722 0.0
H2959 H 0.23172 0.72317 0.41118 0.0
C2960 C 0.21664 0.71467 0.40148 0.0
C2961 C 0.20476 0.70947 0.40226 0.0
C2962 C 0.2168 0.72179 0.44633 0.0
C2963 C 0.21673 0.7182 0.42348 0.0
C2964 C 0.22232 0.72679 0.45681 0.0
C2965 C 0.23362 0.73317 0.45601 0.0
C2966 C 0.22259 0.72312 0.43487 0.0
C2967 C 0.23919 0.73417 0.4444 0.0
C2968 C 0.22263 0.71906 0.41203 0.0
C2969 C 0.19928 0.70863 0.41391 0.0
N2970 N 0.2336 0.72925 0.43429 0.0
N2971 N 0.20529 0.71295 0.42403 0.0
H2972 H 0.80908 0.73247 0.39356 0.0
H2973 H 0.7918 0.71888 0.4639 0.0
H2974 H 0.81725 0.69846 0.41221 0.0
H2975 H 0.78141 0.75181 0.44441 0.0
H2976 H 0.80101 0.71117 0.44506 0.0
H2977 H 0.79893 0.7397 0.41211 0.0
C2978 C 0.80877 0.72653 0.40157 0.0
C2979 C 0.81408 0.71485 0.40132 0.0
C2980 C 0.79669 0.72007 0.44489 0.0
C2981 C 0.80238 0.72306 0.42263 0.0
C2982 C 0.79136 0.72446 0.45565 0.0
C2983 C 0.78581 0.73604 0.45579 0.0
C2984 C 0.79652 0.7273 0.43416 0.0
C2985 C 0.78573 0.74292 0.44482 0.0
C2986 C 0.80291 0.73064 0.41215 0.0
C2987 C 0.81319 0.70748 0.41193 0.0
N2988 N 0.79102 0.73846 0.43448 0.0
N2989 N 0.80751 0.71172 0.42215 0.0
H2990 H 0.81458 0.33088 0.41463 0.0
H2991 H 0.7802 0.27156 0.44261 0.0
H2992 H 0.80321 0.29984 0.39269 0.0
H2993 H 0.79326 0.3021 0.46439 0.0
H2994 H 0.78886 0.28146 0.42429 0.0
H2995 H 0.80701 0.32027 0.43296 0.0
C2996 C 0.81046 0.32184 0.41366 0.0
C2997 C 0.80947 0.31629 0.40206 0.0
C2998 C 0.78985 0.28598 0.43308 0.0
C2999 C 0.80081 0.304 0.42311 0.0
C3000 C 0.78495 0.2803 0.44357 0.0
C3001 C 0.78593 0.28601 0.4551 0.0
C3002 C 0.79578 0.29747 0.43409 0.0
C3003 C 0.79207 0.29743 0.45571 0.0
C3004 C 0.80618 0.31574 0.42415 0.0
C3005 C 0.80425 0.30444 0.40144 0.0
N3006 N 0.79672 0.30276 0.44538 0.0
N3007 N 0.80006 0.29872 0.41179 0.0
H3008 H 0.12757 0.71552 0.72224 0.0
H3009 H 0.05544 0.72978 0.71658 0.0
H3010 H 0.10576 0.70852 0.68968 0.0
H3011 H 0.07743 0.73907 0.74845 0.0
H3012 H 0.07364 0.72117 0.70699 0.0
H3013 H 0.10916 0.72315 0.73246 0.0
C3014 C 0.1189 0.71549 0.71727 0.0
C3015 C 0.11825 0.71141 0.70505 0.0
C3016 C 0.07451 0.72508 0.71608 0.0
C3017 C 0.09713 0.72024 0.71668 0.0
C3018 C 0.06411 0.73008 0.72155 0.0
C3019 C 0.06488 0.73525 0.73334 0.0
C3020 C 0.08582 0.72522 0.72241 0.0
C3021 C 0.07635 0.7351 0.73941 0.0
C3022 C 0.1084 0.71992 0.72309 0.0
C3023 C 0.10677 0.71173 0.69904 0.0
N3024 N 0.08636 0.7302 0.73387 0.0
N3025 N 0.0967 0.71608 0.7049 0.0
H3026 H 0.8323 0.6148 0.72825 0.0
H3027 H 0.77186 0.57187 0.72632 0.0
H3028 H 0.79945 0.62406 0.70782 0.0
H3029 H 0.80328 0.56504 0.74974 0.0
H3030 H 0.78205 0.59059 0.71877 0.0
H3031 H 0.82199 0.59621 0.73568 0.0
C3032 C 0.82288 0.61299 0.72538 0.0
C3033 C 0.81674 0.62109 0.71742 0.0
C3034 C 0.78671 0.585 0.72558 0.0
C3035 C 0.8049 0.59962 0.72579 0.0
C3036 C 0.78092 0.57428 0.72984 0.0
C3037 C 0.78671 0.56687 0.7387 0.0
C3038 C 0.79841 0.58832 0.73013 0.0
C3039 C 0.79839 0.57054 0.74304 0.0
C3040 C 0.81702 0.60231 0.72958 0.0
C3041 C 0.80462 0.61805 0.71383 0.0
N3042 N 0.80385 0.58097 0.7387 0.0
N3043 N 0.79911 0.60757 0.71804 0.0
H3044 H 0.91367 0.31912 0.69598 0.0
H3045 H 0.94205 0.27755 0.74993 0.0
H3046 H 0.8914 0.29718 0.72065 0.0
H3047 H 0.9638 0.29417 0.72108 0.0
H3048 H 0.92347 0.28609 0.74049 0.0
H3049 H 0.93219 0.31154 0.70626 0.0
C3050 C 0.91267 0.31279 0.70363 0.0
C3051 C 0.90095 0.30878 0.70744 0.0
C3052 C 0.93231 0.28787 0.73623 0.0
C3053 C 0.92216 0.29998 0.71922 0.0
C3054 C 0.94293 0.28305 0.74165 0.0
C3055 C 0.95451 0.28511 0.73627 0.0
C3056 C 0.93326 0.29489 0.72539 0.0
C3057 C 0.95506 0.29221 0.72546 0.0
C3058 C 0.92326 0.3084 0.70944 0.0
C3059 C 0.90024 0.30042 0.71731 0.0
N3060 N 0.94461 0.29685 0.7204 0.0
N3061 N 0.91069 0.29631 0.72286 0.0
H3062 H 0.19656 0.39806 0.73504 0.0
H3063 H 0.24359 0.45374 0.72154 0.0
H3064 H 0.21384 0.40407 0.69983 0.0
H3065 H 0.22314 0.44954 0.75524 0.0
H3066 H 0.23388 0.43489 0.71382 0.0
H3067 H 0.20713 0.41629 0.74289 0.0
C3068 C 0.20252 0.40324 0.72892 0.0
C3069 C 0.20421 0.39952 0.7167 0.0
C3070 C 0.23152 0.43808 0.72291 0.0
C3071 C 0.21654 0.42042 0.72574 0.0
C3072 C 0.23713 0.44881 0.72735 0.0
C3073 C 0.23415 0.45327 0.73905 0.0
C3074 C 0.22292 0.43171 0.73023 0.0
C3075 C 0.22559 0.44656 0.7461 0.0
C3076 C 0.20862 0.41363 0.73345 0.0
C3077 C 0.21232 0.40649 0.70933 0.0
N3078 N 0.22029 0.43614 0.74159 0.0
N3079 N 0.21815 0.4166 0.71395 0.0
H3080 H 0.12218 0.2859 0.32599 0.0
H3081 H 0.06696 0.30039 0.27916 0.0
H3082 H 0.11639 0.32162 0.30976 0.0
H3083 H 0.07046 0.26618 0.29897 0.0
H3084 H 0.08577 0.30795 0.28921 0.0
H3085 H 0.10387 0.27824 0.3153 0.0
C3086 C 0.11703 0.29217 0.32024 0.0
C3087 C 0.12084 0.30447 0.31886 0.0
C3088 C 0.08242 0.29879 0.29136 0.0
C3089 C 0.09988 0.29566 0.30639 0.0
C3090 C 0.07172 0.29444 0.28556 0.0
C3091 C 0.06709 0.28264 0.28825 0.0
C3092 C 0.0886 0.29128 0.29986 0.0
C3093 C 0.07359 0.2754 0.29674 0.0
C3094 C 0.10659 0.28776 0.31407 0.0
C3095 C 0.11391 0.31205 0.31102 0.0
N3096 N 0.084 0.27983 0.30223 0.0
N3097 N 0.10376 0.30753 0.30511 0.0
H3098 H 0.20128 0.60501 0.32638 0.0
H3099 H 0.2438 0.57726 0.27354 0.0
H3100 H 0.22406 0.62736 0.30255 0.0
H3101 H 0.22582 0.55519 0.30135 0.0
H3102 H 0.23531 0.59569 0.2829 0.0
H3103 H 0.20879 0.58666 0.31615 0.0
C3104 C 0.20778 0.60607 0.31893 0.0
C3105 C 0.21205 0.61776 0.31534 0.0
C3106 C 0.23321 0.58681 0.28695 0.0
C3107 C 0.22078 0.59674 0.30362 0.0
C3108 C 0.238 0.57628 0.28156 0.0
C3109 C 0.23555 0.56465 0.28668 0.0
C3110 C 0.22584 0.58573 0.29749 0.0
C3111 C 0.22809 0.56397 0.29718 0.0
C3112 C 0.21214 0.59557 0.31314 0.0
C3113 C 0.22062 0.61854 0.30572 0.0
N3114 N 0.22349 0.57434 0.30221 0.0
N3115 N 0.22469 0.60818 0.3002 0.0
H3116 H 0.89792 0.69631 0.28961 0.0
H3117 H 0.95281 0.7444 0.30281 0.0
H3118 H 0.90302 0.71451 0.32445 0.0
H3119 H 0.94975 0.72277 0.2698 0.0
H3120 H 0.93386 0.73466 0.31043 0.0
H3121 H 0.91624 0.70687 0.28184 0.0
C3122 C 0.90292 0.70247 0.29567 0.0
C3123 C 0.89892 0.70442 0.30776 0.0
C3124 C 0.93733 0.73206 0.30151 0.0
C3125 C 0.91991 0.71674 0.2988 0.0
C3126 C 0.94811 0.73767 0.29712 0.0
C3127 C 0.95292 0.73437 0.28565 0.0
C3128 C 0.93125 0.72313 0.29436 0.0
C3129 C 0.9465 0.72548 0.27876 0.0
C3130 C 0.91336 0.70857 0.29119 0.0
C3131 C 0.90566 0.71278 0.31504 0.0
N3132 N 0.93602 0.72018 0.28322 0.0
N3133 N 0.91583 0.7186 0.31046 0.0
H3134 H 0.8067 0.40412 0.32361 0.0
H3135 H 0.7999 0.45216 0.26796 0.0
H3136 H 0.826 0.40127 0.28917 0.0
H3137 H 0.77829 0.45378 0.30108 0.0
H3138 H 0.80972 0.43365 0.2758 0.0
H3139 H 0.7962 0.42228 0.31567 0.0
C3140 C 0.80869 0.40724 0.31436 0.0
C3141 C 0.81732 0.40113 0.30709 0.0
C3142 C 0.80282 0.43803 0.28136 0.0
C3143 C 0.8054 0.42206 0.29797 0.0
C3144 C 0.79725 0.44866 0.27691 0.0
C3145 C 0.78827 0.4546 0.28388 0.0
C3146 C 0.79946 0.43326 0.29291 0.0
C3147 C 0.78507 0.44947 0.29533 0.0
C3148 C 0.80273 0.41767 0.30985 0.0
C3149 C 0.81961 0.40576 0.29522 0.0
N3150 N 0.79069 0.43913 0.2995 0.0
N3151 N 0.81372 0.41592 0.29106 0.0
H3152 H 0.1875 0.60519 0.7089 0.0
H3153 H 0.2472 0.5778 0.7424 0.0
H3154 H 0.21916 0.62727 0.71914 0.0
H3155 H 0.21617 0.55574 0.73031 0.0
H3156 H 0.2373 0.59597 0.73375 0.0
H3157 H 0.19799 0.58699 0.71661 0.0
C3158 C 0.19666 0.60623 0.7128 0.0
C3159 C 0.20242 0.61782 0.71342 0.0
C3160 C 0.23266 0.58715 0.73297 0.0
C3161 C 0.21456 0.59692 0.72224 0.0
C3162 C 0.23834 0.57674 0.73786 0.0
C3163 C 0.23252 0.56518 0.73713 0.0
C3164 C 0.22105 0.58603 0.7273 0.0
C3165 C 0.22095 0.56446 0.73129 0.0
C3166 C 0.20267 0.5958 0.71716 0.0
C3167 C 0.21439 0.61852 0.71838 0.0
N3168 N 0.21561 0.57472 0.72663 0.0
N3169 N 0.22003 0.60824 0.72264 0.0
H3170 H 0.19268 0.40029 0.28904 0.0
H3171 H 0.2469 0.44984 0.29844 0.0
H3172 H 0.21608 0.40131 0.32125 0.0
H3173 H 0.21904 0.45254 0.2701 0.0
H3174 H 0.23666 0.4313 0.30621 0.0
H3175 H 0.20316 0.41864 0.28125 0.0
C3176 C 0.19997 0.4044 0.29453 0.0
C3177 C 0.20342 0.39923 0.30588 0.0
C3178 C 0.2328 0.43595 0.29829 0.0
C3179 C 0.21565 0.42022 0.29686 0.0
C3180 C 0.23861 0.44659 0.29387 0.0
C3181 C 0.23384 0.45283 0.28358 0.0
C3182 C 0.22216 0.43144 0.29237 0.0
C3183 C 0.22318 0.44798 0.27793 0.0
C3184 C 0.206 0.41486 0.29003 0.0
C3185 C 0.21316 0.40485 0.31241 0.0
N3186 N 0.21772 0.4376 0.28239 0.0
N3187 N 0.21892 0.41503 0.30781 0.0
H3188 H 0.11886 0.69373 0.28985 0.0
H3189 H 0.06676 0.74339 0.30305 0.0
H3190 H 0.11612 0.7132 0.32416 0.0
H3191 H 0.06821 0.72155 0.27014 0.0
H3192 H 0.08539 0.73331 0.31058 0.0
H3193 H 0.1008 0.70453 0.28224 0.0
C3194 C 0.11443 0.70022 0.29583 0.0
C3195 C 0.11902 0.70246 0.30773 0.0
C3196 C 0.08164 0.73073 0.30171 0.0
C3197 C 0.09832 0.71505 0.29894 0.0
C3198 C 0.07103 0.73654 0.29737 0.0
C3199 C 0.06586 0.7333 0.28595 0.0
C3200 C 0.08717 0.72164 0.29457 0.0
C3201 C 0.07174 0.72423 0.27907 0.0
C3202 C 0.10414 0.70645 0.29144 0.0
C3203 C 0.11301 0.71123 0.3149 0.0
N3204 N 0.08205 0.71874 0.28348 0.0
N3205 N 0.10296 0.71717 0.31041 0.0
H3206 H 0.81501 0.62372 0.30203 0.0
H3207 H 0.7719 0.56358 0.30582 0.0
H3208 H 0.79403 0.61323 0.3341 0.0
H3209 H 0.79527 0.57199 0.27485 0.0
H3210 H 0.77952 0.58209 0.31602 0.0
H3211 H 0.80773 0.60507 0.29176 0.0
C3212 C 0.80894 0.61748 0.30696 0.0
C3213 C 0.80512 0.62012 0.31897 0.0
C3214 C 0.783 0.5799 0.307 0.0
C3215 C 0.79661 0.59877 0.30716 0.0
C3216 C 0.77858 0.56936 0.30112 0.0
C3217 C 0.78291 0.56622 0.28943 0.0
C3218 C 0.7918 0.58745 0.30115 0.0
C3219 C 0.79175 0.57398 0.28391 0.0
C3220 C 0.80473 0.60685 0.30104 0.0
C3221 C 0.79708 0.61173 0.32478 0.0
N3222 N 0.79587 0.58424 0.28979 0.0
N3223 N 0.7931 0.60148 0.31883 0.0
H3224 H 0.90265 0.28985 0.32849 0.0
H3225 H 0.95367 0.29999 0.27638 0.0
H3226 H 0.90136 0.3194 0.30193 0.0
H3227 H 0.95173 0.268 0.29991 0.0
H3228 H 0.9349 0.30759 0.28588 0.0
H3229 H 0.92099 0.28212 0.31846 0.0
C3230 C 0.90614 0.29468 0.32049 0.0
C3231 C 0.90034 0.30529 0.31604 0.0
C3232 C 0.93857 0.2989 0.28895 0.0
C3233 C 0.9216 0.29654 0.30459 0.0
C3234 C 0.94927 0.29451 0.28348 0.0
C3235 C 0.95436 0.28332 0.28734 0.0
C3236 C 0.93289 0.2921 0.2984 0.0
C3237 C 0.94831 0.27676 0.29674 0.0
C3238 C 0.91669 0.29028 0.3148 0.0
C3239 C 0.90555 0.31128 0.30579 0.0
N3240 N 0.93794 0.28125 0.30194 0.0
N3241 N 0.91586 0.30682 0.30042 0.0
H3242 H 0.83006 0.40538 0.7288 0.0
H3243 H 0.77372 0.45178 0.72196 0.0
H3244 H 0.80338 0.40327 0.69928 0.0
H3245 H 0.80294 0.4558 0.74877 0.0
H3246 H 0.78396 0.43369 0.71384 0.0
H3247 H 0.81976 0.42347 0.73656 0.0
C3248 C 0.82209 0.40876 0.72387 0.0
C3249 C 0.81767 0.40278 0.71329 0.0
C3250 C 0.78812 0.43854 0.7215 0.0
C3251 C 0.80564 0.42351 0.72232 0.0
C3252 C 0.78231 0.44892 0.72611 0.0
C3253 C 0.78744 0.45537 0.7361 0.0
C3254 C 0.79916 0.43452 0.72691 0.0
C3255 C 0.79851 0.45106 0.7412 0.0
C3256 C 0.81615 0.41908 0.72838 0.0
C3257 C 0.80709 0.40748 0.70752 0.0
N3258 N 0.80397 0.44094 0.73656 0.0
N3259 N 0.80145 0.41755 0.7121 0.0
H3260 H 0.11735 0.32189 0.7153 0.0
H3261 H 0.06932 0.266 0.72309 0.0
H3262 H 0.1208 0.28707 0.69697 0.0
H3263 H 0.06797 0.29904 0.74469 0.0
H3264 H 0.08798 0.2738 0.71316 0.0
H3265 H 0.0992 0.31386 0.72604 0.0
C3266 C 0.11436 0.31253 0.71358 0.0
C3267 C 0.12064 0.30518 0.70515 0.0
C3268 C 0.08364 0.27935 0.72009 0.0
C3269 C 0.09972 0.29597 0.71734 0.0
C3270 C 0.07293 0.27492 0.72572 0.0
C3271 C 0.06703 0.28189 0.73472 0.0
C3272 C 0.08849 0.29088 0.7234 0.0
C3273 C 0.07226 0.2933 0.73789 0.0
C3274 C 0.10395 0.30798 0.71968 0.0
C3275 C 0.11618 0.29318 0.7032 0.0
N3276 N 0.08266 0.29747 0.7322 0.0
N3277 N 0.106 0.28898 0.70921 0.0
H3278 H 0.89703 0.73581 0.69761 0.0
H3279 H 0.95333 0.72148 0.74319 0.0
H3280 H 0.90316 0.70019 0.71394 0.0
H3281 H 0.94945 0.75558 0.72328 0.0
H3282 H 0.93426 0.71392 0.73365 0.0
H3283 H 0.91558 0.74353 0.70787 0.0
C3284 C 0.9023 0.72958 0.70331 0.0
C3285 C 0.89852 0.71729 0.70483 0.0
C3286 C 0.93758 0.72306 0.73138 0.0
C3287 C 0.91976 0.72616 0.71678 0.0
C3288 C 0.94843 0.72741 0.73688 0.0
C3289 C 0.95302 0.73918 0.73402 0.0
C3290 C 0.93121 0.73054 0.72299 0.0
C3291 C 0.94635 0.7464 0.72564 0.0
C3292 C 0.91287 0.73402 0.70922 0.0
C3293 C 0.90561 0.70975 0.71257 0.0
N3294 N 0.93579 0.74197 0.72044 0.0
N3295 N 0.91589 0.7143 0.71822 0.0
H3296 H 0.70249 0.19246 0.6079 0.0
H3297 H 0.74433 0.24641 0.57909 0.0
H3298 H 0.72392 0.2178 0.62989 0.0
H3299 H 0.72826 0.21704 0.55768 0.0
H3300 H 0.73558 0.23711 0.59769 0.0
H3301 H 0.71044 0.20243 0.58931 0.0
C3302 C 0.70879 0.20019 0.60882 0.0
C3303 C 0.71255 0.20428 0.62049 0.0
C3304 C 0.73397 0.2327 0.58893 0.0
C3305 C 0.72177 0.21571 0.59921 0.0
C3306 C 0.73891 0.23804 0.57829 0.0
C3307 C 0.73706 0.23249 0.5668 0.0
C3308 C 0.72704 0.22176 0.58808 0.0
C3309 C 0.73006 0.22156 0.56635 0.0
C3310 C 0.7134 0.20583 0.5982 0.0
C3311 C 0.72088 0.21424 0.6211 0.0
N3312 N 0.72529 0.21659 0.57682 0.0
N3313 N 0.72518 0.21962 0.61062 0.0
H3314 H 0.28409 0.19793 0.62503 0.0
H3315 H 0.29954 0.2433 0.56883 0.0
H3316 H 0.32021 0.21374 0.61881 0.0
H3317 H 0.26498 0.22371 0.57278 0.0
H3318 H 0.30688 0.23373 0.58787 0.0
H3319 H 0.27661 0.20834 0.60659 0.0
C3320 C 0.29048 0.20355 0.61977 0.0
C3321 C 0.30284 0.20486 0.62347 0.0
C3322 C 0.29769 0.23153 0.58457 0.0
C3323 C 0.29424 0.21699 0.60236 0.0
C3324 C 0.29346 0.23705 0.57374 0.0
C3325 C 0.28163 0.23428 0.56917 0.0
C3326 C 0.29001 0.22323 0.59094 0.0
C3327 C 0.27422 0.22599 0.57586 0.0
C3328 C 0.28617 0.20955 0.60926 0.0
C3329 C 0.31058 0.21252 0.6164 0.0
N3330 N 0.27853 0.22078 0.58639 0.0
N3331 N 0.30617 0.21826 0.60618 0.0
H3332 H 0.3241 0.81922 0.60981 0.0
H3333 H 0.27012 0.77888 0.5788 0.0
H3334 H 0.29075 0.80829 0.62854 0.0
H3335 H 0.30196 0.79229 0.55899 0.0
H3336 H 0.27807 0.78873 0.59737 0.0
H3337 H 0.3168 0.80836 0.59148 0.0
C3338 C 0.31529 0.81446 0.61011 0.0
C3339 C 0.30802 0.81473 0.62075 0.0
C3340 C 0.28334 0.78951 0.58897 0.0
C3341 C 0.29954 0.80233 0.59972 0.0
C3342 C 0.27876 0.78393 0.57832 0.0
C3343 C 0.28533 0.78479 0.56724 0.0
C3344 C 0.29459 0.796 0.58862 0.0
C3345 C 0.29662 0.79126 0.56732 0.0
C3346 C 0.31109 0.80832 0.59961 0.0
C3347 C 0.2966 0.8085 0.62052 0.0
N3348 N 0.30086 0.79664 0.5778 0.0
N3349 N 0.29273 0.80258 0.6102 0.0
H3350 H 0.70856 0.83121 0.6073 0.0
H3351 H 0.74046 0.77148 0.5797 0.0
H3352 H 0.71741 0.79933 0.62917 0.0
H3353 H 0.73011 0.803 0.55796 0.0
H3354 H 0.73173 0.78123 0.59784 0.0
H3355 H 0.71618 0.82081 0.5891 0.0
C3356 C 0.71213 0.82202 0.60829 0.0
C3357 C 0.7124 0.81617 0.61982 0.0
C3358 C 0.73135 0.786 0.5891 0.0
C3359 C 0.72111 0.80413 0.59893 0.0
C3360 C 0.73629 0.78041 0.57871 0.0
C3361 C 0.73609 0.78644 0.56726 0.0
C3362 C 0.72616 0.79771 0.58805 0.0
C3363 C 0.73069 0.79808 0.5666 0.0
C3364 C 0.71644 0.81605 0.59787 0.0
C3365 C 0.71693 0.80416 0.62046 0.0
N3366 N 0.72597 0.80332 0.57683 0.0
N3367 N 0.72116 0.79856 0.61019 0.0
H3368 H 0.73134 0.83044 0.40484 0.0
H3369 H 0.72226 0.77608 0.45377 0.0
H3370 H 0.70426 0.80138 0.40052 0.0
H3371 H 0.75362 0.80086 0.45376 0.0
H3372 H 0.71488 0.78577 0.43486 0.0
H3373 H 0.73894 0.82032 0.42339 0.0
C3374 C 0.72703 0.82188 0.40772 0.0
C3375 C 0.71715 0.81676 0.40102 0.0
C3376 C 0.72338 0.78907 0.439 0.0
C3377 C 0.72572 0.80521 0.42247 0.0
C3378 C 0.72766 0.78349 0.44977 0.0
C3379 C 0.73861 0.78763 0.45542 0.0
C3380 C 0.73005 0.79893 0.43383 0.0
C3381 C 0.74504 0.79746 0.44988 0.0
C3382 C 0.73135 0.81614 0.41837 0.0
C3383 C 0.71179 0.80578 0.40543 0.0
N3384 N 0.74066 0.80277 0.43943 0.0
N3385 N 0.71613 0.80039 0.41587 0.0
H3386 H 0.68958 0.22459 0.40666 0.0
H3387 H 0.7492 0.22212 0.4504 0.0
H3388 H 0.72095 0.20189 0.39921 0.0
H3389 H 0.71838 0.24597 0.45635 0.0
H3390 H 0.7389 0.21415 0.43197 0.0
H3391 H 0.69995 0.23219 0.42508 0.0
C3392 C 0.69869 0.22125 0.40883 0.0
C3393 C 0.70441 0.21263 0.40127 0.0
C3394 C 0.7344 0.22113 0.4373 0.0
C3395 C 0.71632 0.22121 0.42258 0.0
C3396 C 0.74024 0.22565 0.44787 0.0
C3397 C 0.73467 0.23476 0.45496 0.0
C3398 C 0.72285 0.22572 0.43378 0.0
C3399 C 0.72313 0.23909 0.45111 0.0
C3400 C 0.70459 0.22555 0.41943 0.0
C3401 C 0.71612 0.20845 0.40479 0.0
N3402 N 0.71762 0.23452 0.44082 0.0
N3403 N 0.72169 0.21279 0.41517 0.0
H3404 H 0.30775 0.23209 0.39415 0.0
H3405 H 0.29115 0.21928 0.4648 0.0
H3406 H 0.31674 0.19854 0.41325 0.0
H3407 H 0.28073 0.25203 0.44503 0.0
H3408 H 0.3002 0.21133 0.44597 0.0
H3409 H 0.2976 0.2394 0.41266 0.0
C3410 C 0.30761 0.22626 0.40225 0.0
C3411 C 0.31318 0.2147 0.40214 0.0
C3412 C 0.29591 0.22025 0.44574 0.0
C3413 C 0.30147 0.22301 0.42341 0.0
C3414 C 0.29067 0.22477 0.45649 0.0
C3415 C 0.28517 0.23638 0.45655 0.0
C3416 C 0.29568 0.22736 0.43493 0.0
C3417 C 0.28503 0.24313 0.44551 0.0
C3418 C 0.30176 0.23042 0.4128 0.0
C3419 C 0.3125 0.20747 0.41286 0.0
N3420 N 0.29021 0.23854 0.43518 0.0
N3421 N 0.30682 0.21176 0.42306 0.0
H3422 H 0.29418 0.83037 0.40682 0.0
H3423 H 0.29734 0.77107 0.45063 0.0
H3424 H 0.31731 0.79936 0.39939 0.0
H3425 H 0.27279 0.80133 0.45636 0.0
H3426 H 0.30524 0.78141 0.43219 0.0
H3427 H 0.28662 0.81994 0.42522 0.0
C3428 C 0.29763 0.82132 0.40899 0.0
C3429 C 0.30636 0.81573 0.40144 0.0
C3430 C 0.29811 0.78578 0.43748 0.0
C3431 C 0.29781 0.80375 0.42273 0.0
C3432 C 0.29364 0.77991 0.44805 0.0
C3433 C 0.28435 0.78531 0.45508 0.0
C3434 C 0.29332 0.79718 0.43391 0.0
C3435 C 0.27981 0.79671 0.45117 0.0
C3436 C 0.29334 0.81539 0.41957 0.0
C3437 C 0.31067 0.8041 0.40496 0.0
N3438 N 0.28435 0.80225 0.44089 0.0
N3439 N 0.30634 0.7985 0.41532 0.0
H3440 H 0.62747 0.21598 0.72156 0.0
H3441 H 0.55526 0.23008 0.71661 0.0
H3442 H 0.60513 0.20801 0.68958 0.0
H3443 H 0.57764 0.23988 0.74805 0.0
H3444 H 0.57333 0.22129 0.70694 0.0
H3445 H 0.60921 0.22383 0.73187 0.0
C3446 C 0.61871 0.21578 0.71673 0.0
C3447 C 0.61787 0.21136 0.70464 0.0
C3448 C 0.57431 0.22535 0.71596 0.0
C3449 C 0.59693 0.22046 0.71637 0.0
C3450 C 0.56399 0.23046 0.72147 0.0
C3451 C 0.5649 0.23582 0.73316 0.0
C3452 C 0.5857 0.22557 0.72215 0.0
C3453 C 0.57644 0.23576 0.73909 0.0
C3454 C 0.6083 0.22034 0.7226 0.0
C3455 C 0.60629 0.21149 0.69882 0.0
N3456 N 0.58638 0.23076 0.73351 0.0
N3457 N 0.59631 0.21597 0.70472 0.0
H3458 H 0.32666 0.1068 0.7037 0.0
H3459 H 0.27858 0.07781 0.7516 0.0
H3460 H 0.30395 0.12867 0.72726 0.0
H3461 H 0.2958 0.05692 0.72299 0.0
H3462 H 0.28857 0.09644 0.74356 0.0
H3463 H 0.31622 0.08828 0.71138 0.0
C3464 C 0.31949 0.10769 0.71052 0.0
C3465 C 0.31618 0.11929 0.71486 0.0
C3466 C 0.29013 0.08779 0.73902 0.0
C3467 C 0.30418 0.09814 0.72369 0.0
C3468 C 0.28449 0.07715 0.74364 0.0
C3469 C 0.28636 0.06579 0.73796 0.0
C3470 C 0.29781 0.08707 0.72869 0.0
C3471 C 0.294 0.06549 0.72758 0.0
C3472 C 0.31349 0.09713 0.71485 0.0
C3473 C 0.30672 0.11992 0.72358 0.0
N3474 N 0.29948 0.07595 0.72333 0.0
N3475 N 0.30109 0.1095 0.72775 0.0
H3476 H 0.40261 0.82283 0.71887 0.0
H3477 H 0.45527 0.77194 0.71973 0.0
H3478 H 0.40446 0.79304 0.69297 0.0
H3479 H 0.45103 0.79866 0.74851 0.0
H3480 H 0.43703 0.78004 0.70951 0.0
H3481 H 0.42063 0.81461 0.72956 0.0
C3482 C 0.40674 0.81454 0.71545 0.0
C3483 C 0.40197 0.80867 0.70494 0.0
C3484 C 0.44007 0.78413 0.71807 0.0
C3485 C 0.42275 0.79928 0.7171 0.0
C3486 C 0.45047 0.77945 0.72398 0.0
C3487 C 0.45473 0.78456 0.73507 0.0
C3488 C 0.43383 0.79407 0.72322 0.0
C3489 C 0.44821 0.79449 0.73992 0.0
C3490 C 0.41708 0.80988 0.72154 0.0
C3491 C 0.40789 0.79804 0.70088 0.0
N3492 N 0.43811 0.79891 0.73398 0.0
N3493 N 0.41793 0.79371 0.70694 0.0
H3494 H 0.72028 0.89009 0.72608 0.0
H3495 H 0.71943 0.96348 0.72789 0.0
H3496 H 0.69577 0.91204 0.70396 0.0
H3497 H 0.74842 0.9421 0.74436 0.0
H3498 H 0.71015 0.94464 0.71976 0.0
H3499 H 0.73026 0.90891 0.73357 0.0
C3500 C 0.71699 0.89887 0.7228 0.0
C3501 C 0.70716 0.89948 0.71438 0.0
C3502 C 0.71856 0.94405 0.72511 0.0
C3503 C 0.71854 0.92107 0.72292 0.0
C3504 C 0.72383 0.95481 0.72983 0.0
C3505 C 0.7347 0.95437 0.73686 0.0
C3506 C 0.72413 0.93272 0.72752 0.0
C3507 C 0.74009 0.94288 0.73891 0.0
C3508 C 0.72273 0.90961 0.72703 0.0
C3509 C 0.70339 0.91112 0.71035 0.0
N3510 N 0.73471 0.9325 0.73433 0.0
N3511 N 0.70903 0.92143 0.71471 0.0
H3512 H 0.61766 0.78877 0.33184 0.0
H3513 H 0.56859 0.79843 0.27768 0.0
H3514 H 0.62208 0.8162 0.30335 0.0
H3515 H 0.56879 0.76664 0.30157 0.0
H3516 H 0.58759 0.80571 0.28751 0.0
H3517 H 0.59912 0.78121 0.32148 0.0
C3518 C 0.61481 0.79316 0.32336 0.0
C3519 C 0.62154 0.80313 0.31847 0.0
C3520 C 0.58348 0.79713 0.29057 0.0
C3521 C 0.60008 0.79462 0.30664 0.0
C3522 C 0.57265 0.79292 0.28492 0.0
C3523 C 0.56701 0.78189 0.28879 0.0
C3524 C 0.58871 0.79033 0.30023 0.0
C3525 C 0.57264 0.77529 0.29839 0.0
C3526 C 0.60416 0.78887 0.31747 0.0
C3527 C 0.61716 0.8086 0.30758 0.0
N3528 N 0.58313 0.77963 0.30379 0.0
N3529 N 0.60671 0.80429 0.30205 0.0
H3530 H 0.70603 0.1042 0.33268 0.0
H3531 H 0.74068 0.07701 0.27412 0.0
H3532 H 0.71713 0.1263 0.30153 0.0
H3533 H 0.7273 0.05483 0.30434 0.0
H3534 H 0.73194 0.09512 0.28379 0.0
H3535 H 0.71371 0.08602 0.32232 0.0
C3536 C 0.71011 0.10524 0.32366 0.0
C3537 C 0.71098 0.11683 0.31801 0.0
C3538 C 0.7309 0.08628 0.28829 0.0
C3539 C 0.71977 0.09598 0.30602 0.0
C3540 C 0.73584 0.07591 0.28274 0.0
C3541 C 0.73479 0.06433 0.28842 0.0
C3542 C 0.72486 0.08512 0.29964 0.0
C3543 C 0.72855 0.06356 0.29969 0.0
C3544 C 0.71444 0.09484 0.31772 0.0
C3545 C 0.71617 0.11756 0.30621 0.0
N3546 N 0.72385 0.07379 0.30492 0.0
N3547 N 0.72042 0.1073 0.30064 0.0
H3548 H 0.41168 0.1952 0.32108 0.0
H3549 H 0.44109 0.24802 0.27841 0.0
H3550 H 0.38998 0.21893 0.29788 0.0
H3551 H 0.46243 0.21985 0.29625 0.0
H3552 H 0.4223 0.23871 0.2869 0.0
H3553 H 0.43039 0.20538 0.31355 0.0
C3554 C 0.41084 0.20262 0.31448 0.0
C3555 C 0.39923 0.2062 0.3101 0.0
C3556 C 0.43109 0.23457 0.28895 0.0
C3557 C 0.42066 0.21786 0.30136 0.0
C3558 C 0.44183 0.23992 0.28417 0.0
C3559 C 0.45336 0.23468 0.28658 0.0
C3560 C 0.43188 0.22395 0.2963 0.0
C3561 C 0.45374 0.22411 0.29401 0.0
C3562 C 0.42154 0.20838 0.31011 0.0
C3563 C 0.39873 0.21577 0.30141 0.0
N3564 N 0.44318 0.21911 0.29861 0.0
N3565 N 0.40928 0.22128 0.29734 0.0
H3566 H 0.32757 0.91355 0.319 0.0
H3567 H 0.27375 0.94233 0.27758 0.0
H3568 H 0.30288 0.89173 0.29659 0.0
H3569 H 0.30269 0.96394 0.29452 0.0
H3570 H 0.28322 0.92371 0.28581 0.0
H3571 H 0.31747 0.9321 0.31151 0.0
C3572 C 0.31995 0.91265 0.31257 0.0
C3573 C 0.31607 0.90104 0.30842 0.0
C3574 C 0.2875 0.93252 0.28772 0.0
C3575 C 0.3045 0.9223 0.29973 0.0
C3576 C 0.28206 0.94317 0.28309 0.0
C3577 C 0.28745 0.95473 0.28534 0.0
C3578 C 0.29836 0.93343 0.29476 0.0
C3579 C 0.2983 0.95523 0.29242 0.0
C3580 C 0.31425 0.92326 0.30823 0.0
C3581 C 0.30626 0.90048 0.29995 0.0
N3582 N 0.30337 0.94475 0.2969 0.0
N3583 N 0.30081 0.91094 0.29591 0.0
H3584 H 0.6939 0.11932 0.73344 0.0
H3585 H 0.74389 0.06721 0.72158 0.0
H3586 H 0.71445 0.11657 0.69972 0.0
H3587 H 0.7211 0.06874 0.75391 0.0
H3588 H 0.73405 0.08581 0.7138 0.0
H3589 H 0.70444 0.10128 0.74134 0.0
C3590 C 0.70058 0.1149 0.72765 0.0
C3591 C 0.70319 0.11947 0.71583 0.0
C3592 C 0.73121 0.08208 0.7226 0.0
C3593 C 0.71549 0.09879 0.72496 0.0
C3594 C 0.73688 0.07149 0.72709 0.0
C3595 C 0.73331 0.06635 0.73842 0.0
C3596 C 0.72192 0.08763 0.7295 0.0
C3597 C 0.72405 0.07224 0.74506 0.0
C3598 C 0.70667 0.10461 0.73221 0.0
C3599 C 0.71219 0.11346 0.70891 0.0
N3600 N 0.71869 0.08254 0.74051 0.0
N3601 N 0.71798 0.10343 0.71356 0.0
H3602 H 0.72111 0.89578 0.31621 0.0
H3603 H 0.71685 0.95451 0.27184 0.0
H3604 H 0.68876 0.90492 0.29494 0.0
H3605 H 0.74739 0.94819 0.29654 0.0
H3606 H 0.70688 0.93579 0.2795 0.0
H3607 H 0.73122 0.9145 0.30865 0.0
C3608 C 0.71609 0.90174 0.31001 0.0
C3609 C 0.70404 0.89872 0.30621 0.0
C3610 C 0.71576 0.93849 0.28326 0.0
C3611 C 0.71567 0.92011 0.29737 0.0
C3612 C 0.7215 0.94914 0.27882 0.0
C3613 C 0.73299 0.95293 0.28354 0.0
C3614 C 0.72156 0.93149 0.29245 0.0
C3615 C 0.73848 0.94569 0.29273 0.0
C3616 C 0.72191 0.9124 0.30564 0.0
C3617 C 0.69811 0.90673 0.29799 0.0
N3618 N 0.73273 0.93531 0.29686 0.0
N3619 N 0.70398 0.91703 0.29385 0.0
H3620 H 0.6053 0.18749 0.31461 0.0
H3621 H 0.57813 0.24718 0.28126 0.0
H3622 H 0.62777 0.21868 0.30397 0.0
H3623 H 0.55575 0.21677 0.29414 0.0
H3624 H 0.59638 0.23714 0.2897 0.0
H3625 H 0.58707 0.19821 0.30721 0.0
C3626 C 0.60641 0.19659 0.31068 0.0
C3627 C 0.61812 0.20215 0.30986 0.0
C3628 C 0.58747 0.23268 0.2907 0.0
C3629 C 0.59719 0.21457 0.3014 0.0
C3630 C 0.57702 0.23844 0.28593 0.0
C3631 C 0.56535 0.23281 0.28692 0.0
C3632 C 0.58627 0.22118 0.29651 0.0
C3633 C 0.56455 0.22138 0.29294 0.0
C3634 C 0.59597 0.20275 0.30651 0.0
C3635 C 0.61894 0.21406 0.30488 0.0
N3636 N 0.57485 0.21596 0.29747 0.0
N3637 N 0.60863 0.21984 0.30079 0.0
H3638 H 0.31512 0.12396 0.30162 0.0
H3639 H 0.27182 0.06394 0.30553 0.0
H3640 H 0.2935 0.11397 0.33341 0.0
H3641 H 0.29546 0.07203 0.27469 0.0
H3642 H 0.27935 0.08255 0.31561 0.0
H3643 H 0.30795 0.10519 0.29145 0.0
C3644 C 0.30893 0.11781 0.3065 0.0
C3645 C 0.30489 0.12062 0.3184 0.0
C3646 C 0.28291 0.08027 0.30663 0.0
C3647 C 0.29652 0.09914 0.30673 0.0
C3648 C 0.27855 0.06967 0.30083 0.0
C3649 C 0.28297 0.06641 0.28921 0.0
C3650 C 0.29176 0.08775 0.30079 0.0
C3651 C 0.29187 0.0741 0.28369 0.0
C3652 C 0.30478 0.10711 0.30066 0.0
C3653 C 0.29671 0.11234 0.32417 0.0
N3654 N 0.29594 0.08442 0.28951 0.0
N3655 N 0.29281 0.10202 0.31829 0.0
H3656 H 0.40445 0.82325 0.30674 0.0
H3657 H 0.45062 0.76689 0.29958 0.0
H3658 H 0.40006 0.78852 0.32559 0.0
H3659 H 0.4543 0.8007 0.27901 0.0
H3660 H 0.43209 0.77479 0.3092 0.0
H3661 H 0.42256 0.81523 0.29632 0.0
C3662 C 0.40722 0.81392 0.30864 0.0
C3663 C 0.4007 0.80659 0.31713 0.0
C3664 C 0.43692 0.78049 0.30256 0.0
C3665 C 0.42156 0.79738 0.3053 0.0
C3666 C 0.44756 0.776 0.29711 0.0
C3667 C 0.45409 0.78315 0.28849 0.0
C3668 C 0.43273 0.79226 0.29944 0.0
C3669 C 0.44952 0.79481 0.28551 0.0
C3670 C 0.41762 0.80936 0.30273 0.0
C3671 C 0.40488 0.79461 0.31931 0.0
N3672 N 0.43916 0.79902 0.291 0.0
N3673 N 0.41502 0.79041 0.31346 0.0
H3674 H 0.30768 0.89151 0.73107 0.0
H3675 H 0.29344 0.96273 0.72007 0.0
H3676 H 0.31914 0.91167 0.69876 0.0
H3677 H 0.27992 0.94183 0.75112 0.0
H3678 H 0.30268 0.94413 0.71199 0.0
H3679 H 0.2974 0.90984 0.7385 0.0
C3680 C 0.30806 0.8998 0.72554 0.0
C3681 C 0.31435 0.90004 0.71428 0.0
C3682 C 0.29767 0.9436 0.72056 0.0
C3683 C 0.3025 0.92111 0.72273 0.0
C3684 C 0.29231 0.95422 0.72516 0.0
C3685 C 0.28588 0.9539 0.73633 0.0
C3686 C 0.29663 0.93253 0.72716 0.0
C3687 C 0.28494 0.9426 0.74258 0.0
C3688 C 0.30213 0.91026 0.72976 0.0
C3689 C 0.31432 0.911 0.70743 0.0
N3690 N 0.29027 0.9324 0.73793 0.0
N3691 N 0.30855 0.9211 0.71178 0.0
H3692 H 0.61721 0.78988 0.69337 0.0
H3693 H 0.57057 0.7976 0.74953 0.0
H3694 H 0.61953 0.81997 0.71897 0.0
H3695 H 0.56545 0.77116 0.72047 0.0
H3696 H 0.58908 0.80532 0.73919 0.0
H3697 H 0.59887 0.78228 0.70392 0.0
C3698 C 0.61383 0.79496 0.70116 0.0
C3699 C 0.61993 0.80566 0.70519 0.0
C3700 C 0.5839 0.79783 0.73509 0.0
C3701 C 0.59893 0.79683 0.71751 0.0
C3702 C 0.57328 0.79344 0.74095 0.0
C3703 C 0.56638 0.78368 0.73589 0.0
C3704 C 0.58772 0.79241 0.72408 0.0
C3705 C 0.57053 0.77855 0.72485 0.0
C3706 C 0.60337 0.79055 0.70724 0.0
C3707 C 0.61524 0.81163 0.71557 0.0
N3708 N 0.58089 0.78297 0.71934 0.0
N3709 N 0.60502 0.80714 0.72135 0.0
H3710 H 0.41162 0.2039 0.69479 0.0
H3711 H 0.4413 0.24541 0.74803 0.0
H3712 H 0.39009 0.22695 0.71833 0.0
H3713 H 0.46249 0.2295 0.71885 0.0
H3714 H 0.42245 0.2371 0.73859 0.0
H3715 H 0.43039 0.21153 0.70486 0.0
C3716 C 0.41084 0.2105 0.70214 0.0
C3717 C 0.39928 0.21481 0.70572 0.0
C3718 C 0.43123 0.23544 0.73425 0.0
C3719 C 0.42073 0.22362 0.71726 0.0
C3720 C 0.44199 0.24012 0.73967 0.0
C3721 C 0.45347 0.23818 0.73419 0.0
C3722 C 0.43196 0.22864 0.72335 0.0
C3723 C 0.45381 0.23135 0.7233 0.0
C3724 C 0.42156 0.21491 0.70783 0.0
C3725 C 0.39883 0.22348 0.7152 0.0
N3726 N 0.44323 0.2268 0.71826 0.0
N3727 N 0.40939 0.22757 0.72067 0.0
H3728 H 0.70259 0.69213 0.10806 0.0
H3729 H 0.74405 0.7465 0.07949 0.0
H3730 H 0.72351 0.71779 0.13016 0.0
H3731 H 0.72825 0.71706 0.05797 0.0
H3732 H 0.7353 0.7371 0.09804 0.0
H3733 H 0.71055 0.70216 0.08952 0.0
C3734 C 0.70878 0.69994 0.10902 0.0
C3735 C 0.71239 0.70411 0.12071 0.0
C3736 C 0.73375 0.7327 0.08926 0.0
C3737 C 0.72162 0.71561 0.09947 0.0
C3738 C 0.73868 0.73809 0.07866 0.0
C3739 C 0.73691 0.73255 0.06715 0.0
C3740 C 0.72689 0.72171 0.08837 0.0
C3741 C 0.72999 0.72158 0.06666 0.0
C3742 C 0.71339 0.70561 0.09842 0.0
C3743 C 0.72058 0.71418 0.12136 0.0
N3744 N 0.72522 0.71654 0.0771 0.0
N3745 N 0.7249 0.71959 0.1109 0.0
H3746 H 0.30841 0.68744 0.10912 0.0
H3747 H 0.2785 0.74787 0.07995 0.0
H3748 H 0.30165 0.72022 0.12996 0.0
H3749 H 0.28844 0.71614 0.05879 0.0
H3750 H 0.28683 0.73798 0.09838 0.0
H3751 H 0.30088 0.69779 0.09064 0.0
C3752 C 0.3053 0.69681 0.10982 0.0
C3753 C 0.30561 0.70294 0.12113 0.0
C3754 C 0.2872 0.73319 0.0897 0.0
C3755 C 0.29702 0.71492 0.09994 0.0
C3756 C 0.28249 0.73886 0.07914 0.0
C3757 C 0.28272 0.73283 0.06777 0.0
C3758 C 0.29216 0.72138 0.0889 0.0
C3759 C 0.28786 0.72107 0.06736 0.0
C3760 C 0.30106 0.70275 0.09924 0.0
C3761 C 0.30166 0.71517 0.12142 0.0
N3762 N 0.29235 0.71574 0.07776 0.0
N3763 N 0.29748 0.72073 0.111 0.0
H3764 H 0.31814 0.30007 0.12272 0.0
H3765 H 0.27241 0.30271 0.06466 0.0
H3766 H 0.29493 0.33088 0.11417 0.0
H3767 H 0.29784 0.27319 0.07095 0.0
H3768 H 0.28021 0.31282 0.08314 0.0
H3769 H 0.3107 0.28988 0.10407 0.0
C3770 C 0.31154 0.30474 0.11691 0.0
C3771 C 0.30714 0.31637 0.1201 0.0
C3772 C 0.2841 0.30413 0.0805 0.0
C3773 C 0.29846 0.30464 0.09876 0.0
C3774 C 0.27959 0.2983 0.06997 0.0
C3775 C 0.28443 0.28704 0.06624 0.0
C3776 C 0.29353 0.29867 0.08744 0.0
C3777 C 0.2939 0.28191 0.0734 0.0
C3778 C 0.30724 0.29887 0.10628 0.0
C3779 C 0.29844 0.32185 0.11226 0.0
N3780 N 0.29811 0.28774 0.08366 0.0
N3781 N 0.29439 0.31594 0.102 0.0
H3782 H 0.73276 0.32434 0.12189 0.0
H3783 H 0.71931 0.27635 0.06772 0.0
H3784 H 0.69793 0.3053 0.11737 0.0
H3785 H 0.75309 0.29736 0.07139 0.0
H3786 H 0.71161 0.28599 0.08641 0.0
H3787 H 0.74055 0.31385 0.10385 0.0
C3788 C 0.72671 0.318 0.11707 0.0
C3789 C 0.71462 0.3158 0.12114 0.0
C3790 C 0.72071 0.28847 0.08313 0.0
C3791 C 0.72359 0.30357 0.10046 0.0
C3792 C 0.72515 0.28292 0.07249 0.0
C3793 C 0.73686 0.28608 0.06792 0.0
C3794 C 0.72805 0.29722 0.08929 0.0
C3795 C 0.74394 0.29477 0.07444 0.0
C3796 C 0.7312 0.31195 0.10679 0.0
C3797 C 0.70734 0.30724 0.11465 0.0
N3798 N 0.73943 0.30002 0.08476 0.0
N3799 N 0.71192 0.30147 0.10462 0.0
H3800 H 0.72767 0.30307 0.89158 0.0
H3801 H 0.72831 0.30238 0.96514 0.0
H3802 H 0.70478 0.32631 0.91359 0.0
H3803 H 0.74545 0.27452 0.94327 0.0
H3804 H 0.72043 0.3119 0.94632 0.0
H3805 H 0.73509 0.29308 0.91038 0.0
C3806 C 0.72423 0.30608 0.90038 0.0
C3807 C 0.7156 0.31555 0.90102 0.0
C3808 C 0.72589 0.30369 0.94563 0.0
C3809 C 0.72404 0.30416 0.92257 0.0
C3810 C 0.73045 0.29829 0.95637 0.0
C3811 C 0.73758 0.28765 0.95577 0.0
C3812 C 0.72854 0.29848 0.93418 0.0
C3813 C 0.73992 0.28265 0.94416 0.0
C3814 C 0.72841 0.30033 0.91109 0.0
C3815 C 0.71134 0.31898 0.91265 0.0
N3816 N 0.73546 0.28815 0.93382 0.0
N3817 N 0.71565 0.31334 0.92296 0.0
H3818 H 0.69138 0.72709 0.90497 0.0
H3819 H 0.74821 0.72103 0.95182 0.0
H3820 H 0.7175 0.69758 0.90351 0.0
H3821 H 0.7189 0.74708 0.95599 0.0
H3822 H 0.73772 0.71283 0.93362 0.0
H3823 H 0.70196 0.73504 0.92313 0.0
C3824 C 0.69929 0.7222 0.9085 0.0
C3825 C 0.70347 0.71157 0.90268 0.0
C3826 C 0.7336 0.72034 0.93852 0.0
C3827 C 0.71582 0.72082 0.92347 0.0
C3828 C 0.73955 0.725 0.94897 0.0
C3829 C 0.73447 0.7348 0.95551 0.0
C3830 C 0.72247 0.72551 0.93452 0.0
C3831 C 0.72331 0.73967 0.95119 0.0
C3832 C 0.70538 0.72682 0.91885 0.0
C3833 C 0.71398 0.70586 0.90757 0.0
N3834 N 0.71771 0.73499 0.941 0.0
N3835 N 0.71978 0.71055 0.91767 0.0
H3836 H 0.31662 0.69703 0.91267 0.0
H3837 H 0.28046 0.75211 0.94439 0.0
H3838 H 0.30867 0.73137 0.89453 0.0
H3839 H 0.29085 0.71904 0.96363 0.0
H3840 H 0.28984 0.74418 0.92575 0.0
H3841 H 0.30612 0.70435 0.93104 0.0
C3842 C 0.31258 0.70607 0.91251 0.0
C3843 C 0.31358 0.71361 0.90203 0.0
C3844 C 0.29006 0.73864 0.93404 0.0
C3845 C 0.30163 0.7221 0.92309 0.0
C3846 C 0.28476 0.7432 0.94473 0.0
C3847 C 0.28491 0.73628 0.95566 0.0
C3848 C 0.29558 0.72705 0.93423 0.0
C3849 C 0.29039 0.72466 0.95542 0.0
C3850 C 0.30666 0.71027 0.92303 0.0
C3851 C 0.3083 0.7253 0.90243 0.0
N3852 N 0.29553 0.72044 0.9449 0.0
N3853 N 0.30257 0.72918 0.91277 0.0
H3854 H 0.29136 0.32895 0.90366 0.0
H3855 H 0.29844 0.27293 0.95108 0.0
H3856 H 0.32166 0.30368 0.90272 0.0
H3857 H 0.27159 0.30155 0.95484 0.0
H3858 H 0.30647 0.28333 0.93277 0.0
H3859 H 0.28339 0.31829 0.92176 0.0
C3860 C 0.29641 0.32121 0.90729 0.0
C3861 C 0.30728 0.31729 0.90164 0.0
C3862 C 0.29882 0.28732 0.9376 0.0
C3863 C 0.29802 0.30486 0.92237 0.0
C3864 C 0.29425 0.28142 0.94811 0.0
C3865 C 0.28429 0.28634 0.95458 0.0
C3866 C 0.29339 0.29824 0.93346 0.0
C3867 C 0.27914 0.29727 0.9501 0.0
C3868 C 0.29179 0.31507 0.91761 0.0
C3869 C 0.3132 0.30698 0.90665 0.0
N3870 N 0.28374 0.30283 0.93986 0.0
N3871 N 0.3085 0.30115 0.91672 0.0
H3872 H 0.61749 0.7303 0.19345 0.0
H3873 H 0.56598 0.72029 0.24513 0.0
H3874 H 0.61797 0.70019 0.2194 0.0
H3875 H 0.5686 0.75252 0.22199 0.0
H3876 H 0.58463 0.71244 0.23558 0.0
H3877 H 0.59921 0.73817 0.20347 0.0
C3878 C 0.61383 0.72537 0.20132 0.0
C3879 C 0.61939 0.71458 0.2056 0.0
C3880 C 0.58112 0.72124 0.2326 0.0
C3881 C 0.5982 0.7235 0.21705 0.0
C3882 C 0.5705 0.72577 0.2381 0.0
C3883 C 0.56564 0.7371 0.23437 0.0
C3884 C 0.58696 0.72805 0.22325 0.0
C3885 C 0.57184 0.74366 0.22506 0.0
C3886 C 0.60331 0.72985 0.207 0.0
C3887 C 0.61397 0.70847 0.21568 0.0
N3888 N 0.58213 0.73904 0.21983 0.0
N3889 N 0.60369 0.71301 0.22105 0.0
H3890 H 0.30356 0.63002 0.22798 0.0
H3891 H 0.29713 0.55692 0.22298 0.0
H3892 H 0.32688 0.60795 0.20521 0.0
H3893 H 0.27929 0.578 0.25107 0.0
H3894 H 0.30678 0.57576 0.21515 0.0
H3895 H 0.29323 0.61129 0.23534 0.0
C3896 C 0.30645 0.62123 0.22447 0.0
C3897 C 0.31612 0.62054 0.21598 0.0
C3898 C 0.30076 0.57627 0.22303 0.0
C3899 C 0.30437 0.59908 0.2244 0.0
C3900 C 0.29518 0.56553 0.22746 0.0
C3901 C 0.28739 0.56588 0.2377 0.0
C3902 C 0.29847 0.5875 0.22881 0.0
C3903 C 0.28533 0.57729 0.24323 0.0
C3904 C 0.30061 0.61055 0.22873 0.0
C3905 C 0.31958 0.6089 0.21186 0.0
N3906 N 0.29081 0.58765 0.23869 0.0
N3907 N 0.31369 0.59864 0.21608 0.0
H3908 H 0.399 0.31827 0.22143 0.0
H3909 H 0.45625 0.2726 0.21839 0.0
H3910 H 0.40675 0.29513 0.19041 0.0
H3911 H 0.45026 0.29723 0.24864 0.0
H3912 H 0.43788 0.28056 0.20825 0.0
H3913 H 0.4176 0.31073 0.23164 0.0
C3914 C 0.40463 0.31167 0.21672 0.0
C3915 C 0.40122 0.30731 0.20503 0.0
C3916 C 0.44057 0.28424 0.2171 0.0
C3917 C 0.4225 0.29852 0.21677 0.0
C3918 C 0.45103 0.27963 0.22295 0.0
C3919 C 0.45482 0.2842 0.23443 0.0
C3920 C 0.43375 0.2935 0.22275 0.0
C3921 C 0.44778 0.29351 0.23975 0.0
C3922 C 0.41522 0.30731 0.2226 0.0
C3923 C 0.40884 0.29861 0.19949 0.0
N3924 N 0.43758 0.29782 0.23389 0.0
N3925 N 0.41907 0.29451 0.2054 0.0
H3926 H 0.69452 0.4124 0.20341 0.0
H3927 H 0.74884 0.44195 0.24423 0.0
H3928 H 0.71953 0.39085 0.22535 0.0
H3929 H 0.71927 0.46293 0.22829 0.0
H3930 H 0.73947 0.42321 0.23581 0.0
H3931 H 0.70474 0.43109 0.21082 0.0
C3932 C 0.70223 0.41159 0.20971 0.0
C3933 C 0.70616 0.40003 0.21378 0.0
C3934 C 0.73503 0.43192 0.23415 0.0
C3935 C 0.71788 0.42142 0.22237 0.0
C3936 C 0.74042 0.44262 0.2389 0.0
C3937 C 0.73481 0.45402 0.237 0.0
C3938 C 0.72401 0.43262 0.22736 0.0
C3939 C 0.72383 0.45432 0.23012 0.0
C3940 C 0.70801 0.42227 0.214 0.0
C3941 C 0.71611 0.39957 0.22208 0.0
N3942 N 0.71881 0.4438 0.22553 0.0
N3943 N 0.72163 0.4101 0.22608 0.0
H3944 H 0.61732 0.32197 0.80808 0.0
H3945 H 0.57063 0.26523 0.79879 0.0
H3946 H 0.62209 0.28644 0.82508 0.0
H3947 H 0.5675 0.29948 0.779 0.0
H3948 H 0.58938 0.273 0.80868 0.0
H3949 H 0.59907 0.31402 0.79736 0.0
C3950 C 0.6146 0.31248 0.80951 0.0
C3951 C 0.62127 0.30489 0.81755 0.0
C3952 C 0.58462 0.27882 0.80215 0.0
C3953 C 0.60025 0.29576 0.8054 0.0
C3954 C 0.57387 0.27441 0.79655 0.0
C3955 C 0.56744 0.28173 0.78808 0.0
C3956 C 0.589 0.29069 0.79934 0.0
C3957 C 0.5722 0.29348 0.78539 0.0
C3958 C 0.60413 0.30796 0.80342 0.0
C3959 C 0.61715 0.29271 0.81915 0.0
N3960 N 0.58266 0.29761 0.79103 0.0
N3961 N 0.60692 0.28855 0.81316 0.0
H3962 H 0.71737 0.62729 0.80084 0.0
H3963 H 0.72765 0.5546 0.80421 0.0
H3964 H 0.70702 0.6046 0.83183 0.0
H3965 H 0.74081 0.57738 0.77435 0.0
H3966 H 0.71915 0.57272 0.81392 0.0
H3967 H 0.72487 0.60902 0.79036 0.0
C3968 C 0.71658 0.61846 0.80541 0.0
C3969 C 0.7116 0.61751 0.81727 0.0
C3970 C 0.72388 0.57378 0.80524 0.0
C3971 C 0.72027 0.59656 0.80536 0.0
C3972 C 0.72882 0.56342 0.79971 0.0
C3973 C 0.73506 0.56443 0.78846 0.0
C3974 C 0.72514 0.5853 0.79951 0.0
C3975 C 0.736 0.57611 0.78296 0.0
C3976 C 0.72093 0.60804 0.79945 0.0
C3977 C 0.71095 0.60583 0.82278 0.0
N3978 N 0.73114 0.58608 0.78855 0.0
N3979 N 0.71524 0.59584 0.81679 0.0
H3980 H 0.40159 0.69205 0.79284 0.0
H3981 H 0.4514 0.74615 0.80167 0.0
H3982 H 0.3985 0.71993 0.82067 0.0
H3983 H 0.45124 0.72096 0.77118 0.0
H3984 H 0.43237 0.7365 0.80915 0.0
H3985 H 0.42015 0.70226 0.78524 0.0
C3986 C 0.40474 0.70038 0.79731 0.0
C3987 C 0.39836 0.70515 0.8074 0.0
C3988 C 0.4365 0.73311 0.80081 0.0
C3989 C 0.41987 0.71683 0.7988 0.0
C3990 C 0.44734 0.73866 0.79649 0.0
C3991 C 0.45301 0.73436 0.78578 0.0
C3992 C 0.43127 0.72315 0.79441 0.0
C3993 C 0.44737 0.72447 0.77959 0.0
C3994 C 0.41541 0.70618 0.79299 0.0
C3995 C 0.40314 0.71582 0.81296 0.0
N3996 N 0.43686 0.71921 0.784 0.0
N3997 N 0.41359 0.7213 0.80859 0.0
H3998 H 0.33381 0.41496 0.81277 0.0
H3999 H 0.27345 0.44266 0.78077 0.0
H4000 H 0.30155 0.39317 0.8039 0.0
H4001 H 0.30511 0.46449 0.79158 0.0
H4002 H 0.2834 0.42448 0.78934 0.0
H4003 H 0.32334 0.43319 0.80509 0.0
C4004 C 0.32453 0.41399 0.80917 0.0
C4005 C 0.31859 0.40247 0.80894 0.0
C4006 C 0.28816 0.43325 0.78985 0.0
C4007 C 0.30647 0.4234 0.80016 0.0
C4008 C 0.28246 0.44367 0.78501 0.0
C4009 C 0.28844 0.45517 0.7854 0.0
C4010 C 0.29997 0.4343 0.79514 0.0
C4011 C 0.3002 0.45582 0.79087 0.0
C4012 C 0.31853 0.42443 0.80484 0.0
C4013 C 0.30646 0.40185 0.80437 0.0
N4014 N 0.30556 0.44556 0.79549 0.0
N4015 N 0.30083 0.41215 0.80011 0.0
H4016 H 0.69285 0.61865 0.23323 0.0
H4017 H 0.7434 0.56696 0.22196 0.0
H4018 H 0.71405 0.61626 0.19989 0.0
H4019 H 0.72007 0.56815 0.25391 0.0
H4020 H 0.7335 0.58548 0.21407 0.0
H4021 H 0.70328 0.60056 0.24117 0.0
C4022 C 0.69965 0.61429 0.22752 0.0
C4023 C 0.70248 0.61899 0.2158 0.0
C4024 C 0.73055 0.58169 0.22281 0.0
C4025 C 0.71466 0.59826 0.22498 0.0
C4026 C 0.73626 0.57115 0.22736 0.0
C4027 C 0.73256 0.56594 0.23862 0.0
C4028 C 0.72109 0.58713 0.22957 0.0
C4029 C 0.72312 0.57171 0.24512 0.0
C4030 C 0.70567 0.60398 0.23211 0.0
C4031 C 0.71161 0.61306 0.209 0.0
N4032 N 0.71774 0.58196 0.24051 0.0
N4033 N 0.71735 0.603 0.21367 0.0
H4034 H 0.71227 0.39028 0.78832 0.0
H4035 H 0.72816 0.46102 0.80111 0.0
H4036 H 0.70343 0.40867 0.82212 0.0
H4037 H 0.7407 0.44158 0.76914 0.0
H4038 H 0.71897 0.44198 0.80888 0.0
H4039 H 0.72248 0.40905 0.78099 0.0
C4040 C 0.71246 0.39828 0.79419 0.0
C4041 C 0.70695 0.3979 0.80584 0.0
C4042 C 0.72376 0.44186 0.80018 0.0
C4043 C 0.71868 0.41943 0.79752 0.0
C4044 C 0.72908 0.45274 0.79575 0.0
C4045 C 0.73524 0.45295 0.78442 0.0
C4046 C 0.72453 0.43108 0.79323 0.0
C4047 C 0.7359 0.44193 0.77782 0.0
C4048 C 0.71835 0.40897 0.79003 0.0
C4049 C 0.70765 0.40849 0.81313 0.0
N4050 N 0.7306 0.43147 0.7823 0.0
N4051 N 0.71335 0.41883 0.80883 0.0
H4052 H 0.61613 0.6903 0.79234 0.0
H4053 H 0.56855 0.74502 0.80167 0.0
H4054 H 0.62075 0.71803 0.82023 0.0
H4055 H 0.56715 0.7199 0.77113 0.0
H4056 H 0.58733 0.73508 0.80898 0.0
H4057 H 0.59782 0.70076 0.78489 0.0
C4058 C 0.61337 0.69864 0.79686 0.0
C4059 C 0.6201 0.70329 0.80692 0.0
C4060 C 0.58291 0.73176 0.80067 0.0
C4061 C 0.59888 0.71527 0.79849 0.0
C4062 C 0.57221 0.73748 0.79645 0.0
C4063 C 0.56618 0.73329 0.78577 0.0
C4064 C 0.58764 0.72175 0.79421 0.0
C4065 C 0.57131 0.72334 0.77952 0.0
C4066 C 0.60284 0.70459 0.79262 0.0
C4067 C 0.61582 0.71401 0.81254 0.0
N4068 N 0.58169 0.71792 0.78384 0.0
N4069 N 0.6055 0.71963 0.80826 0.0
H4070 H 0.28715 0.62853 0.81128 0.0
H4071 H 0.30129 0.55893 0.7933 0.0
H4072 H 0.32139 0.61063 0.81992 0.0
H4073 H 0.26839 0.57792 0.78206 0.0
H4074 H 0.30888 0.57776 0.80297 0.0
H4075 H 0.28012 0.61004 0.8006 0.0
C4076 C 0.29319 0.62069 0.81096 0.0
C4077 C 0.30487 0.62114 0.81656 0.0
C4078 C 0.30001 0.57782 0.79836 0.0
C4079 C 0.29688 0.5999 0.80425 0.0
C4080 C 0.29569 0.56708 0.79276 0.0
C4081 C 0.28415 0.56679 0.78684 0.0
C4082 C 0.29275 0.5884 0.79809 0.0
C4083 C 0.27725 0.57762 0.78666 0.0
C4084 C 0.28919 0.61015 0.8048 0.0
C4085 C 0.31236 0.61076 0.81565 0.0
N4086 N 0.28164 0.58795 0.79221 0.0
N4087 N 0.30822 0.60056 0.80968 0.0
H4088 H 0.40517 0.32378 0.80674 0.0
H4089 H 0.4512 0.26737 0.79918 0.0
H4090 H 0.4006 0.28888 0.82523 0.0
H4091 H 0.45477 0.30118 0.77859 0.0
H4092 H 0.43269 0.27525 0.80885 0.0
H4093 H 0.42321 0.31575 0.79619 0.0
C4094 C 0.40789 0.31441 0.80853 0.0
C4095 C 0.40134 0.30703 0.81696 0.0
C4096 C 0.43749 0.28095 0.8022 0.0
C4097 C 0.42212 0.29782 0.80499 0.0
C4098 C 0.44813 0.27648 0.79672 0.0
C4099 C 0.45462 0.28363 0.78809 0.0
C4100 C 0.43327 0.29271 0.79908 0.0
C4101 C 0.45002 0.29529 0.78511 0.0
C4102 C 0.41824 0.30985 0.80255 0.0
C4103 C 0.40545 0.295 0.819 0.0
N4104 N 0.43967 0.29948 0.79063 0.0
N4105 N 0.41555 0.29081 0.8131 0.0
H4106 H 0.33008 0.40365 0.23022 0.0
H4107 H 0.27491 0.45128 0.22229 0.0
H4108 H 0.30467 0.40296 0.19954 0.0
H4109 H 0.30308 0.45418 0.25034 0.0
H4110 H 0.28512 0.43316 0.21423 0.0
H4111 H 0.31976 0.42169 0.2381 0.0
C4112 C 0.32239 0.40732 0.22507 0.0
C4113 C 0.31833 0.40175 0.21412 0.0
C4114 C 0.28906 0.43776 0.22216 0.0
C4115 C 0.30627 0.42242 0.22329 0.0
C4116 C 0.28327 0.44817 0.22674 0.0
C4117 C 0.28812 0.45433 0.23704 0.0
C4118 C 0.29979 0.43343 0.2279 0.0
C4119 C 0.29887 0.44968 0.2425 0.0
C4120 C 0.31643 0.41761 0.22964 0.0
C4121 C 0.30808 0.40682 0.20807 0.0
N4122 N 0.30432 0.43954 0.23788 0.0
N4123 N 0.30243 0.41686 0.21272 0.0
H4124 H 0.6108 0.32251 0.20427 0.0
H4125 H 0.57819 0.26813 0.24249 0.0
H4126 H 0.62846 0.28832 0.21321 0.0
H4127 H 0.5593 0.30065 0.23024 0.0
H4128 H 0.59702 0.27588 0.23282 0.0
H4129 H 0.59229 0.31528 0.21494 0.0
C4130 C 0.61083 0.31352 0.20856 0.0
C4131 C 0.62121 0.306 0.2078 0.0
C4132 C 0.58876 0.28134 0.23226 0.0
C4133 C 0.59997 0.29761 0.21997 0.0
C4134 C 0.57797 0.27688 0.23773 0.0
C4135 C 0.56708 0.2837 0.23715 0.0
C4136 C 0.58873 0.29273 0.22616 0.0
C4137 C 0.56747 0.29511 0.23105 0.0
C4138 C 0.60022 0.30936 0.21459 0.0
C4139 C 0.62063 0.29436 0.21341 0.0
N4140 N 0.57809 0.29924 0.22579 0.0
N4141 N 0.61021 0.29053 0.21924 0.0
H4142 H 0.39739 0.73521 0.19738 0.0
H4143 H 0.45335 0.72109 0.24345 0.0
H4144 H 0.4034 0.69965 0.21389 0.0
H4145 H 0.44943 0.75521 0.22359 0.0
H4146 H 0.43438 0.71345 0.23376 0.0
H4147 H 0.41584 0.74298 0.20778 0.0
C4148 C 0.40261 0.729 0.20314 0.0
C4149 C 0.39884 0.71671 0.20467 0.0
C4150 C 0.43767 0.72261 0.23153 0.0
C4151 C 0.41995 0.72565 0.2168 0.0
C4152 C 0.44846 0.72701 0.23712 0.0
C4153 C 0.45301 0.73881 0.23432 0.0
C4154 C 0.43133 0.73008 0.22311 0.0
C4155 C 0.44636 0.746 0.2259 0.0
C4156 C 0.41312 0.73348 0.20914 0.0
C4157 C 0.40586 0.70921 0.2125 0.0
N4158 N 0.43587 0.74153 0.22061 0.0
N4159 N 0.41608 0.71379 0.21824 0.0
loop_
_geom_bond_atom_site_label_1
_geom_bond_atom_site_label_2
_geom_bond_distance
_geom_bond_site_symmetry_2
_ccdc_geom_bond_type
C0 C1 1.264 . S
C0 C5 1.479 . S
C0 C10 1.465 . S
C1 C0 1.264 . S
C1 C3 1.339 . S
C1 H28 0.931 . S
C2 C3 1.395 . S
C2 C4 1.320 . S
C3 C1 1.339 . S
C3 C2 1.395 . S
C3 H29 0.929 . S
C4 C2 1.320 . S
C4 C5 1.405 . S
C4 H30 0.930 . S
C5 C0 1.479 . S
C5 C4 1.405 . S
C5 H31 0.931 . S
U6 O7 2.454 . S
U6 O8 2.458 . S
U6 C9 2.984 . S
U6 C10 2.847 . S
U6 C23 2.882 . S
U6 O24 2.441 . S
U6 O25 2.420 . S
U6 O26 2.455 . S
U6 O27 2.449 . S
O7 U6 2.454 . S
O7 C9 1.353 . S
O8 U6 2.458 . S
O8 C9 1.286 . S
C9 U6 2.984 . S
C9 O7 1.353 . S
C9 O8 1.286 . S
C9 C11 1.363 . S
C10 C0 1.465 . S
C10 U6 2.847 . S
C10 O24 1.249 . S
C10 O25 1.202 . S
C11 C9 1.363 . S
C11 C13 1.408 . S
C11 C16 1.342 . S
C12 C13 1.310 . S
C12 C15 1.461 . S
C12 H32 0.932 . S
C13 C11 1.408 . S
C13 C12 1.310 . S
C13 H33 0.930 . S
C14 C15 1.474 . S
C14 C16 1.285 . S
C14 H34 0.929 . S
C15 C12 1.461 . S
C15 C14 1.474 . S
C16 C11 1.342 . S
C16 C14 1.285 . S
C16 H35 0.930 . S
C17 C20 1.424 . S
C17 C22 1.245 . S
C17 C23 1.428 . S
C18 C21 1.260 . S
C18 C22 1.477 . S
C18 H36 0.932 . S
C19 C20 1.384 . S
C19 C21 1.479 . S
C19 H37 0.929 . S
C20 C17 1.424 . S
C20 C19 1.384 . S
C20 H38 0.928 . S
C21 C18 1.260 . S
C21 C19 1.479 . S
C22 C17 1.245 . S
C22 C18 1.477 . S
C22 H39 0.932 . S
C23 U6 2.882 . S
C23 C17 1.428 . S
C23 O26 1.301 . S
C23 O27 1.282 . S
O24 U6 2.441 . S
O24 C10 1.249 . S
O25 U6 2.420 . S
O25 C10 1.202 . S
O26 U6 2.455 . S
O26 C23 1.301 . S
O27 U6 2.449 . S
O27 C23 1.282 . S
H28 C1 0.931 . S
H29 C3 0.929 . S
H30 C4 0.930 . S
H31 C5 0.931 . S
H32 C12 0.932 . S
H33 C13 0.930 . S
H34 C14 0.929 . S
H35 C16 0.930 . S
H36 C18 0.932 . S
H37 C19 0.929 . S
H38 C20 0.928 . S
H39 C22 0.932 . S
C40 C41 1.264 . S
C40 C45 1.479 . S
C40 C50 1.465 . S
C41 C40 1.264 . S
C41 C43 1.339 . S
C41 H68 0.931 . S
C42 C43 1.395 . S
C42 C44 1.320 . S
C43 C41 1.339 . S
C43 C42 1.395 . S
C43 H69 0.929 . S
C44 C42 1.320 . S
C44 C45 1.405 . S
C44 H70 0.930 . S
C45 C40 1.479 . S
C45 C44 1.405 . S
C45 H71 0.931 . S
U46 O47 2.454 . S
U46 O48 2.458 . S
U46 C49 2.984 . S
U46 C50 2.847 . S
U46 C63 2.882 . S
U46 O64 2.441 . S
U46 O65 2.420 . S
U46 O66 2.455 . S
U46 O67 2.449 . S
O47 U46 2.454 . S
O47 C49 1.353 . S
O48 U46 2.458 . S
O48 C49 1.286 . S
C49 U46 2.984 . S
C49 O47 1.353 . S
C49 O48 1.286 . S
C49 C51 1.363 . S
C50 C40 1.465 . S
C50 U46 2.847 . S
C50 O64 1.249 . S
C50 O65 1.202 . S
C51 C49 1.363 . S
C51 C53 1.408 . S
C51 C56 1.342 . S
C52 C53 1.310 . S
C52 C55 1.461 . S
C52 H72 0.932 . S
C53 C51 1.408 . S
C53 C52 1.310 . S
C53 H73 0.930 . S
C54 C55 1.474 . S
C54 C56 1.285 . S
C54 H74 0.929 . S
C55 C52 1.461 . S
C55 C54 1.474 . S
C56 C51 1.342 . S
C56 C54 1.285 . S
C56 H75 0.930 . S
C57 C60 1.424 . S
C57 C62 1.245 . S
C57 C63 1.428 . S
C58 C61 1.260 . S
C58 C62 1.477 . S
C58 H76 0.932 . S
C59 C60 1.384 . S
C59 C61 1.479 . S
C59 H77 0.929 . S
C60 C57 1.424 . S
C60 C59 1.384 . S
C60 H78 0.928 . S
C61 C58 1.260 . S
C61 C59 1.479 . S
C62 C57 1.245 . S
C62 C58 1.477 . S
C62 H79 0.932 . S
C63 U46 2.882 . S
C63 C57 1.428 . S
C63 O66 1.301 . S
C63 O67 1.282 . S
O64 U46 2.441 . S
O64 C50 1.249 . S
O65 U46 2.420 . S
O65 C50 1.202 . S
O66 U46 2.455 . S
O66 C63 1.301 . S
O67 U46 2.449 . S
O67 C63 1.282 . S
H68 C41 0.931 . S
H69 C43 0.929 . S
H70 C44 0.930 . S
H71 C45 0.931 . S
H72 C52 0.932 . S
H73 C53 0.930 . S
H74 C54 0.929 . S
H75 C56 0.930 . S
H76 C58 0.932 . S
H77 C59 0.929 . S
H78 C60 0.928 . S
H79 C62 0.932 . S
C80 C81 1.264 . S
C80 C85 1.479 . S
C80 C90 1.465 . S
C81 C80 1.264 . S
C81 C83 1.339 . S
C81 H108 0.931 . S
C82 C83 1.395 . S
C82 C84 1.320 . S
C83 C81 1.339 . S
C83 C82 1.395 . S
C83 H109 0.929 . S
C84 C82 1.320 . S
C84 C85 1.405 . S
C84 H110 0.930 . S
C85 C80 1.479 . S
C85 C84 1.405 . S
C85 H111 0.931 . S
U86 O87 2.454 . S
U86 O88 2.458 . S
U86 C89 2.984 . S
U86 C90 2.847 . S
U86 C103 2.882 . S
U86 O104 2.441 . S
U86 O105 2.420 . S
U86 O106 2.455 . S
U86 O107 2.449 . S
O87 U86 2.454 . S
O87 C89 1.353 . S
O88 U86 2.458 . S
O88 C89 1.286 . S
C89 U86 2.984 . S
C89 O87 1.353 . S
C89 O88 1.286 . S
C89 C91 1.363 . S
C90 C80 1.465 . S
C90 U86 2.847 . S
C90 O104 1.249 . S
C90 O105 1.202 . S
C91 C89 1.363 . S
C91 C93 1.408 . S
C91 C96 1.342 . S
C92 C93 1.310 . S
C92 C95 1.461 . S
C92 H112 0.932 . S
C93 C91 1.408 . S
C93 C92 1.310 . S
C93 H113 0.930 . S
C94 C95 1.474 . S
C94 C96 1.285 . S
C94 H114 0.929 . S
C95 C92 1.461 . S
C95 C94 1.474 . S
C96 C91 1.342 . S
C96 C94 1.285 . S
C96 H115 0.930 . S
C97 C100 1.424 . S
C97 C102 1.245 . S
C97 C103 1.428 . S
C98 C101 1.260 . S
C98 C102 1.477 . S
C98 H116 0.932 . S
C99 C100 1.384 . S
C99 C101 1.479 . S
C99 H117 0.929 . S
C100 C97 1.424 . S
C100 C99 1.384 . S
C100 H118 0.928 . S
C101 C98 1.260 . S
C101 C99 1.479 . S
C102 C97 1.245 . S
C102 C98 1.477 . S
C102 H119 0.932 . S
C103 U86 2.882 . S
C103 C97 1.428 . S
C103 O106 1.301 . S
C103 O107 1.282 . S
O104 U86 2.441 . S
O104 C90 1.249 . S
O105 U86 2.420 . S
O105 C90 1.202 . S
O106 U86 2.455 . S
O106 C103 1.301 . S
O107 U86 2.449 . S
O107 C103 1.282 . S
H108 C81 0.931 . S
H109 C83 0.929 . S
H110 C84 0.930 . S
H111 C85 0.931 . S
H112 C92 0.932 . S
H113 C93 0.930 . S
H114 C94 0.929 . S
H115 C96 0.930 . S
H116 C98 0.932 . S
H117 C99 0.929 . S
H118 C100 0.928 . S
H119 C102 0.932 . S
C120 C121 1.264 . S
C120 C125 1.479 . S
C120 C130 1.465 . S
C121 C120 1.264 . S
C121 C123 1.339 . S
C121 H148 0.931 . S
C122 C123 1.395 . S
C122 C124 1.320 . S
C123 C121 1.339 . S
C123 C122 1.395 . S
C123 H149 0.929 . S
C124 C122 1.320 . S
C124 C125 1.405 . S
C124 H150 0.930 . S
C125 C120 1.479 . S
C125 C124 1.405 . S
C125 H151 0.931 . S
U126 O127 2.454 . S
U126 O128 2.458 . S
U126 C129 2.984 . S
U126 C130 2.847 . S
U126 C143 2.882 . S
U126 O144 2.441 . S
U126 O145 2.420 . S
U126 O146 2.455 . S
U126 O147 2.449 . S
O127 U126 2.454 . S
O127 C129 1.353 . S
O128 U126 2.458 . S
O128 C129 1.286 . S
C129 U126 2.984 . S
C129 O127 1.353 . S
C129 O128 1.286 . S
C129 C131 1.363 . S
C130 C120 1.465 . S
C130 U126 2.847 . S
C130 O144 1.249 . S
C130 O145 1.202 . S
C131 C129 1.363 . S
C131 C133 1.408 . S
C131 C136 1.342 . S
C132 C133 1.310 . S
C132 C135 1.461 . S
C132 H152 0.932 . S
C133 C131 1.408 . S
C133 C132 1.310 . S
C133 H153 0.930 . S
C134 C135 1.474 . S
C134 C136 1.285 . S
C134 H154 0.929 . S
C135 C132 1.461 . S
C135 C134 1.474 . S
C136 C131 1.342 . S
C136 C134 1.285 . S
C136 H155 0.930 . S
C137 C140 1.424 . S
C137 C142 1.245 . S
C137 C143 1.428 . S
C138 C141 1.260 . S
C138 C142 1.477 . S
C138 H156 0.932 . S
C139 C140 1.384 . S
C139 C141 1.479 . S
C139 H157 0.929 . S
C140 C137 1.424 . S
C140 C139 1.384 . S
C140 H158 0.928 . S
C141 C138 1.260 . S
C141 C139 1.479 . S
C142 C137 1.245 . S
C142 C138 1.477 . S
C142 H159 0.932 . S
C143 U126 2.882 . S
C143 C137 1.428 . S
C143 O146 1.301 . S
C143 O147 1.282 . S
O144 U126 2.441 . S
O144 C130 1.249 . S
O145 U126 2.420 . S
O145 C130 1.202 . S
O146 U126 2.455 . S
O146 C143 1.301 . S
O147 U126 2.449 . S
O147 C143 1.282 . S
H148 C121 0.931 . S
H149 C123 0.929 . S
H150 C124 0.930 . S
H151 C125 0.931 . S
H152 C132 0.932 . S
H153 C133 0.930 . S
H154 C134 0.929 . S
H155 C136 0.930 . S
H156 C138 0.932 . S
H157 C139 0.929 . S
H158 C140 0.928 . S
H159 C142 0.932 . S
C160 C161 1.264 . S
C160 C165 1.479 . S
C160 C170 1.465 . S
C161 C160 1.264 . S
C161 C163 1.339 . S
C161 H188 0.931 . S
C162 C163 1.395 . S
C162 C164 1.320 . S
C163 C161 1.339 . S
C163 C162 1.395 . S
C163 H189 0.929 . S
C164 C162 1.320 . S
C164 C165 1.405 . S
C164 H190 0.930 . S
C165 C160 1.479 . S
C165 C164 1.405 . S
C165 H191 0.931 . S
U166 O167 2.454 . S
U166 O168 2.458 . S
U166 C169 2.984 . S
U166 C170 2.847 . S
U166 C183 2.882 . S
U166 O184 2.441 . S
U166 O185 2.420 . S
U166 O186 2.455 . S
U166 O187 2.449 . S
O167 U166 2.454 . S
O167 C169 1.353 . S
O168 U166 2.458 . S
O168 C169 1.286 . S
C169 U166 2.984 . S
C169 O167 1.353 . S
C169 O168 1.286 . S
C169 C171 1.363 . S
C170 C160 1.465 . S
C170 U166 2.847 . S
C170 O184 1.249 . S
C170 O185 1.202 . S
C171 C169 1.363 . S
C171 C173 1.408 . S
C171 C176 1.342 . S
C172 C173 1.310 . S
C172 C175 1.461 . S
C172 H192 0.932 . S
C173 C171 1.408 . S
C173 C172 1.310 . S
C173 H193 0.930 . S
C174 C175 1.474 . S
C174 C176 1.285 . S
C174 H194 0.929 . S
C175 C172 1.461 . S
C175 C174 1.474 . S
C176 C171 1.342 . S
C176 C174 1.285 . S
C176 H195 0.930 . S
C177 C180 1.424 . S
C177 C182 1.245 . S
C177 C183 1.428 . S
C178 C181 1.260 . S
C178 C182 1.477 . S
C178 H196 0.932 . S
C179 C180 1.384 . S
C179 C181 1.479 . S
C179 H197 0.929 . S
C180 C177 1.424 . S
C180 C179 1.384 . S
C180 H198 0.928 . S
C181 C178 1.260 . S
C181 C179 1.479 . S
C182 C177 1.245 . S
C182 C178 1.477 . S
C182 H199 0.932 . S
C183 U166 2.882 . S
C183 C177 1.428 . S
C183 O186 1.301 . S
C183 O187 1.282 . S
O184 U166 2.441 . S
O184 C170 1.249 . S
O185 U166 2.420 . S
O185 C170 1.202 . S
O186 U166 2.455 . S
O186 C183 1.301 . S
O187 U166 2.449 . S
O187 C183 1.282 . S
H188 C161 0.931 . S
H189 C163 0.929 . S
H190 C164 0.930 . S
H191 C165 0.931 . S
H192 C172 0.932 . S
H193 C173 0.930 . S
H194 C174 0.929 . S
H195 C176 0.930 . S
H196 C178 0.932 . S
H197 C179 0.929 . S
H198 C180 0.928 . S
H199 C182 0.932 . S
C200 C201 1.264 . S
C200 C205 1.479 . S
C200 C210 1.465 . S
C201 C200 1.264 . S
C201 C203 1.339 . S
C201 H228 0.931 . S
C202 C203 1.395 . S
C202 C204 1.320 . S
C203 C201 1.339 . S
C203 C202 1.395 . S
C203 H229 0.929 . S
C204 C202 1.320 . S
C204 C205 1.405 . S
C204 H230 0.930 . S
C205 C200 1.479 . S
C205 C204 1.405 . S
C205 H231 0.931 . S
U206 O207 2.454 . S
U206 O208 2.458 . S
U206 C209 2.984 . S
U206 C210 2.847 . S
U206 C223 2.882 . S
U206 O224 2.441 . S
U206 O225 2.420 . S
U206 O226 2.455 . S
U206 O227 2.449 . S
O207 U206 2.454 . S
O207 C209 1.353 . S
O208 U206 2.458 . S
O208 C209 1.286 . S
C209 U206 2.984 . S
C209 O207 1.353 . S
C209 O208 1.286 . S
C209 C211 1.363 . S
C210 C200 1.465 . S
C210 U206 2.847 . S
C210 O224 1.249 . S
C210 O225 1.202 . S
C211 C209 1.363 . S
C211 C213 1.408 . S
C211 C216 1.342 . S
C212 C213 1.310 . S
C212 C215 1.461 . S
C212 H232 0.932 . S
C213 C211 1.408 . S
C213 C212 1.310 . S
C213 H233 0.930 . S
C214 C215 1.474 . S
C214 C216 1.285 . S
C214 H234 0.929 . S
C215 C212 1.461 . S
C215 C214 1.474 . S
C216 C211 1.342 . S
C216 C214 1.285 . S
C216 H235 0.930 . S
C217 C220 1.424 . S
C217 C222 1.245 . S
C217 C223 1.428 . S
C218 C221 1.260 . S
C218 C222 1.477 . S
C218 H236 0.932 . S
C219 C220 1.384 . S
C219 C221 1.479 . S
C219 H237 0.929 . S
C220 C217 1.424 . S
C220 C219 1.384 . S
C220 H238 0.928 . S
C221 C218 1.260 . S
C221 C219 1.479 . S
C222 C217 1.245 . S
C222 C218 1.477 . S
C222 H239 0.932 . S
C223 U206 2.882 . S
C223 C217 1.428 . S
C223 O226 1.301 . S
C223 O227 1.282 . S
O224 U206 2.441 . S
O224 C210 1.249 . S
O225 U206 2.420 . S
O225 C210 1.202 . S
O226 U206 2.455 . S
O226 C223 1.301 . S
O227 U206 2.449 . S
O227 C223 1.282 . S
H228 C201 0.931 . S
H229 C203 0.929 . S
H230 C204 0.930 . S
H231 C205 0.931 . S
H232 C212 0.932 . S
H233 C213 0.930 . S
H234 C214 0.929 . S
H235 C216 0.930 . S
H236 C218 0.932 . S
H237 C219 0.929 . S
H238 C220 0.928 . S
H239 C222 0.932 . S
C240 C241 1.264 . S
C240 C245 1.479 . S
C240 C250 1.465 . S
C241 C240 1.264 . S
C241 C243 1.339 . S
C241 H268 0.931 . S
C242 C243 1.395 . S
C242 C244 1.320 . S
C243 C241 1.339 . S
C243 C242 1.395 . S
C243 H269 0.929 . S
C244 C242 1.320 . S
C244 C245 1.405 . S
C244 H270 0.930 . S
C245 C240 1.479 . S
C245 C244 1.405 . S
C245 H271 0.931 . S
U246 O247 2.454 . S
U246 O248 2.458 . S
U246 C249 2.984 . S
U246 C250 2.847 . S
U246 C263 2.882 . S
U246 O264 2.441 . S
U246 O265 2.420 . S
U246 O266 2.455 . S
U246 O267 2.449 . S
O247 U246 2.454 . S
O247 C249 1.353 . S
O248 U246 2.458 . S
O248 C249 1.286 . S
C249 U246 2.984 . S
C249 O247 1.353 . S
C249 O248 1.286 . S
C249 C251 1.363 . S
C250 C240 1.465 . S
C250 U246 2.847 . S
C250 O264 1.249 . S
C250 O265 1.202 . S
C251 C249 1.363 . S
C251 C253 1.408 . S
C251 C256 1.342 . S
C252 C253 1.310 . S
C252 C255 1.461 . S
C252 H272 0.932 . S
C253 C251 1.408 . S
C253 C252 1.310 . S
C253 H273 0.930 . S
C254 C255 1.474 . S
C254 C256 1.285 . S
C254 H274 0.929 . S
C255 C252 1.461 . S
C255 C254 1.474 . S
C256 C251 1.342 . S
C256 C254 1.285 . S
C256 H275 0.930 . S
C257 C260 1.424 . S
C257 C262 1.245 . S
C257 C263 1.428 . S
C258 C261 1.260 . S
C258 C262 1.477 . S
C258 H276 0.932 . S
C259 C260 1.384 . S
C259 C261 1.479 . S
C259 H277 0.929 . S
C260 C257 1.424 . S
C260 C259 1.384 . S
C260 H278 0.928 . S
C261 C258 1.260 . S
C261 C259 1.479 . S
C262 C257 1.245 . S
C262 C258 1.477 . S
C262 H279 0.932 . S
C263 U246 2.882 . S
C263 C257 1.428 . S
C263 O266 1.301 . S
C263 O267 1.282 . S
O264 U246 2.441 . S
O264 C250 1.249 . S
O265 U246 2.420 . S
O265 C250 1.202 . S
O266 U246 2.455 . S
O266 C263 1.301 . S
O267 U246 2.449 . S
O267 C263 1.282 . S
H268 C241 0.931 . S
H269 C243 0.929 . S
H270 C244 0.930 . S
H271 C245 0.931 . S
H272 C252 0.932 . S
H273 C253 0.930 . S
H274 C254 0.929 . S
H275 C256 0.930 . S
H276 C258 0.932 . S
H277 C259 0.929 . S
H278 C260 0.928 . S
H279 C262 0.932 . S
C280 C281 1.264 . S
C280 C285 1.479 . S
C280 C290 1.465 . S
C281 C280 1.264 . S
C281 C283 1.339 . S
C281 H308 0.931 . S
C282 C283 1.395 . S
C282 C284 1.320 . S
C283 C281 1.339 . S
C283 C282 1.395 . S
C283 H309 0.929 . S
C284 C282 1.320 . S
C284 C285 1.405 . S
C284 H310 0.930 . S
C285 C280 1.479 . S
C285 C284 1.405 . S
C285 H311 0.931 . S
U286 O287 2.454 . S
U286 O288 2.458 . S
U286 C289 2.984 . S
U286 C290 2.847 . S
U286 C303 2.882 . S
U286 O304 2.441 . S
U286 O305 2.420 . S
U286 O306 2.455 . S
U286 O307 2.449 . S
O287 U286 2.454 . S
O287 C289 1.353 . S
O288 U286 2.458 . S
O288 C289 1.286 . S
C289 U286 2.984 . S
C289 O287 1.353 . S
C289 O288 1.286 . S
C289 C291 1.363 . S
C290 C280 1.465 . S
C290 U286 2.847 . S
C290 O304 1.249 . S
C290 O305 1.202 . S
C291 C289 1.363 . S
C291 C293 1.408 . S
C291 C296 1.342 . S
C292 C293 1.310 . S
C292 C295 1.461 . S
C292 H312 0.932 . S
C293 C291 1.408 . S
C293 C292 1.310 . S
C293 H313 0.930 . S
C294 C295 1.474 . S
C294 C296 1.285 . S
C294 H314 0.929 . S
C295 C292 1.461 . S
C295 C294 1.474 . S
C296 C291 1.342 . S
C296 C294 1.285 . S
C296 H315 0.930 . S
C297 C300 1.424 . S
C297 C302 1.245 . S
C297 C303 1.428 . S
C298 C301 1.260 . S
C298 C302 1.477 . S
C298 H316 0.932 . S
C299 C300 1.384 . S
C299 C301 1.479 . S
C299 H317 0.929 . S
C300 C297 1.424 . S
C300 C299 1.384 . S
C300 H318 0.928 . S
C301 C298 1.260 . S
C301 C299 1.479 . S
C302 C297 1.245 . S
C302 C298 1.477 . S
C302 H319 0.932 . S
C303 U286 2.882 . S
C303 C297 1.428 . S
C303 O306 1.301 . S
C303 O307 1.282 . S
O304 U286 2.441 . S
O304 C290 1.249 . S
O305 U286 2.420 . S
O305 C290 1.202 . S
O306 U286 2.455 . S
O306 C303 1.301 . S
O307 U286 2.449 . S
O307 C303 1.282 . S
H308 C281 0.931 . S
H309 C283 0.929 . S
H310 C284 0.930 . S
H311 C285 0.931 . S
H312 C292 0.932 . S
H313 C293 0.930 . S
H314 C294 0.929 . S
H315 C296 0.930 . S
H316 C298 0.932 . S
H317 C299 0.929 . S
H318 C300 0.928 . S
H319 C302 0.932 . S
C320 C321 1.264 . S
C320 C325 1.479 . S
C320 C330 1.465 . S
C321 C320 1.264 . S
C321 C323 1.339 . S
C321 H348 0.931 . S
C322 C323 1.395 . S
C322 C324 1.320 . S
C323 C321 1.339 . S
C323 C322 1.395 . S
C323 H349 0.929 . S
C324 C322 1.320 . S
C324 C325 1.405 . S
C324 H350 0.930 . S
C325 C320 1.479 . S
C325 C324 1.405 . S
C325 H351 0.931 . S
U326 O327 2.454 . S
U326 O328 2.458 . S
U326 C329 2.984 . S
U326 C330 2.847 . S
U326 C343 2.882 . S
U326 O344 2.441 . S
U326 O345 2.420 . S
U326 O346 2.455 . S
U326 O347 2.449 . S
O327 U326 2.454 . S
O327 C329 1.353 . S
O328 U326 2.458 . S
O328 C329 1.286 . S
C329 U326 2.984 . S
C329 O327 1.353 . S
C329 O328 1.286 . S
C329 C331 1.363 . S
C330 C320 1.465 . S
C330 U326 2.847 . S
C330 O344 1.249 . S
C330 O345 1.202 . S
C331 C329 1.363 . S
C331 C333 1.408 . S
C331 C336 1.342 . S
C332 C333 1.310 . S
C332 C335 1.461 . S
C332 H352 0.932 . S
C333 C331 1.408 . S
C333 C332 1.310 . S
C333 H353 0.930 . S
C334 C335 1.474 . S
C334 C336 1.285 . S
C334 H354 0.929 . S
C335 C332 1.461 . S
C335 C334 1.474 . S
C336 C331 1.342 . S
C336 C334 1.285 . S
C336 H355 0.930 . S
C337 C340 1.424 . S
C337 C342 1.245 . S
C337 C343 1.428 . S
C338 C341 1.260 . S
C338 C342 1.477 . S
C338 H356 0.932 . S
C339 C340 1.384 . S
C339 C341 1.479 . S
C339 H357 0.929 . S
C340 C337 1.424 . S
C340 C339 1.384 . S
C340 H358 0.928 . S
C341 C338 1.260 . S
C341 C339 1.479 . S
C342 C337 1.245 . S
C342 C338 1.477 . S
C342 H359 0.932 . S
C343 U326 2.882 . S
C343 C337 1.428 . S
C343 O346 1.301 . S
C343 O347 1.282 . S
O344 U326 2.441 . S
O344 C330 1.249 . S
O345 U326 2.420 . S
O345 C330 1.202 . S
O346 U326 2.455 . S
O346 C343 1.301 . S
O347 U326 2.449 . S
O347 C343 1.282 . S
H348 C321 0.931 . S
H349 C323 0.929 . S
H350 C324 0.930 . S
H351 C325 0.931 . S
H352 C332 0.932 . S
H353 C333 0.930 . S
H354 C334 0.929 . S
H355 C336 0.930 . S
H356 C338 0.932 . S
H357 C339 0.929 . S
H358 C340 0.928 . S
H359 C342 0.932 . S
C360 C361 1.264 . S
C360 C365 1.479 . S
C360 C370 1.465 . S
C361 C360 1.264 . S
C361 C363 1.339 . S
C361 H388 0.931 . S
C362 C363 1.395 . S
C362 C364 1.320 . S
C363 C361 1.339 . S
C363 C362 1.395 . S
C363 H389 0.929 . S
C364 C362 1.320 . S
C364 C365 1.405 . S
C364 H390 0.930 . S
C365 C360 1.479 . S
C365 C364 1.405 . S
C365 H391 0.931 . S
U366 O367 2.454 . S
U366 O368 2.458 . S
U366 C369 2.984 . S
U366 C370 2.847 . S
U366 C383 2.882 . S
U366 O384 2.441 . S
U366 O385 2.420 . S
U366 O386 2.455 . S
U366 O387 2.449 . S
O367 U366 2.454 . S
O367 C369 1.353 . S
O368 U366 2.458 . S
O368 C369 1.286 . S
C369 U366 2.984 . S
C369 O367 1.353 . S
C369 O368 1.286 . S
C369 C371 1.363 . S
C370 C360 1.465 . S
C370 U366 2.847 . S
C370 O384 1.249 . S
C370 O385 1.202 . S
C371 C369 1.363 . S
C371 C373 1.408 . S
C371 C376 1.342 . S
C372 C373 1.310 . S
C372 C375 1.461 . S
C372 H392 0.932 . S
C373 C371 1.408 . S
C373 C372 1.310 . S
C373 H393 0.930 . S
C374 C375 1.474 . S
C374 C376 1.285 . S
C374 H394 0.929 . S
C375 C372 1.461 . S
C375 C374 1.474 . S
C376 C371 1.342 . S
C376 C374 1.285 . S
C376 H395 0.930 . S
C377 C380 1.424 . S
C377 C382 1.245 . S
C377 C383 1.428 . S
C378 C381 1.260 . S
C378 C382 1.477 . S
C378 H396 0.932 . S
C379 C380 1.384 . S
C379 C381 1.479 . S
C379 H397 0.929 . S
C380 C377 1.424 . S
C380 C379 1.384 . S
C380 H398 0.928 . S
C381 C378 1.260 . S
C381 C379 1.479 . S
C382 C377 1.245 . S
C382 C378 1.477 . S
C382 H399 0.932 . S
C383 U366 2.882 . S
C383 C377 1.428 . S
C383 O386 1.301 . S
C383 O387 1.282 . S
O384 U366 2.441 . S
O384 C370 1.249 . S
O385 U366 2.420 . S
O385 C370 1.202 . S
O386 U366 2.455 . S
O386 C383 1.301 . S
O387 U366 2.449 . S
O387 C383 1.282 . S
H388 C361 0.931 . S
H389 C363 0.929 . S
H390 C364 0.930 . S
H391 C365 0.931 . S
H392 C372 0.932 . S
H393 C373 0.930 . S
H394 C374 0.929 . S
H395 C376 0.930 . S
H396 C378 0.932 . S
H397 C379 0.929 . S
H398 C380 0.928 . S
H399 C382 0.932 . S
C400 C401 1.264 . S
C400 C405 1.479 . S
C400 C410 1.465 . S
C401 C400 1.264 . S
C401 C403 1.339 . S
C401 H428 0.931 . S
C402 C403 1.395 . S
C402 C404 1.320 . S
C403 C401 1.339 . S
C403 C402 1.395 . S
C403 H429 0.929 . S
C404 C402 1.320 . S
C404 C405 1.405 . S
C404 H430 0.930 . S
C405 C400 1.479 . S
C405 C404 1.405 . S
C405 H431 0.931 . S
U406 O407 2.454 . S
U406 O408 2.458 . S
U406 C409 2.984 . S
U406 C410 2.847 . S
U406 C423 2.882 . S
U406 O424 2.441 . S
U406 O425 2.420 . S
U406 O426 2.455 . S
U406 O427 2.449 . S
O407 U406 2.454 . S
O407 C409 1.353 . S
O408 U406 2.458 . S
O408 C409 1.286 . S
C409 U406 2.984 . S
C409 O407 1.353 . S
C409 O408 1.286 . S
C409 C411 1.363 . S
C410 C400 1.465 . S
C410 U406 2.847 . S
C410 O424 1.249 . S
C410 O425 1.202 . S
C411 C409 1.363 . S
C411 C413 1.408 . S
C411 C416 1.342 . S
C412 C413 1.310 . S
C412 C415 1.461 . S
C412 H432 0.932 . S
C413 C411 1.408 . S
C413 C412 1.310 . S
C413 H433 0.930 . S
C414 C415 1.474 . S
C414 C416 1.285 . S
C414 H434 0.929 . S
C415 C412 1.461 . S
C415 C414 1.474 . S
C416 C411 1.342 . S
C416 C414 1.285 . S
C416 H435 0.930 . S
C417 C420 1.424 . S
C417 C422 1.245 . S
C417 C423 1.428 . S
C418 C421 1.260 . S
C418 C422 1.477 . S
C418 H436 0.932 . S
C419 C420 1.384 . S
C419 C421 1.479 . S
C419 H437 0.929 . S
C420 C417 1.424 . S
C420 C419 1.384 . S
C420 H438 0.928 . S
C421 C418 1.260 . S
C421 C419 1.479 . S
C422 C417 1.245 . S
C422 C418 1.477 . S
C422 H439 0.932 . S
C423 U406 2.882 . S
C423 C417 1.428 . S
C423 O426 1.301 . S
C423 O427 1.282 . S
O424 U406 2.441 . S
O424 C410 1.249 . S
O425 U406 2.420 . S
O425 C410 1.202 . S
O426 U406 2.455 . S
O426 C423 1.301 . S
O427 U406 2.449 . S
O427 C423 1.282 . S
H428 C401 0.931 . S
H429 C403 0.929 . S
H430 C404 0.930 . S
H431 C405 0.931 . S
H432 C412 0.932 . S
H433 C413 0.930 . S
H434 C414 0.929 . S
H435 C416 0.930 . S
H436 C418 0.932 . S
H437 C419 0.929 . S
H438 C420 0.928 . S
H439 C422 0.932 . S
C440 C441 1.264 . S
C440 C445 1.479 . S
C440 C450 1.465 . S
C441 C440 1.264 . S
C441 C443 1.339 . S
C441 H468 0.931 . S
C442 C443 1.395 . S
C442 C444 1.320 . S
C443 C441 1.339 . S
C443 C442 1.395 . S
C443 H469 0.929 . S
C444 C442 1.320 . S
C444 C445 1.405 . S
C444 H470 0.930 . S
C445 C440 1.479 . S
C445 C444 1.405 . S
C445 H471 0.931 . S
U446 O447 2.454 . S
U446 O448 2.458 . S
U446 C449 2.984 . S
U446 C450 2.847 . S
U446 C463 2.882 . S
U446 O464 2.441 . S
U446 O465 2.420 . S
U446 O466 2.455 . S
U446 O467 2.449 . S
O447 U446 2.454 . S
O447 C449 1.353 . S
O448 U446 2.458 . S
O448 C449 1.286 . S
C449 U446 2.984 . S
C449 O447 1.353 . S
C449 O448 1.286 . S
C449 C451 1.363 . S
C450 C440 1.465 . S
C450 U446 2.847 . S
C450 O464 1.249 . S
C450 O465 1.202 . S
C451 C449 1.363 . S
C451 C453 1.408 . S
C451 C456 1.342 . S
C452 C453 1.310 . S
C452 C455 1.461 . S
C452 H472 0.932 . S
C453 C451 1.408 . S
C453 C452 1.310 . S
C453 H473 0.930 . S
C454 C455 1.474 . S
C454 C456 1.285 . S
C454 H474 0.929 . S
C455 C452 1.461 . S
C455 C454 1.474 . S
C456 C451 1.342 . S
C456 C454 1.285 . S
C456 H475 0.930 . S
C457 C460 1.424 . S
C457 C462 1.245 . S
C457 C463 1.428 . S
C458 C461 1.260 . S
C458 C462 1.477 . S
C458 H476 0.932 . S
C459 C460 1.384 . S
C459 C461 1.479 . S
C459 H477 0.929 . S
C460 C457 1.424 . S
C460 C459 1.384 . S
C460 H478 0.928 . S
C461 C458 1.260 . S
C461 C459 1.479 . S
C462 C457 1.245 . S
C462 C458 1.477 . S
C462 H479 0.932 . S
C463 U446 2.882 . S
C463 C457 1.428 . S
C463 O466 1.301 . S
C463 O467 1.282 . S
O464 U446 2.441 . S
O464 C450 1.249 . S
O465 U446 2.420 . S
O465 C450 1.202 . S
O466 U446 2.455 . S
O466 C463 1.301 . S
O467 U446 2.449 . S
O467 C463 1.282 . S
H468 C441 0.931 . S
H469 C443 0.929 . S
H470 C444 0.930 . S
H471 C445 0.931 . S
H472 C452 0.932 . S
H473 C453 0.930 . S
H474 C454 0.929 . S
H475 C456 0.930 . S
H476 C458 0.932 . S
H477 C459 0.929 . S
H478 C460 0.928 . S
H479 C462 0.932 . S
C480 C481 1.264 . S
C480 C485 1.479 . S
C480 C490 1.465 . S
C481 C480 1.264 . S
C481 C483 1.339 . S
C481 H508 0.931 . S
C482 C483 1.395 . S
C482 C484 1.320 . S
C483 C481 1.339 . S
C483 C482 1.395 . S
C483 H509 0.929 . S
C484 C482 1.320 . S
C484 C485 1.405 . S
C484 H510 0.930 . S
C485 C480 1.479 . S
C485 C484 1.405 . S
C485 H511 0.931 . S
U486 O487 2.454 . S
U486 O488 2.458 . S
U486 C489 2.984 . S
U486 C490 2.847 . S
U486 C503 2.882 . S
U486 O504 2.441 . S
U486 O505 2.420 . S
U486 O506 2.455 . S
U486 O507 2.449 . S
O487 U486 2.454 . S
O487 C489 1.353 . S
O488 U486 2.458 . S
O488 C489 1.286 . S
C489 U486 2.984 . S
C489 O487 1.353 . S
C489 O488 1.286 . S
C489 C491 1.363 . S
C490 C480 1.465 . S
C490 U486 2.847 . S
C490 O504 1.249 . S
C490 O505 1.202 . S
C491 C489 1.363 . S
C491 C493 1.408 . S
C491 C496 1.342 . S
C492 C493 1.310 . S
C492 C495 1.461 . S
C492 H512 0.932 . S
C493 C491 1.408 . S
C493 C492 1.310 . S
C493 H513 0.930 . S
C494 C495 1.474 . S
C494 C496 1.285 . S
C494 H514 0.929 . S
C495 C492 1.461 . S
C495 C494 1.474 . S
C496 C491 1.342 . S
C496 C494 1.285 . S
C496 H515 0.930 . S
C497 C500 1.424 . S
C497 C502 1.245 . S
C497 C503 1.428 . S
C498 C501 1.260 . S
C498 C502 1.477 . S
C498 H516 0.932 . S
C499 C500 1.384 . S
C499 C501 1.479 . S
C499 H517 0.929 . S
C500 C497 1.424 . S
C500 C499 1.384 . S
C500 H518 0.928 . S
C501 C498 1.260 . S
C501 C499 1.479 . S
C502 C497 1.245 . S
C502 C498 1.477 . S
C502 H519 0.932 . S
C503 U486 2.882 . S
C503 C497 1.428 . S
C503 O506 1.301 . S
C503 O507 1.282 . S
O504 U486 2.441 . S
O504 C490 1.249 . S
O505 U486 2.420 . S
O505 C490 1.202 . S
O506 U486 2.455 . S
O506 C503 1.301 . S
O507 U486 2.449 . S
O507 C503 1.282 . S
H508 C481 0.931 . S
H509 C483 0.929 . S
H510 C484 0.930 . S
H511 C485 0.931 . S
H512 C492 0.932 . S
H513 C493 0.930 . S
H514 C494 0.929 . S
H515 C496 0.930 . S
H516 C498 0.932 . S
H517 C499 0.929 . S
H518 C500 0.928 . S
H519 C502 0.932 . S
C520 C521 1.264 . S
C520 C525 1.479 . S
C520 C530 1.465 . S
C521 C520 1.264 . S
C521 C523 1.339 . S
C521 H548 0.931 . S
C522 C523 1.395 . S
C522 C524 1.320 . S
C523 C521 1.339 . S
C523 C522 1.395 . S
C523 H549 0.929 . S
C524 C522 1.320 . S
C524 C525 1.405 . S
C524 H550 0.930 . S
C525 C520 1.479 . S
C525 C524 1.405 . S
C525 H551 0.931 . S
U526 O527 2.454 . S
U526 O528 2.458 . S
U526 C529 2.984 . S
U526 C530 2.847 . S
U526 C543 2.882 . S
U526 O544 2.441 . S
U526 O545 2.420 . S
U526 O546 2.455 . S
U526 O547 2.449 . S
O527 U526 2.454 . S
O527 C529 1.353 . S
O528 U526 2.458 . S
O528 C529 1.286 . S
C529 U526 2.984 . S
C529 O527 1.353 . S
C529 O528 1.286 . S
C529 C531 1.363 . S
C530 C520 1.465 . S
C530 U526 2.847 . S
C530 O544 1.249 . S
C530 O545 1.202 . S
C531 C529 1.363 . S
C531 C533 1.408 . S
C531 C536 1.342 . S
C532 C533 1.310 . S
C532 C535 1.461 . S
C532 H552 0.932 . S
C533 C531 1.408 . S
C533 C532 1.310 . S
C533 H553 0.930 . S
C534 C535 1.474 . S
C534 C536 1.285 . S
C534 H554 0.929 . S
C535 C532 1.461 . S
C535 C534 1.474 . S
C536 C531 1.342 . S
C536 C534 1.285 . S
C536 H555 0.930 . S
C537 C540 1.424 . S
C537 C542 1.245 . S
C537 C543 1.428 . S
C538 C541 1.260 . S
C538 C542 1.477 . S
C538 H556 0.932 . S
C539 C540 1.384 . S
C539 C541 1.479 . S
C539 H557 0.929 . S
C540 C537 1.424 . S
C540 C539 1.384 . S
C540 H558 0.928 . S
C541 C538 1.260 . S
C541 C539 1.479 . S
C542 C537 1.245 . S
C542 C538 1.477 . S
C542 H559 0.932 . S
C543 U526 2.882 . S
C543 C537 1.428 . S
C543 O546 1.301 . S
C543 O547 1.282 . S
O544 U526 2.441 . S
O544 C530 1.249 . S
O545 U526 2.420 . S
O545 C530 1.202 . S
O546 U526 2.455 . S
O546 C543 1.301 . S
O547 U526 2.449 . S
O547 C543 1.282 . S
H548 C521 0.931 . S
H549 C523 0.929 . S
H550 C524 0.930 . S
H551 C525 0.931 . S
H552 C532 0.932 . S
H553 C533 0.930 . S
H554 C534 0.929 . S
H555 C536 0.930 . S
H556 C538 0.932 . S
H557 C539 0.929 . S
H558 C540 0.928 . S
H559 C542 0.932 . S
C560 C561 1.264 . S
C560 C565 1.479 . S
C560 C570 1.465 . S
C561 C560 1.264 . S
C561 C563 1.339 . S
C561 H588 0.931 . S
C562 C563 1.395 . S
C562 C564 1.320 . S
C563 C561 1.339 . S
C563 C562 1.395 . S
C563 H589 0.929 . S
C564 C562 1.320 . S
C564 C565 1.405 . S
C564 H590 0.930 . S
C565 C560 1.479 . S
C565 C564 1.405 . S
C565 H591 0.931 . S
U566 O567 2.454 . S
U566 O568 2.458 . S
U566 C569 2.984 . S
U566 C570 2.847 . S
U566 C583 2.882 . S
U566 O584 2.441 . S
U566 O585 2.420 . S
U566 O586 2.455 . S
U566 O587 2.449 . S
O567 U566 2.454 . S
O567 C569 1.353 . S
O568 U566 2.458 . S
O568 C569 1.286 . S
C569 U566 2.984 . S
C569 O567 1.353 . S
C569 O568 1.286 . S
C569 C571 1.363 . S
C570 C560 1.465 . S
C570 U566 2.847 . S
C570 O584 1.249 . S
C570 O585 1.202 . S
C571 C569 1.363 . S
C571 C573 1.408 . S
C571 C576 1.342 . S
C572 C573 1.310 . S
C572 C575 1.461 . S
C572 H592 0.932 . S
C573 C571 1.408 . S
C573 C572 1.310 . S
C573 H593 0.930 . S
C574 C575 1.474 . S
C574 C576 1.285 . S
C574 H594 0.929 . S
C575 C572 1.461 . S
C575 C574 1.474 . S
C576 C571 1.342 . S
C576 C574 1.285 . S
C576 H595 0.930 . S
C577 C580 1.424 . S
C577 C582 1.245 . S
C577 C583 1.428 . S
C578 C581 1.260 . S
C578 C582 1.477 . S
C578 H596 0.932 . S
C579 C580 1.384 . S
C579 C581 1.479 . S
C579 H597 0.929 . S
C580 C577 1.424 . S
C580 C579 1.384 . S
C580 H598 0.928 . S
C581 C578 1.260 . S
C581 C579 1.479 . S
C582 C577 1.245 . S
C582 C578 1.477 . S
C582 H599 0.932 . S
C583 U566 2.882 . S
C583 C577 1.428 . S
C583 O586 1.301 . S
C583 O587 1.282 . S
O584 U566 2.441 . S
O584 C570 1.249 . S
O585 U566 2.420 . S
O585 C570 1.202 . S
O586 U566 2.455 . S
O586 C583 1.301 . S
O587 U566 2.449 . S
O587 C583 1.282 . S
H588 C561 0.931 . S
H589 C563 0.929 . S
H590 C564 0.930 . S
H591 C565 0.931 . S
H592 C572 0.932 . S
H593 C573 0.930 . S
H594 C574 0.929 . S
H595 C576 0.930 . S
H596 C578 0.932 . S
H597 C579 0.929 . S
H598 C580 0.928 . S
H599 C582 0.932 . S
C600 C601 1.264 . S
C600 C605 1.479 . S
C600 C610 1.465 . S
C601 C600 1.264 . S
C601 C603 1.339 . S
C601 H628 0.931 . S
C602 C603 1.395 . S
C602 C604 1.320 . S
C603 C601 1.339 . S
C603 C602 1.395 . S
C603 H629 0.929 . S
C604 C602 1.320 . S
C604 C605 1.405 . S
C604 H630 0.930 . S
C605 C600 1.479 . S
C605 C604 1.405 . S
C605 H631 0.931 . S
U606 O607 2.454 . S
U606 O608 2.458 . S
U606 C609 2.984 . S
U606 C610 2.847 . S
U606 C623 2.882 . S
U606 O624 2.441 . S
U606 O625 2.420 . S
U606 O626 2.455 . S
U606 O627 2.449 . S
O607 U606 2.454 . S
O607 C609 1.353 . S
O608 U606 2.458 . S
O608 C609 1.286 . S
C609 U606 2.984 . S
C609 O607 1.353 . S
C609 O608 1.286 . S
C609 C611 1.363 . S
C610 C600 1.465 . S
C610 U606 2.847 . S
C610 O624 1.249 . S
C610 O625 1.202 . S
C611 C609 1.363 . S
C611 C613 1.408 . S
C611 C616 1.342 . S
C612 C613 1.310 . S
C612 C615 1.461 . S
C612 H632 0.932 . S
C613 C611 1.408 . S
C613 C612 1.310 . S
C613 H633 0.930 . S
C614 C615 1.474 . S
C614 C616 1.285 . S
C614 H634 0.929 . S
C615 C612 1.461 . S
C615 C614 1.474 . S
C616 C611 1.342 . S
C616 C614 1.285 . S
C616 H635 0.930 . S
C617 C620 1.424 . S
C617 C622 1.245 . S
C617 C623 1.428 . S
C618 C621 1.260 . S
C618 C622 1.477 . S
C618 H636 0.932 . S
C619 C620 1.384 . S
C619 C621 1.479 . S
C619 H637 0.929 . S
C620 C617 1.424 . S
C620 C619 1.384 . S
C620 H638 0.928 . S
C621 C618 1.260 . S
C621 C619 1.479 . S
C622 C617 1.245 . S
C622 C618 1.477 . S
C622 H639 0.932 . S
C623 U606 2.882 . S
C623 C617 1.428 . S
C623 O626 1.301 . S
C623 O627 1.282 . S
O624 U606 2.441 . S
O624 C610 1.249 . S
O625 U606 2.420 . S
O625 C610 1.202 . S
O626 U606 2.455 . S
O626 C623 1.301 . S
O627 U606 2.449 . S
O627 C623 1.282 . S
H628 C601 0.931 . S
H629 C603 0.929 . S
H630 C604 0.930 . S
H631 C605 0.931 . S
H632 C612 0.932 . S
H633 C613 0.930 . S
H634 C614 0.929 . S
H635 C616 0.930 . S
H636 C618 0.932 . S
H637 C619 0.929 . S
H638 C620 0.928 . S
H639 C622 0.932 . S
C640 C641 1.264 . S
C640 C645 1.479 . S
C640 C650 1.465 . S
C641 C640 1.264 . S
C641 C643 1.339 . S
C641 H668 0.931 . S
C642 C643 1.395 . S
C642 C644 1.320 . S
C643 C641 1.339 . S
C643 C642 1.395 . S
C643 H669 0.929 . S
C644 C642 1.320 . S
C644 C645 1.405 . S
C644 H670 0.930 . S
C645 C640 1.479 . S
C645 C644 1.405 . S
C645 H671 0.931 . S
U646 O647 2.454 . S
U646 O648 2.458 . S
U646 C649 2.984 . S
U646 C650 2.847 . S
U646 C663 2.882 . S
U646 O664 2.441 . S
U646 O665 2.420 . S
U646 O666 2.455 . S
U646 O667 2.449 . S
O647 U646 2.454 . S
O647 C649 1.353 . S
O648 U646 2.458 . S
O648 C649 1.286 . S
C649 U646 2.984 . S
C649 O647 1.353 . S
C649 O648 1.286 . S
C649 C651 1.363 . S
C650 C640 1.465 . S
C650 U646 2.847 . S
C650 O664 1.249 . S
C650 O665 1.202 . S
C651 C649 1.363 . S
C651 C653 1.408 . S
C651 C656 1.342 . S
C652 C653 1.310 . S
C652 C655 1.461 . S
C652 H672 0.932 . S
C653 C651 1.408 . S
C653 C652 1.310 . S
C653 H673 0.930 . S
C654 C655 1.474 . S
C654 C656 1.285 . S
C654 H674 0.929 . S
C655 C652 1.461 . S
C655 C654 1.474 . S
C656 C651 1.342 . S
C656 C654 1.285 . S
C656 H675 0.930 . S
C657 C660 1.424 . S
C657 C662 1.245 . S
C657 C663 1.428 . S
C658 C661 1.260 . S
C658 C662 1.477 . S
C658 H676 0.932 . S
C659 C660 1.384 . S
C659 C661 1.479 . S
C659 H677 0.929 . S
C660 C657 1.424 . S
C660 C659 1.384 . S
C660 H678 0.928 . S
C661 C658 1.260 . S
C661 C659 1.479 . S
C662 C657 1.245 . S
C662 C658 1.477 . S
C662 H679 0.932 . S
C663 U646 2.882 . S
C663 C657 1.428 . S
C663 O666 1.301 . S
C663 O667 1.282 . S
O664 U646 2.441 . S
O664 C650 1.249 . S
O665 U646 2.420 . S
O665 C650 1.202 . S
O666 U646 2.455 . S
O666 C663 1.301 . S
O667 U646 2.449 . S
O667 C663 1.282 . S
H668 C641 0.931 . S
H669 C643 0.929 . S
H670 C644 0.930 . S
H671 C645 0.931 . S
H672 C652 0.932 . S
H673 C653 0.930 . S
H674 C654 0.929 . S
H675 C656 0.930 . S
H676 C658 0.932 . S
H677 C659 0.929 . S
H678 C660 0.928 . S
H679 C662 0.932 . S
C680 C681 1.264 . S
C680 C685 1.479 . S
C680 C690 1.465 . S
C681 C680 1.264 . S
C681 C683 1.339 . S
C681 H708 0.931 . S
C682 C683 1.395 . S
C682 C684 1.320 . S
C683 C681 1.339 . S
C683 C682 1.395 . S
C683 H709 0.929 . S
C684 C682 1.320 . S
C684 C685 1.405 . S
C684 H710 0.930 . S
C685 C680 1.479 . S
C685 C684 1.405 . S
C685 H711 0.931 . S
U686 O687 2.454 . S
U686 O688 2.458 . S
U686 C689 2.984 . S
U686 C690 2.847 . S
U686 C703 2.882 . S
U686 O704 2.441 . S
U686 O705 2.420 . S
U686 O706 2.455 . S
U686 O707 2.449 . S
O687 U686 2.454 . S
O687 C689 1.353 . S
O688 U686 2.458 . S
O688 C689 1.286 . S
C689 U686 2.984 . S
C689 O687 1.353 . S
C689 O688 1.286 . S
C689 C691 1.363 . S
C690 C680 1.465 . S
C690 U686 2.847 . S
C690 O704 1.249 . S
C690 O705 1.202 . S
C691 C689 1.363 . S
C691 C693 1.408 . S
C691 C696 1.342 . S
C692 C693 1.310 . S
C692 C695 1.461 . S
C692 H712 0.932 . S
C693 C691 1.408 . S
C693 C692 1.310 . S
C693 H713 0.930 . S
C694 C695 1.474 . S
C694 C696 1.285 . S
C694 H714 0.929 . S
C695 C692 1.461 . S
C695 C694 1.474 . S
C696 C691 1.342 . S
C696 C694 1.285 . S
C696 H715 0.930 . S
C697 C700 1.424 . S
C697 C702 1.245 . S
C697 C703 1.428 . S
C698 C701 1.260 . S
C698 C702 1.477 . S
C698 H716 0.932 . S
C699 C700 1.384 . S
C699 C701 1.479 . S
C699 H717 0.929 . S
C700 C697 1.424 . S
C700 C699 1.384 . S
C700 H718 0.928 . S
C701 C698 1.260 . S
C701 C699 1.479 . S
C702 C697 1.245 . S
C702 C698 1.477 . S
C702 H719 0.932 . S
C703 U686 2.882 . S
C703 C697 1.428 . S
C703 O706 1.301 . S
C703 O707 1.282 . S
O704 U686 2.441 . S
O704 C690 1.249 . S
O705 U686 2.420 . S
O705 C690 1.202 . S
O706 U686 2.455 . S
O706 C703 1.301 . S
O707 U686 2.449 . S
O707 C703 1.282 . S
H708 C681 0.931 . S
H709 C683 0.929 . S
H710 C684 0.930 . S
H711 C685 0.931 . S
H712 C692 0.932 . S
H713 C693 0.930 . S
H714 C694 0.929 . S
H715 C696 0.930 . S
H716 C698 0.932 . S
H717 C699 0.929 . S
H718 C700 0.928 . S
H719 C702 0.932 . S
C720 C721 1.264 . S
C720 C725 1.479 . S
C720 C730 1.465 . S
C721 C720 1.264 . S
C721 C723 1.339 . S
C721 H748 0.931 . S
C722 C723 1.395 . S
C722 C724 1.320 . S
C723 C721 1.339 . S
C723 C722 1.395 . S
C723 H749 0.929 . S
C724 C722 1.320 . S
C724 C725 1.405 . S
C724 H750 0.930 . S
C725 C720 1.479 . S
C725 C724 1.405 . S
C725 H751 0.931 . S
U726 O727 2.454 . S
U726 O728 2.458 . S
U726 C729 2.984 . S
U726 C730 2.847 . S
U726 C743 2.882 . S
U726 O744 2.441 . S
U726 O745 2.420 . S
U726 O746 2.455 . S
U726 O747 2.449 . S
O727 U726 2.454 . S
O727 C729 1.353 . S
O728 U726 2.458 . S
O728 C729 1.286 . S
C729 U726 2.984 . S
C729 O727 1.353 . S
C729 O728 1.286 . S
C729 C731 1.363 . S
C730 C720 1.465 . S
C730 U726 2.847 . S
C730 O744 1.249 . S
C730 O745 1.202 . S
C731 C729 1.363 . S
C731 C733 1.408 . S
C731 C736 1.342 . S
C732 C733 1.310 . S
C732 C735 1.461 . S
C732 H752 0.932 . S
C733 C731 1.408 . S
C733 C732 1.310 . S
C733 H753 0.930 . S
C734 C735 1.474 . S
C734 C736 1.285 . S
C734 H754 0.929 . S
C735 C732 1.461 . S
C735 C734 1.474 . S
C736 C731 1.342 . S
C736 C734 1.285 . S
C736 H755 0.930 . S
C737 C740 1.424 . S
C737 C742 1.245 . S
C737 C743 1.428 . S
C738 C741 1.260 . S
C738 C742 1.477 . S
C738 H756 0.932 . S
C739 C740 1.384 . S
C739 C741 1.479 . S
C739 H757 0.929 . S
C740 C737 1.424 . S
C740 C739 1.384 . S
C740 H758 0.928 . S
C741 C738 1.260 . S
C741 C739 1.479 . S
C742 C737 1.245 . S
C742 C738 1.477 . S
C742 H759 0.932 . S
C743 U726 2.882 . S
C743 C737 1.428 . S
C743 O746 1.301 . S
C743 O747 1.282 . S
O744 U726 2.441 . S
O744 C730 1.249 . S
O745 U726 2.420 . S
O745 C730 1.202 . S
O746 U726 2.455 . S
O746 C743 1.301 . S
O747 U726 2.449 . S
O747 C743 1.282 . S
H748 C721 0.931 . S
H749 C723 0.929 . S
H750 C724 0.930 . S
H751 C725 0.931 . S
H752 C732 0.932 . S
H753 C733 0.930 . S
H754 C734 0.929 . S
H755 C736 0.930 . S
H756 C738 0.932 . S
H757 C739 0.929 . S
H758 C740 0.928 . S
H759 C742 0.932 . S
C760 C761 1.264 . S
C760 C765 1.479 . S
C760 C770 1.465 . S
C761 C760 1.264 . S
C761 C763 1.339 . S
C761 H788 0.931 . S
C762 C763 1.395 . S
C762 C764 1.320 . S
C763 C761 1.339 . S
C763 C762 1.395 . S
C763 H789 0.929 . S
C764 C762 1.320 . S
C764 C765 1.405 . S
C764 H790 0.930 . S
C765 C760 1.479 . S
C765 C764 1.405 . S
C765 H791 0.931 . S
U766 O767 2.454 . S
U766 O768 2.458 . S
U766 C769 2.984 . S
U766 C770 2.847 . S
U766 C783 2.882 . S
U766 O784 2.441 . S
U766 O785 2.420 . S
U766 O786 2.455 . S
U766 O787 2.449 . S
O767 U766 2.454 . S
O767 C769 1.353 . S
O768 U766 2.458 . S
O768 C769 1.286 . S
C769 U766 2.984 . S
C769 O767 1.353 . S
C769 O768 1.286 . S
C769 C771 1.363 . S
C770 C760 1.465 . S
C770 U766 2.847 . S
C770 O784 1.249 . S
C770 O785 1.202 . S
C771 C769 1.363 . S
C771 C773 1.408 . S
C771 C776 1.342 . S
C772 C773 1.310 . S
C772 C775 1.461 . S
C772 H792 0.932 . S
C773 C771 1.408 . S
C773 C772 1.310 . S
C773 H793 0.930 . S
C774 C775 1.474 . S
C774 C776 1.285 . S
C774 H794 0.929 . S
C775 C772 1.461 . S
C775 C774 1.474 . S
C776 C771 1.342 . S
C776 C774 1.285 . S
C776 H795 0.930 . S
C777 C780 1.424 . S
C777 C782 1.245 . S
C777 C783 1.428 . S
C778 C781 1.260 . S
C778 C782 1.477 . S
C778 H796 0.932 . S
C779 C780 1.384 . S
C779 C781 1.479 . S
C779 H797 0.929 . S
C780 C777 1.424 . S
C780 C779 1.384 . S
C780 H798 0.928 . S
C781 C778 1.260 . S
C781 C779 1.479 . S
C782 C777 1.245 . S
C782 C778 1.477 . S
C782 H799 0.932 . S
C783 U766 2.882 . S
C783 C777 1.428 . S
C783 O786 1.301 . S
C783 O787 1.282 . S
O784 U766 2.441 . S
O784 C770 1.249 . S
O785 U766 2.420 . S
O785 C770 1.202 . S
O786 U766 2.455 . S
O786 C783 1.301 . S
O787 U766 2.449 . S
O787 C783 1.282 . S
H788 C761 0.931 . S
H789 C763 0.929 . S
H790 C764 0.930 . S
H791 C765 0.931 . S
H792 C772 0.932 . S
H793 C773 0.930 . S
H794 C774 0.929 . S
H795 C776 0.930 . S
H796 C778 0.932 . S
H797 C779 0.929 . S
H798 C780 0.928 . S
H799 C782 0.932 . S
C800 C801 1.264 . S
C800 C805 1.479 . S
C800 C810 1.465 . S
C801 C800 1.264 . S
C801 C803 1.339 . S
C801 H828 0.931 . S
C802 C803 1.395 . S
C802 C804 1.320 . S
C803 C801 1.339 . S
C803 C802 1.395 . S
C803 H829 0.929 . S
C804 C802 1.320 . S
C804 C805 1.405 . S
C804 H830 0.930 . S
C805 C800 1.479 . S
C805 C804 1.405 . S
C805 H831 0.931 . S
U806 O807 2.454 . S
U806 O808 2.458 . S
U806 C809 2.984 . S
U806 C810 2.847 . S
U806 C823 2.882 . S
U806 O824 2.441 . S
U806 O825 2.420 . S
U806 O826 2.455 . S
U806 O827 2.449 . S
O807 U806 2.454 . S
O807 C809 1.353 . S
O808 U806 2.458 . S
O808 C809 1.286 . S
C809 U806 2.984 . S
C809 O807 1.353 . S
C809 O808 1.286 . S
C809 C811 1.363 . S
C810 C800 1.465 . S
C810 U806 2.847 . S
C810 O824 1.249 . S
C810 O825 1.202 . S
C811 C809 1.363 . S
C811 C813 1.408 . S
C811 C816 1.342 . S
C812 C813 1.310 . S
C812 C815 1.461 . S
C812 H832 0.932 . S
C813 C811 1.408 . S
C813 C812 1.310 . S
C813 H833 0.930 . S
C814 C815 1.474 . S
C814 C816 1.285 . S
C814 H834 0.929 . S
C815 C812 1.461 . S
C815 C814 1.474 . S
C816 C811 1.342 . S
C816 C814 1.285 . S
C816 H835 0.930 . S
C817 C820 1.424 . S
C817 C822 1.245 . S
C817 C823 1.428 . S
C818 C821 1.260 . S
C818 C822 1.477 . S
C818 H836 0.932 . S
C819 C820 1.384 . S
C819 C821 1.479 . S
C819 H837 0.929 . S
C820 C817 1.424 . S
C820 C819 1.384 . S
C820 H838 0.928 . S
C821 C818 1.260 . S
C821 C819 1.479 . S
C822 C817 1.245 . S
C822 C818 1.477 . S
C822 H839 0.932 . S
C823 U806 2.882 . S
C823 C817 1.428 . S
C823 O826 1.301 . S
C823 O827 1.282 . S
O824 U806 2.441 . S
O824 C810 1.249 . S
O825 U806 2.420 . S
O825 C810 1.202 . S
O826 U806 2.455 . S
O826 C823 1.301 . S
O827 U806 2.449 . S
O827 C823 1.282 . S
H828 C801 0.931 . S
H829 C803 0.929 . S
H830 C804 0.930 . S
H831 C805 0.931 . S
H832 C812 0.932 . S
H833 C813 0.930 . S
H834 C814 0.929 . S
H835 C816 0.930 . S
H836 C818 0.932 . S
H837 C819 0.929 . S
H838 C820 0.928 . S
H839 C822 0.932 . S
C840 C841 1.264 . S
C840 C845 1.479 . S
C840 C850 1.465 . S
C841 C840 1.264 . S
C841 C843 1.339 . S
C841 H868 0.931 . S
C842 C843 1.395 . S
C842 C844 1.320 . S
C843 C841 1.339 . S
C843 C842 1.395 . S
C843 H869 0.929 . S
C844 C842 1.320 . S
C844 C845 1.405 . S
C844 H870 0.930 . S
C845 C840 1.479 . S
C845 C844 1.405 . S
C845 H871 0.931 . S
U846 O847 2.454 . S
U846 O848 2.458 . S
U846 C849 2.984 . S
U846 C850 2.847 . S
U846 C863 2.882 . S
U846 O864 2.441 . S
U846 O865 2.420 . S
U846 O866 2.455 . S
U846 O867 2.449 . S
O847 U846 2.454 . S
O847 C849 1.353 . S
O848 U846 2.458 . S
O848 C849 1.286 . S
C849 U846 2.984 . S
C849 O847 1.353 . S
C849 O848 1.286 . S
C849 C851 1.363 . S
C850 C840 1.465 . S
C850 U846 2.847 . S
C850 O864 1.249 . S
C850 O865 1.202 . S
C851 C849 1.363 . S
C851 C853 1.408 . S
C851 C856 1.342 . S
C852 C853 1.310 . S
C852 C855 1.461 . S
C852 H872 0.932 . S
C853 C851 1.408 . S
C853 C852 1.310 . S
C853 H873 0.930 . S
C854 C855 1.474 . S
C854 C856 1.285 . S
C854 H874 0.929 . S
C855 C852 1.461 . S
C855 C854 1.474 . S
C856 C851 1.342 . S
C856 C854 1.285 . S
C856 H875 0.930 . S
C857 C860 1.424 . S
C857 C862 1.245 . S
C857 C863 1.428 . S
C858 C861 1.260 . S
C858 C862 1.477 . S
C858 H876 0.932 . S
C859 C860 1.384 . S
C859 C861 1.479 . S
C859 H877 0.929 . S
C860 C857 1.424 . S
C860 C859 1.384 . S
C860 H878 0.928 . S
C861 C858 1.260 . S
C861 C859 1.479 . S
C862 C857 1.245 . S
C862 C858 1.477 . S
C862 H879 0.932 . S
C863 U846 2.882 . S
C863 C857 1.428 . S
C863 O866 1.301 . S
C863 O867 1.282 . S
O864 U846 2.441 . S
O864 C850 1.249 . S
O865 U846 2.420 . S
O865 C850 1.202 . S
O866 U846 2.455 . S
O866 C863 1.301 . S
O867 U846 2.449 . S
O867 C863 1.282 . S
H868 C841 0.931 . S
H869 C843 0.929 . S
H870 C844 0.930 . S
H871 C845 0.931 . S
H872 C852 0.932 . S
H873 C853 0.930 . S
H874 C854 0.929 . S
H875 C856 0.930 . S
H876 C858 0.932 . S
H877 C859 0.929 . S
H878 C860 0.928 . S
H879 C862 0.932 . S
C880 C881 1.264 . S
C880 C885 1.479 . S
C880 C890 1.465 . S
C881 C880 1.264 . S
C881 C883 1.339 . S
C881 H908 0.931 . S
C882 C883 1.395 . S
C882 C884 1.320 . S
C883 C881 1.339 . S
C883 C882 1.395 . S
C883 H909 0.929 . S
C884 C882 1.320 . S
C884 C885 1.405 . S
C884 H910 0.930 . S
C885 C880 1.479 . S
C885 C884 1.405 . S
C885 H911 0.931 . S
U886 O887 2.454 . S
U886 O888 2.458 . S
U886 C889 2.984 . S
U886 C890 2.847 . S
U886 C903 2.882 . S
U886 O904 2.441 . S
U886 O905 2.420 . S
U886 O906 2.455 . S
U886 O907 2.449 . S
O887 U886 2.454 . S
O887 C889 1.353 . S
O888 U886 2.458 . S
O888 C889 1.286 . S
C889 U886 2.984 . S
C889 O887 1.353 . S
C889 O888 1.286 . S
C889 C891 1.363 . S
C890 C880 1.465 . S
C890 U886 2.847 . S
C890 O904 1.249 . S
C890 O905 1.202 . S
C891 C889 1.363 . S
C891 C893 1.408 . S
C891 C896 1.342 . S
C892 C893 1.310 . S
C892 C895 1.461 . S
C892 H912 0.932 . S
C893 C891 1.408 . S
C893 C892 1.310 . S
C893 H913 0.930 . S
C894 C895 1.474 . S
C894 C896 1.285 . S
C894 H914 0.929 . S
C895 C892 1.461 . S
C895 C894 1.474 . S
C896 C891 1.342 . S
C896 C894 1.285 . S
C896 H915 0.930 . S
C897 C900 1.424 . S
C897 C902 1.245 . S
C897 C903 1.428 . S
C898 C901 1.260 . S
C898 C902 1.477 . S
C898 H916 0.932 . S
C899 C900 1.384 . S
C899 C901 1.479 . S
C899 H917 0.929 . S
C900 C897 1.424 . S
C900 C899 1.384 . S
C900 H918 0.928 . S
C901 C898 1.260 . S
C901 C899 1.479 . S
C902 C897 1.245 . S
C902 C898 1.477 . S
C902 H919 0.932 . S
C903 U886 2.882 . S
C903 C897 1.428 . S
C903 O906 1.301 . S
C903 O907 1.282 . S
O904 U886 2.441 . S
O904 C890 1.249 . S
O905 U886 2.420 . S
O905 C890 1.202 . S
O906 U886 2.455 . S
O906 C903 1.301 . S
O907 U886 2.449 . S
O907 C903 1.282 . S
H908 C881 0.931 . S
H909 C883 0.929 . S
H910 C884 0.930 . S
H911 C885 0.931 . S
H912 C892 0.932 . S
H913 C893 0.930 . S
H914 C894 0.929 . S
H915 C896 0.930 . S
H916 C898 0.932 . S
H917 C899 0.929 . S
H918 C900 0.928 . S
H919 C902 0.932 . S
C920 C921 1.264 . S
C920 C925 1.479 . S
C920 C930 1.465 . S
C921 C920 1.264 . S
C921 C923 1.339 . S
C921 H948 0.931 . S
C922 C923 1.395 . S
C922 C924 1.320 . S
C923 C921 1.339 . S
C923 C922 1.395 . S
C923 H949 0.929 . S
C924 C922 1.320 . S
C924 C925 1.405 . S
C924 H950 0.930 . S
C925 C920 1.479 . S
C925 C924 1.405 . S
C925 H951 0.931 . S
U926 O927 2.454 . S
U926 O928 2.458 . S
U926 C929 2.984 . S
U926 C930 2.847 . S
U926 C943 2.882 . S
U926 O944 2.441 . S
U926 O945 2.420 . S
U926 O946 2.455 . S
U926 O947 2.449 . S
O927 U926 2.454 . S
O927 C929 1.353 . S
O928 U926 2.458 . S
O928 C929 1.286 . S
C929 U926 2.984 . S
C929 O927 1.353 . S
C929 O928 1.286 . S
C929 C931 1.363 . S
C930 C920 1.465 . S
C930 U926 2.847 . S
C930 O944 1.249 . S
C930 O945 1.202 . S
C931 C929 1.363 . S
C931 C933 1.408 . S
C931 C936 1.342 . S
C932 C933 1.310 . S
C932 C935 1.461 . S
C932 H952 0.932 . S
C933 C931 1.408 . S
C933 C932 1.310 . S
C933 H953 0.930 . S
C934 C935 1.474 . S
C934 C936 1.285 . S
C934 H954 0.929 . S
C935 C932 1.461 . S
C935 C934 1.474 . S
C936 C931 1.342 . S
C936 C934 1.285 . S
C936 H955 0.930 . S
C937 C940 1.424 . S
C937 C942 1.245 . S
C937 C943 1.428 . S
C938 C941 1.260 . S
C938 C942 1.477 . S
C938 H956 0.932 . S
C939 C940 1.384 . S
C939 C941 1.479 . S
C939 H957 0.929 . S
C940 C937 1.424 . S
C940 C939 1.384 . S
C940 H958 0.928 . S
C941 C938 1.260 . S
C941 C939 1.479 . S
C942 C937 1.245 . S
C942 C938 1.477 . S
C942 H959 0.932 . S
C943 U926 2.882 . S
C943 C937 1.428 . S
C943 O946 1.301 . S
C943 O947 1.282 . S
O944 U926 2.441 . S
O944 C930 1.249 . S
O945 U926 2.420 . S
O945 C930 1.202 . S
O946 U926 2.455 . S
O946 C943 1.301 . S
O947 U926 2.449 . S
O947 C943 1.282 . S
H948 C921 0.931 . S
H949 C923 0.929 . S
H950 C924 0.930 . S
H951 C925 0.931 . S
H952 C932 0.932 . S
H953 C933 0.930 . S
H954 C934 0.929 . S
H955 C936 0.930 . S
H956 C938 0.932 . S
H957 C939 0.929 . S
H958 C940 0.928 . S
H959 C942 0.932 . S
C960 C961 1.264 . S
C960 C965 1.479 . S
C960 C970 1.465 . S
C961 C960 1.264 . S
C961 C963 1.339 . S
C961 H988 0.931 . S
C962 C963 1.395 . S
C962 C964 1.320 . S
C963 C961 1.339 . S
C963 C962 1.395 . S
C963 H989 0.929 . S
C964 C962 1.320 . S
C964 C965 1.405 . S
C964 H990 0.930 . S
C965 C960 1.479 . S
C965 C964 1.405 . S
C965 H991 0.931 . S
U966 O967 2.454 . S
U966 O968 2.458 . S
U966 C969 2.984 . S
U966 C970 2.847 . S
U966 C983 2.882 . S
U966 O984 2.441 . S
U966 O985 2.420 . S
U966 O986 2.455 . S
U966 O987 2.449 . S
O967 U966 2.454 . S
O967 C969 1.353 . S
O968 U966 2.458 . S
O968 C969 1.286 . S
C969 U966 2.984 . S
C969 O967 1.353 . S
C969 O968 1.286 . S
C969 C971 1.363 . S
C970 C960 1.465 . S
C970 U966 2.847 . S
C970 O984 1.249 . S
C970 O985 1.202 . S
C971 C969 1.363 . S
C971 C973 1.408 . S
C971 C976 1.342 . S
C972 C973 1.310 . S
C972 C975 1.461 . S
C972 H992 0.932 . S
C973 C971 1.408 . S
C973 C972 1.310 . S
C973 H993 0.930 . S
C974 C975 1.474 . S
C974 C976 1.285 . S
C974 H994 0.929 . S
C975 C972 1.461 . S
C975 C974 1.474 . S
C976 C971 1.342 . S
C976 C974 1.285 . S
C976 H995 0.930 . S
C977 C980 1.424 . S
C977 C982 1.245 . S
C977 C983 1.428 . S
C978 C981 1.260 . S
C978 C982 1.477 . S
C978 H996 0.932 . S
C979 C980 1.384 . S
C979 C981 1.479 . S
C979 H997 0.929 . S
C980 C977 1.424 . S
C980 C979 1.384 . S
C980 H998 0.928 . S
C981 C978 1.260 . S
C981 C979 1.479 . S
C982 C977 1.245 . S
C982 C978 1.477 . S
C982 H999 0.932 . S
C983 U966 2.882 . S
C983 C977 1.428 . S
C983 O986 1.301 . S
C983 O987 1.282 . S
O984 U966 2.441 . S
O984 C970 1.249 . S
O985 U966 2.420 . S
O985 C970 1.202 . S
O986 U966 2.455 . S
O986 C983 1.301 . S
O987 U966 2.449 . S
O987 C983 1.282 . S
H988 C961 0.931 . S
H989 C963 0.929 . S
H990 C964 0.930 . S
H991 C965 0.931 . S
H992 C972 0.932 . S
H993 C973 0.930 . S
H994 C974 0.929 . S
H995 C976 0.930 . S
H996 C978 0.932 . S
H997 C979 0.929 . S
H998 C980 0.928 . S
H999 C982 0.932 . S
C1000 C1001 1.264 . S
C1000 C1005 1.479 . S
C1000 C1010 1.465 . S
C1001 C1000 1.264 . S
C1001 C1003 1.339 . S
C1001 H1028 0.931 . S
C1002 C1003 1.395 . S
C1002 C1004 1.320 . S
C1003 C1001 1.339 . S
C1003 C1002 1.395 . S
C1003 H1029 0.929 . S
C1004 C1002 1.320 . S
C1004 C1005 1.405 . S
C1004 H1030 0.930 . S
C1005 C1000 1.479 . S
C1005 C1004 1.405 . S
C1005 H1031 0.931 . S
U1006 O1007 2.454 . S
U1006 O1008 2.458 . S
U1006 C1009 2.984 . S
U1006 C1010 2.847 . S
U1006 C1023 2.882 . S
U1006 O1024 2.441 . S
U1006 O1025 2.420 . S
U1006 O1026 2.455 . S
U1006 O1027 2.449 . S
O1007 U1006 2.454 . S
O1007 C1009 1.353 . S
O1008 U1006 2.458 . S
O1008 C1009 1.286 . S
C1009 U1006 2.984 . S
C1009 O1007 1.353 . S
C1009 O1008 1.286 . S
C1009 C1011 1.363 . S
C1010 C1000 1.465 . S
C1010 U1006 2.847 . S
C1010 O1024 1.249 . S
C1010 O1025 1.202 . S
C1011 C1009 1.363 . S
C1011 C1013 1.408 . S
C1011 C1016 1.342 . S
C1012 C1013 1.310 . S
C1012 C1015 1.461 . S
C1012 H1032 0.932 . S
C1013 C1011 1.408 . S
C1013 C1012 1.310 . S
C1013 H1033 0.930 . S
C1014 C1015 1.474 . S
C1014 C1016 1.285 . S
C1014 H1034 0.929 . S
C1015 C1012 1.461 . S
C1015 C1014 1.474 . S
C1016 C1011 1.342 . S
C1016 C1014 1.285 . S
C1016 H1035 0.930 . S
C1017 C1020 1.424 . S
C1017 C1022 1.245 . S
C1017 C1023 1.428 . S
C1018 C1021 1.260 . S
C1018 C1022 1.477 . S
C1018 H1036 0.932 . S
C1019 C1020 1.384 . S
C1019 C1021 1.479 . S
C1019 H1037 0.929 . S
C1020 C1017 1.424 . S
C1020 C1019 1.384 . S
C1020 H1038 0.928 . S
C1021 C1018 1.260 . S
C1021 C1019 1.479 . S
C1022 C1017 1.245 . S
C1022 C1018 1.477 . S
C1022 H1039 0.932 . S
C1023 U1006 2.882 . S
C1023 C1017 1.428 . S
C1023 O1026 1.301 . S
C1023 O1027 1.282 . S
O1024 U1006 2.441 . S
O1024 C1010 1.249 . S
O1025 U1006 2.420 . S
O1025 C1010 1.202 . S
O1026 U1006 2.455 . S
O1026 C1023 1.301 . S
O1027 U1006 2.449 . S
O1027 C1023 1.282 . S
H1028 C1001 0.931 . S
H1029 C1003 0.929 . S
H1030 C1004 0.930 . S
H1031 C1005 0.931 . S
H1032 C1012 0.932 . S
H1033 C1013 0.930 . S
H1034 C1014 0.929 . S
H1035 C1016 0.930 . S
H1036 C1018 0.932 . S
H1037 C1019 0.929 . S
H1038 C1020 0.928 . S
H1039 C1022 0.932 . S
C1040 C1041 1.264 . S
C1040 C1045 1.479 . S
C1040 C1050 1.465 . S
C1041 C1040 1.264 . S
C1041 C1043 1.339 . S
C1041 H1068 0.931 . S
C1042 C1043 1.395 . S
C1042 C1044 1.320 . S
C1043 C1041 1.339 . S
C1043 C1042 1.395 . S
C1043 H1069 0.929 . S
C1044 C1042 1.320 . S
C1044 C1045 1.405 . S
C1044 H1070 0.930 . S
C1045 C1040 1.479 . S
C1045 C1044 1.405 . S
C1045 H1071 0.931 . S
U1046 O1047 2.454 . S
U1046 O1048 2.458 . S
U1046 C1049 2.984 . S
U1046 C1050 2.847 . S
U1046 C1063 2.882 . S
U1046 O1064 2.441 . S
U1046 O1065 2.420 . S
U1046 O1066 2.455 . S
U1046 O1067 2.449 . S
O1047 U1046 2.454 . S
O1047 C1049 1.353 . S
O1048 U1046 2.458 . S
O1048 C1049 1.286 . S
C1049 U1046 2.984 . S
C1049 O1047 1.353 . S
C1049 O1048 1.286 . S
C1049 C1051 1.363 . S
C1050 C1040 1.465 . S
C1050 U1046 2.847 . S
C1050 O1064 1.249 . S
C1050 O1065 1.202 . S
C1051 C1049 1.363 . S
C1051 C1053 1.408 . S
C1051 C1056 1.342 . S
C1052 C1053 1.310 . S
C1052 C1055 1.461 . S
C1052 H1072 0.932 . S
C1053 C1051 1.408 . S
C1053 C1052 1.310 . S
C1053 H1073 0.930 . S
C1054 C1055 1.474 . S
C1054 C1056 1.285 . S
C1054 H1074 0.929 . S
C1055 C1052 1.461 . S
C1055 C1054 1.474 . S
C1056 C1051 1.342 . S
C1056 C1054 1.285 . S
C1056 H1075 0.930 . S
C1057 C1060 1.424 . S
C1057 C1062 1.245 . S
C1057 C1063 1.428 . S
C1058 C1061 1.260 . S
C1058 C1062 1.477 . S
C1058 H1076 0.932 . S
C1059 C1060 1.384 . S
C1059 C1061 1.479 . S
C1059 H1077 0.929 . S
C1060 C1057 1.424 . S
C1060 C1059 1.384 . S
C1060 H1078 0.928 . S
C1061 C1058 1.260 . S
C1061 C1059 1.479 . S
C1062 C1057 1.245 . S
C1062 C1058 1.477 . S
C1062 H1079 0.932 . S
C1063 U1046 2.882 . S
C1063 C1057 1.428 . S
C1063 O1066 1.301 . S
C1063 O1067 1.282 . S
O1064 U1046 2.441 . S
O1064 C1050 1.249 . S
O1065 U1046 2.420 . S
O1065 C1050 1.202 . S
O1066 U1046 2.455 . S
O1066 C1063 1.301 . S
O1067 U1046 2.449 . S
O1067 C1063 1.282 . S
H1068 C1041 0.931 . S
H1069 C1043 0.929 . S
H1070 C1044 0.930 . S
H1071 C1045 0.931 . S
H1072 C1052 0.932 . S
H1073 C1053 0.930 . S
H1074 C1054 0.929 . S
H1075 C1056 0.930 . S
H1076 C1058 0.932 . S
H1077 C1059 0.929 . S
H1078 C1060 0.928 . S
H1079 C1062 0.932 . S
C1080 C1081 1.264 . S
C1080 C1085 1.479 . S
C1080 C1090 1.465 . S
C1081 C1080 1.264 . S
C1081 C1083 1.339 . S
C1081 H1108 0.931 . S
C1082 C1083 1.395 . S
C1082 C1084 1.320 . S
C1083 C1081 1.339 . S
C1083 C1082 1.395 . S
C1083 H1109 0.929 . S
C1084 C1082 1.320 . S
C1084 C1085 1.405 . S
C1084 H1110 0.930 . S
C1085 C1080 1.479 . S
C1085 C1084 1.405 . S
C1085 H1111 0.931 . S
U1086 O1087 2.454 . S
U1086 O1088 2.458 . S
U1086 C1089 2.984 . S
U1086 C1090 2.847 . S
U1086 C1103 2.882 . S
U1086 O1104 2.441 . S
U1086 O1105 2.420 . S
U1086 O1106 2.455 . S
U1086 O1107 2.449 . S
O1087 U1086 2.454 . S
O1087 C1089 1.353 . S
O1088 U1086 2.458 . S
O1088 C1089 1.286 . S
C1089 U1086 2.984 . S
C1089 O1087 1.353 . S
C1089 O1088 1.286 . S
C1089 C1091 1.363 . S
C1090 C1080 1.465 . S
C1090 U1086 2.847 . S
C1090 O1104 1.249 . S
C1090 O1105 1.202 . S
C1091 C1089 1.363 . S
C1091 C1093 1.408 . S
C1091 C1096 1.342 . S
C1092 C1093 1.310 . S
C1092 C1095 1.461 . S
C1092 H1112 0.932 . S
C1093 C1091 1.408 . S
C1093 C1092 1.310 . S
C1093 H1113 0.930 . S
C1094 C1095 1.474 . S
C1094 C1096 1.285 . S
C1094 H1114 0.929 . S
C1095 C1092 1.461 . S
C1095 C1094 1.474 . S
C1096 C1091 1.342 . S
C1096 C1094 1.285 . S
C1096 H1115 0.930 . S
C1097 C1100 1.424 . S
C1097 C1102 1.245 . S
C1097 C1103 1.428 . S
C1098 C1101 1.260 . S
C1098 C1102 1.477 . S
C1098 H1116 0.932 . S
C1099 C1100 1.384 . S
C1099 C1101 1.479 . S
C1099 H1117 0.929 . S
C1100 C1097 1.424 . S
C1100 C1099 1.384 . S
C1100 H1118 0.928 . S
C1101 C1098 1.260 . S
C1101 C1099 1.479 . S
C1102 C1097 1.245 . S
C1102 C1098 1.477 . S
C1102 H1119 0.932 . S
C1103 U1086 2.882 . S
C1103 C1097 1.428 . S
C1103 O1106 1.301 . S
C1103 O1107 1.282 . S
O1104 U1086 2.441 . S
O1104 C1090 1.249 . S
O1105 U1086 2.420 . S
O1105 C1090 1.202 . S
O1106 U1086 2.455 . S
O1106 C1103 1.301 . S
O1107 U1086 2.449 . S
O1107 C1103 1.282 . S
H1108 C1081 0.931 . S
H1109 C1083 0.929 . S
H1110 C1084 0.930 . S
H1111 C1085 0.931 . S
H1112 C1092 0.932 . S
H1113 C1093 0.930 . S
H1114 C1094 0.929 . S
H1115 C1096 0.930 . S
H1116 C1098 0.932 . S
H1117 C1099 0.929 . S
H1118 C1100 0.928 . S
H1119 C1102 0.932 . S
C1120 C1121 1.264 . S
C1120 C1125 1.479 . S
C1120 C1130 1.465 . S
C1121 C1120 1.264 . S
C1121 C1123 1.339 . S
C1121 H1148 0.931 . S
C1122 C1123 1.395 . S
C1122 C1124 1.320 . S
C1123 C1121 1.339 . S
C1123 C1122 1.395 . S
C1123 H1149 0.929 . S
C1124 C1122 1.320 . S
C1124 C1125 1.405 . S
C1124 H1150 0.930 . S
C1125 C1120 1.479 . S
C1125 C1124 1.405 . S
C1125 H1151 0.931 . S
U1126 O1127 2.454 . S
U1126 O1128 2.458 . S
U1126 C1129 2.984 . S
U1126 C1130 2.847 . S
U1126 C1143 2.882 . S
U1126 O1144 2.441 . S
U1126 O1145 2.420 . S
U1126 O1146 2.455 . S
U1126 O1147 2.449 . S
O1127 U1126 2.454 . S
O1127 C1129 1.353 . S
O1128 U1126 2.458 . S
O1128 C1129 1.286 . S
C1129 U1126 2.984 . S
C1129 O1127 1.353 . S
C1129 O1128 1.286 . S
C1129 C1131 1.363 . S
C1130 C1120 1.465 . S
C1130 U1126 2.847 . S
C1130 O1144 1.249 . S
C1130 O1145 1.202 . S
C1131 C1129 1.363 . S
C1131 C1133 1.408 . S
C1131 C1136 1.342 . S
C1132 C1133 1.310 . S
C1132 C1135 1.461 . S
C1132 H1152 0.932 . S
C1133 C1131 1.408 . S
C1133 C1132 1.310 . S
C1133 H1153 0.930 . S
C1134 C1135 1.474 . S
C1134 C1136 1.285 . S
C1134 H1154 0.929 . S
C1135 C1132 1.461 . S
C1135 C1134 1.474 . S
C1136 C1131 1.342 . S
C1136 C1134 1.285 . S
C1136 H1155 0.930 . S
C1137 C1140 1.424 . S
C1137 C1142 1.245 . S
C1137 C1143 1.428 . S
C1138 C1141 1.260 . S
C1138 C1142 1.477 . S
C1138 H1156 0.932 . S
C1139 C1140 1.384 . S
C1139 C1141 1.479 . S
C1139 H1157 0.929 . S
C1140 C1137 1.424 . S
C1140 C1139 1.384 . S
C1140 H1158 0.928 . S
C1141 C1138 1.260 . S
C1141 C1139 1.479 . S
C1142 C1137 1.245 . S
C1142 C1138 1.477 . S
C1142 H1159 0.932 . S
C1143 U1126 2.882 . S
C1143 C1137 1.428 . S
C1143 O1146 1.301 . S
C1143 O1147 1.282 . S
O1144 U1126 2.441 . S
O1144 C1130 1.249 . S
O1145 U1126 2.420 . S
O1145 C1130 1.202 . S
O1146 U1126 2.455 . S
O1146 C1143 1.301 . S
O1147 U1126 2.449 . S
O1147 C1143 1.282 . S
H1148 C1121 0.931 . S
H1149 C1123 0.929 . S
H1150 C1124 0.930 . S
H1151 C1125 0.931 . S
H1152 C1132 0.932 . S
H1153 C1133 0.930 . S
H1154 C1134 0.929 . S
H1155 C1136 0.930 . S
H1156 C1138 0.932 . S
H1157 C1139 0.929 . S
H1158 C1140 0.928 . S
H1159 C1142 0.932 . S
C1160 C1161 1.264 . S
C1160 C1165 1.479 . S
C1160 C1170 1.465 . S
C1161 C1160 1.264 . S
C1161 C1163 1.339 . S
C1161 H1188 0.931 . S
C1162 C1163 1.395 . S
C1162 C1164 1.320 . S
C1163 C1161 1.339 . S
C1163 C1162 1.395 . S
C1163 H1189 0.929 . S
C1164 C1162 1.320 . S
C1164 C1165 1.405 . S
C1164 H1190 0.930 . S
C1165 C1160 1.479 . S
C1165 C1164 1.405 . S
C1165 H1191 0.931 . S
U1166 O1167 2.454 . S
U1166 O1168 2.458 . S
U1166 C1169 2.984 . S
U1166 C1170 2.847 . S
U1166 C1183 2.882 . S
U1166 O1184 2.441 . S
U1166 O1185 2.420 . S
U1166 O1186 2.455 . S
U1166 O1187 2.449 . S
O1167 U1166 2.454 . S
O1167 C1169 1.353 . S
O1168 U1166 2.458 . S
O1168 C1169 1.286 . S
C1169 U1166 2.984 . S
C1169 O1167 1.353 . S
C1169 O1168 1.286 . S
C1169 C1171 1.363 . S
C1170 C1160 1.465 . S
C1170 U1166 2.847 . S
C1170 O1184 1.249 . S
C1170 O1185 1.202 . S
C1171 C1169 1.363 . S
C1171 C1173 1.408 . S
C1171 C1176 1.342 . S
C1172 C1173 1.310 . S
C1172 C1175 1.461 . S
C1172 H1192 0.932 . S
C1173 C1171 1.408 . S
C1173 C1172 1.310 . S
C1173 H1193 0.930 . S
C1174 C1175 1.474 . S
C1174 C1176 1.285 . S
C1174 H1194 0.929 . S
C1175 C1172 1.461 . S
C1175 C1174 1.474 . S
C1176 C1171 1.342 . S
C1176 C1174 1.285 . S
C1176 H1195 0.930 . S
C1177 C1180 1.424 . S
C1177 C1182 1.245 . S
C1177 C1183 1.428 . S
C1178 C1181 1.260 . S
C1178 C1182 1.477 . S
C1178 H1196 0.932 . S
C1179 C1180 1.384 . S
C1179 C1181 1.479 . S
C1179 H1197 0.929 . S
C1180 C1177 1.424 . S
C1180 C1179 1.384 . S
C1180 H1198 0.928 . S
C1181 C1178 1.260 . S
C1181 C1179 1.479 . S
C1182 C1177 1.245 . S
C1182 C1178 1.477 . S
C1182 H1199 0.932 . S
C1183 U1166 2.882 . S
C1183 C1177 1.428 . S
C1183 O1186 1.301 . S
C1183 O1187 1.282 . S
O1184 U1166 2.441 . S
O1184 C1170 1.249 . S
O1185 U1166 2.420 . S
O1185 C1170 1.202 . S
O1186 U1166 2.455 . S
O1186 C1183 1.301 . S
O1187 U1166 2.449 . S
O1187 C1183 1.282 . S
H1188 C1161 0.931 . S
H1189 C1163 0.929 . S
H1190 C1164 0.930 . S
H1191 C1165 0.931 . S
H1192 C1172 0.932 . S
H1193 C1173 0.930 . S
H1194 C1174 0.929 . S
H1195 C1176 0.930 . S
H1196 C1178 0.932 . S
H1197 C1179 0.929 . S
H1198 C1180 0.928 . S
H1199 C1182 0.932 . S
C1200 C1201 1.264 . S
C1200 C1205 1.479 . S
C1200 C1210 1.465 . S
C1201 C1200 1.264 . S
C1201 C1203 1.339 . S
C1201 H1228 0.931 . S
C1202 C1203 1.395 . S
C1202 C1204 1.320 . S
C1203 C1201 1.339 . S
C1203 C1202 1.395 . S
C1203 H1229 0.929 . S
C1204 C1202 1.320 . S
C1204 C1205 1.405 . S
C1204 H1230 0.930 . S
C1205 C1200 1.479 . S
C1205 C1204 1.405 . S
C1205 H1231 0.931 . S
U1206 O1207 2.454 . S
U1206 O1208 2.458 . S
U1206 C1209 2.984 . S
U1206 C1210 2.847 . S
U1206 C1223 2.882 . S
U1206 O1224 2.441 . S
U1206 O1225 2.420 . S
U1206 O1226 2.455 . S
U1206 O1227 2.449 . S
O1207 U1206 2.454 . S
O1207 C1209 1.353 . S
O1208 U1206 2.458 . S
O1208 C1209 1.286 . S
C1209 U1206 2.984 . S
C1209 O1207 1.353 . S
C1209 O1208 1.286 . S
C1209 C1211 1.363 . S
C1210 C1200 1.465 . S
C1210 U1206 2.847 . S
C1210 O1224 1.249 . S
C1210 O1225 1.202 . S
C1211 C1209 1.363 . S
C1211 C1213 1.408 . S
C1211 C1216 1.342 . S
C1212 C1213 1.310 . S
C1212 C1215 1.461 . S
C1212 H1232 0.932 . S
C1213 C1211 1.408 . S
C1213 C1212 1.310 . S
C1213 H1233 0.930 . S
C1214 C1215 1.474 . S
C1214 C1216 1.285 . S
C1214 H1234 0.929 . S
C1215 C1212 1.461 . S
C1215 C1214 1.474 . S
C1216 C1211 1.342 . S
C1216 C1214 1.285 . S
C1216 H1235 0.930 . S
C1217 C1220 1.424 . S
C1217 C1222 1.245 . S
C1217 C1223 1.428 . S
C1218 C1221 1.260 . S
C1218 C1222 1.477 . S
C1218 H1236 0.932 . S
C1219 C1220 1.384 . S
C1219 C1221 1.479 . S
C1219 H1237 0.929 . S
C1220 C1217 1.424 . S
C1220 C1219 1.384 . S
C1220 H1238 0.928 . S
C1221 C1218 1.260 . S
C1221 C1219 1.479 . S
C1222 C1217 1.245 . S
C1222 C1218 1.477 . S
C1222 H1239 0.932 . S
C1223 U1206 2.882 . S
C1223 C1217 1.428 . S
C1223 O1226 1.301 . S
C1223 O1227 1.282 . S
O1224 U1206 2.441 . S
O1224 C1210 1.249 . S
O1225 U1206 2.420 . S
O1225 C1210 1.202 . S
O1226 U1206 2.455 . S
O1226 C1223 1.301 . S
O1227 U1206 2.449 . S
O1227 C1223 1.282 . S
H1228 C1201 0.931 . S
H1229 C1203 0.929 . S
H1230 C1204 0.930 . S
H1231 C1205 0.931 . S
H1232 C1212 0.932 . S
H1233 C1213 0.930 . S
H1234 C1214 0.929 . S
H1235 C1216 0.930 . S
H1236 C1218 0.932 . S
H1237 C1219 0.929 . S
H1238 C1220 0.928 . S
H1239 C1222 0.932 . S
C1240 C1241 1.264 . S
C1240 C1245 1.479 . S
C1240 C1250 1.465 . S
C1241 C1240 1.264 . S
C1241 C1243 1.339 . S
C1241 H1268 0.931 . S
C1242 C1243 1.395 . S
C1242 C1244 1.320 . S
C1243 C1241 1.339 . S
C1243 C1242 1.395 . S
C1243 H1269 0.929 . S
C1244 C1242 1.320 . S
C1244 C1245 1.405 . S
C1244 H1270 0.930 . S
C1245 C1240 1.479 . S
C1245 C1244 1.405 . S
C1245 H1271 0.931 . S
U1246 O1247 2.454 . S
U1246 O1248 2.458 . S
U1246 C1249 2.984 . S
U1246 C1250 2.847 . S
U1246 C1263 2.882 . S
U1246 O1264 2.441 . S
U1246 O1265 2.420 . S
U1246 O1266 2.455 . S
U1246 O1267 2.449 . S
O1247 U1246 2.454 . S
O1247 C1249 1.353 . S
O1248 U1246 2.458 . S
O1248 C1249 1.286 . S
C1249 U1246 2.984 . S
C1249 O1247 1.353 . S
C1249 O1248 1.286 . S
C1249 C1251 1.363 . S
C1250 C1240 1.465 . S
C1250 U1246 2.847 . S
C1250 O1264 1.249 . S
C1250 O1265 1.202 . S
C1251 C1249 1.363 . S
C1251 C1253 1.408 . S
C1251 C1256 1.342 . S
C1252 C1253 1.310 . S
C1252 C1255 1.461 . S
C1252 H1272 0.932 . S
C1253 C1251 1.408 . S
C1253 C1252 1.310 . S
C1253 H1273 0.930 . S
C1254 C1255 1.474 . S
C1254 C1256 1.285 . S
C1254 H1274 0.929 . S
C1255 C1252 1.461 . S
C1255 C1254 1.474 . S
C1256 C1251 1.342 . S
C1256 C1254 1.285 . S
C1256 H1275 0.930 . S
C1257 C1260 1.424 . S
C1257 C1262 1.245 . S
C1257 C1263 1.428 . S
C1258 C1261 1.260 . S
C1258 C1262 1.477 . S
C1258 H1276 0.932 . S
C1259 C1260 1.384 . S
C1259 C1261 1.479 . S
C1259 H1277 0.929 . S
C1260 C1257 1.424 . S
C1260 C1259 1.384 . S
C1260 H1278 0.928 . S
C1261 C1258 1.260 . S
C1261 C1259 1.479 . S
C1262 C1257 1.245 . S
C1262 C1258 1.477 . S
C1262 H1279 0.932 . S
C1263 U1246 2.882 . S
C1263 C1257 1.428 . S
C1263 O1266 1.301 . S
C1263 O1267 1.282 . S
O1264 U1246 2.441 . S
O1264 C1250 1.249 . S
O1265 U1246 2.420 . S
O1265 C1250 1.202 . S
O1266 U1246 2.455 . S
O1266 C1263 1.301 . S
O1267 U1246 2.449 . S
O1267 C1263 1.282 . S
H1268 C1241 0.931 . S
H1269 C1243 0.929 . S
H1270 C1244 0.930 . S
H1271 C1245 0.931 . S
H1272 C1252 0.932 . S
H1273 C1253 0.930 . S
H1274 C1254 0.929 . S
H1275 C1256 0.930 . S
H1276 C1258 0.932 . S
H1277 C1259 0.929 . S
H1278 C1260 0.928 . S
H1279 C1262 0.932 . S
H1280 C1299 0.949 . S
H1281 C1300 0.950 . S
H1282 C1302 0.950 . S
H1283 C1303 0.950 . S
H1284 C1305 0.950 . S
H1285 C1308 0.950 . S
H1286 C1309 0.950 . S
H1287 C1311 0.951 . S
H1288 C1312 0.949 . S
H1289 C1314 0.949 . S
H1290 C1315 0.950 . S
H1291 C1317 0.950 . S
H1292 C1318 0.950 . S
H1293 C1320 0.950 . S
H1294 C1323 0.950 . S
H1295 C1324 0.950 . S
H1296 C1326 0.951 . S
H1297 C1327 0.949 . S
C1298 C1299 1.376 . S
C1298 C1303 1.386 . S
C1298 C1304 1.483 . S
C1299 H1280 0.949 . S
C1299 C1298 1.376 . S
C1299 C1300 1.397 . S
C1300 H1281 0.950 . S
C1300 C1299 1.397 . S
C1300 C1301 1.391 . S
C1301 C1300 1.391 . S
C1301 C1302 1.405 . S
C1302 H1282 0.950 . S
C1302 C1301 1.405 . S
C1302 C1303 1.367 . S
C1303 H1283 0.950 . S
C1303 C1298 1.386 . S
C1303 C1302 1.367 . S
C1304 C1298 1.483 . S
C1304 C1305 1.382 1_556 S
C1304 C1306 1.403 . S
C1305 H1284 0.950 . S
C1305 C1304 1.382 1_554 S
C1305 C1321 1.411 . S
C1306 C1304 1.403 . S
C1306 C1307 1.489 . S
C1306 C1320 1.411 1_556 S
C1307 C1306 1.489 . S
C1307 C1308 1.383 . S
C1307 C1312 1.382 . S
C1308 H1285 0.950 . S
C1308 C1307 1.383 . S
C1308 C1309 1.395 . S
C1309 H1286 0.950 . S
C1309 C1308 1.395 . S
C1309 C1310 1.288 . S
C1310 C1309 1.288 . S
C1310 C1311 1.392 . S
C1311 H1287 0.951 . S
C1311 C1310 1.392 . S
C1311 C1312 1.392 . S
C1312 H1288 0.949 . S
C1312 C1307 1.382 . S
C1312 C1311 1.392 . S
C1313 C1314 1.376 . S
C1313 C1318 1.386 . S
C1313 C1319 1.483 . S
C1314 H1289 0.949 . S
C1314 C1313 1.376 . S
C1314 C1315 1.397 . S
C1315 H1290 0.950 . S
C1315 C1314 1.397 . S
C1315 C1316 1.391 . S
C1316 C1315 1.391 . S
C1316 C1317 1.405 . S
C1317 H1291 0.950 . S
C1317 C1316 1.405 . S
C1317 C1318 1.367 . S
C1318 H1292 0.950 . S
C1318 C1313 1.386 . S
C1318 C1317 1.367 . S
C1319 C1313 1.483 . S
C1319 C1320 1.382 . S
C1319 C1321 1.403 . S
C1320 H1293 0.950 . S
C1320 C1306 1.411 1_554 S
C1320 C1319 1.382 . S
C1321 C1305 1.411 . S
C1321 C1319 1.403 . S
C1321 C1322 1.489 . S
C1322 C1321 1.489 . S
C1322 C1323 1.383 . S
C1322 C1327 1.382 . S
C1323 H1294 0.950 . S
C1323 C1322 1.383 . S
C1323 C1324 1.395 . S
C1324 H1295 0.950 . S
C1324 C1323 1.395 . S
C1324 C1325 1.288 . S
C1325 C1324 1.288 . S
C1325 C1326 1.392 . S
C1326 H1296 0.951 . S
C1326 C1325 1.392 . S
C1326 C1327 1.392 . S
C1327 H1297 0.949 . S
C1327 C1322 1.382 . S
C1327 C1326 1.392 . S
H1328 C1347 0.949 . S
H1329 C1348 0.950 . S
H1330 C1350 0.950 . S
H1331 C1351 0.950 . S
H1332 C1353 0.950 . S
H1333 C1356 0.950 . S
H1334 C1357 0.950 . S
H1335 C1359 0.951 . S
H1336 C1360 0.949 . S
H1337 C1362 0.949 . S
H1338 C1363 0.950 . S
H1339 C1365 0.950 . S
H1340 C1366 0.950 . S
H1341 C1368 0.950 . S
H1342 C1371 0.950 . S
H1343 C1372 0.950 . S
H1344 C1374 0.951 . S
H1345 C1375 0.949 . S
C1346 C1347 1.376 . S
C1346 C1351 1.386 . S
C1346 C1352 1.483 . S
C1347 H1328 0.949 . S
C1347 C1346 1.376 . S
C1347 C1348 1.397 . S
C1348 H1329 0.950 . S
C1348 C1347 1.397 . S
C1348 C1349 1.391 . S
C1349 C1348 1.391 . S
C1349 C1350 1.405 . S
C1350 H1330 0.950 . S
C1350 C1349 1.405 . S
C1350 C1351 1.367 . S
C1351 H1331 0.950 . S
C1351 C1346 1.386 . S
C1351 C1350 1.367 . S
C1352 C1346 1.483 . S
C1352 C1353 1.382 1_556 S
C1352 C1354 1.403 . S
C1353 H1332 0.950 . S
C1353 C1352 1.382 1_554 S
C1353 C1369 1.411 . S
C1354 C1352 1.403 . S
C1354 C1355 1.489 . S
C1354 C1368 1.411 1_556 S
C1355 C1354 1.489 . S
C1355 C1356 1.383 . S
C1355 C1360 1.382 . S
C1356 H1333 0.950 . S
C1356 C1355 1.383 . S
C1356 C1357 1.395 . S
C1357 H1334 0.950 . S
C1357 C1356 1.395 . S
C1357 C1358 1.288 . S
C1358 C1357 1.288 . S
C1358 C1359 1.392 . S
C1359 H1335 0.951 . S
C1359 C1358 1.392 . S
C1359 C1360 1.392 . S
C1360 H1336 0.949 . S
C1360 C1355 1.382 . S
C1360 C1359 1.392 . S
C1361 C1362 1.376 . S
C1361 C1366 1.386 . S
C1361 C1367 1.483 . S
C1362 H1337 0.949 . S
C1362 C1361 1.376 . S
C1362 C1363 1.397 . S
C1363 H1338 0.950 . S
C1363 C1362 1.397 . S
C1363 C1364 1.391 . S
C1364 C1363 1.391 . S
C1364 C1365 1.405 . S
C1365 H1339 0.950 . S
C1365 C1364 1.405 . S
C1365 C1366 1.367 . S
C1366 H1340 0.950 . S
C1366 C1361 1.386 . S
C1366 C1365 1.367 . S
C1367 C1361 1.483 . S
C1367 C1368 1.382 . S
C1367 C1369 1.403 . S
C1368 H1341 0.950 . S
C1368 C1354 1.411 1_554 S
C1368 C1367 1.382 . S
C1369 C1353 1.411 . S
C1369 C1367 1.403 . S
C1369 C1370 1.489 . S
C1370 C1369 1.489 . S
C1370 C1371 1.383 . S
C1370 C1375 1.382 . S
C1371 H1342 0.950 . S
C1371 C1370 1.383 . S
C1371 C1372 1.395 . S
C1372 H1343 0.950 . S
C1372 C1371 1.395 . S
C1372 C1373 1.288 . S
C1373 C1372 1.288 . S
C1373 C1374 1.392 . S
C1374 H1344 0.951 . S
C1374 C1373 1.392 . S
C1374 C1375 1.392 . S
C1375 H1345 0.949 . S
C1375 C1370 1.382 . S
C1375 C1374 1.392 . S
H1376 C1395 0.949 . S
H1377 C1396 0.950 . S
H1378 C1398 0.950 . S
H1379 C1399 0.950 . S
H1380 C1401 0.950 . S
H1381 C1404 0.950 . S
H1382 C1405 0.950 . S
H1383 C1407 0.951 . S
H1384 C1408 0.949 . S
H1385 C1410 0.949 . S
H1386 C1411 0.950 . S
H1387 C1413 0.950 . S
H1388 C1414 0.950 . S
H1389 C1416 0.950 . S
H1390 C1419 0.950 . S
H1391 C1420 0.950 . S
H1392 C1422 0.951 . S
H1393 C1423 0.949 . S
C1394 C1395 1.376 . S
C1394 C1399 1.386 . S
C1394 C1400 1.483 . S
C1395 H1376 0.949 . S
C1395 C1394 1.376 . S
C1395 C1396 1.397 . S
C1396 H1377 0.950 . S
C1396 C1395 1.397 . S
C1396 C1397 1.391 . S
C1397 C1396 1.391 . S
C1397 C1398 1.405 . S
C1398 H1378 0.950 . S
C1398 C1397 1.405 . S
C1398 C1399 1.367 . S
C1399 H1379 0.950 . S
C1399 C1394 1.386 . S
C1399 C1398 1.367 . S
C1400 C1394 1.483 . S
C1400 C1401 1.382 . S
C1400 C1402 1.403 . S
C1401 H1380 0.950 . S
C1401 C1400 1.382 . S
C1401 C1417 1.411 1_554 S
C1402 C1400 1.403 . S
C1402 C1403 1.489 . S
C1402 C1416 1.411 . S
C1403 C1402 1.489 . S
C1403 C1404 1.383 . S
C1403 C1408 1.382 . S
C1404 H1381 0.950 . S
C1404 C1403 1.383 . S
C1404 C1405 1.395 . S
C1405 H1382 0.950 . S
C1405 C1404 1.395 . S
C1405 C1406 1.288 . S
C1406 C1405 1.288 . S
C1406 C1407 1.392 . S
C1407 H1383 0.951 . S
C1407 C1406 1.392 . S
C1407 C1408 1.392 . S
C1408 H1384 0.949 . S
C1408 C1403 1.382 . S
C1408 C1407 1.392 . S
C1409 C1410 1.376 . S
C1409 C1414 1.386 . S
C1409 C1415 1.483 . S
C1410 H1385 0.949 . S
C1410 C1409 1.376 . S
C1410 C1411 1.397 . S
C1411 H1386 0.950 . S
C1411 C1410 1.397 . S
C1411 C1412 1.391 . S
C1412 C1411 1.391 . S
C1412 C1413 1.405 . S
C1413 H1387 0.950 . S
C1413 C1412 1.405 . S
C1413 C1414 1.367 . S
C1414 H1388 0.950 . S
C1414 C1409 1.386 . S
C1414 C1413 1.367 . S
C1415 C1409 1.483 . S
C1415 C1416 1.382 1_556 S
C1415 C1417 1.403 . S
C1416 H1389 0.950 . S
C1416 C1402 1.411 . S
C1416 C1415 1.382 1_554 S
C1417 C1401 1.411 1_556 S
C1417 C1415 1.403 . S
C1417 C1418 1.489 . S
C1418 C1417 1.489 . S
C1418 C1419 1.383 . S
C1418 C1423 1.382 . S
C1419 H1390 0.950 . S
C1419 C1418 1.383 . S
C1419 C1420 1.395 . S
C1420 H1391 0.950 . S
C1420 C1419 1.395 . S
C1420 C1421 1.288 . S
C1421 C1420 1.288 . S
C1421 C1422 1.392 . S
C1422 H1392 0.951 . S
C1422 C1421 1.392 . S
C1422 C1423 1.392 . S
C1423 H1393 0.949 . S
C1423 C1418 1.382 . S
C1423 C1422 1.392 . S
H1424 C1443 0.949 . S
H1425 C1444 0.950 . S
H1426 C1446 0.950 . S
H1427 C1447 0.950 . S
H1428 C1449 0.950 . S
H1429 C1452 0.950 . S
H1430 C1453 0.950 . S
H1431 C1455 0.951 . S
H1432 C1456 0.949 . S
H1433 C1458 0.949 . S
H1434 C1459 0.950 . S
H1435 C1461 0.950 . S
H1436 C1462 0.950 . S
H1437 C1464 0.950 . S
H1438 C1467 0.950 . S
H1439 C1468 0.950 . S
H1440 C1470 0.951 . S
H1441 C1471 0.949 . S
C1442 C1443 1.376 . S
C1442 C1447 1.386 . S
C1442 C1448 1.483 . S
C1443 H1424 0.949 . S
C1443 C1442 1.376 . S
C1443 C1444 1.397 . S
C1444 H1425 0.950 . S
C1444 C1443 1.397 . S
C1444 C1445 1.391 . S
C1445 C1444 1.391 . S
C1445 C1446 1.405 . S
C1446 H1426 0.950 . S
C1446 C1445 1.405 . S
C1446 C1447 1.367 . S
C1447 H1427 0.950 . S
C1447 C1442 1.386 . S
C1447 C1446 1.367 . S
C1448 C1442 1.483 . S
C1448 C1449 1.382 1_556 S
C1448 C1450 1.403 . S
C1449 H1428 0.950 . S
C1449 C1448 1.382 1_554 S
C1449 C1465 1.411 . S
C1450 C1448 1.403 . S
C1450 C1451 1.489 . S
C1450 C1464 1.411 1_556 S
C1451 C1450 1.489 . S
C1451 C1452 1.383 . S
C1451 C1456 1.382 . S
C1452 H1429 0.950 . S
C1452 C1451 1.383 . S
C1452 C1453 1.395 . S
C1453 H1430 0.950 . S
C1453 C1452 1.395 . S
C1453 C1454 1.288 . S
C1454 C1453 1.288 . S
C1454 C1455 1.392 . S
C1455 H1431 0.951 . S
C1455 C1454 1.392 . S
C1455 C1456 1.392 . S
C1456 H1432 0.949 . S
C1456 C1451 1.382 . S
C1456 C1455 1.392 . S
C1457 C1458 1.376 . S
C1457 C1462 1.386 . S
C1457 C1463 1.483 . S
C1458 H1433 0.949 . S
C1458 C1457 1.376 . S
C1458 C1459 1.397 . S
C1459 H1434 0.950 . S
C1459 C1458 1.397 . S
C1459 C1460 1.391 . S
C1460 C1459 1.391 . S
C1460 C1461 1.405 . S
C1461 H1435 0.950 . S
C1461 C1460 1.405 . S
C1461 C1462 1.367 . S
C1462 H1436 0.950 . S
C1462 C1457 1.386 . S
C1462 C1461 1.367 . S
C1463 C1457 1.483 . S
C1463 C1464 1.382 . S
C1463 C1465 1.403 . S
C1464 H1437 0.950 . S
C1464 C1450 1.411 1_554 S
C1464 C1463 1.382 . S
C1465 C1449 1.411 . S
C1465 C1463 1.403 . S
C1465 C1466 1.489 . S
C1466 C1465 1.489 . S
C1466 C1467 1.383 . S
C1466 C1471 1.382 . S
C1467 H1438 0.950 . S
C1467 C1466 1.383 . S
C1467 C1468 1.395 . S
C1468 H1439 0.950 . S
C1468 C1467 1.395 . S
C1468 C1469 1.288 . S
C1469 C1468 1.288 . S
C1469 C1470 1.392 . S
C1470 H1440 0.951 . S
C1470 C1469 1.392 . S
C1470 C1471 1.392 . S
C1471 H1441 0.949 . S
C1471 C1466 1.382 . S
C1471 C1470 1.392 . S
H1472 C1491 0.949 . S
H1473 C1492 0.950 . S
H1474 C1494 0.950 . S
H1475 C1495 0.950 . S
H1476 C1497 0.950 . S
H1477 C1500 0.950 . S
H1478 C1501 0.950 . S
H1479 C1503 0.951 . S
H1480 C1504 0.949 . S
H1481 C1506 0.949 . S
H1482 C1507 0.950 . S
H1483 C1509 0.950 . S
H1484 C1510 0.950 . S
H1485 C1512 0.950 . S
H1486 C1515 0.950 . S
H1487 C1516 0.950 . S
H1488 C1518 0.951 . S
H1489 C1519 0.949 . S
C1490 C1491 1.376 . S
C1490 C1495 1.386 . S
C1490 C1496 1.483 . S
C1491 H1472 0.949 . S
C1491 C1490 1.376 . S
C1491 C1492 1.397 . S
C1492 H1473 0.950 . S
C1492 C1491 1.397 . S
C1492 C1493 1.391 . S
C1493 C1492 1.391 . S
C1493 C1494 1.405 . S
C1494 H1474 0.950 . S
C1494 C1493 1.405 . S
C1494 C1495 1.367 . S
C1495 H1475 0.950 . S
C1495 C1490 1.386 . S
C1495 C1494 1.367 . S
C1496 C1490 1.483 . S
C1496 C1497 1.382 . S
C1496 C1498 1.403 . S
C1497 H1476 0.950 . S
C1497 C1496 1.382 . S
C1497 C1513 1.411 1_455 S
C1498 C1496 1.403 . S
C1498 C1499 1.489 . S
C1498 C1512 1.411 . S
C1499 C1498 1.489 . S
C1499 C1500 1.383 . S
C1499 C1504 1.382 . S
C1500 H1477 0.950 . S
C1500 C1499 1.383 . S
C1500 C1501 1.395 . S
C1501 H1478 0.950 . S
C1501 C1500 1.395 . S
C1501 C1502 1.288 . S
C1502 C1501 1.288 . S
C1502 C1503 1.392 . S
C1503 H1479 0.951 . S
C1503 C1502 1.392 . S
C1503 C1504 1.392 . S
C1504 H1480 0.949 . S
C1504 C1499 1.382 . S
C1504 C1503 1.392 . S
C1505 C1506 1.376 . S
C1505 C1510 1.386 . S
C1505 C1511 1.483 . S
C1506 H1481 0.949 . S
C1506 C1505 1.376 . S
C1506 C1507 1.397 . S
C1507 H1482 0.950 . S
C1507 C1506 1.397 . S
C1507 C1508 1.391 . S
C1508 C1507 1.391 . S
C1508 C1509 1.405 . S
C1509 H1483 0.950 . S
C1509 C1508 1.405 . S
C1509 C1510 1.367 . S
C1510 H1484 0.950 . S
C1510 C1505 1.386 . S
C1510 C1509 1.367 . S
C1511 C1505 1.483 . S
C1511 C1512 1.382 1_655 S
C1511 C1513 1.403 . S
C1512 H1485 0.950 . S
C1512 C1498 1.411 . S
C1512 C1511 1.382 1_455 S
C1513 C1497 1.411 1_655 S
C1513 C1511 1.403 . S
C1513 C1514 1.489 . S
C1514 C1513 1.489 . S
C1514 C1515 1.383 . S
C1514 C1519 1.382 . S
C1515 H1486 0.950 . S
C1515 C1514 1.383 . S
C1515 C1516 1.395 . S
C1516 H1487 0.950 . S
C1516 C1515 1.395 . S
C1516 C1517 1.288 . S
C1517 C1516 1.288 . S
C1517 C1518 1.392 . S
C1518 H1488 0.951 . S
C1518 C1517 1.392 . S
C1518 C1519 1.392 . S
C1519 H1489 0.949 . S
C1519 C1514 1.382 . S
C1519 C1518 1.392 . S
H1520 C1539 0.949 . S
H1521 C1540 0.950 . S
H1522 C1542 0.950 . S
H1523 C1543 0.950 . S
H1524 C1545 0.950 . S
H1525 C1548 0.950 . S
H1526 C1549 0.950 . S
H1527 C1551 0.951 . S
H1528 C1552 0.949 . S
H1529 C1554 0.949 . S
H1530 C1555 0.950 . S
H1531 C1557 0.950 . S
H1532 C1558 0.950 . S
H1533 C1560 0.950 1_565 S
H1534 C1563 0.950 . S
H1535 C1564 0.950 . S
H1536 C1566 0.951 . S
H1537 C1567 0.949 . S
C1538 C1539 1.376 . S
C1538 C1543 1.386 . S
C1538 C1544 1.483 . S
C1539 H1520 0.949 . S
C1539 C1538 1.376 . S
C1539 C1540 1.397 . S
C1540 H1521 0.950 . S
C1540 C1539 1.397 . S
C1540 C1541 1.391 . S
C1541 C1540 1.391 . S
C1541 C1542 1.405 . S
C1542 H1522 0.950 . S
C1542 C1541 1.405 . S
C1542 C1543 1.367 . S
C1543 H1523 0.950 . S
C1543 C1538 1.386 . S
C1543 C1542 1.367 . S
C1544 C1538 1.483 . S
C1544 C1545 1.382 . S
C1544 C1546 1.403 . S
C1545 H1524 0.950 . S
C1545 C1544 1.382 . S
C1545 C1561 1.411 1_545 S
C1546 C1544 1.403 . S
C1546 C1547 1.489 . S
C1546 C1560 1.407 . S
C1547 C1546 1.489 . S
C1547 C1548 1.383 . S
C1547 C1552 1.382 . S
C1548 H1525 0.950 . S
C1548 C1547 1.383 . S
C1548 C1549 1.395 . S
C1549 H1526 0.950 . S
C1549 C1548 1.395 . S
C1549 C1550 1.288 . S
C1550 C1549 1.288 . S
C1550 C1551 1.392 . S
C1551 H1527 0.951 . S
C1551 C1550 1.392 . S
C1551 C1552 1.392 . S
C1552 H1528 0.949 . S
C1552 C1547 1.382 . S
C1552 C1551 1.392 . S
C1553 C1554 1.376 . S
C1553 C1558 1.386 . S
C1553 C1559 1.483 . S
C1554 H1529 0.949 . S
C1554 C1553 1.376 . S
C1554 C1555 1.397 . S
C1555 H1530 0.950 . S
C1555 C1554 1.397 . S
C1555 C1556 1.391 . S
C1556 C1555 1.391 . S
C1556 C1557 1.405 . S
C1557 H1531 0.950 . S
C1557 C1556 1.405 . S
C1557 C1558 1.367 . S
C1558 H1532 0.950 . S
C1558 C1553 1.386 . S
C1558 C1557 1.367 . S
C1559 C1553 1.483 . S
C1559 C1560 1.385 1_565 S
C1559 C1561 1.403 . S
C1560 H1533 0.950 1_545 S
C1560 C1546 1.407 . S
C1560 C1559 1.385 1_545 S
C1561 C1545 1.411 1_565 S
C1561 C1559 1.403 . S
C1561 C1562 1.489 . S
C1562 C1561 1.489 . S
C1562 C1563 1.383 . S
C1562 C1567 1.382 . S
C1563 H1534 0.950 . S
C1563 C1562 1.383 . S
C1563 C1564 1.395 . S
C1564 H1535 0.950 . S
C1564 C1563 1.395 . S
C1564 C1565 1.288 . S
C1565 C1564 1.288 . S
C1565 C1566 1.392 . S
C1566 H1536 0.951 . S
C1566 C1565 1.392 . S
C1566 C1567 1.392 . S
C1567 H1537 0.949 . S
C1567 C1562 1.382 . S
C1567 C1566 1.392 . S
H1568 C1587 0.949 . S
H1569 C1588 0.950 . S
H1570 C1590 0.950 . S
H1571 C1591 0.950 . S
H1572 C1593 0.957 . S
H1573 C1596 0.950 . S
H1574 C1597 0.950 . S
H1575 C1599 0.951 . S
H1576 C1600 0.949 . S
H1577 C1602 0.949 . S
H1578 C1603 0.950 . S
H1579 C1605 0.950 . S
H1580 C1606 0.950 . S
H1581 C1608 0.950 . S
H1582 C1611 0.950 . S
H1583 C1612 0.950 . S
H1584 C1614 0.951 . S
H1585 C1615 0.949 . S
C1586 C1587 1.376 . S
C1586 C1591 1.386 . S
C1586 C1592 1.483 . S
C1587 H1568 0.949 . S
C1587 C1586 1.376 . S
C1587 C1588 1.397 . S
C1588 H1569 0.950 . S
C1588 C1587 1.397 . S
C1588 C1589 1.391 . S
C1589 C1588 1.391 . S
C1589 C1590 1.405 . S
C1590 H1570 0.950 . S
C1590 C1589 1.405 . S
C1590 C1591 1.367 . S
C1591 H1571 0.950 . S
C1591 C1586 1.386 . S
C1591 C1590 1.367 . S
C1592 C1586 1.483 . S
C1592 C1593 1.466 . S
C1592 C1594 1.403 . S
C1593 H1572 0.957 . S
C1593 C1592 1.466 . S
C1593 C1609 1.326 1_455 S
C1594 C1592 1.403 . S
C1594 C1595 1.489 . S
C1594 C1608 1.443 . S
C1595 C1594 1.489 . S
C1595 C1596 1.383 . S
C1595 C1600 1.382 . S
C1596 H1573 0.950 . S
C1596 C1595 1.383 . S
C1596 C1597 1.395 . S
C1597 H1574 0.950 . S
C1597 C1596 1.395 . S
C1597 C1598 1.288 . S
C1598 C1597 1.288 . S
C1598 C1599 1.392 . S
C1599 H1575 0.951 . S
C1599 C1598 1.392 . S
C1599 C1600 1.392 . S
C1600 H1576 0.949 . S
C1600 C1595 1.382 . S
C1600 C1599 1.392 . S
C1601 C1602 1.376 . S
C1601 C1606 1.386 . S
C1601 C1607 1.483 . S
C1602 H1577 0.949 . S
C1602 C1601 1.376 . S
C1602 C1603 1.397 . S
C1603 H1578 0.950 . S
C1603 C1602 1.397 . S
C1603 C1604 1.391 . S
C1604 C1603 1.391 . S
C1604 C1605 1.405 . S
C1605 H1579 0.950 . S
C1605 C1604 1.405 . S
C1605 C1606 1.367 . S
C1606 H1580 0.950 . S
C1606 C1601 1.386 . S
C1606 C1605 1.367 . S
C1607 C1601 1.483 . S
C1607 C1608 1.350 1_655 S
C1607 C1609 1.403 . S
C1608 H1581 0.950 . S
C1608 C1594 1.443 . S
C1608 C1607 1.350 1_455 S
C1609 C1593 1.326 1_655 S
C1609 C1607 1.403 . S
C1609 C1610 1.489 . S
C1610 C1609 1.489 . S
C1610 C1611 1.383 . S
C1610 C1615 1.382 . S
C1611 H1582 0.950 . S
C1611 C1610 1.383 . S
C1611 C1612 1.395 . S
C1612 H1583 0.950 . S
C1612 C1611 1.395 . S
C1612 C1613 1.288 . S
C1613 C1612 1.288 . S
C1613 C1614 1.392 . S
C1614 H1584 0.951 . S
C1614 C1613 1.392 . S
C1614 C1615 1.392 . S
C1615 H1585 0.949 . S
C1615 C1610 1.382 . S
C1615 C1614 1.392 . S
H1616 C1635 0.949 . S
H1617 C1636 0.950 . S
H1618 C1638 0.950 . S
H1619 C1639 0.950 . S
H1620 C1641 0.950 . S
H1621 C1644 0.950 . S
H1622 C1645 0.950 . S
H1623 C1647 0.951 . S
H1624 C1648 0.949 . S
H1625 C1650 0.949 . S
H1626 C1651 0.950 . S
H1627 C1653 0.950 . S
H1628 C1654 0.950 . S
H1629 C1656 0.950 . S
H1630 C1659 0.950 . S
H1631 C1660 0.950 . S
H1632 C1662 0.951 . S
H1633 C1663 0.949 . S
C1634 C1635 1.376 . S
C1634 C1639 1.386 . S
C1634 C1640 1.483 . S
C1635 H1616 0.949 . S
C1635 C1634 1.376 . S
C1635 C1636 1.397 . S
C1636 H1617 0.950 . S
C1636 C1635 1.397 . S
C1636 C1637 1.391 . S
C1637 C1636 1.391 . S
C1637 C1638 1.405 . S
C1638 H1618 0.950 . S
C1638 C1637 1.405 . S
C1638 C1639 1.367 . S
C1639 H1619 0.950 . S
C1639 C1634 1.386 . S
C1639 C1638 1.367 . S
C1640 C1634 1.483 . S
C1640 C1641 1.382 . S
C1640 C1642 1.403 . S
C1641 H1620 0.950 . S
C1641 C1640 1.382 . S
C1641 C1657 1.411 1_545 S
C1642 C1640 1.403 . S
C1642 C1643 1.489 . S
C1642 C1656 1.411 . S
C1643 C1642 1.489 . S
C1643 C1644 1.383 . S
C1643 C1648 1.382 . S
C1644 H1621 0.950 . S
C1644 C1643 1.383 . S
C1644 C1645 1.395 . S
C1645 H1622 0.950 . S
C1645 C1644 1.395 . S
C1645 C1646 1.288 . S
C1646 C1645 1.288 . S
C1646 C1647 1.392 . S
C1647 H1623 0.951 . S
C1647 C1646 1.392 . S
C1647 C1648 1.392 . S
C1648 H1624 0.949 . S
C1648 C1643 1.382 . S
C1648 C1647 1.392 . S
C1649 C1650 1.376 . S
C1649 C1654 1.386 . S
C1649 C1655 1.483 . S
C1650 H1625 0.949 . S
C1650 C1649 1.376 . S
C1650 C1651 1.397 . S
C1651 H1626 0.950 . S
C1651 C1650 1.397 . S
C1651 C1652 1.391 . S
C1652 C1651 1.391 . S
C1652 C1653 1.405 . S
C1653 H1627 0.950 . S
C1653 C1652 1.405 . S
C1653 C1654 1.367 . S
C1654 H1628 0.950 . S
C1654 C1649 1.386 . S
C1654 C1653 1.367 . S
C1655 C1649 1.483 . S
C1655 C1656 1.382 1_565 S
C1655 C1657 1.403 . S
C1656 H1629 0.950 . S
C1656 C1642 1.411 . S
C1656 C1655 1.382 1_545 S
C1657 C1641 1.411 1_565 S
C1657 C1655 1.403 . S
C1657 C1658 1.489 . S
C1658 C1657 1.489 . S
C1658 C1659 1.383 . S
C1658 C1663 1.382 . S
C1659 H1630 0.950 . S
C1659 C1658 1.383 . S
C1659 C1660 1.395 . S
C1660 H1631 0.950 . S
C1660 C1659 1.395 . S
C1660 C1661 1.288 . S
C1661 C1660 1.288 . S
C1661 C1662 1.392 . S
C1662 H1632 0.951 . S
C1662 C1661 1.392 . S
C1662 C1663 1.392 . S
C1663 H1633 0.949 . S
C1663 C1658 1.382 . S
C1663 C1662 1.392 . S
H1664 C1683 0.949 . S
H1665 C1684 0.950 . S
H1666 C1686 0.950 . S
H1667 C1687 0.950 . S
H1668 C1689 0.950 . S
H1669 C1692 0.950 . S
H1670 C1693 0.950 . S
H1671 C1695 0.951 . S
H1672 C1696 0.949 . S
H1673 C1698 0.949 . S
H1674 C1699 0.950 . S
H1675 C1701 0.950 . S
H1676 C1702 0.950 . S
H1677 C1704 0.958 . S
H1678 C1707 0.950 . S
H1679 C1708 0.950 . S
H1680 C1710 0.951 . S
H1681 C1711 0.949 . S
C1682 C1683 1.376 . S
C1682 C1687 1.386 . S
C1682 C1688 1.483 . S
C1683 H1664 0.949 . S
C1683 C1682 1.376 . S
C1683 C1684 1.397 . S
C1684 H1665 0.950 . S
C1684 C1683 1.397 . S
C1684 C1685 1.391 . S
C1685 C1684 1.391 . S
C1685 C1686 1.405 . S
C1686 H1666 0.950 . S
C1686 C1685 1.405 . S
C1686 C1687 1.367 . S
C1687 H1667 0.950 . S
C1687 C1682 1.386 . S
C1687 C1686 1.367 . S
C1688 C1682 1.483 . S
C1688 C1689 1.382 . S
C1688 C1690 1.403 . S
C1689 H1668 0.950 . S
C1689 C1688 1.382 . S
C1689 C1705 1.411 1_455 S
C1690 C1688 1.403 . S
C1690 C1691 1.489 . S
C1690 C1704 1.411 . S
C1691 C1690 1.489 . S
C1691 C1692 1.383 . S
C1691 C1696 1.382 . S
C1692 H1669 0.950 . S
C1692 C1691 1.383 . S
C1692 C1693 1.395 . S
C1693 H1670 0.950 . S
C1693 C1692 1.395 . S
C1693 C1694 1.288 . S
C1694 C1693 1.288 . S
C1694 C1695 1.392 . S
C1695 H1671 0.951 . S
C1695 C1694 1.392 . S
C1695 C1696 1.392 . S
C1696 H1672 0.949 . S
C1696 C1691 1.382 . S
C1696 C1695 1.392 . S
C1697 C1698 1.376 . S
C1697 C1702 1.386 . S
C1697 C1703 1.483 . S
C1698 H1673 0.949 . S
C1698 C1697 1.376 . S
C1698 C1699 1.397 . S
C1699 H1674 0.950 . S
C1699 C1698 1.397 . S
C1699 C1700 1.391 . S
C1700 C1699 1.391 . S
C1700 C1701 1.405 . S
C1701 H1675 0.950 . S
C1701 C1700 1.405 . S
C1701 C1702 1.367 . S
C1702 H1676 0.950 . S
C1702 C1697 1.386 . S
C1702 C1701 1.367 . S
C1703 C1697 1.483 . S
C1703 C1704 1.382 1_655 S
C1703 C1705 1.403 . S
C1704 H1677 0.958 . S
C1704 C1690 1.411 . S
C1704 C1703 1.382 1_455 S
C1705 C1689 1.411 1_655 S
C1705 C1703 1.403 . S
C1705 C1706 1.489 . S
C1706 C1705 1.489 . S
C1706 C1707 1.383 . S
C1706 C1711 1.382 . S
C1707 H1678 0.950 . S
C1707 C1706 1.383 . S
C1707 C1708 1.395 . S
C1708 H1679 0.950 . S
C1708 C1707 1.395 . S
C1708 C1709 1.288 . S
C1709 C1708 1.288 . S
C1709 C1710 1.392 . S
C1710 H1680 0.951 . S
C1710 C1709 1.392 . S
C1710 C1711 1.392 . S
C1711 H1681 0.949 . S
C1711 C1706 1.382 . S
C1711 C1710 1.392 . S
H1712 C1731 0.949 . S
H1713 C1732 0.950 . S
H1714 C1734 0.950 . S
H1715 C1735 0.950 . S
H1716 C1737 0.950 . S
H1717 C1740 0.950 . S
H1718 C1741 0.950 . S
H1719 C1743 0.951 . S
H1720 C1744 0.949 . S
H1721 C1746 0.949 . S
H1722 C1747 0.950 . S
H1723 C1749 0.950 . S
H1724 C1750 0.950 . S
H1725 C1752 0.950 1_565 S
H1726 C1755 0.950 . S
H1727 C1756 0.950 . S
H1728 C1758 0.951 . S
H1729 C1759 0.949 . S
C1730 C1731 1.376 . S
C1730 C1735 1.386 . S
C1730 C1736 1.483 . S
C1731 H1712 0.949 . S
C1731 C1730 1.376 . S
C1731 C1732 1.397 . S
C1732 H1713 0.950 . S
C1732 C1731 1.397 . S
C1732 C1733 1.391 . S
C1733 C1732 1.391 . S
C1733 C1734 1.405 . S
C1734 H1714 0.950 . S
C1734 C1733 1.405 . S
C1734 C1735 1.367 . S
C1735 H1715 0.950 . S
C1735 C1730 1.386 . S
C1735 C1734 1.367 . S
C1736 C1730 1.483 . S
C1736 C1737 1.382 . S
C1736 C1738 1.403 . S
C1737 H1716 0.950 . S
C1737 C1736 1.382 . S
C1737 C1753 1.411 1_545 S
C1738 C1736 1.403 . S
C1738 C1739 1.489 . S
C1738 C1752 1.409 . S
C1739 C1738 1.489 . S
C1739 C1740 1.383 . S
C1739 C1744 1.382 . S
C1740 H1717 0.950 . S
C1740 C1739 1.383 . S
C1740 C1741 1.395 . S
C1741 H1718 0.950 . S
C1741 C1740 1.395 . S
C1741 C1742 1.288 . S
C1742 C1741 1.288 . S
C1742 C1743 1.392 . S
C1743 H1719 0.951 . S
C1743 C1742 1.392 . S
C1743 C1744 1.392 . S
C1744 H1720 0.949 . S
C1744 C1739 1.382 . S
C1744 C1743 1.392 . S
C1745 C1746 1.376 . S
C1745 C1750 1.386 . S
C1745 C1751 1.483 . S
C1746 H1721 0.949 . S
C1746 C1745 1.376 . S
C1746 C1747 1.397 . S
C1747 H1722 0.950 . S
C1747 C1746 1.397 . S
C1747 C1748 1.391 . S
C1748 C1747 1.391 . S
C1748 C1749 1.405 . S
C1749 H1723 0.950 . S
C1749 C1748 1.405 . S
C1749 C1750 1.367 . S
C1750 H1724 0.950 . S
C1750 C1745 1.386 . S
C1750 C1749 1.367 . S
C1751 C1745 1.483 . S
C1751 C1752 1.384 1_565 S
C1751 C1753 1.403 . S
C1752 H1725 0.950 1_545 S
C1752 C1738 1.409 . S
C1752 C1751 1.384 1_545 S
C1753 C1737 1.411 1_565 S
C1753 C1751 1.403 . S
C1753 C1754 1.489 . S
C1754 C1753 1.489 . S
C1754 C1755 1.383 . S
C1754 C1759 1.382 . S
C1755 H1726 0.950 . S
C1755 C1754 1.383 . S
C1755 C1756 1.395 . S
C1756 H1727 0.950 . S
C1756 C1755 1.395 . S
C1756 C1757 1.288 . S
C1757 C1756 1.288 . S
C1757 C1758 1.392 . S
C1758 H1728 0.951 . S
C1758 C1757 1.392 . S
C1758 C1759 1.392 . S
C1759 H1729 0.949 . S
C1759 C1754 1.382 . S
C1759 C1758 1.392 . S
H1760 C1779 0.949 . S
H1761 C1780 0.950 . S
H1762 C1782 0.950 . S
H1763 C1783 0.950 . S
H1764 C1785 0.950 . S
H1765 C1788 0.950 . S
H1766 C1789 0.950 . S
H1767 C1791 0.951 . S
H1768 C1792 0.949 . S
H1769 C1794 0.949 . S
H1770 C1795 0.950 . S
H1771 C1797 0.950 . S
H1772 C1798 0.950 . S
H1773 C1800 0.950 . S
H1774 C1803 0.950 . S
H1775 C1804 0.950 . S
H1776 C1806 0.951 . S
H1777 C1807 0.949 . S
C1778 C1779 1.376 . S
C1778 C1783 1.386 . S
C1778 C1784 1.483 . S
C1779 H1760 0.949 . S
C1779 C1778 1.376 . S
C1779 C1780 1.397 . S
C1780 H1761 0.950 . S
C1780 C1779 1.397 . S
C1780 C1781 1.391 . S
C1781 C1780 1.391 . S
C1781 C1782 1.405 . S
C1782 H1762 0.950 . S
C1782 C1781 1.405 . S
C1782 C1783 1.367 . S
C1783 H1763 0.950 . S
C1783 C1778 1.386 . S
C1783 C1782 1.367 . S
C1784 C1778 1.483 . S
C1784 C1785 1.354 1_655 S
C1784 C1786 1.403 . S
C1785 H1764 0.950 . S
C1785 C1784 1.354 1_455 S
C1785 C1801 1.440 . S
C1786 C1784 1.403 . S
C1786 C1787 1.489 . S
C1786 C1800 1.411 1_655 S
C1787 C1786 1.489 . S
C1787 C1788 1.383 . S
C1787 C1792 1.382 . S
C1788 H1765 0.950 . S
C1788 C1787 1.383 . S
C1788 C1789 1.395 . S
C1789 H1766 0.950 . S
C1789 C1788 1.395 . S
C1789 C1790 1.288 . S
C1790 C1789 1.288 . S
C1790 C1791 1.392 . S
C1791 H1767 0.951 . S
C1791 C1790 1.392 . S
C1791 C1792 1.392 . S
C1792 H1768 0.949 . S
C1792 C1787 1.382 . S
C1792 C1791 1.392 . S
C1793 C1794 1.376 . S
C1793 C1798 1.386 . S
C1793 C1799 1.483 . S
C1794 H1769 0.949 . S
C1794 C1793 1.376 . S
C1794 C1795 1.397 . S
C1795 H1770 0.950 . S
C1795 C1794 1.397 . S
C1795 C1796 1.391 . S
C1796 C1795 1.391 . S
C1796 C1797 1.405 . S
C1797 H1771 0.950 . S
C1797 C1796 1.405 . S
C1797 C1798 1.367 . S
C1798 H1772 0.950 . S
C1798 C1793 1.386 . S
C1798 C1797 1.367 . S
C1799 C1793 1.483 . S
C1799 C1800 1.382 . S
C1799 C1801 1.403 . S
C1800 H1773 0.950 . S
C1800 C1786 1.411 1_455 S
C1800 C1799 1.382 . S
C1801 C1785 1.440 . S
C1801 C1799 1.403 . S
C1801 C1802 1.489 . S
C1802 C1801 1.489 . S
C1802 C1803 1.383 . S
C1802 C1807 1.382 . S
C1803 H1774 0.950 . S
C1803 C1802 1.383 . S
C1803 C1804 1.395 . S
C1804 H1775 0.950 . S
C1804 C1803 1.395 . S
C1804 C1805 1.288 . S
C1805 C1804 1.288 . S
C1805 C1806 1.392 . S
C1806 H1776 0.951 . S
C1806 C1805 1.392 . S
C1806 C1807 1.392 . S
C1807 H1777 0.949 . S
C1807 C1802 1.382 . S
C1807 C1806 1.392 . S
H1808 C1827 0.949 . S
H1809 C1828 0.950 . S
H1810 C1830 0.950 . S
H1811 C1831 0.950 . S
H1812 C1833 0.950 . S
H1813 C1836 0.950 . S
H1814 C1837 0.950 . S
H1815 C1839 0.951 . S
H1816 C1840 0.949 . S
H1817 C1842 0.949 . S
H1818 C1843 0.950 . S
H1819 C1845 0.950 . S
H1820 C1846 0.950 . S
H1821 C1848 0.950 . S
H1822 C1851 0.950 . S
H1823 C1852 0.950 . S
H1824 C1854 0.951 . S
H1825 C1855 0.949 . S
C1826 C1827 1.376 . S
C1826 C1831 1.386 . S
C1826 C1832 1.483 . S
C1827 H1808 0.949 . S
C1827 C1826 1.376 . S
C1827 C1828 1.397 . S
C1828 H1809 0.950 . S
C1828 C1827 1.397 . S
C1828 C1829 1.391 . S
C1829 C1828 1.391 . S
C1829 C1830 1.405 . S
C1830 H1810 0.950 . S
C1830 C1829 1.405 . S
C1830 C1831 1.367 . S
C1831 H1811 0.950 . S
C1831 C1826 1.386 . S
C1831 C1830 1.367 . S
C1832 C1826 1.483 . S
C1832 C1833 1.382 . S
C1832 C1834 1.403 . S
C1833 H1812 0.950 . S
C1833 C1832 1.382 . S
C1833 C1849 1.411 1_545 S
C1834 C1832 1.403 . S
C1834 C1835 1.489 . S
C1834 C1848 1.411 . S
C1835 C1834 1.489 . S
C1835 C1836 1.383 . S
C1835 C1840 1.382 . S
C1836 H1813 0.950 . S
C1836 C1835 1.383 . S
C1836 C1837 1.395 . S
C1837 H1814 0.950 . S
C1837 C1836 1.395 . S
C1837 C1838 1.288 . S
C1838 C1837 1.288 . S
C1838 C1839 1.392 . S
C1839 H1815 0.951 . S
C1839 C1838 1.392 . S
C1839 C1840 1.392 . S
C1840 H1816 0.949 . S
C1840 C1835 1.382 . S
C1840 C1839 1.392 . S
C1841 C1842 1.376 . S
C1841 C1846 1.386 . S
C1841 C1847 1.483 . S
C1842 H1817 0.949 . S
C1842 C1841 1.376 . S
C1842 C1843 1.397 . S
C1843 H1818 0.950 . S
C1843 C1842 1.397 . S
C1843 C1844 1.391 . S
C1844 C1843 1.391 . S
C1844 C1845 1.405 . S
C1845 H1819 0.950 . S
C1845 C1844 1.405 . S
C1845 C1846 1.367 . S
C1846 H1820 0.950 . S
C1846 C1841 1.386 . S
C1846 C1845 1.367 . S
C1847 C1841 1.483 . S
C1847 C1848 1.382 1_565 S
C1847 C1849 1.403 . S
C1848 H1821 0.950 . S
C1848 C1834 1.411 . S
C1848 C1847 1.382 1_545 S
C1849 C1833 1.411 1_565 S
C1849 C1847 1.403 . S
C1849 C1850 1.489 . S
C1850 C1849 1.489 . S
C1850 C1851 1.383 . S
C1850 C1855 1.382 . S
C1851 H1822 0.950 . S
C1851 C1850 1.383 . S
C1851 C1852 1.395 . S
C1852 H1823 0.950 . S
C1852 C1851 1.395 . S
C1852 C1853 1.288 . S
C1853 C1852 1.288 . S
C1853 C1854 1.392 . S
C1854 H1824 0.951 . S
C1854 C1853 1.392 . S
C1854 C1855 1.392 . S
C1855 H1825 0.949 . S
C1855 C1850 1.382 . S
C1855 C1854 1.392 . S
H1856 C1875 0.949 . S
H1857 C1876 0.950 . S
H1858 C1878 0.950 . S
H1859 C1879 0.950 . S
H1860 C1881 0.950 . S
H1861 C1884 0.950 . S
H1862 C1885 0.950 . S
H1863 C1887 0.951 . S
H1864 C1888 0.949 . S
H1865 C1890 0.949 . S
H1866 C1891 0.950 . S
H1867 C1893 0.950 . S
H1868 C1894 0.950 . S
H1869 C1896 0.950 . S
H1870 C1899 0.950 . S
H1871 C1900 0.950 . S
H1872 C1902 0.951 . S
H1873 C1903 0.949 . S
C1874 C1875 1.376 . S
C1874 C1879 1.386 . S
C1874 C1880 1.483 . S
C1875 H1856 0.949 . S
C1875 C1874 1.376 . S
C1875 C1876 1.397 . S
C1876 H1857 0.950 . S
C1876 C1875 1.397 . S
C1876 C1877 1.391 . S
C1877 C1876 1.391 . S
C1877 C1878 1.405 . S
C1878 H1858 0.950 . S
C1878 C1877 1.405 . S
C1878 C1879 1.367 . S
C1879 H1859 0.950 . S
C1879 C1874 1.386 . S
C1879 C1878 1.367 . S
C1880 C1874 1.483 . S
C1880 C1881 1.382 . S
C1880 C1882 1.403 . S
C1881 H1860 0.950 . S
C1881 C1880 1.382 . S
C1881 C1897 1.411 . S
C1882 C1880 1.403 . S
C1882 C1883 1.489 . S
C1882 C1896 1.411 . S
C1883 C1882 1.489 . S
C1883 C1884 1.383 . S
C1883 C1888 1.382 . S
C1884 H1861 0.950 . S
C1884 C1883 1.383 . S
C1884 C1885 1.395 . S
C1885 H1862 0.950 . S
C1885 C1884 1.395 . S
C1885 C1886 1.288 . S
C1886 C1885 1.288 . S
C1886 C1887 1.392 . S
C1887 H1863 0.951 . S
C1887 C1886 1.392 . S
C1887 C1888 1.392 . S
C1888 H1864 0.949 . S
C1888 C1883 1.382 . S
C1888 C1887 1.392 . S
C1889 C1890 1.376 . S
C1889 C1894 1.386 . S
C1889 C1895 1.483 . S
C1890 H1865 0.949 . S
C1890 C1889 1.376 . S
C1890 C1891 1.397 . S
C1891 H1866 0.950 . S
C1891 C1890 1.397 . S
C1891 C1892 1.391 . S
C1892 C1891 1.391 . S
C1892 C1893 1.405 . S
C1893 H1867 0.950 . S
C1893 C1892 1.405 . S
C1893 C1894 1.367 . S
C1894 H1868 0.950 . S
C1894 C1889 1.386 . S
C1894 C1893 1.367 . S
C1895 C1889 1.483 . S
C1895 C1896 1.382 . S
C1895 C1897 1.403 . S
C1896 H1869 0.950 . S
C1896 C1882 1.411 . S
C1896 C1895 1.382 . S
C1897 C1881 1.411 . S
C1897 C1895 1.403 . S
C1897 C1898 1.489 . S
C1898 C1897 1.489 . S
C1898 C1899 1.383 . S
C1898 C1903 1.382 . S
C1899 H1870 0.950 . S
C1899 C1898 1.383 . S
C1899 C1900 1.395 . S
C1900 H1871 0.950 . S
C1900 C1899 1.395 . S
C1900 C1901 1.288 . S
C1901 C1900 1.288 . S
C1901 C1902 1.392 . S
C1902 H1872 0.951 . S
C1902 C1901 1.392 . S
C1902 C1903 1.392 . S
C1903 H1873 0.949 . S
C1903 C1898 1.382 . S
C1903 C1902 1.392 . S
H1904 C1923 0.949 . S
H1905 C1924 0.950 . S
H1906 C1926 0.950 . S
H1907 C1927 0.950 . S
H1908 C1929 0.950 . S
H1909 C1932 0.950 . S
H1910 C1933 0.950 . S
H1911 C1935 0.951 . S
H1912 C1936 0.949 . S
H1913 C1938 0.949 . S
H1914 C1939 0.950 . S
H1915 C1941 0.950 . S
H1916 C1942 0.950 . S
H1917 C1944 0.950 . S
H1918 C1947 0.950 . S
H1919 C1948 0.950 . S
H1920 C1950 0.951 . S
H1921 C1951 0.949 . S
C1922 C1923 1.376 . S
C1922 C1927 1.386 . S
C1922 C1928 1.483 . S
C1923 H1904 0.949 . S
C1923 C1922 1.376 . S
C1923 C1924 1.397 . S
C1924 H1905 0.950 . S
C1924 C1923 1.397 . S
C1924 C1925 1.391 . S
C1925 C1924 1.391 . S
C1925 C1926 1.405 . S
C1926 H1906 0.950 . S
C1926 C1925 1.405 . S
C1926 C1927 1.367 . S
C1927 H1907 0.950 . S
C1927 C1922 1.386 . S
C1927 C1926 1.367 . S
C1928 C1922 1.483 . S
C1928 C1929 1.382 . S
C1928 C1930 1.403 . S
C1929 H1908 0.950 . S
C1929 C1928 1.382 . S
C1929 C1945 1.411 . S
C1930 C1928 1.403 . S
C1930 C1931 1.489 . S
C1930 C1944 1.411 . S
C1931 C1930 1.489 . S
C1931 C1932 1.383 . S
C1931 C1936 1.382 . S
C1932 H1909 0.950 . S
C1932 C1931 1.383 . S
C1932 C1933 1.395 . S
C1933 H1910 0.950 . S
C1933 C1932 1.395 . S
C1933 C1934 1.288 . S
C1934 C1933 1.288 . S
C1934 C1935 1.392 . S
C1935 H1911 0.951 . S
C1935 C1934 1.392 . S
C1935 C1936 1.392 . S
C1936 H1912 0.949 . S
C1936 C1931 1.382 . S
C1936 C1935 1.392 . S
C1937 C1938 1.376 . S
C1937 C1942 1.386 . S
C1937 C1943 1.483 . S
C1938 H1913 0.949 . S
C1938 C1937 1.376 . S
C1938 C1939 1.397 . S
C1939 H1914 0.950 . S
C1939 C1938 1.397 . S
C1939 C1940 1.391 . S
C1940 C1939 1.391 . S
C1940 C1941 1.405 . S
C1941 H1915 0.950 . S
C1941 C1940 1.405 . S
C1941 C1942 1.367 . S
C1942 H1916 0.950 . S
C1942 C1937 1.386 . S
C1942 C1941 1.367 . S
C1943 C1937 1.483 . S
C1943 C1944 1.382 . S
C1943 C1945 1.403 . S
C1944 H1917 0.950 . S
C1944 C1930 1.411 . S
C1944 C1943 1.382 . S
C1945 C1929 1.411 . S
C1945 C1943 1.403 . S
C1945 C1946 1.489 . S
C1946 C1945 1.489 . S
C1946 C1947 1.383 . S
C1946 C1951 1.382 . S
C1947 H1918 0.950 . S
C1947 C1946 1.383 . S
C1947 C1948 1.395 . S
C1948 H1919 0.950 . S
C1948 C1947 1.395 . S
C1948 C1949 1.288 . S
C1949 C1948 1.288 . S
C1949 C1950 1.392 . S
C1950 H1920 0.951 . S
C1950 C1949 1.392 . S
C1950 C1951 1.392 . S
C1951 H1921 0.949 . S
C1951 C1946 1.382 . S
C1951 C1950 1.392 . S
H1952 C1971 0.949 . S
H1953 C1972 0.950 . S
H1954 C1974 0.950 . S
H1955 C1975 0.950 . S
H1956 C1977 0.950 . S
H1957 C1980 0.950 . S
H1958 C1981 0.950 . S
H1959 C1983 0.951 . S
H1960 C1984 0.949 . S
H1961 C1986 0.949 . S
H1962 C1987 0.950 . S
H1963 C1989 0.950 . S
H1964 C1990 0.950 . S
H1965 C1992 0.950 . S
H1966 C1995 0.950 . S
H1967 C1996 0.950 . S
H1968 C1998 0.951 . S
H1969 C1999 0.949 . S
C1970 C1971 1.376 . S
C1970 C1975 1.386 . S
C1970 C1976 1.483 . S
C1971 H1952 0.949 . S
C1971 C1970 1.376 . S
C1971 C1972 1.397 . S
C1972 H1953 0.950 . S
C1972 C1971 1.397 . S
C1972 C1973 1.391 . S
C1973 C1972 1.391 . S
C1973 C1974 1.405 . S
C1974 H1954 0.950 . S
C1974 C1973 1.405 . S
C1974 C1975 1.367 . S
C1975 H1955 0.950 . S
C1975 C1970 1.386 . S
C1975 C1974 1.367 . S
C1976 C1970 1.483 . S
C1976 C1977 1.382 . S
C1976 C1978 1.403 . S
C1977 H1956 0.950 . S
C1977 C1976 1.382 . S
C1977 C1993 1.411 . S
C1978 C1976 1.403 . S
C1978 C1979 1.489 . S
C1978 C1992 1.411 . S
C1979 C1978 1.489 . S
C1979 C1980 1.383 . S
C1979 C1984 1.382 . S
C1980 H1957 0.950 . S
C1980 C1979 1.383 . S
C1980 C1981 1.395 . S
C1981 H1958 0.950 . S
C1981 C1980 1.395 . S
C1981 C1982 1.288 . S
C1982 C1981 1.288 . S
C1982 C1983 1.392 . S
C1983 H1959 0.951 . S
C1983 C1982 1.392 . S
C1983 C1984 1.392 . S
C1984 H1960 0.949 . S
C1984 C1979 1.382 . S
C1984 C1983 1.392 . S
C1985 C1986 1.376 . S
C1985 C1990 1.386 . S
C1985 C1991 1.483 . S
C1986 H1961 0.949 . S
C1986 C1985 1.376 . S
C1986 C1987 1.397 . S
C1987 H1962 0.950 . S
C1987 C1986 1.397 . S
C1987 C1988 1.391 . S
C1988 C1987 1.391 . S
C1988 C1989 1.405 . S
C1989 H1963 0.950 . S
C1989 C1988 1.405 . S
C1989 C1990 1.367 . S
C1990 H1964 0.950 . S
C1990 C1985 1.386 . S
C1990 C1989 1.367 . S
C1991 C1985 1.483 . S
C1991 C1992 1.382 . S
C1991 C1993 1.403 . S
C1992 H1965 0.950 . S
C1992 C1978 1.411 . S
C1992 C1991 1.382 . S
C1993 C1977 1.411 . S
C1993 C1991 1.403 . S
C1993 C1994 1.489 . S
C1994 C1993 1.489 . S
C1994 C1995 1.383 . S
C1994 C1999 1.382 . S
C1995 H1966 0.950 . S
C1995 C1994 1.383 . S
C1995 C1996 1.395 . S
C1996 H1967 0.950 . S
C1996 C1995 1.395 . S
C1996 C1997 1.288 . S
C1997 C1996 1.288 . S
C1997 C1998 1.392 . S
C1998 H1968 0.951 . S
C1998 C1997 1.392 . S
C1998 C1999 1.392 . S
C1999 H1969 0.949 . S
C1999 C1994 1.382 . S
C1999 C1998 1.392 . S
H2000 C2019 0.949 . S
H2001 C2020 0.950 . S
H2002 C2022 0.950 . S
H2003 C2023 0.950 . S
H2004 C2025 0.950 . S
H2005 C2028 0.950 . S
H2006 C2029 0.950 . S
H2007 C2031 0.951 . S
H2008 C2032 0.949 . S
H2009 C2034 0.949 . S
H2010 C2035 0.950 . S
H2011 C2037 0.950 . S
H2012 C2038 0.950 . S
H2013 C2040 0.950 . S
H2014 C2043 0.950 . S
H2015 C2044 0.950 . S
H2016 C2046 0.951 . S
H2017 C2047 0.949 . S
C2018 C2019 1.376 . S
C2018 C2023 1.386 . S
C2018 C2024 1.483 . S
C2019 H2000 0.949 . S
C2019 C2018 1.376 . S
C2019 C2020 1.397 . S
C2020 H2001 0.950 . S
C2020 C2019 1.397 . S
C2020 C2021 1.391 . S
C2021 C2020 1.391 . S
C2021 C2022 1.405 . S
C2022 H2002 0.950 . S
C2022 C2021 1.405 . S
C2022 C2023 1.367 . S
C2023 H2003 0.950 . S
C2023 C2018 1.386 . S
C2023 C2022 1.367 . S
C2024 C2018 1.483 . S
C2024 C2025 1.382 . S
C2024 C2026 1.403 . S
C2025 H2004 0.950 . S
C2025 C2024 1.382 . S
C2025 C2041 1.411 . S
C2026 C2024 1.403 . S
C2026 C2027 1.489 . S
C2026 C2040 1.411 . S
C2027 C2026 1.489 . S
C2027 C2028 1.383 . S
C2027 C2032 1.382 . S
C2028 H2005 0.950 . S
C2028 C2027 1.383 . S
C2028 C2029 1.395 . S
C2029 H2006 0.950 . S
C2029 C2028 1.395 . S
C2029 C2030 1.288 . S
C2030 C2029 1.288 . S
C2030 C2031 1.392 . S
C2031 H2007 0.951 . S
C2031 C2030 1.392 . S
C2031 C2032 1.392 . S
C2032 H2008 0.949 . S
C2032 C2027 1.382 . S
C2032 C2031 1.392 . S
C2033 C2034 1.376 . S
C2033 C2038 1.386 . S
C2033 C2039 1.483 . S
C2034 H2009 0.949 . S
C2034 C2033 1.376 . S
C2034 C2035 1.397 . S
C2035 H2010 0.950 . S
C2035 C2034 1.397 . S
C2035 C2036 1.391 . S
C2036 C2035 1.391 . S
C2036 C2037 1.405 . S
C2037 H2011 0.950 . S
C2037 C2036 1.405 . S
C2037 C2038 1.367 . S
C2038 H2012 0.950 . S
C2038 C2033 1.386 . S
C2038 C2037 1.367 . S
C2039 C2033 1.483 . S
C2039 C2040 1.382 . S
C2039 C2041 1.403 . S
C2040 H2013 0.950 . S
C2040 C2026 1.411 . S
C2040 C2039 1.382 . S
C2041 C2025 1.411 . S
C2041 C2039 1.403 . S
C2041 C2042 1.489 . S
C2042 C2041 1.489 . S
C2042 C2043 1.383 . S
C2042 C2047 1.382 . S
C2043 H2014 0.950 . S
C2043 C2042 1.383 . S
C2043 C2044 1.395 . S
C2044 H2015 0.950 . S
C2044 C2043 1.395 . S
C2044 C2045 1.288 . S
C2045 C2044 1.288 . S
C2045 C2046 1.392 . S
C2046 H2016 0.951 . S
C2046 C2045 1.392 . S
C2046 C2047 1.392 . S
C2047 H2017 0.949 . S
C2047 C2042 1.382 . S
C2047 C2046 1.392 . S
H2048 C2067 0.949 . S
H2049 C2068 0.950 . S
H2050 C2070 0.950 . S
H2051 C2071 0.950 . S
H2052 C2073 0.950 . S
H2053 C2076 0.950 . S
H2054 C2077 0.950 . S
H2055 C2079 0.951 . S
H2056 C2080 0.949 . S
H2057 C2082 0.949 . S
H2058 C2083 0.950 . S
H2059 C2085 0.950 . S
H2060 C2086 0.950 . S
H2061 C2088 0.950 . S
H2062 C2091 0.950 . S
H2063 C2092 0.950 . S
H2064 C2094 0.951 . S
H2065 C2095 0.949 . S
C2066 C2067 1.376 . S
C2066 C2071 1.386 . S
C2066 C2072 1.483 . S
C2067 H2048 0.949 . S
C2067 C2066 1.376 . S
C2067 C2068 1.397 . S
C2068 H2049 0.950 . S
C2068 C2067 1.397 . S
C2068 C2069 1.391 . S
C2069 C2068 1.391 . S
C2069 C2070 1.405 . S
C2070 H2050 0.950 . S
C2070 C2069 1.405 . S
C2070 C2071 1.367 . S
C2071 H2051 0.950 . S
C2071 C2066 1.386 . S
C2071 C2070 1.367 . S
C2072 C2066 1.483 . S
C2072 C2073 1.382 . S
C2072 C2074 1.403 . S
C2073 H2052 0.950 . S
C2073 C2072 1.382 . S
C2073 C2089 1.411 . S
C2074 C2072 1.403 . S
C2074 C2075 1.489 . S
C2074 C2088 1.411 . S
C2075 C2074 1.489 . S
C2075 C2076 1.383 . S
C2075 C2080 1.382 . S
C2076 H2053 0.950 . S
C2076 C2075 1.383 . S
C2076 C2077 1.395 . S
C2077 H2054 0.950 . S
C2077 C2076 1.395 . S
C2077 C2078 1.288 . S
C2078 C2077 1.288 . S
C2078 C2079 1.392 . S
C2079 H2055 0.951 . S
C2079 C2078 1.392 . S
C2079 C2080 1.392 . S
C2080 H2056 0.949 . S
C2080 C2075 1.382 . S
C2080 C2079 1.392 . S
C2081 C2082 1.376 . S
C2081 C2086 1.386 . S
C2081 C2087 1.483 . S
C2082 H2057 0.949 . S
C2082 C2081 1.376 . S
C2082 C2083 1.397 . S
C2083 H2058 0.950 . S
C2083 C2082 1.397 . S
C2083 C2084 1.391 . S
C2084 C2083 1.391 . S
C2084 C2085 1.405 . S
C2085 H2059 0.950 . S
C2085 C2084 1.405 . S
C2085 C2086 1.367 . S
C2086 H2060 0.950 . S
C2086 C2081 1.386 . S
C2086 C2085 1.367 . S
C2087 C2081 1.483 . S
C2087 C2088 1.382 . S
C2087 C2089 1.403 . S
C2088 H2061 0.950 . S
C2088 C2074 1.411 . S
C2088 C2087 1.382 . S
C2089 C2073 1.411 . S
C2089 C2087 1.403 . S
C2089 C2090 1.489 . S
C2090 C2089 1.489 . S
C2090 C2091 1.383 . S
C2090 C2095 1.382 . S
C2091 H2062 0.950 . S
C2091 C2090 1.383 . S
C2091 C2092 1.395 . S
C2092 H2063 0.950 . S
C2092 C2091 1.395 . S
C2092 C2093 1.288 . S
C2093 C2092 1.288 . S
C2093 C2094 1.392 . S
C2094 H2064 0.951 . S
C2094 C2093 1.392 . S
C2094 C2095 1.392 . S
C2095 H2065 0.949 . S
C2095 C2090 1.382 . S
C2095 C2094 1.392 . S
H2096 C2115 0.949 . S
H2097 C2116 0.950 . S
H2098 C2118 0.950 . S
H2099 C2119 0.950 . S
H2100 C2121 0.950 . S
H2101 C2124 0.950 . S
H2102 C2125 0.950 . S
H2103 C2127 0.951 . S
H2104 C2128 0.949 . S
H2105 C2130 0.949 . S
H2106 C2131 0.950 . S
H2107 C2133 0.950 . S
H2108 C2134 0.950 . S
H2109 C2136 0.950 . S
H2110 C2139 0.950 . S
H2111 C2140 0.950 . S
H2112 C2142 0.951 . S
H2113 C2143 0.949 . S
C2114 C2115 1.376 . S
C2114 C2119 1.386 . S
C2114 C2120 1.483 . S
C2115 H2096 0.949 . S
C2115 C2114 1.376 . S
C2115 C2116 1.397 . S
C2116 H2097 0.950 . S
C2116 C2115 1.397 . S
C2116 C2117 1.391 . S
C2117 C2116 1.391 . S
C2117 C2118 1.405 . S
C2118 H2098 0.950 . S
C2118 C2117 1.405 . S
C2118 C2119 1.367 . S
C2119 H2099 0.950 . S
C2119 C2114 1.386 . S
C2119 C2118 1.367 . S
C2120 C2114 1.483 . S
C2120 C2121 1.382 . S
C2120 C2122 1.403 . S
C2121 H2100 0.950 . S
C2121 C2120 1.382 . S
C2121 C2137 1.411 . S
C2122 C2120 1.403 . S
C2122 C2123 1.489 . S
C2122 C2136 1.411 . S
C2123 C2122 1.489 . S
C2123 C2124 1.383 . S
C2123 C2128 1.382 . S
C2124 H2101 0.950 . S
C2124 C2123 1.383 . S
C2124 C2125 1.395 . S
C2125 H2102 0.950 . S
C2125 C2124 1.395 . S
C2125 C2126 1.288 . S
C2126 C2125 1.288 . S
C2126 C2127 1.392 . S
C2127 H2103 0.951 . S
C2127 C2126 1.392 . S
C2127 C2128 1.392 . S
C2128 H2104 0.949 . S
C2128 C2123 1.382 . S
C2128 C2127 1.392 . S
C2129 C2130 1.376 . S
C2129 C2134 1.386 . S
C2129 C2135 1.483 . S
C2130 H2105 0.949 . S
C2130 C2129 1.376 . S
C2130 C2131 1.397 . S
C2131 H2106 0.950 . S
C2131 C2130 1.397 . S
C2131 C2132 1.391 . S
C2132 C2131 1.391 . S
C2132 C2133 1.405 . S
C2133 H2107 0.950 . S
C2133 C2132 1.405 . S
C2133 C2134 1.367 . S
C2134 H2108 0.950 . S
C2134 C2129 1.386 . S
C2134 C2133 1.367 . S
C2135 C2129 1.483 . S
C2135 C2136 1.382 . S
C2135 C2137 1.403 . S
C2136 H2109 0.950 . S
C2136 C2122 1.411 . S
C2136 C2135 1.382 . S
C2137 C2121 1.411 . S
C2137 C2135 1.403 . S
C2137 C2138 1.489 . S
C2138 C2137 1.489 . S
C2138 C2139 1.383 . S
C2138 C2143 1.382 . S
C2139 H2110 0.950 . S
C2139 C2138 1.383 . S
C2139 C2140 1.395 . S
C2140 H2111 0.950 . S
C2140 C2139 1.395 . S
C2140 C2141 1.288 . S
C2141 C2140 1.288 . S
C2141 C2142 1.392 . S
C2142 H2112 0.951 . S
C2142 C2141 1.392 . S
C2142 C2143 1.392 . S
C2143 H2113 0.949 . S
C2143 C2138 1.382 . S
C2143 C2142 1.392 . S
H2144 C2163 0.949 . S
H2145 C2164 0.950 . S
H2146 C2166 0.950 . S
H2147 C2167 0.950 . S
H2148 C2169 0.950 . S
H2149 C2172 0.950 . S
H2150 C2173 0.950 . S
H2151 C2175 0.951 . S
H2152 C2176 0.949 . S
H2153 C2178 0.949 . S
H2154 C2179 0.950 . S
H2155 C2181 0.950 . S
H2156 C2182 0.950 . S
H2157 C2184 0.950 . S
H2158 C2187 0.950 . S
H2159 C2188 0.950 . S
H2160 C2190 0.951 . S
H2161 C2191 0.949 . S
C2162 C2163 1.376 . S
C2162 C2167 1.386 . S
C2162 C2168 1.483 . S
C2163 H2144 0.949 . S
C2163 C2162 1.376 . S
C2163 C2164 1.397 . S
C2164 H2145 0.950 . S
C2164 C2163 1.397 . S
C2164 C2165 1.391 . S
C2165 C2164 1.391 . S
C2165 C2166 1.405 . S
C2166 H2146 0.950 . S
C2166 C2165 1.405 . S
C2166 C2167 1.367 . S
C2167 H2147 0.950 . S
C2167 C2162 1.386 . S
C2167 C2166 1.367 . S
C2168 C2162 1.483 . S
C2168 C2169 1.382 . S
C2168 C2170 1.403 . S
C2169 H2148 0.950 . S
C2169 C2168 1.382 . S
C2169 C2185 1.411 . S
C2170 C2168 1.403 . S
C2170 C2171 1.489 . S
C2170 C2184 1.411 . S
C2171 C2170 1.489 . S
C2171 C2172 1.383 . S
C2171 C2176 1.382 . S
C2172 H2149 0.950 . S
C2172 C2171 1.383 . S
C2172 C2173 1.395 . S
C2173 H2150 0.950 . S
C2173 C2172 1.395 . S
C2173 C2174 1.288 . S
C2174 C2173 1.288 . S
C2174 C2175 1.392 . S
C2175 H2151 0.951 . S
C2175 C2174 1.392 . S
C2175 C2176 1.392 . S
C2176 H2152 0.949 . S
C2176 C2171 1.382 . S
C2176 C2175 1.392 . S
C2177 C2178 1.376 . S
C2177 C2182 1.386 . S
C2177 C2183 1.483 . S
C2178 H2153 0.949 . S
C2178 C2177 1.376 . S
C2178 C2179 1.397 . S
C2179 H2154 0.950 . S
C2179 C2178 1.397 . S
C2179 C2180 1.391 . S
C2180 C2179 1.391 . S
C2180 C2181 1.405 . S
C2181 H2155 0.950 . S
C2181 C2180 1.405 . S
C2181 C2182 1.367 . S
C2182 H2156 0.950 . S
C2182 C2177 1.386 . S
C2182 C2181 1.367 . S
C2183 C2177 1.483 . S
C2183 C2184 1.382 . S
C2183 C2185 1.403 . S
C2184 H2157 0.950 . S
C2184 C2170 1.411 . S
C2184 C2183 1.382 . S
C2185 C2169 1.411 . S
C2185 C2183 1.403 . S
C2185 C2186 1.489 . S
C2186 C2185 1.489 . S
C2186 C2187 1.383 . S
C2186 C2191 1.382 . S
C2187 H2158 0.950 . S
C2187 C2186 1.383 . S
C2187 C2188 1.395 . S
C2188 H2159 0.950 . S
C2188 C2187 1.395 . S
C2188 C2189 1.288 . S
C2189 C2188 1.288 . S
C2189 C2190 1.392 . S
C2190 H2160 0.951 . S
C2190 C2189 1.392 . S
C2190 C2191 1.392 . S
C2191 H2161 0.949 . S
C2191 C2186 1.382 . S
C2191 C2190 1.392 . S
H2192 C2211 0.949 . S
H2193 C2212 0.950 . S
H2194 C2214 0.950 . S
H2195 C2215 0.950 . S
H2196 C2217 0.950 . S
H2197 C2220 0.950 . S
H2198 C2221 0.950 . S
H2199 C2223 0.951 . S
H2200 C2224 0.949 . S
H2201 C2226 0.949 . S
H2202 C2227 0.950 . S
H2203 C2229 0.950 . S
H2204 C2230 0.950 . S
H2205 C2232 0.950 . S
H2206 C2235 0.950 . S
H2207 C2236 0.950 . S
H2208 C2238 0.951 . S
H2209 C2239 0.949 . S
C2210 C2211 1.376 . S
C2210 C2215 1.386 . S
C2210 C2216 1.483 . S
C2211 H2192 0.949 . S
C2211 C2210 1.376 . S
C2211 C2212 1.397 . S
C2212 H2193 0.950 . S
C2212 C2211 1.397 . S
C2212 C2213 1.391 . S
C2213 C2212 1.391 . S
C2213 C2214 1.405 . S
C2214 H2194 0.950 . S
C2214 C2213 1.405 . S
C2214 C2215 1.367 . S
C2215 H2195 0.950 . S
C2215 C2210 1.386 . S
C2215 C2214 1.367 . S
C2216 C2210 1.483 . S
C2216 C2217 1.382 . S
C2216 C2218 1.403 . S
C2217 H2196 0.950 . S
C2217 C2216 1.382 . S
C2217 C2233 1.411 . S
C2218 C2216 1.403 . S
C2218 C2219 1.489 . S
C2218 C2232 1.411 . S
C2219 C2218 1.489 . S
C2219 C2220 1.383 . S
C2219 C2224 1.382 . S
C2220 H2197 0.950 . S
C2220 C2219 1.383 . S
C2220 C2221 1.395 . S
C2221 H2198 0.950 . S
C2221 C2220 1.395 . S
C2221 C2222 1.288 . S
C2222 C2221 1.288 . S
C2222 C2223 1.392 . S
C2223 H2199 0.951 . S
C2223 C2222 1.392 . S
C2223 C2224 1.392 . S
C2224 H2200 0.949 . S
C2224 C2219 1.382 . S
C2224 C2223 1.392 . S
C2225 C2226 1.376 . S
C2225 C2230 1.386 . S
C2225 C2231 1.483 . S
C2226 H2201 0.949 . S
C2226 C2225 1.376 . S
C2226 C2227 1.397 . S
C2227 H2202 0.950 . S
C2227 C2226 1.397 . S
C2227 C2228 1.391 . S
C2228 C2227 1.391 . S
C2228 C2229 1.405 . S
C2229 H2203 0.950 . S
C2229 C2228 1.405 . S
C2229 C2230 1.367 . S
C2230 H2204 0.950 . S
C2230 C2225 1.386 . S
C2230 C2229 1.367 . S
C2231 C2225 1.483 . S
C2231 C2232 1.382 . S
C2231 C2233 1.403 . S
C2232 H2205 0.950 . S
C2232 C2218 1.411 . S
C2232 C2231 1.382 . S
C2233 C2217 1.411 . S
C2233 C2231 1.403 . S
C2233 C2234 1.489 . S
C2234 C2233 1.489 . S
C2234 C2235 1.383 . S
C2234 C2239 1.382 . S
C2235 H2206 0.950 . S
C2235 C2234 1.383 . S
C2235 C2236 1.395 . S
C2236 H2207 0.950 . S
C2236 C2235 1.395 . S
C2236 C2237 1.288 . S
C2237 C2236 1.288 . S
C2237 C2238 1.392 . S
C2238 H2208 0.951 . S
C2238 C2237 1.392 . S
C2238 C2239 1.392 . S
C2239 H2209 0.949 . S
C2239 C2234 1.382 . S
C2239 C2238 1.392 . S
H2240 C2259 0.949 . S
H2241 C2260 0.950 . S
H2242 C2262 0.950 . S
H2243 C2263 0.950 . S
H2244 C2265 0.950 . S
H2245 C2268 0.950 . S
H2246 C2269 0.950 . S
H2247 C2271 0.951 . S
H2248 C2272 0.949 . S
H2249 C2274 0.949 . S
H2250 C2275 0.950 . S
H2251 C2277 0.950 . S
H2252 C2278 0.950 . S
H2253 C2280 0.950 . S
H2254 C2283 0.950 . S
H2255 C2284 0.950 . S
H2256 C2286 0.951 . S
H2257 C2287 0.949 . S
C2258 C2259 1.376 . S
C2258 C2263 1.386 . S
C2258 C2264 1.483 . S
C2259 H2240 0.949 . S
C2259 C2258 1.376 . S
C2259 C2260 1.397 . S
C2260 H2241 0.950 . S
C2260 C2259 1.397 . S
C2260 C2261 1.391 . S
C2261 C2260 1.391 . S
C2261 C2262 1.405 . S
C2262 H2242 0.950 . S
C2262 C2261 1.405 . S
C2262 C2263 1.367 . S
C2263 H2243 0.950 . S
C2263 C2258 1.386 . S
C2263 C2262 1.367 . S
C2264 C2258 1.483 . S
C2264 C2265 1.382 . S
C2264 C2266 1.403 . S
C2265 H2244 0.950 . S
C2265 C2264 1.382 . S
C2265 C2281 1.411 . S
C2266 C2264 1.403 . S
C2266 C2267 1.489 . S
C2266 C2280 1.411 . S
C2267 C2266 1.489 . S
C2267 C2268 1.383 . S
C2267 C2272 1.382 . S
C2268 H2245 0.950 . S
C2268 C2267 1.383 . S
C2268 C2269 1.395 . S
C2269 H2246 0.950 . S
C2269 C2268 1.395 . S
C2269 C2270 1.288 . S
C2270 C2269 1.288 . S
C2270 C2271 1.392 . S
C2271 H2247 0.951 . S
C2271 C2270 1.392 . S
C2271 C2272 1.392 . S
C2272 H2248 0.949 . S
C2272 C2267 1.382 . S
C2272 C2271 1.392 . S
C2273 C2274 1.376 . S
C2273 C2278 1.386 . S
C2273 C2279 1.483 . S
C2274 H2249 0.949 . S
C2274 C2273 1.376 . S
C2274 C2275 1.397 . S
C2275 H2250 0.950 . S
C2275 C2274 1.397 . S
C2275 C2276 1.391 . S
C2276 C2275 1.391 . S
C2276 C2277 1.405 . S
C2277 H2251 0.950 . S
C2277 C2276 1.405 . S
C2277 C2278 1.367 . S
C2278 H2252 0.950 . S
C2278 C2273 1.386 . S
C2278 C2277 1.367 . S
C2279 C2273 1.483 . S
C2279 C2280 1.382 . S
C2279 C2281 1.403 . S
C2280 H2253 0.950 . S
C2280 C2266 1.411 . S
C2280 C2279 1.382 . S
C2281 C2265 1.411 . S
C2281 C2279 1.403 . S
C2281 C2282 1.489 . S
C2282 C2281 1.489 . S
C2282 C2283 1.383 . S
C2282 C2287 1.382 . S
C2283 H2254 0.950 . S
C2283 C2282 1.383 . S
C2283 C2284 1.395 . S
C2284 H2255 0.950 . S
C2284 C2283 1.395 . S
C2284 C2285 1.288 . S
C2285 C2284 1.288 . S
C2285 C2286 1.392 . S
C2286 H2256 0.951 . S
C2286 C2285 1.392 . S
C2286 C2287 1.392 . S
C2287 H2257 0.949 . S
C2287 C2282 1.382 . S
C2287 C2286 1.392 . S
H2288 C2307 0.949 . S
H2289 C2308 0.950 . S
H2290 C2310 0.950 . S
H2291 C2311 0.950 . S
H2292 C2313 0.950 . S
H2293 C2316 0.950 . S
H2294 C2317 0.950 . S
H2295 C2319 0.951 . S
H2296 C2320 0.949 . S
H2297 C2322 0.949 . S
H2298 C2323 0.950 . S
H2299 C2325 0.950 . S
H2300 C2326 0.950 . S
H2301 C2328 0.950 . S
H2302 C2331 0.950 . S
H2303 C2332 0.950 . S
H2304 C2334 0.951 . S
H2305 C2335 0.949 . S
C2306 C2307 1.376 . S
C2306 C2311 1.386 . S
C2306 C2312 1.483 . S
C2307 H2288 0.949 . S
C2307 C2306 1.376 . S
C2307 C2308 1.397 . S
C2308 H2289 0.950 . S
C2308 C2307 1.397 . S
C2308 C2309 1.391 . S
C2309 C2308 1.391 . S
C2309 C2310 1.405 . S
C2310 H2290 0.950 . S
C2310 C2309 1.405 . S
C2310 C2311 1.367 . S
C2311 H2291 0.950 . S
C2311 C2306 1.386 . S
C2311 C2310 1.367 . S
C2312 C2306 1.483 . S
C2312 C2313 1.382 . S
C2312 C2314 1.403 . S
C2313 H2292 0.950 . S
C2313 C2312 1.382 . S
C2313 C2329 1.411 . S
C2314 C2312 1.403 . S
C2314 C2315 1.489 . S
C2314 C2328 1.411 . S
C2315 C2314 1.489 . S
C2315 C2316 1.383 . S
C2315 C2320 1.382 . S
C2316 H2293 0.950 . S
C2316 C2315 1.383 . S
C2316 C2317 1.395 . S
C2317 H2294 0.950 . S
C2317 C2316 1.395 . S
C2317 C2318 1.288 . S
C2318 C2317 1.288 . S
C2318 C2319 1.392 . S
C2319 H2295 0.951 . S
C2319 C2318 1.392 . S
C2319 C2320 1.392 . S
C2320 H2296 0.949 . S
C2320 C2315 1.382 . S
C2320 C2319 1.392 . S
C2321 C2322 1.376 . S
C2321 C2326 1.386 . S
C2321 C2327 1.483 . S
C2322 H2297 0.949 . S
C2322 C2321 1.376 . S
C2322 C2323 1.397 . S
C2323 H2298 0.950 . S
C2323 C2322 1.397 . S
C2323 C2324 1.391 . S
C2324 C2323 1.391 . S
C2324 C2325 1.405 . S
C2325 H2299 0.950 . S
C2325 C2324 1.405 . S
C2325 C2326 1.367 . S
C2326 H2300 0.950 . S
C2326 C2321 1.386 . S
C2326 C2325 1.367 . S
C2327 C2321 1.483 . S
C2327 C2328 1.382 . S
C2327 C2329 1.403 . S
C2328 H2301 0.950 . S
C2328 C2314 1.411 . S
C2328 C2327 1.382 . S
C2329 C2313 1.411 . S
C2329 C2327 1.403 . S
C2329 C2330 1.489 . S
C2330 C2329 1.489 . S
C2330 C2331 1.383 . S
C2330 C2335 1.382 . S
C2331 H2302 0.950 . S
C2331 C2330 1.383 . S
C2331 C2332 1.395 . S
C2332 H2303 0.950 . S
C2332 C2331 1.395 . S
C2332 C2333 1.288 . S
C2333 C2332 1.288 . S
C2333 C2334 1.392 . S
C2334 H2304 0.951 . S
C2334 C2333 1.392 . S
C2334 C2335 1.392 . S
C2335 H2305 0.949 . S
C2335 C2330 1.382 . S
C2335 C2334 1.392 . S
H2336 C2355 0.949 . S
H2337 C2356 0.950 . S
H2338 C2358 0.950 . S
H2339 C2359 0.950 . S
H2340 C2361 0.950 . S
H2341 C2364 0.950 . S
H2342 C2365 0.950 . S
H2343 C2367 0.951 . S
H2344 C2368 0.949 . S
H2345 C2370 0.949 . S
H2346 C2371 0.950 . S
H2347 C2373 0.950 . S
H2348 C2374 0.950 . S
H2349 C2376 0.950 . S
H2350 C2379 0.950 . S
H2351 C2380 0.950 . S
H2352 C2382 0.951 . S
H2353 C2383 0.949 . S
C2354 C2355 1.376 . S
C2354 C2359 1.386 . S
C2354 C2360 1.483 . S
C2355 H2336 0.949 . S
C2355 C2354 1.376 . S
C2355 C2356 1.397 . S
C2356 H2337 0.950 . S
C2356 C2355 1.397 . S
C2356 C2357 1.391 . S
C2357 C2356 1.391 . S
C2357 C2358 1.405 . S
C2358 H2338 0.950 . S
C2358 C2357 1.405 . S
C2358 C2359 1.367 . S
C2359 H2339 0.950 . S
C2359 C2354 1.386 . S
C2359 C2358 1.367 . S
C2360 C2354 1.483 . S
C2360 C2361 1.382 . S
C2360 C2362 1.403 . S
C2361 H2340 0.950 . S
C2361 C2360 1.382 . S
C2361 C2377 1.411 . S
C2362 C2360 1.403 . S
C2362 C2363 1.489 . S
C2362 C2376 1.411 . S
C2363 C2362 1.489 . S
C2363 C2364 1.383 . S
C2363 C2368 1.382 . S
C2364 H2341 0.950 . S
C2364 C2363 1.383 . S
C2364 C2365 1.395 . S
C2365 H2342 0.950 . S
C2365 C2364 1.395 . S
C2365 C2366 1.288 . S
C2366 C2365 1.288 . S
C2366 C2367 1.392 . S
C2367 H2343 0.951 . S
C2367 C2366 1.392 . S
C2367 C2368 1.392 . S
C2368 H2344 0.949 . S
C2368 C2363 1.382 . S
C2368 C2367 1.392 . S
C2369 C2370 1.376 . S
C2369 C2374 1.386 . S
C2369 C2375 1.483 . S
C2370 H2345 0.949 . S
C2370 C2369 1.376 . S
C2370 C2371 1.397 . S
C2371 H2346 0.950 . S
C2371 C2370 1.397 . S
C2371 C2372 1.391 . S
C2372 C2371 1.391 . S
C2372 C2373 1.405 . S
C2373 H2347 0.950 . S
C2373 C2372 1.405 . S
C2373 C2374 1.367 . S
C2374 H2348 0.950 . S
C2374 C2369 1.386 . S
C2374 C2373 1.367 . S
C2375 C2369 1.483 . S
C2375 C2376 1.382 . S
C2375 C2377 1.403 . S
C2376 H2349 0.950 . S
C2376 C2362 1.411 . S
C2376 C2375 1.382 . S
C2377 C2361 1.411 . S
C2377 C2375 1.403 . S
C2377 C2378 1.489 . S
C2378 C2377 1.489 . S
C2378 C2379 1.383 . S
C2378 C2383 1.382 . S
C2379 H2350 0.950 . S
C2379 C2378 1.383 . S
C2379 C2380 1.395 . S
C2380 H2351 0.950 . S
C2380 C2379 1.395 . S
C2380 C2381 1.288 . S
C2381 C2380 1.288 . S
C2381 C2382 1.392 . S
C2382 H2352 0.951 . S
C2382 C2381 1.392 . S
C2382 C2383 1.392 . S
C2383 H2353 0.949 . S
C2383 C2378 1.382 . S
C2383 C2382 1.392 . S
H2384 C2403 0.949 . S
H2385 C2404 0.950 . S
H2386 C2406 0.950 . S
H2387 C2407 0.950 . S
H2388 C2409 0.950 . S
H2389 C2412 0.950 . S
H2390 C2413 0.950 . S
H2391 C2415 0.951 . S
H2392 C2416 0.949 . S
H2393 C2418 0.949 . S
H2394 C2419 0.950 . S
H2395 C2421 0.950 . S
H2396 C2422 0.950 . S
H2397 C2424 0.950 . S
H2398 C2427 0.950 . S
H2399 C2428 0.950 . S
H2400 C2430 0.951 . S
H2401 C2431 0.949 . S
C2402 C2403 1.376 . S
C2402 C2407 1.386 . S
C2402 C2408 1.483 . S
C2403 H2384 0.949 . S
C2403 C2402 1.376 . S
C2403 C2404 1.397 . S
C2404 H2385 0.950 . S
C2404 C2403 1.397 . S
C2404 C2405 1.391 . S
C2405 C2404 1.391 . S
C2405 C2406 1.405 . S
C2406 H2386 0.950 . S
C2406 C2405 1.405 . S
C2406 C2407 1.367 . S
C2407 H2387 0.950 . S
C2407 C2402 1.386 . S
C2407 C2406 1.367 . S
C2408 C2402 1.483 . S
C2408 C2409 1.382 . S
C2408 C2410 1.403 . S
C2409 H2388 0.950 . S
C2409 C2408 1.382 . S
C2409 C2425 1.411 . S
C2410 C2408 1.403 . S
C2410 C2411 1.489 . S
C2410 C2424 1.411 . S
C2411 C2410 1.489 . S
C2411 C2412 1.383 . S
C2411 C2416 1.382 . S
C2412 H2389 0.950 . S
C2412 C2411 1.383 . S
C2412 C2413 1.395 . S
C2413 H2390 0.950 . S
C2413 C2412 1.395 . S
C2413 C2414 1.288 . S
C2414 C2413 1.288 . S
C2414 C2415 1.392 . S
C2415 H2391 0.951 . S
C2415 C2414 1.392 . S
C2415 C2416 1.392 . S
C2416 H2392 0.949 . S
C2416 C2411 1.382 . S
C2416 C2415 1.392 . S
C2417 C2418 1.376 . S
C2417 C2422 1.386 . S
C2417 C2423 1.483 . S
C2418 H2393 0.949 . S
C2418 C2417 1.376 . S
C2418 C2419 1.397 . S
C2419 H2394 0.950 . S
C2419 C2418 1.397 . S
C2419 C2420 1.391 . S
C2420 C2419 1.391 . S
C2420 C2421 1.405 . S
C2421 H2395 0.950 . S
C2421 C2420 1.405 . S
C2421 C2422 1.367 . S
C2422 H2396 0.950 . S
C2422 C2417 1.386 . S
C2422 C2421 1.367 . S
C2423 C2417 1.483 . S
C2423 C2424 1.382 . S
C2423 C2425 1.403 . S
C2424 H2397 0.950 . S
C2424 C2410 1.411 . S
C2424 C2423 1.382 . S
C2425 C2409 1.411 . S
C2425 C2423 1.403 . S
C2425 C2426 1.489 . S
C2426 C2425 1.489 . S
C2426 C2427 1.383 . S
C2426 C2431 1.382 . S
C2427 H2398 0.950 . S
C2427 C2426 1.383 . S
C2427 C2428 1.395 . S
C2428 H2399 0.950 . S
C2428 C2427 1.395 . S
C2428 C2429 1.288 . S
C2429 C2428 1.288 . S
C2429 C2430 1.392 . S
C2430 H2400 0.951 . S
C2430 C2429 1.392 . S
C2430 C2431 1.392 . S
C2431 H2401 0.949 . S
C2431 C2426 1.382 . S
C2431 C2430 1.392 . S
H2432 C2438 0.930 . S
H2433 C2442 0.930 . S
H2434 C2447 0.929 . S
H2435 C2445 0.929 . S
H2436 C2440 0.929 . S
H2437 C2446 0.929 . S
C2438 H2432 0.930 . S
C2438 C2439 1.367 . S
C2438 C2446 1.378 . S
C2439 C2438 1.367 . S
C2439 C2447 1.433 . S
C2440 H2436 0.929 . S
C2440 C2442 1.378 . S
C2440 C2444 1.350 . S
C2441 C2444 1.463 . S
C2441 C2446 1.350 . S
C2441 N2449 1.427 . S
C2442 H2433 0.930 . S
C2442 C2440 1.378 . S
C2442 C2443 1.367 . S
C2443 C2442 1.367 . S
C2443 C2445 1.433 . S
C2444 C2440 1.350 . S
C2444 C2441 1.463 . S
C2444 N2448 1.427 . S
C2445 H2435 0.929 . S
C2445 C2443 1.433 . S
C2445 N2448 1.384 . S
C2446 H2437 0.929 . S
C2446 C2438 1.378 . S
C2446 C2441 1.350 . S
C2447 H2434 0.929 . S
C2447 C2439 1.433 . S
C2447 N2449 1.384 . S
N2448 C2444 1.427 . S
N2448 C2445 1.384 . S
N2449 C2441 1.427 . S
N2449 C2447 1.384 . S
H2450 C2456 0.930 . S
H2451 C2460 0.930 . S
H2452 C2465 0.929 . S
H2453 C2463 0.929 . S
H2454 C2458 0.929 . S
H2455 C2464 0.929 . S
C2456 H2450 0.930 . S
C2456 C2457 1.367 . S
C2456 C2464 1.378 . S
C2457 C2456 1.367 . S
C2457 C2465 1.433 . S
C2458 H2454 0.929 . S
C2458 C2460 1.378 . S
C2458 C2462 1.350 . S
C2459 C2462 1.463 . S
C2459 C2464 1.350 . S
C2459 N2467 1.427 . S
C2460 H2451 0.930 . S
C2460 C2458 1.378 . S
C2460 C2461 1.367 . S
C2461 C2460 1.367 . S
C2461 C2463 1.433 . S
C2462 C2458 1.350 . S
C2462 C2459 1.463 . S
C2462 N2466 1.427 . S
C2463 H2453 0.929 . S
C2463 C2461 1.433 . S
C2463 N2466 1.384 . S
C2464 H2455 0.929 . S
C2464 C2456 1.378 . S
C2464 C2459 1.350 . S
C2465 H2452 0.929 . S
C2465 C2457 1.433 . S
C2465 N2467 1.384 . S
N2466 C2462 1.427 . S
N2466 C2463 1.384 . S
N2467 C2459 1.427 . S
N2467 C2465 1.384 . S
H2468 C2474 0.930 . S
H2469 C2478 0.930 . S
H2470 C2483 0.929 . S
H2471 C2481 0.929 . S
H2472 C2476 0.929 . S
H2473 C2482 0.929 . S
C2474 H2468 0.930 . S
C2474 C2475 1.367 . S
C2474 C2482 1.378 . S
C2475 C2474 1.367 . S
C2475 C2483 1.433 . S
C2476 H2472 0.929 . S
C2476 C2478 1.378 . S
C2476 C2480 1.350 . S
C2477 C2480 1.463 . S
C2477 C2482 1.350 . S
C2477 N2485 1.427 . S
C2478 H2469 0.930 . S
C2478 C2476 1.378 . S
C2478 C2479 1.367 . S
C2479 C2478 1.367 . S
C2479 C2481 1.433 . S
C2480 C2476 1.350 . S
C2480 C2477 1.463 . S
C2480 N2484 1.427 . S
C2481 H2471 0.929 . S
C2481 C2479 1.433 . S
C2481 N2484 1.384 . S
C2482 H2473 0.929 . S
C2482 C2474 1.378 . S
C2482 C2477 1.350 . S
C2483 H2470 0.929 . S
C2483 C2475 1.433 . S
C2483 N2485 1.384 . S
N2484 C2480 1.427 . S
N2484 C2481 1.384 . S
N2485 C2477 1.427 . S
N2485 C2483 1.384 . S
H2486 C2492 0.930 . S
H2487 C2496 0.930 . S
H2488 C2501 0.929 . S
H2489 C2499 0.929 . S
H2490 C2494 0.929 . S
H2491 C2500 0.929 . S
C2492 H2486 0.930 . S
C2492 C2493 1.367 . S
C2492 C2500 1.378 . S
C2493 C2492 1.367 . S
C2493 C2501 1.433 . S
C2494 H2490 0.929 . S
C2494 C2496 1.378 . S
C2494 C2498 1.350 . S
C2495 C2498 1.463 . S
C2495 C2500 1.350 . S
C2495 N2503 1.427 . S
C2496 H2487 0.930 . S
C2496 C2494 1.378 . S
C2496 C2497 1.367 . S
C2497 C2496 1.367 . S
C2497 C2499 1.433 . S
C2498 C2494 1.350 . S
C2498 C2495 1.463 . S
C2498 N2502 1.427 . S
C2499 H2489 0.929 . S
C2499 C2497 1.433 . S
C2499 N2502 1.384 . S
C2500 H2491 0.929 . S
C2500 C2492 1.378 . S
C2500 C2495 1.350 . S
C2501 H2488 0.929 . S
C2501 C2493 1.433 . S
C2501 N2503 1.384 . S
N2502 C2498 1.427 . S
N2502 C2499 1.384 . S
N2503 C2495 1.427 . S
N2503 C2501 1.384 . S
H2504 C2510 0.930 . S
H2505 C2514 0.930 . S
H2506 C2519 0.929 . S
H2507 C2517 0.929 . S
H2508 C2512 0.929 . S
H2509 C2518 0.929 . S
C2510 H2504 0.930 . S
C2510 C2511 1.367 . S
C2510 C2518 1.378 . S
C2511 C2510 1.367 . S
C2511 C2519 1.433 . S
C2512 H2508 0.929 . S
C2512 C2514 1.378 . S
C2512 C2516 1.350 . S
C2513 C2516 1.463 . S
C2513 C2518 1.350 . S
C2513 N2521 1.427 . S
C2514 H2505 0.930 . S
C2514 C2512 1.378 . S
C2514 C2515 1.367 . S
C2515 C2514 1.367 . S
C2515 C2517 1.433 . S
C2516 C2512 1.350 . S
C2516 C2513 1.463 . S
C2516 N2520 1.427 . S
C2517 H2507 0.929 . S
C2517 C2515 1.433 . S
C2517 N2520 1.384 . S
C2518 H2509 0.929 . S
C2518 C2510 1.378 . S
C2518 C2513 1.350 . S
C2519 H2506 0.929 . S
C2519 C2511 1.433 . S
C2519 N2521 1.384 . S
N2520 C2516 1.427 . S
N2520 C2517 1.384 . S
N2521 C2513 1.427 . S
N2521 C2519 1.384 . S
H2522 C2528 0.930 . S
H2523 C2532 0.930 . S
H2524 C2537 0.929 . S
H2525 C2535 0.929 . S
H2526 C2530 0.929 . S
H2527 C2536 0.929 . S
C2528 H2522 0.930 . S
C2528 C2529 1.367 . S
C2528 C2536 1.378 . S
C2529 C2528 1.367 . S
C2529 C2537 1.433 . S
C2530 H2526 0.929 . S
C2530 C2532 1.378 . S
C2530 C2534 1.350 . S
C2531 C2534 1.463 . S
C2531 C2536 1.350 . S
C2531 N2539 1.427 . S
C2532 H2523 0.930 . S
C2532 C2530 1.378 . S
C2532 C2533 1.367 . S
C2533 C2532 1.367 . S
C2533 C2535 1.433 . S
C2534 C2530 1.350 . S
C2534 C2531 1.463 . S
C2534 N2538 1.427 . S
C2535 H2525 0.929 . S
C2535 C2533 1.433 . S
C2535 N2538 1.384 . S
C2536 H2527 0.929 . S
C2536 C2528 1.378 . S
C2536 C2531 1.350 . S
C2537 H2524 0.929 . S
C2537 C2529 1.433 . S
C2537 N2539 1.384 . S
N2538 C2534 1.427 . S
N2538 C2535 1.384 . S
N2539 C2531 1.427 . S
N2539 C2537 1.384 . S
H2540 C2546 0.930 . S
H2541 C2550 0.930 . S
H2542 C2555 0.929 . S
H2543 C2553 0.929 . S
H2544 C2548 0.929 . S
H2545 C2554 0.929 . S
C2546 H2540 0.930 . S
C2546 C2547 1.367 . S
C2546 C2554 1.378 . S
C2547 C2546 1.367 . S
C2547 C2555 1.433 . S
C2548 H2544 0.929 . S
C2548 C2550 1.378 . S
C2548 C2552 1.350 . S
C2549 C2552 1.463 . S
C2549 C2554 1.350 . S
C2549 N2557 1.427 . S
C2550 H2541 0.930 . S
C2550 C2548 1.378 . S
C2550 C2551 1.367 . S
C2551 C2550 1.367 . S
C2551 C2553 1.433 . S
C2552 C2548 1.350 . S
C2552 C2549 1.463 . S
C2552 N2556 1.427 . S
C2553 H2543 0.929 . S
C2553 C2551 1.433 . S
C2553 N2556 1.384 . S
C2554 H2545 0.929 . S
C2554 C2546 1.378 . S
C2554 C2549 1.350 . S
C2555 H2542 0.929 . S
C2555 C2547 1.433 . S
C2555 N2557 1.384 . S
N2556 C2552 1.427 . S
N2556 C2553 1.384 . S
N2557 C2549 1.427 . S
N2557 C2555 1.384 . S
H2558 C2564 0.930 . S
H2559 C2568 0.930 . S
H2560 C2573 0.929 . S
H2561 C2571 0.929 . S
H2562 C2566 0.929 . S
H2563 C2572 0.929 . S
C2564 H2558 0.930 . S
C2564 C2565 1.367 . S
C2564 C2572 1.378 . S
C2565 C2564 1.367 . S
C2565 C2573 1.433 . S
C2566 H2562 0.929 . S
C2566 C2568 1.378 . S
C2566 C2570 1.350 . S
C2567 C2570 1.463 . S
C2567 C2572 1.350 . S
C2567 N2575 1.427 . S
C2568 H2559 0.930 . S
C2568 C2566 1.378 . S
C2568 C2569 1.367 . S
C2569 C2568 1.367 . S
C2569 C2571 1.433 . S
C2570 C2566 1.350 . S
C2570 C2567 1.463 . S
C2570 N2574 1.427 . S
C2571 H2561 0.929 . S
C2571 C2569 1.433 . S
C2571 N2574 1.384 . S
C2572 H2563 0.929 . S
C2572 C2564 1.378 . S
C2572 C2567 1.350 . S
C2573 H2560 0.929 . S
C2573 C2565 1.433 . S
C2573 N2575 1.384 . S
N2574 C2570 1.427 . S
N2574 C2571 1.384 . S
N2575 C2567 1.427 . S
N2575 C2573 1.384 . S
H2576 C2582 0.930 . S
H2577 C2586 0.930 . S
H2578 C2591 0.929 . S
H2579 C2589 0.929 . S
H2580 C2584 0.929 . S
H2581 C2590 0.929 . S
C2582 H2576 0.930 . S
C2582 C2583 1.367 . S
C2582 C2590 1.378 . S
C2583 C2582 1.367 . S
C2583 C2591 1.433 . S
C2584 H2580 0.929 . S
C2584 C2586 1.378 . S
C2584 C2588 1.350 . S
C2585 C2588 1.463 . S
C2585 C2590 1.350 . S
C2585 N2593 1.427 . S
C2586 H2577 0.930 . S
C2586 C2584 1.378 . S
C2586 C2587 1.367 . S
C2587 C2586 1.367 . S
C2587 C2589 1.433 . S
C2588 C2584 1.350 . S
C2588 C2585 1.463 . S
C2588 N2592 1.427 . S
C2589 H2579 0.929 . S
C2589 C2587 1.433 . S
C2589 N2592 1.384 . S
C2590 H2581 0.929 . S
C2590 C2582 1.378 . S
C2590 C2585 1.350 . S
C2591 H2578 0.929 . S
C2591 C2583 1.433 . S
C2591 N2593 1.384 . S
N2592 C2588 1.427 . S
N2592 C2589 1.384 . S
N2593 C2585 1.427 . S
N2593 C2591 1.384 . S
H2594 C2600 0.930 . S
H2595 C2604 0.930 . S
H2596 C2609 0.929 . S
H2597 C2607 0.929 . S
H2598 C2602 0.929 . S
H2599 C2608 0.929 . S
C2600 H2594 0.930 . S
C2600 C2601 1.367 . S
C2600 C2608 1.378 . S
C2601 C2600 1.367 . S
C2601 C2609 1.433 . S
C2602 H2598 0.929 . S
C2602 C2604 1.378 . S
C2602 C2606 1.350 . S
C2603 C2606 1.463 . S
C2603 C2608 1.350 . S
C2603 N2611 1.427 . S
C2604 H2595 0.930 . S
C2604 C2602 1.378 . S
C2604 C2605 1.367 . S
C2605 C2604 1.367 . S
C2605 C2607 1.433 . S
C2606 C2602 1.350 . S
C2606 C2603 1.463 . S
C2606 N2610 1.427 . S
C2607 H2597 0.929 . S
C2607 C2605 1.433 . S
C2607 N2610 1.384 . S
C2608 H2599 0.929 . S
C2608 C2600 1.378 . S
C2608 C2603 1.350 . S
C2609 H2596 0.929 . S
C2609 C2601 1.433 . S
C2609 N2611 1.384 . S
N2610 C2606 1.427 . S
N2610 C2607 1.384 . S
N2611 C2603 1.427 . S
N2611 C2609 1.384 . S
H2612 C2618 0.930 . S
H2613 C2622 0.930 . S
H2614 C2627 0.929 . S
H2615 C2625 0.929 . S
H2616 C2620 0.929 . S
H2617 C2626 0.929 . S
C2618 H2612 0.930 . S
C2618 C2619 1.367 . S
C2618 C2626 1.378 . S
C2619 C2618 1.367 . S
C2619 C2627 1.433 . S
C2620 H2616 0.929 . S
C2620 C2622 1.378 . S
C2620 C2624 1.350 . S
C2621 C2624 1.463 . S
C2621 C2626 1.350 . S
C2621 N2629 1.427 . S
C2622 H2613 0.930 . S
C2622 C2620 1.378 . S
C2622 C2623 1.367 . S
C2623 C2622 1.367 . S
C2623 C2625 1.433 . S
C2624 C2620 1.350 . S
C2624 C2621 1.463 . S
C2624 N2628 1.427 . S
C2625 H2615 0.929 . S
C2625 C2623 1.433 . S
C2625 N2628 1.384 . S
C2626 H2617 0.929 . S
C2626 C2618 1.378 . S
C2626 C2621 1.350 . S
C2627 H2614 0.929 . S
C2627 C2619 1.433 . S
C2627 N2629 1.384 . S
N2628 C2624 1.427 . S
N2628 C2625 1.384 . S
N2629 C2621 1.427 . S
N2629 C2627 1.384 . S
H2630 C2636 0.930 . S
H2631 C2640 0.930 . S
H2632 C2645 0.929 . S
H2633 C2643 0.929 . S
H2634 C2638 0.929 . S
H2635 C2644 0.929 . S
C2636 H2630 0.930 . S
C2636 C2637 1.367 . S
C2636 C2644 1.378 . S
C2637 C2636 1.367 . S
C2637 C2645 1.433 . S
C2638 H2634 0.929 . S
C2638 C2640 1.378 . S
C2638 C2642 1.350 . S
C2639 C2642 1.463 . S
C2639 C2644 1.350 . S
C2639 N2647 1.427 . S
C2640 H2631 0.930 . S
C2640 C2638 1.378 . S
C2640 C2641 1.367 . S
C2641 C2640 1.367 . S
C2641 C2643 1.433 . S
C2642 C2638 1.350 . S
C2642 C2639 1.463 . S
C2642 N2646 1.427 . S
C2643 H2633 0.929 . S
C2643 C2641 1.433 . S
C2643 N2646 1.384 . S
C2644 H2635 0.929 . S
C2644 C2636 1.378 . S
C2644 C2639 1.350 . S
C2645 H2632 0.929 . S
C2645 C2637 1.433 . S
C2645 N2647 1.384 . S
N2646 C2642 1.427 . S
N2646 C2643 1.384 . S
N2647 C2639 1.427 . S
N2647 C2645 1.384 . S
H2648 C2654 0.930 . S
H2649 C2658 0.930 . S
H2650 C2663 0.929 . S
H2651 C2661 0.929 . S
H2652 C2656 0.929 . S
H2653 C2662 0.929 . S
C2654 H2648 0.930 . S
C2654 C2655 1.367 . S
C2654 C2662 1.378 . S
C2655 C2654 1.367 . S
C2655 C2663 1.433 . S
C2656 H2652 0.929 . S
C2656 C2658 1.378 . S
C2656 C2660 1.350 . S
C2657 C2660 1.463 . S
C2657 C2662 1.350 . S
C2657 N2665 1.427 . S
C2658 H2649 0.930 . S
C2658 C2656 1.378 . S
C2658 C2659 1.367 . S
C2659 C2658 1.367 . S
C2659 C2661 1.433 . S
C2660 C2656 1.350 . S
C2660 C2657 1.463 . S
C2660 N2664 1.427 . S
C2661 H2651 0.929 . S
C2661 C2659 1.433 . S
C2661 N2664 1.384 . S
C2662 H2653 0.929 . S
C2662 C2654 1.378 . S
C2662 C2657 1.350 . S
C2663 H2650 0.929 . S
C2663 C2655 1.433 . S
C2663 N2665 1.384 . S
N2664 C2660 1.427 . S
N2664 C2661 1.384 . S
N2665 C2657 1.427 . S
N2665 C2663 1.384 . S
H2666 C2672 0.930 . S
H2667 C2676 0.930 . S
H2668 C2681 0.929 . S
H2669 C2679 0.929 . S
H2670 C2674 0.929 . S
H2671 C2680 0.929 . S
C2672 H2666 0.930 . S
C2672 C2673 1.367 . S
C2672 C2680 1.378 . S
C2673 C2672 1.367 . S
C2673 C2681 1.433 . S
C2674 H2670 0.929 . S
C2674 C2676 1.378 . S
C2674 C2678 1.350 . S
C2675 C2678 1.463 . S
C2675 C2680 1.350 . S
C2675 N2683 1.427 . S
C2676 H2667 0.930 . S
C2676 C2674 1.378 . S
C2676 C2677 1.367 . S
C2677 C2676 1.367 . S
C2677 C2679 1.433 . S
C2678 C2674 1.350 . S
C2678 C2675 1.463 . S
C2678 N2682 1.427 . S
C2679 H2669 0.929 . S
C2679 C2677 1.433 . S
C2679 N2682 1.384 . S
C2680 H2671 0.929 . S
C2680 C2672 1.378 . S
C2680 C2675 1.350 . S
C2681 H2668 0.929 . S
C2681 C2673 1.433 . S
C2681 N2683 1.384 . S
N2682 C2678 1.427 . S
N2682 C2679 1.384 . S
N2683 C2675 1.427 . S
N2683 C2681 1.384 . S
H2684 C2690 0.930 . S
H2685 C2694 0.930 . S
H2686 C2699 0.929 . S
H2687 C2697 0.929 . S
H2688 C2692 0.929 . S
H2689 C2698 0.929 . S
C2690 H2684 0.930 . S
C2690 C2691 1.367 . S
C2690 C2698 1.378 . S
C2691 C2690 1.367 . S
C2691 C2699 1.433 . S
C2692 H2688 0.929 . S
C2692 C2694 1.378 . S
C2692 C2696 1.350 . S
C2693 C2696 1.463 . S
C2693 C2698 1.350 . S
C2693 N2701 1.427 . S
C2694 H2685 0.930 . S
C2694 C2692 1.378 . S
C2694 C2695 1.367 . S
C2695 C2694 1.367 . S
C2695 C2697 1.433 . S
C2696 C2692 1.350 . S
C2696 C2693 1.463 . S
C2696 N2700 1.427 . S
C2697 H2687 0.929 . S
C2697 C2695 1.433 . S
C2697 N2700 1.384 . S
C2698 H2689 0.929 . S
C2698 C2690 1.378 . S
C2698 C2693 1.350 . S
C2699 H2686 0.929 . S
C2699 C2691 1.433 . S
C2699 N2701 1.384 . S
N2700 C2696 1.427 . S
N2700 C2697 1.384 . S
N2701 C2693 1.427 . S
N2701 C2699 1.384 . S
H2702 C2708 0.930 . S
H2703 C2712 0.930 . S
H2704 C2717 0.929 . S
H2705 C2715 0.929 . S
H2706 C2710 0.929 . S
H2707 C2716 0.929 . S
C2708 H2702 0.930 . S
C2708 C2709 1.367 . S
C2708 C2716 1.378 . S
C2709 C2708 1.367 . S
C2709 C2717 1.433 . S
C2710 H2706 0.929 . S
C2710 C2712 1.378 . S
C2710 C2714 1.350 . S
C2711 C2714 1.463 . S
C2711 C2716 1.350 . S
C2711 N2719 1.427 . S
C2712 H2703 0.930 . S
C2712 C2710 1.378 . S
C2712 C2713 1.367 . S
C2713 C2712 1.367 . S
C2713 C2715 1.433 . S
C2714 C2710 1.350 . S
C2714 C2711 1.463 . S
C2714 N2718 1.427 . S
C2715 H2705 0.929 . S
C2715 C2713 1.433 . S
C2715 N2718 1.384 . S
C2716 H2707 0.929 . S
C2716 C2708 1.378 . S
C2716 C2711 1.350 . S
C2717 H2704 0.929 . S
C2717 C2709 1.433 . S
C2717 N2719 1.384 . S
N2718 C2714 1.427 . S
N2718 C2715 1.384 . S
N2719 C2711 1.427 . S
N2719 C2717 1.384 . S
H2720 C2726 0.930 . S
H2721 C2730 0.930 . S
H2722 C2735 0.929 . S
H2723 C2733 0.929 . S
H2724 C2728 0.929 . S
H2725 C2734 0.929 . S
C2726 H2720 0.930 . S
C2726 C2727 1.367 . S
C2726 C2734 1.378 . S
C2727 C2726 1.367 . S
C2727 C2735 1.433 . S
C2728 H2724 0.929 . S
C2728 C2730 1.378 . S
C2728 C2732 1.350 . S
C2729 C2732 1.463 . S
C2729 C2734 1.350 . S
C2729 N2737 1.427 . S
C2730 H2721 0.930 . S
C2730 C2728 1.378 . S
C2730 C2731 1.367 . S
C2731 C2730 1.367 . S
C2731 C2733 1.433 . S
C2732 C2728 1.350 . S
C2732 C2729 1.463 . S
C2732 N2736 1.427 . S
C2733 H2723 0.929 . S
C2733 C2731 1.433 . S
C2733 N2736 1.384 . S
C2734 H2725 0.929 . S
C2734 C2726 1.378 . S
C2734 C2729 1.350 . S
C2735 H2722 0.929 . S
C2735 C2727 1.433 . S
C2735 N2737 1.384 . S
N2736 C2732 1.427 . S
N2736 C2733 1.384 . S
N2737 C2729 1.427 . S
N2737 C2735 1.384 . S
H2738 C2744 0.930 . S
H2739 C2748 0.930 . S
H2740 C2753 0.929 . S
H2741 C2751 0.929 . S
H2742 C2746 0.929 . S
H2743 C2752 0.929 . S
C2744 H2738 0.930 . S
C2744 C2745 1.367 . S
C2744 C2752 1.378 . S
C2745 C2744 1.367 . S
C2745 C2753 1.433 . S
C2746 H2742 0.929 . S
C2746 C2748 1.378 . S
C2746 C2750 1.350 . S
C2747 C2750 1.463 . S
C2747 C2752 1.350 . S
C2747 N2755 1.427 . S
C2748 H2739 0.930 . S
C2748 C2746 1.378 . S
C2748 C2749 1.367 . S
C2749 C2748 1.367 . S
C2749 C2751 1.433 . S
C2750 C2746 1.350 . S
C2750 C2747 1.463 . S
C2750 N2754 1.427 . S
C2751 H2741 0.929 . S
C2751 C2749 1.433 . S
C2751 N2754 1.384 . S
C2752 H2743 0.929 . S
C2752 C2744 1.378 . S
C2752 C2747 1.350 . S
C2753 H2740 0.929 . S
C2753 C2745 1.433 . S
C2753 N2755 1.384 . S
N2754 C2750 1.427 . S
N2754 C2751 1.384 . S
N2755 C2747 1.427 . S
N2755 C2753 1.384 . S
H2756 C2762 0.930 . S
H2757 C2766 0.930 . S
H2758 C2771 0.929 . S
H2759 C2769 0.929 . S
H2760 C2764 0.929 . S
H2761 C2770 0.929 . S
C2762 H2756 0.930 . S
C2762 C2763 1.367 . S
C2762 C2770 1.378 . S
C2763 C2762 1.367 . S
C2763 C2771 1.433 . S
C2764 H2760 0.929 . S
C2764 C2766 1.378 . S
C2764 C2768 1.350 . S
C2765 C2768 1.463 . S
C2765 C2770 1.350 . S
C2765 N2773 1.427 . S
C2766 H2757 0.930 . S
C2766 C2764 1.378 . S
C2766 C2767 1.367 . S
C2767 C2766 1.367 . S
C2767 C2769 1.433 . S
C2768 C2764 1.350 . S
C2768 C2765 1.463 . S
C2768 N2772 1.427 . S
C2769 H2759 0.929 . S
C2769 C2767 1.433 . S
C2769 N2772 1.384 . S
C2770 H2761 0.929 . S
C2770 C2762 1.378 . S
C2770 C2765 1.350 . S
C2771 H2758 0.929 . S
C2771 C2763 1.433 . S
C2771 N2773 1.384 . S
N2772 C2768 1.427 . S
N2772 C2769 1.384 . S
N2773 C2765 1.427 . S
N2773 C2771 1.384 . S
H2774 C2780 0.930 . S
H2775 C2784 0.930 . S
H2776 C2789 0.929 . S
H2777 C2787 0.929 . S
H2778 C2782 0.929 . S
H2779 C2788 0.929 . S
C2780 H2774 0.930 . S
C2780 C2781 1.367 . S
C2780 C2788 1.378 . S
C2781 C2780 1.367 . S
C2781 C2789 1.433 . S
C2782 H2778 0.929 . S
C2782 C2784 1.378 . S
C2782 C2786 1.350 . S
C2783 C2786 1.463 . S
C2783 C2788 1.350 . S
C2783 N2791 1.427 . S
C2784 H2775 0.930 . S
C2784 C2782 1.378 . S
C2784 C2785 1.367 . S
C2785 C2784 1.367 . S
C2785 C2787 1.433 . S
C2786 C2782 1.350 . S
C2786 C2783 1.463 . S
C2786 N2790 1.427 . S
C2787 H2777 0.929 . S
C2787 C2785 1.433 . S
C2787 N2790 1.384 . S
C2788 H2779 0.929 . S
C2788 C2780 1.378 . S
C2788 C2783 1.350 . S
C2789 H2776 0.929 . S
C2789 C2781 1.433 . S
C2789 N2791 1.384 . S
N2790 C2786 1.427 . S
N2790 C2787 1.384 . S
N2791 C2783 1.427 . S
N2791 C2789 1.384 . S
H2792 C2798 0.930 . S
H2793 C2802 0.930 . S
H2794 C2807 0.929 . S
H2795 C2805 0.929 . S
H2796 C2800 0.929 . S
H2797 C2806 0.929 . S
C2798 H2792 0.930 . S
C2798 C2799 1.367 . S
C2798 C2806 1.378 . S
C2799 C2798 1.367 . S
C2799 C2807 1.433 . S
C2800 H2796 0.929 . S
C2800 C2802 1.378 . S
C2800 C2804 1.350 . S
C2801 C2804 1.463 . S
C2801 C2806 1.350 . S
C2801 N2809 1.427 . S
C2802 H2793 0.930 . S
C2802 C2800 1.378 . S
C2802 C2803 1.367 . S
C2803 C2802 1.367 . S
C2803 C2805 1.433 . S
C2804 C2800 1.350 . S
C2804 C2801 1.463 . S
C2804 N2808 1.427 . S
C2805 H2795 0.929 . S
C2805 C2803 1.433 . S
C2805 N2808 1.384 . S
C2806 H2797 0.929 . S
C2806 C2798 1.378 . S
C2806 C2801 1.350 . S
C2807 H2794 0.929 . S
C2807 C2799 1.433 . S
C2807 N2809 1.384 . S
N2808 C2804 1.427 . S
N2808 C2805 1.384 . S
N2809 C2801 1.427 . S
N2809 C2807 1.384 . S
H2810 C2816 0.930 . S
H2811 C2820 0.930 . S
H2812 C2825 0.929 . S
H2813 C2823 0.929 . S
H2814 C2818 0.929 . S
H2815 C2824 0.929 . S
C2816 H2810 0.930 . S
C2816 C2817 1.367 . S
C2816 C2824 1.378 . S
C2817 C2816 1.367 . S
C2817 C2825 1.433 . S
C2818 H2814 0.929 . S
C2818 C2820 1.378 . S
C2818 C2822 1.350 . S
C2819 C2822 1.463 . S
C2819 C2824 1.350 . S
C2819 N2827 1.427 . S
C2820 H2811 0.930 . S
C2820 C2818 1.378 . S
C2820 C2821 1.367 . S
C2821 C2820 1.367 . S
C2821 C2823 1.433 . S
C2822 C2818 1.350 . S
C2822 C2819 1.463 . S
C2822 N2826 1.427 . S
C2823 H2813 0.929 . S
C2823 C2821 1.433 . S
C2823 N2826 1.384 . S
C2824 H2815 0.929 . S
C2824 C2816 1.378 . S
C2824 C2819 1.350 . S
C2825 H2812 0.929 . S
C2825 C2817 1.433 . S
C2825 N2827 1.384 . S
N2826 C2822 1.427 . S
N2826 C2823 1.384 . S
N2827 C2819 1.427 . S
N2827 C2825 1.384 . S
H2828 C2834 0.930 . S
H2829 C2838 0.930 . S
H2830 C2843 0.929 . S
H2831 C2841 0.929 . S
H2832 C2836 0.929 . S
H2833 C2842 0.929 . S
C2834 H2828 0.930 . S
C2834 C2835 1.367 . S
C2834 C2842 1.378 . S
C2835 C2834 1.367 . S
C2835 C2843 1.433 . S
C2836 H2832 0.929 . S
C2836 C2838 1.378 . S
C2836 C2840 1.350 . S
C2837 C2840 1.463 . S
C2837 C2842 1.350 . S
C2837 N2845 1.427 . S
C2838 H2829 0.930 . S
C2838 C2836 1.378 . S
C2838 C2839 1.367 . S
C2839 C2838 1.367 . S
C2839 C2841 1.433 . S
C2840 C2836 1.350 . S
C2840 C2837 1.463 . S
C2840 N2844 1.427 . S
C2841 H2831 0.929 . S
C2841 C2839 1.433 . S
C2841 N2844 1.384 . S
C2842 H2833 0.929 . S
C2842 C2834 1.378 . S
C2842 C2837 1.350 . S
C2843 H2830 0.929 . S
C2843 C2835 1.433 . S
C2843 N2845 1.384 . S
N2844 C2840 1.427 . S
N2844 C2841 1.384 . S
N2845 C2837 1.427 . S
N2845 C2843 1.384 . S
H2846 C2852 0.930 . S
H2847 C2856 0.930 . S
H2848 C2861 0.929 . S
H2849 C2859 0.929 . S
H2850 C2854 0.929 . S
H2851 C2860 0.929 . S
C2852 H2846 0.930 . S
C2852 C2853 1.367 . S
C2852 C2860 1.378 . S
C2853 C2852 1.367 . S
C2853 C2861 1.433 . S
C2854 H2850 0.929 . S
C2854 C2856 1.378 . S
C2854 C2858 1.350 . S
C2855 C2858 1.463 . S
C2855 C2860 1.350 . S
C2855 N2863 1.427 . S
C2856 H2847 0.930 . S
C2856 C2854 1.378 . S
C2856 C2857 1.367 . S
C2857 C2856 1.367 . S
C2857 C2859 1.433 . S
C2858 C2854 1.350 . S
C2858 C2855 1.463 . S
C2858 N2862 1.427 . S
C2859 H2849 0.929 . S
C2859 C2857 1.433 . S
C2859 N2862 1.384 . S
C2860 H2851 0.929 . S
C2860 C2852 1.378 . S
C2860 C2855 1.350 . S
C2861 H2848 0.929 . S
C2861 C2853 1.433 . S
C2861 N2863 1.384 . S
N2862 C2858 1.427 . S
N2862 C2859 1.384 . S
N2863 C2855 1.427 . S
N2863 C2861 1.384 . S
H2864 C2870 0.930 . S
H2865 C2874 0.930 . S
H2866 C2879 0.929 . S
H2867 C2877 0.929 . S
H2868 C2872 0.929 . S
H2869 C2878 0.929 . S
C2870 H2864 0.930 . S
C2870 C2871 1.367 . S
C2870 C2878 1.378 . S
C2871 C2870 1.367 . S
C2871 C2879 1.433 . S
C2872 H2868 0.929 . S
C2872 C2874 1.378 . S
C2872 C2876 1.350 . S
C2873 C2876 1.463 . S
C2873 C2878 1.350 . S
C2873 N2881 1.427 . S
C2874 H2865 0.930 . S
C2874 C2872 1.378 . S
C2874 C2875 1.367 . S
C2875 C2874 1.367 . S
C2875 C2877 1.433 . S
C2876 C2872 1.350 . S
C2876 C2873 1.463 . S
C2876 N2880 1.427 . S
C2877 H2867 0.929 . S
C2877 C2875 1.433 . S
C2877 N2880 1.384 . S
C2878 H2869 0.929 . S
C2878 C2870 1.378 . S
C2878 C2873 1.350 . S
C2879 H2866 0.929 . S
C2879 C2871 1.433 . S
C2879 N2881 1.384 . S
N2880 C2876 1.427 . S
N2880 C2877 1.384 . S
N2881 C2873 1.427 . S
N2881 C2879 1.384 . S
H2882 C2888 0.930 . S
H2883 C2892 0.930 . S
H2884 C2897 0.929 . S
H2885 C2895 0.929 . S
H2886 C2890 0.929 . S
H2887 C2896 0.929 . S
C2888 H2882 0.930 . S
C2888 C2889 1.367 . S
C2888 C2896 1.378 . S
C2889 C2888 1.367 . S
C2889 C2897 1.433 . S
C2890 H2886 0.929 . S
C2890 C2892 1.378 . S
C2890 C2894 1.350 . S
C2891 C2894 1.463 . S
C2891 C2896 1.350 . S
C2891 N2899 1.427 . S
C2892 H2883 0.930 . S
C2892 C2890 1.378 . S
C2892 C2893 1.367 . S
C2893 C2892 1.367 . S
C2893 C2895 1.433 . S
C2894 C2890 1.350 . S
C2894 C2891 1.463 . S
C2894 N2898 1.427 . S
C2895 H2885 0.929 . S
C2895 C2893 1.433 . S
C2895 N2898 1.384 . S
C2896 H2887 0.929 . S
C2896 C2888 1.378 . S
C2896 C2891 1.350 . S
C2897 H2884 0.929 . S
C2897 C2889 1.433 . S
C2897 N2899 1.384 . S
N2898 C2894 1.427 . S
N2898 C2895 1.384 . S
N2899 C2891 1.427 . S
N2899 C2897 1.384 . S
H2900 C2906 0.930 . S
H2901 C2910 0.930 . S
H2902 C2915 0.929 . S
H2903 C2913 0.929 . S
H2904 C2908 0.929 . S
H2905 C2914 0.929 . S
C2906 H2900 0.930 . S
C2906 C2907 1.367 . S
C2906 C2914 1.378 . S
C2907 C2906 1.367 . S
C2907 C2915 1.433 . S
C2908 H2904 0.929 . S
C2908 C2910 1.378 . S
C2908 C2912 1.350 . S
C2909 C2912 1.463 . S
C2909 C2914 1.350 . S
C2909 N2917 1.427 . S
C2910 H2901 0.930 . S
C2910 C2908 1.378 . S
C2910 C2911 1.367 . S
C2911 C2910 1.367 . S
C2911 C2913 1.433 . S
C2912 C2908 1.350 . S
C2912 C2909 1.463 . S
C2912 N2916 1.427 . S
C2913 H2903 0.929 . S
C2913 C2911 1.433 . S
C2913 N2916 1.384 . S
C2914 H2905 0.929 . S
C2914 C2906 1.378 . S
C2914 C2909 1.350 . S
C2915 H2902 0.929 . S
C2915 C2907 1.433 . S
C2915 N2917 1.384 . S
N2916 C2912 1.427 . S
N2916 C2913 1.384 . S
N2917 C2909 1.427 . S
N2917 C2915 1.384 . S
H2918 C2924 0.930 . S
H2919 C2928 0.930 . S
H2920 C2933 0.929 . S
H2921 C2931 0.929 . S
H2922 C2926 0.929 . S
H2923 C2932 0.929 . S
C2924 H2918 0.930 . S
C2924 C2925 1.367 . S
C2924 C2932 1.378 . S
C2925 C2924 1.367 . S
C2925 C2933 1.433 . S
C2926 H2922 0.929 . S
C2926 C2928 1.378 . S
C2926 C2930 1.350 . S
C2927 C2930 1.463 . S
C2927 C2932 1.350 . S
C2927 N2935 1.427 . S
C2928 H2919 0.930 . S
C2928 C2926 1.378 . S
C2928 C2929 1.367 . S
C2929 C2928 1.367 . S
C2929 C2931 1.433 . S
C2930 C2926 1.350 . S
C2930 C2927 1.463 . S
C2930 N2934 1.427 . S
C2931 H2921 0.929 . S
C2931 C2929 1.433 . S
C2931 N2934 1.384 . S
C2932 H2923 0.929 . S
C2932 C2924 1.378 . S
C2932 C2927 1.350 . S
C2933 H2920 0.929 . S
C2933 C2925 1.433 . S
C2933 N2935 1.384 . S
N2934 C2930 1.427 . S
N2934 C2931 1.384 . S
N2935 C2927 1.427 . S
N2935 C2933 1.384 . S
H2936 C2942 0.930 . S
H2937 C2946 0.930 . S
H2938 C2951 0.929 . S
H2939 C2949 0.929 . S
H2940 C2944 0.929 . S
H2941 C2950 0.929 . S
C2942 H2936 0.930 . S
C2942 C2943 1.367 . S
C2942 C2950 1.378 . S
C2943 C2942 1.367 . S
C2943 C2951 1.433 . S
C2944 H2940 0.929 . S
C2944 C2946 1.378 . S
C2944 C2948 1.350 . S
C2945 C2948 1.463 . S
C2945 C2950 1.350 . S
C2945 N2953 1.427 . S
C2946 H2937 0.930 . S
C2946 C2944 1.378 . S
C2946 C2947 1.367 . S
C2947 C2946 1.367 . S
C2947 C2949 1.433 . S
C2948 C2944 1.350 . S
C2948 C2945 1.463 . S
C2948 N2952 1.427 . S
C2949 H2939 0.929 . S
C2949 C2947 1.433 . S
C2949 N2952 1.384 . S
C2950 H2941 0.929 . S
C2950 C2942 1.378 . S
C2950 C2945 1.350 . S
C2951 H2938 0.929 . S
C2951 C2943 1.433 . S
C2951 N2953 1.384 . S
N2952 C2948 1.427 . S
N2952 C2949 1.384 . S
N2953 C2945 1.427 . S
N2953 C2951 1.384 . S
H2954 C2960 0.930 . S
H2955 C2964 0.930 . S
H2956 C2969 0.929 . S
H2957 C2967 0.929 . S
H2958 C2962 0.929 . S
H2959 C2968 0.929 . S
C2960 H2954 0.930 . S
C2960 C2961 1.367 . S
C2960 C2968 1.378 . S
C2961 C2960 1.367 . S
C2961 C2969 1.433 . S
C2962 H2958 0.929 . S
C2962 C2964 1.378 . S
C2962 C2966 1.350 . S
C2963 C2966 1.463 . S
C2963 C2968 1.350 . S
C2963 N2971 1.427 . S
C2964 H2955 0.930 . S
C2964 C2962 1.378 . S
C2964 C2965 1.367 . S
C2965 C2964 1.367 . S
C2965 C2967 1.433 . S
C2966 C2962 1.350 . S
C2966 C2963 1.463 . S
C2966 N2970 1.427 . S
C2967 H2957 0.929 . S
C2967 C2965 1.433 . S
C2967 N2970 1.384 . S
C2968 H2959 0.929 . S
C2968 C2960 1.378 . S
C2968 C2963 1.350 . S
C2969 H2956 0.929 . S
C2969 C2961 1.433 . S
C2969 N2971 1.384 . S
N2970 C2966 1.427 . S
N2970 C2967 1.384 . S
N2971 C2963 1.427 . S
N2971 C2969 1.384 . S
H2972 C2978 0.930 . S
H2973 C2982 0.930 . S
H2974 C2987 0.929 . S
H2975 C2985 0.929 . S
H2976 C2980 0.929 . S
H2977 C2986 0.929 . S
C2978 H2972 0.930 . S
C2978 C2979 1.367 . S
C2978 C2986 1.378 . S
C2979 C2978 1.367 . S
C2979 C2987 1.433 . S
C2980 H2976 0.929 . S
C2980 C2982 1.378 . S
C2980 C2984 1.350 . S
C2981 C2984 1.463 . S
C2981 C2986 1.350 . S
C2981 N2989 1.427 . S
C2982 H2973 0.930 . S
C2982 C2980 1.378 . S
C2982 C2983 1.367 . S
C2983 C2982 1.367 . S
C2983 C2985 1.433 . S
C2984 C2980 1.350 . S
C2984 C2981 1.463 . S
C2984 N2988 1.427 . S
C2985 H2975 0.929 . S
C2985 C2983 1.433 . S
C2985 N2988 1.384 . S
C2986 H2977 0.929 . S
C2986 C2978 1.378 . S
C2986 C2981 1.350 . S
C2987 H2974 0.929 . S
C2987 C2979 1.433 . S
C2987 N2989 1.384 . S
N2988 C2984 1.427 . S
N2988 C2985 1.384 . S
N2989 C2981 1.427 . S
N2989 C2987 1.384 . S
H2990 C2996 0.930 . S
H2991 C3000 0.930 . S
H2992 C3005 0.929 . S
H2993 C3003 0.929 . S
H2994 C2998 0.929 . S
H2995 C3004 0.929 . S
C2996 H2990 0.930 . S
C2996 C2997 1.367 . S
C2996 C3004 1.378 . S
C2997 C2996 1.367 . S
C2997 C3005 1.433 . S
C2998 H2994 0.929 . S
C2998 C3000 1.378 . S
C2998 C3002 1.350 . S
C2999 C3002 1.463 . S
C2999 C3004 1.350 . S
C2999 N3007 1.427 . S
C3000 H2991 0.930 . S
C3000 C2998 1.378 . S
C3000 C3001 1.367 . S
C3001 C3000 1.367 . S
C3001 C3003 1.433 . S
C3002 C2998 1.350 . S
C3002 C2999 1.463 . S
C3002 N3006 1.427 . S
C3003 H2993 0.929 . S
C3003 C3001 1.433 . S
C3003 N3006 1.384 . S
C3004 H2995 0.929 . S
C3004 C2996 1.378 . S
C3004 C2999 1.350 . S
C3005 H2992 0.929 . S
C3005 C2997 1.433 . S
C3005 N3007 1.384 . S
N3006 C3002 1.427 . S
N3006 C3003 1.384 . S
N3007 C2999 1.427 . S
N3007 C3005 1.384 . S
H3008 C3014 0.930 . S
H3009 C3018 0.930 . S
H3010 C3023 0.929 . S
H3011 C3021 0.929 . S
H3012 C3016 0.929 . S
H3013 C3022 0.929 . S
C3014 H3008 0.930 . S
C3014 C3015 1.367 . S
C3014 C3022 1.378 . S
C3015 C3014 1.367 . S
C3015 C3023 1.433 . S
C3016 H3012 0.929 . S
C3016 C3018 1.378 . S
C3016 C3020 1.350 . S
C3017 C3020 1.463 . S
C3017 C3022 1.350 . S
C3017 N3025 1.427 . S
C3018 H3009 0.930 . S
C3018 C3016 1.378 . S
C3018 C3019 1.367 . S
C3019 C3018 1.367 . S
C3019 C3021 1.433 . S
C3020 C3016 1.350 . S
C3020 C3017 1.463 . S
C3020 N3024 1.427 . S
C3021 H3011 0.929 . S
C3021 C3019 1.433 . S
C3021 N3024 1.384 . S
C3022 H3013 0.929 . S
C3022 C3014 1.378 . S
C3022 C3017 1.350 . S
C3023 H3010 0.929 . S
C3023 C3015 1.433 . S
C3023 N3025 1.384 . S
N3024 C3020 1.427 . S
N3024 C3021 1.384 . S
N3025 C3017 1.427 . S
N3025 C3023 1.384 . S
H3026 C3032 0.930 . S
H3027 C3036 0.930 . S
H3028 C3041 0.929 . S
H3029 C3039 0.929 . S
H3030 C3034 0.929 . S
H3031 C3040 0.929 . S
C3032 H3026 0.930 . S
C3032 C3033 1.367 . S
C3032 C3040 1.378 . S
C3033 C3032 1.367 . S
C3033 C3041 1.433 . S
C3034 H3030 0.929 . S
C3034 C3036 1.378 . S
C3034 C3038 1.350 . S
C3035 C3038 1.463 . S
C3035 C3040 1.350 . S
C3035 N3043 1.427 . S
C3036 H3027 0.930 . S
C3036 C3034 1.378 . S
C3036 C3037 1.367 . S
C3037 C3036 1.367 . S
C3037 C3039 1.433 . S
C3038 C3034 1.350 . S
C3038 C3035 1.463 . S
C3038 N3042 1.427 . S
C3039 H3029 0.929 . S
C3039 C3037 1.433 . S
C3039 N3042 1.384 . S
C3040 H3031 0.929 . S
C3040 C3032 1.378 . S
C3040 C3035 1.350 . S
C3041 H3028 0.929 . S
C3041 C3033 1.433 . S
C3041 N3043 1.384 . S
N3042 C3038 1.427 . S
N3042 C3039 1.384 . S
N3043 C3035 1.427 . S
N3043 C3041 1.384 . S
H3044 C3050 0.930 . S
H3045 C3054 0.930 . S
H3046 C3059 0.929 . S
H3047 C3057 0.929 . S
H3048 C3052 0.929 . S
H3049 C3058 0.929 . S
C3050 H3044 0.930 . S
C3050 C3051 1.367 . S
C3050 C3058 1.378 . S
C3051 C3050 1.367 . S
C3051 C3059 1.433 . S
C3052 H3048 0.929 . S
C3052 C3054 1.378 . S
C3052 C3056 1.350 . S
C3053 C3056 1.463 . S
C3053 C3058 1.350 . S
C3053 N3061 1.427 . S
C3054 H3045 0.930 . S
C3054 C3052 1.378 . S
C3054 C3055 1.367 . S
C3055 C3054 1.367 . S
C3055 C3057 1.433 . S
C3056 C3052 1.350 . S
C3056 C3053 1.463 . S
C3056 N3060 1.427 . S
C3057 H3047 0.929 . S
C3057 C3055 1.433 . S
C3057 N3060 1.384 . S
C3058 H3049 0.929 . S
C3058 C3050 1.378 . S
C3058 C3053 1.350 . S
C3059 H3046 0.929 . S
C3059 C3051 1.433 . S
C3059 N3061 1.384 . S
N3060 C3056 1.427 . S
N3060 C3057 1.384 . S
N3061 C3053 1.427 . S
N3061 C3059 1.384 . S
H3062 C3068 0.930 . S
H3063 C3072 0.930 . S
H3064 C3077 0.929 . S
H3065 C3075 0.929 . S
H3066 C3070 0.929 . S
H3067 C3076 0.929 . S
C3068 H3062 0.930 . S
C3068 C3069 1.367 . S
C3068 C3076 1.378 . S
C3069 C3068 1.367 . S
C3069 C3077 1.433 . S
C3070 H3066 0.929 . S
C3070 C3072 1.378 . S
C3070 C3074 1.350 . S
C3071 C3074 1.463 . S
C3071 C3076 1.350 . S
C3071 N3079 1.427 . S
C3072 H3063 0.930 . S
C3072 C3070 1.378 . S
C3072 C3073 1.367 . S
C3073 C3072 1.367 . S
C3073 C3075 1.433 . S
C3074 C3070 1.350 . S
C3074 C3071 1.463 . S
C3074 N3078 1.427 . S
C3075 H3065 0.929 . S
C3075 C3073 1.433 . S
C3075 N3078 1.384 . S
C3076 H3067 0.929 . S
C3076 C3068 1.378 . S
C3076 C3071 1.350 . S
C3077 H3064 0.929 . S
C3077 C3069 1.433 . S
C3077 N3079 1.384 . S
N3078 C3074 1.427 . S
N3078 C3075 1.384 . S
N3079 C3071 1.427 . S
N3079 C3077 1.384 . S
H3080 C3086 0.930 . S
H3081 C3090 0.930 . S
H3082 C3095 0.929 . S
H3083 C3093 0.929 . S
H3084 C3088 0.929 . S
H3085 C3094 0.929 . S
C3086 H3080 0.930 . S
C3086 C3087 1.367 . S
C3086 C3094 1.378 . S
C3087 C3086 1.367 . S
C3087 C3095 1.433 . S
C3088 H3084 0.929 . S
C3088 C3090 1.378 . S
C3088 C3092 1.350 . S
C3089 C3092 1.463 . S
C3089 C3094 1.350 . S
C3089 N3097 1.427 . S
C3090 H3081 0.930 . S
C3090 C3088 1.378 . S
C3090 C3091 1.367 . S
C3091 C3090 1.367 . S
C3091 C3093 1.433 . S
C3092 C3088 1.350 . S
C3092 C3089 1.463 . S
C3092 N3096 1.427 . S
C3093 H3083 0.929 . S
C3093 C3091 1.433 . S
C3093 N3096 1.384 . S
C3094 H3085 0.929 . S
C3094 C3086 1.378 . S
C3094 C3089 1.350 . S
C3095 H3082 0.929 . S
C3095 C3087 1.433 . S
C3095 N3097 1.384 . S
N3096 C3092 1.427 . S
N3096 C3093 1.384 . S
N3097 C3089 1.427 . S
N3097 C3095 1.384 . S
H3098 C3104 0.930 . S
H3099 C3108 0.930 . S
H3100 C3113 0.929 . S
H3101 C3111 0.929 . S
H3102 C3106 0.929 . S
H3103 C3112 0.929 . S
C3104 H3098 0.930 . S
C3104 C3105 1.367 . S
C3104 C3112 1.378 . S
C3105 C3104 1.367 . S
C3105 C3113 1.433 . S
C3106 H3102 0.929 . S
C3106 C3108 1.378 . S
C3106 C3110 1.350 . S
C3107 C3110 1.463 . S
C3107 C3112 1.350 . S
C3107 N3115 1.427 . S
C3108 H3099 0.930 . S
C3108 C3106 1.378 . S
C3108 C3109 1.367 . S
C3109 C3108 1.367 . S
C3109 C3111 1.433 . S
C3110 C3106 1.350 . S
C3110 C3107 1.463 . S
C3110 N3114 1.427 . S
C3111 H3101 0.929 . S
C3111 C3109 1.433 . S
C3111 N3114 1.384 . S
C3112 H3103 0.929 . S
C3112 C3104 1.378 . S
C3112 C3107 1.350 . S
C3113 H3100 0.929 . S
C3113 C3105 1.433 . S
C3113 N3115 1.384 . S
N3114 C3110 1.427 . S
N3114 C3111 1.384 . S
N3115 C3107 1.427 . S
N3115 C3113 1.384 . S
H3116 C3122 0.930 . S
H3117 C3126 0.930 . S
H3118 C3131 0.929 . S
H3119 C3129 0.929 . S
H3120 C3124 0.929 . S
H3121 C3130 0.929 . S
C3122 H3116 0.930 . S
C3122 C3123 1.367 . S
C3122 C3130 1.378 . S
C3123 C3122 1.367 . S
C3123 C3131 1.433 . S
C3124 H3120 0.929 . S
C3124 C3126 1.378 . S
C3124 C3128 1.350 . S
C3125 C3128 1.463 . S
C3125 C3130 1.350 . S
C3125 N3133 1.427 . S
C3126 H3117 0.930 . S
C3126 C3124 1.378 . S
C3126 C3127 1.367 . S
C3127 C3126 1.367 . S
C3127 C3129 1.433 . S
C3128 C3124 1.350 . S
C3128 C3125 1.463 . S
C3128 N3132 1.427 . S
C3129 H3119 0.929 . S
C3129 C3127 1.433 . S
C3129 N3132 1.384 . S
C3130 H3121 0.929 . S
C3130 C3122 1.378 . S
C3130 C3125 1.350 . S
C3131 H3118 0.929 . S
C3131 C3123 1.433 . S
C3131 N3133 1.384 . S
N3132 C3128 1.427 . S
N3132 C3129 1.384 . S
N3133 C3125 1.427 . S
N3133 C3131 1.384 . S
H3134 C3140 0.930 . S
H3135 C3144 0.930 . S
H3136 C3149 0.929 . S
H3137 C3147 0.929 . S
H3138 C3142 0.929 . S
H3139 C3148 0.929 . S
C3140 H3134 0.930 . S
C3140 C3141 1.367 . S
C3140 C3148 1.378 . S
C3141 C3140 1.367 . S
C3141 C3149 1.433 . S
C3142 H3138 0.929 . S
C3142 C3144 1.378 . S
C3142 C3146 1.350 . S
C3143 C3146 1.463 . S
C3143 C3148 1.350 . S
C3143 N3151 1.427 . S
C3144 H3135 0.930 . S
C3144 C3142 1.378 . S
C3144 C3145 1.367 . S
C3145 C3144 1.367 . S
C3145 C3147 1.433 . S
C3146 C3142 1.350 . S
C3146 C3143 1.463 . S
C3146 N3150 1.427 . S
C3147 H3137 0.929 . S
C3147 C3145 1.433 . S
C3147 N3150 1.384 . S
C3148 H3139 0.929 . S
C3148 C3140 1.378 . S
C3148 C3143 1.350 . S
C3149 H3136 0.929 . S
C3149 C3141 1.433 . S
C3149 N3151 1.384 . S
N3150 C3146 1.427 . S
N3150 C3147 1.384 . S
N3151 C3143 1.427 . S
N3151 C3149 1.384 . S
H3152 C3158 0.930 . S
H3153 C3162 0.930 . S
H3154 C3167 0.929 . S
H3155 C3165 0.929 . S
H3156 C3160 0.929 . S
H3157 C3166 0.929 . S
C3158 H3152 0.930 . S
C3158 C3159 1.367 . S
C3158 C3166 1.378 . S
C3159 C3158 1.367 . S
C3159 C3167 1.433 . S
C3160 H3156 0.929 . S
C3160 C3162 1.378 . S
C3160 C3164 1.350 . S
C3161 C3164 1.463 . S
C3161 C3166 1.350 . S
C3161 N3169 1.427 . S
C3162 H3153 0.930 . S
C3162 C3160 1.378 . S
C3162 C3163 1.367 . S
C3163 C3162 1.367 . S
C3163 C3165 1.433 . S
C3164 C3160 1.350 . S
C3164 C3161 1.463 . S
C3164 N3168 1.427 . S
C3165 H3155 0.929 . S
C3165 C3163 1.433 . S
C3165 N3168 1.384 . S
C3166 H3157 0.929 . S
C3166 C3158 1.378 . S
C3166 C3161 1.350 . S
C3167 H3154 0.929 . S
C3167 C3159 1.433 . S
C3167 N3169 1.384 . S
N3168 C3164 1.427 . S
N3168 C3165 1.384 . S
N3169 C3161 1.427 . S
N3169 C3167 1.384 . S
H3170 C3176 0.930 . S
H3171 C3180 0.930 . S
H3172 C3185 0.929 . S
H3173 C3183 0.929 . S
H3174 C3178 0.929 . S
H3175 C3184 0.929 . S
C3176 H3170 0.930 . S
C3176 C3177 1.367 . S
C3176 C3184 1.378 . S
C3177 C3176 1.367 . S
C3177 C3185 1.433 . S
C3178 H3174 0.929 . S
C3178 C3180 1.378 . S
C3178 C3182 1.350 . S
C3179 C3182 1.463 . S
C3179 C3184 1.350 . S
C3179 N3187 1.427 . S
C3180 H3171 0.930 . S
C3180 C3178 1.378 . S
C3180 C3181 1.367 . S
C3181 C3180 1.367 . S
C3181 C3183 1.433 . S
C3182 C3178 1.350 . S
C3182 C3179 1.463 . S
C3182 N3186 1.427 . S
C3183 H3173 0.929 . S
C3183 C3181 1.433 . S
C3183 N3186 1.384 . S
C3184 H3175 0.929 . S
C3184 C3176 1.378 . S
C3184 C3179 1.350 . S
C3185 H3172 0.929 . S
C3185 C3177 1.433 . S
C3185 N3187 1.384 . S
N3186 C3182 1.427 . S
N3186 C3183 1.384 . S
N3187 C3179 1.427 . S
N3187 C3185 1.384 . S
H3188 C3194 0.930 . S
H3189 C3198 0.930 . S
H3190 C3203 0.929 . S
H3191 C3201 0.929 . S
H3192 C3196 0.929 . S
H3193 C3202 0.929 . S
C3194 H3188 0.930 . S
C3194 C3195 1.367 . S
C3194 C3202 1.378 . S
C3195 C3194 1.367 . S
C3195 C3203 1.433 . S
C3196 H3192 0.929 . S
C3196 C3198 1.378 . S
C3196 C3200 1.350 . S
C3197 C3200 1.463 . S
C3197 C3202 1.350 . S
C3197 N3205 1.427 . S
C3198 H3189 0.930 . S
C3198 C3196 1.378 . S
C3198 C3199 1.367 . S
C3199 C3198 1.367 . S
C3199 C3201 1.433 . S
C3200 C3196 1.350 . S
C3200 C3197 1.463 . S
C3200 N3204 1.427 . S
C3201 H3191 0.929 . S
C3201 C3199 1.433 . S
C3201 N3204 1.384 . S
C3202 H3193 0.929 . S
C3202 C3194 1.378 . S
C3202 C3197 1.350 . S
C3203 H3190 0.929 . S
C3203 C3195 1.433 . S
C3203 N3205 1.384 . S
N3204 C3200 1.427 . S
N3204 C3201 1.384 . S
N3205 C3197 1.427 . S
N3205 C3203 1.384 . S
H3206 C3212 0.930 . S
H3207 C3216 0.930 . S
H3208 C3221 0.929 . S
H3209 C3219 0.929 . S
H3210 C3214 0.929 . S
H3211 C3220 0.929 . S
C3212 H3206 0.930 . S
C3212 C3213 1.367 . S
C3212 C3220 1.378 . S
C3213 C3212 1.367 . S
C3213 C3221 1.433 . S
C3214 H3210 0.929 . S
C3214 C3216 1.378 . S
C3214 C3218 1.350 . S
C3215 C3218 1.463 . S
C3215 C3220 1.350 . S
C3215 N3223 1.427 . S
C3216 H3207 0.930 . S
C3216 C3214 1.378 . S
C3216 C3217 1.367 . S
C3217 C3216 1.367 . S
C3217 C3219 1.433 . S
C3218 C3214 1.350 . S
C3218 C3215 1.463 . S
C3218 N3222 1.427 . S
C3219 H3209 0.929 . S
C3219 C3217 1.433 . S
C3219 N3222 1.384 . S
C3220 H3211 0.929 . S
C3220 C3212 1.378 . S
C3220 C3215 1.350 . S
C3221 H3208 0.929 . S
C3221 C3213 1.433 . S
C3221 N3223 1.384 . S
N3222 C3218 1.427 . S
N3222 C3219 1.384 . S
N3223 C3215 1.427 . S
N3223 C3221 1.384 . S
H3224 C3230 0.930 . S
H3225 C3234 0.930 . S
H3226 C3239 0.929 . S
H3227 C3237 0.929 . S
H3228 C3232 0.929 . S
H3229 C3238 0.929 . S
C3230 H3224 0.930 . S
C3230 C3231 1.367 . S
C3230 C3238 1.378 . S
C3231 C3230 1.367 . S
C3231 C3239 1.433 . S
C3232 H3228 0.929 . S
C3232 C3234 1.378 . S
C3232 C3236 1.350 . S
C3233 C3236 1.463 . S
C3233 C3238 1.350 . S
C3233 N3241 1.427 . S
C3234 H3225 0.930 . S
C3234 C3232 1.378 . S
C3234 C3235 1.367 . S
C3235 C3234 1.367 . S
C3235 C3237 1.433 . S
C3236 C3232 1.350 . S
C3236 C3233 1.463 . S
C3236 N3240 1.427 . S
C3237 H3227 0.929 . S
C3237 C3235 1.433 . S
C3237 N3240 1.384 . S
C3238 H3229 0.929 . S
C3238 C3230 1.378 . S
C3238 C3233 1.350 . S
C3239 H3226 0.929 . S
C3239 C3231 1.433 . S
C3239 N3241 1.384 . S
N3240 C3236 1.427 . S
N3240 C3237 1.384 . S
N3241 C3233 1.427 . S
N3241 C3239 1.384 . S
H3242 C3248 0.930 . S
H3243 C3252 0.930 . S
H3244 C3257 0.929 . S
H3245 C3255 0.929 . S
H3246 C3250 0.929 . S
H3247 C3256 0.929 . S
C3248 H3242 0.930 . S
C3248 C3249 1.367 . S
C3248 C3256 1.378 . S
C3249 C3248 1.367 . S
C3249 C3257 1.433 . S
C3250 H3246 0.929 . S
C3250 C3252 1.378 . S
C3250 C3254 1.350 . S
C3251 C3254 1.463 . S
C3251 C3256 1.350 . S
C3251 N3259 1.427 . S
C3252 H3243 0.930 . S
C3252 C3250 1.378 . S
C3252 C3253 1.367 . S
C3253 C3252 1.367 . S
C3253 C3255 1.433 . S
C3254 C3250 1.350 . S
C3254 C3251 1.463 . S
C3254 N3258 1.427 . S
C3255 H3245 0.929 . S
C3255 C3253 1.433 . S
C3255 N3258 1.384 . S
C3256 H3247 0.929 . S
C3256 C3248 1.378 . S
C3256 C3251 1.350 . S
C3257 H3244 0.929 . S
C3257 C3249 1.433 . S
C3257 N3259 1.384 . S
N3258 C3254 1.427 . S
N3258 C3255 1.384 . S
N3259 C3251 1.427 . S
N3259 C3257 1.384 . S
H3260 C3266 0.930 . S
H3261 C3270 0.930 . S
H3262 C3275 0.929 . S
H3263 C3273 0.929 . S
H3264 C3268 0.929 . S
H3265 C3274 0.929 . S
C3266 H3260 0.930 . S
C3266 C3267 1.367 . S
C3266 C3274 1.378 . S
C3267 C3266 1.367 . S
C3267 C3275 1.433 . S
C3268 H3264 0.929 . S
C3268 C3270 1.378 . S
C3268 C3272 1.350 . S
C3269 C3272 1.463 . S
C3269 C3274 1.350 . S
C3269 N3277 1.427 . S
C3270 H3261 0.930 . S
C3270 C3268 1.378 . S
C3270 C3271 1.367 . S
C3271 C3270 1.367 . S
C3271 C3273 1.433 . S
C3272 C3268 1.350 . S
C3272 C3269 1.463 . S
C3272 N3276 1.427 . S
C3273 H3263 0.929 . S
C3273 C3271 1.433 . S
C3273 N3276 1.384 . S
C3274 H3265 0.929 . S
C3274 C3266 1.378 . S
C3274 C3269 1.350 . S
C3275 H3262 0.929 . S
C3275 C3267 1.433 . S
C3275 N3277 1.384 . S
N3276 C3272 1.427 . S
N3276 C3273 1.384 . S
N3277 C3269 1.427 . S
N3277 C3275 1.384 . S
H3278 C3284 0.930 . S
H3279 C3288 0.930 . S
H3280 C3293 0.929 . S
H3281 C3291 0.929 . S
H3282 C3286 0.929 . S
H3283 C3292 0.929 . S
C3284 H3278 0.930 . S
C3284 C3285 1.367 . S
C3284 C3292 1.378 . S
C3285 C3284 1.367 . S
C3285 C3293 1.433 . S
C3286 H3282 0.929 . S
C3286 C3288 1.378 . S
C3286 C3290 1.350 . S
C3287 C3290 1.463 . S
C3287 C3292 1.350 . S
C3287 N3295 1.427 . S
C3288 H3279 0.930 . S
C3288 C3286 1.378 . S
C3288 C3289 1.367 . S
C3289 C3288 1.367 . S
C3289 C3291 1.433 . S
C3290 C3286 1.350 . S
C3290 C3287 1.463 . S
C3290 N3294 1.427 . S
C3291 H3281 0.929 . S
C3291 C3289 1.433 . S
C3291 N3294 1.384 . S
C3292 H3283 0.929 . S
C3292 C3284 1.378 . S
C3292 C3287 1.350 . S
C3293 H3280 0.929 . S
C3293 C3285 1.433 . S
C3293 N3295 1.384 . S
N3294 C3290 1.427 . S
N3294 C3291 1.384 . S
N3295 C3287 1.427 . S
N3295 C3293 1.384 . S
H3296 C3302 0.930 . S
H3297 C3306 0.930 . S
H3298 C3311 0.929 . S
H3299 C3309 0.929 . S
H3300 C3304 0.929 . S
H3301 C3310 0.929 . S
C3302 H3296 0.930 . S
C3302 C3303 1.367 . S
C3302 C3310 1.378 . S
C3303 C3302 1.367 . S
C3303 C3311 1.433 . S
C3304 H3300 0.929 . S
C3304 C3306 1.378 . S
C3304 C3308 1.350 . S
C3305 C3308 1.463 . S
C3305 C3310 1.350 . S
C3305 N3313 1.427 . S
C3306 H3297 0.930 . S
C3306 C3304 1.378 . S
C3306 C3307 1.367 . S
C3307 C3306 1.367 . S
C3307 C3309 1.433 . S
C3308 C3304 1.350 . S
C3308 C3305 1.463 . S
C3308 N3312 1.427 . S
C3309 H3299 0.929 . S
C3309 C3307 1.433 . S
C3309 N3312 1.384 . S
C3310 H3301 0.929 . S
C3310 C3302 1.378 . S
C3310 C3305 1.350 . S
C3311 H3298 0.929 . S
C3311 C3303 1.433 . S
C3311 N3313 1.384 . S
N3312 C3308 1.427 . S
N3312 C3309 1.384 . S
N3313 C3305 1.427 . S
N3313 C3311 1.384 . S
H3314 C3320 0.930 . S
H3315 C3324 0.930 . S
H3316 C3329 0.929 . S
H3317 C3327 0.929 . S
H3318 C3322 0.929 . S
H3319 C3328 0.929 . S
C3320 H3314 0.930 . S
C3320 C3321 1.367 . S
C3320 C3328 1.378 . S
C3321 C3320 1.367 . S
C3321 C3329 1.433 . S
C3322 H3318 0.929 . S
C3322 C3324 1.378 . S
C3322 C3326 1.350 . S
C3323 C3326 1.463 . S
C3323 C3328 1.350 . S
C3323 N3331 1.427 . S
C3324 H3315 0.930 . S
C3324 C3322 1.378 . S
C3324 C3325 1.367 . S
C3325 C3324 1.367 . S
C3325 C3327 1.433 . S
C3326 C3322 1.350 . S
C3326 C3323 1.463 . S
C3326 N3330 1.427 . S
C3327 H3317 0.929 . S
C3327 C3325 1.433 . S
C3327 N3330 1.384 . S
C3328 H3319 0.929 . S
C3328 C3320 1.378 . S
C3328 C3323 1.350 . S
C3329 H3316 0.929 . S
C3329 C3321 1.433 . S
C3329 N3331 1.384 . S
N3330 C3326 1.427 . S
N3330 C3327 1.384 . S
N3331 C3323 1.427 . S
N3331 C3329 1.384 . S
H3332 C3338 0.930 . S
H3333 C3342 0.930 . S
H3334 C3347 0.929 . S
H3335 C3345 0.929 . S
H3336 C3340 0.929 . S
H3337 C3346 0.929 . S
C3338 H3332 0.930 . S
C3338 C3339 1.367 . S
C3338 C3346 1.378 . S
C3339 C3338 1.367 . S
C3339 C3347 1.433 . S
C3340 H3336 0.929 . S
C3340 C3342 1.378 . S
C3340 C3344 1.350 . S
C3341 C3344 1.463 . S
C3341 C3346 1.350 . S
C3341 N3349 1.427 . S
C3342 H3333 0.930 . S
C3342 C3340 1.378 . S
C3342 C3343 1.367 . S
C3343 C3342 1.367 . S
C3343 C3345 1.433 . S
C3344 C3340 1.350 . S
C3344 C3341 1.463 . S
C3344 N3348 1.427 . S
C3345 H3335 0.929 . S
C3345 C3343 1.433 . S
C3345 N3348 1.384 . S
C3346 H3337 0.929 . S
C3346 C3338 1.378 . S
C3346 C3341 1.350 . S
C3347 H3334 0.929 . S
C3347 C3339 1.433 . S
C3347 N3349 1.384 . S
N3348 C3344 1.427 . S
N3348 C3345 1.384 . S
N3349 C3341 1.427 . S
N3349 C3347 1.384 . S
H3350 C3356 0.930 . S
H3351 C3360 0.930 . S
H3352 C3365 0.929 . S
H3353 C3363 0.929 . S
H3354 C3358 0.929 . S
H3355 C3364 0.929 . S
C3356 H3350 0.930 . S
C3356 C3357 1.367 . S
C3356 C3364 1.378 . S
C3357 C3356 1.367 . S
C3357 C3365 1.433 . S
C3358 H3354 0.929 . S
C3358 C3360 1.378 . S
C3358 C3362 1.350 . S
C3359 C3362 1.463 . S
C3359 C3364 1.350 . S
C3359 N3367 1.427 . S
C3360 H3351 0.930 . S
C3360 C3358 1.378 . S
C3360 C3361 1.367 . S
C3361 C3360 1.367 . S
C3361 C3363 1.433 . S
C3362 C3358 1.350 . S
C3362 C3359 1.463 . S
C3362 N3366 1.427 . S
C3363 H3353 0.929 . S
C3363 C3361 1.433 . S
C3363 N3366 1.384 . S
C3364 H3355 0.929 . S
C3364 C3356 1.378 . S
C3364 C3359 1.350 . S
C3365 H3352 0.929 . S
C3365 C3357 1.433 . S
C3365 N3367 1.384 . S
N3366 C3362 1.427 . S
N3366 C3363 1.384 . S
N3367 C3359 1.427 . S
N3367 C3365 1.384 . S
H3368 C3374 0.930 . S
H3369 C3378 0.930 . S
H3370 C3383 0.929 . S
H3371 C3381 0.929 . S
H3372 C3376 0.929 . S
H3373 C3382 0.929 . S
C3374 H3368 0.930 . S
C3374 C3375 1.367 . S
C3374 C3382 1.378 . S
C3375 C3374 1.367 . S
C3375 C3383 1.433 . S
C3376 H3372 0.929 . S
C3376 C3378 1.378 . S
C3376 C3380 1.350 . S
C3377 C3380 1.463 . S
C3377 C3382 1.350 . S
C3377 N3385 1.427 . S
C3378 H3369 0.930 . S
C3378 C3376 1.378 . S
C3378 C3379 1.367 . S
C3379 C3378 1.367 . S
C3379 C3381 1.433 . S
C3380 C3376 1.350 . S
C3380 C3377 1.463 . S
C3380 N3384 1.427 . S
C3381 H3371 0.929 . S
C3381 C3379 1.433 . S
C3381 N3384 1.384 . S
C3382 H3373 0.929 . S
C3382 C3374 1.378 . S
C3382 C3377 1.350 . S
C3383 H3370 0.929 . S
C3383 C3375 1.433 . S
C3383 N3385 1.384 . S
N3384 C3380 1.427 . S
N3384 C3381 1.384 . S
N3385 C3377 1.427 . S
N3385 C3383 1.384 . S
H3386 C3392 0.930 . S
H3387 C3396 0.930 . S
H3388 C3401 0.929 . S
H3389 C3399 0.929 . S
H3390 C3394 0.929 . S
H3391 C3400 0.929 . S
C3392 H3386 0.930 . S
C3392 C3393 1.367 . S
C3392 C3400 1.378 . S
C3393 C3392 1.367 . S
C3393 C3401 1.433 . S
C3394 H3390 0.929 . S
C3394 C3396 1.378 . S
C3394 C3398 1.350 . S
C3395 C3398 1.463 . S
C3395 C3400 1.350 . S
C3395 N3403 1.427 . S
C3396 H3387 0.930 . S
C3396 C3394 1.378 . S
C3396 C3397 1.367 . S
C3397 C3396 1.367 . S
C3397 C3399 1.433 . S
C3398 C3394 1.350 . S
C3398 C3395 1.463 . S
C3398 N3402 1.427 . S
C3399 H3389 0.929 . S
C3399 C3397 1.433 . S
C3399 N3402 1.384 . S
C3400 H3391 0.929 . S
C3400 C3392 1.378 . S
C3400 C3395 1.350 . S
C3401 H3388 0.929 . S
C3401 C3393 1.433 . S
C3401 N3403 1.384 . S
N3402 C3398 1.427 . S
N3402 C3399 1.384 . S
N3403 C3395 1.427 . S
N3403 C3401 1.384 . S
H3404 C3410 0.930 . S
H3405 C3414 0.930 . S
H3406 C3419 0.929 . S
H3407 C3417 0.929 . S
H3408 C3412 0.929 . S
H3409 C3418 0.929 . S
C3410 H3404 0.930 . S
C3410 C3411 1.367 . S
C3410 C3418 1.378 . S
C3411 C3410 1.367 . S
C3411 C3419 1.433 . S
C3412 H3408 0.929 . S
C3412 C3414 1.378 . S
C3412 C3416 1.350 . S
C3413 C3416 1.463 . S
C3413 C3418 1.350 . S
C3413 N3421 1.427 . S
C3414 H3405 0.930 . S
C3414 C3412 1.378 . S
C3414 C3415 1.367 . S
C3415 C3414 1.367 . S
C3415 C3417 1.433 . S
C3416 C3412 1.350 . S
C3416 C3413 1.463 . S
C3416 N3420 1.427 . S
C3417 H3407 0.929 . S
C3417 C3415 1.433 . S
C3417 N3420 1.384 . S
C3418 H3409 0.929 . S
C3418 C3410 1.378 . S
C3418 C3413 1.350 . S
C3419 H3406 0.929 . S
C3419 C3411 1.433 . S
C3419 N3421 1.384 . S
N3420 C3416 1.427 . S
N3420 C3417 1.384 . S
N3421 C3413 1.427 . S
N3421 C3419 1.384 . S
H3422 C3428 0.930 . S
H3423 C3432 0.930 . S
H3424 C3437 0.929 . S
H3425 C3435 0.929 . S
H3426 C3430 0.929 . S
H3427 C3436 0.929 . S
C3428 H3422 0.930 . S
C3428 C3429 1.367 . S
C3428 C3436 1.378 . S
C3429 C3428 1.367 . S
C3429 C3437 1.433 . S
C3430 H3426 0.929 . S
C3430 C3432 1.378 . S
C3430 C3434 1.350 . S
C3431 C3434 1.463 . S
C3431 C3436 1.350 . S
C3431 N3439 1.427 . S
C3432 H3423 0.930 . S
C3432 C3430 1.378 . S
C3432 C3433 1.367 . S
C3433 C3432 1.367 . S
C3433 C3435 1.433 . S
C3434 C3430 1.350 . S
C3434 C3431 1.463 . S
C3434 N3438 1.427 . S
C3435 H3425 0.929 . S
C3435 C3433 1.433 . S
C3435 N3438 1.384 . S
C3436 H3427 0.929 . S
C3436 C3428 1.378 . S
C3436 C3431 1.350 . S
C3437 H3424 0.929 . S
C3437 C3429 1.433 . S
C3437 N3439 1.384 . S
N3438 C3434 1.427 . S
N3438 C3435 1.384 . S
N3439 C3431 1.427 . S
N3439 C3437 1.384 . S
H3440 C3446 0.930 . S
H3441 C3450 0.930 . S
H3442 C3455 0.929 . S
H3443 C3453 0.929 . S
H3444 C3448 0.929 . S
H3445 C3454 0.929 . S
C3446 H3440 0.930 . S
C3446 C3447 1.367 . S
C3446 C3454 1.378 . S
C3447 C3446 1.367 . S
C3447 C3455 1.433 . S
C3448 H3444 0.929 . S
C3448 C3450 1.378 . S
C3448 C3452 1.350 . S
C3449 C3452 1.463 . S
C3449 C3454 1.350 . S
C3449 N3457 1.427 . S
C3450 H3441 0.930 . S
C3450 C3448 1.378 . S
C3450 C3451 1.367 . S
C3451 C3450 1.367 . S
C3451 C3453 1.433 . S
C3452 C3448 1.350 . S
C3452 C3449 1.463 . S
C3452 N3456 1.427 . S
C3453 H3443 0.929 . S
C3453 C3451 1.433 . S
C3453 N3456 1.384 . S
C3454 H3445 0.929 . S
C3454 C3446 1.378 . S
C3454 C3449 1.350 . S
C3455 H3442 0.929 . S
C3455 C3447 1.433 . S
C3455 N3457 1.384 . S
N3456 C3452 1.427 . S
N3456 C3453 1.384 . S
N3457 C3449 1.427 . S
N3457 C3455 1.384 . S
H3458 C3464 0.930 . S
H3459 C3468 0.930 . S
H3460 C3473 0.929 . S
H3461 C3471 0.929 . S
H3462 C3466 0.929 . S
H3463 C3472 0.929 . S
C3464 H3458 0.930 . S
C3464 C3465 1.367 . S
C3464 C3472 1.378 . S
C3465 C3464 1.367 . S
C3465 C3473 1.433 . S
C3466 H3462 0.929 . S
C3466 C3468 1.378 . S
C3466 C3470 1.350 . S
C3467 C3470 1.463 . S
C3467 C3472 1.350 . S
C3467 N3475 1.427 . S
C3468 H3459 0.930 . S
C3468 C3466 1.378 . S
C3468 C3469 1.367 . S
C3469 C3468 1.367 . S
C3469 C3471 1.433 . S
C3470 C3466 1.350 . S
C3470 C3467 1.463 . S
C3470 N3474 1.427 . S
C3471 H3461 0.929 . S
C3471 C3469 1.433 . S
C3471 N3474 1.384 . S
C3472 H3463 0.929 . S
C3472 C3464 1.378 . S
C3472 C3467 1.350 . S
C3473 H3460 0.929 . S
C3473 C3465 1.433 . S
C3473 N3475 1.384 . S
N3474 C3470 1.427 . S
N3474 C3471 1.384 . S
N3475 C3467 1.427 . S
N3475 C3473 1.384 . S
H3476 C3482 0.930 . S
H3477 C3486 0.930 . S
H3478 C3491 0.929 . S
H3479 C3489 0.929 . S
H3480 C3484 0.929 . S
H3481 C3490 0.929 . S
C3482 H3476 0.930 . S
C3482 C3483 1.367 . S
C3482 C3490 1.378 . S
C3483 C3482 1.367 . S
C3483 C3491 1.433 . S
C3484 H3480 0.929 . S
C3484 C3486 1.378 . S
C3484 C3488 1.350 . S
C3485 C3488 1.463 . S
C3485 C3490 1.350 . S
C3485 N3493 1.427 . S
C3486 H3477 0.930 . S
C3486 C3484 1.378 . S
C3486 C3487 1.367 . S
C3487 C3486 1.367 . S
C3487 C3489 1.433 . S
C3488 C3484 1.350 . S
C3488 C3485 1.463 . S
C3488 N3492 1.427 . S
C3489 H3479 0.929 . S
C3489 C3487 1.433 . S
C3489 N3492 1.384 . S
C3490 H3481 0.929 . S
C3490 C3482 1.378 . S
C3490 C3485 1.350 . S
C3491 H3478 0.929 . S
C3491 C3483 1.433 . S
C3491 N3493 1.384 . S
N3492 C3488 1.427 . S
N3492 C3489 1.384 . S
N3493 C3485 1.427 . S
N3493 C3491 1.384 . S
H3494 C3500 0.930 . S
H3495 C3504 0.930 . S
H3496 C3509 0.929 . S
H3497 C3507 0.929 . S
H3498 C3502 0.929 . S
H3499 C3508 0.929 . S
C3500 H3494 0.930 . S
C3500 C3501 1.367 . S
C3500 C3508 1.378 . S
C3501 C3500 1.367 . S
C3501 C3509 1.433 . S
C3502 H3498 0.929 . S
C3502 C3504 1.378 . S
C3502 C3506 1.350 . S
C3503 C3506 1.463 . S
C3503 C3508 1.350 . S
C3503 N3511 1.427 . S
C3504 H3495 0.930 . S
C3504 C3502 1.378 . S
C3504 C3505 1.367 . S
C3505 C3504 1.367 . S
C3505 C3507 1.433 . S
C3506 C3502 1.350 . S
C3506 C3503 1.463 . S
C3506 N3510 1.427 . S
C3507 H3497 0.929 . S
C3507 C3505 1.433 . S
C3507 N3510 1.384 . S
C3508 H3499 0.929 . S
C3508 C3500 1.378 . S
C3508 C3503 1.350 . S
C3509 H3496 0.929 . S
C3509 C3501 1.433 . S
C3509 N3511 1.384 . S
N3510 C3506 1.427 . S
N3510 C3507 1.384 . S
N3511 C3503 1.427 . S
N3511 C3509 1.384 . S
H3512 C3518 0.930 . S
H3513 C3522 0.930 . S
H3514 C3527 0.929 . S
H3515 C3525 0.929 . S
H3516 C3520 0.929 . S
H3517 C3526 0.929 . S
C3518 H3512 0.930 . S
C3518 C3519 1.367 . S
C3518 C3526 1.378 . S
C3519 C3518 1.367 . S
C3519 C3527 1.433 . S
C3520 H3516 0.929 . S
C3520 C3522 1.378 . S
C3520 C3524 1.350 . S
C3521 C3524 1.463 . S
C3521 C3526 1.350 . S
C3521 N3529 1.427 . S
C3522 H3513 0.930 . S
C3522 C3520 1.378 . S
C3522 C3523 1.367 . S
C3523 C3522 1.367 . S
C3523 C3525 1.433 . S
C3524 C3520 1.350 . S
C3524 C3521 1.463 . S
C3524 N3528 1.427 . S
C3525 H3515 0.929 . S
C3525 C3523 1.433 . S
C3525 N3528 1.384 . S
C3526 H3517 0.929 . S
C3526 C3518 1.378 . S
C3526 C3521 1.350 . S
C3527 H3514 0.929 . S
C3527 C3519 1.433 . S
C3527 N3529 1.384 . S
N3528 C3524 1.427 . S
N3528 C3525 1.384 . S
N3529 C3521 1.427 . S
N3529 C3527 1.384 . S
H3530 C3536 0.930 . S
H3531 C3540 0.930 . S
H3532 C3545 0.929 . S
H3533 C3543 0.929 . S
H3534 C3538 0.929 . S
H3535 C3544 0.929 . S
C3536 H3530 0.930 . S
C3536 C3537 1.367 . S
C3536 C3544 1.378 . S
C3537 C3536 1.367 . S
C3537 C3545 1.433 . S
C3538 H3534 0.929 . S
C3538 C3540 1.378 . S
C3538 C3542 1.350 . S
C3539 C3542 1.463 . S
C3539 C3544 1.350 . S
C3539 N3547 1.427 . S
C3540 H3531 0.930 . S
C3540 C3538 1.378 . S
C3540 C3541 1.367 . S
C3541 C3540 1.367 . S
C3541 C3543 1.433 . S
C3542 C3538 1.350 . S
C3542 C3539 1.463 . S
C3542 N3546 1.427 . S
C3543 H3533 0.929 . S
C3543 C3541 1.433 . S
C3543 N3546 1.384 . S
C3544 H3535 0.929 . S
C3544 C3536 1.378 . S
C3544 C3539 1.350 . S
C3545 H3532 0.929 . S
C3545 C3537 1.433 . S
C3545 N3547 1.384 . S
N3546 C3542 1.427 . S
N3546 C3543 1.384 . S
N3547 C3539 1.427 . S
N3547 C3545 1.384 . S
H3548 C3554 0.930 . S
H3549 C3558 0.930 . S
H3550 C3563 0.929 . S
H3551 C3561 0.929 . S
H3552 C3556 0.929 . S
H3553 C3562 0.929 . S
C3554 H3548 0.930 . S
C3554 C3555 1.367 . S
C3554 C3562 1.378 . S
C3555 C3554 1.367 . S
C3555 C3563 1.433 . S
C3556 H3552 0.929 . S
C3556 C3558 1.378 . S
C3556 C3560 1.350 . S
C3557 C3560 1.463 . S
C3557 C3562 1.350 . S
C3557 N3565 1.427 . S
C3558 H3549 0.930 . S
C3558 C3556 1.378 . S
C3558 C3559 1.367 . S
C3559 C3558 1.367 . S
C3559 C3561 1.433 . S
C3560 C3556 1.350 . S
C3560 C3557 1.463 . S
C3560 N3564 1.427 . S
C3561 H3551 0.929 . S
C3561 C3559 1.433 . S
C3561 N3564 1.384 . S
C3562 H3553 0.929 . S
C3562 C3554 1.378 . S
C3562 C3557 1.350 . S
C3563 H3550 0.929 . S
C3563 C3555 1.433 . S
C3563 N3565 1.384 . S
N3564 C3560 1.427 . S
N3564 C3561 1.384 . S
N3565 C3557 1.427 . S
N3565 C3563 1.384 . S
H3566 C3572 0.930 . S
H3567 C3576 0.930 . S
H3568 C3581 0.929 . S
H3569 C3579 0.929 . S
H3570 C3574 0.929 . S
H3571 C3580 0.929 . S
C3572 H3566 0.930 . S
C3572 C3573 1.367 . S
C3572 C3580 1.378 . S
C3573 C3572 1.367 . S
C3573 C3581 1.433 . S
C3574 H3570 0.929 . S
C3574 C3576 1.378 . S
C3574 C3578 1.350 . S
C3575 C3578 1.463 . S
C3575 C3580 1.350 . S
C3575 N3583 1.427 . S
C3576 H3567 0.930 . S
C3576 C3574 1.378 . S
C3576 C3577 1.367 . S
C3577 C3576 1.367 . S
C3577 C3579 1.433 . S
C3578 C3574 1.350 . S
C3578 C3575 1.463 . S
C3578 N3582 1.427 . S
C3579 H3569 0.929 . S
C3579 C3577 1.433 . S
C3579 N3582 1.384 . S
C3580 H3571 0.929 . S
C3580 C3572 1.378 . S
C3580 C3575 1.350 . S
C3581 H3568 0.929 . S
C3581 C3573 1.433 . S
C3581 N3583 1.384 . S
N3582 C3578 1.427 . S
N3582 C3579 1.384 . S
N3583 C3575 1.427 . S
N3583 C3581 1.384 . S
H3584 C3590 0.930 . S
H3585 C3594 0.930 . S
H3586 C3599 0.929 . S
H3587 C3597 0.929 . S
H3588 C3592 0.929 . S
H3589 C3598 0.929 . S
C3590 H3584 0.930 . S
C3590 C3591 1.367 . S
C3590 C3598 1.378 . S
C3591 C3590 1.367 . S
C3591 C3599 1.433 . S
C3592 H3588 0.929 . S
C3592 C3594 1.378 . S
C3592 C3596 1.350 . S
C3593 C3596 1.463 . S
C3593 C3598 1.350 . S
C3593 N3601 1.427 . S
C3594 H3585 0.930 . S
C3594 C3592 1.378 . S
C3594 C3595 1.367 . S
C3595 C3594 1.367 . S
C3595 C3597 1.433 . S
C3596 C3592 1.350 . S
C3596 C3593 1.463 . S
C3596 N3600 1.427 . S
C3597 H3587 0.929 . S
C3597 C3595 1.433 . S
C3597 N3600 1.384 . S
C3598 H3589 0.929 . S
C3598 C3590 1.378 . S
C3598 C3593 1.350 . S
C3599 H3586 0.929 . S
C3599 C3591 1.433 . S
C3599 N3601 1.384 . S
N3600 C3596 1.427 . S
N3600 C3597 1.384 . S
N3601 C3593 1.427 . S
N3601 C3599 1.384 . S
H3602 C3608 0.930 . S
H3603 C3612 0.930 . S
H3604 C3617 0.929 . S
H3605 C3615 0.929 . S
H3606 C3610 0.929 . S
H3607 C3616 0.929 . S
C3608 H3602 0.930 . S
C3608 C3609 1.367 . S
C3608 C3616 1.378 . S
C3609 C3608 1.367 . S
C3609 C3617 1.433 . S
C3610 H3606 0.929 . S
C3610 C3612 1.378 . S
C3610 C3614 1.350 . S
C3611 C3614 1.463 . S
C3611 C3616 1.350 . S
C3611 N3619 1.427 . S
C3612 H3603 0.930 . S
C3612 C3610 1.378 . S
C3612 C3613 1.367 . S
C3613 C3612 1.367 . S
C3613 C3615 1.433 . S
C3614 C3610 1.350 . S
C3614 C3611 1.463 . S
C3614 N3618 1.427 . S
C3615 H3605 0.929 . S
C3615 C3613 1.433 . S
C3615 N3618 1.384 . S
C3616 H3607 0.929 . S
C3616 C3608 1.378 . S
C3616 C3611 1.350 . S
C3617 H3604 0.929 . S
C3617 C3609 1.433 . S
C3617 N3619 1.384 . S
N3618 C3614 1.427 . S
N3618 C3615 1.384 . S
N3619 C3611 1.427 . S
N3619 C3617 1.384 . S
H3620 C3626 0.930 . S
H3621 C3630 0.930 . S
H3622 C3635 0.929 . S
H3623 C3633 0.929 . S
H3624 C3628 0.929 . S
H3625 C3634 0.929 . S
C3626 H3620 0.930 . S
C3626 C3627 1.367 . S
C3626 C3634 1.378 . S
C3627 C3626 1.367 . S
C3627 C3635 1.433 . S
C3628 H3624 0.929 . S
C3628 C3630 1.378 . S
C3628 C3632 1.350 . S
C3629 C3632 1.463 . S
C3629 C3634 1.350 . S
C3629 N3637 1.427 . S
C3630 H3621 0.930 . S
C3630 C3628 1.378 . S
C3630 C3631 1.367 . S
C3631 C3630 1.367 . S
C3631 C3633 1.433 . S
C3632 C3628 1.350 . S
C3632 C3629 1.463 . S
C3632 N3636 1.427 . S
C3633 H3623 0.929 . S
C3633 C3631 1.433 . S
C3633 N3636 1.384 . S
C3634 H3625 0.929 . S
C3634 C3626 1.378 . S
C3634 C3629 1.350 . S
C3635 H3622 0.929 . S
C3635 C3627 1.433 . S
C3635 N3637 1.384 . S
N3636 C3632 1.427 . S
N3636 C3633 1.384 . S
N3637 C3629 1.427 . S
N3637 C3635 1.384 . S
H3638 C3644 0.930 . S
H3639 C3648 0.930 . S
H3640 C3653 0.929 . S
H3641 C3651 0.929 . S
H3642 C3646 0.929 . S
H3643 C3652 0.929 . S
C3644 H3638 0.930 . S
C3644 C3645 1.367 . S
C3644 C3652 1.378 . S
C3645 C3644 1.367 . S
C3645 C3653 1.433 . S
C3646 H3642 0.929 . S
C3646 C3648 1.378 . S
C3646 C3650 1.350 . S
C3647 C3650 1.463 . S
C3647 C3652 1.350 . S
C3647 N3655 1.427 . S
C3648 H3639 0.930 . S
C3648 C3646 1.378 . S
C3648 C3649 1.367 . S
C3649 C3648 1.367 . S
C3649 C3651 1.433 . S
C3650 C3646 1.350 . S
C3650 C3647 1.463 . S
C3650 N3654 1.427 . S
C3651 H3641 0.929 . S
C3651 C3649 1.433 . S
C3651 N3654 1.384 . S
C3652 H3643 0.929 . S
C3652 C3644 1.378 . S
C3652 C3647 1.350 . S
C3653 H3640 0.929 . S
C3653 C3645 1.433 . S
C3653 N3655 1.384 . S
N3654 C3650 1.427 . S
N3654 C3651 1.384 . S
N3655 C3647 1.427 . S
N3655 C3653 1.384 . S
H3656 C3662 0.930 . S
H3657 C3666 0.930 . S
H3658 C3671 0.929 . S
H3659 C3669 0.929 . S
H3660 C3664 0.929 . S
H3661 C3670 0.929 . S
C3662 H3656 0.930 . S
C3662 C3663 1.367 . S
C3662 C3670 1.378 . S
C3663 C3662 1.367 . S
C3663 C3671 1.433 . S
C3664 H3660 0.929 . S
C3664 C3666 1.378 . S
C3664 C3668 1.350 . S
C3665 C3668 1.463 . S
C3665 C3670 1.350 . S
C3665 N3673 1.427 . S
C3666 H3657 0.930 . S
C3666 C3664 1.378 . S
C3666 C3667 1.367 . S
C3667 C3666 1.367 . S
C3667 C3669 1.433 . S
C3668 C3664 1.350 . S
C3668 C3665 1.463 . S
C3668 N3672 1.427 . S
C3669 H3659 0.929 . S
C3669 C3667 1.433 . S
C3669 N3672 1.384 . S
C3670 H3661 0.929 . S
C3670 C3662 1.378 . S
C3670 C3665 1.350 . S
C3671 H3658 0.929 . S
C3671 C3663 1.433 . S
C3671 N3673 1.384 . S
N3672 C3668 1.427 . S
N3672 C3669 1.384 . S
N3673 C3665 1.427 . S
N3673 C3671 1.384 . S
H3674 C3680 0.930 . S
H3675 C3684 0.930 . S
H3676 C3689 0.929 . S
H3677 C3687 0.929 . S
H3678 C3682 0.929 . S
H3679 C3688 0.929 . S
C3680 H3674 0.930 . S
C3680 C3681 1.367 . S
C3680 C3688 1.378 . S
C3681 C3680 1.367 . S
C3681 C3689 1.433 . S
C3682 H3678 0.929 . S
C3682 C3684 1.378 . S
C3682 C3686 1.350 . S
C3683 C3686 1.463 . S
C3683 C3688 1.350 . S
C3683 N3691 1.427 . S
C3684 H3675 0.930 . S
C3684 C3682 1.378 . S
C3684 C3685 1.367 . S
C3685 C3684 1.367 . S
C3685 C3687 1.433 . S
C3686 C3682 1.350 . S
C3686 C3683 1.463 . S
C3686 N3690 1.427 . S
C3687 H3677 0.929 . S
C3687 C3685 1.433 . S
C3687 N3690 1.384 . S
C3688 H3679 0.929 . S
C3688 C3680 1.378 . S
C3688 C3683 1.350 . S
C3689 H3676 0.929 . S
C3689 C3681 1.433 . S
C3689 N3691 1.384 . S
N3690 C3686 1.427 . S
N3690 C3687 1.384 . S
N3691 C3683 1.427 . S
N3691 C3689 1.384 . S
H3692 C3698 0.930 . S
H3693 C3702 0.930 . S
H3694 C3707 0.929 . S
H3695 C3705 0.929 . S
H3696 C3700 0.929 . S
H3697 C3706 0.929 . S
C3698 H3692 0.930 . S
C3698 C3699 1.367 . S
C3698 C3706 1.378 . S
C3699 C3698 1.367 . S
C3699 C3707 1.433 . S
C3700 H3696 0.929 . S
C3700 C3702 1.378 . S
C3700 C3704 1.350 . S
C3701 C3704 1.463 . S
C3701 C3706 1.350 . S
C3701 N3709 1.427 . S
C3702 H3693 0.930 . S
C3702 C3700 1.378 . S
C3702 C3703 1.367 . S
C3703 C3702 1.367 . S
C3703 C3705 1.433 . S
C3704 C3700 1.350 . S
C3704 C3701 1.463 . S
C3704 N3708 1.427 . S
C3705 H3695 0.929 . S
C3705 C3703 1.433 . S
C3705 N3708 1.384 . S
C3706 H3697 0.929 . S
C3706 C3698 1.378 . S
C3706 C3701 1.350 . S
C3707 H3694 0.929 . S
C3707 C3699 1.433 . S
C3707 N3709 1.384 . S
N3708 C3704 1.427 . S
N3708 C3705 1.384 . S
N3709 C3701 1.427 . S
N3709 C3707 1.384 . S
H3710 C3716 0.930 . S
H3711 C3720 0.930 . S
H3712 C3725 0.929 . S
H3713 C3723 0.929 . S
H3714 C3718 0.929 . S
H3715 C3724 0.929 . S
C3716 H3710 0.930 . S
C3716 C3717 1.367 . S
C3716 C3724 1.378 . S
C3717 C3716 1.367 . S
C3717 C3725 1.433 . S
C3718 H3714 0.929 . S
C3718 C3720 1.378 . S
C3718 C3722 1.350 . S
C3719 C3722 1.463 . S
C3719 C3724 1.350 . S
C3719 N3727 1.427 . S
C3720 H3711 0.930 . S
C3720 C3718 1.378 . S
C3720 C3721 1.367 . S
C3721 C3720 1.367 . S
C3721 C3723 1.433 . S
C3722 C3718 1.350 . S
C3722 C3719 1.463 . S
C3722 N3726 1.427 . S
C3723 H3713 0.929 . S
C3723 C3721 1.433 . S
C3723 N3726 1.384 . S
C3724 H3715 0.929 . S
C3724 C3716 1.378 . S
C3724 C3719 1.350 . S
C3725 H3712 0.929 . S
C3725 C3717 1.433 . S
C3725 N3727 1.384 . S
N3726 C3722 1.427 . S
N3726 C3723 1.384 . S
N3727 C3719 1.427 . S
N3727 C3725 1.384 . S
H3728 C3734 0.930 . S
H3729 C3738 0.930 . S
H3730 C3743 0.929 . S
H3731 C3741 0.929 . S
H3732 C3736 0.929 . S
H3733 C3742 0.929 . S
C3734 H3728 0.930 . S
C3734 C3735 1.367 . S
C3734 C3742 1.378 . S
C3735 C3734 1.367 . S
C3735 C3743 1.433 . S
C3736 H3732 0.929 . S
C3736 C3738 1.378 . S
C3736 C3740 1.350 . S
C3737 C3740 1.463 . S
C3737 C3742 1.350 . S
C3737 N3745 1.427 . S
C3738 H3729 0.930 . S
C3738 C3736 1.378 . S
C3738 C3739 1.367 . S
C3739 C3738 1.367 . S
C3739 C3741 1.433 . S
C3740 C3736 1.350 . S
C3740 C3737 1.463 . S
C3740 N3744 1.427 . S
C3741 H3731 0.929 . S
C3741 C3739 1.433 . S
C3741 N3744 1.384 . S
C3742 H3733 0.929 . S
C3742 C3734 1.378 . S
C3742 C3737 1.350 . S
C3743 H3730 0.929 . S
C3743 C3735 1.433 . S
C3743 N3745 1.384 . S
N3744 C3740 1.427 . S
N3744 C3741 1.384 . S
N3745 C3737 1.427 . S
N3745 C3743 1.384 . S
H3746 C3752 0.930 . S
H3747 C3756 0.930 . S
H3748 C3761 0.929 . S
H3749 C3759 0.929 . S
H3750 C3754 0.929 . S
H3751 C3760 0.929 . S
C3752 H3746 0.930 . S
C3752 C3753 1.367 . S
C3752 C3760 1.378 . S
C3753 C3752 1.367 . S
C3753 C3761 1.433 . S
C3754 H3750 0.929 . S
C3754 C3756 1.378 . S
C3754 C3758 1.350 . S
C3755 C3758 1.463 . S
C3755 C3760 1.350 . S
C3755 N3763 1.427 . S
C3756 H3747 0.930 . S
C3756 C3754 1.378 . S
C3756 C3757 1.367 . S
C3757 C3756 1.367 . S
C3757 C3759 1.433 . S
C3758 C3754 1.350 . S
C3758 C3755 1.463 . S
C3758 N3762 1.427 . S
C3759 H3749 0.929 . S
C3759 C3757 1.433 . S
C3759 N3762 1.384 . S
C3760 H3751 0.929 . S
C3760 C3752 1.378 . S
C3760 C3755 1.350 . S
C3761 H3748 0.929 . S
C3761 C3753 1.433 . S
C3761 N3763 1.384 . S
N3762 C3758 1.427 . S
N3762 C3759 1.384 . S
N3763 C3755 1.427 . S
N3763 C3761 1.384 . S
H3764 C3770 0.930 . S
H3765 C3774 0.930 . S
H3766 C3779 0.929 . S
H3767 C3777 0.929 . S
H3768 C3772 0.929 . S
H3769 C3778 0.929 . S
C3770 H3764 0.930 . S
C3770 C3771 1.367 . S
C3770 C3778 1.378 . S
C3771 C3770 1.367 . S
C3771 C3779 1.433 . S
C3772 H3768 0.929 . S
C3772 C3774 1.378 . S
C3772 C3776 1.350 . S
C3773 C3776 1.463 . S
C3773 C3778 1.350 . S
C3773 N3781 1.427 . S
C3774 H3765 0.930 . S
C3774 C3772 1.378 . S
C3774 C3775 1.367 . S
C3775 C3774 1.367 . S
C3775 C3777 1.433 . S
C3776 C3772 1.350 . S
C3776 C3773 1.463 . S
C3776 N3780 1.427 . S
C3777 H3767 0.929 . S
C3777 C3775 1.433 . S
C3777 N3780 1.384 . S
C3778 H3769 0.929 . S
C3778 C3770 1.378 . S
C3778 C3773 1.350 . S
C3779 H3766 0.929 . S
C3779 C3771 1.433 . S
C3779 N3781 1.384 . S
N3780 C3776 1.427 . S
N3780 C3777 1.384 . S
N3781 C3773 1.427 . S
N3781 C3779 1.384 . S
H3782 C3788 0.930 . S
H3783 C3792 0.930 . S
H3784 C3797 0.929 . S
H3785 C3795 0.929 . S
H3786 C3790 0.929 . S
H3787 C3796 0.929 . S
C3788 H3782 0.930 . S
C3788 C3789 1.367 . S
C3788 C3796 1.378 . S
C3789 C3788 1.367 . S
C3789 C3797 1.433 . S
C3790 H3786 0.929 . S
C3790 C3792 1.378 . S
C3790 C3794 1.350 . S
C3791 C3794 1.463 . S
C3791 C3796 1.350 . S
C3791 N3799 1.427 . S
C3792 H3783 0.930 . S
C3792 C3790 1.378 . S
C3792 C3793 1.367 . S
C3793 C3792 1.367 . S
C3793 C3795 1.433 . S
C3794 C3790 1.350 . S
C3794 C3791 1.463 . S
C3794 N3798 1.427 . S
C3795 H3785 0.929 . S
C3795 C3793 1.433 . S
C3795 N3798 1.384 . S
C3796 H3787 0.929 . S
C3796 C3788 1.378 . S
C3796 C3791 1.350 . S
C3797 H3784 0.929 . S
C3797 C3789 1.433 . S
C3797 N3799 1.384 . S
N3798 C3794 1.427 . S
N3798 C3795 1.384 . S
N3799 C3791 1.427 . S
N3799 C3797 1.384 . S
H3800 C3806 0.930 . S
H3801 C3810 0.930 . S
H3802 C3815 0.929 . S
H3803 C3813 0.929 . S
H3804 C3808 0.929 . S
H3805 C3814 0.929 . S
C3806 H3800 0.930 . S
C3806 C3807 1.367 . S
C3806 C3814 1.378 . S
C3807 C3806 1.367 . S
C3807 C3815 1.433 . S
C3808 H3804 0.929 . S
C3808 C3810 1.378 . S
C3808 C3812 1.350 . S
C3809 C3812 1.463 . S
C3809 C3814 1.350 . S
C3809 N3817 1.427 . S
C3810 H3801 0.930 . S
C3810 C3808 1.378 . S
C3810 C3811 1.367 . S
C3811 C3810 1.367 . S
C3811 C3813 1.433 . S
C3812 C3808 1.350 . S
C3812 C3809 1.463 . S
C3812 N3816 1.427 . S
C3813 H3803 0.929 . S
C3813 C3811 1.433 . S
C3813 N3816 1.384 . S
C3814 H3805 0.929 . S
C3814 C3806 1.378 . S
C3814 C3809 1.350 . S
C3815 H3802 0.929 . S
C3815 C3807 1.433 . S
C3815 N3817 1.384 . S
N3816 C3812 1.427 . S
N3816 C3813 1.384 . S
N3817 C3809 1.427 . S
N3817 C3815 1.384 . S
H3818 C3824 0.930 . S
H3819 C3828 0.930 . S
H3820 C3833 0.929 . S
H3821 C3831 0.929 . S
H3822 C3826 0.929 . S
H3823 C3832 0.929 . S
C3824 H3818 0.930 . S
C3824 C3825 1.367 . S
C3824 C3832 1.378 . S
C3825 C3824 1.367 . S
C3825 C3833 1.433 . S
C3826 H3822 0.929 . S
C3826 C3828 1.378 . S
C3826 C3830 1.350 . S
C3827 C3830 1.463 . S
C3827 C3832 1.350 . S
C3827 N3835 1.427 . S
C3828 H3819 0.930 . S
C3828 C3826 1.378 . S
C3828 C3829 1.367 . S
C3829 C3828 1.367 . S
C3829 C3831 1.433 . S
C3830 C3826 1.350 . S
C3830 C3827 1.463 . S
C3830 N3834 1.427 . S
C3831 H3821 0.929 . S
C3831 C3829 1.433 . S
C3831 N3834 1.384 . S
C3832 H3823 0.929 . S
C3832 C3824 1.378 . S
C3832 C3827 1.350 . S
C3833 H3820 0.929 . S
C3833 C3825 1.433 . S
C3833 N3835 1.384 . S
N3834 C3830 1.427 . S
N3834 C3831 1.384 . S
N3835 C3827 1.427 . S
N3835 C3833 1.384 . S
H3836 C3842 0.930 . S
H3837 C3846 0.930 . S
H3838 C3851 0.929 . S
H3839 C3849 0.929 . S
H3840 C3844 0.929 . S
H3841 C3850 0.929 . S
C3842 H3836 0.930 . S
C3842 C3843 1.367 . S
C3842 C3850 1.378 . S
C3843 C3842 1.367 . S
C3843 C3851 1.433 . S
C3844 H3840 0.929 . S
C3844 C3846 1.378 . S
C3844 C3848 1.350 . S
C3845 C3848 1.463 . S
C3845 C3850 1.350 . S
C3845 N3853 1.427 . S
C3846 H3837 0.930 . S
C3846 C3844 1.378 . S
C3846 C3847 1.367 . S
C3847 C3846 1.367 . S
C3847 C3849 1.433 . S
C3848 C3844 1.350 . S
C3848 C3845 1.463 . S
C3848 N3852 1.427 . S
C3849 H3839 0.929 . S
C3849 C3847 1.433 . S
C3849 N3852 1.384 . S
C3850 H3841 0.929 . S
C3850 C3842 1.378 . S
C3850 C3845 1.350 . S
C3851 H3838 0.929 . S
C3851 C3843 1.433 . S
C3851 N3853 1.384 . S
N3852 C3848 1.427 . S
N3852 C3849 1.384 . S
N3853 C3845 1.427 . S
N3853 C3851 1.384 . S
H3854 C3860 0.930 . S
H3855 C3864 0.930 . S
H3856 C3869 0.929 . S
H3857 C3867 0.929 . S
H3858 C3862 0.929 . S
H3859 C3868 0.929 . S
C3860 H3854 0.930 . S
C3860 C3861 1.367 . S
C3860 C3868 1.378 . S
C3861 C3860 1.367 . S
C3861 C3869 1.433 . S
C3862 H3858 0.929 . S
C3862 C3864 1.378 . S
C3862 C3866 1.350 . S
C3863 C3866 1.463 . S
C3863 C3868 1.350 . S
C3863 N3871 1.427 . S
C3864 H3855 0.930 . S
C3864 C3862 1.378 . S
C3864 C3865 1.367 . S
C3865 C3864 1.367 . S
C3865 C3867 1.433 . S
C3866 C3862 1.350 . S
C3866 C3863 1.463 . S
C3866 N3870 1.427 . S
C3867 H3857 0.929 . S
C3867 C3865 1.433 . S
C3867 N3870 1.384 . S
C3868 H3859 0.929 . S
C3868 C3860 1.378 . S
C3868 C3863 1.350 . S
C3869 H3856 0.929 . S
C3869 C3861 1.433 . S
C3869 N3871 1.384 . S
N3870 C3866 1.427 . S
N3870 C3867 1.384 . S
N3871 C3863 1.427 . S
N3871 C3869 1.384 . S
H3872 C3878 0.930 . S
H3873 C3882 0.930 . S
H3874 C3887 0.929 . S
H3875 C3885 0.929 . S
H3876 C3880 0.929 . S
H3877 C3886 0.929 . S
C3878 H3872 0.930 . S
C3878 C3879 1.367 . S
C3878 C3886 1.378 . S
C3879 C3878 1.367 . S
C3879 C3887 1.433 . S
C3880 H3876 0.929 . S
C3880 C3882 1.378 . S
C3880 C3884 1.350 . S
C3881 C3884 1.463 . S
C3881 C3886 1.350 . S
C3881 N3889 1.427 . S
C3882 H3873 0.930 . S
C3882 C3880 1.378 . S
C3882 C3883 1.367 . S
C3883 C3882 1.367 . S
C3883 C3885 1.433 . S
C3884 C3880 1.350 . S
C3884 C3881 1.463 . S
C3884 N3888 1.427 . S
C3885 H3875 0.929 . S
C3885 C3883 1.433 . S
C3885 N3888 1.384 . S
C3886 H3877 0.929 . S
C3886 C3878 1.378 . S
C3886 C3881 1.350 . S
C3887 H3874 0.929 . S
C3887 C3879 1.433 . S
C3887 N3889 1.384 . S
N3888 C3884 1.427 . S
N3888 C3885 1.384 . S
N3889 C3881 1.427 . S
N3889 C3887 1.384 . S
H3890 C3896 0.930 . S
H3891 C3900 0.930 . S
H3892 C3905 0.929 . S
H3893 C3903 0.929 . S
H3894 C3898 0.929 . S
H3895 C3904 0.929 . S
C3896 H3890 0.930 . S
C3896 C3897 1.367 . S
C3896 C3904 1.378 . S
C3897 C3896 1.367 . S
C3897 C3905 1.433 . S
C3898 H3894 0.929 . S
C3898 C3900 1.378 . S
C3898 C3902 1.350 . S
C3899 C3902 1.463 . S
C3899 C3904 1.350 . S
C3899 N3907 1.427 . S
C3900 H3891 0.930 . S
C3900 C3898 1.378 . S
C3900 C3901 1.367 . S
C3901 C3900 1.367 . S
C3901 C3903 1.433 . S
C3902 C3898 1.350 . S
C3902 C3899 1.463 . S
C3902 N3906 1.427 . S
C3903 H3893 0.929 . S
C3903 C3901 1.433 . S
C3903 N3906 1.384 . S
C3904 H3895 0.929 . S
C3904 C3896 1.378 . S
C3904 C3899 1.350 . S
C3905 H3892 0.929 . S
C3905 C3897 1.433 . S
C3905 N3907 1.384 . S
N3906 C3902 1.427 . S
N3906 C3903 1.384 . S
N3907 C3899 1.427 . S
N3907 C3905 1.384 . S
H3908 C3914 0.930 . S
H3909 C3918 0.930 . S
H3910 C3923 0.929 . S
H3911 C3921 0.929 . S
H3912 C3916 0.929 . S
H3913 C3922 0.929 . S
C3914 H3908 0.930 . S
C3914 C3915 1.367 . S
C3914 C3922 1.378 . S
C3915 C3914 1.367 . S
C3915 C3923 1.433 . S
C3916 H3912 0.929 . S
C3916 C3918 1.378 . S
C3916 C3920 1.350 . S
C3917 C3920 1.463 . S
C3917 C3922 1.350 . S
C3917 N3925 1.427 . S
C3918 H3909 0.930 . S
C3918 C3916 1.378 . S
C3918 C3919 1.367 . S
C3919 C3918 1.367 . S
C3919 C3921 1.433 . S
C3920 C3916 1.350 . S
C3920 C3917 1.463 . S
C3920 N3924 1.427 . S
C3921 H3911 0.929 . S
C3921 C3919 1.433 . S
C3921 N3924 1.384 . S
C3922 H3913 0.929 . S
C3922 C3914 1.378 . S
C3922 C3917 1.350 . S
C3923 H3910 0.929 . S
C3923 C3915 1.433 . S
C3923 N3925 1.384 . S
N3924 C3920 1.427 . S
N3924 C3921 1.384 . S
N3925 C3917 1.427 . S
N3925 C3923 1.384 . S
H3926 C3932 0.930 . S
H3927 C3936 0.930 . S
H3928 C3941 0.929 . S
H3929 C3939 0.929 . S
H3930 C3934 0.929 . S
H3931 C3940 0.929 . S
C3932 H3926 0.930 . S
C3932 C3933 1.367 . S
C3932 C3940 1.378 . S
C3933 C3932 1.367 . S
C3933 C3941 1.433 . S
C3934 H3930 0.929 . S
C3934 C3936 1.378 . S
C3934 C3938 1.350 . S
C3935 C3938 1.463 . S
C3935 C3940 1.350 . S
C3935 N3943 1.427 . S
C3936 H3927 0.930 . S
C3936 C3934 1.378 . S
C3936 C3937 1.367 . S
C3937 C3936 1.367 . S
C3937 C3939 1.433 . S
C3938 C3934 1.350 . S
C3938 C3935 1.463 . S
C3938 N3942 1.427 . S
C3939 H3929 0.929 . S
C3939 C3937 1.433 . S
C3939 N3942 1.384 . S
C3940 H3931 0.929 . S
C3940 C3932 1.378 . S
C3940 C3935 1.350 . S
C3941 H3928 0.929 . S
C3941 C3933 1.433 . S
C3941 N3943 1.384 . S
N3942 C3938 1.427 . S
N3942 C3939 1.384 . S
N3943 C3935 1.427 . S
N3943 C3941 1.384 . S
H3944 C3950 0.930 . S
H3945 C3954 0.930 . S
H3946 C3959 0.929 . S
H3947 C3957 0.929 . S
H3948 C3952 0.929 . S
H3949 C3958 0.929 . S
C3950 H3944 0.930 . S
C3950 C3951 1.367 . S
C3950 C3958 1.378 . S
C3951 C3950 1.367 . S
C3951 C3959 1.433 . S
C3952 H3948 0.929 . S
C3952 C3954 1.378 . S
C3952 C3956 1.350 . S
C3953 C3956 1.463 . S
C3953 C3958 1.350 . S
C3953 N3961 1.427 . S
C3954 H3945 0.930 . S
C3954 C3952 1.378 . S
C3954 C3955 1.367 . S
C3955 C3954 1.367 . S
C3955 C3957 1.433 . S
C3956 C3952 1.350 . S
C3956 C3953 1.463 . S
C3956 N3960 1.427 . S
C3957 H3947 0.929 . S
C3957 C3955 1.433 . S
C3957 N3960 1.384 . S
C3958 H3949 0.929 . S
C3958 C3950 1.378 . S
C3958 C3953 1.350 . S
C3959 H3946 0.929 . S
C3959 C3951 1.433 . S
C3959 N3961 1.384 . S
N3960 C3956 1.427 . S
N3960 C3957 1.384 . S
N3961 C3953 1.427 . S
N3961 C3959 1.384 . S
H3962 C3968 0.930 . S
H3963 C3972 0.930 . S
H3964 C3977 0.929 . S
H3965 C3975 0.929 . S
H3966 C3970 0.929 . S
H3967 C3976 0.929 . S
C3968 H3962 0.930 . S
C3968 C3969 1.367 . S
C3968 C3976 1.378 . S
C3969 C3968 1.367 . S
C3969 C3977 1.433 . S
C3970 H3966 0.929 . S
C3970 C3972 1.378 . S
C3970 C3974 1.350 . S
C3971 C3974 1.463 . S
C3971 C3976 1.350 . S
C3971 N3979 1.427 . S
C3972 H3963 0.930 . S
C3972 C3970 1.378 . S
C3972 C3973 1.367 . S
C3973 C3972 1.367 . S
C3973 C3975 1.433 . S
C3974 C3970 1.350 . S
C3974 C3971 1.463 . S
C3974 N3978 1.427 . S
C3975 H3965 0.929 . S
C3975 C3973 1.433 . S
C3975 N3978 1.384 . S
C3976 H3967 0.929 . S
C3976 C3968 1.378 . S
C3976 C3971 1.350 . S
C3977 H3964 0.929 . S
C3977 C3969 1.433 . S
C3977 N3979 1.384 . S
N3978 C3974 1.427 . S
N3978 C3975 1.384 . S
N3979 C3971 1.427 . S
N3979 C3977 1.384 . S
H3980 C3986 0.930 . S
H3981 C3990 0.930 . S
H3982 C3995 0.929 . S
H3983 C3993 0.929 . S
H3984 C3988 0.929 . S
H3985 C3994 0.929 . S
C3986 H3980 0.930 . S
C3986 C3987 1.367 . S
C3986 C3994 1.378 . S
C3987 C3986 1.367 . S
C3987 C3995 1.433 . S
C3988 H3984 0.929 . S
C3988 C3990 1.378 . S
C3988 C3992 1.350 . S
C3989 C3992 1.463 . S
C3989 C3994 1.350 . S
C3989 N3997 1.427 . S
C3990 H3981 0.930 . S
C3990 C3988 1.378 . S
C3990 C3991 1.367 . S
C3991 C3990 1.367 . S
C3991 C3993 1.433 . S
C3992 C3988 1.350 . S
C3992 C3989 1.463 . S
C3992 N3996 1.427 . S
C3993 H3983 0.929 . S
C3993 C3991 1.433 . S
C3993 N3996 1.384 . S
C3994 H3985 0.929 . S
C3994 C3986 1.378 . S
C3994 C3989 1.350 . S
C3995 H3982 0.929 . S
C3995 C3987 1.433 . S
C3995 N3997 1.384 . S
N3996 C3992 1.427 . S
N3996 C3993 1.384 . S
N3997 C3989 1.427 . S
N3997 C3995 1.384 . S
H3998 C4004 0.930 . S
H3999 C4008 0.930 . S
H4000 C4013 0.929 . S
H4001 C4011 0.929 . S
H4002 C4006 0.929 . S
H4003 C4012 0.929 . S
C4004 H3998 0.930 . S
C4004 C4005 1.367 . S
C4004 C4012 1.378 . S
C4005 C4004 1.367 . S
C4005 C4013 1.433 . S
C4006 H4002 0.929 . S
C4006 C4008 1.378 . S
C4006 C4010 1.350 . S
C4007 C4010 1.463 . S
C4007 C4012 1.350 . S
C4007 N4015 1.427 . S
C4008 H3999 0.930 . S
C4008 C4006 1.378 . S
C4008 C4009 1.367 . S
C4009 C4008 1.367 . S
C4009 C4011 1.433 . S
C4010 C4006 1.350 . S
C4010 C4007 1.463 . S
C4010 N4014 1.427 . S
C4011 H4001 0.929 . S
C4011 C4009 1.433 . S
C4011 N4014 1.384 . S
C4012 H4003 0.929 . S
C4012 C4004 1.378 . S
C4012 C4007 1.350 . S
C4013 H4000 0.929 . S
C4013 C4005 1.433 . S
C4013 N4015 1.384 . S
N4014 C4010 1.427 . S
N4014 C4011 1.384 . S
N4015 C4007 1.427 . S
N4015 C4013 1.384 . S
H4016 C4022 0.930 . S
H4017 C4026 0.930 . S
H4018 C4031 0.929 . S
H4019 C4029 0.929 . S
H4020 C4024 0.929 . S
H4021 C4030 0.929 . S
C4022 H4016 0.930 . S
C4022 C4023 1.367 . S
C4022 C4030 1.378 . S
C4023 C4022 1.367 . S
C4023 C4031 1.433 . S
C4024 H4020 0.929 . S
C4024 C4026 1.378 . S
C4024 C4028 1.350 . S
C4025 C4028 1.463 . S
C4025 C4030 1.350 . S
C4025 N4033 1.427 . S
C4026 H4017 0.930 . S
C4026 C4024 1.378 . S
C4026 C4027 1.367 . S
C4027 C4026 1.367 . S
C4027 C4029 1.433 . S
C4028 C4024 1.350 . S
C4028 C4025 1.463 . S
C4028 N4032 1.427 . S
C4029 H4019 0.929 . S
C4029 C4027 1.433 . S
C4029 N4032 1.384 . S
C4030 H4021 0.929 . S
C4030 C4022 1.378 . S
C4030 C4025 1.350 . S
C4031 H4018 0.929 . S
C4031 C4023 1.433 . S
C4031 N4033 1.384 . S
N4032 C4028 1.427 . S
N4032 C4029 1.384 . S
N4033 C4025 1.427 . S
N4033 C4031 1.384 . S
H4034 C4040 0.930 . S
H4035 C4044 0.930 . S
H4036 C4049 0.929 . S
H4037 C4047 0.929 . S
H4038 C4042 0.929 . S
H4039 C4048 0.929 . S
C4040 H4034 0.930 . S
C4040 C4041 1.367 . S
C4040 C4048 1.378 . S
C4041 C4040 1.367 . S
C4041 C4049 1.433 . S
C4042 H4038 0.929 . S
C4042 C4044 1.378 . S
C4042 C4046 1.350 . S
C4043 C4046 1.463 . S
C4043 C4048 1.350 . S
C4043 N4051 1.427 . S
C4044 H4035 0.930 . S
C4044 C4042 1.378 . S
C4044 C4045 1.367 . S
C4045 C4044 1.367 . S
C4045 C4047 1.433 . S
C4046 C4042 1.350 . S
C4046 C4043 1.463 . S
C4046 N4050 1.427 . S
C4047 H4037 0.929 . S
C4047 C4045 1.433 . S
C4047 N4050 1.384 . S
C4048 H4039 0.929 . S
C4048 C4040 1.378 . S
C4048 C4043 1.350 . S
C4049 H4036 0.929 . S
C4049 C4041 1.433 . S
C4049 N4051 1.384 . S
N4050 C4046 1.427 . S
N4050 C4047 1.384 . S
N4051 C4043 1.427 . S
N4051 C4049 1.384 . S
H4052 C4058 0.930 . S
H4053 C4062 0.930 . S
H4054 C4067 0.929 . S
H4055 C4065 0.929 . S
H4056 C4060 0.929 . S
H4057 C4066 0.929 . S
C4058 H4052 0.930 . S
C4058 C4059 1.367 . S
C4058 C4066 1.378 . S
C4059 C4058 1.367 . S
C4059 C4067 1.433 . S
C4060 H4056 0.929 . S
C4060 C4062 1.378 . S
C4060 C4064 1.350 . S
C4061 C4064 1.463 . S
C4061 C4066 1.350 . S
C4061 N4069 1.427 . S
C4062 H4053 0.930 . S
C4062 C4060 1.378 . S
C4062 C4063 1.367 . S
C4063 C4062 1.367 . S
C4063 C4065 1.433 . S
C4064 C4060 1.350 . S
C4064 C4061 1.463 . S
C4064 N4068 1.427 . S
C4065 H4055 0.929 . S
C4065 C4063 1.433 . S
C4065 N4068 1.384 . S
C4066 H4057 0.929 . S
C4066 C4058 1.378 . S
C4066 C4061 1.350 . S
C4067 H4054 0.929 . S
C4067 C4059 1.433 . S
C4067 N4069 1.384 . S
N4068 C4064 1.427 . S
N4068 C4065 1.384 . S
N4069 C4061 1.427 . S
N4069 C4067 1.384 . S
H4070 C4076 0.930 . S
H4071 C4080 0.930 . S
H4072 C4085 0.929 . S
H4073 C4083 0.929 . S
H4074 C4078 0.929 . S
H4075 C4084 0.929 . S
C4076 H4070 0.930 . S
C4076 C4077 1.367 . S
C4076 C4084 1.378 . S
C4077 C4076 1.367 . S
C4077 C4085 1.433 . S
C4078 H4074 0.929 . S
C4078 C4080 1.378 . S
C4078 C4082 1.350 . S
C4079 C4082 1.463 . S
C4079 C4084 1.350 . S
C4079 N4087 1.427 . S
C4080 H4071 0.930 . S
C4080 C4078 1.378 . S
C4080 C4081 1.367 . S
C4081 C4080 1.367 . S
C4081 C4083 1.433 . S
C4082 C4078 1.350 . S
C4082 C4079 1.463 . S
C4082 N4086 1.427 . S
C4083 H4073 0.929 . S
C4083 C4081 1.433 . S
C4083 N4086 1.384 . S
C4084 H4075 0.929 . S
C4084 C4076 1.378 . S
C4084 C4079 1.350 . S
C4085 H4072 0.929 . S
C4085 C4077 1.433 . S
C4085 N4087 1.384 . S
N4086 C4082 1.427 . S
N4086 C4083 1.384 . S
N4087 C4079 1.427 . S
N4087 C4085 1.384 . S
H4088 C4094 0.930 . S
H4089 C4098 0.930 . S
H4090 C4103 0.929 . S
H4091 C4101 0.929 . S
H4092 C4096 0.929 . S
H4093 C4102 0.929 . S
C4094 H4088 0.930 . S
C4094 C4095 1.367 . S
C4094 C4102 1.378 . S
C4095 C4094 1.367 . S
C4095 C4103 1.433 . S
C4096 H4092 0.929 . S
C4096 C4098 1.378 . S
C4096 C4100 1.350 . S
C4097 C4100 1.463 . S
C4097 C4102 1.350 . S
C4097 N4105 1.427 . S
C4098 H4089 0.930 . S
C4098 C4096 1.378 . S
C4098 C4099 1.367 . S
C4099 C4098 1.367 . S
C4099 C4101 1.433 . S
C4100 C4096 1.350 . S
C4100 C4097 1.463 . S
C4100 N4104 1.427 . S
C4101 H4091 0.929 . S
C4101 C4099 1.433 . S
C4101 N4104 1.384 . S
C4102 H4093 0.929 . S
C4102 C4094 1.378 . S
C4102 C4097 1.350 . S
C4103 H4090 0.929 . S
C4103 C4095 1.433 . S
C4103 N4105 1.384 . S
N4104 C4100 1.427 . S
N4104 C4101 1.384 . S
N4105 C4097 1.427 . S
N4105 C4103 1.384 . S
H4106 C4112 0.930 . S
H4107 C4116 0.930 . S
H4108 C4121 0.929 . S
H4109 C4119 0.929 . S
H4110 C4114 0.929 . S
H4111 C4120 0.929 . S
C4112 H4106 0.930 . S
C4112 C4113 1.367 . S
C4112 C4120 1.378 . S
C4113 C4112 1.367 . S
C4113 C4121 1.433 . S
C4114 H4110 0.929 . S
C4114 C4116 1.378 . S
C4114 C4118 1.350 . S
C4115 C4118 1.463 . S
C4115 C4120 1.350 . S
C4115 N4123 1.427 . S
C4116 H4107 0.930 . S
C4116 C4114 1.378 . S
C4116 C4117 1.367 . S
C4117 C4116 1.367 . S
C4117 C4119 1.433 . S
C4118 C4114 1.350 . S
C4118 C4115 1.463 . S
C4118 N4122 1.427 . S
C4119 H4109 0.929 . S
C4119 C4117 1.433 . S
C4119 N4122 1.384 . S
C4120 H4111 0.929 . S
C4120 C4112 1.378 . S
C4120 C4115 1.350 . S
C4121 H4108 0.929 . S
C4121 C4113 1.433 . S
C4121 N4123 1.384 . S
N4122 C4118 1.427 . S
N4122 C4119 1.384 . S
N4123 C4115 1.427 . S
N4123 C4121 1.384 . S
H4124 C4130 0.930 . S
H4125 C4134 0.930 . S
H4126 C4139 0.929 . S
H4127 C4137 0.929 . S
H4128 C4132 0.929 . S
H4129 C4138 0.929 . S
C4130 H4124 0.930 . S
C4130 C4131 1.367 . S
C4130 C4138 1.378 . S
C4131 C4130 1.367 . S
C4131 C4139 1.433 . S
C4132 H4128 0.929 . S
C4132 C4134 1.378 . S
C4132 C4136 1.350 . S
C4133 C4136 1.463 . S
C4133 C4138 1.350 . S
C4133 N4141 1.427 . S
C4134 H4125 0.930 . S
C4134 C4132 1.378 . S
C4134 C4135 1.367 . S
C4135 C4134 1.367 . S
C4135 C4137 1.433 . S
C4136 C4132 1.350 . S
C4136 C4133 1.463 . S
C4136 N4140 1.427 . S
C4137 H4127 0.929 . S
C4137 C4135 1.433 . S
C4137 N4140 1.384 . S
C4138 H4129 0.929 . S
C4138 C4130 1.378 . S
C4138 C4133 1.350 . S
C4139 H4126 0.929 . S
C4139 C4131 1.433 . S
C4139 N4141 1.384 . S
N4140 C4136 1.427 . S
N4140 C4137 1.384 . S
N4141 C4133 1.427 . S
N4141 C4139 1.384 . S
H4142 C4148 0.930 . S
H4143 C4152 0.930 . S
H4144 C4157 0.929 . S
H4145 C4155 0.929 . S
H4146 C4150 0.929 . S
H4147 C4156 0.929 . S
C4148 H4142 0.930 . S
C4148 C4149 1.367 . S
C4148 C4156 1.378 . S
C4149 C4148 1.367 . S
C4149 C4157 1.433 . S
C4150 H4146 0.929 . S
C4150 C4152 1.378 . S
C4150 C4154 1.350 . S
C4151 C4154 1.463 . S
C4151 C4156 1.350 . S
C4151 N4159 1.427 . S
C4152 H4143 0.930 . S
C4152 C4150 1.378 . S
C4152 C4153 1.367 . S
C4153 C4152 1.367 . S
C4153 C4155 1.433 . S
C4154 C4150 1.350 . S
C4154 C4151 1.463 . S
C4154 N4158 1.427 . S
C4155 H4145 0.929 . S
C4155 C4153 1.433 . S
C4155 N4158 1.384 . S
C4156 H4147 0.929 . S
C4156 C4148 1.378 . S
C4156 C4151 1.350 . S
C4157 H4144 0.929 . S
C4157 C4149 1.433 . S
C4157 N4159 1.384 . S
N4158 C4154 1.427 . S
N4158 C4155 1.384 . S
N4159 C4151 1.427 . S
N4159 C4157 1.384 . S
C2443 C1325 1.546 . S
C2439 C21 1.538 . S
C2461 C1373 1.431 . S
C2457 C42 1.435 . S
C2475 C82 1.510 . S
C2479 C1397 1.528 . S
C2497 C1460 1.495 . S
C2493 C135 1.497 . S
C2511 C175 1.428 . S
C2515 C1454 1.427 . S
C2529 C221 1.528 . S
C2533 C1301 1.540 . S
C2547 C255 1.486 . S
C2551 C1349 1.483 . S
C2569 C1421 1.553 . S
C2565 C301 1.552 . S
C2587 C1493 1.519 . S
C2583 C15 1.519 . S
C2601 C55 1.440 . S
C2605 C1541 1.437 . S
C2619 C101 1.541 . S
C2623 C1604 1.553 . S
C2641 C1661 1.499 . S
C2637 C141 1.501 . S
C2655 C162 1.448 . S
C2659 C1685 1.460 . S
C2677 C1742 1.514 . S
C2673 C215 1.516 . S
C2691 C261 1.498 . S
C2695 C1790 1.501 . S
C2713 C1844 1.524 . S
C2709 C282 1.510 . S
C2727 C2 1.516 . S
C2731 C1637 1.530 . S
C2745 C181 1.424 . S
C2749 C1748 1.441 . S
C2767 C1796 1.544 . S
C2763 C202 1.527 . S
C2781 C242 1.498 . S
C2785 C1838 1.504 . S
C2803 C1709 1.507 . S
C2799 C295 1.512 . S
C2821 C1565 1.518 . S
C2817 C95 1.521 . S
C2835 C122 1.488 . S
C2839 C1598 1.494 . S
C2857 C1517 1.451 . S
C2853 C61 1.449 . S
C2875 C1892 1.548 . S
C2871 C341 1.538 . S
C2889 C362 1.433 . S
C2893 C1949 1.433 . S
C2907 C402 1.519 . S
C2911 C1973 1.531 . S
C2929 C2036 1.496 . S
C2925 C455 1.497 . S
C2943 C495 1.429 . S
C2947 C2030 1.426 . S
C2961 C541 1.532 . S
C2965 C1886 1.535 . S
C2979 C575 1.486 . S
C2983 C1925 1.483 . S
C2997 C621 1.555 . S
C3001 C1997 1.558 . S
C3019 C1694 1.513 . S
C3015 C335 1.518 . S
C3033 C375 1.440 . S
C3037 C2078 1.435 . S
C3055 C1781 1.551 . S
C3051 C421 1.536 . S
C3069 C461 1.496 . S
C3073 C2132 1.505 . S
C3087 C482 1.444 . S
C3091 C1502 1.459 . S
C3109 C2174 1.512 . S
C3105 C535 1.515 . S
C3123 C581 1.497 . S
C3127 C1613 1.503 . S
C3145 C2228 1.522 . S
C3141 C602 1.517 . S
C3159 C322 1.509 . S
C3163 C2126 1.530 . S
C3181 C2180 1.443 . S
C3177 C501 1.428 . S
C3195 C522 1.529 . S
C3199 C1589 1.545 . S
C3217 C2222 1.508 . S
C3213 C562 1.502 . S
C3231 C615 1.514 . S
C3235 C1508 1.511 . S
C3249 C415 1.523 . S
C3253 C2084 1.520 . S
C3267 C442 1.495 . S
C3271 C1805 1.495 . S
C3285 C381 1.448 . S
C3289 C1700 1.455 . S
C3303 C661 1.531 . S
C3307 C1982 1.546 . S
C3325 C2045 1.437 . S
C3321 C682 1.432 . S
C3339 C722 1.509 . S
C3343 C1901 1.526 . S
C3357 C775 1.496 . S
C3361 C1940 1.493 . S
C3375 C815 1.428 . S
C3379 C1934 1.429 . S
C3393 C861 1.529 . S
C3397 C1988 1.543 . S
C3415 C2021 1.483 . S
C3411 C895 1.486 . S
C3429 C941 1.555 . S
C3433 C1877 1.560 . S
C3451 C2261 1.517 . S
C3447 C655 1.518 . S
C3465 C695 1.440 . S
C3469 C1733 1.437 . S
C3487 C2324 1.552 . S
C3483 C741 1.537 . S
C3501 C781 1.495 . S
C3505 C1853 1.500 . S
C3519 C802 1.441 . S
C3523 C2366 1.460 . S
C3537 C855 1.516 . S
C3541 C1550 1.514 . S
C3559 C2429 1.502 . S
C3555 C901 1.503 . S
C3573 C922 1.518 . S
C3577 C1652 1.522 . S
C3595 C1829 1.531 . S
C3591 C642 1.512 . S
C3613 C1556 1.443 . S
C3609 C821 1.428 . S
C3627 C842 1.526 . S
C3631 C2405 1.543 . S
C3645 C882 1.502 . S
C3649 C1646 1.508 . S
C3667 C2372 1.509 . S
C3663 C935 1.513 . S
C3685 C1757 1.514 . S
C3681 C735 1.521 . S
C3703 C2318 1.494 . S
C3699 C762 1.490 . S
C3721 C2285 1.451 . S
C3717 C701 1.452 . S
C3735 C981 1.531 . S
C3739 C1406 1.546 . S
C3753 C1002 1.436 . S
C3757 C1469 1.435 . S
C3775 C1316 1.529 . S
C3771 C1042 1.516 . S
C3793 C1364 1.495 . S
C3789 C1095 1.496 . S
C3811 C1358 1.427 . S
C3807 C1135 1.429 . S
C3829 C1412 1.543 . S
C3825 C1181 1.531 . S
C3847 C1445 1.481 . S
C3843 C1215 1.486 . S
C3861 C1261 1.552 . S
C3865 C1310 1.556 . S
C3879 C975 1.519 . S
C3883 C2357 1.518 . S
C3901 C2165 1.441 . S
C3897 C1015 1.442 . S
C3919 C2420 1.553 . S
C3915 C1061 1.541 . S
C3937 C2237 1.499 . S
C3933 C1101 1.500 . S
C3951 C1122 1.444 . S
C3955 C2270 1.454 . S
C3973 C2069 1.517 . S
C3969 C1175 1.518 . S
C3991 C2333 1.505 . S
C3987 C1221 1.500 . S
C4005 C1242 1.516 . S
C4009 C2141 1.520 . S
C4027 C2213 1.532 . S
C4023 C962 1.513 . S
C4045 C2093 1.439 . S
C4041 C1141 1.429 . S
C4063 C2309 1.546 . S
C4059 C1162 1.528 . S
C4077 C1202 1.499 . S
C4081 C2117 1.509 . S
C4095 C1255 1.512 . S
C4099 C2276 1.508 . S
C4113 C1055 1.521 . S
C4117 C2189 1.513 . S
C4131 C1082 1.495 . S
C4135 C2414 1.498 . S
C4153 C2381 1.455 . S
C4149 C1021 1.450 . S
