# Generated by pormake.
# Topology ptr, (4,4)-cn, num edge types: 1
# Building blocks:
#     Node 0, Type 0, BuildingBlock: CEKHIL_clean_sbu_0, # of connection points: 4
#     Node 1, Type 0, BuildingBlock: CEKHIL_clean_sbu_0, # of connection points: 4
#     Node 2, Type 0, BuildingBlock: CEKHIL_clean_sbu_0, # of connection points: 4
#     Node 3, Type 0, BuildingBlock: CEKHIL_clean_sbu_0, # of connection points: 4
#     Node 4, Type 0, BuildingBlock: CEKHIL_clean_sbu_0, # of connection points: 4
#     Node 5, Type 0, BuildingBlock: CEKHIL_clean_sbu_0, # of connection points: 4
#     Node 6, Type 0, BuildingBlock: CEKHIL_clean_sbu_0, # of connection points: 4
#     Node 7, Type 0, BuildingBlock: CEKHIL_clean_sbu_0, # of connection points: 4
#     Node 8, Type 0, BuildingBlock: CEKHIL_clean_sbu_0, # of connection points: 4
#     Node 9, Type 0, BuildingBlock: CEKHIL_clean_sbu_0, # of connection points: 4
#     Node 10, Type 0, BuildingBlock: CEKHIL_clean_sbu_0, # of connection points: 4
#     Node 11, Type 0, BuildingBlock: CEKHIL_clean_sbu_0, # of connection points: 4
#     Node 12, Type 0, BuildingBlock: CEKHIL_clean_sbu_0, # of connection points: 4
#     Node 13, Type 0, BuildingBlock: CEKHIL_clean_sbu_0, # of connection points: 4
#     Node 14, Type 0, BuildingBlock: CEKHIL_clean_sbu_0, # of connection points: 4
#     Node 15, Type 0, BuildingBlock: CEKHIL_clean_sbu_0, # of connection points: 4
#     Node 16, Type 0, BuildingBlock: CEKHIL_clean_sbu_0, # of connection points: 4
#     Node 17, Type 0, BuildingBlock: CEKHIL_clean_sbu_0, # of connection points: 4
#     Node 18, Type 1, BuildingBlock: MIFKUJ_clean_linker_1, # of connection points: 4
#     Node 19, Type 1, BuildingBlock: MIFKUJ_clean_linker_1, # of connection points: 4
#     Node 20, Type 1, BuildingBlock: MIFKUJ_clean_linker_1, # of connection points: 4
#     Node 21, Type 1, BuildingBlock: MIFKUJ_clean_linker_1, # of connection points: 4
#     Node 22, Type 1, BuildingBlock: MIFKUJ_clean_linker_1, # of connection points: 4
#     Node 23, Type 1, BuildingBlock: MIFKUJ_clean_linker_1, # of connection points: 4
#     Node 24, Type 1, BuildingBlock: MIFKUJ_clean_linker_1, # of connection points: 4
#     Node 25, Type 1, BuildingBlock: MIFKUJ_clean_linker_1, # of connection points: 4
#     Node 26, Type 1, BuildingBlock: MIFKUJ_clean_linker_1, # of connection points: 4
#     Node 27, Type 1, BuildingBlock: MIFKUJ_clean_linker_1, # of connection points: 4
#     Node 28, Type 1, BuildingBlock: MIFKUJ_clean_linker_1, # of connection points: 4
#     Node 29, Type 1, BuildingBlock: MIFKUJ_clean_linker_1, # of connection points: 4
#     Node 30, Type 1, BuildingBlock: MIFKUJ_clean_linker_1, # of connection points: 4
#     Node 31, Type 1, BuildingBlock: MIFKUJ_clean_linker_1, # of connection points: 4
#     Node 32, Type 1, BuildingBlock: MIFKUJ_clean_linker_1, # of connection points: 4
#     Node 33, Type 1, BuildingBlock: MIFKUJ_clean_linker_1, # of connection points: 4
#     Node 34, Type 1, BuildingBlock: MIFKUJ_clean_linker_1, # of connection points: 4
#     Node 35, Type 1, BuildingBlock: MIFKUJ_clean_linker_1, # of connection points: 4
#     Edge 36, Type (0, 1), BuildingBlock: EZIPEK_clean_linker_0, # of connection points: 2
#     Edge 37, Type (0, 1), BuildingBlock: EZIPEK_clean_linker_0, # of connection points: 2
#     Edge 38, Type (0, 1), BuildingBlock: EZIPEK_clean_linker_0, # of connection points: 2
#     Edge 39, Type (0, 1), BuildingBlock: EZIPEK_clean_linker_0, # of connection points: 2
#     Edge 40, Type (0, 1), BuildingBlock: EZIPEK_clean_linker_0, # of connection points: 2
#     Edge 41, Type (0, 1), BuildingBlock: EZIPEK_clean_linker_0, # of connection points: 2
#     Edge 42, Type (0, 1), BuildingBlock: EZIPEK_clean_linker_0, # of connection points: 2
#     Edge 43, Type (0, 1), BuildingBlock: EZIPEK_clean_linker_0, # of connection points: 2
#     Edge 44, Type (0, 1), BuildingBlock: EZIPEK_clean_linker_0, # of connection points: 2
#     Edge 45, Type (0, 1), BuildingBlock: EZIPEK_clean_linker_0, # of connection points: 2
#     Edge 46, Type (0, 1), BuildingBlock: EZIPEK_clean_linker_0, # of connection points: 2
#     Edge 47, Type (0, 1), BuildingBlock: EZIPEK_clean_linker_0, # of connection points: 2
#     Edge 48, Type (0, 1), BuildingBlock: EZIPEK_clean_linker_0, # of connection points: 2
#     Edge 49, Type (0, 1), BuildingBlock: EZIPEK_clean_linker_0, # of connection points: 2
#     Edge 50, Type (0, 1), BuildingBlock: EZIPEK_clean_linker_0, # of connection points: 2
#     Edge 51, Type (0, 1), BuildingBlock: EZIPEK_clean_linker_0, # of connection points: 2
#     Edge 52, Type (0, 1), BuildingBlock: EZIPEK_clean_linker_0, # of connection points: 2
#     Edge 53, Type (0, 1), BuildingBlock: EZIPEK_clean_linker_0, # of connection points: 2
#     Edge 54, Type (0, 1), BuildingBlock: EZIPEK_clean_linker_0, # of connection points: 2
#     Edge 55, Type (0, 1), BuildingBlock: EZIPEK_clean_linker_0, # of connection points: 2
#     Edge 56, Type (0, 1), BuildingBlock: EZIPEK_clean_linker_0, # of connection points: 2
#     Edge 57, Type (0, 1), BuildingBlock: EZIPEK_clean_linker_0, # of connection points: 2
#     Edge 58, Type (0, 1), BuildingBlock: EZIPEK_clean_linker_0, # of connection points: 2
#     Edge 59, Type (0, 1), BuildingBlock: EZIPEK_clean_linker_0, # of connection points: 2
#     Edge 60, Type (0, 1), BuildingBlock: EZIPEK_clean_linker_0, # of connection points: 2
#     Edge 61, Type (0, 1), BuildingBlock: EZIPEK_clean_linker_0, # of connection points: 2
#     Edge 62, Type (0, 1), BuildingBlock: EZIPEK_clean_linker_0, # of connection points: 2
#     Edge 63, Type (0, 1), BuildingBlock: EZIPEK_clean_linker_0, # of connection points: 2
#     Edge 64, Type (0, 1), BuildingBlock: EZIPEK_clean_linker_0, # of connection points: 2
#     Edge 65, Type (0, 1), BuildingBlock: EZIPEK_clean_linker_0, # of connection points: 2
#     Edge 66, Type (0, 1), BuildingBlock: EZIPEK_clean_linker_0, # of connection points: 2
#     Edge 67, Type (0, 1), BuildingBlock: EZIPEK_clean_linker_0, # of connection points: 2
#     Edge 68, Type (0, 1), BuildingBlock: EZIPEK_clean_linker_0, # of connection points: 2
#     Edge 69, Type (0, 1), BuildingBlock: EZIPEK_clean_linker_0, # of connection points: 2
#     Edge 70, Type (0, 1), BuildingBlock: EZIPEK_clean_linker_0, # of connection points: 2
#     Edge 71, Type (0, 1), BuildingBlock: EZIPEK_clean_linker_0, # of connection points: 2
#     Edge 72, Type (0, 1), BuildingBlock: EZIPEK_clean_linker_0, # of connection points: 2
#     Edge 73, Type (0, 1), BuildingBlock: EZIPEK_clean_linker_0, # of connection points: 2
#     Edge 74, Type (0, 1), BuildingBlock: EZIPEK_clean_linker_0, # of connection points: 2
#     Edge 75, Type (0, 1), BuildingBlock: EZIPEK_clean_linker_0, # of connection points: 2
#     Edge 76, Type (0, 1), BuildingBlock: EZIPEK_clean_linker_0, # of connection points: 2
#     Edge 77, Type (0, 1), BuildingBlock: EZIPEK_clean_linker_0, # of connection points: 2
#     Edge 78, Type (0, 1), BuildingBlock: EZIPEK_clean_linker_0, # of connection points: 2
#     Edge 79, Type (0, 1), BuildingBlock: EZIPEK_clean_linker_0, # of connection points: 2
#     Edge 80, Type (0, 1), BuildingBlock: EZIPEK_clean_linker_0, # of connection points: 2
#     Edge 81, Type (0, 1), BuildingBlock: EZIPEK_clean_linker_0, # of connection points: 2
#     Edge 82, Type (0, 1), BuildingBlock: EZIPEK_clean_linker_0, # of connection points: 2
#     Edge 83, Type (0, 1), BuildingBlock: EZIPEK_clean_linker_0, # of connection points: 2
#     Edge 84, Type (0, 1), BuildingBlock: EZIPEK_clean_linker_0, # of connection points: 2
#     Edge 85, Type (0, 1), BuildingBlock: EZIPEK_clean_linker_0, # of connection points: 2
#     Edge 86, Type (0, 1), BuildingBlock: EZIPEK_clean_linker_0, # of connection points: 2
#     Edge 87, Type (0, 1), BuildingBlock: EZIPEK_clean_linker_0, # of connection points: 2
#     Edge 88, Type (0, 1), BuildingBlock: EZIPEK_clean_linker_0, # of connection points: 2
#     Edge 89, Type (0, 1), BuildingBlock: EZIPEK_clean_linker_0, # of connection points: 2
#     Edge 90, Type (0, 1), BuildingBlock: EZIPEK_clean_linker_0, # of connection points: 2
#     Edge 91, Type (0, 1), BuildingBlock: EZIPEK_clean_linker_0, # of connection points: 2
#     Edge 92, Type (0, 1), BuildingBlock: EZIPEK_clean_linker_0, # of connection points: 2
#     Edge 93, Type (0, 1), BuildingBlock: EZIPEK_clean_linker_0, # of connection points: 2
#     Edge 94, Type (0, 1), BuildingBlock: EZIPEK_clean_linker_0, # of connection points: 2
#     Edge 95, Type (0, 1), BuildingBlock: EZIPEK_clean_linker_0, # of connection points: 2
#     Edge 96, Type (0, 1), BuildingBlock: EZIPEK_clean_linker_0, # of connection points: 2
#     Edge 97, Type (0, 1), BuildingBlock: EZIPEK_clean_linker_0, # of connection points: 2
#     Edge 98, Type (0, 1), BuildingBlock: EZIPEK_clean_linker_0, # of connection points: 2
#     Edge 99, Type (0, 1), BuildingBlock: EZIPEK_clean_linker_0, # of connection points: 2
#     Edge 100, Type (0, 1), BuildingBlock: EZIPEK_clean_linker_0, # of connection points: 2
#     Edge 101, Type (0, 1), BuildingBlock: EZIPEK_clean_linker_0, # of connection points: 2
#     Edge 102, Type (0, 1), BuildingBlock: EZIPEK_clean_linker_0, # of connection points: 2
#     Edge 103, Type (0, 1), BuildingBlock: EZIPEK_clean_linker_0, # of connection points: 2
#     Edge 104, Type (0, 1), BuildingBlock: EZIPEK_clean_linker_0, # of connection points: 2
#     Edge 105, Type (0, 1), BuildingBlock: EZIPEK_clean_linker_0, # of connection points: 2
#     Edge 106, Type (0, 1), BuildingBlock: EZIPEK_clean_linker_0, # of connection points: 2
#     Edge 107, Type (0, 1), BuildingBlock: EZIPEK_clean_linker_0, # of connection points: 2
# Relax obj value: 0.037
# Max RMSD: 0.120
# Mean RMSD: 0.059
data_MOF--net-ptr--node1-CEKHIL_clean_sbu_0--node2-MIFKUJ_clean_linker_1--edge1-EZIPEK_clean_linker_0
_symmetry_space_group_name_H-M    P1
_symmetry_Int_Tables_number       1
_symmetry_cell_setting            triclinic
loop_
_symmetry_equiv_pos_as_xyz
'x, y, z'
_cell_length_a     69.988631
_cell_length_b     69.141646
_cell_length_c     48.399287
_cell_angle_alpha  91.231525
_cell_angle_beta   89.338379
_cell_angle_gamma 121.05663
loop_
_atom_site_label
_atom_site_type_symbol
_atom_site_fract_x
_atom_site_fract_y
_atom_site_fract_z
_atom_type_partial_charge
Co0 Co 0.00816 0.34849 0.00819 0.0
O1 O 0.0156 0.3334 0.03521 0.0
O2 O 0.04018 0.36354 0.01226 0.0
C3 C 0.98297 0.31685 0.9851 0.0
O4 O 0.00712 0.36879 0.97883 0.0
Co5 Co 0.96038 0.34025 0.0044 0.0
O6 O 0.97156 0.35878 0.97079 0.0
C7 C 0.99055 0.36991 0.04871 0.0
C8 C 0.03634 0.34845 0.03059 0.0
C9 C 0.99234 0.37066 0.96553 0.0
O10 O 0.00659 0.36814 0.03837 0.0
O11 O 0.97056 0.35903 0.03942 0.0
O12 O 0.00412 0.32616 0.9798 0.0
O13 O 0.9778 0.32579 0.00533 0.0
Co14 Co 0.66057 0.65939 0.01071 0.0
O15 O 0.6844 0.6753 0.98456 0.0
O16 O 0.67704 0.64417 0.0061 0.0
C17 C 0.66646 0.69032 0.03486 0.0
O18 O 0.63818 0.63837 0.03923 0.0
Co19 Co 0.62064 0.66682 0.01478 0.0
O20 O 0.6128 0.64827 0.0484 0.0
C21 C 0.62217 0.63836 0.96959 0.0
C22 C 0.68923 0.65977 0.98849 0.0
C23 C 0.62147 0.63637 0.05306 0.0
O24 O 0.63993 0.64033 0.97989 0.0
O25 O 0.61267 0.64867 0.97928 0.0
O26 O 0.67822 0.68115 0.04001 0.0
O27 O 0.65288 0.68171 0.01422 0.0
Co28 Co 0.34434 1.00027 0.00799 0.0
O29 O 0.33089 0.01038 0.98184 0.0
O30 O 0.3612 0.03295 0.00646 0.0
C31 C 0.31277 0.97505 0.02994 0.0
O32 O 0.36244 0.9961 0.03761 0.0
Co33 Co 0.33324 0.95074 0.005 0.0
O34 O 0.356 0.9608 0.03454 0.0
C35 C 0.36349 0.98235 0.96402 0.0
C36 C 0.34671 0.03075 0.98815 0.0
C37 C 0.36599 0.98053 0.0455 0.0
O38 O 0.36369 0.99864 0.97765 0.0
O39 O 0.35094 0.96158 0.97011 0.0
O40 O 0.32252 0.99641 0.0363 0.0
O41 O 0.32074 0.97001 0.00861 0.0
Co42 Co 0.99496 0.6542 0.01525 0.0
O43 O 0.98861 0.66879 0.98623 0.0
O44 O 0.96305 0.64019 0.01075 0.0
C45 C 0.02109 0.68592 0.03714 0.0
O46 O 0.99501 0.63545 0.04734 0.0
Co47 Co 0.04162 0.65962 0.02017 0.0
O48 O 0.02915 0.64043 0.05317 0.0
C49 C 0.01155 0.63138 0.97557 0.0
C50 C 0.96769 0.65471 0.99136 0.0
C51 C 0.00876 0.63163 0.06017 0.0
O52 O 0.99549 0.63244 0.98719 0.0
O53 O 0.03174 0.64266 0.98397 0.0
O54 O 1.00004 0.67829 0.04142 0.0
O55 O 0.0256 0.67559 0.01792 0.0
Co56 Co 0.34397 0.34512 0.01438 0.0
O57 O 0.3207 0.33133 0.04165 0.0
O58 O 0.32793 0.36097 0.01681 0.0
C59 C 0.33773 0.31321 0.99288 0.0
O60 O 0.36586 0.36329 0.98374 0.0
Co61 Co 0.3834 0.33677 0.01528 0.0
O62 O 0.3952 0.35846 0.98451 0.0
C63 C 0.38109 0.36627 0.05737 0.0
C64 C 0.31603 0.3467 0.03589 0.0
C65 C 0.38492 0.36747 0.97445 0.0
O66 O 0.36533 0.36605 0.04374 0.0
O67 O 0.38911 0.35381 0.05117 0.0
O68 O 0.32559 0.32181 0.987 0.0
O69 O 0.3512 0.3225 0.01352 0.0
Co70 Co 0.6581 0.00332 0.01161 0.0
O71 O 0.67341 0.994 0.03592 0.0
O72 O 0.64258 0.97065 0.01265 0.0
C73 C 0.68949 0.02976 0.98938 0.0
O74 O 0.6375 0.00608 0.98421 0.0
Co75 Co 0.66568 0.05061 0.014 0.0
O76 O 0.65132 0.04263 0.97708 0.0
C77 C 0.6363 0.01845 0.0552 0.0
C78 C 0.6579 0.97343 0.02997 0.0
C79 C 0.63769 0.02209 0.9709 0.0
O80 O 0.63924 0.00334 0.04344 0.0
O81 O 0.64619 0.03896 0.04754 0.0
O82 O 0.67931 0.00857 0.98202 0.0
O83 O 0.68141 0.0343 0.01111 0.0
Co84 Co 0.67593 0.68499 0.34038 0.0
O85 O 0.68285 0.66894 0.36664 0.0
O86 O 0.70787 0.70015 0.34561 0.0
C87 C 0.65097 0.65407 0.31602 0.0
O88 O 0.67542 0.70613 0.31181 0.0
Co89 Co 0.62828 0.67713 0.33616 0.0
O90 O 0.63996 0.69603 0.30287 0.0
C91 C 0.65772 0.70522 0.38182 0.0
C92 C 0.70362 0.68442 0.36317 0.0
C93 C 0.66082 0.7081 0.29818 0.0
O94 O 0.67388 0.70378 0.37128 0.0
O95 O 0.63786 0.69467 0.37211 0.0
O96 O 0.67219 0.66335 0.3111 0.0
O97 O 0.64565 0.6626 0.33655 0.0
Co98 Co 0.32497 0.99068 0.34758 0.0
O99 O 0.34805 0.00569 0.32027 0.0
O100 O 0.34302 0.97708 0.34497 0.0
C101 C 0.33019 0.02224 0.36952 0.0
O102 O 0.30341 0.97041 0.37723 0.0
Co103 Co 0.28409 0.99666 0.35089 0.0
O104 O 0.27657 0.97855 0.38487 0.0
C105 C 0.28691 0.96832 0.30641 0.0
C106 C 0.35448 0.99166 0.32604 0.0
C107 C 0.28617 0.96767 0.39044 0.0
O108 O 0.30422 0.96991 0.31775 0.0
O109 O 0.2776 0.97911 0.31507 0.0
O110 O 0.34256 0.01395 0.37545 0.0
O111 O 0.31632 0.01237 0.34938 0.0
Co112 Co 0.01495 0.33983 0.34781 0.0
O113 O 0.99898 0.34528 0.31957 0.0
O114 O 0.02919 0.37187 0.34128 0.0
C115 C 0.98425 0.31505 0.37227 0.0
O116 O 0.03589 0.34186 0.37834 0.0
Co117 Co 0.00894 0.2929 0.35612 0.0
O118 O 0.03187 0.30791 0.38545 0.0
C119 C 0.03561 0.31994 0.3093 0.0
C120 C 0.01363 0.36659 0.32318 0.0
C121 C 0.04109 0.32896 0.39079 0.0
O122 O 0.03439 0.33685 0.3187 0.0
O123 O 0.02483 0.30025 0.31968 0.0
O124 O 0.99297 0.33669 0.37564 0.0
O125 O 0.9931 0.30898 0.35298 0.0
Co126 Co 0.66119 0.98903 0.34782 0.0
O127 O 0.65285 0.00229 0.31923 0.0
O128 O 0.62907 0.97286 0.3441 0.0
C129 C 0.68615 0.02173 0.36912 0.0
O130 O 0.66342 0.97107 0.37943 0.0
Co131 Co 0.70964 0.99863 0.3511 0.0
O132 O 0.69866 0.97861 0.3835 0.0
C133 C 0.6797 0.9685 0.30742 0.0
C134 C 0.63236 0.98701 0.32473 0.0
C135 C 0.67829 0.96825 0.39102 0.0
O136 O 0.66312 0.96827 0.31947 0.0
O137 O 0.69995 0.98106 0.31526 0.0
O138 O 0.66496 0.0126 0.37413 0.0
O139 O 0.6913 0.0121 0.34971 0.0
Co140 Co 0.0093 0.67951 0.34621 0.0
O141 O 0.98613 0.66436 0.37344 0.0
O142 O 0.99313 0.69507 0.35126 0.0
C143 C 0.00225 0.64797 0.32248 0.0
O144 O 0.03111 0.69948 0.31611 0.0
Co145 Co 0.04879 0.67141 0.34118 0.0
O146 O 0.05657 0.68949 0.30726 0.0
C147 C 0.04853 0.70062 0.38641 0.0
C148 C 0.9812 0.67978 0.36933 0.0
C149 C 0.04766 0.70106 0.3021 0.0
O150 O 0.03075 0.69882 0.37638 0.0
O151 O 0.05757 0.68992 0.37646 0.0
O152 O 0.99041 0.65718 0.31823 0.0
O153 O 0.01654 0.65692 0.34243 0.0
Co154 Co 0.32604 0.33572 0.34412 0.0
O155 O 0.33904 0.3264 0.37186 0.0
O156 O 0.3088 0.3032 0.34743 0.0
C157 C 0.35815 0.35969 0.32226 0.0
O158 O 0.30819 0.33895 0.31325 0.0
Co159 Co 0.338 0.38568 0.34198 0.0
O160 O 0.31782 0.37533 0.30957 0.0
C161 C 0.30708 0.35606 0.38457 0.0
C162 C 0.32317 0.3059 0.3662 0.0
C163 C 0.30637 0.35466 0.30196 0.0
O164 O 0.30688 0.339 0.37311 0.0
O165 O 0.31964 0.3764 0.37668 0.0
O166 O 0.3481 0.33811 0.31712 0.0
O167 O 0.34981 0.36574 0.34222 0.0
Co168 Co 0.3422 0.01647 0.67268 0.0
O169 O 0.34958 1.00037 0.6983 0.0
O170 O 0.37425 0.03144 0.67678 0.0
C171 C 0.31659 0.9855 0.64884 0.0
O172 O 0.3412 0.0376 0.64452 0.0
Co173 Co 0.29461 0.00885 0.67043 0.0
O174 O 0.30566 0.02804 0.63732 0.0
C175 C 0.32514 0.03718 0.7151 0.0
C176 C 0.3703 0.0157 0.69418 0.0
C177 C 0.32641 0.03985 0.63181 0.0
O178 O 0.34099 0.0355 0.70396 0.0
O179 O 0.30506 0.02661 0.70615 0.0
O180 O 0.33768 0.99474 0.64311 0.0
O181 O 0.31178 0.99409 0.66978 0.0
Co182 Co 0.99345 0.32317 0.67761 0.0
O183 O 0.01623 0.33891 0.65014 0.0
O184 O 0.01095 0.30907 0.6728 0.0
C185 C 0.99923 0.35433 0.70114 0.0
O186 O 0.97227 0.30238 0.70729 0.0
Co187 Co 0.95282 0.32945 0.68368 0.0
O188 O 0.94646 0.3115 0.71764 0.0
C189 C 0.95459 0.30185 0.63744 0.0
C190 C 0.02229 0.32436 0.6545 0.0
C191 C 0.95575 0.30009 0.72185 0.0
O192 O 0.9721 0.30319 0.64776 0.0
O193 O 0.94546 0.31247 0.64733 0.0
O194 O 0.01166 0.34584 0.70581 0.0
O195 O 0.98499 0.34489 0.6813 0.0
Co196 Co 0.6796 0.67264 0.68177 0.0
O197 O 0.66548 0.68052 0.65378 0.0
O198 O 0.69509 0.70516 0.67815 0.0
C199 C 0.64782 0.64731 0.70357 0.0
O200 O 0.69834 0.67093 0.71282 0.0
Co201 Co 0.67063 0.62377 0.68436 0.0
O202 O 0.68987 0.63499 0.71765 0.0
C203 C 0.70092 0.65438 0.64183 0.0
C204 C 0.68046 0.7014 0.65923 0.0
C205 C 0.70073 0.6558 0.72479 0.0
O206 O 0.69981 0.67082 0.65303 0.0
O207 O 0.6892 0.63394 0.6498 0.0
O208 O 0.65682 0.66881 0.70859 0.0
O209 O 0.65699 0.64204 0.68381 0.0
Co210 Co 0.32836 0.32076 0.68536 0.0
O211 O 0.3219 0.33513 0.65622 0.0
O212 O 0.29652 0.30556 0.67954 0.0
C213 C 0.35317 0.35276 0.70794 0.0
O214 O 0.32833 0.30196 0.71743 0.0
Co215 Co 0.37545 0.32784 0.69238 0.0
O216 O 0.3627 0.30805 0.72482 0.0
C217 C 0.34717 0.29948 0.64659 0.0
C218 C 0.30102 0.32023 0.66038 0.0
C219 C 0.34205 0.29848 0.73084 0.0
O220 O 0.33053 0.29996 0.65729 0.0
O221 O 0.36706 0.31102 0.65601 0.0
O222 O 0.33189 0.3442 0.71163 0.0
O223 O 0.35869 0.343 0.68908 0.0
Co224 Co 0.67916 0.01677 0.67535 0.0
O225 O 0.65803 0.00215 0.70492 0.0
O226 O 0.66174 0.03085 0.68088 0.0
C227 C 0.67314 0.9851 0.65319 0.0
O228 O 0.6977 0.03548 0.64278 0.0
Co229 Co 0.72061 0.01207 0.66721 0.0
O230 O 0.72671 0.03082 0.63404 0.0
C231 C 0.7191 0.03923 0.71364 0.0
C232 C 0.65153 0.01633 0.70032 0.0
C233 C 0.71493 0.03941 0.62848 0.0
O234 O 0.70203 0.03852 0.70288 0.0
O235 O 0.72771 0.02803 0.70412 0.0
O236 O 0.65963 0.99248 0.64963 0.0
O237 O 0.6884 0.99576 0.67172 0.0
Co238 Co 0.98971 0.66512 0.67673 0.0
O239 O 0.00535 0.6572 0.70236 0.0
O240 O 0.97441 0.63264 0.68006 0.0
C241 C 0.02041 0.69063 0.65351 0.0
O242 O 0.96899 0.66659 0.64844 0.0
Co243 Co 0.9981 0.71362 0.67543 0.0
O244 O 0.97876 0.70272 0.64226 0.0
C245 C 0.96924 0.68271 0.71879 0.0
C246 C 0.98993 0.63635 0.6976 0.0
C247 C 0.96691 0.68176 0.6362 0.0
O248 O 0.97121 0.66672 0.70788 0.0
O249 O 0.97966 0.70298 0.71008 0.0
O250 O 0.01088 0.66923 0.6474 0.0
O251 O 0.01226 0.69581 0.67451 0.0
H252 H 0.15681 0.37163 0.21479 0.0
H253 H 0.12639 0.36617 0.24559 0.0
H254 H 0.08046 0.30586 0.19976 0.0
H255 H 0.11094 0.31116 0.16891 0.0
H256 H 0.17233 0.34385 0.20937 0.0
H257 H 0.13627 0.37042 0.15277 0.0
H258 H 0.10685 0.3703 0.12599 0.0
H259 H 0.10844 0.32336 0.06724 0.0
H260 H 0.13589 0.32126 0.09571 0.0
H261 H 0.189 0.315 0.10582 0.0
H262 H 0.21989 0.31626 0.07959 0.0
H263 H 0.26604 0.38014 0.11881 0.0
H264 H 0.23519 0.37873 0.14538 0.0
H265 H 0.17461 0.34639 0.10708 0.0
H266 H 0.20403 0.31428 0.1706 0.0
H267 H 0.23232 0.31346 0.19951 0.0
H268 H 0.24521 0.37479 0.24114 0.0
H269 H 0.217 0.37567 0.2124 0.0
C270 C 0.13616 0.34182 0.18952 0.0
C271 C 0.14015 0.35737 0.21112 0.0
C272 C 0.12283 0.35436 0.22856 0.0
C273 C 0.10123 0.3357 0.22479 0.0
C274 C 0.097 0.32047 0.20276 0.0
C275 C 0.11436 0.32349 0.18523 0.0
C276 C 0.15513 0.34406 0.1728 0.0
C277 C 0.17284 0.34464 0.18699 0.0
C278 C 0.15563 0.34474 0.14348 0.0
C279 C 0.13805 0.34534 0.12691 0.0
C280 C 0.12982 0.35943 0.13473 0.0
C281 C 0.11326 0.3597 0.11915 0.0
C282 C 0.10539 0.34681 0.09459 0.0
C283 C 0.11415 0.33336 0.08618 0.0
C284 C 0.12998 0.33232 0.1024 0.0
C285 C 0.20985 0.34669 0.12764 0.0
C286 C 0.20576 0.32928 0.10874 0.0
C287 C 0.22332 0.32999 0.09384 0.0
C288 C 0.2452 0.34828 0.09732 0.0
C289 C 0.24927 0.36587 0.11592 0.0
C290 C 0.23172 0.36504 0.13107 0.0
C291 C 0.19119 0.34563 0.14372 0.0
C292 C 0.17373 0.34542 0.12944 0.0
C293 C 0.19078 0.3453 0.17288 0.0
C294 C 0.20851 0.34513 0.18925 0.0
C295 C 0.21312 0.32769 0.18572 0.0
C296 C 0.22916 0.32716 0.20221 0.0
C297 C 0.24082 0.34411 0.22232 0.0
C298 C 0.2364 0.36164 0.22563 0.0
C299 C 0.22031 0.36209 0.20932 0.0
H300 H 0.70754 0.88984 0.19805 0.0
H301 H 0.7063 0.91689 0.23049 0.0
H302 H 0.63977 0.89563 0.20317 0.0
H303 H 0.64094 0.86843 0.17056 0.0
H304 H 0.67924 0.84451 0.20133 0.0
H305 H 0.69874 0.90225 0.13444 0.0
H306 H 0.69436 0.92951 0.10772 0.0
H307 H 0.63243 0.87536 0.0743 0.0
H308 H 0.63655 0.84802 0.10133 0.0
H309 H 0.63975 0.78987 0.10385 0.0
H310 H 0.63958 0.75833 0.07911 0.0
H311 H 0.70651 0.78233 0.10733 0.0
H312 H 0.70663 0.8137 0.13239 0.0
H313 H 0.66728 0.83635 0.09995 0.0
H314 H 0.64657 0.77892 0.16566 0.0
H315 H 0.64645 0.75126 0.19664 0.0
H316 H 0.70727 0.80365 0.23439 0.0
H317 H 0.70789 0.83134 0.20287 0.0
C318 C 0.67437 0.87718 0.18185 0.0
C319 C 0.69282 0.89124 0.19868 0.0
C320 C 0.69214 0.90666 0.21711 0.0
C321 C 0.67297 0.9082 0.21911 0.0
C322 C 0.65474 0.89472 0.2017 0.0
C323 C 0.65545 0.8793 0.18311 0.0
C324 C 0.67424 0.8589 0.16512 0.0
C325 C 0.6771 0.84297 0.17906 0.0
C326 C 0.67041 0.85644 0.13625 0.0
C327 C 0.66783 0.87307 0.12019 0.0
C328 C 0.68408 0.89621 0.12164 0.0
C329 C 0.68167 0.91175 0.1063 0.0
C330 C 0.66306 0.9044 0.08914 0.0
C331 C 0.64688 0.88131 0.08748 0.0
C332 C 0.64927 0.86576 0.10284 0.0
C333 C 0.67314 0.804 0.12006 0.0
C334 C 0.65443 0.78843 0.10455 0.0
C335 C 0.6543 0.77047 0.09055 0.0
C336 C 0.67301 0.76808 0.09155 0.0
C337 C 0.69194 0.78396 0.10643 0.0
C338 C 0.69197 0.80175 0.1207 0.0
C339 C 0.67281 0.82228 0.13617 0.0
C340 C 0.66969 0.83806 0.12217 0.0
C341 C 0.67621 0.82454 0.16509 0.0
C342 C 0.67737 0.80726 0.18169 0.0
C343 C 0.66029 0.78441 0.17995 0.0
C344 C 0.66014 0.76862 0.19768 0.0
C345 C 0.6769 0.77546 0.21764 0.0
C346 C 0.69431 0.79808 0.21895 0.0
C347 C 0.69456 0.81385 0.20108 0.0
H348 H 0.11347 0.82154 0.19728 0.0
H349 H 0.08625 0.79238 0.22845 0.0
H350 H 0.11259 0.74975 0.20689 0.0
H351 H 0.1393 0.77856 0.17532 0.0
H352 H 0.1625 0.84047 0.20374 0.0
H353 H 0.10676 0.81206 0.12764 0.0
H354 H 0.07574 0.78005 0.10274 0.0
H355 H 0.11573 0.74954 0.09112 0.0
H356 H 0.14702 0.78195 0.11533 0.0
H357 H 0.21251 0.84966 0.10529 0.0
H358 H 0.24406 0.87924 0.0791 0.0
H359 H 0.22692 0.92792 0.10752 0.0
H360 H 0.19562 0.89847 0.13414 0.0
H361 H 0.16667 0.83366 0.10187 0.0
H362 H 0.22638 0.87034 0.16715 0.0
H363 H 0.25543 0.89888 0.19784 0.0
H364 H 0.20697 0.91158 0.2362 0.0
H365 H 0.17806 0.88369 0.20502 0.0
C366 C 0.1283 0.80212 0.184 0.0
C367 C 0.11308 0.80574 0.19895 0.0
C368 C 0.0976 0.78917 0.21665 0.0
C369 C 0.09756 0.76901 0.2201 0.0
C370 C 0.11238 0.76518 0.20452 0.0
C371 C 0.12756 0.78157 0.18651 0.0
C372 C 0.14622 0.82039 0.16749 0.0
C373 C 0.16328 0.83933 0.1814 0.0
C374 C 0.14747 0.81836 0.13859 0.0
C375 C 0.12911 0.79931 0.12311 0.0
C376 C 0.10887 0.79855 0.11953 0.0
C377 C 0.09124 0.78036 0.10544 0.0
C378 C 0.09351 0.7625 0.09521 0.0
C379 C 0.11374 0.7632 0.09891 0.0
C380 C 0.13153 0.78163 0.11258 0.0
C381 C 0.20181 0.87191 0.12175 0.0
C382 C 0.21551 0.86668 0.10583 0.0
C383 C 0.23349 0.8835 0.09099 0.0
C384 C 0.23775 0.90569 0.09145 0.0
C385 C 0.22385 0.91087 0.10697 0.0
C386 C 0.20608 0.89413 0.12214 0.0
C387 C 0.18313 0.85417 0.13809 0.0
C388 C 0.16593 0.83516 0.12416 0.0
C389 C 0.18184 0.85622 0.16715 0.0
C390 C 0.20002 0.87497 0.18358 0.0
C391 C 0.22209 0.87968 0.1816 0.0
C392 C 0.23863 0.89581 0.1992 0.0
C393 C 0.23321 0.90715 0.21927 0.0
C394 C 0.21137 0.90291 0.22083 0.0
C395 C 0.19492 0.88699 0.2031 0.0
H396 H 0.30015 0.17603 0.81969 0.0
H397 H 0.29687 0.20286 0.79298 0.0
H398 H 0.35685 0.25699 0.83136 0.0
H399 H 0.36036 0.22954 0.85688 0.0
H400 H 0.32911 0.16423 0.82036 0.0
H401 H 0.30149 0.19298 0.89251 0.0
H402 H 0.30139 0.22364 0.91907 0.0
H403 H 0.36948 0.24924 0.94362 0.0
H404 H 0.36953 0.21838 0.91737 0.0
H405 H 0.3716 0.15859 0.91989 0.0
H406 H 0.37505 0.13041 0.94596 0.0
H407 H 0.31301 0.0775 0.91124 0.0
H408 H 0.30922 0.1056 0.88559 0.0
H409 H 0.34159 0.17103 0.92165 0.0
H410 H 0.3665 0.13805 0.85161 0.0
H411 H 0.36662 0.10964 0.82024 0.0
H412 H 0.30181 0.09186 0.78975 0.0
H413 H 0.30144 0.11992 0.82127 0.0
C414 C 0.32983 0.20069 0.84158 0.0
C415 C 0.31218 0.19382 0.82301 0.0
C416 C 0.30992 0.2097 0.8082 0.0
C417 C 0.32461 0.23323 0.81242 0.0
C418 C 0.34335 0.23965 0.82954 0.0
C419 C 0.34574 0.22376 0.84407 0.0
C420 C 0.33227 0.18369 0.85716 0.0
C421 C 0.33146 0.16551 0.84258 0.0
C422 C 0.33593 0.18559 0.88606 0.0
C423 C 0.33556 0.20353 0.90291 0.0
C424 C 0.31635 0.20512 0.90371 0.0
C425 C 0.31627 0.22252 0.91883 0.0
C426 C 0.33544 0.23862 0.93316 0.0
C427 C 0.35457 0.23691 0.93264 0.0
C428 C 0.35457 0.21935 0.91778 0.0
C429 C 0.34028 0.13423 0.90048 0.0
C430 C 0.35868 0.14095 0.91793 0.0
C431 C 0.36069 0.12492 0.93275 0.0
C432 C 0.3443 0.10194 0.93042 0.0
C433 C 0.32584 0.09518 0.91319 0.0
C434 C 0.32378 0.1112 0.89846 0.0
C435 C 0.33816 0.15135 0.88485 0.0
C436 C 0.33912 0.16963 0.89945 0.0
C437 C 0.33434 0.14934 0.85596 0.0
C438 C 0.33392 0.13106 0.83884 0.0
C439 C 0.35213 0.12774 0.83859 0.0
C440 C 0.35224 0.11162 0.82071 0.0
C441 C 0.33421 0.09875 0.80282 0.0
C442 C 0.31581 0.10165 0.80353 0.0
C443 C 0.31567 0.11769 0.82138 0.0
H444 H 0.82889 0.11452 0.81583 0.0
H445 H 0.7989 0.0894 0.7839 0.0
H446 H 0.75397 0.10529 0.82611 0.0
H447 H 0.78412 0.13077 0.85802 0.0
H448 H 0.84544 0.1592 0.81979 0.0
H449 H 0.80645 0.09541 0.87928 0.0
H450 H 0.77333 0.06686 0.90413 0.0
H451 H 0.7745 0.11933 0.9552 0.0
H452 H 0.80639 0.14792 0.92926 0.0
H453 H 0.85871 0.20315 0.92561 0.0
H454 H 0.88825 0.23629 0.95049 0.0
H455 H 0.9381 0.2288 0.90669 0.0
H456 H 0.9086 0.19534 0.88209 0.0
H457 H 0.84596 0.16007 0.92217 0.0
H458 H 0.87617 0.22207 0.86 0.0
H459 H 0.90132 0.25236 0.82885 0.0
H460 H 0.91311 0.20548 0.78274 0.0
H461 H 0.88853 0.17527 0.81431 0.0
C462 C 0.80872 0.12441 0.8394 0.0
C463 C 0.81253 0.11241 0.81848 0.0
C464 C 0.79547 0.0981 0.80033 0.0
C465 C 0.77433 0.09557 0.80277 0.0
C466 C 0.7702 0.10701 0.8241 0.0
C467 C 0.78734 0.12142 0.84229 0.0
C468 C 0.8277 0.14159 0.8563 0.0
C469 C 0.84578 0.15913 0.8422 0.0
C470 C 0.82764 0.14179 0.88558 0.0
C471 C 0.80876 0.12399 0.9019 0.0
C472 C 0.79946 0.10085 0.89558 0.0
C473 C 0.78074 0.08451 0.90997 0.0
C474 C 0.7715 0.09099 0.93151 0.0
C475 C 0.78141 0.11397 0.93867 0.0
C476 C 0.79969 0.13028 0.9239 0.0
C477 C 0.88144 0.19687 0.9018 0.0
C478 C 0.87597 0.20841 0.9216 0.0
C479 C 0.89276 0.22732 0.9357 0.0
C480 C 0.91524 0.23492 0.93026 0.0
C481 C 0.92079 0.22313 0.91103 0.0
C482 C 0.90399 0.20415 0.89699 0.0
C483 C 0.86348 0.17777 0.88558 0.0
C484 C 0.84571 0.15987 0.89976 0.0
C485 C 0.86348 0.17739 0.85634 0.0
C486 C 0.8806 0.19639 0.83968 0.0
C487 C 0.88466 0.21841 0.84374 0.0
C488 C 0.89891 0.23567 0.82594 0.0
C489 C 0.90903 0.23106 0.80363 0.0
C490 C 0.90551 0.20929 0.79997 0.0
C491 C 0.89145 0.1921 0.81789 0.0
H492 H 0.7975 0.64317 0.80783 0.0
H493 H 0.76904 0.64361 0.77929 0.0
H494 H 0.77218 0.69672 0.83096 0.0
H495 H 0.80129 0.69689 0.85921 0.0
H496 H 0.83923 0.67355 0.81697 0.0
H497 H 0.77316 0.63373 0.87694 0.0
H498 H 0.74149 0.63103 0.903 0.0
H499 H 0.78648 0.69255 0.94758 0.0
H500 H 0.81814 0.69508 0.92188 0.0
H501 H 0.89651 0.6984 0.88878 0.0
H502 H 0.92431 0.69497 0.91546 0.0
H503 H 0.8736 0.62785 0.93914 0.0
H504 H 0.84572 0.63134 0.91279 0.0
H505 H 0.83216 0.66306 0.9184 0.0
H506 H 0.88386 0.70449 0.82149 0.0
H507 H 0.91298 0.70556 0.79164 0.0
H508 H 0.89594 0.63973 0.81953 0.0
H509 H 0.86665 0.63852 0.84935 0.0
C510 C 0.80147 0.66985 0.83588 0.0
C511 C 0.79223 0.65505 0.81301 0.0
C512 C 0.77598 0.65524 0.79675 0.0
C513 C 0.76858 0.6702 0.80305 0.0
C514 C 0.77771 0.68506 0.82584 0.0
C515 C 0.79417 0.68501 0.84203 0.0
C516 C 0.81894 0.66943 0.85274 0.0
C517 C 0.83768 0.67134 0.83917 0.0
C518 C 0.81709 0.66663 0.88173 0.0
C519 C 0.79793 0.66466 0.89745 0.0
C520 C 0.77617 0.6466 0.89235 0.0
C521 C 0.75818 0.64505 0.90717 0.0
C522 C 0.76172 0.66163 0.92711 0.0
C523 C 0.78347 0.67962 0.93226 0.0
C524 C 0.80147 0.68103 0.91768 0.0
C525 C 0.86907 0.6651 0.89877 0.0
C526 C 0.89137 0.68296 0.89971 0.0
C527 C 0.90719 0.68103 0.91491 0.0
C528 C 0.90094 0.66115 0.92918 0.0
C529 C 0.87868 0.64329 0.92823 0.0
C530 C 0.86282 0.64532 0.91331 0.0
C531 C 0.85222 0.6669 0.88249 0.0
C532 C 0.83371 0.66538 0.89621 0.0
C533 C 0.85429 0.6701 0.85362 0.0
C534 C 0.87315 0.67147 0.83769 0.0
C535 C 0.88655 0.6904 0.82145 0.0
C536 C 0.90318 0.69107 0.80456 0.0
C537 C 0.90655 0.67277 0.80356 0.0
C538 C 0.8936 0.65405 0.82027 0.0
C539 C 0.87698 0.6534 0.83725 0.0
H540 H 0.82311 0.70606 0.54704 0.0
H541 H 0.79344 0.70187 0.57838 0.0
H542 H 0.74546 0.64259 0.53257 0.0
H543 H 0.77513 0.64646 0.5014 0.0
H544 H 0.83724 0.67775 0.54211 0.0
H545 H 0.8095 0.7096 0.47836 0.0
H546 H 0.7817 0.71212 0.45066 0.0
H547 H 0.76436 0.64938 0.40904 0.0
H548 H 0.7923 0.64691 0.43656 0.0
H549 H 0.85232 0.64468 0.43927 0.0
H550 H 0.88327 0.64576 0.41327 0.0
H551 H 0.92937 0.70992 0.45187 0.0
H552 H 0.89853 0.70881 0.47797 0.0
H553 H 0.83733 0.67545 0.43961 0.0
H554 H 0.86158 0.64174 0.51008 0.0
H555 H 0.88804 0.63944 0.54096 0.0
H556 H 0.91285 0.70808 0.56861 0.0
H557 H 0.88593 0.71008 0.53853 0.0
C558 C 0.8014 0.67662 0.52177 0.0
C559 C 0.80617 0.69235 0.54342 0.0
C560 C 0.78927 0.69005 0.56122 0.0
C561 C 0.76732 0.67197 0.55767 0.0
C562 C 0.76229 0.65675 0.53543 0.0
C563 C 0.77922 0.65902 0.51763 0.0
C564 C 0.81989 0.67738 0.50536 0.0
C565 C 0.83736 0.67762 0.51968 0.0
C566 C 0.81988 0.6766 0.47609 0.0
C567 C 0.80284 0.67796 0.45968 0.0
C568 C 0.79965 0.69632 0.46339 0.0
C569 C 0.7839 0.69782 0.44755 0.0
C570 C 0.77101 0.68093 0.42786 0.0
C571 C 0.77418 0.66258 0.42411 0.0
C572 C 0.79008 0.66119 0.43978 0.0
C573 C 0.87316 0.67655 0.46072 0.0
C574 C 0.86908 0.65896 0.44213 0.0
C575 C 0.88669 0.65956 0.42737 0.0
C576 C 0.90856 0.6779 0.43073 0.0
C577 C 0.91261 0.6956 0.4491 0.0
C578 C 0.89505 0.69491 0.46402 0.0
C579 C 0.85456 0.67596 0.47647 0.0
C580 C 0.83709 0.67564 0.46202 0.0
C581 C 0.85458 0.67684 0.50563 0.0
C582 C 0.87187 0.67609 0.5221 0.0
C583 C 0.8729 0.65634 0.52259 0.0
C584 C 0.88796 0.65504 0.54011 0.0
C585 C 0.90247 0.67364 0.55693 0.0
C586 C 0.90187 0.6936 0.5557 0.0
C587 C 0.88654 0.69474 0.53864 0.0
H588 H 0.37504 0.22398 0.53069 0.0
H589 H 0.37458 0.25113 0.5638 0.0
H590 H 0.30571 0.22615 0.54388 0.0
H591 H 0.30623 0.19914 0.51031 0.0
H592 H 0.34615 0.17706 0.53639 0.0
H593 H 0.36365 0.23501 0.47076 0.0
H594 H 0.35854 0.26216 0.44491 0.0
H595 H 0.29657 0.20774 0.41197 0.0
H596 H 0.3013 0.1805 0.43832 0.0
H597 H 0.30424 0.12273 0.4394 0.0
H598 H 0.30323 0.09107 0.41388 0.0
H599 H 0.37072 0.1146 0.43934 0.0
H600 H 0.37166 0.14607 0.46522 0.0
H601 H 0.33187 0.1691 0.43548 0.0
H602 H 0.31206 0.11155 0.50021 0.0
H603 H 0.31175 0.08355 0.5307 0.0
H604 H 0.37339 0.13514 0.56769 0.0
H605 H 0.3742 0.16319 0.53661 0.0
C606 C 0.3407 0.20964 0.51805 0.0
C607 C 0.35997 0.22465 0.53305 0.0
C608 C 0.35973 0.24012 0.55182 0.0
C609 C 0.34013 0.24058 0.55614 0.0
C610 C 0.321 0.22607 0.5406 0.0
C611 C 0.32132 0.21074 0.52152 0.0
C612 C 0.34034 0.19149 0.50086 0.0
C613 C 0.3435 0.17554 0.51421 0.0
C614 C 0.33581 0.18909 0.47218 0.0
C615 C 0.33271 0.20569 0.45682 0.0
C616 C 0.34877 0.22888 0.45836 0.0
C617 C 0.34596 0.24436 0.44351 0.0
C618 C 0.32717 0.23688 0.42665 0.0
C619 C 0.31114 0.21376 0.42493 0.0
C620 C 0.3139 0.19828 0.43989 0.0
C621 C 0.33796 0.1366 0.45433 0.0
C622 C 0.31887 0.12118 0.4393 0.0
C623 C 0.31827 0.10317 0.42483 0.0
C624 C 0.3369 0.10062 0.42484 0.0
C625 C 0.35623 0.1164 0.43915 0.0
C626 C 0.35672 0.13423 0.45392 0.0
C627 C 0.33812 0.15489 0.47098 0.0
C628 C 0.33478 0.17076 0.4576 0.0
C629 C 0.34214 0.15705 0.49978 0.0
C630 C 0.34328 0.13953 0.51585 0.0
C631 C 0.32593 0.11679 0.51418 0.0
C632 C 0.32567 0.1008 0.53164 0.0
C633 C 0.34259 0.10733 0.55129 0.0
C634 C 0.36029 0.12982 0.55248 0.0
C635 C 0.36066 0.14579 0.53486 0.0
H636 H 0.78729 0.16167 0.53808 0.0
H637 H 0.75879 0.13297 0.56595 0.0
H638 H 0.76647 0.08244 0.52124 0.0
H639 H 0.79575 0.11181 0.49431 0.0
H640 H 0.82903 0.17534 0.53364 0.0
H641 H 0.76801 0.14408 0.46873 0.0
H642 H 0.73688 0.11176 0.44453 0.0
H643 H 0.78294 0.0959 0.40547 0.0
H644 H 0.81413 0.12811 0.42984 0.0
H645 H 0.87466 0.18908 0.42951 0.0
H646 H 0.90668 0.21992 0.40549 0.0
H647 H 0.89447 0.26836 0.44685 0.0
H648 H 0.86231 0.23755 0.47082 0.0
H649 H 0.83046 0.17393 0.43116 0.0
H650 H 0.892 0.20736 0.49502 0.0
H651 H 0.9216 0.23505 0.52592 0.0
H652 H 0.87351 0.24543 0.56962 0.0
H653 H 0.84405 0.21838 0.5384 0.0
C654 C 0.79299 0.13891 0.51302 0.0
C655 C 0.78221 0.14423 0.53367 0.0
C656 C 0.76498 0.12726 0.54919 0.0
C657 C 0.75703 0.10409 0.54374 0.0
C658 C 0.76942 0.09927 0.5243 0.0
C659 C 0.78681 0.1163 0.50898 0.0
C660 C 0.81147 0.15718 0.49683 0.0
C661 C 0.82915 0.17527 0.51122 0.0
C662 C 0.81196 0.15669 0.46757 0.0
C663 C 0.79336 0.13836 0.45127 0.0
C664 C 0.77144 0.1337 0.4549 0.0
C665 C 0.75371 0.11534 0.44113 0.0
C666 C 0.75769 0.10146 0.42342 0.0
C667 C 0.77962 0.10644 0.41914 0.0
C668 C 0.79736 0.12483 0.43291 0.0
C669 C 0.86623 0.21101 0.45219 0.0
C670 C 0.87866 0.20629 0.43316 0.0
C671 C 0.89689 0.22383 0.41948 0.0
C672 C 0.90282 0.24632 0.42442 0.0
C673 C 0.89003 0.25107 0.44275 0.0
C674 C 0.87183 0.23353 0.4565 0.0
C675 C 0.84784 0.19245 0.46806 0.0
C676 C 0.83024 0.17419 0.45358 0.0
C677 C 0.84735 0.19286 0.49732 0.0
C678 C 0.86578 0.21087 0.51426 0.0
C679 C 0.88789 0.21595 0.51083 0.0
C680 C 0.90474 0.23161 0.5285 0.0
C681 C 0.8996 0.2421 0.55002 0.0
C682 C 0.87769 0.23741 0.55312 0.0
C683 C 0.86093 0.22197 0.53536 0.0
H684 H 0.96539 0.51006 0.15025 0.0
H685 H 0.96326 0.53741 0.12314 0.0
H686 H 0.02249 0.59067 0.16383 0.0
H687 H 0.02476 0.56276 0.18991 0.0
H688 H 0.99419 0.49805 0.15223 0.0
H689 H 0.96535 0.52746 0.22046 0.0
H690 H 0.96487 0.55826 0.24606 0.0
H691 H 0.02982 0.57982 0.27954 0.0
H692 H 0.03045 0.5491 0.25377 0.0
H693 H 0.03354 0.49098 0.25378 0.0
H694 H 0.03663 0.46249 0.27962 0.0
H695 H 0.9762 0.40977 0.24144 0.0
H696 H 0.97267 0.43817 0.21614 0.0
H697 H 0.00343 0.50316 0.25406 0.0
H698 H 0.03087 0.472 0.18361 0.0
H699 H 0.03138 0.44378 0.15219 0.0
H700 H 0.96613 0.42487 0.12217 0.0
H701 H 0.96551 0.4529 0.15348 0.0
C702 C 0.99455 0.53429 0.17333 0.0
C703 C 0.97747 0.52779 0.15399 0.0
C704 C 0.97585 0.54394 0.13895 0.0
C705 C 0.99063 0.5674 0.14366 0.0
C706 C 0.00885 0.57346 0.16159 0.0
C707 C 0.01057 0.55728 0.1764 0.0
C708 C 0.99629 0.51697 0.18914 0.0
C709 C 0.99585 0.499 0.17455 0.0
C710 C 0.99894 0.51839 0.21823 0.0
C711 C 0.99805 0.53614 0.23499 0.0
C712 C 0.97949 0.53879 0.23331 0.0
C713 C 0.97917 0.55628 0.2479 0.0
C714 C 0.99735 0.5713 0.2645 0.0
C715 C 0.01568 0.56838 0.26675 0.0
C716 C 0.01599 0.55085 0.25217 0.0
C717 C 0.00303 0.46677 0.23269 0.0
C718 C 0.02088 0.47332 0.25101 0.0
C719 C 0.02271 0.4571 0.26567 0.0
C720 C 0.00671 0.43408 0.26227 0.0
C721 C 0.98878 0.42747 0.24416 0.0
C722 C 0.98686 0.44368 0.22964 0.0
C723 C 1.00119 0.4841 0.21709 0.0
C724 C 1.00168 0.50216 0.23175 0.0
C725 C 0.99824 0.48258 0.18806 0.0
C726 C 0.99811 0.46449 0.17091 0.0
C727 C 0.01654 0.46153 0.17059 0.0
C728 C 0.01687 0.44553 0.1527 0.0
C729 C 0.99877 0.43234 0.13501 0.0
C730 C 0.98018 0.4349 0.13579 0.0
C731 C 0.97987 0.4509 0.15354 0.0
H732 H 0.49206 0.45366 0.15155 0.0
H733 H 0.46188 0.42532 0.12213 0.0
H734 H 0.41513 0.43887 0.16383 0.0
H735 H 0.44543 0.46763 0.1931 0.0
H736 H 0.50701 0.49774 0.15332 0.0
H737 H 0.47626 0.43752 0.21868 0.0
H738 H 0.44468 0.40701 0.24367 0.0
H739 H 0.4316 0.45559 0.28295 0.0
H740 H 0.46312 0.48617 0.25786 0.0
H741 H 0.52358 0.54588 0.25775 0.0
H742 H 0.55487 0.57835 0.28157 0.0
H743 H 0.60125 0.56555 0.23758 0.0
H744 H 0.57004 0.5328 0.21409 0.0
H745 H 0.50805 0.50168 0.25577 0.0
H746 H 0.53956 0.56205 0.19113 0.0
H747 H 0.56547 0.59123 0.15927 0.0
H748 H 0.57495 0.54188 0.11541 0.0
H749 H 0.54957 0.51277 0.14766 0.0
C750 C 0.471 0.46269 0.17459 0.0
C751 C 0.47531 0.45044 0.15456 0.0
C752 C 0.45814 0.43426 0.13789 0.0
C753 C 0.4364 0.43007 0.14097 0.0
C754 C 0.43184 0.44185 0.16138 0.0
C755 C 0.44908 0.45815 0.17806 0.0
C756 C 0.48976 0.48117 0.19051 0.0
C757 C 0.50751 0.49841 0.17574 0.0
C758 C 0.48993 0.48233 0.21971 0.0
C759 C 0.4719 0.46409 0.23625 0.0
C760 C 0.46664 0.44163 0.2327 0.0
C761 C 0.4487 0.42426 0.24692 0.0
C762 C 0.43581 0.42912 0.26494 0.0
C763 C 0.44136 0.45159 0.26904 0.0
C764 C 0.45935 0.46898 0.25486 0.0
C765 C 0.54448 0.53706 0.23392 0.0
C766 C 0.54045 0.54989 0.25343 0.0
C767 C 0.55823 0.56841 0.26691 0.0
C768 C 0.58025 0.5743 0.26112 0.0
C769 C 0.58433 0.56124 0.24213 0.0
C770 C 0.56655 0.54267 0.22872 0.0
C771 C 0.52564 0.51819 0.2185 0.0
C772 C 0.50778 0.50093 0.23336 0.0
C773 C 0.52538 0.51697 0.18924 0.0
C774 C 0.54272 0.53521 0.17192 0.0
C775 C 0.54765 0.55759 0.17516 0.0
C776 C 0.56234 0.57421 0.15697 0.0
C777 C 0.57205 0.5686 0.13514 0.0
C778 C 0.56763 0.54645 0.13227 0.0
C779 C 0.55311 0.52989 0.15056 0.0
H780 H 0.54327 0.02936 0.15537 0.0
H781 H 0.57394 0.03313 0.12636 0.0
H782 H 0.55994 0.96771 0.15192 0.0
H783 H 0.52912 0.96385 0.18111 0.0
H784 H 0.49913 0.99621 0.14949 0.0
H785 H 0.55647 0.02312 0.2205 0.0
H786 H 0.5851 0.02142 0.2475 0.0
H787 H 0.53608 0.95439 0.27354 0.0
H788 H 0.50737 0.95605 0.24661 0.0
H789 H 0.43707 0.95511 0.22929 0.0
H790 H 0.40752 0.9564 0.25518 0.0
H791 H 0.45221 0.0277 0.2712 0.0
H792 H 0.48014 0.02696 0.24075 0.0
H793 H 0.49267 0.98692 0.25101 0.0
H794 H 0.43291 0.96668 0.18638 0.0
H795 H 0.40608 0.96877 0.15792 0.0
H796 H 0.45973 0.01909 0.10847 0.0
H797 H 0.4867 0.02145 0.1419 0.0
C798 C 0.53393 0.99633 0.17037 0.0
C799 C 0.54691 0.0159 0.15497 0.0
C800 C 0.56443 0.01812 0.13857 0.0
C801 C 0.56915 1.00074 0.13718 0.0
C802 C 0.55656 0.98133 0.15298 0.0
C803 C 0.53904 0.97916 0.16955 0.0
C804 C 0.51448 0.9937 0.18619 0.0
C805 C 0.49769 0.99464 0.17177 0.0
C806 C 0.51248 0.99049 0.21501 0.0
C807 C 0.52982 0.98963 0.23139 0.0
C808 C 0.55189 0.00802 0.23192 0.0
C809 C 0.56817 0.0071 0.24734 0.0
C810 C 0.56263 0.98777 0.26241 0.0
C811 C 0.54061 0.96941 0.26199 0.0
C812 C 0.52428 0.9704 0.24672 0.0
C813 C 0.46009 0.99119 0.23144 0.0
C814 C 0.44011 0.97119 0.23741 0.0
C815 C 0.42342 0.97189 0.25264 0.0
C816 C 0.42735 0.99224 0.26498 0.0
C817 C 0.44837 0.0119 0.26128 0.0
C818 C 0.46434 0.0115 0.244 0.0
C819 C 0.47752 0.99061 0.21451 0.0
C820 C 0.49395 0.98884 0.22875 0.0
C821 C 0.47914 0.99333 0.18532 0.0
C822 C 0.46222 0.9948 0.16801 0.0
C823 C 0.43919 0.97987 0.17152 0.0
C824 C 0.42367 0.98035 0.15413 0.0
C825 C 0.43065 0.99384 0.13054 0.0
C826 C 0.45367 0.00857 0.12653 0.0
C827 C 0.46915 0.00962 0.14553 0.0
H828 H 0.48604 0.03128 0.87159 0.0
H829 H 0.45601 0.02854 0.90105 0.0
H830 H 0.4085 0.9674 0.85775 0.0
H831 H 0.43858 0.97027 0.82793 0.0
H832 H 0.4966 0.99712 0.86985 0.0
H833 H 0.47668 0.0375 0.80656 0.0
H834 H 0.44949 0.04139 0.7793 0.0
H835 H 0.43109 0.9792 0.73551 0.0
H836 H 0.45853 0.97544 0.76256 0.0
H837 H 0.52173 0.97541 0.76799 0.0
H838 H 0.55426 0.97936 0.74304 0.0
H839 H 0.59649 0.04328 0.78465 0.0
H840 H 0.56392 0.03914 0.81008 0.0
H841 H 0.50583 0.00623 0.76851 0.0
H842 H 0.54542 0.98285 0.82757 0.0
H843 H 0.57606 0.98825 0.85674 0.0
H844 H 0.55779 0.02194 0.91825 0.0
H845 H 0.53102 0.02143 0.88686 0.0
C846 C 0.46452 0.00092 0.8477 0.0
C847 C 0.4691 0.01751 0.86809 0.0
C848 C 0.45201 0.01603 0.88477 0.0
C849 C 0.43012 0.99776 0.88155 0.0
C850 C 0.4253 0.98166 0.8604 0.0
C851 C 0.44242 0.98328 0.84348 0.0
C852 C 0.48323 0.00131 0.83252 0.0
C853 C 0.49927 0.99978 0.84781 0.0
C854 C 0.48551 0.00349 0.80361 0.0
C855 C 0.46947 0.00609 0.78669 0.0
C856 C 0.46682 0.02472 0.79107 0.0
C857 C 0.4514 0.02698 0.77552 0.0
C858 C 0.43827 0.01055 0.75548 0.0
C859 C 0.44108 0.99204 0.75088 0.0
C860 C 0.4567 0.98991 0.76625 0.0
C861 C 0.54049 0.00689 0.791 0.0
C862 C 0.53799 0.99027 0.77174 0.0
C863 C 0.5565 0.99248 0.7576 0.0
C864 C 0.57774 0.01155 0.76214 0.0
C865 C 0.58023 0.0284 0.78104 0.0
C866 C 0.56171 0.02606 0.79545 0.0
C867 C 0.52076 0.00405 0.80622 0.0
C868 C 0.50397 0.00429 0.79074 0.0
C869 C 0.51854 0.0018 0.83544 0.0
C870 C 0.53601 0.00247 0.854 0.0
C871 C 0.54861 0.99248 0.8466 0.0
C872 C 0.56577 0.99488 0.86377 0.0
C873 C 0.56939 0.00551 0.88989 0.0
C874 C 0.55565 0.01387 0.89815 0.0
C875 C 0.53994 0.0132 0.88016 0.0
H876 H 0.03838 0.55162 0.86844 0.0
H877 H 0.03673 0.57855 0.90067 0.0
H878 H 0.97182 0.5596 0.86933 0.0
H879 H 0.97329 0.53234 0.83711 0.0
H880 H 0.01038 0.50693 0.86953 0.0
H881 H 0.03112 0.56571 0.80337 0.0
H882 H 0.02677 0.59316 0.77701 0.0
H883 H 0.96524 0.53916 0.74253 0.0
H884 H 0.96934 0.51163 0.76914 0.0
H885 H 0.97421 0.45624 0.76707 0.0
H886 H 0.97407 0.42509 0.74145 0.0
H887 H 0.03691 0.44294 0.77857 0.0
H888 H 0.0374 0.47439 0.80379 0.0
H889 H 1.00056 0.50045 0.76782 0.0
H890 H 0.97832 0.44194 0.83284 0.0
H891 H 0.97786 0.41394 0.86358 0.0
H892 H 0.03842 0.46593 0.90231 0.0
H893 H 0.03931 0.49395 0.87114 0.0
C894 C 0.006 0.54002 0.8503 0.0
C895 C 0.0239 0.55344 0.8682 0.0
C896 C 0.023 0.5688 0.88651 0.0
C897 C 0.00419 0.571 0.88726 0.0
C898 C 0.98652 0.55817 0.86884 0.0
C899 C 0.98742 0.54273 0.85046 0.0
C900 C 0.00611 0.52191 0.83339 0.0
C901 C 0.00869 0.50575 0.8472 0.0
C902 C 0.00288 0.51987 0.80442 0.0
C903 C 1.00043 0.53661 0.78848 0.0
C904 C 0.01659 0.55975 0.79035 0.0
C905 C 0.01419 0.57539 0.77524 0.0
C906 C 0.9957 0.56811 0.75789 0.0
C907 C 0.97962 0.54502 0.75581 0.0
C908 C 0.982 0.52938 0.77093 0.0
C909 C 0.00568 0.4675 0.78759 0.0
C910 C 0.98809 0.45363 0.76949 0.0
C911 C 0.98795 0.43588 0.75496 0.0
C912 C 0.00544 0.4318 0.75829 0.0
C913 C 0.02328 0.44588 0.77587 0.0
C914 C 0.02346 0.4637 0.79031 0.0
C915 C 0.00528 0.48569 0.80396 0.0
C916 C 0.00249 0.50175 0.79011 0.0
C917 C 0.00807 0.48753 0.83301 0.0
C918 C 0.00894 0.47008 0.84952 0.0
C919 C 0.99187 0.44727 0.84737 0.0
C920 C 0.99155 0.43129 0.86492 0.0
C921 C 0.00816 0.43793 0.88504 0.0
C922 C 0.02557 0.46053 0.88673 0.0
C923 C 0.02598 0.47648 0.86908 0.0
H924 H 0.46462 0.49055 0.88503 0.0
H925 H 0.44071 0.46091 0.91682 0.0
H926 H 0.43216 0.41043 0.85614 0.0
H927 H 0.45962 0.43992 0.82657 0.0
H928 H 0.50127 0.50507 0.87095 0.0
H929 H 0.43671 0.47391 0.81043 0.0
H930 H 0.40462 0.4422 0.78658 0.0
H931 H 0.44904 0.42671 0.74227 0.0
H932 H 0.48112 0.45838 0.76597 0.0
H933 H 0.54383 0.51894 0.76695 0.0
H934 H 0.57529 0.54989 0.74218 0.0
H935 H 0.56082 0.59762 0.78102 0.0
H936 H 0.52937 0.56675 0.80578 0.0
H937 H 0.49759 0.50358 0.76871 0.0
H938 H 0.56144 0.53664 0.83386 0.0
H939 H 0.59063 0.56604 0.86391 0.0
H940 H 0.54231 0.58013 0.89979 0.0
H941 H 0.5132 0.55079 0.87007 0.0
C942 C 0.46416 0.46789 0.85287 0.0
C943 C 0.45809 0.47316 0.87854 0.0
C944 C 0.44406 0.45616 0.89668 0.0
C945 C 0.43451 0.43329 0.88904 0.0
C946 C 0.43937 0.42791 0.86271 0.0
C947 C 0.45476 0.44493 0.84541 0.0
C948 C 0.48147 0.48646 0.8353 0.0
C949 C 0.49987 0.50477 0.84864 0.0
C950 C 0.48054 0.48628 0.80593 0.0
C951 C 0.46127 0.46835 0.79013 0.0
C952 C 0.43954 0.46377 0.79546 0.0
C953 C 0.42129 0.44574 0.78194 0.0
C954 C 0.42453 0.43206 0.76292 0.0
C955 C 0.44626 0.43704 0.75699 0.0
C956 C 0.46451 0.45513 0.77038 0.0
C957 C 0.53437 0.54056 0.78835 0.0
C958 C 0.54729 0.53603 0.76994 0.0
C959 C 0.56525 0.55364 0.75593 0.0
C960 C 0.57041 0.576 0.75995 0.0
C961 C 0.55715 0.58048 0.77779 0.0
C962 C 0.53926 0.5629 0.79188 0.0
C963 C 0.5164 0.52208 0.80475 0.0
C964 C 0.49827 0.5038 0.7911 0.0
C965 C 0.51699 0.52264 0.83388 0.0
C966 C 0.5352 0.54159 0.84982 0.0
C967 C 0.55725 0.54632 0.84789 0.0
C968 C 0.57384 0.56302 0.86493 0.0
C969 C 0.56852 0.57519 0.88388 0.0
C970 C 0.54667 0.57095 0.88514 0.0
C971 C 0.53011 0.5542 0.86832 0.0
H972 H 0.63681 0.86648 0.52358 0.0
H973 H 0.63619 0.89493 0.49439 0.0
H974 H 0.69571 0.90598 0.4528 0.0
H975 H 0.69642 0.87769 0.48182 0.0
H976 H 0.66478 0.83266 0.4858 0.0
H977 H 0.6391 0.85218 0.58897 0.0
H978 H 0.63933 0.88388 0.61329 0.0
H979 H 0.70054 0.93068 0.57197 0.0
H980 H 0.70027 0.89901 0.5475 0.0
H981 H 0.70269 0.82649 0.58709 0.0
H982 H 0.7062 0.79853 0.61359 0.0
H983 H 0.64372 0.74544 0.58008 0.0
H984 H 0.64003 0.77334 0.55373 0.0
H985 H 0.67152 0.83888 0.58795 0.0
H986 H 0.69891 0.80539 0.51883 0.0
H987 H 0.69868 0.77676 0.4874 0.0
H988 H 0.63334 0.75853 0.45845 0.0
H989 H 0.63351 0.78703 0.48969 0.0
C990 C 0.66673 0.87004 0.50494 0.0
C991 C 0.64982 0.87517 0.50834 0.0
C992 C 0.64942 0.8913 0.49171 0.0
C993 C 0.66595 0.90252 0.47156 0.0
C994 C 0.68288 0.89751 0.46832 0.0
C995 C 0.68322 0.88136 0.48478 0.0
C996 C 0.66715 0.85254 0.52182 0.0
C997 C 0.66617 0.83398 0.50816 0.0
C998 C 0.66885 0.85418 0.55095 0.0
C999 C 0.66963 0.87328 0.56643 0.0
C1000 C 0.65262 0.86925 0.58526 0.0
C1001 C 0.65268 0.88727 0.59898 0.0
C1002 C 0.66991 0.90955 0.5943 0.0
C1003 C 0.68709 0.91359 0.57573 0.0
C1004 C 0.68694 0.89557 0.56186 0.0
C1005 C 0.67118 0.80202 0.56823 0.0
C1006 C 0.68969 0.80886 0.5855 0.0
C1007 C 0.69176 0.79295 0.60051 0.0
C1008 C 0.67528 0.76997 0.59864 0.0
C1009 C 0.65665 0.7631 0.58165 0.0
C1010 C 0.6546 0.779 0.56659 0.0
C1011 C 0.6694 0.81901 0.55183 0.0
C1012 C 0.67002 0.83746 0.56561 0.0
C1013 C 0.66714 0.81716 0.52273 0.0
C1014 C 0.6662 0.79827 0.50655 0.0
C1015 C 0.68436 0.7949 0.50613 0.0
C1016 C 0.68426 0.77866 0.48827 0.0
C1017 C 0.66597 0.76563 0.47076 0.0
C1018 C 0.64751 0.76841 0.47195 0.0
C1019 C 0.64766 0.78467 0.48965 0.0
H1020 H 0.15912 0.78139 0.48878 0.0
H1021 H 0.12959 0.75341 0.45819 0.0
H1022 H 0.0829 0.76942 0.49494 0.0
H1023 H 0.11246 0.79765 0.52539 0.0
H1024 H 0.17469 0.8263 0.48881 0.0
H1025 H 0.14274 0.7673 0.55758 0.0
H1026 H 0.11037 0.73747 0.58237 0.0
H1027 H 0.09432 0.78651 0.61272 0.0
H1028 H 0.12686 0.81644 0.58825 0.0
H1029 H 0.18902 0.87786 0.58881 0.0
H1030 H 0.22014 0.9111 0.61187 0.0
H1031 H 0.26623 0.89321 0.57766 0.0
H1032 H 0.23522 0.86015 0.55426 0.0
H1033 H 0.1728 0.83168 0.59109 0.0
H1034 H 0.20437 0.89068 0.52677 0.0
H1035 H 0.23016 0.92049 0.49566 0.0
H1036 H 0.24287 0.87304 0.45257 0.0
H1037 H 0.21765 0.84325 0.48428 0.0
C1038 C 0.13798 0.79152 0.50948 0.0
C1039 C 0.14248 0.77869 0.49053 0.0
C1040 C 0.12567 0.76272 0.47318 0.0
C1041 C 0.10417 0.75943 0.47442 0.0
C1042 C 0.09941 0.77171 0.49387 0.0
C1043 C 0.11624 0.78771 0.51126 0.0
C1044 C 0.15646 0.8101 0.52569 0.0
C1045 C 0.17458 0.82722 0.51122 0.0
C1046 C 0.15574 0.81178 0.5548 0.0
C1047 C 0.1371 0.79403 0.57103 0.0
C1048 C 0.13235 0.77165 0.56974 0.0
C1049 C 0.11398 0.7547 0.58385 0.0
C1050 C 0.10004 0.75989 0.59922 0.0
C1051 C 0.10496 0.78228 0.60091 0.0
C1052 C 0.12349 0.79929 0.58708 0.0
C1053 C 0.20986 0.86664 0.56975 0.0
C1054 C 0.20578 0.88097 0.58649 0.0
C1055 C 0.22347 0.89992 0.5995 0.0
C1056 C 0.24539 0.90455 0.59628 0.0
C1057 C 0.24941 0.88987 0.58025 0.0
C1058 C 0.23177 0.87109 0.56697 0.0
C1059 C 0.19138 0.84762 0.55416 0.0
C1060 C 0.17319 0.83055 0.56872 0.0
C1061 C 0.1919 0.84612 0.52499 0.0
C1062 C 0.20923 0.86473 0.50809 0.0
C1063 C 0.21322 0.88678 0.51125 0.0
C1064 C 0.22782 0.90377 0.49345 0.0
C1065 C 0.23838 0.89887 0.472 0.0
C1066 C 0.23492 0.87707 0.46919 0.0
C1067 C 0.22049 0.86012 0.48715 0.0
H1068 H 0.12856 0.30699 0.47507 0.0
H1069 H 0.10256 0.31122 0.44598 0.0
H1070 H 0.1154 0.37008 0.49377 0.0
H1071 H 0.14162 0.36594 0.52303 0.0
H1072 H 0.17215 0.33521 0.48246 0.0
H1073 H 0.1062 0.30553 0.53584 0.0
H1074 H 0.07543 0.30499 0.56083 0.0
H1075 H 0.1215 0.35063 0.62255 0.0
H1076 H 0.15268 0.3533 0.59595 0.0
H1077 H 0.21292 0.35857 0.58858 0.0
H1078 H 0.24076 0.35536 0.61534 0.0
H1079 H 0.22281 0.29314 0.57189 0.0
H1080 H 0.19526 0.29657 0.54471 0.0
H1081 H 0.16637 0.32791 0.58431 0.0
H1082 H 0.23146 0.36275 0.52492 0.0
H1083 H 0.26183 0.36766 0.49423 0.0
H1084 H 0.21505 0.309 0.44645 0.0
H1085 H 0.18468 0.304 0.47708 0.0
C1086 C 0.13691 0.33604 0.50135 0.0
C1087 C 0.12582 0.32082 0.47934 0.0
C1088 C 0.11098 0.32319 0.46281 0.0
C1089 C 0.10703 0.34086 0.46788 0.0
C1090 C 0.11818 0.35626 0.48971 0.0
C1091 C 0.13304 0.35385 0.50638 0.0
C1092 C 0.15292 0.33342 0.5184 0.0
C1093 C 0.17066 0.33334 0.50473 0.0
C1094 C 0.15113 0.33134 0.54757 0.0
C1095 C 0.13205 0.33003 0.56337 0.0
C1096 C 0.10992 0.31606 0.55421 0.0
C1097 C 0.09224 0.31544 0.56872 0.0
C1098 C 0.09614 0.32782 0.59355 0.0
C1099 C 0.1181 0.34106 0.60336 0.0
C1100 C 0.13588 0.34243 0.58823 0.0
C1101 C 0.20212 0.32787 0.5646 0.0
C1102 C 0.21498 0.34425 0.58482 0.0
C1103 C 0.23084 0.34245 0.60001 0.0
C1104 C 0.23384 0.32404 0.59553 0.0
C1105 C 0.22079 0.3075 0.57554 0.0
C1106 C 0.20513 0.30947 0.56008 0.0
C1107 C 0.18555 0.33004 0.54827 0.0
C1108 C 0.16768 0.32986 0.56207 0.0
C1109 C 0.18699 0.33172 0.51922 0.0
C1110 C 0.20582 0.33296 0.50331 0.0
C1111 C 0.22783 0.3506 0.50829 0.0
C1112 C 0.24512 0.35345 0.4908 0.0
C1113 C 0.24059 0.33868 0.46816 0.0
C1114 C 0.21881 0.32049 0.4639 0.0
C1115 C 0.20153 0.3177 0.48129 0.0
C1116 C 0.98646 0.37789 0.09855 0.0
C1117 C 0.99548 0.38607 0.07197 0.0
C1118 C 0.00872 0.42493 0.08768 0.0
C1119 C 0.99962 0.41674 0.1142 0.0
N1120 N 0.98366 0.38659 0.14685 0.0
N1121 N 0.01869 0.41735 0.04228 0.0
C1122 C 0.98969 0.39352 0.12025 0.0
C1123 C 0.00785 0.40962 0.06694 0.0
N1124 N 0.97449 0.35512 0.10281 0.0
N1125 N 0.01727 0.44723 0.082 0.0
H1126 H 0.01765 0.40673 0.02601 0.0
H1127 H 0.03001 0.43429 0.03846 0.0
H1128 H 0.01894 0.45913 0.0969 0.0
H1129 H 0.02154 0.45383 0.06225 0.0
H1130 H 0.9652 0.3478 0.12056 0.0
H1131 H 0.97303 0.34329 0.08794 0.0
H1132 H 0.97825 0.37032 0.15338 0.0
H1133 H 0.98565 0.39766 0.16308 0.0
C1134 C 0.58679 0.60189 0.06889 0.0
C1135 C 0.60987 0.61765 0.07295 0.0
C1136 C 0.60879 0.59902 0.11616 0.0
C1137 C 0.58527 0.58541 0.11372 0.0
N1138 N 0.55132 0.57489 0.08924 0.0
N1139 N 0.6433 0.63132 0.10014 0.0
C1140 C 0.57412 0.58711 0.09048 0.0
C1141 C 0.62109 0.61611 0.09637 0.0
N1142 N 0.57722 0.60025 0.04378 0.0
N1143 N 0.61935 0.5953 0.13717 0.0
H1144 H 0.65331 0.64281 0.08523 0.0
H1145 H 0.65177 0.63317 0.11846 0.0
H1146 H 0.61077 0.58347 0.15249 0.0
H1147 H 0.63658 0.60279 0.13857 0.0
H1148 H 0.56111 0.58751 0.03856 0.0
H1149 H 0.58615 0.61013 0.027 0.0
H1150 H 0.54217 0.57752 0.07456 0.0
H1151 H 0.54137 0.56321 0.10411 0.0
C1152 C 0.37873 0.96688 0.08517 0.0
C1153 C 0.38198 0.98509 0.06864 0.0
C1154 C 0.41466 0.01012 0.0973 0.0
C1155 C 0.41394 0.99112 0.10922 0.0
N1156 N 0.39816 0.95059 0.10567 0.0
N1157 N 0.40786 0.02393 0.05548 0.0
C1158 C 0.39683 0.9692 0.10058 0.0
C1159 C 0.40127 0.0068 0.07368 0.0
N1160 N 0.3583 0.94763 0.08724 0.0
N1161 N 0.42747 0.03118 0.10875 0.0
H1162 H 0.4003 0.02193 0.03639 0.0
H1163 H 0.42276 0.03936 0.05784 0.0
H1164 H 0.43626 0.03412 0.12713 0.0
H1165 H 0.42708 0.04513 0.10172 0.0
H1166 H 0.3554 0.93465 0.10046 0.0
H1167 H 0.34385 0.94606 0.07903 0.0
H1168 H 0.38643 0.93458 0.098 0.0
H1169 H 0.41226 0.95159 0.11422 0.0
C1170 C 0.37815 0.99268 0.91548 0.0
C1171 C 0.38093 0.98781 0.94295 0.0
C1172 C 0.4146 0.98756 0.92941 0.0
C1173 C 0.41291 0.99421 0.90243 0.0
N1174 N 0.39511 0.0063 0.87052 0.0
N1175 N 0.4039 0.98503 0.97753 0.0
C1176 C 0.39523 0.99769 0.89563 0.0
C1177 C 0.39982 0.98661 0.95034 0.0
N1178 N 0.35891 0.99183 0.90822 0.0
N1179 N 0.42972 0.98121 0.93476 0.0
H1180 H 0.39342 0.98423 0.99354 0.0
H1181 H 0.41868 0.98661 0.98447 0.0
H1182 H 0.44067 0.98127 0.91991 0.0
H1183 H 0.43003 0.97384 0.95317 0.0
H1184 H 0.35479 0.99288 0.88794 0.0
H1185 H 0.34629 0.98854 0.92241 0.0
H1186 H 0.384 0.01141 0.86534 0.0
H1187 H 0.40727 0.00997 0.85549 0.0
C1188 C 0.99302 0.40562 0.95215 0.0
C1189 C 0.99954 0.38964 0.94618 0.0
C1190 C 0.01528 0.40795 0.90181 0.0
C1191 C 0.00596 0.42175 0.90634 0.0
N1192 N 0.98443 0.43279 0.93463 0.0
N1193 N 0.01752 0.37565 0.91593 0.0
C1194 C 0.9945 0.4204 0.93124 0.0
C1195 C 0.01111 0.39097 0.92129 0.0
N1196 N 0.98626 0.40728 0.97828 0.0
N1197 N 0.02838 0.41137 0.87908 0.0
H1198 H 0.01639 0.36426 0.93052 0.0
H1199 H 0.02334 0.37368 0.89683 0.0
H1200 H 0.03125 0.42327 0.86418 0.0
H1201 H 0.03758 0.40358 0.87576 0.0
H1202 H 0.98363 0.42018 0.98479 0.0
H1203 H 0.9855 0.39714 0.99442 0.0
H1204 H 0.97348 0.43041 0.95075 0.0
H1205 H 0.98566 0.44441 0.92024 0.0
C1206 C 0.61122 0.62998 0.91962 0.0
C1207 C 0.61109 0.62205 0.94648 0.0
C1208 C 0.58527 0.58302 0.93113 0.0
C1209 C 0.58509 0.59098 0.9044 0.0
N1210 N 0.60043 0.6208 0.8713 0.0
N1211 N 0.60138 0.59117 0.9771 0.0
C1212 C 0.59895 0.61413 0.89804 0.0
C1213 C 0.59928 0.59857 0.95195 0.0
N1214 N 0.62274 0.65269 0.91502 0.0
N1215 N 0.57132 0.56066 0.93683 0.0
H1216 H 0.61048 0.60199 0.99345 0.0
H1217 H 0.59531 0.5743 0.98145 0.0
H1218 H 0.56168 0.54855 0.92179 0.0
H1219 H 0.56833 0.55411 0.95662 0.0
H1220 H 0.62167 0.65992 0.89692 0.0
H1221 H 0.63289 0.66462 0.92996 0.0
H1222 H 0.61165 0.63702 0.86455 0.0
H1223 H 0.59137 0.60958 0.8552 0.0
C1224 C 0.00881 0.6223 0.92488 0.0
C1225 C 0.00634 0.61503 0.95256 0.0
C1226 C 0.99699 0.57734 0.93634 0.0
C1227 C 0.00254 0.58553 0.90903 0.0
N1228 N 0.01445 0.61572 0.87677 0.0
N1229 N 0.99939 0.58634 0.98535 0.0
C1230 C 0.00841 0.60794 0.90306 0.0
C1231 C 1.00056 0.59265 0.95849 0.0
N1232 N 0.0114 0.64286 0.91957 0.0
N1233 N 0.98807 0.55483 0.94096 0.0
H1234 H 1.0014 0.59694 0.00214 0.0
H1235 H 0.99788 0.57119 0.9911 0.0
H1236 H 0.98535 0.54317 0.92517 0.0
H1237 H 0.98158 0.54735 0.95991 0.0
H1238 H 0.01111 0.64833 0.8998 0.0
H1239 H 0.01208 0.65383 0.93521 0.0
H1240 H 0.02133 0.63256 0.87156 0.0
H1241 H 0.01376 0.60546 0.86021 0.0
C1242 C 0.40936 0.37976 0.93193 0.0
C1243 C 0.39562 0.38322 0.95082 0.0
C1244 C 0.40279 0.41585 0.92362 0.0
C1245 C 0.42025 0.41522 0.90916 0.0
N1246 N 0.44364 0.39883 0.90618 0.0
N1247 N 0.38411 0.40913 0.96754 0.0
C1248 C 0.42455 0.39779 0.91509 0.0
C1249 C 0.3935 0.40246 0.94747 0.0
N1250 N 0.40757 0.35919 0.92921 0.0
N1251 N 0.39475 0.42883 0.91447 0.0
H1252 H 0.37914 0.40158 0.98673 0.0
H1253 H 0.384 0.42411 0.96641 0.0
H1254 H 0.40025 0.43786 0.89619 0.0
H1255 H 0.38087 0.42838 0.92332 0.0
H1256 H 0.41637 0.35584 0.91422 0.0
H1257 H 0.39528 0.34484 0.93917 0.0
H1258 H 0.44791 0.38711 0.91205 0.0
H1259 H 0.4564 0.41271 0.89603 0.0
C1260 C 0.61375 0.03308 0.94477 0.0
C1261 C 0.62032 0.01705 0.94942 0.0
C1262 C 0.59159 0.99163 0.91608 0.0
C1263 C 0.58814 0.00936 0.9084 0.0
N1264 N 0.60335 0.04974 0.90935 0.0
N1265 N 0.61892 0.98307 0.93224 0.0
C1266 C 0.60175 0.03103 0.92062 0.0
C1267 C 0.61031 0.99685 0.93293 0.0
N1268 N 0.61723 0.04926 0.96411 0.0
N1269 N 0.57669 0.96976 0.90863 0.0
H1270 H 0.63372 0.98713 0.94208 0.0
H1271 H 0.61286 0.96909 0.91891 0.0
H1272 H 0.562 0.96492 0.89799 0.0
H1273 H 0.5778 0.95626 0.91583 0.0
H1274 H 0.61142 0.0603 0.96149 0.0
H1275 H 0.62252 0.04936 0.98418 0.0
H1276 H 0.61422 0.06598 0.91716 0.0
H1277 H 0.59593 0.04918 0.89053 0.0
C1278 C 0.62556 0.01872 0.10485 0.0
C1279 C 0.61913 0.01138 0.07708 0.0
C1280 C 0.57969 0.99491 0.08948 0.0
C1281 C 0.58614 0.00234 0.11721 0.0
N1282 N 0.61416 0.01758 0.15277 0.0
N1283 N 0.59031 0.9896 0.04334 0.0
C1284 C 0.60881 0.01307 0.12536 0.0
C1285 C 0.59623 0.99842 0.06958 0.0
N1286 N 0.64772 0.03145 0.1114 0.0
N1287 N 0.5578 0.9854 0.08198 0.0
H1288 H 0.6018 0.993 0.02753 0.0
H1289 H 0.57405 0.97777 0.03745 0.0
H1290 H 0.54506 0.98165 0.09614 0.0
H1291 H 0.55225 0.98227 0.06161 0.0
H1292 H 0.65373 0.03955 0.13042 0.0
H1293 H 0.66035 0.03478 0.09721 0.0
H1294 H 0.63004 0.02348 0.16064 0.0
H1295 H 0.60224 0.01385 0.16816 0.0
C1296 C 0.01156 0.62387 0.11037 0.0
C1297 C 1.00066 0.6163 0.08426 0.0
C1298 C 0.97443 0.57988 0.10495 0.0
C1299 C 0.98916 0.58536 0.12751 0.0
N1300 N 0.00845 0.61651 0.1594 0.0
N1301 N 0.97101 0.58601 0.05695 0.0
C1302 C 0.00403 0.60866 0.13275 0.0
C1303 C 0.98165 0.59412 0.08169 0.0
N1304 N 0.0293 0.64532 0.11389 0.0
N1305 N 0.95253 0.56356 0.10761 0.0
H1306 H 0.97589 0.59536 0.03893 0.0
H1307 H 0.95846 0.56917 0.05399 0.0
H1308 H 0.94598 0.55607 0.12662 0.0
H1309 H 0.94062 0.56023 0.09256 0.0
H1310 H 0.03921 0.65061 0.13158 0.0
H1311 H 0.03494 0.65746 0.09864 0.0
H1312 H 0.01744 0.63362 0.16481 0.0
H1313 H 1.0005 0.60575 0.17593 0.0
C1314 C 0.40638 0.40627 0.07314 0.0
C1315 C 0.39209 0.38322 0.07982 0.0
C1316 C 0.4046 0.39139 0.12802 0.0
C1317 C 0.41894 0.41439 0.12125 0.0
N1318 N 0.42961 0.44488 0.08983 0.0
N1319 N 0.37357 0.35459 0.11407 0.0
C1320 C 0.41848 0.42219 0.09457 0.0
C1321 C 0.38991 0.37602 0.10749 0.0
N1322 N 0.4094 0.41272 0.04615 0.0
N1323 N 0.40568 0.38416 0.15371 0.0
H1324 H 0.36255 0.34305 0.09939 0.0
H1325 H 0.36967 0.34884 0.13424 0.0
H1326 H 0.41572 0.39514 0.16947 0.0
H1327 H 0.39758 0.36723 0.15904 0.0
H1328 H 0.42159 0.42871 0.03966 0.0
H1329 H 0.40081 0.40164 0.02977 0.0
H1330 H 0.4281 0.45177 0.07165 0.0
H1331 H 0.43882 0.45699 0.10507 0.0
C1332 C 0.67455 0.74447 0.40127 0.0
C1333 C 0.66248 0.72082 0.40563 0.0
C1334 C 0.65708 0.72719 0.45446 0.0
C1335 C 0.66674 0.7505 0.44919 0.0
N1336 N 0.68374 0.78166 0.41784 0.0
N1337 N 0.64219 0.68918 0.4357 0.0
C1338 C 0.67547 0.75928 0.42273 0.0
C1339 C 0.65382 0.71204 0.43212 0.0
N1340 N 0.68509 0.75276 0.37659 0.0
N1341 N 0.65132 0.7197 0.48092 0.0
H1342 H 0.64069 0.67773 0.42024 0.0
H1343 H 0.63323 0.6814 0.45348 0.0
H1344 H 0.65333 0.73043 0.49758 0.0
H1345 H 0.64607 0.70333 0.48685 0.0
H1346 H 0.69623 0.76981 0.37315 0.0
H1347 H 0.68403 0.74251 0.35985 0.0
H1348 H 0.68768 0.78863 0.39826 0.0
H1349 H 0.68551 0.79324 0.43325 0.0
C1350 C 0.28638 0.94818 0.43421 0.0
C1351 C 0.275 0.94902 0.41049 0.0
C1352 C 0.23988 0.91704 0.42731 0.0
C1353 C 0.25123 0.91596 0.45074 0.0
N1354 N 0.28545 0.92773 0.475 0.0
N1355 N 0.24273 0.93017 0.3807 0.0
C1356 C 0.27458 0.93072 0.45373 0.0
C1357 C 0.25224 0.93228 0.40599 0.0
N1358 N 0.30824 0.96438 0.43852 0.0
N1359 N 0.21716 0.90377 0.42565 0.0
H1360 H 0.2514 0.94043 0.36408 0.0
H1361 H 0.22702 0.91677 0.37518 0.0
H1362 H 0.20746 0.8917 0.44027 0.0
H1363 H 0.20771 0.90586 0.41085 0.0
H1364 H 0.31661 0.96662 0.45703 0.0
H1365 H 0.31798 0.97632 0.42389 0.0
H1366 H 0.30273 0.93617 0.47683 0.0
H1367 H 0.27717 0.9156 0.4901 0.0
C1368 C 0.08162 0.34748 0.40264 0.0
C1369 C 0.05932 0.33879 0.41146 0.0
C1370 C 0.06931 0.33567 0.45873 0.0
C1371 C 0.09138 0.34314 0.44969 0.0
N1372 N 0.12019 0.36178 0.4155 0.0
N1373 N 0.03408 0.33294 0.44869 0.0
C1374 C 0.09808 0.35096 0.42236 0.0
C1375 C 0.05385 0.33555 0.43985 0.0
N1376 N 0.0868 0.35167 0.37527 0.0
N1377 N 0.06282 0.32766 0.48485 0.0
H1378 H 0.02344 0.33454 0.43526 0.0
H1379 H 0.02961 0.33205 0.46942 0.0
H1380 H 0.07373 0.32773 0.4994 0.0
H1381 H 0.04631 0.3196 0.49153 0.0
H1382 H 0.10197 0.35527 0.3667 0.0
H1383 H 0.07545 0.35087 0.36083 0.0
H1384 H 0.12653 0.36957 0.39667 0.0
H1385 H 0.13256 0.36461 0.42964 0.0
C1386 C 0.04969 0.33026 0.26046 0.0
C1387 C 0.05205 0.32376 0.28723 0.0
C1388 C 0.08462 0.32206 0.27153 0.0
C1389 C 0.08373 0.33095 0.24577 0.0
N1390 N 0.0672 0.34612 0.21644 0.0
N1391 N 0.07374 0.31676 0.31964 0.0
C1392 C 0.06674 0.33577 0.2404 0.0
C1393 C 0.07003 0.3205 0.29314 0.0
N1394 N 0.03072 0.33018 0.25384 0.0
N1395 N 0.09901 0.31448 0.27511 0.0
H1396 H 0.06345 0.31527 0.33619 0.0
H1397 H 0.08812 0.31706 0.32574 0.0
H1398 H 0.11004 0.31535 0.25982 0.0
H1399 H 0.09865 0.30547 0.29228 0.0
H1400 H 0.02697 0.33253 0.2339 0.0
H1401 H 0.0178 0.3259 0.26793 0.0
H1402 H 0.05675 0.35233 0.21265 0.0
H1403 H 0.07921 0.35001 0.20112 0.0
C1404 C 0.68027 0.72892 0.25444 0.0
C1405 C 0.66825 0.72727 0.27904 0.0
C1406 C 0.66304 0.75788 0.26384 0.0
C1407 C 0.67483 0.75945 0.23915 0.0
N1408 N 0.69785 0.74953 0.21244 0.0
N1409 N 0.65417 0.74441 0.31071 0.0
C1410 C 0.68447 0.7459 0.23493 0.0
C1411 C 0.66141 0.74304 0.28476 0.0
N1412 N 0.68707 0.71387 0.24937 0.0
N1413 N 0.65281 0.77014 0.26698 0.0
H1414 H 0.65327 0.7342 0.32684 0.0
H1415 H 0.65124 0.75712 0.31712 0.0
H1416 H 0.65422 0.78186 0.25264 0.0
H1417 H 0.64162 0.76759 0.28285 0.0
H1418 H 0.69324 0.71209 0.23044 0.0
H1419 H 0.68595 0.70253 0.26402 0.0
H1420 H 0.70725 0.74193 0.20934 0.0
H1421 H 0.70073 0.76141 0.19751 0.0
C1422 C 0.26432 0.92884 0.28722 0.0
C1423 C 0.27637 0.95246 0.28274 0.0
C1424 C 0.26212 0.94624 0.23531 0.0
C1425 C 0.24995 0.92266 0.23987 0.0
N1426 N 0.24273 0.89098 0.26752 0.0
N1427 N 0.29092 0.98352 0.25145 0.0
C1428 C 0.2522 0.9138 0.26498 0.0
C1429 C 0.27655 0.96112 0.25638 0.0
N1430 N 0.26345 0.92085 0.31312 0.0
N1431 N 0.25932 0.95439 0.21115 0.0
H1432 H 0.30181 0.99474 0.26647 0.0
H1433 H 0.29347 0.99066 0.23204 0.0
H1434 H 0.24967 0.9439 0.19482 0.0
H1435 H 0.26557 0.97143 0.20772 0.0
H1436 H 0.25268 0.90416 0.31864 0.0
H1437 H 0.27256 0.93121 0.32979 0.0
H1438 H 0.24574 0.88354 0.28406 0.0
H1439 H 0.23315 0.8794 0.25198 0.0
C1440 C 0.67491 0.95818 0.25699 0.0
C1441 C 0.67513 0.95207 0.28471 0.0
C1442 C 0.66864 0.91526 0.26899 0.0
C1443 C 0.67155 0.92259 0.24128 0.0
N1444 N 0.67864 0.95124 0.20839 0.0
N1445 N 0.67387 0.92574 0.31764 0.0
C1446 C 0.67477 0.94404 0.23507 0.0
C1447 C 0.6723 0.93079 0.29089 0.0
N1448 N 0.67474 0.97744 0.25172 0.0
N1449 N 0.66199 0.89331 0.27428 0.0
H1450 H 0.67604 0.93648 0.33433 0.0
H1451 H 0.67458 0.91166 0.32319 0.0
H1452 H 0.65908 0.88145 0.25869 0.0
H1453 H 0.65739 0.88629 0.2938 0.0
H1454 H 0.67228 0.98172 0.23214 0.0
H1455 H 0.67527 0.98833 0.26737 0.0
H1456 H 0.68357 0.96762 0.2028 0.0
H1457 H 0.67827 0.94116 0.1918 0.0
C1458 C 0.0737 0.7415 0.28967 0.0
C1459 C 0.05871 0.71886 0.28099 0.0
C1460 C 0.06621 0.73032 0.23255 0.0
C1461 C 0.08302 0.75233 0.24116 0.0
N1462 N 0.10542 0.778 0.27797 0.0
N1463 N 0.04412 0.69084 0.24425 0.0
C1464 C 0.08734 0.75781 0.26977 0.0
C1465 C 0.05587 0.713 0.25242 0.0
N1466 N 0.07534 0.74733 0.31707 0.0
N1467 N 0.05992 0.72604 0.20542 0.0
H1468 H 0.03707 0.67776 0.25831 0.0
H1469 H 0.04329 0.68539 0.22383 0.0
H1470 H 0.06698 0.73844 0.1904 0.0
H1471 H 0.0463 0.71089 0.19833 0.0
H1472 H 0.08378 0.76398 0.32439 0.0
H1473 H 0.06707 0.73553 0.33245 0.0
H1474 H 0.11092 0.7819 0.29834 0.0
H1475 H 0.11623 0.79024 0.26418 0.0
C1476 C 0.29629 0.35853 0.25341 0.0
C1477 C 0.28942 0.34867 0.27993 0.0
C1478 C 0.25018 0.33348 0.26728 0.0
C1479 C 0.25717 0.34334 0.24091 0.0
N1480 N 0.28586 0.36092 0.20643 0.0
N1481 N 0.25974 0.32404 0.31095 0.0
C1482 C 0.27994 0.35443 0.23319 0.0
C1483 C 0.26631 0.33508 0.28638 0.0
N1484 N 0.31848 0.37245 0.24784 0.0
N1485 N 0.22816 0.32345 0.27447 0.0
H1486 H 0.27076 0.32606 0.32656 0.0
H1487 H 0.24334 0.31178 0.31547 0.0
H1488 H 0.21576 0.32102 0.26062 0.0
H1489 H 0.22215 0.31854 0.29443 0.0
H1490 H 0.32454 0.38233 0.23032 0.0
H1491 H 0.33102 0.37526 0.26159 0.0
H1492 H 0.30181 0.36689 0.19857 0.0
H1493 H 0.27432 0.35857 0.19129 0.0
C1494 C 0.27223 0.35464 0.4001 0.0
C1495 C 0.29038 0.35179 0.40629 0.0
C1496 C 0.27528 0.33901 0.45275 0.0
C1497 C 0.25811 0.34355 0.44721 0.0
N1498 N 0.24264 0.35981 0.41776 0.0
N1499 N 0.31149 0.34497 0.43957 0.0
C1500 C 0.25727 0.35255 0.42147 0.0
C1501 C 0.29256 0.34497 0.43293 0.0
N1502 N 0.26883 0.35858 0.37354 0.0
N1503 N 0.27471 0.32845 0.47657 0.0
H1504 H 0.32443 0.34923 0.42551 0.0
H1505 H 0.31515 0.34243 0.45948 0.0
H1506 H 0.26244 0.3241 0.49165 0.0
H1507 H 0.28534 0.32247 0.48046 0.0
H1508 H 0.25443 0.35811 0.36716 0.0
H1509 H 0.2795 0.36044 0.35725 0.0
H1510 H 0.24295 0.36879 0.40059 0.0
H1511 H 0.23145 0.35871 0.43295 0.0
C1512 C 0.65689 0.92811 0.4076 0.0
C1513 C 0.67166 0.95152 0.41349 0.0
C1514 C 0.67761 0.94237 0.46033 0.0
C1515 C 0.66547 0.91913 0.45297 0.0
N1516 N 0.64388 0.88934 0.4199 0.0
N1517 N 0.6969 0.98109 0.44507 0.0
C1518 C 0.65492 0.91184 0.42682 0.0
C1519 C 0.6821 0.95869 0.43987 0.0
N1520 N 0.64502 0.92134 0.38346 0.0
N1521 N 0.68473 0.94876 0.48698 0.0
H1522 H 0.69999 0.99367 0.43117 0.0
H1523 H 0.70713 0.98721 0.46242 0.0
H1524 H 0.68199 0.9372 0.50229 0.0
H1525 H 0.69164 0.96523 0.49459 0.0
H1526 H 0.6321 0.90489 0.37945 0.0
H1527 H 0.64693 0.93233 0.36787 0.0
H1528 H 0.63836 0.88297 0.40003 0.0
H1529 H 0.64123 0.87689 0.43384 0.0
C1530 C 0.06863 0.73922 0.40924 0.0
C1531 C 0.05914 0.7155 0.41108 0.0
C1532 C 0.07492 0.72072 0.45771 0.0
C1533 C 0.08722 0.74436 0.45374 0.0
N1534 N 0.09735 0.77643 0.4252 0.0
N1535 N 0.05185 0.6832 0.43752 0.0
C1536 C 0.08432 0.75372 0.4295 0.0
C1537 C 0.0618 0.70611 0.43557 0.0
N1538 N 0.06259 0.748 0.38838 0.0
N1539 N 0.07555 0.71237 0.48283 0.0
H1540 H 0.04047 0.67195 0.42292 0.0
H1541 H 0.05529 0.67526 0.45306 0.0
H1542 H 0.08511 0.72271 0.49932 0.0
H1543 H 0.06544 0.69553 0.48816 0.0
H1544 H 0.0672 0.76491 0.38769 0.0
H1545 H 0.05111 0.73819 0.37314 0.0
H1546 H 0.09818 0.7839 0.40642 0.0
H1547 H 0.1087 0.78776 0.43976 0.0
C1548 C 0.32273 0.04474 0.76548 0.0
C1549 C 0.3305 0.05317 0.73864 0.0
C1550 C 0.34421 0.09192 0.75531 0.0
C1551 C 0.33506 0.08333 0.78171 0.0
N1552 N 0.31582 0.05228 0.81278 0.0
N1553 N 0.35222 0.08457 0.70857 0.0
C1554 C 0.32461 0.05992 0.78714 0.0
C1555 C 0.34245 0.07675 0.73377 0.0
N1556 N 0.3142 0.02231 0.77024 0.0
N1557 N 0.3535 0.11448 0.75054 0.0
H1558 H 0.35065 0.074 0.69197 0.0
H1559 H 0.36307 0.10151 0.70429 0.0
H1560 H 0.35579 0.12622 0.76601 0.0
H1561 H 0.3581 0.12169 0.73115 0.0
H1562 H 0.3097 0.01503 0.7896 0.0
H1563 H 0.31296 0.01094 0.7548 0.0
H1564 H 0.30599 0.03533 0.81774 0.0
H1565 H 0.31778 0.0631 0.8293 0.0
C1566 C 0.95667 0.27988 0.76459 0.0
C1567 C 0.94481 0.2813 0.74179 0.0
C1568 C 0.90973 0.25006 0.75992 0.0
C1569 C 0.92153 0.24841 0.78246 0.0
N1570 N 0.95628 0.25898 0.80464 0.0
N1571 N 0.91156 0.26345 0.71365 0.0
C1572 C 0.94506 0.26251 0.7843 0.0
C1573 C 0.92174 0.26516 0.73831 0.0
N1574 N 0.97884 0.29544 0.76784 0.0
N1575 N 0.88693 0.2374 0.75933 0.0
H1576 H 0.91997 0.27354 0.6968 0.0
H1577 H 0.89547 0.25048 0.70876 0.0
H1578 H 0.87745 0.22542 0.77414 0.0
H1579 H 0.87729 0.23994 0.7453 0.0
H1580 H 0.98776 0.29736 0.78578 0.0
H1581 H 0.98837 0.30713 0.75288 0.0
H1582 H 0.97356 0.26685 0.80551 0.0
H1583 H 0.9482 0.24698 0.81993 0.0
C1584 C 0.7408 0.67787 0.74082 0.0
C1585 C 0.71787 0.66265 0.74684 0.0
C1586 C 0.7282 0.6544 0.79163 0.0
C1587 C 0.75098 0.66976 0.78562 0.0
N1588 N 0.77879 0.69984 0.75798 0.0
N1589 N 0.68943 0.63957 0.77983 0.0
C1590 C 0.75717 0.68279 0.76138 0.0
C1591 C 0.7115 0.65193 0.7729 0.0
N1592 N 0.74717 0.68631 0.71483 0.0
N1593 N 0.72262 0.64157 0.8148 0.0
H1594 H 0.67676 0.63684 0.76634 0.0
H1595 H 0.68365 0.63341 0.79951 0.0
H1596 H 0.7343 0.64371 0.82961 0.0
H1597 H 0.70667 0.62804 0.81875 0.0
H1598 H 0.76371 0.69512 0.70827 0.0
H1599 H 0.73598 0.68298 0.69887 0.0
H1600 H 0.78396 0.71156 0.74225 0.0
H1601 H 0.79126 0.70355 0.77238 0.0
C1602 C 0.73543 0.65526 0.62563 0.0
C1603 C 0.71806 0.65955 0.62026 0.0
C1604 C 0.73421 0.6741 0.57458 0.0
C1605 C 0.75017 0.66766 0.57901 0.0
N1606 N 0.76393 0.64884 0.60679 0.0
N1607 N 0.69914 0.67059 0.58867 0.0
C1608 C 0.75019 0.65731 0.604 0.0
C1609 C 0.71701 0.66842 0.59449 0.0
N1610 N 0.73845 0.65018 0.65179 0.0
N1611 N 0.7358 0.68603 0.55163 0.0
H1612 H 0.68627 0.6666 0.60273 0.0
H1613 H 0.69617 0.67474 0.56929 0.0
H1614 H 0.74792 0.69003 0.53642 0.0
H1615 H 0.72624 0.69337 0.54859 0.0
H1616 H 0.75233 0.64944 0.65766 0.0
H1617 H 0.72824 0.64883 0.66841 0.0
H1618 H 0.76283 0.63881 0.62319 0.0
H1619 H 0.77519 0.65017 0.59156 0.0
C1620 C 0.34495 0.05996 0.58739 0.0
C1621 C 0.3336 0.05882 0.61242 0.0
C1622 C 0.32905 0.08996 0.59765 0.0
C1623 C 0.34039 0.09117 0.57267 0.0
N1624 N 0.36236 0.08034 0.54522 0.0
N1625 N 0.32061 0.07668 0.64462 0.0
C1626 C 0.34937 0.07709 0.56801 0.0
C1627 C 0.32735 0.07501 0.61848 0.0
N1628 N 0.35083 0.04427 0.58173 0.0
N1629 N 0.31932 0.10266 0.60117 0.0
H1630 H 0.31959 0.06636 0.66067 0.0
H1631 H 0.3182 0.0897 0.65122 0.0
H1632 H 0.3208 0.11445 0.5869 0.0
H1633 H 0.30843 0.1004 0.61731 0.0
H1634 H 0.35646 0.04223 0.56253 0.0
H1635 H 0.34929 0.03253 0.59606 0.0
H1636 H 0.37136 0.07234 0.54183 0.0
H1637 H 0.36538 0.09232 0.53036 0.0
C1638 C 0.94333 0.29553 0.58766 0.0
C1639 C 0.94359 0.28641 0.61354 0.0
C1640 C 0.91949 0.24804 0.59488 0.0
C1641 C 0.91676 0.2573 0.57041 0.0
N1642 N 0.92536 0.28951 0.54305 0.0
N1643 N 0.93116 0.25426 0.64285 0.0
C1644 C 0.92866 0.28097 0.56655 0.0
C1645 C 0.93174 0.26271 0.61734 0.0
N1646 N 0.95749 0.31805 0.58321 0.0
N1647 N 0.91035 0.22521 0.59658 0.0
H1648 H 0.94023 0.26435 0.65971 0.0
H1649 H 0.92059 0.23741 0.64793 0.0
H1650 H 0.9008 0.21393 0.58079 0.0
H1651 H 0.91368 0.21755 0.61258 0.0
H1652 H 0.95972 0.32551 0.56407 0.0
H1653 H 0.96852 0.32905 0.59828 0.0
H1654 H 0.9314 0.30659 0.54027 0.0
H1655 H 0.91551 0.27928 0.52667 0.0
C1656 C 0.33709 0.26126 0.62863 0.0
C1657 C 0.34302 0.28375 0.62315 0.0
C1658 C 0.34302 0.27657 0.57326 0.0
C1659 C 0.33927 0.25483 0.57892 0.0
N1660 N 0.33303 0.22611 0.61133 0.0
N1661 N 0.35231 0.31356 0.59116 0.0
C1662 C 0.33618 0.24699 0.60645 0.0
C1663 C 0.34599 0.29157 0.59566 0.0
N1664 N 0.33219 0.25357 0.6551 0.0
N1665 N 0.34358 0.28271 0.54644 0.0
H1666 H 0.35383 0.32471 0.60706 0.0
H1667 H 0.35709 0.3212 0.57202 0.0
H1668 H 0.34208 0.27232 0.52962 0.0
H1669 H 0.34409 0.29737 0.54067 0.0
H1670 H 0.32535 0.23675 0.66035 0.0
H1671 H 0.33372 0.26388 0.67199 0.0
H1672 H 0.33342 0.22034 0.63087 0.0
H1673 H 0.33096 0.21465 0.59558 0.0
C1674 C 0.72369 0.07626 0.60755 0.0
C1675 C 0.7213 0.0546 0.60441 0.0
C1676 C 0.73067 0.06231 0.55522 0.0
C1677 C 0.73832 0.08538 0.56064 0.0
N1678 N 0.72224 0.10521 0.5826 0.0
N1679 N 0.72019 0.02589 0.57359 0.0
C1680 C 0.72916 0.09011 0.58417 0.0
C1681 C 0.72392 0.04717 0.57767 0.0
N1682 N 0.72186 0.08431 0.63284 0.0
N1683 N 0.72684 0.05444 0.52856 0.0
H1684 H 0.7138 0.01368 0.5888 0.0
H1685 H 0.72445 0.02074 0.55535 0.0
H1686 H 0.72872 0.06496 0.51228 0.0
H1687 H 0.71922 0.03739 0.52307 0.0
H1688 H 0.7255 0.10086 0.63587 0.0
H1689 H 0.71876 0.07538 0.65102 0.0
H1690 H 0.71362 0.1078 0.59857 0.0
H1691 H 0.72227 0.1124 0.56383 0.0
C1692 C 0.92995 0.67733 0.62552 0.0
C1693 C 0.94803 0.67481 0.61693 0.0
C1694 C 0.93538 0.66964 0.56891 0.0
C1695 C 0.91715 0.67191 0.57753 0.0
N1696 N 0.89338 0.67088 0.61467 0.0
N1697 N 0.96351 0.66116 0.58246 0.0
C1698 C 0.91327 0.67354 0.60609 0.0
C1699 C 0.94929 0.6685 0.58924 0.0
N1700 N 0.92895 0.68381 0.65213 0.0
N1701 N 0.94011 0.6697 0.54143 0.0
H1702 H 0.97288 0.65897 0.59729 0.0
H1703 H 0.96396 0.65472 0.56297 0.0
H1704 H 0.93056 0.67086 0.5259 0.0
H1705 H 0.95456 0.6705 0.53413 0.0
H1706 H 0.91773 0.6886 0.6587 0.0
H1707 H 0.9402 0.68566 0.66739 0.0
H1708 H 0.88872 0.66972 0.63536 0.0
H1709 H 0.88054 0.6675 0.60102 0.0
C1710 C 0.92992 0.66406 0.73619 0.0
C1711 C 0.95316 0.67727 0.74175 0.0
C1712 C 0.94537 0.68326 0.78978 0.0
C1713 C 0.92241 0.67259 0.78311 0.0
N1714 N 0.89251 0.65397 0.74999 0.0
N1715 N 0.98347 0.69944 0.77335 0.0
C1716 C 0.91456 0.66306 0.7564 0.0
C1717 C 0.96102 0.68678 0.7685 0.0
N1718 N 0.92248 0.65251 0.71158 0.0
N1719 N 0.95205 0.68968 0.81655 0.0
H1720 H 0.99531 0.70105 0.75882 0.0
H1721 H 0.99048 0.70908 0.79124 0.0
H1722 H 0.94095 0.68748 0.83247 0.0
H1723 H 0.96819 0.69564 0.82352 0.0
H1724 H 0.90583 0.64057 0.70757 0.0
H1725 H 0.93304 0.65349 0.69563 0.0
H1726 H 0.88619 0.64947 0.73001 0.0
H1727 H 0.88057 0.65222 0.76443 0.0
C1728 C 0.34393 0.29007 0.781 0.0
C1729 C 0.33367 0.28271 0.75452 0.0
C1730 C 0.30806 0.24554 0.77391 0.0
C1731 C 0.32253 0.25102 0.79673 0.0
N1732 N 0.34076 0.28148 0.82972 0.0
N1733 N 0.30498 0.25243 0.72612 0.0
C1734 C 0.33668 0.27432 0.80279 0.0
C1735 C 0.31522 0.26026 0.75113 0.0
N1736 N 0.36079 0.31185 0.78538 0.0
N1737 N 0.28628 0.22878 0.77599 0.0
H1738 H 0.30961 0.26223 0.7085 0.0
H1739 H 0.29295 0.23548 0.72257 0.0
H1740 H 0.27953 0.22112 0.79486 0.0
H1741 H 0.27451 0.22535 0.7607 0.0
H1742 H 0.37047 0.31721 0.80326 0.0
H1743 H 0.36591 0.32433 0.77065 0.0
H1744 H 0.34919 0.29843 0.83587 0.0
H1745 H 0.33307 0.27015 0.84579 0.0
C1746 C 0.72677 0.04545 0.76435 0.0
C1747 C 0.73025 0.05454 0.73752 0.0
C1748 C 0.75826 0.09184 0.75576 0.0
C1749 C 0.75716 0.08199 0.78159 0.0
N1750 N 0.74105 0.0496 0.81096 0.0
N1751 N 0.74984 0.08585 0.70677 0.0
C1752 C 0.74139 0.05887 0.78616 0.0
C1753 C 0.74594 0.07769 0.73301 0.0
N1754 N 0.70937 0.02405 0.76889 0.0
N1755 N 0.77105 0.11475 0.75312 0.0
H1756 H 0.74087 0.07605 0.68967 0.0
H1757 H 0.76287 0.10184 0.70158 0.0
H1758 H 0.78045 0.12556 0.76936 0.0
H1759 H 0.7709 0.12324 0.7357 0.0
H1760 H 0.70453 0.0171 0.78842 0.0
H1761 H 0.69851 0.01383 0.7532 0.0
H1762 H 0.73181 0.03235 0.81464 0.0
H1763 H 0.75105 0.05913 0.82763 0.0
C1764 C 0.05287 0.32741 0.05189 0.0
C1765 C 0.05462 0.34831 0.04591 0.0
C1766 C 0.09149 0.36814 0.0678 0.0
C1767 C 0.08796 0.34735 0.07766 0.0
N1768 N 0.06214 0.30749 0.08436 0.0
N1769 N 0.07373 0.38867 0.05498 0.0
C1770 C 0.06772 0.32703 0.07126 0.0
C1771 C 0.07344 0.36877 0.05567 0.0
N1772 N 0.03776 0.30801 0.03826 0.0
N1773 N 0.11217 0.3872 0.06917 0.0
H1774 H 0.06025 0.38983 0.04838 0.0
H1775 H 0.08634 0.40354 0.06415 0.0
H1776 H 0.1261 0.38728 0.07675 0.0
H1777 H 0.11589 0.40225 0.05997 0.0
H1778 H 0.03725 0.29278 0.04045 0.0
H1779 H 0.02772 0.30769 0.0223 0.0
H1780 H 0.0466 0.29278 0.08206 0.0
H1781 H 0.07196 0.30666 0.09978 0.0
C1782 C 0.66403 0.70949 0.07853 0.0
C1783 C 0.66962 0.71065 0.05006 0.0
C1784 C 0.67726 0.7495 0.04873 0.0
C1785 C 0.67253 0.74859 0.07741 0.0
N1786 N 0.66466 0.72935 0.12078 0.0
N1787 N 0.68586 0.73296 0.0094 0.0
C1788 C 0.66699 0.72909 0.09269 0.0
C1789 C 0.67741 0.731 0.0355 0.0
N1790 N 0.6548 0.68934 0.09168 0.0
N1791 N 0.68128 0.76792 0.03406 0.0
H1792 H 0.68666 0.71995 0.99922 0.0
H1793 H 0.69394 0.74805 0.99872 0.0
H1794 H 0.6824 0.78225 0.04326 0.0
H1795 H 0.68212 0.76851 0.01258 0.0
H1796 H 0.64782 0.68657 0.11136 0.0
H1797 H 0.65264 0.6748 0.08202 0.0
H1798 H 0.66329 0.71676 0.13352 0.0
H1799 H 0.6656 0.74297 0.13177 0.0
C1800 C 0.2959 0.95491 0.07447 0.0
C1801 C 0.2935 0.95758 0.04591 0.0
C1802 C 0.25492 0.92546 0.04693 0.0
C1803 C 0.25694 0.92361 0.07577 0.0
N1804 N 0.27814 0.93785 0.11794 0.0
N1805 N 0.26975 0.94832 0.00606 0.0
C1806 C 0.27708 0.93877 0.08982 0.0
C1807 C 0.27276 0.94356 0.03238 0.0
N1808 N 0.31642 0.96708 0.08667 0.0
N1809 N 0.23596 0.90977 0.03339 0.0
H1810 H 0.28222 0.96171 0.99489 0.0
H1811 H 0.25438 0.94037 0.99607 0.0
H1812 H 0.22204 0.89702 0.04351 0.0
H1813 H 0.23449 0.90845 0.01196 0.0
H1814 H 0.31996 0.96397 0.10634 0.0
H1815 H 0.33052 0.97936 0.07643 0.0
H1816 H 0.29124 0.95013 0.12988 0.0
H1817 H 0.2652 0.92549 0.12976 0.0
C1818 C 0.3417 0.0642 0.98867 0.0
C1819 C 0.34828 0.05046 0.97429 0.0
C1820 C 0.35512 0.07255 0.93231 0.0
C1821 C 0.34647 0.08481 0.94591 0.0
N1822 N 0.32977 0.09147 0.98599 0.0
N1823 N 0.36054 0.04059 0.93245 0.0
C1824 C 0.33944 0.08053 0.97391 0.0
C1825 C 0.35483 0.05441 0.9461 0.0
N1826 N 0.33766 0.06163 0.01646 0.0
N1827 N 0.3641 0.07869 0.90644 0.0
H1828 H 0.36216 0.02828 0.94238 0.0
H1829 H 0.36276 0.04055 0.91116 0.0
H1830 H 0.36431 0.09168 0.89561 0.0
H1831 H 0.37278 0.07211 0.89636 0.0
H1832 H 0.33517 0.07263 0.02884 0.0
H1833 H 0.33833 0.0493 0.02772 0.0
H1834 H 0.32196 0.08739 0.00519 0.0
H1835 H 0.32821 0.1038 0.976 0.0
C1836 C 0.95545 0.27513 0.98528 0.0
C1837 C 0.96598 0.29579 0.9708 0.0
C1838 C 0.94267 0.27659 0.9301 0.0
C1839 C 0.93299 0.25579 0.94408 0.0
N1840 N 0.9319 0.23423 0.98311 0.0
N1841 N 0.97204 0.31594 0.92848 0.0
C1842 C 0.93984 0.25477 0.97121 0.0
C1843 C 0.96034 0.29641 0.94287 0.0
N1844 N 0.96034 0.27499 0.01254 0.0
N1845 N 0.93442 0.2775 0.90497 0.0
H1846 H 0.98435 0.33095 0.93755 0.0
H1847 H 0.97066 0.31699 0.90725 0.0
H1848 H 0.92177 0.26327 0.8947 0.0
H1849 H 0.93889 0.29247 0.89507 0.0
H1850 H 0.95135 0.26117 0.02524 0.0
H1851 H 0.97278 0.28916 0.02308 0.0
H1852 H 0.93794 0.23195 0.00154 0.0
H1853 H 0.92024 0.21903 0.97352 0.0
C1854 C 0.70782 0.66062 0.94348 0.0
C1855 C 0.70741 0.65951 0.97277 0.0
C1856 C 0.74066 0.65624 0.97147 0.0
C1857 C 0.74265 0.66029 0.94266 0.0
N1858 N 0.73026 0.67028 0.90192 0.0
N1859 N 0.7258 0.66038 0.01512 0.0
C1860 C 0.72681 0.66358 0.92881 0.0
C1861 C 0.72443 0.65835 0.98695 0.0
N1862 N 0.68967 0.65786 0.92951 0.0
N1863 N 0.75388 0.6498 0.98394 0.0
H1864 H 0.71468 0.66266 0.02725 0.0
H1865 H 0.73923 0.66204 0.02626 0.0
H1866 H 0.76578 0.64779 0.97322 0.0
H1867 H 0.75157 0.64436 0.00428 0.0
H1868 H 0.68822 0.65622 0.90807 0.0
H1869 H 0.67505 0.65479 0.93933 0.0
H1870 H 0.72049 0.67525 0.89177 0.0
H1871 H 0.74409 0.67288 0.89048 0.0
C1872 C 0.94706 0.64957 0.94719 0.0
C1873 C 0.94996 0.65542 0.97576 0.0
C1874 C 0.91948 0.6632 0.97425 0.0
C1875 C 0.91776 0.65904 0.94526 0.0
N1876 N 0.93103 0.65041 0.90332 0.0
N1877 N 0.94125 0.67057 0.01603 0.0
C1878 C 0.93191 0.65286 0.93148 0.0
C1879 C 0.93669 0.66284 0.98924 0.0
N1880 N 0.95816 0.64001 0.93536 0.0
N1881 N 0.90454 0.66733 0.98749 0.0
H1882 H 0.95361 0.67047 0.02774 0.0
H1883 H 0.934 0.67865 0.02612 0.0
H1884 H 0.89244 0.66889 0.97709 0.0
H1885 H 0.90312 0.66779 0.00889 0.0
H1886 H 0.95517 0.63319 0.9154 0.0
H1887 H 0.9692 0.63716 0.94631 0.0
H1888 H 0.94261 0.64859 0.89166 0.0
H1889 H 0.91945 0.65161 0.89123 0.0
C1890 C 0.33035 0.27371 0.9913 0.0
C1891 C 0.33615 0.2938 0.97716 0.0
C1892 C 0.33956 0.27687 0.93365 0.0
C1893 C 0.33562 0.25759 0.94832 0.0
N1894 N 0.32944 0.23816 0.99125 0.0
N1895 N 0.34829 0.31567 0.93555 0.0
C1896 C 0.33167 0.25618 0.97722 0.0
C1897 C 0.34112 0.29565 0.94844 0.0
N1898 N 0.32249 0.27094 0.01782 0.0
N1899 N 0.34166 0.27713 0.9055 0.0
H1900 H 0.34923 0.32968 0.94536 0.0
H1901 H 0.35481 0.31909 0.91562 0.0
H1902 H 0.34195 0.26431 0.8941 0.0
H1903 H 0.34179 0.28934 0.89317 0.0
H1904 H 0.31573 0.25582 0.02833 0.0
H1905 H 0.32075 0.28317 0.02863 0.0
H1906 H 0.32929 0.23741 0.01271 0.0
H1907 H 0.32921 0.22444 0.98148 0.0
C1908 C 0.71388 0.06525 0.96236 0.0
C1909 C 0.71148 0.04651 0.97688 0.0
C1910 C 0.74986 0.05776 0.96323 0.0
C1911 C 0.75049 0.07422 0.94555 0.0
N1912 N 0.73046 0.08925 0.92304 0.0
N1913 N 0.72741 0.02439 0.99058 0.0
C1914 C 0.7316 0.07647 0.94338 0.0
C1915 C 0.7295 0.04247 0.97692 0.0
N1916 N 0.70031 0.0735 0.96797 0.0
N1917 N 0.7689 0.05746 0.96805 0.0
H1918 H 0.71396 0.01438 0.00347 0.0
H1919 H 0.73866 0.01886 0.98837 0.0
H1920 H 0.7841 0.06851 0.95867 0.0
H1921 H 0.7701 0.04751 0.98298 0.0
H1922 H 0.70226 0.08797 0.95895 0.0
H1923 H 0.69005 0.06843 0.98513 0.0
H1924 H 0.71608 0.08973 0.91919 0.0
H1925 H 0.74292 0.09731 0.90818 0.0
C1926 C 0.64312 0.94355 0.06599 0.0
C1927 C 0.65758 0.95414 0.04326 0.0
C1928 C 0.67335 0.92988 0.04838 0.0
C1929 C 0.66059 0.92099 0.07282 0.0
N1930 N 0.63516 0.92089 0.10692 0.0
N1931 N 0.68757 0.95892 0.01363 0.0
C1932 C 0.64583 0.92812 0.08209 0.0
C1933 C 0.673 0.94771 0.03466 0.0
N1934 N 0.62679 0.94822 0.07216 0.0
N1935 N 0.68532 0.92081 0.0379 0.0
H1936 H 0.68691 0.97111 0.00203 0.0
H1937 H 0.70104 0.95708 0.00857 0.0
H1938 H 0.68604 0.90782 0.04748 0.0
H1939 H 0.69312 0.92482 0.01868 0.0
H1940 H 0.6142 0.93934 0.08653 0.0
H1941 H 0.62472 0.95991 0.06137 0.0
H1942 H 0.62621 0.9274 0.11644 0.0
H1943 H 0.6366 0.90948 0.11919 0.0
C1944 C 0.05583 0.72424 0.03711 0.0
C1945 C 0.03894 0.70594 0.05233 0.0
C1946 C 0.05659 0.72599 0.09585 0.0
C1947 C 0.07464 0.74305 0.0805 0.0
N1948 N 0.09274 0.75779 0.03679 0.0
N1949 N 0.02364 0.68843 0.09618 0.0
C1950 C 0.07466 0.74193 0.0512 0.0
C1951 C 0.03927 0.70664 0.08174 0.0
N1952 N 0.0532 0.72543 0.00934 0.0
N1953 N 0.05607 0.72834 0.12395 0.0
H1954 H 0.01089 0.67379 0.08681 0.0
H1955 H 0.02419 0.68684 0.11744 0.0
H1956 H 0.06911 0.74145 0.13518 0.0
H1957 H 0.04225 0.71813 0.13615 0.0
H1958 H 0.06372 0.73946 0.99759 0.0
H1959 H 0.03917 0.7134 0.9984 0.0
H1960 H 0.09504 0.75629 0.01573 0.0
H1961 H 0.10629 0.77182 0.04616 0.0
C1962 C 0.29893 0.34894 0.0808 0.0
C1963 C 0.29847 0.3483 0.05144 0.0
C1964 C 0.26503 0.35127 0.05247 0.0
C1965 C 0.26387 0.34885 0.0816 0.0
N1966 N 0.27767 0.34147 0.12313 0.0
N1967 N 0.27888 0.345 0.00919 0.0
C1968 C 0.28027 0.34661 0.0957 0.0
C1969 C 0.28097 0.34853 0.03718 0.0
N1970 N 0.31756 0.35273 0.09452 0.0
N1971 N 0.25128 0.35677 0.03947 0.0
H1972 H 0.28981 0.34231 0.99725 0.0
H1973 H 0.26508 0.34258 0.99819 0.0
H1974 H 0.23956 0.35917 0.05001 0.0
H1975 H 0.25295 0.36104 0.01871 0.0
H1976 H 0.31963 0.35561 0.11579 0.0
H1977 H 0.33196 0.35544 0.08442 0.0
H1978 H 0.28789 0.33729 0.13371 0.0
H1979 H 0.26409 0.3393 0.13478 0.0
C1980 C 0.71955 0.68327 0.40886 0.0
C1981 C 0.72145 0.68451 0.3796 0.0
C1982 C 0.75737 0.68644 0.38245 0.0
C1983 C 0.75405 0.68238 0.41124 0.0
N1984 N 0.73 0.67294 0.45111 0.0
N1985 N 0.74031 0.68337 0.33806 0.0
C1986 C 0.73457 0.67968 0.42426 0.0
C1987 C 0.73991 0.68513 0.36622 0.0
N1988 N 0.70404 0.68652 0.4221 0.0
N1989 N 0.77744 0.69217 0.37074 0.0
H1990 H 0.72763 0.68184 0.3254 0.0
H1991 H 0.75216 0.68127 0.3274 0.0
H1992 H 0.7907 0.69347 0.38198 0.0
H1993 H 0.78163 0.69764 0.35048 0.0
H1994 H 0.70344 0.68809 0.44351 0.0
H1995 H 0.69324 0.69006 0.41173 0.0
H1996 H 0.71488 0.66836 0.46069 0.0
H1997 H 0.74045 0.66989 0.46307 0.0
C1998 C 0.32756 0.04184 0.41258 0.0
C1999 C 0.33257 0.04253 0.38397 0.0
C2000 C 0.33962 0.08113 0.38188 0.0
C2001 C 0.3358 0.0808 0.41077 0.0
N2002 N 0.32904 0.06235 0.45458 0.0
N2003 N 0.3473 0.06399 0.34238 0.0
C2004 C 0.33072 0.06161 0.42642 0.0
C2005 C 0.33962 0.06249 0.36884 0.0
N2006 N 0.31871 0.02195 0.42624 0.0
N2007 N 0.343 0.09918 0.36689 0.0
H2008 H 0.34792 0.05085 0.33227 0.0
H2009 H 0.3549 0.07885 0.33123 0.0
H2010 H 0.34418 0.1136 0.37591 0.0
H2011 H 0.34319 0.09933 0.34538 0.0
H2012 H 0.31217 0.01949 0.44615 0.0
H2013 H 0.31627 0.00724 0.41677 0.0
H2014 H 0.32815 0.05006 0.46748 0.0
H2015 H 0.33001 0.07604 0.46542 0.0
C2016 C 0.94236 0.2928 0.37536 0.0
C2017 C 0.96332 0.29835 0.38652 0.0
C2018 C 0.94426 0.27218 0.42458 0.0
C2019 C 0.92346 0.26496 0.41186 0.0
N2020 N 0.90228 0.26658 0.37408 0.0
N2021 N 0.98432 0.29151 0.41986 0.0
C2022 C 0.92236 0.27485 0.38699 0.0
C2023 C 0.96427 0.28756 0.41066 0.0
N2024 N 0.94158 0.30489 0.35386 0.0
N2025 N 0.94487 0.26469 0.45032 0.0
H2026 H 0.99918 0.30311 0.41057 0.0
H2027 H 0.98614 0.28227 0.43523 0.0
H2028 H 0.93058 0.25315 0.46103 0.0
H2029 H 0.95934 0.27126 0.46209 0.0
H2030 H 0.92691 0.30339 0.34667 0.0
H2031 H 0.95585 0.3177 0.34436 0.0
H2032 H 0.90054 0.27119 0.35436 0.0
H2033 H 0.8873 0.25386 0.38238 0.0
C2034 C 0.02162 0.39001 0.28084 0.0
C2035 C 0.0123 0.38418 0.30775 0.0
C2036 C 0.99847 0.41028 0.30433 0.0
C2037 C 0.00863 0.41685 0.27792 0.0
N2038 N 0.03164 0.41503 0.24178 0.0
N2039 N 0.99435 0.39037 0.34682 0.0
C2040 C 0.02069 0.40725 0.26635 0.0
C2041 C 1.00143 0.3948 0.31999 0.0
N2042 N 0.03116 0.37884 0.26911 0.0
N2043 N 0.98552 0.41846 0.31409 0.0
H2044 H 0.9956 0.37863 0.35862 0.0
H2045 H 0.98857 0.39931 0.35812 0.0
H2046 H 0.98353 0.43033 0.3036 0.0
H2047 H 0.97557 0.41252 0.33165 0.0
H2048 H 0.036 0.38018 0.24851 0.0
H2049 H 0.03336 0.36721 0.27984 0.0
H2050 H 0.04264 0.4106 0.23341 0.0
H2051 H 0.03075 0.42712 0.23024 0.0
C2052 C 0.62246 0.61264 0.31558 0.0
C2053 C 0.6339 0.63335 0.30123 0.0
C2054 C 0.61 0.61532 0.26064 0.0
C2055 C 0.59912 0.59449 0.27466 0.0
N2056 N 0.5968 0.57205 0.31334 0.0
N2057 N 0.64108 0.65392 0.25906 0.0
C2058 C 0.60586 0.59279 0.30157 0.0
C2059 C 0.62848 0.6345 0.27337 0.0
N2060 N 0.6274 0.61199 0.34269 0.0
N2061 N 0.60212 0.6169 0.23556 0.0
H2062 H 0.65412 0.66848 0.2681 0.0
H2063 H 0.63972 0.65525 0.23789 0.0
H2064 H 0.58893 0.60312 0.22533 0.0
H2065 H 0.60756 0.63208 0.22561 0.0
H2066 H 0.61784 0.59831 0.35539 0.0
H2067 H 0.6406 0.62562 0.35309 0.0
H2068 H 0.60259 0.56914 0.33155 0.0
H2069 H 0.58438 0.55722 0.30381 0.0
C2070 C 0.38967 0.0117 0.29683 0.0
C2071 C 0.37377 0.99217 0.31143 0.0
C2072 C 0.39691 0.9758 0.30129 0.0
C2073 C 0.40947 0.9928 0.2817 0.0
N2074 N 0.41208 0.02363 0.25556 0.0
N2075 N 0.3598 0.95223 0.31868 0.0
C2076 C 0.40419 0.00982 0.2778 0.0
C2077 C 0.37661 0.97317 0.31129 0.0
N2078 N 0.39202 0.03232 0.30185 0.0
N2079 N 0.40438 0.96246 0.3109 0.0
H2080 H 0.34344 0.94819 0.32192 0.0
H2081 H 0.36142 0.93806 0.31721 0.0
H2082 H 0.42 0.96497 0.30572 0.0
H2083 H 0.39616 0.95087 0.32657 0.0
H2084 H 0.40435 0.0469 0.29229 0.0
H2085 H 0.38432 0.03555 0.31835 0.0
H2086 H 0.40718 0.0352 0.25141 0.0
H2087 H 0.42108 0.02159 0.23963 0.0
C2088 C 0.60958 0.97783 0.28161 0.0
C2089 C 0.61364 0.98594 0.30938 0.0
C2090 C 0.58282 0.99314 0.30715 0.0
C2091 C 0.57998 0.98679 0.27872 0.0
N2092 N 0.59168 0.97514 0.23782 0.0
N2093 N 0.60617 0.00364 0.34801 0.0
C2094 C 0.59366 0.97969 0.26564 0.0
C2095 C 0.60071 0.9941 0.32208 0.0
N2096 N 0.62048 0.96769 0.27084 0.0
N2097 N 0.56822 0.99801 0.31992 0.0
H2098 H 0.6189 0.00427 0.35975 0.0
H2099 H 0.5992 0.01231 0.35726 0.0
H2100 H 0.55547 0.99837 0.30943 0.0
H2101 H 0.56773 1.00025 0.34119 0.0
H2102 H 0.61675 0.95935 0.25174 0.0
H2103 H 0.63216 0.96599 0.28202 0.0
H2104 H 0.60281 0.97245 0.22637 0.0
H2105 H 0.57965 0.97546 0.22565 0.0
C2106 C 0.99512 0.60835 0.32245 0.0
C2107 C 0.99844 0.62729 0.30727 0.0
C2108 C 1.00091 0.6093 0.26419 0.0
C2109 C 0.99731 0.59035 0.27924 0.0
N2110 N 0.98679 0.56958 0.32152 0.0
N2111 N 0.99803 0.64258 0.26285 0.0
C2112 C 0.99327 0.58925 0.30809 0.0
C2113 C 0.99922 0.62674 0.2779 0.0
N2114 N 0.99332 0.60844 0.35062 0.0
N2115 N 0.00705 0.61121 0.23699 0.0
H2116 H 0.99797 0.65644 0.27152 0.0
H2117 H 0.99559 0.64117 0.24154 0.0
H2118 H 0.00853 0.59884 0.22613 0.0
H2119 H 0.01262 0.6259 0.22584 0.0
H2120 H 0.99429 0.59697 0.36322 0.0
H2121 H 0.99125 0.62035 0.36167 0.0
H2122 H 0.98125 0.56666 0.3419 0.0
H2123 H 0.98528 0.5553 0.31163 0.0
C2124 C 0.39838 0.39095 0.32221 0.0
C2125 C 0.37852 0.37633 0.30716 0.0
C2126 C 0.39631 0.39643 0.26445 0.0
C2127 C 0.41627 0.41058 0.27934 0.0
N2128 N 0.43798 0.41902 0.32088 0.0
N2129 N 0.36008 0.36212 0.26305 0.0
C2130 C 0.41776 0.40723 0.30785 0.0
C2131 C 0.37799 0.37804 0.27798 0.0
N2132 N 0.39881 0.3891 0.35025 0.0
N2133 N 0.39448 0.40123 0.23766 0.0
H2134 H 0.34551 0.34934 0.27195 0.0
H2135 H 0.36008 0.36081 0.24158 0.0
H2136 H 0.40751 0.41449 0.22695 0.0
H2137 H 0.37954 0.39329 0.22671 0.0
H2138 H 0.41148 0.40113 0.36291 0.0
H2139 H 0.38606 0.37582 0.36124 0.0
H2140 H 0.44088 0.41575 0.3408 0.0
H2141 H 0.45251 0.43105 0.31099 0.0
C2142 C 0.3142 0.28228 0.4084 0.0
C2143 C 0.32181 0.28654 0.38063 0.0
C2144 C 0.33241 0.25786 0.38278 0.0
C2145 C 0.32451 0.25336 0.41042 0.0
N2146 N 0.30499 0.25845 0.44852 0.0
N2147 N 0.33474 0.27634 0.33968 0.0
C2148 C 0.31452 0.26476 0.42294 0.0
C2149 C 0.32979 0.27361 0.36726 0.0
N2150 N 0.30691 0.29525 0.4209 0.0
N2151 N 0.34318 0.24766 0.37176 0.0
H2152 H 0.33369 0.28821 0.32789 0.0
H2153 H 0.33836 0.26586 0.3279 0.0
H2154 H 0.34493 0.23563 0.38224 0.0
H2155 H 0.35165 0.25204 0.35299 0.0
H2156 H 0.30367 0.2951 0.44195 0.0
H2157 H 0.30487 0.30699 0.4102 0.0
H2158 H 0.29549 0.2644 0.45786 0.0
H2159 H 0.30531 0.24599 0.45992 0.0
C2160 C 0.70609 0.04308 0.4125 0.0
C2161 C 0.70337 0.0427 0.38341 0.0
C2162 C 0.7345 0.08206 0.38127 0.0
C2163 C 0.73875 0.08138 0.40969 0.0
N2164 N 0.7308 0.06047 0.45173 0.0
N2165 N 0.71491 0.06161 0.33964 0.0
C2166 C 0.72506 0.06173 0.4252 0.0
C2167 C 0.71763 0.06213 0.36764 0.0
N2168 N 0.69055 0.02573 0.42813 0.0
N2169 N 0.74604 0.10203 0.3676 0.0
H2170 H 0.70136 0.04843 0.32918 0.0
H2171 H 0.72652 0.07388 0.32651 0.0
H2172 H 0.75854 0.11691 0.37693 0.0
H2173 H 0.7422 0.10441 0.34773 0.0
H2174 H 0.69019 0.02646 0.44963 0.0
H2175 H 0.67712 0.01106 0.41977 0.0
H2176 H 0.72312 0.04564 0.46296 0.0
H2177 H 0.74455 0.07376 0.46182 0.0
C2178 C 0.96275 0.67944 0.41431 0.0
C2179 C 0.96291 0.67996 0.38497 0.0
C2180 C 0.92883 0.68182 0.38596 0.0
C2181 C 0.92731 0.67864 0.41496 0.0
N2182 N 0.94072 0.67047 0.45621 0.0
N2183 N 0.94381 0.67737 0.34256 0.0
C2184 C 0.94369 0.67633 0.42901 0.0
C2185 C 0.94536 0.68006 0.37067 0.0
N2186 N 0.98119 0.68292 0.42823 0.0
N2187 N 0.91491 0.68717 0.37311 0.0
H2188 H 0.95519 0.6754 0.33057 0.0
H2189 H 0.93006 0.67489 0.33138 0.0
H2190 H 0.90269 0.68878 0.38361 0.0
H2191 H 0.91684 0.69205 0.35257 0.0
H2192 H 0.98284 0.68503 0.44962 0.0
H2193 H 0.99579 0.68603 0.41832 0.0
H2194 H 0.95091 0.66621 0.46671 0.0
H2195 H 0.92688 0.66783 0.46766 0.0
C2196 C 0.38705 0.01411 0.739 0.0
C2197 C 0.38841 0.01557 0.70973 0.0
C2198 C 0.42409 0.01685 0.71096 0.0
C2199 C 0.42122 0.0125 0.73971 0.0
N2200 N 0.39787 0.00298 0.78028 0.0
N2201 N 0.40636 0.01447 0.66731 0.0
C2202 C 0.4021 0.01001 0.75353 0.0
C2203 C 0.40648 0.016 0.69551 0.0
N2204 N 0.37201 0.0176 0.75309 0.0
N2205 N 0.44387 0.02239 0.69853 0.0
H2206 H 0.39356 0.01328 0.6552 0.0
H2207 H 0.41788 0.01225 0.65603 0.0
H2208 H 0.45721 0.02336 0.70919 0.0
H2209 H 0.44777 0.02805 0.67831 0.0
H2210 H 0.37184 0.019 0.77456 0.0
H2211 H 0.36125 0.02153 0.74338 0.0
H2212 H 0.38298 0.99857 0.79039 0.0
H2213 H 0.4083 0.99948 0.7916 0.0
C2214 C 0.01001 0.39504 0.70195 0.0
C2215 C 0.00205 0.37454 0.71632 0.0
C2216 C 0.99601 0.39158 0.75803 0.0
C2217 C 0.0047 0.41224 0.74396 0.0
N2218 N 0.02294 0.43511 0.70435 0.0
N2219 N 0.99054 0.35404 0.75889 0.0
C2220 C 0.01252 0.41438 0.71639 0.0
C2221 C 0.99607 0.37308 0.74467 0.0
N2222 N 0.01509 0.39596 0.67444 0.0
N2223 N 0.987 0.38944 0.78384 0.0
H2224 H 0.98946 0.33988 0.74948 0.0
H2225 H 0.98851 0.35273 0.78023 0.0
H2226 H 0.98713 0.40276 0.79457 0.0
H2227 H 0.97802 0.37417 0.79401 0.0
H2228 H 0.0182 0.40931 0.66187 0.0
H2229 H 0.01526 0.38284 0.66364 0.0
H2230 H 0.03122 0.43851 0.68548 0.0
H2231 H 0.02471 0.44952 0.71418 0.0
C2232 C 0.60818 0.61447 0.70285 0.0
C2233 C 0.6275 0.62995 0.7183 0.0
C2234 C 0.60942 0.60977 0.76092 0.0
C2235 C 0.58992 0.59482 0.74566 0.0
N2236 N 0.56893 0.5852 0.70335 0.0
N2237 N 0.64459 0.64523 0.76286 0.0
C2238 C 0.58882 0.59775 0.71692 0.0
C2239 C 0.62748 0.62857 0.74759 0.0
N2240 N 0.60817 0.61593 0.67472 0.0
N2241 N 0.61113 0.60539 0.78793 0.0
H2242 H 0.659 0.65848 0.75425 0.0
H2243 H 0.64399 0.64666 0.78427 0.0
H2244 H 0.59833 0.59178 0.79848 0.0
H2245 H 0.62587 0.61403 0.79925 0.0
H2246 H 0.59607 0.60336 0.66195 0.0
H2247 H 0.62068 0.62945 0.6638 0.0
H2248 H 0.56621 0.58808 0.68316 0.0
H2249 H 0.55441 0.57292 0.713 0.0
C2250 C 0.69346 0.72908 0.62063 0.0
C2251 C 0.68035 0.72003 0.64477 0.0
C2252 C 0.66581 0.74544 0.64022 0.0
C2253 C 0.67738 0.75304 0.61477 0.0
N2254 N 0.70023 0.75061 0.57886 0.0
N2255 N 0.65235 0.71759 0.67638 0.0
C2256 C 0.69075 0.74451 0.60449 0.0
C2257 C 0.66606 0.72768 0.65427 0.0
N2258 N 0.70866 0.72307 0.61335 0.0
N2259 N 0.65506 0.75563 0.65129 0.0
H2260 H 0.65273 0.70521 0.68789 0.0
H2261 H 0.63963 0.7204 0.68234 0.0
H2262 H 0.65425 0.76845 0.6414 0.0
H2263 H 0.64839 0.75267 0.67115 0.0
H2264 H 0.72033 0.73066 0.59762 0.0
H2265 H 0.71076 0.71152 0.62444 0.0
H2266 H 0.70811 0.74317 0.56877 0.0
H2267 H 0.69887 0.7621 0.56666 0.0
C2268 C 0.29347 0.96508 0.60681 0.0
C2269 C 0.29923 0.96456 0.6347 0.0
C2270 C 0.26933 0.9248 0.63759 0.0
C2271 C 0.26423 0.92507 0.60938 0.0
N2272 N 0.27294 0.94414 0.56581 0.0
N2273 N 0.29574 0.94316 0.67512 0.0
C2274 C 0.27682 0.94482 0.59356 0.0
C2275 C 0.28798 0.9442 0.64971 0.0
N2276 N 0.30321 0.98516 0.59341 0.0
N2277 N 0.25615 0.90606 0.65291 0.0
H2278 H 0.30953 0.95692 0.68453 0.0
H2279 H 0.28985 0.92826 0.6859 0.0
H2280 H 0.24304 0.89113 0.64446 0.0
H2281 H 0.25723 0.9057 0.6743 0.0
H2282 H 0.29801 0.98734 0.57428 0.0
H2283 H 0.31562 1.00016 0.6024 0.0
H2284 H 0.28321 0.95705 0.55246 0.0
H2285 H 0.26016 0.92999 0.5556 0.0
C2286 C 0.03985 0.30493 0.62941 0.0
C2287 C 0.04126 0.32518 0.63913 0.0
C2288 C 0.07714 0.34703 0.61535 0.0
C2289 C 0.07722 0.32689 0.60929 0.0
N2290 N 0.06064 0.28694 0.61709 0.0
N2291 N 0.06462 0.36552 0.64723 0.0
C2292 C 0.05917 0.30589 0.61828 0.0
C2293 C 0.06086 0.34628 0.63378 0.0
N2294 N 0.01993 0.28493 0.62931 0.0
N2295 N 0.09206 0.36675 0.60287 0.0
H2296 H 0.05406 0.36562 0.66252 0.0
H2297 H 0.07961 0.38088 0.64562 0.0
H2298 H 0.10362 0.36786 0.58824 0.0
H2299 H 0.09124 0.38136 0.60482 0.0
H2300 H 0.01789 0.2702 0.62015 0.0
H2301 H 0.00493 0.2836 0.6352 0.0
H2302 H 0.04866 0.27172 0.62575 0.0
H2303 H 0.07489 0.28707 0.61024 0.0
C2304 C 0.26508 0.32018 0.65711 0.0
C2305 C 0.2832 0.32005 0.64378 0.0
C2306 C 0.26979 0.32411 0.5989 0.0
C2307 C 0.25059 0.32208 0.61198 0.0
N2308 N 0.22756 0.3131 0.65275 0.0
N2309 N 0.2998 0.31647 0.60141 0.0
C2310 C 0.2475 0.31856 0.64087 0.0
C2311 C 0.28472 0.32047 0.61448 0.0
N2312 N 0.26514 0.32304 0.68515 0.0
N2313 N 0.27423 0.3303 0.57187 0.0
H2314 H 0.31041 0.3128 0.612 0.0
H2315 H 0.30014 0.31439 0.58006 0.0
H2316 H 0.26392 0.33347 0.55982 0.0
H2317 H 0.28918 0.33434 0.56217 0.0
H2318 H 0.25351 0.32565 0.69553 0.0
H2319 H 0.27804 0.32514 0.69782 0.0
H2320 H 0.2236 0.30809 0.67319 0.0
H2321 H 0.21414 0.31142 0.64149 0.0
C2322 C 0.66871 0.96339 0.60859 0.0
C2323 C 0.67093 0.96518 0.63786 0.0
C2324 C 0.67418 0.93154 0.63807 0.0
C2325 C 0.67012 0.92866 0.60923 0.0
N2326 N 0.65913 0.93916 0.56777 0.0
N2327 N 0.66949 0.94729 0.68084 0.0
C2328 C 0.66604 0.94379 0.59468 0.0
C2329 C 0.6719 0.94822 0.65273 0.0
N2330 N 0.67019 0.98076 0.59386 0.0
N2331 N 0.68089 0.91882 0.65141 0.0
H2332 H 0.66644 0.95836 0.69233 0.0
H2333 H 0.66791 0.93399 0.69236 0.0
H2334 H 0.683 0.90654 0.64138 0.0
H2335 H 0.6864 0.92193 0.67183 0.0
H2336 H 0.67111 0.98134 0.57238 0.0
H2337 H 0.67278 0.99571 0.60296 0.0
H2338 H 0.65362 0.94824 0.55698 0.0
H2339 H 0.65698 0.92497 0.55691 0.0
C2340 C 0.06132 0.71958 0.65413 0.0
C2341 C 0.04092 0.70789 0.63926 0.0
C2342 C 0.05996 0.72868 0.5974 0.0
C2343 C 0.07982 0.74172 0.61294 0.0
N2344 N 0.09929 0.75149 0.65648 0.0
N2345 N 0.01995 0.70303 0.59793 0.0
C2346 C 0.08045 0.73773 0.64145 0.0
C2347 C 0.04004 0.71279 0.61113 0.0
N2348 N 0.06265 0.71265 0.67993 0.0
N2349 N 0.06019 0.7314 0.56945 0.0
H2350 H 0.00515 0.69137 0.60743 0.0
H2351 H 0.01763 0.70771 0.57853 0.0
H2352 H 0.07413 0.74363 0.55881 0.0
H2353 H 0.04707 0.7206 0.55642 0.0
H2354 H 0.07754 0.71881 0.69067 0.0
H2355 H 0.0491 0.69925 0.68978 0.0
H2356 H 0.09998 0.75129 0.67793 0.0
H2357 H 0.11398 0.76426 0.64766 0.0
C2358 C 0.98525 0.61552 0.74133 0.0
C2359 C 0.98981 0.61778 0.71251 0.0
C2360 C 0.99861 0.58772 0.71349 0.0
C2361 C 0.99311 0.5848 0.74203 0.0
N2362 N 0.97772 0.59296 0.78228 0.0
N2363 N 0.99779 0.60432 0.67013 0.0
C2364 C 0.98545 0.59789 0.75573 0.0
C2365 C 0.99544 0.60325 0.69824 0.0
N2366 N 0.98095 0.63039 0.755 0.0
N2367 N 0.00776 0.57633 0.70127 0.0
H2368 H 0.99666 0.61617 0.65842 0.0
H2369 H 0.99938 0.59256 0.65811 0.0
H2370 H 0.01016 0.5647 0.7117 0.0
H2371 H 0.01449 0.5795 0.68145 0.0
H2372 H 0.98029 0.63153 0.77643 0.0
H2373 H 0.97918 0.64257 0.74499 0.0
H2374 H 0.96967 0.60014 0.79254 0.0
H2375 H 0.97778 0.58029 0.79353 0.0
C2376 C 0.37238 0.37403 0.75163 0.0
C2377 C 0.37013 0.37371 0.72247 0.0
C2378 C 0.40111 0.41311 0.72082 0.0
C2379 C 0.40517 0.41231 0.74929 0.0
N2380 N 0.3966 0.39122 0.79132 0.0
N2381 N 0.38225 0.39274 0.67884 0.0
C2382 C 0.39121 0.39262 0.76465 0.0
C2383 C 0.38452 0.3932 0.70692 0.0
N2384 N 0.35655 0.35666 0.76696 0.0
N2385 N 0.41258 0.43319 0.70737 0.0
H2386 H 0.36896 0.37947 0.6681 0.0
H2387 H 0.394 0.40512 0.66595 0.0
H2388 H 0.4247 0.44814 0.71699 0.0
H2389 H 0.40887 0.43559 0.68743 0.0
H2390 H 0.3559 0.35727 0.78845 0.0
H2391 H 0.34312 0.34214 0.7583 0.0
H2392 H 0.38864 0.37637 0.80252 0.0
H2393 H 0.4103 0.40439 0.80162 0.0
C2394 C 0.61486 0.01483 0.70218 0.0
C2395 C 0.63301 0.01576 0.7163 0.0
C2396 C 0.61426 0.01252 0.76061 0.0
C2397 C 0.59728 0.01386 0.74661 0.0
N2398 N 0.58407 0.02135 0.70469 0.0
N2399 N 0.65229 0.0206 0.75931 0.0
C2400 C 0.5984 0.01657 0.71756 0.0
C2401 C 0.63338 0.01603 0.74565 0.0
N2402 N 0.61263 0.01107 0.67423 0.0
N2403 N 0.61182 0.00712 0.78794 0.0
H2404 H 0.66693 0.02413 0.74916 0.0
H2405 H 0.6542 0.02321 0.78063 0.0
H2406 H 0.59797 0.0042 0.79959 0.0
H2407 H 0.62254 0.00356 0.79839 0.0
H2408 H 0.5985 0.00792 0.66341 0.0
H2409 H 0.62374 0.00869 0.66222 0.0
H2410 H 0.58564 0.02578 0.68399 0.0
H2411 H 0.57197 0.02311 0.71531 0.0
loop_
_geom_bond_atom_site_label_1
_geom_bond_atom_site_label_2
_geom_bond_distance
_geom_bond_site_symmetry_2
_ccdc_geom_bond_type
Co0 O1 2.216 . S
Co0 O2 2.091 . S
Co0 O4 2.004 1_554 S
Co0 O10 2.021 . S
Co0 O12 2.137 1_454 S
Co0 O13 2.244 1_455 S
O1 Co0 2.216 . S
O1 C8 1.247 . S
O2 Co0 2.091 . S
O2 C8 1.261 . S
C3 O12 1.247 . S
C3 O13 1.272 1_556 S
O4 Co0 2.004 1_556 S
O4 C9 1.310 . S
Co5 O6 2.061 1_554 S
Co5 O11 2.052 . S
Co5 O13 2.135 . S
O6 Co5 2.061 1_556 S
O6 C9 1.185 1_655 S
C7 O10 1.238 1_655 S
C7 O11 1.241 . S
C8 O1 1.247 . S
C8 O2 1.261 . S
C9 O4 1.310 . S
C9 O6 1.185 1_455 S
O10 Co0 2.021 . S
O10 C7 1.238 1_455 S
O11 Co5 2.052 . S
O11 C7 1.241 . S
O12 Co0 2.137 1_656 S
O12 C3 1.247 . S
O13 Co0 2.244 1_655 S
O13 C3 1.272 1_554 S
O13 Co5 2.135 . S
Co14 O15 2.216 1_554 S
Co14 O16 2.091 . S
Co14 O18 2.004 . S
Co14 O24 2.021 1_554 S
Co14 O26 2.137 . S
Co14 O27 2.244 . S
O15 Co14 2.216 1_556 S
O15 C22 1.247 . S
O16 Co14 2.091 . S
O16 C22 1.261 1_554 S
C17 O26 1.247 . S
C17 O27 1.272 . S
O18 Co14 2.004 . S
O18 C23 1.259 . S
Co19 O20 2.061 . S
Co19 O25 2.052 1_554 S
Co19 O27 2.135 . S
O20 Co19 2.061 . S
O20 C23 1.235 . S
C21 O24 1.238 . S
C21 O25 1.241 . S
C22 O15 1.247 . S
C22 O16 1.261 1_556 S
C23 O18 1.259 . S
C23 O20 1.235 . S
O24 Co14 2.021 1_556 S
O24 C21 1.238 . S
O25 Co19 2.052 1_556 S
O25 C21 1.241 . S
O26 Co14 2.137 . S
O26 C17 1.247 . S
O27 Co14 2.244 . S
O27 C17 1.272 . S
O27 Co19 2.135 . S
Co28 O29 2.216 1_554 S
Co28 O30 2.091 . S
Co28 O32 2.004 . S
Co28 O38 2.021 1_554 S
Co28 O40 2.137 1_545 S
Co28 O41 2.244 1_545 S
O29 Co28 2.216 1_556 S
O29 C36 1.247 . S
O30 Co28 2.091 . S
O30 C36 1.261 1_554 S
C31 O40 1.247 . S
C31 O41 1.272 . S
O32 Co28 2.004 . S
O32 C37 1.259 . S
Co33 O34 2.061 . S
Co33 O39 2.052 1_554 S
Co33 O41 2.135 . S
O34 Co33 2.061 . S
O34 C37 1.235 1_565 S
C35 O38 1.238 1_565 S
C35 O39 1.241 . S
C36 O29 1.247 . S
C36 O30 1.261 1_556 S
C37 O32 1.259 . S
C37 O34 1.235 1_545 S
O38 Co28 2.021 1_556 S
O38 C35 1.238 1_545 S
O39 Co33 2.052 1_556 S
O39 C35 1.241 . S
O40 Co28 2.137 1_565 S
O40 C31 1.247 . S
O41 Co28 2.244 1_565 S
O41 C31 1.272 . S
O41 Co33 2.135 . S
Co42 O43 2.216 1_554 S
Co42 O44 2.091 . S
Co42 O46 2.004 . S
Co42 O52 2.021 1_554 S
Co42 O54 2.137 1_655 S
Co42 O55 2.244 1_655 S
O43 Co42 2.216 1_556 S
O43 C50 1.247 . S
O44 Co42 2.091 . S
O44 C50 1.261 1_554 S
C45 O54 1.247 . S
C45 O55 1.272 . S
O46 Co42 2.004 . S
O46 C51 1.256 1_655 S
Co47 O48 2.061 . S
Co47 O53 2.052 1_554 S
Co47 O55 2.135 . S
O48 Co47 2.061 . S
O48 C51 1.238 . S
C49 O52 1.238 1_455 S
C49 O53 1.241 . S
C50 O43 1.247 . S
C50 O44 1.261 1_556 S
C51 O46 1.256 1_455 S
C51 O48 1.238 . S
O52 Co42 2.021 1_556 S
O52 C49 1.238 1_655 S
O53 Co47 2.052 1_556 S
O53 C49 1.241 . S
O54 Co42 2.137 1_455 S
O54 C45 1.247 . S
O55 Co42 2.244 1_455 S
O55 C45 1.272 . S
O55 Co47 2.135 . S
Co56 O57 2.216 . S
Co56 O58 2.091 . S
Co56 O60 2.004 1_554 S
Co56 O66 2.021 . S
Co56 O68 2.137 1_554 S
Co56 O69 2.244 1_554 S
O57 Co56 2.216 . S
O57 C64 1.247 . S
O58 Co56 2.091 . S
O58 C64 1.261 . S
C59 O68 1.247 . S
C59 O69 1.272 . S
O60 Co56 2.004 1_556 S
O60 C65 1.259 . S
Co61 O62 2.061 . S
Co61 O67 2.052 1_556 S
Co61 O69 2.135 . S
O62 Co61 2.061 . S
O62 C65 1.235 . S
C63 O66 1.238 . S
C63 O67 1.241 . S
C64 O57 1.247 . S
C64 O58 1.261 . S
C65 O60 1.259 . S
C65 O62 1.235 . S
O66 Co56 2.021 . S
O66 C63 1.238 . S
O67 Co61 2.052 1_554 S
O67 C63 1.241 . S
O68 Co56 2.137 1_556 S
O68 C59 1.247 . S
O69 Co56 2.244 1_556 S
O69 C59 1.272 . S
O69 Co61 2.135 . S
Co70 O71 2.216 . S
Co70 O72 2.091 . S
Co70 O74 2.004 1_554 S
Co70 O80 2.021 . S
Co70 O82 2.137 1_564 S
Co70 O83 2.244 1_565 S
O71 Co70 2.216 . S
O71 C78 1.247 . S
O72 Co70 2.091 . S
O72 C78 1.261 . S
C73 O82 1.247 . S
C73 O83 1.272 1_556 S
O74 Co70 2.004 1_556 S
O74 C79 1.257 1_565 S
Co75 O76 2.061 1_554 S
Co75 O81 2.052 . S
Co75 O83 2.135 . S
O76 Co75 2.061 1_556 S
O76 C79 1.237 . S
C77 O80 1.238 1_545 S
C77 O81 1.241 . S
C78 O71 1.247 . S
C78 O72 1.261 . S
C79 O74 1.257 1_545 S
C79 O76 1.237 . S
O80 Co70 2.021 . S
O80 C77 1.238 1_565 S
O81 Co75 2.052 . S
O81 C77 1.241 . S
O82 Co70 2.137 1_546 S
O82 C73 1.247 . S
O83 Co70 2.244 1_545 S
O83 C73 1.272 1_554 S
O83 Co75 2.135 . S
Co84 O85 2.216 . S
Co84 O86 2.091 . S
Co84 O88 2.004 . S
Co84 O94 2.021 . S
Co84 O96 2.137 . S
Co84 O97 2.244 . S
O85 Co84 2.216 . S
O85 C92 1.247 . S
O86 Co84 2.091 . S
O86 C92 1.261 . S
C87 O96 1.247 . S
C87 O97 1.272 . S
O88 Co84 2.004 . S
O88 C93 1.259 . S
Co89 O90 2.061 . S
Co89 O95 2.052 . S
Co89 O97 2.135 . S
O90 Co89 2.061 . S
O90 C93 1.235 . S
C91 O94 1.238 . S
C91 O95 1.241 . S
C92 O85 1.247 . S
C92 O86 1.261 . S
C93 O88 1.259 . S
C93 O90 1.235 . S
O94 Co84 2.021 . S
O94 C91 1.238 . S
O95 Co89 2.052 . S
O95 C91 1.241 . S
O96 Co84 2.137 . S
O96 C87 1.247 . S
O97 Co84 2.244 . S
O97 C87 1.272 . S
O97 Co89 2.135 . S
Co98 O99 2.216 1_565 S
Co98 O100 2.091 . S
Co98 O102 2.004 . S
Co98 O108 2.021 . S
Co98 O110 2.137 1_565 S
Co98 O111 2.244 1_565 S
O99 Co98 2.216 1_545 S
O99 C106 1.247 1_545 S
O100 Co98 2.091 . S
O100 C106 1.261 . S
C101 O110 1.247 . S
C101 O111 1.272 . S
O102 Co98 2.004 . S
O102 C107 1.259 . S
Co103 O104 2.061 . S
Co103 O109 2.052 . S
Co103 O111 2.135 1_565 S
O104 Co103 2.061 . S
O104 C107 1.235 . S
C105 O108 1.238 . S
C105 O109 1.241 . S
C106 O99 1.247 1_565 S
C106 O100 1.261 . S
C107 O102 1.259 . S
C107 O104 1.235 . S
O108 Co98 2.021 . S
O108 C105 1.238 . S
O109 Co103 2.052 . S
O109 C105 1.241 . S
O110 Co98 2.137 1_545 S
O110 C101 1.247 . S
O111 Co98 2.244 1_545 S
O111 C101 1.272 . S
O111 Co103 2.135 1_545 S
Co112 O113 2.233 . S
Co112 O114 2.091 . S
Co112 O116 2.004 . S
Co112 O122 2.021 . S
Co112 O124 2.137 1_455 S
Co112 O125 2.244 1_455 S
O113 Co112 2.233 . S
O113 C120 1.247 . S
O114 Co112 2.091 . S
O114 C120 1.261 . S
C115 O124 1.247 . S
C115 O125 1.272 . S
O116 Co112 2.004 . S
O116 C121 1.259 . S
Co117 O118 2.061 . S
Co117 O123 2.052 . S
Co117 O125 2.135 1_455 S
O118 Co117 2.061 . S
O118 C121 1.235 . S
C119 O122 1.238 . S
C119 O123 1.241 . S
C120 O113 1.247 . S
C120 O114 1.261 . S
C121 O116 1.259 . S
C121 O118 1.235 . S
O122 Co112 2.021 . S
O122 C119 1.238 . S
O123 Co117 2.052 . S
O123 C119 1.241 . S
O124 Co112 2.137 1_655 S
O124 C115 1.247 . S
O125 Co112 2.244 1_655 S
O125 C115 1.272 . S
O125 Co117 2.135 1_655 S
Co126 O127 2.216 1_565 S
Co126 O128 2.091 . S
Co126 O130 2.004 . S
Co126 O136 2.021 . S
Co126 O138 2.137 1_565 S
Co126 O139 2.244 1_565 S
O127 Co126 2.216 1_545 S
O127 C134 1.247 1_545 S
O128 Co126 2.091 . S
O128 C134 1.261 . S
C129 O138 1.247 . S
C129 O139 1.272 . S
O130 Co126 2.004 . S
O130 C135 1.259 . S
Co131 O132 2.061 . S
Co131 O137 2.052 . S
Co131 O139 2.135 1_565 S
O132 Co131 2.061 . S
O132 C135 1.235 . S
C133 O136 1.238 . S
C133 O137 1.241 . S
C134 O127 1.247 1_565 S
C134 O128 1.261 . S
C135 O130 1.259 . S
C135 O132 1.235 . S
O136 Co126 2.021 . S
O136 C133 1.238 . S
O137 Co131 2.052 . S
O137 C133 1.241 . S
O138 Co126 2.137 1_545 S
O138 C129 1.247 . S
O139 Co126 2.244 1_545 S
O139 C129 1.272 . S
O139 Co131 2.135 1_545 S
Co140 O141 2.216 1_455 S
Co140 O142 2.091 1_455 S
Co140 O144 2.004 . S
Co140 O150 2.021 . S
Co140 O152 2.137 1_455 S
Co140 O153 2.244 . S
O141 Co140 2.216 1_655 S
O141 C148 1.247 . S
O142 Co140 2.091 1_655 S
O142 C148 1.261 . S
C143 O152 1.247 1_455 S
C143 O153 1.272 . S
O144 Co140 2.004 . S
O144 C149 1.259 . S
Co145 O146 2.061 . S
Co145 O151 2.052 . S
Co145 O153 2.135 . S
O146 Co145 2.061 . S
O146 C149 1.235 . S
C147 O150 1.238 . S
C147 O151 1.241 . S
C148 O141 1.247 . S
C148 O142 1.261 . S
C149 O144 1.259 . S
C149 O146 1.235 . S
O150 Co140 2.021 . S
O150 C147 1.238 . S
O151 Co145 2.052 . S
O151 C147 1.241 . S
O152 Co140 2.137 1_655 S
O152 C143 1.247 1_655 S
O153 Co140 2.244 . S
O153 C143 1.272 . S
O153 Co145 2.135 . S
Co154 O155 2.216 . S
Co154 O156 2.091 . S
Co154 O158 2.004 . S
Co154 O164 2.021 . S
Co154 O166 2.137 . S
Co154 O167 2.244 . S
O155 Co154 2.216 . S
O155 C162 1.247 . S
O156 Co154 2.091 . S
O156 C162 1.261 . S
C157 O166 1.247 . S
C157 O167 1.272 . S
O158 Co154 2.004 . S
O158 C163 1.259 . S
Co159 O160 2.061 . S
Co159 O165 2.052 . S
Co159 O167 2.135 . S
O160 Co159 2.061 . S
O160 C163 1.235 . S
C161 O164 1.238 . S
C161 O165 1.241 . S
C162 O155 1.247 . S
C162 O156 1.261 . S
C163 O158 1.259 . S
C163 O160 1.235 . S
O164 Co154 2.021 . S
O164 C161 1.238 . S
O165 Co159 2.052 . S
O165 C161 1.241 . S
O166 Co154 2.137 . S
O166 C157 1.247 . S
O167 Co154 2.244 . S
O167 C157 1.272 . S
O167 Co159 2.135 . S
Co168 O169 2.191 1_545 S
Co168 O170 2.091 . S
Co168 O172 2.004 . S
Co168 O178 2.021 . S
Co168 O180 2.137 1_545 S
Co168 O181 2.244 1_545 S
O169 Co168 2.191 1_565 S
O169 C176 1.247 1_565 S
O170 Co168 2.091 . S
O170 C176 1.261 . S
C171 O180 1.247 . S
C171 O181 1.272 . S
O172 Co168 2.004 . S
O172 C177 1.259 . S
Co173 O174 2.061 . S
Co173 O179 2.052 . S
Co173 O181 2.135 1_545 S
O174 Co173 2.061 . S
O174 C177 1.235 . S
C175 O178 1.238 . S
C175 O179 1.241 . S
C176 O169 1.247 1_545 S
C176 O170 1.261 . S
C177 O172 1.259 . S
C177 O174 1.235 . S
O178 Co168 2.021 . S
O178 C175 1.238 . S
O179 Co173 2.052 . S
O179 C175 1.241 . S
O180 Co168 2.137 1_565 S
O180 C171 1.247 . S
O181 Co168 2.244 1_565 S
O181 C171 1.272 . S
O181 Co173 2.135 1_565 S
Co182 O183 2.216 1_655 S
Co182 O184 2.091 1_655 S
Co182 O186 2.004 . S
Co182 O192 2.021 . S
Co182 O194 2.137 1_655 S
Co182 O195 2.244 . S
O183 Co182 2.216 1_455 S
O183 C190 1.247 . S
O184 Co182 2.091 1_455 S
O184 C190 1.261 . S
C185 O194 1.247 1_655 S
C185 O195 1.272 . S
O186 Co182 2.004 . S
O186 C191 1.259 . S
Co187 O188 2.061 . S
Co187 O193 2.052 . S
Co187 O195 2.135 . S
O188 Co187 2.061 . S
O188 C191 1.235 . S
C189 O192 1.238 . S
C189 O193 1.241 . S
C190 O183 1.247 . S
C190 O184 1.261 . S
C191 O186 1.259 . S
C191 O188 1.235 . S
O192 Co182 2.021 . S
O192 C189 1.238 . S
O193 Co187 2.052 . S
O193 C189 1.241 . S
O194 Co182 2.137 1_455 S
O194 C185 1.247 1_455 S
O195 Co182 2.244 . S
O195 C185 1.272 . S
O195 Co187 2.135 . S
Co196 O197 2.216 . S
Co196 O198 2.091 . S
Co196 O200 2.004 . S
Co196 O206 2.021 . S
Co196 O208 2.137 . S
Co196 O209 2.244 . S
O197 Co196 2.216 . S
O197 C204 1.247 . S
O198 Co196 2.091 . S
O198 C204 1.261 . S
C199 O208 1.247 . S
C199 O209 1.272 . S
O200 Co196 2.004 . S
O200 C205 1.259 . S
Co201 O202 2.061 . S
Co201 O207 2.052 . S
Co201 O209 2.135 . S
O202 Co201 2.061 . S
O202 C205 1.235 . S
C203 O206 1.238 . S
C203 O207 1.241 . S
C204 O197 1.247 . S
C204 O198 1.261 . S
C205 O200 1.259 . S
C205 O202 1.235 . S
O206 Co196 2.021 . S
O206 C203 1.238 . S
O207 Co201 2.052 . S
O207 C203 1.241 . S
O208 Co196 2.137 . S
O208 C199 1.247 . S
O209 Co196 2.244 . S
O209 C199 1.272 . S
O209 Co201 2.135 . S
Co210 O211 2.216 . S
Co210 O212 2.091 . S
Co210 O214 2.004 . S
Co210 O220 2.021 . S
Co210 O222 2.137 . S
Co210 O223 2.244 . S
O211 Co210 2.216 . S
O211 C218 1.247 . S
O212 Co210 2.091 . S
O212 C218 1.261 . S
C213 O222 1.247 . S
C213 O223 1.272 . S
O214 Co210 2.004 . S
O214 C219 1.259 . S
Co215 O216 2.061 . S
Co215 O221 2.052 . S
Co215 O223 2.135 . S
O216 Co215 2.061 . S
O216 C219 1.235 . S
C217 O220 1.238 . S
C217 O221 1.241 . S
C218 O211 1.247 . S
C218 O212 1.261 . S
C219 O214 1.259 . S
C219 O216 1.235 . S
O220 Co210 2.021 . S
O220 C217 1.238 . S
O221 Co215 2.052 . S
O221 C217 1.241 . S
O222 Co210 2.137 . S
O222 C213 1.247 . S
O223 Co210 2.244 . S
O223 C213 1.272 . S
O223 Co215 2.135 . S
Co224 O225 2.206 1_545 S
Co224 O226 2.091 . S
Co224 O228 2.004 . S
Co224 O234 2.021 . S
Co224 O236 2.137 1_545 S
Co224 O237 2.244 1_545 S
O225 Co224 2.206 1_565 S
O225 C232 1.208 1_565 S
O226 Co224 2.091 . S
O226 C232 1.261 . S
C227 O236 1.247 . S
C227 O237 1.272 . S
O228 Co224 2.004 . S
O228 C233 1.259 . S
Co229 O230 2.061 . S
Co229 O235 2.052 . S
Co229 O237 2.135 1_545 S
O230 Co229 2.061 . S
O230 C233 1.235 . S
C231 O234 1.238 . S
C231 O235 1.241 . S
C232 O225 1.208 1_545 S
C232 O226 1.261 . S
C233 O228 1.259 . S
C233 O230 1.235 . S
O234 Co224 2.021 . S
O234 C231 1.238 . S
O235 Co229 2.052 . S
O235 C231 1.241 . S
O236 Co224 2.137 1_565 S
O236 C227 1.247 . S
O237 Co224 2.244 1_565 S
O237 C227 1.272 . S
O237 Co229 2.135 1_565 S
Co238 O239 2.217 . S
Co238 O240 2.091 . S
Co238 O242 2.004 . S
Co238 O248 2.021 . S
Co238 O250 2.137 1_655 S
Co238 O251 2.244 1_655 S
O239 Co238 2.217 . S
O239 C246 1.247 . S
O240 Co238 2.091 . S
O240 C246 1.261 . S
C241 O250 1.247 . S
C241 O251 1.272 . S
O242 Co238 2.004 . S
O242 C247 1.259 . S
Co243 O244 2.061 . S
Co243 O249 2.052 . S
Co243 O251 2.135 1_655 S
O244 Co243 2.061 . S
O244 C247 1.235 . S
C245 O248 1.238 . S
C245 O249 1.241 . S
C246 O239 1.247 . S
C246 O240 1.261 . S
C247 O242 1.259 . S
C247 O244 1.235 . S
O248 Co238 2.021 . S
O248 C245 1.238 . S
O249 Co243 2.052 . S
O249 C245 1.241 . S
O250 Co238 2.137 1_455 S
O250 C241 1.247 . S
O251 Co238 2.244 1_455 S
O251 C241 1.272 . S
O251 Co243 2.135 1_455 S
H252 C271 0.949 . S
H253 C272 0.950 . S
H254 C274 0.950 . S
H255 C275 0.950 . S
H256 C277 0.950 . S
H257 C280 0.950 . S
H258 C281 0.950 . S
H259 C283 0.951 . S
H260 C284 0.949 . S
H261 C286 0.949 . S
H262 C287 0.950 . S
H263 C289 0.950 . S
H264 C290 0.950 . S
H265 C292 0.950 . S
H266 C295 0.950 . S
H267 C296 0.950 . S
H268 C298 0.951 . S
H269 C299 0.949 . S
C270 C271 1.376 . S
C270 C275 1.386 . S
C270 C276 1.483 . S
C271 H252 0.949 . S
C271 C270 1.376 . S
C271 C272 1.397 . S
C272 H253 0.950 . S
C272 C271 1.397 . S
C272 C273 1.391 . S
C273 C272 1.391 . S
C273 C274 1.405 . S
C274 H254 0.950 . S
C274 C273 1.405 . S
C274 C275 1.367 . S
C275 H255 0.950 . S
C275 C270 1.386 . S
C275 C274 1.367 . S
C276 C270 1.483 . S
C276 C277 1.382 . S
C276 C278 1.403 . S
C277 H256 0.950 . S
C277 C276 1.382 . S
C277 C293 1.411 . S
C278 C276 1.403 . S
C278 C279 1.489 . S
C278 C292 1.411 . S
C279 C278 1.489 . S
C279 C280 1.383 . S
C279 C284 1.382 . S
C280 H257 0.950 . S
C280 C279 1.383 . S
C280 C281 1.395 . S
C281 H258 0.950 . S
C281 C280 1.395 . S
C281 C282 1.288 . S
C282 C281 1.288 . S
C282 C283 1.392 . S
C283 H259 0.951 . S
C283 C282 1.392 . S
C283 C284 1.392 . S
C284 H260 0.949 . S
C284 C279 1.382 . S
C284 C283 1.392 . S
C285 C286 1.376 . S
C285 C290 1.386 . S
C285 C291 1.483 . S
C286 H261 0.949 . S
C286 C285 1.376 . S
C286 C287 1.397 . S
C287 H262 0.950 . S
C287 C286 1.397 . S
C287 C288 1.391 . S
C288 C287 1.391 . S
C288 C289 1.405 . S
C289 H263 0.950 . S
C289 C288 1.405 . S
C289 C290 1.367 . S
C290 H264 0.950 . S
C290 C285 1.386 . S
C290 C289 1.367 . S
C291 C285 1.483 . S
C291 C292 1.382 . S
C291 C293 1.403 . S
C292 H265 0.950 . S
C292 C278 1.411 . S
C292 C291 1.382 . S
C293 C277 1.411 . S
C293 C291 1.403 . S
C293 C294 1.489 . S
C294 C293 1.489 . S
C294 C295 1.383 . S
C294 C299 1.382 . S
C295 H266 0.950 . S
C295 C294 1.383 . S
C295 C296 1.395 . S
C296 H267 0.950 . S
C296 C295 1.395 . S
C296 C297 1.288 . S
C297 C296 1.288 . S
C297 C298 1.392 . S
C298 H268 0.951 . S
C298 C297 1.392 . S
C298 C299 1.392 . S
C299 H269 0.949 . S
C299 C294 1.382 . S
C299 C298 1.392 . S
H300 C319 0.949 . S
H301 C320 0.950 . S
H302 C322 0.950 . S
H303 C323 0.950 . S
H304 C325 0.950 . S
H305 C328 0.950 . S
H306 C329 0.950 . S
H307 C331 0.951 . S
H308 C332 0.949 . S
H309 C334 0.949 . S
H310 C335 0.950 . S
H311 C337 0.950 . S
H312 C338 0.950 . S
H313 C340 0.950 . S
H314 C343 0.950 . S
H315 C344 0.950 . S
H316 C346 0.951 . S
H317 C347 0.949 . S
C318 C319 1.376 . S
C318 C323 1.386 . S
C318 C324 1.483 . S
C319 H300 0.949 . S
C319 C318 1.376 . S
C319 C320 1.397 . S
C320 H301 0.950 . S
C320 C319 1.397 . S
C320 C321 1.391 . S
C321 C320 1.391 . S
C321 C322 1.405 . S
C322 H302 0.950 . S
C322 C321 1.405 . S
C322 C323 1.367 . S
C323 H303 0.950 . S
C323 C318 1.386 . S
C323 C322 1.367 . S
C324 C318 1.483 . S
C324 C325 1.382 . S
C324 C326 1.403 . S
C325 H304 0.950 . S
C325 C324 1.382 . S
C325 C341 1.411 . S
C326 C324 1.403 . S
C326 C327 1.489 . S
C326 C340 1.411 . S
C327 C326 1.489 . S
C327 C328 1.383 . S
C327 C332 1.382 . S
C328 H305 0.950 . S
C328 C327 1.383 . S
C328 C329 1.395 . S
C329 H306 0.950 . S
C329 C328 1.395 . S
C329 C330 1.288 . S
C330 C329 1.288 . S
C330 C331 1.392 . S
C331 H307 0.951 . S
C331 C330 1.392 . S
C331 C332 1.392 . S
C332 H308 0.949 . S
C332 C327 1.382 . S
C332 C331 1.392 . S
C333 C334 1.376 . S
C333 C338 1.386 . S
C333 C339 1.483 . S
C334 H309 0.949 . S
C334 C333 1.376 . S
C334 C335 1.397 . S
C335 H310 0.950 . S
C335 C334 1.397 . S
C335 C336 1.391 . S
C336 C335 1.391 . S
C336 C337 1.405 . S
C337 H311 0.950 . S
C337 C336 1.405 . S
C337 C338 1.367 . S
C338 H312 0.950 . S
C338 C333 1.386 . S
C338 C337 1.367 . S
C339 C333 1.483 . S
C339 C340 1.382 . S
C339 C341 1.403 . S
C340 H313 0.950 . S
C340 C326 1.411 . S
C340 C339 1.382 . S
C341 C325 1.411 . S
C341 C339 1.403 . S
C341 C342 1.489 . S
C342 C341 1.489 . S
C342 C343 1.383 . S
C342 C347 1.382 . S
C343 H314 0.950 . S
C343 C342 1.383 . S
C343 C344 1.395 . S
C344 H315 0.950 . S
C344 C343 1.395 . S
C344 C345 1.288 . S
C345 C344 1.288 . S
C345 C346 1.392 . S
C346 H316 0.951 . S
C346 C345 1.392 . S
C346 C347 1.392 . S
C347 H317 0.949 . S
C347 C342 1.382 . S
C347 C346 1.392 . S
H348 C367 0.949 . S
H349 C368 0.950 . S
H350 C370 0.950 . S
H351 C371 0.950 . S
H352 C373 0.950 . S
H353 C376 0.950 . S
H354 C377 0.950 . S
H355 C379 0.951 . S
H356 C380 0.949 . S
H357 C382 0.949 . S
H358 C383 0.950 . S
H359 C385 0.950 . S
H360 C386 0.950 . S
H361 C388 0.950 . S
H362 C391 0.950 . S
H363 C392 0.950 . S
H364 C394 0.951 . S
H365 C395 0.949 . S
C366 C367 1.376 . S
C366 C371 1.386 . S
C366 C372 1.483 . S
C367 H348 0.949 . S
C367 C366 1.376 . S
C367 C368 1.397 . S
C368 H349 0.950 . S
C368 C367 1.397 . S
C368 C369 1.391 . S
C369 C368 1.391 . S
C369 C370 1.405 . S
C370 H350 0.950 . S
C370 C369 1.405 . S
C370 C371 1.367 . S
C371 H351 0.950 . S
C371 C366 1.386 . S
C371 C370 1.367 . S
C372 C366 1.483 . S
C372 C373 1.382 . S
C372 C374 1.403 . S
C373 H352 0.950 . S
C373 C372 1.382 . S
C373 C389 1.411 . S
C374 C372 1.403 . S
C374 C375 1.489 . S
C374 C388 1.411 . S
C375 C374 1.489 . S
C375 C376 1.383 . S
C375 C380 1.382 . S
C376 H353 0.950 . S
C376 C375 1.383 . S
C376 C377 1.395 . S
C377 H354 0.950 . S
C377 C376 1.395 . S
C377 C378 1.288 . S
C378 C377 1.288 . S
C378 C379 1.392 . S
C379 H355 0.951 . S
C379 C378 1.392 . S
C379 C380 1.392 . S
C380 H356 0.949 . S
C380 C375 1.382 . S
C380 C379 1.392 . S
C381 C382 1.376 . S
C381 C386 1.386 . S
C381 C387 1.483 . S
C382 H357 0.949 . S
C382 C381 1.376 . S
C382 C383 1.397 . S
C383 H358 0.950 . S
C383 C382 1.397 . S
C383 C384 1.391 . S
C384 C383 1.391 . S
C384 C385 1.405 . S
C385 H359 0.950 . S
C385 C384 1.405 . S
C385 C386 1.367 . S
C386 H360 0.950 . S
C386 C381 1.386 . S
C386 C385 1.367 . S
C387 C381 1.483 . S
C387 C388 1.382 . S
C387 C389 1.403 . S
C388 H361 0.950 . S
C388 C374 1.411 . S
C388 C387 1.382 . S
C389 C373 1.411 . S
C389 C387 1.403 . S
C389 C390 1.489 . S
C390 C389 1.489 . S
C390 C391 1.383 . S
C390 C395 1.382 . S
C391 H362 0.950 . S
C391 C390 1.383 . S
C391 C392 1.395 . S
C392 H363 0.950 . S
C392 C391 1.395 . S
C392 C393 1.288 . S
C393 C392 1.288 . S
C393 C394 1.392 . S
C394 H364 0.951 . S
C394 C393 1.392 . S
C394 C395 1.392 . S
C395 H365 0.949 . S
C395 C390 1.382 . S
C395 C394 1.392 . S
H396 C415 0.949 . S
H397 C416 0.950 . S
H398 C418 0.950 . S
H399 C419 0.950 . S
H400 C421 0.950 . S
H401 C424 0.950 . S
H402 C425 0.950 . S
H403 C427 0.951 . S
H404 C428 0.949 . S
H405 C430 0.949 . S
H406 C431 0.950 . S
H407 C433 0.950 . S
H408 C434 0.950 . S
H409 C436 0.950 . S
H410 C439 0.950 . S
H411 C440 0.950 . S
H412 C442 0.951 . S
H413 C443 0.949 . S
C414 C415 1.376 . S
C414 C419 1.386 . S
C414 C420 1.483 . S
C415 H396 0.949 . S
C415 C414 1.376 . S
C415 C416 1.397 . S
C416 H397 0.950 . S
C416 C415 1.397 . S
C416 C417 1.391 . S
C417 C416 1.391 . S
C417 C418 1.405 . S
C418 H398 0.950 . S
C418 C417 1.405 . S
C418 C419 1.367 . S
C419 H399 0.950 . S
C419 C414 1.386 . S
C419 C418 1.367 . S
C420 C414 1.483 . S
C420 C421 1.382 . S
C420 C422 1.403 . S
C421 H400 0.950 . S
C421 C420 1.382 . S
C421 C437 1.411 . S
C422 C420 1.403 . S
C422 C423 1.489 . S
C422 C436 1.411 . S
C423 C422 1.489 . S
C423 C424 1.383 . S
C423 C428 1.382 . S
C424 H401 0.950 . S
C424 C423 1.383 . S
C424 C425 1.395 . S
C425 H402 0.950 . S
C425 C424 1.395 . S
C425 C426 1.288 . S
C426 C425 1.288 . S
C426 C427 1.392 . S
C427 H403 0.951 . S
C427 C426 1.392 . S
C427 C428 1.392 . S
C428 H404 0.949 . S
C428 C423 1.382 . S
C428 C427 1.392 . S
C429 C430 1.376 . S
C429 C434 1.386 . S
C429 C435 1.483 . S
C430 H405 0.949 . S
C430 C429 1.376 . S
C430 C431 1.397 . S
C431 H406 0.950 . S
C431 C430 1.397 . S
C431 C432 1.391 . S
C432 C431 1.391 . S
C432 C433 1.405 . S
C433 H407 0.950 . S
C433 C432 1.405 . S
C433 C434 1.367 . S
C434 H408 0.950 . S
C434 C429 1.386 . S
C434 C433 1.367 . S
C435 C429 1.483 . S
C435 C436 1.382 . S
C435 C437 1.403 . S
C436 H409 0.950 . S
C436 C422 1.411 . S
C436 C435 1.382 . S
C437 C421 1.411 . S
C437 C435 1.403 . S
C437 C438 1.489 . S
C438 C437 1.489 . S
C438 C439 1.383 . S
C438 C443 1.382 . S
C439 H410 0.950 . S
C439 C438 1.383 . S
C439 C440 1.395 . S
C440 H411 0.950 . S
C440 C439 1.395 . S
C440 C441 1.288 . S
C441 C440 1.288 . S
C441 C442 1.392 . S
C442 H412 0.951 . S
C442 C441 1.392 . S
C442 C443 1.392 . S
C443 H413 0.949 . S
C443 C438 1.382 . S
C443 C442 1.392 . S
H444 C463 0.949 . S
H445 C464 0.950 . S
H446 C466 0.950 . S
H447 C467 0.950 . S
H448 C469 0.950 . S
H449 C472 0.950 . S
H450 C473 0.950 . S
H451 C475 0.951 . S
H452 C476 0.949 . S
H453 C478 0.949 . S
H454 C479 0.950 . S
H455 C481 0.950 . S
H456 C482 0.950 . S
H457 C484 0.950 . S
H458 C487 0.950 . S
H459 C488 0.950 . S
H460 C490 0.951 . S
H461 C491 0.949 . S
C462 C463 1.376 . S
C462 C467 1.386 . S
C462 C468 1.483 . S
C463 H444 0.949 . S
C463 C462 1.376 . S
C463 C464 1.397 . S
C464 H445 0.950 . S
C464 C463 1.397 . S
C464 C465 1.391 . S
C465 C464 1.391 . S
C465 C466 1.405 . S
C466 H446 0.950 . S
C466 C465 1.405 . S
C466 C467 1.367 . S
C467 H447 0.950 . S
C467 C462 1.386 . S
C467 C466 1.367 . S
C468 C462 1.483 . S
C468 C469 1.382 . S
C468 C470 1.403 . S
C469 H448 0.950 . S
C469 C468 1.382 . S
C469 C485 1.411 . S
C470 C468 1.403 . S
C470 C471 1.489 . S
C470 C484 1.411 . S
C471 C470 1.489 . S
C471 C472 1.383 . S
C471 C476 1.382 . S
C472 H449 0.950 . S
C472 C471 1.383 . S
C472 C473 1.395 . S
C473 H450 0.950 . S
C473 C472 1.395 . S
C473 C474 1.288 . S
C474 C473 1.288 . S
C474 C475 1.392 . S
C475 H451 0.951 . S
C475 C474 1.392 . S
C475 C476 1.392 . S
C476 H452 0.949 . S
C476 C471 1.382 . S
C476 C475 1.392 . S
C477 C478 1.376 . S
C477 C482 1.386 . S
C477 C483 1.483 . S
C478 H453 0.949 . S
C478 C477 1.376 . S
C478 C479 1.397 . S
C479 H454 0.950 . S
C479 C478 1.397 . S
C479 C480 1.391 . S
C480 C479 1.391 . S
C480 C481 1.405 . S
C481 H455 0.950 . S
C481 C480 1.405 . S
C481 C482 1.367 . S
C482 H456 0.950 . S
C482 C477 1.386 . S
C482 C481 1.367 . S
C483 C477 1.483 . S
C483 C484 1.382 . S
C483 C485 1.403 . S
C484 H457 0.950 . S
C484 C470 1.411 . S
C484 C483 1.382 . S
C485 C469 1.411 . S
C485 C483 1.403 . S
C485 C486 1.489 . S
C486 C485 1.489 . S
C486 C487 1.383 . S
C486 C491 1.382 . S
C487 H458 0.950 . S
C487 C486 1.383 . S
C487 C488 1.395 . S
C488 H459 0.950 . S
C488 C487 1.395 . S
C488 C489 1.288 . S
C489 C488 1.288 . S
C489 C490 1.392 . S
C490 H460 0.951 . S
C490 C489 1.392 . S
C490 C491 1.392 . S
C491 H461 0.949 . S
C491 C486 1.382 . S
C491 C490 1.392 . S
H492 C511 0.949 . S
H493 C512 0.950 . S
H494 C514 0.950 . S
H495 C515 0.950 . S
H496 C517 0.950 . S
H497 C520 0.950 . S
H498 C521 0.950 . S
H499 C523 0.951 . S
H500 C524 0.949 . S
H501 C526 0.949 . S
H502 C527 0.950 . S
H503 C529 0.950 . S
H504 C530 0.950 . S
H505 C532 0.950 . S
H506 C535 0.950 . S
H507 C536 0.950 . S
H508 C538 0.951 . S
H509 C539 0.949 . S
C510 C511 1.376 . S
C510 C515 1.386 . S
C510 C516 1.483 . S
C511 H492 0.949 . S
C511 C510 1.376 . S
C511 C512 1.397 . S
C512 H493 0.950 . S
C512 C511 1.397 . S
C512 C513 1.391 . S
C513 C512 1.391 . S
C513 C514 1.405 . S
C514 H494 0.950 . S
C514 C513 1.405 . S
C514 C515 1.367 . S
C515 H495 0.950 . S
C515 C510 1.386 . S
C515 C514 1.367 . S
C516 C510 1.483 . S
C516 C517 1.382 . S
C516 C518 1.403 . S
C517 H496 0.950 . S
C517 C516 1.382 . S
C517 C533 1.411 . S
C518 C516 1.403 . S
C518 C519 1.489 . S
C518 C532 1.411 . S
C519 C518 1.489 . S
C519 C520 1.383 . S
C519 C524 1.382 . S
C520 H497 0.950 . S
C520 C519 1.383 . S
C520 C521 1.395 . S
C521 H498 0.950 . S
C521 C520 1.395 . S
C521 C522 1.288 . S
C522 C521 1.288 . S
C522 C523 1.392 . S
C523 H499 0.951 . S
C523 C522 1.392 . S
C523 C524 1.392 . S
C524 H500 0.949 . S
C524 C519 1.382 . S
C524 C523 1.392 . S
C525 C526 1.376 . S
C525 C530 1.386 . S
C525 C531 1.483 . S
C526 H501 0.949 . S
C526 C525 1.376 . S
C526 C527 1.397 . S
C527 H502 0.950 . S
C527 C526 1.397 . S
C527 C528 1.391 . S
C528 C527 1.391 . S
C528 C529 1.405 . S
C529 H503 0.950 . S
C529 C528 1.405 . S
C529 C530 1.367 . S
C530 H504 0.950 . S
C530 C525 1.386 . S
C530 C529 1.367 . S
C531 C525 1.483 . S
C531 C532 1.382 . S
C531 C533 1.403 . S
C532 H505 0.950 . S
C532 C518 1.411 . S
C532 C531 1.382 . S
C533 C517 1.411 . S
C533 C531 1.403 . S
C533 C534 1.489 . S
C534 C533 1.489 . S
C534 C535 1.383 . S
C534 C539 1.382 . S
C535 H506 0.950 . S
C535 C534 1.383 . S
C535 C536 1.395 . S
C536 H507 0.950 . S
C536 C535 1.395 . S
C536 C537 1.288 . S
C537 C536 1.288 . S
C537 C538 1.392 . S
C538 H508 0.951 . S
C538 C537 1.392 . S
C538 C539 1.392 . S
C539 H509 0.949 . S
C539 C534 1.382 . S
C539 C538 1.392 . S
H540 C559 0.949 . S
H541 C560 0.950 . S
H542 C562 0.950 . S
H543 C563 0.950 . S
H544 C565 0.950 . S
H545 C568 0.950 . S
H546 C569 0.950 . S
H547 C571 0.951 . S
H548 C572 0.949 . S
H549 C574 0.949 . S
H550 C575 0.950 . S
H551 C577 0.950 . S
H552 C578 0.950 . S
H553 C580 0.950 . S
H554 C583 0.950 . S
H555 C584 0.950 . S
H556 C586 0.951 . S
H557 C587 0.949 . S
C558 C559 1.376 . S
C558 C563 1.386 . S
C558 C564 1.483 . S
C559 H540 0.949 . S
C559 C558 1.376 . S
C559 C560 1.397 . S
C560 H541 0.950 . S
C560 C559 1.397 . S
C560 C561 1.391 . S
C561 C560 1.391 . S
C561 C562 1.405 . S
C562 H542 0.950 . S
C562 C561 1.405 . S
C562 C563 1.367 . S
C563 H543 0.950 . S
C563 C558 1.386 . S
C563 C562 1.367 . S
C564 C558 1.483 . S
C564 C565 1.382 . S
C564 C566 1.403 . S
C565 H544 0.950 . S
C565 C564 1.382 . S
C565 C581 1.411 . S
C566 C564 1.403 . S
C566 C567 1.489 . S
C566 C580 1.411 . S
C567 C566 1.489 . S
C567 C568 1.383 . S
C567 C572 1.382 . S
C568 H545 0.950 . S
C568 C567 1.383 . S
C568 C569 1.395 . S
C569 H546 0.950 . S
C569 C568 1.395 . S
C569 C570 1.288 . S
C570 C569 1.288 . S
C570 C571 1.392 . S
C571 H547 0.951 . S
C571 C570 1.392 . S
C571 C572 1.392 . S
C572 H548 0.949 . S
C572 C567 1.382 . S
C572 C571 1.392 . S
C573 C574 1.376 . S
C573 C578 1.386 . S
C573 C579 1.483 . S
C574 H549 0.949 . S
C574 C573 1.376 . S
C574 C575 1.397 . S
C575 H550 0.950 . S
C575 C574 1.397 . S
C575 C576 1.391 . S
C576 C575 1.391 . S
C576 C577 1.405 . S
C577 H551 0.950 . S
C577 C576 1.405 . S
C577 C578 1.367 . S
C578 H552 0.950 . S
C578 C573 1.386 . S
C578 C577 1.367 . S
C579 C573 1.483 . S
C579 C580 1.382 . S
C579 C581 1.403 . S
C580 H553 0.950 . S
C580 C566 1.411 . S
C580 C579 1.382 . S
C581 C565 1.411 . S
C581 C579 1.403 . S
C581 C582 1.489 . S
C582 C581 1.489 . S
C582 C583 1.383 . S
C582 C587 1.382 . S
C583 H554 0.950 . S
C583 C582 1.383 . S
C583 C584 1.395 . S
C584 H555 0.950 . S
C584 C583 1.395 . S
C584 C585 1.288 . S
C585 C584 1.288 . S
C585 C586 1.392 . S
C586 H556 0.951 . S
C586 C585 1.392 . S
C586 C587 1.392 . S
C587 H557 0.949 . S
C587 C582 1.382 . S
C587 C586 1.392 . S
H588 C607 0.949 . S
H589 C608 0.950 . S
H590 C610 0.950 . S
H591 C611 0.950 . S
H592 C613 0.950 . S
H593 C616 0.950 . S
H594 C617 0.950 . S
H595 C619 0.951 . S
H596 C620 0.949 . S
H597 C622 0.949 . S
H598 C623 0.950 . S
H599 C625 0.950 . S
H600 C626 0.950 . S
H601 C628 0.950 . S
H602 C631 0.950 . S
H603 C632 0.950 . S
H604 C634 0.951 . S
H605 C635 0.949 . S
C606 C607 1.376 . S
C606 C611 1.386 . S
C606 C612 1.483 . S
C607 H588 0.949 . S
C607 C606 1.376 . S
C607 C608 1.397 . S
C608 H589 0.950 . S
C608 C607 1.397 . S
C608 C609 1.391 . S
C609 C608 1.391 . S
C609 C610 1.405 . S
C610 H590 0.950 . S
C610 C609 1.405 . S
C610 C611 1.367 . S
C611 H591 0.950 . S
C611 C606 1.386 . S
C611 C610 1.367 . S
C612 C606 1.483 . S
C612 C613 1.382 . S
C612 C614 1.403 . S
C613 H592 0.950 . S
C613 C612 1.382 . S
C613 C629 1.411 . S
C614 C612 1.403 . S
C614 C615 1.489 . S
C614 C628 1.411 . S
C615 C614 1.489 . S
C615 C616 1.383 . S
C615 C620 1.382 . S
C616 H593 0.950 . S
C616 C615 1.383 . S
C616 C617 1.395 . S
C617 H594 0.950 . S
C617 C616 1.395 . S
C617 C618 1.288 . S
C618 C617 1.288 . S
C618 C619 1.392 . S
C619 H595 0.951 . S
C619 C618 1.392 . S
C619 C620 1.392 . S
C620 H596 0.949 . S
C620 C615 1.382 . S
C620 C619 1.392 . S
C621 C622 1.376 . S
C621 C626 1.386 . S
C621 C627 1.483 . S
C622 H597 0.949 . S
C622 C621 1.376 . S
C622 C623 1.397 . S
C623 H598 0.950 . S
C623 C622 1.397 . S
C623 C624 1.391 . S
C624 C623 1.391 . S
C624 C625 1.405 . S
C625 H599 0.950 . S
C625 C624 1.405 . S
C625 C626 1.367 . S
C626 H600 0.950 . S
C626 C621 1.386 . S
C626 C625 1.367 . S
C627 C621 1.483 . S
C627 C628 1.382 . S
C627 C629 1.403 . S
C628 H601 0.950 . S
C628 C614 1.411 . S
C628 C627 1.382 . S
C629 C613 1.411 . S
C629 C627 1.403 . S
C629 C630 1.489 . S
C630 C629 1.489 . S
C630 C631 1.383 . S
C630 C635 1.382 . S
C631 H602 0.950 . S
C631 C630 1.383 . S
C631 C632 1.395 . S
C632 H603 0.950 . S
C632 C631 1.395 . S
C632 C633 1.288 . S
C633 C632 1.288 . S
C633 C634 1.392 . S
C634 H604 0.951 . S
C634 C633 1.392 . S
C634 C635 1.392 . S
C635 H605 0.949 . S
C635 C630 1.382 . S
C635 C634 1.392 . S
H636 C655 0.949 . S
H637 C656 0.950 . S
H638 C658 0.950 . S
H639 C659 0.950 . S
H640 C661 0.950 . S
H641 C664 0.950 . S
H642 C665 0.950 . S
H643 C667 0.951 . S
H644 C668 0.949 . S
H645 C670 0.949 . S
H646 C671 0.950 . S
H647 C673 0.950 . S
H648 C674 0.950 . S
H649 C676 0.950 . S
H650 C679 0.950 . S
H651 C680 0.950 . S
H652 C682 0.951 . S
H653 C683 0.949 . S
C654 C655 1.376 . S
C654 C659 1.386 . S
C654 C660 1.483 . S
C655 H636 0.949 . S
C655 C654 1.376 . S
C655 C656 1.397 . S
C656 H637 0.950 . S
C656 C655 1.397 . S
C656 C657 1.391 . S
C657 C656 1.391 . S
C657 C658 1.405 . S
C658 H638 0.950 . S
C658 C657 1.405 . S
C658 C659 1.367 . S
C659 H639 0.950 . S
C659 C654 1.386 . S
C659 C658 1.367 . S
C660 C654 1.483 . S
C660 C661 1.382 . S
C660 C662 1.403 . S
C661 H640 0.950 . S
C661 C660 1.382 . S
C661 C677 1.411 . S
C662 C660 1.403 . S
C662 C663 1.489 . S
C662 C676 1.411 . S
C663 C662 1.489 . S
C663 C664 1.383 . S
C663 C668 1.382 . S
C664 H641 0.950 . S
C664 C663 1.383 . S
C664 C665 1.395 . S
C665 H642 0.950 . S
C665 C664 1.395 . S
C665 C666 1.288 . S
C666 C665 1.288 . S
C666 C667 1.392 . S
C667 H643 0.951 . S
C667 C666 1.392 . S
C667 C668 1.392 . S
C668 H644 0.949 . S
C668 C663 1.382 . S
C668 C667 1.392 . S
C669 C670 1.376 . S
C669 C674 1.386 . S
C669 C675 1.483 . S
C670 H645 0.949 . S
C670 C669 1.376 . S
C670 C671 1.397 . S
C671 H646 0.950 . S
C671 C670 1.397 . S
C671 C672 1.391 . S
C672 C671 1.391 . S
C672 C673 1.405 . S
C673 H647 0.950 . S
C673 C672 1.405 . S
C673 C674 1.367 . S
C674 H648 0.950 . S
C674 C669 1.386 . S
C674 C673 1.367 . S
C675 C669 1.483 . S
C675 C676 1.382 . S
C675 C677 1.403 . S
C676 H649 0.950 . S
C676 C662 1.411 . S
C676 C675 1.382 . S
C677 C661 1.411 . S
C677 C675 1.403 . S
C677 C678 1.489 . S
C678 C677 1.489 . S
C678 C679 1.383 . S
C678 C683 1.382 . S
C679 H650 0.950 . S
C679 C678 1.383 . S
C679 C680 1.395 . S
C680 H651 0.950 . S
C680 C679 1.395 . S
C680 C681 1.288 . S
C681 C680 1.288 . S
C681 C682 1.392 . S
C682 H652 0.951 . S
C682 C681 1.392 . S
C682 C683 1.392 . S
C683 H653 0.949 . S
C683 C678 1.382 . S
C683 C682 1.392 . S
H684 C703 0.949 . S
H685 C704 0.950 . S
H686 C706 0.950 . S
H687 C707 0.950 . S
H688 C709 0.950 . S
H689 C712 0.950 . S
H690 C713 0.950 . S
H691 C715 0.951 . S
H692 C716 0.949 . S
H693 C718 0.949 . S
H694 C719 0.950 . S
H695 C721 0.950 . S
H696 C722 0.950 . S
H697 C724 0.950 . S
H698 C727 0.950 . S
H699 C728 0.950 . S
H700 C730 0.951 . S
H701 C731 0.949 . S
C702 C703 1.376 . S
C702 C707 1.386 1_655 S
C702 C708 1.483 . S
C703 H684 0.949 . S
C703 C702 1.376 . S
C703 C704 1.397 . S
C704 H685 0.950 . S
C704 C703 1.397 . S
C704 C705 1.391 . S
C705 C704 1.391 . S
C705 C706 1.405 1_655 S
C706 H686 0.950 . S
C706 C705 1.405 1_455 S
C706 C707 1.367 . S
C707 H687 0.950 . S
C707 C702 1.386 1_455 S
C707 C706 1.367 . S
C708 C702 1.483 . S
C708 C709 1.382 . S
C708 C710 1.403 1_655 S
C709 H688 0.950 . S
C709 C708 1.382 . S
C709 C725 1.411 . S
C710 C708 1.403 1_455 S
C710 C711 1.489 . S
C710 C724 1.411 . S
C711 C710 1.489 . S
C711 C712 1.383 1_455 S
C711 C716 1.382 . S
C712 H689 0.950 . S
C712 C711 1.383 1_655 S
C712 C713 1.395 . S
C713 H690 0.950 . S
C713 C712 1.395 . S
C713 C714 1.288 1_655 S
C714 C713 1.288 1_455 S
C714 C715 1.392 . S
C715 H691 0.951 . S
C715 C714 1.392 . S
C715 C716 1.392 . S
C716 H692 0.949 . S
C716 C711 1.382 . S
C716 C715 1.392 . S
C717 C718 1.376 . S
C717 C722 1.386 1_455 S
C717 C723 1.483 . S
C718 H693 0.949 . S
C718 C717 1.376 . S
C718 C719 1.397 . S
C719 H694 0.950 . S
C719 C718 1.397 . S
C719 C720 1.391 . S
C720 C719 1.391 . S
C720 C721 1.405 1_455 S
C721 H695 0.950 . S
C721 C720 1.405 1_655 S
C721 C722 1.367 . S
C722 H696 0.950 . S
C722 C717 1.386 1_655 S
C722 C721 1.367 . S
C723 C717 1.483 . S
C723 C724 1.382 . S
C723 C725 1.403 1_455 S
C724 H697 0.950 . S
C724 C710 1.411 . S
C724 C723 1.382 . S
C725 C709 1.411 . S
C725 C723 1.403 1_655 S
C725 C726 1.489 . S
C726 C725 1.489 . S
C726 C727 1.383 1_655 S
C726 C731 1.382 . S
C727 H698 0.950 . S
C727 C726 1.383 1_455 S
C727 C728 1.395 . S
C728 H699 0.950 . S
C728 C727 1.395 . S
C728 C729 1.288 1_455 S
C729 C728 1.288 1_655 S
C729 C730 1.392 . S
C730 H700 0.951 . S
C730 C729 1.392 . S
C730 C731 1.392 . S
C731 H701 0.949 . S
C731 C726 1.382 . S
C731 C730 1.392 . S
H732 C751 0.949 . S
H733 C752 0.950 . S
H734 C754 0.950 . S
H735 C755 0.950 . S
H736 C757 0.950 . S
H737 C760 0.950 . S
H738 C761 0.950 . S
H739 C763 0.951 . S
H740 C764 0.949 . S
H741 C766 0.949 . S
H742 C767 0.950 . S
H743 C769 0.950 . S
H744 C770 0.950 . S
H745 C772 0.950 . S
H746 C775 0.950 . S
H747 C776 0.950 . S
H748 C778 0.951 . S
H749 C779 0.949 . S
C750 C751 1.376 . S
C750 C755 1.386 . S
C750 C756 1.483 . S
C751 H732 0.949 . S
C751 C750 1.376 . S
C751 C752 1.397 . S
C752 H733 0.950 . S
C752 C751 1.397 . S
C752 C753 1.391 . S
C753 C752 1.391 . S
C753 C754 1.405 . S
C754 H734 0.950 . S
C754 C753 1.405 . S
C754 C755 1.367 . S
C755 H735 0.950 . S
C755 C750 1.386 . S
C755 C754 1.367 . S
C756 C750 1.483 . S
C756 C757 1.382 . S
C756 C758 1.403 . S
C757 H736 0.950 . S
C757 C756 1.382 . S
C757 C773 1.411 . S
C758 C756 1.403 . S
C758 C759 1.489 . S
C758 C772 1.411 . S
C759 C758 1.489 . S
C759 C760 1.383 . S
C759 C764 1.382 . S
C760 H737 0.950 . S
C760 C759 1.383 . S
C760 C761 1.395 . S
C761 H738 0.950 . S
C761 C760 1.395 . S
C761 C762 1.288 . S
C762 C761 1.288 . S
C762 C763 1.392 . S
C763 H739 0.951 . S
C763 C762 1.392 . S
C763 C764 1.392 . S
C764 H740 0.949 . S
C764 C759 1.382 . S
C764 C763 1.392 . S
C765 C766 1.376 . S
C765 C770 1.386 . S
C765 C771 1.483 . S
C766 H741 0.949 . S
C766 C765 1.376 . S
C766 C767 1.397 . S
C767 H742 0.950 . S
C767 C766 1.397 . S
C767 C768 1.391 . S
C768 C767 1.391 . S
C768 C769 1.405 . S
C769 H743 0.950 . S
C769 C768 1.405 . S
C769 C770 1.367 . S
C770 H744 0.950 . S
C770 C765 1.386 . S
C770 C769 1.367 . S
C771 C765 1.483 . S
C771 C772 1.382 . S
C771 C773 1.403 . S
C772 H745 0.950 . S
C772 C758 1.411 . S
C772 C771 1.382 . S
C773 C757 1.411 . S
C773 C771 1.403 . S
C773 C774 1.489 . S
C774 C773 1.489 . S
C774 C775 1.383 . S
C774 C779 1.382 . S
C775 H746 0.950 . S
C775 C774 1.383 . S
C775 C776 1.395 . S
C776 H747 0.950 . S
C776 C775 1.395 . S
C776 C777 1.288 . S
C777 C776 1.288 . S
C777 C778 1.392 . S
C778 H748 0.951 . S
C778 C777 1.392 . S
C778 C779 1.392 . S
C779 H749 0.949 . S
C779 C774 1.382 . S
C779 C778 1.392 . S
H780 C799 0.949 . S
H781 C800 0.950 . S
H782 C802 0.950 . S
H783 C803 0.950 . S
H784 C805 0.950 . S
H785 C808 0.950 . S
H786 C809 0.950 . S
H787 C811 0.951 . S
H788 C812 0.949 . S
H789 C814 0.949 . S
H790 C815 0.950 . S
H791 C817 0.950 . S
H792 C818 0.950 . S
H793 C820 0.950 . S
H794 C823 0.950 . S
H795 C824 0.950 . S
H796 C826 0.951 . S
H797 C827 0.949 . S
C798 C799 1.376 . S
C798 C803 1.386 1_545 S
C798 C804 1.483 . S
C799 H780 0.949 . S
C799 C798 1.376 . S
C799 C800 1.397 . S
C800 H781 0.950 . S
C800 C799 1.397 . S
C800 C801 1.391 . S
C801 C800 1.391 . S
C801 C802 1.405 1_545 S
C802 H782 0.950 . S
C802 C801 1.405 1_565 S
C802 C803 1.367 . S
C803 H783 0.950 . S
C803 C798 1.386 1_565 S
C803 C802 1.367 . S
C804 C798 1.483 . S
C804 C805 1.382 . S
C804 C806 1.403 1_545 S
C805 H784 0.950 . S
C805 C804 1.382 . S
C805 C821 1.411 . S
C806 C804 1.403 1_565 S
C806 C807 1.489 . S
C806 C820 1.411 . S
C807 C806 1.489 . S
C807 C808 1.383 1_565 S
C807 C812 1.382 . S
C808 H785 0.950 . S
C808 C807 1.383 1_545 S
C808 C809 1.395 . S
C809 H786 0.950 . S
C809 C808 1.395 . S
C809 C810 1.288 1_545 S
C810 C809 1.288 1_565 S
C810 C811 1.392 . S
C811 H787 0.951 . S
C811 C810 1.392 . S
C811 C812 1.392 . S
C812 H788 0.949 . S
C812 C807 1.382 . S
C812 C811 1.392 . S
C813 C814 1.376 . S
C813 C818 1.386 1_565 S
C813 C819 1.483 . S
C814 H789 0.949 . S
C814 C813 1.376 . S
C814 C815 1.397 . S
C815 H790 0.950 . S
C815 C814 1.397 . S
C815 C816 1.391 . S
C816 C815 1.391 . S
C816 C817 1.405 1_565 S
C817 H791 0.950 . S
C817 C816 1.405 1_545 S
C817 C818 1.367 . S
C818 H792 0.950 . S
C818 C813 1.386 1_545 S
C818 C817 1.367 . S
C819 C813 1.483 . S
C819 C820 1.382 . S
C819 C821 1.403 1_565 S
C820 H793 0.950 . S
C820 C806 1.411 . S
C820 C819 1.382 . S
C821 C805 1.411 . S
C821 C819 1.403 1_545 S
C821 C822 1.489 . S
C822 C821 1.489 . S
C822 C823 1.383 1_545 S
C822 C827 1.382 . S
C823 H794 0.950 . S
C823 C822 1.383 1_565 S
C823 C824 1.395 . S
C824 H795 0.950 . S
C824 C823 1.395 . S
C824 C825 1.288 1_565 S
C825 C824 1.288 1_545 S
C825 C826 1.392 . S
C826 H796 0.951 . S
C826 C825 1.392 . S
C826 C827 1.392 . S
C827 H797 0.949 . S
C827 C822 1.382 . S
C827 C826 1.392 . S
H828 C847 0.949 . S
H829 C848 0.950 . S
H830 C850 0.950 . S
H831 C851 0.950 . S
H832 C853 0.950 . S
H833 C856 0.950 . S
H834 C857 0.950 . S
H835 C859 0.951 . S
H836 C860 0.949 . S
H837 C862 0.949 . S
H838 C863 0.950 . S
H839 C865 0.950 . S
H840 C866 0.950 . S
H841 C868 0.950 . S
H842 C871 0.950 . S
H843 C872 0.950 . S
H844 C874 0.951 . S
H845 C875 0.949 . S
C846 C847 1.396 . S
C846 C851 1.377 1_545 S
C846 C852 1.472 . S
C847 H828 0.949 . S
C847 C846 1.396 . S
C847 C848 1.397 . S
C848 H829 0.950 . S
C848 C847 1.397 . S
C848 C849 1.391 1_545 S
C849 C848 1.391 1_565 S
C849 C850 1.405 . S
C850 H830 0.950 . S
C850 C849 1.405 . S
C850 C851 1.367 . S
C851 H831 0.950 . S
C851 C846 1.377 1_565 S
C851 C850 1.367 . S
C852 C846 1.472 . S
C852 C853 1.382 . S
C852 C854 1.401 1_545 S
C853 H832 0.950 . S
C853 C852 1.382 . S
C853 C869 1.411 . S
C854 C852 1.401 1_565 S
C854 C855 1.482 . S
C854 C868 1.436 . S
C855 C854 1.482 . S
C855 C856 1.352 1_565 S
C855 C860 1.398 . S
C856 H833 0.950 . S
C856 C855 1.352 1_545 S
C856 C857 1.395 . S
C857 H834 0.950 . S
C857 C856 1.395 . S
C857 C858 1.288 . S
C858 C857 1.288 . S
C858 C859 1.392 1_545 S
C859 H835 0.951 . S
C859 C858 1.392 1_565 S
C859 C860 1.392 . S
C860 H836 0.949 . S
C860 C855 1.398 . S
C860 C859 1.392 . S
C861 C862 1.386 . S
C861 C866 1.382 1_565 S
C861 C867 1.501 . S
C862 H837 0.949 . S
C862 C861 1.386 . S
C862 C863 1.397 . S
C863 H838 0.950 . S
C863 C862 1.397 . S
C863 C864 1.391 1_565 S
C864 C863 1.391 1_545 S
C864 C865 1.405 . S
C865 H839 0.950 . S
C865 C864 1.405 . S
C865 C866 1.367 . S
C866 H840 0.950 . S
C866 C861 1.382 1_545 S
C866 C865 1.367 . S
C867 C861 1.501 . S
C867 C868 1.358 . S
C867 C869 1.401 1_565 S
C868 H841 0.950 . S
C868 C854 1.436 . S
C868 C867 1.358 . S
C869 C853 1.411 . S
C869 C867 1.401 1_545 S
C869 C870 1.510 . S
C870 C869 1.510 . S
C870 C871 1.339 1_545 S
C870 C875 1.405 . S
C871 H842 0.950 . S
C871 C870 1.339 1_565 S
C871 C872 1.395 . S
C872 H843 0.950 . S
C872 C871 1.395 . S
C872 C873 1.288 . S
C873 C872 1.288 . S
C873 C874 1.392 1_565 S
C874 H844 0.951 . S
C874 C873 1.392 1_545 S
C874 C875 1.392 . S
C875 H845 0.949 . S
C875 C870 1.405 . S
C875 C874 1.392 . S
H876 C895 0.949 . S
H877 C896 0.950 . S
H878 C898 0.950 . S
H879 C899 0.950 . S
H880 C901 0.950 . S
H881 C904 0.950 . S
H882 C905 0.950 . S
H883 C907 0.951 . S
H884 C908 0.949 . S
H885 C910 0.949 . S
H886 C911 0.950 . S
H887 C913 0.950 . S
H888 C914 0.950 . S
H889 C916 0.950 . S
H890 C919 0.950 . S
H891 C920 0.950 . S
H892 C922 0.951 . S
H893 C923 0.949 . S
C894 C895 1.376 . S
C894 C899 1.386 1_455 S
C894 C900 1.483 . S
C895 H876 0.949 . S
C895 C894 1.376 . S
C895 C896 1.397 . S
C896 H877 0.950 . S
C896 C895 1.397 . S
C896 C897 1.391 . S
C897 C896 1.391 . S
C897 C898 1.405 1_455 S
C898 H878 0.950 . S
C898 C897 1.405 1_655 S
C898 C899 1.367 . S
C899 H879 0.950 . S
C899 C894 1.386 1_655 S
C899 C898 1.367 . S
C900 C894 1.483 . S
C900 C901 1.382 . S
C900 C902 1.403 1_455 S
C901 H880 0.950 . S
C901 C900 1.382 . S
C901 C917 1.411 . S
C902 C900 1.403 1_655 S
C902 C903 1.489 . S
C902 C916 1.411 . S
C903 C902 1.489 . S
C903 C904 1.383 1_655 S
C903 C908 1.382 . S
C904 H881 0.950 . S
C904 C903 1.383 1_455 S
C904 C905 1.395 . S
C905 H882 0.950 . S
C905 C904 1.395 . S
C905 C906 1.288 1_455 S
C906 C905 1.288 1_655 S
C906 C907 1.392 . S
C907 H883 0.951 . S
C907 C906 1.392 . S
C907 C908 1.392 . S
C908 H884 0.949 . S
C908 C903 1.382 . S
C908 C907 1.392 . S
C909 C910 1.376 . S
C909 C914 1.386 1_655 S
C909 C915 1.483 . S
C910 H885 0.949 . S
C910 C909 1.376 . S
C910 C911 1.397 . S
C911 H886 0.950 . S
C911 C910 1.397 . S
C911 C912 1.391 . S
C912 C911 1.391 . S
C912 C913 1.405 1_655 S
C913 H887 0.950 . S
C913 C912 1.405 1_455 S
C913 C914 1.367 . S
C914 H888 0.950 . S
C914 C909 1.386 1_455 S
C914 C913 1.367 . S
C915 C909 1.483 . S
C915 C916 1.382 . S
C915 C917 1.403 1_655 S
C916 H889 0.950 . S
C916 C902 1.411 . S
C916 C915 1.382 . S
C917 C901 1.411 . S
C917 C915 1.403 1_455 S
C917 C918 1.489 . S
C918 C917 1.489 . S
C918 C919 1.383 1_455 S
C918 C923 1.382 . S
C919 H890 0.950 . S
C919 C918 1.383 1_655 S
C919 C920 1.395 . S
C920 H891 0.950 . S
C920 C919 1.395 . S
C920 C921 1.288 1_655 S
C921 C920 1.288 1_455 S
C921 C922 1.392 . S
C922 H892 0.951 . S
C922 C921 1.392 . S
C922 C923 1.392 . S
C923 H893 0.949 . S
C923 C918 1.382 . S
C923 C922 1.392 . S
H924 C943 0.949 . S
H925 C944 0.950 . S
H926 C946 0.950 . S
H927 C947 0.950 . S
H928 C949 0.950 . S
H929 C952 0.950 . S
H930 C953 0.950 . S
H931 C955 0.951 . S
H932 C956 0.949 . S
H933 C958 0.949 . S
H934 C959 0.950 . S
H935 C961 0.950 . S
H936 C962 0.950 . S
H937 C964 0.950 . S
H938 C967 0.950 . S
H939 C968 0.950 . S
H940 C970 0.951 . S
H941 C971 0.949 . S
C942 C943 1.376 . S
C942 C947 1.386 . S
C942 C948 1.483 . S
C943 H924 0.949 . S
C943 C942 1.376 . S
C943 C944 1.397 . S
C944 H925 0.950 . S
C944 C943 1.397 . S
C944 C945 1.391 . S
C945 C944 1.391 . S
C945 C946 1.405 . S
C946 H926 0.950 . S
C946 C945 1.405 . S
C946 C947 1.367 . S
C947 H927 0.950 . S
C947 C942 1.386 . S
C947 C946 1.367 . S
C948 C942 1.483 . S
C948 C949 1.382 . S
C948 C950 1.403 . S
C949 H928 0.950 . S
C949 C948 1.382 . S
C949 C965 1.411 . S
C950 C948 1.403 . S
C950 C951 1.489 . S
C950 C964 1.411 . S
C951 C950 1.489 . S
C951 C952 1.383 . S
C951 C956 1.382 . S
C952 H929 0.950 . S
C952 C951 1.383 . S
C952 C953 1.395 . S
C953 H930 0.950 . S
C953 C952 1.395 . S
C953 C954 1.288 . S
C954 C953 1.288 . S
C954 C955 1.392 . S
C955 H931 0.951 . S
C955 C954 1.392 . S
C955 C956 1.392 . S
C956 H932 0.949 . S
C956 C951 1.382 . S
C956 C955 1.392 . S
C957 C958 1.376 . S
C957 C962 1.386 . S
C957 C963 1.483 . S
C958 H933 0.949 . S
C958 C957 1.376 . S
C958 C959 1.397 . S
C959 H934 0.950 . S
C959 C958 1.397 . S
C959 C960 1.391 . S
C960 C959 1.391 . S
C960 C961 1.405 . S
C961 H935 0.950 . S
C961 C960 1.405 . S
C961 C962 1.367 . S
C962 H936 0.950 . S
C962 C957 1.386 . S
C962 C961 1.367 . S
C963 C957 1.483 . S
C963 C964 1.382 . S
C963 C965 1.403 . S
C964 H937 0.950 . S
C964 C950 1.411 . S
C964 C963 1.382 . S
C965 C949 1.411 . S
C965 C963 1.403 . S
C965 C966 1.489 . S
C966 C965 1.489 . S
C966 C967 1.383 . S
C966 C971 1.382 . S
C967 H938 0.950 . S
C967 C966 1.383 . S
C967 C968 1.395 . S
C968 H939 0.950 . S
C968 C967 1.395 . S
C968 C969 1.288 . S
C969 C968 1.288 . S
C969 C970 1.392 . S
C970 H940 0.951 . S
C970 C969 1.392 . S
C970 C971 1.392 . S
C971 H941 0.949 . S
C971 C966 1.382 . S
C971 C970 1.392 . S
H972 C991 0.949 . S
H973 C992 0.950 . S
H974 C994 0.950 . S
H975 C995 0.950 . S
H976 C997 0.950 . S
H977 C1000 0.950 . S
H978 C1001 0.950 . S
H979 C1003 0.951 . S
H980 C1004 0.949 . S
H981 C1006 0.949 . S
H982 C1007 0.950 . S
H983 C1009 0.950 . S
H984 C1010 0.950 . S
H985 C1012 0.950 . S
H986 C1015 0.950 . S
H987 C1016 0.950 . S
H988 C1018 0.951 . S
H989 C1019 0.949 . S
C990 C991 1.376 . S
C990 C995 1.386 . S
C990 C996 1.483 . S
C991 H972 0.949 . S
C991 C990 1.376 . S
C991 C992 1.397 . S
C992 H973 0.950 . S
C992 C991 1.397 . S
C992 C993 1.391 . S
C993 C992 1.391 . S
C993 C994 1.405 . S
C994 H974 0.950 . S
C994 C993 1.405 . S
C994 C995 1.367 . S
C995 H975 0.950 . S
C995 C990 1.386 . S
C995 C994 1.367 . S
C996 C990 1.483 . S
C996 C997 1.382 . S
C996 C998 1.403 . S
C997 H976 0.950 . S
C997 C996 1.382 . S
C997 C1013 1.411 . S
C998 C996 1.403 . S
C998 C999 1.489 . S
C998 C1012 1.411 . S
C999 C998 1.489 . S
C999 C1000 1.383 . S
C999 C1004 1.382 . S
C1000 H977 0.950 . S
C1000 C999 1.383 . S
C1000 C1001 1.395 . S
C1001 H978 0.950 . S
C1001 C1000 1.395 . S
C1001 C1002 1.288 . S
C1002 C1001 1.288 . S
C1002 C1003 1.392 . S
C1003 H979 0.951 . S
C1003 C1002 1.392 . S
C1003 C1004 1.392 . S
C1004 H980 0.949 . S
C1004 C999 1.382 . S
C1004 C1003 1.392 . S
C1005 C1006 1.376 . S
C1005 C1010 1.386 . S
C1005 C1011 1.483 . S
C1006 H981 0.949 . S
C1006 C1005 1.376 . S
C1006 C1007 1.397 . S
C1007 H982 0.950 . S
C1007 C1006 1.397 . S
C1007 C1008 1.391 . S
C1008 C1007 1.391 . S
C1008 C1009 1.405 . S
C1009 H983 0.950 . S
C1009 C1008 1.405 . S
C1009 C1010 1.367 . S
C1010 H984 0.950 . S
C1010 C1005 1.386 . S
C1010 C1009 1.367 . S
C1011 C1005 1.483 . S
C1011 C1012 1.382 . S
C1011 C1013 1.403 . S
C1012 H985 0.950 . S
C1012 C998 1.411 . S
C1012 C1011 1.382 . S
C1013 C997 1.411 . S
C1013 C1011 1.403 . S
C1013 C1014 1.489 . S
C1014 C1013 1.489 . S
C1014 C1015 1.383 . S
C1014 C1019 1.382 . S
C1015 H986 0.950 . S
C1015 C1014 1.383 . S
C1015 C1016 1.395 . S
C1016 H987 0.950 . S
C1016 C1015 1.395 . S
C1016 C1017 1.288 . S
C1017 C1016 1.288 . S
C1017 C1018 1.392 . S
C1018 H988 0.951 . S
C1018 C1017 1.392 . S
C1018 C1019 1.392 . S
C1019 H989 0.949 . S
C1019 C1014 1.382 . S
C1019 C1018 1.392 . S
H1020 C1039 0.949 . S
H1021 C1040 0.950 . S
H1022 C1042 0.950 . S
H1023 C1043 0.950 . S
H1024 C1045 0.950 . S
H1025 C1048 0.950 . S
H1026 C1049 0.950 . S
H1027 C1051 0.951 . S
H1028 C1052 0.949 . S
H1029 C1054 0.949 . S
H1030 C1055 0.950 . S
H1031 C1057 0.950 . S
H1032 C1058 0.950 . S
H1033 C1060 0.950 . S
H1034 C1063 0.950 . S
H1035 C1064 0.950 . S
H1036 C1066 0.951 . S
H1037 C1067 0.949 . S
C1038 C1039 1.376 . S
C1038 C1043 1.386 . S
C1038 C1044 1.483 . S
C1039 H1020 0.949 . S
C1039 C1038 1.376 . S
C1039 C1040 1.397 . S
C1040 H1021 0.950 . S
C1040 C1039 1.397 . S
C1040 C1041 1.391 . S
C1041 C1040 1.391 . S
C1041 C1042 1.405 . S
C1042 H1022 0.950 . S
C1042 C1041 1.405 . S
C1042 C1043 1.367 . S
C1043 H1023 0.950 . S
C1043 C1038 1.386 . S
C1043 C1042 1.367 . S
C1044 C1038 1.483 . S
C1044 C1045 1.382 . S
C1044 C1046 1.403 . S
C1045 H1024 0.950 . S
C1045 C1044 1.382 . S
C1045 C1061 1.411 . S
C1046 C1044 1.403 . S
C1046 C1047 1.489 . S
C1046 C1060 1.411 . S
C1047 C1046 1.489 . S
C1047 C1048 1.383 . S
C1047 C1052 1.382 . S
C1048 H1025 0.950 . S
C1048 C1047 1.383 . S
C1048 C1049 1.395 . S
C1049 H1026 0.950 . S
C1049 C1048 1.395 . S
C1049 C1050 1.288 . S
C1050 C1049 1.288 . S
C1050 C1051 1.392 . S
C1051 H1027 0.951 . S
C1051 C1050 1.392 . S
C1051 C1052 1.392 . S
C1052 H1028 0.949 . S
C1052 C1047 1.382 . S
C1052 C1051 1.392 . S
C1053 C1054 1.376 . S
C1053 C1058 1.386 . S
C1053 C1059 1.483 . S
C1054 H1029 0.949 . S
C1054 C1053 1.376 . S
C1054 C1055 1.397 . S
C1055 H1030 0.950 . S
C1055 C1054 1.397 . S
C1055 C1056 1.391 . S
C1056 C1055 1.391 . S
C1056 C1057 1.405 . S
C1057 H1031 0.950 . S
C1057 C1056 1.405 . S
C1057 C1058 1.367 . S
C1058 H1032 0.950 . S
C1058 C1053 1.386 . S
C1058 C1057 1.367 . S
C1059 C1053 1.483 . S
C1059 C1060 1.382 . S
C1059 C1061 1.403 . S
C1060 H1033 0.950 . S
C1060 C1046 1.411 . S
C1060 C1059 1.382 . S
C1061 C1045 1.411 . S
C1061 C1059 1.403 . S
C1061 C1062 1.489 . S
C1062 C1061 1.489 . S
C1062 C1063 1.383 . S
C1062 C1067 1.382 . S
C1063 H1034 0.950 . S
C1063 C1062 1.383 . S
C1063 C1064 1.395 . S
C1064 H1035 0.950 . S
C1064 C1063 1.395 . S
C1064 C1065 1.288 . S
C1065 C1064 1.288 . S
C1065 C1066 1.392 . S
C1066 H1036 0.951 . S
C1066 C1065 1.392 . S
C1066 C1067 1.392 . S
C1067 H1037 0.949 . S
C1067 C1062 1.382 . S
C1067 C1066 1.392 . S
H1068 C1087 0.949 . S
H1069 C1088 0.950 . S
H1070 C1090 0.950 . S
H1071 C1091 0.950 . S
H1072 C1093 0.950 . S
H1073 C1096 0.950 . S
H1074 C1097 0.950 . S
H1075 C1099 0.951 . S
H1076 C1100 0.949 . S
H1077 C1102 0.949 . S
H1078 C1103 0.950 . S
H1079 C1105 0.950 . S
H1080 C1106 0.950 . S
H1081 C1108 0.950 . S
H1082 C1111 0.950 . S
H1083 C1112 0.950 . S
H1084 C1114 0.951 . S
H1085 C1115 0.949 . S
C1086 C1087 1.376 . S
C1086 C1091 1.386 . S
C1086 C1092 1.483 . S
C1087 H1068 0.949 . S
C1087 C1086 1.376 . S
C1087 C1088 1.397 . S
C1088 H1069 0.950 . S
C1088 C1087 1.397 . S
C1088 C1089 1.391 . S
C1089 C1088 1.391 . S
C1089 C1090 1.405 . S
C1090 H1070 0.950 . S
C1090 C1089 1.405 . S
C1090 C1091 1.367 . S
C1091 H1071 0.950 . S
C1091 C1086 1.386 . S
C1091 C1090 1.367 . S
C1092 C1086 1.483 . S
C1092 C1093 1.382 . S
C1092 C1094 1.403 . S
C1093 H1072 0.950 . S
C1093 C1092 1.382 . S
C1093 C1109 1.411 . S
C1094 C1092 1.403 . S
C1094 C1095 1.489 . S
C1094 C1108 1.411 . S
C1095 C1094 1.489 . S
C1095 C1096 1.383 . S
C1095 C1100 1.382 . S
C1096 H1073 0.950 . S
C1096 C1095 1.383 . S
C1096 C1097 1.395 . S
C1097 H1074 0.950 . S
C1097 C1096 1.395 . S
C1097 C1098 1.288 . S
C1098 C1097 1.288 . S
C1098 C1099 1.392 . S
C1099 H1075 0.951 . S
C1099 C1098 1.392 . S
C1099 C1100 1.392 . S
C1100 H1076 0.949 . S
C1100 C1095 1.382 . S
C1100 C1099 1.392 . S
C1101 C1102 1.376 . S
C1101 C1106 1.386 . S
C1101 C1107 1.483 . S
C1102 H1077 0.949 . S
C1102 C1101 1.376 . S
C1102 C1103 1.397 . S
C1103 H1078 0.950 . S
C1103 C1102 1.397 . S
C1103 C1104 1.391 . S
C1104 C1103 1.391 . S
C1104 C1105 1.405 . S
C1105 H1079 0.950 . S
C1105 C1104 1.405 . S
C1105 C1106 1.367 . S
C1106 H1080 0.950 . S
C1106 C1101 1.386 . S
C1106 C1105 1.367 . S
C1107 C1101 1.483 . S
C1107 C1108 1.382 . S
C1107 C1109 1.403 . S
C1108 H1081 0.950 . S
C1108 C1094 1.411 . S
C1108 C1107 1.382 . S
C1109 C1093 1.411 . S
C1109 C1107 1.403 . S
C1109 C1110 1.489 . S
C1110 C1109 1.489 . S
C1110 C1111 1.383 . S
C1110 C1115 1.382 . S
C1111 H1082 0.950 . S
C1111 C1110 1.383 . S
C1111 C1112 1.395 . S
C1112 H1083 0.950 . S
C1112 C1111 1.395 . S
C1112 C1113 1.288 . S
C1113 C1112 1.288 . S
C1113 C1114 1.392 . S
C1114 H1084 0.951 . S
C1114 C1113 1.392 . S
C1114 C1115 1.392 . S
C1115 H1085 0.949 . S
C1115 C1110 1.382 . S
C1115 C1114 1.392 . S
C1116 C1117 1.363 . S
C1116 C1122 1.379 . S
C1116 N1124 1.356 . S
C1117 C1116 1.363 . S
C1117 C1123 1.363 1_655 S
C1118 C1119 1.363 1_455 S
C1118 C1123 1.379 . S
C1118 N1125 1.356 . S
C1119 C1118 1.363 1_655 S
C1119 C1122 1.363 . S
N1120 C1122 1.356 . S
N1120 H1132 0.984 . S
N1120 H1133 0.985 . S
N1121 C1123 1.356 . S
N1121 H1126 0.984 . S
N1121 H1127 0.985 . S
C1122 C1116 1.379 . S
C1122 C1119 1.363 . S
C1122 N1120 1.356 . S
C1123 C1117 1.363 1_455 S
C1123 C1118 1.379 . S
C1123 N1121 1.356 . S
N1124 C1116 1.356 . S
N1124 H1130 0.984 . S
N1124 H1131 0.984 . S
N1125 C1118 1.356 . S
N1125 H1128 0.984 . S
N1125 H1129 0.985 . S
H1126 N1121 0.984 . S
H1127 N1121 0.985 . S
H1128 N1125 0.984 . S
H1129 N1125 0.985 . S
H1130 N1124 0.984 . S
H1131 N1124 0.984 . S
H1132 N1120 0.984 . S
H1133 N1120 0.985 . S
C1134 C1135 1.363 . S
C1134 C1140 1.379 . S
C1134 N1142 1.356 . S
C1135 C1134 1.363 . S
C1135 C1141 1.363 . S
C1136 C1137 1.363 . S
C1136 C1141 1.379 . S
C1136 N1143 1.356 . S
C1137 C1136 1.363 . S
C1137 C1140 1.363 . S
N1138 C1140 1.356 . S
N1138 H1150 0.984 . S
N1138 H1151 0.985 . S
N1139 C1141 1.356 . S
N1139 H1144 0.984 . S
N1139 H1145 0.985 . S
C1140 C1134 1.379 . S
C1140 C1137 1.363 . S
C1140 N1138 1.356 . S
C1141 C1135 1.363 . S
C1141 C1136 1.379 . S
C1141 N1139 1.356 . S
N1142 C1134 1.356 . S
N1142 H1148 0.984 . S
N1142 H1149 0.984 . S
N1143 C1136 1.356 . S
N1143 H1146 0.984 . S
N1143 H1147 0.985 . S
H1144 N1139 0.984 . S
H1145 N1139 0.985 . S
H1146 N1143 0.984 . S
H1147 N1143 0.985 . S
H1148 N1142 0.984 . S
H1149 N1142 0.984 . S
H1150 N1138 0.984 . S
H1151 N1138 0.985 . S
C1152 C1153 1.363 1_565 S
C1152 C1158 1.379 . S
C1152 N1160 1.356 . S
C1153 C1152 1.363 1_545 S
C1153 C1159 1.363 . S
C1154 C1155 1.363 . S
C1154 C1159 1.379 . S
C1154 N1161 1.356 . S
C1155 C1154 1.363 . S
C1155 C1158 1.363 1_545 S
N1156 C1158 1.356 . S
N1156 H1168 0.984 . S
N1156 H1169 0.985 . S
N1157 C1159 1.356 . S
N1157 H1162 0.984 . S
N1157 H1163 0.985 . S
C1158 C1152 1.379 . S
C1158 C1155 1.363 1_565 S
C1158 N1156 1.356 . S
C1159 C1153 1.363 . S
C1159 C1154 1.379 . S
C1159 N1157 1.356 . S
N1160 C1152 1.356 . S
N1160 H1166 0.984 . S
N1160 H1167 0.984 . S
N1161 C1154 1.356 . S
N1161 H1164 0.984 . S
N1161 H1165 0.985 . S
H1162 N1157 0.984 . S
H1163 N1157 0.985 . S
H1164 N1161 0.984 . S
H1165 N1161 0.985 . S
H1166 N1160 0.984 . S
H1167 N1160 0.984 . S
H1168 N1156 0.984 . S
H1169 N1156 0.985 . S
C1170 C1171 1.363 1_545 S
C1170 C1176 1.379 . S
C1170 N1178 1.356 . S
C1171 C1170 1.363 1_565 S
C1171 C1177 1.363 . S
C1172 C1173 1.363 . S
C1172 C1177 1.379 . S
C1172 N1179 1.356 . S
C1173 C1172 1.363 . S
C1173 C1176 1.363 1_565 S
N1174 C1176 1.356 . S
N1174 H1186 0.984 . S
N1174 H1187 0.985 . S
N1175 C1177 1.356 . S
N1175 H1180 0.984 . S
N1175 H1181 0.985 . S
C1176 C1170 1.379 . S
C1176 C1173 1.363 1_545 S
C1176 N1174 1.356 . S
C1177 C1171 1.363 . S
C1177 C1172 1.379 . S
C1177 N1175 1.356 . S
N1178 C1170 1.356 . S
N1178 H1184 0.984 . S
N1178 H1185 0.984 . S
N1179 C1172 1.356 . S
N1179 H1182 0.984 . S
N1179 H1183 0.985 . S
H1180 N1175 0.984 . S
H1181 N1175 0.985 . S
H1182 N1179 0.984 . S
H1183 N1179 0.985 . S
H1184 N1178 0.984 . S
H1185 N1178 0.984 . S
H1186 N1174 0.984 . S
H1187 N1174 0.985 . S
C1188 C1189 1.363 . S
C1188 C1194 1.379 . S
C1188 N1196 1.356 . S
C1189 C1188 1.363 . S
C1189 C1195 1.363 . S
C1190 C1191 1.363 . S
C1190 C1195 1.379 . S
C1190 N1197 1.356 . S
C1191 C1190 1.363 . S
C1191 C1194 1.363 . S
N1192 C1194 1.356 . S
N1192 H1204 0.977 1_455 S
N1192 H1205 0.985 . S
N1193 C1195 1.356 . S
N1193 H1198 0.984 . S
N1193 H1199 0.985 . S
C1194 C1188 1.379 . S
C1194 C1191 1.363 . S
C1194 N1192 1.356 . S
C1195 C1189 1.363 . S
C1195 C1190 1.379 . S
C1195 N1193 1.356 . S
N1196 C1188 1.356 . S
N1196 H1202 0.988 1_455 S
N1196 H1203 0.984 . S
N1197 C1190 1.356 . S
N1197 H1200 0.984 . S
N1197 H1201 0.985 . S
H1198 N1193 0.984 . S
H1199 N1193 0.985 . S
H1200 N1197 0.984 . S
H1201 N1197 0.985 . S
H1202 N1196 0.988 1_655 S
H1203 N1196 0.984 . S
H1204 N1192 0.977 1_655 S
H1205 N1192 0.985 . S
C1206 C1207 1.363 . S
C1206 C1212 1.379 . S
C1206 N1214 1.356 . S
C1207 C1206 1.363 . S
C1207 C1213 1.363 . S
C1208 C1209 1.363 . S
C1208 C1213 1.379 . S
C1208 N1215 1.356 . S
C1209 C1208 1.363 . S
C1209 C1212 1.363 . S
N1210 C1212 1.356 . S
N1210 H1222 0.984 . S
N1210 H1223 0.985 . S
N1211 C1213 1.356 . S
N1211 H1216 0.984 . S
N1211 H1217 0.985 . S
C1212 C1206 1.379 . S
C1212 C1209 1.363 . S
C1212 N1210 1.356 . S
C1213 C1207 1.363 . S
C1213 C1208 1.379 . S
C1213 N1211 1.356 . S
N1214 C1206 1.356 . S
N1214 H1220 0.984 . S
N1214 H1221 0.984 . S
N1215 C1208 1.356 . S
N1215 H1218 0.984 . S
N1215 H1219 0.985 . S
H1216 N1211 0.984 . S
H1217 N1211 0.985 . S
H1218 N1215 0.984 . S
H1219 N1215 0.985 . S
H1220 N1214 0.984 . S
H1221 N1214 0.984 . S
H1222 N1210 0.984 . S
H1223 N1210 0.985 . S
C1224 C1225 1.363 1_655 S
C1224 C1230 1.379 . S
C1224 N1232 1.356 . S
C1225 C1224 1.363 1_455 S
C1225 C1231 1.363 . S
C1226 C1227 1.363 . S
C1226 C1231 1.379 . S
C1226 N1233 1.356 . S
C1227 C1226 1.363 . S
C1227 C1230 1.363 1_455 S
N1228 C1230 1.356 . S
N1228 H1240 0.984 . S
N1228 H1241 0.985 . S
N1229 C1231 1.356 . S
N1229 H1234 0.984 . S
N1229 H1235 0.985 . S
C1230 C1224 1.379 . S
C1230 C1227 1.363 1_655 S
C1230 N1228 1.356 . S
C1231 C1225 1.363 . S
C1231 C1226 1.379 . S
C1231 N1229 1.356 . S
N1232 C1224 1.356 . S
N1232 H1238 0.984 . S
N1232 H1239 0.984 . S
N1233 C1226 1.356 . S
N1233 H1236 0.984 . S
N1233 H1237 0.985 . S
H1234 N1229 0.984 . S
H1235 N1229 0.985 . S
H1236 N1233 0.984 . S
H1237 N1233 0.985 . S
H1238 N1232 0.984 . S
H1239 N1232 0.984 . S
H1240 N1228 0.984 . S
H1241 N1228 0.985 . S
C1242 C1243 1.363 . S
C1242 C1248 1.379 . S
C1242 N1250 1.356 . S
C1243 C1242 1.363 . S
C1243 C1249 1.363 . S
C1244 C1245 1.363 . S
C1244 C1249 1.379 . S
C1244 N1251 1.356 . S
C1245 C1244 1.363 . S
C1245 C1248 1.363 . S
N1246 C1248 1.356 . S
N1246 H1258 0.984 . S
N1246 H1259 0.985 . S
N1247 C1249 1.356 . S
N1247 H1252 0.984 . S
N1247 H1253 0.985 . S
C1248 C1242 1.379 . S
C1248 C1245 1.363 . S
C1248 N1246 1.356 . S
C1249 C1243 1.363 . S
C1249 C1244 1.379 . S
C1249 N1247 1.356 . S
N1250 C1242 1.356 . S
N1250 H1256 0.984 . S
N1250 H1257 0.984 . S
N1251 C1244 1.356 . S
N1251 H1254 0.984 . S
N1251 H1255 0.985 . S
H1252 N1247 0.984 . S
H1253 N1247 0.985 . S
H1254 N1251 0.984 . S
H1255 N1251 0.985 . S
H1256 N1250 0.984 . S
H1257 N1250 0.984 . S
H1258 N1246 0.984 . S
H1259 N1246 0.985 . S
C1260 C1261 1.363 1_545 S
C1260 C1266 1.379 . S
C1260 N1268 1.356 . S
C1261 C1260 1.363 1_565 S
C1261 C1267 1.363 . S
C1262 C1263 1.363 . S
C1262 C1267 1.379 . S
C1262 N1269 1.356 . S
C1263 C1262 1.363 . S
C1263 C1266 1.363 1_565 S
N1264 C1266 1.356 . S
N1264 H1276 0.984 . S
N1264 H1277 0.985 . S
N1265 C1267 1.356 . S
N1265 H1270 0.984 . S
N1265 H1271 0.985 . S
C1266 C1260 1.379 . S
C1266 C1263 1.363 1_545 S
C1266 N1264 1.356 . S
C1267 C1261 1.363 . S
C1267 C1262 1.379 . S
C1267 N1265 1.356 . S
N1268 C1260 1.356 . S
N1268 H1274 0.984 . S
N1268 H1275 0.984 . S
N1269 C1262 1.356 . S
N1269 H1272 0.984 . S
N1269 H1273 0.985 . S
H1270 N1265 0.984 . S
H1271 N1265 0.985 . S
H1272 N1269 0.984 . S
H1273 N1269 0.985 . S
H1274 N1268 0.984 . S
H1275 N1268 0.984 . S
H1276 N1264 0.984 . S
H1277 N1264 0.985 . S
C1278 C1279 1.363 . S
C1278 C1284 1.379 . S
C1278 N1286 1.356 . S
C1279 C1278 1.363 . S
C1279 C1285 1.363 1_545 S
C1280 C1281 1.363 1_565 S
C1280 C1285 1.379 . S
C1280 N1287 1.356 . S
C1281 C1280 1.363 1_545 S
C1281 C1284 1.363 . S
N1282 C1284 1.356 . S
N1282 H1294 0.984 . S
N1282 H1295 0.985 . S
N1283 C1285 1.356 . S
N1283 H1288 0.984 . S
N1283 H1289 0.985 . S
C1284 C1278 1.379 . S
C1284 C1281 1.363 . S
C1284 N1282 1.356 . S
C1285 C1279 1.363 1_565 S
C1285 C1280 1.379 . S
C1285 N1283 1.356 . S
N1286 C1278 1.356 . S
N1286 H1292 0.984 . S
N1286 H1293 0.984 . S
N1287 C1280 1.356 . S
N1287 H1290 0.984 . S
N1287 H1291 0.985 . S
H1288 N1283 0.984 . S
H1289 N1283 0.985 . S
H1290 N1287 0.984 . S
H1291 N1287 0.985 . S
H1292 N1286 0.984 . S
H1293 N1286 0.984 . S
H1294 N1282 0.984 . S
H1295 N1282 0.985 . S
C1296 C1297 1.363 1_455 S
C1296 C1302 1.379 . S
C1296 N1304 1.356 . S
C1297 C1296 1.363 1_655 S
C1297 C1303 1.363 . S
C1298 C1299 1.363 . S
C1298 C1303 1.379 . S
C1298 N1305 1.356 . S
C1299 C1298 1.363 . S
C1299 C1302 1.363 1_655 S
N1300 C1302 1.356 . S
N1300 H1312 0.984 . S
N1300 H1313 0.985 . S
N1301 C1303 1.356 . S
N1301 H1306 0.984 . S
N1301 H1307 0.985 . S
C1302 C1296 1.379 . S
C1302 C1299 1.363 1_455 S
C1302 N1300 1.356 . S
C1303 C1297 1.363 . S
C1303 C1298 1.379 . S
C1303 N1301 1.356 . S
N1304 C1296 1.356 . S
N1304 H1310 0.984 . S
N1304 H1311 0.984 . S
N1305 C1298 1.356 . S
N1305 H1308 0.984 . S
N1305 H1309 0.985 . S
H1306 N1301 0.984 . S
H1307 N1301 0.985 . S
H1308 N1305 0.984 . S
H1309 N1305 0.985 . S
H1310 N1304 0.984 . S
H1311 N1304 0.984 . S
H1312 N1300 0.984 . S
H1313 N1300 0.985 . S
C1314 C1315 1.363 . S
C1314 C1320 1.379 . S
C1314 N1322 1.356 . S
C1315 C1314 1.363 . S
C1315 C1321 1.363 . S
C1316 C1317 1.363 . S
C1316 C1321 1.379 . S
C1316 N1323 1.356 . S
C1317 C1316 1.363 . S
C1317 C1320 1.363 . S
N1318 C1320 1.356 . S
N1318 H1330 0.984 . S
N1318 H1331 0.985 . S
N1319 C1321 1.356 . S
N1319 H1324 0.984 . S
N1319 H1325 0.985 . S
C1320 C1314 1.379 . S
C1320 C1317 1.363 . S
C1320 N1318 1.356 . S
C1321 C1315 1.363 . S
C1321 C1316 1.379 . S
C1321 N1319 1.356 . S
N1322 C1314 1.356 . S
N1322 H1328 0.984 . S
N1322 H1329 0.984 . S
N1323 C1316 1.356 . S
N1323 H1326 0.984 . S
N1323 H1327 0.985 . S
H1324 N1319 0.984 . S
H1325 N1319 0.985 . S
H1326 N1323 0.984 . S
H1327 N1323 0.985 . S
H1328 N1322 0.984 . S
H1329 N1322 0.984 . S
H1330 N1318 0.984 . S
H1331 N1318 0.985 . S
C1332 C1333 1.363 . S
C1332 C1338 1.379 . S
C1332 N1340 1.356 . S
C1333 C1332 1.363 . S
C1333 C1339 1.363 . S
C1334 C1335 1.363 . S
C1334 C1339 1.379 . S
C1334 N1341 1.356 . S
C1335 C1334 1.363 . S
C1335 C1338 1.363 . S
N1336 C1338 1.356 . S
N1336 H1348 0.984 . S
N1336 H1349 0.985 . S
N1337 C1339 1.356 . S
N1337 H1342 0.984 . S
N1337 H1343 0.985 . S
C1338 C1332 1.379 . S
C1338 C1335 1.363 . S
C1338 N1336 1.356 . S
C1339 C1333 1.363 . S
C1339 C1334 1.379 . S
C1339 N1337 1.356 . S
N1340 C1332 1.356 . S
N1340 H1346 0.984 . S
N1340 H1347 0.984 . S
N1341 C1334 1.356 . S
N1341 H1344 0.984 . S
N1341 H1345 0.985 . S
H1342 N1337 0.984 . S
H1343 N1337 0.985 . S
H1344 N1341 0.984 . S
H1345 N1341 0.985 . S
H1346 N1340 0.984 . S
H1347 N1340 0.984 . S
H1348 N1336 0.984 . S
H1349 N1336 0.985 . S
C1350 C1351 1.363 . S
C1350 C1356 1.379 . S
C1350 N1358 1.356 . S
C1351 C1350 1.363 . S
C1351 C1357 1.363 . S
C1352 C1353 1.363 . S
C1352 C1357 1.379 . S
C1352 N1359 1.356 . S
C1353 C1352 1.363 . S
C1353 C1356 1.363 . S
N1354 C1356 1.356 . S
N1354 H1366 0.984 . S
N1354 H1367 0.985 . S
N1355 C1357 1.356 . S
N1355 H1360 0.984 . S
N1355 H1361 0.985 . S
C1356 C1350 1.379 . S
C1356 C1353 1.363 . S
C1356 N1354 1.356 . S
C1357 C1351 1.363 . S
C1357 C1352 1.379 . S
C1357 N1355 1.356 . S
N1358 C1350 1.356 . S
N1358 H1364 0.984 . S
N1358 H1365 0.984 . S
N1359 C1352 1.356 . S
N1359 H1362 0.984 . S
N1359 H1363 0.985 . S
H1360 N1355 0.984 . S
H1361 N1355 0.985 . S
H1362 N1359 0.984 . S
H1363 N1359 0.985 . S
H1364 N1358 0.984 . S
H1365 N1358 0.984 . S
H1366 N1354 0.984 . S
H1367 N1354 0.985 . S
C1368 C1369 1.363 . S
C1368 C1374 1.379 . S
C1368 N1376 1.356 . S
C1369 C1368 1.363 . S
C1369 C1375 1.363 . S
C1370 C1371 1.363 . S
C1370 C1375 1.379 . S
C1370 N1377 1.356 . S
C1371 C1370 1.363 . S
C1371 C1374 1.363 . S
N1372 C1374 1.356 . S
N1372 H1384 0.984 . S
N1372 H1385 0.985 . S
N1373 C1375 1.356 . S
N1373 H1378 0.984 . S
N1373 H1379 0.985 . S
C1374 C1368 1.379 . S
C1374 C1371 1.363 . S
C1374 N1372 1.356 . S
C1375 C1369 1.363 . S
C1375 C1370 1.379 . S
C1375 N1373 1.356 . S
N1376 C1368 1.356 . S
N1376 H1382 0.984 . S
N1376 H1383 0.984 . S
N1377 C1370 1.356 . S
N1377 H1380 0.984 . S
N1377 H1381 0.985 . S
H1378 N1373 0.984 . S
H1379 N1373 0.985 . S
H1380 N1377 0.984 . S
H1381 N1377 0.985 . S
H1382 N1376 0.984 . S
H1383 N1376 0.984 . S
H1384 N1372 0.984 . S
H1385 N1372 0.985 . S
C1386 C1387 1.363 . S
C1386 C1392 1.379 . S
C1386 N1394 1.356 . S
C1387 C1386 1.363 . S
C1387 C1393 1.363 . S
C1388 C1389 1.363 . S
C1388 C1393 1.379 . S
C1388 N1395 1.356 . S
C1389 C1388 1.363 . S
C1389 C1392 1.363 . S
N1390 C1392 1.356 . S
N1390 H1402 0.984 . S
N1390 H1403 0.985 . S
N1391 C1393 1.356 . S
N1391 H1396 0.984 . S
N1391 H1397 0.985 . S
C1392 C1386 1.379 . S
C1392 C1389 1.363 . S
C1392 N1390 1.356 . S
C1393 C1387 1.363 . S
C1393 C1388 1.379 . S
C1393 N1391 1.356 . S
N1394 C1386 1.356 . S
N1394 H1400 0.984 . S
N1394 H1401 0.984 . S
N1395 C1388 1.356 . S
N1395 H1398 0.984 . S
N1395 H1399 0.985 . S
H1396 N1391 0.984 . S
H1397 N1391 0.985 . S
H1398 N1395 0.984 . S
H1399 N1395 0.985 . S
H1400 N1394 0.984 . S
H1401 N1394 0.984 . S
H1402 N1390 0.984 . S
H1403 N1390 0.985 . S
C1404 C1405 1.363 . S
C1404 C1410 1.379 . S
C1404 N1412 1.356 . S
C1405 C1404 1.363 . S
C1405 C1411 1.363 . S
C1406 C1407 1.363 . S
C1406 C1411 1.379 . S
C1406 N1413 1.356 . S
C1407 C1406 1.363 . S
C1407 C1410 1.363 . S
N1408 C1410 1.356 . S
N1408 H1420 0.984 . S
N1408 H1421 0.985 . S
N1409 C1411 1.356 . S
N1409 H1414 0.984 . S
N1409 H1415 0.985 . S
C1410 C1404 1.379 . S
C1410 C1407 1.363 . S
C1410 N1408 1.356 . S
C1411 C1405 1.363 . S
C1411 C1406 1.379 . S
C1411 N1409 1.356 . S
N1412 C1404 1.356 . S
N1412 H1418 0.984 . S
N1412 H1419 0.984 . S
N1413 C1406 1.356 . S
N1413 H1416 0.984 . S
N1413 H1417 0.985 . S
H1414 N1409 0.984 . S
H1415 N1409 0.985 . S
H1416 N1413 0.984 . S
H1417 N1413 0.985 . S
H1418 N1412 0.984 . S
H1419 N1412 0.984 . S
H1420 N1408 0.984 . S
H1421 N1408 0.985 . S
C1422 C1423 1.363 . S
C1422 C1428 1.379 . S
C1422 N1430 1.356 . S
C1423 C1422 1.363 . S
C1423 C1429 1.363 . S
C1424 C1425 1.363 . S
C1424 C1429 1.379 . S
C1424 N1431 1.356 . S
C1425 C1424 1.363 . S
C1425 C1428 1.363 . S
N1426 C1428 1.356 . S
N1426 H1438 0.984 . S
N1426 H1439 0.985 . S
N1427 C1429 1.356 . S
N1427 H1432 0.984 . S
N1427 H1433 0.985 1_565 S
C1428 C1422 1.379 . S
C1428 C1425 1.363 . S
C1428 N1426 1.356 . S
C1429 C1423 1.363 . S
C1429 C1424 1.379 . S
C1429 N1427 1.356 . S
N1430 C1422 1.356 . S
N1430 H1436 0.984 . S
N1430 H1437 0.984 . S
N1431 C1424 1.356 . S
N1431 H1434 0.984 . S
N1431 H1435 0.985 . S
H1432 N1427 0.984 . S
H1433 N1427 0.985 1_545 S
H1434 N1431 0.984 . S
H1435 N1431 0.985 . S
H1436 N1430 0.984 . S
H1437 N1430 0.984 . S
H1438 N1426 0.984 . S
H1439 N1426 0.985 . S
C1440 C1441 1.363 . S
C1440 C1446 1.379 . S
C1440 N1448 1.356 . S
C1441 C1440 1.363 . S
C1441 C1447 1.363 . S
C1442 C1443 1.363 . S
C1442 C1447 1.379 . S
C1442 N1449 1.356 . S
C1443 C1442 1.363 . S
C1443 C1446 1.363 . S
N1444 C1446 1.356 . S
N1444 H1456 0.984 . S
N1444 H1457 0.985 . S
N1445 C1447 1.356 . S
N1445 H1450 0.984 . S
N1445 H1451 0.985 . S
C1446 C1440 1.379 . S
C1446 C1443 1.363 . S
C1446 N1444 1.356 . S
C1447 C1441 1.363 . S
C1447 C1442 1.379 . S
C1447 N1445 1.356 . S
N1448 C1440 1.356 . S
N1448 H1454 0.984 . S
N1448 H1455 0.984 . S
N1449 C1442 1.356 . S
N1449 H1452 0.984 . S
N1449 H1453 0.985 . S
H1450 N1445 0.984 . S
H1451 N1445 0.985 . S
H1452 N1449 0.984 . S
H1453 N1449 0.985 . S
H1454 N1448 0.984 . S
H1455 N1448 0.984 . S
H1456 N1444 0.984 . S
H1457 N1444 0.985 . S
C1458 C1459 1.363 . S
C1458 C1464 1.379 . S
C1458 N1466 1.356 . S
C1459 C1458 1.363 . S
C1459 C1465 1.363 . S
C1460 C1461 1.363 . S
C1460 C1465 1.379 . S
C1460 N1467 1.356 . S
C1461 C1460 1.363 . S
C1461 C1464 1.363 . S
N1462 C1464 1.356 . S
N1462 H1474 0.984 . S
N1462 H1475 0.985 . S
N1463 C1465 1.356 . S
N1463 H1468 0.984 . S
N1463 H1469 0.985 . S
C1464 C1458 1.379 . S
C1464 C1461 1.363 . S
C1464 N1462 1.356 . S
C1465 C1459 1.363 . S
C1465 C1460 1.379 . S
C1465 N1463 1.356 . S
N1466 C1458 1.356 . S
N1466 H1472 0.984 . S
N1466 H1473 0.984 . S
N1467 C1460 1.356 . S
N1467 H1470 0.984 . S
N1467 H1471 0.985 . S
H1468 N1463 0.984 . S
H1469 N1463 0.985 . S
H1470 N1467 0.984 . S
H1471 N1467 0.985 . S
H1472 N1466 0.984 . S
H1473 N1466 0.984 . S
H1474 N1462 0.984 . S
H1475 N1462 0.985 . S
C1476 C1477 1.363 . S
C1476 C1482 1.379 . S
C1476 N1484 1.356 . S
C1477 C1476 1.363 . S
C1477 C1483 1.363 . S
C1478 C1479 1.363 . S
C1478 C1483 1.379 . S
C1478 N1485 1.356 . S
C1479 C1478 1.363 . S
C1479 C1482 1.363 . S
N1480 C1482 1.356 . S
N1480 H1492 0.984 . S
N1480 H1493 0.985 . S
N1481 C1483 1.356 . S
N1481 H1486 0.984 . S
N1481 H1487 0.985 . S
C1482 C1476 1.379 . S
C1482 C1479 1.363 . S
C1482 N1480 1.356 . S
C1483 C1477 1.363 . S
C1483 C1478 1.379 . S
C1483 N1481 1.356 . S
N1484 C1476 1.356 . S
N1484 H1490 0.984 . S
N1484 H1491 0.984 . S
N1485 C1478 1.356 . S
N1485 H1488 0.984 . S
N1485 H1489 0.985 . S
H1486 N1481 0.984 . S
H1487 N1481 0.985 . S
H1488 N1485 0.984 . S
H1489 N1485 0.985 . S
H1490 N1484 0.984 . S
H1491 N1484 0.984 . S
H1492 N1480 0.984 . S
H1493 N1480 0.985 . S
C1494 C1495 1.363 . S
C1494 C1500 1.379 . S
C1494 N1502 1.356 . S
C1495 C1494 1.363 . S
C1495 C1501 1.363 . S
C1496 C1497 1.363 . S
C1496 C1501 1.379 . S
C1496 N1503 1.356 . S
C1497 C1496 1.363 . S
C1497 C1500 1.363 . S
N1498 C1500 1.356 . S
N1498 H1510 0.984 . S
N1498 H1511 0.985 . S
N1499 C1501 1.356 . S
N1499 H1504 0.984 . S
N1499 H1505 0.985 . S
C1500 C1494 1.379 . S
C1500 C1497 1.363 . S
C1500 N1498 1.356 . S
C1501 C1495 1.363 . S
C1501 C1496 1.379 . S
C1501 N1499 1.356 . S
N1502 C1494 1.356 . S
N1502 H1508 0.984 . S
N1502 H1509 0.984 . S
N1503 C1496 1.356 . S
N1503 H1506 0.984 . S
N1503 H1507 0.985 . S
H1504 N1499 0.984 . S
H1505 N1499 0.985 . S
H1506 N1503 0.984 . S
H1507 N1503 0.985 . S
H1508 N1502 0.984 . S
H1509 N1502 0.984 . S
H1510 N1498 0.984 . S
H1511 N1498 0.985 . S
C1512 C1513 1.363 . S
C1512 C1518 1.379 . S
C1512 N1520 1.356 . S
C1513 C1512 1.363 . S
C1513 C1519 1.363 . S
C1514 C1515 1.363 . S
C1514 C1519 1.379 . S
C1514 N1521 1.356 . S
C1515 C1514 1.363 . S
C1515 C1518 1.363 . S
N1516 C1518 1.356 . S
N1516 H1528 0.984 . S
N1516 H1529 0.985 . S
N1517 C1519 1.356 . S
N1517 H1522 0.984 . S
N1517 H1523 0.985 . S
C1518 C1512 1.379 . S
C1518 C1515 1.363 . S
C1518 N1516 1.356 . S
C1519 C1513 1.363 . S
C1519 C1514 1.379 . S
C1519 N1517 1.356 . S
N1520 C1512 1.356 . S
N1520 H1526 0.984 . S
N1520 H1527 0.984 . S
N1521 C1514 1.356 . S
N1521 H1524 0.984 . S
N1521 H1525 0.985 . S
H1522 N1517 0.984 . S
H1523 N1517 0.985 . S
H1524 N1521 0.984 . S
H1525 N1521 0.985 . S
H1526 N1520 0.984 . S
H1527 N1520 0.984 . S
H1528 N1516 0.984 . S
H1529 N1516 0.985 . S
C1530 C1531 1.363 . S
C1530 C1536 1.379 . S
C1530 N1538 1.356 . S
C1531 C1530 1.363 . S
C1531 C1537 1.363 . S
C1532 C1533 1.363 . S
C1532 C1537 1.379 . S
C1532 N1539 1.356 . S
C1533 C1532 1.363 . S
C1533 C1536 1.363 . S
N1534 C1536 1.356 . S
N1534 H1546 0.984 . S
N1534 H1547 0.985 . S
N1535 C1537 1.356 . S
N1535 H1540 0.984 . S
N1535 H1541 0.985 . S
C1536 C1530 1.379 . S
C1536 C1533 1.363 . S
C1536 N1534 1.356 . S
C1537 C1531 1.363 . S
C1537 C1532 1.379 . S
C1537 N1535 1.356 . S
N1538 C1530 1.356 . S
N1538 H1544 0.984 . S
N1538 H1545 0.984 . S
N1539 C1532 1.356 . S
N1539 H1542 0.984 . S
N1539 H1543 0.985 . S
H1540 N1535 0.984 . S
H1541 N1535 0.985 . S
H1542 N1539 0.984 . S
H1543 N1539 0.985 . S
H1544 N1538 0.984 . S
H1545 N1538 0.984 . S
H1546 N1534 0.984 . S
H1547 N1534 0.985 . S
C1548 C1549 1.363 . S
C1548 C1554 1.379 . S
C1548 N1556 1.356 . S
C1549 C1548 1.363 . S
C1549 C1555 1.363 . S
C1550 C1551 1.363 . S
C1550 C1555 1.379 . S
C1550 N1557 1.356 . S
C1551 C1550 1.363 . S
C1551 C1554 1.363 . S
N1552 C1554 1.356 . S
N1552 H1564 0.984 . S
N1552 H1565 0.985 . S
N1553 C1555 1.356 . S
N1553 H1558 0.984 . S
N1553 H1559 0.985 . S
C1554 C1548 1.379 . S
C1554 C1551 1.363 . S
C1554 N1552 1.356 . S
C1555 C1549 1.363 . S
C1555 C1550 1.379 . S
C1555 N1553 1.356 . S
N1556 C1548 1.356 . S
N1556 H1562 0.984 . S
N1556 H1563 0.984 . S
N1557 C1550 1.356 . S
N1557 H1560 0.984 . S
N1557 H1561 0.985 . S
H1558 N1553 0.984 . S
H1559 N1553 0.985 . S
H1560 N1557 0.984 . S
H1561 N1557 0.985 . S
H1562 N1556 0.984 . S
H1563 N1556 0.984 . S
H1564 N1552 0.984 . S
H1565 N1552 0.985 . S
C1566 C1567 1.363 . S
C1566 C1572 1.379 . S
C1566 N1574 1.356 . S
C1567 C1566 1.363 . S
C1567 C1573 1.363 . S
C1568 C1569 1.363 . S
C1568 C1573 1.379 . S
C1568 N1575 1.356 . S
C1569 C1568 1.363 . S
C1569 C1572 1.363 . S
N1570 C1572 1.356 . S
N1570 H1582 0.984 . S
N1570 H1583 0.985 . S
N1571 C1573 1.356 . S
N1571 H1576 0.984 . S
N1571 H1577 0.985 . S
C1572 C1566 1.379 . S
C1572 C1569 1.363 . S
C1572 N1570 1.356 . S
C1573 C1567 1.363 . S
C1573 C1568 1.379 . S
C1573 N1571 1.356 . S
N1574 C1566 1.356 . S
N1574 H1580 0.984 . S
N1574 H1581 0.984 . S
N1575 C1568 1.356 . S
N1575 H1578 0.984 . S
N1575 H1579 0.985 . S
H1576 N1571 0.984 . S
H1577 N1571 0.985 . S
H1578 N1575 0.984 . S
H1579 N1575 0.985 . S
H1580 N1574 0.984 . S
H1581 N1574 0.984 . S
H1582 N1570 0.984 . S
H1583 N1570 0.985 . S
C1584 C1585 1.363 . S
C1584 C1590 1.379 . S
C1584 N1592 1.356 . S
C1585 C1584 1.363 . S
C1585 C1591 1.363 . S
C1586 C1587 1.363 . S
C1586 C1591 1.379 . S
C1586 N1593 1.356 . S
C1587 C1586 1.363 . S
C1587 C1590 1.363 . S
N1588 C1590 1.356 . S
N1588 H1600 0.984 . S
N1588 H1601 0.985 . S
N1589 C1591 1.356 . S
N1589 H1594 0.984 . S
N1589 H1595 0.985 . S
C1590 C1584 1.379 . S
C1590 C1587 1.363 . S
C1590 N1588 1.356 . S
C1591 C1585 1.363 . S
C1591 C1586 1.379 . S
C1591 N1589 1.356 . S
N1592 C1584 1.356 . S
N1592 H1598 0.984 . S
N1592 H1599 0.984 . S
N1593 C1586 1.356 . S
N1593 H1596 0.984 . S
N1593 H1597 0.985 . S
H1594 N1589 0.984 . S
H1595 N1589 0.985 . S
H1596 N1593 0.984 . S
H1597 N1593 0.985 . S
H1598 N1592 0.984 . S
H1599 N1592 0.984 . S
H1600 N1588 0.984 . S
H1601 N1588 0.985 . S
C1602 C1603 1.363 . S
C1602 C1608 1.379 . S
C1602 N1610 1.356 . S
C1603 C1602 1.363 . S
C1603 C1609 1.363 . S
C1604 C1605 1.363 . S
C1604 C1609 1.379 . S
C1604 N1611 1.356 . S
C1605 C1604 1.363 . S
C1605 C1608 1.363 . S
N1606 C1608 1.356 . S
N1606 H1618 0.984 . S
N1606 H1619 0.985 . S
N1607 C1609 1.356 . S
N1607 H1612 0.984 . S
N1607 H1613 0.985 . S
C1608 C1602 1.379 . S
C1608 C1605 1.363 . S
C1608 N1606 1.356 . S
C1609 C1603 1.363 . S
C1609 C1604 1.379 . S
C1609 N1607 1.356 . S
N1610 C1602 1.356 . S
N1610 H1616 0.984 . S
N1610 H1617 0.984 . S
N1611 C1604 1.356 . S
N1611 H1614 0.984 . S
N1611 H1615 0.985 . S
H1612 N1607 0.984 . S
H1613 N1607 0.985 . S
H1614 N1611 0.984 . S
H1615 N1611 0.985 . S
H1616 N1610 0.984 . S
H1617 N1610 0.984 . S
H1618 N1606 0.984 . S
H1619 N1606 0.985 . S
C1620 C1621 1.363 . S
C1620 C1626 1.379 . S
C1620 N1628 1.356 . S
C1621 C1620 1.363 . S
C1621 C1627 1.363 . S
C1622 C1623 1.363 . S
C1622 C1627 1.379 . S
C1622 N1629 1.356 . S
C1623 C1622 1.363 . S
C1623 C1626 1.363 . S
N1624 C1626 1.356 . S
N1624 H1636 0.984 . S
N1624 H1637 0.985 . S
N1625 C1627 1.356 . S
N1625 H1630 0.984 . S
N1625 H1631 0.985 . S
C1626 C1620 1.379 . S
C1626 C1623 1.363 . S
C1626 N1624 1.356 . S
C1627 C1621 1.363 . S
C1627 C1622 1.379 . S
C1627 N1625 1.356 . S
N1628 C1620 1.356 . S
N1628 H1634 0.984 . S
N1628 H1635 0.984 . S
N1629 C1622 1.356 . S
N1629 H1632 0.984 . S
N1629 H1633 0.985 . S
H1630 N1625 0.984 . S
H1631 N1625 0.985 . S
H1632 N1629 0.984 . S
H1633 N1629 0.985 . S
H1634 N1628 0.984 . S
H1635 N1628 0.984 . S
H1636 N1624 0.984 . S
H1637 N1624 0.985 . S
C1638 C1639 1.363 . S
C1638 C1644 1.379 . S
C1638 N1646 1.356 . S
C1639 C1638 1.363 . S
C1639 C1645 1.363 . S
C1640 C1641 1.363 . S
C1640 C1645 1.379 . S
C1640 N1647 1.356 . S
C1641 C1640 1.363 . S
C1641 C1644 1.363 . S
N1642 C1644 1.356 . S
N1642 H1654 0.984 . S
N1642 H1655 0.985 . S
N1643 C1645 1.356 . S
N1643 H1648 0.984 . S
N1643 H1649 0.985 . S
C1644 C1638 1.379 . S
C1644 C1641 1.363 . S
C1644 N1642 1.356 . S
C1645 C1639 1.363 . S
C1645 C1640 1.379 . S
C1645 N1643 1.356 . S
N1646 C1638 1.356 . S
N1646 H1652 0.984 . S
N1646 H1653 0.984 . S
N1647 C1640 1.356 . S
N1647 H1650 0.984 . S
N1647 H1651 0.985 . S
H1648 N1643 0.984 . S
H1649 N1643 0.985 . S
H1650 N1647 0.984 . S
H1651 N1647 0.985 . S
H1652 N1646 0.984 . S
H1653 N1646 0.984 . S
H1654 N1642 0.984 . S
H1655 N1642 0.985 . S
C1656 C1657 1.363 . S
C1656 C1662 1.379 . S
C1656 N1664 1.356 . S
C1657 C1656 1.363 . S
C1657 C1663 1.363 . S
C1658 C1659 1.363 . S
C1658 C1663 1.379 . S
C1658 N1665 1.356 . S
C1659 C1658 1.363 . S
C1659 C1662 1.363 . S
N1660 C1662 1.356 . S
N1660 H1672 0.984 . S
N1660 H1673 0.985 . S
N1661 C1663 1.356 . S
N1661 H1666 0.984 . S
N1661 H1667 0.985 . S
C1662 C1656 1.379 . S
C1662 C1659 1.363 . S
C1662 N1660 1.356 . S
C1663 C1657 1.363 . S
C1663 C1658 1.379 . S
C1663 N1661 1.356 . S
N1664 C1656 1.356 . S
N1664 H1670 0.984 . S
N1664 H1671 0.984 . S
N1665 C1658 1.356 . S
N1665 H1668 0.984 . S
N1665 H1669 0.985 . S
H1666 N1661 0.984 . S
H1667 N1661 0.985 . S
H1668 N1665 0.984 . S
H1669 N1665 0.985 . S
H1670 N1664 0.984 . S
H1671 N1664 0.984 . S
H1672 N1660 0.984 . S
H1673 N1660 0.985 . S
C1674 C1675 1.363 . S
C1674 C1680 1.379 . S
C1674 N1682 1.356 . S
C1675 C1674 1.363 . S
C1675 C1681 1.363 . S
C1676 C1677 1.363 . S
C1676 C1681 1.379 . S
C1676 N1683 1.356 . S
C1677 C1676 1.363 . S
C1677 C1680 1.363 . S
N1678 C1680 1.356 . S
N1678 H1690 0.984 . S
N1678 H1691 0.985 . S
N1679 C1681 1.356 . S
N1679 H1684 0.984 . S
N1679 H1685 0.985 . S
C1680 C1674 1.379 . S
C1680 C1677 1.363 . S
C1680 N1678 1.356 . S
C1681 C1675 1.363 . S
C1681 C1676 1.379 . S
C1681 N1679 1.356 . S
N1682 C1674 1.356 . S
N1682 H1688 0.984 . S
N1682 H1689 0.984 . S
N1683 C1676 1.356 . S
N1683 H1686 0.984 . S
N1683 H1687 0.985 . S
H1684 N1679 0.984 . S
H1685 N1679 0.985 . S
H1686 N1683 0.984 . S
H1687 N1683 0.985 . S
H1688 N1682 0.984 . S
H1689 N1682 0.984 . S
H1690 N1678 0.984 . S
H1691 N1678 0.985 . S
C1692 C1693 1.363 . S
C1692 C1698 1.379 . S
C1692 N1700 1.356 . S
C1693 C1692 1.363 . S
C1693 C1699 1.363 . S
C1694 C1695 1.363 . S
C1694 C1699 1.379 . S
C1694 N1701 1.356 . S
C1695 C1694 1.363 . S
C1695 C1698 1.363 . S
N1696 C1698 1.356 . S
N1696 H1708 0.984 . S
N1696 H1709 0.985 . S
N1697 C1699 1.356 . S
N1697 H1702 0.984 . S
N1697 H1703 0.985 . S
C1698 C1692 1.379 . S
C1698 C1695 1.363 . S
C1698 N1696 1.356 . S
C1699 C1693 1.363 . S
C1699 C1694 1.379 . S
C1699 N1697 1.356 . S
N1700 C1692 1.356 . S
N1700 H1706 0.984 . S
N1700 H1707 0.984 . S
N1701 C1694 1.356 . S
N1701 H1704 0.984 . S
N1701 H1705 0.985 . S
H1702 N1697 0.984 . S
H1703 N1697 0.985 . S
H1704 N1701 0.984 . S
H1705 N1701 0.985 . S
H1706 N1700 0.984 . S
H1707 N1700 0.984 . S
H1708 N1696 0.984 . S
H1709 N1696 0.985 . S
C1710 C1711 1.363 . S
C1710 C1716 1.379 . S
C1710 N1718 1.356 . S
C1711 C1710 1.363 . S
C1711 C1717 1.363 . S
C1712 C1713 1.363 . S
C1712 C1717 1.379 . S
C1712 N1719 1.356 . S
C1713 C1712 1.363 . S
C1713 C1716 1.363 . S
N1714 C1716 1.356 . S
N1714 H1726 0.984 . S
N1714 H1727 0.985 . S
N1715 C1717 1.356 . S
N1715 H1720 0.984 . S
N1715 H1721 0.985 . S
C1716 C1710 1.379 . S
C1716 C1713 1.363 . S
C1716 N1714 1.356 . S
C1717 C1711 1.363 . S
C1717 C1712 1.379 . S
C1717 N1715 1.356 . S
N1718 C1710 1.356 . S
N1718 H1724 0.984 . S
N1718 H1725 0.984 . S
N1719 C1712 1.356 . S
N1719 H1722 0.984 . S
N1719 H1723 0.985 . S
H1720 N1715 0.984 . S
H1721 N1715 0.985 . S
H1722 N1719 0.984 . S
H1723 N1719 0.985 . S
H1724 N1718 0.984 . S
H1725 N1718 0.984 . S
H1726 N1714 0.984 . S
H1727 N1714 0.985 . S
C1728 C1729 1.363 . S
C1728 C1734 1.379 . S
C1728 N1736 1.356 . S
C1729 C1728 1.363 . S
C1729 C1735 1.363 . S
C1730 C1731 1.363 . S
C1730 C1735 1.379 . S
C1730 N1737 1.356 . S
C1731 C1730 1.363 . S
C1731 C1734 1.363 . S
N1732 C1734 1.356 . S
N1732 H1744 0.984 . S
N1732 H1745 0.985 . S
N1733 C1735 1.356 . S
N1733 H1738 0.984 . S
N1733 H1739 0.985 . S
C1734 C1728 1.379 . S
C1734 C1731 1.363 . S
C1734 N1732 1.356 . S
C1735 C1729 1.363 . S
C1735 C1730 1.379 . S
C1735 N1733 1.356 . S
N1736 C1728 1.356 . S
N1736 H1742 0.984 . S
N1736 H1743 0.984 . S
N1737 C1730 1.356 . S
N1737 H1740 0.984 . S
N1737 H1741 0.985 . S
H1738 N1733 0.984 . S
H1739 N1733 0.985 . S
H1740 N1737 0.984 . S
H1741 N1737 0.985 . S
H1742 N1736 0.984 . S
H1743 N1736 0.984 . S
H1744 N1732 0.984 . S
H1745 N1732 0.985 . S
C1746 C1747 1.363 . S
C1746 C1752 1.379 . S
C1746 N1754 1.356 . S
C1747 C1746 1.363 . S
C1747 C1753 1.363 . S
C1748 C1749 1.363 . S
C1748 C1753 1.379 . S
C1748 N1755 1.356 . S
C1749 C1748 1.363 . S
C1749 C1752 1.363 . S
N1750 C1752 1.356 . S
N1750 H1762 0.984 . S
N1750 H1763 0.985 . S
N1751 C1753 1.356 . S
N1751 H1756 0.984 . S
N1751 H1757 0.985 . S
C1752 C1746 1.379 . S
C1752 C1749 1.363 . S
C1752 N1750 1.356 . S
C1753 C1747 1.363 . S
C1753 C1748 1.379 . S
C1753 N1751 1.356 . S
N1754 C1746 1.356 . S
N1754 H1760 0.984 . S
N1754 H1761 0.984 . S
N1755 C1748 1.356 . S
N1755 H1758 0.984 . S
N1755 H1759 0.985 . S
H1756 N1751 0.984 . S
H1757 N1751 0.985 . S
H1758 N1755 0.984 . S
H1759 N1755 0.985 . S
H1760 N1754 0.984 . S
H1761 N1754 0.984 . S
H1762 N1750 0.984 . S
H1763 N1750 0.985 . S
C1764 C1765 1.363 . S
C1764 C1770 1.379 . S
C1764 N1772 1.356 . S
C1765 C1764 1.363 . S
C1765 C1771 1.363 . S
C1766 C1767 1.363 . S
C1766 C1771 1.379 . S
C1766 N1773 1.356 . S
C1767 C1766 1.363 . S
C1767 C1770 1.363 . S
N1768 C1770 1.356 . S
N1768 H1780 0.984 . S
N1768 H1781 0.985 . S
N1769 C1771 1.356 . S
N1769 H1774 0.984 . S
N1769 H1775 0.985 . S
C1770 C1764 1.379 . S
C1770 C1767 1.363 . S
C1770 N1768 1.356 . S
C1771 C1765 1.363 . S
C1771 C1766 1.379 . S
C1771 N1769 1.356 . S
N1772 C1764 1.356 . S
N1772 H1778 1.000 . S
N1772 H1779 0.984 . S
N1773 C1766 1.356 . S
N1773 H1776 0.984 . S
N1773 H1777 0.985 . S
H1774 N1769 0.984 . S
H1775 N1769 0.985 . S
H1776 N1773 0.984 . S
H1777 N1773 0.985 . S
H1778 N1772 1.000 . S
H1779 N1772 0.984 . S
H1780 N1768 0.984 . S
H1781 N1768 0.985 . S
C1782 C1783 1.363 . S
C1782 C1788 1.379 . S
C1782 N1790 1.356 . S
C1783 C1782 1.363 . S
C1783 C1789 1.363 . S
C1784 C1785 1.363 . S
C1784 C1789 1.379 . S
C1784 N1791 1.356 . S
C1785 C1784 1.363 . S
C1785 C1788 1.363 . S
N1786 C1788 1.356 . S
N1786 H1798 0.984 . S
N1786 H1799 0.985 . S
N1787 C1789 1.356 . S
N1787 H1792 0.984 . S
N1787 H1793 0.985 . S
C1788 C1782 1.379 . S
C1788 C1785 1.363 . S
C1788 N1786 1.356 . S
C1789 C1783 1.363 . S
C1789 C1784 1.379 . S
C1789 N1787 1.356 . S
N1790 C1782 1.356 . S
N1790 H1796 0.984 . S
N1790 H1797 0.984 . S
N1791 C1784 1.356 . S
N1791 H1794 0.984 . S
N1791 H1795 0.985 . S
H1792 N1787 0.984 . S
H1793 N1787 0.985 . S
H1794 N1791 0.984 . S
H1795 N1791 0.985 . S
H1796 N1790 0.984 . S
H1797 N1790 0.984 . S
H1798 N1786 0.984 . S
H1799 N1786 0.985 . S
C1800 C1801 1.363 . S
C1800 C1806 1.379 . S
C1800 N1808 1.356 . S
C1801 C1800 1.363 . S
C1801 C1807 1.363 . S
C1802 C1803 1.363 . S
C1802 C1807 1.379 . S
C1802 N1809 1.356 . S
C1803 C1802 1.363 . S
C1803 C1806 1.363 . S
N1804 C1806 1.356 . S
N1804 H1816 0.984 . S
N1804 H1817 0.985 . S
N1805 C1807 1.356 . S
N1805 H1810 0.984 . S
N1805 H1811 0.985 . S
C1806 C1800 1.379 . S
C1806 C1803 1.363 . S
C1806 N1804 1.356 . S
C1807 C1801 1.363 . S
C1807 C1802 1.379 . S
C1807 N1805 1.356 . S
N1808 C1800 1.356 . S
N1808 H1814 0.984 . S
N1808 H1815 0.984 . S
N1809 C1802 1.356 . S
N1809 H1812 0.984 . S
N1809 H1813 0.985 . S
H1810 N1805 0.984 . S
H1811 N1805 0.985 . S
H1812 N1809 0.984 . S
H1813 N1809 0.985 . S
H1814 N1808 0.984 . S
H1815 N1808 0.984 . S
H1816 N1804 0.984 . S
H1817 N1804 0.985 . S
C1818 C1819 1.363 . S
C1818 C1824 1.379 . S
C1818 N1826 1.356 1_556 S
C1819 C1818 1.363 . S
C1819 C1825 1.363 . S
C1820 C1821 1.363 . S
C1820 C1825 1.379 . S
C1820 N1827 1.356 . S
C1821 C1820 1.363 . S
C1821 C1824 1.363 . S
N1822 C1824 1.356 . S
N1822 H1834 0.984 1_556 S
N1822 H1835 0.985 . S
N1823 C1825 1.356 . S
N1823 H1828 0.984 . S
N1823 H1829 0.985 . S
C1824 C1818 1.379 . S
C1824 C1821 1.363 . S
C1824 N1822 1.356 . S
C1825 C1819 1.363 . S
C1825 C1820 1.379 . S
C1825 N1823 1.356 . S
N1826 C1818 1.356 1_554 S
N1826 H1832 0.984 . S
N1826 H1833 0.984 . S
N1827 C1820 1.356 . S
N1827 H1830 0.984 . S
N1827 H1831 0.985 . S
H1828 N1823 0.984 . S
H1829 N1823 0.985 . S
H1830 N1827 0.984 . S
H1831 N1827 0.985 . S
H1832 N1826 0.984 . S
H1833 N1826 0.984 . S
H1834 N1822 0.984 1_554 S
H1835 N1822 0.985 . S
C1836 C1837 1.363 . S
C1836 C1842 1.379 . S
C1836 N1844 1.356 . S
C1837 C1836 1.363 . S
C1837 C1843 1.363 . S
C1838 C1839 1.363 . S
C1838 C1843 1.379 . S
C1838 N1845 1.356 . S
C1839 C1838 1.363 . S
C1839 C1842 1.363 . S
N1840 C1842 1.356 . S
N1840 H1852 0.984 . S
N1840 H1853 0.985 . S
N1841 C1843 1.356 . S
N1841 H1846 0.984 . S
N1841 H1847 0.985 . S
C1842 C1836 1.379 . S
C1842 C1839 1.363 . S
C1842 N1840 1.356 . S
C1843 C1837 1.363 . S
C1843 C1838 1.379 . S
C1843 N1841 1.356 . S
N1844 C1836 1.356 . S
N1844 H1850 1.022 . S
N1844 H1851 0.984 . S
N1845 C1838 1.356 . S
N1845 H1848 0.984 . S
N1845 H1849 0.985 . S
H1846 N1841 0.984 . S
H1847 N1841 0.985 . S
H1848 N1845 0.984 . S
H1849 N1845 0.985 . S
H1850 N1844 1.022 . S
H1851 N1844 0.984 . S
H1852 N1840 0.984 . S
H1853 N1840 0.985 . S
C1854 C1855 1.363 . S
C1854 C1860 1.379 . S
C1854 N1862 1.356 . S
C1855 C1854 1.363 . S
C1855 C1861 1.363 . S
C1856 C1857 1.363 . S
C1856 C1861 1.379 . S
C1856 N1863 1.356 . S
C1857 C1856 1.363 . S
C1857 C1860 1.363 . S
N1858 C1860 1.356 . S
N1858 H1870 0.984 . S
N1858 H1871 0.985 . S
N1859 C1861 1.356 1_554 S
N1859 H1864 0.984 . S
N1859 H1865 0.985 . S
C1860 C1854 1.379 . S
C1860 C1857 1.363 . S
C1860 N1858 1.356 . S
C1861 C1855 1.363 . S
C1861 C1856 1.379 . S
C1861 N1859 1.356 1_556 S
N1862 C1854 1.356 . S
N1862 H1868 0.984 . S
N1862 H1869 0.984 . S
N1863 C1856 1.356 . S
N1863 H1866 0.984 . S
N1863 H1867 0.985 1_556 S
H1864 N1859 0.984 . S
H1865 N1859 0.985 . S
H1866 N1863 0.984 . S
H1867 N1863 0.985 1_554 S
H1868 N1862 0.984 . S
H1869 N1862 0.984 . S
H1870 N1858 0.984 . S
H1871 N1858 0.985 . S
C1872 C1873 1.363 . S
C1872 C1878 1.379 . S
C1872 N1880 1.356 . S
C1873 C1872 1.363 . S
C1873 C1879 1.363 . S
C1874 C1875 1.363 . S
C1874 C1879 1.379 . S
C1874 N1881 1.356 . S
C1875 C1874 1.363 . S
C1875 C1878 1.363 . S
N1876 C1878 1.356 . S
N1876 H1888 0.984 . S
N1876 H1889 0.985 . S
N1877 C1879 1.356 1_554 S
N1877 H1882 0.984 . S
N1877 H1883 0.985 . S
C1878 C1872 1.379 . S
C1878 C1875 1.363 . S
C1878 N1876 1.356 . S
C1879 C1873 1.363 . S
C1879 C1874 1.379 . S
C1879 N1877 1.356 1_556 S
N1880 C1872 1.356 . S
N1880 H1886 0.984 . S
N1880 H1887 0.984 . S
N1881 C1874 1.356 . S
N1881 H1884 0.984 . S
N1881 H1885 0.985 . S
H1882 N1877 0.984 . S
H1883 N1877 0.985 . S
H1884 N1881 0.984 . S
H1885 N1881 0.985 . S
H1886 N1880 0.984 . S
H1887 N1880 0.984 . S
H1888 N1876 0.984 . S
H1889 N1876 0.985 . S
C1890 C1891 1.363 . S
C1890 C1896 1.379 . S
C1890 N1898 1.356 1_556 S
C1891 C1890 1.363 . S
C1891 C1897 1.363 . S
C1892 C1893 1.363 . S
C1892 C1897 1.379 . S
C1892 N1899 1.356 . S
C1893 C1892 1.363 . S
C1893 C1896 1.363 . S
N1894 C1896 1.356 . S
N1894 H1906 0.984 1_556 S
N1894 H1907 0.985 . S
N1895 C1897 1.356 . S
N1895 H1900 0.984 . S
N1895 H1901 0.985 . S
C1896 C1890 1.379 . S
C1896 C1893 1.363 . S
C1896 N1894 1.356 . S
C1897 C1891 1.363 . S
C1897 C1892 1.379 . S
C1897 N1895 1.356 . S
N1898 C1890 1.356 1_554 S
N1898 H1904 0.984 . S
N1898 H1905 0.984 . S
N1899 C1892 1.356 . S
N1899 H1902 0.984 . S
N1899 H1903 0.985 . S
H1900 N1895 0.984 . S
H1901 N1895 0.985 . S
H1902 N1899 0.984 . S
H1903 N1899 0.985 . S
H1904 N1898 0.984 . S
H1905 N1898 0.984 . S
H1906 N1894 0.984 1_554 S
H1907 N1894 0.985 . S
C1908 C1909 1.363 . S
C1908 C1914 1.379 . S
C1908 N1916 1.356 . S
C1909 C1908 1.363 . S
C1909 C1915 1.363 . S
C1910 C1911 1.363 . S
C1910 C1915 1.379 . S
C1910 N1917 1.356 . S
C1911 C1910 1.363 . S
C1911 C1914 1.363 . S
N1912 C1914 1.356 . S
N1912 H1924 0.984 . S
N1912 H1925 0.985 . S
N1913 C1915 1.356 . S
N1913 H1918 0.984 1_556 S
N1913 H1919 0.985 1_556 S
C1914 C1908 1.379 . S
C1914 C1911 1.363 . S
C1914 N1912 1.356 . S
C1915 C1909 1.363 . S
C1915 C1910 1.379 . S
C1915 N1913 1.356 . S
N1916 C1908 1.356 . S
N1916 H1922 0.984 . S
N1916 H1923 0.984 . S
N1917 C1910 1.356 . S
N1917 H1920 0.984 . S
N1917 H1921 0.985 . S
H1918 N1913 0.984 1_554 S
H1919 N1913 0.985 1_554 S
H1920 N1917 0.984 . S
H1921 N1917 0.985 . S
H1922 N1916 0.984 . S
H1923 N1916 0.984 . S
H1924 N1912 0.984 . S
H1925 N1912 0.985 . S
C1926 C1927 1.363 . S
C1926 C1932 1.379 . S
C1926 N1934 1.356 . S
C1927 C1926 1.363 . S
C1927 C1933 1.363 . S
C1928 C1929 1.363 . S
C1928 C1933 1.379 . S
C1928 N1935 1.356 . S
C1929 C1928 1.363 . S
C1929 C1932 1.363 . S
N1930 C1932 1.356 . S
N1930 H1942 0.984 . S
N1930 H1943 0.985 . S
N1931 C1933 1.356 . S
N1931 H1936 0.984 . S
N1931 H1937 0.985 . S
C1932 C1926 1.379 . S
C1932 C1929 1.363 . S
C1932 N1930 1.356 . S
C1933 C1927 1.363 . S
C1933 C1928 1.379 . S
C1933 N1931 1.356 . S
N1934 C1926 1.356 . S
N1934 H1940 0.984 . S
N1934 H1941 0.984 . S
N1935 C1928 1.356 . S
N1935 H1938 0.984 . S
N1935 H1939 0.985 . S
H1936 N1931 0.984 . S
H1937 N1931 0.985 . S
H1938 N1935 0.984 . S
H1939 N1935 0.985 . S
H1940 N1934 0.984 . S
H1941 N1934 0.984 . S
H1942 N1930 0.984 . S
H1943 N1930 0.985 . S
C1944 C1945 1.363 . S
C1944 C1950 1.379 . S
C1944 N1952 1.356 . S
C1945 C1944 1.363 . S
C1945 C1951 1.363 . S
C1946 C1947 1.363 . S
C1946 C1951 1.379 . S
C1946 N1953 1.356 . S
C1947 C1946 1.363 . S
C1947 C1950 1.363 . S
N1948 C1950 1.356 . S
N1948 H1960 0.984 . S
N1948 H1961 0.985 . S
N1949 C1951 1.356 . S
N1949 H1954 0.984 . S
N1949 H1955 0.985 . S
C1950 C1944 1.379 . S
C1950 C1947 1.363 . S
C1950 N1948 1.356 . S
C1951 C1945 1.363 . S
C1951 C1946 1.379 . S
C1951 N1949 1.356 . S
N1952 C1944 1.356 . S
N1952 H1958 0.984 . S
N1952 H1959 0.984 . S
N1953 C1946 1.356 . S
N1953 H1956 0.984 . S
N1953 H1957 0.985 . S
H1954 N1949 0.984 . S
H1955 N1949 0.985 . S
H1956 N1953 0.984 . S
H1957 N1953 0.985 . S
H1958 N1952 0.984 . S
H1959 N1952 0.984 . S
H1960 N1948 0.984 . S
H1961 N1948 0.985 . S
C1962 C1963 1.363 . S
C1962 C1968 1.379 . S
C1962 N1970 1.356 . S
C1963 C1962 1.363 . S
C1963 C1969 1.363 . S
C1964 C1965 1.363 . S
C1964 C1969 1.379 . S
C1964 N1971 1.356 . S
C1965 C1964 1.363 . S
C1965 C1968 1.363 . S
N1966 C1968 1.356 . S
N1966 H1978 0.984 . S
N1966 H1979 0.985 . S
N1967 C1969 1.356 . S
N1967 H1972 0.984 . S
N1967 H1973 0.985 . S
C1968 C1962 1.379 . S
C1968 C1965 1.363 . S
C1968 N1966 1.356 . S
C1969 C1963 1.363 . S
C1969 C1964 1.379 . S
C1969 N1967 1.356 . S
N1970 C1962 1.356 . S
N1970 H1976 0.984 . S
N1970 H1977 0.984 . S
N1971 C1964 1.356 . S
N1971 H1974 0.984 . S
N1971 H1975 0.985 . S
H1972 N1967 0.984 . S
H1973 N1967 0.985 . S
H1974 N1971 0.984 . S
H1975 N1971 0.985 . S
H1976 N1970 0.984 . S
H1977 N1970 0.984 . S
H1978 N1966 0.984 . S
H1979 N1966 0.985 . S
C1980 C1981 1.363 . S
C1980 C1986 1.379 . S
C1980 N1988 1.356 . S
C1981 C1980 1.363 . S
C1981 C1987 1.363 . S
C1982 C1983 1.363 . S
C1982 C1987 1.379 . S
C1982 N1989 1.356 . S
C1983 C1982 1.363 . S
C1983 C1986 1.363 . S
N1984 C1986 1.356 . S
N1984 H1996 0.984 . S
N1984 H1997 0.985 . S
N1985 C1987 1.356 . S
N1985 H1990 0.984 . S
N1985 H1991 0.985 . S
C1986 C1980 1.379 . S
C1986 C1983 1.363 . S
C1986 N1984 1.356 . S
C1987 C1981 1.363 . S
C1987 C1982 1.379 . S
C1987 N1985 1.356 . S
N1988 C1980 1.356 . S
N1988 H1994 0.984 . S
N1988 H1995 0.984 . S
N1989 C1982 1.356 . S
N1989 H1992 0.984 . S
N1989 H1993 0.985 . S
H1990 N1985 0.984 . S
H1991 N1985 0.985 . S
H1992 N1989 0.984 . S
H1993 N1989 0.985 . S
H1994 N1988 0.984 . S
H1995 N1988 0.984 . S
H1996 N1984 0.984 . S
H1997 N1984 0.985 . S
C1998 C1999 1.363 . S
C1998 C2004 1.379 . S
C1998 N2006 1.356 . S
C1999 C1998 1.363 . S
C1999 C2005 1.363 . S
C2000 C2001 1.363 . S
C2000 C2005 1.379 . S
C2000 N2007 1.356 . S
C2001 C2000 1.363 . S
C2001 C2004 1.363 . S
N2002 C2004 1.356 . S
N2002 H2014 0.984 . S
N2002 H2015 0.985 . S
N2003 C2005 1.356 . S
N2003 H2008 0.984 . S
N2003 H2009 0.985 . S
C2004 C1998 1.379 . S
C2004 C2001 1.363 . S
C2004 N2002 1.356 . S
C2005 C1999 1.363 . S
C2005 C2000 1.379 . S
C2005 N2003 1.356 . S
N2006 C1998 1.356 . S
N2006 H2012 0.984 . S
N2006 H2013 0.984 . S
N2007 C2000 1.356 . S
N2007 H2010 0.984 . S
N2007 H2011 0.985 . S
H2008 N2003 0.984 . S
H2009 N2003 0.985 . S
H2010 N2007 0.984 . S
H2011 N2007 0.985 . S
H2012 N2006 0.984 . S
H2013 N2006 0.984 . S
H2014 N2002 0.984 . S
H2015 N2002 0.985 . S
C2016 C2017 1.363 . S
C2016 C2022 1.379 . S
C2016 N2024 1.356 . S
C2017 C2016 1.363 . S
C2017 C2023 1.363 . S
C2018 C2019 1.363 . S
C2018 C2023 1.379 . S
C2018 N2025 1.356 . S
C2019 C2018 1.363 . S
C2019 C2022 1.363 . S
N2020 C2022 1.356 . S
N2020 H2032 0.984 . S
N2020 H2033 0.985 . S
N2021 C2023 1.356 . S
N2021 H2026 0.984 . S
N2021 H2027 0.985 . S
C2022 C2016 1.379 . S
C2022 C2019 1.363 . S
C2022 N2020 1.356 . S
C2023 C2017 1.363 . S
C2023 C2018 1.379 . S
C2023 N2021 1.356 . S
N2024 C2016 1.356 . S
N2024 H2030 0.984 . S
N2024 H2031 0.984 . S
N2025 C2018 1.356 . S
N2025 H2028 0.984 . S
N2025 H2029 0.985 . S
H2026 N2021 0.984 . S
H2027 N2021 0.985 . S
H2028 N2025 0.984 . S
H2029 N2025 0.985 . S
H2030 N2024 0.984 . S
H2031 N2024 0.984 . S
H2032 N2020 0.984 . S
H2033 N2020 0.985 . S
C2034 C2035 1.363 . S
C2034 C2040 1.379 . S
C2034 N2042 1.356 . S
C2035 C2034 1.363 . S
C2035 C2041 1.363 . S
C2036 C2037 1.364 . S
C2036 C2041 1.381 . S
C2036 N2043 1.353 1_455 S
C2037 C2036 1.364 . S
C2037 C2040 1.363 . S
N2038 C2040 1.356 . S
N2038 H2050 0.984 . S
N2038 H2051 0.985 . S
N2039 C2041 1.356 1_655 S
N2039 H2044 0.970 1_655 S
N2039 H2045 0.985 . S
C2040 C2034 1.379 . S
C2040 C2037 1.363 . S
C2040 N2038 1.356 . S
C2041 C2035 1.363 . S
C2041 C2036 1.381 . S
C2041 N2039 1.356 1_455 S
N2042 C2034 1.356 . S
N2042 H2048 0.984 . S
N2042 H2049 0.984 . S
N2043 C2036 1.353 1_655 S
N2043 H2046 0.984 . S
N2043 H2047 0.985 . S
H2044 N2039 0.970 1_455 S
H2045 N2039 0.985 . S
H2046 N2043 0.984 . S
H2047 N2043 0.985 . S
H2048 N2042 0.984 . S
H2049 N2042 0.984 . S
H2050 N2038 0.984 . S
H2051 N2038 0.985 . S
C2052 C2053 1.363 . S
C2052 C2058 1.379 . S
C2052 N2060 1.356 . S
C2053 C2052 1.363 . S
C2053 C2059 1.363 . S
C2054 C2055 1.363 . S
C2054 C2059 1.379 . S
C2054 N2061 1.356 . S
C2055 C2054 1.363 . S
C2055 C2058 1.363 . S
N2056 C2058 1.356 . S
N2056 H2068 0.984 . S
N2056 H2069 0.985 . S
N2057 C2059 1.356 . S
N2057 H2062 0.984 . S
N2057 H2063 0.985 . S
C2058 C2052 1.379 . S
C2058 C2055 1.363 . S
C2058 N2056 1.356 . S
C2059 C2053 1.363 . S
C2059 C2054 1.379 . S
C2059 N2057 1.356 . S
N2060 C2052 1.356 . S
N2060 H2066 0.984 . S
N2060 H2067 0.984 . S
N2061 C2054 1.356 . S
N2061 H2064 0.984 . S
N2061 H2065 0.985 . S
H2062 N2057 0.984 . S
H2063 N2057 0.985 . S
H2064 N2061 0.984 . S
H2065 N2061 0.985 . S
H2066 N2060 0.984 . S
H2067 N2060 0.984 . S
H2068 N2056 0.984 . S
H2069 N2056 0.985 . S
C2070 C2071 1.363 1_545 S
C2070 C2076 1.379 . S
C2070 N2078 1.356 . S
C2071 C2070 1.363 1_565 S
C2071 C2077 1.363 . S
C2072 C2073 1.363 . S
C2072 C2077 1.379 . S
C2072 N2079 1.356 . S
C2073 C2072 1.363 . S
C2073 C2076 1.363 1_565 S
N2074 C2076 1.356 . S
N2074 H2086 0.984 . S
N2074 H2087 0.985 . S
N2075 C2077 1.356 . S
N2075 H2080 0.984 . S
N2075 H2081 0.985 . S
C2076 C2070 1.379 . S
C2076 C2073 1.363 1_545 S
C2076 N2074 1.356 . S
C2077 C2071 1.363 . S
C2077 C2072 1.379 . S
C2077 N2075 1.356 . S
N2078 C2070 1.356 . S
N2078 H2084 0.984 . S
N2078 H2085 0.984 . S
N2079 C2072 1.356 . S
N2079 H2082 0.984 . S
N2079 H2083 0.985 . S
H2080 N2075 0.984 . S
H2081 N2075 0.985 . S
H2082 N2079 0.984 . S
H2083 N2079 0.985 . S
H2084 N2078 0.984 . S
H2085 N2078 0.984 . S
H2086 N2074 0.984 . S
H2087 N2074 0.985 . S
C2088 C2089 1.363 . S
C2088 C2094 1.379 . S
C2088 N2096 1.356 . S
C2089 C2088 1.363 . S
C2089 C2095 1.363 1_565 S
C2090 C2091 1.363 1_545 S
C2090 C2095 1.379 . S
C2090 N2097 1.356 . S
C2091 C2090 1.363 1_565 S
C2091 C2094 1.363 . S
N2092 C2094 1.356 . S
N2092 H2104 0.984 . S
N2092 H2105 0.985 . S
N2093 C2095 1.356 . S
N2093 H2098 0.984 . S
N2093 H2099 0.985 . S
C2094 C2088 1.379 . S
C2094 C2091 1.363 . S
C2094 N2092 1.356 . S
C2095 C2089 1.363 1_545 S
C2095 C2090 1.379 . S
C2095 N2093 1.356 . S
N2096 C2088 1.356 . S
N2096 H2102 0.984 . S
N2096 H2103 0.984 . S
N2097 C2090 1.356 . S
N2097 H2100 0.984 . S
N2097 H2101 0.985 . S
H2098 N2093 0.984 . S
H2099 N2093 0.985 . S
H2100 N2097 0.984 . S
H2101 N2097 0.985 . S
H2102 N2096 0.984 . S
H2103 N2096 0.984 . S
H2104 N2092 0.984 . S
H2105 N2092 0.985 . S
C2106 C2107 1.363 . S
C2106 C2112 1.379 . S
C2106 N2114 1.356 . S
C2107 C2106 1.363 . S
C2107 C2113 1.363 1_455 S
C2108 C2109 1.363 1_655 S
C2108 C2113 1.379 . S
C2108 N2115 1.356 . S
C2109 C2108 1.363 1_455 S
C2109 C2112 1.363 . S
N2110 C2112 1.356 . S
N2110 H2122 0.984 . S
N2110 H2123 0.985 . S
N2111 C2113 1.356 . S
N2111 H2116 0.984 . S
N2111 H2117 0.985 . S
C2112 C2106 1.379 . S
C2112 C2109 1.363 . S
C2112 N2110 1.356 . S
C2113 C2107 1.363 1_655 S
C2113 C2108 1.379 . S
C2113 N2111 1.356 . S
N2114 C2106 1.356 . S
N2114 H2120 0.984 . S
N2114 H2121 0.984 . S
N2115 C2108 1.356 . S
N2115 H2118 0.984 . S
N2115 H2119 0.985 . S
H2116 N2111 0.984 . S
H2117 N2111 0.985 . S
H2118 N2115 0.984 . S
H2119 N2115 0.985 . S
H2120 N2114 0.984 . S
H2121 N2114 0.984 . S
H2122 N2110 0.984 . S
H2123 N2110 0.985 . S
C2124 C2125 1.363 . S
C2124 C2130 1.379 . S
C2124 N2132 1.356 . S
C2125 C2124 1.363 . S
C2125 C2131 1.363 . S
C2126 C2127 1.363 . S
C2126 C2131 1.379 . S
C2126 N2133 1.356 . S
C2127 C2126 1.363 . S
C2127 C2130 1.363 . S
N2128 C2130 1.356 . S
N2128 H2140 0.984 . S
N2128 H2141 0.985 . S
N2129 C2131 1.356 . S
N2129 H2134 0.984 . S
N2129 H2135 0.985 . S
C2130 C2124 1.379 . S
C2130 C2127 1.363 . S
C2130 N2128 1.356 . S
C2131 C2125 1.363 . S
C2131 C2126 1.379 . S
C2131 N2129 1.356 . S
N2132 C2124 1.356 . S
N2132 H2138 0.984 . S
N2132 H2139 0.984 . S
N2133 C2126 1.356 . S
N2133 H2136 0.984 . S
N2133 H2137 0.985 . S
H2134 N2129 0.984 . S
H2135 N2129 0.985 . S
H2136 N2133 0.984 . S
H2137 N2133 0.985 . S
H2138 N2132 0.984 . S
H2139 N2132 0.984 . S
H2140 N2128 0.984 . S
H2141 N2128 0.985 . S
C2142 C2143 1.363 . S
C2142 C2148 1.379 . S
C2142 N2150 1.356 . S
C2143 C2142 1.363 . S
C2143 C2149 1.363 . S
C2144 C2145 1.363 . S
C2144 C2149 1.379 . S
C2144 N2151 1.356 . S
C2145 C2144 1.363 . S
C2145 C2148 1.363 . S
N2146 C2148 1.356 . S
N2146 H2158 0.984 . S
N2146 H2159 0.985 . S
N2147 C2149 1.356 . S
N2147 H2152 0.984 . S
N2147 H2153 0.985 . S
C2148 C2142 1.379 . S
C2148 C2145 1.363 . S
C2148 N2146 1.356 . S
C2149 C2143 1.363 . S
C2149 C2144 1.379 . S
C2149 N2147 1.356 . S
N2150 C2142 1.356 . S
N2150 H2156 0.984 . S
N2150 H2157 0.984 . S
N2151 C2144 1.356 . S
N2151 H2154 0.984 . S
N2151 H2155 0.985 . S
H2152 N2147 0.984 . S
H2153 N2147 0.985 . S
H2154 N2151 0.984 . S
H2155 N2151 0.985 . S
H2156 N2150 0.984 . S
H2157 N2150 0.984 . S
H2158 N2146 0.984 . S
H2159 N2146 0.985 . S
C2160 C2161 1.363 . S
C2160 C2166 1.379 . S
C2160 N2168 1.356 . S
C2161 C2160 1.363 . S
C2161 C2167 1.363 . S
C2162 C2163 1.363 . S
C2162 C2167 1.379 . S
C2162 N2169 1.356 . S
C2163 C2162 1.363 . S
C2163 C2166 1.363 . S
N2164 C2166 1.356 . S
N2164 H2176 0.984 . S
N2164 H2177 0.985 . S
N2165 C2167 1.356 . S
N2165 H2170 0.984 . S
N2165 H2171 0.985 . S
C2166 C2160 1.379 . S
C2166 C2163 1.363 . S
C2166 N2164 1.356 . S
C2167 C2161 1.363 . S
C2167 C2162 1.379 . S
C2167 N2165 1.356 . S
N2168 C2160 1.356 . S
N2168 H2174 0.984 . S
N2168 H2175 0.984 . S
N2169 C2162 1.356 . S
N2169 H2172 0.984 . S
N2169 H2173 0.985 . S
H2170 N2165 0.984 . S
H2171 N2165 0.985 . S
H2172 N2169 0.984 . S
H2173 N2169 0.985 . S
H2174 N2168 0.984 . S
H2175 N2168 0.984 . S
H2176 N2164 0.984 . S
H2177 N2164 0.985 . S
C2178 C2179 1.363 . S
C2178 C2184 1.379 . S
C2178 N2186 1.356 . S
C2179 C2178 1.363 . S
C2179 C2185 1.363 . S
C2180 C2181 1.363 . S
C2180 C2185 1.379 . S
C2180 N2187 1.356 . S
C2181 C2180 1.363 . S
C2181 C2184 1.363 . S
N2182 C2184 1.356 . S
N2182 H2194 0.984 . S
N2182 H2195 0.985 . S
N2183 C2185 1.356 . S
N2183 H2188 0.984 . S
N2183 H2189 0.985 . S
C2184 C2178 1.379 . S
C2184 C2181 1.363 . S
C2184 N2182 1.356 . S
C2185 C2179 1.363 . S
C2185 C2180 1.379 . S
C2185 N2183 1.356 . S
N2186 C2178 1.356 . S
N2186 H2192 0.984 . S
N2186 H2193 0.984 . S
N2187 C2180 1.356 . S
N2187 H2190 0.984 . S
N2187 H2191 0.985 . S
H2188 N2183 0.984 . S
H2189 N2183 0.985 . S
H2190 N2187 0.984 . S
H2191 N2187 0.985 . S
H2192 N2186 0.984 . S
H2193 N2186 0.984 . S
H2194 N2182 0.984 . S
H2195 N2182 0.985 . S
C2196 C2197 1.363 . S
C2196 C2202 1.379 . S
C2196 N2204 1.356 . S
C2197 C2196 1.363 . S
C2197 C2203 1.363 . S
C2198 C2199 1.363 . S
C2198 C2203 1.379 . S
C2198 N2205 1.356 . S
C2199 C2198 1.363 . S
C2199 C2202 1.363 . S
N2200 C2202 1.356 1_565 S
N2200 H2212 0.984 . S
N2200 H2213 0.957 . S
N2201 C2203 1.356 . S
N2201 H2206 0.984 . S
N2201 H2207 0.985 . S
C2202 C2196 1.379 . S
C2202 C2199 1.363 . S
C2202 N2200 1.356 1_545 S
C2203 C2197 1.363 . S
C2203 C2198 1.379 . S
C2203 N2201 1.356 . S
N2204 C2196 1.356 . S
N2204 H2210 0.984 1_545 S
N2204 H2211 0.984 . S
N2205 C2198 1.356 . S
N2205 H2208 0.984 . S
N2205 H2209 0.985 . S
H2206 N2201 0.984 . S
H2207 N2201 0.985 . S
H2208 N2205 0.984 . S
H2209 N2205 0.985 . S
H2210 N2204 0.984 1_565 S
H2211 N2204 0.984 . S
H2212 N2200 0.984 . S
H2213 N2200 0.957 . S
C2214 C2215 1.363 1_455 S
C2214 C2220 1.379 . S
C2214 N2222 1.356 . S
C2215 C2214 1.363 1_655 S
C2215 C2221 1.363 . S
C2216 C2217 1.363 . S
C2216 C2221 1.379 . S
C2216 N2223 1.356 . S
C2217 C2216 1.363 . S
C2217 C2220 1.363 1_655 S
N2218 C2220 1.356 . S
N2218 H2230 0.984 . S
N2218 H2231 0.985 . S
N2219 C2221 1.356 . S
N2219 H2224 0.984 . S
N2219 H2225 0.985 . S
C2220 C2214 1.379 . S
C2220 C2217 1.363 1_455 S
C2220 N2218 1.356 . S
C2221 C2215 1.363 . S
C2221 C2216 1.379 . S
C2221 N2219 1.356 . S
N2222 C2214 1.356 . S
N2222 H2228 0.984 . S
N2222 H2229 0.984 . S
N2223 C2216 1.356 . S
N2223 H2226 0.984 . S
N2223 H2227 0.985 . S
H2224 N2219 0.984 . S
H2225 N2219 0.985 . S
H2226 N2223 0.984 . S
H2227 N2223 0.985 . S
H2228 N2222 0.984 . S
H2229 N2222 0.984 . S
H2230 N2218 0.984 . S
H2231 N2218 0.985 . S
C2232 C2233 1.363 . S
C2232 C2238 1.379 . S
C2232 N2240 1.356 . S
C2233 C2232 1.363 . S
C2233 C2239 1.363 . S
C2234 C2235 1.363 . S
C2234 C2239 1.379 . S
C2234 N2241 1.356 . S
C2235 C2234 1.363 . S
C2235 C2238 1.363 . S
N2236 C2238 1.356 . S
N2236 H2248 0.984 . S
N2236 H2249 0.985 . S
N2237 C2239 1.356 . S
N2237 H2242 0.984 . S
N2237 H2243 0.985 . S
C2238 C2232 1.379 . S
C2238 C2235 1.363 . S
C2238 N2236 1.356 . S
C2239 C2233 1.363 . S
C2239 C2234 1.379 . S
C2239 N2237 1.356 . S
N2240 C2232 1.356 . S
N2240 H2246 0.984 . S
N2240 H2247 0.984 . S
N2241 C2234 1.356 . S
N2241 H2244 0.984 . S
N2241 H2245 0.985 . S
H2242 N2237 0.984 . S
H2243 N2237 0.985 . S
H2244 N2241 0.984 . S
H2245 N2241 0.985 . S
H2246 N2240 0.984 . S
H2247 N2240 0.984 . S
H2248 N2236 0.984 . S
H2249 N2236 0.985 . S
C2250 C2251 1.363 . S
C2250 C2256 1.379 . S
C2250 N2258 1.356 . S
C2251 C2250 1.363 . S
C2251 C2257 1.363 . S
C2252 C2253 1.363 . S
C2252 C2257 1.379 . S
C2252 N2259 1.356 . S
C2253 C2252 1.363 . S
C2253 C2256 1.363 . S
N2254 C2256 1.356 . S
N2254 H2266 0.984 . S
N2254 H2267 0.985 . S
N2255 C2257 1.356 . S
N2255 H2260 0.984 . S
N2255 H2261 0.985 . S
C2256 C2250 1.379 . S
C2256 C2253 1.363 . S
C2256 N2254 1.356 . S
C2257 C2251 1.363 . S
C2257 C2252 1.379 . S
C2257 N2255 1.356 . S
N2258 C2250 1.356 . S
N2258 H2264 0.984 . S
N2258 H2265 0.984 . S
N2259 C2252 1.356 . S
N2259 H2262 0.984 . S
N2259 H2263 0.985 . S
H2260 N2255 0.984 . S
H2261 N2255 0.985 . S
H2262 N2259 0.984 . S
H2263 N2259 0.985 . S
H2264 N2258 0.984 . S
H2265 N2258 0.984 . S
H2266 N2254 0.984 . S
H2267 N2254 0.985 . S
C2268 C2269 1.363 . S
C2268 C2274 1.379 . S
C2268 N2276 1.356 . S
C2269 C2268 1.363 . S
C2269 C2275 1.363 . S
C2270 C2271 1.363 . S
C2270 C2275 1.379 . S
C2270 N2277 1.356 . S
C2271 C2270 1.363 . S
C2271 C2274 1.363 . S
N2272 C2274 1.356 . S
N2272 H2284 0.984 . S
N2272 H2285 0.985 . S
N2273 C2275 1.356 . S
N2273 H2278 0.984 . S
N2273 H2279 0.985 . S
C2274 C2268 1.379 . S
C2274 C2271 1.363 . S
C2274 N2272 1.356 . S
C2275 C2269 1.363 . S
C2275 C2270 1.379 . S
C2275 N2273 1.356 . S
N2276 C2268 1.356 . S
N2276 H2282 0.984 . S
N2276 H2283 0.984 . S
N2277 C2270 1.356 . S
N2277 H2280 0.984 . S
N2277 H2281 0.985 . S
H2278 N2273 0.984 . S
H2279 N2273 0.985 . S
H2280 N2277 0.984 . S
H2281 N2277 0.985 . S
H2282 N2276 0.984 . S
H2283 N2276 0.984 . S
H2284 N2272 0.984 . S
H2285 N2272 0.985 . S
C2286 C2287 1.363 . S
C2286 C2292 1.379 . S
C2286 N2294 1.356 . S
C2287 C2286 1.363 . S
C2287 C2293 1.363 . S
C2288 C2289 1.363 . S
C2288 C2293 1.379 . S
C2288 N2295 1.356 . S
C2289 C2288 1.363 . S
C2289 C2292 1.363 . S
N2290 C2292 1.356 . S
N2290 H2302 0.984 . S
N2290 H2303 0.985 . S
N2291 C2293 1.356 . S
N2291 H2296 0.984 . S
N2291 H2297 0.985 . S
C2292 C2286 1.379 . S
C2292 C2289 1.363 . S
C2292 N2290 1.356 . S
C2293 C2287 1.363 . S
C2293 C2288 1.379 . S
C2293 N2291 1.356 . S
N2294 C2286 1.356 . S
N2294 H2300 0.984 . S
N2294 H2301 0.984 . S
N2295 C2288 1.356 . S
N2295 H2298 0.984 . S
N2295 H2299 0.985 . S
H2296 N2291 0.984 . S
H2297 N2291 0.985 . S
H2298 N2295 0.984 . S
H2299 N2295 0.985 . S
H2300 N2294 0.984 . S
H2301 N2294 0.984 . S
H2302 N2290 0.984 . S
H2303 N2290 0.985 . S
C2304 C2305 1.363 . S
C2304 C2310 1.379 . S
C2304 N2312 1.356 . S
C2305 C2304 1.363 . S
C2305 C2311 1.363 . S
C2306 C2307 1.363 . S
C2306 C2311 1.379 . S
C2306 N2313 1.356 . S
C2307 C2306 1.363 . S
C2307 C2310 1.363 . S
N2308 C2310 1.356 . S
N2308 H2320 0.984 . S
N2308 H2321 0.985 . S
N2309 C2311 1.356 . S
N2309 H2314 0.984 . S
N2309 H2315 0.985 . S
C2310 C2304 1.379 . S
C2310 C2307 1.363 . S
C2310 N2308 1.356 . S
C2311 C2305 1.363 . S
C2311 C2306 1.379 . S
C2311 N2309 1.356 . S
N2312 C2304 1.356 . S
N2312 H2318 0.984 . S
N2312 H2319 0.984 . S
N2313 C2306 1.356 . S
N2313 H2316 0.984 . S
N2313 H2317 0.985 . S
H2314 N2309 0.984 . S
H2315 N2309 0.985 . S
H2316 N2313 0.984 . S
H2317 N2313 0.985 . S
H2318 N2312 0.984 . S
H2319 N2312 0.984 . S
H2320 N2308 0.984 . S
H2321 N2308 0.985 . S
C2322 C2323 1.363 . S
C2322 C2328 1.379 . S
C2322 N2330 1.356 . S
C2323 C2322 1.363 . S
C2323 C2329 1.363 . S
C2324 C2325 1.363 . S
C2324 C2329 1.379 . S
C2324 N2331 1.356 . S
C2325 C2324 1.363 . S
C2325 C2328 1.363 . S
N2326 C2328 1.356 . S
N2326 H2338 0.984 . S
N2326 H2339 0.985 . S
N2327 C2329 1.356 . S
N2327 H2332 0.984 . S
N2327 H2333 0.985 . S
C2328 C2322 1.379 . S
C2328 C2325 1.363 . S
C2328 N2326 1.356 . S
C2329 C2323 1.363 . S
C2329 C2324 1.379 . S
C2329 N2327 1.356 . S
N2330 C2322 1.356 . S
N2330 H2336 0.984 . S
N2330 H2337 0.984 . S
N2331 C2324 1.356 . S
N2331 H2334 0.984 . S
N2331 H2335 0.985 . S
H2332 N2327 0.984 . S
H2333 N2327 0.985 . S
H2334 N2331 0.984 . S
H2335 N2331 0.985 . S
H2336 N2330 0.984 . S
H2337 N2330 0.984 . S
H2338 N2326 0.984 . S
H2339 N2326 0.985 . S
C2340 C2341 1.363 . S
C2340 C2346 1.379 . S
C2340 N2348 1.356 . S
C2341 C2340 1.363 . S
C2341 C2347 1.363 . S
C2342 C2343 1.363 . S
C2342 C2347 1.379 . S
C2342 N2349 1.356 . S
C2343 C2342 1.363 . S
C2343 C2346 1.363 . S
N2344 C2346 1.356 . S
N2344 H2356 0.984 . S
N2344 H2357 0.985 . S
N2345 C2347 1.356 . S
N2345 H2350 0.984 . S
N2345 H2351 0.985 . S
C2346 C2340 1.379 . S
C2346 C2343 1.363 . S
C2346 N2344 1.356 . S
C2347 C2341 1.363 . S
C2347 C2342 1.379 . S
C2347 N2345 1.356 . S
N2348 C2340 1.356 . S
N2348 H2354 0.984 . S
N2348 H2355 0.984 . S
N2349 C2342 1.356 . S
N2349 H2352 0.984 . S
N2349 H2353 0.985 . S
H2350 N2345 0.984 . S
H2351 N2345 0.985 . S
H2352 N2349 0.984 . S
H2353 N2349 0.985 . S
H2354 N2348 0.984 . S
H2355 N2348 0.984 . S
H2356 N2344 0.984 . S
H2357 N2344 0.985 . S
C2358 C2359 1.363 1_455 S
C2358 C2364 1.379 . S
C2358 N2366 1.356 . S
C2359 C2358 1.363 1_655 S
C2359 C2365 1.363 . S
C2360 C2361 1.363 . S
C2360 C2365 1.379 . S
C2360 N2367 1.356 . S
C2361 C2360 1.363 . S
C2361 C2364 1.363 1_655 S
N2362 C2364 1.356 . S
N2362 H2374 0.984 . S
N2362 H2375 0.985 . S
N2363 C2365 1.356 . S
N2363 H2368 0.984 . S
N2363 H2369 0.985 . S
C2364 C2358 1.379 . S
C2364 C2361 1.363 1_455 S
C2364 N2362 1.356 . S
C2365 C2359 1.363 . S
C2365 C2360 1.379 . S
C2365 N2363 1.356 . S
N2366 C2358 1.356 . S
N2366 H2372 0.984 . S
N2366 H2373 0.984 . S
N2367 C2360 1.356 . S
N2367 H2370 0.984 . S
N2367 H2371 0.985 . S
H2368 N2363 0.984 . S
H2369 N2363 0.985 . S
H2370 N2367 0.984 . S
H2371 N2367 0.985 . S
H2372 N2366 0.984 . S
H2373 N2366 0.984 . S
H2374 N2362 0.984 . S
H2375 N2362 0.985 . S
C2376 C2377 1.363 . S
C2376 C2382 1.379 . S
C2376 N2384 1.356 . S
C2377 C2376 1.363 . S
C2377 C2383 1.363 . S
C2378 C2379 1.363 . S
C2378 C2383 1.379 . S
C2378 N2385 1.356 . S
C2379 C2378 1.363 . S
C2379 C2382 1.363 . S
N2380 C2382 1.356 . S
N2380 H2392 0.984 . S
N2380 H2393 0.985 . S
N2381 C2383 1.356 . S
N2381 H2386 0.984 . S
N2381 H2387 0.985 . S
C2382 C2376 1.379 . S
C2382 C2379 1.363 . S
C2382 N2380 1.356 . S
C2383 C2377 1.363 . S
C2383 C2378 1.379 . S
C2383 N2381 1.356 . S
N2384 C2376 1.356 . S
N2384 H2390 0.984 . S
N2384 H2391 0.984 . S
N2385 C2378 1.356 . S
N2385 H2388 0.984 . S
N2385 H2389 0.985 . S
H2386 N2381 0.984 . S
H2387 N2381 0.985 . S
H2388 N2385 0.984 . S
H2389 N2385 0.985 . S
H2390 N2384 0.984 . S
H2391 N2384 0.984 . S
H2392 N2380 0.984 . S
H2393 N2380 0.985 . S
C2394 C2395 1.363 1_565 S
C2394 C2400 1.379 . S
C2394 N2402 1.356 . S
C2395 C2394 1.363 1_545 S
C2395 C2401 1.363 . S
C2396 C2397 1.363 . S
C2396 C2401 1.379 . S
C2396 N2403 1.356 . S
C2397 C2396 1.363 . S
C2397 C2400 1.363 1_545 S
N2398 C2400 1.356 . S
N2398 H2410 0.984 . S
N2398 H2411 0.985 . S
N2399 C2401 1.356 . S
N2399 H2404 0.984 . S
N2399 H2405 0.985 . S
C2400 C2394 1.379 . S
C2400 C2397 1.363 1_565 S
C2400 N2398 1.356 . S
C2401 C2395 1.363 . S
C2401 C2396 1.379 . S
C2401 N2399 1.356 . S
N2402 C2394 1.356 . S
N2402 H2408 0.984 . S
N2402 H2409 0.984 . S
N2403 C2396 1.356 . S
N2403 H2406 0.984 . S
N2403 H2407 0.985 . S
H2404 N2399 0.984 . S
H2405 N2399 0.985 . S
H2406 N2403 0.984 . S
H2407 N2403 0.985 . S
H2408 N2402 0.984 . S
H2409 N2402 0.984 . S
H2410 N2398 0.984 . S
H2411 N2398 0.985 . S
C1117 C7 1.485 . S
C1119 C729 1.497 . S
C1135 C23 1.624 . S
C1137 C777 1.612 . S
C1155 C825 1.509 . S
C1153 C37 1.485 . S
C1171 C35 1.488 . S
C1173 C849 1.510 . S
C1189 C9 1.484 . S
C1191 C921 1.516 . S
C1207 C21 1.590 . S
C1209 C969 1.625 . S
C1225 C49 1.485 . S
C1227 C897 1.504 . S
C1245 C945 1.613 . S
C1243 C65 1.627 . S
C1263 C873 1.514 . S
C1261 C79 1.499 1_565 S
C1279 C77 1.478 . S
C1281 C801 1.496 . S
C1299 C705 1.531 . S
C1297 C51 1.505 1_655 S
C1315 C63 1.590 . S
C1317 C753 1.623 . S
C1333 C91 1.644 . S
C1335 C1017 1.682 . S
C1351 C107 1.692 . S
C1353 C1065 1.668 . S
C1371 C1089 1.652 . S
C1369 C121 1.700 . S
C1387 C119 1.625 . S
C1389 C273 1.635 . S
C1405 C93 1.693 . S
C1407 C345 1.673 . S
C1423 C105 1.638 . S
C1425 C393 1.663 . S
C1441 C133 1.583 . S
C1443 C321 1.613 . S
C1459 C149 1.674 . S
C1461 C369 1.650 . S
C1479 C297 1.616 . S
C1477 C163 1.687 . S
C1497 C1113 1.662 . S
C1495 C161 1.680 . S
C1515 C993 1.666 . S
C1513 C135 1.695 . S
C1533 C1041 1.690 . S
C1531 C147 1.656 . S
C1549 C175 1.582 . S
C1551 C441 1.616 . S
C1567 C191 1.666 . S
C1569 C489 1.644 . S
C1585 C205 1.690 . S
C1587 C513 1.647 . S
C1603 C203 1.684 . S
C1605 C561 1.697 . S
C1623 C633 1.676 . S
C1621 C177 1.700 . S
C1641 C681 1.694 . S
C1639 C189 1.658 . S
C1659 C609 1.687 . S
C1657 C217 1.651 . S
C1677 C657 1.674 . S
C1675 C233 1.701 . S
C1693 C247 1.695 . S
C1695 C585 1.616 . S
C1713 C537 1.596 . S
C1711 C245 1.617 . S
C1729 C219 1.691 . S
C1731 C417 1.667 . S
C1749 C465 1.664 . S
C1747 C231 1.641 . S
C1767 C282 1.620 . S
C1765 C8 1.622 . S
C1783 C17 1.556 . S
C1785 C336 1.521 . S
C1803 C384 1.596 . S
C1801 C31 1.622 . S
C1821 C432 1.600 . S
C1819 C36 1.636 . S
C1839 C480 1.576 . S
C1837 C3 1.606 . S
C1857 C522 1.566 . S
C1855 C22 1.570 . S
C1873 C50 1.628 . S
C1875 C528 1.616 . S
C1891 C59 1.552 . S
C1893 C426 1.504 . S
C1909 C73 1.604 . S
C1911 C474 1.563 . S
C1927 C78 1.646 . S
C1929 C330 1.598 . S
C1947 C378 1.562 . S
C1945 C45 1.607 . S
C1963 C64 1.575 . S
C1965 C288 1.551 . S
C1983 C570 1.599 . S
C1981 C92 1.600 . S
C1999 C101 1.650 . S
C2001 C624 1.612 . S
C2017 C115 1.663 . S
C2019 C672 1.627 . S
C2037 C720 1.467 . S
C2035 C120 1.467 . S
C2053 C87 1.590 . S
C2055 C768 1.558 . S
C2071 C106 1.432 . S
C2073 C816 1.435 . S
C2089 C134 1.451 . S
C2091 C810 1.451 . S
C2107 C143 1.455 . S
C2109 C714 1.450 . S
C2127 C762 1.556 . S
C2125 C157 1.595 . S
C2143 C162 1.611 . S
C2145 C618 1.560 . S
C2161 C129 1.659 . S
C2163 C666 1.607 . S
C2181 C576 1.631 . S
C2179 C148 1.656 . S
C2199 C858 1.454 . S
C2197 C176 1.449 . S
C2215 C185 1.453 . S
C2217 C912 1.447 . S
C2233 C199 1.598 . S
C2235 C960 1.570 . S
C2253 C1008 1.569 . S
C2251 C204 1.605 . S
C2271 C1056 1.617 . S
C2269 C171 1.657 . S
C2287 C190 1.653 . S
C2289 C1098 1.648 . S
C2305 C218 1.607 . S
C2307 C1104 1.588 . S
C2323 C227 1.647 . S
C2325 C1002 1.597 . S
C2343 C1050 1.603 . S
C2341 C241 1.649 . S
C2361 C906 1.458 . S
C2359 C246 1.456 . S
C2379 C954 1.550 . S
C2377 C213 1.594 . S
C2395 C232 1.440 . S
C2397 C864 1.440 . S
