# Generated by pormake.
# Topology pyr, (3,6)-cn, num edge types: 1
# Building blocks:
#     Node 0, Type 0, BuildingBlock: PAMTOO_clean_linker_0, # of connection points: 3
#     Node 1, Type 0, BuildingBlock: PAMTOO_clean_linker_0, # of connection points: 3
#     Node 2, Type 0, BuildingBlock: PAMTOO_clean_linker_0, # of connection points: 3
#     Node 3, Type 0, BuildingBlock: PAMTOO_clean_linker_0, # of connection points: 3
#     Node 4, Type 0, BuildingBlock: PAMTOO_clean_linker_0, # of connection points: 3
#     Node 5, Type 0, BuildingBlock: PAMTOO_clean_linker_0, # of connection points: 3
#     Node 6, Type 0, BuildingBlock: PAMTOO_clean_linker_0, # of connection points: 3
#     Node 7, Type 0, BuildingBlock: PAMTOO_clean_linker_0, # of connection points: 3
#     Node 8, Type 1, BuildingBlock: BETFEN_clean_sbu_0, # of connection points: 6
#     Node 9, Type 1, BuildingBlock: BETFEN_clean_sbu_0, # of connection points: 6
#     Node 10, Type 1, BuildingBlock: BETFEN_clean_sbu_0, # of connection points: 6
#     Node 11, Type 1, BuildingBlock: BETFEN_clean_sbu_0, # of connection points: 6
#     Edge 12, Type (0, 1), BuildingBlock: MIFKUJ_clean_linker_0, # of connection points: 2
#     Edge 13, Type (0, 1), BuildingBlock: MIFKUJ_clean_linker_0, # of connection points: 2
#     Edge 14, Type (0, 1), BuildingBlock: MIFKUJ_clean_linker_0, # of connection points: 2
#     Edge 15, Type (0, 1), BuildingBlock: MIFKUJ_clean_linker_0, # of connection points: 2
#     Edge 16, Type (0, 1), BuildingBlock: MIFKUJ_clean_linker_0, # of connection points: 2
#     Edge 17, Type (0, 1), BuildingBlock: MIFKUJ_clean_linker_0, # of connection points: 2
#     Edge 18, Type (0, 1), BuildingBlock: MIFKUJ_clean_linker_0, # of connection points: 2
#     Edge 19, Type (0, 1), BuildingBlock: MIFKUJ_clean_linker_0, # of connection points: 2
#     Edge 20, Type (0, 1), BuildingBlock: MIFKUJ_clean_linker_0, # of connection points: 2
#     Edge 21, Type (0, 1), BuildingBlock: MIFKUJ_clean_linker_0, # of connection points: 2
#     Edge 22, Type (0, 1), BuildingBlock: MIFKUJ_clean_linker_0, # of connection points: 2
#     Edge 23, Type (0, 1), BuildingBlock: MIFKUJ_clean_linker_0, # of connection points: 2
#     Edge 24, Type (0, 1), BuildingBlock: MIFKUJ_clean_linker_0, # of connection points: 2
#     Edge 25, Type (0, 1), BuildingBlock: MIFKUJ_clean_linker_0, # of connection points: 2
#     Edge 26, Type (0, 1), BuildingBlock: MIFKUJ_clean_linker_0, # of connection points: 2
#     Edge 27, Type (0, 1), BuildingBlock: MIFKUJ_clean_linker_0, # of connection points: 2
#     Edge 28, Type (0, 1), BuildingBlock: MIFKUJ_clean_linker_0, # of connection points: 2
#     Edge 29, Type (0, 1), BuildingBlock: MIFKUJ_clean_linker_0, # of connection points: 2
#     Edge 30, Type (0, 1), BuildingBlock: MIFKUJ_clean_linker_0, # of connection points: 2
#     Edge 31, Type (0, 1), BuildingBlock: MIFKUJ_clean_linker_0, # of connection points: 2
#     Edge 32, Type (0, 1), BuildingBlock: MIFKUJ_clean_linker_0, # of connection points: 2
#     Edge 33, Type (0, 1), BuildingBlock: MIFKUJ_clean_linker_0, # of connection points: 2
#     Edge 34, Type (0, 1), BuildingBlock: MIFKUJ_clean_linker_0, # of connection points: 2
#     Edge 35, Type (0, 1), BuildingBlock: MIFKUJ_clean_linker_0, # of connection points: 2
# Relax obj value: 0.146
# Max RMSD: 0.272
# Mean RMSD: 0.146
data_MOF--net-pyr--node1-BETFEN_clean_sbu_0--node2-PAMTOO_clean_linker_0--edge1-MIFKUJ_clean_linker_0
_symmetry_space_group_name_H-M    P1
_symmetry_Int_Tables_number       1
_symmetry_cell_setting            triclinic
loop_
_symmetry_equiv_pos_as_xyz
'x, y, z'
_cell_length_a     46.335205
_cell_length_b     51.052523
_cell_length_c     49.295942
_cell_angle_alpha  91.147383
_cell_angle_beta   99.99575
_cell_angle_gamma 109.89526
loop_
_atom_site_label
_atom_site_type_symbol
_atom_site_fract_x
_atom_site_fract_y
_atom_site_fract_z
_atom_type_partial_charge
H0 H 0.33123 0.32824 0.28176 0.0
H1 H 0.38875 0.28141 0.31294 0.0
H2 H 0.40628 0.32684 0.2422 0.0
H3 H 0.37701 0.26345 0.24309 0.0
C4 C 0.39806 0.26222 0.25717 0.0
O5 O 0.41608 0.28784 0.27134 0.0
H6 H 0.38992 0.24692 0.27241 0.0
C7 C 0.3527 0.32397 0.28237 0.0
C8 C 0.36984 0.33223 0.26121 0.0
C9 C 0.35922 0.30535 0.30078 0.0
C10 C 0.38522 0.2976 0.30026 0.0
C11 C 0.40155 0.3048 0.2787 0.0
C12 C 0.3949 0.32308 0.25992 0.0
H13 H 0.28327 0.86609 0.74174 0.0
H14 H 0.25044 0.80302 0.67305 0.0
H15 H 0.32172 0.80014 0.73987 0.0
H16 H 0.32063 0.79837 0.6709 0.0
C17 C 0.3069 0.77637 0.674 0.0
O18 O 0.28793 0.77558 0.69304 0.0
H19 H 0.29172 0.76712 0.65366 0.0
C20 C 0.28371 0.84711 0.73186 0.0
C21 C 0.30538 0.83478 0.74402 0.0
C22 C 0.26374 0.83595 0.70615 0.0
C23 C 0.26538 0.81183 0.69289 0.0
C24 C 0.28632 0.79899 0.7053 0.0
C25 C 0.3059 0.81042 0.73067 0.0
H26 H 0.742 0.2799 0.83576 0.0
H27 H 0.66269 0.27318 0.77273 0.0
H28 H 0.74165 0.34978 0.78835 0.0
H29 H 0.67984 0.35208 0.78084 0.0
C30 C 0.66972 0.33881 0.76092 0.0
O31 O 0.68795 0.32334 0.7562 0.0
H32 H 0.64603 0.32422 0.76235 0.0
C33 C 0.73089 0.28902 0.81927 0.0
C34 C 0.74526 0.31708 0.81464 0.0
C35 C 0.70084 0.27334 0.80507 0.0
C36 C 0.68617 0.28491 0.78368 0.0
C37 C 0.70175 0.31207 0.77687 0.0
C38 C 0.73106 0.32821 0.79255 0.0
H39 H 0.85825 0.71405 0.35946 0.0
H40 H 0.85421 0.64484 0.30655 0.0
H41 H 0.9243 0.72596 0.30499 0.0
H42 H 0.90042 0.68886 0.24863 0.0
C43 C 0.89367 0.66807 0.25708 0.0
O44 O 0.90385 0.67196 0.28574 0.0
H45 H 0.86769 0.65869 0.25236 0.0
C46 C 0.86662 0.70636 0.3429 0.0
C47 C 0.89208 0.72452 0.33277 0.0
C48 C 0.85203 0.67809 0.33315 0.0
C49 C 0.86468 0.66681 0.31374 0.0
C50 C 0.89088 0.68385 0.30343 0.0
C51 C 0.90435 0.71283 0.31293 0.0
H52 H 0.75099 0.7791 0.80274 0.0
H53 H 0.74139 0.71032 0.85293 0.0
H54 H 0.77918 0.71159 0.77912 0.0
H55 H 0.74493 0.64267 0.8222 0.0
C56 C 0.75216 0.66239 0.8357 0.0
O57 O 0.7666 0.68427 0.82113 0.0
H58 H 0.73077 0.66398 0.84175 0.0
C59 C 0.75166 0.75825 0.80551 0.0
C60 C 0.76564 0.74672 0.78812 0.0
C61 C 0.74304 0.74517 0.82892 0.0
C62 C 0.74619 0.71932 0.83378 0.0
C63 C 0.75753 0.70626 0.81475 0.0
C64 C 0.7671 0.72008 0.79191 0.0
H65 H 0.85235 0.20952 0.31316 0.0
H66 H 0.81085 0.27349 0.30714 0.0
H67 H 0.86811 0.26777 0.38346 0.0
H68 H 0.80899 0.27851 0.38828 0.0
C69 C 0.80573 0.28862 0.36876 0.0
O70 O 0.83265 0.29454 0.35791 0.0
H71 H 0.78551 0.27347 0.35424 0.0
C72 C 0.84966 0.2279 0.32215 0.0
C73 C 0.86368 0.23759 0.34998 0.0
C74 C 0.82994 0.24034 0.30672 0.0
C75 C 0.82602 0.26376 0.31872 0.0
C76 C 0.83963 0.27367 0.34623 0.0
C77 C 0.85826 0.26046 0.36194 0.0
H78 H 0.3898 0.75729 0.19576 0.0
H79 H 0.39787 0.70908 0.26515 0.0
H80 H 0.47191 0.78593 0.26096 0.0
H81 H 0.49768 0.74314 0.28988 0.0
C82 C 0.47363 0.72787 0.28858 0.0
O83 O 0.45331 0.7423 0.28907 0.0
H84 H 0.46762 0.71458 0.26874 0.0
C85 C 0.40275 0.75529 0.21566 0.0
C86 C 0.43257 0.7752 0.22638 0.0
C87 C 0.39011 0.73163 0.22966 0.0
C88 C 0.40718 0.72762 0.25454 0.0
C89 C 0.43661 0.74713 0.2656 0.0
C90 C 0.44913 0.771 0.25183 0.0
H91 H 0.18793 0.33388 0.78643 0.0
H92 H 0.26208 0.41489 0.79474 0.0
H93 H 0.25027 0.35465 0.72852 0.0
H94 H 0.3144 0.38555 0.75711 0.0
C95 C 0.31319 0.40693 0.75643 0.0
O96 O 0.2822 0.40535 0.75015 0.0
H97 H 0.32374 0.41806 0.77734 0.0
C98 C 0.20803 0.34859 0.77996 0.0
C99 C 0.21765 0.34067 0.75618 0.0
C100 C 0.22323 0.37578 0.79428 0.0
C101 C 0.24916 0.3943 0.78435 0.0
C102 C 0.25879 0.38668 0.76069 0.0
C103 C 0.24283 0.36014 0.74682 0.0
Pr104 Pr 0.02783 0.0259 0.55648 0.0
Pr105 Pr 0.07976 0.04517 0.52484 0.0
C106 C 0.97602 0.99539 0.5736 0.0
C107 C 0.9706 0.97871 0.59731 0.0
C108 C 0.96916 0.99087 0.62265 0.0
C109 C 0.96278 0.97447 0.64462 0.0
C110 C 0.95795 0.94592 0.64138 0.0
C111 C 0.9608 0.934 0.61667 0.0
C112 C 0.967 0.95026 0.59471 0.0
C113 C 0.07132 0.07444 0.58783 0.0
C114 C 0.08647 1.00154 0.57308 0.0
C115 C 0.13039 0.07721 0.50729 0.0
C116 C 0.13324 0.09272 0.48259 0.0
C117 C 0.14225 0.0825 0.46009 0.0
C118 C 0.14542 0.09732 0.43677 0.0
C119 C 0.13978 0.12267 0.4357 0.0
C120 C 0.129 0.13204 0.45752 0.0
C121 C 0.12584 0.11725 0.48084 0.0
C122 C 0.03696 0.99669 0.49313 0.0
C123 C 1.02064 0.06836 0.50697 0.0
O124 O 0.98761 0.98575 0.55497 0.0
O125 O 0.98823 0.02255 0.5788 0.0
O126 O 0.07437 0.06402 0.56535 0.0
O127 O 0.04649 0.05837 0.59571 0.0
O128 O 0.10063 0.01881 0.55597 0.0
O129 O 0.05819 0.99964 0.57659 0.0
O130 O 0.11846 0.08637 0.52599 0.0
O131 O 0.1201 0.04993 0.50309 0.0
O132 O 0.03307 1.00654 0.51567 0.0
O133 O 0.0626 1.01267 0.48643 0.0
O134 O 1.00694 0.05224 0.52507 0.0
O135 O 0.04864 0.06978 0.50329 0.0
H136 H 0.97199 1.01278 0.62526 0.0
H137 H 0.95986 0.98364 0.66351 0.0
H138 H 0.95634 0.91176 0.61383 0.0
H139 H 0.96802 0.9403 0.57547 0.0
H140 H 0.14761 0.06343 0.4608 0.0
H141 H 0.15422 0.08983 0.42038 0.0
H142 H 0.12439 0.15148 0.45707 0.0
H143 H 0.11822 0.12542 0.49765 0.0
Pr144 Pr 0.55302 0.03819 0.02907 0.0
Pr145 Pr 0.60831 0.02152 0.01683 0.0
C146 C 0.50259 0.04511 0.04148 0.0
C147 C 0.50334 0.0673 0.06096 0.0
C148 C 0.49032 0.08733 0.05162 0.0
C149 C 0.49607 0.11136 0.06861 0.0
C150 C 0.5148 0.11541 0.09503 0.0
C151 C 0.52781 0.09545 0.10435 0.0
C152 C 0.5222 0.07159 0.08745 0.0
C153 C 0.59191 0.07585 0.99934 0.0
C154 C 0.62052 0.06798 0.06957 0.0
C155 C 0.65727 0.01987 0.99601 0.0
C156 C 0.66218 0.99835 0.9795 0.0
C157 C 0.65623 0.97132 0.98813 0.0
C158 C 0.65619 0.94997 0.97024 0.0
C159 C 0.66171 0.9553 0.94342 0.0
C160 C 0.66806 0.98239 0.93494 0.0
C161 C 0.6684 1.00383 0.95295 0.0
C162 C 0.57897 0.98503 0.05386 0.0
C163 C 0.53856 0.98835 0.9784 0.0
O164 O 0.51329 0.02619 0.05229 0.0
O165 O 0.5128 0.05395 0.019 0.0
O166 O 0.58296 0.04949 0.99548 0.0
O167 O 0.58003 0.08342 0.0188 0.0
O168 O 0.63233 0.0604 0.04949 0.0
O169 O 0.59011 0.05849 0.06914 0.0
O170 O 0.63625 0.02931 0.9832 0.0
O171 O 0.65515 1.01564 0.02183 0.0
O172 O 0.5717 1.00477 0.04368 0.0
O173 O 0.60295 0.98329 0.04472 0.0
O174 O 0.52771 1.00276 0.99384 0.0
O175 O 0.56861 0.9916 0.98214 0.0
H176 H 0.47645 0.0847 0.03099 0.0
H177 H 0.48543 0.12648 0.06137 0.0
H178 H 0.54226 0.09832 0.12476 0.0
H179 H 0.53339 0.05695 0.09495 0.0
H180 H 0.65091 0.96649 1.0084 0.0
H181 H 0.65205 0.92932 0.97744 0.0
H182 H 0.67238 0.98689 0.91433 0.0
H183 H 0.67245 0.0245 0.94584 0.0
Pr184 Pr 0.58495 0.57439 0.55539 0.0
Pr185 Pr 0.56876 0.51773 0.52076 0.0
C186 C 0.5783 0.61928 0.57984 0.0
C187 C 0.55731 0.62541 0.5967 0.0
C188 C 0.57001 0.64435 0.62033 0.0
C189 C 0.55052 0.65253 0.63482 0.0
C190 C 0.51776 0.64209 0.62591 0.0
C191 C 0.50508 0.62226 0.60279 0.0
C192 C 0.52457 0.61397 0.58844 0.0
C193 C 0.61292 0.53806 0.57959 0.0
C194 C 0.52234 0.51806 0.56383 0.0
C195 C 0.57532 0.47315 0.49567 0.0
C196 C 0.59766 0.46703 0.48031 0.0
C197 C 0.59037 0.46171 0.45133 0.0
C198 C 0.61013 0.45354 0.43712 0.0
C199 C 0.63735 0.45007 0.45165 0.0
C200 C 0.64519 0.45641 0.48047 0.0
C201 C 0.62573 0.46491 0.49459 0.0
C202 C 0.53997 0.55326 0.49596 0.0
C203 C 0.63212 0.5731 0.51373 0.0
O204 O 0.56594 0.6096 0.55412 0.0
O205 O 0.59802 0.60765 0.59147 0.0
O206 O 0.58519 0.53152 0.56672 0.0
O207 O 0.62774 0.56503 0.58142 0.0
O208 O 0.53034 0.50137 0.54806 0.0
O209 O 0.53736 0.54548 0.567 0.0
O210 O 0.58489 0.48059 0.52221 0.0
O211 O 0.55789 0.48663 0.48346 0.0
O212 O 0.56779 0.5607 0.50912 0.0
O213 O 0.52637 0.52618 0.49399 0.0
O214 O 0.62198 0.59018 0.52675 0.0
O215 O 0.61864 0.54562 0.51304 0.0
H216 H 0.59513 0.65338 0.62724 0.0
H217 H 0.56122 0.66739 0.65281 0.0
H218 H 0.4801 0.61393 0.595 0.0
H219 H 0.51395 0.59919 0.57037 0.0
H220 H 0.56898 0.46319 0.43968 0.0
H221 H 0.60339 0.44876 0.41492 0.0
H222 H 0.66624 0.45436 0.49223 0.0
H223 H 0.63244 0.46921 0.51682 0.0
Pr224 Pr 0.06006 0.51682 0.03012 0.0
Pr225 Pr 0.06172 0.47421 0.06858 0.0
C226 C 0.04474 0.55303 0.99716 0.0
C227 C 0.02421 0.56947 0.99802 0.0
C228 C 0.03549 0.59598 1.01272 0.0
C229 C 1.01562 0.61109 0.01397 0.0
C230 C 0.98421 0.59995 1.00049 0.0
C231 C 0.97298 0.57339 0.98593 0.0
C232 C 0.99276 0.55834 0.98468 0.0
C233 C 0.11427 0.53244 0.07013 0.0
C234 C 0.02696 0.51649 0.08584 0.0
C235 C 0.07723 0.43852 0.10204 0.0
C236 C 0.08776 0.41485 0.09892 0.0
C237 C 0.07651 0.39153 0.11362 0.0
C238 C 0.09038 0.37117 0.11503 0.0
C239 C 0.11573 0.37413 0.10188 0.0
C240 C 0.12453 0.39574 0.08456 0.0
C241 C 0.11057 0.41607 0.08306 0.0
C242 C 1.00726 0.45791 0.02953 0.0
C243 C 0.09374 0.47484 1.01076 0.0
O244 O 0.03082 0.52594 0.99258 0.0
O245 O 0.07032 0.5603 0.01598 0.0
O246 O 0.08704 0.52145 0.07476 0.0
O247 O 0.11438 0.53529 0.04405 0.0
O248 O 0.04307 0.50085 0.09631 0.0
O249 O 0.0261 0.52205 0.05962 0.0
O250 O 0.09698 0.46324 0.09917 0.0
O251 O 0.0483 0.43462 0.09061 0.0
O252 O 0.03422 0.46974 0.02448 0.0
O253 O 1.00766 0.45337 0.05537 0.0
O254 O 0.0823 0.49432 1.00251 0.0
O255 O 0.09046 0.46497 0.03527 0.0
H256 H 0.05966 0.60511 0.02322 0.0
H257 H 0.02488 0.63154 0.02527 0.0
H258 H 0.9491 0.56454 0.97466 0.0
H259 H 0.98339 0.53804 0.97307 0.0
H260 H 0.05852 0.39005 0.12554 0.0
H261 H 0.08347 0.35467 0.12862 0.0
H262 H 0.14433 0.39854 0.07456 0.0
H263 H 0.11914 0.43368 0.0711 0.0
H264 H 0.31833 0.25792 0.27356 0.0
H265 H 0.27579 0.22274 0.29006 0.0
H266 H 0.29931 0.27321 0.36751 0.0
H267 H 0.3425 0.30834 0.351 0.0
H268 H 0.29256 0.21864 0.37415 0.0
H269 H 0.21941 0.26474 0.31987 0.0
H270 H 0.19652 0.27983 0.27655 0.0
H271 H 0.1891 0.20376 0.23237 0.0
H272 H 0.21057 0.18775 0.2757 0.0
H273 H 0.17467 0.17762 0.44477 0.0
H274 H 0.20669 0.20521 0.41427 0.0
H275 H 0.16515 0.13788 0.34958 0.0
H276 H 0.13199 0.11009 0.38 0.0
H277 H 0.18045 0.19102 0.33014 0.0
H278 H 0.22726 0.13892 0.38814 0.0
H279 H 0.24291 0.11951 0.43125 0.0
H280 H 0.30269 0.20171 0.46652 0.0
H281 H 0.28664 0.2218 0.42395 0.0
C282 C 0.31409 0.26147 0.29404 0.0
C283 C 0.33315 0.28565 0.31113 0.0
C284 C 0.28973 0.24156 0.30329 0.0
C285 C 0.2841 0.24568 0.32974 0.0
C286 C 0.30324 0.2699 0.34688 0.0
C287 C 0.32772 0.28988 0.33758 0.0
C288 C 0.25943 0.22408 0.34028 0.0
C289 C 0.26802 0.21273 0.36472 0.0
C290 C 0.22773 0.21498 0.32688 0.0
C291 C 0.21708 0.22538 0.30073 0.0
C292 C 0.21313 0.25142 0.30082 0.0
C293 C 0.20016 0.25999 0.27636 0.0
C294 C 0.19181 0.24296 0.25166 0.0
C295 C 0.19584 0.21705 0.25145 0.0
C296 C 0.20814 0.20812 0.27597 0.0
C297 C 0.17123 0.16907 0.42368 0.0
C298 C 0.15123 0.14157 0.41479 0.0
C299 C 0.18984 0.18474 0.40642 0.0
C300 C 0.18885 0.17303 0.38021 0.0
C301 C 0.16643 0.14689 0.37003 0.0
C302 C 0.14764 0.13112 0.38735 0.0
C303 C 0.21345 0.18721 0.36497 0.0
C304 C 0.205 0.19668 0.33948 0.0
C305 C 0.24538 0.19397 0.37712 0.0
C306 C 0.25548 0.18194 0.40281 0.0
C307 C 0.24348 0.15295 0.40516 0.0
C308 C 0.25244 0.1418 0.42953 0.0
C309 C 0.27374 0.15937 0.45163 0.0
C310 C 0.28614 0.18813 0.44939 0.0
C311 C 0.27709 0.19941 0.42513 0.0
H312 H 0.2807 0.1507 0.47046 0.0
H313 H 0.18201 0.24977 0.23272 0.0
H314 H 0.36712 0.84003 0.75575 0.0
H315 H 0.40567 0.86163 0.79743 0.0
H316 H 0.33566 0.88111 0.83264 0.0
H317 H 0.2966 0.85913 0.79084 0.0
H318 H 0.3865 0.92537 0.83751 0.0
H319 H 0.36625 0.83086 0.85855 0.0
H320 H 0.36054 0.78114 0.8528 0.0
H321 H 0.4561 0.80442 0.84296 0.0
H322 H 0.46228 0.85428 0.84834 0.0
H323 H 0.47517 0.97156 0.97078 0.0
H324 H 0.43673 0.94342 0.93183 0.0
H325 H 0.51022 0.93274 0.89485 0.0
H326 H 0.54946 0.96119 0.9343 0.0
H327 H 0.45834 0.88364 0.89117 0.0
H328 H 0.47728 0.97907 0.87066 0.0
H329 H 0.48206 0.02823 0.87946 0.0
H330 H 0.38677 1.00188 0.89068 0.0
H331 H 0.38156 0.95255 0.88229 0.0
C332 C 0.35965 0.84842 0.77252 0.0
C333 C 0.32861 0.84774 0.76989 0.0
C334 C 0.38181 0.86074 0.79644 0.0
C335 C 0.37357 0.8727 0.8184 0.0
C336 C 0.34258 0.87194 0.81599 0.0
C337 C 0.32031 0.85955 0.79201 0.0
C338 C 0.39793 0.88806 0.84274 0.0
C339 C 0.40182 0.91602 0.84949 0.0
C340 C 0.41865 0.87623 0.85795 0.0
C341 C 0.41459 0.8463 0.85348 0.0
C342 C 0.38591 0.82538 0.85477 0.0
C343 C 0.38263 0.79717 0.8517 0.0
C344 C 0.4079 0.78963 0.84743 0.0
C345 C 0.43652 0.81028 0.84621 0.0
C346 C 0.43992 0.83851 0.84927 0.0
C347 C 0.48341 0.96325 0.9545 0.0
C348 C 0.51557 0.96893 0.95559 0.0
C349 C 0.46126 0.94718 0.93214 0.0
C350 C 0.4706 0.93646 0.91016 0.0
C351 C 0.50255 0.94104 0.91155 0.0
C352 C 0.52492 0.95723 0.93409 0.0
C353 C 0.4467 0.92076 0.8858 0.0
C354 C 0.44297 0.89286 0.87906 0.0
C355 C 0.4259 0.93251 0.8707 0.0
C356 C 0.42914 0.96214 0.87609 0.0
C357 C 0.45745 0.98376 0.87525 0.0
C358 C 0.46021 1.01166 0.88011 0.0
C359 C 0.43475 0.01817 0.88569 0.0
C360 C 0.40647 0.99681 0.88639 0.0
C361 C 0.4036 0.96889 0.88156 0.0
H362 H 0.43692 0.03979 0.88941 0.0
H363 H 0.40534 0.76778 0.84514 0.0
H364 H 0.71818 0.37755 0.74259 0.0
H365 H 0.71527 0.41093 0.70791 0.0
H366 H 0.61448 0.37702 0.69479 0.0
H367 H 0.6174 0.34336 0.72879 0.0
H368 H 0.63297 0.38703 0.64689 0.0
H369 H 0.65931 0.43761 0.73735 0.0
H370 H 0.69208 0.45554 0.78346 0.0
H371 H 0.76983 0.49996 0.74603 0.0
H372 H 0.73761 0.48193 0.69968 0.0
H373 H 0.57665 0.48914 0.59476 0.0
H374 H 0.59274 0.45585 0.62222 0.0
H375 H 0.68964 0.50724 0.62777 0.0
H376 H 0.67324 0.54189 0.60131 0.0
H377 H 0.68184 0.48863 0.67535 0.0
H378 H 0.65252 0.44239 0.58411 0.0
H379 H 0.61862 0.42464 0.5384 0.0
H380 H 0.54578 0.3726 0.57709 0.0
H381 H 0.57923 0.38991 0.62302 0.0
C382 C 0.69547 0.37707 0.73193 0.0
C383 C 0.66801 0.3578 0.73815 0.0
C384 C 0.69381 0.39621 0.71229 0.0
C385 C 0.66464 0.3967 0.69891 0.0
C386 C 0.63724 0.37702 0.70475 0.0
C387 C 0.6389 0.35782 0.72421 0.0
C388 C 0.66224 0.41817 0.67954 0.0
C389 C 0.64359 0.40925 0.65313 0.0
C390 C 0.67692 0.44721 0.68729 0.0
C391 C 0.69619 0.45816 0.71511 0.0
C392 C 0.68346 0.45103 0.73898 0.0
C393 C 0.70193 0.46122 0.76514 0.0
C394 C 0.73305 0.4788 0.76768 0.0
C395 C 0.74574 0.48629 0.74404 0.0
C396 C 0.7274 0.47608 0.71782 0.0
C397 C 0.60144 0.49337 0.60168 0.0
C398 C 0.62375 0.51802 0.59576 0.0
C399 C 0.61065 0.47412 0.61722 0.0
C400 C 0.64248 0.47846 0.62641 0.0
C401 C 0.66494 0.50324 0.62068 0.0
C402 C 0.65562 0.52299 0.60558 0.0
C403 C 0.65175 0.45748 0.64293 0.0
C404 C 0.67174 0.46646 0.66879 0.0
C405 C 0.63829 0.42844 0.63467 0.0
C406 C 0.61838 0.41752 0.60701 0.0
C407 C 0.62925 0.42721 0.58287 0.0
C408 C 0.6101 0.41725 0.55692 0.0
C409 C 0.58002 0.39766 0.55485 0.0
C410 C 0.56909 0.38779 0.57871 0.0
C411 C 0.58818 0.39756 0.60471 0.0
H412 H 0.56521 0.39006 0.53473 0.0
H413 H 0.7473 0.48669 0.78796 0.0
H414 H 0.93889 0.64288 0.27579 0.0
H415 H 0.95862 0.61443 0.24821 0.0
H416 H 0.89795 0.62299 0.17473 0.0
H417 H 0.87776 0.65065 0.20233 0.0
H418 H 0.89848 0.57325 0.16955 0.0
H419 H 0.98124 0.66148 0.19184 0.0
H420 H 1.01966 0.70166 0.22218 0.0
H421 H 0.06237 0.6472 0.26396 0.0
H422 H 0.02393 0.60663 0.23404 0.0
H423 H 0.98258 0.54117 0.07002 0.0
H424 H 0.95781 0.56297 0.09934 0.0
H425 H 1.00981 0.54273 0.17202 0.0
H426 H 0.03429 0.52056 0.14281 0.0
H427 H 1.01278 0.59657 0.17796 0.0
H428 H 0.9303 0.50831 0.15078 0.0
H429 H 0.89172 0.46986 0.11851 0.0
H430 H 0.8483 0.52649 0.08282 0.0
H431 H 0.88692 0.56539 0.11463 0.0
C432 C 0.92961 0.63861 0.25382 0.0
C433 C 0.90656 0.64925 0.24144 0.0
C434 C 0.94111 0.62236 0.23783 0.0
C435 C 0.93036 0.61653 0.20888 0.0
C436 C 0.90694 0.62681 0.19678 0.0
C437 C 0.89541 0.64284 0.2127 0.0
C438 C 0.94375 0.60049 0.19106 0.0
C439 C 0.92352 0.57868 0.17131 0.0
C440 C 0.97643 0.6068 0.19301 0.0
C441 C 0.99955 0.63104 0.21096 0.0
C442 C 0.99871 0.65808 0.20764 0.0
C443 C 1.0205 0.68091 0.22473 0.0
C444 C 0.04338 0.67697 0.24505 0.0
C445 C 0.04459 0.6502 0.24826 0.0
C446 C 1.02283 0.62729 0.23123 0.0
C447 C 0.98864 0.54111 0.09224 0.0
C448 C 1.01062 0.5289 0.10383 0.0
C449 C 0.97425 0.55357 0.10911 0.0
C450 C 0.98156 0.5546 0.13821 0.0
C451 C 1.00348 0.54238 0.14977 0.0
C452 C 1.0175 0.52953 0.13292 0.0
C453 C 0.96758 0.56936 0.15658 0.0
C454 C 0.98774 0.59104 0.17633 0.0
C455 C 0.93485 0.56314 0.15424 0.0
C456 C 0.91178 0.53985 0.13488 0.0
C457 C 0.91275 0.51264 0.13586 0.0
C458 C 0.89081 0.49074 0.11769 0.0
C459 C 0.86764 0.49575 0.09856 0.0
C460 C 0.86631 0.52265 0.09761 0.0
C461 C 0.88821 0.54463 0.11572 0.0
H462 H 0.85069 0.47876 0.08451 0.0
H463 H 0.06023 0.69468 0.25827 0.0
H464 H 0.39967 0.20984 0.25047 0.0
H465 H 0.42949 0.19385 0.22178 0.0
H466 H 0.46591 0.2768 0.19514 0.0
H467 H 0.43537 0.29278 0.22339 0.0
H468 H 0.44542 0.23101 0.1526 0.0
H469 H 0.51209 0.25894 0.24519 0.0
H470 H 0.51968 0.25696 0.29582 0.0
H471 H 0.4942 0.16772 0.28556 0.0
H472 H 0.48625 0.16917 0.23492 0.0
H473 H 0.53314 0.17091 0.08676 0.0
H474 H 0.52796 0.20776 0.11632 0.0
H475 H 0.49529 0.14736 0.17446 0.0
H476 H 0.50166 0.11137 0.14589 0.0
H477 H 0.52517 0.19444 0.20105 0.0
H478 H 0.4459 0.15888 0.11843 0.0
H479 H 0.42698 0.14953 0.06803 0.0
H480 H 0.46073 0.23765 0.05865 0.0
H481 H 0.48042 0.24747 0.10902 0.0
C482 C 0.4142 0.22463 0.23861 0.0
C483 C 0.41641 0.2527 0.23983 0.0
C484 C 0.43105 0.21553 0.22226 0.0
C485 C 0.45034 0.23446 0.20712 0.0
C486 C 0.45139 0.26217 0.20714 0.0
C487 C 0.43431 0.27125 0.22337 0.0
C488 C 0.47007 0.22523 0.19195 0.0
C489 C 0.46348 0.22365 0.16304 0.0
C490 C 0.49269 0.21487 0.20587 0.0
C491 C 0.49869 0.21422 0.23633 0.0
C492 C 0.50817 0.23893 0.25377 0.0
C493 C 0.51249 0.23788 0.28246 0.0
C494 C 0.50745 0.21224 0.2939 0.0
C495 C 0.49818 0.18758 0.27669 0.0
C496 C 0.49387 0.18852 0.24801 0.0
C497 C 0.52574 0.16599 0.10629 0.0
C498 C 0.51747 0.13857 0.11419 0.0
C499 C 0.52284 0.18687 0.12306 0.0
C500 C 0.51076 0.18006 0.14721 0.0
C501 C 0.50483 0.15308 0.15596 0.0
C502 C 0.50832 0.1325 0.13961 0.0
C503 C 0.49982 0.19918 0.16157 0.0
C504 C 0.50808 0.20281 0.19043 0.0
C505 C 0.47726 0.20973 0.14758 0.0
C506 C 0.46506 0.2039 0.11739 0.0
C507 C 0.44948 0.17625 0.10559 0.0
C508 C 0.43862 0.17085 0.07704 0.0
C509 C 0.44276 0.19298 0.06013 0.0
C510 C 0.45766 0.22053 0.07177 0.0
C511 C 0.46872 0.22603 0.1003 0.0
H512 H 0.43433 0.18877 0.03803 0.0
H513 H 0.51072 0.21147 0.31611 0.0
H514 H 0.26542 0.86128 0.65783 0.0
H515 H 0.23306 0.88801 0.63743 0.0
H516 H 0.1812 0.86974 0.70352 0.0
H517 H 0.21434 0.84375 0.72446 0.0
H518 H 0.14246 0.86422 0.64862 0.0
H519 H 0.22864 0.93022 0.70866 0.0
H520 H 0.28426 0.95411 0.72943 0.0
H521 H 0.30292 0.98299 0.65088 0.0
H522 H 0.2474 0.95883 0.6295 0.0
H523 H 0.0679 0.96551 0.6132 0.0
H524 H 0.0948 0.93625 0.63719 0.0
H525 H 0.16821 0.96621 0.59025 0.0
H526 H 0.14205 0.99605 0.56702 0.0
H527 H 0.19464 0.96517 0.63956 0.0
H528 H 0.10614 0.89398 0.57952 0.0
H529 H 0.05059 0.86665 0.56098 0.0
H530 H 0.03535 0.84779 0.64286 0.0
H531 H 0.09093 0.87454 0.66189 0.0
C532 C 0.24696 0.8628 0.66788 0.0
C533 C 0.24243 0.85039 0.69274 0.0
C534 C 0.22849 0.87814 0.65624 0.0
C535 C 0.20457 0.88101 0.66886 0.0
C536 C 0.19936 0.86785 0.69328 0.0
C537 C 0.21837 0.85306 0.70529 0.0
C538 C 0.18608 0.89873 0.65707 0.0
C539 C 0.15378 0.88637 0.64692 0.0
C540 C 0.20063 0.92764 0.65471 0.0
C541 C 0.23394 0.94249 0.66741 0.0
C542 C 0.24466 0.94147 0.69575 0.0
C543 C 0.27615 0.95508 0.70765 0.0
C544 C 0.29713 0.97 0.69147 0.0
C545 C 0.28663 0.97139 0.66337 0.0
C546 C 0.25514 0.95775 0.65135 0.0
C547 C 0.0898 0.96592 0.60797 0.0
C548 C 0.10269 0.98342 0.58808 0.0
C549 C 0.10513 0.94885 0.62159 0.0
C550 C 0.13362 0.94839 0.61547 0.0
C551 C 0.14641 0.96591 0.59562 0.0
C552 C 0.13128 0.98309 0.58221 0.0
C553 C 0.15081 0.93061 0.63009 0.0
C554 C 0.18308 0.94301 0.64105 0.0
C555 C 0.13606 0.90178 0.63348 0.0
C556 C 0.10253 0.88655 0.62214 0.0
C557 C 0.09086 0.88423 0.59358 0.0
C558 C 0.05941 0.86879 0.58298 0.0
C559 C 0.03939 0.85578 0.60072 0.0
C560 C 0.05084 0.85798 0.62914 0.0
C561 C 0.08233 0.87315 0.63983 0.0
H562 H 1.01506 0.84387 0.59244 0.0
H563 H 0.32152 0.98053 0.70071 0.0
H564 H 0.79632 0.36181 0.80635 0.0
H565 H 0.84048 0.39074 0.84172 0.0
H566 H 0.80051 0.34029 0.90439 0.0
H567 H 0.75533 0.31402 0.87035 0.0
H568 H 0.8214 0.38859 0.92457 0.0
H569 H 0.86399 0.33455 0.87164 0.0
H570 H 0.879 0.31851 0.83047 0.0
H571 H 0.93595 0.40289 0.82165 0.0
H572 H 0.92087 0.41946 0.86251 0.0
H573 H 0.95369 0.41509 0.0324 0.0
H574 H 0.90887 0.39361 0.99482 0.0
H575 H 0.95349 0.45343 0.94066 0.0
H576 H 0.99922 0.47324 0.97744 0.0
H577 H 0.93076 0.40496 0.91507 0.0
H578 H 0.8899 0.45593 0.97431 0.0
H579 H 0.87741 0.46685 0.01891 0.0
H580 H 0.81806 0.38135 0.01887 0.0
H581 H 0.83057 0.36984 0.97453 0.0
C582 C 0.79684 0.3572 0.82773 0.0
C583 C 0.77262 0.335 0.83528 0.0
C584 C 0.82228 0.3735 0.84788 0.0
C585 C 0.82421 0.36733 0.87569 0.0
C586 C 0.79977 0.34551 0.88314 0.0
C587 C 0.7741 0.32999 0.86337 0.0
C588 C 0.85129 0.38322 0.89749 0.0
C589 C 0.84531 0.39199 0.92247 0.0
C590 C 0.88257 0.3882 0.89476 0.0
C591 C 0.89091 0.37827 0.86982 0.0
C592 C 0.87941 0.3497 0.86071 0.0
C593 C 0.88799 0.34051 0.83747 0.0
C594 C 0.90831 0.35968 0.82338 0.0
C595 C 0.92012 0.38808 0.83251 0.0
C596 C 0.91154 0.39738 0.85567 0.0
C597 C 0.95372 0.42366 1.01248 0.0
C598 C 0.97957 0.44598 1.00774 0.0
C599 C 0.92808 0.41155 0.9911 0.0
C600 C 0.92752 0.42238 0.96512 0.0
C601 C 0.95335 0.44485 0.96058 0.0
C602 C 0.97934 0.45631 0.98163 0.0
C603 C 0.90072 0.40973 0.94214 0.0
C604 C 0.90683 0.40175 0.91698 0.0
C605 C 0.86951 0.40477 0.94497 0.0
C606 C 0.86129 0.41203 0.97117 0.0
C607 C 0.87424 0.43947 0.98385 0.0
C608 C 0.86718 0.44575 1.0091 0.0
C609 C 0.84699 0.42481 0.02173 0.0
C610 C 0.8337 0.39756 1.00908 0.0
C611 C 0.84074 0.39116 0.98388 0.0
H612 H 0.84162 0.42971 0.0413 0.0
H613 H 0.91499 0.35251 0.80544 0.0
H614 H 0.80198 0.69259 0.33951 0.0
H615 H 0.76336 0.67183 0.36811 0.0
H616 H 0.79924 0.60468 0.38174 0.0
H617 H 0.83905 0.62603 0.35369 0.0
H618 H 0.7256 0.59202 0.37253 0.0
H619 H 0.8266 0.64788 0.42828 0.0
H620 H 0.87311 0.69089 0.43848 0.0
H621 H 0.81494 0.73907 0.44796 0.0
H622 H 0.76797 0.69638 0.43718 0.0
H623 H 0.66297 0.5443 0.49025 0.0
H624 H 0.6987 0.56016 0.45824 0.0
H625 H 0.69298 0.64246 0.46577 0.0
H626 H 0.65735 0.62675 0.49842 0.0
H627 H 0.75101 0.64727 0.46304 0.0
H628 H 0.65127 0.59503 0.41043 0.0
H629 H 0.60204 0.55499 0.39683 0.0
H630 H 0.65315 0.50331 0.37738 0.0
H631 H 0.70284 0.5428 0.39173 0.0
C632 C 0.80143 0.67313 0.34819 0.0
C633 C 0.82408 0.66127 0.34465 0.0
C634 C 0.7792 0.66125 0.36449 0.0
C635 C 0.77855 0.63687 0.37736 0.0
C636 C 0.79929 0.62353 0.37201 0.0
C637 C 0.82198 0.63568 0.35587 0.0
C638 C 0.75867 0.62749 0.39865 0.0
C639 C 0.73141 0.60372 0.39254 0.0
C640 C 0.76549 0.64346 0.42429 0.0
C641 C 0.79376 0.66898 0.43167 0.0
C642 C 0.8237 0.66768 0.43233 0.0
C643 C 0.85015 0.69199 0.43822 0.0
C644 C 0.84698 0.71771 0.4438 0.0
C645 C 0.81735 0.71914 0.4436 0.0
C646 C 0.79081 0.69489 0.4376 0.0
C647 C 0.66948 0.56591 0.48543 0.0
C648 C 0.65702 0.58418 0.49697 0.0
C649 C 0.68988 0.57492 0.46687 0.0
C650 C 0.6982 0.60241 0.45896 0.0
C651 C 0.68689 0.6211 0.47133 0.0
C652 C 0.66652 0.6121 0.4901 0.0
C653 C 0.71802 0.61124 0.43735 0.0
C654 C 0.74519 0.6352 0.44324 0.0
C655 C 0.71072 0.59567 0.41128 0.0
C656 C 0.68087 0.57183 0.40249 0.0
C657 C 0.65208 0.57504 0.40356 0.0
C658 C 0.62408 0.55242 0.39575 0.0
C659 C 0.62449 0.52655 0.38645 0.0
C660 C 0.6529 0.52329 0.38484 0.0
C661 C 0.681 0.54579 0.39282 0.0
H662 H 0.60279 0.50906 0.38037 0.0
H663 H 0.86748 0.73652 0.44834 0.0
H664 H 0.34868 0.376 0.25851 0.0
H665 H 0.30724 0.37972 0.22224 0.0
H666 H 0.31334 0.31179 0.17287 0.0
H667 H 0.35493 0.30822 0.20873 0.0
H668 H 0.29412 0.35289 0.14147 0.0
H669 H 0.26795 0.29393 0.21786 0.0
H670 H 0.27331 0.28802 0.2678 0.0
H671 H 0.239 0.35475 0.27981 0.0
H672 H 0.23348 0.36113 0.22994 0.0
H673 H 0.13783 0.33905 0.07511 0.0
H674 H 0.18151 0.32372 0.09503 0.0
H675 H 0.19062 0.36933 0.17282 0.0
H676 H 0.14633 0.38237 0.15379 0.0
H677 H 0.19995 0.32601 0.1843 0.0
H678 H 0.23607 0.39416 0.11671 0.0
H679 H 0.23608 0.40942 0.0695 0.0
H680 H 0.2545 0.33678 0.04362 0.0
H681 H 0.25431 0.32103 0.09064 0.0
C682 C 0.34224 0.36287 0.23932 0.0
C683 C 0.3548 0.34178 0.23645 0.0
C684 C 0.31853 0.36488 0.21872 0.0
C685 C 0.30692 0.34554 0.19532 0.0
C686 C 0.32204 0.3268 0.19086 0.0
C687 C 0.34593 0.32492 0.21134 0.0
C688 C 0.27595 0.34149 0.17853 0.0
C689 C 0.27338 0.34683 0.15063 0.0
C690 C 0.24903 0.33326 0.19059 0.0
C691 C 0.25055 0.32813 0.22023 0.0
C692 C 0.26159 0.30735 0.23116 0.0
C693 C 0.2648 0.30401 0.25947 0.0
C694 C 0.257 0.32128 0.27704 0.0
C695 C 0.24531 0.34155 0.26623 0.0
C696 C 0.24202 0.34496 0.23794 0.0
C697 C 0.14884 0.3449 0.09665 0.0
C698 C 0.13862 0.36131 0.11321 0.0
C699 C 0.1739 0.3365 0.10792 0.0
C700 C 0.1896 0.34554 0.13541 0.0
C701 C 0.17875 0.36161 0.15175 0.0
C702 C 0.15339 0.36911 0.14089 0.0
C703 C 0.21828 0.34004 0.1477 0.0
C704 C 0.22044 0.33188 0.17478 0.0
C705 C 0.24496 0.34689 0.13519 0.0
C706 C 0.24478 0.35627 0.107 0.0
C707 C 0.23992 0.38139 0.10087 0.0
C708 C 0.23999 0.39013 0.07418 0.0
C709 C 0.24519 0.37403 0.05355 0.0
C710 C 0.25039 0.34919 0.05959 0.0
C711 C 0.2503 0.34035 0.08624 0.0
H712 H 0.24527 0.38084 0.0329 0.0
H713 H 0.25961 0.31868 0.29896 0.0
H714 H 0.6487 0.26262 0.82703 0.0
H715 H 0.63116 0.2272 0.85922 0.0
H716 H 0.69989 0.1919 0.84417 0.0
H717 H 0.71735 0.22726 0.81195 0.0
H718 H 0.64614 0.15167 0.84889 0.0
H719 H 0.71534 0.23654 0.89932 0.0
H720 H 0.73634 0.28663 0.91547 0.0
H721 H 0.65296 0.27805 0.94675 0.0
H722 H 0.63117 0.22801 0.9303 0.0
H723 H 0.63264 0.07224 0.96632 0.0
H724 H 0.65323 0.10396 0.93241 0.0
H725 H 0.59884 0.15371 0.95056 0.0
H726 H 0.58032 0.12311 0.986 0.0
H727 H 0.65055 0.18687 0.94455 0.0
H728 H 0.58023 0.10071 0.88886 0.0
H729 H 0.56252 0.05067 0.87277 0.0
H730 H 0.65221 0.06218 0.85231 0.0
H731 H 0.67049 0.11217 0.86853 0.0
C732 C 0.65912 0.24657 0.82975 0.0
C733 C 0.68403 0.24734 0.81676 0.0
C734 C 0.64953 0.22669 0.84852 0.0
C735 C 0.66467 0.20729 0.85451 0.0
C736 C 0.68799 0.20676 0.83997 0.0
C737 C 0.69772 0.22673 0.82136 0.0
C738 C 0.65701 0.18821 0.87661 0.0
C739 C 0.64728 0.15935 0.86988 0.0
C740 C 0.65871 0.19825 0.90403 0.0
C741 C 0.67145 0.22855 0.91325 0.0
C742 C 0.70129 0.24539 0.9093 0.0
C743 C 0.71338 0.27378 0.91858 0.0
C744 C 0.69596 0.28553 0.93206 0.0
C745 C 0.6664 0.26893 0.93625 0.0
C746 C 0.65416 0.24056 0.92694 0.0
C747 C 0.6252 0.08992 0.96315 0.0
C748 C 0.60481 0.09504 0.97881 0.0
C749 C 0.63675 0.10802 0.94348 0.0
C750 C 0.62705 0.13101 0.9382 0.0
C751 C 0.60678 0.13618 0.95406 0.0
C752 C 0.5961 0.11861 0.97433 0.0
C753 C 0.63807 0.15005 0.9166 0.0
C754 C 0.64899 0.17907 0.92351 0.0
C755 C 0.63773 0.14015 0.88939 0.0
C756 C 0.62677 0.11004 0.88014 0.0
C757 C 0.5962 0.09248 0.88112 0.0
C758 C 0.58607 0.06415 0.87194 0.0
C759 C 0.60625 0.05324 0.86159 0.0
C760 C 0.63661 0.07063 0.86038 0.0
C761 C 0.64686 0.09894 0.86954 0.0
H762 H 0.59835 0.03131 0.85446 0.0
H763 H 0.70541 0.30748 0.93932 0.0
H764 H 0.86021 0.75689 0.3498 0.0
H765 H 0.88076 0.80077 0.37765 0.0
H766 H 0.97402 0.8093 0.36732 0.0
H767 H 0.95369 0.76253 0.34268 0.0
H768 H 0.98077 0.82704 0.415 0.0
H769 H 0.91845 0.85035 0.33488 0.0
H770 H 0.86988 0.84407 0.30134 0.0
H771 H 0.82355 0.85178 0.36774 0.0
H772 H 0.87174 0.85792 0.40164 0.0
H773 H 0.05246 0.97175 0.45174 0.0
H774 H 0.02424 0.92702 0.425 0.0
H775 H 0.94873 0.91325 0.46929 0.0
H776 H 0.97764 0.95855 0.49706 0.0
H777 H 0.92963 0.89827 0.40749 0.0
H778 H 0.99082 0.87922 0.48637 0.0
H779 H 0.03857 0.88745 0.52113 0.0
H780 H 0.08506 0.87004 0.45857 0.0
H781 H 0.03793 0.86319 0.42303 0.0
C782 C 0.88528 0.76759 0.35372 0.0
C783 C 0.90517 0.75502 0.34446 0.0
C784 C 0.89708 0.79361 0.36924 0.0
C785 C 0.92923 0.80951 0.37463 0.0
C786 C 0.9491 0.79787 0.3639 0.0
C787 C 0.93735 0.77105 0.34928 0.0
C788 C 0.94222 0.83718 0.39259 0.0
C789 C 0.96968 0.84266 0.41269 0.0
C790 C 0.92741 0.85767 0.39126 0.0
C791 C 0.89866 0.85444 0.37078 0.0
C792 C 0.89788 0.85066 0.3423 0.0
C793 C 0.87042 0.84711 0.32324 0.0
C794 C 0.84364 0.84748 0.33241 0.0
C795 C 0.8443 0.8515 0.36065 0.0
C796 C 0.8717 0.85508 0.37979 0.0
C797 C 0.02979 0.95945 0.45595 0.0
C798 C 1.01756 0.96908 0.47681 0.0
C799 C 1.01358 0.93366 0.44046 0.0
C800 C 0.9842 0.91643 0.44487 0.0
C801 C 0.97129 0.92608 0.46526 0.0
C802 C 0.98792 0.95198 0.48127 0.0
C803 C 0.96842 0.88805 0.42881 0.0
C804 C 0.94058 0.88252 0.40936 0.0
C805 C 0.98268 0.86742 0.43071 0.0
C806 C 1.01093 0.87099 0.45198 0.0
C807 C 1.01132 0.87744 0.47994 0.0
C808 C 0.03829 0.88181 0.49982 0.0
C809 C 0.06483 0.87907 0.49216 0.0
C810 C 0.06448 0.87213 0.4645 0.0
C811 C 0.03767 0.86814 0.44444 0.0
H812 H 0.08567 0.88237 0.50764 0.0
H813 H 0.8224 0.84469 0.31762 0.0
H814 H 0.29246 0.71928 0.67424 0.0
H815 H 0.32884 0.69334 0.67678 0.0
H816 H 0.40682 0.77114 0.69347 0.0
H817 H 0.37071 0.79693 0.69126 0.0
H818 H 0.40374 0.74006 0.64542 0.0
H819 H 0.39929 0.72632 0.74042 0.0
H820 H 0.37678 0.71083 0.7816 0.0
H821 H 0.34148 0.6257 0.74651 0.0
H822 H 0.36334 0.64071 0.70488 0.0
H823 H 0.53015 0.69578 0.64712 0.0
H824 H 0.49497 0.71509 0.66468 0.0
H825 H 0.42255 0.63377 0.65172 0.0
H826 H 0.45815 0.61385 0.63508 0.0
H827 H 0.4216 0.66419 0.69941 0.0
H828 H 0.42182 0.67763 0.60367 0.0
H829 H 0.44595 0.69186 0.563 0.0
H830 H 0.48801 0.77646 0.5996 0.0
H831 H 0.46448 0.76261 0.64069 0.0
C832 C 0.31739 0.73071 0.67934 0.0
C833 C 0.32873 0.76015 0.68213 0.0
C834 C 0.33818 0.71588 0.68084 0.0
C835 C 0.37064 0.73026 0.68514 0.0
C836 C 0.38192 0.75954 0.69009 0.0
C837 C 0.36123 0.7743 0.68879 0.0
C838 C 0.39241 0.71572 0.67977 0.0
C839 C 0.40791 0.72377 0.65759 0.0
C840 C 0.39706 0.69366 0.69488 0.0
C841 C 0.38252 0.68474 0.71927 0.0
C842 C 0.38624 0.70436 0.74123 0.0
C843 C 0.37373 0.69564 0.76473 0.0
C844 C 0.35759 0.66732 0.76662 0.0
C845 C 0.3539 0.64765 0.74499 0.0
C846 C 0.36633 0.65626 0.72142 0.0
C847 C 0.50707 0.6817 0.64861 0.0
C848 C 0.49709 0.65319 0.63934 0.0
C849 C 0.48682 0.69289 0.65852 0.0
C850 C 0.45588 0.67601 0.65916 0.0
C851 C 0.44624 0.64727 0.65134 0.0
C852 C 0.46658 0.63598 0.64149 0.0
C853 C 0.4331 0.68901 0.66545 0.0
C854 C 0.4173 0.68054 0.68743 0.0
C855 C 0.42774 0.71057 0.65007 0.0
C856 C 0.44165 0.71904 0.62532 0.0
C857 C 0.43639 0.69923 0.6031 0.0
C858 C 0.44994 0.70723 0.57998 0.0
C859 C 0.46857 0.73504 0.57875 0.0
C860 C 0.47361 0.75492 0.6006 0.0
C861 C 0.46017 0.74702 0.6238 0.0
H862 H 0.47904 0.7412 0.56082 0.0
H863 H 0.34804 0.6606 0.78488 0.0
H864 H 0.82813 0.76225 0.79806 0.0
H865 H 0.86493 0.80028 0.77857 0.0
H866 H 0.78768 0.81431 0.72612 0.0
H867 H 0.75059 0.77657 0.7462 0.0
H868 H 0.83614 0.80242 0.70083 0.0
H869 H 0.82255 0.86087 0.77168 0.0
H870 H 0.8233 0.87924 0.81851 0.0
H871 H 0.92156 0.89362 0.84101 0.0
H872 H 0.92129 0.87486 0.79446 0.0
H873 H 0.89667 0.92111 0.63608 0.0
H874 H 0.86871 0.88709 0.66504 0.0
H875 H 0.95636 0.89452 0.71791 0.0
H876 H 0.9846 0.92921 0.68864 0.0
H877 H 0.90847 0.89459 0.74629 0.0
H878 H 0.9231 0.838 0.67575 0.0
H879 H 0.9234 0.8214 0.62852 0.0
H880 H 0.82448 0.80389 0.60597 0.0
H881 H 0.82367 0.82071 0.65296 0.0
C882 C 0.8191 0.77315 0.78198 0.0
C883 C 0.78676 0.76606 0.77273 0.0
C884 C 0.84002 0.79517 0.77143 0.0
C885 C 0.82879 0.81011 0.75139 0.0
C886 C 0.7965 0.803 0.74191 0.0
C887 C 0.77549 0.78128 0.75287 0.0
C888 C 0.85082 0.83056 0.73766 0.0
C889 C 0.85175 0.82271 0.71063 0.0
C890 C 0.87204 0.85631 0.75122 0.0
C891 C 0.87175 0.86592 0.77971 0.0
C892 C 0.84418 0.86738 0.78677 0.0
C893 C 0.84456 0.87805 0.81323 0.0
C894 C 0.87242 0.88747 0.83277 0.0
C895 C 0.89996 0.88621 0.82591 0.0
C896 C 0.89969 0.87553 0.7995 0.0
C897 C 0.90982 0.91558 0.65405 0.0
C898 C 0.94243 0.92739 0.66049 0.0
C899 C 0.89399 0.89614 0.67038 0.0
C900 C 0.91066 0.8881 0.69316 0.0
C901 C 0.94334 0.90051 0.70019 0.0
C902 C 0.95932 0.92014 0.68369 0.0
C903 C 0.89319 0.86663 0.70927 0.0
C904 C 0.89317 0.87411 0.73671 0.0
C905 C 0.8729 0.84035 0.69627 0.0
C906 C 0.87338 0.83076 0.66782 0.0
C907 C 0.90148 0.83085 0.66064 0.0
C908 C 0.90172 0.82134 0.63393 0.0
C909 C 0.87398 0.81162 0.61425 0.0
C910 C 0.84595 0.81141 0.62123 0.0
C911 C 0.84558 0.8209 0.6479 0.0
H912 H 0.87421 0.80421 0.59359 0.0
H913 H 0.8727 0.89585 0.85319 0.0
H914 H 0.8472 0.22418 0.26011 0.0
H915 H 0.81221 0.19954 0.21668 0.0
H916 H 0.73248 0.20071 0.24992 0.0
H917 H 0.76704 0.22559 0.29272 0.0
H918 H 0.73161 0.14632 0.23038 0.0
H919 H 0.74558 0.23829 0.20347 0.0
H920 H 0.7729 0.28646 0.1931 0.0
H921 H 0.80981 0.25539 0.13054 0.0
H922 H 0.78315 0.20697 0.1409 0.0
H923 H 0.60645 0.08663 0.11654 0.0
H924 H 0.64257 0.11916 0.15476 0.0
H925 H 0.71935 0.12773 0.11304 0.0
H926 H 0.68354 0.09538 0.07477 0.0
H927 H 0.72247 0.17845 0.13602 0.0
H928 H 0.70899 0.0861 0.16479 0.0
H929 H 0.67937 0.03826 0.17464 0.0
H930 H 0.63973 0.07123 0.23367 0.0
H931 H 0.66886 0.1193 0.22391 0.0
C932 C 0.82223 0.21939 0.25791 0.0
C933 C 0.80982 0.22679 0.27974 0.0
C934 C 0.80233 0.20554 0.23312 0.0
C935 C 0.76977 0.19845 0.23009 0.0
C936 C 0.75751 0.20615 0.25176 0.0
C937 C 0.7773 0.22038 0.27618 0.0
C938 C 0.74805 0.18063 0.20566 0.0
C939 C 0.72942 0.15346 0.20979 0.0
C940 C 0.74556 0.18984 0.17876 0.0
C941 C 0.76284 0.21897 0.17336 0.0
C942 C 0.76001 0.2417 0.18788 0.0
C943 C 0.77524 0.26907 0.18189 0.0
C944 C 0.79321 0.27399 0.16127 0.0
C945 C 0.79599 0.25155 0.1466 0.0
C946 C 0.78084 0.22414 0.15254 0.0
C947 C 0.631 0.09545 0.11544 0.0
C948 C 0.64207 0.08815 0.09264 0.0
C949 C 0.65164 0.11405 0.13733 0.0
C950 C 0.68375 0.12572 0.13688 0.0
C951 C 0.69471 0.11901 0.11385 0.0
C952 C 0.67416 0.10034 0.09204 0.0
C953 C 0.7061 0.14415 0.16079 0.0
C954 C 0.72483 0.17133 0.1566 0.0
C955 C 0.70866 0.13509 0.18775 0.0
C956 C 0.69086 0.10625 0.19343 0.0
C957 C 0.69373 0.08313 0.17968 0.0
C958 C 0.67709 0.05599 0.18529 0.0
C959 C 0.65767 0.05171 0.20475 0.0
C960 C 0.65478 0.07458 0.2186 0.0
C961 C 0.67137 0.10177 0.21306 0.0
H962 H 0.645 0.03068 0.20917 0.0
H963 H 0.80487 0.29519 0.15658 0.0
H964 H 0.495 0.74523 0.34349 0.0
H965 H 0.50015 0.71655 0.38216 0.0
H966 H 0.45686 0.64187 0.32623 0.0
H967 H 0.45111 0.67049 0.28772 0.0
H968 H 0.43911 0.63391 0.37684 0.0
H969 H 0.5359 0.67182 0.34229 0.0
H970 H 0.57926 0.71051 0.32989 0.0
H971 H 0.60448 0.7478 0.41341 0.0
H972 H 0.56098 0.70948 0.4262 0.0
H973 H 0.49637 0.53776 0.44828 0.0
H974 H 0.48142 0.5682 0.41553 0.0
H975 H 0.54205 0.64062 0.46988 0.0
H976 H 0.55934 0.61014 0.50122 0.0
H977 H 0.5491 0.65189 0.42242 0.0
H978 H 0.45563 0.61287 0.45903 0.0
H979 H 0.41279 0.57433 0.4723 0.0
H980 H 0.38077 0.54031 0.38765 0.0
H981 H 0.42365 0.57846 0.37391 0.0
C982 C 0.48617 0.72267 0.33964 0.0
C983 C 0.47319 0.71006 0.31265 0.0
C984 C 0.48914 0.70632 0.36166 0.0
C985 C 0.47942 0.67708 0.357 0.0
C986 C 0.46464 0.66437 0.33031 0.0
C987 C 0.46153 0.68073 0.30831 0.0
C988 C 0.4872 0.65997 0.37925 0.0
C989 C 0.46314 0.63772 0.38679 0.0
C990 C 0.51848 0.6653 0.39266 0.0
C991 C 0.54507 0.68794 0.38513 0.0
C992 C 0.55063 0.68834 0.35797 0.0
C993 C 0.57522 0.71019 0.35087 0.0
C994 C 0.59457 0.73163 0.37084 0.0
C995 C 0.58945 0.73119 0.39797 0.0
C996 C 0.56486 0.7094 0.40516 0.0
C997 C 0.50624 0.56017 0.45334 0.0
C998 C 0.5286 0.57159 0.47756 0.0
C999 C 0.49748 0.57763 0.43469 0.0
C1000 C 0.50984 0.60687 0.44043 0.0
C1001 C 0.53194 0.6182 0.4649 0.0
C1002 C 0.54157 0.60076 0.48303 0.0
C1003 C 0.50099 0.62564 0.42036 0.0
C1004 C 0.52493 0.64819 0.413 0.0
C1005 C 0.46954 0.62075 0.40745 0.0
C1006 C 0.44293 0.59847 0.41546 0.0
C1007 C 0.43945 0.59716 0.44324 0.0
C1008 C 0.41519 0.57536 0.45085 0.0
C1009 C 0.3941 0.55486 0.43083 0.0
C1010 C 0.39712 0.55621 0.40313 0.0
C1011 C 0.42135 0.57795 0.39541 0.0
H1012 H 0.3754 0.53795 0.43678 0.0
H1013 H 0.61357 0.74855 0.3653 0.0
H1014 H 0.19092 0.34398 0.83242 0.0
H1015 H 0.17132 0.35949 0.87037 0.0
H1016 H 0.21033 0.44487 0.85152 0.0
H1017 H 0.22871 0.42971 0.8128 0.0
H1018 H 0.22044 0.44198 0.90779 0.0
H1019 H 0.13285 0.40994 0.83327 0.0
H1020 H 0.09546 0.37653 0.79579 0.0
H1021 H 0.06466 0.31739 0.85469 0.0
H1022 H 0.10227 0.35034 0.89252 0.0
H1023 H 0.12566 0.50233 0.97179 0.0
H1024 H 0.15002 0.48454 0.93884 0.0
H1025 H 0.12206 0.40415 0.97179 0.0
H1026 H 0.09859 0.42226 1.00571 0.0
H1027 H 0.10727 0.40306 0.91036 0.0
H1028 H 0.19386 0.43779 0.98564 0.0
H1029 H 0.23168 0.47215 0.02215 0.0
H1030 H 0.26434 0.52773 0.96098 0.0
H1031 H 0.22632 0.49386 0.92409 0.0
C1032 C 0.19517 0.36608 0.83586 0.0
C1033 C 0.21173 0.38528 0.81877 0.0
C1034 C 0.184 0.37501 0.85798 0.0
C1035 C 0.18906 0.40352 0.86415 0.0
C1036 C 0.2061 0.42279 0.84765 0.0
C1037 C 0.2169 0.41389 0.82531 0.0
C1038 C 0.17576 0.41312 0.88702 0.0
C1039 C 0.19563 0.43358 0.9081 0.0
C1040 C 0.14344 0.40217 0.88818 0.0
C1041 C 0.12058 0.38244 0.86565 0.0
C1042 C 0.11825 0.38972 0.83819 0.0
C1043 C 0.09701 0.37089 0.8169 0.0
C1044 C 0.07776 0.34481 0.82284 0.0
C1045 C 0.07964 0.33757 0.85012 0.0
C1046 C 0.1009 0.35632 0.8715 0.0
C1047 C 0.12486 0.48089 0.97228 0.0
C1048 C 0.11003 0.46384 0.99163 0.0
C1049 C 0.13891 0.47071 0.95332 0.0
C1050 C 0.13802 0.44286 0.9525 0.0
C1051 C 0.12319 0.42569 0.97177 0.0
C1052 C 0.10984 0.43613 0.99133 0.0
C1053 C 0.15194 0.43181 0.93113 0.0
C1054 C 0.13212 0.41126 0.9102 0.0
C1055 C 0.18427 0.44285 0.93004 0.0
C1056 C 0.20694 0.46343 0.95212 0.0
C1057 C 0.20883 0.45748 0.97999 0.0
C1058 C 0.23038 0.47684 1.00075 0.0
C1059 C 0.25033 0.50216 0.9939 0.0
C1060 C 0.24882 0.50814 0.96625 0.0
C1061 C 0.22728 0.48886 0.94541 0.0
H1062 H 0.26702 0.5171 1.01 0.0
H1063 H 0.06133 0.33025 0.80632 0.0
H1064 H 0.6888 0.73111 0.84852 0.0
H1065 H 0.67124 0.76389 0.87244 0.0
H1066 H 0.76183 0.82814 0.87753 0.0
H1067 H 0.7796 0.79525 0.85499 0.0
H1068 H 0.73921 0.83642 0.91934 0.0
H1069 H 0.70278 0.81889 0.82151 0.0
H1070 H 0.67618 0.79106 0.77708 0.0
H1071 H 0.58902 0.76444 0.80562 0.0
H1072 H 0.61526 0.79185 0.85039 0.0
H1073 H 0.70616 0.95849 0.91319 0.0
H1074 H 0.7153 0.9191 0.89213 0.0
H1075 H 0.63055 0.86232 0.91277 0.0
H1076 H 0.62077 0.90176 0.93336 0.0
H1077 H 0.64719 0.84875 0.86004 0.0
H1078 H 0.69054 0.87404 0.95911 0.0
H1079 H 0.72147 0.90931 0.99776 0.0
H1080 H 0.80202 0.92888 0.95958 0.0
H1081 H 0.77137 0.89399 0.92049 0.0
C1082 C 0.70516 0.75189 0.85589 0.0
C1083 C 0.7352 0.76107 0.8497 0.0
C1084 C 0.69513 0.7706 0.86923 0.0
C1085 C 0.71501 0.79855 0.87592 0.0
C1086 C 0.74609 0.80672 0.87236 0.0
C1087 C 0.75618 0.788 0.85944 0.0
C1088 C 0.70274 0.82021 0.88322 0.0
C1089 C 0.71904 0.83902 0.90641 0.0
C1090 C 0.67675 0.82387 0.86604 0.0
C1091 C 0.66104 0.80701 0.8394 0.0
C1092 C 0.67801 0.80685 0.81839 0.0
C1093 C 0.66299 0.79122 0.79314 0.0
C1094 C 0.63095 0.7759 0.78857 0.0
C1095 C 0.61385 0.77624 0.80923 0.0
C1096 C 0.62878 0.79179 0.83454 0.0
C1097 C 0.68886 0.93775 0.91227 0.0
C1098 C 0.66312 0.9329 0.92529 0.0
C1099 C 0.69417 0.91537 0.90037 0.0
C1100 C 0.67385 0.8881 0.90158 0.0
C1101 C 0.64644 0.8834 0.91195 0.0
C1102 C 0.64108 0.90579 0.92384 0.0
C1103 C 0.6836 0.86454 0.89599 0.0
C1104 C 0.66692 0.84561 0.87316 0.0
C1105 C 0.70994 0.86138 0.91286 0.0
C1106 C 0.72865 0.88151 0.93688 0.0
C1107 C 0.71483 0.88592 0.95895 0.0
C1108 C 0.7323 0.90585 0.98091 0.0
C1109 C 0.76369 0.92134 0.98112 0.0
C1110 C 0.77771 0.91685 0.9594 0.0
C1111 C 0.76032 0.89698 0.93737 0.0
H1112 H 0.77716 0.9368 0.99812 0.0
H1113 H 0.61934 0.76384 0.76898 0.0
H1114 H 0.91586 0.22762 0.34078 0.0
H1115 H 0.9442 0.2011 0.3678 0.0
H1116 H 0.87892 0.18454 0.42348 0.0
H1117 H 0.8521 0.21281 0.39753 0.0
H1118 H 0.93108 0.19137 0.45278 0.0
H1119 H 0.87938 0.13522 0.36656 0.0
H1120 H 0.86685 0.12685 0.3157 0.0
H1121 H 0.9638 0.14359 0.31396 0.0
H1122 H 0.97695 0.15244 0.36477 0.0
H1123 H 0.96596 0.0765 0.51266 0.0
H1124 H 0.9405 0.10566 0.48663 0.0
H1125 H 1.01312 0.12922 0.43834 0.0
H1126 H 0.03859 0.10001 0.46415 0.0
H1127 H 0.95817 0.11896 0.4052 0.0
H1128 H 1.00946 0.17388 0.49114 0.0
H1129 H 1.02281 0.18482 0.5417 0.0
H1130 H 0.92653 0.17117 0.54378 0.0
H1131 H 0.91253 0.1597 0.49328 0.0
C1132 C 0.90777 0.21845 0.35892 0.0
C1133 C 0.88172 0.22227 0.36699 0.0
C1134 C 0.92379 0.20296 0.37428 0.0
C1135 C 0.91342 0.18983 0.39751 0.0
C1136 C 0.88762 0.19417 0.40575 0.0
C1137 C 0.87218 0.21034 0.39085 0.0
C1138 C 0.92915 0.17161 0.41317 0.0
C1139 C 0.93645 0.17525 0.44225 0.0
C1140 C 0.93722 0.15086 0.39984 0.0
C1141 C 0.92915 0.14464 0.36942 0.0
C1142 C 0.89801 0.13714 0.35531 0.0
C1143 C 0.89081 0.13236 0.3265 0.0
C1144 C 0.91452 0.13473 0.31161 0.0
C1145 C 0.94546 0.14177 0.32551 0.0
C1146 C 0.9528 0.14664 0.35431 0.0
C1147 C 0.97655 0.0878 0.49646 0.0
C1148 C 1.00449 0.08574 0.49066 0.0
C1149 C 0.96199 0.1047 0.48162 0.0
C1150 C 0.97489 0.12009 0.46052 0.0
C1151 C 1.00252 0.11771 0.45443 0.0
C1152 C 1.01718 0.10096 0.46935 0.0
C1153 C 0.95967 0.13853 0.44475 0.0
C1154 C 0.95255 0.13496 0.41568 0.0
C1155 C 0.95162 0.15925 0.45808 0.0
C1156 C 0.95991 0.16562 0.48848 0.0
C1157 C 0.99109 0.17292 0.50242 0.0
C1158 C 0.99878 0.17927 0.53106 0.0
C1159 C 0.97552 0.17862 0.54595 0.0
C1160 C 0.94452 0.17161 0.53223 0.0
C1161 C 0.93669 0.16518 0.50361 0.0
H1162 H 0.98154 0.18361 0.56812 0.0
H1163 H 0.90891 0.13107 0.2893 0.0
H1164 H 0.38095 0.67876 0.21098 0.0
H1165 H 0.33163 0.643 0.18795 0.0
H1166 H 0.2826 0.69975 0.19794 0.0
H1167 H 0.33225 0.73594 0.22038 0.0
H1168 H 0.25284 0.63888 0.21071 0.0
H1169 H 0.2954 0.69756 0.14102 0.0
H1170 H 0.33662 0.72202 0.11539 0.0
H1171 H 0.34452 0.6438 0.09134 0.0
H1172 H 0.30377 0.61894 0.11731 0.0
H1173 H 0.11402 0.5677 0.11166 0.0
H1174 H 0.15954 0.59994 0.14316 0.0
H1175 H 0.21927 0.56435 0.10908 0.0
H1176 H 0.17386 0.53393 0.07589 0.0
H1177 H 0.24324 0.61587 0.11054 0.0
H1178 H 0.20009 0.55598 0.17877 0.0
H1179 H 0.1586 0.53073 0.20382 0.0
H1180 H 0.15153 0.60845 0.23075 0.0
H1181 H 0.19271 0.63414 0.20558 0.0
C1182 C 0.35956 0.68343 0.2084 0.0
C1183 C 0.36012 0.70992 0.2172 0.0
C1184 C 0.33152 0.66308 0.19539 0.0
C1185 C 0.30365 0.66884 0.19141 0.0
C1186 C 0.30396 0.69499 0.20104 0.0
C1187 C 0.33217 0.71559 0.2136 0.0
C1188 C 0.27477 0.64818 0.17527 0.0
C1189 C 0.25043 0.63388 0.18875 0.0
C1190 C 0.27217 0.64148 0.14684 0.0
C1191 C 0.29685 0.65645 0.13141 0.0
C1192 C 0.30622 0.68562 0.13057 0.0
C1193 C 0.32943 0.69955 0.11592 0.0
C1194 C 0.34326 0.68449 0.10182 0.0
C1195 C 0.33386 0.65546 0.10232 0.0
C1196 C 0.31071 0.64144 0.11701 0.0
C1197 C 0.13691 0.56662 0.11129 0.0
C1198 C 0.1408 0.54859 0.09155 0.0
C1199 C 0.16289 0.58485 0.12943 0.0
C1200 C 0.19294 0.58441 0.12884 0.0
C1201 C 0.1964 0.56523 0.10989 0.0
C1202 C 0.17057 0.54779 0.09104 0.0
C1203 C 0.22109 0.60561 0.14592 0.0
C1204 C 0.24542 0.62036 0.13256 0.0
C1205 C 0.22367 0.61238 0.1745 0.0
C1206 C 0.19937 0.59697 0.19014 0.0
C1207 C 0.18961 0.56768 0.18995 0.0
C1208 C 0.16614 0.55329 0.20417 0.0
C1209 C 0.1524 0.56797 0.21883 0.0
C1210 C 0.16219 0.5971 0.21938 0.0
C1211 C 0.18563 0.61159 0.20519 0.0
H1212 H 0.13421 0.55679 0.22979 0.0
H1213 H 0.36118 0.69531 0.09044 0.0
H1214 H 0.37201 0.44719 0.76574 0.0
H1215 H 0.40552 0.46666 0.73249 0.0
H1216 H 0.33178 0.4185 0.66576 0.0
H1217 H 0.29843 0.39845 0.69929 0.0
H1218 H 0.3846 0.41402 0.65852 0.0
H1219 H 0.35631 0.49394 0.68118 0.0
H1220 H 0.35254 0.53133 0.71132 0.0
H1221 H 0.45219 0.562 0.73908 0.0
H1222 H 0.4565 0.52456 0.70944 0.0
H1223 H 0.46461 0.47567 0.55104 0.0
H1224 H 0.42692 0.45812 0.58166 0.0
H1225 H 0.49207 0.51467 0.64894 0.0
H1226 H 0.52813 0.53363 0.61781 0.0
H1227 H 0.44156 0.51506 0.65492 0.0
H1228 H 0.4729 0.43679 0.63857 0.0
H1229 H 0.48148 0.40079 0.61016 0.0
H1230 H 0.38335 0.36727 0.57507 0.0
H1231 H 0.37429 0.40332 0.60302 0.0
C1232 C 0.36266 0.44119 0.74392 0.0
C1233 C 0.33213 0.42176 0.73518 0.0
C1234 C 0.38191 0.45241 0.72482 0.0
C1235 C 0.37126 0.4446 0.69629 0.0
C1236 C 0.3407 0.42518 0.68752 0.0
C1237 C 0.32146 0.41386 0.70669 0.0
C1238 C 0.39239 0.45544 0.67583 0.0
C1239 C 0.39669 0.43618 0.65754 0.0
C1240 C 0.40945 0.48428 0.67497 0.0
C1241 C 0.40665 0.50626 0.69332 0.0
C1242 C 0.37736 0.50847 0.69395 0.0
C1243 C 0.37515 0.52971 0.7109 0.0
C1244 C 0.40209 0.54898 0.72716 0.0
C1245 C 0.43132 0.54704 0.72653 0.0
C1246 C 0.43366 0.52581 0.70967 0.0
C1247 C 0.47071 0.4843 0.57236 0.0
C1248 C 0.49927 0.50612 0.58195 0.0
C1249 C 0.44926 0.47407 0.59007 0.0
C1250 C 0.45648 0.48452 0.61814 0.0
C1251 C 0.48536 0.50614 0.62756 0.0
C1252 C 0.50617 0.51698 0.60969 0.0
C1253 C 0.43416 0.47365 0.63774 0.0
C1254 C 0.42958 0.49288 0.65587 0.0
C1255 C 0.41766 0.44477 0.63909 0.0
C1256 C 0.42298 0.42287 0.62264 0.0
C1257 C 0.4532 0.4218 0.62469 0.0
C1258 C 0.45814 0.4014 0.60868 0.0
C1259 C 0.43299 0.3818 0.59076 0.0
C1260 C 0.40282 0.38249 0.58891 0.0
C1261 C 0.39776 0.40288 0.60485 0.0
H1262 H 0.43686 0.36604 0.57835 0.0
H1263 H 0.40032 0.56545 0.74021 0.0
H1264 H 0.76236 0.61719 0.85886 0.0
H1265 H 0.80428 0.61752 0.89712 0.0
H1266 H 0.83647 0.70753 0.90728 0.0
H1267 H 0.79428 0.70746 0.86999 0.0
H1268 H 0.87928 0.66751 0.89502 0.0
H1269 H 0.82238 0.69848 0.95667 0.0
H1270 H 0.77311 0.69431 0.97187 0.0
H1271 H 0.75858 0.60865 0.98721 0.0
H1272 H 0.80765 0.61232 0.9718 0.0
H1273 H 0.9993 0.65538 0.99219 0.0
H1274 H 0.96243 0.67899 0.97648 0.0
H1275 H 0.88591 0.60538 0.98725 0.0
H1276 H 0.92276 0.58246 1.00477 0.0
H1277 H 0.86944 0.64869 0.99206 0.0
H1278 H 0.91757 0.61274 0.92705 0.0
H1279 H 0.96216 0.60987 0.90768 0.0
H1280 H 0.9892 0.69703 0.89397 0.0
H1281 H 0.94494 0.70046 0.91364 0.0
C1282 C 0.77806 0.63697 0.86958 0.0
C1283 C 0.7754 0.66224 0.86109 0.0
C1284 C 0.80191 0.63715 0.89129 0.0
C1285 C 0.82329 0.66258 0.90468 0.0
C1286 C 0.82004 0.68778 0.89706 0.0
C1287 C 0.79592 0.68761 0.87574 0.0
C1288 C 0.85015 0.66266 0.92546 0.0
C1289 C 0.87764 0.66419 0.91647 0.0
C1290 C 0.84738 0.65769 0.95304 0.0
C1291 C 0.81846 0.65563 0.96298 0.0
C1292 C 0.80855 0.67874 0.96316 0.0
C1293 C 0.78071 0.67647 0.97184 0.0
C1294 C 0.7627 0.65121 0.98047 0.0
C1295 C 0.77256 0.6282 0.98054 0.0
C1296 C 0.8004 0.63038 0.97189 0.0
C1297 C 0.97477 0.64473 0.99247 0.0
C1298 C 0.96371 0.61677 0.99886 0.0
C1299 C 0.95371 0.65817 0.98327 0.0
C1300 C 0.92143 0.64353 0.97972 0.0
C1301 C 0.91071 0.61695 0.98944 0.0
C1302 C 0.93176 0.60373 0.99914 0.0
C1303 C 0.89882 0.65324 0.9617 0.0
C1304 C 0.87186 0.65321 0.97099 0.0
C1305 C 0.90182 0.65898 0.93408 0.0
C1306 C 0.92826 0.65693 0.9221 0.0
C1307 C 0.93315 0.63131 0.92003 0.0
C1308 C 0.95834 0.62959 0.90901 0.0
C1309 C 0.97856 0.65328 0.89968 0.0
C1310 C 0.97357 0.67872 0.90128 0.0
C1311 C 0.94845 0.68057 0.91237 0.0
H1312 H 0.99804 0.6519 0.89113 0.0
H1313 H 0.74112 0.64948 0.98713 0.0
H1314 H 0.40308 0.80455 0.19226 0.0
H1315 H 0.42619 0.84127 0.16333 0.0
H1316 H 0.51759 0.83866 0.19573 0.0
H1317 H 0.49472 0.8007 0.22341 0.0
H1318 H 0.51162 0.89514 0.19372 0.0
H1319 H 0.48994 0.80963 0.13795 0.0
H1320 H 0.45653 0.76318 0.11514 0.0
H1321 H 0.39534 0.79962 0.06764 0.0
H1322 H 0.42813 0.84627 0.09059 0.0
H1323 H 0.6033 0.95718 0.09253 0.0
H1324 H 0.57599 0.92468 0.12348 0.0
H1325 H 0.48987 0.93662 0.08849 0.0
H1326 H 0.51746 0.97014 0.05822 0.0
H1327 H 0.49 0.87673 0.09162 0.0
H1328 H 0.51152 0.96197 0.14509 0.0
H1329 H 0.54234 1.00849 0.16904 0.0
H1330 H 0.60143 0.97325 0.2212 0.0
H1331 H 0.57126 0.92651 0.19718 0.0
C1332 C 0.42807 0.81141 0.19309 0.0
C1333 C 0.44687 0.79929 0.21028 0.0
C1334 C 0.44125 0.83264 0.17666 0.0
C1335 C 0.47358 0.84265 0.17738 0.0
C1336 C 0.49259 0.83133 0.19501 0.0
C1337 C 0.47939 0.8097 0.21103 0.0
C1338 C 0.48751 0.86449 0.15927 0.0
C1339 C 0.50718 0.89106 0.17143 0.0
C1340 C 0.48094 0.85935 0.13014 0.0
C1341 C 0.46124 0.83138 0.11626 0.0
C1342 C 0.46916 0.8077 0.12288 0.0
C1343 C 0.45038 0.78134 0.10988 0.0
C1344 C 0.42375 0.77843 0.09003 0.0
C1345 C 0.41592 0.8019 0.08308 0.0
C1346 C 0.4346 0.8283 0.09607 0.0
C1347 C 0.5786 0.95303 0.0916 0.0
C1348 C 0.56247 0.96614 0.07302 0.0
C1349 C 0.56306 0.93452 0.1093 0.0
C1350 C 0.53092 0.92823 0.10825 0.0
C1351 C 0.51469 0.94123 0.08963 0.0
C1352 C 0.53046 0.96041 0.07246 0.0
C1353 C 0.51439 0.90737 0.12609 0.0
C1354 C 0.49431 0.88091 0.1139 0.0
C1355 C 0.52044 0.91265 0.15519 0.0
C1356 C 0.53941 0.9408 0.16904 0.0
C1357 C 0.53141 0.96419 0.16135 0.0
C1358 C 0.54867 0.99058 0.17502 0.0
C1359 C 0.57386 0.99383 0.19659 0.0
C1360 C 0.58193 0.9707 0.20445 0.0
C1361 C 0.56476 0.94425 0.19081 0.0
H1362 H 0.58699 1.01425 0.2073 0.0
H1363 H 0.40924 0.758 0.07998 0.0
H1364 H 0.19082 0.33024 0.70137 0.0
H1365 H 0.16845 0.28543 0.67311 0.0
H1366 H 0.18668 0.24268 0.74501 0.0
H1367 H 0.20872 0.28777 0.77357 0.0
H1368 H 0.20433 0.22384 0.69695 0.0
H1369 H 0.11455 0.23684 0.72159 0.0
H1370 H 0.08046 0.26378 0.72709 0.0
H1371 H 0.0639 0.27075 0.63952 0.0
H1372 H 0.09837 0.24421 0.63357 0.0
H1373 H 0.09689 0.08434 0.64288 0.0
H1374 H 0.12454 0.12951 0.67022 0.0
H1375 H 0.11706 0.17226 0.59633 0.0
H1376 H 0.09072 0.12684 0.56865 0.0
H1377 H 0.0949 0.19139 0.64495 0.0
H1378 H 0.18368 0.17798 0.61989 0.0
H1379 H 0.22013 0.15358 0.61414 0.0
H1380 H 0.24005 0.14878 0.70191 0.0
H1381 H 0.20323 0.17274 0.70814 0.0
C1382 C 0.18973 0.31127 0.71127 0.0
C1383 C 0.20124 0.31267 0.73987 0.0
C1384 C 0.177 0.28557 0.69503 0.0
C1385 C 0.1757 0.26036 0.70672 0.0
C1386 C 0.18733 0.26167 0.73532 0.0
C1387 C 0.19963 0.28745 0.75174 0.0
C1388 C 0.16171 0.23287 0.68901 0.0
C1389 C 0.18025 0.21657 0.68597 0.0
C1390 C 0.13055 0.22345 0.67383 0.0
C1391 C 0.10921 0.23876 0.67716 0.0
C1392 C 0.10377 0.24426 0.70352 0.0
C1393 C 0.08439 0.25945 0.70673 0.0
C1394 C 0.07008 0.26903 0.68368 0.0
C1395 C 0.07503 0.26334 0.65736 0.0
C1396 C 0.09447 0.2482 0.65405 0.0
C1397 C 0.10181 0.10333 0.63233 0.0
C1398 C 0.09202 0.10184 0.60346 0.0
C1399 C 0.11754 0.12923 0.64805 0.0
C1400 C 0.12298 0.15457 0.63555 0.0
C1401 C 0.11332 0.15316 0.60662 0.0
C1402 C 0.09848 0.12714 0.59073 0.0
C1403 C 0.13747 0.18223 0.65294 0.0
C1404 C 0.11897 0.19858 0.65596 0.0
C1405 C 0.16869 0.19168 0.66804 0.0
C1406 C 0.19029 0.17672 0.66443 0.0
C1407 C 0.19545 0.17133 0.63793 0.0
C1408 C 0.21628 0.15769 0.63459 0.0
C1409 C 0.23229 0.14952 0.65764 0.0
C1410 C 0.22755 0.15504 0.68407 0.0
C1411 C 0.20669 0.16864 0.68752 0.0
H1412 H 0.24846 0.13899 0.65502 0.0
H1413 H 0.05509 0.28082 0.6862 0.0
H1414 H 0.8003 0.32891 0.33312 0.0
H1415 H 0.77578 0.36417 0.33917 0.0
H1416 H 0.76521 0.33928 0.42094 0.0
H1417 H 0.7898 0.30476 0.41524 0.0
H1418 H 0.70768 0.33415 0.37854 0.0
H1419 H 0.81407 0.39746 0.41829 0.0
H1420 H 0.86824 0.42668 0.41639 0.0
H1421 H 0.83454 0.47254 0.35418 0.0
H1422 H 0.78013 0.44321 0.35533 0.0
H1423 H 0.6588 0.40837 0.46784 0.0
H1424 H 0.68932 0.38752 0.44489 0.0
H1425 H 0.68959 0.44292 0.37998 0.0
H1426 H 0.65859 0.46398 0.40306 0.0
H1427 H 0.74983 0.43705 0.3999 0.0
H1428 H 0.64634 0.38086 0.36173 0.0
H1429 H 0.59072 0.35328 0.35979 0.0
H1430 H 0.61651 0.29528 0.41188 0.0
H1431 H 0.67233 0.32275 0.41449 0.0
C1432 C 0.79371 0.33175 0.35271 0.0
C1433 C 0.79741 0.31433 0.37389 0.0
C1434 C 0.77964 0.35179 0.3561 0.0
C1435 C 0.76875 0.35438 0.38056 0.0
C1436 C 0.77364 0.3378 0.40199 0.0
C1437 C 0.78783 0.31811 0.39874 0.0
C1438 C 0.74861 0.37127 0.38313 0.0
C1439 C 0.71691 0.35666 0.38316 0.0
C1440 C 0.76024 0.40081 0.38771 0.0
C1441 C 0.79301 0.41775 0.38652 0.0
C1442 C 0.81818 0.41341 0.40384 0.0
C1443 C 0.84895 0.4301 0.40299 0.0
C1444 C 0.85484 0.45136 0.38508 0.0
C1445 C 0.82996 0.45599 0.36797 0.0
C1446 C 0.79916 0.43932 0.3687 0.0
C1447 C 0.66553 0.41634 0.44881 0.0
C1448 C 0.65639 0.43796 0.43736 0.0
C1449 C 0.68285 0.40428 0.43561 0.0
C1450 C 0.69168 0.41356 0.41066 0.0
C1451 C 0.68306 0.43544 0.39923 0.0
C1452 C 0.66523 0.44733 0.41233 0.0
C1453 C 0.70942 0.3996 0.39685 0.0
C1454 C 0.74044 0.41463 0.39461 0.0
C1455 C 0.69709 0.37046 0.38953 0.0
C1456 C 0.66355 0.354 0.38845 0.0
C1457 C 0.64017 0.36238 0.373 0.0
C1458 C 0.60859 0.34672 0.37173 0.0
C1459 C 0.60008 0.32256 0.38574 0.0
C1460 C 0.62314 0.314 0.40104 0.0
C1461 C 0.65476 0.3296 0.4024 0.0
H1462 H 0.57562 0.31044 0.38469 0.0
H1463 H 0.87867 0.46432 0.38453 0.0
loop_
_geom_bond_atom_site_label_1
_geom_bond_atom_site_label_2
_geom_bond_distance
_geom_bond_site_symmetry_2
_ccdc_geom_bond_type
H0 C7 0.929 . S
H1 C10 0.930 . S
H2 C12 0.929 . S
H3 C4 0.969 . S
C4 H3 0.969 . S
C4 O5 1.550 . S
C4 H6 0.973 . S
O5 C4 1.550 . S
O5 C11 1.412 . S
H6 C4 0.973 . S
C7 H0 0.929 . S
C7 C8 1.400 . S
C7 C9 1.364 . S
C8 C7 1.400 . S
C8 C12 1.377 . S
C9 C7 1.364 . S
C9 C10 1.374 . S
C10 H1 0.930 . S
C10 C9 1.374 . S
C10 C11 1.383 . S
C11 O5 1.412 . S
C11 C10 1.383 . S
C11 C12 1.394 . S
C12 H2 0.929 . S
C12 C8 1.377 . S
C12 C11 1.394 . S
H13 C20 0.929 . S
H14 C23 0.930 . S
H15 C25 0.929 . S
H16 C17 0.969 . S
C17 H16 0.969 . S
C17 O18 1.550 . S
C17 H19 0.973 . S
O18 C17 1.550 . S
O18 C24 1.412 . S
H19 C17 0.973 . S
C20 H13 0.929 . S
C20 C21 1.400 . S
C20 C22 1.364 . S
C21 C20 1.400 . S
C21 C25 1.377 . S
C22 C20 1.364 . S
C22 C23 1.374 . S
C23 H14 0.930 . S
C23 C22 1.374 . S
C23 C24 1.383 . S
C24 O18 1.412 . S
C24 C23 1.383 . S
C24 C25 1.394 . S
C25 H15 0.929 . S
C25 C21 1.377 . S
C25 C24 1.394 . S
H26 C33 0.929 . S
H27 C36 0.930 . S
H28 C38 0.929 . S
H29 C30 0.969 . S
C30 H29 0.969 . S
C30 O31 1.550 . S
C30 H32 0.973 . S
O31 C30 1.550 . S
O31 C37 1.412 . S
H32 C30 0.973 . S
C33 H26 0.929 . S
C33 C34 1.400 . S
C33 C35 1.364 . S
C34 C33 1.400 . S
C34 C38 1.377 . S
C35 C33 1.364 . S
C35 C36 1.374 . S
C36 H27 0.930 . S
C36 C35 1.374 . S
C36 C37 1.383 . S
C37 O31 1.412 . S
C37 C36 1.383 . S
C37 C38 1.394 . S
C38 H28 0.929 . S
C38 C34 1.377 . S
C38 C37 1.394 . S
H39 C46 0.929 . S
H40 C49 0.930 . S
H41 C51 0.929 . S
H42 C43 0.969 . S
C43 H42 0.969 . S
C43 O44 1.550 . S
C43 H45 0.973 . S
O44 C43 1.550 . S
O44 C50 1.412 . S
H45 C43 0.973 . S
C46 H39 0.929 . S
C46 C47 1.400 . S
C46 C48 1.364 . S
C47 C46 1.400 . S
C47 C51 1.377 . S
C48 C46 1.364 . S
C48 C49 1.374 . S
C49 H40 0.930 . S
C49 C48 1.374 . S
C49 C50 1.383 . S
C50 O44 1.412 . S
C50 C49 1.383 . S
C50 C51 1.394 . S
C51 H41 0.929 . S
C51 C47 1.377 . S
C51 C50 1.394 . S
H52 C59 0.929 . S
H53 C62 0.930 . S
H54 C64 0.929 . S
H55 C56 0.969 . S
C56 H55 0.969 . S
C56 O57 1.550 . S
C56 H58 0.973 . S
O57 C56 1.550 . S
O57 C63 1.412 . S
H58 C56 0.973 . S
C59 H52 0.929 . S
C59 C60 1.400 . S
C59 C61 1.364 . S
C60 C59 1.400 . S
C60 C64 1.377 . S
C61 C59 1.364 . S
C61 C62 1.374 . S
C62 H53 0.930 . S
C62 C61 1.374 . S
C62 C63 1.383 . S
C63 O57 1.412 . S
C63 C62 1.383 . S
C63 C64 1.394 . S
C64 H54 0.929 . S
C64 C60 1.377 . S
C64 C63 1.394 . S
H65 C72 0.929 . S
H66 C75 0.930 . S
H67 C77 0.929 . S
H68 C69 0.969 . S
C69 H68 0.969 . S
C69 O70 1.550 . S
C69 H71 0.973 . S
O70 C69 1.550 . S
O70 C76 1.412 . S
H71 C69 0.973 . S
C72 H65 0.929 . S
C72 C73 1.400 . S
C72 C74 1.364 . S
C73 C72 1.400 . S
C73 C77 1.377 . S
C74 C72 1.364 . S
C74 C75 1.374 . S
C75 H66 0.930 . S
C75 C74 1.374 . S
C75 C76 1.383 . S
C76 O70 1.412 . S
C76 C75 1.383 . S
C76 C77 1.394 . S
C77 H67 0.929 . S
C77 C73 1.377 . S
C77 C76 1.394 . S
H78 C85 0.929 . S
H79 C88 0.930 . S
H80 C90 0.929 . S
H81 C82 0.969 . S
C82 H81 0.969 . S
C82 O83 1.550 . S
C82 H84 0.973 . S
O83 C82 1.550 . S
O83 C89 1.412 . S
H84 C82 0.973 . S
C85 H78 0.929 . S
C85 C86 1.400 . S
C85 C87 1.364 . S
C86 C85 1.400 . S
C86 C90 1.377 . S
C87 C85 1.364 . S
C87 C88 1.374 . S
C88 H79 0.930 . S
C88 C87 1.374 . S
C88 C89 1.383 . S
C89 O83 1.412 . S
C89 C88 1.383 . S
C89 C90 1.394 . S
C90 H80 0.929 . S
C90 C86 1.377 . S
C90 C89 1.394 . S
H91 C98 0.929 . S
H92 C101 0.930 . S
H93 C103 0.929 . S
H94 C95 0.969 . S
C95 H94 0.969 . S
C95 O96 1.550 . S
C95 H97 0.973 . S
O96 C95 1.550 . S
O96 C102 1.412 . S
H97 C95 0.973 . S
C98 H91 0.929 . S
C98 C99 1.400 . S
C98 C100 1.364 . S
C99 C98 1.400 . S
C99 C103 1.377 . S
C100 C98 1.364 . S
C100 C101 1.374 . S
C101 H92 0.930 . S
C101 C100 1.374 . S
C101 C102 1.383 . S
C102 O96 1.412 . S
C102 C101 1.383 . S
C102 C103 1.394 . S
C103 H93 0.929 . S
C103 C99 1.377 . S
C103 C102 1.394 . S
Pr104 C106 2.880 1_545 S
Pr104 O124 2.562 1_545 S
Pr104 O125 2.490 1_545 S
Pr104 O126 2.695 1_655 S
Pr104 O127 2.512 1_655 S
Pr104 O129 2.437 1_645 S
Pr104 O132 2.448 1_545 S
Pr104 O134 2.438 . S
Pr105 C115 2.880 . S
Pr105 O126 2.436 . S
Pr105 O128 2.458 . S
Pr105 O130 2.562 . S
Pr105 O131 2.490 . S
Pr105 O132 2.682 1_445 S
Pr105 O133 2.512 1_545 S
Pr105 O135 2.437 . S
C106 Pr104 2.880 1_565 S
C106 C107 1.491 . S
C106 O124 1.254 . S
C106 O125 1.225 . S
C107 C106 1.491 . S
C107 C108 1.392 . S
C107 C112 1.356 . S
C108 C107 1.392 . S
C108 C109 1.368 . S
C108 H136 0.929 . S
C109 C108 1.368 . S
C109 C110 1.386 . S
C109 H137 0.929 . S
C110 C109 1.386 . S
C110 C111 1.373 . S
C111 C110 1.373 . S
C111 C112 1.409 . S
C111 H138 0.931 . S
C112 C107 1.356 . S
C112 C111 1.409 . S
C112 H139 0.930 . S
C113 O126 1.270 . S
C113 O127 1.248 . S
C114 O128 1.261 1_565 S
C114 O129 1.278 . S
C115 Pr105 2.880 . S
C115 C116 1.491 . S
C115 O130 1.254 . S
C115 O131 1.225 . S
C116 C115 1.491 . S
C116 C117 1.392 . S
C116 C121 1.356 . S
C117 C116 1.392 . S
C117 C118 1.368 . S
C117 H140 0.929 . S
C118 C117 1.368 . S
C118 C119 1.386 . S
C118 H141 0.929 . S
C119 C118 1.386 . S
C119 C120 1.373 . S
C120 C119 1.373 . S
C120 C121 1.409 . S
C120 H142 0.931 . S
C121 C116 1.356 . S
C121 C120 1.409 . S
C121 H143 0.930 . S
C122 O132 1.265 . S
C122 O133 1.248 1_655 S
C123 O134 1.267 . S
C123 O135 1.278 1_655 S
O124 Pr104 2.562 1_565 S
O124 C106 1.254 . S
O125 Pr104 2.490 1_565 S
O125 C106 1.225 . S
O126 Pr104 2.695 1_455 S
O126 Pr105 2.436 . S
O126 C113 1.270 . S
O127 Pr104 2.512 1_455 S
O127 C113 1.248 . S
O128 Pr105 2.458 . S
O128 C114 1.261 1_545 S
O129 Pr104 2.437 1_465 S
O129 C114 1.278 . S
O130 Pr105 2.562 . S
O130 C115 1.254 . S
O131 Pr105 2.490 . S
O131 C115 1.225 . S
O132 Pr104 2.448 1_565 S
O132 Pr105 2.682 1_665 S
O132 C122 1.265 . S
O133 Pr105 2.512 1_565 S
O133 C122 1.248 1_455 S
O134 Pr104 2.438 . S
O134 C123 1.267 . S
O135 Pr105 2.437 . S
O135 C123 1.278 1_455 S
H136 C108 0.929 . S
H137 C109 0.929 . S
H138 C111 0.931 . S
H139 C112 0.930 . S
H140 C117 0.929 . S
H141 C118 0.929 . S
H142 C120 0.931 . S
H143 C121 0.930 . S
Pr144 C146 2.880 . S
Pr144 O164 2.562 . S
Pr144 O165 2.490 . S
Pr144 O166 2.695 1_554 S
Pr144 O167 2.512 1_554 S
Pr144 O169 2.437 . S
Pr144 O172 2.436 1_545 S
Pr144 O174 2.438 1_544 S
Pr145 C155 2.880 1_544 S
Pr145 O166 2.436 1_554 S
Pr145 O168 2.438 . S
Pr145 O170 2.562 1_544 S
Pr145 O171 2.490 1_544 S
Pr145 O172 2.695 1_545 S
Pr145 O173 2.512 1_545 S
Pr145 O175 2.437 1_544 S
C146 Pr144 2.880 . S
C146 C147 1.491 . S
C146 O164 1.254 . S
C146 O165 1.225 . S
C147 C146 1.491 . S
C147 C148 1.392 . S
C147 C152 1.356 . S
C148 C147 1.392 . S
C148 C149 1.368 . S
C148 H176 0.929 . S
C149 C148 1.368 . S
C149 C150 1.386 . S
C149 H177 0.929 . S
C150 C149 1.386 . S
C150 C151 1.373 . S
C151 C150 1.373 . S
C151 C152 1.409 . S
C151 H178 0.931 . S
C152 C147 1.356 . S
C152 C151 1.409 . S
C152 H179 0.930 . S
C153 O166 1.270 . S
C153 O167 1.248 . S
C154 O168 1.267 . S
C154 O169 1.278 . S
C155 Pr145 2.880 1_566 S
C155 C156 1.491 . S
C155 O170 1.254 . S
C155 O171 1.225 . S
C156 C155 1.491 . S
C156 C157 1.392 . S
C156 C161 1.356 . S
C157 C156 1.392 . S
C157 C158 1.368 . S
C157 H180 0.929 . S
C158 C157 1.368 . S
C158 C159 1.386 . S
C158 H181 0.929 . S
C159 C158 1.386 . S
C159 C160 1.373 . S
C160 C159 1.373 . S
C160 C161 1.409 . S
C160 H182 0.931 . S
C161 C156 1.356 . S
C161 C160 1.409 . S
C161 H183 0.930 . S
C162 O172 1.270 . S
C162 O173 1.248 . S
C163 O174 1.267 . S
C163 O175 1.278 . S
O164 Pr144 2.562 . S
O164 C146 1.254 . S
O165 Pr144 2.490 . S
O165 C146 1.225 . S
O166 Pr144 2.695 1_556 S
O166 Pr145 2.436 1_556 S
O166 C153 1.270 . S
O167 Pr144 2.512 1_556 S
O167 C153 1.248 . S
O168 Pr145 2.438 . S
O168 C154 1.267 . S
O169 Pr144 2.437 . S
O169 C154 1.278 . S
O170 Pr145 2.562 1_566 S
O170 C155 1.254 . S
O171 Pr145 2.490 1_566 S
O171 C155 1.225 . S
O172 Pr144 2.436 1_565 S
O172 Pr145 2.695 1_565 S
O172 C162 1.270 . S
O173 Pr145 2.512 1_565 S
O173 C162 1.248 . S
O174 Pr144 2.438 1_566 S
O174 C163 1.267 . S
O175 Pr145 2.437 1_566 S
O175 C163 1.278 . S
H176 C148 0.929 . S
H177 C149 0.929 . S
H178 C151 0.931 . S
H179 C152 0.930 . S
H180 C157 0.929 . S
H181 C158 0.929 . S
H182 C160 0.931 . S
H183 C161 0.930 . S
Pr184 C186 2.880 . S
Pr184 O204 2.562 . S
Pr184 O205 2.490 . S
Pr184 O206 2.695 . S
Pr184 O207 2.512 . S
Pr184 O209 2.437 . S
Pr184 O212 2.436 . S
Pr184 O214 2.438 . S
Pr185 C195 2.880 . S
Pr185 O206 2.436 . S
Pr185 O208 2.438 . S
Pr185 O210 2.562 . S
Pr185 O211 2.490 . S
Pr185 O212 2.695 . S
Pr185 O213 2.512 . S
Pr185 O215 2.437 . S
C186 Pr184 2.880 . S
C186 C187 1.491 . S
C186 O204 1.254 . S
C186 O205 1.225 . S
C187 C186 1.491 . S
C187 C188 1.392 . S
C187 C192 1.356 . S
C188 C187 1.392 . S
C188 C189 1.368 . S
C188 H216 0.929 . S
C189 C188 1.368 . S
C189 C190 1.386 . S
C189 H217 0.929 . S
C190 C189 1.386 . S
C190 C191 1.373 . S
C191 C190 1.373 . S
C191 C192 1.409 . S
C191 H218 0.931 . S
C192 C187 1.356 . S
C192 C191 1.409 . S
C192 H219 0.930 . S
C193 O206 1.270 . S
C193 O207 1.248 . S
C194 O208 1.267 . S
C194 O209 1.278 . S
C195 Pr185 2.880 . S
C195 C196 1.491 . S
C195 O210 1.254 . S
C195 O211 1.225 . S
C196 C195 1.491 . S
C196 C197 1.392 . S
C196 C201 1.356 . S
C197 C196 1.392 . S
C197 C198 1.368 . S
C197 H220 0.929 . S
C198 C197 1.368 . S
C198 C199 1.386 . S
C198 H221 0.929 . S
C199 C198 1.386 . S
C199 C200 1.373 . S
C200 C199 1.373 . S
C200 C201 1.409 . S
C200 H222 0.931 . S
C201 C196 1.356 . S
C201 C200 1.409 . S
C201 H223 0.930 . S
C202 O212 1.270 . S
C202 O213 1.248 . S
C203 O214 1.267 . S
C203 O215 1.278 . S
O204 Pr184 2.562 . S
O204 C186 1.254 . S
O205 Pr184 2.490 . S
O205 C186 1.225 . S
O206 Pr184 2.695 . S
O206 Pr185 2.436 . S
O206 C193 1.270 . S
O207 Pr184 2.512 . S
O207 C193 1.248 . S
O208 Pr185 2.438 . S
O208 C194 1.267 . S
O209 Pr184 2.437 . S
O209 C194 1.278 . S
O210 Pr185 2.562 . S
O210 C195 1.254 . S
O211 Pr185 2.490 . S
O211 C195 1.225 . S
O212 Pr184 2.436 . S
O212 Pr185 2.695 . S
O212 C202 1.270 . S
O213 Pr185 2.512 . S
O213 C202 1.248 . S
O214 Pr184 2.438 . S
O214 C203 1.267 . S
O215 Pr185 2.437 . S
O215 C203 1.278 . S
H216 C188 0.929 . S
H217 C189 0.929 . S
H218 C191 0.931 . S
H219 C192 0.930 . S
H220 C197 0.929 . S
H221 C198 0.929 . S
H222 C200 0.931 . S
H223 C201 0.930 . S
Pr224 C226 2.880 1_455 S
Pr224 O244 2.560 1_454 S
Pr224 O245 2.490 . S
Pr224 O246 2.695 . S
Pr224 O247 2.512 . S
Pr224 O249 2.437 . S
Pr224 O252 2.436 1_455 S
Pr224 O254 2.434 1_554 S
Pr225 C235 2.880 . S
Pr225 O246 2.436 . S
Pr225 O248 2.438 1_455 S
Pr225 O250 2.562 . S
Pr225 O251 2.490 . S
Pr225 O252 2.695 1_455 S
Pr225 O253 2.512 1_455 S
Pr225 O255 2.437 . S
C226 Pr224 2.880 1_655 S
C226 C227 1.491 1_554 S
C226 O244 1.255 1_554 S
C226 O245 1.225 1_655 S
C227 C226 1.491 1_556 S
C227 C228 1.392 . S
C227 C232 1.356 . S
C228 C227 1.392 . S
C228 C229 1.368 . S
C228 H256 0.929 1_656 S
C229 C228 1.368 . S
C229 C230 1.386 . S
C229 H257 0.929 . S
C230 C229 1.386 . S
C230 C231 1.373 . S
C231 C230 1.373 . S
C231 C232 1.409 . S
C231 H258 0.931 . S
C232 C227 1.356 . S
C232 C231 1.409 . S
C232 H259 0.930 . S
C233 O246 1.270 . S
C233 O247 1.248 . S
C234 O248 1.267 . S
C234 O249 1.278 1_655 S
C235 Pr225 2.880 . S
C235 C236 1.491 . S
C235 O250 1.254 . S
C235 O251 1.225 . S
C236 C235 1.491 . S
C236 C237 1.392 . S
C236 C241 1.356 . S
C237 C236 1.392 . S
C237 C238 1.368 . S
C237 H260 0.929 . S
C238 C237 1.368 . S
C238 C239 1.386 . S
C238 H261 0.929 . S
C239 C238 1.386 . S
C239 C240 1.373 . S
C240 C239 1.373 . S
C240 C241 1.409 . S
C240 H262 0.931 . S
C241 C236 1.356 . S
C241 C240 1.409 . S
C241 H263 0.930 . S
C242 O252 1.270 . S
C242 O253 1.248 . S
C243 O254 1.264 1_554 S
C243 O255 1.278 . S
O244 Pr224 2.560 1_656 S
O244 C226 1.255 1_556 S
O245 Pr224 2.490 . S
O245 C226 1.225 1_455 S
O246 Pr224 2.695 . S
O246 Pr225 2.436 . S
O246 C233 1.270 . S
O247 Pr224 2.512 . S
O247 C233 1.248 . S
O248 Pr225 2.438 1_655 S
O248 C234 1.267 . S
O249 Pr224 2.437 . S
O249 C234 1.278 1_455 S
O250 Pr225 2.562 . S
O250 C235 1.254 . S
O251 Pr225 2.490 . S
O251 C235 1.225 . S
O252 Pr224 2.436 1_655 S
O252 Pr225 2.695 1_655 S
O252 C242 1.270 . S
O253 Pr225 2.512 1_655 S
O253 C242 1.248 . S
O254 Pr224 2.434 1_556 S
O254 C243 1.264 1_556 S
O255 Pr225 2.437 . S
O255 C243 1.278 . S
H256 C228 0.929 1_454 S
H257 C229 0.929 . S
H258 C231 0.931 . S
H259 C232 0.930 . S
H260 C237 0.929 . S
H261 C238 0.929 . S
H262 C240 0.931 . S
H263 C241 0.930 . S
H264 C282 0.951 . S
H265 C284 0.951 . S
H266 C286 0.950 . S
H267 C287 0.950 . S
H268 C289 0.950 . S
H269 C292 0.950 . S
H270 C293 0.950 . S
H271 C295 0.950 . S
H272 C296 0.950 . S
H273 C297 0.951 . S
H274 C299 0.951 . S
H275 C301 0.950 . S
H276 C302 0.950 . S
H277 C304 0.950 . S
H278 C307 0.950 . S
H279 C308 0.950 . S
H280 C310 0.950 . S
H281 C311 0.950 . S
C282 H264 0.951 . S
C282 C283 1.366 . S
C282 C284 1.388 . S
C283 C282 1.366 . S
C283 C287 1.385 . S
C284 H265 0.951 . S
C284 C282 1.388 . S
C284 C285 1.366 . S
C285 C284 1.366 . S
C285 C286 1.414 . S
C285 C288 1.499 . S
C286 H266 0.950 . S
C286 C285 1.414 . S
C286 C287 1.374 . S
C287 H267 0.950 . S
C287 C283 1.385 . S
C287 C286 1.374 . S
C288 C285 1.499 . S
C288 C289 1.373 . S
C288 C290 1.389 . S
C289 H268 0.950 . S
C289 C288 1.373 . S
C289 C305 1.377 . S
C290 C288 1.389 . S
C290 C291 1.524 . S
C290 C304 1.377 . S
C291 C290 1.524 . S
C291 C292 1.397 . S
C291 C296 1.363 . S
C292 H269 0.950 . S
C292 C291 1.397 . S
C292 C293 1.334 . S
C293 H270 0.950 . S
C293 C292 1.334 . S
C293 C294 1.287 . S
C294 C293 1.287 . S
C294 C295 1.524 . S
C294 H313 0.913 . S
C295 H271 0.950 . S
C295 C294 1.524 . S
C295 C296 1.415 . S
C296 H272 0.950 . S
C296 C291 1.363 . S
C296 C295 1.415 . S
C297 H273 0.951 . S
C297 C298 1.366 . S
C297 C299 1.388 . S
C298 C297 1.366 . S
C298 C302 1.385 . S
C299 H274 0.951 . S
C299 C297 1.388 . S
C299 C300 1.366 . S
C300 C299 1.366 . S
C300 C301 1.414 . S
C300 C303 1.499 . S
C301 H275 0.950 . S
C301 C300 1.414 . S
C301 C302 1.374 . S
C302 H276 0.950 . S
C302 C298 1.385 . S
C302 C301 1.374 . S
C303 C300 1.499 . S
C303 C304 1.373 . S
C303 C305 1.389 . S
C304 H277 0.950 . S
C304 C290 1.377 . S
C304 C303 1.373 . S
C305 C289 1.377 . S
C305 C303 1.389 . S
C305 C306 1.524 . S
C306 C305 1.524 . S
C306 C307 1.397 . S
C306 C311 1.363 . S
C307 H278 0.950 . S
C307 C306 1.397 . S
C307 C308 1.334 . S
C308 H279 0.950 . S
C308 C307 1.334 . S
C308 C309 1.287 . S
C309 C308 1.287 . S
C309 C310 1.524 . S
C309 H312 0.999 . S
C310 H280 0.950 . S
C310 C309 1.524 . S
C310 C311 1.415 . S
C311 H281 0.950 . S
C311 C306 1.363 . S
C311 C310 1.415 . S
H312 C309 0.999 . S
H313 C294 0.913 . S
H314 C332 0.951 . S
H315 C334 0.951 . S
H316 C336 0.950 . S
H317 C337 0.950 . S
H318 C339 0.950 . S
H319 C342 0.950 . S
H320 C343 0.950 . S
H321 C345 0.950 . S
H322 C346 0.950 . S
H323 C347 0.951 . S
H324 C349 0.951 . S
H325 C351 0.950 . S
H326 C352 0.950 . S
H327 C354 0.950 . S
H328 C357 0.950 . S
H329 C358 0.950 1_545 S
H330 C360 0.950 . S
H331 C361 0.950 . S
C332 H314 0.951 . S
C332 C333 1.366 . S
C332 C334 1.388 . S
C333 C332 1.366 . S
C333 C337 1.385 . S
C334 H315 0.951 . S
C334 C332 1.388 . S
C334 C335 1.366 . S
C335 C334 1.366 . S
C335 C336 1.414 . S
C335 C338 1.499 . S
C336 H316 0.950 . S
C336 C335 1.414 . S
C336 C337 1.374 . S
C337 H317 0.950 . S
C337 C333 1.385 . S
C337 C336 1.374 . S
C338 C335 1.499 . S
C338 C339 1.373 . S
C338 C340 1.389 . S
C339 H318 0.950 . S
C339 C338 1.373 . S
C339 C355 1.377 . S
C340 C338 1.389 . S
C340 C341 1.524 . S
C340 C354 1.377 . S
C341 C340 1.524 . S
C341 C342 1.397 . S
C341 C346 1.363 . S
C342 H319 0.950 . S
C342 C341 1.397 . S
C342 C343 1.334 . S
C343 H320 0.950 . S
C343 C342 1.334 . S
C343 C344 1.287 . S
C344 C343 1.287 . S
C344 C345 1.524 . S
C344 H363 0.913 . S
C345 H321 0.950 . S
C345 C344 1.524 . S
C345 C346 1.415 . S
C346 H322 0.950 . S
C346 C341 1.363 . S
C346 C345 1.415 . S
C347 H323 0.951 . S
C347 C348 1.366 . S
C347 C349 1.388 . S
C348 C347 1.366 . S
C348 C352 1.385 . S
C349 H324 0.951 . S
C349 C347 1.388 . S
C349 C350 1.366 . S
C350 C349 1.366 . S
C350 C351 1.414 . S
C350 C353 1.499 . S
C351 H325 0.950 . S
C351 C350 1.414 . S
C351 C352 1.374 . S
C352 H326 0.950 . S
C352 C348 1.385 . S
C352 C351 1.374 . S
C353 C350 1.499 . S
C353 C354 1.373 . S
C353 C355 1.389 . S
C354 H327 0.950 . S
C354 C340 1.377 . S
C354 C353 1.373 . S
C355 C339 1.377 . S
C355 C353 1.389 . S
C355 C356 1.524 . S
C356 C355 1.524 . S
C356 C357 1.397 . S
C356 C361 1.363 . S
C357 H328 0.950 . S
C357 C356 1.397 . S
C357 C358 1.334 . S
C358 H329 0.950 1_565 S
C358 C357 1.334 . S
C358 C359 1.287 . S
C359 C358 1.287 . S
C359 C360 1.524 . S
C359 H362 0.999 1_565 S
C360 H330 0.950 . S
C360 C359 1.524 . S
C360 C361 1.415 . S
C361 H331 0.950 . S
C361 C356 1.363 . S
C361 C360 1.415 . S
H362 C359 0.999 1_545 S
H363 C344 0.913 . S
H364 C382 0.951 . S
H365 C384 0.951 . S
H366 C386 0.950 . S
H367 C387 0.950 . S
H368 C389 0.950 . S
H369 C392 0.950 . S
H370 C393 0.950 . S
H371 C395 0.950 . S
H372 C396 0.950 . S
H373 C397 0.951 . S
H374 C399 0.951 . S
H375 C401 0.950 . S
H376 C402 0.950 . S
H377 C404 0.950 . S
H378 C407 0.950 . S
H379 C408 0.950 . S
H380 C410 0.950 . S
H381 C411 0.950 . S
C382 H364 0.951 . S
C382 C383 1.366 . S
C382 C384 1.388 . S
C383 C382 1.366 . S
C383 C387 1.385 . S
C384 H365 0.951 . S
C384 C382 1.388 . S
C384 C385 1.366 . S
C385 C384 1.366 . S
C385 C386 1.414 . S
C385 C388 1.499 . S
C386 H366 0.950 . S
C386 C385 1.414 . S
C386 C387 1.374 . S
C387 H367 0.950 . S
C387 C383 1.385 . S
C387 C386 1.374 . S
C388 C385 1.499 . S
C388 C389 1.373 . S
C388 C390 1.389 . S
C389 H368 0.950 . S
C389 C388 1.373 . S
C389 C405 1.377 . S
C390 C388 1.389 . S
C390 C391 1.524 . S
C390 C404 1.377 . S
C391 C390 1.524 . S
C391 C392 1.397 . S
C391 C396 1.363 . S
C392 H369 0.950 . S
C392 C391 1.397 . S
C392 C393 1.334 . S
C393 H370 0.950 . S
C393 C392 1.334 . S
C393 C394 1.287 . S
C394 C393 1.287 . S
C394 C395 1.524 . S
C394 H413 0.913 . S
C395 H371 0.950 . S
C395 C394 1.524 . S
C395 C396 1.415 . S
C396 H372 0.950 . S
C396 C391 1.363 . S
C396 C395 1.415 . S
C397 H373 0.951 . S
C397 C398 1.366 . S
C397 C399 1.388 . S
C398 C397 1.366 . S
C398 C402 1.385 . S
C399 H374 0.951 . S
C399 C397 1.388 . S
C399 C400 1.366 . S
C400 C399 1.366 . S
C400 C401 1.414 . S
C400 C403 1.499 . S
C401 H375 0.950 . S
C401 C400 1.414 . S
C401 C402 1.374 . S
C402 H376 0.950 . S
C402 C398 1.385 . S
C402 C401 1.374 . S
C403 C400 1.499 . S
C403 C404 1.373 . S
C403 C405 1.389 . S
C404 H377 0.950 . S
C404 C390 1.377 . S
C404 C403 1.373 . S
C405 C389 1.377 . S
C405 C403 1.389 . S
C405 C406 1.524 . S
C406 C405 1.524 . S
C406 C407 1.397 . S
C406 C411 1.363 . S
C407 H378 0.950 . S
C407 C406 1.397 . S
C407 C408 1.334 . S
C408 H379 0.950 . S
C408 C407 1.334 . S
C408 C409 1.287 . S
C409 C408 1.287 . S
C409 C410 1.524 . S
C409 H412 0.999 . S
C410 H380 0.950 . S
C410 C409 1.524 . S
C410 C411 1.415 . S
C411 H381 0.950 . S
C411 C406 1.363 . S
C411 C410 1.415 . S
H412 C409 0.999 . S
H413 C394 0.913 . S
H414 C432 0.951 . S
H415 C434 0.951 . S
H416 C436 0.950 . S
H417 C437 0.950 . S
H418 C439 0.950 . S
H419 C442 0.950 . S
H420 C443 0.950 . S
H421 C445 0.950 . S
H422 C446 0.950 . S
H423 C447 0.951 . S
H424 C449 0.951 . S
H425 C451 0.950 . S
H426 C452 0.950 . S
H427 C454 0.950 . S
H428 C457 0.950 . S
H429 C458 0.950 . S
H430 C460 0.950 . S
H431 C461 0.950 . S
C432 H414 0.951 . S
C432 C433 1.366 . S
C432 C434 1.388 . S
C433 C432 1.366 . S
C433 C437 1.385 . S
C434 H415 0.951 . S
C434 C432 1.388 . S
C434 C435 1.366 . S
C435 C434 1.366 . S
C435 C436 1.414 . S
C435 C438 1.499 . S
C436 H416 0.950 . S
C436 C435 1.414 . S
C436 C437 1.374 . S
C437 H417 0.950 . S
C437 C433 1.385 . S
C437 C436 1.374 . S
C438 C435 1.499 . S
C438 C439 1.373 . S
C438 C440 1.389 . S
C439 H418 0.950 . S
C439 C438 1.373 . S
C439 C455 1.377 . S
C440 C438 1.389 . S
C440 C441 1.524 . S
C440 C454 1.377 . S
C441 C440 1.524 . S
C441 C442 1.397 . S
C441 C446 1.363 . S
C442 H419 0.950 . S
C442 C441 1.397 . S
C442 C443 1.334 . S
C443 H420 0.950 . S
C443 C442 1.334 . S
C443 C444 1.287 1_655 S
C444 C443 1.287 1_455 S
C444 C445 1.524 . S
C444 H463 0.913 . S
C445 H421 0.950 . S
C445 C444 1.524 . S
C445 C446 1.415 1_455 S
C446 H422 0.950 . S
C446 C441 1.363 . S
C446 C445 1.415 1_655 S
C447 H423 0.951 . S
C447 C448 1.366 . S
C447 C449 1.388 . S
C448 C447 1.366 . S
C448 C452 1.385 . S
C449 H424 0.951 . S
C449 C447 1.388 . S
C449 C450 1.366 . S
C450 C449 1.366 . S
C450 C451 1.414 . S
C450 C453 1.499 . S
C451 H425 0.950 . S
C451 C450 1.414 . S
C451 C452 1.374 . S
C452 H426 0.950 . S
C452 C448 1.385 . S
C452 C451 1.374 . S
C453 C450 1.499 . S
C453 C454 1.373 . S
C453 C455 1.389 . S
C454 H427 0.950 . S
C454 C440 1.377 . S
C454 C453 1.373 . S
C455 C439 1.377 . S
C455 C453 1.389 . S
C455 C456 1.524 . S
C456 C455 1.524 . S
C456 C457 1.397 . S
C456 C461 1.363 . S
C457 H428 0.950 . S
C457 C456 1.397 . S
C457 C458 1.334 . S
C458 H429 0.950 . S
C458 C457 1.334 . S
C458 C459 1.287 . S
C459 C458 1.287 . S
C459 C460 1.524 . S
C459 H462 0.999 . S
C460 H430 0.950 . S
C460 C459 1.524 . S
C460 C461 1.415 . S
C461 H431 0.950 . S
C461 C456 1.363 . S
C461 C460 1.415 . S
H462 C459 0.999 . S
H463 C444 0.913 . S
H464 C482 0.951 . S
H465 C484 0.951 . S
H466 C486 0.950 . S
H467 C487 0.950 . S
H468 C489 0.950 . S
H469 C492 0.950 . S
H470 C493 0.950 . S
H471 C495 0.950 . S
H472 C496 0.950 . S
H473 C497 0.951 . S
H474 C499 0.951 . S
H475 C501 0.950 . S
H476 C502 0.950 . S
H477 C504 0.950 . S
H478 C507 0.950 . S
H479 C508 0.950 . S
H480 C510 0.950 . S
H481 C511 0.950 . S
C482 H464 0.951 . S
C482 C483 1.366 . S
C482 C484 1.388 . S
C483 C482 1.366 . S
C483 C487 1.385 . S
C484 H465 0.951 . S
C484 C482 1.388 . S
C484 C485 1.366 . S
C485 C484 1.366 . S
C485 C486 1.414 . S
C485 C488 1.499 . S
C486 H466 0.950 . S
C486 C485 1.414 . S
C486 C487 1.374 . S
C487 H467 0.950 . S
C487 C483 1.385 . S
C487 C486 1.374 . S
C488 C485 1.499 . S
C488 C489 1.373 . S
C488 C490 1.389 . S
C489 H468 0.950 . S
C489 C488 1.373 . S
C489 C505 1.377 . S
C490 C488 1.389 . S
C490 C491 1.524 . S
C490 C504 1.377 . S
C491 C490 1.524 . S
C491 C492 1.397 . S
C491 C496 1.363 . S
C492 H469 0.950 . S
C492 C491 1.397 . S
C492 C493 1.334 . S
C493 H470 0.950 . S
C493 C492 1.334 . S
C493 C494 1.287 . S
C494 C493 1.287 . S
C494 C495 1.524 . S
C494 H513 0.913 . S
C495 H471 0.950 . S
C495 C494 1.524 . S
C495 C496 1.415 . S
C496 H472 0.950 . S
C496 C491 1.363 . S
C496 C495 1.415 . S
C497 H473 0.951 . S
C497 C498 1.366 . S
C497 C499 1.388 . S
C498 C497 1.366 . S
C498 C502 1.385 . S
C499 H474 0.951 . S
C499 C497 1.388 . S
C499 C500 1.366 . S
C500 C499 1.366 . S
C500 C501 1.414 . S
C500 C503 1.499 . S
C501 H475 0.950 . S
C501 C500 1.414 . S
C501 C502 1.374 . S
C502 H476 0.950 . S
C502 C498 1.385 . S
C502 C501 1.374 . S
C503 C500 1.499 . S
C503 C504 1.373 . S
C503 C505 1.389 . S
C504 H477 0.950 . S
C504 C490 1.377 . S
C504 C503 1.373 . S
C505 C489 1.377 . S
C505 C503 1.389 . S
C505 C506 1.524 . S
C506 C505 1.524 . S
C506 C507 1.397 . S
C506 C511 1.363 . S
C507 H478 0.950 . S
C507 C506 1.397 . S
C507 C508 1.334 . S
C508 H479 0.950 . S
C508 C507 1.334 . S
C508 C509 1.287 . S
C509 C508 1.287 . S
C509 C510 1.524 . S
C509 H512 0.999 . S
C510 H480 0.950 . S
C510 C509 1.524 . S
C510 C511 1.415 . S
C511 H481 0.950 . S
C511 C506 1.363 . S
C511 C510 1.415 . S
H512 C509 0.999 . S
H513 C494 0.913 . S
H514 C532 0.951 . S
H515 C534 0.951 . S
H516 C536 0.950 . S
H517 C537 0.950 . S
H518 C539 0.950 . S
H519 C542 0.950 . S
H520 C543 0.950 . S
H521 C545 0.950 . S
H522 C546 0.950 . S
H523 C547 0.951 . S
H524 C549 0.951 . S
H525 C551 0.950 . S
H526 C552 0.950 . S
H527 C554 0.950 . S
H528 C557 0.950 . S
H529 C558 0.950 . S
H530 C560 0.950 . S
H531 C561 0.950 . S
C532 H514 0.951 . S
C532 C533 1.366 . S
C532 C534 1.388 . S
C533 C532 1.366 . S
C533 C537 1.385 . S
C534 H515 0.951 . S
C534 C532 1.388 . S
C534 C535 1.366 . S
C535 C534 1.366 . S
C535 C536 1.414 . S
C535 C538 1.499 . S
C536 H516 0.950 . S
C536 C535 1.414 . S
C536 C537 1.374 . S
C537 H517 0.950 . S
C537 C533 1.385 . S
C537 C536 1.374 . S
C538 C535 1.499 . S
C538 C539 1.373 . S
C538 C540 1.389 . S
C539 H518 0.950 . S
C539 C538 1.373 . S
C539 C555 1.377 . S
C540 C538 1.389 . S
C540 C541 1.524 . S
C540 C554 1.377 . S
C541 C540 1.524 . S
C541 C542 1.397 . S
C541 C546 1.363 . S
C542 H519 0.950 . S
C542 C541 1.397 . S
C542 C543 1.334 . S
C543 H520 0.950 . S
C543 C542 1.334 . S
C543 C544 1.287 . S
C544 C543 1.287 . S
C544 C545 1.524 . S
C544 H563 0.913 . S
C545 H521 0.950 . S
C545 C544 1.524 . S
C545 C546 1.415 . S
C546 H522 0.950 . S
C546 C541 1.363 . S
C546 C545 1.415 . S
C547 H523 0.951 . S
C547 C548 1.366 . S
C547 C549 1.388 . S
C548 C547 1.366 . S
C548 C552 1.385 . S
C549 H524 0.951 . S
C549 C547 1.388 . S
C549 C550 1.366 . S
C550 C549 1.366 . S
C550 C551 1.414 . S
C550 C553 1.499 . S
C551 H525 0.950 . S
C551 C550 1.414 . S
C551 C552 1.374 . S
C552 H526 0.950 . S
C552 C548 1.385 . S
C552 C551 1.374 . S
C553 C550 1.499 . S
C553 C554 1.373 . S
C553 C555 1.389 . S
C554 H527 0.950 . S
C554 C540 1.377 . S
C554 C553 1.373 . S
C555 C539 1.377 . S
C555 C553 1.389 . S
C555 C556 1.524 . S
C556 C555 1.524 . S
C556 C557 1.397 . S
C556 C561 1.363 . S
C557 H528 0.950 . S
C557 C556 1.397 . S
C557 C558 1.334 . S
C558 H529 0.950 . S
C558 C557 1.334 . S
C558 C559 1.287 . S
C559 C558 1.287 . S
C559 C560 1.524 . S
C559 H562 0.999 1_455 S
C560 H530 0.950 . S
C560 C559 1.524 . S
C560 C561 1.415 . S
C561 H531 0.950 . S
C561 C556 1.363 . S
C561 C560 1.415 . S
H562 C559 0.999 1_655 S
H563 C544 0.913 . S
H564 C582 0.951 . S
H565 C584 0.951 . S
H566 C586 0.950 . S
H567 C587 0.950 . S
H568 C589 0.950 . S
H569 C592 0.950 . S
H570 C593 0.950 . S
H571 C595 0.950 . S
H572 C596 0.950 . S
H573 C597 0.951 . S
H574 C599 0.951 . S
H575 C601 0.950 . S
H576 C602 0.950 . S
H577 C604 0.950 . S
H578 C607 0.950 . S
H579 C608 0.950 1_554 S
H580 C610 0.950 1_554 S
H581 C611 0.950 . S
C582 H564 0.951 . S
C582 C583 1.366 . S
C582 C584 1.388 . S
C583 C582 1.366 . S
C583 C587 1.385 . S
C584 H565 0.951 . S
C584 C582 1.388 . S
C584 C585 1.366 . S
C585 C584 1.366 . S
C585 C586 1.414 . S
C585 C588 1.499 . S
C586 H566 0.950 . S
C586 C585 1.414 . S
C586 C587 1.374 . S
C587 H567 0.950 . S
C587 C583 1.385 . S
C587 C586 1.374 . S
C588 C585 1.499 . S
C588 C589 1.373 . S
C588 C590 1.389 . S
C589 H568 0.950 . S
C589 C588 1.373 . S
C589 C605 1.377 . S
C590 C588 1.389 . S
C590 C591 1.524 . S
C590 C604 1.377 . S
C591 C590 1.524 . S
C591 C592 1.397 . S
C591 C596 1.363 . S
C592 H569 0.950 . S
C592 C591 1.397 . S
C592 C593 1.334 . S
C593 H570 0.950 . S
C593 C592 1.334 . S
C593 C594 1.287 . S
C594 C593 1.287 . S
C594 C595 1.524 . S
C594 H613 0.913 . S
C595 H571 0.950 . S
C595 C594 1.524 . S
C595 C596 1.415 . S
C596 H572 0.950 . S
C596 C591 1.363 . S
C596 C595 1.415 . S
C597 H573 0.951 . S
C597 C598 1.366 . S
C597 C599 1.388 1_554 S
C598 C597 1.366 . S
C598 C602 1.385 1_554 S
C599 H574 0.951 . S
C599 C597 1.388 1_556 S
C599 C600 1.366 . S
C600 C599 1.366 . S
C600 C601 1.414 . S
C600 C603 1.499 . S
C601 H575 0.950 . S
C601 C600 1.414 . S
C601 C602 1.374 . S
C602 H576 0.950 . S
C602 C598 1.385 1_556 S
C602 C601 1.374 . S
C603 C600 1.499 . S
C603 C604 1.373 . S
C603 C605 1.389 . S
C604 H577 0.950 . S
C604 C590 1.377 . S
C604 C603 1.373 . S
C605 C589 1.377 . S
C605 C603 1.389 . S
C605 C606 1.524 . S
C606 C605 1.524 . S
C606 C607 1.397 . S
C606 C611 1.363 . S
C607 H578 0.950 . S
C607 C606 1.397 . S
C607 C608 1.334 . S
C608 H579 0.950 1_556 S
C608 C607 1.334 . S
C608 C609 1.287 1_556 S
C609 C608 1.287 1_554 S
C609 C610 1.524 1_554 S
C609 H612 0.999 . S
C610 H580 0.950 1_556 S
C610 C609 1.524 1_556 S
C610 C611 1.415 . S
C611 H581 0.950 . S
C611 C606 1.363 . S
C611 C610 1.415 . S
H612 C609 0.999 . S
H613 C594 0.913 . S
H614 C632 0.951 . S
H615 C634 0.951 . S
H616 C636 0.950 . S
H617 C637 0.950 . S
H618 C639 0.950 . S
H619 C642 0.950 . S
H620 C643 0.950 . S
H621 C645 0.950 . S
H622 C646 0.950 . S
H623 C647 0.951 . S
H624 C649 0.951 . S
H625 C651 0.950 . S
H626 C652 0.950 . S
H627 C654 0.950 . S
H628 C657 0.950 . S
H629 C658 0.950 . S
H630 C660 0.950 . S
H631 C661 0.950 . S
C632 H614 0.951 . S
C632 C633 1.366 . S
C632 C634 1.388 . S
C633 C632 1.366 . S
C633 C637 1.385 . S
C634 H615 0.951 . S
C634 C632 1.388 . S
C634 C635 1.366 . S
C635 C634 1.366 . S
C635 C636 1.414 . S
C635 C638 1.499 . S
C636 H616 0.950 . S
C636 C635 1.414 . S
C636 C637 1.374 . S
C637 H617 0.950 . S
C637 C633 1.385 . S
C637 C636 1.374 . S
C638 C635 1.499 . S
C638 C639 1.373 . S
C638 C640 1.389 . S
C639 H618 0.950 . S
C639 C638 1.373 . S
C639 C655 1.377 . S
C640 C638 1.389 . S
C640 C641 1.524 . S
C640 C654 1.377 . S
C641 C640 1.524 . S
C641 C642 1.397 . S
C641 C646 1.363 . S
C642 H619 0.950 . S
C642 C641 1.397 . S
C642 C643 1.334 . S
C643 H620 0.950 . S
C643 C642 1.334 . S
C643 C644 1.287 . S
C644 C643 1.287 . S
C644 C645 1.524 . S
C644 H663 0.913 . S
C645 H621 0.950 . S
C645 C644 1.524 . S
C645 C646 1.415 . S
C646 H622 0.950 . S
C646 C641 1.363 . S
C646 C645 1.415 . S
C647 H623 0.951 . S
C647 C648 1.366 . S
C647 C649 1.388 . S
C648 C647 1.366 . S
C648 C652 1.385 . S
C649 H624 0.951 . S
C649 C647 1.388 . S
C649 C650 1.366 . S
C650 C649 1.366 . S
C650 C651 1.414 . S
C650 C653 1.499 . S
C651 H625 0.950 . S
C651 C650 1.414 . S
C651 C652 1.374 . S
C652 H626 0.950 . S
C652 C648 1.385 . S
C652 C651 1.374 . S
C653 C650 1.499 . S
C653 C654 1.373 . S
C653 C655 1.389 . S
C654 H627 0.950 . S
C654 C640 1.377 . S
C654 C653 1.373 . S
C655 C639 1.377 . S
C655 C653 1.389 . S
C655 C656 1.524 . S
C656 C655 1.524 . S
C656 C657 1.397 . S
C656 C661 1.363 . S
C657 H628 0.950 . S
C657 C656 1.397 . S
C657 C658 1.334 . S
C658 H629 0.950 . S
C658 C657 1.334 . S
C658 C659 1.287 . S
C659 C658 1.287 . S
C659 C660 1.524 . S
C659 H662 0.999 . S
C660 H630 0.950 . S
C660 C659 1.524 . S
C660 C661 1.415 . S
C661 H631 0.950 . S
C661 C656 1.363 . S
C661 C660 1.415 . S
H662 C659 0.999 . S
H663 C644 0.913 . S
H664 C682 0.951 . S
H665 C684 0.951 . S
H666 C686 0.950 . S
H667 C687 0.950 . S
H668 C689 0.950 . S
H669 C692 0.950 . S
H670 C693 0.950 . S
H671 C695 0.950 . S
H672 C696 0.950 . S
H673 C697 0.951 . S
H674 C699 0.951 . S
H675 C701 0.950 . S
H676 C702 0.950 . S
H677 C704 0.950 . S
H678 C707 0.950 . S
H679 C708 0.950 . S
H680 C710 0.950 . S
H681 C711 0.950 . S
C682 H664 0.951 . S
C682 C683 1.366 . S
C682 C684 1.388 . S
C683 C682 1.366 . S
C683 C687 1.385 . S
C684 H665 0.951 . S
C684 C682 1.388 . S
C684 C685 1.366 . S
C685 C684 1.366 . S
C685 C686 1.414 . S
C685 C688 1.499 . S
C686 H666 0.950 . S
C686 C685 1.414 . S
C686 C687 1.374 . S
C687 H667 0.950 . S
C687 C683 1.385 . S
C687 C686 1.374 . S
C688 C685 1.499 . S
C688 C689 1.373 . S
C688 C690 1.389 . S
C689 H668 0.950 . S
C689 C688 1.373 . S
C689 C705 1.377 . S
C690 C688 1.389 . S
C690 C691 1.524 . S
C690 C704 1.377 . S
C691 C690 1.524 . S
C691 C692 1.397 . S
C691 C696 1.363 . S
C692 H669 0.950 . S
C692 C691 1.397 . S
C692 C693 1.334 . S
C693 H670 0.950 . S
C693 C692 1.334 . S
C693 C694 1.287 . S
C694 C693 1.287 . S
C694 C695 1.524 . S
C694 H713 0.913 . S
C695 H671 0.950 . S
C695 C694 1.524 . S
C695 C696 1.415 . S
C696 H672 0.950 . S
C696 C691 1.363 . S
C696 C695 1.415 . S
C697 H673 0.951 . S
C697 C698 1.366 . S
C697 C699 1.388 . S
C698 C697 1.366 . S
C698 C702 1.385 . S
C699 H674 0.951 . S
C699 C697 1.388 . S
C699 C700 1.366 . S
C700 C699 1.366 . S
C700 C701 1.414 . S
C700 C703 1.499 . S
C701 H675 0.950 . S
C701 C700 1.414 . S
C701 C702 1.374 . S
C702 H676 0.950 . S
C702 C698 1.385 . S
C702 C701 1.374 . S
C703 C700 1.499 . S
C703 C704 1.373 . S
C703 C705 1.389 . S
C704 H677 0.950 . S
C704 C690 1.377 . S
C704 C703 1.373 . S
C705 C689 1.377 . S
C705 C703 1.389 . S
C705 C706 1.524 . S
C706 C705 1.524 . S
C706 C707 1.397 . S
C706 C711 1.363 . S
C707 H678 0.950 . S
C707 C706 1.397 . S
C707 C708 1.334 . S
C708 H679 0.950 . S
C708 C707 1.334 . S
C708 C709 1.287 . S
C709 C708 1.287 . S
C709 C710 1.524 . S
C709 H712 0.999 . S
C710 H680 0.950 . S
C710 C709 1.524 . S
C710 C711 1.415 . S
C711 H681 0.950 . S
C711 C706 1.363 . S
C711 C710 1.415 . S
H712 C709 0.999 . S
H713 C694 0.913 . S
H714 C732 0.951 . S
H715 C734 0.951 . S
H716 C736 0.950 . S
H717 C737 0.950 . S
H718 C739 0.950 . S
H719 C742 0.950 . S
H720 C743 0.950 . S
H721 C745 0.950 . S
H722 C746 0.950 . S
H723 C747 0.951 . S
H724 C749 0.951 . S
H725 C751 0.950 . S
H726 C752 0.950 . S
H727 C754 0.950 . S
H728 C757 0.950 . S
H729 C758 0.950 . S
H730 C760 0.950 . S
H731 C761 0.950 . S
C732 H714 0.951 . S
C732 C733 1.366 . S
C732 C734 1.388 . S
C733 C732 1.366 . S
C733 C737 1.385 . S
C734 H715 0.951 . S
C734 C732 1.388 . S
C734 C735 1.366 . S
C735 C734 1.366 . S
C735 C736 1.414 . S
C735 C738 1.499 . S
C736 H716 0.950 . S
C736 C735 1.414 . S
C736 C737 1.374 . S
C737 H717 0.950 . S
C737 C733 1.385 . S
C737 C736 1.374 . S
C738 C735 1.499 . S
C738 C739 1.373 . S
C738 C740 1.389 . S
C739 H718 0.950 . S
C739 C738 1.373 . S
C739 C755 1.377 . S
C740 C738 1.389 . S
C740 C741 1.524 . S
C740 C754 1.377 . S
C741 C740 1.524 . S
C741 C742 1.397 . S
C741 C746 1.363 . S
C742 H719 0.950 . S
C742 C741 1.397 . S
C742 C743 1.334 . S
C743 H720 0.950 . S
C743 C742 1.334 . S
C743 C744 1.287 . S
C744 C743 1.287 . S
C744 C745 1.524 . S
C744 H763 0.913 . S
C745 H721 0.950 . S
C745 C744 1.524 . S
C745 C746 1.415 . S
C746 H722 0.950 . S
C746 C741 1.363 . S
C746 C745 1.415 . S
C747 H723 0.951 . S
C747 C748 1.366 . S
C747 C749 1.388 . S
C748 C747 1.366 . S
C748 C752 1.385 . S
C749 H724 0.951 . S
C749 C747 1.388 . S
C749 C750 1.366 . S
C750 C749 1.366 . S
C750 C751 1.414 . S
C750 C753 1.499 . S
C751 H725 0.950 . S
C751 C750 1.414 . S
C751 C752 1.374 . S
C752 H726 0.950 . S
C752 C748 1.385 . S
C752 C751 1.374 . S
C753 C750 1.499 . S
C753 C754 1.373 . S
C753 C755 1.389 . S
C754 H727 0.950 . S
C754 C740 1.377 . S
C754 C753 1.373 . S
C755 C739 1.377 . S
C755 C753 1.389 . S
C755 C756 1.524 . S
C756 C755 1.524 . S
C756 C757 1.397 . S
C756 C761 1.363 . S
C757 H728 0.950 . S
C757 C756 1.397 . S
C757 C758 1.334 . S
C758 H729 0.950 . S
C758 C757 1.334 . S
C758 C759 1.287 . S
C759 C758 1.287 . S
C759 C760 1.524 . S
C759 H762 0.999 . S
C760 H730 0.950 . S
C760 C759 1.524 . S
C760 C761 1.415 . S
C761 H731 0.950 . S
C761 C756 1.363 . S
C761 C760 1.415 . S
H762 C759 0.999 . S
H763 C744 0.913 . S
H764 C782 0.951 . S
H765 C784 0.951 . S
H766 C786 0.950 . S
H767 C787 0.950 . S
H768 C789 0.950 . S
H769 C792 0.950 . S
H770 C793 0.950 . S
H771 C795 0.950 . S
H772 C796 0.950 . S
H773 C797 0.951 1_455 S
H774 C799 0.951 . S
H775 C801 0.950 . S
H776 C802 0.950 . S
H777 C804 0.950 . S
H778 C807 0.950 . S
H779 C808 0.950 . S
H780 C810 0.950 . S
H781 C811 0.950 . S
C782 H764 0.951 . S
C782 C783 1.366 . S
C782 C784 1.388 . S
C783 C782 1.366 . S
C783 C787 1.385 . S
C784 H765 0.951 . S
C784 C782 1.388 . S
C784 C785 1.366 . S
C785 C784 1.366 . S
C785 C786 1.414 . S
C785 C788 1.499 . S
C786 H766 0.950 . S
C786 C785 1.414 . S
C786 C787 1.374 . S
C787 H767 0.950 . S
C787 C783 1.385 . S
C787 C786 1.374 . S
C788 C785 1.499 . S
C788 C789 1.373 . S
C788 C790 1.389 . S
C789 H768 0.950 . S
C789 C788 1.373 . S
C789 C805 1.377 . S
C790 C788 1.389 . S
C790 C791 1.524 . S
C790 C804 1.377 . S
C791 C790 1.524 . S
C791 C792 1.397 . S
C791 C796 1.363 . S
C792 H769 0.950 . S
C792 C791 1.397 . S
C792 C793 1.334 . S
C793 H770 0.950 . S
C793 C792 1.334 . S
C793 C794 1.287 . S
C794 C793 1.287 . S
C794 C795 1.524 . S
C794 H813 0.913 . S
C795 H771 0.950 . S
C795 C794 1.524 . S
C795 C796 1.415 . S
C796 H772 0.950 . S
C796 C791 1.363 . S
C796 C795 1.415 . S
C797 H773 0.951 1_655 S
C797 C798 1.366 . S
C797 C799 1.388 . S
C798 C797 1.366 . S
C798 C802 1.385 . S
C799 H774 0.951 . S
C799 C797 1.388 . S
C799 C800 1.366 . S
C800 C799 1.366 . S
C800 C801 1.414 . S
C800 C803 1.499 . S
C801 H775 0.950 . S
C801 C800 1.414 . S
C801 C802 1.374 . S
C802 H776 0.950 . S
C802 C798 1.385 . S
C802 C801 1.374 . S
C803 C800 1.499 . S
C803 C804 1.373 . S
C803 C805 1.389 . S
C804 H777 0.950 . S
C804 C790 1.377 . S
C804 C803 1.373 . S
C805 C789 1.377 . S
C805 C803 1.389 . S
C805 C806 1.524 . S
C806 C805 1.524 . S
C806 C807 1.397 . S
C806 C811 1.363 1_655 S
C807 H778 0.950 . S
C807 C806 1.397 . S
C807 C808 1.334 1_655 S
C808 H779 0.950 . S
C808 C807 1.334 1_455 S
C808 C809 1.287 . S
C809 C808 1.287 . S
C809 C810 1.524 . S
C809 H812 0.999 . S
C810 H780 0.950 . S
C810 C809 1.524 . S
C810 C811 1.415 . S
C811 H781 0.950 . S
C811 C806 1.363 1_455 S
C811 C810 1.415 . S
H812 C809 0.999 . S
H813 C794 0.913 . S
H814 C832 0.951 . S
H815 C834 0.951 . S
H816 C836 0.950 . S
H817 C837 0.950 . S
H818 C839 0.950 . S
H819 C842 0.950 . S
H820 C843 0.950 . S
H821 C845 0.950 . S
H822 C846 0.950 . S
H823 C847 0.951 . S
H824 C849 0.951 . S
H825 C851 0.950 . S
H826 C852 0.950 . S
H827 C854 0.950 . S
H828 C857 0.950 . S
H829 C858 0.950 . S
H830 C860 0.950 . S
H831 C861 0.950 . S
C832 H814 0.951 . S
C832 C833 1.366 . S
C832 C834 1.388 . S
C833 C832 1.366 . S
C833 C837 1.385 . S
C834 H815 0.951 . S
C834 C832 1.388 . S
C834 C835 1.366 . S
C835 C834 1.366 . S
C835 C836 1.414 . S
C835 C838 1.499 . S
C836 H816 0.950 . S
C836 C835 1.414 . S
C836 C837 1.374 . S
C837 H817 0.950 . S
C837 C833 1.385 . S
C837 C836 1.374 . S
C838 C835 1.499 . S
C838 C839 1.373 . S
C838 C840 1.389 . S
C839 H818 0.950 . S
C839 C838 1.373 . S
C839 C855 1.377 . S
C840 C838 1.389 . S
C840 C841 1.524 . S
C840 C854 1.377 . S
C841 C840 1.524 . S
C841 C842 1.397 . S
C841 C846 1.363 . S
C842 H819 0.950 . S
C842 C841 1.397 . S
C842 C843 1.334 . S
C843 H820 0.950 . S
C843 C842 1.334 . S
C843 C844 1.287 . S
C844 C843 1.287 . S
C844 C845 1.524 . S
C844 H863 0.913 . S
C845 H821 0.950 . S
C845 C844 1.524 . S
C845 C846 1.415 . S
C846 H822 0.950 . S
C846 C841 1.363 . S
C846 C845 1.415 . S
C847 H823 0.951 . S
C847 C848 1.366 . S
C847 C849 1.388 . S
C848 C847 1.366 . S
C848 C852 1.385 . S
C849 H824 0.951 . S
C849 C847 1.388 . S
C849 C850 1.366 . S
C850 C849 1.366 . S
C850 C851 1.414 . S
C850 C853 1.499 . S
C851 H825 0.950 . S
C851 C850 1.414 . S
C851 C852 1.374 . S
C852 H826 0.950 . S
C852 C848 1.385 . S
C852 C851 1.374 . S
C853 C850 1.499 . S
C853 C854 1.373 . S
C853 C855 1.389 . S
C854 H827 0.950 . S
C854 C840 1.377 . S
C854 C853 1.373 . S
C855 C839 1.377 . S
C855 C853 1.389 . S
C855 C856 1.524 . S
C856 C855 1.524 . S
C856 C857 1.397 . S
C856 C861 1.363 . S
C857 H828 0.950 . S
C857 C856 1.397 . S
C857 C858 1.334 . S
C858 H829 0.950 . S
C858 C857 1.334 . S
C858 C859 1.287 . S
C859 C858 1.287 . S
C859 C860 1.524 . S
C859 H862 0.999 . S
C860 H830 0.950 . S
C860 C859 1.524 . S
C860 C861 1.415 . S
C861 H831 0.950 . S
C861 C856 1.363 . S
C861 C860 1.415 . S
H862 C859 0.999 . S
H863 C844 0.913 . S
H864 C882 0.951 . S
H865 C884 0.951 . S
H866 C886 0.950 . S
H867 C887 0.950 . S
H868 C889 0.950 . S
H869 C892 0.950 . S
H870 C893 0.950 . S
H871 C895 0.950 . S
H872 C896 0.950 . S
H873 C897 0.951 . S
H874 C899 0.951 . S
H875 C901 0.950 . S
H876 C902 0.950 . S
H877 C904 0.950 . S
H878 C907 0.950 . S
H879 C908 0.950 . S
H880 C910 0.950 . S
H881 C911 0.950 . S
C882 H864 0.951 . S
C882 C883 1.366 . S
C882 C884 1.388 . S
C883 C882 1.366 . S
C883 C887 1.385 . S
C884 H865 0.951 . S
C884 C882 1.388 . S
C884 C885 1.366 . S
C885 C884 1.366 . S
C885 C886 1.414 . S
C885 C888 1.499 . S
C886 H866 0.950 . S
C886 C885 1.414 . S
C886 C887 1.374 . S
C887 H867 0.950 . S
C887 C883 1.385 . S
C887 C886 1.374 . S
C888 C885 1.499 . S
C888 C889 1.373 . S
C888 C890 1.389 . S
C889 H868 0.950 . S
C889 C888 1.373 . S
C889 C905 1.377 . S
C890 C888 1.389 . S
C890 C891 1.524 . S
C890 C904 1.377 . S
C891 C890 1.524 . S
C891 C892 1.397 . S
C891 C896 1.363 . S
C892 H869 0.950 . S
C892 C891 1.397 . S
C892 C893 1.334 . S
C893 H870 0.950 . S
C893 C892 1.334 . S
C893 C894 1.287 . S
C894 C893 1.287 . S
C894 C895 1.524 . S
C894 H913 0.913 . S
C895 H871 0.950 . S
C895 C894 1.524 . S
C895 C896 1.415 . S
C896 H872 0.950 . S
C896 C891 1.363 . S
C896 C895 1.415 . S
C897 H873 0.951 . S
C897 C898 1.366 . S
C897 C899 1.388 . S
C898 C897 1.366 . S
C898 C902 1.385 . S
C899 H874 0.951 . S
C899 C897 1.388 . S
C899 C900 1.366 . S
C900 C899 1.366 . S
C900 C901 1.414 . S
C900 C903 1.499 . S
C901 H875 0.950 . S
C901 C900 1.414 . S
C901 C902 1.374 . S
C902 H876 0.950 . S
C902 C898 1.385 . S
C902 C901 1.374 . S
C903 C900 1.499 . S
C903 C904 1.373 . S
C903 C905 1.389 . S
C904 H877 0.950 . S
C904 C890 1.377 . S
C904 C903 1.373 . S
C905 C889 1.377 . S
C905 C903 1.389 . S
C905 C906 1.524 . S
C906 C905 1.524 . S
C906 C907 1.397 . S
C906 C911 1.363 . S
C907 H878 0.950 . S
C907 C906 1.397 . S
C907 C908 1.334 . S
C908 H879 0.950 . S
C908 C907 1.334 . S
C908 C909 1.287 . S
C909 C908 1.287 . S
C909 C910 1.524 . S
C909 H912 0.999 . S
C910 H880 0.950 . S
C910 C909 1.524 . S
C910 C911 1.415 . S
C911 H881 0.950 . S
C911 C906 1.363 . S
C911 C910 1.415 . S
H912 C909 0.999 . S
H913 C894 0.913 . S
H914 C932 0.951 . S
H915 C934 0.951 . S
H916 C936 0.950 . S
H917 C937 0.950 . S
H918 C939 0.950 . S
H919 C942 0.950 . S
H920 C943 0.950 . S
H921 C945 0.950 . S
H922 C946 0.950 . S
H923 C947 0.951 . S
H924 C949 0.951 . S
H925 C951 0.950 . S
H926 C952 0.950 . S
H927 C954 0.950 . S
H928 C957 0.950 . S
H929 C958 0.950 . S
H930 C960 0.950 . S
H931 C961 0.950 . S
C932 H914 0.951 . S
C932 C933 1.366 . S
C932 C934 1.388 . S
C933 C932 1.366 . S
C933 C937 1.385 . S
C934 H915 0.951 . S
C934 C932 1.388 . S
C934 C935 1.366 . S
C935 C934 1.366 . S
C935 C936 1.414 . S
C935 C938 1.499 . S
C936 H916 0.950 . S
C936 C935 1.414 . S
C936 C937 1.374 . S
C937 H917 0.950 . S
C937 C933 1.385 . S
C937 C936 1.374 . S
C938 C935 1.499 . S
C938 C939 1.373 . S
C938 C940 1.389 . S
C939 H918 0.950 . S
C939 C938 1.373 . S
C939 C955 1.377 . S
C940 C938 1.389 . S
C940 C941 1.524 . S
C940 C954 1.377 . S
C941 C940 1.524 . S
C941 C942 1.397 . S
C941 C946 1.363 . S
C942 H919 0.950 . S
C942 C941 1.397 . S
C942 C943 1.334 . S
C943 H920 0.950 . S
C943 C942 1.334 . S
C943 C944 1.287 . S
C944 C943 1.287 . S
C944 C945 1.524 . S
C944 H963 0.913 . S
C945 H921 0.950 . S
C945 C944 1.524 . S
C945 C946 1.415 . S
C946 H922 0.950 . S
C946 C941 1.363 . S
C946 C945 1.415 . S
C947 H923 0.951 . S
C947 C948 1.366 . S
C947 C949 1.388 . S
C948 C947 1.366 . S
C948 C952 1.385 . S
C949 H924 0.951 . S
C949 C947 1.388 . S
C949 C950 1.366 . S
C950 C949 1.366 . S
C950 C951 1.414 . S
C950 C953 1.499 . S
C951 H925 0.950 . S
C951 C950 1.414 . S
C951 C952 1.374 . S
C952 H926 0.950 . S
C952 C948 1.385 . S
C952 C951 1.374 . S
C953 C950 1.499 . S
C953 C954 1.373 . S
C953 C955 1.389 . S
C954 H927 0.950 . S
C954 C940 1.377 . S
C954 C953 1.373 . S
C955 C939 1.377 . S
C955 C953 1.389 . S
C955 C956 1.524 . S
C956 C955 1.524 . S
C956 C957 1.397 . S
C956 C961 1.363 . S
C957 H928 0.950 . S
C957 C956 1.397 . S
C957 C958 1.334 . S
C958 H929 0.950 . S
C958 C957 1.334 . S
C958 C959 1.287 . S
C959 C958 1.287 . S
C959 C960 1.524 . S
C959 H962 0.999 . S
C960 H930 0.950 . S
C960 C959 1.524 . S
C960 C961 1.415 . S
C961 H931 0.950 . S
C961 C956 1.363 . S
C961 C960 1.415 . S
H962 C959 0.999 . S
H963 C944 0.913 . S
H964 C982 0.951 . S
H965 C984 0.951 . S
H966 C986 0.950 . S
H967 C987 0.950 . S
H968 C989 0.950 . S
H969 C992 0.950 . S
H970 C993 0.950 . S
H971 C995 0.950 . S
H972 C996 0.950 . S
H973 C997 0.951 . S
H974 C999 0.951 . S
H975 C1001 0.950 . S
H976 C1002 0.950 . S
H977 C1004 0.950 . S
H978 C1007 0.950 . S
H979 C1008 0.950 . S
H980 C1010 0.950 . S
H981 C1011 0.950 . S
C982 H964 0.951 . S
C982 C983 1.366 . S
C982 C984 1.388 . S
C983 C982 1.366 . S
C983 C987 1.385 . S
C984 H965 0.951 . S
C984 C982 1.388 . S
C984 C985 1.366 . S
C985 C984 1.366 . S
C985 C986 1.414 . S
C985 C988 1.499 . S
C986 H966 0.950 . S
C986 C985 1.414 . S
C986 C987 1.374 . S
C987 H967 0.950 . S
C987 C983 1.385 . S
C987 C986 1.374 . S
C988 C985 1.499 . S
C988 C989 1.373 . S
C988 C990 1.389 . S
C989 H968 0.950 . S
C989 C988 1.373 . S
C989 C1005 1.377 . S
C990 C988 1.389 . S
C990 C991 1.524 . S
C990 C1004 1.377 . S
C991 C990 1.524 . S
C991 C992 1.397 . S
C991 C996 1.363 . S
C992 H969 0.950 . S
C992 C991 1.397 . S
C992 C993 1.334 . S
C993 H970 0.950 . S
C993 C992 1.334 . S
C993 C994 1.287 . S
C994 C993 1.287 . S
C994 C995 1.524 . S
C994 H1013 0.913 . S
C995 H971 0.950 . S
C995 C994 1.524 . S
C995 C996 1.415 . S
C996 H972 0.950 . S
C996 C991 1.363 . S
C996 C995 1.415 . S
C997 H973 0.951 . S
C997 C998 1.366 . S
C997 C999 1.388 . S
C998 C997 1.366 . S
C998 C1002 1.385 . S
C999 H974 0.951 . S
C999 C997 1.388 . S
C999 C1000 1.366 . S
C1000 C999 1.366 . S
C1000 C1001 1.414 . S
C1000 C1003 1.499 . S
C1001 H975 0.950 . S
C1001 C1000 1.414 . S
C1001 C1002 1.374 . S
C1002 H976 0.950 . S
C1002 C998 1.385 . S
C1002 C1001 1.374 . S
C1003 C1000 1.499 . S
C1003 C1004 1.373 . S
C1003 C1005 1.389 . S
C1004 H977 0.950 . S
C1004 C990 1.377 . S
C1004 C1003 1.373 . S
C1005 C989 1.377 . S
C1005 C1003 1.389 . S
C1005 C1006 1.524 . S
C1006 C1005 1.524 . S
C1006 C1007 1.397 . S
C1006 C1011 1.363 . S
C1007 H978 0.950 . S
C1007 C1006 1.397 . S
C1007 C1008 1.334 . S
C1008 H979 0.950 . S
C1008 C1007 1.334 . S
C1008 C1009 1.287 . S
C1009 C1008 1.287 . S
C1009 C1010 1.524 . S
C1009 H1012 0.999 . S
C1010 H980 0.950 . S
C1010 C1009 1.524 . S
C1010 C1011 1.415 . S
C1011 H981 0.950 . S
C1011 C1006 1.363 . S
C1011 C1010 1.415 . S
H1012 C1009 0.999 . S
H1013 C994 0.913 . S
H1014 C1032 0.951 . S
H1015 C1034 0.951 . S
H1016 C1036 0.950 . S
H1017 C1037 0.950 . S
H1018 C1039 0.950 . S
H1019 C1042 0.950 . S
H1020 C1043 0.950 . S
H1021 C1045 0.950 . S
H1022 C1046 0.950 . S
H1023 C1047 0.951 . S
H1024 C1049 0.951 . S
H1025 C1051 0.950 . S
H1026 C1052 0.950 . S
H1027 C1054 0.950 . S
H1028 C1057 0.950 . S
H1029 C1058 0.950 1_554 S
H1030 C1060 0.950 . S
H1031 C1061 0.950 . S
C1032 H1014 0.951 . S
C1032 C1033 1.366 . S
C1032 C1034 1.388 . S
C1033 C1032 1.366 . S
C1033 C1037 1.385 . S
C1034 H1015 0.951 . S
C1034 C1032 1.388 . S
C1034 C1035 1.366 . S
C1035 C1034 1.366 . S
C1035 C1036 1.414 . S
C1035 C1038 1.499 . S
C1036 H1016 0.950 . S
C1036 C1035 1.414 . S
C1036 C1037 1.374 . S
C1037 H1017 0.950 . S
C1037 C1033 1.385 . S
C1037 C1036 1.374 . S
C1038 C1035 1.499 . S
C1038 C1039 1.373 . S
C1038 C1040 1.389 . S
C1039 H1018 0.950 . S
C1039 C1038 1.373 . S
C1039 C1055 1.377 . S
C1040 C1038 1.389 . S
C1040 C1041 1.524 . S
C1040 C1054 1.377 . S
C1041 C1040 1.524 . S
C1041 C1042 1.397 . S
C1041 C1046 1.363 . S
C1042 H1019 0.950 . S
C1042 C1041 1.397 . S
C1042 C1043 1.334 . S
C1043 H1020 0.950 . S
C1043 C1042 1.334 . S
C1043 C1044 1.287 . S
C1044 C1043 1.287 . S
C1044 C1045 1.524 . S
C1044 H1063 0.913 . S
C1045 H1021 0.950 . S
C1045 C1044 1.524 . S
C1045 C1046 1.415 . S
C1046 H1022 0.950 . S
C1046 C1041 1.363 . S
C1046 C1045 1.415 . S
C1047 H1023 0.951 . S
C1047 C1048 1.366 . S
C1047 C1049 1.388 . S
C1048 C1047 1.366 . S
C1048 C1052 1.385 . S
C1049 H1024 0.951 . S
C1049 C1047 1.388 . S
C1049 C1050 1.366 . S
C1050 C1049 1.366 . S
C1050 C1051 1.414 . S
C1050 C1053 1.499 . S
C1051 H1025 0.950 . S
C1051 C1050 1.414 . S
C1051 C1052 1.374 . S
C1052 H1026 0.950 . S
C1052 C1048 1.385 . S
C1052 C1051 1.374 . S
C1053 C1050 1.499 . S
C1053 C1054 1.373 . S
C1053 C1055 1.389 . S
C1054 H1027 0.950 . S
C1054 C1040 1.377 . S
C1054 C1053 1.373 . S
C1055 C1039 1.377 . S
C1055 C1053 1.389 . S
C1055 C1056 1.524 . S
C1056 C1055 1.524 . S
C1056 C1057 1.397 . S
C1056 C1061 1.363 . S
C1057 H1028 0.950 . S
C1057 C1056 1.397 . S
C1057 C1058 1.334 . S
C1058 H1029 0.950 1_556 S
C1058 C1057 1.334 . S
C1058 C1059 1.287 . S
C1059 C1058 1.287 . S
C1059 C1060 1.524 . S
C1059 H1062 0.999 . S
C1060 H1030 0.950 . S
C1060 C1059 1.524 . S
C1060 C1061 1.415 . S
C1061 H1031 0.950 . S
C1061 C1056 1.363 . S
C1061 C1060 1.415 . S
H1062 C1059 0.999 . S
H1063 C1044 0.913 . S
H1064 C1082 0.951 . S
H1065 C1084 0.951 . S
H1066 C1086 0.950 . S
H1067 C1087 0.950 . S
H1068 C1089 0.950 . S
H1069 C1092 0.950 . S
H1070 C1093 0.950 . S
H1071 C1095 0.950 . S
H1072 C1096 0.950 . S
H1073 C1097 0.951 . S
H1074 C1099 0.951 . S
H1075 C1101 0.950 . S
H1076 C1102 0.950 . S
H1077 C1104 0.950 . S
H1078 C1107 0.950 . S
H1079 C1108 0.950 . S
H1080 C1110 0.950 . S
H1081 C1111 0.950 . S
C1082 H1064 0.951 . S
C1082 C1083 1.366 . S
C1082 C1084 1.388 . S
C1083 C1082 1.366 . S
C1083 C1087 1.385 . S
C1084 H1065 0.951 . S
C1084 C1082 1.388 . S
C1084 C1085 1.366 . S
C1085 C1084 1.366 . S
C1085 C1086 1.414 . S
C1085 C1088 1.499 . S
C1086 H1066 0.950 . S
C1086 C1085 1.414 . S
C1086 C1087 1.374 . S
C1087 H1067 0.950 . S
C1087 C1083 1.385 . S
C1087 C1086 1.374 . S
C1088 C1085 1.499 . S
C1088 C1089 1.373 . S
C1088 C1090 1.389 . S
C1089 H1068 0.950 . S
C1089 C1088 1.373 . S
C1089 C1105 1.377 . S
C1090 C1088 1.389 . S
C1090 C1091 1.524 . S
C1090 C1104 1.377 . S
C1091 C1090 1.524 . S
C1091 C1092 1.397 . S
C1091 C1096 1.363 . S
C1092 H1069 0.950 . S
C1092 C1091 1.397 . S
C1092 C1093 1.334 . S
C1093 H1070 0.950 . S
C1093 C1092 1.334 . S
C1093 C1094 1.287 . S
C1094 C1093 1.287 . S
C1094 C1095 1.524 . S
C1094 H1113 0.913 . S
C1095 H1071 0.950 . S
C1095 C1094 1.524 . S
C1095 C1096 1.415 . S
C1096 H1072 0.950 . S
C1096 C1091 1.363 . S
C1096 C1095 1.415 . S
C1097 H1073 0.951 . S
C1097 C1098 1.366 . S
C1097 C1099 1.388 . S
C1098 C1097 1.366 . S
C1098 C1102 1.385 . S
C1099 H1074 0.951 . S
C1099 C1097 1.388 . S
C1099 C1100 1.366 . S
C1100 C1099 1.366 . S
C1100 C1101 1.414 . S
C1100 C1103 1.499 . S
C1101 H1075 0.950 . S
C1101 C1100 1.414 . S
C1101 C1102 1.374 . S
C1102 H1076 0.950 . S
C1102 C1098 1.385 . S
C1102 C1101 1.374 . S
C1103 C1100 1.499 . S
C1103 C1104 1.373 . S
C1103 C1105 1.389 . S
C1104 H1077 0.950 . S
C1104 C1090 1.377 . S
C1104 C1103 1.373 . S
C1105 C1089 1.377 . S
C1105 C1103 1.389 . S
C1105 C1106 1.524 . S
C1106 C1105 1.524 . S
C1106 C1107 1.397 . S
C1106 C1111 1.363 . S
C1107 H1078 0.950 . S
C1107 C1106 1.397 . S
C1107 C1108 1.334 . S
C1108 H1079 0.950 . S
C1108 C1107 1.334 . S
C1108 C1109 1.287 . S
C1109 C1108 1.287 . S
C1109 C1110 1.524 . S
C1109 H1112 0.999 . S
C1110 H1080 0.950 . S
C1110 C1109 1.524 . S
C1110 C1111 1.415 . S
C1111 H1081 0.950 . S
C1111 C1106 1.363 . S
C1111 C1110 1.415 . S
H1112 C1109 0.999 . S
H1113 C1094 0.913 . S
H1114 C1132 0.951 . S
H1115 C1134 0.951 . S
H1116 C1136 0.950 . S
H1117 C1137 0.950 . S
H1118 C1139 0.950 . S
H1119 C1142 0.950 . S
H1120 C1143 0.950 . S
H1121 C1145 0.950 . S
H1122 C1146 0.950 . S
H1123 C1147 0.951 . S
H1124 C1149 0.951 . S
H1125 C1151 0.950 . S
H1126 C1152 0.950 1_455 S
H1127 C1154 0.950 . S
H1128 C1157 0.950 . S
H1129 C1158 0.950 . S
H1130 C1160 0.950 . S
H1131 C1161 0.950 . S
C1132 H1114 0.951 . S
C1132 C1133 1.366 . S
C1132 C1134 1.388 . S
C1133 C1132 1.366 . S
C1133 C1137 1.385 . S
C1134 H1115 0.951 . S
C1134 C1132 1.388 . S
C1134 C1135 1.366 . S
C1135 C1134 1.366 . S
C1135 C1136 1.414 . S
C1135 C1138 1.499 . S
C1136 H1116 0.950 . S
C1136 C1135 1.414 . S
C1136 C1137 1.374 . S
C1137 H1117 0.950 . S
C1137 C1133 1.385 . S
C1137 C1136 1.374 . S
C1138 C1135 1.499 . S
C1138 C1139 1.373 . S
C1138 C1140 1.389 . S
C1139 H1118 0.950 . S
C1139 C1138 1.373 . S
C1139 C1155 1.377 . S
C1140 C1138 1.389 . S
C1140 C1141 1.524 . S
C1140 C1154 1.377 . S
C1141 C1140 1.524 . S
C1141 C1142 1.397 . S
C1141 C1146 1.363 . S
C1142 H1119 0.950 . S
C1142 C1141 1.397 . S
C1142 C1143 1.334 . S
C1143 H1120 0.950 . S
C1143 C1142 1.334 . S
C1143 C1144 1.287 . S
C1144 C1143 1.287 . S
C1144 C1145 1.524 . S
C1144 H1163 0.913 . S
C1145 H1121 0.950 . S
C1145 C1144 1.524 . S
C1145 C1146 1.415 . S
C1146 H1122 0.950 . S
C1146 C1141 1.363 . S
C1146 C1145 1.415 . S
C1147 H1123 0.951 . S
C1147 C1148 1.366 . S
C1147 C1149 1.388 . S
C1148 C1147 1.366 . S
C1148 C1152 1.385 . S
C1149 H1124 0.951 . S
C1149 C1147 1.388 . S
C1149 C1150 1.366 . S
C1150 C1149 1.366 . S
C1150 C1151 1.414 . S
C1150 C1153 1.499 . S
C1151 H1125 0.950 . S
C1151 C1150 1.414 . S
C1151 C1152 1.374 . S
C1152 H1126 0.950 1_655 S
C1152 C1148 1.385 . S
C1152 C1151 1.374 . S
C1153 C1150 1.499 . S
C1153 C1154 1.373 . S
C1153 C1155 1.389 . S
C1154 H1127 0.950 . S
C1154 C1140 1.377 . S
C1154 C1153 1.373 . S
C1155 C1139 1.377 . S
C1155 C1153 1.389 . S
C1155 C1156 1.524 . S
C1156 C1155 1.524 . S
C1156 C1157 1.397 . S
C1156 C1161 1.363 . S
C1157 H1128 0.950 . S
C1157 C1156 1.397 . S
C1157 C1158 1.334 . S
C1158 H1129 0.950 . S
C1158 C1157 1.334 . S
C1158 C1159 1.287 . S
C1159 C1158 1.287 . S
C1159 C1160 1.524 . S
C1159 H1162 0.999 . S
C1160 H1130 0.950 . S
C1160 C1159 1.524 . S
C1160 C1161 1.415 . S
C1161 H1131 0.950 . S
C1161 C1156 1.363 . S
C1161 C1160 1.415 . S
H1162 C1159 0.999 . S
H1163 C1144 0.913 . S
H1164 C1182 0.951 . S
H1165 C1184 0.951 . S
H1166 C1186 0.950 . S
H1167 C1187 0.950 . S
H1168 C1189 0.950 . S
H1169 C1192 0.950 . S
H1170 C1193 0.950 . S
H1171 C1195 0.950 . S
H1172 C1196 0.950 . S
H1173 C1197 0.951 . S
H1174 C1199 0.951 . S
H1175 C1201 0.950 . S
H1176 C1202 0.950 . S
H1177 C1204 0.950 . S
H1178 C1207 0.950 . S
H1179 C1208 0.950 . S
H1180 C1210 0.950 . S
H1181 C1211 0.950 . S
C1182 H1164 0.951 . S
C1182 C1183 1.366 . S
C1182 C1184 1.388 . S
C1183 C1182 1.366 . S
C1183 C1187 1.385 . S
C1184 H1165 0.951 . S
C1184 C1182 1.388 . S
C1184 C1185 1.366 . S
C1185 C1184 1.366 . S
C1185 C1186 1.414 . S
C1185 C1188 1.499 . S
C1186 H1166 0.950 . S
C1186 C1185 1.414 . S
C1186 C1187 1.374 . S
C1187 H1167 0.950 . S
C1187 C1183 1.385 . S
C1187 C1186 1.374 . S
C1188 C1185 1.499 . S
C1188 C1189 1.373 . S
C1188 C1190 1.389 . S
C1189 H1168 0.950 . S
C1189 C1188 1.373 . S
C1189 C1205 1.377 . S
C1190 C1188 1.389 . S
C1190 C1191 1.524 . S
C1190 C1204 1.377 . S
C1191 C1190 1.524 . S
C1191 C1192 1.397 . S
C1191 C1196 1.363 . S
C1192 H1169 0.950 . S
C1192 C1191 1.397 . S
C1192 C1193 1.334 . S
C1193 H1170 0.950 . S
C1193 C1192 1.334 . S
C1193 C1194 1.287 . S
C1194 C1193 1.287 . S
C1194 C1195 1.524 . S
C1194 H1213 0.913 . S
C1195 H1171 0.950 . S
C1195 C1194 1.524 . S
C1195 C1196 1.415 . S
C1196 H1172 0.950 . S
C1196 C1191 1.363 . S
C1196 C1195 1.415 . S
C1197 H1173 0.951 . S
C1197 C1198 1.366 . S
C1197 C1199 1.388 . S
C1198 C1197 1.366 . S
C1198 C1202 1.385 . S
C1199 H1174 0.951 . S
C1199 C1197 1.388 . S
C1199 C1200 1.366 . S
C1200 C1199 1.366 . S
C1200 C1201 1.414 . S
C1200 C1203 1.499 . S
C1201 H1175 0.950 . S
C1201 C1200 1.414 . S
C1201 C1202 1.374 . S
C1202 H1176 0.950 . S
C1202 C1198 1.385 . S
C1202 C1201 1.374 . S
C1203 C1200 1.499 . S
C1203 C1204 1.373 . S
C1203 C1205 1.389 . S
C1204 H1177 0.950 . S
C1204 C1190 1.377 . S
C1204 C1203 1.373 . S
C1205 C1189 1.377 . S
C1205 C1203 1.389 . S
C1205 C1206 1.524 . S
C1206 C1205 1.524 . S
C1206 C1207 1.397 . S
C1206 C1211 1.363 . S
C1207 H1178 0.950 . S
C1207 C1206 1.397 . S
C1207 C1208 1.334 . S
C1208 H1179 0.950 . S
C1208 C1207 1.334 . S
C1208 C1209 1.287 . S
C1209 C1208 1.287 . S
C1209 C1210 1.524 . S
C1209 H1212 0.999 . S
C1210 H1180 0.950 . S
C1210 C1209 1.524 . S
C1210 C1211 1.415 . S
C1211 H1181 0.950 . S
C1211 C1206 1.363 . S
C1211 C1210 1.415 . S
H1212 C1209 0.999 . S
H1213 C1194 0.913 . S
H1214 C1232 0.951 . S
H1215 C1234 0.951 . S
H1216 C1236 0.950 . S
H1217 C1237 0.950 . S
H1218 C1239 0.950 . S
H1219 C1242 0.950 . S
H1220 C1243 0.950 . S
H1221 C1245 0.950 . S
H1222 C1246 0.950 . S
H1223 C1247 0.951 . S
H1224 C1249 0.951 . S
H1225 C1251 0.950 . S
H1226 C1252 0.950 . S
H1227 C1254 0.950 . S
H1228 C1257 0.950 . S
H1229 C1258 0.950 . S
H1230 C1260 0.950 . S
H1231 C1261 0.950 . S
C1232 H1214 0.951 . S
C1232 C1233 1.366 . S
C1232 C1234 1.388 . S
C1233 C1232 1.366 . S
C1233 C1237 1.385 . S
C1234 H1215 0.951 . S
C1234 C1232 1.388 . S
C1234 C1235 1.366 . S
C1235 C1234 1.366 . S
C1235 C1236 1.414 . S
C1235 C1238 1.499 . S
C1236 H1216 0.950 . S
C1236 C1235 1.414 . S
C1236 C1237 1.374 . S
C1237 H1217 0.950 . S
C1237 C1233 1.385 . S
C1237 C1236 1.374 . S
C1238 C1235 1.499 . S
C1238 C1239 1.373 . S
C1238 C1240 1.389 . S
C1239 H1218 0.950 . S
C1239 C1238 1.373 . S
C1239 C1255 1.377 . S
C1240 C1238 1.389 . S
C1240 C1241 1.524 . S
C1240 C1254 1.377 . S
C1241 C1240 1.524 . S
C1241 C1242 1.397 . S
C1241 C1246 1.363 . S
C1242 H1219 0.950 . S
C1242 C1241 1.397 . S
C1242 C1243 1.334 . S
C1243 H1220 0.950 . S
C1243 C1242 1.334 . S
C1243 C1244 1.287 . S
C1244 C1243 1.287 . S
C1244 C1245 1.524 . S
C1244 H1263 0.913 . S
C1245 H1221 0.950 . S
C1245 C1244 1.524 . S
C1245 C1246 1.415 . S
C1246 H1222 0.950 . S
C1246 C1241 1.363 . S
C1246 C1245 1.415 . S
C1247 H1223 0.951 . S
C1247 C1248 1.366 . S
C1247 C1249 1.388 . S
C1248 C1247 1.366 . S
C1248 C1252 1.385 . S
C1249 H1224 0.951 . S
C1249 C1247 1.388 . S
C1249 C1250 1.366 . S
C1250 C1249 1.366 . S
C1250 C1251 1.414 . S
C1250 C1253 1.499 . S
C1251 H1225 0.950 . S
C1251 C1250 1.414 . S
C1251 C1252 1.374 . S
C1252 H1226 0.950 . S
C1252 C1248 1.385 . S
C1252 C1251 1.374 . S
C1253 C1250 1.499 . S
C1253 C1254 1.373 . S
C1253 C1255 1.389 . S
C1254 H1227 0.950 . S
C1254 C1240 1.377 . S
C1254 C1253 1.373 . S
C1255 C1239 1.377 . S
C1255 C1253 1.389 . S
C1255 C1256 1.524 . S
C1256 C1255 1.524 . S
C1256 C1257 1.397 . S
C1256 C1261 1.363 . S
C1257 H1228 0.950 . S
C1257 C1256 1.397 . S
C1257 C1258 1.334 . S
C1258 H1229 0.950 . S
C1258 C1257 1.334 . S
C1258 C1259 1.287 . S
C1259 C1258 1.287 . S
C1259 C1260 1.524 . S
C1259 H1262 0.999 . S
C1260 H1230 0.950 . S
C1260 C1259 1.524 . S
C1260 C1261 1.415 . S
C1261 H1231 0.950 . S
C1261 C1256 1.363 . S
C1261 C1260 1.415 . S
H1262 C1259 0.999 . S
H1263 C1244 0.913 . S
H1264 C1282 0.951 . S
H1265 C1284 0.951 . S
H1266 C1286 0.950 . S
H1267 C1287 0.950 . S
H1268 C1289 0.950 . S
H1269 C1292 0.950 . S
H1270 C1293 0.950 . S
H1271 C1295 0.950 . S
H1272 C1296 0.950 . S
H1273 C1297 0.951 . S
H1274 C1299 0.951 . S
H1275 C1301 0.950 . S
H1276 C1302 0.950 . S
H1277 C1304 0.950 . S
H1278 C1307 0.950 . S
H1279 C1308 0.950 . S
H1280 C1310 0.950 . S
H1281 C1311 0.950 . S
C1282 H1264 0.951 . S
C1282 C1283 1.366 . S
C1282 C1284 1.388 . S
C1283 C1282 1.366 . S
C1283 C1287 1.385 . S
C1284 H1265 0.951 . S
C1284 C1282 1.388 . S
C1284 C1285 1.366 . S
C1285 C1284 1.366 . S
C1285 C1286 1.414 . S
C1285 C1288 1.499 . S
C1286 H1266 0.950 . S
C1286 C1285 1.414 . S
C1286 C1287 1.374 . S
C1287 H1267 0.950 . S
C1287 C1283 1.385 . S
C1287 C1286 1.374 . S
C1288 C1285 1.499 . S
C1288 C1289 1.373 . S
C1288 C1290 1.389 . S
C1289 H1268 0.950 . S
C1289 C1288 1.373 . S
C1289 C1305 1.377 . S
C1290 C1288 1.389 . S
C1290 C1291 1.524 . S
C1290 C1304 1.377 . S
C1291 C1290 1.524 . S
C1291 C1292 1.397 . S
C1291 C1296 1.363 . S
C1292 H1269 0.950 . S
C1292 C1291 1.397 . S
C1292 C1293 1.334 . S
C1293 H1270 0.950 . S
C1293 C1292 1.334 . S
C1293 C1294 1.287 . S
C1294 C1293 1.287 . S
C1294 C1295 1.524 . S
C1294 H1313 0.913 . S
C1295 H1271 0.950 . S
C1295 C1294 1.524 . S
C1295 C1296 1.415 . S
C1296 H1272 0.950 . S
C1296 C1291 1.363 . S
C1296 C1295 1.415 . S
C1297 H1273 0.951 . S
C1297 C1298 1.366 . S
C1297 C1299 1.388 . S
C1298 C1297 1.366 . S
C1298 C1302 1.385 . S
C1299 H1274 0.951 . S
C1299 C1297 1.388 . S
C1299 C1300 1.366 . S
C1300 C1299 1.366 . S
C1300 C1301 1.414 . S
C1300 C1303 1.499 . S
C1301 H1275 0.950 . S
C1301 C1300 1.414 . S
C1301 C1302 1.374 . S
C1302 H1276 0.950 . S
C1302 C1298 1.385 . S
C1302 C1301 1.374 . S
C1303 C1300 1.499 . S
C1303 C1304 1.373 . S
C1303 C1305 1.389 . S
C1304 H1277 0.950 . S
C1304 C1290 1.377 . S
C1304 C1303 1.373 . S
C1305 C1289 1.377 . S
C1305 C1303 1.389 . S
C1305 C1306 1.524 . S
C1306 C1305 1.524 . S
C1306 C1307 1.397 . S
C1306 C1311 1.363 . S
C1307 H1278 0.950 . S
C1307 C1306 1.397 . S
C1307 C1308 1.334 . S
C1308 H1279 0.950 . S
C1308 C1307 1.334 . S
C1308 C1309 1.287 . S
C1309 C1308 1.287 . S
C1309 C1310 1.524 . S
C1309 H1312 0.999 . S
C1310 H1280 0.950 . S
C1310 C1309 1.524 . S
C1310 C1311 1.415 . S
C1311 H1281 0.950 . S
C1311 C1306 1.363 . S
C1311 C1310 1.415 . S
H1312 C1309 0.999 . S
H1313 C1294 0.913 . S
H1314 C1332 0.951 . S
H1315 C1334 0.951 . S
H1316 C1336 0.950 . S
H1317 C1337 0.950 . S
H1318 C1339 0.950 . S
H1319 C1342 0.950 . S
H1320 C1343 0.950 . S
H1321 C1345 0.950 . S
H1322 C1346 0.950 . S
H1323 C1347 0.951 . S
H1324 C1349 0.951 . S
H1325 C1351 0.950 . S
H1326 C1352 0.950 . S
H1327 C1354 0.950 . S
H1328 C1357 0.950 . S
H1329 C1358 0.950 . S
H1330 C1360 0.950 . S
H1331 C1361 0.950 . S
C1332 H1314 0.951 . S
C1332 C1333 1.366 . S
C1332 C1334 1.388 . S
C1333 C1332 1.366 . S
C1333 C1337 1.385 . S
C1334 H1315 0.951 . S
C1334 C1332 1.388 . S
C1334 C1335 1.366 . S
C1335 C1334 1.366 . S
C1335 C1336 1.414 . S
C1335 C1338 1.499 . S
C1336 H1316 0.950 . S
C1336 C1335 1.414 . S
C1336 C1337 1.374 . S
C1337 H1317 0.950 . S
C1337 C1333 1.385 . S
C1337 C1336 1.374 . S
C1338 C1335 1.499 . S
C1338 C1339 1.373 . S
C1338 C1340 1.389 . S
C1339 H1318 0.950 . S
C1339 C1338 1.373 . S
C1339 C1355 1.377 . S
C1340 C1338 1.389 . S
C1340 C1341 1.524 . S
C1340 C1354 1.377 . S
C1341 C1340 1.524 . S
C1341 C1342 1.397 . S
C1341 C1346 1.363 . S
C1342 H1319 0.950 . S
C1342 C1341 1.397 . S
C1342 C1343 1.334 . S
C1343 H1320 0.950 . S
C1343 C1342 1.334 . S
C1343 C1344 1.287 . S
C1344 C1343 1.287 . S
C1344 C1345 1.524 . S
C1344 H1363 0.913 . S
C1345 H1321 0.950 . S
C1345 C1344 1.524 . S
C1345 C1346 1.415 . S
C1346 H1322 0.950 . S
C1346 C1341 1.363 . S
C1346 C1345 1.415 . S
C1347 H1323 0.951 . S
C1347 C1348 1.366 . S
C1347 C1349 1.388 . S
C1348 C1347 1.366 . S
C1348 C1352 1.385 . S
C1349 H1324 0.951 . S
C1349 C1347 1.388 . S
C1349 C1350 1.366 . S
C1350 C1349 1.366 . S
C1350 C1351 1.414 . S
C1350 C1353 1.499 . S
C1351 H1325 0.950 . S
C1351 C1350 1.414 . S
C1351 C1352 1.374 . S
C1352 H1326 0.950 . S
C1352 C1348 1.385 . S
C1352 C1351 1.374 . S
C1353 C1350 1.499 . S
C1353 C1354 1.373 . S
C1353 C1355 1.389 . S
C1354 H1327 0.950 . S
C1354 C1340 1.377 . S
C1354 C1353 1.373 . S
C1355 C1339 1.377 . S
C1355 C1353 1.389 . S
C1355 C1356 1.524 . S
C1356 C1355 1.524 . S
C1356 C1357 1.397 . S
C1356 C1361 1.363 . S
C1357 H1328 0.950 . S
C1357 C1356 1.397 . S
C1357 C1358 1.334 . S
C1358 H1329 0.950 . S
C1358 C1357 1.334 . S
C1358 C1359 1.287 . S
C1359 C1358 1.287 . S
C1359 C1360 1.524 . S
C1359 H1362 0.999 . S
C1360 H1330 0.950 . S
C1360 C1359 1.524 . S
C1360 C1361 1.415 . S
C1361 H1331 0.950 . S
C1361 C1356 1.363 . S
C1361 C1360 1.415 . S
H1362 C1359 0.999 . S
H1363 C1344 0.913 . S
H1364 C1382 0.951 . S
H1365 C1384 0.951 . S
H1366 C1386 0.950 . S
H1367 C1387 0.950 . S
H1368 C1389 0.950 . S
H1369 C1392 0.950 . S
H1370 C1393 0.950 . S
H1371 C1395 0.950 . S
H1372 C1396 0.950 . S
H1373 C1397 0.951 . S
H1374 C1399 0.951 . S
H1375 C1401 0.950 . S
H1376 C1402 0.950 . S
H1377 C1404 0.950 . S
H1378 C1407 0.950 . S
H1379 C1408 0.950 . S
H1380 C1410 0.950 . S
H1381 C1411 0.950 . S
C1382 H1364 0.951 . S
C1382 C1383 1.366 . S
C1382 C1384 1.388 . S
C1383 C1382 1.366 . S
C1383 C1387 1.385 . S
C1384 H1365 0.951 . S
C1384 C1382 1.388 . S
C1384 C1385 1.366 . S
C1385 C1384 1.366 . S
C1385 C1386 1.414 . S
C1385 C1388 1.499 . S
C1386 H1366 0.950 . S
C1386 C1385 1.414 . S
C1386 C1387 1.374 . S
C1387 H1367 0.950 . S
C1387 C1383 1.385 . S
C1387 C1386 1.374 . S
C1388 C1385 1.499 . S
C1388 C1389 1.373 . S
C1388 C1390 1.389 . S
C1389 H1368 0.950 . S
C1389 C1388 1.373 . S
C1389 C1405 1.377 . S
C1390 C1388 1.389 . S
C1390 C1391 1.524 . S
C1390 C1404 1.377 . S
C1391 C1390 1.524 . S
C1391 C1392 1.397 . S
C1391 C1396 1.363 . S
C1392 H1369 0.950 . S
C1392 C1391 1.397 . S
C1392 C1393 1.334 . S
C1393 H1370 0.950 . S
C1393 C1392 1.334 . S
C1393 C1394 1.287 . S
C1394 C1393 1.287 . S
C1394 C1395 1.524 . S
C1394 H1413 0.913 . S
C1395 H1371 0.950 . S
C1395 C1394 1.524 . S
C1395 C1396 1.415 . S
C1396 H1372 0.950 . S
C1396 C1391 1.363 . S
C1396 C1395 1.415 . S
C1397 H1373 0.951 . S
C1397 C1398 1.366 . S
C1397 C1399 1.388 . S
C1398 C1397 1.366 . S
C1398 C1402 1.385 . S
C1399 H1374 0.951 . S
C1399 C1397 1.388 . S
C1399 C1400 1.366 . S
C1400 C1399 1.366 . S
C1400 C1401 1.414 . S
C1400 C1403 1.499 . S
C1401 H1375 0.950 . S
C1401 C1400 1.414 . S
C1401 C1402 1.374 . S
C1402 H1376 0.950 . S
C1402 C1398 1.385 . S
C1402 C1401 1.374 . S
C1403 C1400 1.499 . S
C1403 C1404 1.373 . S
C1403 C1405 1.389 . S
C1404 H1377 0.950 . S
C1404 C1390 1.377 . S
C1404 C1403 1.373 . S
C1405 C1389 1.377 . S
C1405 C1403 1.389 . S
C1405 C1406 1.524 . S
C1406 C1405 1.524 . S
C1406 C1407 1.397 . S
C1406 C1411 1.363 . S
C1407 H1378 0.950 . S
C1407 C1406 1.397 . S
C1407 C1408 1.334 . S
C1408 H1379 0.950 . S
C1408 C1407 1.334 . S
C1408 C1409 1.287 . S
C1409 C1408 1.287 . S
C1409 C1410 1.524 . S
C1409 H1412 0.999 . S
C1410 H1380 0.950 . S
C1410 C1409 1.524 . S
C1410 C1411 1.415 . S
C1411 H1381 0.950 . S
C1411 C1406 1.363 . S
C1411 C1410 1.415 . S
H1412 C1409 0.999 . S
H1413 C1394 0.913 . S
H1414 C1432 0.951 . S
H1415 C1434 0.951 . S
H1416 C1436 0.950 . S
H1417 C1437 0.950 . S
H1418 C1439 0.950 . S
H1419 C1442 0.950 . S
H1420 C1443 0.950 . S
H1421 C1445 0.950 . S
H1422 C1446 0.950 . S
H1423 C1447 0.951 . S
H1424 C1449 0.951 . S
H1425 C1451 0.950 . S
H1426 C1452 0.950 . S
H1427 C1454 0.950 . S
H1428 C1457 0.950 . S
H1429 C1458 0.950 . S
H1430 C1460 0.950 . S
H1431 C1461 0.950 . S
C1432 H1414 0.951 . S
C1432 C1433 1.366 . S
C1432 C1434 1.388 . S
C1433 C1432 1.366 . S
C1433 C1437 1.385 . S
C1434 H1415 0.951 . S
C1434 C1432 1.388 . S
C1434 C1435 1.366 . S
C1435 C1434 1.366 . S
C1435 C1436 1.414 . S
C1435 C1438 1.499 . S
C1436 H1416 0.950 . S
C1436 C1435 1.414 . S
C1436 C1437 1.374 . S
C1437 H1417 0.950 . S
C1437 C1433 1.385 . S
C1437 C1436 1.374 . S
C1438 C1435 1.499 . S
C1438 C1439 1.373 . S
C1438 C1440 1.389 . S
C1439 H1418 0.950 . S
C1439 C1438 1.373 . S
C1439 C1455 1.377 . S
C1440 C1438 1.389 . S
C1440 C1441 1.524 . S
C1440 C1454 1.377 . S
C1441 C1440 1.524 . S
C1441 C1442 1.397 . S
C1441 C1446 1.363 . S
C1442 H1419 0.950 . S
C1442 C1441 1.397 . S
C1442 C1443 1.334 . S
C1443 H1420 0.950 . S
C1443 C1442 1.334 . S
C1443 C1444 1.287 . S
C1444 C1443 1.287 . S
C1444 C1445 1.524 . S
C1444 H1463 0.913 . S
C1445 H1421 0.950 . S
C1445 C1444 1.524 . S
C1445 C1446 1.415 . S
C1446 H1422 0.950 . S
C1446 C1441 1.363 . S
C1446 C1445 1.415 . S
C1447 H1423 0.951 . S
C1447 C1448 1.366 . S
C1447 C1449 1.388 . S
C1448 C1447 1.366 . S
C1448 C1452 1.385 . S
C1449 H1424 0.951 . S
C1449 C1447 1.388 . S
C1449 C1450 1.366 . S
C1450 C1449 1.366 . S
C1450 C1451 1.414 . S
C1450 C1453 1.499 . S
C1451 H1425 0.950 . S
C1451 C1450 1.414 . S
C1451 C1452 1.374 . S
C1452 H1426 0.950 . S
C1452 C1448 1.385 . S
C1452 C1451 1.374 . S
C1453 C1450 1.499 . S
C1453 C1454 1.373 . S
C1453 C1455 1.389 . S
C1454 H1427 0.950 . S
C1454 C1440 1.377 . S
C1454 C1453 1.373 . S
C1455 C1439 1.377 . S
C1455 C1453 1.389 . S
C1455 C1456 1.524 . S
C1456 C1455 1.524 . S
C1456 C1457 1.397 . S
C1456 C1461 1.363 . S
C1457 H1428 0.950 . S
C1457 C1456 1.397 . S
C1457 C1458 1.334 . S
C1458 H1429 0.950 . S
C1458 C1457 1.334 . S
C1458 C1459 1.287 . S
C1459 C1458 1.287 . S
C1459 C1460 1.524 . S
C1459 H1462 0.999 . S
C1460 H1430 0.950 . S
C1460 C1459 1.524 . S
C1460 C1461 1.415 . S
C1461 H1431 0.950 . S
C1461 C1456 1.363 . S
C1461 C1460 1.415 . S
H1462 C1459 0.999 . S
H1463 C1444 0.913 . S
C283 C9 1.425 . S
C298 C119 1.437 . S
C333 C21 1.370 . S
C348 C163 1.368 . S
C398 C193 1.795 . S
C383 C30 1.753 . S
C433 C43 2.468 . S
C448 C234 2.481 . S
C498 C150 0.603 . S
C483 C4 0.650 . S
C548 C114 3.171 . S
C533 C22 3.151 . S
C598 C242 0.751 . S
C583 C34 0.751 . S
C648 C203 1.841 . S
C633 C48 1.869 . S
C683 C8 0.850 . S
C698 C239 0.854 . S
C748 C153 1.770 . S
C733 C35 1.795 . S
C783 C47 2.249 . S
C798 C122 2.177 . S
C833 C17 1.861 . S
C848 C190 1.886 . S
C898 C110 0.832 . S
C883 C60 0.830 . S
C933 C74 1.585 . S
C948 C154 1.600 . S
C983 C82 1.321 . S
C998 C202 1.423 . S
C1033 C100 3.060 . S
C1048 C243 3.020 1_556 S
C1083 C61 1.101 . S
C1098 C159 1.116 . S
C1148 C123 2.477 . S
C1133 C73 2.457 . S
C1198 C233 1.346 . S
C1183 C87 1.383 . S
C1248 C194 1.834 . S
C1233 C95 1.913 . S
C1283 C56 0.668 . S
C1298 C230 0.669 . S
C1348 C162 2.112 . S
C1333 C86 2.164 . S
C1398 C113 2.028 . S
C1383 C99 2.068 . S
C1433 C69 1.649 . S
C1448 C199 1.769 . S
