# Generated by pormake.
# Topology apo, (3,6)-cn, num edge types: 1
# Building blocks:
#     Node 0, Type 0, BuildingBlock: INOVEN_clean_linker_0, # of connection points: 3
#     Node 1, Type 0, BuildingBlock: INOVEN_clean_linker_0, # of connection points: 3
#     Node 2, Type 0, BuildingBlock: INOVEN_clean_linker_0, # of connection points: 3
#     Node 3, Type 0, BuildingBlock: INOVEN_clean_linker_0, # of connection points: 3
#     Node 4, Type 0, BuildingBlock: INOVEN_clean_linker_0, # of connection points: 3
#     Node 5, Type 0, BuildingBlock: INOVEN_clean_linker_0, # of connection points: 3
#     Node 6, Type 0, BuildingBlock: INOVEN_clean_linker_0, # of connection points: 3
#     Node 7, Type 0, BuildingBlock: INOVEN_clean_linker_0, # of connection points: 3
#     Node 8, Type 1, BuildingBlock: KUMBOL_clean_sbu_1, # of connection points: 6
#     Node 9, Type 1, BuildingBlock: KUMBOL_clean_sbu_1, # of connection points: 6
#     Node 10, Type 1, BuildingBlock: KUMBOL_clean_sbu_1, # of connection points: 6
#     Node 11, Type 1, BuildingBlock: KUMBOL_clean_sbu_1, # of connection points: 6
#     Edge 12, Type (0, 1), None
#     Edge 13, Type (0, 1), None
#     Edge 14, Type (0, 1), None
#     Edge 15, Type (0, 1), None
#     Edge 16, Type (0, 1), None
#     Edge 17, Type (0, 1), None
#     Edge 18, Type (0, 1), None
#     Edge 19, Type (0, 1), None
#     Edge 20, Type (0, 1), None
#     Edge 21, Type (0, 1), None
#     Edge 22, Type (0, 1), None
#     Edge 23, Type (0, 1), None
#     Edge 24, Type (0, 1), None
#     Edge 25, Type (0, 1), None
#     Edge 26, Type (0, 1), None
#     Edge 27, Type (0, 1), None
#     Edge 28, Type (0, 1), None
#     Edge 29, Type (0, 1), None
#     Edge 30, Type (0, 1), None
#     Edge 31, Type (0, 1), None
#     Edge 32, Type (0, 1), None
#     Edge 33, Type (0, 1), None
#     Edge 34, Type (0, 1), None
#     Edge 35, Type (0, 1), None
# Relax obj value: 0.035
# Max RMSD: 0.293
# Mean RMSD: 0.196
data_MOF--net-apo--node1-KUMBOL_clean_sbu_1--node2-INOVEN_clean_linker_0--edge1-none
_symmetry_space_group_name_H-M    P1
_symmetry_Int_Tables_number       1
_symmetry_cell_setting            triclinic
loop_
_symmetry_equiv_pos_as_xyz
'x, y, z'
_cell_length_a     12.69719
_cell_length_b     18.500114
_cell_length_c     26.597904
_cell_angle_alpha  88.759994
_cell_angle_beta   90.428747
_cell_angle_gamma 90.397148
loop_
_atom_site_label
_atom_site_type_symbol
_atom_site_fract_x
_atom_site_fract_y
_atom_site_fract_z
_atom_type_partial_charge
H0 H 0.1889 0.35695 0.45653 0.0
H1 H 0.3588 0.54496 0.40603 0.0
H2 H 0.29705 0.37426 0.30339 0.0
N3 N 0.17907 0.29423 0.36722 0.0
N4 N 0.20345 0.25793 0.33017 0.0
C5 C 0.22983 0.3869 0.42709 0.0
C6 C 0.27785 0.45383 0.43738 0.0
C7 C 0.2349 0.35857 0.37847 0.0
C8 C 0.29111 0.39631 0.3406 0.0
C9 C 0.33638 0.46356 0.35039 0.0
C10 C 0.32649 0.49224 0.39835 0.0
H11 H 0.38398 0.12968 0.9631 0.0
H12 H 0.15427 0.96398 0.93231 0.0
H13 H 0.25192 0.11137 0.81433 0.0
N14 N 0.38535 0.18994 0.87218 0.0
N15 N 0.38031 0.21466 0.82831 0.0
C16 C 0.33147 0.10298 0.93694 0.0
C17 C 0.26883 0.04456 0.95349 0.0
C18 C 0.32582 0.12778 0.88695 0.0
C19 C 0.25807 0.09237 0.853 0.0
C20 C 0.19669 0.03313 0.86916 0.0
C21 C 0.20122 0.00994 0.91963 0.0
H22 H 0.72266 0.19559 0.62512 0.0
H23 H 0.89049 -0.00573 0.63863 0.0
H24 H 0.81912 0.11503 0.77032 0.0
N25 N 0.71782 0.21802 0.7263 0.0
N26 N 0.67158 0.26859 0.7043 0.0
C27 C 0.76318 0.15529 0.64808 0.0
C28 C 0.80973 0.09568 0.62517 0.0
C29 C 0.76558 0.16102 0.70072 0.0
C30 C 0.81421 0.1081 0.73008 0.0
C31 C 0.85829 0.04781 0.7084 0.0
C32 C 0.85752 0.04167 0.65565 0.0
H33 H 0.8253 0.33044 0.12339 0.0
H34 H 0.61479 0.51093 0.13035 0.0
H35 H 0.68546 0.38429 0.26403 0.0
N36 N 0.81493 0.29534 0.22413 0.0
N37 N 0.89475 0.26529 0.20767 0.0
C38 C 0.77224 0.36341 0.14469 0.0
C39 C 0.71633 0.4199 0.12016 0.0
C40 C 0.75992 0.35046 0.19689 0.0
C41 C 0.69341 0.3946 0.22405 0.0
C42 C 0.64292 0.45383 0.20102 0.0
C43 C 0.65239 0.46491 0.14869 0.0
H44 H 0.7979 0.69384 0.60778 0.0
H45 H 0.59438 0.51092 0.63457 0.0
H46 H 0.70437 0.63759 0.75858 0.0
N47 N 0.81856 0.73282 0.70133 0.0
N48 N 0.82158 0.75067 0.7462 0.0
C49 C 0.75257 0.65988 0.63351 0.0
C50 C 0.69382 0.60176 0.61506 0.0
C51 C 0.75707 0.67318 0.68498 0.0
C52 C 0.70263 0.62678 0.7189 0.0
C53 C 0.64186 0.56879 0.70103 0.0
C54 C 0.6375 0.55695 0.64881 0.0
H55 H 0.82338 0.88712 0.26929 0.0
H56 H 0.88924 0.02873 0.14225 0.0
H57 H 0.69023 0.84272 0.12415 0.0
N58 N 0.70047 0.79816 0.22208 0.0
N59 N 0.6279 0.76518 0.20058 0.0
C60 C 0.81612 0.90084 0.2296 0.0
C61 C 0.86421 0.96334 0.20987 0.0
C62 C 0.75373 0.85731 0.1991 0.0
C63 C 0.74085 0.87525 0.14776 0.0
C64 C 0.79176 0.93627 0.12699 0.0
C65 C 0.85388 0.9799 0.15807 0.0
H66 H 0.32875 0.81876 0.4574 0.0
H67 H 0.14288 0.00973 0.43583 0.0
H68 H 0.19727 0.86906 0.312 0.0
N69 N 0.32918 0.78026 0.36241 0.0
N70 N 0.31632 0.76029 0.3183 0.0
C71 C 0.28032 0.85316 0.4333 0.0
C72 C 0.23 0.91326 0.45324 0.0
C73 C 0.27053 0.83797 0.38216 0.0
C74 C 0.20891 0.88296 0.35074 0.0
C75 C 0.16613 0.9469 0.36875 0.0
C76 C 0.17505 0.96079 0.4207 0.0
H77 H 0.3167 0.61466 0.79207 0.0
H78 H 0.36032 0.46332 0.91551 0.0
H79 H 0.18462 0.65791 0.93621 0.0
N80 N 0.2014 0.70579 0.83895 0.0
N81 N 0.15468 0.75201 0.8635 0.0
C82 C 0.30618 0.59927 0.83115 0.0
C83 C 0.34669 0.5339 0.84987 0.0
C84 C 0.24854 0.64425 0.86173 0.0
C85 C 0.23177 0.62433 0.91237 0.0
C86 C 0.27305 0.55926 0.9317 0.0
C87 C 0.33118 0.51446 0.90059 0.0
C88 C 0.67793 0.06918 0.33437 0.0
C89 C 0.65343 0.9428 0.3592 0.0
C90 C 0.72034 0.00237 0.34843 0.0
C91 C 0.54388 0.95076 0.35494 0.0
C92 C 0.56744 0.0779 0.33261 0.0
C93 C 0.50099 0.0183 0.34242 0.0
N94 N 0.74373 0.12715 0.32818 0.0
C95 C 0.7037 0.19497 0.32069 0.0
C96 C 0.52659 0.14695 0.32312 0.0
C97 C 0.59507 0.20568 0.31704 0.0
Gd98 Gd 0.1362 0.08134 0.22331 0.0
Gd99 Gd 0.92342 0.10508 0.34424 0.0
N100 N 0.82621 -0.00253 0.35626 0.0
C101 C 0.69814 0.87815 0.3771 0.0
C102 C 0.86878 0.9365 0.37794 0.0
C103 C 0.80614 0.87528 0.38707 0.0
H104 H 0.95138 0.93506 0.38746 0.0
H105 H 0.84079 0.8264 0.40274 0.0
H106 H 0.17418 0.25707 0.19424 0.0
H107 H 0.75512 0.24158 0.31934 0.0
H108 H 0.32286 0.33783 0.17133 0.0
H109 H 0.64937 0.83116 0.38542 0.0
H110 H 0.49143 0.90564 0.36308 0.0
H111 H 0.24246 0.9168 0.24016 0.0
H112 H 0.44232 0.15574 0.32145 0.0
H113 H 0.56414 0.25955 0.3108 0.0
H114 H 0.62699 0.18721 0.18544 0.0
H115 H 0.41611 0.02408 0.34099 0.0
H116 H 0.57556 0.93676 0.22688 0.0
H117 H 0.41791 0.86126 0.24337 0.0
N118 N 0.3004 0.02431 0.23241 0.0
C119 C 0.38579 0.0663 0.22133 0.0
C120 C 0.311 0.95128 0.23891 0.0
C121 C 0.49895 0.96177 0.22812 0.0
C122 C 0.41031 0.91918 0.23821 0.0
C123 C 0.48741 0.03597 0.21868 0.0
H124 H 0.65251 0.05777 0.20418 0.0
N125 N 0.27165 0.16603 0.20941 0.0
C126 C 0.3711 0.13916 0.20978 0.0
C127 C 0.44014 0.25626 0.18403 0.0
C128 C 0.45804 0.1836 0.19676 0.0
C129 C 0.25345 0.2365 0.19601 0.0
C130 C 0.33739 0.28256 0.18318 0.0
O131 O 0.90484 0.00991 0.29228 0.0
O132 O 0.96262 0.07128 0.22484 0.0
O133 O 0.14573 0.1045 0.14301 0.0
O134 O 0.12627 -0.00613 0.16991 0.0
O135 O 0.08697 0.06202 0.35196 0.0
O136 O 0.12219 -0.00753 0.28429 0.0
O137 O 0.19173 0.15015 0.28743 0.0
O138 O 0.04245 0.19493 0.32826 0.0
O139 O 0.96568 0.08366 0.42295 0.0
O140 O 0.85762 0.16886 0.40434 0.0
O141 O 0.02332 0.17591 0.21301 0.0
O142 O 0.90664 0.19077 0.28089 0.0
C143 C 0.91803 0.01411 0.24365 0.0
C144 C 0.11763 0.00096 0.33349 0.0
C145 C 0.21874 0.01393 0.09268 0.0
C146 C 0.27855 0.01746 1.00568 0.0
C147 C 0.37542 0.94822 0.06862 0.0
C148 C 0.30456 0.96939 0.10524 0.0
C149 C 0.36255 0.97208 1.01894 0.0
C150 C 0.20614 0.03786 0.04244 0.0
C151 C 0.14227 0.03669 0.13095 0.0
C152 C 0.55944 0.15384 0.19532 0.0
C153 C 0.574 0.08015 0.206 0.0
H154 H 0.50474 0.29202 0.17361 0.0
C155 C 0.14336 0.19754 0.31551 0.0
C156 C 0.94548 0.20941 0.23588 0.0
C157 C 0.82978 0.10466 0.48162 0.0
C158 C 0.78962 0.0842 0.57098 0.0
C159 C 0.66374 0.04876 0.50701 0.0
C160 C 0.73069 0.07545 0.46966 0.0
C161 C 0.69296 0.05295 0.55738 0.0
C162 C 0.85903 0.10946 0.53294 0.0
C163 C 0.90065 0.13064 0.44056 0.0
H164 H 0.44066 0.91339 0.07886 0.0
H165 H 0.31713 0.95036 0.14306 0.0
H166 H 0.41825 0.95543 0.99083 0.0
H167 H 0.14093 0.07281 0.03204 0.0
H168 H 0.58797 0.02606 0.49685 0.0
H169 H 0.70378 0.07434 0.43147 0.0
H170 H 0.63869 0.03364 0.586 0.0
H171 H 0.93375 0.13389 0.5432 0.0
C172 C 0.84973 0.35804 0.85195 0.0
C173 C 0.95734 0.46705 0.84973 0.0
C174 C 0.85821 0.43255 0.84505 0.0
C175 C 0.04771 0.42551 0.85946 0.0
C176 C 0.9405 0.31623 0.86185 0.0
C177 C 0.03949 0.35027 0.86491 0.0
N178 N 0.75258 0.32682 0.85138 0.0
C179 C 0.74019 0.25461 0.86186 0.0
C180 C 0.92876 0.24163 0.87009 0.0
C181 C 0.8281 0.21085 0.87051 0.0
Gd182 Gd 0.4022 0.39995 0.71338 0.0
Gd183 Gd 0.61032 0.40584 0.84017 0.0
N184 N 0.76926 0.47175 0.83679 0.0
C185 C 0.96286 0.54242 0.84466 0.0
C186 C 0.77369 0.54564 0.83556 0.0
C187 C 0.87066 0.58182 0.83717 0.0
H188 H 0.70175 0.57657 0.83425 0.0
H189 H 0.87404 0.64016 0.8339 0.0
H190 H 0.47425 0.24111 0.67047 0.0
H191 H 0.66228 0.23077 0.86328 0.0
H192 H 0.38951 0.12475 0.64891 0.0
H193 H 0.03763 0.5707 0.84713 0.0
H194 H 0.1244 0.45109 0.86264 0.0
H195 H 0.20229 0.51363 0.73806 0.0
H196 H 0.99659 0.20767 0.87752 0.0
H197 H 0.81815 0.15366 0.87842 0.0
H198 H 0.0306 0.15259 0.69853 0.0
H199 H 0.10998 0.31901 0.87239 0.0
H200 H 0.9182 0.38936 0.73858 0.0
H201 H 0.00991 0.50724 0.74279 0.0
N202 N 0.2221 0.39971 0.73246 0.0
C203 C 0.17267 0.33466 0.72646 0.0
C204 C 0.16468 0.46125 0.73805 0.0
C205 C 1.00346 0.39145 0.73717 0.0
C206 C 0.05492 0.45807 0.73988 0.0
C207 C 0.06204 0.32883 0.72997 0.0
H208 H 0.92795 0.25678 0.72596 0.0
N209 N 0.33648 0.28334 0.70329 0.0
C210 C 0.23094 0.27534 0.71089 0.0
C211 C 0.23795 0.15515 0.67726 0.0
C212 C 0.17961 0.20995 0.69919 0.0
C213 C 0.39287 0.2313 0.68003 0.0
C214 C 0.34477 0.16604 0.66728 0.0
O215 O 0.63605 0.48501 0.77261 0.0
O216 O 0.48421 0.50659 0.72398 0.0
O217 O 0.45579 0.40189 0.63498 0.0
O218 O 0.29413 0.42452 0.65332 0.0
O219 O 0.43723 0.42389 0.83181 0.0
O220 O 0.37549 0.49017 0.76701 0.0
O221 O 0.40541 0.30466 0.7683 0.0
O222 O 0.49763 0.31088 0.84483 0.0
O223 O 0.59037 0.48291 0.90071 0.0
O224 O 0.61757 0.37007 0.91846 0.0
O225 O 0.57472 0.37444 0.70874 0.0
O226 O 0.63865 0.32115 0.78209 0.0
C227 C 0.58367 0.51908 0.73565 0.0
C228 C 0.39676 0.48406 0.81514 0.0
C229 C 0.34817 0.4669 0.57531 0.0
C230 C 0.28785 0.48284 0.48882 0.0
C231 C 0.30486 0.5866 0.54345 0.0
C232 C 0.34046 0.54145 0.58255 0.0
C233 C 0.27753 0.55757 0.49704 0.0
C234 C 0.32254 0.43787 0.52854 0.0
C235 C 0.36186 0.41691 0.61786 0.0
C236 C 0.07082 0.20277 0.70678 0.0
C237 C 0.01236 0.262 0.72232 0.0
H238 H 0.2004 0.10517 0.66628 0.0
C239 C 0.43279 0.2789 0.81299 0.0
C240 C 0.62381 0.32226 0.73286 0.0
C241 C 0.68207 0.45254 0.97805 0.0
C242 C 0.7372 0.44019 0.06674 0.0
C243 C 0.84839 0.50421 1.00656 0.0
C244 C 0.77511 0.49158 0.96833 0.0
C245 C 0.83002 0.4784 0.05538 0.0
C246 C 0.66284 0.42749 1.02791 0.0
C247 C 0.60774 0.43446 0.93643 0.0
H248 H 0.29747 0.64408 0.54924 0.0
H249 H 0.358 0.564 0.61888 0.0
H250 H 0.25021 0.5938 0.46726 0.0
H251 H 0.32981 0.38017 0.52315 0.0
H252 H 0.91954 0.53462 0.99831 0.0
H253 H 0.79177 0.51252 0.93131 0.0
H254 H 0.8872 0.48981 0.08467 0.0
H255 H 0.59076 0.39814 0.03643 0.0
C256 C 0.66018 0.88799 0.86284 0.0
C257 C 0.63788 0.76555 0.89588 0.0
C258 C 0.70356 0.82334 0.8799 0.0
C259 C 0.52794 0.77285 0.89253 0.0
C260 C 0.54991 0.89727 0.86304 0.0
C261 C 0.48403 0.83875 0.87644 0.0
N262 N 0.72582 0.94352 0.84988 0.0
C263 C 0.68664 0.01095 0.84018 0.0
C264 C 0.50934 0.96595 0.85199 0.0
C265 C 0.57817 0.02328 0.84112 0.0
Gd266 Gd 0.10915 0.89663 0.73147 0.0
Gd267 Gd 0.90732 0.91987 0.85617 0.0
N268 N 0.80997 0.81849 0.88379 0.0
C269 C 0.68464 0.70328 0.91664 0.0
C270 C 0.85583 0.75945 0.90631 0.0
C271 C 0.79394 0.70087 0.92279 0.0
H272 H 0.94036 0.75744 0.91102 0.0
H273 H 0.83066 0.6538 0.94002 0.0
H274 H 0.26604 0.04208 0.74268 0.0
H275 H 0.73955 0.05577 0.83359 0.0
H276 H 0.45655 0.0716 0.73997 0.0
H277 H 0.637 0.65772 0.92939 0.0
H278 H 0.4762 0.72877 0.90404 0.0
H279 H 0.08728 0.72258 0.70574 0.0
H280 H 0.4253 0.9755 0.8526 0.0
H281 H 0.5478 0.07701 0.83368 0.0
H282 H 0.62109 0.8427 0.71561 0.0
H283 H 0.39912 0.84458 0.8759 0.0
H284 H 0.39814 0.6373 0.68997 0.0
H285 H 0.20453 0.62038 0.68663 0.0
N286 N 0.21373 0.79514 0.72013 0.0
C287 C 0.31943 0.80614 0.72097 0.0
C288 C 0.17185 0.72963 0.70785 0.0
C289 C 0.34695 0.68187 0.69853 0.0
C290 C 0.23782 0.67197 0.69694 0.0
C291 C 0.38894 0.74966 0.7102 0.0
H292 H 0.55133 0.72087 0.70015 0.0
N293 N 0.28842 0.92926 0.73664 0.0
C294 C 0.35799 0.87522 0.72934 0.0
C295 C 0.50272 0.96095 0.73073 0.0
C296 C 0.46721 0.88956 0.72663 0.0
C297 C 0.3226 -0.00068 0.73941 0.0
C298 C 0.42998 0.01612 0.73715 0.0
O299 O 0.8897 0.81868 0.81121 0.0
O300 O 0.94556 0.84355 0.72898 0.0
O301 O 0.10994 0.97456 0.66916 0.0
O302 O 0.10617 0.8609 0.6535 0.0
O303 O 0.06134 0.85984 0.86586 0.0
O304 O 0.09086 0.8063 0.78899 0.0
O305 O 0.17456 0.95122 0.80107 0.0
O306 O 0.02762 0.00432 0.83418 0.0
O307 O 0.93334 0.90827 0.93722 0.0
O308 O 0.88208 0.01038 0.90508 0.0
O309 O 0.01176 -0.00585 0.74185 0.0
O310 O 0.85523 0.97049 0.78119 0.0
C311 C 0.88512 0.80894 0.76238 0.0
C312 C 0.10406 0.80983 0.83817 0.0
C313 C 0.19475 0.93812 0.59444 0.0
C314 C 0.24924 0.93216 0.50636 0.0
C315 C 0.36851 0.98085 0.56882 0.0
C316 C 0.29301 0.96918 0.60595 0.0
C317 C 0.3471 0.96217 0.51934 0.0
C318 C 0.17276 0.92009 0.54404 0.0
C319 C 0.11494 0.92603 0.63448 0.0
C320 C 0.53697 0.83286 0.71769 0.0
C321 C 0.49764 0.76328 0.70926 0.0
H322 H 0.58589 0.97416 0.72844 0.0
C323 C 0.12967 -0.00587 0.83342 0.0
C324 C 0.90906 -0.00574 0.74172 0.0
C325 C 0.81935 0.97862 0.98683 0.0
C326 C 0.76824 0.95997 0.07472 0.0
C327 C 0.64653 0.01592 1.01522 0.0
C328 C 0.72051 0.01013 0.97705 0.0
C329 C 0.66976 -0.00945 0.06373 0.0
C330 C 0.84327 0.95429 0.03624 0.0
C331 C 0.89838 0.97264 0.94631 0.0
H332 H 0.44379 0.00478 0.57848 0.0
H333 H 0.3116 0.98523 0.64348 0.0
H334 H 0.40665 0.97161 0.49093 0.0
H335 H 0.09708 0.89667 0.53422 0.0
H336 H 0.5713 0.04093 1.00722 0.0
H337 H 0.70033 0.03122 0.94012 0.0
H338 H 0.61163 -0.004 0.09302 0.0
H339 H 0.9197 0.93106 0.04472 0.0
C340 C 0.79736 0.50511 0.33377 0.0
C341 C 0.94695 0.58552 0.31946 0.0
C342 C 0.83691 0.57398 0.32198 0.0
C343 C 0.01576 0.52697 0.32637 0.0
C344 C 0.867 0.44708 0.34314 0.0
C345 C 0.97582 0.4579 0.33769 0.0
N346 N 0.69221 0.49691 0.34232 0.0
C347 C 0.65348 0.4349 0.3646 0.0
C348 C 0.82608 0.38128 0.36159 0.0
C349 C 0.71929 0.3757 0.37337 0.0
Gd350 Gd 0.3788 0.58426 0.20456 0.0
Gd351 Gd 0.59093 0.60183 0.33199 0.0
N352 N 0.7692 0.63074 0.31855 0.0
C353 C 0.98514 0.65615 0.31239 0.0
C354 C 0.80684 0.7001 0.31525 0.0
C355 C 0.91477 0.71372 0.31066 0.0
H356 H 0.75378 0.74533 0.31719 0.0
H357 H 0.94379 0.76874 0.30707 0.0
H358 H 0.25351 0.42257 0.22248 0.0
H359 H 0.57109 0.43111 0.37441 0.0
H360 H 0.07307 0.37511 0.22441 0.0
H361 H 0.06897 0.66701 0.30991 0.0
H362 H 0.1003 0.53486 0.32417 0.0
H363 H 0.35628 0.75951 0.17237 0.0
H364 H 0.87722 0.33563 0.36929 0.0
H365 H 0.68792 0.32616 0.38985 0.0
H366 H 0.85783 0.58217 0.1912 0.0
H367 H 0.03012 0.41378 0.34425 0.0
H368 H 0.02839 0.81026 0.16111 0.0
H369 H 0.21452 0.8479 0.15579 0.0
N370 N 0.25041 0.67287 0.18921 0.0
C371 C 0.14833 0.65053 0.19156 0.0
C372 C 0.27502 0.7425 0.17547 0.0
C373 C 0.0899 0.77119 0.16903 0.0
C374 C 0.19516 0.79274 0.16595 0.0
C375 C 0.06525 0.69912 0.18107 0.0
H376 H 0.89595 0.71076 0.17399 0.0
N377 N 0.20835 0.53278 0.21277 0.0
C378 C 0.12676 0.57841 0.20297 0.0
C379 C 1.00248 0.47898 0.21024 0.0
C380 C 0.02162 0.5527 0.20178 0.0
C381 C 0.18955 0.46021 0.21916 0.0
C382 C 0.08686 0.43252 0.21887 0.0
O383 O 0.61253 0.68718 0.27054 0.0
O384 O 0.50092 0.67422 0.19943 0.0
O385 O 0.38415 0.49822 0.15028 0.0
O386 O 0.38093 0.61004 0.12461 0.0
O387 O 0.47181 0.69265 0.32001 0.0
O388 O 0.33254 0.66539 0.26321 0.0
O389 O 0.37784 0.49438 0.26389 0.0
O390 O 0.42324 0.57091 0.32401 0.0
O391 O 0.6463 0.66223 0.39685 0.0
O392 O 0.54515 0.57018 0.40806 0.0
O393 O 0.55151 0.56589 0.21155 0.0
O394 O 0.60227 0.50536 0.2811 0.0
C395 C 0.57721 0.70645 0.22507 0.0
C396 C 0.37776 0.70442 0.29876 0.0
C397 C 0.30142 0.52508 0.0716 0.0
C398 C 0.24997 0.53536 0.98348 0.0
C399 C 0.13784 0.47047 0.04263 0.0
C400 C 0.20924 0.48489 0.08141 0.0
C401 C 0.15784 0.49574 0.99377 0.0
C402 C 0.32159 0.54989 1.02236 0.0
C403 C 0.37731 0.54269 0.11169 0.0
C404 C 0.93889 0.60097 0.19162 0.0
C405 C 0.96059 0.67414 0.1818 0.0
H406 H 0.92302 0.45746 0.20984 0.0
C407 C 0.39136 0.50712 0.31164 0.0
C408 C 0.58915 0.50743 0.23229 0.0
C409 C 0.66975 0.59303 0.47223 0.0
C410 C 0.70904 0.58098 0.56227 0.0
C411 C 0.82437 0.52705 0.50152 0.0
C412 C 0.76146 0.55412 0.46245 0.0
C413 C 0.79837 0.54028 0.55119 0.0
C414 C 0.64369 0.60684 0.52267 0.0
C415 C 0.60235 0.61897 0.42986 0.0
H416 H 0.06719 0.43928 0.05045 0.0
H417 H 0.19238 0.46432 0.11871 0.0
H418 H 0.10216 0.48384 0.96396 0.0
H419 H 0.393 0.58037 1.01424 0.0
H420 H 0.89464 0.49686 0.49319 0.0
H421 H 0.78554 0.54531 0.42464 0.0
H422 H 0.84981 0.52054 0.58108 0.0
H423 H 0.57471 0.63851 0.531 0.0
loop_
_geom_bond_atom_site_label_1
_geom_bond_atom_site_label_2
_geom_bond_distance
_geom_bond_site_symmetry_2
_ccdc_geom_bond_type
H0 C5 0.929 . S
H1 C10 0.931 . S
H2 C8 0.930 . S
N3 N4 1.234 . S
N3 C7 1.453 . S
N4 N3 1.234 . S
C5 H0 0.929 . S
C5 C6 1.373 . S
C5 C7 1.368 . S
C6 C5 1.373 . S
C6 C10 1.397 . S
C7 N3 1.453 . S
C7 C5 1.368 . S
C7 C8 1.373 . S
C8 H2 0.930 . S
C8 C7 1.373 . S
C8 C9 1.371 . S
C9 C8 1.371 . S
C9 C10 1.383 . S
C10 H1 0.931 . S
C10 C6 1.397 . S
C10 C9 1.383 . S
H11 C16 0.929 . S
H12 C21 0.931 . S
H13 C19 0.930 . S
N14 N15 1.234 . S
N14 C18 1.453 . S
N15 N14 1.234 . S
C16 H11 0.929 . S
C16 C17 1.373 . S
C16 C18 1.368 . S
C17 C16 1.373 . S
C17 C21 1.397 . S
C18 N14 1.453 . S
C18 C16 1.368 . S
C18 C19 1.373 . S
C19 H13 0.930 . S
C19 C18 1.373 . S
C19 C20 1.371 . S
C20 C19 1.371 . S
C20 C21 1.383 . S
C21 H12 0.931 . S
C21 C17 1.397 . S
C21 C20 1.383 . S
H22 C27 0.929 . S
H23 C32 0.931 . S
H24 C30 0.930 . S
N25 N26 1.234 . S
N25 C29 1.453 . S
N26 N25 1.234 . S
C27 H22 0.929 . S
C27 C28 1.373 . S
C27 C29 1.368 . S
C28 C27 1.373 . S
C28 C32 1.397 . S
C29 N25 1.453 . S
C29 C27 1.368 . S
C29 C30 1.373 . S
C30 H24 0.930 . S
C30 C29 1.373 . S
C30 C31 1.371 . S
C31 C30 1.371 . S
C31 C32 1.383 . S
C32 H23 0.931 . S
C32 C28 1.397 . S
C32 C31 1.383 . S
H33 C38 0.929 . S
H34 C43 0.931 . S
H35 C41 0.930 . S
N36 N37 1.234 . S
N36 C40 1.453 . S
N37 N36 1.234 . S
C38 H33 0.929 . S
C38 C39 1.373 . S
C38 C40 1.368 . S
C39 C38 1.373 . S
C39 C43 1.397 . S
C40 N36 1.453 . S
C40 C38 1.368 . S
C40 C41 1.373 . S
C41 H35 0.930 . S
C41 C40 1.373 . S
C41 C42 1.371 . S
C42 C41 1.371 . S
C42 C43 1.383 . S
C43 H34 0.931 . S
C43 C39 1.397 . S
C43 C42 1.383 . S
H44 C49 0.929 . S
H45 C54 0.931 . S
H46 C52 0.930 . S
N47 N48 1.234 . S
N47 C51 1.453 . S
N48 N47 1.234 . S
C49 H44 0.929 . S
C49 C50 1.373 . S
C49 C51 1.368 . S
C50 C49 1.373 . S
C50 C54 1.397 . S
C51 N47 1.453 . S
C51 C49 1.368 . S
C51 C52 1.373 . S
C52 H46 0.930 . S
C52 C51 1.373 . S
C52 C53 1.371 . S
C53 C52 1.371 . S
C53 C54 1.383 . S
C54 H45 0.931 . S
C54 C50 1.397 . S
C54 C53 1.383 . S
H55 C60 0.929 . S
H56 C65 0.931 . S
H57 C63 0.930 . S
N58 N59 1.234 . S
N58 C62 1.453 . S
N59 N58 1.234 . S
C60 H55 0.929 . S
C60 C61 1.373 . S
C60 C62 1.368 . S
C61 C60 1.373 . S
C61 C65 1.397 . S
C62 N58 1.453 . S
C62 C60 1.368 . S
C62 C63 1.373 . S
C63 H57 0.930 . S
C63 C62 1.373 . S
C63 C64 1.371 . S
C64 C63 1.371 . S
C64 C65 1.383 . S
C65 H56 0.931 . S
C65 C61 1.397 . S
C65 C64 1.383 . S
H66 C71 0.929 . S
H67 C76 0.931 . S
H68 C74 0.930 . S
N69 N70 1.234 . S
N69 C73 1.453 . S
N70 N69 1.234 . S
C71 H66 0.929 . S
C71 C72 1.373 . S
C71 C73 1.368 . S
C72 C71 1.373 . S
C72 C76 1.397 . S
C73 N69 1.453 . S
C73 C71 1.368 . S
C73 C74 1.373 . S
C74 H68 0.930 . S
C74 C73 1.373 . S
C74 C75 1.371 . S
C75 C74 1.371 . S
C75 C76 1.383 . S
C76 H67 0.931 . S
C76 C72 1.397 . S
C76 C75 1.383 . S
H77 C82 0.929 . S
H78 C87 0.931 . S
H79 C85 0.930 . S
N80 N81 1.234 . S
N80 C84 1.453 . S
N81 N80 1.234 . S
C82 H77 0.929 . S
C82 C83 1.373 . S
C82 C84 1.368 . S
C83 C82 1.373 . S
C83 C87 1.397 . S
C84 N80 1.453 . S
C84 C82 1.368 . S
C84 C85 1.373 . S
C85 H79 0.930 . S
C85 C84 1.373 . S
C85 C86 1.371 . S
C86 C85 1.371 . S
C86 C87 1.383 . S
C87 H78 0.931 . S
C87 C83 1.397 . S
C87 C86 1.383 . S
C88 C90 1.422 1_545 S
C88 C92 1.415 . S
C88 N94 1.369 . S
C89 C90 1.421 . S
C89 C91 1.417 . S
C89 C101 1.422 . S
C90 C88 1.422 1_565 S
C90 C89 1.421 . S
C90 N100 1.359 . S
C91 C89 1.417 . S
C91 C93 1.329 . S
C91 H110 0.930 . S
C92 C88 1.415 . S
C92 C93 1.437 1_545 S
C92 C96 1.413 . S
C93 C91 1.329 . S
C93 C92 1.437 1_565 S
C93 H115 0.929 . S
N94 C88 1.369 . S
N94 C95 1.338 . S
N94 Gd99 2.622 . S
C95 N94 1.338 . S
C95 C97 1.378 . S
C95 H107 0.929 . S
C96 C92 1.413 . S
C96 C97 1.348 . S
C96 H112 0.931 . S
C97 C95 1.378 . S
C97 C96 1.348 . S
C97 H113 0.930 . S
Gd98 N118 2.622 . S
Gd98 N125 2.570 . S
Gd98 O132 2.353 1_455 S
Gd98 O133 2.468 . S
Gd98 O134 2.427 . S
Gd98 O136 2.388 1_545 S
Gd98 O137 2.386 . S
Gd98 O141 2.309 . S
Gd98 C151 2.805 . S
Gd99 N94 2.622 . S
Gd99 N100 2.570 1_545 S
Gd99 O131 2.386 . S
Gd99 O135 2.307 1_655 S
Gd99 O138 2.353 1_655 S
Gd99 O139 2.468 . S
Gd99 O140 2.427 . S
Gd99 O142 2.388 . S
Gd99 C163 2.805 . S
N100 C90 1.359 . S
N100 Gd99 2.570 1_565 S
N100 C102 1.343 . S
C101 C89 1.422 . S
C101 C103 1.321 . S
C101 H109 0.931 . S
C102 N100 1.343 . S
C102 C103 1.390 . S
C102 H104 0.931 . S
C103 C101 1.321 . S
C103 C102 1.390 . S
C103 H105 0.930 . S
H104 C102 0.931 . S
H105 C103 0.930 . S
H106 C129 0.931 . S
H107 C95 0.929 . S
H108 C130 0.930 . S
H109 C101 0.931 . S
H110 C91 0.930 . S
H111 C120 0.929 1_565 S
H112 C96 0.931 . S
H113 C97 0.930 . S
H114 C152 0.930 . S
H115 C93 0.929 . S
H116 C121 0.931 . S
H117 C122 0.930 1_565 S
N118 Gd98 2.622 . S
N118 C119 1.369 . S
N118 C120 1.338 . S
C119 N118 1.369 . S
C119 C123 1.415 . S
C119 C126 1.422 . S
C120 H111 0.929 1_545 S
C120 N118 1.338 . S
C120 C122 1.378 . S
C121 H116 0.931 . S
C121 C122 1.348 . S
C121 C123 1.413 . S
C122 H117 0.930 1_545 S
C122 C120 1.378 . S
C122 C121 1.348 . S
C123 C119 1.415 . S
C123 C121 1.413 . S
C123 C153 1.437 . S
H124 C153 0.929 . S
N125 Gd98 2.570 . S
N125 C126 1.359 . S
N125 C129 1.343 . S
C126 C119 1.422 . S
C126 N125 1.359 . S
C126 C128 1.421 . S
C127 C128 1.422 . S
C127 C130 1.321 . S
C127 H154 0.931 . S
C128 C126 1.421 . S
C128 C127 1.422 . S
C128 C152 1.417 . S
C129 H106 0.931 . S
C129 N125 1.343 . S
C129 C130 1.390 . S
C130 H108 0.930 . S
C130 C127 1.321 . S
C130 C129 1.390 . S
O131 Gd99 2.386 . S
O131 C143 1.265 1_545 S
O132 Gd98 2.353 1_655 S
O132 C143 1.242 1_545 S
O133 Gd98 2.468 . S
O133 C151 1.263 . S
O134 Gd98 2.427 . S
O134 C151 1.252 . S
O135 Gd99 2.307 1_455 S
O135 C144 1.261 1_545 S
O136 Gd98 2.388 1_565 S
O136 C144 1.252 . S
O137 Gd98 2.386 . S
O137 C155 1.265 . S
O138 Gd99 2.353 1_455 S
O138 C155 1.242 . S
O139 Gd99 2.468 . S
O139 C163 1.263 . S
O140 Gd99 2.427 . S
O140 C163 1.252 . S
O141 Gd98 2.309 . S
O141 C156 1.259 1_455 S
O142 Gd99 2.388 . S
O142 C156 1.252 . S
C143 O131 1.265 1_565 S
C143 O132 1.242 1_565 S
C144 O135 1.261 1_565 S
C144 O136 1.252 . S
C145 C148 1.394 1_545 S
C145 C150 1.370 . S
C145 C151 1.500 . S
C146 C149 1.383 . S
C146 C150 1.395 1_556 S
C147 C148 1.396 . S
C147 C149 1.365 1_564 S
C147 H164 0.929 1_554 S
C148 C145 1.394 1_565 S
C148 C147 1.396 . S
C148 H165 0.930 . S
C149 C146 1.383 . S
C149 C147 1.365 1_546 S
C149 H166 0.931 1_545 S
C150 C145 1.370 . S
C150 C146 1.395 1_554 S
C150 H167 0.930 . S
C151 Gd98 2.805 . S
C151 O133 1.263 . S
C151 O134 1.252 . S
C151 C145 1.500 . S
C152 H114 0.930 . S
C152 C128 1.417 . S
C152 C153 1.329 . S
C153 C123 1.437 . S
C153 H124 0.929 . S
C153 C152 1.329 . S
H154 C127 0.931 . S
C155 O137 1.265 . S
C155 O138 1.242 . S
C156 O141 1.259 1_655 S
C156 O142 1.252 . S
C157 C160 1.394 . S
C157 C162 1.370 . S
C157 C163 1.500 . S
C158 C161 1.383 . S
C158 C162 1.395 . S
C159 C160 1.396 . S
C159 C161 1.365 . S
C159 H168 0.929 . S
C160 C157 1.394 . S
C160 C159 1.396 . S
C160 H169 0.930 . S
C161 C158 1.383 . S
C161 C159 1.365 . S
C161 H170 0.931 . S
C162 C157 1.370 . S
C162 C158 1.395 . S
C162 H171 0.930 . S
C163 Gd99 2.805 . S
C163 O139 1.263 . S
C163 O140 1.252 . S
C163 C157 1.500 . S
H164 C147 0.929 1_556 S
H165 C148 0.930 . S
H166 C149 0.931 1_565 S
H167 C150 0.930 . S
H168 C159 0.929 . S
H169 C160 0.930 . S
H170 C161 0.931 . S
H171 C162 0.930 . S
C172 C174 1.422 . S
C172 C176 1.415 1_655 S
C172 N178 1.369 . S
C173 C174 1.421 . S
C173 C175 1.417 1_655 S
C173 C185 1.422 . S
C174 C172 1.422 . S
C174 C173 1.421 . S
C174 N184 1.359 . S
C175 C173 1.417 1_455 S
C175 C177 1.329 . S
C175 H194 0.930 . S
C176 C172 1.415 1_455 S
C176 C177 1.437 . S
C176 C180 1.413 . S
C177 C175 1.329 . S
C177 C176 1.437 . S
C177 H199 0.929 . S
N178 C172 1.369 . S
N178 C179 1.338 . S
N178 Gd183 2.622 . S
C179 N178 1.338 . S
C179 C181 1.378 . S
C179 H191 0.929 . S
C180 C176 1.413 . S
C180 C181 1.348 1_455 S
C180 H196 0.931 . S
C181 C179 1.378 . S
C181 C180 1.348 1_655 S
C181 H197 0.930 1_655 S
Gd182 N202 2.622 . S
Gd182 N209 2.570 . S
Gd182 O216 2.353 . S
Gd182 O217 2.468 . S
Gd182 O218 2.427 . S
Gd182 O220 2.388 . S
Gd182 O221 2.386 . S
Gd182 O225 2.307 . S
Gd182 C235 2.805 . S
Gd183 N178 2.622 . S
Gd183 N184 2.570 . S
Gd183 O215 2.386 . S
Gd183 O219 2.307 . S
Gd183 O222 2.353 . S
Gd183 O223 2.468 . S
Gd183 O224 2.427 . S
Gd183 O226 2.388 . S
Gd183 C247 2.805 . S
N184 C174 1.359 . S
N184 Gd183 2.570 . S
N184 C186 1.343 . S
C185 C173 1.422 . S
C185 C187 1.321 . S
C185 H193 0.931 . S
C186 N184 1.343 . S
C186 C187 1.390 . S
C186 H188 0.931 . S
C187 C185 1.321 . S
C187 C186 1.390 . S
C187 H189 0.930 . S
H188 C186 0.931 . S
H189 C187 0.930 . S
H190 C213 0.931 . S
H191 C179 0.929 . S
H192 C214 0.930 . S
H193 C185 0.931 . S
H194 C175 0.930 . S
H195 C204 0.929 . S
H196 C180 0.931 . S
H197 C181 0.930 1_455 S
H198 C236 0.930 1_655 S
H199 C177 0.929 . S
H200 C205 0.931 . S
H201 C206 0.930 . S
N202 Gd182 2.622 . S
N202 C203 1.369 . S
N202 C204 1.338 . S
C203 N202 1.369 . S
C203 C207 1.415 . S
C203 C210 1.422 . S
C204 H195 0.929 . S
C204 N202 1.338 . S
C204 C206 1.378 . S
C205 H200 0.931 . S
C205 C206 1.348 1_655 S
C205 C207 1.413 1_655 S
C206 H201 0.930 . S
C206 C204 1.378 . S
C206 C205 1.348 1_455 S
C207 C203 1.415 . S
C207 C205 1.413 1_455 S
C207 C237 1.437 1_455 S
H208 C237 0.929 . S
N209 Gd182 2.570 . S
N209 C210 1.359 . S
N209 C213 1.343 . S
C210 C203 1.422 . S
C210 N209 1.359 . S
C210 C212 1.421 . S
C211 C212 1.422 . S
C211 C214 1.321 . S
C211 H238 0.931 . S
C212 C210 1.421 . S
C212 C211 1.422 . S
C212 C236 1.417 . S
C213 H190 0.931 . S
C213 N209 1.343 . S
C213 C214 1.390 . S
C214 H192 0.930 . S
C214 C211 1.321 . S
C214 C213 1.390 . S
O215 Gd183 2.386 . S
O215 C227 1.265 . S
O216 Gd182 2.353 . S
O216 C227 1.242 . S
O217 Gd182 2.468 . S
O217 C235 1.263 . S
O218 Gd182 2.427 . S
O218 C235 1.252 . S
O219 Gd183 2.307 . S
O219 C228 1.261 . S
O220 Gd182 2.388 . S
O220 C228 1.252 . S
O221 Gd182 2.386 . S
O221 C239 1.265 . S
O222 Gd183 2.353 . S
O222 C239 1.242 . S
O223 Gd183 2.468 . S
O223 C247 1.263 . S
O224 Gd183 2.427 . S
O224 C247 1.252 . S
O225 Gd182 2.307 . S
O225 C240 1.261 . S
O226 Gd183 2.388 . S
O226 C240 1.252 . S
C227 O215 1.265 . S
C227 O216 1.242 . S
C228 O219 1.261 . S
C228 O220 1.252 . S
C229 C232 1.394 . S
C229 C234 1.370 . S
C229 C235 1.500 . S
C230 C233 1.383 . S
C230 C234 1.395 . S
C231 C232 1.396 . S
C231 C233 1.365 . S
C231 H248 0.929 . S
C232 C229 1.394 . S
C232 C231 1.396 . S
C232 H249 0.930 . S
C233 C230 1.383 . S
C233 C231 1.365 . S
C233 H250 0.931 . S
C234 C229 1.370 . S
C234 C230 1.395 . S
C234 H251 0.930 . S
C235 Gd182 2.805 . S
C235 O217 1.263 . S
C235 O218 1.252 . S
C235 C229 1.500 . S
C236 H198 0.930 1_455 S
C236 C212 1.417 . S
C236 C237 1.329 1_455 S
C237 C207 1.437 1_655 S
C237 H208 0.929 . S
C237 C236 1.329 1_655 S
H238 C211 0.931 . S
C239 O221 1.265 . S
C239 O222 1.242 . S
C240 O225 1.261 . S
C240 O226 1.252 . S
C241 C244 1.394 . S
C241 C246 1.370 . S
C241 C247 1.500 . S
C242 C245 1.383 . S
C242 C246 1.395 1_554 S
C243 C244 1.396 1_554 S
C243 C245 1.365 . S
C243 H252 0.929 . S
C244 C241 1.394 . S
C244 C243 1.396 1_556 S
C244 H253 0.930 . S
C245 C242 1.383 . S
C245 C243 1.365 . S
C245 H254 0.931 . S
C246 C241 1.370 . S
C246 C242 1.395 1_556 S
C246 H255 0.930 . S
C247 Gd183 2.805 . S
C247 O223 1.263 . S
C247 O224 1.252 . S
C247 C241 1.500 . S
H248 C231 0.929 . S
H249 C232 0.930 . S
H250 C233 0.931 . S
H251 C234 0.930 . S
H252 C243 0.929 . S
H253 C244 0.930 . S
H254 C245 0.931 . S
H255 C246 0.930 . S
C256 C258 1.422 . S
C256 C260 1.415 . S
C256 N262 1.369 . S
C257 C258 1.421 . S
C257 C259 1.417 . S
C257 C269 1.422 . S
C258 C256 1.422 . S
C258 C257 1.421 . S
C258 N268 1.359 . S
C259 C257 1.417 . S
C259 C261 1.329 . S
C259 H278 0.930 . S
C260 C256 1.415 . S
C260 C261 1.437 . S
C260 C264 1.413 . S
C261 C259 1.329 . S
C261 C260 1.437 . S
C261 H283 0.929 . S
N262 C256 1.369 . S
N262 C263 1.338 . S
N262 Gd267 2.622 . S
C263 N262 1.338 . S
C263 C265 1.378 . S
C263 H275 0.929 1_565 S
C264 C260 1.413 . S
C264 C265 1.348 . S
C264 H280 0.931 . S
C265 C263 1.378 . S
C265 C264 1.348 . S
C265 H281 0.930 1_565 S
Gd266 N286 2.622 . S
Gd266 N293 2.570 1_565 S
Gd266 O300 2.353 1_455 S
Gd266 O301 2.468 . S
Gd266 O302 2.427 . S
Gd266 O304 2.388 . S
Gd266 O305 2.386 . S
Gd266 O309 2.307 1_455 S
Gd266 C319 2.805 . S
Gd267 N262 2.622 . S
Gd267 N268 2.570 . S
Gd267 O299 2.386 . S
Gd267 O303 2.307 1_655 S
Gd267 O306 2.353 1_655 S
Gd267 O307 2.468 . S
Gd267 O308 2.427 . S
Gd267 O310 2.388 1_565 S
Gd267 C331 2.805 . S
N268 C258 1.359 . S
N268 Gd267 2.570 . S
N268 C270 1.343 . S
C269 C257 1.422 . S
C269 C271 1.321 . S
C269 H277 0.931 . S
C270 N268 1.343 . S
C270 C271 1.390 . S
C270 H272 0.931 . S
C271 C269 1.321 . S
C271 C270 1.390 . S
C271 H273 0.930 . S
H272 C270 0.931 . S
H273 C271 0.930 . S
H274 C297 0.931 . S
H275 C263 0.929 1_545 S
H276 C298 0.930 . S
H277 C269 0.931 . S
H278 C259 0.930 . S
H279 C288 0.929 . S
H280 C264 0.931 . S
H281 C265 0.930 1_545 S
H282 C320 0.930 . S
H283 C261 0.929 . S
H284 C289 0.931 . S
H285 C290 0.930 . S
N286 Gd266 2.622 . S
N286 C287 1.369 . S
N286 C288 1.338 . S
C287 N286 1.369 . S
C287 C291 1.415 . S
C287 C294 1.422 1_565 S
C288 H279 0.929 . S
C288 N286 1.338 . S
C288 C290 1.378 . S
C289 H284 0.931 . S
C289 C290 1.348 . S
C289 C291 1.413 . S
C290 H285 0.930 . S
C290 C288 1.378 . S
C290 C289 1.348 . S
C291 C287 1.415 . S
C291 C289 1.413 . S
C291 C321 1.437 1_565 S
H292 C321 0.929 . S
N293 Gd266 2.570 1_545 S
N293 C294 1.359 . S
N293 C297 1.343 . S
C294 C287 1.422 1_545 S
C294 N293 1.359 . S
C294 C296 1.421 . S
C295 C296 1.422 . S
C295 C298 1.321 . S
C295 H322 0.931 . S
C296 C294 1.421 . S
C296 C295 1.422 . S
C296 C320 1.417 . S
C297 H274 0.931 . S
C297 N293 1.343 . S
C297 C298 1.390 . S
C298 H276 0.930 . S
C298 C295 1.321 . S
C298 C297 1.390 . S
O299 Gd267 2.386 . S
O299 C311 1.265 . S
O300 Gd266 2.353 1_655 S
O300 C311 1.242 . S
O301 Gd266 2.468 . S
O301 C319 1.263 . S
O302 Gd266 2.427 . S
O302 C319 1.252 . S
O303 Gd267 2.307 1_455 S
O303 C312 1.261 . S
O304 Gd266 2.388 . S
O304 C312 1.252 . S
O305 Gd266 2.386 . S
O305 C323 1.265 1_565 S
O306 Gd267 2.353 1_455 S
O306 C323 1.242 1_565 S
O307 Gd267 2.468 . S
O307 C331 1.263 . S
O308 Gd267 2.427 . S
O308 C331 1.252 . S
O309 Gd266 2.307 1_655 S
O309 C324 1.261 1_565 S
O310 Gd267 2.388 1_545 S
O310 C324 1.252 . S
C311 O299 1.265 . S
C311 O300 1.242 . S
C312 O303 1.261 . S
C312 O304 1.252 . S
C313 C316 1.394 . S
C313 C318 1.370 . S
C313 C319 1.500 . S
C314 C317 1.383 . S
C314 C318 1.395 . S
C315 C316 1.396 . S
C315 C317 1.365 . S
C315 H332 0.929 . S
C316 C313 1.394 . S
C316 C315 1.396 . S
C316 H333 0.930 . S
C317 C314 1.383 . S
C317 C315 1.365 . S
C317 H334 0.931 . S
C318 C313 1.370 . S
C318 C314 1.395 . S
C318 H335 0.930 . S
C319 Gd266 2.805 . S
C319 O301 1.263 . S
C319 O302 1.252 . S
C319 C313 1.500 . S
C320 H282 0.930 . S
C320 C296 1.417 . S
C320 C321 1.329 . S
C321 C291 1.437 1_545 S
C321 H292 0.929 . S
C321 C320 1.329 . S
H322 C295 0.931 . S
C323 O305 1.265 1_545 S
C323 O306 1.242 1_545 S
C324 O309 1.261 1_545 S
C324 O310 1.252 . S
C325 C328 1.394 1_565 S
C325 C330 1.370 . S
C325 C331 1.500 . S
C326 C329 1.383 . S
C326 C330 1.395 1_554 S
C327 C328 1.396 1_554 S
C327 C329 1.365 1_545 S
C327 H336 0.929 . S
C328 C325 1.394 1_545 S
C328 C327 1.396 1_556 S
C328 H337 0.930 . S
C329 C326 1.383 . S
C329 C327 1.365 1_565 S
C329 H338 0.931 1_565 S
C330 C325 1.370 . S
C330 C326 1.395 1_556 S
C330 H339 0.930 . S
C331 Gd267 2.805 . S
C331 O307 1.263 . S
C331 O308 1.252 . S
C331 C325 1.500 . S
H332 C315 0.929 . S
H333 C316 0.930 . S
H334 C317 0.931 . S
H335 C318 0.930 . S
H336 C327 0.929 . S
H337 C328 0.930 . S
H338 C329 0.931 1_545 S
H339 C330 0.930 . S
C340 C342 1.422 . S
C340 C344 1.415 . S
C340 N346 1.369 . S
C341 C342 1.421 . S
C341 C343 1.417 . S
C341 C353 1.422 . S
C342 C340 1.422 . S
C342 C341 1.421 . S
C342 N352 1.359 . S
C343 C341 1.417 . S
C343 C345 1.329 1_655 S
C343 H362 0.930 1_655 S
C344 C340 1.415 . S
C344 C345 1.437 1_655 S
C344 C348 1.413 1_655 S
C345 C343 1.329 1_455 S
C345 C344 1.437 1_455 S
C345 H367 0.929 . S
N346 C340 1.369 . S
N346 C347 1.338 . S
N346 Gd351 2.622 . S
C347 N346 1.338 . S
C347 C349 1.378 . S
C347 H359 0.929 . S
C348 C344 1.413 1_455 S
C348 C349 1.348 1_455 S
C348 H364 0.931 . S
C349 C347 1.378 . S
C349 C348 1.348 1_655 S
C349 H365 0.930 1_655 S
Gd350 N370 2.622 . S
Gd350 N377 2.570 . S
Gd350 O384 2.353 . S
Gd350 O385 2.468 . S
Gd350 O386 2.427 . S
Gd350 O388 2.388 . S
Gd350 O389 2.386 . S
Gd350 O393 2.307 . S
Gd350 C403 2.805 . S
Gd351 N346 2.622 . S
Gd351 N352 2.570 . S
Gd351 O383 2.386 . S
Gd351 O387 2.307 . S
Gd351 O390 2.353 . S
Gd351 O391 2.468 . S
Gd351 O392 2.427 . S
Gd351 O394 2.388 . S
Gd351 C415 2.805 . S
N352 C342 1.359 . S
N352 Gd351 2.570 . S
N352 C354 1.343 . S
C353 C341 1.422 . S
C353 C355 1.321 . S
C353 H361 0.931 . S
C354 N352 1.343 . S
C354 C355 1.390 . S
C354 H356 0.931 . S
C355 C353 1.321 . S
C355 C354 1.390 . S
C355 H357 0.930 . S
H356 C354 0.931 . S
H357 C355 0.930 . S
H358 C381 0.931 . S
H359 C347 0.929 . S
H360 C382 0.930 . S
H361 C353 0.931 . S
H362 C343 0.930 1_455 S
H363 C372 0.929 . S
H364 C348 0.931 . S
H365 C349 0.930 1_455 S
H366 C404 0.934 . S
H367 C345 0.929 . S
H368 C373 0.931 . S
H369 C374 0.930 1_655 S
N370 Gd350 2.622 . S
N370 C371 1.369 . S
N370 C372 1.338 . S
C371 N370 1.369 . S
C371 C375 1.415 . S
C371 C378 1.422 . S
C372 H363 0.929 . S
C372 N370 1.338 . S
C372 C374 1.378 . S
C373 H368 0.931 . S
C373 C374 1.348 1_655 S
C373 C375 1.413 1_655 S
C374 H369 0.930 1_455 S
C374 C372 1.378 . S
C374 C373 1.348 1_455 S
C375 C371 1.415 . S
C375 C373 1.413 1_455 S
C375 C405 1.437 1_455 S
H376 C405 0.929 . S
N377 Gd350 2.570 . S
N377 C378 1.359 . S
N377 C381 1.343 . S
C378 C371 1.422 . S
C378 N377 1.359 . S
C378 C380 1.421 . S
C379 C380 1.422 . S
C379 C382 1.321 . S
C379 H406 0.931 . S
C380 C378 1.421 . S
C380 C379 1.422 . S
C380 C404 1.411 1_455 S
C381 H358 0.931 . S
C381 N377 1.343 . S
C381 C382 1.390 . S
C382 H360 0.930 . S
C382 C379 1.321 . S
C382 C381 1.390 . S
O383 Gd351 2.386 . S
O383 C395 1.265 . S
O384 Gd350 2.353 . S
O384 C395 1.242 . S
O385 Gd350 2.468 . S
O385 C403 1.263 . S
O386 Gd350 2.427 . S
O386 C403 1.252 . S
O387 Gd351 2.307 . S
O387 C396 1.261 . S
O388 Gd350 2.388 . S
O388 C396 1.252 . S
O389 Gd350 2.386 . S
O389 C407 1.265 . S
O390 Gd351 2.353 . S
O390 C407 1.242 . S
O391 Gd351 2.468 . S
O391 C415 1.263 . S
O392 Gd351 2.427 . S
O392 C415 1.252 . S
O393 Gd350 2.307 . S
O393 C408 1.261 . S
O394 Gd351 2.388 . S
O394 C408 1.252 . S
C395 O383 1.265 . S
C395 O384 1.242 . S
C396 O387 1.261 . S
C396 O388 1.252 . S
C397 C400 1.394 . S
C397 C402 1.370 . S
C397 C403 1.500 . S
C398 C401 1.383 . S
C398 C402 1.395 1_556 S
C399 C400 1.396 1_556 S
C399 C401 1.365 . S
C399 H416 0.929 . S
C400 C397 1.394 . S
C400 C399 1.396 1_554 S
C400 H417 0.930 . S
C401 C398 1.383 . S
C401 C399 1.365 . S
C401 H418 0.931 . S
C402 C397 1.370 . S
C402 C398 1.395 1_554 S
C402 H419 0.930 . S
C403 Gd350 2.805 . S
C403 O385 1.263 . S
C403 O386 1.252 . S
C403 C397 1.500 . S
C404 H366 0.934 . S
C404 C380 1.411 1_655 S
C404 C405 1.332 . S
C405 C375 1.437 1_655 S
C405 H376 0.929 . S
C405 C404 1.332 . S
H406 C379 0.931 . S
C407 O389 1.265 . S
C407 O390 1.242 . S
C408 O393 1.261 . S
C408 O394 1.252 . S
C409 C412 1.394 . S
C409 C414 1.370 . S
C409 C415 1.500 . S
C410 C413 1.383 . S
C410 C414 1.395 . S
C411 C412 1.396 . S
C411 C413 1.365 . S
C411 H420 0.929 . S
C412 C409 1.394 . S
C412 C411 1.396 . S
C412 H421 0.930 . S
C413 C410 1.383 . S
C413 C411 1.365 . S
C413 H422 0.931 . S
C414 C409 1.370 . S
C414 C410 1.395 . S
C414 H423 0.930 . S
C415 Gd351 2.805 . S
C415 O391 1.263 . S
C415 O392 1.252 . S
C415 C409 1.500 . S
H416 C399 0.929 . S
H417 C400 0.930 . S
H418 C401 0.931 . S
H419 C402 0.930 . S
H420 C411 0.929 . S
H421 C412 0.930 . S
H422 C413 0.931 . S
H423 C414 0.930 . S
C75 C144 1.866 . S
C228 C83 1.884 . S
C227 C53 1.803 . S
C61 C143 1.802 . S
C324 C31 1.888 . S
C408 C42 1.919 . S
C9 C407 1.819 . S
C20 C323 1.873 . S
C146 C17 1.470 . S
C230 C6 1.560 . S
C242 C39 1.252 . S
C158 C28 1.275 . S
C326 C64 1.614 . S
C50 C410 1.611 . S
C398 C86 1.320 . S
C72 C314 1.348 . S
C155 N4 1.527 . S
C239 N15 1.575 . S
N26 C240 1.378 . S
C156 N37 1.434 . S
C311 N48 1.577 . S
N59 C395 1.588 . S
N70 C396 1.501 . S
N81 C312 1.594 . S
