# Generated by pormake.
# Topology tbo, (3,4)-cn, num edge types: 1
# Building blocks:
#     Node 0, Type 0, BuildingBlock: BELTOD_clean_linker_0, # of connection points: 3
#     Node 1, Type 0, BuildingBlock: BELTOD_clean_linker_0, # of connection points: 3
#     Node 2, Type 0, BuildingBlock: BELTOD_clean_linker_0, # of connection points: 3
#     Node 3, Type 0, BuildingBlock: BELTOD_clean_linker_0, # of connection points: 3
#     Node 4, Type 0, BuildingBlock: BELTOD_clean_linker_0, # of connection points: 3
#     Node 5, Type 0, BuildingBlock: BELTOD_clean_linker_0, # of connection points: 3
#     Node 6, Type 0, BuildingBlock: BELTOD_clean_linker_0, # of connection points: 3
#     Node 7, Type 0, BuildingBlock: BELTOD_clean_linker_0, # of connection points: 3
#     Node 8, Type 0, BuildingBlock: BELTOD_clean_linker_0, # of connection points: 3
#     Node 9, Type 0, BuildingBlock: BELTOD_clean_linker_0, # of connection points: 3
#     Node 10, Type 0, BuildingBlock: BELTOD_clean_linker_0, # of connection points: 3
#     Node 11, Type 0, BuildingBlock: BELTOD_clean_linker_0, # of connection points: 3
#     Node 12, Type 0, BuildingBlock: BELTOD_clean_linker_0, # of connection points: 3
#     Node 13, Type 0, BuildingBlock: BELTOD_clean_linker_0, # of connection points: 3
#     Node 14, Type 0, BuildingBlock: BELTOD_clean_linker_0, # of connection points: 3
#     Node 15, Type 0, BuildingBlock: BELTOD_clean_linker_0, # of connection points: 3
#     Node 16, Type 0, BuildingBlock: BELTOD_clean_linker_0, # of connection points: 3
#     Node 17, Type 0, BuildingBlock: BELTOD_clean_linker_0, # of connection points: 3
#     Node 18, Type 0, BuildingBlock: BELTOD_clean_linker_0, # of connection points: 3
#     Node 19, Type 0, BuildingBlock: BELTOD_clean_linker_0, # of connection points: 3
#     Node 20, Type 0, BuildingBlock: BELTOD_clean_linker_0, # of connection points: 3
#     Node 21, Type 0, BuildingBlock: BELTOD_clean_linker_0, # of connection points: 3
#     Node 22, Type 0, BuildingBlock: BELTOD_clean_linker_0, # of connection points: 3
#     Node 23, Type 0, BuildingBlock: BELTOD_clean_linker_0, # of connection points: 3
#     Node 24, Type 0, BuildingBlock: BELTOD_clean_linker_0, # of connection points: 3
#     Node 25, Type 0, BuildingBlock: BELTOD_clean_linker_0, # of connection points: 3
#     Node 26, Type 0, BuildingBlock: BELTOD_clean_linker_0, # of connection points: 3
#     Node 27, Type 0, BuildingBlock: BELTOD_clean_linker_0, # of connection points: 3
#     Node 28, Type 0, BuildingBlock: BELTOD_clean_linker_0, # of connection points: 3
#     Node 29, Type 0, BuildingBlock: BELTOD_clean_linker_0, # of connection points: 3
#     Node 30, Type 0, BuildingBlock: BELTOD_clean_linker_0, # of connection points: 3
#     Node 31, Type 0, BuildingBlock: BELTOD_clean_linker_0, # of connection points: 3
#     Node 32, Type 1, BuildingBlock: ESEHIV_clean_sbu_0, # of connection points: 4
#     Node 33, Type 1, BuildingBlock: ESEHIV_clean_sbu_0, # of connection points: 4
#     Node 34, Type 1, BuildingBlock: ESEHIV_clean_sbu_0, # of connection points: 4
#     Node 35, Type 1, BuildingBlock: ESEHIV_clean_sbu_0, # of connection points: 4
#     Node 36, Type 1, BuildingBlock: ESEHIV_clean_sbu_0, # of connection points: 4
#     Node 37, Type 1, BuildingBlock: ESEHIV_clean_sbu_0, # of connection points: 4
#     Node 38, Type 1, BuildingBlock: ESEHIV_clean_sbu_0, # of connection points: 4
#     Node 39, Type 1, BuildingBlock: ESEHIV_clean_sbu_0, # of connection points: 4
#     Node 40, Type 1, BuildingBlock: ESEHIV_clean_sbu_0, # of connection points: 4
#     Node 41, Type 1, BuildingBlock: ESEHIV_clean_sbu_0, # of connection points: 4
#     Node 42, Type 1, BuildingBlock: ESEHIV_clean_sbu_0, # of connection points: 4
#     Node 43, Type 1, BuildingBlock: ESEHIV_clean_sbu_0, # of connection points: 4
#     Node 44, Type 1, BuildingBlock: ESEHIV_clean_sbu_0, # of connection points: 4
#     Node 45, Type 1, BuildingBlock: ESEHIV_clean_sbu_0, # of connection points: 4
#     Node 46, Type 1, BuildingBlock: ESEHIV_clean_sbu_0, # of connection points: 4
#     Node 47, Type 1, BuildingBlock: ESEHIV_clean_sbu_0, # of connection points: 4
#     Node 48, Type 1, BuildingBlock: ESEHIV_clean_sbu_0, # of connection points: 4
#     Node 49, Type 1, BuildingBlock: ESEHIV_clean_sbu_0, # of connection points: 4
#     Node 50, Type 1, BuildingBlock: ESEHIV_clean_sbu_0, # of connection points: 4
#     Node 51, Type 1, BuildingBlock: ESEHIV_clean_sbu_0, # of connection points: 4
#     Node 52, Type 1, BuildingBlock: ESEHIV_clean_sbu_0, # of connection points: 4
#     Node 53, Type 1, BuildingBlock: ESEHIV_clean_sbu_0, # of connection points: 4
#     Node 54, Type 1, BuildingBlock: ESEHIV_clean_sbu_0, # of connection points: 4
#     Node 55, Type 1, BuildingBlock: ESEHIV_clean_sbu_0, # of connection points: 4
#     Edge 56, Type (0, 1), None
#     Edge 57, Type (0, 1), None
#     Edge 58, Type (0, 1), None
#     Edge 59, Type (0, 1), None
#     Edge 60, Type (0, 1), None
#     Edge 61, Type (0, 1), None
#     Edge 62, Type (0, 1), None
#     Edge 63, Type (0, 1), None
#     Edge 64, Type (0, 1), None
#     Edge 65, Type (0, 1), None
#     Edge 66, Type (0, 1), None
#     Edge 67, Type (0, 1), None
#     Edge 68, Type (0, 1), None
#     Edge 69, Type (0, 1), None
#     Edge 70, Type (0, 1), None
#     Edge 71, Type (0, 1), None
#     Edge 72, Type (0, 1), None
#     Edge 73, Type (0, 1), None
#     Edge 74, Type (0, 1), None
#     Edge 75, Type (0, 1), None
#     Edge 76, Type (0, 1), None
#     Edge 77, Type (0, 1), None
#     Edge 78, Type (0, 1), None
#     Edge 79, Type (0, 1), None
#     Edge 80, Type (0, 1), None
#     Edge 81, Type (0, 1), None
#     Edge 82, Type (0, 1), None
#     Edge 83, Type (0, 1), None
#     Edge 84, Type (0, 1), None
#     Edge 85, Type (0, 1), None
#     Edge 86, Type (0, 1), None
#     Edge 87, Type (0, 1), None
#     Edge 88, Type (0, 1), None
#     Edge 89, Type (0, 1), None
#     Edge 90, Type (0, 1), None
#     Edge 91, Type (0, 1), None
#     Edge 92, Type (0, 1), None
#     Edge 93, Type (0, 1), None
#     Edge 94, Type (0, 1), None
#     Edge 95, Type (0, 1), None
#     Edge 96, Type (0, 1), None
#     Edge 97, Type (0, 1), None
#     Edge 98, Type (0, 1), None
#     Edge 99, Type (0, 1), None
#     Edge 100, Type (0, 1), None
#     Edge 101, Type (0, 1), None
#     Edge 102, Type (0, 1), None
#     Edge 103, Type (0, 1), None
#     Edge 104, Type (0, 1), None
#     Edge 105, Type (0, 1), None
#     Edge 106, Type (0, 1), None
#     Edge 107, Type (0, 1), None
#     Edge 108, Type (0, 1), None
#     Edge 109, Type (0, 1), None
#     Edge 110, Type (0, 1), None
#     Edge 111, Type (0, 1), None
#     Edge 112, Type (0, 1), None
#     Edge 113, Type (0, 1), None
#     Edge 114, Type (0, 1), None
#     Edge 115, Type (0, 1), None
#     Edge 116, Type (0, 1), None
#     Edge 117, Type (0, 1), None
#     Edge 118, Type (0, 1), None
#     Edge 119, Type (0, 1), None
#     Edge 120, Type (0, 1), None
#     Edge 121, Type (0, 1), None
#     Edge 122, Type (0, 1), None
#     Edge 123, Type (0, 1), None
#     Edge 124, Type (0, 1), None
#     Edge 125, Type (0, 1), None
#     Edge 126, Type (0, 1), None
#     Edge 127, Type (0, 1), None
#     Edge 128, Type (0, 1), None
#     Edge 129, Type (0, 1), None
#     Edge 130, Type (0, 1), None
#     Edge 131, Type (0, 1), None
#     Edge 132, Type (0, 1), None
#     Edge 133, Type (0, 1), None
#     Edge 134, Type (0, 1), None
#     Edge 135, Type (0, 1), None
#     Edge 136, Type (0, 1), None
#     Edge 137, Type (0, 1), None
#     Edge 138, Type (0, 1), None
#     Edge 139, Type (0, 1), None
#     Edge 140, Type (0, 1), None
#     Edge 141, Type (0, 1), None
#     Edge 142, Type (0, 1), None
#     Edge 143, Type (0, 1), None
#     Edge 144, Type (0, 1), None
#     Edge 145, Type (0, 1), None
#     Edge 146, Type (0, 1), None
#     Edge 147, Type (0, 1), None
#     Edge 148, Type (0, 1), None
#     Edge 149, Type (0, 1), None
#     Edge 150, Type (0, 1), None
#     Edge 151, Type (0, 1), None
# Relax obj value: 0.008
# Max RMSD: 0.137
# Mean RMSD: 0.056
data_MOF--net-tbo--node1-ESEHIV_clean_sbu_0--node2-BELTOD_clean_linker_0--edge1-none
_symmetry_space_group_name_H-M    P1
_symmetry_Int_Tables_number       1
_symmetry_cell_setting            triclinic
loop_
_symmetry_equiv_pos_as_xyz
'x, y, z'
_cell_length_a     43.405002
_cell_length_b     43.812531
_cell_length_c     42.645067
_cell_angle_alpha  90.114371
_cell_angle_beta   94.087433
_cell_angle_gamma 91.407107
loop_
_atom_site_label
_atom_site_type_symbol
_atom_site_fract_x
_atom_site_fract_y
_atom_site_fract_z
_atom_type_partial_charge
P0 P 0.18908 0.17957 0.24577 0.0
H1 H 0.13824 0.21768 0.22187 0.0
H2 H 0.08923 0.22963 0.24179 0.0
H3 H 0.10335 0.16171 0.31426 0.0
H4 H 0.15284 0.14896 0.29323 0.0
H5 H 0.25273 0.16424 0.24434 0.0
H6 H 0.27887 0.11898 0.22781 0.0
H7 H 0.19176 0.06943 0.21776 0.0
H8 H 0.16497 0.1158 0.23307 0.0
H9 H 0.23411 0.2264 0.22864 0.0
H10 H 0.15938 0.17308 0.18223 0.0
O11 O 0.20974 0.198 0.27474 0.0
H12 H 0.24682 0.24766 0.17815 0.0
H13 H 0.17197 0.19452 0.13142 0.0
C14 C 0.14912 0.18168 0.25536 0.0
C15 C 0.13058 0.20439 0.24131 0.0
C16 C 0.10255 0.21177 0.25326 0.0
C17 C 0.09238 0.1971 0.2801 0.0
C18 C 0.11033 0.17342 0.2935 0.0
C19 C 0.13856 0.16594 0.28136 0.0
C20 C 0.20695 0.14322 0.24087 0.0
C21 C 0.23914 0.1435 0.23937 0.0
C22 C 0.25412 0.11768 0.22976 0.0
C23 C 0.23747 0.09052 0.22249 0.0
C24 C 0.20519 0.08986 0.22432 0.0
C25 C 0.18992 0.11625 0.23313 0.0
C26 C 0.19534 0.19868 0.20926 0.0
C27 C 0.22003 0.2197 0.20766 0.0
C28 C 0.2275 0.23162 0.17873 0.0
C29 C 0.21042 0.22272 0.15083 0.0
C30 C 0.18528 0.20208 0.15257 0.0
C31 C 0.17806 0.18986 0.18154 0.0
P32 P 0.87769 0.17531 0.16284 0.0
H33 H 0.93842 0.20738 0.16345 0.0
H34 H 0.96844 0.23696 0.20468 0.0
H35 H 0.89108 0.23098 0.26287 0.0
H36 H 0.8613 0.20216 0.22182 0.0
H37 H 0.90505 0.12324 0.19497 0.0
H38 H 0.88721 0.08794 0.23433 0.0
H39 H 0.79801 0.13005 0.22707 0.0
H40 H 0.81606 0.16499 0.18708 0.0
H41 H 0.84425 0.23256 0.16774 0.0
H42 H 0.8534 0.16288 0.0977 0.0
O43 O 0.90365 0.15884 0.14167 0.0
H44 H 0.82074 0.26586 0.12763 0.0
H45 H 0.82921 0.19628 0.05723 0.0
C46 C 0.89794 0.20181 0.18996 0.0
C47 C 0.92779 0.21295 0.18487 0.0
C48 C 0.94484 0.23001 0.20831 0.0
C49 C 0.93219 0.23588 0.23709 0.0
C50 C 0.90155 0.22647 0.24106 0.0
C51 C 0.88453 0.20983 0.21763 0.0
C52 C 0.86158 0.14612 0.18727 0.0
C53 C 0.88138 0.12439 0.20129 0.0
C54 C 0.8713 0.10451 0.22431 0.0
C55 C 0.84114 0.10602 0.23413 0.0
C56 C 0.82125 0.12784 0.21988 0.0
C57 C 0.83142 0.14776 0.19678 0.0
C58 C 0.85129 0.1954 0.13572 0.0
C59 C 0.84046 0.22399 0.14394 0.0
C60 C 0.82694 0.24308 0.12088 0.0
C61 C 0.82348 0.23385 0.08917 0.0
C62 C 0.83146 0.20401 0.08145 0.0
C63 C 0.84539 0.18495 0.1046 0.0
P64 P 0.86762 0.92199 0.15909 0.0
H65 H 0.8329 0.97892 0.15372 0.0
H66 H 0.79826 1.00368 0.18869 0.0
H67 H 0.80593 0.92648 0.25125 0.0
H68 H 0.84025 0.90198 0.21644 0.0
H69 H 0.92695 0.94542 0.18742 0.0
H70 H 0.96974 0.92138 0.21765 0.0
H71 H 0.91772 0.83599 0.21559 0.0
H72 H 0.87511 0.86019 0.18517 0.0
H73 H 0.80276 0.91267 0.13646 0.0
H74 H 0.89024 0.87283 0.12053 0.0
O75 O 0.88349 0.94931 0.1378 0.0
H76 H 0.77704 0.87897 0.09714 0.0
H77 H 0.86431 0.83846 0.08084 0.0
C78 C 0.84008 0.93913 0.18318 0.0
C79 C 0.82684 0.96723 0.17484 0.0
C80 C 0.80659 0.98113 0.19447 0.0
C81 C 0.79937 0.96698 0.22261 0.0
C82 C 0.8111 0.93792 0.22966 0.0
C83 C 0.83107 0.92404 0.21002 0.0
C84 C 0.89817 0.90441 0.18331 0.0
C85 C 0.92475 0.92152 0.19351 0.0
C86 C 0.94916 0.90777 0.21102 0.0
C87 C 0.94742 0.87659 0.21878 0.0
C88 C 0.92016 0.85985 0.20948 0.0
C89 C 0.89571 0.87368 0.19212 0.0
C90 C 0.84838 0.8949 0.13198 0.0
C91 C 0.81646 0.89635 0.12487 0.0
C92 C 0.80174 0.87706 0.10214 0.0
C93 C 0.81864 0.85597 0.08585 0.0
C94 C 0.85064 0.85431 0.09315 0.0
C95 C 0.86544 0.87388 0.11585 0.0
P96 P 0.14102 0.87998 0.11752 0.0
H97 H 0.19328 0.89096 0.1636 0.0
H98 H 0.20394 0.92918 0.20471 0.0
H99 H 0.11854 0.97327 0.17608 0.0
H100 H 0.10763 0.9341 0.13541 0.0
H101 H 0.19484 0.91193 0.09425 0.0
H102 H 0.23863 0.8947 0.06634 0.0
H103 H 0.20517 0.80142 0.07359 0.0
H104 H 0.16127 0.81893 0.10059 0.0
H105 H 0.07672 0.85627 0.11485 0.0
H106 H 0.16287 0.83994 0.16821 0.0
O107 O 0.1169 0.89294 0.08864 0.0
H108 H 0.04901 0.82565 0.15246 0.0
H109 H 0.13522 0.81004 0.20607 0.0
C110 C 0.15017 0.91022 0.14576 0.0
C111 C 0.17703 0.90906 0.16589 0.0
C112 C 0.18307 0.93103 0.18947 0.0
C113 C 0.16231 0.95473 0.19359 0.0
C114 C 0.13502 0.95543 0.17373 0.0
C115 C 0.12896 0.93326 0.15015 0.0
C116 C 0.17507 0.8667 0.10008 0.0
C117 C 0.19721 0.88772 0.09013 0.0
C118 C 0.22231 0.8778 0.07417 0.0
C119 C 0.22561 0.8466 0.0675 0.0
C120 C 0.20336 0.82563 0.07781 0.0
C121 C 0.17829 0.8356 0.09368 0.0
C122 C 0.12188 0.85045 0.13883 0.0
C123 C 0.08982 0.84521 0.13397 0.0
C124 C 0.07399 0.82752 0.15531 0.0
C125 C 0.09004 0.81546 0.18202 0.0
C126 C 0.12238 0.81894 0.18549 0.0
C127 C 0.13818 0.83613 0.16397 0.0
P128 P 0.19019 0.82039 0.81804 0.0
H129 H 0.15519 0.80663 0.7583 0.0
H130 H 0.09976 0.80463 0.74243 0.0
H131 H 0.08024 0.82706 0.8377 0.0
H132 H 0.13537 0.82826 0.85327 0.0
H133 H 0.24918 0.84872 0.80312 0.0
H134 H 0.26434 0.90102 0.78956 0.0
H135 H 0.17211 0.93046 0.8036 0.0
H136 H 0.15714 0.87849 0.8171 0.0
H137 H 0.20957 0.76265 0.84822 0.0
H138 H 0.19519 0.85528 0.87695 0.0
O139 O 0.20875 0.79779 0.79453 0.0
H140 H 0.2335 0.75137 0.90092 0.0
H141 H 0.21896 0.84427 0.92913 0.0
C142 C 0.14931 0.81647 0.80725 0.0
C143 C 0.13886 0.81076 0.7758 0.0
C144 C 0.1072 0.81016 0.7666 0.0
C145 C 0.0854 0.81582 0.78866 0.0
C146 C 0.09621 0.82266 0.81993 0.0
C147 C 0.12779 0.82285 0.82912 0.0
C148 C 0.20186 0.85943 0.81041 0.0
C149 C 0.23227 0.86647 0.80336 0.0
C150 C 0.24094 0.89642 0.79578 0.0
C151 C 0.2193 0.91988 0.79513 0.0
C152 C 0.18913 0.91284 0.80323 0.0
C153 C 0.18058 0.883 0.81104 0.0
C154 C 0.20126 0.81007 0.85839 0.0
C155 C 0.21092 0.78037 0.86603 0.0
C156 C 0.22436 0.77382 0.89624 0.0
C157 C 0.22836 0.79697 0.91913 0.0
C158 C 0.21643 0.82596 0.91195 0.0
C159 C 0.20289 0.83238 0.88201 0.0
P160 P 0.27382 0.17957 0.89069 0.0
H161 H 0.31819 0.21659 0.93024 0.0
H162 H 0.32201 0.2273 0.98636 0.0
H163 H 0.25369 0.15601 0.99988 0.0
H164 H 0.25046 0.14502 0.94334 0.0
H165 H 0.3231 0.14061 0.87134 0.0
H166 H 0.3224 0.09297 0.84082 0.0
H167 H 0.22297 0.08765 0.84199 0.0
H168 H 0.22392 0.1349 0.87249 0.0
H169 H 0.23722 0.19266 0.83225 0.0
H170 H 0.23027 0.20949 0.93113 0.0
O171 O 0.3004 0.20026 0.87315 0.0
H172 H 0.19019 0.22096 0.82027 0.0
H173 H 0.18296 0.23659 0.91962 0.0
C174 C 0.28403 0.17996 0.93253 0.0
C175 C 0.30494 0.20236 0.94534 0.0
C176 C 0.30712 0.20849 0.97763 0.0
C177 C 0.28792 0.19272 0.99769 0.0
C178 C 0.26879 0.1686 0.98511 0.0
C179 C 0.26698 0.16219 0.95278 0.0
C180 C 0.2735 0.14166 0.87365 0.0
C181 C 0.3012 0.12885 0.86545 0.0
C182 C 0.30081 0.10156 0.84804 0.0
C183 C 0.27262 0.08666 0.83852 0.0
C184 C 0.24511 0.09868 0.84855 0.0
C185 C 0.24557 0.12578 0.86605 0.0
C186 C 0.23731 0.19841 0.88257 0.0
C187 C 0.22533 0.20202 0.85144 0.0
C188 C 0.1982 0.21823 0.84465 0.0
C189 C 0.18233 0.23129 0.86893 0.0
C190 C 0.1944 0.22731 0.90015 0.0
C191 C 0.22159 0.2113 0.90685 0.0
P192 P 0.93618 0.17605 0.87559 0.0
H193 H 0.8948 0.136 0.90724 0.0
H194 H 0.84925 0.10503 0.88981 0.0
H195 H 0.8598 0.13337 0.79413 0.0
H196 H 0.90574 0.16429 0.81191 0.0
H197 H 0.99259 0.15422 0.84952 0.0
H198 H 0.03516 0.18234 0.82665 0.0
H199 H 0.97936 0.26233 0.81885 0.0
H200 H 0.93689 0.23432 0.84143 0.0
H201 H 0.8782 0.2094 0.8686 0.0
H202 H 0.95975 0.209 0.93251 0.0
O203 O 0.95783 0.15472 0.90047 0.0
H204 H 0.85455 0.24573 0.90261 0.0
H205 H 0.93618 0.24524 0.96674 0.0
C206 C 0.90404 0.15189 0.86077 0.0
C207 C 0.88749 0.13529 0.88242 0.0
C208 C 0.86117 0.11785 0.87249 0.0
C209 C 0.85077 0.11656 0.84057 0.0
C210 C 0.86738 0.13346 0.81885 0.0
C211 C 0.8937 0.15114 0.82891 0.0
C212 C 0.96168 0.19231 0.84777 0.0
C213 C 0.98896 0.1774 0.84157 0.0
C214 C 0.01326 0.19338 0.82823 0.0
C215 C 1.01047 0.22442 0.82077 0.0
C216 C 0.98195 0.23827 0.82399 0.0
C217 C 0.95768 0.2223 0.83713 0.0
C218 C 0.92042 0.20588 0.89847 0.0
C219 C 0.89108 0.21719 0.88991 0.0
C220 C 0.87753 0.23793 0.90942 0.0
C221 C 0.89325 0.24806 0.93767 0.0
C222 C 0.92343 0.238 0.94518 0.0
C223 C 0.93688 0.2171 0.92571 0.0
P224 P 0.88849 0.90814 0.86287 0.0
H225 H 0.92183 0.89597 0.80703 0.0
H226 H 0.95043 0.85208 0.7911 0.0
H227 H 0.9215 0.80178 0.87148 0.0
H228 H 0.89366 0.8461 0.88767 0.0
H229 H 0.89764 0.97397 0.85549 0.0
H230 H 0.87033 1.01118 0.82212 0.0
H231 H 0.82072 0.93814 0.77123 0.0
H232 H 0.84895 0.9006 0.80402 0.0
H233 H 0.8815 0.91263 0.93057 0.0
H234 H 0.82805 0.87757 0.84865 0.0
O235 O 0.91649 0.9257 0.88553 0.0
H236 H 0.84374 0.89039 0.96423 0.0
H237 H 0.79015 0.85534 0.88228 0.0
C238 C 0.90493 0.87413 0.84804 0.0
C239 C 0.92108 0.87527 0.82081 0.0
C240 C 0.93744 0.85 0.81173 0.0
C241 C 0.93823 0.82314 0.82994 0.0
C242 C 0.92159 0.82204 0.85701 0.0
C243 C 0.90531 0.84734 0.86608 0.0
C244 C 0.87502 0.93444 0.83259 0.0
C245 C 0.88198 0.96574 0.83627 0.0
C246 C 0.86673 0.98709 0.81682 0.0
C247 C 0.84404 0.9775 0.79359 0.0
C248 C 0.83886 0.94607 0.78829 0.0
C249 C 0.85448 0.92464 0.80749 0.0
C250 C 0.85753 0.89705 0.88698 0.0
C251 C 0.86132 0.90076 0.9197 0.0
C252 C 0.83979 0.88787 0.93899 0.0
C253 C 0.81402 0.87098 0.92596 0.0
C254 C 0.80951 0.86853 0.89305 0.0
C255 C 0.83121 0.88128 0.87376 0.0
P256 P 0.21158 0.72756 0.71018 0.0
H257 H 0.18489 0.74395 0.7681 0.0
H258 H 0.13377 0.73451 0.78728 0.0
H259 H 0.10131 0.69843 0.69629 0.0
H260 H 0.15249 0.70841 0.67704 0.0
H261 H 0.26493 0.71001 0.7523 0.0
H262 H 0.2775 0.66198 0.77918 0.0
H263 H 0.199 0.61747 0.72904 0.0
H264 H 0.18698 0.66502 0.70161 0.0
H265 H 0.21173 0.78241 0.67081 0.0
H266 H 0.22418 0.68596 0.6584 0.0
O267 O 0.23123 0.75546 0.73014 0.0
H268 H 0.22918 0.79207 0.61807 0.0
H269 H 0.24121 0.69528 0.60606 0.0
C270 C 0.17221 0.72782 0.72083 0.0
C271 C 0.16655 0.73483 0.75198 0.0
C272 C 0.13753 0.72888 0.76314 0.0
C273 C 0.11378 0.7151 0.74356 0.0
C274 C 0.11938 0.70839 0.71218 0.0
C275 C 0.14837 0.71476 0.70091 0.0
C276 C 0.22488 0.69124 0.72504 0.0
C277 C 0.25072 0.68983 0.74664 0.0
C278 C 0.25778 0.66246 0.76216 0.0
C279 C 0.23879 0.63624 0.7567 0.0
C280 C 0.21355 0.63751 0.7343 0.0
C281 C 0.20686 0.66466 0.7184 0.0
C282 C 0.21707 0.73349 0.66885 0.0
C283 C 0.21747 0.76322 0.65647 0.0
C284 C 0.22736 0.76875 0.62624 0.0
C285 C 0.237 0.74453 0.6079 0.0
C286 C 0.23429 0.71457 0.6196 0.0
C287 C 0.22446 0.70912 0.64969 0.0
P288 P 0.88484 0.66016 0.62929 0.0
H289 H 0.90572 0.64625 0.69388 0.0
H290 H 0.93654 0.67426 0.73451 0.0
H291 H 0.94511 0.75072 0.67166 0.0
H292 H 0.9128 0.7228 0.63109 0.0
H293 H 0.86356 0.59877 0.61019 0.0
H294 H 0.82926 0.5612 0.63309 0.0
H295 H 0.81144 0.62564 0.70594 0.0
H296 H 0.84556 0.66341 0.68262 0.0
H297 H 0.90644 0.69596 0.57775 0.0
H298 H 0.81909 0.67516 0.61629 0.0
O299 O 0.9109 0.64024 0.61152 0.0
H300 H 0.88039 0.72851 0.53831 0.0
H301 H 0.79275 0.70695 0.57605 0.0
C302 C 0.90579 0.68269 0.65972 0.0
C303 C 0.91335 0.66934 0.68896 0.0
C304 C 0.93125 0.68541 0.71219 0.0
C305 C 0.94304 0.71491 0.70641 0.0
C306 C 0.93619 0.72812 0.67684 0.0
C307 C 0.91757 0.71215 0.65369 0.0
C308 C 0.85798 0.63342 0.6454 0.0
C309 C 0.8522 0.60487 0.63103 0.0
C310 C 0.83231 0.58352 0.64394 0.0
C311 C 0.81786 0.59042 0.67148 0.0
C312 C 0.82262 0.61961 0.68497 0.0
C313 C 0.84221 0.64109 0.67178 0.0
C314 C 0.86481 0.68328 0.60003 0.0
C315 C 0.88164 0.69826 0.57761 0.0
C316 C 0.86672 0.71676 0.55505 0.0
C317 C 0.83456 0.72009 0.55413 0.0
C318 C 0.81753 0.70448 0.57611 0.0
C319 C 0.83263 0.68645 0.59919 0.0
P320 P 0.92421 0.38863 0.69764 0.0
H321 H 0.92583 0.45445 0.6863 0.0
H322 H 0.89765 0.49668 0.70648 0.0
H323 H 0.84861 0.43388 0.76443 0.0
H324 H 0.87745 0.39146 0.74412 0.0
H325 H 0.97684 0.4189 0.73112 0.0
H326 H 0.01713 0.40137 0.76951 0.0
H327 H 0.97113 0.31298 0.77131 0.0
H328 H 0.93068 0.33072 0.73314 0.0
H329 H 0.85711 0.38329 0.68038 0.0
H330 H 0.93761 0.32923 0.6711 0.0
O331 O 0.94529 0.40253 0.66945 0.0
H332 H 0.82578 0.34627 0.64873 0.0
H333 H 0.90645 0.29226 0.6387 0.0
C334 C 0.90318 0.41967 0.71313 0.0
C335 C 0.90905 0.44965 0.70334 0.0
C336 C 0.89303 0.47392 0.71514 0.0
C337 C 0.87075 0.46875 0.73704 0.0
C338 C 0.86561 0.43871 0.7476 0.0
C339 C 0.88187 0.41441 0.73585 0.0
C340 C 0.95122 0.37588 0.72867 0.0
C341 C 0.97524 0.39583 0.74007 0.0
C342 C 0.99814 0.38589 0.7622 0.0
C343 C 0.99749 0.3557 0.77318 0.0
C344 C 0.97247 0.33623 0.76286 0.0
C345 C 0.94939 0.34631 0.74096 0.0
C346 C 0.89968 0.35874 0.67896 0.0
C347 C 0.86801 0.36313 0.67215 0.0
C348 C 0.8501 0.34203 0.65352 0.0
C349 C 0.8635 0.3162 0.64081 0.0
C350 C 0.89516 0.31157 0.64827 0.0
C351 C 0.91305 0.33272 0.66693 0.0
P352 P 0.19655 0.39933 0.68813 0.0
H353 H 0.20029 0.46568 0.69867 0.0
H354 H 0.24004 0.49968 0.72393 0.0
H355 H 0.2974 0.42213 0.74541 0.0
H356 H 0.25746 0.38827 0.71971 0.0
H357 H 0.20684 0.42785 0.62848 0.0
H358 H 0.23403 0.4121 0.58319 0.0
H359 H 0.2541 0.32599 0.62841 0.0
H360 H 0.22656 0.34191 0.67369 0.0
H361 H 0.20756 0.38426 0.75513 0.0
H362 H 0.15176 0.34871 0.67503 0.0
O363 O 0.16628 0.42005 0.67589 0.0
H364 H 0.18211 0.34905 0.78918 0.0
H365 H 0.12517 0.31333 0.7096 0.0
C366 C 0.22553 0.42428 0.70807 0.0
C367 C 0.22135 0.45593 0.70888 0.0
C368 C 0.24434 0.47546 0.72304 0.0
C369 C 0.27203 0.46373 0.73672 0.0
C370 C 0.27641 0.43201 0.73514 0.0
C371 C 0.25347 0.41255 0.72073 0.0
C372 C 0.21393 0.38568 0.65396 0.0
C373 C 0.21671 0.40539 0.62843 0.0
C374 C 0.23264 0.39653 0.60273 0.0
C375 C 0.24624 0.36778 0.60215 0.0
C376 C 0.24351 0.3481 0.62795 0.0
C377 C 0.22769 0.3571 0.65378 0.0
C378 C 0.18187 0.36909 0.71238 0.0
C379 C 0.19031 0.3684 0.74464 0.0
C380 C 0.17543 0.34819 0.76423 0.0
C381 C 0.15128 0.32839 0.75224 0.0
C382 C 0.1437 0.3281 0.71963 0.0
C383 C 0.15888 0.34835 0.69988 0.0
P384 P 0.17887 0.34521 0.34993 0.0
H385 H 0.14209 0.32706 0.29238 0.0
H386 H 0.08695 0.31577 0.28163 0.0
H387 H 0.06983 0.35035 0.37359 0.0
H388 H 0.12478 0.36149 0.38414 0.0
H389 H 0.23561 0.36521 0.32267 0.0
H390 H 0.26165 0.41495 0.31861 0.0
H391 H 0.18934 0.45714 0.36625 0.0
H392 H 0.16235 0.40728 0.36922 0.0
H393 H 0.20436 0.2881 0.37542 0.0
H394 H 0.17243 0.37263 0.41205 0.0
O395 O 0.19495 0.32142 0.32555 0.0
H396 H 0.22188 0.27258 0.42862 0.0
H397 H 0.1887 0.35692 0.46502 0.0
C398 C 0.13779 0.3442 0.33951 0.0
C399 C 0.12641 0.33279 0.31002 0.0
C400 C 0.09478 0.32653 0.30376 0.0
C401 C 0.07404 0.33167 0.32696 0.0
C402 C 0.08525 0.34575 0.35534 0.0
C403 C 0.11683 0.35203 0.36151 0.0
C404 C 0.19677 0.3825 0.34589 0.0
C405 C 0.22503 0.3851 0.33199 0.0
C406 C 0.24007 0.41347 0.32985 0.0
C407 C 0.22759 0.43972 0.34232 0.0
C408 C 0.19958 0.43711 0.35685 0.0
C409 C 0.18411 0.4087 0.35834 0.0
C410 C 0.18741 0.33177 0.38955 0.0
C411 C 0.20054 0.30312 0.39487 0.0
C412 C 0.21037 0.29413 0.42539 0.0
C413 C 0.20683 0.31352 0.45114 0.0
C414 C 0.19178 0.34131 0.44582 0.0
C415 C 0.18247 0.35044 0.41534 0.0
P416 P 0.22109 0.69724 0.32837 0.0
H417 H 0.23149 0.75231 0.36541 0.0
H418 H 0.25298 0.76304 0.41861 0.0
H419 H 0.26521 0.6665 0.43413 0.0
H420 H 0.24412 0.65604 0.38016 0.0
H421 H 0.25106 0.66626 0.27797 0.0
H422 H 0.24947 0.61378 0.25887 0.0
H423 H 0.18565 0.58907 0.32846 0.0
H424 H 0.18713 0.64207 0.34722 0.0
H425 H 0.18657 0.71656 0.27119 0.0
H426 H 0.17257 0.71394 0.37024 0.0
O427 O 0.24499 0.71704 0.30661 0.0
H428 H 0.13803 0.74315 0.2613 0.0
H429 H 0.12396 0.7407 0.36051 0.0
C430 C 0.23579 0.70338 0.36882 0.0
C431 C 0.23859 0.73339 0.38032 0.0
C432 C 0.25079 0.73948 0.41098 0.0
C433 C 0.2607 0.71567 0.43107 0.0
C434 C 0.258 0.68547 0.4194 0.0
C435 C 0.24568 0.67939 0.38854 0.0
C436 C 0.21965 0.65806 0.31453 0.0
C437 C 0.23659 0.64966 0.28913 0.0
C438 C 0.23544 0.61954 0.27794 0.0
C439 C 0.21747 0.59699 0.29206 0.0
C440 C 0.19976 0.60575 0.31693 0.0
C441 C 0.20077 0.636 0.32794 0.0
C442 C 0.1835 0.71376 0.32147 0.0
C443 C 0.17291 0.72153 0.29079 0.0
C444 C 0.14505 0.73664 0.28516 0.0
C445 C 0.12719 0.74433 0.31017 0.0
C446 C 0.13743 0.73561 0.34083 0.0
C447 C 0.1652 0.72021 0.34639 0.0
P448 P 0.89693 0.67008 0.33808 0.0
H449 H 0.90998 0.60577 0.32851 0.0
H450 H 0.879 0.56304 0.3058 0.0
H451 H 0.80746 0.62516 0.27444 0.0
H452 H 0.83865 0.66796 0.29766 0.0
H453 H 0.91752 0.73203 0.35224 0.0
H454 H 0.95051 0.76805 0.32769 0.0
H455 H 0.96112 0.70416 0.25201 0.0
H456 H 0.92602 0.66766 0.27685 0.0
H457 H 0.88633 0.66852 0.40534 0.0
H458 H 0.85279 0.71882 0.3236 0.0
O459 O 0.92325 0.65362 0.36254 0.0
H460 H 0.86062 0.70345 0.43905 0.0
H461 H 0.82677 0.7538 0.35729 0.0
C462 C 0.87638 0.64007 0.31542 0.0
C463 C 0.88783 0.61037 0.31639 0.0
C464 C 0.87008 0.58585 0.30327 0.0
C465 C 0.84056 0.59051 0.28858 0.0
C466 C 0.83008 0.62067 0.28561 0.0
C467 C 0.84785 0.64523 0.299 0.0
C468 C 0.91819 0.69746 0.31589 0.0
C469 C 0.9258 0.72586 0.3298 0.0
C470 C 0.94522 0.7465 0.31575 0.0
C471 C 0.95862 0.7391 0.28776 0.0
C472 C 0.95097 0.71064 0.27345 0.0
C473 C 0.9309 0.68985 0.28755 0.0
C474 C 0.87166 0.69108 0.36189 0.0
C475 C 0.87292 0.6867 0.39453 0.0
C476 C 0.85824 0.70679 0.41386 0.0
C477 C 0.84208 0.7318 0.40097 0.0
C478 C 0.83957 0.73521 0.36807 0.0
C479 C 0.85402 0.7149 0.34872 0.0
P480 P 0.8545 0.39393 0.41358 0.0
H481 H 0.90181 0.3998 0.36803 0.0
H482 H 0.93686 0.36293 0.34726 0.0
H483 H 0.88769 0.28968 0.39117 0.0
H484 H 0.85266 0.32637 0.41152 0.0
H485 H 0.81243 0.43903 0.43357 0.0
H486 H 0.78077 0.47664 0.40592 0.0
H487 H 0.80495 0.43952 0.3171 0.0
H488 H 0.83734 0.40219 0.34543 0.0
H489 H 0.88201 0.37094 0.47226 0.0
H490 H 0.79038 0.3745 0.42636 0.0
O491 O 0.88172 0.41817 0.42907 0.0
H492 H 0.86211 0.34007 0.51418 0.0
H493 H 0.7701 0.34384 0.46909 0.0
C494 C 0.87464 0.36606 0.39156 0.0
C495 C 0.89809 0.37572 0.37252 0.0
C496 C 0.91821 0.35459 0.36073 0.0
C497 C 0.91549 0.32334 0.36802 0.0
C498 C 0.8909 0.3136 0.38567 0.0
C499 C 0.87061 0.33467 0.39714 0.0
C500 C 0.82694 0.41748 0.39164 0.0
C501 C 0.81044 0.4386 0.4081 0.0
C502 C 0.79222 0.46026 0.39209 0.0
C503 C 0.79008 0.46156 0.359 0.0
C504 C 0.80614 0.4397 0.34251 0.0
C505 C 0.82453 0.41801 0.35869 0.0
C506 C 0.8377 0.37535 0.44637 0.0
C507 C 0.85744 0.3658 0.47165 0.0
C508 C 0.84602 0.34818 0.49563 0.0
C509 C 0.81451 0.33993 0.49507 0.0
C510 C 0.79435 0.3505 0.47042 0.0
C511 C 0.80598 0.36783 0.44595 0.0
P512 P 0.69963 0.21063 0.71753 0.0
H513 H 0.68262 0.2263 0.78088 0.0
H514 H 0.63409 0.22324 0.80672 0.0
H515 H 0.58751 0.18693 0.72156 0.0
H516 H 0.63582 0.19114 0.69522 0.0
H517 H 0.76186 0.18644 0.73057 0.0
H518 H 0.7816 0.13456 0.73185 0.0
H519 H 0.6915 0.09978 0.69724 0.0
H520 H 0.67199 0.15132 0.6964 0.0
H521 H 0.72245 0.2703 0.69653 0.0
H522 H 0.67492 0.19136 0.65408 0.0
O523 O 0.72453 0.23089 0.74146 0.0
H524 H 0.73081 0.29068 0.64455 0.0
H525 H 0.68277 0.2118 0.60195 0.0
C526 C 0.66308 0.20899 0.73591 0.0
C527 C 0.66206 0.21766 0.76759 0.0
C528 C 0.63437 0.21562 0.78257 0.0
C529 C 0.60716 0.20411 0.76651 0.0
C530 C 0.60827 0.19505 0.73488 0.0
C531 C 0.63588 0.19773 0.71968 0.0
C532 C 0.71509 0.1728 0.71443 0.0
C533 C 0.7464 0.16768 0.72299 0.0
C534 C 0.75782 0.13798 0.72334 0.0
C535 C 0.73809 0.1129 0.71492 0.0
C536 C 0.70733 0.11849 0.70414 0.0
C537 C 0.69599 0.14809 0.70389 0.0
C538 C 0.69848 0.22895 0.67937 0.0
C539 C 0.71314 0.2576 0.67606 0.0
C540 C 0.71787 0.26936 0.64618 0.0
C541 C 0.70785 0.25278 0.6189 0.0
C542 C 0.69095 0.22523 0.62235 0.0
C543 C 0.68642 0.21341 0.65228 0.0
P544 P 0.38245 0.17138 0.6418 0.0
H545 H 0.45023 0.17258 0.65503 0.0
H546 H 0.4848 0.20109 0.69347 0.0
H547 H 0.40589 0.24369 0.72936 0.0
H548 H 0.37165 0.21648 0.69007 0.0
H549 H 0.34891 0.11723 0.61697 0.0
H550 H 0.31613 0.07866 0.64022 0.0
H551 H 0.32636 0.12711 0.72881 0.0
H552 H 0.35954 0.16511 0.70569 0.0
H553 H 0.39927 0.23245 0.62204 0.0
H554 H 0.31998 0.17126 0.60838 0.0
O555 O 0.40368 0.15227 0.6176 0.0
H556 H 0.37316 0.27018 0.58926 0.0
H557 H 0.29361 0.2092 0.57444 0.0
C558 C 0.4082 0.19168 0.67036 0.0
C559 C 0.44036 0.18819 0.67103 0.0
C560 C 0.46016 0.20476 0.69265 0.0
C561 C 0.44794 0.22461 0.71417 0.0
C562 C 0.41585 0.22851 0.71295 0.0
C563 C 0.39624 0.21264 0.69087 0.0
C564 C 0.35706 0.14403 0.65951 0.0
C565 C 0.34404 0.1196 0.6414 0.0
C566 C 0.32502 0.09764 0.65469 0.0
C567 C 0.3186 0.09964 0.68651 0.0
C568 C 0.33112 0.12459 0.70439 0.0
C569 C 0.35009 0.14657 0.69103 0.0
C570 C 0.36134 0.1993 0.61852 0.0
C571 C 0.37599 0.22723 0.61237 0.0
C572 C 0.36098 0.24885 0.59337 0.0
C573 C 0.33113 0.24282 0.57937 0.0
C574 C 0.31652 0.21456 0.58504 0.0
C575 C 0.33157 0.19292 0.60452 0.0
P576 P 0.42123 0.90062 0.68923 0.0
H577 H 0.4336 0.96447 0.70482 0.0
H578 H 0.40554 1.0028 0.73206 0.0
H579 H 0.33452 0.93517 0.74901 0.0
H580 H 0.36288 0.89681 0.72123 0.0
H581 H 0.48233 0.87837 0.67922 0.0
H582 H 0.5228 0.8561 0.71398 0.0
H583 H 0.46553 0.86422 0.79218 0.0
H584 H 0.42501 0.88679 0.75716 0.0
H585 H 0.36592 0.90333 0.64613 0.0
H586 H 0.4267 0.8338 0.68329 0.0
O587 O 0.43922 0.92011 0.66201 0.0
H588 H 0.34065 0.8663 0.60923 0.0
H589 H 0.40135 0.79658 0.64693 0.0
C590 C 0.39985 0.92803 0.71015 0.0
C591 C 0.41192 0.95787 0.71428 0.0
C592 C 0.39595 0.97976 0.73012 0.0
C593 C 0.36769 0.97218 0.74266 0.0
C594 C 0.35626 0.94181 0.73968 0.0
C595 C 0.37225 0.9199 0.72356 0.0
C596 C 0.45081 0.88455 0.71564 0.0
C597 C 0.47853 0.87559 0.70388 0.0
C598 C 0.50161 0.86272 0.72377 0.0
C599 C 0.49743 0.85846 0.75588 0.0
C600 C 0.46964 0.86764 0.76768 0.0
C601 C 0.44639 0.88037 0.74764 0.0
C602 C 0.39796 0.87142 0.66787 0.0
C603 C 0.37327 0.87988 0.64697 0.0
C604 C 0.35886 0.85858 0.62573 0.0
C605 C 0.36903 0.82829 0.62472 0.0
C606 C 0.39314 0.8197 0.64654 0.0
C607 C 0.40749 0.84102 0.66774 0.0
P608 P 0.67291 0.87498 0.6539 0.0
H609 H 0.69259 0.93818 0.6447 0.0
H610 H 0.71108 0.97922 0.68084 0.0
H611 H 0.70197 0.91883 0.75955 0.0
H612 H 0.68419 0.87752 0.72338 0.0
H613 H 0.67387 0.82121 0.61423 0.0
H614 H 0.70799 0.80479 0.57497 0.0
H615 H 0.76778 0.88351 0.59581 0.0
H616 H 0.73354 0.89979 0.63554 0.0
H617 H 0.60981 0.85943 0.66957 0.0
H618 H 0.70024 0.82131 0.6847 0.0
O619 O 0.6447 0.89004 0.63069 0.0
H620 H 0.58836 0.81947 0.70203 0.0
H621 H 0.67908 0.78119 0.7173 0.0
C622 C 0.68744 0.90458 0.68114 0.0
C623 C 0.69488 0.93361 0.6697 0.0
C624 C 0.70535 0.95707 0.69036 0.0
C625 C 0.70794 0.9522 0.723 0.0
C626 C 0.69993 0.92327 0.73454 0.0
C627 C 0.69 0.89957 0.71377 0.0
C628 C 0.70124 0.86148 0.62833 0.0
C629 C 0.69468 0.83464 0.61096 0.0
C630 C 0.71432 0.82522 0.58845 0.0
C631 C 0.74083 0.84273 0.58234 0.0
C632 C 0.74752 0.86959 0.5999 0.0
C633 C 0.72793 0.87885 0.62275 0.0
C634 C 0.65659 0.84324 0.6746 0.0
C635 C 0.62495 0.84206 0.67937 0.0
C636 C 0.61267 0.81904 0.69784 0.0
C637 C 0.63195 0.79697 0.71227 0.0
C638 C 0.66349 0.79766 0.70644 0.0
C639 C 0.67569 0.82065 0.68788 0.0
P640 P 0.66976 0.83662 0.34646 0.0
H641 H 0.62788 0.78649 0.32662 0.0
H642 H 0.57183 0.78221 0.31612 0.0
H643 H 0.56413 0.87632 0.34457 0.0
H644 H 0.62017 0.88006 0.35577 0.0
H645 H 0.65597 0.89157 0.3089 0.0
H646 H 0.6829 0.94078 0.30468 0.0
H647 H 0.75104 0.91345 0.37748 0.0
H648 H 0.72346 0.86493 0.38207 0.0
H649 H 0.70562 0.78219 0.3623 0.0
H650 H 0.65538 0.84921 0.41079 0.0
O651 O 0.68426 0.81747 0.31725 0.0
H652 H 0.72319 0.7596 0.41241 0.0
H653 H 0.6728 0.82676 0.46124 0.0
C654 C 0.62825 0.83402 0.34056 0.0
C655 C 0.61405 0.80616 0.33073 0.0
C656 C 0.58194 0.80361 0.32512 0.0
C657 C 0.56346 0.82905 0.32903 0.0
C658 C 0.5777 0.85636 0.34096 0.0
C659 C 0.6098 0.85871 0.34697 0.0
C660 C 0.68699 0.87479 0.3465 0.0
C661 C 0.67626 0.89653 0.32451 0.0
C662 C 0.69207 0.92464 0.32185 0.0
C663 C 0.71946 0.93148 0.34067 0.0
C664 C 0.72993 0.90957 0.36285 0.0
C665 C 0.71401 0.88158 0.36557 0.0
C666 C 0.67969 0.81769 0.38299 0.0
C667 C 0.698 0.79178 0.38376 0.0
C668 C 0.70782 0.7787 0.41249 0.0
C669 C 0.69958 0.79147 0.44094 0.0
C670 C 0.67962 0.81635 0.43983 0.0
C671 C 0.6698 0.82936 0.41105 0.0
P672 P 0.70195 0.20369 0.34675 0.0
H673 H 0.754 0.23966 0.37675 0.0
H674 H 0.77304 0.248 0.43158 0.0
H675 H 0.69832 0.19162 0.46221 0.0
H676 H 0.67799 0.18464 0.40713 0.0
H677 H 0.70424 0.17334 0.28549 0.0
H678 H 0.71618 0.12095 0.27018 0.0
H679 H 0.71938 0.09443 0.36777 0.0
H680 H 0.70817 0.14603 0.38277 0.0
H681 H 0.67595 0.2648 0.34271 0.0
H682 H 0.64296 0.17184 0.32845 0.0
O683 O 0.72507 0.22397 0.32457 0.0
H684 H 0.62668 0.28334 0.31873 0.0
H685 H 0.59427 0.19004 0.30446 0.0
C686 C 0.71469 0.21114 0.38763 0.0
C687 C 0.74139 0.22925 0.3951 0.0
C688 C 0.75238 0.234 0.42645 0.0
C689 C 0.73741 0.22008 0.45098 0.0
C690 C 0.71052 0.20218 0.44362 0.0
C691 C 0.6989 0.19827 0.41223 0.0
C692 C 0.70594 0.16403 0.33542 0.0
C693 C 0.70709 0.15606 0.30351 0.0
C694 C 0.71356 0.12604 0.2947 0.0
C695 C 0.71888 0.10354 0.31775 0.0
C696 C 0.71559 0.11125 0.34938 0.0
C697 C 0.70922 0.14106 0.3581 0.0
C698 C 0.66335 0.21692 0.33691 0.0
C699 C 0.65785 0.2484 0.33516 0.0
C700 C 0.62967 0.259 0.32154 0.0
C701 C 0.60676 0.23817 0.30931 0.0
C702 C 0.61161 0.2067 0.31331 0.0
C703 C 0.63954 0.1962 0.32707 0.0
P704 P 0.37173 0.18264 0.357 0.0
H705 H 0.3137 0.16705 0.38499 0.0
H706 H 0.2685 0.13537 0.36676 0.0
H707 H 0.3086 0.12159 0.27831 0.0
H708 H 0.35297 0.15383 0.296 0.0
H709 H 0.41343 0.14845 0.32001 0.0
H710 H 0.45277 0.16437 0.28445 0.0
H711 H 0.42572 0.25795 0.29322 0.0
H712 H 0.3863 0.242 0.32839 0.0
H713 H 0.31915 0.2239 0.35732 0.0
H714 H 0.4076 0.21371 0.40851 0.0
O715 O 0.39056 0.15767 0.38028 0.0
H716 H 0.30652 0.26407 0.39401 0.0
H717 H 0.39531 0.25444 0.44476 0.0
C718 C 0.33653 0.16339 0.34164 0.0
C719 C 0.31231 0.15795 0.36128 0.0
C720 C 0.28649 0.13983 0.35093 0.0
C721 C 0.28498 0.12602 0.32113 0.0
C722 C 0.30909 0.13189 0.3014 0.0
C723 C 0.33453 0.15044 0.31151 0.0
C724 C 0.39723 0.19406 0.32722 0.0
C725 C 0.41568 0.17235 0.31389 0.0
C726 C 0.43807 0.18142 0.2935 0.0
C727 C 0.44259 0.21245 0.28639 0.0
C728 C 0.42312 0.23396 0.29873 0.0
C729 C 0.40049 0.22482 0.31878 0.0
C730 C 0.36379 0.21501 0.38103 0.0
C731 C 0.3359 0.23037 0.37633 0.0
C732 C 0.3288 0.25345 0.3971 0.0
C733 C 0.34984 0.2621 0.42232 0.0
C734 C 0.37874 0.24828 0.42547 0.0
C735 C 0.38562 0.22484 0.40498 0.0
P736 P 0.34197 0.9132 0.39367 0.0
H737 H 0.39047 0.9443 0.36124 0.0
H738 H 0.42543 0.92769 0.3224 0.0
H739 H 0.38715 0.83606 0.32672 0.0
H740 H 0.35191 0.85292 0.36537 0.0
H741 H 0.29389 0.95434 0.41075 0.0
H742 H 0.2587 0.98684 0.37924 0.0
H743 H 0.28814 0.94612 0.29439 0.0
H744 H 0.32225 0.91299 0.32584 0.0
H745 H 0.37714 0.86665 0.42671 0.0
H746 H 0.28316 0.89677 0.42281 0.0
O747 O 0.36017 0.94054 0.41569 0.0
H748 H 0.3657 0.82969 0.46666 0.0
H749 H 0.27138 0.85949 0.46383 0.0
C750 C 0.36928 0.89965 0.36699 0.0
C751 C 0.38986 0.92054 0.35413 0.0
C752 C 0.40959 0.91111 0.33164 0.0
C753 C 0.40918 0.88053 0.32157 0.0
C754 C 0.38835 0.85966 0.33436 0.0
C755 C 0.36829 0.86923 0.35657 0.0
C756 C 0.31088 0.93126 0.37083 0.0
C757 C 0.29211 0.95178 0.38541 0.0
C758 C 0.27217 0.97051 0.36733 0.0
C759 C 0.27108 0.96942 0.33428 0.0
C760 C 0.28881 0.94782 0.31977 0.0
C761 C 0.3083 0.92872 0.33788 0.0
C762 C 0.33085 0.88384 0.42084 0.0
C763 C 0.35379 0.86495 0.43407 0.0
C764 C 0.34719 0.84391 0.45728 0.0
C765 C 0.31751 0.84146 0.46853 0.0
C766 C 0.29447 0.86081 0.45574 0.0
C767 C 0.30113 0.88191 0.43207 0.0
P768 P 0.67974 0.74133 0.20189 0.0
H769 H 0.63242 0.73431 0.24654 0.0
H770 H 0.58274 0.75802 0.25079 0.0
H771 H 0.59227 0.80403 0.16241 0.0
H772 H 0.64202 0.77984 0.15806 0.0
H773 H 0.73291 0.71087 0.23106 0.0
H774 H 0.74107 0.65973 0.25179 0.0
H775 H 0.64635 0.63463 0.22308 0.0
H776 H 0.63827 0.68641 0.2026 0.0
H777 H 0.72792 0.7813 0.17876 0.0
H778 H 0.66292 0.71253 0.14064 0.0
O779 O 0.70063 0.76402 0.2272 0.0
H780 H 0.74494 0.79114 0.12661 0.0
H781 H 0.68028 0.72206 0.08785 0.0
C782 C 0.64067 0.75455 0.20166 0.0
C783 C 0.62356 0.74894 0.22772 0.0
C784 C 0.59532 0.763 0.23033 0.0
C785 C 0.58371 0.78338 0.20708 0.0
C786 C 0.60052 0.78839 0.18057 0.0
C787 C 0.62893 0.77436 0.17805 0.0
C788 C 0.68486 0.70266 0.21575 0.0
C789 C 0.71383 0.69441 0.22925 0.0
C790 C 0.71852 0.66499 0.24098 0.0
C791 C 0.69436 0.6429 0.23929 0.0
C792 C 0.66534 0.65113 0.22527 0.0
C793 C 0.66071 0.6807 0.21339 0.0
C794 C 0.69433 0.74598 0.16362 0.0
C795 C 0.71759 0.76796 0.1592 0.0
C796 C 0.7274 0.77354 0.12924 0.0
C797 C 0.71406 0.75735 0.10296 0.0
C798 C 0.69084 0.73511 0.10752 0.0
C799 C 0.68111 0.72943 0.13767 0.0
P800 P 0.37695 0.67556 0.15729 0.0
H801 H 0.44454 0.67498 0.16754 0.0
H802 H 0.48161 0.70412 0.20207 0.0
H803 H 0.40693 0.7546 0.23726 0.0
H804 H 0.36993 0.72532 0.20243 0.0
H805 H 0.38608 0.61257 0.17661 0.0
H806 H 0.36865 0.58287 0.22057 0.0
H807 H 0.31108 0.65682 0.24528 0.0
H808 H 0.32834 0.68656 0.20067 0.0
H809 H 0.37578 0.741 0.14271 0.0
H810 H 0.32627 0.65929 0.10977 0.0
O811 O 0.39667 0.65313 0.13465 0.0
H812 H 0.35217 0.76931 0.09935 0.0
H813 H 0.30246 0.68799 0.06492 0.0
C814 C 0.40444 0.69841 0.18179 0.0
C815 C 0.43607 0.69241 0.1825 0.0
C816 C 0.4573 0.70894 0.20258 0.0
C817 C 0.44731 0.73172 0.22255 0.0
C818 C 0.41547 0.73717 0.22231 0.0
C819 C 0.39427 0.72057 0.20222 0.0
C820 C 0.35799 0.6516 0.18482 0.0
C821 C 0.3691 0.62224 0.1909 0.0
C822 C 0.35945 0.60535 0.21631 0.0
C823 C 0.33892 0.61766 0.23667 0.0
C824 C 0.32743 0.64697 0.23039 0.0
C825 C 0.33686 0.66377 0.2046 0.0
C826 C 0.35254 0.69796 0.13016 0.0
C827 C 0.35908 0.72917 0.12674 0.0
C828 C 0.34569 0.7454 0.10135 0.0
C829 C 0.32564 0.73091 0.07814 0.0
C830 C 0.31775 0.6999 0.08227 0.0
C831 C 0.33124 0.68355 0.10805 0.0
P832 P 0.38448 0.39494 0.18779 0.0
H833 H 0.33693 0.43851 0.16821 0.0
H834 H 0.30767 0.47528 0.19713 0.0
H835 H 0.35339 0.44437 0.28424 0.0
H836 H 0.38205 0.40781 0.25539 0.0
H837 H 0.45029 0.41075 0.20229 0.0
H838 H 0.49355 0.38002 0.22342 0.0
H839 H 0.42925 0.30819 0.24591 0.0
H840 H 0.3861 0.33892 0.22519 0.0
H841 H 0.31835 0.37701 0.18764 0.0
H842 H 0.39883 0.34755 0.14327 0.0
O843 O 0.40078 0.41578 0.16045 0.0
H844 H 0.28644 0.33972 0.15684 0.0
H845 H 0.36687 0.30952 0.11258 0.0
C846 C 0.36181 0.42053 0.20963 0.0
C847 C 0.34042 0.4396 0.19359 0.0
C848 C 0.32365 0.46055 0.21011 0.0
C849 C 0.32828 0.46296 0.24297 0.0
C850 C 0.34936 0.44334 0.2589 0.0
C851 C 0.36585 0.4223 0.24243 0.0
C852 C 0.41503 0.37679 0.21149 0.0
C853 C 0.4454 0.38886 0.21281 0.0
C854 C 0.47011 0.37149 0.22524 0.0
C855 C 0.46463 0.34196 0.2366 0.0
C856 C 0.43398 0.33114 0.23776 0.0
C857 C 0.40934 0.34855 0.22562 0.0
C858 C 0.36093 0.36554 0.16732 0.0
C859 C 0.32926 0.36248 0.17137 0.0
C860 C 0.311 0.34096 0.15379 0.0
C861 C 0.32409 0.32174 0.13211 0.0
C862 C 0.35611 0.32389 0.12914 0.0
C863 C 0.37433 0.34573 0.14652 0.0
P864 P 0.67499 0.40756 0.13133 0.0
H865 H 0.66641 0.47342 0.12882 0.0
H866 H 0.68957 0.51612 0.15914 0.0
H867 H 0.74249 0.4535 0.21833 0.0
H868 H 0.71899 0.4104 0.18733 0.0
H869 H 0.71115 0.43235 0.08225 0.0
H870 H 0.75146 0.41118 0.05181 0.0
H871 H 0.7486 0.32831 0.1061 0.0
H872 H 0.70901 0.34986 0.13719 0.0
H873 H 0.64844 0.40331 0.19332 0.0
H874 H 0.65108 0.348 0.11 0.0
O875 O 0.65044 0.42204 0.10369 0.0
H876 H 0.61325 0.36596 0.21516 0.0
H877 H 0.61705 0.31003 0.13189 0.0
C878 C 0.69049 0.43859 0.15615 0.0
C879 C 0.68278 0.46868 0.14844 0.0
C880 C 0.69633 0.49324 0.16572 0.0
C881 C 0.71807 0.48838 0.19116 0.0
C882 C 0.72596 0.45812 0.19879 0.0
C883 C 0.71234 0.43344 0.18132 0.0
C884 C 0.70643 0.39233 0.1113 0.0
C885 C 0.71936 0.4097 0.08775 0.0
C886 C 0.74246 0.39769 0.07049 0.0
C887 C 0.75277 0.36797 0.07635 0.0
C888 C 0.74058 0.35105 0.10077 0.0
C889 C 0.71791 0.36333 0.11845 0.0
C890 C 0.65312 0.37812 0.15036 0.0
C891 C 0.6421 0.38273 0.18007 0.0
C892 C 0.62184 0.36119 0.19253 0.0
C893 C 0.61199 0.33466 0.17539 0.0
C894 C 0.6236 0.33011 0.14579 0.0
C895 C 0.64355 0.35172 0.13334 0.0
P896 P 0.7016 0.31957 0.82433 0.0
H897 H 0.66372 0.30037 0.76804 0.0
H898 H 0.6078 0.29812 0.75515 0.0
H899 H 0.59343 0.32802 0.8496 0.0
H900 H 0.64912 0.3295 0.86229 0.0
H901 H 0.75854 0.34804 0.80403 0.0
H902 H 0.7714 0.39978 0.78659 0.0
H903 H 0.6789 0.42748 0.80204 0.0
H904 H 0.66623 0.37621 0.81937 0.0
H905 H 0.72042 0.26488 0.86041 0.0
H906 H 0.71328 0.3613 0.87794 0.0
O907 O 0.71936 0.29516 0.80201 0.0
H908 H 0.74731 0.25862 0.91278 0.0
H909 H 0.74021 0.35532 0.92956 0.0
C910 C 0.66048 0.31407 0.81647 0.0
C911 C 0.64842 0.30601 0.78606 0.0
C912 C 0.61647 0.30532 0.77851 0.0
C913 C 0.596 0.31315 0.80119 0.0
C914 C 0.60839 0.32194 0.83143 0.0
C915 C 0.64026 0.32228 0.839 0.0
C916 C 0.71124 0.35792 0.81229 0.0
C917 C 0.74105 0.36526 0.80359 0.0
C918 C 0.74841 0.3949 0.79384 0.0
C919 C 0.72602 0.41767 0.79266 0.0
C920 C 0.69642 0.41033 0.80209 0.0
C921 C 0.68919 0.38085 0.81206 0.0
C922 C 0.71543 0.3137 0.86494 0.0
C923 C 0.72412 0.28459 0.8757 0.0
C924 C 0.73938 0.28098 0.90567 0.0
C925 C 0.74627 0.30652 0.92515 0.0
C926 C 0.73562 0.33521 0.91497 0.0
C927 C 0.72019 0.33871 0.88535 0.0
P928 P 0.77901 0.68934 0.86054 0.0
H929 H 0.82754 0.72873 0.89128 0.0
H930 H 0.83483 0.74726 0.94516 0.0
H931 H 0.76712 0.6805 0.97306 0.0
H932 H 0.76003 0.66209 0.91884 0.0
H933 H 0.82624 0.65108 0.83669 0.0
H934 H 0.82492 0.59927 0.81501 0.0
H935 H 0.72973 0.58828 0.83739 0.0
H936 H 0.73144 0.63999 0.85934 0.0
H937 H 0.72691 0.68313 0.81248 0.0
H938 H 0.74979 0.73696 0.89613 0.0
O939 O 0.80255 0.70846 0.83784 0.0
H940 H 0.67882 0.71082 0.80332 0.0
H941 H 0.7019 0.76417 0.88734 0.0
C942 C 0.79315 0.69408 0.90104 0.0
C943 C 0.81518 0.7172 0.90918 0.0
C944 C 0.81927 0.72788 0.94012 0.0
C945 C 0.80109 0.71582 0.96338 0.0
C946 C 0.7814 0.69046 0.95575 0.0
C947 C 0.77737 0.67977 0.92473 0.0
C948 C 0.77863 0.64971 0.84872 0.0
C949 C 0.80518 0.63738 0.83722 0.0
C950 C 0.80446 0.60766 0.82497 0.0
C951 C 0.77711 0.58973 0.82405 0.0
C952 C 0.7511 0.60158 0.83739 0.0
C953 C 0.75196 0.63122 0.84986 0.0
C954 C 0.74171 0.70713 0.85551 0.0
C955 C 0.72129 0.7003 0.82931 0.0
C956 C 0.69372 0.71617 0.82413 0.0
C957 C 0.68631 0.73963 0.84477 0.0
C958 C 0.70684 0.74633 0.87097 0.0
C959 C 0.73425 0.73043 0.87616 0.0
P960 P 0.43573 0.66733 0.873 0.0
H961 H 0.4553 0.609 0.8501 0.0
H962 H 0.42808 0.56748 0.82048 0.0
H963 H 0.34821 0.62401 0.80533 0.0
H964 H 0.37557 0.66531 0.83549 0.0
H965 H 0.48702 0.70146 0.90344 0.0
H966 H 0.53095 0.72945 0.88453 0.0
H967 H 0.4993 0.7067 0.78872 0.0
H968 H 0.45491 0.67825 0.8082 0.0
H969 H 0.3894 0.65812 0.91846 0.0
H970 H 0.42488 0.73364 0.86618 0.0
O971 O 0.451 0.64678 0.90288 0.0
H972 H 0.35945 0.69302 0.94794 0.0
H973 H 0.39442 0.76886 0.89508 0.0
C974 C 0.41722 0.63997 0.84555 0.0
C975 C 0.43209 0.61263 0.83994 0.0
C976 C 0.41653 0.58891 0.8229 0.0
C977 C 0.38585 0.59221 0.81073 0.0
C978 C 0.37184 0.62062 0.81431 0.0
C979 C 0.38739 0.64428 0.83172 0.0
C980 C 0.46779 0.6877 0.85731 0.0
C981 C 0.48956 0.7023 0.87836 0.0
C982 C 0.51477 0.71828 0.86743 0.0
C983 C 0.51882 0.72023 0.83504 0.0
C984 C 0.49703 0.70538 0.81381 0.0
C985 C 0.47157 0.68928 0.8249 0.0
C986 C 0.40958 0.69318 0.89024 0.0
C987 C 0.39032 0.68224 0.91295 0.0
C988 C 0.37311 0.70238 0.92986 0.0
C989 C 0.37455 0.73409 0.92435 0.0
C990 C 0.39305 0.7448 0.90058 0.0
C991 C 0.41034 0.72456 0.88372 0.0
P992 P 0.39861 0.38491 0.92905 0.0
H993 H 0.43894 0.4018 0.88029 0.0
H994 H 0.46416 0.3725 0.84091 0.0
H995 H 0.42976 0.28862 0.87947 0.0
H996 H 0.4042 0.31804 0.9192 0.0
H997 H 0.3764 0.44214 0.95276 0.0
H998 H 0.34636 0.48345 0.92786 0.0
H999 H 0.34512 0.43646 0.83875 0.0
H1000 H 0.37441 0.39504 0.86372 0.0
H1001 H 0.38439 0.38268 0.99476 0.0
H1002 H 0.34709 0.34419 0.90658 0.0
O1003 O 0.42516 0.39938 0.95556 0.0
H1004 H 0.34254 0.35851 0.02152 0.0
H1005 H 0.30539 0.31902 0.93343 0.0
C1006 C 0.41867 0.36222 0.90187 0.0
C1007 C 0.43688 0.37711 0.8805 0.0
C1008 C 0.45157 0.36041 0.85828 0.0
C1009 C 0.44893 0.32841 0.85737 0.0
C1010 C 0.43234 0.31326 0.88003 0.0
C1011 C 0.41736 0.33011 0.90229 0.0
C1012 C 0.37862 0.41608 0.90987 0.0
C1013 C 0.36995 0.44094 0.92777 0.0
C1014 C 0.35256 0.46436 0.91365 0.0
C1015 C 0.34374 0.46332 0.88134 0.0
C1016 C 0.35217 0.43815 0.86357 0.0
C1017 C 0.36906 0.41453 0.8778 0.0
C1018 C 0.36946 0.36427 0.94889 0.0
C1019 C 0.36749 0.36851 0.98123 0.0
C1020 C 0.34341 0.35479 0.9965 0.0
C1021 C 0.32067 0.33661 0.97974 0.0
C1022 C 0.32232 0.33302 0.94708 0.0
C1023 C 0.34644 0.34694 0.93177 0.0
Cu1024 Cu 0.285 0.26081 0.06384 0.0
N1025 N 0.27862 0.29007 0.0328 0.0
N1026 N 0.29749 0.32042 0.99631 0.0
C1027 C 0.30169 0.30926 0.0257 0.0
C1028 C 0.27029 0.30801 0.98452 0.0
C1029 C 0.25881 0.28907 1.00704 0.0
O1030 O 0.30096 0.22708 0.04041 0.0
C1031 C 0.30372 0.30172 0.11108 0.0
O1032 O 0.27437 0.3082 0.10635 0.0
H1033 H 0.323 0.31183 0.04037 0.0
H1034 H 0.23935 0.27326 1.00352 0.0
N1035 N 0.24903 0.2497 0.08316 0.0
N1036 N 0.2194 0.23366 0.12089 0.0
C1037 C 0.24841 0.24017 0.11308 0.0
C1038 C 0.21934 0.24931 0.07156 0.0
C1039 C 0.20099 0.2392 0.09479 0.0
C1040 C 0.28351 0.20513 0.02949 0.0
O1041 O 0.25699 0.19985 0.04172 0.0
H1042 H 0.26897 0.23772 0.12869 0.0
H1043 H 0.21157 0.25575 0.04791 0.0
O1044 O 0.31424 0.27999 0.09531 0.0
H1045 H 0.26051 0.3106 0.96065 0.0
H1046 H 0.17607 0.23647 0.09276 0.0
Cu1047 Cu 0.80272 0.28392 1.00601 0.0
N1048 N 0.7967 0.32074 0.02695 0.0
N1049 N 0.77457 0.35459 0.05683 0.0
C1050 C 0.77407 0.32555 0.04624 0.0
C1051 C 0.79839 0.36869 0.04365 0.0
C1052 C 0.81217 0.34766 0.02537 0.0
O1053 O 0.80364 0.25091 0.03749 0.0
C1054 C 0.76754 0.30493 0.95401 0.0
O1055 O 0.78479 0.32915 0.96187 0.0
H1056 H 0.75705 0.30825 0.05173 0.0
H1057 H 0.83158 0.35191 1.0113 0.0
N1058 N 0.84096 0.2836 0.9886 0.0
N1059 N 0.87794 0.26685 0.95937 0.0
C1060 C 0.84747 0.26612 0.96405 0.0
C1061 C 0.8682 0.29594 0.99992 0.0
C1062 C 0.89107 0.2857 0.98189 0.0
C1063 C 0.81689 0.25724 0.06458 0.0
O1064 O 0.82799 0.28504 0.06999 0.0
H1065 H 0.8304 0.2516 0.95119 0.0
H1066 H 0.87143 0.31016 0.02071 0.0
O1067 O 0.77101 0.28075 0.97053 0.0
H1068 H 0.8052 0.39249 0.04686 0.0
H1069 H 0.91554 0.29097 0.98571 0.0
Cu1070 Cu 0.7893 0.79348 0.01577 0.0
N1071 N 0.78139 0.82211 0.98403 0.0
N1072 N 0.7944 0.85415 0.9461 0.0
C1073 C 0.80382 0.83997 0.97303 0.0
C1074 C 0.76466 0.84493 0.93997 0.0
C1075 C 0.75667 0.82514 0.96345 0.0
O1076 O 0.80889 0.76047 0.99479 0.0
C1077 C 0.80257 0.83696 0.0607 0.0
O1078 O 0.77421 0.84348 0.05049 0.0
H1079 H 0.82738 0.84052 0.98326 0.0
H1080 H 0.73507 0.81248 0.96428 0.0
N1081 N 0.75364 0.77943 0.03402 0.0
N1082 N 0.72402 0.76377 0.07201 0.0
C1083 C 0.75187 0.77518 0.06508 0.0
C1084 C 0.72597 0.77013 0.02062 0.0
C1085 C 0.70761 0.76044 0.04404 0.0
C1086 C 0.79809 0.73319 0.99289 0.0
O1087 O 0.77751 0.72421 1.01226 0.0
H1088 H 0.771 0.77987 0.08223 0.0
H1089 H 0.71974 0.76988 0.99562 0.0
O1090 O 0.81536 0.81443 0.04839 0.0
H1091 H 0.75015 0.85097 0.91932 0.0
H1092 H 0.68399 0.75192 0.04073 0.0
Cu1093 Cu 0.28698 0.77191 0.99655 0.0
N1094 N 0.27844 0.80707 0.01958 0.0
N1095 N 0.25074 0.83631 0.04979 0.0
C1096 C 0.25167 0.81 0.03333 0.0
C1097 C 0.27821 0.85059 0.04609 0.0
C1098 C 0.29528 0.83247 0.02754 0.0
O1099 O 0.2936 0.74042 0.02937 0.0
C1100 C 0.24938 0.79367 0.94796 0.0
O1101 O 0.26662 0.81756 0.95705 0.0
H1102 H 0.23315 0.79299 0.03102 0.0
H1103 H 0.31847 0.83726 0.02091 0.0
N1104 N 0.323 0.77309 0.97451 0.0
N1105 N 0.3578 0.75504 0.94297 0.0
C1106 C 0.33358 0.74831 0.96027 0.0
C1107 C 0.34102 0.79658 0.9659 0.0
C1108 C 0.36256 0.78552 0.94662 0.0
C1109 C 0.31578 0.74856 0.04933 0.0
O1110 O 0.33092 0.77416 0.04406 0.0
H1111 H 0.32278 0.7259 0.96176 0.0
H1112 H 0.3382 0.82016 0.97235 0.0
O1113 O 0.2534 0.76852 0.96286 0.0
H1114 H 0.28578 0.87227 0.05654 0.0
H1115 H 0.38021 0.79904 0.93603 0.0
Cu1116 Cu 1.0013 0.27203 0.30057 0.0
N1117 N 0.02604 0.2375 0.30564 0.0
N1118 N 0.06494 0.20736 0.29416 0.0
C1119 C 0.05264 0.23537 0.29138 0.0
C1120 C 0.04529 0.19117 0.3113 0.0
C1121 C 0.02114 0.20972 0.31808 0.0
O1122 O 0.03157 0.30544 0.29854 0.0
C1123 C 0.95147 0.24773 0.26459 0.0
O1124 O 0.94531 0.23801 0.29262 0.0
H1125 H 0.06238 0.25409 0.2785 0.0
H1126 H 1.00089 0.20298 0.32998 0.0
N1127 N 0.97503 0.27974 0.33301 0.0
N1128 N 0.93826 0.30194 0.35901 0.0
C1129 C 0.95547 0.30325 0.33378 0.0
C1130 C 0.97018 0.26309 0.35875 0.0
C1131 C 0.94752 0.27665 0.37475 0.0
C1132 C 0.04246 0.3178 0.32422 0.0
O1133 O 0.0289 0.31177 0.35013 0.0
H1134 H 0.95357 0.32066 0.31583 0.0
H1135 H 0.98209 0.24244 0.36533 0.0
O1136 O 0.97551 0.26455 0.26186 0.0
H1137 H 0.04744 0.1673 0.31733 0.0
H1138 H 0.93887 0.26871 0.39655 0.0
Cu1139 Cu 0.76209 0.02967 0.28084 0.0
N1140 N 0.79873 0.05287 0.28143 0.0
N1141 N 0.83045 0.08513 0.25762 0.0
C1142 C 0.80107 0.07525 0.26005 0.0
C1143 C 0.84739 0.06835 0.27884 0.0
C1144 C 0.82774 0.04832 0.2934 0.0
O1145 O 0.73141 0.06167 0.28335 0.0
C1146 C 0.7859 0.98423 0.24789 0.0
O1147 O 0.7986 0.9808 0.27649 0.0
H1148 H 0.78167 0.08215 0.24456 0.0
H1149 H 0.83441 0.03039 0.30973 0.0
N1150 N 0.75645 1.00144 0.31352 0.0
N1151 N 0.73708 0.95966 0.33641 0.0
C1152 C 0.73537 0.97824 0.31106 0.0
C1153 C 0.7722 0.9976 0.34149 0.0
C1154 C 0.76026 0.97198 0.35568 0.0
C1155 C 0.73297 0.07395 0.31071 0.0
O1156 O 0.75156 0.06208 0.3328 0.0
H1157 H 0.71998 0.97449 0.29026 0.0
H1158 H 0.79137 1.01201 0.35063 0.0
O1159 O 0.76592 1.00505 0.24294 0.0
H1160 H 0.8723 0.06944 0.28266 0.0
H1161 H 0.7684 0.96306 0.37832 0.0
Cu1162 Cu 0.0274 0.78837 0.24643 0.0
N1163 N 1.00795 0.826 0.24828 0.0
N1164 N 0.97345 0.86176 0.23485 0.0
C1165 C 0.98106 0.83221 0.23208 0.0
C1166 C 0.99661 0.87464 0.25364 0.0
C1167 C 0.01787 0.85252 0.26188 0.0
O1168 O 0.99551 0.75667 0.25087 0.0
C1169 C 0.0735 0.80622 0.20958 0.0
O1170 O 0.08287 0.81862 0.23676 0.0
H1171 H 0.96807 0.81556 0.21737 0.0
H1172 H 0.03944 0.85577 0.27594 0.0
N1173 N 0.05757 0.78166 0.27936 0.0
N1174 N 0.09927 0.76139 0.30445 0.0
C1175 C 0.08065 0.76183 0.27771 0.0
C1176 C 0.06148 0.7941 0.30829 0.0
C1177 C 0.08719 0.78158 0.32386 0.0
C1178 C 0.98179 0.7609 0.27595 0.0
O1179 O 0.99003 0.78501 0.2932 0.0
H1180 H 0.08371 0.74807 0.25711 0.0
H1181 H 0.04689 0.81121 0.31734 0.0
O1182 O 0.04849 0.79013 0.20747 0.0
H1183 H 0.99836 0.89842 0.2606 0.0
H1184 H 0.09669 0.7875 0.3473 0.0
Cu1185 Cu 0.23575 0.02845 0.2634 0.0
N1186 N 0.23685 0.06345 0.28849 0.0
N1187 N 0.26059 0.10425 0.3117 0.0
C1188 C 0.26374 0.07891 0.29449 0.0
C1189 C 0.23039 0.10453 0.31748 0.0
C1190 C 0.21567 0.07922 0.30295 0.0
O1191 O 0.25605 0.039 0.22575 0.0
C1192 C 0.2526 0.99157 0.3152 0.0
O1193 O 0.23089 1.00678 0.32788 0.0
H1194 H 0.28531 0.07171 0.28593 0.0
H1195 H 0.19135 0.07313 0.30253 0.0
N1196 N 0.19815 1.01064 0.24856 0.0
N1197 N 0.16968 0.97827 0.21702 0.0
C1198 C 0.19827 0.98696 0.22851 0.0
C1199 C 0.16826 0.01749 0.25015 0.0
C1200 C 0.15056 0.99747 0.23059 0.0
C1201 C 0.25419 0.06422 0.21089 0.0
O1202 O 0.27067 0.06814 0.18649 0.0
H1203 H 0.2194 0.97731 0.22138 0.0
H1204 H 0.16003 0.03622 0.26355 0.0
O1205 O 0.25862 0.99739 0.28699 0.0
H1206 H 0.21965 0.12207 0.33055 0.0
H1207 H 0.12568 0.99741 0.22641 0.0
Cu1208 Cu 1.01218 0.76084 0.76149 0.0
N1209 N 0.03755 0.72711 0.7675 0.0
N1210 N 0.08345 0.71049 0.75474 0.0
C1211 C 0.06842 0.73181 0.77006 0.0
C1212 C 0.06141 0.6902 0.74384 0.0
C1213 C 0.03319 0.70043 0.75178 0.0
O1214 O 0.04255 0.79423 0.75685 0.0
C1215 C 0.9628 0.7307 0.73146 0.0
O1216 O 0.96197 0.72088 0.76049 0.0
H1217 H 0.07922 0.75306 0.77815 0.0
H1218 H 1.01109 0.69145 0.74224 0.0
N1219 N 0.98851 0.76989 0.79496 0.0
N1220 N 0.95701 0.79791 0.82186 0.0
C1221 C 0.96795 0.79238 0.79364 0.0
C1222 C 0.99032 0.76014 0.82488 0.0
C1223 C 0.97079 0.77739 0.84157 0.0
C1224 C 0.05172 0.81056 0.78077 0.0
O1225 O 0.03295 0.81424 0.80318 0.0
H1226 H 0.96239 0.80536 0.77253 0.0
H1227 H 1.00589 0.74295 0.8342 0.0
O1228 O 0.98336 0.75078 0.72543 0.0
H1229 H 0.06497 0.67133 0.72817 0.0
H1230 H 0.96844 0.77613 0.86663 0.0
Cu1231 Cu 0.29058 0.01787 0.77304 0.0
N1232 N 0.28736 0.0412 0.73636 0.0
N1233 N 0.3009 0.07579 0.70095 0.0
C1234 C 0.30395 0.06689 0.73132 0.0
C1235 C 0.28108 0.05507 0.68651 0.0
C1236 C 0.27284 0.03376 0.70839 0.0
O1237 O 0.29504 0.04659 0.80872 0.0
C1238 C 0.34908 0.99651 0.75595 0.0
O1239 O 0.35566 0.0253 0.75031 0.0
H1240 H 0.31973 0.07748 0.74915 0.0
H1241 H 0.25857 0.01343 0.70388 0.0
N1242 N 0.25569 0.9924 0.77586 0.0
N1243 N 0.2276 0.95044 0.78563 0.0
C1244 C 0.25586 0.96419 0.7884 0.0
C1245 C 0.22639 0.9966 0.7645 0.0
C1246 C 0.20896 0.97084 0.7707 0.0
C1247 C 0.27103 0.06063 0.81588 0.0
O1248 O 0.24452 0.05384 0.8004 0.0
H1249 H 0.27642 0.95392 0.79915 0.0
H1250 H 0.21839 0.01673 0.75206 0.0
O1251 O 0.32422 0.98964 0.76872 0.0
H1252 H 0.27385 0.05467 0.6617 0.0
H1253 H 0.18467 0.96706 0.76382 0.0
Cu1254 Cu 0.08642 0.27894 0.80112 0.0
N1255 N 0.06209 0.31295 0.80627 0.0
N1256 N 0.02338 0.34393 0.7921 0.0
C1257 C 0.03519 0.31605 0.78902 0.0
C1258 C 0.04374 0.35915 0.81227 0.0
C1259 C 0.06765 0.33988 0.8211 0.0
O1260 O 0.05565 0.24512 0.79646 0.0
C1261 C 0.13262 0.31132 0.77479 0.0
O1262 O 0.13556 0.3197 0.80445 0.0
H1263 H 0.02562 0.29878 0.77267 0.0
H1264 H 0.08828 0.34567 0.83583 0.0
N1265 N 0.11381 0.26959 0.83564 0.0
N1266 N 0.1547 0.24882 0.86199 0.0
C1267 C 0.13716 0.24998 0.8345 0.0
C1268 C 0.11635 0.28128 0.86488 0.0
C1269 C 0.14149 0.26854 0.88118 0.0
C1270 C 0.03832 0.24438 0.81954 0.0
O1271 O 0.04419 0.26381 0.84282 0.0
H1272 H 0.14122 0.23711 0.81359 0.0
H1273 H 0.10143 0.29833 0.87352 0.0
O1274 O 0.11185 0.29103 0.76647 0.0
H1275 H 0.04211 0.38281 0.81918 0.0
H1276 H 0.14976 0.27417 0.90506 0.0
Cu1277 Cu 0.78293 0.04328 0.76361 0.0
N1278 N 0.79317 0.06619 0.79998 0.0
N1279 N 0.82418 0.09762 0.83017 0.0
C1280 C 0.81907 0.08386 0.80194 0.0
C1281 C 0.80027 0.08822 0.84675 0.0
C1282 C 0.78108 0.06886 0.828 0.0
O1283 O 0.7751 0.07525 0.73207 0.0
C1284 C 0.81883 0.99837 0.78536 0.0
O1285 O 0.79732 1.00011 0.80536 0.0
H1286 H 0.83449 0.08563 0.78313 0.0
H1287 H 0.76026 0.05726 0.83457 0.0
N1288 N 0.74893 0.01582 0.763 0.0
N1289 N 0.71967 0.97629 0.744 0.0
C1290 C 0.7425 0.99657 0.73863 0.0
C1291 C 0.72944 1.00739 0.78481 0.0
C1292 C 0.71138 0.98284 0.77313 0.0
C1293 C 0.74734 0.08113 0.72234 0.0
O1294 O 0.72534 0.06079 0.72651 0.0
H1295 H 0.75522 0.99681 0.71769 0.0
H1296 H 0.72908 0.01754 0.80789 0.0
O1297 O 0.81836 0.01675 0.76208 0.0
H1298 H 0.79692 0.09471 0.87075 0.0
H1299 H 0.69376 0.97063 0.78518 0.0
Cu1300 Cu 0.2877 0.78105 0.53619 0.0
N1301 N 0.32372 0.78543 0.56321 0.0
N1302 N 0.35591 0.80689 0.60108 0.0
C1303 C 0.32826 0.80829 0.58443 0.0
C1304 C 0.36924 0.78196 0.58975 0.0
C1305 C 0.3494 0.76882 0.56643 0.0
O1306 O 0.25472 0.77588 0.5653 0.0
C1307 C 0.31161 0.81772 0.4925 0.0
O1308 O 0.33185 0.79608 0.49721 0.0
H1309 H 0.31137 0.82558 0.58756 0.0
H1310 H 0.3537 0.74892 0.55257 0.0
N1311 N 0.28643 0.74773 0.50787 0.0
N1312 N 0.27368 0.72231 0.46274 0.0
C1313 C 0.26984 0.74779 0.47988 0.0
C1314 C 0.30132 0.72111 0.50864 0.0
C1315 C 0.29342 0.70536 0.48094 0.0
C1316 C 0.25383 0.74997 0.57906 0.0
O1317 O 0.27212 0.72866 0.57018 0.0
H1318 H 0.25535 0.76649 0.47226 0.0
H1319 H 0.31703 0.71371 0.52776 0.0
O1320 O 0.28778 0.81694 0.50854 0.0
H1321 H 0.39206 0.77414 0.59711 0.0
H1322 H 0.30227 0.68354 0.47442 0.0
Cu1323 Cu 0.77745 0.7705 0.49354 0.0
N1324 N 0.80438 0.77269 0.46125 0.0
N1325 N 0.82866 0.75361 0.4212 0.0
C1326 C 0.8173 0.74794 0.44932 0.0
C1327 C 0.82272 0.78324 0.41523 0.0
C1328 C 0.80754 0.79488 0.43986 0.0
O1329 O 0.73759 0.76363 0.47068 0.0
C1330 C 0.81967 0.74143 0.53151 0.0
O1331 O 0.83578 0.765 0.52197 0.0
H1332 H 0.81616 0.72556 0.45995 0.0
H1333 H 0.79757 0.8172 0.44096 0.0
N1334 N 0.77655 0.80544 0.51878 0.0
N1335 N 0.75977 0.83392 0.55745 0.0
C1336 C 0.76241 0.8055 0.54587 0.0
C1337 C 0.78407 0.83484 0.51335 0.0
C1338 C 0.77381 0.85249 0.53729 0.0
C1339 C 0.71583 0.78257 0.47114 0.0
O1340 O 0.71454 0.80061 0.49557 0.0
H1341 H 0.75241 0.78509 0.55569 0.0
H1342 H 0.79456 0.84307 0.49263 0.0
O1343 O 0.79145 0.73814 0.52143 0.0
H1344 H 0.82797 0.79536 0.3941 0.0
H1345 H 0.77464 0.87718 0.53851 0.0
Cu1346 Cu 0.77272 0.28093 0.55651 0.0
N1347 N 0.76613 0.24814 0.52804 0.0
N1348 N 0.74927 0.2246 0.48315 0.0
C1349 C 0.75708 0.25152 0.49732 0.0
C1350 C 0.75375 0.20329 0.50569 0.0
C1351 C 0.76444 0.21786 0.53335 0.0
O1352 O 0.77903 0.31679 0.53014 0.0
C1353 C 0.71886 0.2615 0.5877 0.0
O1354 O 0.71223 0.24344 0.56344 0.0
H1355 H 0.75479 0.27346 0.48588 0.0
H1356 H 0.7691 0.2073 0.55605 0.0
N1357 N 0.80873 0.27882 0.58345 0.0
N1358 N 0.84544 0.29578 0.61945 0.0
C1359 C 0.81963 0.30255 0.60147 0.0
C1360 C 0.8282 0.25596 0.59021 0.0
C1361 C 0.85098 0.26641 0.61232 0.0
C1362 C 0.80472 0.31637 0.51727 0.0
O1363 O 0.82309 0.29338 0.52317 0.0
H1364 H 0.8089 0.32459 0.60088 0.0
H1365 H 0.82598 0.23337 0.57989 0.0
O1366 O 0.74013 0.28199 0.58617 0.0
H1367 H 0.74922 0.17903 0.50247 0.0
H1368 H 0.86991 0.25325 0.62254 0.0
Cu1369 Cu 0.28122 0.2941 0.51264 0.0
N1370 N 0.27802 0.32898 0.53716 0.0
N1371 N 0.26213 0.3584 0.57532 0.0
C1372 C 0.26394 0.32971 0.56424 0.0
C1373 C 0.27599 0.37639 0.5545 0.0
C1374 C 0.28583 0.35812 0.53095 0.0
O1375 O 0.29216 0.2605 0.54072 0.0
C1376 C 0.22277 0.30745 0.48234 0.0
O1377 O 0.22077 0.32732 0.50512 0.0
H1378 H 0.25376 0.30968 0.57463 0.0
H1379 H 0.29693 0.36559 0.51029 0.0
N1380 N 0.31274 0.29761 0.48537 0.0
N1381 N 0.34041 0.28206 0.44648 0.0
C1382 C 0.31311 0.28007 0.45954 0.0
C1383 C 0.34073 0.31167 0.48868 0.0
C1384 C 0.35801 0.30188 0.46471 0.0
C1385 C 0.3164 0.26617 0.55866 0.0
O1386 O 0.32972 0.29334 0.55734 0.0
H1387 H 0.29453 0.26418 0.45201 0.0
H1388 H 0.34865 0.32645 0.50809 0.0
O1389 O 0.24417 0.28801 0.48453 0.0
H1390 H 0.27841 0.401 0.55587 0.0
H1391 H 0.382 0.30773 0.46177 0.0
Cu1392 Cu 0.79352 0.51593 0.76412 0.0
N1393 N 0.78869 0.53519 0.72526 0.0
N1394 N 0.80057 0.5672 0.68704 0.0
C1395 C 0.80186 0.56222 0.71831 0.0
C1396 C 0.78539 0.54257 0.67387 0.0
C1397 C 0.77805 0.52285 0.69756 0.0
O1398 O 0.79822 0.54816 0.7961 0.0
C1399 C 0.85122 0.49415 0.74636 0.0
O1400 O 0.85436 0.52116 0.73351 0.0
H1401 H 0.8149 0.57642 0.7356 0.0
H1402 H 0.76775 0.5002 0.69467 0.0
N1403 N 0.7596 0.49016 0.76969 0.0
N1404 N 0.73311 0.44796 0.78166 0.0
C1405 C 0.76093 0.46253 0.78337 0.0
C1406 C 0.73002 0.49315 0.75865 0.0
C1407 C 0.71354 0.46722 0.76625 0.0
C1408 C 0.77454 0.56027 0.8066 0.0
O1409 O 0.74703 0.54865 0.79818 0.0
H1410 H 0.78202 0.45319 0.79403 0.0
H1411 H 0.72127 0.5125 0.74538 0.0
O1412 O 0.82847 0.48888 0.76298 0.0
H1413 H 0.78145 0.53832 0.64888 0.0
H1414 H 0.68929 0.46249 0.75996 0.0
Cu1415 Cu 0.30439 0.54088 0.79084 0.0
N1416 N 0.30892 0.5202 0.82935 0.0
N1417 N 0.32652 0.48765 0.86641 0.0
C1418 C 0.32903 0.49801 0.83698 0.0
C1419 C 0.30423 0.50425 0.87817 0.0
C1420 C 0.29334 0.52427 0.85518 0.0
O1421 O 0.29046 0.51255 0.75661 0.0
C1422 C 0.36725 0.56503 0.79894 0.0
O1423 O 0.37591 0.5377 0.80779 0.0
H1424 H 0.34574 0.48987 0.82155 0.0
H1425 H 0.27526 0.54059 0.85712 0.0
N1426 N 0.27211 0.56799 0.79069 0.0
N1427 N 0.24556 0.6083 0.77323 0.0
C1428 C 0.27375 0.59654 0.77918 0.0
C1429 C 0.24182 0.56149 0.79235 0.0
C1430 C 0.22533 0.58641 0.78162 0.0
C1431 C 0.29467 0.48386 0.75532 0.0
O1432 O 0.31579 0.47155 0.77444 0.0
H1433 H 0.29495 0.60735 0.77242 0.0
H1434 H 0.23236 0.5394 0.79848 0.0
O1435 O 0.33997 0.56853 0.78671 0.0
H1436 H 0.29602 0.50169 0.90143 0.0
H1437 H 0.20042 0.58774 0.77867 0.0
Cu1438 Cu 0.27425 0.53083 0.27876 0.0
N1439 N 0.264 0.50836 0.31393 0.0
N1440 N 0.24244 0.46902 0.33823 0.0
C1441 C 0.25345 0.47928 0.3114 0.0
C1442 C 0.24623 0.49253 0.35874 0.0
C1443 C 0.25984 0.51684 0.34369 0.0
O1444 O 0.28973 0.50144 0.2493 0.0
C1445 C 0.22007 0.5641 0.28369 0.0
O1446 O 0.20994 0.54345 0.30297 0.0
H1447 H 0.25217 0.46642 0.28961 0.0
H1448 H 0.2646 0.53954 0.35314 0.0
N1449 N 0.30536 0.56044 0.28554 0.0
N1450 N 0.32873 0.59964 0.26244 0.0
C1451 C 0.3208 0.56971 0.26084 0.0
C1452 C 0.30412 0.58533 0.30395 0.0
C1453 C 0.31862 0.60956 0.28978 0.0
C1454 C 0.31261 0.48635 0.26103 0.0
O1455 O 0.32288 0.49213 0.29023 0.0
H1456 H 0.32166 0.55609 0.23972 0.0
H1457 H 0.28977 0.58698 0.32357 0.0
O1458 O 0.2398 0.55636 0.26449 0.0
H1459 H 0.23902 0.49236 0.38252 0.0
H1460 H 0.31903 0.63314 0.29748 0.0
Cu1461 Cu 0.75641 0.54166 0.26781 0.0
N1462 N 0.75847 0.52017 0.30592 0.0
N1463 N 0.77303 0.48563 0.34262 0.0
C1464 C 0.77556 0.49539 0.31277 0.0
C1465 C 0.75299 0.50493 0.35465 0.0
C1466 C 0.74412 0.52609 0.33206 0.0
O1467 O 0.74915 0.51081 0.23461 0.0
C1468 C 0.81951 0.56395 0.28023 0.0
O1469 O 0.82553 0.53712 0.2925 0.0
H1470 H 0.79031 0.48539 0.29633 0.0
H1471 H 0.72855 0.5447 0.33461 0.0
N1472 N 0.72401 0.56937 0.26513 0.0
N1473 N 0.69962 0.6124 0.25127 0.0
C1474 C 0.72685 0.59799 0.25398 0.0
C1475 C 0.69384 0.56537 0.26978 0.0
C1476 C 0.67872 0.59189 0.26123 0.0
C1477 C 0.73053 0.51477 0.21057 0.0
O1478 O 0.71957 0.54206 0.20507 0.0
H1479 H 0.74841 0.60756 0.24671 0.0
H1480 H 0.68345 0.54442 0.27794 0.0
O1481 O 0.79315 0.56825 0.26611 0.0
H1482 H 0.74527 0.50414 0.3782 0.0
H1483 H 0.65425 0.59566 0.26214 0.0
Cu1484 Cu 0.51618 0.26549 0.77611 0.0
N1485 N 0.48642 0.28616 0.79791 0.0
N1486 N 0.45846 0.31245 0.83036 0.0
C1487 C 0.48099 0.29173 0.82831 0.0
C1488 C 0.44938 0.31982 0.80061 0.0
C1489 C 0.46652 0.30377 0.78089 0.0
O1490 O 0.49374 0.25091 0.73718 0.0
C1491 C 0.56207 0.30814 0.79531 0.0
O1492 O 0.54494 0.31003 0.81933 0.0
H1493 H 0.49449 0.28258 0.8483 0.0
H1494 H 0.46554 0.30575 0.75556 0.0
N1495 N 0.53579 0.23062 0.79283 0.0
N1496 N 0.57801 0.20523 0.78092 0.0
C1497 C 0.56703 0.23076 0.79335 0.0
C1498 C 0.52715 0.20236 0.78241 0.0
C1499 C 0.55295 0.18692 0.77468 0.0
C1500 C 0.4674 0.23811 0.74061 0.0
O1501 O 0.45749 0.23586 0.76892 0.0
H1502 H 0.58113 0.25117 0.79682 0.0
H1503 H 0.50366 0.19539 0.77523 0.0
O1504 O 0.55104 0.29373 0.77078 0.0
H1505 H 0.43244 0.33674 0.79375 0.0
H1506 H 0.55279 0.16561 0.76177 0.0
Cu1507 Cu 0.57948 0.77469 0.78687 0.0
N1508 N 0.61457 0.77387 0.81518 0.0
N1509 N 0.65924 0.7578 0.83819 0.0
C1510 C 0.63315 0.74992 0.82052 0.0
C1511 C 0.65646 0.78773 0.84487 0.0
C1512 C 0.62898 0.79758 0.83057 0.0
O1513 O 0.59254 0.77839 0.74408 0.0
C1514 C 0.54452 0.73968 0.82433 0.0
O1515 O 0.55959 0.75814 0.84469 0.0
H1516 H 0.62835 0.7276 0.81015 0.0
H1517 H 0.62087 0.82073 0.83001 0.0
N1518 N 0.55659 0.80975 0.79099 0.0
N1519 N 0.52066 0.84339 0.77573 0.0
C1520 C 0.53907 0.82115 0.76672 0.0
C1521 C 0.54918 0.82539 0.81648 0.0
C1522 C 0.52691 0.84622 0.8071 0.0
C1523 C 0.62045 0.77658 0.73689 0.0
O1524 O 0.6405 0.76274 0.75604 0.0
H1525 H 0.53849 0.81188 0.74313 0.0
H1526 H 0.55827 0.8211 0.8403 0.0
O1527 O 0.5509 0.74116 0.79562 0.0
H1528 H 0.67389 0.802 0.85752 0.0
H1529 H 0.51573 0.86169 0.82225 0.0
Cu1530 Cu 0.48838 0.80905 0.26801 0.0
N1531 N 0.46305 0.84198 0.27458 0.0
N1532 N 0.42999 0.87066 0.29881 0.0
C1533 C 0.44328 0.84321 0.29747 0.0
C1534 C 0.44178 0.88731 0.27565 0.0
C1535 C 0.46212 0.8695 0.26065 0.0
O1536 O 0.46128 0.77402 0.25675 0.0
C1537 C 0.53083 0.829 0.31594 0.0
O1538 O 0.5187 0.85534 0.30826 0.0
H1539 H 0.43976 0.8247 0.31371 0.0
H1540 H 0.47591 0.87636 0.2416 0.0
N1541 N 0.51419 0.81426 0.23509 0.0
N1542 N 0.55544 0.79925 0.21099 0.0
C1543 C 0.54365 0.80534 0.2386 0.0
C1544 C 0.50716 0.81471 0.20382 0.0
C1545 C 0.53279 0.80574 0.18883 0.0
C1546 C 0.47022 0.75141 0.24122 0.0
O1547 O 0.49985 0.74864 0.23775 0.0
H1548 H 0.55519 0.80032 0.26116 0.0
H1549 H 0.4842 0.8179 0.19289 0.0
O1550 O 0.51774 0.80459 0.3045 0.0
H1551 H 0.43632 0.91075 0.27013 0.0
H1552 H 0.53361 0.80143 0.1639 0.0
Cu1553 Cu 0.53699 0.28328 0.25583 0.0
N1554 N 0.50842 0.25025 0.25404 0.0
N1555 N 0.46798 0.22238 0.26854 0.0
C1556 C 0.48526 0.24817 0.27336 0.0
C1557 C 0.4808 0.20747 0.24519 0.0
C1558 C 0.50564 0.22487 0.23607 0.0
O1559 O 0.51111 0.31891 0.25984 0.0
C1560 C 0.57996 0.24807 0.28855 0.0
O1561 O 0.56892 0.22927 0.2663 0.0
H1562 H 0.48167 0.26504 0.29124 0.0
H1563 H 0.52089 0.21907 0.21812 0.0
N1564 N 0.55781 0.28971 0.21934 0.0
N1565 N 0.58964 0.31315 0.18724 0.0
C1566 C 0.58057 0.31092 0.21688 0.0
C1567 C 0.55216 0.27795 0.19032 0.0
C1568 C 0.57175 0.29226 0.17053 0.0
C1569 C 0.4894 0.31953 0.23797 0.0
O1570 O 0.48794 0.29829 0.21612 0.0
H1571 H 0.58974 0.32482 0.23651 0.0
H1572 H 0.53427 0.2611 0.18368 0.0
O1573 O 0.56893 0.27483 0.28953 0.0
H1574 H 0.47286 0.18558 0.23549 0.0
H1575 H 0.57175 0.28832 0.14549 0.0
loop_
_geom_bond_atom_site_label_1
_geom_bond_atom_site_label_2
_geom_bond_distance
_geom_bond_site_symmetry_2
_ccdc_geom_bond_type
P0 O11 1.490 . S
P0 C14 1.812 . S
P0 C20 1.803 . S
P0 C26 1.819 . S
H1 C15 0.941 . S
H2 C16 0.939 . S
H3 C18 0.940 . S
H4 C19 0.940 . S
H5 C21 0.939 . S
H6 C22 0.942 . S
H7 C24 0.940 . S
H8 C25 0.939 . S
H9 C27 0.941 . S
H10 C31 0.939 . S
O11 P0 1.490 . S
H12 C28 0.939 . S
H13 C30 0.940 . S
C14 P0 1.812 . S
C14 C15 1.389 . S
C14 C19 1.391 . S
C15 H1 0.941 . S
C15 C14 1.389 . S
C15 C16 1.397 . S
C16 H2 0.939 . S
C16 C15 1.397 . S
C16 C17 1.378 . S
C17 C16 1.378 . S
C17 C18 1.378 . S
C18 H3 0.940 . S
C18 C17 1.378 . S
C18 C19 1.396 . S
C19 H4 0.940 . S
C19 C14 1.391 . S
C19 C18 1.396 . S
C20 P0 1.803 . S
C20 C21 1.378 . S
C20 C25 1.400 . S
C21 H5 0.939 . S
C21 C20 1.378 . S
C21 C22 1.361 . S
C22 H6 0.942 . S
C22 C21 1.361 . S
C22 C23 1.369 . S
C23 C22 1.369 . S
C23 C24 1.404 . S
C24 H7 0.940 . S
C24 C23 1.404 . S
C24 C25 1.389 . S
C25 H8 0.939 . S
C25 C20 1.400 . S
C25 C24 1.389 . S
C26 P0 1.819 . S
C26 C27 1.391 . S
C26 C31 1.391 . S
C27 H9 0.941 . S
C27 C26 1.391 . S
C27 C28 1.396 . S
C28 H12 0.939 . S
C28 C27 1.396 . S
C28 C29 1.397 . S
C29 C28 1.397 . S
C29 C30 1.385 . S
C30 H13 0.940 . S
C30 C29 1.385 . S
C30 C31 1.388 . S
C31 H10 0.939 . S
C31 C26 1.391 . S
C31 C30 1.388 . S
P32 O43 1.490 . S
P32 C46 1.812 . S
P32 C52 1.803 . S
P32 C58 1.819 . S
H33 C47 0.941 . S
H34 C48 0.939 . S
H35 C50 0.940 . S
H36 C51 0.940 . S
H37 C53 0.939 . S
H38 C54 0.942 . S
H39 C56 0.940 . S
H40 C57 0.939 . S
H41 C59 0.941 . S
H42 C63 0.939 . S
O43 P32 1.490 . S
H44 C60 0.939 . S
H45 C62 0.940 . S
C46 P32 1.812 . S
C46 C47 1.389 . S
C46 C51 1.391 . S
C47 H33 0.941 . S
C47 C46 1.389 . S
C47 C48 1.397 . S
C48 H34 0.939 . S
C48 C47 1.397 . S
C48 C49 1.378 . S
C49 C48 1.378 . S
C49 C50 1.378 . S
C50 H35 0.940 . S
C50 C49 1.378 . S
C50 C51 1.396 . S
C51 H36 0.940 . S
C51 C46 1.391 . S
C51 C50 1.396 . S
C52 P32 1.803 . S
C52 C53 1.378 . S
C52 C57 1.400 . S
C53 H37 0.939 . S
C53 C52 1.378 . S
C53 C54 1.361 . S
C54 H38 0.942 . S
C54 C53 1.361 . S
C54 C55 1.369 . S
C55 C54 1.369 . S
C55 C56 1.404 . S
C56 H39 0.940 . S
C56 C55 1.404 . S
C56 C57 1.389 . S
C57 H40 0.939 . S
C57 C52 1.400 . S
C57 C56 1.389 . S
C58 P32 1.819 . S
C58 C59 1.391 . S
C58 C63 1.391 . S
C59 H41 0.941 . S
C59 C58 1.391 . S
C59 C60 1.396 . S
C60 H44 0.939 . S
C60 C59 1.396 . S
C60 C61 1.397 . S
C61 C60 1.397 . S
C61 C62 1.385 . S
C62 H45 0.940 . S
C62 C61 1.385 . S
C62 C63 1.388 . S
C63 H42 0.939 . S
C63 C58 1.391 . S
C63 C62 1.388 . S
P64 O75 1.490 . S
P64 C78 1.812 . S
P64 C84 1.803 . S
P64 C90 1.819 . S
H65 C79 0.941 . S
H66 C80 0.939 . S
H67 C82 0.940 . S
H68 C83 0.940 . S
H69 C85 0.939 . S
H70 C86 0.942 . S
H71 C88 0.940 . S
H72 C89 0.939 . S
H73 C91 0.941 . S
H74 C95 0.939 . S
O75 P64 1.490 . S
H76 C92 0.939 . S
H77 C94 0.940 . S
C78 P64 1.812 . S
C78 C79 1.389 . S
C78 C83 1.391 . S
C79 H65 0.941 . S
C79 C78 1.389 . S
C79 C80 1.397 . S
C80 H66 0.939 . S
C80 C79 1.397 . S
C80 C81 1.378 . S
C81 C80 1.378 . S
C81 C82 1.378 . S
C82 H67 0.940 . S
C82 C81 1.378 . S
C82 C83 1.396 . S
C83 H68 0.940 . S
C83 C78 1.391 . S
C83 C82 1.396 . S
C84 P64 1.803 . S
C84 C85 1.378 . S
C84 C89 1.400 . S
C85 H69 0.939 . S
C85 C84 1.378 . S
C85 C86 1.361 . S
C86 H70 0.942 . S
C86 C85 1.361 . S
C86 C87 1.369 . S
C87 C86 1.369 . S
C87 C88 1.404 . S
C88 H71 0.940 . S
C88 C87 1.404 . S
C88 C89 1.389 . S
C89 H72 0.939 . S
C89 C84 1.400 . S
C89 C88 1.389 . S
C90 P64 1.819 . S
C90 C91 1.391 . S
C90 C95 1.391 . S
C91 H73 0.941 . S
C91 C90 1.391 . S
C91 C92 1.396 . S
C92 H76 0.939 . S
C92 C91 1.396 . S
C92 C93 1.397 . S
C93 C92 1.397 . S
C93 C94 1.385 . S
C94 H77 0.940 . S
C94 C93 1.385 . S
C94 C95 1.388 . S
C95 H74 0.939 . S
C95 C90 1.391 . S
C95 C94 1.388 . S
P96 O107 1.490 . S
P96 C110 1.812 . S
P96 C116 1.803 . S
P96 C122 1.819 . S
H97 C111 0.941 . S
H98 C112 0.939 . S
H99 C114 0.940 . S
H100 C115 0.940 . S
H101 C117 0.939 . S
H102 C118 0.942 . S
H103 C120 0.940 . S
H104 C121 0.939 . S
H105 C123 0.941 . S
H106 C127 0.939 . S
O107 P96 1.490 . S
H108 C124 0.939 . S
H109 C126 0.940 . S
C110 P96 1.812 . S
C110 C111 1.389 . S
C110 C115 1.391 . S
C111 H97 0.941 . S
C111 C110 1.389 . S
C111 C112 1.397 . S
C112 H98 0.939 . S
C112 C111 1.397 . S
C112 C113 1.378 . S
C113 C112 1.378 . S
C113 C114 1.378 . S
C114 H99 0.940 . S
C114 C113 1.378 . S
C114 C115 1.396 . S
C115 H100 0.940 . S
C115 C110 1.391 . S
C115 C114 1.396 . S
C116 P96 1.803 . S
C116 C117 1.378 . S
C116 C121 1.400 . S
C117 H101 0.939 . S
C117 C116 1.378 . S
C117 C118 1.361 . S
C118 H102 0.942 . S
C118 C117 1.361 . S
C118 C119 1.369 . S
C119 C118 1.369 . S
C119 C120 1.404 . S
C120 H103 0.940 . S
C120 C119 1.404 . S
C120 C121 1.389 . S
C121 H104 0.939 . S
C121 C116 1.400 . S
C121 C120 1.389 . S
C122 P96 1.819 . S
C122 C123 1.391 . S
C122 C127 1.391 . S
C123 H105 0.941 . S
C123 C122 1.391 . S
C123 C124 1.396 . S
C124 H108 0.939 . S
C124 C123 1.396 . S
C124 C125 1.397 . S
C125 C124 1.397 . S
C125 C126 1.385 . S
C126 H109 0.940 . S
C126 C125 1.385 . S
C126 C127 1.388 . S
C127 H106 0.939 . S
C127 C122 1.391 . S
C127 C126 1.388 . S
P128 O139 1.490 . S
P128 C142 1.812 . S
P128 C148 1.803 . S
P128 C154 1.819 . S
H129 C143 0.941 . S
H130 C144 0.939 . S
H131 C146 0.940 . S
H132 C147 0.940 . S
H133 C149 0.939 . S
H134 C150 0.942 . S
H135 C152 0.940 . S
H136 C153 0.939 . S
H137 C155 0.941 . S
H138 C159 0.939 . S
O139 P128 1.490 . S
H140 C156 0.939 . S
H141 C158 0.940 . S
C142 P128 1.812 . S
C142 C143 1.389 . S
C142 C147 1.391 . S
C143 H129 0.941 . S
C143 C142 1.389 . S
C143 C144 1.397 . S
C144 H130 0.939 . S
C144 C143 1.397 . S
C144 C145 1.378 . S
C145 C144 1.378 . S
C145 C146 1.378 . S
C146 H131 0.940 . S
C146 C145 1.378 . S
C146 C147 1.396 . S
C147 H132 0.940 . S
C147 C142 1.391 . S
C147 C146 1.396 . S
C148 P128 1.803 . S
C148 C149 1.378 . S
C148 C153 1.400 . S
C149 H133 0.939 . S
C149 C148 1.378 . S
C149 C150 1.361 . S
C150 H134 0.942 . S
C150 C149 1.361 . S
C150 C151 1.369 . S
C151 C150 1.369 . S
C151 C152 1.404 . S
C152 H135 0.940 . S
C152 C151 1.404 . S
C152 C153 1.389 . S
C153 H136 0.939 . S
C153 C148 1.400 . S
C153 C152 1.389 . S
C154 P128 1.819 . S
C154 C155 1.391 . S
C154 C159 1.391 . S
C155 H137 0.941 . S
C155 C154 1.391 . S
C155 C156 1.396 . S
C156 H140 0.939 . S
C156 C155 1.396 . S
C156 C157 1.397 . S
C157 C156 1.397 . S
C157 C158 1.385 . S
C158 H141 0.940 . S
C158 C157 1.385 . S
C158 C159 1.388 . S
C159 H138 0.939 . S
C159 C154 1.391 . S
C159 C158 1.388 . S
P160 O171 1.490 . S
P160 C174 1.812 . S
P160 C180 1.803 . S
P160 C186 1.819 . S
H161 C175 0.941 . S
H162 C176 0.939 . S
H163 C178 0.940 . S
H164 C179 0.940 . S
H165 C181 0.939 . S
H166 C182 0.942 . S
H167 C184 0.940 . S
H168 C185 0.939 . S
H169 C187 0.941 . S
H170 C191 0.939 . S
O171 P160 1.490 . S
H172 C188 0.939 . S
H173 C190 0.940 . S
C174 P160 1.812 . S
C174 C175 1.389 . S
C174 C179 1.391 . S
C175 H161 0.941 . S
C175 C174 1.389 . S
C175 C176 1.397 . S
C176 H162 0.939 . S
C176 C175 1.397 . S
C176 C177 1.378 . S
C177 C176 1.378 . S
C177 C178 1.378 . S
C178 H163 0.940 . S
C178 C177 1.378 . S
C178 C179 1.396 . S
C179 H164 0.940 . S
C179 C174 1.391 . S
C179 C178 1.396 . S
C180 P160 1.803 . S
C180 C181 1.378 . S
C180 C185 1.400 . S
C181 H165 0.939 . S
C181 C180 1.378 . S
C181 C182 1.361 . S
C182 H166 0.942 . S
C182 C181 1.361 . S
C182 C183 1.369 . S
C183 C182 1.369 . S
C183 C184 1.404 . S
C184 H167 0.940 . S
C184 C183 1.404 . S
C184 C185 1.389 . S
C185 H168 0.939 . S
C185 C180 1.400 . S
C185 C184 1.389 . S
C186 P160 1.819 . S
C186 C187 1.391 . S
C186 C191 1.391 . S
C187 H169 0.941 . S
C187 C186 1.391 . S
C187 C188 1.396 . S
C188 H172 0.939 . S
C188 C187 1.396 . S
C188 C189 1.397 . S
C189 C188 1.397 . S
C189 C190 1.385 . S
C190 H173 0.940 . S
C190 C189 1.385 . S
C190 C191 1.388 . S
C191 H170 0.939 . S
C191 C186 1.391 . S
C191 C190 1.388 . S
P192 O203 1.490 . S
P192 C206 1.812 . S
P192 C212 1.803 . S
P192 C218 1.819 . S
H193 C207 0.941 . S
H194 C208 0.939 . S
H195 C210 0.940 . S
H196 C211 0.940 . S
H197 C213 0.939 . S
H198 C214 0.942 1_455 S
H199 C216 0.940 . S
H200 C217 0.939 . S
H201 C219 0.941 . S
H202 C223 0.939 . S
O203 P192 1.490 . S
H204 C220 0.939 . S
H205 C222 0.940 . S
C206 P192 1.812 . S
C206 C207 1.389 . S
C206 C211 1.391 . S
C207 H193 0.941 . S
C207 C206 1.389 . S
C207 C208 1.397 . S
C208 H194 0.939 . S
C208 C207 1.397 . S
C208 C209 1.378 . S
C209 C208 1.378 . S
C209 C210 1.378 . S
C210 H195 0.940 . S
C210 C209 1.378 . S
C210 C211 1.396 . S
C211 H196 0.940 . S
C211 C206 1.391 . S
C211 C210 1.396 . S
C212 P192 1.803 . S
C212 C213 1.378 . S
C212 C217 1.400 . S
C213 H197 0.939 . S
C213 C212 1.378 . S
C213 C214 1.361 . S
C214 H198 0.942 1_655 S
C214 C213 1.361 . S
C214 C215 1.369 . S
C215 C214 1.369 . S
C215 C216 1.404 . S
C216 H199 0.940 . S
C216 C215 1.404 . S
C216 C217 1.389 . S
C217 H200 0.939 . S
C217 C212 1.400 . S
C217 C216 1.389 . S
C218 P192 1.819 . S
C218 C219 1.391 . S
C218 C223 1.391 . S
C219 H201 0.941 . S
C219 C218 1.391 . S
C219 C220 1.396 . S
C220 H204 0.939 . S
C220 C219 1.396 . S
C220 C221 1.397 . S
C221 C220 1.397 . S
C221 C222 1.385 . S
C222 H205 0.940 . S
C222 C221 1.385 . S
C222 C223 1.388 . S
C223 H202 0.939 . S
C223 C218 1.391 . S
C223 C222 1.388 . S
P224 O235 1.490 . S
P224 C238 1.812 . S
P224 C244 1.803 . S
P224 C250 1.819 . S
H225 C239 0.941 . S
H226 C240 0.939 . S
H227 C242 0.940 . S
H228 C243 0.940 . S
H229 C245 0.939 . S
H230 C246 0.959 . S
H231 C248 0.940 . S
H232 C249 0.939 . S
H233 C251 0.941 . S
H234 C255 0.939 . S
O235 P224 1.490 . S
H236 C252 0.939 . S
H237 C254 0.940 . S
C238 P224 1.812 . S
C238 C239 1.389 . S
C238 C243 1.391 . S
C239 H225 0.941 . S
C239 C238 1.389 . S
C239 C240 1.397 . S
C240 H226 0.939 . S
C240 C239 1.397 . S
C240 C241 1.378 . S
C241 C240 1.378 . S
C241 C242 1.378 . S
C242 H227 0.940 . S
C242 C241 1.378 . S
C242 C243 1.396 . S
C243 H228 0.940 . S
C243 C238 1.391 . S
C243 C242 1.396 . S
C244 P224 1.803 . S
C244 C245 1.378 . S
C244 C249 1.400 . S
C245 H229 0.939 . S
C245 C244 1.378 . S
C245 C246 1.361 . S
C246 H230 0.959 . S
C246 C245 1.361 . S
C246 C247 1.369 . S
C247 C246 1.369 . S
C247 C248 1.404 . S
C248 H231 0.940 . S
C248 C247 1.404 . S
C248 C249 1.389 . S
C249 H232 0.939 . S
C249 C244 1.400 . S
C249 C248 1.389 . S
C250 P224 1.819 . S
C250 C251 1.391 . S
C250 C255 1.391 . S
C251 H233 0.941 . S
C251 C250 1.391 . S
C251 C252 1.396 . S
C252 H236 0.939 . S
C252 C251 1.396 . S
C252 C253 1.397 . S
C253 C252 1.397 . S
C253 C254 1.385 . S
C254 H237 0.940 . S
C254 C253 1.385 . S
C254 C255 1.388 . S
C255 H234 0.939 . S
C255 C250 1.391 . S
C255 C254 1.388 . S
P256 O267 1.490 . S
P256 C270 1.812 . S
P256 C276 1.803 . S
P256 C282 1.819 . S
H257 C271 0.941 . S
H258 C272 0.939 . S
H259 C274 0.940 . S
H260 C275 0.940 . S
H261 C277 0.939 . S
H262 C278 0.942 . S
H263 C280 0.940 . S
H264 C281 0.939 . S
H265 C283 0.941 . S
H266 C287 0.939 . S
O267 P256 1.490 . S
H268 C284 0.939 . S
H269 C286 0.940 . S
C270 P256 1.812 . S
C270 C271 1.389 . S
C270 C275 1.391 . S
C271 H257 0.941 . S
C271 C270 1.389 . S
C271 C272 1.397 . S
C272 H258 0.939 . S
C272 C271 1.397 . S
C272 C273 1.378 . S
C273 C272 1.378 . S
C273 C274 1.378 . S
C274 H259 0.940 . S
C274 C273 1.378 . S
C274 C275 1.396 . S
C275 H260 0.940 . S
C275 C270 1.391 . S
C275 C274 1.396 . S
C276 P256 1.803 . S
C276 C277 1.378 . S
C276 C281 1.400 . S
C277 H261 0.939 . S
C277 C276 1.378 . S
C277 C278 1.361 . S
C278 H262 0.942 . S
C278 C277 1.361 . S
C278 C279 1.369 . S
C279 C278 1.369 . S
C279 C280 1.404 . S
C280 H263 0.940 . S
C280 C279 1.404 . S
C280 C281 1.389 . S
C281 H264 0.939 . S
C281 C276 1.400 . S
C281 C280 1.389 . S
C282 P256 1.819 . S
C282 C283 1.391 . S
C282 C287 1.391 . S
C283 H265 0.941 . S
C283 C282 1.391 . S
C283 C284 1.396 . S
C284 H268 0.939 . S
C284 C283 1.396 . S
C284 C285 1.397 . S
C285 C284 1.397 . S
C285 C286 1.385 . S
C286 H269 0.940 . S
C286 C285 1.385 . S
C286 C287 1.388 . S
C287 H266 0.939 . S
C287 C282 1.391 . S
C287 C286 1.388 . S
P288 O299 1.490 . S
P288 C302 1.812 . S
P288 C308 1.803 . S
P288 C314 1.819 . S
H289 C303 0.941 . S
H290 C304 0.939 . S
H291 C306 0.940 . S
H292 C307 0.940 . S
H293 C309 0.939 . S
H294 C310 0.942 . S
H295 C312 0.940 . S
H296 C313 0.939 . S
H297 C315 0.941 . S
H298 C319 0.939 . S
O299 P288 1.490 . S
H300 C316 0.939 . S
H301 C318 0.940 . S
C302 P288 1.812 . S
C302 C303 1.389 . S
C302 C307 1.391 . S
C303 H289 0.941 . S
C303 C302 1.389 . S
C303 C304 1.397 . S
C304 H290 0.939 . S
C304 C303 1.397 . S
C304 C305 1.378 . S
C305 C304 1.378 . S
C305 C306 1.378 . S
C306 H291 0.940 . S
C306 C305 1.378 . S
C306 C307 1.396 . S
C307 H292 0.940 . S
C307 C302 1.391 . S
C307 C306 1.396 . S
C308 P288 1.803 . S
C308 C309 1.378 . S
C308 C313 1.400 . S
C309 H293 0.939 . S
C309 C308 1.378 . S
C309 C310 1.361 . S
C310 H294 0.942 . S
C310 C309 1.361 . S
C310 C311 1.369 . S
C311 C310 1.369 . S
C311 C312 1.404 . S
C312 H295 0.940 . S
C312 C311 1.404 . S
C312 C313 1.389 . S
C313 H296 0.939 . S
C313 C308 1.400 . S
C313 C312 1.389 . S
C314 P288 1.819 . S
C314 C315 1.391 . S
C314 C319 1.391 . S
C315 H297 0.941 . S
C315 C314 1.391 . S
C315 C316 1.396 . S
C316 H300 0.939 . S
C316 C315 1.396 . S
C316 C317 1.397 . S
C317 C316 1.397 . S
C317 C318 1.385 . S
C318 H301 0.940 . S
C318 C317 1.385 . S
C318 C319 1.388 . S
C319 H298 0.939 . S
C319 C314 1.391 . S
C319 C318 1.388 . S
P320 O331 1.490 . S
P320 C334 1.812 . S
P320 C340 1.803 . S
P320 C346 1.819 . S
H321 C335 0.941 . S
H322 C336 0.939 . S
H323 C338 0.940 . S
H324 C339 0.940 . S
H325 C341 0.939 . S
H326 C342 0.942 . S
H327 C344 0.940 . S
H328 C345 0.939 . S
H329 C347 0.941 . S
H330 C351 0.939 . S
O331 P320 1.490 . S
H332 C348 0.939 . S
H333 C350 0.940 . S
C334 P320 1.812 . S
C334 C335 1.389 . S
C334 C339 1.391 . S
C335 H321 0.941 . S
C335 C334 1.389 . S
C335 C336 1.397 . S
C336 H322 0.939 . S
C336 C335 1.397 . S
C336 C337 1.378 . S
C337 C336 1.378 . S
C337 C338 1.378 . S
C338 H323 0.940 . S
C338 C337 1.378 . S
C338 C339 1.396 . S
C339 H324 0.940 . S
C339 C334 1.391 . S
C339 C338 1.396 . S
C340 P320 1.803 . S
C340 C341 1.378 . S
C340 C345 1.400 . S
C341 H325 0.939 . S
C341 C340 1.378 . S
C341 C342 1.361 . S
C342 H326 0.942 . S
C342 C341 1.361 . S
C342 C343 1.369 . S
C343 C342 1.369 . S
C343 C344 1.404 . S
C344 H327 0.940 . S
C344 C343 1.404 . S
C344 C345 1.389 . S
C345 H328 0.939 . S
C345 C340 1.400 . S
C345 C344 1.389 . S
C346 P320 1.819 . S
C346 C347 1.391 . S
C346 C351 1.391 . S
C347 H329 0.941 . S
C347 C346 1.391 . S
C347 C348 1.396 . S
C348 H332 0.939 . S
C348 C347 1.396 . S
C348 C349 1.397 . S
C349 C348 1.397 . S
C349 C350 1.385 . S
C350 H333 0.940 . S
C350 C349 1.385 . S
C350 C351 1.388 . S
C351 H330 0.939 . S
C351 C346 1.391 . S
C351 C350 1.388 . S
P352 O363 1.490 . S
P352 C366 1.812 . S
P352 C372 1.803 . S
P352 C378 1.819 . S
H353 C367 0.941 . S
H354 C368 0.939 . S
H355 C370 0.940 . S
H356 C371 0.940 . S
H357 C373 0.939 . S
H358 C374 0.942 . S
H359 C376 0.940 . S
H360 C377 0.939 . S
H361 C379 0.941 . S
H362 C383 0.939 . S
O363 P352 1.490 . S
H364 C380 0.939 . S
H365 C382 0.940 . S
C366 P352 1.812 . S
C366 C367 1.389 . S
C366 C371 1.391 . S
C367 H353 0.941 . S
C367 C366 1.389 . S
C367 C368 1.397 . S
C368 H354 0.939 . S
C368 C367 1.397 . S
C368 C369 1.378 . S
C369 C368 1.378 . S
C369 C370 1.378 . S
C370 H355 0.940 . S
C370 C369 1.378 . S
C370 C371 1.396 . S
C371 H356 0.940 . S
C371 C366 1.391 . S
C371 C370 1.396 . S
C372 P352 1.803 . S
C372 C373 1.378 . S
C372 C377 1.400 . S
C373 H357 0.939 . S
C373 C372 1.378 . S
C373 C374 1.361 . S
C374 H358 0.942 . S
C374 C373 1.361 . S
C374 C375 1.369 . S
C375 C374 1.369 . S
C375 C376 1.404 . S
C376 H359 0.940 . S
C376 C375 1.404 . S
C376 C377 1.389 . S
C377 H360 0.939 . S
C377 C372 1.400 . S
C377 C376 1.389 . S
C378 P352 1.819 . S
C378 C379 1.391 . S
C378 C383 1.391 . S
C379 H361 0.941 . S
C379 C378 1.391 . S
C379 C380 1.396 . S
C380 H364 0.939 . S
C380 C379 1.396 . S
C380 C381 1.397 . S
C381 C380 1.397 . S
C381 C382 1.385 . S
C382 H365 0.940 . S
C382 C381 1.385 . S
C382 C383 1.388 . S
C383 H362 0.939 . S
C383 C378 1.391 . S
C383 C382 1.388 . S
P384 O395 1.490 . S
P384 C398 1.812 . S
P384 C404 1.803 . S
P384 C410 1.819 . S
H385 C399 0.941 . S
H386 C400 0.939 . S
H387 C402 0.940 . S
H388 C403 0.940 . S
H389 C405 0.939 . S
H390 C406 0.942 . S
H391 C408 0.940 . S
H392 C409 0.939 . S
H393 C411 0.941 . S
H394 C415 0.939 . S
O395 P384 1.490 . S
H396 C412 0.939 . S
H397 C414 0.940 . S
C398 P384 1.812 . S
C398 C399 1.389 . S
C398 C403 1.391 . S
C399 H385 0.941 . S
C399 C398 1.389 . S
C399 C400 1.397 . S
C400 H386 0.939 . S
C400 C399 1.397 . S
C400 C401 1.378 . S
C401 C400 1.378 . S
C401 C402 1.378 . S
C402 H387 0.940 . S
C402 C401 1.378 . S
C402 C403 1.396 . S
C403 H388 0.940 . S
C403 C398 1.391 . S
C403 C402 1.396 . S
C404 P384 1.803 . S
C404 C405 1.378 . S
C404 C409 1.400 . S
C405 H389 0.939 . S
C405 C404 1.378 . S
C405 C406 1.361 . S
C406 H390 0.942 . S
C406 C405 1.361 . S
C406 C407 1.369 . S
C407 C406 1.369 . S
C407 C408 1.404 . S
C408 H391 0.940 . S
C408 C407 1.404 . S
C408 C409 1.389 . S
C409 H392 0.939 . S
C409 C404 1.400 . S
C409 C408 1.389 . S
C410 P384 1.819 . S
C410 C411 1.391 . S
C410 C415 1.391 . S
C411 H393 0.941 . S
C411 C410 1.391 . S
C411 C412 1.396 . S
C412 H396 0.939 . S
C412 C411 1.396 . S
C412 C413 1.397 . S
C413 C412 1.397 . S
C413 C414 1.385 . S
C414 H397 0.940 . S
C414 C413 1.385 . S
C414 C415 1.388 . S
C415 H394 0.939 . S
C415 C410 1.391 . S
C415 C414 1.388 . S
P416 O427 1.490 . S
P416 C430 1.812 . S
P416 C436 1.803 . S
P416 C442 1.819 . S
H417 C431 0.941 . S
H418 C432 0.939 . S
H419 C434 0.940 . S
H420 C435 0.940 . S
H421 C437 0.939 . S
H422 C438 0.942 . S
H423 C440 0.940 . S
H424 C441 0.939 . S
H425 C443 0.941 . S
H426 C447 0.939 . S
O427 P416 1.490 . S
H428 C444 0.939 . S
H429 C446 0.940 . S
C430 P416 1.812 . S
C430 C431 1.389 . S
C430 C435 1.391 . S
C431 H417 0.941 . S
C431 C430 1.389 . S
C431 C432 1.397 . S
C432 H418 0.939 . S
C432 C431 1.397 . S
C432 C433 1.378 . S
C433 C432 1.378 . S
C433 C434 1.378 . S
C434 H419 0.940 . S
C434 C433 1.378 . S
C434 C435 1.396 . S
C435 H420 0.940 . S
C435 C430 1.391 . S
C435 C434 1.396 . S
C436 P416 1.803 . S
C436 C437 1.378 . S
C436 C441 1.400 . S
C437 H421 0.939 . S
C437 C436 1.378 . S
C437 C438 1.361 . S
C438 H422 0.942 . S
C438 C437 1.361 . S
C438 C439 1.369 . S
C439 C438 1.369 . S
C439 C440 1.404 . S
C440 H423 0.940 . S
C440 C439 1.404 . S
C440 C441 1.389 . S
C441 H424 0.939 . S
C441 C436 1.400 . S
C441 C440 1.389 . S
C442 P416 1.819 . S
C442 C443 1.391 . S
C442 C447 1.391 . S
C443 H425 0.941 . S
C443 C442 1.391 . S
C443 C444 1.396 . S
C444 H428 0.939 . S
C444 C443 1.396 . S
C444 C445 1.397 . S
C445 C444 1.397 . S
C445 C446 1.385 . S
C446 H429 0.940 . S
C446 C445 1.385 . S
C446 C447 1.388 . S
C447 H426 0.939 . S
C447 C442 1.391 . S
C447 C446 1.388 . S
P448 O459 1.490 . S
P448 C462 1.812 . S
P448 C468 1.803 . S
P448 C474 1.819 . S
H449 C463 0.941 . S
H450 C464 0.939 . S
H451 C466 0.940 . S
H452 C467 0.940 . S
H453 C469 0.939 . S
H454 C470 0.942 . S
H455 C472 0.940 . S
H456 C473 0.939 . S
H457 C475 0.941 . S
H458 C479 0.939 . S
O459 P448 1.490 . S
H460 C476 0.939 . S
H461 C478 0.940 . S
C462 P448 1.812 . S
C462 C463 1.389 . S
C462 C467 1.391 . S
C463 H449 0.941 . S
C463 C462 1.389 . S
C463 C464 1.397 . S
C464 H450 0.939 . S
C464 C463 1.397 . S
C464 C465 1.378 . S
C465 C464 1.378 . S
C465 C466 1.378 . S
C466 H451 0.940 . S
C466 C465 1.378 . S
C466 C467 1.396 . S
C467 H452 0.940 . S
C467 C462 1.391 . S
C467 C466 1.396 . S
C468 P448 1.803 . S
C468 C469 1.378 . S
C468 C473 1.400 . S
C469 H453 0.939 . S
C469 C468 1.378 . S
C469 C470 1.361 . S
C470 H454 0.942 . S
C470 C469 1.361 . S
C470 C471 1.369 . S
C471 C470 1.369 . S
C471 C472 1.404 . S
C472 H455 0.940 . S
C472 C471 1.404 . S
C472 C473 1.389 . S
C473 H456 0.939 . S
C473 C468 1.400 . S
C473 C472 1.389 . S
C474 P448 1.819 . S
C474 C475 1.391 . S
C474 C479 1.391 . S
C475 H457 0.941 . S
C475 C474 1.391 . S
C475 C476 1.396 . S
C476 H460 0.939 . S
C476 C475 1.396 . S
C476 C477 1.397 . S
C477 C476 1.397 . S
C477 C478 1.385 . S
C478 H461 0.940 . S
C478 C477 1.385 . S
C478 C479 1.388 . S
C479 H458 0.939 . S
C479 C474 1.391 . S
C479 C478 1.388 . S
P480 O491 1.490 . S
P480 C494 1.812 . S
P480 C500 1.803 . S
P480 C506 1.819 . S
H481 C495 0.941 . S
H482 C496 0.939 . S
H483 C498 0.940 . S
H484 C499 0.940 . S
H485 C501 0.939 . S
H486 C502 0.942 . S
H487 C504 0.940 . S
H488 C505 0.939 . S
H489 C507 0.941 . S
H490 C511 0.939 . S
O491 P480 1.490 . S
H492 C508 0.939 . S
H493 C510 0.940 . S
C494 P480 1.812 . S
C494 C495 1.389 . S
C494 C499 1.391 . S
C495 H481 0.941 . S
C495 C494 1.389 . S
C495 C496 1.397 . S
C496 H482 0.939 . S
C496 C495 1.397 . S
C496 C497 1.378 . S
C497 C496 1.378 . S
C497 C498 1.378 . S
C498 H483 0.940 . S
C498 C497 1.378 . S
C498 C499 1.396 . S
C499 H484 0.940 . S
C499 C494 1.391 . S
C499 C498 1.396 . S
C500 P480 1.803 . S
C500 C501 1.378 . S
C500 C505 1.400 . S
C501 H485 0.939 . S
C501 C500 1.378 . S
C501 C502 1.361 . S
C502 H486 0.942 . S
C502 C501 1.361 . S
C502 C503 1.369 . S
C503 C502 1.369 . S
C503 C504 1.404 . S
C504 H487 0.940 . S
C504 C503 1.404 . S
C504 C505 1.389 . S
C505 H488 0.939 . S
C505 C500 1.400 . S
C505 C504 1.389 . S
C506 P480 1.819 . S
C506 C507 1.391 . S
C506 C511 1.391 . S
C507 H489 0.941 . S
C507 C506 1.391 . S
C507 C508 1.396 . S
C508 H492 0.939 . S
C508 C507 1.396 . S
C508 C509 1.397 . S
C509 C508 1.397 . S
C509 C510 1.385 . S
C510 H493 0.940 . S
C510 C509 1.385 . S
C510 C511 1.388 . S
C511 H490 0.939 . S
C511 C506 1.391 . S
C511 C510 1.388 . S
P512 O523 1.490 . S
P512 C526 1.812 . S
P512 C532 1.803 . S
P512 C538 1.819 . S
H513 C527 0.941 . S
H514 C528 0.939 . S
H515 C530 0.940 . S
H516 C531 0.940 . S
H517 C533 0.939 . S
H518 C534 0.942 . S
H519 C536 0.940 . S
H520 C537 0.939 . S
H521 C539 0.941 . S
H522 C543 0.939 . S
O523 P512 1.490 . S
H524 C540 0.939 . S
H525 C542 0.940 . S
C526 P512 1.812 . S
C526 C527 1.389 . S
C526 C531 1.391 . S
C527 H513 0.941 . S
C527 C526 1.389 . S
C527 C528 1.397 . S
C528 H514 0.939 . S
C528 C527 1.397 . S
C528 C529 1.378 . S
C529 C528 1.378 . S
C529 C530 1.378 . S
C530 H515 0.940 . S
C530 C529 1.378 . S
C530 C531 1.396 . S
C531 H516 0.940 . S
C531 C526 1.391 . S
C531 C530 1.396 . S
C532 P512 1.803 . S
C532 C533 1.378 . S
C532 C537 1.400 . S
C533 H517 0.939 . S
C533 C532 1.378 . S
C533 C534 1.361 . S
C534 H518 0.942 . S
C534 C533 1.361 . S
C534 C535 1.369 . S
C535 C534 1.369 . S
C535 C536 1.404 . S
C536 H519 0.940 . S
C536 C535 1.404 . S
C536 C537 1.389 . S
C537 H520 0.939 . S
C537 C532 1.400 . S
C537 C536 1.389 . S
C538 P512 1.819 . S
C538 C539 1.391 . S
C538 C543 1.391 . S
C539 H521 0.941 . S
C539 C538 1.391 . S
C539 C540 1.396 . S
C540 H524 0.939 . S
C540 C539 1.396 . S
C540 C541 1.397 . S
C541 C540 1.397 . S
C541 C542 1.385 . S
C542 H525 0.940 . S
C542 C541 1.385 . S
C542 C543 1.388 . S
C543 H522 0.939 . S
C543 C538 1.391 . S
C543 C542 1.388 . S
P544 O555 1.490 . S
P544 C558 1.812 . S
P544 C564 1.803 . S
P544 C570 1.819 . S
H545 C559 0.941 . S
H546 C560 0.939 . S
H547 C562 0.940 . S
H548 C563 0.940 . S
H549 C565 0.939 . S
H550 C566 0.942 . S
H551 C568 0.940 . S
H552 C569 0.939 . S
H553 C571 0.941 . S
H554 C575 0.939 . S
O555 P544 1.490 . S
H556 C572 0.939 . S
H557 C574 0.940 . S
C558 P544 1.812 . S
C558 C559 1.389 . S
C558 C563 1.391 . S
C559 H545 0.941 . S
C559 C558 1.389 . S
C559 C560 1.397 . S
C560 H546 0.939 . S
C560 C559 1.397 . S
C560 C561 1.378 . S
C561 C560 1.378 . S
C561 C562 1.378 . S
C562 H547 0.940 . S
C562 C561 1.378 . S
C562 C563 1.396 . S
C563 H548 0.940 . S
C563 C558 1.391 . S
C563 C562 1.396 . S
C564 P544 1.803 . S
C564 C565 1.378 . S
C564 C569 1.400 . S
C565 H549 0.939 . S
C565 C564 1.378 . S
C565 C566 1.361 . S
C566 H550 0.942 . S
C566 C565 1.361 . S
C566 C567 1.369 . S
C567 C566 1.369 . S
C567 C568 1.404 . S
C568 H551 0.940 . S
C568 C567 1.404 . S
C568 C569 1.389 . S
C569 H552 0.939 . S
C569 C564 1.400 . S
C569 C568 1.389 . S
C570 P544 1.819 . S
C570 C571 1.391 . S
C570 C575 1.391 . S
C571 H553 0.941 . S
C571 C570 1.391 . S
C571 C572 1.396 . S
C572 H556 0.939 . S
C572 C571 1.396 . S
C572 C573 1.397 . S
C573 C572 1.397 . S
C573 C574 1.385 . S
C574 H557 0.940 . S
C574 C573 1.385 . S
C574 C575 1.388 . S
C575 H554 0.939 . S
C575 C570 1.391 . S
C575 C574 1.388 . S
P576 O587 1.490 . S
P576 C590 1.812 . S
P576 C596 1.803 . S
P576 C602 1.819 . S
H577 C591 0.941 . S
H578 C592 0.939 . S
H579 C594 0.940 . S
H580 C595 0.940 . S
H581 C597 0.939 . S
H582 C598 0.942 . S
H583 C600 0.940 . S
H584 C601 0.939 . S
H585 C603 0.941 . S
H586 C607 0.939 . S
O587 P576 1.490 . S
H588 C604 0.939 . S
H589 C606 0.940 . S
C590 P576 1.812 . S
C590 C591 1.389 . S
C590 C595 1.391 . S
C591 H577 0.941 . S
C591 C590 1.389 . S
C591 C592 1.397 . S
C592 H578 0.939 . S
C592 C591 1.397 . S
C592 C593 1.378 . S
C593 C592 1.378 . S
C593 C594 1.378 . S
C594 H579 0.940 . S
C594 C593 1.378 . S
C594 C595 1.396 . S
C595 H580 0.940 . S
C595 C590 1.391 . S
C595 C594 1.396 . S
C596 P576 1.803 . S
C596 C597 1.378 . S
C596 C601 1.400 . S
C597 H581 0.939 . S
C597 C596 1.378 . S
C597 C598 1.361 . S
C598 H582 0.942 . S
C598 C597 1.361 . S
C598 C599 1.369 . S
C599 C598 1.369 . S
C599 C600 1.404 . S
C600 H583 0.940 . S
C600 C599 1.404 . S
C600 C601 1.389 . S
C601 H584 0.939 . S
C601 C596 1.400 . S
C601 C600 1.389 . S
C602 P576 1.819 . S
C602 C603 1.391 . S
C602 C607 1.391 . S
C603 H585 0.941 . S
C603 C602 1.391 . S
C603 C604 1.396 . S
C604 H588 0.939 . S
C604 C603 1.396 . S
C604 C605 1.397 . S
C605 C604 1.397 . S
C605 C606 1.385 . S
C606 H589 0.940 . S
C606 C605 1.385 . S
C606 C607 1.388 . S
C607 H586 0.939 . S
C607 C602 1.391 . S
C607 C606 1.388 . S
P608 O619 1.490 . S
P608 C622 1.812 . S
P608 C628 1.803 . S
P608 C634 1.819 . S
H609 C623 0.941 . S
H610 C624 0.939 . S
H611 C626 0.940 . S
H612 C627 0.940 . S
H613 C629 0.939 . S
H614 C630 0.942 . S
H615 C632 0.940 . S
H616 C633 0.939 . S
H617 C635 0.941 . S
H618 C639 0.939 . S
O619 P608 1.490 . S
H620 C636 0.939 . S
H621 C638 0.940 . S
C622 P608 1.812 . S
C622 C623 1.389 . S
C622 C627 1.391 . S
C623 H609 0.941 . S
C623 C622 1.389 . S
C623 C624 1.397 . S
C624 H610 0.939 . S
C624 C623 1.397 . S
C624 C625 1.378 . S
C625 C624 1.378 . S
C625 C626 1.378 . S
C626 H611 0.940 . S
C626 C625 1.378 . S
C626 C627 1.396 . S
C627 H612 0.940 . S
C627 C622 1.391 . S
C627 C626 1.396 . S
C628 P608 1.803 . S
C628 C629 1.378 . S
C628 C633 1.400 . S
C629 H613 0.939 . S
C629 C628 1.378 . S
C629 C630 1.361 . S
C630 H614 0.942 . S
C630 C629 1.361 . S
C630 C631 1.369 . S
C631 C630 1.369 . S
C631 C632 1.404 . S
C632 H615 0.940 . S
C632 C631 1.404 . S
C632 C633 1.389 . S
C633 H616 0.939 . S
C633 C628 1.400 . S
C633 C632 1.389 . S
C634 P608 1.819 . S
C634 C635 1.391 . S
C634 C639 1.391 . S
C635 H617 0.941 . S
C635 C634 1.391 . S
C635 C636 1.396 . S
C636 H620 0.939 . S
C636 C635 1.396 . S
C636 C637 1.397 . S
C637 C636 1.397 . S
C637 C638 1.385 . S
C638 H621 0.940 . S
C638 C637 1.385 . S
C638 C639 1.388 . S
C639 H618 0.939 . S
C639 C634 1.391 . S
C639 C638 1.388 . S
P640 O651 1.490 . S
P640 C654 1.812 . S
P640 C660 1.803 . S
P640 C666 1.819 . S
H641 C655 0.941 . S
H642 C656 0.939 . S
H643 C658 0.940 . S
H644 C659 0.940 . S
H645 C661 0.939 . S
H646 C662 0.942 . S
H647 C664 0.940 . S
H648 C665 0.939 . S
H649 C667 0.941 . S
H650 C671 0.939 . S
O651 P640 1.490 . S
H652 C668 0.939 . S
H653 C670 0.940 . S
C654 P640 1.812 . S
C654 C655 1.389 . S
C654 C659 1.391 . S
C655 H641 0.941 . S
C655 C654 1.389 . S
C655 C656 1.397 . S
C656 H642 0.939 . S
C656 C655 1.397 . S
C656 C657 1.378 . S
C657 C656 1.378 . S
C657 C658 1.378 . S
C658 H643 0.940 . S
C658 C657 1.378 . S
C658 C659 1.396 . S
C659 H644 0.940 . S
C659 C654 1.391 . S
C659 C658 1.396 . S
C660 P640 1.803 . S
C660 C661 1.378 . S
C660 C665 1.400 . S
C661 H645 0.939 . S
C661 C660 1.378 . S
C661 C662 1.361 . S
C662 H646 0.942 . S
C662 C661 1.361 . S
C662 C663 1.369 . S
C663 C662 1.369 . S
C663 C664 1.404 . S
C664 H647 0.940 . S
C664 C663 1.404 . S
C664 C665 1.389 . S
C665 H648 0.939 . S
C665 C660 1.400 . S
C665 C664 1.389 . S
C666 P640 1.819 . S
C666 C667 1.391 . S
C666 C671 1.391 . S
C667 H649 0.941 . S
C667 C666 1.391 . S
C667 C668 1.396 . S
C668 H652 0.939 . S
C668 C667 1.396 . S
C668 C669 1.397 . S
C669 C668 1.397 . S
C669 C670 1.385 . S
C670 H653 0.940 . S
C670 C669 1.385 . S
C670 C671 1.388 . S
C671 H650 0.939 . S
C671 C666 1.391 . S
C671 C670 1.388 . S
P672 O683 1.490 . S
P672 C686 1.812 . S
P672 C692 1.803 . S
P672 C698 1.819 . S
H673 C687 0.941 . S
H674 C688 0.939 . S
H675 C690 0.940 . S
H676 C691 0.940 . S
H677 C693 0.939 . S
H678 C694 0.942 . S
H679 C696 0.940 . S
H680 C697 0.939 . S
H681 C699 0.941 . S
H682 C703 0.939 . S
O683 P672 1.490 . S
H684 C700 0.939 . S
H685 C702 0.940 . S
C686 P672 1.812 . S
C686 C687 1.389 . S
C686 C691 1.391 . S
C687 H673 0.941 . S
C687 C686 1.389 . S
C687 C688 1.397 . S
C688 H674 0.939 . S
C688 C687 1.397 . S
C688 C689 1.378 . S
C689 C688 1.378 . S
C689 C690 1.378 . S
C690 H675 0.940 . S
C690 C689 1.378 . S
C690 C691 1.396 . S
C691 H676 0.940 . S
C691 C686 1.391 . S
C691 C690 1.396 . S
C692 P672 1.803 . S
C692 C693 1.378 . S
C692 C697 1.400 . S
C693 H677 0.939 . S
C693 C692 1.378 . S
C693 C694 1.361 . S
C694 H678 0.942 . S
C694 C693 1.361 . S
C694 C695 1.369 . S
C695 C694 1.369 . S
C695 C696 1.404 . S
C696 H679 0.940 . S
C696 C695 1.404 . S
C696 C697 1.389 . S
C697 H680 0.939 . S
C697 C692 1.400 . S
C697 C696 1.389 . S
C698 P672 1.819 . S
C698 C699 1.391 . S
C698 C703 1.391 . S
C699 H681 0.941 . S
C699 C698 1.391 . S
C699 C700 1.396 . S
C700 H684 0.939 . S
C700 C699 1.396 . S
C700 C701 1.397 . S
C701 C700 1.397 . S
C701 C702 1.385 . S
C702 H685 0.940 . S
C702 C701 1.385 . S
C702 C703 1.388 . S
C703 H682 0.939 . S
C703 C698 1.391 . S
C703 C702 1.388 . S
P704 O715 1.490 . S
P704 C718 1.812 . S
P704 C724 1.803 . S
P704 C730 1.819 . S
H705 C719 0.941 . S
H706 C720 0.939 . S
H707 C722 0.940 . S
H708 C723 0.940 . S
H709 C725 0.939 . S
H710 C726 0.942 . S
H711 C728 0.940 . S
H712 C729 0.939 . S
H713 C731 0.941 . S
H714 C735 0.939 . S
O715 P704 1.490 . S
H716 C732 0.939 . S
H717 C734 0.940 . S
C718 P704 1.812 . S
C718 C719 1.389 . S
C718 C723 1.391 . S
C719 H705 0.941 . S
C719 C718 1.389 . S
C719 C720 1.397 . S
C720 H706 0.939 . S
C720 C719 1.397 . S
C720 C721 1.378 . S
C721 C720 1.378 . S
C721 C722 1.378 . S
C722 H707 0.940 . S
C722 C721 1.378 . S
C722 C723 1.396 . S
C723 H708 0.940 . S
C723 C718 1.391 . S
C723 C722 1.396 . S
C724 P704 1.803 . S
C724 C725 1.378 . S
C724 C729 1.400 . S
C725 H709 0.939 . S
C725 C724 1.378 . S
C725 C726 1.361 . S
C726 H710 0.942 . S
C726 C725 1.361 . S
C726 C727 1.369 . S
C727 C726 1.369 . S
C727 C728 1.404 . S
C728 H711 0.940 . S
C728 C727 1.404 . S
C728 C729 1.389 . S
C729 H712 0.939 . S
C729 C724 1.400 . S
C729 C728 1.389 . S
C730 P704 1.819 . S
C730 C731 1.391 . S
C730 C735 1.391 . S
C731 H713 0.941 . S
C731 C730 1.391 . S
C731 C732 1.396 . S
C732 H716 0.939 . S
C732 C731 1.396 . S
C732 C733 1.397 . S
C733 C732 1.397 . S
C733 C734 1.385 . S
C734 H717 0.940 . S
C734 C733 1.385 . S
C734 C735 1.388 . S
C735 H714 0.939 . S
C735 C730 1.391 . S
C735 C734 1.388 . S
P736 O747 1.490 . S
P736 C750 1.812 . S
P736 C756 1.803 . S
P736 C762 1.819 . S
H737 C751 0.941 . S
H738 C752 0.939 . S
H739 C754 0.940 . S
H740 C755 0.940 . S
H741 C757 0.939 . S
H742 C758 0.942 . S
H743 C760 0.940 . S
H744 C761 0.939 . S
H745 C763 0.941 . S
H746 C767 0.939 . S
O747 P736 1.490 . S
H748 C764 0.939 . S
H749 C766 0.940 . S
C750 P736 1.812 . S
C750 C751 1.389 . S
C750 C755 1.391 . S
C751 H737 0.941 . S
C751 C750 1.389 . S
C751 C752 1.397 . S
C752 H738 0.939 . S
C752 C751 1.397 . S
C752 C753 1.378 . S
C753 C752 1.378 . S
C753 C754 1.378 . S
C754 H739 0.940 . S
C754 C753 1.378 . S
C754 C755 1.396 . S
C755 H740 0.940 . S
C755 C750 1.391 . S
C755 C754 1.396 . S
C756 P736 1.803 . S
C756 C757 1.378 . S
C756 C761 1.400 . S
C757 H741 0.939 . S
C757 C756 1.378 . S
C757 C758 1.361 . S
C758 H742 0.942 . S
C758 C757 1.361 . S
C758 C759 1.369 . S
C759 C758 1.369 . S
C759 C760 1.404 . S
C760 H743 0.940 . S
C760 C759 1.404 . S
C760 C761 1.389 . S
C761 H744 0.939 . S
C761 C756 1.400 . S
C761 C760 1.389 . S
C762 P736 1.819 . S
C762 C763 1.391 . S
C762 C767 1.391 . S
C763 H745 0.941 . S
C763 C762 1.391 . S
C763 C764 1.396 . S
C764 H748 0.939 . S
C764 C763 1.396 . S
C764 C765 1.397 . S
C765 C764 1.397 . S
C765 C766 1.385 . S
C766 H749 0.940 . S
C766 C765 1.385 . S
C766 C767 1.388 . S
C767 H746 0.939 . S
C767 C762 1.391 . S
C767 C766 1.388 . S
P768 O779 1.490 . S
P768 C782 1.812 . S
P768 C788 1.803 . S
P768 C794 1.819 . S
H769 C783 0.941 . S
H770 C784 0.939 . S
H771 C786 0.940 . S
H772 C787 0.940 . S
H773 C789 0.939 . S
H774 C790 0.942 . S
H775 C792 0.940 . S
H776 C793 0.939 . S
H777 C795 0.941 . S
H778 C799 0.939 . S
O779 P768 1.490 . S
H780 C796 0.939 . S
H781 C798 0.940 . S
C782 P768 1.812 . S
C782 C783 1.389 . S
C782 C787 1.391 . S
C783 H769 0.941 . S
C783 C782 1.389 . S
C783 C784 1.397 . S
C784 H770 0.939 . S
C784 C783 1.397 . S
C784 C785 1.378 . S
C785 C784 1.378 . S
C785 C786 1.378 . S
C786 H771 0.940 . S
C786 C785 1.378 . S
C786 C787 1.396 . S
C787 H772 0.940 . S
C787 C782 1.391 . S
C787 C786 1.396 . S
C788 P768 1.803 . S
C788 C789 1.378 . S
C788 C793 1.400 . S
C789 H773 0.939 . S
C789 C788 1.378 . S
C789 C790 1.361 . S
C790 H774 0.942 . S
C790 C789 1.361 . S
C790 C791 1.369 . S
C791 C790 1.369 . S
C791 C792 1.404 . S
C792 H775 0.940 . S
C792 C791 1.404 . S
C792 C793 1.389 . S
C793 H776 0.939 . S
C793 C788 1.400 . S
C793 C792 1.389 . S
C794 P768 1.819 . S
C794 C795 1.391 . S
C794 C799 1.391 . S
C795 H777 0.941 . S
C795 C794 1.391 . S
C795 C796 1.396 . S
C796 H780 0.939 . S
C796 C795 1.396 . S
C796 C797 1.397 . S
C797 C796 1.397 . S
C797 C798 1.385 . S
C798 H781 0.940 . S
C798 C797 1.385 . S
C798 C799 1.388 . S
C799 H778 0.939 . S
C799 C794 1.391 . S
C799 C798 1.388 . S
P800 O811 1.490 . S
P800 C814 1.812 . S
P800 C820 1.803 . S
P800 C826 1.819 . S
H801 C815 0.941 . S
H802 C816 0.939 . S
H803 C818 0.940 . S
H804 C819 0.940 . S
H805 C821 0.939 . S
H806 C822 0.942 . S
H807 C824 0.940 . S
H808 C825 0.939 . S
H809 C827 0.941 . S
H810 C831 0.939 . S
O811 P800 1.490 . S
H812 C828 0.939 . S
H813 C830 0.940 . S
C814 P800 1.812 . S
C814 C815 1.389 . S
C814 C819 1.391 . S
C815 H801 0.941 . S
C815 C814 1.389 . S
C815 C816 1.397 . S
C816 H802 0.939 . S
C816 C815 1.397 . S
C816 C817 1.378 . S
C817 C816 1.378 . S
C817 C818 1.378 . S
C818 H803 0.940 . S
C818 C817 1.378 . S
C818 C819 1.396 . S
C819 H804 0.940 . S
C819 C814 1.391 . S
C819 C818 1.396 . S
C820 P800 1.803 . S
C820 C821 1.378 . S
C820 C825 1.400 . S
C821 H805 0.939 . S
C821 C820 1.378 . S
C821 C822 1.361 . S
C822 H806 0.942 . S
C822 C821 1.361 . S
C822 C823 1.369 . S
C823 C822 1.369 . S
C823 C824 1.404 . S
C824 H807 0.940 . S
C824 C823 1.404 . S
C824 C825 1.389 . S
C825 H808 0.939 . S
C825 C820 1.400 . S
C825 C824 1.389 . S
C826 P800 1.819 . S
C826 C827 1.391 . S
C826 C831 1.391 . S
C827 H809 0.941 . S
C827 C826 1.391 . S
C827 C828 1.396 . S
C828 H812 0.939 . S
C828 C827 1.396 . S
C828 C829 1.397 . S
C829 C828 1.397 . S
C829 C830 1.385 . S
C830 H813 0.940 . S
C830 C829 1.385 . S
C830 C831 1.388 . S
C831 H810 0.939 . S
C831 C826 1.391 . S
C831 C830 1.388 . S
P832 O843 1.490 . S
P832 C846 1.812 . S
P832 C852 1.803 . S
P832 C858 1.819 . S
H833 C847 0.941 . S
H834 C848 0.939 . S
H835 C850 0.940 . S
H836 C851 0.940 . S
H837 C853 0.939 . S
H838 C854 0.942 . S
H839 C856 0.940 . S
H840 C857 0.939 . S
H841 C859 0.941 . S
H842 C863 0.939 . S
O843 P832 1.490 . S
H844 C860 0.939 . S
H845 C862 0.940 . S
C846 P832 1.812 . S
C846 C847 1.389 . S
C846 C851 1.391 . S
C847 H833 0.941 . S
C847 C846 1.389 . S
C847 C848 1.397 . S
C848 H834 0.939 . S
C848 C847 1.397 . S
C848 C849 1.378 . S
C849 C848 1.378 . S
C849 C850 1.378 . S
C850 H835 0.940 . S
C850 C849 1.378 . S
C850 C851 1.396 . S
C851 H836 0.940 . S
C851 C846 1.391 . S
C851 C850 1.396 . S
C852 P832 1.803 . S
C852 C853 1.378 . S
C852 C857 1.400 . S
C853 H837 0.939 . S
C853 C852 1.378 . S
C853 C854 1.361 . S
C854 H838 0.942 . S
C854 C853 1.361 . S
C854 C855 1.369 . S
C855 C854 1.369 . S
C855 C856 1.404 . S
C856 H839 0.940 . S
C856 C855 1.404 . S
C856 C857 1.389 . S
C857 H840 0.939 . S
C857 C852 1.400 . S
C857 C856 1.389 . S
C858 P832 1.819 . S
C858 C859 1.391 . S
C858 C863 1.391 . S
C859 H841 0.941 . S
C859 C858 1.391 . S
C859 C860 1.396 . S
C860 H844 0.939 . S
C860 C859 1.396 . S
C860 C861 1.397 . S
C861 C860 1.397 . S
C861 C862 1.385 . S
C862 H845 0.940 . S
C862 C861 1.385 . S
C862 C863 1.388 . S
C863 H842 0.939 . S
C863 C858 1.391 . S
C863 C862 1.388 . S
P864 O875 1.490 . S
P864 C878 1.812 . S
P864 C884 1.803 . S
P864 C890 1.819 . S
H865 C879 0.941 . S
H866 C880 0.939 . S
H867 C882 0.940 . S
H868 C883 0.940 . S
H869 C885 0.939 . S
H870 C886 0.942 . S
H871 C888 0.940 . S
H872 C889 0.939 . S
H873 C891 0.941 . S
H874 C895 0.939 . S
O875 P864 1.490 . S
H876 C892 0.939 . S
H877 C894 0.940 . S
C878 P864 1.812 . S
C878 C879 1.389 . S
C878 C883 1.391 . S
C879 H865 0.941 . S
C879 C878 1.389 . S
C879 C880 1.397 . S
C880 H866 0.939 . S
C880 C879 1.397 . S
C880 C881 1.378 . S
C881 C880 1.378 . S
C881 C882 1.378 . S
C882 H867 0.940 . S
C882 C881 1.378 . S
C882 C883 1.396 . S
C883 H868 0.940 . S
C883 C878 1.391 . S
C883 C882 1.396 . S
C884 P864 1.803 . S
C884 C885 1.378 . S
C884 C889 1.400 . S
C885 H869 0.939 . S
C885 C884 1.378 . S
C885 C886 1.361 . S
C886 H870 0.942 . S
C886 C885 1.361 . S
C886 C887 1.369 . S
C887 C886 1.369 . S
C887 C888 1.404 . S
C888 H871 0.940 . S
C888 C887 1.404 . S
C888 C889 1.389 . S
C889 H872 0.939 . S
C889 C884 1.400 . S
C889 C888 1.389 . S
C890 P864 1.819 . S
C890 C891 1.391 . S
C890 C895 1.391 . S
C891 H873 0.941 . S
C891 C890 1.391 . S
C891 C892 1.396 . S
C892 H876 0.939 . S
C892 C891 1.396 . S
C892 C893 1.397 . S
C893 C892 1.397 . S
C893 C894 1.385 . S
C894 H877 0.940 . S
C894 C893 1.385 . S
C894 C895 1.388 . S
C895 H874 0.939 . S
C895 C890 1.391 . S
C895 C894 1.388 . S
P896 O907 1.490 . S
P896 C910 1.812 . S
P896 C916 1.803 . S
P896 C922 1.819 . S
H897 C911 0.941 . S
H898 C912 0.939 . S
H899 C914 0.940 . S
H900 C915 0.940 . S
H901 C917 0.939 . S
H902 C918 0.942 . S
H903 C920 0.940 . S
H904 C921 0.939 . S
H905 C923 0.941 . S
H906 C927 0.939 . S
O907 P896 1.490 . S
H908 C924 0.939 . S
H909 C926 0.940 . S
C910 P896 1.812 . S
C910 C911 1.389 . S
C910 C915 1.391 . S
C911 H897 0.941 . S
C911 C910 1.389 . S
C911 C912 1.397 . S
C912 H898 0.939 . S
C912 C911 1.397 . S
C912 C913 1.378 . S
C913 C912 1.378 . S
C913 C914 1.378 . S
C914 H899 0.940 . S
C914 C913 1.378 . S
C914 C915 1.396 . S
C915 H900 0.940 . S
C915 C910 1.391 . S
C915 C914 1.396 . S
C916 P896 1.803 . S
C916 C917 1.378 . S
C916 C921 1.400 . S
C917 H901 0.939 . S
C917 C916 1.378 . S
C917 C918 1.361 . S
C918 H902 0.942 . S
C918 C917 1.361 . S
C918 C919 1.369 . S
C919 C918 1.369 . S
C919 C920 1.404 . S
C920 H903 0.940 . S
C920 C919 1.404 . S
C920 C921 1.389 . S
C921 H904 0.939 . S
C921 C916 1.400 . S
C921 C920 1.389 . S
C922 P896 1.819 . S
C922 C923 1.391 . S
C922 C927 1.391 . S
C923 H905 0.941 . S
C923 C922 1.391 . S
C923 C924 1.396 . S
C924 H908 0.939 . S
C924 C923 1.396 . S
C924 C925 1.397 . S
C925 C924 1.397 . S
C925 C926 1.385 . S
C926 H909 0.940 . S
C926 C925 1.385 . S
C926 C927 1.388 . S
C927 H906 0.939 . S
C927 C922 1.391 . S
C927 C926 1.388 . S
P928 O939 1.490 . S
P928 C942 1.812 . S
P928 C948 1.803 . S
P928 C954 1.819 . S
H929 C943 0.941 . S
H930 C944 0.939 . S
H931 C946 0.940 . S
H932 C947 0.940 . S
H933 C949 0.939 . S
H934 C950 0.942 . S
H935 C952 0.940 . S
H936 C953 0.939 . S
H937 C955 0.941 . S
H938 C959 0.939 . S
O939 P928 1.490 . S
H940 C956 0.939 . S
H941 C958 0.940 . S
C942 P928 1.812 . S
C942 C943 1.389 . S
C942 C947 1.391 . S
C943 H929 0.941 . S
C943 C942 1.389 . S
C943 C944 1.397 . S
C944 H930 0.939 . S
C944 C943 1.397 . S
C944 C945 1.378 . S
C945 C944 1.378 . S
C945 C946 1.378 . S
C946 H931 0.940 . S
C946 C945 1.378 . S
C946 C947 1.396 . S
C947 H932 0.940 . S
C947 C942 1.391 . S
C947 C946 1.396 . S
C948 P928 1.803 . S
C948 C949 1.378 . S
C948 C953 1.400 . S
C949 H933 0.939 . S
C949 C948 1.378 . S
C949 C950 1.361 . S
C950 H934 0.942 . S
C950 C949 1.361 . S
C950 C951 1.369 . S
C951 C950 1.369 . S
C951 C952 1.404 . S
C952 H935 0.940 . S
C952 C951 1.404 . S
C952 C953 1.389 . S
C953 H936 0.939 . S
C953 C948 1.400 . S
C953 C952 1.389 . S
C954 P928 1.819 . S
C954 C955 1.391 . S
C954 C959 1.391 . S
C955 H937 0.941 . S
C955 C954 1.391 . S
C955 C956 1.396 . S
C956 H940 0.939 . S
C956 C955 1.396 . S
C956 C957 1.397 . S
C957 C956 1.397 . S
C957 C958 1.385 . S
C958 H941 0.940 . S
C958 C957 1.385 . S
C958 C959 1.388 . S
C959 H938 0.939 . S
C959 C954 1.391 . S
C959 C958 1.388 . S
P960 O971 1.490 . S
P960 C974 1.812 . S
P960 C980 1.803 . S
P960 C986 1.819 . S
H961 C975 0.941 . S
H962 C976 0.939 . S
H963 C978 0.940 . S
H964 C979 0.940 . S
H965 C981 0.939 . S
H966 C982 0.942 . S
H967 C984 0.940 . S
H968 C985 0.939 . S
H969 C987 0.941 . S
H970 C991 0.939 . S
O971 P960 1.490 . S
H972 C988 0.939 . S
H973 C990 0.940 . S
C974 P960 1.812 . S
C974 C975 1.389 . S
C974 C979 1.391 . S
C975 H961 0.941 . S
C975 C974 1.389 . S
C975 C976 1.397 . S
C976 H962 0.939 . S
C976 C975 1.397 . S
C976 C977 1.378 . S
C977 C976 1.378 . S
C977 C978 1.378 . S
C978 H963 0.940 . S
C978 C977 1.378 . S
C978 C979 1.396 . S
C979 H964 0.940 . S
C979 C974 1.391 . S
C979 C978 1.396 . S
C980 P960 1.803 . S
C980 C981 1.378 . S
C980 C985 1.400 . S
C981 H965 0.939 . S
C981 C980 1.378 . S
C981 C982 1.361 . S
C982 H966 0.942 . S
C982 C981 1.361 . S
C982 C983 1.369 . S
C983 C982 1.369 . S
C983 C984 1.404 . S
C984 H967 0.940 . S
C984 C983 1.404 . S
C984 C985 1.389 . S
C985 H968 0.939 . S
C985 C980 1.400 . S
C985 C984 1.389 . S
C986 P960 1.819 . S
C986 C987 1.391 . S
C986 C991 1.391 . S
C987 H969 0.941 . S
C987 C986 1.391 . S
C987 C988 1.396 . S
C988 H972 0.939 . S
C988 C987 1.396 . S
C988 C989 1.397 . S
C989 C988 1.397 . S
C989 C990 1.385 . S
C990 H973 0.940 . S
C990 C989 1.385 . S
C990 C991 1.388 . S
C991 H970 0.939 . S
C991 C986 1.391 . S
C991 C990 1.388 . S
P992 O1003 1.490 . S
P992 C1006 1.812 . S
P992 C1012 1.803 . S
P992 C1018 1.819 . S
H993 C1007 0.941 . S
H994 C1008 0.939 . S
H995 C1010 0.940 . S
H996 C1011 0.940 . S
H997 C1013 0.939 . S
H998 C1014 0.942 . S
H999 C1016 0.940 . S
H1000 C1017 0.939 . S
H1001 C1019 0.941 . S
H1002 C1023 0.939 . S
O1003 P992 1.490 . S
H1004 C1020 0.939 . S
H1005 C1022 0.940 . S
C1006 P992 1.812 . S
C1006 C1007 1.389 . S
C1006 C1011 1.391 . S
C1007 H993 0.941 . S
C1007 C1006 1.389 . S
C1007 C1008 1.397 . S
C1008 H994 0.939 . S
C1008 C1007 1.397 . S
C1008 C1009 1.378 . S
C1009 C1008 1.378 . S
C1009 C1010 1.378 . S
C1010 H995 0.940 . S
C1010 C1009 1.378 . S
C1010 C1011 1.396 . S
C1011 H996 0.940 . S
C1011 C1006 1.391 . S
C1011 C1010 1.396 . S
C1012 P992 1.803 . S
C1012 C1013 1.378 . S
C1012 C1017 1.400 . S
C1013 H997 0.939 . S
C1013 C1012 1.378 . S
C1013 C1014 1.361 . S
C1014 H998 0.942 . S
C1014 C1013 1.361 . S
C1014 C1015 1.369 . S
C1015 C1014 1.369 . S
C1015 C1016 1.404 . S
C1016 H999 0.940 . S
C1016 C1015 1.404 . S
C1016 C1017 1.389 . S
C1017 H1000 0.939 . S
C1017 C1012 1.400 . S
C1017 C1016 1.389 . S
C1018 P992 1.819 . S
C1018 C1019 1.391 . S
C1018 C1023 1.391 . S
C1019 H1001 0.941 . S
C1019 C1018 1.391 . S
C1019 C1020 1.396 . S
C1020 H1004 0.939 . S
C1020 C1019 1.396 . S
C1020 C1021 1.397 . S
C1021 C1020 1.397 . S
C1021 C1022 1.385 . S
C1022 H1005 0.940 . S
C1022 C1021 1.385 . S
C1022 C1023 1.388 . S
C1023 H1002 0.939 . S
C1023 C1018 1.391 . S
C1023 C1022 1.388 . S
Cu1024 N1025 1.999 . S
Cu1024 O1030 1.974 1_554 S
Cu1024 N1035 1.985 . S
Cu1024 O1044 1.959 . S
N1025 Cu1024 1.999 . S
N1025 C1027 1.263 1_554 S
N1025 C1029 1.389 . S
N1026 C1027 1.358 . S
N1026 C1028 1.400 . S
C1027 N1025 1.263 1_556 S
C1027 N1026 1.358 . S
C1027 H1033 0.930 . S
C1028 N1026 1.400 . S
C1028 C1029 1.351 1_556 S
C1028 H1045 0.930 . S
C1029 N1025 1.389 . S
C1029 C1028 1.351 1_554 S
C1029 H1034 0.930 . S
O1030 Cu1024 1.974 1_556 S
O1030 C1040 1.282 . S
C1031 O1032 1.261 . S
C1031 O1044 1.251 . S
O1032 C1031 1.261 . S
H1033 C1027 0.930 . S
H1034 C1029 0.930 . S
N1035 Cu1024 1.985 . S
N1035 C1037 1.335 . S
N1035 C1038 1.390 . S
N1036 C1037 1.345 . S
N1036 C1039 1.336 . S
C1037 N1035 1.335 . S
C1037 N1036 1.345 . S
C1037 H1042 0.930 . S
C1038 N1035 1.390 . S
C1038 C1039 1.346 . S
C1038 H1043 0.930 . S
C1039 N1036 1.336 . S
C1039 C1038 1.346 . S
C1039 H1046 0.929 . S
C1040 O1030 1.282 . S
C1040 O1041 1.216 . S
O1041 C1040 1.216 . S
H1042 C1037 0.930 . S
H1043 C1038 0.930 . S
O1044 Cu1024 1.959 . S
O1044 C1031 1.251 . S
H1045 C1028 0.930 . S
H1046 C1039 0.929 . S
Cu1047 N1048 1.999 . S
Cu1047 O1053 1.974 . S
Cu1047 N1058 1.985 1_554 S
Cu1047 O1067 1.959 1_554 S
N1048 Cu1047 1.999 . S
N1048 C1050 1.263 . S
N1048 C1052 1.389 . S
N1049 C1050 1.358 . S
N1049 C1051 1.400 . S
C1050 N1048 1.263 . S
C1050 N1049 1.358 . S
C1050 H1056 0.930 . S
C1051 N1049 1.400 . S
C1051 C1052 1.351 . S
C1051 H1068 0.930 . S
C1052 N1048 1.389 . S
C1052 C1051 1.351 . S
C1052 H1057 0.930 . S
O1053 Cu1047 1.974 . S
O1053 C1063 1.282 . S
C1054 O1055 1.261 . S
C1054 O1067 1.251 . S
O1055 C1054 1.261 . S
H1056 C1050 0.930 . S
H1057 C1052 0.930 . S
N1058 Cu1047 1.985 1_556 S
N1058 C1060 1.335 . S
N1058 C1061 1.390 . S
N1059 C1060 1.345 . S
N1059 C1062 1.336 . S
C1060 N1058 1.335 . S
C1060 N1059 1.345 . S
C1060 H1065 0.930 . S
C1061 N1058 1.390 . S
C1061 C1062 1.346 . S
C1061 H1066 0.930 1_556 S
C1062 N1059 1.336 . S
C1062 C1061 1.346 . S
C1062 H1069 0.929 . S
C1063 O1053 1.282 . S
C1063 O1064 1.216 . S
O1064 C1063 1.216 . S
H1065 C1060 0.930 . S
H1066 C1061 0.930 1_554 S
O1067 Cu1047 1.959 1_556 S
O1067 C1054 1.251 . S
H1068 C1051 0.930 . S
H1069 C1062 0.929 . S
Cu1070 N1071 1.999 1_554 S
Cu1070 O1076 1.974 1_554 S
Cu1070 N1081 1.985 . S
Cu1070 O1090 1.959 . S
N1071 Cu1070 1.999 1_556 S
N1071 C1073 1.263 . S
N1071 C1075 1.389 . S
N1072 C1073 1.358 . S
N1072 C1074 1.400 . S
C1073 N1071 1.263 . S
C1073 N1072 1.358 . S
C1073 H1079 0.930 . S
C1074 N1072 1.400 . S
C1074 C1075 1.351 . S
C1074 H1091 0.930 . S
C1075 N1071 1.389 . S
C1075 C1074 1.351 . S
C1075 H1080 0.930 1_556 S
O1076 Cu1070 1.974 1_556 S
O1076 C1086 1.282 . S
C1077 O1078 1.261 . S
C1077 O1090 1.251 . S
O1078 C1077 1.261 . S
H1079 C1073 0.930 . S
H1080 C1075 0.930 1_554 S
N1081 Cu1070 1.985 . S
N1081 C1083 1.335 . S
N1081 C1084 1.390 . S
N1082 C1083 1.345 . S
N1082 C1085 1.336 . S
C1083 N1081 1.335 . S
C1083 N1082 1.345 . S
C1083 H1088 0.930 . S
C1084 N1081 1.390 . S
C1084 C1085 1.346 . S
C1084 H1089 0.930 . S
C1085 N1082 1.336 . S
C1085 C1084 1.346 . S
C1085 H1092 0.929 . S
C1086 O1076 1.282 . S
C1086 O1087 1.216 . S
O1087 C1086 1.216 . S
H1088 C1083 0.930 . S
H1089 C1084 0.930 . S
O1090 Cu1070 1.959 . S
O1090 C1077 1.251 . S
H1091 C1074 0.930 . S
H1092 C1085 0.929 . S
Cu1093 N1094 1.999 1_556 S
Cu1093 O1099 1.974 1_556 S
Cu1093 N1104 1.985 . S
Cu1093 O1113 1.959 . S
N1094 Cu1093 1.999 1_554 S
N1094 C1096 1.263 . S
N1094 C1098 1.389 . S
N1095 C1096 1.358 . S
N1095 C1097 1.400 . S
C1096 N1094 1.263 . S
C1096 N1095 1.358 . S
C1096 H1102 0.930 . S
C1097 N1095 1.400 . S
C1097 C1098 1.351 . S
C1097 H1114 0.930 . S
C1098 N1094 1.389 . S
C1098 C1097 1.351 . S
C1098 H1103 0.930 1_554 S
O1099 Cu1093 1.974 1_554 S
O1099 C1109 1.282 . S
C1100 O1101 1.261 . S
C1100 O1113 1.251 . S
O1101 C1100 1.261 . S
H1102 C1096 0.930 . S
H1103 C1098 0.930 1_556 S
N1104 Cu1093 1.985 . S
N1104 C1106 1.335 . S
N1104 C1107 1.390 . S
N1105 C1106 1.345 . S
N1105 C1108 1.336 . S
C1106 N1104 1.335 . S
C1106 N1105 1.345 . S
C1106 H1111 0.930 . S
C1107 N1104 1.390 . S
C1107 C1108 1.346 . S
C1107 H1112 0.930 1_556 S
C1108 N1105 1.336 . S
C1108 C1107 1.346 . S
C1108 H1115 0.929 . S
C1109 O1099 1.282 . S
C1109 O1110 1.216 . S
O1110 C1109 1.216 . S
H1111 C1106 0.930 . S
H1112 C1107 0.930 1_554 S
O1113 Cu1093 1.959 . S
O1113 C1100 1.251 . S
H1114 C1097 0.930 . S
H1115 C1108 0.929 . S
Cu1116 N1117 1.999 . S
Cu1116 O1122 1.974 . S
Cu1116 N1127 1.985 1_455 S
Cu1116 O1136 1.959 1_455 S
N1117 Cu1116 1.999 . S
N1117 C1119 1.263 . S
N1117 C1121 1.389 . S
N1118 C1119 1.358 . S
N1118 C1120 1.400 . S
C1119 N1117 1.263 . S
C1119 N1118 1.358 . S
C1119 H1125 0.930 . S
C1120 N1118 1.400 . S
C1120 C1121 1.351 . S
C1120 H1137 0.930 . S
C1121 N1117 1.389 . S
C1121 C1120 1.351 . S
C1121 H1126 0.930 . S
O1122 Cu1116 1.974 . S
O1122 C1132 1.282 . S
C1123 O1124 1.261 . S
C1123 O1136 1.251 . S
O1124 C1123 1.261 . S
H1125 C1119 0.930 . S
H1126 C1121 0.930 . S
N1127 Cu1116 1.985 1_655 S
N1127 C1129 1.335 . S
N1127 C1130 1.390 . S
N1128 C1129 1.345 . S
N1128 C1131 1.336 . S
C1129 N1127 1.335 . S
C1129 N1128 1.345 . S
C1129 H1134 0.930 . S
C1130 N1127 1.390 . S
C1130 C1131 1.346 . S
C1130 H1135 0.930 1_655 S
C1131 N1128 1.336 . S
C1131 C1130 1.346 . S
C1131 H1138 0.929 . S
C1132 O1122 1.282 . S
C1132 O1133 1.216 . S
O1133 C1132 1.216 . S
H1134 C1129 0.930 . S
H1135 C1130 0.930 1_455 S
O1136 Cu1116 1.959 1_655 S
O1136 C1123 1.251 . S
H1137 C1120 0.930 . S
H1138 C1131 0.929 . S
Cu1139 N1140 1.999 . S
Cu1139 O1145 1.974 . S
Cu1139 N1150 1.985 1_545 S
Cu1139 O1159 1.959 1_545 S
N1140 Cu1139 1.999 . S
N1140 C1142 1.263 . S
N1140 C1144 1.389 . S
N1141 C1142 1.358 . S
N1141 C1143 1.400 . S
C1142 N1140 1.263 . S
C1142 N1141 1.358 . S
C1142 H1148 0.930 . S
C1143 N1141 1.400 . S
C1143 C1144 1.351 . S
C1143 H1160 0.930 . S
C1144 N1140 1.389 . S
C1144 C1143 1.351 . S
C1144 H1149 0.930 . S
O1145 Cu1139 1.974 . S
O1145 C1155 1.282 . S
C1146 O1147 1.261 . S
C1146 O1159 1.251 . S
O1147 C1146 1.261 . S
H1148 C1142 0.930 . S
H1149 C1144 0.930 . S
N1150 Cu1139 1.985 1_565 S
N1150 C1152 1.335 . S
N1150 C1153 1.390 . S
N1151 C1152 1.345 . S
N1151 C1154 1.336 . S
C1152 N1150 1.335 . S
C1152 N1151 1.345 . S
C1152 H1157 0.930 . S
C1153 N1150 1.390 . S
C1153 C1154 1.346 . S
C1153 H1158 0.930 1_565 S
C1154 N1151 1.336 . S
C1154 C1153 1.346 . S
C1154 H1161 0.929 . S
C1155 O1145 1.282 . S
C1155 O1156 1.216 . S
O1156 C1155 1.216 . S
H1157 C1152 0.930 . S
H1158 C1153 0.930 1_545 S
O1159 Cu1139 1.959 1_565 S
O1159 C1146 1.251 . S
H1160 C1143 0.930 . S
H1161 C1154 0.929 . S
Cu1162 N1163 2.022 . S
Cu1162 O1168 2.001 . S
Cu1162 N1173 1.963 1_655 S
Cu1162 O1182 1.932 1_655 S
N1163 Cu1162 2.022 . S
N1163 C1165 1.263 . S
N1163 C1167 1.389 . S
N1164 C1165 1.358 . S
N1164 C1166 1.400 . S
C1165 N1163 1.263 . S
C1165 N1164 1.358 . S
C1165 H1171 0.930 . S
C1166 N1164 1.400 . S
C1166 C1167 1.351 . S
C1166 H1183 0.930 . S
C1167 N1163 1.389 . S
C1167 C1166 1.351 . S
C1167 H1172 0.930 . S
O1168 Cu1162 2.001 . S
O1168 C1178 1.282 . S
C1169 O1170 1.261 . S
C1169 O1182 1.251 . S
O1170 C1169 1.261 . S
H1171 C1165 0.930 . S
H1172 C1167 0.930 . S
N1173 Cu1162 1.963 1_455 S
N1173 C1175 1.335 . S
N1173 C1176 1.390 . S
N1174 C1175 1.345 . S
N1174 C1177 1.336 . S
C1175 N1173 1.335 . S
C1175 N1174 1.345 . S
C1175 H1180 0.930 . S
C1176 N1173 1.390 . S
C1176 C1177 1.346 . S
C1176 H1181 0.930 . S
C1177 N1174 1.336 . S
C1177 C1176 1.346 . S
C1177 H1184 0.929 . S
C1178 O1168 1.282 . S
C1178 O1179 1.216 . S
O1179 C1178 1.216 . S
H1180 C1175 0.930 . S
H1181 C1176 0.930 . S
O1182 Cu1162 1.932 1_455 S
O1182 C1169 1.251 . S
H1183 C1166 0.930 . S
H1184 C1177 0.929 . S
Cu1185 N1186 1.978 1_565 S
Cu1185 O1191 1.946 1_565 S
Cu1185 N1196 2.005 . S
Cu1185 O1205 1.987 . S
N1186 Cu1185 1.978 1_545 S
N1186 C1188 1.263 . S
N1186 C1190 1.389 . S
N1187 C1188 1.358 . S
N1187 C1189 1.400 . S
C1188 N1186 1.263 . S
C1188 N1187 1.358 . S
C1188 H1194 0.930 . S
C1189 N1187 1.400 . S
C1189 C1190 1.351 . S
C1189 H1206 0.930 . S
C1190 N1186 1.389 . S
C1190 C1189 1.351 . S
C1190 H1195 0.930 . S
O1191 Cu1185 1.946 1_545 S
O1191 C1201 1.282 . S
C1192 O1193 1.261 . S
C1192 O1205 1.251 . S
O1193 C1192 1.261 . S
H1194 C1188 0.930 . S
H1195 C1190 0.930 . S
N1196 Cu1185 2.005 . S
N1196 C1198 1.335 . S
N1196 C1199 1.390 . S
N1197 C1198 1.345 . S
N1197 C1200 1.336 . S
C1198 N1196 1.335 . S
C1198 N1197 1.345 . S
C1198 H1203 0.930 . S
C1199 N1196 1.390 . S
C1199 C1200 1.346 . S
C1199 H1204 0.930 . S
C1200 N1197 1.336 . S
C1200 C1199 1.346 . S
C1200 H1207 0.929 . S
C1201 O1191 1.282 . S
C1201 O1202 1.216 . S
O1202 C1201 1.216 . S
H1203 C1198 0.930 . S
H1204 C1199 0.930 . S
O1205 Cu1185 1.987 . S
O1205 C1192 1.251 . S
H1206 C1189 0.930 . S
H1207 C1200 0.929 . S
Cu1208 N1209 1.999 . S
Cu1208 O1214 1.974 . S
Cu1208 N1219 1.985 1_455 S
Cu1208 O1228 1.959 1_455 S
N1209 Cu1208 1.999 . S
N1209 C1211 1.263 . S
N1209 C1213 1.389 . S
N1210 C1211 1.358 . S
N1210 C1212 1.400 . S
C1211 N1209 1.263 . S
C1211 N1210 1.358 . S
C1211 H1217 0.930 . S
C1212 N1210 1.400 . S
C1212 C1213 1.351 . S
C1212 H1229 0.930 . S
C1213 N1209 1.389 . S
C1213 C1212 1.351 . S
C1213 H1218 0.930 . S
O1214 Cu1208 1.974 . S
O1214 C1224 1.282 . S
C1215 O1216 1.261 . S
C1215 O1228 1.251 . S
O1216 C1215 1.261 . S
H1217 C1211 0.930 . S
H1218 C1213 0.930 . S
N1219 Cu1208 1.985 1_655 S
N1219 C1221 1.335 . S
N1219 C1222 1.390 . S
N1220 C1221 1.345 . S
N1220 C1223 1.336 . S
C1221 N1219 1.335 . S
C1221 N1220 1.345 . S
C1221 H1226 0.930 . S
C1222 N1219 1.390 . S
C1222 C1223 1.346 . S
C1222 H1227 0.930 1_655 S
C1223 N1220 1.336 . S
C1223 C1222 1.346 . S
C1223 H1230 0.929 . S
C1224 O1214 1.282 . S
C1224 O1225 1.216 . S
O1225 C1224 1.216 . S
H1226 C1221 0.930 . S
H1227 C1222 0.930 1_455 S
O1228 Cu1208 1.959 1_655 S
O1228 C1215 1.251 . S
H1229 C1212 0.930 . S
H1230 C1223 0.929 . S
Cu1231 N1232 1.999 . S
Cu1231 O1237 1.974 . S
Cu1231 N1242 1.985 1_545 S
Cu1231 O1251 1.959 1_545 S
N1232 Cu1231 1.999 . S
N1232 C1234 1.263 . S
N1232 C1236 1.389 . S
N1233 C1234 1.358 . S
N1233 C1235 1.400 . S
C1234 N1232 1.263 . S
C1234 N1233 1.358 . S
C1234 H1240 0.930 . S
C1235 N1233 1.400 . S
C1235 C1236 1.351 . S
C1235 H1252 0.930 . S
C1236 N1232 1.389 . S
C1236 C1235 1.351 . S
C1236 H1241 0.930 . S
O1237 Cu1231 1.974 . S
O1237 C1247 1.282 . S
C1238 O1239 1.261 . S
C1238 O1251 1.251 . S
O1239 C1238 1.261 . S
H1240 C1234 0.930 . S
H1241 C1236 0.930 . S
N1242 Cu1231 1.985 1_565 S
N1242 C1244 1.335 . S
N1242 C1245 1.394 . S
N1243 C1244 1.345 . S
N1243 C1246 1.336 . S
C1244 N1242 1.335 . S
C1244 N1243 1.345 . S
C1244 H1249 0.930 . S
C1245 N1242 1.394 . S
C1245 C1246 1.366 . S
C1245 H1250 0.911 1_565 S
C1246 N1243 1.336 . S
C1246 C1245 1.366 . S
C1246 H1253 0.929 . S
C1247 O1237 1.282 . S
C1247 O1248 1.216 . S
O1248 C1247 1.216 . S
H1249 C1244 0.930 . S
H1250 C1245 0.911 1_545 S
O1251 Cu1231 1.959 1_565 S
O1251 C1238 1.251 . S
H1252 C1235 0.930 . S
H1253 C1246 0.929 . S
Cu1254 N1255 1.999 . S
Cu1254 O1260 1.974 . S
Cu1254 N1265 1.985 . S
Cu1254 O1274 1.959 . S
N1255 Cu1254 1.999 . S
N1255 C1257 1.263 1_455 S
N1255 C1259 1.389 . S
N1256 C1257 1.358 . S
N1256 C1258 1.400 . S
C1257 N1255 1.263 1_655 S
C1257 N1256 1.358 . S
C1257 H1263 0.930 . S
C1258 N1256 1.400 . S
C1258 C1259 1.351 1_655 S
C1258 H1275 0.930 . S
C1259 N1255 1.389 . S
C1259 C1258 1.351 1_455 S
C1259 H1264 0.930 . S
O1260 Cu1254 1.974 . S
O1260 C1270 1.282 1_455 S
C1261 O1262 1.261 . S
C1261 O1274 1.251 . S
O1262 C1261 1.261 . S
H1263 C1257 0.930 . S
H1264 C1259 0.930 . S
N1265 Cu1254 1.985 . S
N1265 C1267 1.335 . S
N1265 C1268 1.390 . S
N1266 C1267 1.345 . S
N1266 C1269 1.336 . S
C1267 N1265 1.335 . S
C1267 N1266 1.345 . S
C1267 H1272 0.930 . S
C1268 N1265 1.390 . S
C1268 C1269 1.346 . S
C1268 H1273 0.930 . S
C1269 N1266 1.336 . S
C1269 C1268 1.346 . S
C1269 H1276 0.929 . S
C1270 O1260 1.282 1_655 S
C1270 O1271 1.216 1_655 S
O1271 C1270 1.216 1_455 S
H1272 C1267 0.930 . S
H1273 C1268 0.930 . S
O1274 Cu1254 1.959 . S
O1274 C1261 1.251 . S
H1275 C1258 0.930 . S
H1276 C1269 0.929 . S
Cu1277 N1278 1.999 . S
Cu1277 O1283 1.974 . S
Cu1277 N1288 1.985 . S
Cu1277 O1297 1.959 1_545 S
N1278 Cu1277 1.999 . S
N1278 C1280 1.263 . S
N1278 C1282 1.389 . S
N1279 C1280 1.358 . S
N1279 C1281 1.400 . S
C1280 N1278 1.263 . S
C1280 N1279 1.358 . S
C1280 H1286 0.930 . S
C1281 N1279 1.400 . S
C1281 C1282 1.351 . S
C1281 H1298 0.930 . S
C1282 N1278 1.389 . S
C1282 C1281 1.351 . S
C1282 H1287 0.930 . S
O1283 Cu1277 1.974 . S
O1283 C1293 1.282 . S
C1284 O1285 1.261 1_565 S
C1284 O1297 1.251 . S
O1285 C1284 1.261 1_545 S
H1286 C1280 0.930 . S
H1287 C1282 0.930 . S
N1288 Cu1277 1.985 . S
N1288 C1290 1.335 1_545 S
N1288 C1291 1.390 . S
N1289 C1290 1.345 . S
N1289 C1292 1.336 . S
C1290 N1288 1.335 1_565 S
C1290 N1289 1.345 . S
C1290 H1295 0.930 . S
C1291 N1288 1.390 . S
C1291 C1292 1.346 1_545 S
C1291 H1296 0.930 . S
C1292 N1289 1.336 . S
C1292 C1291 1.346 1_565 S
C1292 H1299 0.929 . S
C1293 O1283 1.282 . S
C1293 O1294 1.216 . S
O1294 C1293 1.216 . S
H1295 C1290 0.930 . S
H1296 C1291 0.930 . S
O1297 Cu1277 1.959 1_565 S
O1297 C1284 1.251 . S
H1298 C1281 0.930 . S
H1299 C1292 0.929 . S
Cu1300 N1301 1.999 . S
Cu1300 O1306 1.974 . S
Cu1300 N1311 1.985 . S
Cu1300 O1320 1.959 . S
N1301 Cu1300 1.999 . S
N1301 C1303 1.263 . S
N1301 C1305 1.389 . S
N1302 C1303 1.358 . S
N1302 C1304 1.400 . S
C1303 N1301 1.263 . S
C1303 N1302 1.358 . S
C1303 H1309 0.930 . S
C1304 N1302 1.400 . S
C1304 C1305 1.351 . S
C1304 H1321 0.930 . S
C1305 N1301 1.389 . S
C1305 C1304 1.351 . S
C1305 H1310 0.930 . S
O1306 Cu1300 1.974 . S
O1306 C1316 1.282 . S
C1307 O1308 1.261 . S
C1307 O1320 1.251 . S
O1308 C1307 1.261 . S
H1309 C1303 0.930 . S
H1310 C1305 0.930 . S
N1311 Cu1300 1.985 . S
N1311 C1313 1.335 . S
N1311 C1314 1.390 . S
N1312 C1313 1.345 . S
N1312 C1315 1.336 . S
C1313 N1311 1.335 . S
C1313 N1312 1.345 . S
C1313 H1318 0.930 . S
C1314 N1311 1.390 . S
C1314 C1315 1.346 . S
C1314 H1319 0.930 . S
C1315 N1312 1.336 . S
C1315 C1314 1.346 . S
C1315 H1322 0.929 . S
C1316 O1306 1.282 . S
C1316 O1317 1.216 . S
O1317 C1316 1.216 . S
H1318 C1313 0.930 . S
H1319 C1314 0.930 . S
O1320 Cu1300 1.959 . S
O1320 C1307 1.251 . S
H1321 C1304 0.930 . S
H1322 C1315 0.929 . S
Cu1323 N1324 1.999 . S
Cu1323 O1329 1.974 . S
Cu1323 N1334 1.985 . S
Cu1323 O1343 1.959 . S
N1324 Cu1323 1.999 . S
N1324 C1326 1.263 . S
N1324 C1328 1.389 . S
N1325 C1326 1.358 . S
N1325 C1327 1.400 . S
C1326 N1324 1.263 . S
C1326 N1325 1.358 . S
C1326 H1332 0.930 . S
C1327 N1325 1.400 . S
C1327 C1328 1.351 . S
C1327 H1344 0.930 . S
C1328 N1324 1.389 . S
C1328 C1327 1.351 . S
C1328 H1333 0.930 . S
O1329 Cu1323 1.974 . S
O1329 C1339 1.282 . S
C1330 O1331 1.261 . S
C1330 O1343 1.251 . S
O1331 C1330 1.261 . S
H1332 C1326 0.930 . S
H1333 C1328 0.930 . S
N1334 Cu1323 1.985 . S
N1334 C1336 1.335 . S
N1334 C1337 1.390 . S
N1335 C1336 1.345 . S
N1335 C1338 1.336 . S
C1336 N1334 1.335 . S
C1336 N1335 1.345 . S
C1336 H1341 0.930 . S
C1337 N1334 1.390 . S
C1337 C1338 1.346 . S
C1337 H1342 0.930 . S
C1338 N1335 1.336 . S
C1338 C1337 1.346 . S
C1338 H1345 0.929 . S
C1339 O1329 1.282 . S
C1339 O1340 1.216 . S
O1340 C1339 1.216 . S
H1341 C1336 0.930 . S
H1342 C1337 0.930 . S
O1343 Cu1323 1.959 . S
O1343 C1330 1.251 . S
H1344 C1327 0.930 . S
H1345 C1338 0.929 . S
Cu1346 N1347 1.999 . S
Cu1346 O1352 1.974 . S
Cu1346 N1357 1.985 . S
Cu1346 O1366 1.959 . S
N1347 Cu1346 1.999 . S
N1347 C1349 1.263 . S
N1347 C1351 1.389 . S
N1348 C1349 1.358 . S
N1348 C1350 1.400 . S
C1349 N1347 1.263 . S
C1349 N1348 1.358 . S
C1349 H1355 0.930 . S
C1350 N1348 1.400 . S
C1350 C1351 1.351 . S
C1350 H1367 0.930 . S
C1351 N1347 1.389 . S
C1351 C1350 1.351 . S
C1351 H1356 0.930 . S
O1352 Cu1346 1.974 . S
O1352 C1362 1.282 . S
C1353 O1354 1.261 . S
C1353 O1366 1.251 . S
O1354 C1353 1.261 . S
H1355 C1349 0.930 . S
H1356 C1351 0.930 . S
N1357 Cu1346 1.985 . S
N1357 C1359 1.335 . S
N1357 C1360 1.390 . S
N1358 C1359 1.345 . S
N1358 C1361 1.336 . S
C1359 N1357 1.335 . S
C1359 N1358 1.345 . S
C1359 H1364 0.930 . S
C1360 N1357 1.390 . S
C1360 C1361 1.346 . S
C1360 H1365 0.930 . S
C1361 N1358 1.336 . S
C1361 C1360 1.346 . S
C1361 H1368 0.929 . S
C1362 O1352 1.282 . S
C1362 O1363 1.216 . S
O1363 C1362 1.216 . S
H1364 C1359 0.930 . S
H1365 C1360 0.930 . S
O1366 Cu1346 1.959 . S
O1366 C1353 1.251 . S
H1367 C1350 0.930 . S
H1368 C1361 0.929 . S
Cu1369 N1370 1.999 . S
Cu1369 O1375 1.974 . S
Cu1369 N1380 1.985 . S
Cu1369 O1389 1.959 . S
N1370 Cu1369 1.999 . S
N1370 C1372 1.263 . S
N1370 C1374 1.389 . S
N1371 C1372 1.358 . S
N1371 C1373 1.400 . S
C1372 N1370 1.263 . S
C1372 N1371 1.358 . S
C1372 H1378 0.930 . S
C1373 N1371 1.400 . S
C1373 C1374 1.351 . S
C1373 H1390 0.930 . S
C1374 N1370 1.389 . S
C1374 C1373 1.351 . S
C1374 H1379 0.930 . S
O1375 Cu1369 1.974 . S
O1375 C1385 1.282 . S
C1376 O1377 1.261 . S
C1376 O1389 1.251 . S
O1377 C1376 1.261 . S
H1378 C1372 0.930 . S
H1379 C1374 0.930 . S
N1380 Cu1369 1.985 . S
N1380 C1382 1.335 . S
N1380 C1383 1.390 . S
N1381 C1382 1.345 . S
N1381 C1384 1.336 . S
C1382 N1380 1.335 . S
C1382 N1381 1.345 . S
C1382 H1387 0.930 . S
C1383 N1380 1.390 . S
C1383 C1384 1.346 . S
C1383 H1388 0.930 . S
C1384 N1381 1.336 . S
C1384 C1383 1.346 . S
C1384 H1391 0.929 . S
C1385 O1375 1.282 . S
C1385 O1386 1.216 . S
O1386 C1385 1.216 . S
H1387 C1382 0.930 . S
H1388 C1383 0.930 . S
O1389 Cu1369 1.959 . S
O1389 C1376 1.251 . S
H1390 C1373 0.930 . S
H1391 C1384 0.929 . S
Cu1392 N1393 1.999 . S
Cu1392 O1398 1.974 . S
Cu1392 N1403 1.985 . S
Cu1392 O1412 1.959 . S
N1393 Cu1392 1.999 . S
N1393 C1395 1.263 . S
N1393 C1397 1.389 . S
N1394 C1395 1.358 . S
N1394 C1396 1.400 . S
C1395 N1393 1.263 . S
C1395 N1394 1.358 . S
C1395 H1401 0.930 . S
C1396 N1394 1.400 . S
C1396 C1397 1.351 . S
C1396 H1413 0.930 . S
C1397 N1393 1.389 . S
C1397 C1396 1.351 . S
C1397 H1402 0.930 . S
O1398 Cu1392 1.974 . S
O1398 C1408 1.282 . S
C1399 O1400 1.261 . S
C1399 O1412 1.251 . S
O1400 C1399 1.261 . S
H1401 C1395 0.930 . S
H1402 C1397 0.930 . S
N1403 Cu1392 1.985 . S
N1403 C1405 1.335 . S
N1403 C1406 1.390 . S
N1404 C1405 1.345 . S
N1404 C1407 1.336 . S
C1405 N1403 1.335 . S
C1405 N1404 1.345 . S
C1405 H1410 0.930 . S
C1406 N1403 1.390 . S
C1406 C1407 1.346 . S
C1406 H1411 0.930 . S
C1407 N1404 1.336 . S
C1407 C1406 1.346 . S
C1407 H1414 0.929 . S
C1408 O1398 1.282 . S
C1408 O1409 1.216 . S
O1409 C1408 1.216 . S
H1410 C1405 0.930 . S
H1411 C1406 0.930 . S
O1412 Cu1392 1.959 . S
O1412 C1399 1.251 . S
H1413 C1396 0.930 . S
H1414 C1407 0.929 . S
Cu1415 N1416 1.999 . S
Cu1415 O1421 1.974 . S
Cu1415 N1426 1.985 . S
Cu1415 O1435 1.959 . S
N1416 Cu1415 1.999 . S
N1416 C1418 1.263 . S
N1416 C1420 1.389 . S
N1417 C1418 1.358 . S
N1417 C1419 1.400 . S
C1418 N1416 1.263 . S
C1418 N1417 1.358 . S
C1418 H1424 0.930 . S
C1419 N1417 1.400 . S
C1419 C1420 1.351 . S
C1419 H1436 0.930 . S
C1420 N1416 1.389 . S
C1420 C1419 1.351 . S
C1420 H1425 0.930 . S
O1421 Cu1415 1.974 . S
O1421 C1431 1.282 . S
C1422 O1423 1.261 . S
C1422 O1435 1.251 . S
O1423 C1422 1.261 . S
H1424 C1418 0.930 . S
H1425 C1420 0.930 . S
N1426 Cu1415 1.985 . S
N1426 C1428 1.335 . S
N1426 C1429 1.390 . S
N1427 C1428 1.345 . S
N1427 C1430 1.336 . S
C1428 N1426 1.335 . S
C1428 N1427 1.345 . S
C1428 H1433 0.930 . S
C1429 N1426 1.390 . S
C1429 C1430 1.346 . S
C1429 H1434 0.930 . S
C1430 N1427 1.336 . S
C1430 C1429 1.346 . S
C1430 H1437 0.929 . S
C1431 O1421 1.282 . S
C1431 O1432 1.216 . S
O1432 C1431 1.216 . S
H1433 C1428 0.930 . S
H1434 C1429 0.930 . S
O1435 Cu1415 1.959 . S
O1435 C1422 1.251 . S
H1436 C1419 0.930 . S
H1437 C1430 0.929 . S
Cu1438 N1439 1.999 . S
Cu1438 O1444 1.974 . S
Cu1438 N1449 1.985 . S
Cu1438 O1458 1.959 . S
N1439 Cu1438 1.999 . S
N1439 C1441 1.263 . S
N1439 C1443 1.389 . S
N1440 C1441 1.358 . S
N1440 C1442 1.400 . S
C1441 N1439 1.263 . S
C1441 N1440 1.358 . S
C1441 H1447 0.930 . S
C1442 N1440 1.400 . S
C1442 C1443 1.351 . S
C1442 H1459 0.930 . S
C1443 N1439 1.389 . S
C1443 C1442 1.351 . S
C1443 H1448 0.930 . S
O1444 Cu1438 1.974 . S
O1444 C1454 1.282 . S
C1445 O1446 1.261 . S
C1445 O1458 1.251 . S
O1446 C1445 1.261 . S
H1447 C1441 0.930 . S
H1448 C1443 0.930 . S
N1449 Cu1438 1.985 . S
N1449 C1451 1.335 . S
N1449 C1452 1.390 . S
N1450 C1451 1.345 . S
N1450 C1453 1.336 . S
C1451 N1449 1.335 . S
C1451 N1450 1.345 . S
C1451 H1456 0.930 . S
C1452 N1449 1.390 . S
C1452 C1453 1.346 . S
C1452 H1457 0.930 . S
C1453 N1450 1.336 . S
C1453 C1452 1.346 . S
C1453 H1460 0.929 . S
C1454 O1444 1.282 . S
C1454 O1455 1.216 . S
O1455 C1454 1.216 . S
H1456 C1451 0.930 . S
H1457 C1452 0.930 . S
O1458 Cu1438 1.959 . S
O1458 C1445 1.251 . S
H1459 C1442 0.930 . S
H1460 C1453 0.929 . S
Cu1461 N1462 1.999 . S
Cu1461 O1467 1.974 . S
Cu1461 N1472 1.985 . S
Cu1461 O1481 1.959 . S
N1462 Cu1461 1.999 . S
N1462 C1464 1.263 . S
N1462 C1466 1.389 . S
N1463 C1464 1.358 . S
N1463 C1465 1.400 . S
C1464 N1462 1.263 . S
C1464 N1463 1.358 . S
C1464 H1470 0.930 . S
C1465 N1463 1.400 . S
C1465 C1466 1.351 . S
C1465 H1482 0.930 . S
C1466 N1462 1.389 . S
C1466 C1465 1.351 . S
C1466 H1471 0.930 . S
O1467 Cu1461 1.974 . S
O1467 C1477 1.282 . S
C1468 O1469 1.261 . S
C1468 O1481 1.251 . S
O1469 C1468 1.261 . S
H1470 C1464 0.930 . S
H1471 C1466 0.930 . S
N1472 Cu1461 1.985 . S
N1472 C1474 1.335 . S
N1472 C1475 1.390 . S
N1473 C1474 1.345 . S
N1473 C1476 1.336 . S
C1474 N1472 1.335 . S
C1474 N1473 1.345 . S
C1474 H1479 0.930 . S
C1475 N1472 1.390 . S
C1475 C1476 1.346 . S
C1475 H1480 0.930 . S
C1476 N1473 1.336 . S
C1476 C1475 1.346 . S
C1476 H1483 0.929 . S
C1477 O1467 1.282 . S
C1477 O1478 1.216 . S
O1478 C1477 1.216 . S
H1479 C1474 0.930 . S
H1480 C1475 0.930 . S
O1481 Cu1461 1.959 . S
O1481 C1468 1.251 . S
H1482 C1465 0.930 . S
H1483 C1476 0.929 . S
Cu1484 N1485 1.999 . S
Cu1484 O1490 1.974 . S
Cu1484 N1495 1.985 . S
Cu1484 O1504 1.959 . S
N1485 Cu1484 1.999 . S
N1485 C1487 1.263 . S
N1485 C1489 1.389 . S
N1486 C1487 1.358 . S
N1486 C1488 1.400 . S
C1487 N1485 1.263 . S
C1487 N1486 1.358 . S
C1487 H1493 0.930 . S
C1488 N1486 1.400 . S
C1488 C1489 1.351 . S
C1488 H1505 0.930 . S
C1489 N1485 1.389 . S
C1489 C1488 1.351 . S
C1489 H1494 0.930 . S
O1490 Cu1484 1.974 . S
O1490 C1500 1.282 . S
C1491 O1492 1.261 . S
C1491 O1504 1.251 . S
O1492 C1491 1.261 . S
H1493 C1487 0.930 . S
H1494 C1489 0.930 . S
N1495 Cu1484 1.985 . S
N1495 C1497 1.335 . S
N1495 C1498 1.390 . S
N1496 C1497 1.345 . S
N1496 C1499 1.336 . S
C1497 N1495 1.335 . S
C1497 N1496 1.345 . S
C1497 H1502 0.930 . S
C1498 N1495 1.390 . S
C1498 C1499 1.346 . S
C1498 H1503 0.930 . S
C1499 N1496 1.336 . S
C1499 C1498 1.346 . S
C1499 H1506 0.929 . S
C1500 O1490 1.282 . S
C1500 O1501 1.216 . S
O1501 C1500 1.216 . S
H1502 C1497 0.930 . S
H1503 C1498 0.930 . S
O1504 Cu1484 1.959 . S
O1504 C1491 1.251 . S
H1505 C1488 0.930 . S
H1506 C1499 0.929 . S
Cu1507 N1508 1.999 . S
Cu1507 O1513 1.974 . S
Cu1507 N1518 1.985 . S
Cu1507 O1527 1.959 . S
N1508 Cu1507 1.999 . S
N1508 C1510 1.263 . S
N1508 C1512 1.389 . S
N1509 C1510 1.358 . S
N1509 C1511 1.400 . S
C1510 N1508 1.263 . S
C1510 N1509 1.358 . S
C1510 H1516 0.930 . S
C1511 N1509 1.400 . S
C1511 C1512 1.351 . S
C1511 H1528 0.930 . S
C1512 N1508 1.389 . S
C1512 C1511 1.351 . S
C1512 H1517 0.930 . S
O1513 Cu1507 1.974 . S
O1513 C1523 1.282 . S
C1514 O1515 1.261 . S
C1514 O1527 1.251 . S
O1515 C1514 1.261 . S
H1516 C1510 0.930 . S
H1517 C1512 0.930 . S
N1518 Cu1507 1.985 . S
N1518 C1520 1.335 . S
N1518 C1521 1.390 . S
N1519 C1520 1.345 . S
N1519 C1522 1.336 . S
C1520 N1518 1.335 . S
C1520 N1519 1.345 . S
C1520 H1525 0.930 . S
C1521 N1518 1.390 . S
C1521 C1522 1.346 . S
C1521 H1526 0.930 . S
C1522 N1519 1.336 . S
C1522 C1521 1.346 . S
C1522 H1529 0.929 . S
C1523 O1513 1.282 . S
C1523 O1524 1.216 . S
O1524 C1523 1.216 . S
H1525 C1520 0.930 . S
H1526 C1521 0.930 . S
O1527 Cu1507 1.959 . S
O1527 C1514 1.251 . S
H1528 C1511 0.930 . S
H1529 C1522 0.929 . S
Cu1530 N1531 1.999 . S
Cu1530 O1536 1.974 . S
Cu1530 N1541 1.985 . S
Cu1530 O1550 1.959 . S
N1531 Cu1530 1.999 . S
N1531 C1533 1.263 . S
N1531 C1535 1.389 . S
N1532 C1533 1.358 . S
N1532 C1534 1.400 . S
C1533 N1531 1.263 . S
C1533 N1532 1.358 . S
C1533 H1539 0.930 . S
C1534 N1532 1.400 . S
C1534 C1535 1.351 . S
C1534 H1551 0.930 . S
C1535 N1531 1.389 . S
C1535 C1534 1.351 . S
C1535 H1540 0.930 . S
O1536 Cu1530 1.974 . S
O1536 C1546 1.282 . S
C1537 O1538 1.261 . S
C1537 O1550 1.251 . S
O1538 C1537 1.261 . S
H1539 C1533 0.930 . S
H1540 C1535 0.930 . S
N1541 Cu1530 1.985 . S
N1541 C1543 1.335 . S
N1541 C1544 1.390 . S
N1542 C1543 1.345 . S
N1542 C1545 1.336 . S
C1543 N1541 1.335 . S
C1543 N1542 1.345 . S
C1543 H1548 0.930 . S
C1544 N1541 1.390 . S
C1544 C1545 1.346 . S
C1544 H1549 0.930 . S
C1545 N1542 1.336 . S
C1545 C1544 1.346 . S
C1545 H1552 0.929 . S
C1546 O1536 1.282 . S
C1546 O1547 1.216 . S
O1547 C1546 1.216 . S
H1548 C1543 0.930 . S
H1549 C1544 0.930 . S
O1550 Cu1530 1.959 . S
O1550 C1537 1.251 . S
H1551 C1534 0.930 . S
H1552 C1545 0.929 . S
Cu1553 N1554 1.999 . S
Cu1553 O1559 1.974 . S
Cu1553 N1564 1.985 . S
Cu1553 O1573 1.959 . S
N1554 Cu1553 1.999 . S
N1554 C1556 1.263 . S
N1554 C1558 1.389 . S
N1555 C1556 1.358 . S
N1555 C1557 1.400 . S
C1556 N1554 1.263 . S
C1556 N1555 1.358 . S
C1556 H1562 0.930 . S
C1557 N1555 1.400 . S
C1557 C1558 1.351 . S
C1557 H1574 0.930 . S
C1558 N1554 1.389 . S
C1558 C1557 1.351 . S
C1558 H1563 0.930 . S
O1559 Cu1553 1.974 . S
O1559 C1569 1.282 . S
C1560 O1561 1.261 . S
C1560 O1573 1.251 . S
O1561 C1560 1.261 . S
H1562 C1556 0.930 . S
H1563 C1558 0.930 . S
N1564 Cu1553 1.985 . S
N1564 C1566 1.335 . S
N1564 C1567 1.390 . S
N1565 C1566 1.345 . S
N1565 C1568 1.336 . S
C1566 N1564 1.335 . S
C1566 N1565 1.345 . S
C1566 H1571 0.930 . S
C1567 N1564 1.390 . S
C1567 C1568 1.346 . S
C1567 H1572 0.930 . S
C1568 N1565 1.336 . S
C1568 C1567 1.346 . S
C1568 H1575 0.929 . S
C1569 O1559 1.282 . S
C1569 O1570 1.216 . S
O1570 C1569 1.216 . S
H1571 C1566 0.930 . S
H1572 C1567 0.930 . S
O1573 Cu1553 1.959 . S
O1573 C1560 1.251 . S
H1574 C1557 0.930 . S
H1575 C1568 0.929 . S
N1036 C29 1.470 . S
C1063 C61 1.826 . S
C93 C1077 1.592 . S
N1095 C119 1.468 . S
C157 C1100 1.720 . S
C177 C1040 1.720 . S
C221 N1059 1.365 . S
N1072 C253 1.498 . S
N1118 C17 1.331 . S
C55 N1141 1.663 . S
C87 N1164 1.968 . S
N1197 C113 1.347 . S
C145 C1224 1.556 . S
C1247 C183 1.646 . S
C215 C1270 1.748 . S
C1284 C247 1.398 . S
C23 C1201 1.627 . S
C151 N1243 1.458 . S
N1266 C189 1.420 . S
C209 N1279 1.452 . S
N1220 C241 1.427 . S
C1146 C81 1.830 . S
C125 C1169 1.646 . S
C1123 C49 1.898 . S
C1316 C285 1.471 . S
C317 C1330 1.722 . S
C349 N1358 1.482 . S
N1371 C375 1.407 . S
C413 C1376 1.775 . S
C433 N1312 1.631 . S
C477 N1325 1.730 . S
C509 C1362 1.527 . S
N1210 C273 1.405 . S
C311 N1394 1.405 . S
N1256 C343 1.476 . S
C369 C1431 1.707 . S
C401 C1132 1.673 . S
C1445 C439 1.660 . S
C471 C1178 1.587 . S
N1463 C503 1.327 . S
C279 N1427 1.365 . S
N1440 C407 1.579 . S
C445 N1174 1.446 . S
C1468 C465 1.383 . S
C497 N1128 1.374 . S
C337 C1399 1.666 . S
C381 C1261 1.750 . S
C305 C1215 1.761 . S
C541 C1353 1.543 . S
C1385 C573 1.625 . S
C605 N1302 1.474 . S
C631 N1335 1.345 . S
C669 C1339 1.753 . S
C689 N1348 1.713 . S
N1381 C733 1.353 . S
C765 C1307 1.520 . S
N1496 C529 1.356 . S
C567 N1233 1.378 . S
N1519 C599 1.429 . S
C625 N1289 1.536 . S
C657 C1537 1.602 . S
C695 C1155 1.815 . S
N1555 C727 1.387 . S
C759 C1192 1.528 . S
C1293 C535 1.563 . S
N1151 C663 1.588 . S
C701 C1560 1.632 . S
C721 N1187 1.265 . S
N1532 C753 1.635 . S
C1238 C593 1.738 . S
C1523 C637 1.865 . S
C1500 C561 1.811 . S
C797 N1082 1.282 . S
C829 C1109 1.673 . S
C1031 C861 1.615 . S
N1049 C887 1.391 . S
C1054 C925 1.881 . S
C1086 C945 2.008 . S
N1105 C989 1.630 . S
C1021 N1026 1.725 . S
C785 N1542 1.219 . S
N1450 C823 1.395 . S
C1569 C855 1.856 . S
C1477 C881 1.350 . S
C913 C1491 1.609 . S
C1408 C951 1.618 . S
C1514 C983 1.844 . S
C1015 N1417 1.458 . S
N1473 C791 1.212 . S
N1404 C919 1.493 . S
N1509 C957 1.409 . S
C977 C1422 1.554 . S
C1009 N1486 1.536 . S
C849 C1454 1.815 . S
C893 N1565 1.314 . S
C1546 C817 1.745 . S
