# Generated by pormake.
# Topology ptr, (4,4)-cn, num edge types: 1
# Building blocks:
#     Node 0, Type 0, BuildingBlock: TATPOV_clean_sbu_0, # of connection points: 4
#     Node 1, Type 0, BuildingBlock: TATPOV_clean_sbu_0, # of connection points: 4
#     Node 2, Type 0, BuildingBlock: TATPOV_clean_sbu_0, # of connection points: 4
#     Node 3, Type 0, BuildingBlock: TATPOV_clean_sbu_0, # of connection points: 4
#     Node 4, Type 0, BuildingBlock: TATPOV_clean_sbu_0, # of connection points: 4
#     Node 5, Type 0, BuildingBlock: TATPOV_clean_sbu_0, # of connection points: 4
#     Node 6, Type 0, BuildingBlock: TATPOV_clean_sbu_0, # of connection points: 4
#     Node 7, Type 0, BuildingBlock: TATPOV_clean_sbu_0, # of connection points: 4
#     Node 8, Type 0, BuildingBlock: TATPOV_clean_sbu_0, # of connection points: 4
#     Node 9, Type 0, BuildingBlock: TATPOV_clean_sbu_0, # of connection points: 4
#     Node 10, Type 0, BuildingBlock: TATPOV_clean_sbu_0, # of connection points: 4
#     Node 11, Type 0, BuildingBlock: TATPOV_clean_sbu_0, # of connection points: 4
#     Node 12, Type 0, BuildingBlock: TATPOV_clean_sbu_0, # of connection points: 4
#     Node 13, Type 0, BuildingBlock: TATPOV_clean_sbu_0, # of connection points: 4
#     Node 14, Type 0, BuildingBlock: TATPOV_clean_sbu_0, # of connection points: 4
#     Node 15, Type 0, BuildingBlock: TATPOV_clean_sbu_0, # of connection points: 4
#     Node 16, Type 0, BuildingBlock: TATPOV_clean_sbu_0, # of connection points: 4
#     Node 17, Type 0, BuildingBlock: TATPOV_clean_sbu_0, # of connection points: 4
#     Node 18, Type 1, BuildingBlock: MUDLON_clean_linker_0, # of connection points: 4
#     Node 19, Type 1, BuildingBlock: MUDLON_clean_linker_0, # of connection points: 4
#     Node 20, Type 1, BuildingBlock: MUDLON_clean_linker_0, # of connection points: 4
#     Node 21, Type 1, BuildingBlock: MUDLON_clean_linker_0, # of connection points: 4
#     Node 22, Type 1, BuildingBlock: MUDLON_clean_linker_0, # of connection points: 4
#     Node 23, Type 1, BuildingBlock: MUDLON_clean_linker_0, # of connection points: 4
#     Node 24, Type 1, BuildingBlock: MUDLON_clean_linker_0, # of connection points: 4
#     Node 25, Type 1, BuildingBlock: MUDLON_clean_linker_0, # of connection points: 4
#     Node 26, Type 1, BuildingBlock: MUDLON_clean_linker_0, # of connection points: 4
#     Node 27, Type 1, BuildingBlock: MUDLON_clean_linker_0, # of connection points: 4
#     Node 28, Type 1, BuildingBlock: MUDLON_clean_linker_0, # of connection points: 4
#     Node 29, Type 1, BuildingBlock: MUDLON_clean_linker_0, # of connection points: 4
#     Node 30, Type 1, BuildingBlock: MUDLON_clean_linker_0, # of connection points: 4
#     Node 31, Type 1, BuildingBlock: MUDLON_clean_linker_0, # of connection points: 4
#     Node 32, Type 1, BuildingBlock: MUDLON_clean_linker_0, # of connection points: 4
#     Node 33, Type 1, BuildingBlock: MUDLON_clean_linker_0, # of connection points: 4
#     Node 34, Type 1, BuildingBlock: MUDLON_clean_linker_0, # of connection points: 4
#     Node 35, Type 1, BuildingBlock: MUDLON_clean_linker_0, # of connection points: 4
#     Edge 36, Type (0, 1), BuildingBlock: UVAHIK_clean_linker_0, # of connection points: 2
#     Edge 37, Type (0, 1), BuildingBlock: UVAHIK_clean_linker_0, # of connection points: 2
#     Edge 38, Type (0, 1), BuildingBlock: UVAHIK_clean_linker_0, # of connection points: 2
#     Edge 39, Type (0, 1), BuildingBlock: UVAHIK_clean_linker_0, # of connection points: 2
#     Edge 40, Type (0, 1), BuildingBlock: UVAHIK_clean_linker_0, # of connection points: 2
#     Edge 41, Type (0, 1), BuildingBlock: UVAHIK_clean_linker_0, # of connection points: 2
#     Edge 42, Type (0, 1), BuildingBlock: UVAHIK_clean_linker_0, # of connection points: 2
#     Edge 43, Type (0, 1), BuildingBlock: UVAHIK_clean_linker_0, # of connection points: 2
#     Edge 44, Type (0, 1), BuildingBlock: UVAHIK_clean_linker_0, # of connection points: 2
#     Edge 45, Type (0, 1), BuildingBlock: UVAHIK_clean_linker_0, # of connection points: 2
#     Edge 46, Type (0, 1), BuildingBlock: UVAHIK_clean_linker_0, # of connection points: 2
#     Edge 47, Type (0, 1), BuildingBlock: UVAHIK_clean_linker_0, # of connection points: 2
#     Edge 48, Type (0, 1), BuildingBlock: UVAHIK_clean_linker_0, # of connection points: 2
#     Edge 49, Type (0, 1), BuildingBlock: UVAHIK_clean_linker_0, # of connection points: 2
#     Edge 50, Type (0, 1), BuildingBlock: UVAHIK_clean_linker_0, # of connection points: 2
#     Edge 51, Type (0, 1), BuildingBlock: UVAHIK_clean_linker_0, # of connection points: 2
#     Edge 52, Type (0, 1), BuildingBlock: UVAHIK_clean_linker_0, # of connection points: 2
#     Edge 53, Type (0, 1), BuildingBlock: UVAHIK_clean_linker_0, # of connection points: 2
#     Edge 54, Type (0, 1), BuildingBlock: UVAHIK_clean_linker_0, # of connection points: 2
#     Edge 55, Type (0, 1), BuildingBlock: UVAHIK_clean_linker_0, # of connection points: 2
#     Edge 56, Type (0, 1), BuildingBlock: UVAHIK_clean_linker_0, # of connection points: 2
#     Edge 57, Type (0, 1), BuildingBlock: UVAHIK_clean_linker_0, # of connection points: 2
#     Edge 58, Type (0, 1), BuildingBlock: UVAHIK_clean_linker_0, # of connection points: 2
#     Edge 59, Type (0, 1), BuildingBlock: UVAHIK_clean_linker_0, # of connection points: 2
#     Edge 60, Type (0, 1), BuildingBlock: UVAHIK_clean_linker_0, # of connection points: 2
#     Edge 61, Type (0, 1), BuildingBlock: UVAHIK_clean_linker_0, # of connection points: 2
#     Edge 62, Type (0, 1), BuildingBlock: UVAHIK_clean_linker_0, # of connection points: 2
#     Edge 63, Type (0, 1), BuildingBlock: UVAHIK_clean_linker_0, # of connection points: 2
#     Edge 64, Type (0, 1), BuildingBlock: UVAHIK_clean_linker_0, # of connection points: 2
#     Edge 65, Type (0, 1), BuildingBlock: UVAHIK_clean_linker_0, # of connection points: 2
#     Edge 66, Type (0, 1), BuildingBlock: UVAHIK_clean_linker_0, # of connection points: 2
#     Edge 67, Type (0, 1), BuildingBlock: UVAHIK_clean_linker_0, # of connection points: 2
#     Edge 68, Type (0, 1), BuildingBlock: UVAHIK_clean_linker_0, # of connection points: 2
#     Edge 69, Type (0, 1), BuildingBlock: UVAHIK_clean_linker_0, # of connection points: 2
#     Edge 70, Type (0, 1), BuildingBlock: UVAHIK_clean_linker_0, # of connection points: 2
#     Edge 71, Type (0, 1), BuildingBlock: UVAHIK_clean_linker_0, # of connection points: 2
#     Edge 72, Type (0, 1), BuildingBlock: UVAHIK_clean_linker_0, # of connection points: 2
#     Edge 73, Type (0, 1), BuildingBlock: UVAHIK_clean_linker_0, # of connection points: 2
#     Edge 74, Type (0, 1), BuildingBlock: UVAHIK_clean_linker_0, # of connection points: 2
#     Edge 75, Type (0, 1), BuildingBlock: UVAHIK_clean_linker_0, # of connection points: 2
#     Edge 76, Type (0, 1), BuildingBlock: UVAHIK_clean_linker_0, # of connection points: 2
#     Edge 77, Type (0, 1), BuildingBlock: UVAHIK_clean_linker_0, # of connection points: 2
#     Edge 78, Type (0, 1), BuildingBlock: UVAHIK_clean_linker_0, # of connection points: 2
#     Edge 79, Type (0, 1), BuildingBlock: UVAHIK_clean_linker_0, # of connection points: 2
#     Edge 80, Type (0, 1), BuildingBlock: UVAHIK_clean_linker_0, # of connection points: 2
#     Edge 81, Type (0, 1), BuildingBlock: UVAHIK_clean_linker_0, # of connection points: 2
#     Edge 82, Type (0, 1), BuildingBlock: UVAHIK_clean_linker_0, # of connection points: 2
#     Edge 83, Type (0, 1), BuildingBlock: UVAHIK_clean_linker_0, # of connection points: 2
#     Edge 84, Type (0, 1), BuildingBlock: UVAHIK_clean_linker_0, # of connection points: 2
#     Edge 85, Type (0, 1), BuildingBlock: UVAHIK_clean_linker_0, # of connection points: 2
#     Edge 86, Type (0, 1), BuildingBlock: UVAHIK_clean_linker_0, # of connection points: 2
#     Edge 87, Type (0, 1), BuildingBlock: UVAHIK_clean_linker_0, # of connection points: 2
#     Edge 88, Type (0, 1), BuildingBlock: UVAHIK_clean_linker_0, # of connection points: 2
#     Edge 89, Type (0, 1), BuildingBlock: UVAHIK_clean_linker_0, # of connection points: 2
#     Edge 90, Type (0, 1), BuildingBlock: UVAHIK_clean_linker_0, # of connection points: 2
#     Edge 91, Type (0, 1), BuildingBlock: UVAHIK_clean_linker_0, # of connection points: 2
#     Edge 92, Type (0, 1), BuildingBlock: UVAHIK_clean_linker_0, # of connection points: 2
#     Edge 93, Type (0, 1), BuildingBlock: UVAHIK_clean_linker_0, # of connection points: 2
#     Edge 94, Type (0, 1), BuildingBlock: UVAHIK_clean_linker_0, # of connection points: 2
#     Edge 95, Type (0, 1), BuildingBlock: UVAHIK_clean_linker_0, # of connection points: 2
#     Edge 96, Type (0, 1), BuildingBlock: UVAHIK_clean_linker_0, # of connection points: 2
#     Edge 97, Type (0, 1), BuildingBlock: UVAHIK_clean_linker_0, # of connection points: 2
#     Edge 98, Type (0, 1), BuildingBlock: UVAHIK_clean_linker_0, # of connection points: 2
#     Edge 99, Type (0, 1), BuildingBlock: UVAHIK_clean_linker_0, # of connection points: 2
#     Edge 100, Type (0, 1), BuildingBlock: UVAHIK_clean_linker_0, # of connection points: 2
#     Edge 101, Type (0, 1), BuildingBlock: UVAHIK_clean_linker_0, # of connection points: 2
#     Edge 102, Type (0, 1), BuildingBlock: UVAHIK_clean_linker_0, # of connection points: 2
#     Edge 103, Type (0, 1), BuildingBlock: UVAHIK_clean_linker_0, # of connection points: 2
#     Edge 104, Type (0, 1), BuildingBlock: UVAHIK_clean_linker_0, # of connection points: 2
#     Edge 105, Type (0, 1), BuildingBlock: UVAHIK_clean_linker_0, # of connection points: 2
#     Edge 106, Type (0, 1), BuildingBlock: UVAHIK_clean_linker_0, # of connection points: 2
#     Edge 107, Type (0, 1), BuildingBlock: UVAHIK_clean_linker_0, # of connection points: 2
# Relax obj value: 0.059
# Max RMSD: 0.182
# Mean RMSD: 0.098
data_MOF--net-ptr--node1-TATPOV_clean_sbu_0--node2-MUDLON_clean_linker_0--edge1-UVAHIK_clean_linker_0
_symmetry_space_group_name_H-M    P1
_symmetry_Int_Tables_number       1
_symmetry_cell_setting            triclinic
loop_
_symmetry_equiv_pos_as_xyz
'x, y, z'
_cell_length_a     127.31633
_cell_length_b     129.05599
_cell_length_c     74.74351
_cell_angle_alpha  89.59565
_cell_angle_beta   90.812979
_cell_angle_gamma 121.31231
loop_
_atom_site_label
_atom_site_type_symbol
_atom_site_fract_x
_atom_site_fract_y
_atom_site_fract_z
_atom_type_partial_charge
Zn0 Zn 0.97095 0.36904 0.01756 0.0
Zn1 Zn 0.99282 0.37045 0.01717 0.0
O2 O 0.97977 0.3521 0.01464 0.0
O3 O 0.96191 0.35093 0.01477 0.0
O4 O 0.00896 0.37087 0.01866 0.0
O5 O 0.9748 0.37674 0.04209 0.0
O6 O 0.99304 0.37877 0.04078 0.0
C7 C 0.96806 0.34579 0.01372 0.0
C8 C 0.98673 0.3834 0.9882 0.0
O9 O 0.99425 0.38069 0.99498 0.0
O10 O 0.97637 0.37956 0.99535 0.0
C11 C 0.01062 0.36294 0.01144 0.0
O12 O 0.0017 0.35427 0.00182 0.0
C13 C 0.98532 0.38046 0.04893 0.0
Zn14 Zn 0.64186 0.61567 0.01152 0.0
Zn15 Zn 0.6418 0.63544 0.02037 0.0
O16 O 0.66016 0.6415 0.01537 0.0
O17 O 0.6602 0.62475 0.01027 0.0
O18 O 0.64258 0.651 0.02697 0.0
O19 O 0.63361 0.60776 0.03455 0.0
O20 O 0.6344 0.6245 0.04276 0.0
C21 C 0.66599 0.63616 0.01203 0.0
C22 C 0.62744 0.62066 0.9872 0.0
O23 O 0.63016 0.62923 0.99822 0.0
O24 O 0.63172 0.61382 0.98954 0.0
C25 C 0.64638 0.6595 0.01551 0.0
O26 O 0.64939 0.65778 -0.00047 0.0
C27 C 0.63155 0.61363 0.04605 0.0
Zn28 Zn 0.36671 0.98119 0.02587 0.0
Zn29 Zn 0.36817 0.0022 0.01704 0.0
O30 O 0.34963 0.98986 0.02077 0.0
O31 O 0.34829 0.97255 0.02713 0.0
O32 O 0.36843 0.01761 0.01078 0.0
O33 O 0.37468 0.98192 0.00229 0.0
O34 O 0.37554 0.99892 0.99498 0.0
C35 C 0.34315 0.97859 0.02445 0.0
C36 C 0.38173 0.00068 0.05037 0.0
O37 O 0.37934 0.00685 0.03947 0.0
O38 O 0.37712 0.98942 0.04788 0.0
C39 C 0.36139 0.02028 0.01879 0.0
O40 O 0.35418 0.01304 0.03142 0.0
C41 C 0.37753 0.99046 0.99125 0.0
Zn42 Zn 0.02608 0.63535 0.01026 0.0
Zn43 Zn 0.00379 0.63314 0.01228 0.0
O44 O 0.01666 0.65156 0.01335 0.0
O45 O 0.03479 0.65357 0.0104 0.0
O46 O 0.98769 0.63278 0.01235 0.0
O47 O 0.021 0.62637 0.98675 0.0
O48 O 0.00273 0.62423 0.98887 0.0
C49 C 0.02831 0.6583 0.01229 0.0
C50 C 0.01171 0.62188 0.0414 0.0
O51 O 0.00355 0.62372 0.03469 0.0
O52 O 0.02197 0.62605 0.03373 0.0
C53 C 0.98666 0.64042 0.02166 0.0
O54 O 0.99589 0.64797 0.03204 0.0
C55 C 0.01026 0.62236 0.98052 0.0
Zn56 Zn 0.36241 0.39204 0.01676 0.0
Zn57 Zn 0.36241 0.37127 0.01315 0.0
O58 O 0.34409 0.36576 0.01627 0.0
O59 O 0.34401 0.38269 0.01884 0.0
O60 O 0.36146 0.3554 0.0085 0.0
O61 O 0.37012 0.39763 0.99248 0.0
O62 O 0.37075 0.38096 0.99031 0.0
C63 C 0.33823 0.37123 0.01826 0.0
C64 C 0.37669 0.3884 0.04411 0.0
O65 O 0.37335 0.3786 0.03562 0.0
O66 O 0.37315 0.39546 0.03883 0.0
C67 C 0.36279 0.34886 0.02002 0.0
O68 O 0.36526 0.35247 0.03676 0.0
C69 C 0.37305 0.3911 0.98391 0.0
Zn70 Zn 0.63453 0.02042 0.00933 0.0
Zn71 Zn 0.63387 0.99933 0.01273 0.0
O72 O 0.65243 0.01245 0.011 0.0
O73 O 0.65296 0.02973 0.00901 0.0
O74 O 0.63425 0.98403 0.01647 0.0
O75 O 0.62575 0.01731 0.03286 0.0
O76 O 0.62495 0.99988 0.03515 0.0
C77 C 0.65854 0.02399 0.00974 0.0
C78 C 0.62114 0.00328 0.98072 0.0
O79 O 0.62368 0.99638 0.98961 0.0
O80 O 0.62491 0.01396 0.98612 0.0
C81 C 0.64026 0.98121 0.00619 0.0
O82 O 0.64593 0.98819 0.9924 0.0
C83 C 0.6225 0.00757 0.0413 0.0
Zn84 Zn 0.63634 0.70067 0.34513 0.0
Zn85 Zn 0.65761 0.70117 0.35051 0.0
O86 O 0.64408 0.68302 0.34843 0.0
O87 O 0.62653 0.68238 0.34554 0.0
O88 O 0.6731 0.70055 0.35423 0.0
O89 O 0.63968 0.7101 0.36804 0.0
O90 O 0.65665 0.70987 0.37302 0.0
C91 C 0.6324 0.67694 0.34678 0.0
C92 C 0.65412 0.71335 0.31739 0.0
O93 O 0.66091 0.71105 0.32726 0.0
O94 O 0.64314 0.70959 0.32183 0.0
C95 C 0.67428 0.69279 0.34549 0.0
O96 O 0.66563 0.6857 0.334 0.0
C97 C 0.64899 0.71285 0.37779 0.0
Zn98 Zn 0.3051 0.94555 0.34217 0.0
Zn99 Zn 0.30426 0.96532 0.34941 0.0
O100 O 0.3227 0.97162 0.34497 0.0
O101 O 0.32347 0.95518 0.34064 0.0
O102 O 0.30462 0.98086 0.35459 0.0
O103 O 0.29725 0.93846 0.36576 0.0
O104 O 0.29685 0.95487 0.37221 0.0
C105 C 0.32888 0.96659 0.34205 0.0
C106 C 0.29013 0.94939 0.31702 0.0
O107 O 0.29288 0.95835 0.32722 0.0
O108 O 0.29451 0.9427 0.32024 0.0
C109 C 0.30953 0.98942 0.34322 0.0
O110 O 0.31383 0.9877 0.32838 0.0
C111 C 0.29463 0.94432 0.37646 0.0
Zn112 Zn 0.0328 0.31255 0.35013 0.0
Zn113 Zn 0.03522 0.33461 0.34959 0.0
O114 O 0.0166 0.32246 0.3531 0.0
O115 O 0.01459 0.30447 0.35377 0.0
O116 O 0.03645 0.35087 0.34752 0.0
O117 O 0.03951 0.31516 0.32517 0.0
O118 O 0.04248 0.33357 0.32565 0.0
C119 C 0.00984 0.31097 0.35458 0.0
C120 C 0.04892 0.32891 0.37809 0.0
O121 O 0.04615 0.33629 0.37127 0.0
O122 O 0.04445 0.3184 0.37148 0.0
C123 C 0.02922 0.35333 0.35544 0.0
O124 O 0.02081 0.3452 0.36609 0.0
C125 C 0.04339 0.32535 0.31774 0.0
Zn126 Zn 0.69451 0.96722 0.35784 0.0
Zn127 Zn 0.67334 0.96614 0.35061 0.0
O128 O 0.68619 0.98457 0.35348 0.0
O129 O 0.70345 0.98529 0.36023 0.0
O130 O 0.6576 0.96592 0.34515 0.0
O131 O 0.69323 0.95934 0.33404 0.0
O132 O 0.6756 0.95809 0.32835 0.0
C133 C 0.69761 0.99065 0.35755 0.0
C134 C 0.67598 0.9533 0.38375 0.0
O135 O 0.66941 0.95585 0.37378 0.0
O136 O 0.68705 0.95713 0.37982 0.0
C137 C 0.65526 0.97317 0.3531 0.0
O138 O 0.66306 0.98061 0.36523 0.0
C139 C 0.68404 0.95615 0.32378 0.0
Zn140 Zn 0.02949 0.72748 0.35482 0.0
Zn141 Zn 0.02985 0.70697 0.35037 0.0
O142 O 0.01142 0.70098 0.35404 0.0
O143 O 0.01113 0.71777 0.35726 0.0
O144 O 0.02967 0.69155 0.34497 0.0
O145 O 0.0369 0.73351 0.33047 0.0
O146 O 0.03785 0.71704 0.32768 0.0
C147 C 0.00547 0.70631 0.35648 0.0
C148 C 0.04428 0.72393 0.38141 0.0
O149 O 0.04094 0.7142 0.37273 0.0
O150 O 0.04055 0.73092 0.37652 0.0
C151 C 0.02526 0.68234 0.35519 0.0
O152 O 0.0207 0.68269 0.37068 0.0
C153 C 0.03992 0.72717 0.32156 0.0
Zn154 Zn 0.29953 0.35577 0.34067 0.0
Zn155 Zn 0.29894 0.33466 0.34387 0.0
O156 O 0.31738 0.34777 0.34082 0.0
O157 O 0.31793 0.36508 0.33913 0.0
O158 O 0.29942 0.31938 0.34778 0.0
O159 O 0.29157 0.35306 0.3648 0.0
O160 O 0.29074 0.33562 0.3669 0.0
C161 C 0.32348 0.3593 0.3393 0.0
C162 C 0.28524 0.33817 0.31282 0.0
O163 O 0.28808 0.33138 0.3214 0.0
O164 O 0.28913 0.34889 0.31814 0.0
C165 C 0.3061 0.3169 0.33844 0.0
O166 O 0.31246 0.32418 0.32526 0.0
C167 C 0.28855 0.34342 0.37334 0.0
Zn168 Zn 0.31028 0.03938 0.67829 0.0
Zn169 Zn 0.33178 0.03982 0.68027 0.0
O170 O 0.31808 0.02174 0.67824 0.0
O171 O 0.30053 0.02113 0.67597 0.0
O172 O 0.34713 0.03886 0.68275 0.0
O173 O 0.31388 0.04713 0.70277 0.0
O174 O 0.33196 0.04868 0.70324 0.0
C175 C 0.30641 0.01568 0.67651 0.0
C176 C 0.3276 0.05332 0.65001 0.0
O177 O 0.33433 0.0499 0.65758 0.0
O178 O 0.31713 0.0501 0.6563 0.0
C179 C 0.34804 0.03104 0.67375 0.0
O180 O 0.33927 0.02419 0.66224 0.0
C181 C 0.32413 0.05064 0.71044 0.0
Zn182 Zn 0.97195 0.28188 0.66524 0.0
Zn183 Zn 0.97279 0.30191 0.67716 0.0
O184 O 0.99091 0.30749 0.6722 0.0
O185 O 0.99039 0.2911 0.66286 0.0
O186 O 0.97428 0.31749 0.68535 0.0
O187 O 0.96408 0.27367 0.68859 0.0
O188 O 0.96526 0.29027 0.69856 0.0
C189 C 0.99647 0.30227 0.66674 0.0
C190 C 0.95769 0.28859 0.6434 0.0
O191 O 0.9612 0.29694 0.65509 0.0
O192 O 0.9613 0.28113 0.64445 0.0
C193 C 0.96513 0.31885 0.68691 0.0
O194 O 0.95403 0.30965 0.68341 0.0
C195 C 0.96226 0.27926 0.70086 0.0
Zn196 Zn 0.7021 0.64457 0.68993 0.0
Zn197 Zn 0.70453 0.66636 0.68497 0.0
O198 O 0.68607 0.65459 0.69025 0.0
O199 O 0.68389 0.63662 0.69345 0.0
O200 O 0.70525 0.68224 0.68083 0.0
O201 O 0.70852 0.64553 0.66516 0.0
O202 O 0.71057 0.6634 0.6611 0.0
C203 C 0.67925 0.64323 0.69308 0.0
C204 C 0.71899 0.66281 0.71506 0.0
O205 O 0.7164 0.66972 0.70624 0.0
O206 O 0.71392 0.65171 0.71091 0.0
C207 C 0.69987 0.68557 0.69149 0.0
O208 O 0.69435 0.67883 0.70555 0.0
C209 C 0.71157 0.65468 0.65534 0.0
Zn210 Zn 0.36293 0.30477 0.6778 0.0
Zn211 Zn 0.34041 0.30171 0.67548 0.0
O212 O 0.35225 0.32022 0.67845 0.0
O213 O 0.37079 0.3229 0.67943 0.0
O214 O 0.32409 0.3005 0.67174 0.0
O215 O 0.36063 0.29695 0.65369 0.0
O216 O 0.34183 0.29364 0.65257 0.0
C217 C 0.36388 0.32725 0.67963 0.0
C218 C 0.34613 0.28969 0.70605 0.0
O219 O 0.3385 0.2918 0.69812 0.0
O220 O 0.35693 0.2942 0.70008 0.0
C221 C 0.31842 0.30237 0.68396 0.0
O222 O 0.32305 0.30479 0.70028 0.0
C223 C 0.35035 0.29258 0.64572 0.0
Zn224 Zn 0.69581 0.05858 0.67226 0.0
Zn225 Zn 0.69579 0.03781 0.67364 0.0
O226 O 0.67745 0.03242 0.67657 0.0
O227 O 0.67744 0.04945 0.67474 0.0
O228 O 0.69539 0.02199 0.67186 0.0
O229 O 0.70324 0.06247 0.64778 0.0
O230 O 0.70403 0.04587 0.64968 0.0
C231 C 0.67165 0.03804 0.67661 0.0
C232 C 0.71027 0.05723 0.7018 0.0
O233 O 0.70667 0.04669 0.69563 0.0
O234 O 0.7069 0.06387 0.69422 0.0
C235 C 0.68876 0.01249 0.68107 0.0
O236 O 0.68174 0.01271 0.6936 0.0
C237 C 0.70623 0.05538 0.64118 0.0
Zn238 Zn 0.9663 0.69431 0.67078 0.0
Zn239 Zn 0.96485 0.67316 0.67709 0.0
O240 O 0.98344 0.68526 0.67272 0.0
O241 O 0.98462 0.70275 0.6687 0.0
O242 O 0.9639 0.65728 0.68253 0.0
O243 O 0.95904 0.69355 0.69475 0.0
O244 O 0.9581 0.6763 0.70019 0.0
C245 C 0.98982 0.69667 0.66987 0.0
C246 C 0.95098 0.67587 0.6451 0.0
O247 O 0.9536 0.66931 0.65476 0.0
O248 O 0.95543 0.68693 0.64901 0.0
C249 C 0.97102 0.65432 0.6755 0.0
O250 O 0.97924 0.66171 0.66395 0.0
C251 C 0.95637 0.68475 0.70513 0.0
H252 H 0.19641 0.33069 0.1424 0.0
N253 N 0.18788 0.31401 0.11498 0.0
H254 H 0.20583 0.32946 0.17034 0.0
H255 H 0.18833 0.29499 0.12772 0.0
H256 H 0.19789 0.29376 0.15571 0.0
H257 H 0.21119 0.33402 0.11636 0.0
H258 H 0.22782 0.33899 0.09587 0.0
H259 H 0.18678 0.30223 0.08518 0.0
H260 H 0.20364 0.30713 0.06454 0.0
H261 H 0.19578 0.33816 0.10888 0.0
H262 H 0.16361 0.30289 0.11795 0.0
H263 H 0.18309 0.34699 0.10654 0.0
H264 H 0.15075 0.31187 0.11644 0.0
H265 H 0.13441 0.36831 0.13142 0.0
H266 H 0.12249 0.36525 0.15834 0.0
H267 H 0.11222 0.3276 0.1595 0.0
H268 H 0.12351 0.33062 0.13203 0.0
H269 H 0.11311 0.33324 0.10286 0.0
H270 H 0.09917 0.33492 0.08202 0.0
H271 H 0.12817 0.37115 0.06808 0.0
H272 H 0.14201 0.36945 0.08937 0.0
H273 H 0.15892 0.36133 0.12461 0.0
H274 H 0.17161 0.35225 0.12475 0.0
H275 H 0.14257 0.32086 0.09707 0.0
N276 N 0.13604 0.35176 0.11285 0.0
H277 H 0.12979 0.32983 0.09767 0.0
C278 C 0.19156 0.31285 0.13291 0.0
C279 C 0.19635 0.32245 0.14535 0.0
C280 C 0.20176 0.32174 0.16137 0.0
C281 C 0.20266 0.31154 0.16515 0.0
C282 C 0.19741 0.30177 0.15308 0.0
C283 C 0.19188 0.30242 0.13718 0.0
C284 C 0.19761 0.31779 0.10217 0.0
C285 C 0.20931 0.32821 0.10491 0.0
C286 C 0.21885 0.33106 0.09316 0.0
C287 C 0.217 0.32347 0.07856 0.0
C288 C 0.20531 0.31311 0.07571 0.0
C289 C 0.19568 0.31036 0.08738 0.0
C290 C 0.18066 0.31971 0.11344 0.0
C291 C 0.18599 0.33224 0.11036 0.0
C292 C 0.17867 0.33736 0.10919 0.0
C293 C 0.16586 0.33018 0.11133 0.0
C294 C 0.16055 0.31767 0.11442 0.0
C295 C 0.16788 0.31252 0.11544 0.0
C296 C 0.12998 0.34979 0.1298 0.0
C297 C 0.12967 0.35945 0.13764 0.0
C298 C 0.12289 0.35766 0.15309 0.0
C299 C 0.11635 0.34616 0.16118 0.0
C300 C 0.11694 0.33653 0.15351 0.0
C301 C 0.12357 0.33829 0.13789 0.0
C302 C 0.12864 0.35128 0.09772 0.0
C303 C 0.1166 0.3414 0.09493 0.0
C304 C 0.10862 0.34238 0.08296 0.0
C305 C 0.1125 0.35325 0.07356 0.0
C306 C 0.12482 0.36274 0.07536 0.0
C307 C 0.13279 0.36175 0.08735 0.0
C308 C 0.14349 0.3464 0.11101 0.0
C309 C 0.15537 0.35255 0.11841 0.0
C310 C 0.16262 0.34734 0.1184 0.0
C311 C 0.15816 0.33581 0.11085 0.0
C312 C 0.14627 0.32968 0.10319 0.0
C313 C 0.13897 0.33489 0.10333 0.0
H314 H 0.70647 0.80209 0.12751 0.0
N315 N 0.69058 0.80722 0.11288 0.0
H316 H 0.7044 0.79148 0.15572 0.0
H317 H 0.67324 0.80191 0.13862 0.0
H318 H 0.67136 0.7918 0.16693 0.0
H319 H 0.66684 0.78801 0.11114 0.0
H320 H 0.6594 0.77006 0.09247 0.0
H321 H 0.70186 0.80499 0.08492 0.0
H322 H 0.69435 0.78722 0.0656 0.0
H323 H 0.7089 0.82992 0.1095 0.0
H324 H 0.66939 0.80796 0.11084 0.0
H325 H 0.7078 0.8482 0.10742 0.0
H326 H 0.66813 0.82618 0.11025 0.0
H327 H 0.70303 0.90414 0.12607 0.0
H328 H 0.70157 0.91222 0.15483 0.0
H329 H 0.66713 0.87898 0.16478 0.0
H330 H 0.66875 0.87096 0.13589 0.0
H331 H 0.6623 0.87446 0.10713 0.0
H332 H 0.65319 0.88279 0.08713 0.0
H333 H 0.68905 0.90744 0.06522 0.0
H334 H 0.69799 0.89879 0.08501 0.0
H335 H 0.70381 0.87915 0.12507 0.0
H336 H 0.70426 0.86055 0.12496 0.0
H337 H 0.67012 0.84276 0.09464 0.0
N338 N 0.68688 0.88303 0.11132 0.0
H339 H 0.66933 0.86115 0.09592 0.0
C340 C 0.69009 0.80286 0.13087 0.0
C341 C 0.69893 0.80007 0.13627 0.0
C342 C 0.69774 0.79403 0.15241 0.0
C343 C 0.68764 0.79067 0.16353 0.0
C344 C 0.67912 0.79404 0.15852 0.0
C345 C 0.68028 0.79999 0.14233 0.0
C346 C 0.68499 0.79782 0.09951 0.0
C347 C 0.67281 0.78805 0.10096 0.0
C348 C 0.66854 0.77775 0.09021 0.0
C349 C 0.67635 0.77708 0.07772 0.0
C350 C 0.68819 0.7873 0.07537 0.0
C351 C 0.69246 0.79753 0.08622 0.0
C352 C 0.6893 0.81762 0.11066 0.0
C353 C 0.69998 0.82908 0.10947 0.0
C354 C 0.6993 0.83953 0.10851 0.0
C355 C 0.68787 0.83879 0.10908 0.0
C356 C 0.67711 0.8272 0.1097 0.0
C357 C 0.67781 0.81671 0.11027 0.0
C358 C 0.68603 0.88703 0.1289 0.0
C359 C 0.69525 0.89858 0.13458 0.0
C360 C 0.6944 0.90314 0.15101 0.0
C361 C 0.68423 0.89623 0.16208 0.0
C362 C 0.67501 0.88455 0.15645 0.0
C363 C 0.67594 0.87995 0.14001 0.0
C364 C 0.68086 0.886 0.09749 0.0
C365 C 0.66815 0.88143 0.09771 0.0
C366 C 0.66297 0.8863 0.08636 0.0
C367 C 0.6704 0.8959 0.07469 0.0
C368 C 0.68301 0.89998 0.07386 0.0
C369 C 0.68815 0.89506 0.08516 0.0
C370 C 0.68661 0.8717 0.11056 0.0
C371 C 0.69639 0.8712 0.11848 0.0
C372 C 0.69668 0.86055 0.1182 0.0
C373 C 0.68731 0.85008 0.10957 0.0
C374 C 0.67746 0.85055 0.1016 0.0
C375 C 0.67705 0.86119 0.10221 0.0
H376 H 0.13148 0.7826 0.13682 0.0
N377 N 0.13311 0.80096 0.11837 0.0
H378 H 0.11976 0.77332 0.16385 0.0
H379 H 0.12089 0.80932 0.1378 0.0
H380 H 0.10982 0.80067 0.16552 0.0
H381 H 0.11081 0.79725 0.10735 0.0
H382 H 0.09669 0.78174 0.08607 0.0
H383 H 0.13831 0.7883 0.09634 0.0
H384 H 0.12411 0.77258 0.07527 0.0
H385 H 0.15658 0.81379 0.12776 0.0
H386 H 0.12738 0.81736 0.10482 0.0
H387 H 0.17044 0.83575 0.12642 0.0
H388 H 0.14126 0.83929 0.10281 0.0
H389 H 0.19636 0.87994 0.14355 0.0
H390 H 0.20553 0.88837 0.17264 0.0
H391 H 0.20317 0.91996 0.16132 0.0
H392 H 0.19378 0.91137 0.13206 0.0
H393 H 0.21256 0.89256 0.11883 0.0
H394 H 0.22968 0.90379 0.09866 0.0
H395 H 0.2081 0.91451 0.06737 0.0
H396 H 0.19079 0.90311 0.08784 0.0
H397 H 0.19565 0.87365 0.10759 0.0
H398 H 0.18143 0.85201 0.10605 0.0
H399 H 0.1518 0.85703 0.12158 0.0
N400 N 0.19029 0.89109 0.11731 0.0
H401 H 0.16615 0.879 0.12242 0.0
C402 C 0.12719 0.79669 0.1354 0.0
C403 C 0.12686 0.78663 0.14317 0.0
C404 C 0.12019 0.7814 0.15871 0.0
C405 C 0.11382 0.78624 0.16703 0.0
C406 C 0.11442 0.79655 0.1594 0.0
C407 C 0.12091 0.80164 0.14363 0.0
C408 C 0.12568 0.79399 0.10329 0.0
C409 C 0.11399 0.79228 0.09985 0.0
C410 C 0.1059 0.78338 0.08775 0.0
C411 C 0.10931 0.77594 0.07916 0.0
C412 C 0.12126 0.77818 0.0818 0.0
C413 C 0.12938 0.78717 0.0937 0.0
C414 C 0.14102 0.81389 0.11628 0.0
C415 C 0.15323 0.81933 0.12219 0.0
C416 C 0.16114 0.83187 0.1213 0.0
C417 C 0.15701 0.83932 0.11437 0.0
C418 C 0.14473 0.83385 0.10836 0.0
C419 C 0.13678 0.82126 0.10934 0.0
C420 C 0.19423 0.89499 0.13556 0.0
C421 C 0.19747 0.88852 0.14739 0.0
C422 C 0.20274 0.89336 0.16409 0.0
C423 C 0.20507 0.90483 0.16924 0.0
C424 C 0.20153 0.91113 0.15765 0.0
C425 C 0.19611 0.90621 0.14103 0.0
C426 C 0.20028 0.89691 0.10477 0.0
C427 C 0.21138 0.89717 0.10754 0.0
C428 C 0.22118 0.90357 0.09592 0.0
C429 C 0.22021 0.90998 0.08138 0.0
C430 C 0.20911 0.90967 0.07852 0.0
C431 C 0.19922 0.90313 0.09009 0.0
C432 C 0.182 0.87814 0.11503 0.0
C433 C 0.18612 0.87028 0.11041 0.0
C434 C 0.17794 0.85776 0.1097 0.0
C435 C 0.16547 0.85272 0.11383 0.0
C436 C 0.1613 0.86058 0.11811 0.0
C437 C 0.16949 0.87314 0.11868 0.0
H438 H 0.34521 0.22547 0.90065 0.0
N439 N 0.32645 0.20503 0.91633 0.0
H440 H 0.34474 0.23372 0.87154 0.0
H441 H 0.30795 0.19581 0.89252 0.0
H442 H 0.30746 0.20405 0.86296 0.0
H443 H 0.31233 0.21169 0.93203 0.0
H444 H 0.31881 0.22902 0.95174 0.0
H445 H 0.34937 0.21882 0.9319 0.0
H446 H 0.35586 0.23584 0.95225 0.0
H447 H 0.34646 0.20708 0.89886 0.0
H448 H 0.31785 0.18518 0.93639 0.0
H449 H 0.35324 0.19279 0.89957 0.0
H450 H 0.32527 0.17112 0.93832 0.0
H451 H 0.37216 0.14446 0.89438 0.0
H452 H 0.36868 0.13292 0.86693 0.0
H453 H 0.33116 0.12479 0.86479 0.0
H454 H 0.33452 0.13561 0.89268 0.0
H455 H 0.33579 0.1246 0.9224 0.0
H456 H 0.33605 0.10979 0.94268 0.0
H457 H 0.37397 0.13568 0.95637 0.0
H458 H 0.37365 0.1504 0.93586 0.0
H459 H 0.36968 0.17041 0.91184 0.0
H460 H 0.36334 0.18516 0.91504 0.0
H461 H 0.32589 0.15582 0.92337 0.0
N462 N 0.35578 0.14647 0.91312 0.0
H463 H 0.33263 0.14132 0.92167 0.0
C464 C 0.32657 0.20994 0.89882 0.0
C465 C 0.33691 0.22068 0.89259 0.0
C466 C 0.33667 0.22537 0.87584 0.0
C467 C 0.32608 0.2195 0.86491 0.0
C468 C 0.31572 0.20881 0.87114 0.0
C469 C 0.31601 0.20406 0.88792 0.0
C470 C 0.33028 0.2139 0.93048 0.0
C471 C 0.32179 0.21679 0.93672 0.0
C472 C 0.32553 0.22669 0.94806 0.0
C473 C 0.33791 0.23393 0.95355 0.0
C474 C 0.3463 0.23062 0.94806 0.0
C475 C 0.34256 0.22076 0.93657 0.0
C476 C 0.33136 0.19712 0.91732 0.0
C477 C 0.34163 0.19925 0.90741 0.0
C478 C 0.34568 0.19106 0.90805 0.0
C479 C 0.33985 0.18068 0.919 0.0
C480 C 0.32986 0.17881 0.92941 0.0
C481 C 0.32565 0.1869 0.92846 0.0
C482 C 0.35372 0.14105 0.89561 0.0
C483 C 0.36324 0.14031 0.8878 0.0
C484 C 0.36122 0.13373 0.87205 0.0
C485 C 0.3496 0.12783 0.86357 0.0
C486 C 0.34016 0.12897 0.87108 0.0
C487 C 0.34214 0.13537 0.88702 0.0
C488 C 0.35475 0.13862 0.92765 0.0
C489 C 0.34403 0.12723 0.93019 0.0
C490 C 0.3442 0.11875 0.94178 0.0
C491 C 0.35509 0.12151 0.95094 0.0
C492 C 0.36551 0.13322 0.94928 0.0
C493 C 0.36532 0.14167 0.93773 0.0
C494 C 0.35164 0.15479 0.91614 0.0
C495 C 0.36014 0.16722 0.91457 0.0
C496 C 0.35643 0.17563 0.9162 0.0
C497 C 0.344 0.17176 0.91908 0.0
C498 C 0.33555 0.15924 0.92127 0.0
C499 C 0.33936 0.15086 0.92006 0.0
H500 H 0.78366 0.12845 0.89261 0.0
N501 N 0.8011 0.12665 0.90961 0.0
H502 H 0.77388 0.11945 0.86378 0.0
H503 H 0.8075 0.11427 0.88724 0.0
H504 H 0.79796 0.1054 0.85828 0.0
H505 H 0.79433 0.10292 0.91392 0.0
H506 H 0.78002 0.08903 0.93601 0.0
H507 H 0.79424 0.13276 0.9392 0.0
H508 H 0.78078 0.11915 0.96245 0.0
H509 H 0.80969 0.15019 0.91178 0.0
H510 H 0.82098 0.12404 0.91191 0.0
H511 H 0.83113 0.1667 0.91361 0.0
H512 H 0.84262 0.1405 0.91256 0.0
H513 H 0.88775 0.21302 0.89684 0.0
H514 H 0.89658 0.22357 0.86892 0.0
H515 H 0.91056 0.19995 0.85923 0.0
H516 H 0.90121 0.18908 0.88707 0.0
H517 H 0.91172 0.20553 0.92571 0.0
H518 H 0.92078 0.22303 0.94559 0.0
H519 H 0.88529 0.21966 0.95006 0.0
H520 H 0.87658 0.20278 0.92921 0.0
H521 H 0.86927 0.19344 0.89504 0.0
H522 H 0.84825 0.17671 0.89536 0.0
H523 H 0.85891 0.1564 0.92941 0.0
N524 N 0.88936 0.19426 0.91115 0.0
H525 H 0.88036 0.17316 0.92814 0.0
C526 C 0.7963 0.12208 0.89199 0.0
C527 C 0.78689 0.12354 0.88503 0.0
C528 C 0.78136 0.11843 0.86857 0.0
C529 C 0.78514 0.1117 0.85873 0.0
C530 C 0.79475 0.11042 0.86561 0.0
C531 C 0.8003 0.11558 0.88209 0.0
C532 C 0.79505 0.11884 0.92463 0.0
C533 C 0.79148 0.10654 0.92452 0.0
C534 C 0.78335 0.09859 0.93737 0.0
C535 C 0.7789 0.10285 0.95087 0.0
C536 C 0.78357 0.11541 0.95191 0.0
C537 C 0.79142 0.12327 0.93879 0.0
C538 C 0.81382 0.13599 0.91142 0.0
C539 C 0.81688 0.14807 0.91208 0.0
C540 C 0.82915 0.15747 0.91295 0.0
C541 C 0.83869 0.15499 0.91289 0.0
C542 C 0.83555 0.14278 0.9127 0.0
C543 C 0.8232 0.13335 0.91211 0.0
C544 C 0.89377 0.20016 0.89404 0.0
C545 C 0.89256 0.20998 0.88863 0.0
C546 C 0.89775 0.21611 0.8727 0.0
C547 C 0.9044 0.2127 0.86187 0.0
C548 C 0.90539 0.20274 0.86713 0.0
C549 C 0.9001 0.19654 0.88304 0.0
C550 C 0.89351 0.2028 0.92585 0.0
C551 C 0.90586 0.20844 0.93129 0.0
C552 C 0.91101 0.21844 0.94276 0.0
C553 C 0.90384 0.22294 0.94935 0.0
C554 C 0.89121 0.2167 0.94491 0.0
C555 C 0.88613 0.20686 0.93312 0.0
C556 C 0.87658 0.18455 0.91139 0.0
C557 C 0.86726 0.18541 0.90244 0.0
C558 C 0.85507 0.1758 0.90284 0.0
C559 C 0.85178 0.16515 0.91249 0.0
C560 C 0.86109 0.16436 0.92162 0.0
C561 C 0.87334 0.17396 0.92102 0.0
H562 H 0.81463 0.71894 0.89776 0.0
N563 N 0.82078 0.70457 0.91453 0.0
H564 H 0.80442 0.7156 0.86864 0.0
H565 H 0.81707 0.68718 0.89012 0.0
H566 H 0.80741 0.68407 0.86065 0.0
H567 H 0.80181 0.68094 0.91574 0.0
H568 H 0.78306 0.67305 0.93292 0.0
H569 H 0.81647 0.716 0.94032 0.0
H570 H 0.7975 0.70819 0.95744 0.0
H571 H 0.84376 0.71905 0.90415 0.0
H572 H 0.82062 0.68526 0.93173 0.0
H573 H 0.86105 0.71602 0.90722 0.0
H574 H 0.83794 0.68254 0.93572 0.0
H575 H 0.91506 0.70825 0.91109 0.0
H576 H 0.92325 0.70686 0.8823 0.0
H577 H 0.88799 0.67542 0.86861 0.0
H578 H 0.87992 0.67685 0.89725 0.0
H579 H 0.88571 0.6692 0.9231 0.0
H580 H 0.8931 0.6594 0.94301 0.0
H581 H 0.91023 0.69129 0.97683 0.0
H582 H 0.90368 0.70141 0.95571 0.0
H583 H 0.89292 0.71368 0.92762 0.0
H584 H 0.87533 0.71639 0.92721 0.0
H585 H 0.85092 0.67762 0.92115 0.0
N586 N 0.89282 0.69326 0.92405 0.0
H587 H 0.86861 0.67503 0.92291 0.0
C588 C 0.81665 0.70338 0.89613 0.0
C589 C 0.81327 0.71144 0.88954 0.0
C590 C 0.80746 0.70953 0.87285 0.0
C591 C 0.80499 0.6995 0.86228 0.0
C592 C 0.80894 0.69175 0.86855 0.0
C593 C 0.81462 0.6936 0.88534 0.0
C594 C 0.8106 0.69911 0.92678 0.0
C595 C 0.80109 0.6869 0.92507 0.0
C596 C 0.79031 0.68242 0.9348 0.0
C597 C 0.78871 0.69005 0.94633 0.0
C598 C 0.79847 0.70207 0.94874 0.0
C599 C 0.80931 0.70655 0.939 0.0
C600 C 0.83081 0.7025 0.91762 0.0
C601 C 0.84244 0.71107 0.91107 0.0
C602 C 0.85235 0.70934 0.913 0.0
C603 C 0.85098 0.69905 0.92185 0.0
C604 C 0.83935 0.69049 0.92859 0.0
C605 C 0.82936 0.69212 0.9264 0.0
C606 C 0.89692 0.69272 0.90637 0.0
C607 C 0.90908 0.70117 0.90175 0.0
C608 C 0.91372 0.70036 0.88532 0.0
C609 C 0.90626 0.69099 0.87324 0.0
C610 C 0.89399 0.68265 0.87774 0.0
C611 C 0.88934 0.68353 0.8941 0.0
C612 C 0.8945 0.68624 0.93762 0.0
C613 C 0.89101 0.67409 0.93481 0.0
C614 C 0.89516 0.6684 0.94645 0.0
C615 C 0.9026 0.67461 0.96144 0.0
C616 C 0.90497 0.68634 0.9651 0.0
C617 C 0.90108 0.69211 0.9532 0.0
C618 C 0.88209 0.69423 0.92504 0.0
C619 C 0.88373 0.70578 0.92643 0.0
C620 C 0.87365 0.7073 0.92597 0.0
C621 C 0.86163 0.69726 0.92378 0.0
C622 C 0.85998 0.68558 0.92294 0.0
C623 C 0.87011 0.68407 0.92373 0.0
H624 H 0.75292 0.63127 0.45084 0.0
N625 N 0.77511 0.64545 0.43728 0.0
H626 H 0.74531 0.63343 0.47962 0.0
H627 H 0.78864 0.6623 0.46303 0.0
H628 H 0.78114 0.66455 0.49193 0.0
H629 H 0.782 0.66943 0.43669 0.0
H630 H 0.77314 0.67819 0.41748 0.0
H631 H 0.763 0.63611 0.40666 0.0
H632 H 0.75493 0.64518 0.38611 0.0
H633 H 0.77737 0.62724 0.44851 0.0
H634 H 0.79809 0.66301 0.42557 0.0
H635 H 0.79579 0.62609 0.45008 0.0
H636 H 0.81646 0.66158 0.42557 0.0
H637 H 0.8547 0.62295 0.46019 0.0
H638 H 0.86564 0.62491 0.48833 0.0
H639 H 0.86675 0.65828 0.49949 0.0
H640 H 0.8563 0.65648 0.47128 0.0
H641 H 0.86971 0.66248 0.44352 0.0
H642 H 0.88764 0.6698 0.42463 0.0
H643 H 0.87068 0.63474 0.3989 0.0
H644 H 0.85282 0.62741 0.41828 0.0
H645 H 0.82736 0.62154 0.43909 0.0
H646 H 0.8093 0.62322 0.43483 0.0
H647 H 0.83203 0.6621 0.44214 0.0
N648 N 0.85031 0.63909 0.44538 0.0
H649 H 0.8501 0.66033 0.44452 0.0
C650 C 0.77128 0.64657 0.45485 0.0
C651 C 0.75913 0.63846 0.45986 0.0
C652 C 0.75483 0.63971 0.4763 0.0
C653 C 0.76264 0.64917 0.48803 0.0
C654 C 0.77489 0.65724 0.48309 0.0
C655 C 0.77921 0.65593 0.46666 0.0
C656 C 0.77283 0.65193 0.42343 0.0
C657 C 0.77618 0.66409 0.42561 0.0
C658 C 0.77116 0.66917 0.41438 0.0
C659 C 0.76296 0.66232 0.40039 0.0
C660 C 0.76077 0.65061 0.39713 0.0
C661 C 0.76554 0.64544 0.40867 0.0
C662 C 0.78625 0.64509 0.43678 0.0
C663 C 0.7859 0.63476 0.44346 0.0
C664 C 0.79648 0.63409 0.44415 0.0
C665 C 0.80774 0.64367 0.43772 0.0
C666 C 0.80806 0.65406 0.43087 0.0
C667 C 0.79748 0.65484 0.43063 0.0
C668 C 0.85461 0.63949 0.46349 0.0
C669 C 0.85708 0.63053 0.46893 0.0
C670 C 0.86331 0.63167 0.48504 0.0
C671 C 0.86721 0.64184 0.4961 0.0
C672 C 0.8641 0.65046 0.49112 0.0
C673 C 0.85795 0.64935 0.47496 0.0
C674 C 0.8599 0.64435 0.43229 0.0
C675 C 0.86968 0.65645 0.43353 0.0
C676 C 0.87997 0.66064 0.42267 0.0
C677 C 0.88067 0.65282 0.41035 0.0
C678 C 0.87054 0.64093 0.40845 0.0
C679 C 0.86028 0.63676 0.41935 0.0
C680 C 0.84001 0.6407 0.44263 0.0
C681 C 0.8284 0.63042 0.43965 0.0
C682 C 0.81805 0.63142 0.43742 0.0
C683 C 0.81902 0.64279 0.43856 0.0
C684 C 0.8308 0.65318 0.44107 0.0
C685 C 0.84121 0.65217 0.44279 0.0
H686 H 0.33201 0.11985 0.45614 0.0
N687 N 0.35214 0.13747 0.43827 0.0
H688 H 0.33209 0.11103 0.48496 0.0
H689 H 0.3711 0.14493 0.46089 0.0
H690 H 0.37121 0.13611 0.49012 0.0
H691 H 0.32881 0.122 0.42556 0.0
H692 H 0.32238 0.10385 0.40758 0.0
H693 H 0.36668 0.13244 0.42018 0.0
H694 H 0.36053 0.11486 0.40112 0.0
H695 H 0.36417 0.15672 0.41735 0.0
H696 H 0.33346 0.1393 0.45313 0.0
H697 H 0.36145 0.17405 0.4147 0.0
H698 H 0.33121 0.15688 0.45167 0.0
H699 H 0.36314 0.22241 0.46709 0.0
H700 H 0.36022 0.2289 0.49642 0.0
H701 H 0.32139 0.21209 0.48494 0.0
H702 H 0.32431 0.20527 0.45592 0.0
H703 H 0.32436 0.20321 0.42394 0.0
H704 H 0.31901 0.21551 0.4054 0.0
H705 H 0.35672 0.24529 0.40854 0.0
H706 H 0.36184 0.23301 0.42761 0.0
H707 H 0.36547 0.20917 0.43514 0.0
H708 H 0.36575 0.19054 0.43226 0.0
H709 H 0.32611 0.16964 0.43649 0.0
N710 N 0.34638 0.21141 0.44133 0.0
H711 H 0.32613 0.18847 0.44044 0.0
C712 C 0.35162 0.13304 0.45623 0.0
C713 C 0.34062 0.12355 0.4634 0.0
C714 C 0.34067 0.11846 0.4799 0.0
C715 C 0.35168 0.12278 0.48967 0.0
C716 C 0.36259 0.13262 0.48288 0.0
C717 C 0.36254 0.13765 0.46625 0.0
C718 C 0.34823 0.12839 0.42452 0.0
C719 C 0.33575 0.12052 0.42013 0.0
C720 C 0.33211 0.11018 0.40971 0.0
C721 C 0.34091 0.10768 0.40322 0.0
C722 C 0.35345 0.11623 0.40637 0.0
C723 C 0.35703 0.12639 0.41704 0.0
C724 C 0.34925 0.14682 0.43569 0.0
C725 C 0.35682 0.15664 0.42461 0.0
C726 C 0.35532 0.1666 0.42329 0.0
C727 C 0.3463 0.16708 0.43332 0.0
C728 C 0.33825 0.15689 0.44368 0.0
C729 C 0.33962 0.14681 0.44471 0.0
C730 C 0.34401 0.21352 0.45929 0.0
C731 C 0.35397 0.2199 0.47112 0.0
C732 C 0.35228 0.22357 0.48781 0.0
C733 C 0.34059 0.22107 0.49283 0.0
C734 C 0.33051 0.21421 0.48128 0.0
C735 C 0.33217 0.21033 0.46472 0.0
C736 C 0.34351 0.21727 0.42729 0.0
C737 C 0.33152 0.21228 0.42035 0.0
C738 C 0.32849 0.21934 0.40967 0.0
C739 C 0.3374 0.23147 0.40572 0.0
C740 C 0.34958 0.23608 0.41164 0.0
C741 C 0.35256 0.22905 0.42235 0.0
C742 C 0.34583 0.20021 0.43777 0.0
C743 C 0.35685 0.20055 0.4352 0.0
C744 C 0.35695 0.18984 0.43343 0.0
C745 C 0.34593 0.17847 0.43398 0.0
C746 C 0.33479 0.17818 0.43616 0.0
C747 C 0.33475 0.18895 0.43818 0.0
H748 H 0.79785 0.11516 0.45524 0.0
N749 N 0.79961 0.13578 0.44497 0.0
H750 H 0.78725 0.10291 0.48152 0.0
H751 H 0.79199 0.1433 0.47405 0.0
H752 H 0.78201 0.13146 0.50035 0.0
H753 H 0.77443 0.12466 0.44725 0.0
H754 H 0.75982 0.11078 0.42563 0.0
H755 H 0.80397 0.13464 0.41045 0.0
H756 H 0.78917 0.12199 0.3875 0.0
H757 H 0.8238 0.14834 0.44142 0.0
H758 H 0.79257 0.15249 0.44643 0.0
H759 H 0.83751 0.17024 0.44148 0.0
H760 H 0.80617 0.17439 0.44891 0.0
H761 H 0.85975 0.21698 0.48666 0.0
H762 H 0.86846 0.22824 0.51395 0.0
H763 H 0.8664 0.25821 0.49212 0.0
H764 H 0.85774 0.24684 0.46426 0.0
H765 H 0.87783 0.22783 0.46226 0.0
H766 H 0.8965 0.23893 0.44489 0.0
H767 H 0.8773 0.24852 0.4064 0.0
H768 H 0.85841 0.23697 0.42372 0.0
H769 H 0.86108 0.20818 0.46119 0.0
H770 H 0.84715 0.18665 0.45843 0.0
H771 H 0.81889 0.19296 0.43813 0.0
N772 N 0.85579 0.22607 0.45511 0.0
H773 H 0.83268 0.21464 0.44323 0.0
C774 C 0.79576 0.13016 0.46241 0.0
C775 C 0.79465 0.11887 0.46528 0.0
C776 C 0.78859 0.11189 0.48031 0.0
C777 C 0.78358 0.11611 0.49289 0.0
C778 C 0.78548 0.1278 0.49068 0.0
C779 C 0.79139 0.13469 0.47558 0.0
C780 C 0.79046 0.13029 0.43081 0.0
C781 C 0.77778 0.12415 0.43426 0.0
C782 C 0.76929 0.11623 0.42156 0.0
C783 C 0.77317 0.11467 0.40472 0.0
C784 C 0.78573 0.12224 0.40053 0.0
C785 C 0.79427 0.12973 0.41356 0.0
C786 C 0.80727 0.14882 0.44449 0.0
C787 C 0.81996 0.15406 0.44287 0.0
C788 C 0.82779 0.16664 0.44319 0.0
C789 C 0.82314 0.17434 0.4458 0.0
C790 C 0.81027 0.16897 0.4468 0.0
C791 C 0.80241 0.15637 0.4457 0.0
C792 C 0.85811 0.23106 0.47303 0.0
C793 C 0.86081 0.2258 0.4876 0.0
C794 C 0.86579 0.23228 0.50347 0.0
C795 C 0.86826 0.24419 0.50518 0.0
C796 C 0.86476 0.24911 0.49114 0.0
C797 C 0.85971 0.24259 0.47529 0.0
C798 C 0.86664 0.23151 0.44421 0.0
C799 C 0.8775 0.23206 0.4499 0.0
C800 C 0.88826 0.23857 0.44005 0.0
C801 C 0.88844 0.24475 0.42436 0.0
C802 C 0.87746 0.24381 0.41835 0.0
C803 C 0.86667 0.23725 0.42821 0.0
C804 C 0.84781 0.2131 0.45305 0.0
C805 C 0.85181 0.20498 0.4566 0.0
C806 C 0.84379 0.19251 0.45456 0.0
C807 C 0.8317 0.18777 0.44796 0.0
C808 C 0.82791 0.19603 0.44374 0.0
C809 C 0.83583 0.2085 0.44648 0.0
H810 H 0.01629 0.54694 0.22566 0.0
N811 N 0.99999 0.54063 0.25318 0.0
H812 H 0.01481 0.5546 0.19633 0.0
H813 H 0.98134 0.54215 0.24001 0.0
H814 H 0.9799 0.54999 0.21067 0.0
H815 H 0.98864 0.54228 0.28162 0.0
H816 H 0.99431 0.56054 0.29886 0.0
H817 H 0.02201 0.56221 0.2515 0.0
H818 H 0.02803 0.58029 0.26911 0.0
H819 H 0.02359 0.54557 0.25993 0.0
H820 H 0.98616 0.51671 0.25021 0.0
H821 H 0.03015 0.53096 0.26085 0.0
H822 H 0.99276 0.50199 0.25044 0.0
H823 H 0.04245 0.4771 0.22893 0.0
H824 H 0.03702 0.46452 0.20218 0.0
H825 H 1.00012 0.45804 0.20397 0.0
H826 H 0.00549 0.47004 0.23128 0.0
H827 H 0.00788 0.4594 0.26005 0.0
H828 H 0.00838 0.44518 0.28121 0.0
H829 H 0.04676 0.47098 0.29236 0.0
H830 H 0.04619 0.48514 0.27091 0.0
H831 H 0.03964 0.50382 0.23854 0.0
H832 H 0.03312 0.51852 0.24085 0.0
H833 H 1.00031 0.49178 0.2682 0.0
N834 N 0.02775 0.48088 0.24901 0.0
H835 H 0.0067 0.47706 0.26519 0.0
C836 C 0.99881 0.54384 0.23502 0.0
C837 C 0.00818 0.5473 0.22241 0.0
C838 C 0.00734 0.55169 0.20562 0.0
C839 C 0.99725 0.55291 0.20126 0.0
C840 C 0.9878 0.54921 0.21373 0.0
C841 C 0.98857 0.54467 0.2304 0.0
C842 C 0.00487 0.55078 0.26538 0.0
C843 C 0.99739 0.55048 0.27917 0.0
C844 C 1.00067 0.56095 0.28902 0.0
C845 C 0.01158 0.57196 0.28526 0.0
C846 C 0.01945 0.57204 0.27214 0.0
C847 C 0.0161 0.56162 0.26221 0.0
C848 C 0.00426 0.53225 0.25512 0.0
C849 C 0.01672 0.5361 0.25811 0.0
C850 C 0.02051 0.52769 0.25846 0.0
C851 C 0.01202 0.51526 0.25565 0.0
C852 C 0.99956 0.51144 0.25295 0.0
C853 C 0.99576 0.51984 0.25272 0.0
C854 C 0.02448 0.47463 0.23203 0.0
C855 C 0.03324 0.47307 0.22336 0.0
C856 C 0.03011 0.46591 0.20801 0.0
C857 C 0.0181 0.46021 0.2008 0.0
C858 C 0.00939 0.46209 0.20925 0.0
C859 C 0.01251 0.46912 0.22479 0.0
C860 C 0.02704 0.47339 0.26392 0.0
C861 C 0.01631 0.46216 0.26741 0.0
C862 C 0.01661 0.45402 0.27954 0.0
C863 C 0.02765 0.45689 0.28834 0.0
C864 C 0.03816 0.46842 0.2856 0.0
C865 C 0.03783 0.47656 0.27351 0.0
C866 C 0.02378 0.48938 0.25176 0.0
C867 C 0.03109 0.50119 0.24514 0.0
C868 C 0.02736 0.5096 0.24659 0.0
C869 C 0.01619 0.50639 0.2548 0.0
C870 C 0.0089 0.49455 0.26162 0.0
C871 C 0.01262 0.48611 0.26006 0.0
H872 H 0.57234 0.52506 0.2321 0.0
N873 N 0.55542 0.52541 0.25198 0.0
H874 H 0.58161 0.53656 0.20469 0.0
H875 H 0.54817 0.53912 0.23333 0.0
H876 H 0.55706 0.55028 0.20586 0.0
H877 H 0.54367 0.53681 0.26366 0.0
H878 H 0.55227 0.55393 0.28421 0.0
H879 H 0.57463 0.53258 0.27364 0.0
H880 H 0.58295 0.54917 0.29531 0.0
H881 H 0.55239 0.50458 0.26342 0.0
H882 H 0.5324 0.52055 0.24207 0.0
H883 H 0.53345 0.48466 0.26354 0.0
H884 H 0.51359 0.50071 0.24138 0.0
H885 H 0.4701 0.42246 0.22951 0.0
H886 H 0.45906 0.41564 0.20094 0.0
H887 H 0.46448 0.45128 0.19246 0.0
H888 H 0.47495 0.45778 0.22135 0.0
H889 H 0.45984 0.44861 0.24789 0.0
H890 H 0.44231 0.43894 0.26772 0.0
H891 H 0.45713 0.41893 0.2929 0.0
H892 H 0.4748 0.42873 0.27278 0.0
H893 H 0.50123 0.4495 0.24057 0.0
H894 H 0.51991 0.46952 0.24287 0.0
H895 H 0.49817 0.48468 0.25893 0.0
N896 N 0.47822 0.4436 0.24566 0.0
H897 H 0.47961 0.46484 0.2559 0.0
C898 C 0.55954 0.53113 0.23477 0.0
C899 C 0.56886 0.53042 0.22625 0.0
C900 C 0.57412 0.53697 0.21058 0.0
C901 C 0.57012 0.5444 0.20312 0.0
C902 C 0.56048 0.5448 0.21139 0.0
C903 C 0.55527 0.53827 0.22707 0.0
C904 C 0.55868 0.5336 0.26684 0.0
C905 C 0.55219 0.53939 0.27059 0.0
C906 C 0.55709 0.54914 0.28256 0.0
C907 C 0.56848 0.55315 0.29123 0.0
C908 C 0.57437 0.54661 0.28851 0.0
C909 C 0.56956 0.53702 0.27632 0.0
C910 C 0.54389 0.51403 0.25262 0.0
C911 C 0.5439 0.50377 0.25875 0.0
C912 C 0.53308 0.49239 0.25865 0.0
C913 C 0.52197 0.49101 0.25229 0.0
C914 C 0.52193 0.50141 0.24654 0.0
C915 C 0.53276 0.51281 0.24678 0.0
C916 C 0.47342 0.4406 0.22759 0.0
C917 C 0.46906 0.42883 0.2213 0.0
C918 C 0.46278 0.42498 0.20493 0.0
C919 C 0.46079 0.43288 0.19438 0.0
C920 C 0.46563 0.44487 0.20036 0.0
C921 C 0.47179 0.44867 0.21684 0.0
C922 C 0.46874 0.43946 0.25894 0.0
C923 C 0.45954 0.4424 0.25795 0.0
C924 C 0.44948 0.43685 0.26935 0.0
C925 C 0.44832 0.42814 0.28188 0.0
C926 C 0.45773 0.42553 0.28329 0.0
C927 C 0.46785 0.43117 0.27194 0.0
C928 C 0.489 0.45553 0.24818 0.0
C929 C 0.50054 0.45715 0.24469 0.0
C930 C 0.51121 0.4686 0.24612 0.0
C931 C 0.51059 0.47876 0.25118 0.0
C932 C 0.49901 0.47712 0.25481 0.0
C933 C 0.48832 0.46566 0.25325 0.0
H934 H 0.53113 0.96553 0.22786 0.0
N935 N 0.52971 0.98244 0.24577 0.0
H936 H 0.5424 0.96798 0.20046 0.0
H937 H 0.54128 0.00299 0.22483 0.0
H938 H 0.55174 0.0053 0.19696 0.0
H939 H 0.55276 0.00129 0.25445 0.0
H940 H 0.56715 1.00038 0.27537 0.0
H941 H 0.52461 0.96509 0.26946 0.0
H942 H 0.53899 0.96409 0.29051 0.0
H943 H 0.50561 0.97126 0.24071 0.0
H944 H 0.53706 0.00572 0.25607 0.0
H945 H 0.49261 0.98001 0.24157 0.0
H946 H 0.52436 0.01473 0.25602 0.0
H947 H 0.45934 0.00345 0.22205 0.0
H948 H 0.4514 0.00654 0.19405 0.0
H949 H 0.47934 0.04456 0.19531 0.0
H950 H 0.48774 0.04134 0.2233 0.0
H951 H 0.47535 0.03594 0.2621 0.0
H952 H 0.45774 0.03076 0.28114 0.0
H953 H 0.44313 0.99274 0.27095 0.0
H954 H 0.46084 0.99797 0.25222 0.0
H955 H 0.47677 0.00216 0.2214 0.0
H956 H 0.48906 0.99305 0.22424 0.0
H957 H 0.50853 0.01629 0.26935 0.0
N958 N 0.47862 0.0209 0.24218 0.0
H959 H 0.49641 0.02595 0.26586 0.0
C960 C 0.53519 0.98396 0.22842 0.0
C961 C 0.53553 0.97419 0.22103 0.0
C962 C 0.54194 0.97561 0.20529 0.0
C963 C 0.54807 0.98687 0.19641 0.0
C964 C 0.54738 0.99656 0.20356 0.0
C965 C 0.54118 0.99519 0.21948 0.0
C966 C 0.53754 0.98324 0.26048 0.0
C967 C 0.54953 0.99331 0.26271 0.0
C968 C 0.55778 0.99276 0.27466 0.0
C969 C 0.55424 0.98211 0.28446 0.0
C970 C 0.54203 0.97236 0.28298 0.0
C971 C 0.53377 0.97295 0.27112 0.0
C972 C 0.52229 0.98778 0.24817 0.0
C973 C 0.50969 0.98071 0.24434 0.0
C974 C 0.50231 0.98578 0.24465 0.0
C975 C 0.50744 0.99817 0.24856 0.0
C976 C 0.52003 0.00516 0.25308 0.0
C977 C 0.52737 1.00001 0.25302 0.0
C978 C 0.47443 0.02215 0.22465 0.0
C979 C 0.46406 0.01241 0.21618 0.0
C980 C 0.45946 0.01416 0.20015 0.0
C981 C 0.46484 0.02575 0.19252 0.0
C982 C 0.47512 0.03552 0.20093 0.0
C983 C 0.47994 0.03369 0.21679 0.0
C984 C 0.46936 0.01739 0.25565 0.0
C985 C 0.46849 0.02649 0.26438 0.0
C986 C 0.45846 0.02352 0.27522 0.0
C987 C 0.44903 0.01136 0.27734 0.0
C988 C 0.45021 0.0022 0.26935 0.0
C989 C 0.46034 0.00517 0.25869 0.0
C990 C 0.48566 0.01498 0.24338 0.0
C991 C 0.48362 0.00546 0.23193 0.0
C992 C 0.49066 1.00006 0.23368 0.0
C993 C 0.4998 0.00384 0.24709 0.0
C994 C 0.50172 0.01323 0.25869 0.0
C995 C 0.49475 0.01873 0.25678 0.0
H996 H 0.42401 0.96637 0.79111 0.0
N997 N 0.44576 0.98169 0.77705 0.0
H998 H 0.41621 0.96796 0.82011 0.0
H999 H 0.45877 0.99885 0.80271 0.0
H1000 H 0.45105 1.00054 0.83172 0.0
H1001 H 0.45074 0.00511 0.77715 0.0
H1002 H 0.44159 0.01321 0.75722 0.0
H1003 H 0.43487 0.97241 0.7457 0.0
H1004 H 0.42659 0.98092 0.72449 0.0
H1005 H 0.44787 0.96253 0.78155 0.0
H1006 H 0.46905 0.00089 0.77095 0.0
H1007 H 0.46657 0.96174 0.78203 0.0
H1008 H 0.4879 1.00016 0.77045 0.0
H1009 H 0.51874 0.95835 0.80238 0.0
H1010 H 0.5303 0.95968 0.82956 0.0
H1011 H 0.54793 0.99875 0.82834 0.0
H1012 H 0.53713 0.99733 0.80071 0.0
H1013 H 0.53642 0.99953 0.76924 0.0
H1014 H 0.55363 0.00599 0.74898 0.0
H1015 H 0.54306 0.96855 0.74169 0.0
H1016 H 0.52624 0.9623 0.76269 0.0
H1017 H 0.49996 0.96074 0.76761 0.0
H1018 H 0.48185 0.96249 0.76426 0.0
H1019 H 0.50182 0.99795 0.78895 0.0
N1020 N 0.52155 0.97653 0.78201 0.0
H1021 H 0.52 0.99639 0.79115 0.0
C1022 C 0.44191 0.98245 0.79478 0.0
C1023 C 0.42998 0.97376 0.80004 0.0
C1024 C 0.42558 0.97467 0.81659 0.0
C1025 C 0.43302 0.9844 0.82815 0.0
C1026 C 0.44507 0.99302 0.823 0.0
C1027 C 0.44951 0.99202 0.80649 0.0
C1028 C 0.44312 0.98792 0.76325 0.0
C1029 C 0.44553 0.99977 0.76567 0.0
C1030 C 0.44037 0.00449 0.75401 0.0
C1031 C 0.43299 0.99763 0.73934 0.0
C1032 C 0.43175 0.98631 0.73598 0.0
C1033 C 0.43664 0.98147 0.74793 0.0
C1034 C 0.45704 0.98168 0.77603 0.0
C1035 C 0.45659 0.97075 0.779 0.0
C1036 C 0.46732 0.97032 0.77913 0.0
C1037 C 0.47882 0.98086 0.77609 0.0
C1038 C 0.47925 0.99188 0.77301 0.0
C1039 C 0.46846 0.9923 0.77309 0.0
C1040 C 0.52684 0.97766 0.79959 0.0
C1041 C 0.52494 0.96716 0.80824 0.0
C1042 C 0.53155 0.96796 0.82381 0.0
C1043 C 0.54018 0.97935 0.83116 0.0
C1044 C 0.54159 0.98984 0.82292 0.0
C1045 C 0.53515 0.98902 0.8072 0.0
C1046 C 0.53016 0.98042 0.7676 0.0
C1047 C 0.53774 0.99272 0.76312 0.0
C1048 C 0.54753 0.99638 0.75141 0.0
C1049 C 0.54986 0.9878 0.74388 0.0
C1050 C 0.54173 0.97543 0.74754 0.0
C1051 C 0.53203 0.97182 0.75936 0.0
C1052 C 0.51127 0.97825 0.77995 0.0
C1053 C 0.50041 0.9689 0.77219 0.0
C1054 C 0.49004 0.96991 0.77042 0.0
C1055 C 0.49024 0.98029 0.77662 0.0
C1056 C 0.50129 0.98984 0.78393 0.0
C1057 C 0.51173 0.98889 0.78544 0.0
H1058 H 0.9541 0.52678 0.79877 0.0
N1059 N 0.96936 0.52353 0.77913 0.0
H1060 H 0.95887 0.5388 0.82604 0.0
H1061 H 0.9912 0.53412 0.79786 0.0
H1062 H 0.99589 0.54554 0.82564 0.0
H1063 H 0.98953 0.54523 0.76942 0.0
H1064 H 0.98939 0.56017 0.74944 0.0
H1065 H 0.95144 0.51988 0.75658 0.0
H1066 H 0.95124 0.53477 0.73628 0.0
H1067 H 0.95807 0.50078 0.79032 0.0
H1068 H 0.99048 0.52762 0.76268 0.0
H1069 H 0.96537 0.48666 0.78923 0.0
H1070 H 0.9976 0.51343 0.76081 0.0
H1071 H 0.98509 0.4609 0.80761 0.0
H1072 H 0.98739 0.45384 0.83697 0.0
H1073 H 0.02173 0.45789 0.8207 0.0
H1074 H 0.01949 0.46518 0.79132 0.0
H1075 H 0.01053 0.46483 0.74897 0.0
H1076 H 0.0044 0.44655 0.73133 0.0
H1077 H 0.97338 0.42592 0.76602 0.0
H1078 H 0.97943 0.44416 0.78326 0.0
H1079 H 0.9764 0.4602 0.77315 0.0
H1080 H 0.96893 0.47405 0.77091 0.0
H1081 H 0.00593 0.50439 0.77926 0.0
N1082 N 1.00046 0.46637 0.77902 0.0
H1083 H 0.01344 0.4904 0.78064 0.0
C1084 C 0.9722 0.52944 0.79635 0.0
C1085 C 0.96319 0.53075 0.80474 0.0
C1086 C 0.96594 0.53759 0.82039 0.0
C1087 C 0.9778 0.5432 0.82812 0.0
C1088 C 0.98673 0.54155 0.81994 0.0
C1089 C 0.98401 0.53486 0.80413 0.0
C1090 C 0.97044 0.53137 0.76448 0.0
C1091 C 0.98124 0.54271 0.76182 0.0
C1092 C 0.98115 0.55128 0.75036 0.0
C1093 C 0.97026 0.54872 0.74143 0.0
C1094 C 0.95973 0.53709 0.74319 0.0
C1095 C 0.95984 0.52852 0.75461 0.0
C1096 C 0.9736 0.51522 0.77651 0.0
C1097 C 0.96665 0.50353 0.78369 0.0
C1098 C 0.97083 0.49545 0.78296 0.0
C1099 C 0.98209 0.49885 0.77489 0.0
C1100 C 0.98897 0.51053 0.76735 0.0
C1101 C 0.98481 0.51866 0.76824 0.0
C1102 C 0.00223 0.46371 0.79725 0.0
C1103 C 0.99328 0.46059 0.81044 0.0
C1104 C 0.99459 0.45654 0.82725 0.0
C1105 C 0.00473 0.4553 0.83108 0.0
C1106 C 0.0138 0.4587 0.81807 0.0
C1107 C 0.01258 0.46293 0.80137 0.0
C1108 C 0.99548 0.45592 0.76737 0.0
C1109 C 0.00226 0.45641 0.75246 0.0
C1110 C 0.9988 0.44594 0.74253 0.0
C1111 C 0.98845 0.43474 0.74735 0.0
C1112 C 0.98132 0.4344 0.7618 0.0
C1113 C 0.9848 0.44485 0.77173 0.0
C1114 C 0.99561 0.47426 0.7769 0.0
C1115 C 0.98299 0.46981 0.77424 0.0
C1116 C 0.97867 0.47779 0.77314 0.0
C1117 C 0.9868 0.49039 0.77494 0.0
C1118 C 0.99941 0.49479 0.77748 0.0
C1119 C 0.00373 0.48681 0.7784 0.0
H1120 H 0.46438 0.44979 0.79809 0.0
N1121 N 0.46571 0.46889 0.78234 0.0
H1122 H 0.45293 0.43923 0.82482 0.0
H1123 H 0.45407 0.47647 0.80474 0.0
H1124 H 0.44333 0.46653 0.83201 0.0
H1125 H 0.44423 0.46772 0.77307 0.0
H1126 H 0.42922 0.45408 0.75094 0.0
H1127 H 0.46883 0.45575 0.75843 0.0
H1128 H 0.45364 0.44151 0.73707 0.0
H1129 H 0.48992 0.47974 0.78464 0.0
H1130 H 0.46081 0.48713 0.77743 0.0
H1131 H 0.50505 0.50148 0.78508 0.0
H1132 H 0.47567 0.50881 0.779 0.0
H1133 H 0.54509 0.55789 0.8089 0.0
H1134 H 0.55372 0.5667 0.83804 0.0
H1135 H 0.52812 0.57892 0.84225 0.0
H1136 H 0.51902 0.56958 0.81298 0.0
H1137 H 0.53176 0.57817 0.7727 0.0
H1138 H 0.54901 0.58964 0.75248 0.0
H1139 H 0.55915 0.56263 0.75936 0.0
H1140 H 0.54153 0.55097 0.77862 0.0
H1141 H 0.52685 0.53931 0.80768 0.0
H1142 H 0.51208 0.51799 0.80417 0.0
H1143 H 0.49185 0.52616 0.76542 0.0
N1144 N 0.52627 0.55832 0.79106 0.0
H1145 H 0.5065 0.54783 0.76986 0.0
C1146 C 0.46023 0.46397 0.79944 0.0
C1147 C 0.45992 0.45354 0.80561 0.0
C1148 C 0.4534 0.44755 0.82097 0.0
C1149 C 0.44713 0.45197 0.83066 0.0
C1150 C 0.44782 0.4627 0.82475 0.0
C1151 C 0.45416 0.46854 0.8092 0.0
C1152 C 0.45776 0.46286 0.7672 0.0
C1153 C 0.44657 0.46242 0.76471 0.0
C1154 C 0.43787 0.45441 0.75224 0.0
C1155 C 0.44008 0.44652 0.74228 0.0
C1156 C 0.4516 0.44752 0.74419 0.0
C1157 C 0.46033 0.45565 0.75645 0.0
C1158 C 0.47426 0.48178 0.78123 0.0
C1159 C 0.48681 0.48608 0.78318 0.0
C1160 C 0.49542 0.49852 0.78362 0.0
C1161 C 0.49161 0.50699 0.7824 0.0
C1162 C 0.479 0.50262 0.77986 0.0
C1163 C 0.47042 0.49015 0.77913 0.0
C1164 C 0.53115 0.56283 0.80879 0.0
C1165 C 0.54108 0.5622 0.81608 0.0
C1166 C 0.54607 0.56728 0.83274 0.0
C1167 C 0.5415 0.57338 0.84228 0.0
C1168 C 0.5317 0.57417 0.83508 0.0
C1169 C 0.52651 0.56883 0.81849 0.0
C1170 C 0.53541 0.56381 0.77729 0.0
C1171 C 0.53757 0.57463 0.76946 0.0
C1172 C 0.54752 0.58123 0.75809 0.0
C1173 C 0.55564 0.5772 0.75448 0.0
C1174 C 0.55308 0.566 0.76166 0.0
C1175 C 0.54302 0.55934 0.77284 0.0
C1176 C 0.51776 0.54539 0.78921 0.0
C1177 C 0.51927 0.53671 0.79853 0.0
C1178 C 0.51079 0.52434 0.79631 0.0
C1179 C 0.50071 0.52024 0.78445 0.0
C1180 C 0.49935 0.52892 0.77491 0.0
C1181 C 0.50775 0.54133 0.77734 0.0
H1182 H 0.68733 0.88246 0.55161 0.0
N1183 N 0.6757 0.8753 0.58259 0.0
H1184 H 0.68031 0.88766 0.52421 0.0
H1185 H 0.6526 0.87119 0.57625 0.0
H1186 H 0.64548 0.87628 0.54898 0.0
H1187 H 0.6589 0.87386 0.60643 0.0
H1188 H 0.66119 0.89072 0.62445 0.0
H1189 H 0.69647 0.89588 0.58965 0.0
H1190 H 0.69916 0.91253 0.60842 0.0
H1191 H 0.69276 0.86996 0.5901 0.0
H1192 H 0.65356 0.85415 0.58635 0.0
H1193 H 0.68982 0.84994 0.59554 0.0
H1194 H 0.65046 0.83399 0.59068 0.0
H1195 H 0.68063 0.79438 0.57351 0.0
H1196 H 0.67974 0.78535 0.54473 0.0
H1197 H 0.64026 0.76895 0.54322 0.0
H1198 H 0.64132 0.7785 0.57195 0.0
H1199 H 0.64785 0.7719 0.61199 0.0
H1200 H 0.65543 0.76182 0.63148 0.0
H1201 H 0.69268 0.79136 0.6233 0.0
H1202 H 0.68499 0.80143 0.60395 0.0
H1203 H 0.68116 0.81227 0.57921 0.0
H1204 H 0.68449 0.83254 0.57908 0.0
H1205 H 0.65132 0.81975 0.60951 0.0
N1206 N 0.66106 0.79168 0.59258 0.0
H1207 H 0.64773 0.79918 0.60869 0.0
C1208 C 0.67056 0.8765 0.56597 0.0
C1209 C 0.67809 0.88086 0.55094 0.0
C1210 C 0.67404 0.88378 0.5353 0.0
C1211 C 0.66235 0.88244 0.53446 0.0
C1212 C 0.65459 0.87754 0.54929 0.0
C1213 C 0.65864 0.87457 0.56489 0.0
C1214 C 0.67748 0.88377 0.59642 0.0
C1215 C 0.66773 0.88224 0.60697 0.0
C1216 C 0.6691 0.89187 0.61739 0.0
C1217 C 0.68029 0.90312 0.61757 0.0
C1218 C 0.6903 0.90415 0.60819 0.0
C1219 C 0.68886 0.89461 0.59763 0.0
C1220 C 0.67343 0.86353 0.58758 0.0
C1221 C 0.68351 0.86213 0.59052 0.0
C1222 C 0.68179 0.85065 0.59343 0.0
C1223 C 0.6699 0.84024 0.59323 0.0
C1224 C 0.65976 0.84175 0.59105 0.0
C1225 C 0.6615 0.8533 0.5884 0.0
C1226 C 0.66099 0.78719 0.57491 0.0
C1227 C 0.67179 0.78904 0.56694 0.0
C1228 C 0.67125 0.78372 0.55049 0.0
C1229 C 0.65992 0.77634 0.54167 0.0
C1230 C 0.64917 0.7747 0.5495 0.0
C1231 C 0.64973 0.7801 0.56594 0.0
C1232 C 0.6658 0.78734 0.60644 0.0
C1233 C 0.65762 0.77634 0.61481 0.0
C1234 C 0.66198 0.77061 0.62594 0.0
C1235 C 0.67467 0.77576 0.62881 0.0
C1236 C 0.68286 0.78712 0.62115 0.0
C1237 C 0.67846 0.79291 0.61015 0.0
C1238 C 0.66405 0.80409 0.59378 0.0
C1239 C 0.67459 0.81374 0.58589 0.0
C1240 C 0.67656 0.82546 0.586 0.0
C1241 C 0.66816 0.82787 0.59424 0.0
C1242 C 0.65787 0.81825 0.60273 0.0
C1243 C 0.65585 0.8065 0.60243 0.0
H1244 H 0.24507 0.86699 0.57227 0.0
N1245 N 0.22422 0.8615 0.5879 0.0
H1246 H 0.253 0.87749 0.54371 0.0
H1247 H 0.21188 0.86768 0.5638 0.0
H1248 H 0.2197 0.87814 0.53542 0.0
H1249 H 0.21619 0.87736 0.59203 0.0
H1250 H 0.22542 0.89493 0.61162 0.0
H1251 H 0.23959 0.86573 0.61502 0.0
H1252 H 0.24857 0.88308 0.63544 0.0
H1253 H 0.2225 0.84023 0.59042 0.0
H1254 H 0.20051 0.8567 0.58849 0.0
H1255 H 0.20388 0.82012 0.59046 0.0
H1256 H 0.18185 0.83671 0.58733 0.0
H1257 H 0.13947 0.75815 0.56392 0.0
H1258 H 0.12877 0.75164 0.53506 0.0
H1259 H 0.13525 0.78767 0.52645 0.0
H1260 H 0.14543 0.79389 0.55565 0.0
H1261 H 0.13074 0.78638 0.58165 0.0
H1262 H 0.11155 0.77636 0.59808 0.0
H1263 H 0.12162 0.75211 0.62203 0.0
H1264 H 0.14103 0.76241 0.60565 0.0
H1265 H 0.16985 0.78677 0.56813 0.0
H1266 H 0.18834 0.80679 0.57086 0.0
H1267 H 0.16841 0.81868 0.60259 0.0
N1268 N 0.14753 0.77923 0.58032 0.0
H1269 H 0.14992 0.79899 0.59912 0.0
C1270 C 0.22792 0.86653 0.57022 0.0
C1271 C 0.23944 0.86925 0.56413 0.0
C1272 C 0.24393 0.87523 0.54784 0.0
C1273 C 0.23699 0.8787 0.53739 0.0
C1274 C 0.22532 0.87573 0.54331 0.0
C1275 C 0.2208 0.86966 0.55954 0.0
C1276 C 0.22732 0.87027 0.60192 0.0
C1277 C 0.22305 0.87836 0.60168 0.0
C1278 C 0.22834 0.88844 0.61303 0.0
C1279 C 0.23792 0.89057 0.62497 0.0
C1280 C 0.24144 0.8819 0.62613 0.0
C1281 C 0.23622 0.87189 0.61465 0.0
C1282 C 0.21294 0.84995 0.58924 0.0
C1283 C 0.21362 0.83947 0.58998 0.0
C1284 C 0.20295 0.82799 0.58979 0.0
C1285 C 0.19128 0.82671 0.58859 0.0
C1286 C 0.19062 0.83728 0.58838 0.0
C1287 C 0.20134 0.84878 0.58884 0.0
C1288 C 0.14327 0.77646 0.56196 0.0
C1289 C 0.13877 0.76468 0.5556 0.0
C1290 C 0.13269 0.761 0.53907 0.0
C1291 C 0.13103 0.7691 0.52843 0.0
C1292 C 0.13613 0.78112 0.53442 0.0
C1293 C 0.14211 0.78475 0.55105 0.0
C1294 C 0.13738 0.77515 0.59246 0.0
C1295 C 0.12898 0.7791 0.59073 0.0
C1296 C 0.11795 0.77329 0.60003 0.0
C1297 C 0.11498 0.76331 0.61113 0.0
C1298 C 0.12367 0.75981 0.61365 0.0
C1299 C 0.13476 0.76568 0.60435 0.0
C1300 C 0.15834 0.79118 0.58317 0.0
C1301 C 0.16946 0.7937 0.57566 0.0
C1302 C 0.18008 0.80516 0.57739 0.0
C1303 C 0.17994 0.81443 0.587 0.0
C1304 C 0.16885 0.81187 0.59481 0.0
C1305 C 0.15817 0.80044 0.59286 0.0
H1306 H 0.19883 0.30097 0.5612 0.0
N1307 N 0.19664 0.31733 0.57941 0.0
H1308 H 0.21074 0.30411 0.53426 0.0
H1309 H 0.20897 0.33844 0.56013 0.0
H1310 H 0.22019 0.34152 0.53255 0.0
H1311 H 0.22018 0.33488 0.58857 0.0
H1312 H 0.23335 0.33271 0.6102 0.0
H1313 H 0.18944 0.30031 0.60448 0.0
H1314 H 0.20235 0.29833 0.62714 0.0
H1315 H 0.17547 0.31051 0.563 0.0
H1316 H 0.20204 0.33753 0.59932 0.0
H1317 H 0.16349 0.32026 0.56351 0.0
H1318 H 0.18963 0.34681 0.60112 0.0
H1319 H 0.12407 0.33863 0.5706 0.0
H1320 H 0.11345 0.3365 0.54227 0.0
H1321 H 0.14466 0.37009 0.52377 0.0
H1322 H 0.15534 0.37215 0.55236 0.0
H1323 H 0.14313 0.3749 0.59033 0.0
H1324 H 0.1275 0.37328 0.61086 0.0
H1325 H 0.11822 0.33698 0.62478 0.0
H1326 H 0.13366 0.33859 0.60461 0.0
H1327 H 0.1383 0.33298 0.57769 0.0
H1328 H 0.15031 0.32341 0.57949 0.0
H1329 H 0.1834 0.35859 0.58653 0.0
N1330 N 0.1469 0.35739 0.58053 0.0
H1331 H 0.17098 0.36801 0.58623 0.0
C1332 C 0.20287 0.31937 0.56257 0.0
C1333 C 0.20342 0.30981 0.55488 0.0
C1334 C 0.21019 0.31163 0.5394 0.0
C1335 C 0.21646 0.32308 0.53108 0.0
C1336 C 0.21569 0.33263 0.53867 0.0
C1337 C 0.2091 0.33084 0.55436 0.0
C1338 C 0.20386 0.31759 0.59467 0.0
C1339 C 0.21618 0.32695 0.59709 0.0
C1340 C 0.2237 0.32573 0.60965 0.0
C1341 C 0.21901 0.31522 0.62029 0.0
C1342 C 0.20639 0.30638 0.61886 0.0
C1343 C 0.19894 0.30754 0.60608 0.0
C1344 C 0.18955 0.32311 0.58122 0.0
C1345 C 0.17857 0.31842 0.57138 0.0
C1346 C 0.17167 0.32398 0.57185 0.0
C1347 C 0.17543 0.33431 0.58255 0.0
C1348 C 0.18646 0.33898 0.59254 0.0
C1349 C 0.19353 0.33355 0.59171 0.0
C1350 C 0.14061 0.35554 0.56354 0.0
C1351 C 0.12875 0.34545 0.5604 0.0
C1352 C 0.12266 0.34424 0.54416 0.0
C1353 C 0.12823 0.35311 0.53078 0.0
C1354 C 0.1401 0.36315 0.53389 0.0
C1355 C 0.14624 0.36431 0.55012 0.0
C1356 C 0.13963 0.35692 0.5956 0.0
C1357 C 0.13795 0.36673 0.5982 0.0
C1358 C 0.12898 0.36576 0.60982 0.0
C1359 C 0.12155 0.35495 0.61928 0.0
C1360 C 0.12384 0.34546 0.61775 0.0
C1361 C 0.13272 0.34638 0.606 0.0
C1362 C 0.1537 0.35129 0.58217 0.0
C1363 C 0.14808 0.33867 0.57999 0.0
C1364 C 0.15507 0.33318 0.58075 0.0
C1365 C 0.16793 0.34017 0.583 0.0
C1366 C 0.17353 0.35281 0.58512 0.0
C1367 C 0.16646 0.35826 0.58483 0.0
C1368 C 0.00122 0.39563 0.07017 0.0
C1369 C 0.98882 0.38743 0.06584 0.0
C1370 C 0.00442 0.40314 0.0852 0.0
C1371 C 0.99094 0.41532 0.1166 0.0
H1372 H 0.02113 0.42589 0.14346 0.0
C1373 C 0.00281 0.44148 0.18368 0.0
C1374 C 0.01459 0.452 0.18501 0.0
C1375 C 0.99965 0.43355 0.1692 0.0
C1376 C 0.0127 0.42305 0.13599 0.0
H1377 H 0.97006 0.38018 0.07438 0.0
H1378 H 0.97561 0.3928 0.10098 0.0
H1379 H 0.01557 0.41159 0.11881 0.0
H1380 H 0.03217 0.46247 0.17172 0.0
H1381 H 0.02674 0.44838 0.14683 0.0
H1382 H 0.98798 0.42657 0.13421 0.0
C1383 C 0.9829 0.39385 0.09244 0.0
C1384 C 0.00952 0.41489 0.12181 0.0
C1385 C 0.9797 0.38651 0.07726 0.0
C1386 C 0.0231 0.45436 0.1714 0.0
C1387 C 0.02 0.44633 0.15708 0.0
C1388 C 0.99403 0.42332 0.13095 0.0
C1389 C 0.99529 0.40246 0.09643 0.0
C1390 C 0.99861 0.41094 0.11186 0.0
C1391 C 0.00825 0.43585 0.15586 0.0
C1392 C 0.00496 0.4273 0.14072 0.0
H1393 H 0.00845 0.3966 0.06155 0.0
H1394 H 0.01405 0.40973 0.08764 0.0
H1395 H 0.98262 0.41276 0.10905 0.0
H1396 H 0.99607 0.43917 0.19402 0.0
H1397 H 0.99056 0.42547 0.16864 0.0
C1398 C 0.62301 0.59571 0.06642 0.0
C1399 C 0.62575 0.6076 0.06314 0.0
C1400 C 0.61745 0.58978 0.08227 0.0
C1401 C 0.59848 0.58941 0.11915 0.0
H1402 H 0.60914 0.5692 0.14176 0.0
C1403 C 0.57882 0.56403 0.18621 0.0
C1404 C 0.57629 0.55205 0.1872 0.0
C1405 C 0.58502 0.57139 0.17156 0.0
C1406 C 0.60599 0.57472 0.13552 0.0
H1407 H 0.62473 0.62258 0.07407 0.0
H1408 H 0.615 0.61215 0.10201 0.0
H1409 H 0.62001 0.58137 0.11578 0.0
H1410 H 0.57803 0.53834 0.17328 0.0
H1411 H 0.58891 0.5512 0.14779 0.0
H1412 H 0.58439 0.58266 0.13892 0.0
C1413 C 0.61713 0.60743 0.09213 0.0
C1414 C 0.61223 0.58171 0.12065 0.0
C1415 C 0.62276 0.61342 0.07619 0.0
C1416 C 0.58 0.54758 0.17309 0.0
C1417 C 0.58624 0.55495 0.15848 0.0
C1418 C 0.59224 0.58242 0.13409 0.0
C1419 C 0.61446 0.59555 0.09535 0.0
C1420 C 0.60843 0.58898 0.1121 0.0
C1421 C 0.5889 0.56696 0.15761 0.0
C1422 C 0.59581 0.57485 0.14227 0.0
H1423 H 0.62512 0.59089 0.05668 0.0
H1424 H 0.61531 0.58055 0.08415 0.0
H1425 H 0.59526 0.59483 0.11277 0.0
H1426 H 0.57627 0.56784 0.19697 0.0
H1427 H 0.58705 0.58065 0.17137 0.0
C1428 C 0.4002 0.01865 0.0643 0.0
C1429 C 0.39031 0.00661 0.06558 0.0
C1430 C 0.40912 0.02368 0.07795 0.0
C1431 C 0.41513 0.02115 0.12522 0.0
H1432 H 0.44814 0.03033 0.11146 0.0
C1433 C 0.45436 0.03524 0.17706 0.0
C1434 C 0.45911 0.02756 0.17642 0.0
C1435 C 0.4472 0.03546 0.16286 0.0
C1436 C 0.439 0.02795 0.11545 0.0
H1437 H 0.38165 0.99062 0.08242 0.0
H1438 H 0.39698 0.99954 0.10647 0.0
H1439 H 0.43243 0.02561 0.08831 0.0
H1440 H 0.46069 0.01459 0.16028 0.0
H1441 H 0.44847 0.01524 0.13518 0.0
H1442 H 0.42158 0.02318 0.15234 0.0
C1443 C 0.39792 0.00502 0.09486 0.0
C1444 C 0.43006 0.02532 0.10224 0.0
C1445 C 0.38919 0.99991 0.08107 0.0
C1446 C 0.45715 0.02061 0.161 0.0
C1447 C 0.45021 0.02102 0.14666 0.0
C1448 C 0.42412 0.02401 0.1384 0.0
C1449 C 0.4081 0.01685 0.09326 0.0
C1450 C 0.41797 0.02157 0.10704 0.0
C1451 C 0.4449 0.02819 0.14766 0.0
C1452 C 0.43605 0.02711 0.13364 0.0
H1453 H 0.40131 0.02399 0.05244 0.0
H1454 H 0.41691 0.03283 0.07645 0.0
H1455 H 0.40585 0.01827 0.12922 0.0
H1456 H 0.45567 0.04058 0.18891 0.0
H1457 H 0.4432 0.04106 0.16392 0.0
C1458 C 0.38849 0.0007 0.96283 0.0
C1459 C 0.38317 0.99046 0.97405 0.0
C1460 C 0.39396 0.0006 0.94675 0.0
C1461 C 0.39376 0.97979 0.91321 0.0
H1462 H 0.42632 0.00637 0.90125 0.0
C1463 C 0.42113 0.97555 0.85629 0.0
C1464 C 0.42803 0.98567 0.84526 0.0
C1465 C 0.41586 0.97658 0.87192 0.0
C1466 C 0.41715 0.99895 0.90425 0.0
H1467 H 0.37934 0.97207 0.97708 0.0
H1468 H 0.38876 0.9719 0.9491 0.0
H1469 H 0.41641 0.00749 0.92832 0.0
H1470 H 0.43489 0.00485 0.84198 0.0
H1471 H 0.42554 0.00664 0.86916 0.0
H1472 H 0.39436 0.97126 0.88918 0.0
C1473 C 0.38869 0.97998 0.95268 0.0
C1474 C 0.41149 0.9996 0.91976 0.0
C1475 C 0.38336 0.98012 0.96878 0.0
C1476 C 0.42973 0.99691 0.85034 0.0
C1477 C 0.42437 0.99794 0.86592 0.0
C1478 C 0.39936 0.97918 0.89767 0.0
C1479 C 0.39407 0.99021 0.9415 0.0
C1480 C 0.3998 0.98995 0.92451 0.0
C1481 C 0.41727 0.98775 0.87682 0.0
C1482 C 0.41119 0.98867 0.8931 0.0
H1483 H 0.38852 0.00881 0.96652 0.0
H1484 H 0.39798 0.00859 0.93832 0.0
H1485 H 0.38465 0.97231 0.91638 0.0
H1486 H 0.41982 0.96681 0.85284 0.0
H1487 H 0.4107 0.96861 0.88019 0.0
C1488 C 0.00221 0.3985 0.9666 0.0
C1489 C 0.98996 0.39117 0.97208 0.0
C1490 C 0.00511 0.40633 0.95193 0.0
C1491 C 0.99195 0.42108 0.92422 0.0
H1492 H 0.01734 0.42656 0.89081 0.0
C1493 C 0.00311 0.45338 0.8645 0.0
C1494 C 0.00536 0.44969 0.84812 0.0
C1495 C 0.00283 0.44745 0.88038 0.0
C1496 C 0.01016 0.42508 0.89994 0.0
H1497 H 0.97111 0.38592 0.96603 0.0
H1498 H 0.97607 0.39914 0.94031 0.0
H1499 H 0.01336 0.41337 0.91653 0.0
H1500 H 0.00921 0.43698 0.83548 0.0
H1501 H 0.00835 0.42637 0.86299 0.0
H1502 H 0.98825 0.4322 0.90726 0.0
C1503 C 0.98353 0.39925 0.94762 0.0
C1504 C 0.00799 0.41763 0.91485 0.0
C1505 C 0.98066 0.39157 0.96232 0.0
C1506 C 0.00759 0.44011 0.84796 0.0
C1507 C 0.00715 0.43406 0.86378 0.0
C1508 C 0.99402 0.4284 0.90926 0.0
C1509 C 0.9958 0.40689 0.94237 0.0
C1510 C 0.99873 0.41539 0.92705 0.0
C1511 C 0.0046 0.43754 0.88019 0.0
C1512 C 0.00306 0.43041 0.89679 0.0
H1513 H 0.00958 0.39842 0.97389 0.0
H1514 H 0.01467 0.41213 0.94836 0.0
H1515 H 0.98493 0.41981 0.93351 0.0
H1516 H 0.00149 0.46083 0.86501 0.0
H1517 H 0.00112 0.45058 0.89277 0.0
C1518 C 0.60997 0.6215 0.97259 0.0
C1519 C 0.61883 0.61812 0.97206 0.0
C1520 C 0.60087 0.61758 0.95919 0.0
C1521 C 0.58551 0.59311 0.92548 0.0
H1522 H 0.5724 0.61216 0.90636 0.0
C1523 C 0.54623 0.57197 0.87426 0.0
C1524 C 0.5474 0.57917 0.85943 0.0
C1525 C 0.55348 0.57721 0.88956 0.0
C1526 C 0.57599 0.60673 0.91153 0.0
H1527 H 0.62568 0.6088 0.95647 0.0
H1528 H 0.61019 0.60238 0.93296 0.0
H1529 H 0.58879 0.62096 0.92905 0.0
H1530 H 0.55663 0.59743 0.8489 0.0
H1531 H 0.56966 0.60663 0.87543 0.0
H1532 H 0.57327 0.57911 0.90758 0.0
C1533 C 0.6099 0.60762 0.94399 0.0
C1534 C 0.58531 0.61175 0.92466 0.0
C1535 C 0.61885 0.61138 0.95741 0.0
C1536 C 0.55552 0.59176 0.86034 0.0
C1537 C 0.56294 0.597 0.87556 0.0
C1538 C 0.57632 0.58816 0.91235 0.0
C1539 C 0.60056 0.61033 0.94497 0.0
C1540 C 0.5903 0.60504 0.9316 0.0
C1541 C 0.56228 0.58973 0.89015 0.0
C1542 C 0.57147 0.5949 0.90508 0.0
H1543 H 0.60974 0.62669 0.98374 0.0
H1544 H 0.59381 0.61982 0.96036 0.0
H1545 H 0.58893 0.58756 0.93078 0.0
H1546 H 0.54 0.56223 0.87376 0.0
H1547 H 0.55249 0.57136 0.90069 0.0
C1548 C 0.01537 0.61595 0.95215 0.0
C1549 C 0.00644 0.61505 0.96394 0.0
C1550 C 0.01196 0.60841 0.93719 0.0
C1551 C 0.98509 0.58699 0.90875 0.0
H1552 H 0.00684 0.57564 0.89583 0.0
C1553 C 0.9722 0.54841 0.85756 0.0
C1554 C 0.98094 0.55112 0.84417 0.0
C1555 C 0.97504 0.55614 0.87221 0.0
C1556 C 1.00072 0.57879 0.89924 0.0
H1557 H 0.9869 0.60572 0.96913 0.0
H1558 H 0.98093 0.59223 0.94333 0.0
H1559 H 0.01214 0.58929 0.92117 0.0
H1560 H 0.99954 0.56425 0.83581 0.0
H1561 H 0.00457 0.57742 0.86171 0.0
H1562 H 0.97352 0.5761 0.88699 0.0
C1563 C 0.99057 0.59895 0.94538 0.0
C1564 C 0.00377 0.58669 0.9137 0.0
C1565 C 0.99398 0.60665 0.96022 0.0
C1566 C 0.99264 0.56168 0.84599 0.0
C1567 C 0.99552 0.5693 0.86077 0.0
C1568 C 0.98196 0.57893 0.89443 0.0
C1569 C 0.99954 0.59961 0.9338 0.0
C1570 C 0.99607 0.591 0.91855 0.0
C1571 C 0.98673 0.56664 0.87395 0.0
C1572 C 0.9898 0.57485 0.88947 0.0
H1573 H 0.02504 0.62244 0.95453 0.0
H1574 H 0.01911 0.60946 0.92835 0.0
H1575 H 0.97901 0.59022 0.91192 0.0
H1576 H 0.96317 0.54027 0.85681 0.0
H1577 H 0.96814 0.55383 0.88232 0.0
C1578 C 0.38739 0.39167 0.96077 0.0
C1579 C 0.3796 0.39558 0.96681 0.0
C1580 C 0.3944 0.39675 0.94538 0.0
C1581 C 0.3961 0.41224 0.90363 0.0
H1582 H 0.4315 0.42782 0.90864 0.0
C1583 C 0.42842 0.44469 0.84968 0.0
C1584 C 0.43949 0.44514 0.84635 0.0
C1585 C 0.42106 0.43805 0.86407 0.0
C1586 C 0.42163 0.42333 0.90683 0.0
H1587 H 0.37267 0.40748 0.96117 0.0
H1588 H 0.38464 0.41606 0.93402 0.0
H1589 H 0.41838 0.41657 0.93374 0.0
H1590 H 0.45151 0.43896 0.85588 0.0
H1591 H 0.43838 0.42687 0.8803 0.0
H1592 H 0.39919 0.41868 0.87669 0.0
C1593 C 0.38542 0.4092 0.9413 0.0
C1594 C 0.41413 0.41692 0.92126 0.0
C1595 C 0.37862 0.40432 0.95686 0.0
C1596 C 0.44298 0.43873 0.85782 0.0
C1597 C 0.43551 0.43191 0.87205 0.0
C1598 C 0.40356 0.41845 0.88909 0.0
C1599 C 0.3935 0.4056 0.93559 0.0
C1600 C 0.40133 0.41148 0.91986 0.0
C1601 C 0.42443 0.43147 0.87537 0.0
C1602 C 0.41645 0.42427 0.89057 0.0
H1603 H 0.38837 0.38499 0.96822 0.0
H1604 H 0.40055 0.39382 0.94117 0.0
H1605 H 0.38623 0.40801 0.9022 0.0
H1606 H 0.42527 0.44932 0.84102 0.0
H1607 H 0.41274 0.43816 0.86634 0.0
C1608 C 0.61481 0.00722 0.95097 0.0
C1609 C 0.61347 0.9989 0.96429 0.0
C1610 C 0.60703 0.00339 0.93599 0.0
C1611 C 0.57616 0.98202 0.92195 0.0
H1612 H 0.58879 0.99063 0.87379 0.0
C1613 C 0.54394 0.97162 0.86028 0.0
C1614 C 0.54826 0.98036 0.84655 0.0
C1615 C 0.55176 0.97248 0.87433 0.0
C1616 C 0.58509 0.98827 0.88715 0.0
H1617 H 0.60302 0.98003 0.97236 0.0
H1618 H 0.58906 0.97338 0.94625 0.0
H1619 H 0.60291 0.99467 0.89879 0.0
H1620 H 0.56437 0.99678 0.83689 0.0
H1621 H 0.57763 0.99866 0.8617 0.0
H1622 H 0.55844 0.97627 0.9106 0.0
C1623 C 0.59629 0.98282 0.94739 0.0
C1624 C 0.59318 0.99049 0.90142 0.0
C1625 C 0.60429 0.98661 0.96222 0.0
C1626 C 0.56058 0.98999 0.84734 0.0
C1627 C 0.56831 0.99093 0.86146 0.0
C1628 C 0.56806 0.97999 0.9077 0.0
C1629 C 0.59758 0.99121 0.93421 0.0
C1630 C 0.58882 0.98755 0.91896 0.0
C1631 C 0.56406 0.98216 0.8751 0.0
C1632 C 0.57245 0.98331 0.89013 0.0
H1633 H 0.62183 0.01674 0.9522 0.0
H1634 H 0.60815 0.01004 0.92606 0.0
H1635 H 0.57261 0.97978 0.93541 0.0
H1636 H 0.5345 0.96413 0.86026 0.0
H1637 H 0.54816 0.96548 0.88448 0.0
C1638 C 0.60748 0.99309 0.06371 0.0
C1639 C 0.61548 0.00505 0.05798 0.0
C1640 C 0.60013 0.99076 0.07872 0.0
C1641 C 0.58815 0.00569 0.10769 0.0
H1642 H 0.57933 0.97831 0.13894 0.0
C1643 C 0.56642 0.99979 0.17708 0.0
C1644 C 0.55551 0.98863 0.18018 0.0
C1645 C 0.57347 0.00147 0.16199 0.0
C1646 C 0.58168 0.98594 0.13022 0.0
H1647 H 0.6225 0.02397 0.06394 0.0
H1648 H 0.61022 0.02001 0.09053 0.0
H1649 H 0.59264 0.982 0.11345 0.0
H1650 H 0.54353 0.97048 0.16952 0.0
H1651 H 0.5562 0.97334 0.14355 0.0
H1652 H 0.57754 0.00983 0.12497 0.0
C1653 C 0.60916 0.01235 0.08309 0.0
C1654 C 0.58926 0.98804 0.11557 0.0
C1655 C 0.61631 0.01464 0.06791 0.0
C1656 C 0.55195 0.97914 0.16781 0.0
C1657 C 0.55915 0.98077 0.15288 0.0
C1658 C 0.58078 0.00371 0.12251 0.0
C1659 C 0.60078 1.00037 0.08853 0.0
C1660 C 0.59263 0.99798 0.10412 0.0
C1661 C 0.56993 0.99197 0.14981 0.0
C1662 C 0.5775 0.99383 0.1339 0.0
H1663 H 0.6066 0.9855 0.05623 0.0
H1664 H 0.59371 0.98142 0.08231 0.0
H1665 H 0.59024 0.01324 0.09897 0.0
H1666 H 0.56968 0.00723 0.18646 0.0
H1667 H 0.58184 0.01016 0.15999 0.0
C1668 C 0.99723 0.607 0.06408 0.0
C1669 C 0.00928 0.61466 0.05797 0.0
C1670 C 0.99502 0.5997 0.0792 0.0
C1671 C 0.00995 0.58702 0.10765 0.0
H1672 H 0.98429 0.58079 0.14102 0.0
C1673 C 0.99969 0.55523 0.16796 0.0
C1674 C 0.99697 0.55868 0.18419 0.0
C1675 C 1.00004 0.56116 0.15204 0.0
C1676 C 0.99157 0.58251 0.13192 0.0
H1677 H 0.02848 0.621 0.06333 0.0
H1678 H 0.02471 0.60868 0.08989 0.0
H1679 H 0.9875 0.59338 0.11484 0.0
H1680 H 0.99247 0.57102 0.19653 0.0
H1681 H 0.99345 0.58161 0.16895 0.0
H1682 H 0.01446 0.5767 0.12511 0.0
C1683 C 0.01689 0.60793 0.08274 0.0
C1684 C 0.9933 0.58961 0.11674 0.0
C1685 C 0.01907 0.61509 0.06755 0.0
C1686 C 0.99444 0.56806 0.18416 0.0
C1687 C 0.99496 0.5741 0.1683 0.0
C1688 C 0.00832 0.58005 0.1229 0.0
C1689 C 0.00483 0.6 0.08864 0.0
C1690 C 0.0026 0.59206 0.10448 0.0
C1691 C 0.99787 0.57081 0.15203 0.0
C1692 C 0.99916 0.57775 0.13532 0.0
H1693 H 0.98948 0.60643 0.05693 0.0
H1694 H 0.98561 0.59363 0.08322 0.0
H1695 H 0.01705 0.58848 0.09836 0.0
H1696 H 0.00154 0.54794 0.16758 0.0
H1697 H 0.00206 0.55819 0.13974 0.0
C1698 C 0.38699 0.40157 0.07076 0.0
C1699 C 0.3851 0.39193 0.0598 0.0
C1700 C 0.39549 0.40559 0.08486 0.0
C1701 C 0.41371 0.39717 0.11395 0.0
H1702 H 0.43294 0.43189 0.12222 0.0
C1703 C 0.45344 0.41994 0.16651 0.0
C1704 C 0.45307 0.42844 0.17779 0.0
C1705 C 0.44569 0.41535 0.15147 0.0
C1706 C 0.4276 0.42217 0.12012 0.0
H1707 H 0.39049 0.37875 0.05534 0.0
H1708 H 0.40558 0.38594 0.07987 0.0
H1709 H 0.41831 0.4239 0.09734 0.0
H1710 H 0.44409 0.43863 0.18204 0.0
H1711 H 0.43089 0.43088 0.15563 0.0
H1712 H 0.42316 0.39555 0.13678 0.0
C1713 C 0.40034 0.39029 0.07765 0.0
C1714 C 0.41918 0.41757 0.1059 0.0
C1715 C 0.39172 0.38619 0.06356 0.0
C1716 C 0.44487 0.43233 0.17349 0.0
C1717 C 0.43724 0.42784 0.15838 0.0
C1718 C 0.42224 0.4018 0.12812 0.0
C1719 C 0.40245 0.40016 0.08831 0.0
C1720 C 0.41195 0.405 0.10282 0.0
C1721 C 0.43751 0.41926 0.14727 0.0
C1722 C 0.42912 0.41434 0.1315 0.0
H1723 H 0.38194 0.40611 0.06839 0.0
H1724 H 0.39662 0.41299 0.09307 0.0
H1725 H 0.40824 0.38744 0.11205 0.0
H1726 H 0.45975 0.41685 0.16926 0.0
H1727 H 0.44618 0.40883 0.14302 0.0
C1728 C 0.66 0.72145 0.40718 0.0
C1729 C 0.6508 0.71955 0.3947 0.0
C1730 C 0.66136 0.72758 0.42326 0.0
C1731 C 0.64417 0.73629 0.45319 0.0
H1732 H 0.67643 0.75929 0.47271 0.0
C1733 C 0.65111 0.76879 0.51084 0.0
C1734 C 0.6593 0.77007 0.52468 0.0
C1735 C 0.65034 0.76265 0.49509 0.0
C1736 C 0.66736 0.75281 0.4675 0.0
H1737 H 0.636 0.72287 0.38919 0.0
H1738 H 0.63852 0.73367 0.41684 0.0
H1739 H 0.67468 0.74845 0.4451 0.0
H1740 H 0.67304 0.76575 0.53277 0.0
H1741 H 0.67181 0.7552 0.50518 0.0
H1742 H 0.63686 0.74076 0.47544 0.0
C1743 C 0.64451 0.7302 0.4145 0.0
C1744 C 0.66635 0.74657 0.4517 0.0
C1745 C 0.64312 0.72405 0.39855 0.0
C1746 C 0.66678 0.76514 0.52228 0.0
C1747 C 0.66607 0.75906 0.50648 0.0
C1748 C 0.64518 0.74257 0.46889 0.0
C1749 C 0.65356 0.73195 0.42715 0.0
C1750 C 0.65473 0.7383 0.44429 0.0
C1751 C 0.65779 0.75768 0.49276 0.0
C1752 C 0.65678 0.75094 0.47617 0.0
H1753 H 0.66606 0.71809 0.40463 0.0
H1754 H 0.66836 0.72869 0.43277 0.0
H1755 H 0.63507 0.72979 0.4481 0.0
H1756 H 0.64535 0.77263 0.5121 0.0
H1757 H 0.64399 0.76188 0.48464 0.0
C1758 C 0.28781 0.92765 0.39879 0.0
C1759 C 0.28871 0.93858 0.39362 0.0
C1760 C 0.28171 0.92169 0.41435 0.0
C1761 C 0.27063 0.92566 0.45752 0.0
H1762 H 0.25047 0.89055 0.45529 0.0
C1763 C 0.24115 0.89584 0.5168 0.0
C1764 C 0.24205 0.88564 0.52059 0.0
C1765 C 0.24624 0.90259 0.50122 0.0
C1766 C 0.25612 0.90035 0.45615 0.0
H1767 H 0.28412 0.95196 0.40103 0.0
H1768 H 0.27328 0.9414 0.42833 0.0
H1769 H 0.26045 0.90202 0.42838 0.0
H1770 H 0.24882 0.87441 0.51092 0.0
H1771 H 0.2577 0.88617 0.48373 0.0
H1772 H 0.26625 0.9239 0.4854 0.0
C1773 C 0.27741 0.93753 0.42029 0.0
C1774 C 0.26185 0.90693 0.44075 0.0
C1775 C 0.28359 0.94356 0.40465 0.0
C1776 C 0.24804 0.88226 0.50841 0.0
C1777 C 0.25303 0.88894 0.49278 0.0
C1778 C 0.26482 0.91906 0.47296 0.0
C1779 C 0.27626 0.92643 0.42516 0.0
C1780 C 0.26938 0.91964 0.44131 0.0
C1781 C 0.25222 0.89919 0.48903 0.0
C1782 C 0.25769 0.90632 0.47248 0.0
H1783 H 0.29177 0.92361 0.39075 0.0
H1784 H 0.28128 0.91333 0.41792 0.0
H1785 H 0.27643 0.93544 0.45843 0.0
H1786 H 0.23669 0.89873 0.52605 0.0
H1787 H 0.2454 0.9104 0.49863 0.0
C1788 C 0.06365 0.34444 0.40034 0.0
C1789 C 0.05759 0.33256 0.3935 0.0
C1790 C 0.07216 0.34781 0.41448 0.0
C1791 C 0.09195 0.33841 0.43722 0.0
H1792 H 0.09211 0.35774 0.47681 0.0
C1793 C 0.11493 0.3407 0.505 0.0
C1794 C 0.1215 0.35194 0.5138 0.0
C1795 C 0.10812 0.3394 0.48948 0.0
C1796 C 0.0923 0.35248 0.46572 0.0
H1797 H 0.05556 0.31485 0.39646 0.0
H1798 H 0.07015 0.32066 0.42109 0.0
H1799 H 0.07819 0.35353 0.45136 0.0
H1800 H 0.12614 0.37065 0.51319 0.0
H1801 H 0.11424 0.36838 0.48593 0.0
H1802 H 0.10586 0.33714 0.4517 0.0
C1803 C 0.06856 0.32747 0.41535 0.0
C1804 C 0.08433 0.35007 0.45114 0.0
C1805 C 0.06011 0.32411 0.40127 0.0
C1806 C 0.12125 0.3619 0.50661 0.0
C1807 C 0.11435 0.36058 0.49112 0.0
C1808 C 0.09987 0.34078 0.45178 0.0
C1809 C 0.07478 0.33938 0.42203 0.0
C1810 C 0.08391 0.34282 0.43687 0.0
C1811 C 0.10767 0.34929 0.48243 0.0
C1812 C 0.09999 0.34766 0.46634 0.0
H1813 H 0.06194 0.35117 0.39464 0.0
H1814 H 0.07684 0.35708 0.41928 0.0
H1815 H 0.09207 0.33303 0.42625 0.0
H1816 H 0.11504 0.33288 0.51014 0.0
H1817 H 0.10298 0.33055 0.48321 0.0
C1818 C 0.05833 0.33972 0.2952 0.0
C1819 C 0.04959 0.32781 0.30032 0.0
C1820 C 0.06513 0.34188 0.27962 0.0
C1821 C 0.07437 0.32592 0.24806 0.0
H1822 H 0.08583 0.35499 0.21953 0.0
C1823 C 0.09742 0.33311 0.17937 0.0
C1824 C 0.10865 0.34412 0.17718 0.0
C1825 C 0.09011 0.33124 0.19423 0.0
C1826 C 0.08273 0.34686 0.22746 0.0
H1827 H 0.04061 0.30889 0.29268 0.0
H1828 H 0.05199 0.31265 0.26515 0.0
H1829 H 0.07268 0.35142 0.24517 0.0
H1830 H 0.12098 0.36175 0.1892 0.0
H1831 H 0.10795 0.35857 0.2148 0.0
H1832 H 0.08418 0.32126 0.22998 0.0
C1833 C 0.05402 0.32032 0.27346 0.0
C1834 C 0.07523 0.34482 0.24219 0.0
C1835 C 0.0474 0.31816 0.28918 0.0
C1836 C 0.11231 0.35324 0.19022 0.0
C1837 C 0.10489 0.35142 0.20493 0.0
C1838 C 0.08168 0.32787 0.23319 0.0
C1839 C 0.06319 0.33218 0.26868 0.0
C1840 C 0.07097 0.33433 0.25273 0.0
C1841 C 0.09374 0.3404 0.20709 0.0
C1842 C 0.08596 0.33837 0.22279 0.0
H1843 H 0.06027 0.34734 0.3036 0.0
H1844 H 0.07219 0.35112 0.27653 0.0
H1845 H 0.07156 0.31789 0.25606 0.0
H1846 H 0.09413 0.32598 0.16946 0.0
H1847 H 0.08148 0.3227 0.19552 0.0
C1848 C 0.67168 0.72772 0.29776 0.0
C1849 C 0.65897 0.7206 0.30084 0.0
C1850 C 0.6761 0.73505 0.28248 0.0
C1851 C 0.6668 0.73872 0.23713 0.0
H1852 H 0.69143 0.77285 0.2427 0.0
C1853 C 0.67352 0.77339 0.18344 0.0
C1854 C 0.68547 0.78292 0.17955 0.0
C1855 C 0.67139 0.76572 0.19795 0.0
C1856 C 0.6847 0.7633 0.24085 0.0
H1857 H 0.64094 0.71535 0.29007 0.0
H1858 H 0.64864 0.72796 0.26348 0.0
H1859 H 0.68593 0.75922 0.2684 0.0
H1860 H 0.70458 0.79192 0.1881 0.0
H1861 H 0.70089 0.77832 0.21333 0.0
H1862 H 0.66545 0.74271 0.20971 0.0
C1863 C 0.65519 0.72791 0.27284 0.0
C1864 C 0.68155 0.75551 0.25557 0.0
C1865 C 0.65079 0.72074 0.28815 0.0
C1866 C 0.69527 0.78461 0.19064 0.0
C1867 C 0.69314 0.77689 0.20519 0.0
C1868 C 0.66999 0.74647 0.22244 0.0
C1869 C 0.66788 0.73521 0.26989 0.0
C1870 C 0.67236 0.7432 0.25393 0.0
C1871 C 0.68117 0.76729 0.20892 0.0
C1872 C 0.67875 0.75891 0.2242 0.0
H1873 H 0.67821 0.72783 0.30732 0.0
H1874 H 0.68593 0.74056 0.28049 0.0
H1875 H 0.65983 0.72923 0.23542 0.0
H1876 H 0.66577 0.77168 0.17505 0.0
H1877 H 0.66203 0.75857 0.20059 0.0
C1878 C 0.27397 0.95134 0.30025 0.0
C1879 C 0.28144 0.94631 0.30179 0.0
C1880 C 0.26505 0.94754 0.2866 0.0
C1881 C 0.24708 0.92163 0.25578 0.0
H1882 H 0.24015 0.9437 0.23025 0.0
C1883 C 0.20909 0.90376 0.20194 0.0
C1884 C 0.21199 0.9105 0.18603 0.0
C1885 C 0.21647 0.90869 0.21724 0.0
C1886 C 0.24201 0.93742 0.23721 0.0
H1887 H 0.28582 0.9338 0.28969 0.0
H1888 H 0.27061 0.92744 0.2658 0.0
H1889 H 0.25577 0.95145 0.25401 0.0
H1890 H 0.22467 0.9278 0.17378 0.0
H1891 H 0.2377 0.93632 0.20031 0.0
H1892 H 0.23379 0.90771 0.23861 0.0
C1893 C 0.27132 0.93403 0.2754 0.0
C1894 C 0.25087 0.94185 0.25096 0.0
C1895 C 0.28012 0.93775 0.28905 0.0
C1896 C 0.22214 0.92243 0.18592 0.0
C1897 C 0.22959 0.92733 0.20116 0.0
C1898 C 0.2383 0.91723 0.24203 0.0
C1899 C 0.2635 0.93868 0.27419 0.0
C1900 C 0.25364 0.93402 0.26023 0.0
C1901 C 0.227 0.92042 0.21691 0.0
C1902 C 0.23572 0.92508 0.23242 0.0
H1903 H 0.27475 0.95795 0.30988 0.0
H1904 H 0.25915 0.95127 0.2861 0.0
H1905 H 0.24879 0.91529 0.26286 0.0
H1906 H 0.20122 0.89459 0.20246 0.0
H1907 H 0.21403 0.9032 0.22924 0.0
C1908 C 0.67248 0.94476 0.29598 0.0
C1909 C 0.68325 0.9501 0.30659 0.0
C1910 C 0.67183 0.93885 0.27998 0.0
C1911 C 0.69155 0.93737 0.24567 0.0
H1912 H 0.66348 0.90545 0.23501 0.0
C1913 C 0.69355 0.90789 0.19042 0.0
C1914 C 0.6832 0.90141 0.17918 0.0
C1915 C 0.69291 0.91357 0.20584 0.0
C1916 C 0.67132 0.91443 0.23767 0.0
H1917 H 0.70179 0.95344 0.30861 0.0
H1918 H 0.70066 0.94322 0.28086 0.0
H1919 H 0.66345 0.91623 0.26178 0.0
H1920 H 0.66399 0.89559 0.17551 0.0
H1921 H 0.66287 0.90559 0.20245 0.0
H1922 H 0.69945 0.93566 0.22168 0.0
C1923 C 0.69274 0.94366 0.2848 0.0
C1924 C 0.67129 0.9206 0.253 0.0
C1925 C 0.69335 0.94946 0.30079 0.0
C1926 C 0.67209 0.90044 0.18399 0.0
C1927 C 0.67145 0.90617 0.19942 0.0
C1928 C 0.69156 0.93125 0.23036 0.0
C1929 C 0.68199 0.93828 0.27421 0.0
C1930 C 0.6815 0.93206 0.25729 0.0
C1931 C 0.68192 0.91296 0.21039 0.0
C1932 C 0.68154 0.91962 0.2263 0.0
H1933 H 0.66452 0.94507 0.30009 0.0
H1934 H 0.66345 0.93484 0.27202 0.0
H1935 H 0.69945 0.94629 0.24843 0.0
H1936 H 0.70219 0.90863 0.18724 0.0
H1937 H 0.70106 0.91846 0.2142 0.0
C1938 C 0.04523 0.74062 0.29477 0.0
C1939 C 0.04642 0.7319 0.30448 0.0
C1940 C 0.05202 0.74575 0.27927 0.0
C1941 C 0.08098 0.75438 0.25943 0.0
H1942 H 0.06601 0.75506 0.21426 0.0
C1943 C 0.10987 0.77453 0.19579 0.0
C1944 C 0.10626 0.78027 0.18318 0.0
C1945 C 0.10244 0.76833 0.21036 0.0
C1946 C 0.07039 0.75516 0.22683 0.0
H1947 H 0.05553 0.72163 0.30549 0.0
H1948 H 0.0677 0.73092 0.27859 0.0
H1949 H 0.05303 0.74457 0.23985 0.0
H1950 H 0.09193 0.78404 0.17634 0.0
H1951 H 0.07946 0.774 0.20228 0.0
H1952 H 0.09835 0.7654 0.24692 0.0
C1953 C 0.06139 0.73363 0.28293 0.0
C1954 C 0.06292 0.74905 0.24142 0.0
C1955 C 0.05439 0.72829 0.29823 0.0
C1956 C 0.09515 0.7799 0.18583 0.0
C1957 C 0.08783 0.7739 0.2006 0.0
C1958 C 0.08848 0.7607 0.24498 0.0
C1959 C 0.06031 0.74245 0.27341 0.0
C1960 C 0.06816 0.74859 0.25781 0.0
C1961 C 0.09129 0.7679 0.21297 0.0
C1962 C 0.0833 0.76118 0.22844 0.0
H1963 H 0.03913 0.74355 0.29925 0.0
H1964 H 0.05109 0.75258 0.27217 0.0
H1965 H 0.08522 0.75427 0.27205 0.0
H1966 H 0.11845 0.77477 0.19444 0.0
H1967 H 0.10539 0.76372 0.21941 0.0
C1968 C 0.27751 0.34187 0.28407 0.0
C1969 C 0.27713 0.33362 0.29681 0.0
C1970 C 0.26941 0.33781 0.26946 0.0
C1971 C 0.2389 0.31437 0.25568 0.0
H1972 H 0.25045 0.32577 0.20763 0.0
C1973 C 0.21891 0.3084 0.17862 0.0
C1974 C 0.20997 0.31156 0.18081 0.0
C1975 C 0.22664 0.30948 0.19286 0.0
C1976 C 0.24709 0.32242 0.22094 0.0
H1977 H 0.26801 0.31462 0.30414 0.0
H1978 H 0.25354 0.30753 0.27864 0.0
H1979 H 0.26531 0.33072 0.23203 0.0
H1980 H 0.2018 0.31787 0.19977 0.0
H1981 H 0.21526 0.31961 0.22481 0.0
H1982 H 0.22065 0.30644 0.24467 0.0
C1983 C 0.26025 0.31713 0.28 0.0
C1984 C 0.25558 0.3253 0.23489 0.0
C1985 C 0.26855 0.32117 0.29449 0.0
C1986 C 0.20864 0.31542 0.1977 0.0
C1987 C 0.21627 0.31633 0.21204 0.0
C1988 C 0.23038 0.31165 0.24176 0.0
C1989 C 0.2606 0.32544 0.2674 0.0
C1990 C 0.25158 0.32141 0.25241 0.0
C1991 C 0.2255 0.31358 0.20965 0.0
C1992 C 0.2344 0.31574 0.22429 0.0
H1993 H 0.28404 0.35151 0.28547 0.0
H1994 H 0.26981 0.34441 0.26001 0.0
H1995 H 0.23558 0.31134 0.26911 0.0
H1996 H 0.22023 0.30552 0.1657 0.0
H1997 H 0.23364 0.30725 0.19069 0.0
C1998 C 0.27412 0.32926 0.39656 0.0
C1999 C 0.2821 0.34114 0.39052 0.0
C2000 C 0.26727 0.32718 0.41208 0.0
C2001 C 0.2566 0.34272 0.44227 0.0
H2002 H 0.24763 0.31505 0.47296 0.0
C2003 C 0.23494 0.3363 0.51207 0.0
C2004 C 0.22399 0.32511 0.51485 0.0
C2005 C 0.24206 0.33816 0.49697 0.0
C2006 C 0.25004 0.32278 0.46443 0.0
H2007 H 0.28965 0.36017 0.3964 0.0
H2008 H 0.27826 0.35661 0.42385 0.0
H2009 H 0.26052 0.31861 0.44701 0.0
H2010 H 0.21194 0.30717 0.50355 0.0
H2011 H 0.2247 0.31033 0.47761 0.0
H2012 H 0.24643 0.34706 0.46017 0.0
C2013 C 0.27681 0.34883 0.4163 0.0
C2014 C 0.25738 0.3248 0.4495 0.0
C2015 C 0.28345 0.3509 0.40063 0.0
C2016 C 0.22042 0.31582 0.50213 0.0
C2017 C 0.22767 0.31762 0.4872 0.0
C2018 C 0.24948 0.34081 0.45737 0.0
C2019 C 0.26843 0.33694 0.42208 0.0
C2020 C 0.26074 0.33479 0.43817 0.0
C2021 C 0.23852 0.32882 0.48447 0.0
C2022 C 0.24611 0.33082 0.46854 0.0
H2023 H 0.27284 0.32156 0.38896 0.0
H2024 H 0.26081 0.31789 0.4159 0.0
H2025 H 0.2587 0.35033 0.43369 0.0
H2026 H 0.23818 0.34359 0.5217 0.0
H2027 H 0.25046 0.34685 0.49521 0.0
C2028 C 0.65849 0.93671 0.40125 0.0
C2029 C 0.67095 0.9459 0.40008 0.0
C2030 C 0.65427 0.92904 0.41622 0.0
C2031 C 0.66166 0.92681 0.46327 0.0
H2032 H 0.64729 0.89239 0.45477 0.0
C2033 C 0.65352 0.89429 0.52138 0.0
C2034 C 0.65878 0.88716 0.5188 0.0
C2035 C 0.65171 0.90014 0.50693 0.0
C2036 C 0.65119 0.90196 0.45735 0.0
H2037 H 0.68859 0.95463 0.4139 0.0
H2038 H 0.68119 0.94152 0.44004 0.0
H2039 H 0.65033 0.90593 0.42962 0.0
H2040 H 0.66551 0.87995 0.49888 0.0
H2041 H 0.66243 0.89026 0.47365 0.0
H2042 H 0.66306 0.92303 0.49079 0.0
C2043 C 0.6747 0.94014 0.42941 0.0
C2044 C 0.65282 0.90968 0.443 0.0
C2045 C 0.67896 0.94759 0.41439 0.0
C2046 C 0.66156 0.88548 0.50131 0.0
C2047 C 0.65967 0.89129 0.48684 0.0
C2048 C 0.65992 0.91911 0.4776 0.0
C2049 C 0.66238 0.93067 0.43038 0.0
C2050 C 0.65844 0.92223 0.44578 0.0
C2051 C 0.65505 0.89895 0.48957 0.0
C2052 C 0.65501 0.90665 0.47474 0.0
H2053 H 0.65215 0.93519 0.39034 0.0
H2054 H 0.64472 0.92179 0.41668 0.0
H2055 H 0.66598 0.93645 0.46576 0.0
H2056 H 0.65137 0.89584 0.53469 0.0
H2057 H 0.64804 0.90591 0.50942 0.0
C2058 C 0.05512 0.73725 0.40774 0.0
C2059 C 0.05298 0.72753 0.39676 0.0
C2060 C 0.06394 0.74138 0.42142 0.0
C2061 C 0.08275 0.73319 0.44949 0.0
H2062 H 0.10235 0.768 0.45682 0.0
C2063 C 0.12332 0.75608 0.50065 0.0
C2064 C 0.12327 0.76478 0.51187 0.0
C2065 C 0.11538 0.75147 0.4858 0.0
C2066 C 0.09692 0.75826 0.45499 0.0
H2067 H 0.05827 0.71433 0.39185 0.0
H2068 H 0.07388 0.72168 0.41567 0.0
H2069 H 0.08714 0.75979 0.43268 0.0
H2070 H 0.11472 0.77536 0.51617 0.0
H2071 H 0.10117 0.76757 0.49012 0.0
H2072 H 0.09264 0.73175 0.47188 0.0
C2073 C 0.06861 0.72602 0.41378 0.0
C2074 C 0.08816 0.75353 0.44119 0.0
C2075 C 0.05968 0.72182 0.4001 0.0
C2076 C 0.11524 0.76889 0.50766 0.0
C2077 C 0.10742 0.76438 0.49275 0.0
C2078 C 0.09159 0.73794 0.46325 0.0
C2079 C 0.07097 0.73598 0.42442 0.0
C2080 C 0.0808 0.74093 0.43846 0.0
C2081 C 0.10732 0.75556 0.48174 0.0
C2082 C 0.09862 0.75052 0.46632 0.0
H2083 H 0.05004 0.74179 0.40569 0.0
H2084 H 0.06527 0.74886 0.42964 0.0
H2085 H 0.07719 0.72344 0.44785 0.0
H2086 H 0.12948 0.75281 0.50334 0.0
H2087 H 0.1156 0.74477 0.47743 0.0
C2088 C 0.31765 0.05659 0.73797 0.0
C2089 C 0.32713 0.0576 0.7273 0.0
C2090 C 0.32034 0.06389 0.75308 0.0
C2091 C 0.34589 0.08493 0.78388 0.0
H2092 H 0.32353 0.09602 0.79407 0.0
C2093 C 0.35639 0.12309 0.83477 0.0
C2094 C 0.34717 0.12008 0.84748 0.0
C2095 C 0.35422 0.11551 0.82012 0.0
C2096 C 0.32982 0.09295 0.79141 0.0
H2097 H 0.34688 0.0669 0.72424 0.0
H2098 H 0.35162 0.08 0.75024 0.0
H2099 H 0.31937 0.08267 0.76868 0.0
H2100 H 0.32841 0.10654 0.85462 0.0
H2101 H 0.32453 0.09368 0.82869 0.0
H2102 H 0.35652 0.09564 0.80643 0.0
C2103 C 0.34209 0.07335 0.74725 0.0
C2104 C 0.32741 0.08521 0.77693 0.0
C2105 C 0.33939 0.06587 0.73229 0.0
C2106 C 0.33566 0.10936 0.84497 0.0
C2107 C 0.33344 0.10191 0.83018 0.0
C2108 C 0.3484 0.09285 0.7982 0.0
C2109 C 0.33259 0.07258 0.75771 0.0
C2110 C 0.33534 0.08099 0.77305 0.0
C2111 C 0.34271 0.10488 0.81769 0.0
C2112 C 0.34033 0.09684 0.80217 0.0
H2113 H 0.30811 0.05019 0.73457 0.0
H2114 H 0.31277 0.06274 0.76104 0.0
H2115 H 0.35213 0.08177 0.7815 0.0
H2116 H 0.36529 0.13135 0.83604 0.0
H2117 H 0.36148 0.11805 0.81055 0.0
C2118 C 0.95194 0.26033 0.71927 0.0
C2119 C 0.95653 0.27284 0.71776 0.0
C2120 C 0.94652 0.25414 0.73508 0.0
C2121 C 0.93219 0.25618 0.7766 0.0
H2122 H 0.93784 0.23078 0.79255 0.0
C2123 C 0.91617 0.23244 0.84524 0.0
C2124 C 0.91051 0.21973 0.84543 0.0
C2125 C 0.9219 0.23909 0.82985 0.0
C2126 C 0.93609 0.23777 0.78818 0.0
H2127 H 0.95906 0.28865 0.73176 0.0
H2128 H 0.9498 0.27787 0.75956 0.0
H2129 H 0.94787 0.2423 0.76567 0.0
H2130 H 0.90641 0.20407 0.82941 0.0
H2131 H 0.91659 0.21572 0.80261 0.0
H2132 H 0.9205 0.25168 0.7993 0.0
C2133 C 0.95021 0.27281 0.74837 0.0
C2134 C 0.94182 0.24438 0.77276 0.0
C2135 C 0.95558 0.27901 0.73247 0.0
C2136 C 0.91082 0.21385 0.82984 0.0
C2137 C 0.91663 0.22052 0.81447 0.0
C2138 C 0.92652 0.24962 0.79211 0.0
C2139 C 0.94563 0.2603 0.74987 0.0
C2140 C 0.93987 0.2536 0.76668 0.0
C2141 C 0.9222 0.23321 0.81431 0.0
C2142 C 0.92835 0.24029 0.79799 0.0
H2143 H 0.95242 0.25525 0.70817 0.0
H2144 H 0.94288 0.24447 0.73559 0.0
H2145 H 0.93034 0.26309 0.77219 0.0
H2146 H 0.91635 0.23731 0.8571 0.0
H2147 H 0.92628 0.24887 0.83021 0.0
C2148 C 0.72967 0.65962 0.74087 0.0
C2149 C 0.72817 0.66765 0.72987 0.0
C2150 C 0.73871 0.66399 0.75425 0.0
C2151 C 0.75915 0.69092 0.78189 0.0
H2152 H 0.7763 0.67368 0.78967 0.0
C2153 C 0.79872 0.706 0.83417 0.0
C2154 C 0.79757 0.69669 0.84545 0.0
C2155 C 0.79113 0.70329 0.81902 0.0
C2156 C 0.77156 0.67856 0.78769 0.0
H2157 H 0.73489 0.68663 0.72457 0.0
H2158 H 0.75087 0.69431 0.74791 0.0
H2159 H 0.76136 0.66758 0.76528 0.0
H2160 H 0.7874 0.67718 0.84955 0.0
H2161 H 0.77446 0.67249 0.82301 0.0
H2162 H 0.76944 0.7019 0.80441 0.0
C2163 C 0.74493 0.68459 0.74623 0.0
C2164 C 0.76296 0.67505 0.77376 0.0
C2165 C 0.7358 0.6802 0.73283 0.0
C2166 C 0.78879 0.68459 0.841 0.0
C2167 C 0.78131 0.68189 0.82581 0.0
C2168 C 0.76784 0.6945 0.79579 0.0
C2169 C 0.74658 0.67653 0.75695 0.0
C2170 C 0.75645 0.68101 0.7709 0.0
C2171 C 0.78232 0.6912 0.81473 0.0
C2172 C 0.77396 0.6882 0.79904 0.0
H2173 H 0.72389 0.6499 0.73911 0.0
H2174 H 0.73949 0.6575 0.76254 0.0
H2175 H 0.75425 0.69566 0.78015 0.0
H2176 H 0.80549 0.71541 0.83702 0.0
H2177 H 0.7922 0.71064 0.81062 0.0
C2178 C 0.72226 0.66589 0.62725 0.0
C2179 C 0.71634 0.65508 0.63723 0.0
C2180 C 0.7271 0.66614 0.61042 0.0
C2181 C 0.72436 0.64621 0.57331 0.0
H2182 H 0.75799 0.67103 0.56264 0.0
C2183 C 0.75022 0.64052 0.51579 0.0
C2184 C 0.75785 0.65068 0.50519 0.0
C2185 C 0.74518 0.64179 0.53147 0.0
C2186 C 0.74853 0.66413 0.56529 0.0
H2187 H 0.71071 0.63605 0.63722 0.0
H2188 H 0.71903 0.63651 0.608 0.0
H2189 H 0.74875 0.67211 0.59049 0.0
H2190 H 0.76626 0.67016 0.50281 0.0
H2191 H 0.75737 0.67239 0.53022 0.0
H2192 H 0.72406 0.63819 0.54826 0.0
C2193 C 0.71991 0.64477 0.61311 0.0
C2194 C 0.74324 0.66476 0.58123 0.0
C2195 C 0.71521 0.64453 0.62992 0.0
C2196 C 0.76051 0.66218 0.5108 0.0
C2197 C 0.75542 0.66345 0.52649 0.0
C2198 C 0.72959 0.64562 0.55738 0.0
C2199 C 0.72595 0.65557 0.60319 0.0
C2200 C 0.73118 0.65567 0.58554 0.0
C2201 C 0.74758 0.65325 0.53691 0.0
C2202 C 0.74182 0.65443 0.55333 0.0
H2203 H 0.72329 0.67417 0.63254 0.0
H2204 H 0.73166 0.67458 0.603 0.0
H2205 H 0.71496 0.63919 0.57614 0.0
H2206 H 0.74817 0.63157 0.51197 0.0
H2207 H 0.73942 0.63378 0.53939 0.0
C2208 C 0.32526 0.06635 0.62733 0.0
C2209 C 0.332 0.06131 0.63407 0.0
C2210 C 0.32936 0.07402 0.61249 0.0
C2211 C 0.34805 0.08131 0.57245 0.0
H2212 H 0.3453 0.10988 0.57147 0.0
C2213 C 0.34553 0.10396 0.50728 0.0
C2214 C 0.35175 0.11668 0.50653 0.0
C2215 C 0.34512 0.09807 0.52322 0.0
C2216 C 0.34628 0.10203 0.5716 0.0
H2217 H 0.34837 0.06039 0.63041 0.0
H2218 H 0.35548 0.07375 0.60424 0.0
H2219 H 0.34091 0.09812 0.59901 0.0
H2220 H 0.36263 0.13323 0.52177 0.0
H2221 H 0.36184 0.1229 0.54981 0.0
H2222 H 0.35318 0.0851 0.54492 0.0
C2223 C 0.34701 0.07173 0.61055 0.0
C2224 C 0.34365 0.09523 0.58731 0.0
C2225 C 0.34296 0.06411 0.62555 0.0
C2226 C 0.35778 0.12342 0.52198 0.0
C2227 C 0.35727 0.11751 0.53802 0.0
C2228 C 0.35059 0.08807 0.55669 0.0
C2229 C 0.34026 0.07679 0.60391 0.0
C2230 C 0.34428 0.08467 0.5878 0.0
C2231 C 0.35086 0.10477 0.53882 0.0
C2232 C 0.34951 0.09837 0.55601 0.0
H2233 H 0.31679 0.06442 0.63355 0.0
H2234 H 0.32385 0.07762 0.60753 0.0
H2235 H 0.34856 0.07319 0.5724 0.0
H2236 H 0.34093 0.09854 0.49552 0.0
H2237 H 0.34 0.08825 0.52345 0.0
C2238 C 0.94781 0.28025 0.61367 0.0
C2239 C 0.94907 0.28722 0.62881 0.0
C2240 C 0.93914 0.27815 0.60035 0.0
C2241 C 0.90949 0.27532 0.5932 0.0
H2242 H 0.91745 0.27614 0.54312 0.0
C2243 C 0.87405 0.24691 0.53788 0.0
C2244 C 0.87577 0.25182 0.52056 0.0
C2245 C 0.88245 0.25343 0.55165 0.0
C2246 C 0.91507 0.27604 0.55701 0.0
H2247 H 0.94234 0.29762 0.64173 0.0
H2248 H 0.92697 0.29376 0.61839 0.0
H2249 H 0.93379 0.28385 0.56567 0.0
H2250 H 0.88734 0.26771 0.5044 0.0
H2251 H 0.90185 0.27912 0.52847 0.0
H2252 H 0.89069 0.26714 0.58452 0.0
C2253 C 0.93277 0.28998 0.61691 0.0
C2254 C 0.92443 0.28036 0.56993 0.0
C2255 C 0.9416 0.29224 0.63018 0.0
C2256 C 0.88567 0.26368 0.5176 0.0
C2257 C 0.89407 0.27018 0.53135 0.0
C2258 C 0.90008 0.27089 0.58026 0.0
C2259 C 0.93143 0.28286 0.60191 0.0
C2260 C 0.92171 0.2798 0.58818 0.0
C2261 C 0.89277 0.26499 0.54837 0.0
C2262 C 0.90275 0.27099 0.56204 0.0
H2263 H 0.95343 0.27627 0.61218 0.0
H2264 H 0.93823 0.27252 0.58905 0.0
H2265 H 0.90712 0.27472 0.60719 0.0
H2266 H 0.86645 0.23784 0.54063 0.0
H2267 H 0.88121 0.24914 0.56459 0.0
C2268 C 0.33624 0.2764 0.62397 0.0
C2269 C 0.34815 0.28565 0.629 0.0
C2270 C 0.33444 0.26894 0.60929 0.0
C2271 C 0.3518 0.25935 0.58108 0.0
H2272 H 0.32266 0.24568 0.55082 0.0
C2273 C 0.34418 0.22542 0.52568 0.0
C2274 C 0.33921 0.22646 0.50938 0.0
C2275 C 0.34399 0.23158 0.54086 0.0
C2276 C 0.33092 0.2495 0.55903 0.0
H2277 H 0.3674 0.29482 0.62202 0.0
H2278 H 0.36425 0.28229 0.59603 0.0
H2279 H 0.32521 0.25934 0.57504 0.0
H2280 H 0.32998 0.23457 0.49614 0.0
H2281 H 0.33002 0.24569 0.52236 0.0
H2282 H 0.35787 0.25011 0.56459 0.0
C2283 C 0.35632 0.28038 0.60378 0.0
C2284 C 0.3323 0.25722 0.57311 0.0
C2285 C 0.35813 0.28766 0.6186 0.0
C2286 C 0.33375 0.23351 0.50863 0.0
C2287 C 0.33374 0.23985 0.52371 0.0
C2288 C 0.35051 0.25179 0.56688 0.0
C2289 C 0.3445 0.2707 0.59917 0.0
C2290 C 0.34281 0.26232 0.58426 0.0
C2291 C 0.33905 0.23914 0.53998 0.0
C2292 C 0.34007 0.24677 0.5556 0.0
H2293 H 0.32837 0.2746 0.63182 0.0
H2294 H 0.32521 0.26154 0.60629 0.0
H2295 H 0.3599 0.26285 0.58957 0.0
H2296 H 0.34835 0.21995 0.52662 0.0
H2297 H 0.34787 0.23053 0.55322 0.0
C2298 C 0.72035 0.05403 0.61946 0.0
C2299 C 0.71281 0.05859 0.62399 0.0
C2300 C 0.7275 0.0581 0.60401 0.0
C2301 C 0.73044 0.07286 0.56052 0.0
H2302 H 0.76556 0.08674 0.56669 0.0
C2303 C 0.76477 0.10803 0.51167 0.0
C2304 C 0.77551 0.10807 0.50739 0.0
C2305 C 0.75693 0.10036 0.52491 0.0
C2306 C 0.75576 0.0827 0.56461 0.0
H2307 H 0.70646 0.07054 0.61553 0.0
H2308 H 0.71872 0.07743 0.58851 0.0
H2309 H 0.75175 0.07564 0.59133 0.0
H2310 H 0.78637 0.09997 0.51373 0.0
H2311 H 0.77248 0.08635 0.53674 0.0
H2312 H 0.73436 0.07997 0.53394 0.0
C2313 C 0.71917 0.07079 0.59691 0.0
C2314 C 0.74786 0.07635 0.57874 0.0
C2315 C 0.7122 0.06689 0.61244 0.0
C2316 C 0.77815 0.10014 0.51665 0.0
C2317 C 0.77025 0.09241 0.52993 0.0
C2318 C 0.7383 0.0791 0.54638 0.0
C2319 C 0.72704 0.0666 0.59268 0.0
C2320 C 0.73517 0.07167 0.57697 0.0
C2321 C 0.75951 0.09241 0.53416 0.0
C2322 C 0.7511 0.08442 0.54842 0.0
H2323 H 0.72104 0.04766 0.62815 0.0
H2324 H 0.73347 0.0547 0.601 0.0
H2325 H 0.72067 0.06919 0.55873 0.0
H2326 H 0.76229 0.11382 0.50461 0.0
H2327 H 0.74888 0.10079 0.528 0.0
C2328 C 0.9423 0.67863 0.61658 0.0
C2329 C 0.94272 0.67076 0.62928 0.0
C2330 C 0.93433 0.67407 0.60188 0.0
C2331 C 0.90525 0.64825 0.58647 0.0
H2332 H 0.91689 0.66286 0.53986 0.0
C2333 C 0.87361 0.63439 0.52304 0.0
C2334 C 0.87536 0.64399 0.5119 0.0
C2335 C 0.88177 0.63647 0.53725 0.0
C2336 C 0.91346 0.65874 0.5528 0.0
H2337 H 0.93507 0.65188 0.63644 0.0
H2338 H 0.9209 0.64386 0.61064 0.0
H2339 H 0.93143 0.66847 0.5647 0.0
H2340 H 0.88714 0.6633 0.50701 0.0
H2341 H 0.90105 0.66696 0.53195 0.0
H2342 H 0.88718 0.6388 0.57466 0.0
C2343 C 0.92684 0.65358 0.61217 0.0
C2344 C 0.92181 0.66192 0.56701 0.0
C2345 C 0.93498 0.65817 0.62685 0.0
C2346 C 0.88537 0.65571 0.51544 0.0
C2347 C 0.89349 0.65778 0.5296 0.0
C2348 C 0.89685 0.6451 0.57223 0.0
C2349 C 0.92646 0.66151 0.59953 0.0
C2350 C 0.91776 0.65692 0.58408 0.0
C2351 C 0.89189 0.64819 0.54057 0.0
C2352 C 0.90083 0.65054 0.55534 0.0
H2353 H 0.94814 0.68838 0.618 0.0
H2354 H 0.93414 0.68041 0.5925 0.0
H2355 H 0.90187 0.64431 0.59953 0.0
H2356 H 0.86594 0.62526 0.52076 0.0
H2357 H 0.8803 0.62887 0.54541 0.0
C2358 C 0.94617 0.67407 0.73377 0.0
C2359 C 0.95144 0.68455 0.72304 0.0
C2360 C 0.94145 0.67407 0.7506 0.0
C2361 C 0.94397 0.69464 0.78645 0.0
H2362 H 0.91106 0.66916 0.79922 0.0
C2363 C 0.91879 0.69995 0.84562 0.0
C2364 C 0.91137 0.68973 0.85623 0.0
C2365 C 0.92379 0.6988 0.82977 0.0
C2366 C 0.92034 0.67626 0.796 0.0
H2367 H 0.956 0.70325 0.72168 0.0
H2368 H 0.94791 0.70324 0.75091 0.0
H2369 H 0.91985 0.66786 0.77108 0.0
H2370 H 0.90347 0.67033 0.85869 0.0
H2371 H 0.91233 0.66833 0.83115 0.0
H2372 H 0.94457 0.70304 0.81128 0.0
C2373 C 0.94743 0.69505 0.74637 0.0
C2374 C 0.92535 0.6755 0.77988 0.0
C2375 C 0.95199 0.69501 0.72955 0.0
C2376 C 0.90902 0.67834 0.85065 0.0
C2377 C 0.91409 0.67719 0.83486 0.0
C2378 C 0.93901 0.69535 0.8026 0.0
C2379 C 0.9421 0.6846 0.75708 0.0
C2380 C 0.93714 0.68479 0.77482 0.0
C2381 C 0.92157 0.68742 0.82424 0.0
C2382 C 0.92705 0.68627 0.80746 0.0
H2383 H 0.9456 0.66586 0.72912 0.0
H2384 H 0.93742 0.6659 0.75863 0.0
H2385 H 0.95316 0.70184 0.78301 0.0
H2386 H 0.92062 0.70882 0.84946 0.0
H2387 H 0.92928 0.70683 0.82175 0.0
C2388 C 0.35057 0.27849 0.72945 0.0
C2389 C 0.3424 0.28162 0.7219 0.0
C2390 C 0.34707 0.27057 0.74395 0.0
C2391 C 0.32599 0.25837 0.78173 0.0
H2392 H 0.33545 0.23424 0.78199 0.0
C2393 C 0.31594 0.22565 0.84152 0.0
C2394 C 0.32597 0.22466 0.84713 0.0
C2395 C 0.31631 0.2313 0.82527 0.0
C2396 C 0.33278 0.24096 0.78216 0.0
H2397 H 0.32416 0.27896 0.72393 0.0
H2398 H 0.31809 0.2651 0.74949 0.0
H2399 H 0.33916 0.24677 0.75554 0.0
H2400 H 0.34403 0.22838 0.83982 0.0
H2401 H 0.34474 0.23832 0.8117 0.0
H2402 H 0.31989 0.25273 0.80858 0.0
C2403 C 0.3272 0.26883 0.74407 0.0
C2404 C 0.3349 0.24813 0.76701 0.0
C2405 C 0.33068 0.27673 0.72942 0.0
C2406 C 0.33621 0.22912 0.83595 0.0
C2407 C 0.33656 0.2347 0.81974 0.0
C2408 C 0.32388 0.25119 0.79695 0.0
C2409 C 0.33534 0.26558 0.75137 0.0
C2410 C 0.3318 0.25712 0.76677 0.0
C2411 C 0.32667 0.23597 0.81427 0.0
C2412 C 0.32752 0.2426 0.79748 0.0
H2413 H 0.35967 0.28209 0.72408 0.0
H2414 H 0.35364 0.26844 0.74948 0.0
H2415 H 0.32355 0.26526 0.78198 0.0
H2416 H 0.30795 0.22236 0.84991 0.0
H2417 H 0.30851 0.23207 0.82137 0.0
C2418 C 0.72323 0.07403 0.72323 0.0
C2419 C 0.71863 0.06202 0.71761 0.0
C2420 C 0.73127 0.07881 0.73784 0.0
C2421 C 0.7412 0.07048 0.7789 0.0
H2422 H 0.76873 0.10362 0.77611 0.0
C2423 C 0.77572 0.09387 0.83773 0.0
C2424 C 0.77884 0.1058 0.84162 0.0
C2425 C 0.76925 0.08813 0.82202 0.0
C2426 C 0.76104 0.09438 0.77715 0.0
H2427 H 0.71883 0.04561 0.7231 0.0
H2428 H 0.73294 0.05402 0.74883 0.0
H2429 H 0.75574 0.09415 0.74981 0.0
H2430 H 0.77789 0.12114 0.8318 0.0
H2431 H 0.76646 0.11109 0.80459 0.0
H2432 H 0.74638 0.07082 0.80638 0.0
C2433 C 0.73025 0.05968 0.74184 0.0
C2434 C 0.75361 0.08895 0.76207 0.0
C2435 C 0.72221 0.05488 0.72708 0.0
C2436 C 0.77553 0.11192 0.82929 0.0
C2437 C 0.76909 0.10619 0.81359 0.0
C2438 C 0.74865 0.07593 0.79402 0.0
C2439 C 0.73492 0.07174 0.74728 0.0
C2440 C 0.74346 0.07702 0.76286 0.0
C2441 C 0.7658 0.09421 0.80981 0.0
C2442 C 0.75852 0.08803 0.7934 0.0
H2443 H 0.72066 0.0798 0.71632 0.0
H2444 H 0.73452 0.08805 0.74188 0.0
H2445 H 0.7334 0.0613 0.77996 0.0
H2446 H 0.77803 0.08887 0.84703 0.0
H2447 H 0.76694 0.07893 0.81943 0.0
C2448 C 0.03197 0.37257 0.02434 0.0
C2449 C 0.02211 0.36294 0.015 0.0
C2450 C 0.04247 0.37218 0.02876 0.0
C2451 C 0.05909 0.35617 0.01882 0.0
H2452 H 0.07298 0.3675 0.06623 0.0
C2453 C 0.09384 0.34579 0.05345 0.0
C2454 C 0.10341 0.35515 0.06363 0.0
C2455 C 0.08458 0.34725 0.04582 0.0
C2456 C 0.06932 0.36444 0.05285 0.0
H2457 H 0.01568 0.34546 0.0026 0.0
H2458 H 0.03386 0.34466 0.0106 0.0
H2459 H 0.05567 0.36915 0.05614 0.0
H2460 H 0.11081 0.37348 0.07346 0.0
H2461 H 0.09483 0.37607 0.05995 0.0
H2462 H 0.07266 0.35123 0.01579 0.0
C2463 C 0.03359 0.35262 0.01429 0.0
C2464 C 0.05939 0.36541 0.04704 0.0
C2465 C 0.02312 0.35305 0.00978 0.0
C2466 C 0.10369 0.36613 0.06552 0.0
C2467 C 0.09443 0.36757 0.05797 0.0
C2468 C 0.069 0.35515 0.02469 0.0
C2469 C 0.04334 0.36211 0.02405 0.0
C2470 C 0.05413 0.3613 0.02994 0.0
C2471 C 0.08464 0.35808 0.04833 0.0
C2472 C 0.07424 0.35929 0.04178 0.0
H2473 H 0.03154 0.38037 0.02845 0.0
H2474 H 0.04989 0.37976 0.03597 0.0
H2475 H 0.05537 0.35304 0.00549 0.0
H2476 H 0.0934 0.33725 0.05163 0.0
H2477 H 0.07713 0.33975 0.03852 0.0
C2478 C 0.65244 0.6808 0.00763 0.0
C2479 C 0.64797 0.67138 0.02028 0.0
C2480 C 0.65455 0.69221 0.01231 0.0
C2481 C 0.64735 0.7084 0.04626 0.0
H2482 H 0.67777 0.73647 0.03028 0.0
C2483 C 0.68114 0.76172 0.0665 0.0
C2484 C 0.67261 0.76543 0.06848 0.0
C2485 C 0.67758 0.75045 0.05907 0.0
C2486 C 0.66924 0.72873 0.03488 0.0
H2487 H 0.64195 0.66649 0.04768 0.0
H2488 H 0.64574 0.68643 0.05589 0.0
H2489 H 0.67241 0.71628 0.02072 0.0
H2490 H 0.65363 0.76022 0.06373 0.0
H2491 H 0.64738 0.74045 0.05079 0.0
H2492 H 0.64439 0.72087 0.06088 0.0
C2493 C 0.6475 0.68496 0.04229 0.0
C2494 C 0.6661 0.71715 0.02924 0.0
C2495 C 0.64539 0.67355 0.03761 0.0
C2496 C 0.66042 0.75761 0.06258 0.0
C2497 C 0.65683 0.74628 0.05518 0.0
C2498 C 0.65048 0.72 0.05187 0.0
C2499 C 0.65223 0.69448 0.02974 0.0
C2500 C 0.65518 0.70683 0.03501 0.0
C2501 C 0.66536 0.74254 0.05346 0.0
C2502 C 0.66155 0.73029 0.04643 0.0
H2503 H 0.65446 0.67943 0.99413 0.0
H2504 H 0.65802 0.69927 0.00224 0.0
H2505 H 0.63881 0.70065 0.0508 0.0
H2506 H 0.69053 0.76735 0.07127 0.0
H2507 H 0.68433 0.74778 0.05825 0.0
C2508 C 0.32247 0.95977 0.02747 0.0
C2509 C 0.32961 0.97246 0.02583 0.0
C2510 C 0.30977 0.95388 0.02946 0.0
C2511 C 0.28584 0.9587 0.04614 0.0
H2512 H 0.26416 0.92728 0.02434 0.0
C2513 C 0.23474 0.92939 0.06551 0.0
C2514 C 0.231 0.91734 0.06983 0.0
C2515 C 0.24578 0.93676 0.05653 0.0
C2516 C 0.27009 0.93605 0.03053 0.0
H2517 H 0.32892 0.9889 0.02464 0.0
H2518 H 0.30661 0.97854 0.02827 0.0
H2519 H 0.28559 0.93926 0.01523 0.0
H2520 H 0.23547 0.90336 0.06722 0.0
H2521 H 0.25473 0.91619 0.05176 0.0
H2522 H 0.27047 0.95529 0.06192 0.0
C2523 C 0.31093 0.97319 0.02804 0.0
C2524 C 0.28235 0.94291 0.02531 0.0
C2525 C 0.32369 0.97911 0.02591 0.0
C2526 C 0.23819 0.91264 0.06423 0.0
C2527 C 0.24917 0.91997 0.0552 0.0
C2528 C 0.27356 0.95183 0.05138 0.0
C2529 C 0.30385 0.96051 0.02993 0.0
C2530 C 0.29046 0.95414 0.03344 0.0
C2531 C 0.25323 0.93219 0.05159 0.0
C2532 C 0.26564 0.94026 0.04401 0.0
H2533 H 0.32671 0.95435 0.02742 0.0
H2534 H 0.30462 0.94412 0.03117 0.0
H2535 H 0.29187 0.96728 0.05275 0.0
H2536 H 0.22941 0.93327 0.06975 0.0
H2537 H 0.24862 0.94611 0.05379 0.0
C2538 C 0.35171 0.03291 0.02017 0.0
C2539 C 0.36099 0.03118 0.01363 0.0
C2540 C 0.35109 0.043 0.01495 0.0
C2541 C 0.36963 0.07391 0.99695 0.0
H2542 H 0.33832 0.06912 0.98081 0.0
C2543 C 0.36621 0.1107 0.95813 0.0
C2544 C 0.35597 0.1119 0.96066 0.0
C2545 C 0.36682 0.10123 0.96614 0.0
C2546 C 0.3471 0.07068 0.98557 0.0
H2547 H 0.37701 0.03879 0.99666 0.0
H2548 H 0.37597 0.05647 0.98767 0.0
H2549 H 0.33943 0.05189 0.99189 0.0
H2550 H 0.33845 0.10422 0.97392 0.0
H2551 H 0.3396 0.08773 0.98827 0.0
H2552 H 0.37733 0.09268 0.99077 0.0
C2553 C 0.36919 0.05001 0.99686 0.0
C2554 C 0.34774 0.06078 0.99186 0.0
C2555 C 0.36974 0.03985 0.00194 0.0
C2556 C 0.34642 0.10348 0.97164 0.0
C2557 C 0.34707 0.09402 0.97979 0.0
C2558 C 0.36899 0.08382 0.99082 0.0
C2559 C 0.35981 0.05166 0.00323 0.0
C2560 C 0.35904 0.06226 0.9974 0.0
C2561 C 0.35724 0.09271 0.977 0.0
C2562 C 0.35774 0.08231 0.9848 0.0
H2563 H 0.34482 0.02639 0.02919 0.0
H2564 H 0.34382 0.04408 0.02018 0.0
H2565 H 0.37843 0.07536 0.0014 0.0
H2566 H 0.3736 0.11687 0.94943 0.0
H2567 H 0.37467 0.10039 0.96334 0.0
C2568 C 0.96775 0.32619 0.01075 0.0
C2569 C 0.96154 0.33258 0.01016 0.0
C2570 C 0.96161 0.31388 0.00607 0.0
C2571 C 0.93694 0.29239 0.97708 0.0
H2572 H 0.93542 0.2668 0.00651 0.0
C2573 C 0.90556 0.24278 0.95659 0.0
C2574 C 0.90974 0.2347 0.95926 0.0
C2575 C 0.91176 0.2543 0.9643 0.0
C2576 C 0.93589 0.27385 0.998 0.0
H2577 H 0.94394 0.33093 0.00461 0.0
H2578 H 0.93341 0.30964 0.99616 0.0
H2579 H 0.94701 0.28782 0.01713 0.0
H2580 H 0.92351 0.23239 0.97307 0.0
H2581 H 0.93471 0.25272 0.98572 0.0
H2582 H 0.92626 0.27874 0.95769 0.0
C2583 C 0.94298 0.31414 0.00029 0.0
C2584 C 0.9425 0.28586 0.00413 0.0
C2585 C 0.94903 0.32633 0.0052 0.0
C2586 C 0.92012 0.2384 0.97038 0.0
C2587 C 0.92647 0.25004 0.97788 0.0
C2588 C 0.93052 0.28047 0.97084 0.0
C2589 C 0.94924 0.30784 0.00045 0.0
C2590 C 0.94291 0.29519 0.99381 0.0
C2591 C 0.9225 0.25824 0.97464 0.0
C2592 C 0.92972 0.27098 0.98131 0.0
H2593 H 0.97738 0.33074 0.01455 0.0
H2594 H 0.96662 0.3092 0.00624 0.0
H2595 H 0.93729 0.29946 0.96874 0.0
H2596 H 0.89772 0.24042 0.94797 0.0
H2597 H 0.9082 0.2602 0.96187 0.0
C2598 C 0.68595 0.63702 0.01023 0.0
C2599 C 0.67945 0.64309 0.00941 0.0
C2600 C 0.69834 0.64298 0.00576 0.0
C2601 C 0.72019 0.65405 0.98178 0.0
H2602 H 0.74488 0.68742 0.99299 0.0
C2603 C 0.76575 0.67868 0.94461 0.0
C2604 C 0.77659 0.68564 0.95471 0.0
C2605 C 0.75428 0.67427 0.95228 0.0
C2606 C 0.7381 0.67806 0.98988 0.0
H2607 H 0.68103 0.66039 0.00419 0.0
H2608 H 0.70276 0.67081 0.99598 0.0
H2609 H 0.72428 0.67831 0.00571 0.0
H2610 H 0.78388 0.69372 0.98072 0.0
H2611 H 0.76369 0.6859 0.99425 0.0
H2612 H 0.73389 0.65367 0.96615 0.0
C2613 C 0.69825 0.66144 0.00027 0.0
C2614 C 0.72628 0.67289 0.99701 0.0
C2615 C 0.6858 0.65547 0.00491 0.0
C2616 C 0.77569 0.68838 0.9726 0.0
C2617 C 0.76414 0.68394 0.98032 0.0
C2618 C 0.73192 0.6592 0.97467 0.0
C2619 C 0.70454 0.65514 0.00017 0.0
C2620 C 0.7172 0.66081 0.99303 0.0
C2621 C 0.75331 0.67669 0.97028 0.0
C2622 C 0.741 0.67128 0.9785 0.0
H2623 H 0.68139 0.62754 0.01395 0.0
H2624 H 0.703 0.63795 0.00629 0.0
H2625 H 0.71339 0.64479 0.97819 0.0
H2626 H 0.76612 0.67669 0.93065 0.0
H2627 H 0.74613 0.66897 0.94405 0.0
C2628 C 0.96506 0.6327 0.01083 0.0
C2629 C 0.97584 0.64174 0.01938 0.0
C2630 C 0.95523 0.63445 0.00753 0.0
C2631 C 0.94365 0.65517 0.01831 0.0
H2632 H 0.9267 0.6438 0.97263 0.0
C2633 C 0.92069 0.67703 0.97929 0.0
C2634 C 0.90879 0.66938 0.97211 0.0
C2635 C 0.92707 0.67222 0.98772 0.0
C2636 C 0.93122 0.64687 0.98555 0.0
H2637 H 0.98469 0.65962 0.03139 0.0
H2638 H 0.96792 0.6629 0.02503 0.0
H2639 H 0.94133 0.63803 0.98219 0.0
H2640 H 0.89418 0.65051 0.96908 0.0
H2641 H 0.90569 0.64217 0.98302 0.0
H2642 H 0.93406 0.66467 0.02094 0.0
C2643 C 0.96677 0.65427 0.02133 0.0
C2644 C 0.9396 0.64353 0.99111 0.0
C2645 C 0.97648 0.65243 0.02489 0.0
C2646 C 0.90339 0.65674 0.97405 0.0
C2647 C 0.90992 0.65192 0.98216 0.0
C2648 C 0.93546 0.65868 0.01257 0.0
C2649 C 0.95604 0.64537 0.01243 0.0
C2650 C 0.94612 0.64782 0.00742 0.0
C2651 C 0.92187 0.65964 0.9889 0.0
C2652 C 0.92933 0.65472 0.99602 0.0
H2653 H 0.96425 0.62431 0.00655 0.0
H2654 H 0.94705 0.62727 0.00097 0.0
H2655 H 0.94822 0.65841 0.03115 0.0
H2656 H 0.92537 0.68678 0.97777 0.0
H2657 H 0.93634 0.67836 0.99261 0.0
C2658 C 0.35738 0.33276 0.99705 0.0
C2659 C 0.36129 0.33714 0.01454 0.0
C2660 C 0.3558 0.32167 0.9918 0.0
C2661 C 0.35126 0.29277 0.00959 0.0
H2662 H 0.35967 0.28952 0.96116 0.0
C2663 C 0.3346 0.24627 0.97631 0.0
C2664 C 0.34216 0.24542 0.96359 0.0
C2665 C 0.33796 0.25743 0.98408 0.0
C2666 C 0.35743 0.29027 0.97482 0.0
H2667 H 0.36668 0.33329 0.04021 0.0
H2668 H 0.36413 0.31399 0.03093 0.0
H2669 H 0.36385 0.30909 0.97154 0.0
H2670 H 0.35949 0.2557 0.94965 0.0
H2671 H 0.36557 0.27495 0.96371 0.0
H2672 H 0.34505 0.27395 0.01293 0.0
C2673 C 0.36209 0.31906 0.02135 0.0
C2674 C 0.35966 0.30149 0.9807 0.0
C2675 C 0.36362 0.33016 0.02665 0.0
C2676 C 0.35345 0.25593 0.9595 0.0
C2677 C 0.35687 0.26705 0.96737 0.0
C2678 C 0.34909 0.28154 0.00373 0.0
C2679 C 0.35817 0.31468 0.00384 0.0
C2680 C 0.35645 0.30286 0.99806 0.0
C2681 C 0.34903 0.26802 0.97942 0.0
C2682 C 0.35203 0.28011 0.98619 0.0
H2683 H 0.35541 0.33784 0.9874 0.0
H2684 H 0.35253 0.3185 0.97832 0.0
H2685 H 0.34859 0.29347 0.02301 0.0
H2686 H 0.32592 0.23835 0.98002 0.0
H2687 H 0.33165 0.25781 0.99322 0.0
C2688 C 0.67866 0.04358 0.00867 0.0
C2689 C 0.67214 0.03084 0.00865 0.0
C2690 C 0.69137 0.05023 0.00664 0.0
C2691 C 0.71886 0.06286 0.00958 0.0
H2692 H 0.73211 0.05347 0.97078 0.0
C2693 C 0.767 0.08292 0.96759 0.0
C2694 C 0.76856 0.09418 0.96253 0.0
C2695 C 0.75648 0.07434 0.97678 0.0
C2696 C 0.72862 0.05609 0.98191 0.0
H2697 H 0.67397 0.01508 0.00693 0.0
H2698 H 0.69634 0.02678 0.00341 0.0
H2699 H 0.71103 0.03964 0.98045 0.0
H2700 H 0.76012 0.10512 0.96355 0.0
H2701 H 0.74225 0.09047 0.98006 0.0
H2702 H 0.73621 0.07959 0.01029 0.0
C2703 C 0.69152 0.03158 0.00488 0.0
C2704 C 0.71654 0.04816 0.98747 0.0
C2705 C 0.67872 0.02489 0.00697 0.0
C2706 C 0.75953 0.09676 0.96755 0.0
C2707 C 0.74919 0.08831 0.97696 0.0
C2708 C 0.73086 0.07079 0.00393 0.0
C2709 C 0.69797 0.04435 0.00456 0.0
C2710 C 0.71138 0.05165 0.00093 0.0
C2711 C 0.74744 0.07694 0.98141 0.0
C2712 C 0.73572 0.06765 0.98964 0.0
H2713 H 0.67392 0.04849 0.00994 0.0
H2714 H 0.69597 0.06002 0.00611 0.0
H2715 H 0.71527 0.0657 0.02029 0.0
H2716 H 0.7738 0.08064 0.96425 0.0
H2717 H 0.75536 0.06565 0.98013 0.0
C2718 C 0.64865 0.96785 -0.00043 0.0
C2719 C 0.64161 0.97072 0.01048 0.0
C2720 C 0.6506 0.95846 0.00427 0.0
C2721 C 0.63922 0.93143 0.03369 0.0
H2722 H 0.67245 0.93795 0.02952 0.0
C2723 C 0.65699 0.90485 0.07296 0.0
C2724 C 0.66532 0.90238 0.06468 0.0
C2725 C 0.65308 0.91193 0.06437 0.0
C2726 C 0.66307 0.93588 0.0305 0.0
H2727 H 0.63083 0.96574 0.03469 0.0
H2728 H 0.63434 0.9495 0.04298 0.0
H2729 H 0.66749 0.95266 0.01815 0.0
H2730 H 0.67563 0.90505 0.04047 0.0
H2731 H 0.66884 0.91749 0.0255 0.0
H2732 H 0.6349 0.91478 0.04643 0.0
C2733 C 0.63825 0.9544 0.03066 0.0
C2734 C 0.66022 0.94432 0.02398 0.0
C2735 C 0.63629 0.96377 0.02596 0.0
C2736 C 0.66935 0.90691 0.04735 0.0
C2737 C 0.66546 0.91404 0.03877 0.0
C2738 C 0.64208 0.923 0.04024 0.0
C2739 C 0.64555 0.95171 0.01999 0.0
C2740 C 0.6483 0.94229 0.02571 0.0
C2741 C 0.65742 0.91678 0.0473 0.0
C2742 C 0.65408 0.9252 0.03895 0.0
H2743 H 0.65283 0.97298 0.9875 0.0
H2744 H 0.65612 0.95653 0.99561 0.0
H2745 H 0.6299 0.92948 0.03496 0.0
H2746 H 0.65386 0.90172 0.08642 0.0
H2747 H 0.64704 0.91402 0.07145 0.0
C2748 C 0.02853 0.67671 0.02338 0.0
C2749 C 0.03445 0.67159 0.01457 0.0
C2750 C 0.035 0.68904 0.0278 0.0
C2751 C 0.05471 0.71124 0.04851 0.0
H2752 H 0.07785 0.73726 0.01766 0.0
C2753 C 0.09822 0.75361 0.07448 0.0
C2754 C 0.09999 0.76492 0.06948 0.0
C2755 C 0.08896 0.74299 0.06643 0.0
C2756 C 0.07131 0.7301 0.02634 0.0
H2757 H 0.0515 0.67553 0.00235 0.0
H2758 H 0.06269 0.69706 0.00981 0.0
H2759 H 0.06338 0.71721 0.00487 0.0
H2760 H 0.09362 0.77405 0.05202 0.0
H2761 H 0.07754 0.7553 0.03736 0.0
H2762 H 0.06308 0.72391 0.0701 0.0
C2763 C 0.0531 0.69154 0.01341 0.0
C2764 C 0.06309 0.71866 0.01907 0.0
C2765 C 0.04671 0.67919 0.00926 0.0
C2766 C 0.09243 0.76542 0.05605 0.0
C2767 C 0.08329 0.75476 0.04769 0.0
C2768 C 0.06305 0.72259 0.05579 0.0
C2769 C 0.04742 0.69652 0.02317 0.0
C2770 C 0.05487 0.70906 0.03016 0.0
C2771 C 0.08139 0.74345 0.05303 0.0
C2772 C 0.07157 0.73204 0.04484 0.0
H2773 H 0.01909 0.67109 0.02764 0.0
H2774 H 0.0304 0.69268 0.03527 0.0
H2775 H 0.04857 0.70399 0.05739 0.0
H2776 H 0.10382 0.75296 0.08496 0.0
H2777 H 0.08773 0.73438 0.07066 0.0
C2778 C 0.31833 0.37054 0.02089 0.0
C2779 C 0.32468 0.36432 0.0202 0.0
C2780 C 0.30567 0.36426 0.02345 0.0
C2781 C 0.28065 0.3363 0.04289 0.0
H2782 H 0.26047 0.34718 0.02017 0.0
C2783 C 0.23014 0.31716 0.063 0.0
C2784 C 0.2275 0.32619 0.06698 0.0
C2785 C 0.2409 0.32011 0.05396 0.0
C2786 C 0.26598 0.34402 0.0266 0.0
H2787 H 0.3226 0.34654 0.02129 0.0
H2788 H 0.30035 0.33553 0.02581 0.0
H2789 H 0.28153 0.35537 0.01032 0.0
H2790 H 0.23364 0.34521 0.06381 0.0
H2791 H 0.25238 0.35037 0.04807 0.0
H2792 H 0.26518 0.32522 0.05953 0.0
C2793 C 0.30526 0.34531 0.02445 0.0
C2794 C 0.27804 0.34872 0.02098 0.0
C2795 C 0.31799 0.35161 0.0218 0.0
C2796 C 0.2355 0.33809 0.06102 0.0
C2797 C 0.24618 0.34101 0.05187 0.0
C2798 C 0.26855 0.33157 0.04848 0.0
C2799 C 0.29898 0.35159 0.02541 0.0
C2800 C 0.28564 0.3452 0.02944 0.0
C2801 C 0.24913 0.33212 0.04856 0.0
C2802 C 0.26121 0.33566 0.04075 0.0
H2803 H 0.32317 0.38032 0.01968 0.0
H2804 H 0.30117 0.36942 0.02443 0.0
H2805 H 0.28628 0.33347 0.04978 0.0
H2806 H 0.22416 0.30793 0.06754 0.0
H2807 H 0.2429 0.31305 0.05149 0.0
C2808 C 0.6842 0.68047 0.34364 0.0
C2809 C 0.6849 0.69126 0.34876 0.0
C2810 C 0.69396 0.6787 0.34719 0.0
C2811 C 0.72211 0.69026 0.37573 0.0
H2812 H 0.72738 0.66932 0.34498 0.0
C2813 C 0.76061 0.67937 0.38805 0.0
C2814 C 0.7558 0.66686 0.39056 0.0
C2815 C 0.75325 0.68357 0.38094 0.0
C2816 C 0.72605 0.67524 0.35361 0.0
H2817 H 0.69652 0.70881 0.36122 0.0
H2818 H 0.7138 0.70596 0.36678 0.0
H2819 H 0.71236 0.67479 0.33622 0.0
H2820 H 0.73936 0.64901 0.38695 0.0
H2821 H 0.72692 0.65635 0.37373 0.0
H2822 H 0.73602 0.69078 0.39293 0.0
C2823 C 0.70556 0.69867 0.3605 0.0
C2824 C 0.71735 0.6783 0.34872 0.0
C2825 C 0.69568 0.70035 0.35723 0.0
C2826 C 0.7436 0.65868 0.38492 0.0
C2827 C 0.73637 0.66287 0.37745 0.0
C2828 C 0.73099 0.68739 0.38042 0.0
C2829 C 0.7048 0.68776 0.35567 0.0
C2830 C 0.71501 0.68559 0.35994 0.0
C2831 C 0.74103 0.67534 0.37575 0.0
C2832 C 0.73282 0.67964 0.3696 0.0
H2833 H 0.67598 0.67323 0.33725 0.0
H2834 H 0.69282 0.67005 0.34363 0.0
H2835 H 0.72051 0.69574 0.38488 0.0
H2836 H 0.77 0.68598 0.39181 0.0
H2837 H 0.75706 0.69324 0.37962 0.0
C2838 C 0.31788 0.01123 0.33537 0.0
C2839 C 0.31113 0.00143 0.34706 0.0
C2840 C 0.32015 0.02277 0.3395 0.0
C2841 C 0.31016 0.03945 0.36768 0.0
H2842 H 0.34397 0.06587 0.36314 0.0
C2843 C 0.34383 0.09013 0.39794 0.0
C2844 C 0.33711 0.09583 0.39452 0.0
C2845 C 0.3402 0.07888 0.39043 0.0
C2846 C 0.33448 0.05859 0.36443 0.0
H2847 H 0.30111 0.996 0.37197 0.0
H2848 H 0.30508 0.01618 0.37916 0.0
H2849 H 0.33812 0.04557 0.35327 0.0
H2850 H 0.32122 0.09399 0.38035 0.0
H2851 H 0.31472 0.0741 0.36756 0.0
H2852 H 0.30662 0.05251 0.37921 0.0
C2853 C 0.30857 0.0149 0.36677 0.0
C2854 C 0.33111 0.04699 0.35865 0.0
C2855 C 0.30636 0.00336 0.3627 0.0
C2856 C 0.32657 0.08986 0.38343 0.0
C2857 C 0.32285 0.07848 0.37606 0.0
C2858 C 0.31352 0.05112 0.37331 0.0
C2859 C 0.31566 0.02478 0.35535 0.0
C2860 C 0.31895 0.03724 0.36043 0.0
C2861 C 0.32966 0.0729 0.37947 0.0
C2862 C 0.32577 0.06076 0.37202 0.0
H2863 H 0.32164 0.01006 0.32317 0.0
H2864 H 0.32552 0.03016 0.33033 0.0
H2865 H 0.30069 0.03214 0.36908 0.0
H2866 H 0.35177 0.09421 0.40681 0.0
H2867 H 0.3455 0.0747 0.39359 0.0
C2868 C 0.98917 0.29241 0.35931 0.0
C2869 C 0.99649 0.30511 0.35797 0.0
C2870 C 0.97678 0.28679 0.36371 0.0
C2871 C 0.95528 0.29267 0.38711 0.0
H2872 H 0.9311 0.26104 0.36816 0.0
C2873 C 0.91109 0.25991 0.42463 0.0
C2874 C 0.90018 0.25256 0.41485 0.0
C2875 C 0.92219 0.2672 0.41588 0.0
C2876 C 0.93767 0.26994 0.37343 0.0
H2877 H 0.9964 0.32183 0.35962 0.0
H2878 H 0.97465 0.31196 0.36723 0.0
H2879 H 0.9515 0.27228 0.35509 0.0
H2880 H 0.89238 0.24721 0.38813 0.0
H2881 H 0.9118 0.26011 0.37279 0.0
H2882 H 0.94146 0.29034 0.40546 0.0
C2883 C 0.97859 0.30638 0.36507 0.0
C2884 C 0.94941 0.27633 0.36606 0.0
C2885 C 0.99103 0.31204 0.36063 0.0
C2886 C 0.90061 0.25281 0.39605 0.0
C2887 C 0.91175 0.26012 0.38727 0.0
C2888 C 0.94353 0.2863 0.39445 0.0
C2889 C 0.97136 0.29369 0.36687 0.0
C2890 C 0.95845 0.28764 0.3731 0.0
C2891 C 0.92269 0.26737 0.3971 0.0
C2892 C 0.93468 0.27473 0.38798 0.0
H2893 H 0.99305 0.28677 0.35733 0.0
H2894 H 0.97156 0.27702 0.36526 0.0
H2895 H 0.96202 0.30132 0.39294 0.0
H2896 H 0.91106 0.2601 0.43912 0.0
H2897 H 0.93045 0.27253 0.42389 0.0
C2898 C 0.03912 0.3739 0.34113 0.0
C2899 C 0.02975 0.36489 0.35174 0.0
C2900 C 0.03922 0.38451 0.3368 0.0
C2901 C 0.01852 0.3962 0.33154 0.0
H2902 H 0.04877 0.42759 0.33075 0.0
C2903 C 0.0189 0.43955 0.31029 0.0
C2904 C 0.02846 0.44752 0.29893 0.0
C2905 C 0.01928 0.4301 0.31898 0.0
C2906 C 0.04025 0.41888 0.33076 0.0
H2907 H 0.01324 0.36011 0.36642 0.0
H2908 H 0.0134 0.37862 0.3588 0.0
H2909 H 0.04908 0.40988 0.34164 0.0
H2910 H 0.04592 0.4518 0.28783 0.0
H2911 H 0.04655 0.43535 0.30278 0.0
H2912 H 0.00973 0.40507 0.3202 0.0
C2913 C 0.02064 0.37742 0.35376 0.0
C2914 C 0.04043 0.40874 0.33703 0.0
C2915 C 0.02059 0.36685 0.3582 0.0
C2916 C 0.03852 0.44598 0.29676 0.0
C2917 C 0.03887 0.43652 0.30536 0.0
C2918 C 0.01834 0.40633 0.32517 0.0
C2919 C 0.02989 0.38633 0.34288 0.0
C2920 C 0.02959 0.39726 0.3373 0.0
C2921 C 0.0292 0.42836 0.31642 0.0
C2922 C 0.02923 0.41778 0.32449 0.0
H2923 H 0.04632 0.37269 0.33594 0.0
H2924 H 0.04641 0.39113 0.32825 0.0
H2925 H 0.01004 0.38746 0.33136 0.0
H2926 H 0.01109 0.44057 0.31238 0.0
H2927 H 0.01176 0.42411 0.32762 0.0
C2928 C 0.63186 0.6575 0.34147 0.0
C2929 C 0.62567 0.66354 0.34551 0.0
C2930 C 0.62531 0.64494 0.33876 0.0
C2931 C 0.59392 0.61972 0.32694 0.0
H2932 H 0.60782 0.59986 0.33803 0.0
C2933 C 0.56789 0.56836 0.31164 0.0
C2934 C 0.5747 0.56469 0.30166 0.0
C2935 C 0.57372 0.57978 0.31982 0.0
C2936 C 0.60383 0.60531 0.3349 0.0
H2937 H 0.6078 0.66108 0.35082 0.0
H2938 H 0.59644 0.6392 0.34673 0.0
H2939 H 0.61872 0.62107 0.34742 0.0
H2940 H 0.59309 0.57023 0.29281 0.0
H2941 H 0.60317 0.58987 0.30746 0.0
H2942 H 0.57904 0.60392 0.31442 0.0
C2943 C 0.60631 0.64415 0.34504 0.0
C2944 C 0.6101 0.61748 0.34017 0.0
C2945 C 0.61284 0.65671 0.3475 0.0
C2946 C 0.58753 0.57256 0.30067 0.0
C2947 C 0.59335 0.58388 0.30902 0.0
C2948 C 0.5876 0.60753 0.32187 0.0
C2949 C 0.61242 0.63812 0.34027 0.0
C2950 C 0.60533 0.62491 0.33599 0.0
C2951 C 0.58648 0.58771 0.31839 0.0
C2952 C 0.59258 0.60025 0.32552 0.0
H2953 H 0.64174 0.66251 0.33978 0.0
H2954 H 0.63034 0.64067 0.33488 0.0
H2955 H 0.59004 0.62516 0.32317 0.0
H2956 H 0.55804 0.56249 0.31297 0.0
H2957 H 0.56822 0.58247 0.32712 0.0
C2958 C 0.34942 0.96856 0.34239 0.0
C2959 C 0.34234 0.97393 0.33969 0.0
C2960 C 0.36193 0.97493 0.33853 0.0
C2961 C 0.3896 0.99249 0.33572 0.0
H2962 H 0.39666 0.00465 0.28707 0.0
C2963 C 0.4378 0.0135 0.30311 0.0
C2964 C 0.43752 0.00834 0.28648 0.0
C2965 C 0.42685 0.01097 0.31119 0.0
C2966 C 0.39483 0.00137 0.30073 0.0
H2967 H 0.34289 0.99033 0.33142 0.0
H2968 H 0.36484 0.00144 0.32421 0.0
H2969 H 0.37639 0.99769 0.29948 0.0
H2970 H 0.42565 0.99669 0.26512 0.0
H2971 H 0.40658 0.99233 0.27915 0.0
H2972 H 0.40796 0.99585 0.33674 0.0
C2973 C 0.36065 0.9923 0.32946 0.0
C2974 C 0.38329 0.99751 0.30788 0.0
C2975 C 0.34813 0.98598 0.33364 0.0
C2976 C 0.42612 0.00066 0.27805 0.0
C2977 C 0.41523 0.99829 0.28597 0.0
C2978 C 0.40121 0.99651 0.32864 0.0
C2979 C 0.36762 0.98676 0.33164 0.0
C2980 C 0.38045 0.99271 0.32527 0.0
C2981 C 0.41548 0.00343 0.30259 0.0
C2982 C 0.40381 0.00067 0.3109 0.0
H2983 H 0.34523 0.95931 0.34714 0.0
H2984 H 0.36703 0.97039 0.34017 0.0
H2985 H 0.38765 0.98887 0.3492 0.0
H2986 H 0.44648 0.01946 0.30987 0.0
H2987 H 0.42728 0.01504 0.32401 0.0
C2988 C 0.63501 0.96481 0.33694 0.0
C2989 C 0.64418 0.97363 0.34824 0.0
C2990 C 0.62475 0.96549 0.33197 0.0
C2991 C 0.61475 0.98729 0.32616 0.0
H2992 H 0.5819 0.95879 0.32594 0.0
C2993 C 0.57248 0.99023 0.30544 0.0
C2994 C 0.56355 0.98076 0.29471 0.0
C2995 C 0.5818 0.98921 0.31384 0.0
C2996 C 0.59102 0.96683 0.32574 0.0
H2997 H 0.6497 0.99004 0.36329 0.0
H2998 H 0.63186 0.99128 0.35446 0.0
H2999 H 0.59921 0.95722 0.33668 0.0
H3000 H 0.55741 0.96281 0.28436 0.0
H3001 H 0.57369 0.9611 0.29869 0.0
H3002 H 0.60671 0.99685 0.31472 0.0
C3003 C 0.63263 0.98385 0.34944 0.0
C3004 C 0.60093 0.96592 0.33194 0.0
C3005 C 0.64281 0.98309 0.35456 0.0
C3006 C 0.56401 0.97018 0.29281 0.0
C3007 C 0.57337 0.9692 0.30107 0.0
C3008 C 0.60487 0.98819 0.3198 0.0
C3009 C 0.62351 0.97509 0.33804 0.0
C3010 C 0.61291 0.97612 0.3321 0.0
C3011 C 0.58247 0.97874 0.31156 0.0
C3012 C 0.59288 0.97794 0.31937 0.0
H3013 H 0.63578 0.95739 0.33184 0.0
H3014 H 0.61793 0.95867 0.32303 0.0
H3015 H 0.6239 0.99529 0.32593 0.0
H3016 H 0.5723 0.99845 0.30725 0.0
H3017 H 0.58852 0.99666 0.32207 0.0
C3018 C 0.01987 0.66084 0.36025 0.0
C3019 C 0.02475 0.67114 0.34919 0.0
C3020 C 0.01893 0.65013 0.35418 0.0
C3021 C 0.01701 0.6342 0.31243 0.0
H3022 H 0.02535 0.61486 0.34257 0.0
C3023 C 0.0191 0.5942 0.28362 0.0
C3024 C 0.01421 0.5835 0.29381 0.0
C3025 C 0.02079 0.60486 0.29107 0.0
C3026 C 0.02285 0.62009 0.33405 0.0
H3027 H 0.03271 0.67834 0.32321 0.0
H3028 H 0.0311 0.65975 0.31272 0.0
H3029 H 0.02749 0.6335 0.35437 0.0
H3030 H 0.00759 0.5758 0.32009 0.0
H3031 H 0.01028 0.59438 0.33299 0.0
H3032 H 0.01225 0.62082 0.29218 0.0
C3033 C 0.02786 0.65988 0.326 0.0
C3034 C 0.02409 0.63077 0.34081 0.0
C3035 C 0.02885 0.67057 0.33207 0.0
C3036 C 0.01127 0.58383 0.31179 0.0
C3037 C 0.01293 0.59453 0.31925 0.0
C3038 C 0.01573 0.62353 0.30571 0.0
C3039 C 0.02279 0.6495 0.3369 0.0
C3040 C 0.02128 0.638 0.33001 0.0
C3041 C 0.01756 0.60513 0.30889 0.0
C3042 C 0.01873 0.61637 0.31636 0.0
H3043 H 0.01663 0.66097 0.37352 0.0
H3044 H 0.0149 0.64227 0.36286 0.0
H3045 H 0.01452 0.63942 0.30387 0.0
H3046 H 0.0213 0.59429 0.26966 0.0
H3047 H 0.02458 0.6129 0.28276 0.0
C3048 C 0.34371 0.37878 0.33818 0.0
C3049 C 0.33699 0.36606 0.3371 0.0
C3050 C 0.35628 0.38538 0.33478 0.0
C3051 C 0.38401 0.38319 0.33004 0.0
H3052 H 0.39486 0.41172 0.30046 0.0
C3053 C 0.43094 0.40853 0.29384 0.0
C3054 C 0.43685 0.42122 0.29234 0.0
C3055 C 0.41934 0.40182 0.3016 0.0
C3056 C 0.39206 0.4039 0.30897 0.0
H3057 H 0.33834 0.35024 0.33221 0.0
H3058 H 0.36037 0.36183 0.32593 0.0
H3059 H 0.37354 0.39984 0.30948 0.0
H3060 H 0.43559 0.43687 0.2989 0.0
H3061 H 0.4154 0.42518 0.31255 0.0
H3062 H 0.40261 0.38722 0.32918 0.0
C3063 C 0.35588 0.36668 0.32961 0.0
C3064 C 0.3798 0.39707 0.31414 0.0
C3065 C 0.34325 0.36004 0.33314 0.0
C3066 C 0.43118 0.42709 0.29958 0.0
C3067 C 0.41961 0.42039 0.30737 0.0
C3068 C 0.39632 0.39004 0.32482 0.0
C3069 C 0.36248 0.37944 0.33006 0.0
C3070 C 0.37561 0.38664 0.32478 0.0
C3071 C 0.4134 0.40766 0.30804 0.0
C3072 C 0.40048 0.40049 0.31424 0.0
H3073 H 0.33923 0.38371 0.34144 0.0
H3074 H 0.36113 0.39518 0.33565 0.0
H3075 H 0.3811 0.37526 0.33836 0.0
H3076 H 0.435 0.40372 0.28821 0.0
H3077 H 0.41478 0.39202 0.30178 0.0
C3078 C 0.31584 0.30446 0.33416 0.0
C3079 C 0.30754 0.30654 0.34335 0.0
C3080 C 0.31796 0.29532 0.33974 0.0
C3081 C 0.31617 0.27796 0.38008 0.0
H3082 H 0.32219 0.25859 0.34711 0.0
C3083 C 0.3387 0.25149 0.40347 0.0
C3084 C 0.33384 0.23963 0.39699 0.0
C3085 C 0.33494 0.25904 0.39616 0.0
C3086 C 0.32043 0.26386 0.35649 0.0
H3087 H 0.29459 0.3003 0.36518 0.0
H3088 H 0.29819 0.28431 0.37478 0.0
H3089 H 0.31596 0.2724 0.33552 0.0
H3090 H 0.32134 0.22651 0.37745 0.0
H3091 H 0.31466 0.23972 0.36473 0.0
H3092 H 0.32055 0.26942 0.40104 0.0
C3093 C 0.30323 0.28987 0.36344 0.0
C3094 C 0.31698 0.27185 0.34984 0.0
C3095 C 0.30111 0.29901 0.35787 0.0
C3096 C 0.32521 0.23557 0.38281 0.0
C3097 C 0.32146 0.24317 0.37544 0.0
C3098 C 0.31964 0.27002 0.3867 0.0
C3099 C 0.31183 0.28805 0.35464 0.0
C3100 C 0.31489 0.27907 0.36157 0.0
C3101 C 0.32619 0.25495 0.38218 0.0
C3102 C 0.32194 0.26296 0.375 0.0
H3103 H 0.32095 0.31009 0.32292 0.0
H3104 H 0.32473 0.29425 0.33276 0.0
H3105 H 0.31477 0.28347 0.3895 0.0
H3106 H 0.34521 0.25488 0.41455 0.0
H3107 H 0.3389 0.26812 0.4015 0.0
C3108 C 0.70046 0.0111 0.35063 0.0
C3109 C 0.70419 0.00397 0.35976 0.0
C3110 C 0.70737 0.02379 0.35221 0.0
C3111 C 0.7386 0.04859 0.36681 0.0
H3112 H 0.72376 0.06824 0.36757 0.0
C3113 C 0.76922 0.09893 0.38131 0.0
C3114 C 0.7646 0.10421 0.39283 0.0
C3115 C 0.76137 0.08786 0.37289 0.0
C3116 C 0.72807 0.0629 0.36754 0.0
H3117 H 0.71757 0.00441 0.37849 0.0
H3118 H 0.72913 0.02622 0.38195 0.0
H3119 H 0.71083 0.04642 0.36294 0.0
H3120 H 0.74759 0.1023 0.40234 0.0
H3121 H 0.73418 0.08253 0.38936 0.0
H3122 H 0.7556 0.0646 0.37284 0.0
C3123 C 0.72131 0.02224 0.37285 0.0
C3124 C 0.72065 0.05037 0.36461 0.0
C3125 C 0.71461 0.00968 0.37099 0.0
C3126 C 0.75172 0.09841 0.39438 0.0
C3127 C 0.7439 0.08707 0.38651 0.0
C3128 C 0.74594 0.06098 0.37012 0.0
C3129 C 0.718 0.02953 0.36318 0.0
C3130 C 0.7258 0.04301 0.36461 0.0
C3131 C 0.74867 0.08138 0.37625 0.0
C3132 C 0.74081 0.06836 0.37078 0.0
H3133 H 0.69245 0.00692 0.34189 0.0
H3134 H 0.70453 0.02909 0.34453 0.0
H3135 H 0.74301 0.04333 0.36637 0.0
H3136 H 0.77897 0.10286 0.37946 0.0
H3137 H 0.76542 0.08414 0.3644 0.0
C3138 C 0.98544 0.68662 0.36095 0.0
C3139 C 0.99194 0.69927 0.35865 0.0
C3140 C 0.97273 0.68023 0.36384 0.0
C3141 C 0.94508 0.68274 0.35922 0.0
H3142 H 0.93271 0.66013 0.39889 0.0
C3143 C 0.89944 0.66866 0.39408 0.0
C3144 C 0.89229 0.65677 0.40066 0.0
C3145 C 0.91091 0.67266 0.38653 0.0
C3146 C 0.93593 0.66624 0.38755 0.0
H3147 H 0.9901 0.71507 0.35711 0.0
H3148 H 0.96811 0.70399 0.36217 0.0
H3149 H 0.95403 0.66906 0.38988 0.0
H3150 H 0.89155 0.63968 0.40408 0.0
H3151 H 0.91141 0.64658 0.39054 0.0
H3152 H 0.92706 0.6801 0.35709 0.0
C3153 C 0.97276 0.69896 0.36163 0.0
C3154 C 0.94817 0.67136 0.38239 0.0
C3155 C 0.98541 0.70533 0.35888 0.0
C3156 C 0.89673 0.64886 0.39898 0.0
C3157 C 0.9082 0.65286 0.39142 0.0
C3158 C 0.93284 0.6776 0.36434 0.0
C3159 C 0.96627 0.68636 0.36431 0.0
C3160 C 0.95295 0.67986 0.36841 0.0
C3161 C 0.91552 0.66487 0.38537 0.0
C3162 C 0.92818 0.66947 0.3788 0.0
H3163 H 0.99019 0.68168 0.36082 0.0
H3164 H 0.96796 0.6705 0.36575 0.0
H3165 H 0.94843 0.68911 0.34819 0.0
H3166 H 0.89624 0.67494 0.395 0.0
H3167 H 0.91635 0.68201 0.38216 0.0
C3168 C 0.35689 0.01774 0.6722 0.0
C3169 C 0.35811 0.02874 0.67752 0.0
C3170 C 0.36579 0.01498 0.67708 0.0
C3171 C 0.3977 0.02728 0.69045 0.0
H3172 H 0.38525 0.99725 0.71686 0.0
C3173 C 0.42981 0.01408 0.72663 0.0
C3174 C 0.42567 0.00169 0.72882 0.0
C3175 C 0.42218 0.01774 0.71887 0.0
C3176 C 0.38893 0.00554 0.70917 0.0
H3177 H 0.36988 0.04571 0.69145 0.0
H3178 H 0.38565 0.04095 0.69963 0.0
H3179 H 0.37105 0.00307 0.70565 0.0
H3180 H 0.41021 0.98347 0.72361 0.0
H3181 H 0.39747 0.98981 0.70899 0.0
H3182 H 0.41556 0.02963 0.69347 0.0
C3183 C 0.37771 0.03446 0.69182 0.0
C3184 C 0.38075 0.0089 0.70288 0.0
C3185 C 0.36868 0.03714 0.68721 0.0
C3186 C 0.41392 0.9931 0.72207 0.0
C3187 C 0.40642 0.99676 0.71398 0.0
C3188 C 0.4059 0.0238 0.69645 0.0
C3189 C 0.37621 0.02325 0.6871 0.0
C3190 C 0.38504 0.0198 0.6935 0.0
C3191 C 0.41026 0.00912 0.71276 0.0
C3192 C 0.40162 0.01286 0.70592 0.0
H3193 H 0.34886 0.01106 0.66475 0.0
H3194 H 0.36447 0.0063 0.67321 0.0
H3195 H 0.40121 0.03571 0.68317 0.0
H3196 H 0.43888 0.02102 0.73124 0.0
H3197 H 0.42551 0.02735 0.71825 0.0
C3198 C 0.979 0.34075 0.69513 0.0
C3199 C 0.96706 0.33078 0.69216 0.0
C3200 C 0.98087 0.35206 0.69982 0.0
C3201 C 0.96533 0.36664 0.71942 0.0
H3202 H 0.99238 0.39583 0.69867 0.0
C3203 C 0.97339 0.41409 0.73471 0.0
C3204 C 0.98561 0.42332 0.73831 0.0
C3205 C 0.97073 0.40297 0.72763 0.0
C3206 C 0.98484 0.38778 0.70469 0.0
H3207 H 0.9477 0.32492 0.69184 0.0
H3208 H 0.95099 0.34469 0.69998 0.0
H3209 H 0.98848 0.37604 0.68941 0.0
H3210 H 0.00462 0.42805 0.73716 0.0
H3211 H 1.0 0.40871 0.72483 0.0
H3212 H 0.96179 0.37837 0.73489 0.0
C3213 C 0.9589 0.34371 0.69881 0.0
C3214 C 0.98261 0.37643 0.69939 0.0
C3215 C 0.95702 0.33239 0.69407 0.0
C3216 C 0.99512 0.42124 0.73426 0.0
C3217 C 0.99247 0.41013 0.7272 0.0
C3218 C 0.96757 0.37799 0.72475 0.0
C3219 C 0.97085 0.35368 0.7017 0.0
C3220 C 0.9729 0.36573 0.70681 0.0
C3221 C 0.98023 0.40079 0.724 0.0
C3222 C 0.97743 0.38871 0.71757 0.0
H3223 H 0.98695 0.33983 0.69382 0.0
H3224 H 0.99019 0.3595 0.70221 0.0
H3225 H 0.95787 0.35859 0.72556 0.0
H3226 H 0.96586 0.41545 0.73747 0.0
H3227 H 0.96122 0.39605 0.72505 0.0
C3228 C 0.65804 0.62501 0.69474 0.0
C3229 C 0.66592 0.63765 0.69616 0.0
C3230 C 0.64555 0.61955 0.6984 0.0
C3231 C 0.62445 0.62349 0.72541 0.0
H3232 H 0.59924 0.59764 0.69596 0.0
C3233 C 0.57382 0.59767 0.74682 0.0
C3234 C 0.5672 0.58501 0.74443 0.0
C3235 C 0.58521 0.60495 0.73873 0.0
C3236 C 0.60617 0.60477 0.70442 0.0
H3237 H 0.66682 0.6545 0.70225 0.0
H3238 H 0.64492 0.64486 0.70904 0.0
H3239 H 0.62049 0.60888 0.68582 0.0
H3240 H 0.56721 0.5702 0.73089 0.0
H3241 H 0.58727 0.58279 0.71749 0.0
H3242 H 0.61037 0.61909 0.74442 0.0
C3243 C 0.64848 0.63924 0.70498 0.0
C3244 C 0.61832 0.61124 0.69855 0.0
C3245 C 0.66098 0.64474 0.70104 0.0
C3246 C 0.57212 0.57988 0.73329 0.0
C3247 C 0.58358 0.58715 0.72536 0.0
C3248 C 0.61234 0.61693 0.73139 0.0
C3249 C 0.64066 0.62658 0.70379 0.0
C3250 C 0.6276 0.62055 0.7091 0.0
C3251 C 0.59037 0.59977 0.7282 0.0
C3252 C 0.60305 0.60737 0.72109 0.0
H3253 H 0.66155 0.61929 0.69092 0.0
H3254 H 0.63978 0.60977 0.69756 0.0
H3255 H 0.63145 0.63052 0.73392 0.0
H3256 H 0.57045 0.60198 0.75546 0.0
H3257 H 0.59005 0.61465 0.74098 0.0
C3258 C 0.6917 0.6991 0.69804 0.0
C3259 C 0.699 0.69638 0.68746 0.0
C3260 C 0.69015 0.70877 0.69358 0.0
C3261 C 0.7032 0.73706 0.66714 0.0
H3262 H 0.6698 0.73041 0.6673 0.0
C3263 C 0.68878 0.76766 0.63115 0.0
C3264 C 0.67927 0.76874 0.63842 0.0
C3265 C 0.69212 0.75986 0.63887 0.0
C3266 C 0.67922 0.73254 0.66748 0.0
H3267 H 0.71071 0.70194 0.66419 0.0
H3268 H 0.70801 0.71883 0.65643 0.0
H3269 H 0.67395 0.71494 0.67755 0.0
H3270 H 0.66628 0.763 0.66008 0.0
H3271 H 0.67225 0.74958 0.67382 0.0
H3272 H 0.70847 0.75465 0.657 0.0
C3273 C 0.70352 0.7135 0.66822 0.0
C3274 C 0.6816 0.72363 0.67333 0.0
C3275 C 0.70501 0.70377 0.67262 0.0
C3276 C 0.67353 0.76224 0.65405 0.0
C3277 C 0.67693 0.75451 0.66185 0.0
C3278 C 0.70084 0.74601 0.66139 0.0
C3279 C 0.69592 0.71599 0.6785 0.0
C3280 C 0.69359 0.72574 0.67308 0.0
C3281 C 0.68607 0.753 0.65414 0.0
C3282 C 0.6888 0.74382 0.66133 0.0
H3283 H 0.68697 0.69362 0.7096 0.0
H3284 H 0.68437 0.71055 0.7019 0.0
H3285 H 0.71257 0.73901 0.667 0.0
H3286 H 0.69326 0.77241 0.61897 0.0
H3287 H 0.69908 0.75884 0.6324 0.0
C3288 C 0.28678 0.99551 0.67403 0.0
C3289 C 0.29971 0.0023 0.67455 0.0
C3290 C 0.28043 0.98297 0.67129 0.0
C3291 C 0.28415 0.95934 0.65101 0.0
H3292 H 0.25424 0.93728 0.6763 0.0
C3293 C 0.25788 0.90821 0.63631 0.0
C3294 C 0.245 0.90235 0.63469 0.0
C3295 C 0.26477 0.91987 0.64353 0.0
C3296 C 0.26252 0.94333 0.66902 0.0
H3297 H 0.31609 0.00116 0.67301 0.0
H3298 H 0.30497 0.97927 0.66815 0.0
H3299 H 0.26594 0.95872 0.68451 0.0
H3300 H 0.22927 0.90401 0.64032 0.0
H3301 H 0.24132 0.9245 0.65238 0.0
H3302 H 0.28062 0.94412 0.63517 0.0
C3303 C 0.29977 0.98368 0.66976 0.0
C3304 C 0.26924 0.95561 0.67375 0.0
C3305 C 0.30614 0.99622 0.67262 0.0
C3306 C 0.23918 0.9083 0.64112 0.0
C3307 C 0.24609 0.92001 0.64825 0.0
C3308 C 0.27742 0.9471 0.64622 0.0
C3309 C 0.28685 0.97694 0.6689 0.0
C3310 C 0.28008 0.96377 0.6647 0.0
C3311 C 0.259 0.92604 0.64919 0.0
C3312 C 0.26646 0.93894 0.65507 0.0
H3313 H 0.28154 0.99989 0.6755 0.0
H3314 H 0.27048 0.97806 0.67051 0.0
H3315 H 0.29235 0.96542 0.64358 0.0
H3316 H 0.26274 0.90402 0.63132 0.0
H3317 H 0.27467 0.92413 0.64434 0.0
C3318 C 0.01722 0.32135 0.67037 0.0
C3319 C 0.01003 0.30916 0.66494 0.0
C3320 C 0.03003 0.32771 0.66863 0.0
C3321 C 0.05602 0.32278 0.66201 0.0
H3322 H 0.07297 0.35569 0.64382 0.0
C3323 C 0.10247 0.35593 0.62068 0.0
C3324 C 0.11055 0.35296 0.62896 0.0
C3325 C 0.09111 0.35233 0.62826 0.0
C3326 C 0.06838 0.3465 0.6489 0.0
H3327 H 0.01069 0.29415 0.65328 0.0
H3328 H 0.03282 0.30523 0.64995 0.0
H3329 H 0.05111 0.34554 0.65044 0.0
H3330 H 0.11345 0.34467 0.6523 0.0
H3331 H 0.09371 0.33862 0.66582 0.0
H3332 H 0.07302 0.32342 0.65953 0.0
C3333 C 0.02867 0.30984 0.65593 0.0
C3334 C 0.05587 0.34073 0.65289 0.0
C3335 C 0.01592 0.3035 0.65772 0.0
C3336 C 0.10733 0.34695 0.64552 0.0
C3337 C 0.09601 0.34344 0.6532 0.0
C3338 C 0.06848 0.32851 0.65792 0.0
C3339 C 0.0359 0.32201 0.66141 0.0
C3340 C 0.04947 0.32868 0.65908 0.0
C3341 C 0.08758 0.34576 0.64439 0.0
C3342 C 0.07478 0.34035 0.65094 0.0
H3343 H 0.01297 0.32597 0.67604 0.0
H3344 H 0.03533 0.33704 0.6731 0.0
H3345 H 0.05145 0.31359 0.66709 0.0
H3346 H 0.10461 0.3604 0.60778 0.0
H3347 H 0.08484 0.35414 0.62093 0.0
C3348 C 0.30329 0.30175 0.6616 0.0
C3349 C 0.3071 0.30249 0.67952 0.0
C3350 C 0.29292 0.30234 0.6572 0.0
C3351 C 0.27257 0.3124 0.67476 0.0
H3352 H 0.25207 0.29368 0.63453 0.0
C3353 C 0.23809 0.32256 0.6395 0.0
C3354 C 0.22748 0.31295 0.63133 0.0
C3355 C 0.24687 0.32059 0.64765 0.0
C3356 C 0.25754 0.29884 0.64599 0.0
H3357 H 0.30287 0.30424 0.70693 0.0
H3358 H 0.28456 0.30499 0.69929 0.0
H3359 H 0.2688 0.29111 0.64438 0.0
H3360 H 0.21763 0.29355 0.62622 0.0
H3361 H 0.23251 0.29005 0.64118 0.0
H3362 H 0.26109 0.31994 0.67658 0.0
C3363 C 0.28975 0.30419 0.68859 0.0
C3364 C 0.2673 0.29751 0.65147 0.0
C3365 C 0.3002 0.30368 0.69298 0.0
C3366 C 0.22558 0.3012 0.63247 0.0
C3367 C 0.23426 0.29921 0.64081 0.0
C3368 C 0.26272 0.31367 0.66937 0.0
C3369 C 0.286 0.30358 0.67062 0.0
C3370 C 0.27507 0.30441 0.66572 0.0
C3371 C 0.2452 0.30893 0.64802 0.0
C3372 C 0.25516 0.30702 0.65475 0.0
H3373 H 0.30843 0.30092 0.65086 0.0
H3374 H 0.29049 0.30208 0.6432 0.0
H3375 H 0.27841 0.31794 0.68571 0.0
H3376 H 0.23979 0.3317 0.63922 0.0
H3377 H 0.25519 0.32833 0.65298 0.0
C3378 C 0.68088 0.99035 0.68639 0.0
C3379 C 0.68826 0.00105 0.67661 0.0
C3380 C 0.67986 0.97942 0.68132 0.0
C3381 C 0.68282 0.96446 0.64171 0.0
H3382 H 0.68459 0.94241 0.67539 0.0
C3383 C 0.68785 0.92535 0.61738 0.0
C3384 C 0.68127 0.91403 0.626 0.0
C3385 C 0.6884 0.93557 0.62453 0.0
C3386 C 0.68391 0.94839 0.66584 0.0
H3387 H 0.70064 0.00869 0.65415 0.0
H3388 H 0.69885 0.98972 0.64537 0.0
H3389 H 0.68618 0.96104 0.68628 0.0
H3390 H 0.67021 0.90472 0.64916 0.0
H3391 H 0.67095 0.92262 0.6615 0.0
H3392 H 0.68046 0.95191 0.62129 0.0
C3393 C 0.69374 0.98973 0.65683 0.0
C3394 C 0.68484 0.95907 0.67209 0.0
C3395 C 0.69482 0.00063 0.66194 0.0
C3396 C 0.6753 0.91326 0.6421 0.0
C3397 C 0.67582 0.92355 0.64926 0.0
C3398 C 0.68182 0.95381 0.6355 0.0
C3399 C 0.68612 0.97897 0.66629 0.0
C3400 C 0.68451 0.96731 0.66003 0.0
C3401 C 0.68228 0.9348 0.64044 0.0
C3402 C 0.68256 0.94573 0.64743 0.0
H3403 H 0.67572 0.99036 0.69778 0.0
H3404 H 0.67388 0.97127 0.68883 0.0
H3405 H 0.68223 0.97048 0.63212 0.0
H3406 H 0.69238 0.9263 0.6048 0.0
H3407 H 0.69364 0.94411 0.61751 0.0
C3408 C 0.01039 0.71567 0.66847 0.0
C3409 C 0.00328 0.70296 0.66737 0.0
C3410 C 0.02287 0.7219 0.66454 0.0
C3411 C 0.04555 0.73282 0.64221 0.0
H3412 H 0.06808 0.72206 0.65435 0.0
C3413 C 0.09215 0.75329 0.60817 0.0
C3414 C 0.10248 0.75606 0.6188 0.0
C3415 C 0.08034 0.7465 0.61507 0.0
C3416 C 0.06191 0.72523 0.651 0.0
H3417 H 0.00383 0.68676 0.66203 0.0
H3418 H 0.02572 0.69772 0.65471 0.0
H3419 H 0.04702 0.71082 0.66559 0.0
H3420 H 0.10847 0.75364 0.64496 0.0
H3421 H 0.0877 0.7418 0.65716 0.0
H3422 H 0.06035 0.74728 0.62788 0.0
C3423 C 0.02161 0.70284 0.65885 0.0
C3424 C 0.04983 0.71872 0.65728 0.0
C3425 C 0.00907 0.69656 0.66297 0.0
C3426 C 0.10069 0.75165 0.63644 0.0
C3427 C 0.0888 0.74484 0.6434 0.0
C3428 C 0.05756 0.73929 0.63599 0.0
C3429 C 0.02858 0.7156 0.65919 0.0
C3430 C 0.0415 0.72245 0.65293 0.0
C3431 C 0.07851 0.7423 0.63281 0.0
C3432 C 0.06587 0.73554 0.64016 0.0
H3433 H 0.00627 0.72087 0.67212 0.0
H3434 H 0.02802 0.73171 0.66539 0.0
H3435 H 0.03935 0.73586 0.63836 0.0
H3436 H 0.09318 0.75626 0.59437 0.0
H3437 H 0.0726 0.74446 0.60641 0.0
C3438 C 0.96082 0.63437 0.69164 0.0
C3439 C 0.97034 0.64288 0.68072 0.0
C3440 C 0.96039 0.62375 0.69699 0.0
C3441 C 0.9729 0.60402 0.68672 0.0
H3442 H 0.96287 0.59276 0.73526 0.0
C3443 C 0.97928 0.56707 0.72129 0.0
C3444 C 0.96955 0.55853 0.73194 0.0
C3445 C 0.97901 0.57692 0.71384 0.0
C3446 C 0.96557 0.5957 0.7216 0.0
H3447 H 0.98685 0.64686 0.66675 0.0
H3448 H 0.98626 0.62849 0.67639 0.0
H3449 H 0.96315 0.61078 0.72475 0.0
H3450 H 0.95186 0.55361 0.74292 0.0
H3451 H 0.95134 0.57065 0.72978 0.0
H3452 H 0.97554 0.589 0.68381 0.0
C3453 C 0.97897 0.62988 0.68056 0.0
C3454 C 0.9657 0.60603 0.71554 0.0
C3455 C 0.97935 0.64047 0.67512 0.0
C3456 C 0.95944 0.55991 0.7346 0.0
C3457 C 0.9592 0.56978 0.72726 0.0
C3458 C 0.97284 0.59371 0.69285 0.0
C3459 C 0.96953 0.62141 0.69167 0.0
C3460 C 0.96934 0.61033 0.698 0.0
C3461 C 0.96906 0.57849 0.71702 0.0
C3462 C 0.96913 0.58941 0.71034 0.0
H3463 H 0.95367 0.6359 0.6961 0.0
H3464 H 0.95284 0.61734 0.70526 0.0
H3465 H 0.9756 0.60695 0.67307 0.0
H3466 H 0.98717 0.56622 0.71892 0.0
H3467 H 0.98677 0.58351 0.70606 0.0
C3468 C 0.38182 0.34845 0.67749 0.0
C3469 C 0.36944 0.34047 0.68192 0.0
C3470 C 0.38749 0.36085 0.68098 0.0
C3471 C 0.38694 0.38133 0.71278 0.0
H3472 H 0.40867 0.40651 0.67977 0.0
C3473 C 0.41786 0.43025 0.73753 0.0
C3474 C 0.43007 0.43641 0.73151 0.0
C3475 C 0.40881 0.41965 0.72905 0.0
C3476 C 0.40271 0.3996 0.68922 0.0
H3477 H 0.3532 0.33926 0.69303 0.0
H3478 H 0.36328 0.361 0.69962 0.0
H3479 H 0.39586 0.38563 0.66926 0.0
H3480 H 0.44201 0.43666 0.71086 0.0
H3481 H 0.4265 0.41789 0.6968 0.0
H3482 H 0.39426 0.39494 0.73304 0.0
C3483 C 0.3685 0.35761 0.69327 0.0
C3484 C 0.39532 0.38766 0.68313 0.0
C3485 C 0.36275 0.3452 0.68945 0.0
C3486 C 0.4328 0.43203 0.71616 0.0
C3487 C 0.42379 0.42132 0.70788 0.0
C3488 C 0.39446 0.39321 0.71894 0.0
C3489 C 0.38097 0.36551 0.68924 0.0
C3490 C 0.38753 0.37838 0.69494 0.0
C3491 C 0.41174 0.41478 0.71452 0.0
C3492 C 0.40265 0.40248 0.70734 0.0
H3493 H 0.3872 0.34509 0.67159 0.0
H3494 H 0.39713 0.36672 0.67789 0.0
H3495 H 0.38112 0.37431 0.72222 0.0
H3496 H 0.41535 0.43323 0.74935 0.0
H3497 H 0.39958 0.41507 0.7343 0.0
C3498 C 0.65203 0.01991 0.68741 0.0
C3499 C 0.65823 0.0315 0.67961 0.0
C3500 C 0.63961 0.01442 0.69192 0.0
C3501 C 0.61655 0.02277 0.70205 0.0
H3502 H 0.59348 0.98807 0.6999 0.0
C3503 C 0.56584 0.00175 0.72176 0.0
C3504 C 0.56121 0.99177 0.73342 0.0
C3505 C 0.57703 0.006 0.71312 0.0
C3506 C 0.59984 0.99778 0.70061 0.0
H3507 H 0.65608 0.04609 0.66941 0.0
H3508 H 0.63446 0.03642 0.67676 0.0
H3509 H 0.61424 0.99649 0.68839 0.0
H3510 H 0.56478 0.97838 0.74497 0.0
H3511 H 0.58414 0.98569 0.72974 0.0
H3512 H 0.60221 0.02406 0.71434 0.0
C3513 C 0.63923 0.0317 0.67997 0.0
C3514 C 0.61174 0.0026 0.69408 0.0
C3515 C 0.65162 0.03722 0.67565 0.0
C3516 C 0.5679 0.98594 0.73583 0.0
C3517 C 0.57904 0.99014 0.72712 0.0
C3518 C 0.60465 0.01796 0.70846 0.0
C3519 C 0.63312 0.02037 0.68857 0.0
C3520 C 0.62028 0.01516 0.69482 0.0
C3521 C 0.58383 1.00033 0.71588 0.0
C3522 C 0.59619 0.00541 0.70795 0.0
H3523 H 0.65688 0.01529 0.69066 0.0
H3524 H 0.63524 0.00573 0.69865 0.0
H3525 H 0.62292 0.03245 0.70322 0.0
H3526 H 0.56085 0.00635 0.71938 0.0
H3527 H 0.58041 0.01379 0.70435 0.0
loop_
_geom_bond_atom_site_label_1
_geom_bond_atom_site_label_2
_geom_bond_distance
_geom_bond_site_symmetry_2
_ccdc_geom_bond_type
Zn0 O3 2.060 . S
Zn0 O5 2.049 . S
Zn0 O10 2.043 1_554 S
Zn1 O2 1.962 1_455 S
Zn1 O4 1.986 . S
Zn1 O6 1.996 1_455 S
Zn1 O9 1.991 . S
O2 Zn1 1.962 1_655 S
O2 C7 1.254 . S
O3 Zn0 2.060 . S
O3 C7 1.287 . S
O4 Zn1 1.986 . S
O4 C11 1.262 . S
O5 Zn0 2.049 . S
O5 C13 1.260 . S
O6 Zn1 1.996 1_655 S
O6 C13 1.257 . S
C7 O2 1.254 . S
C7 O3 1.287 . S
C8 O9 1.221 1_556 S
C8 O10 1.287 1_455 S
O9 Zn1 1.991 . S
O9 C8 1.221 1_554 S
O10 Zn0 2.043 1_556 S
O10 C8 1.287 1_655 S
C11 O4 1.262 . S
C11 O12 1.232 . S
O12 C11 1.232 . S
C13 O5 1.260 . S
C13 O6 1.257 . S
Zn14 O17 2.031 . S
Zn14 O19 2.049 . S
Zn14 O24 2.058 1_554 S
Zn15 O16 1.962 . S
Zn15 O18 1.986 . S
Zn15 O20 1.996 . S
Zn15 O23 1.943 . S
O16 Zn15 1.962 . S
O16 C21 1.254 . S
O17 Zn14 2.031 . S
O17 C21 1.269 . S
O18 Zn15 1.986 . S
O18 C25 1.262 . S
O19 Zn14 2.049 . S
O19 C27 1.260 . S
O20 Zn15 1.996 . S
O20 C27 1.257 . S
C21 O16 1.254 . S
C21 O17 1.269 . S
C22 O23 1.249 1_556 S
C22 O24 1.276 . S
O23 Zn15 1.943 . S
O23 C22 1.249 1_554 S
O24 Zn14 2.058 1_556 S
O24 C22 1.276 . S
C25 O18 1.262 . S
C25 O26 1.232 . S
O26 C25 1.232 . S
C27 O19 1.260 . S
C27 O20 1.257 . S
Zn28 O31 2.031 . S
Zn28 O33 2.049 1_554 S
Zn28 O38 2.067 . S
Zn29 O30 1.962 1_545 S
Zn29 O32 1.986 1_554 S
Zn29 O34 1.996 1_544 S
Zn29 O37 1.943 . S
O30 Zn29 1.962 1_565 S
O30 C35 1.254 . S
O31 Zn28 2.031 . S
O31 C35 1.269 . S
O32 Zn29 1.986 1_556 S
O32 C39 1.262 1_556 S
O33 Zn28 2.049 1_556 S
O33 C41 1.260 . S
O34 Zn29 1.996 1_566 S
O34 C41 1.257 . S
C35 O30 1.254 . S
C35 O31 1.269 . S
C36 O37 1.249 . S
C36 O38 1.270 1_545 S
O37 Zn29 1.943 . S
O37 C36 1.249 . S
O38 Zn28 2.067 . S
O38 C36 1.270 1_565 S
C39 O32 1.262 1_554 S
C39 O40 1.232 . S
O40 C39 1.232 . S
C41 O33 1.260 . S
C41 O34 1.257 . S
Zn42 O45 2.031 . S
Zn42 O47 2.049 1_554 S
Zn42 O52 2.067 . S
Zn43 O44 1.962 1_655 S
Zn43 O46 1.986 1_554 S
Zn43 O48 1.996 1_654 S
Zn43 O51 1.943 . S
O44 Zn43 1.962 1_455 S
O44 C49 1.254 . S
O45 Zn42 2.031 . S
O45 C49 1.269 . S
O46 Zn43 1.986 1_556 S
O46 C53 1.262 1_556 S
O47 Zn42 2.049 1_556 S
O47 C55 1.260 . S
O48 Zn43 1.996 1_456 S
O48 C55 1.257 . S
C49 O44 1.254 . S
C49 O45 1.269 . S
C50 O51 1.332 . S
C50 O52 1.175 1_655 S
O51 Zn43 1.943 . S
O51 C50 1.332 . S
O52 Zn42 2.067 . S
O52 C50 1.175 1_455 S
C53 O46 1.262 1_554 S
C53 O54 1.232 . S
O54 C53 1.232 . S
C55 O47 1.260 . S
C55 O48 1.257 . S
Zn56 O59 2.031 . S
Zn56 O61 2.049 1_554 S
Zn56 O66 2.067 . S
Zn57 O58 1.962 . S
Zn57 O60 1.986 1_554 S
Zn57 O62 1.996 1_554 S
Zn57 O65 1.943 . S
O58 Zn57 1.962 . S
O58 C63 1.254 . S
O59 Zn56 2.031 . S
O59 C63 1.269 . S
O60 Zn57 1.986 1_556 S
O60 C67 1.262 1_556 S
O61 Zn56 2.049 1_556 S
O61 C69 1.260 . S
O62 Zn57 1.996 1_556 S
O62 C69 1.257 . S
C63 O58 1.254 . S
C63 O59 1.269 . S
C64 O65 1.249 . S
C64 O66 1.270 . S
O65 Zn57 1.943 . S
O65 C64 1.249 . S
O66 Zn56 2.067 . S
O66 C64 1.270 . S
C67 O60 1.262 1_554 S
C67 O68 1.232 . S
O68 C67 1.232 . S
C69 O61 1.260 . S
C69 O62 1.257 . S
Zn70 O73 2.031 . S
Zn70 O75 2.049 . S
Zn70 O80 2.067 . S
Zn71 O72 1.962 1_565 S
Zn71 O74 1.986 . S
Zn71 O76 1.996 1_565 S
Zn71 O79 1.943 . S
O72 Zn71 1.962 1_545 S
O72 C77 1.254 . S
O73 Zn70 2.031 . S
O73 C77 1.269 . S
O74 Zn71 1.986 . S
O74 C81 1.262 . S
O75 Zn70 2.049 . S
O75 C83 1.260 . S
O76 Zn71 1.996 1_545 S
O76 C83 1.257 . S
C77 O72 1.254 . S
C77 O73 1.269 . S
C78 O79 1.249 1_556 S
C78 O80 1.270 1_566 S
O79 Zn71 1.943 . S
O79 C78 1.249 1_554 S
O80 Zn70 2.067 . S
O80 C78 1.270 1_544 S
C81 O74 1.262 . S
C81 O82 1.232 . S
O82 C81 1.232 . S
C83 O75 1.260 . S
C83 O76 1.257 . S
Zn84 O87 2.031 . S
Zn84 O89 2.049 . S
Zn84 O94 2.067 . S
Zn85 O86 1.962 . S
Zn85 O88 1.986 . S
Zn85 O90 1.996 . S
Zn85 O93 1.943 . S
O86 Zn85 1.962 . S
O86 C91 1.254 . S
O87 Zn84 2.031 . S
O87 C91 1.269 . S
O88 Zn85 1.986 . S
O88 C95 1.262 . S
O89 Zn84 2.049 . S
O89 C97 1.260 . S
O90 Zn85 1.996 . S
O90 C97 1.257 . S
C91 O86 1.254 . S
C91 O87 1.269 . S
C92 O93 1.249 . S
C92 O94 1.270 . S
O93 Zn85 1.943 . S
O93 C92 1.249 . S
O94 Zn84 2.067 . S
O94 C92 1.270 . S
C95 O88 1.262 . S
C95 O96 1.232 . S
O96 C95 1.232 . S
C97 O89 1.260 . S
C97 O90 1.257 . S
Zn98 O101 2.031 . S
Zn98 O103 2.049 . S
Zn98 O108 2.067 . S
Zn99 O100 1.962 . S
Zn99 O102 1.986 . S
Zn99 O104 1.996 . S
Zn99 O107 1.943 . S
O100 Zn99 1.962 . S
O100 C105 1.254 . S
O101 Zn98 2.031 . S
O101 C105 1.269 . S
O102 Zn99 1.986 . S
O102 C109 1.262 1_565 S
O103 Zn98 2.049 . S
O103 C111 1.260 . S
O104 Zn99 1.996 . S
O104 C111 1.257 . S
C105 O100 1.254 . S
C105 O101 1.269 . S
C106 O107 1.249 . S
C106 O108 1.270 . S
O107 Zn99 1.943 . S
O107 C106 1.249 . S
O108 Zn98 2.067 . S
O108 C106 1.270 . S
C109 O102 1.262 1_545 S
C109 O110 1.232 . S
O110 C109 1.232 . S
C111 O103 1.260 . S
C111 O104 1.257 . S
Zn112 O115 2.031 . S
Zn112 O117 2.049 . S
Zn112 O122 2.067 . S
Zn113 O114 1.962 . S
Zn113 O116 1.986 . S
Zn113 O118 1.996 . S
Zn113 O121 1.943 . S
O114 Zn113 1.962 . S
O114 C119 1.254 . S
O115 Zn112 2.031 . S
O115 C119 1.269 . S
O116 Zn113 1.986 . S
O116 C123 1.262 . S
O117 Zn112 2.049 . S
O117 C125 1.260 . S
O118 Zn113 1.996 . S
O118 C125 1.257 . S
C119 O114 1.254 . S
C119 O115 1.269 . S
C120 O121 1.249 . S
C120 O122 1.270 . S
O121 Zn113 1.943 . S
O121 C120 1.249 . S
O122 Zn112 2.067 . S
O122 C120 1.270 . S
C123 O116 1.262 . S
C123 O124 1.232 . S
O124 C123 1.232 . S
C125 O117 1.260 . S
C125 O118 1.257 . S
Zn126 O129 2.031 . S
Zn126 O131 2.049 . S
Zn126 O136 2.067 . S
Zn127 O128 1.962 . S
Zn127 O130 1.986 . S
Zn127 O132 1.996 . S
Zn127 O135 1.943 . S
O128 Zn127 1.962 . S
O128 C133 1.254 . S
O129 Zn126 2.031 . S
O129 C133 1.269 . S
O130 Zn127 1.986 . S
O130 C137 1.262 . S
O131 Zn126 2.049 . S
O131 C139 1.260 . S
O132 Zn127 1.996 . S
O132 C139 1.257 . S
C133 O128 1.254 . S
C133 O129 1.269 . S
C134 O135 1.249 . S
C134 O136 1.270 . S
O135 Zn127 1.943 . S
O135 C134 1.249 . S
O136 Zn126 2.067 . S
O136 C134 1.270 . S
C137 O130 1.262 . S
C137 O138 1.232 . S
O138 C137 1.232 . S
C139 O131 1.260 . S
C139 O132 1.257 . S
Zn140 O143 2.031 . S
Zn140 O145 2.049 . S
Zn140 O150 2.067 . S
Zn141 O142 1.962 . S
Zn141 O144 1.986 . S
Zn141 O146 1.996 . S
Zn141 O149 1.943 . S
O142 Zn141 1.962 . S
O142 C147 1.254 . S
O143 Zn140 2.031 . S
O143 C147 1.269 . S
O144 Zn141 1.986 . S
O144 C151 1.262 . S
O145 Zn140 2.049 . S
O145 C153 1.260 . S
O146 Zn141 1.996 . S
O146 C153 1.257 . S
C147 O142 1.254 . S
C147 O143 1.269 . S
C148 O149 1.249 . S
C148 O150 1.270 . S
O149 Zn141 1.943 . S
O149 C148 1.249 . S
O150 Zn140 2.067 . S
O150 C148 1.270 . S
C151 O144 1.262 . S
C151 O152 1.232 . S
O152 C151 1.232 . S
C153 O145 1.260 . S
C153 O146 1.257 . S
Zn154 O157 2.031 . S
Zn154 O159 2.049 . S
Zn154 O164 2.067 . S
Zn155 O156 1.962 . S
Zn155 O158 1.986 . S
Zn155 O160 1.996 . S
Zn155 O163 1.943 . S
O156 Zn155 1.962 . S
O156 C161 1.254 . S
O157 Zn154 2.031 . S
O157 C161 1.269 . S
O158 Zn155 1.986 . S
O158 C165 1.262 . S
O159 Zn154 2.049 . S
O159 C167 1.260 . S
O160 Zn155 1.996 . S
O160 C167 1.257 . S
C161 O156 1.254 . S
C161 O157 1.269 . S
C162 O163 1.249 . S
C162 O164 1.270 . S
O163 Zn155 1.943 . S
O163 C162 1.249 . S
O164 Zn154 2.067 . S
O164 C162 1.270 . S
C165 O158 1.262 . S
C165 O166 1.232 . S
O166 C165 1.232 . S
C167 O159 1.260 . S
C167 O160 1.257 . S
Zn168 O171 2.031 . S
Zn168 O173 2.049 . S
Zn168 O178 2.067 . S
Zn169 O170 1.962 . S
Zn169 O172 1.986 . S
Zn169 O174 1.996 . S
Zn169 O177 1.943 . S
O170 Zn169 1.962 . S
O170 C175 1.254 . S
O171 Zn168 2.031 . S
O171 C175 1.269 . S
O172 Zn169 1.986 . S
O172 C179 1.262 . S
O173 Zn168 2.049 . S
O173 C181 1.260 . S
O174 Zn169 1.996 . S
O174 C181 1.257 . S
C175 O170 1.254 . S
C175 O171 1.269 . S
C176 O177 1.249 . S
C176 O178 1.270 . S
O177 Zn169 1.943 . S
O177 C176 1.249 . S
O178 Zn168 2.067 . S
O178 C176 1.270 . S
C179 O172 1.262 . S
C179 O180 1.232 . S
O180 C179 1.232 . S
C181 O173 1.260 . S
C181 O174 1.257 . S
Zn182 O185 2.031 . S
Zn182 O187 2.049 . S
Zn182 O192 2.067 . S
Zn183 O184 1.962 . S
Zn183 O186 1.986 . S
Zn183 O188 1.996 . S
Zn183 O191 1.943 . S
O184 Zn183 1.962 . S
O184 C189 1.254 . S
O185 Zn182 2.031 . S
O185 C189 1.269 . S
O186 Zn183 1.986 . S
O186 C193 1.262 . S
O187 Zn182 2.049 . S
O187 C195 1.260 . S
O188 Zn183 1.996 . S
O188 C195 1.257 . S
C189 O184 1.254 . S
C189 O185 1.269 . S
C190 O191 1.249 . S
C190 O192 1.270 . S
O191 Zn183 1.943 . S
O191 C190 1.249 . S
O192 Zn182 2.067 . S
O192 C190 1.270 . S
C193 O186 1.262 . S
C193 O194 1.232 . S
O194 C193 1.232 . S
C195 O187 1.260 . S
C195 O188 1.257 . S
Zn196 O199 2.031 . S
Zn196 O201 2.049 . S
Zn196 O206 2.067 . S
Zn197 O198 1.962 . S
Zn197 O200 1.986 . S
Zn197 O202 1.996 . S
Zn197 O205 1.943 . S
O198 Zn197 1.962 . S
O198 C203 1.254 . S
O199 Zn196 2.031 . S
O199 C203 1.269 . S
O200 Zn197 1.986 . S
O200 C207 1.262 . S
O201 Zn196 2.049 . S
O201 C209 1.260 . S
O202 Zn197 1.996 . S
O202 C209 1.257 . S
C203 O198 1.254 . S
C203 O199 1.269 . S
C204 O205 1.249 . S
C204 O206 1.270 . S
O205 Zn197 1.943 . S
O205 C204 1.249 . S
O206 Zn196 2.067 . S
O206 C204 1.270 . S
C207 O200 1.262 . S
C207 O208 1.232 . S
O208 C207 1.232 . S
C209 O201 1.260 . S
C209 O202 1.257 . S
Zn210 O213 2.031 . S
Zn210 O215 2.049 . S
Zn210 O220 2.067 . S
Zn211 O212 1.962 . S
Zn211 O214 1.986 . S
Zn211 O216 1.996 . S
Zn211 O219 1.943 . S
O212 Zn211 1.962 . S
O212 C217 1.254 . S
O213 Zn210 2.031 . S
O213 C217 1.269 . S
O214 Zn211 1.986 . S
O214 C221 1.262 . S
O215 Zn210 2.049 . S
O215 C223 1.260 . S
O216 Zn211 1.996 . S
O216 C223 1.257 . S
C217 O212 1.254 . S
C217 O213 1.269 . S
C218 O219 1.249 . S
C218 O220 1.270 . S
O219 Zn211 1.943 . S
O219 C218 1.249 . S
O220 Zn210 2.067 . S
O220 C218 1.270 . S
C221 O214 1.262 . S
C221 O222 1.232 . S
O222 C221 1.232 . S
C223 O215 1.260 . S
C223 O216 1.257 . S
Zn224 O227 2.031 . S
Zn224 O229 2.049 . S
Zn224 O234 2.067 . S
Zn225 O226 1.962 . S
Zn225 O228 1.986 . S
Zn225 O230 1.996 . S
Zn225 O233 1.943 . S
O226 Zn225 1.962 . S
O226 C231 1.254 . S
O227 Zn224 2.031 . S
O227 C231 1.269 . S
O228 Zn225 1.986 . S
O228 C235 1.312 . S
O229 Zn224 2.049 . S
O229 C237 1.260 . S
O230 Zn225 1.996 . S
O230 C237 1.257 . S
C231 O226 1.254 . S
C231 O227 1.269 . S
C232 O233 1.249 . S
C232 O234 1.270 . S
O233 Zn225 1.943 . S
O233 C232 1.249 . S
O234 Zn224 2.067 . S
O234 C232 1.270 . S
C235 O228 1.312 . S
C235 O236 1.235 . S
O236 C235 1.235 . S
C237 O229 1.260 . S
C237 O230 1.257 . S
Zn238 O241 2.031 . S
Zn238 O243 2.049 . S
Zn238 O248 2.067 . S
Zn239 O240 1.962 . S
Zn239 O242 1.986 . S
Zn239 O244 1.996 . S
Zn239 O247 1.943 . S
O240 Zn239 1.962 . S
O240 C245 1.254 . S
O241 Zn238 2.031 . S
O241 C245 1.269 . S
O242 Zn239 1.986 . S
O242 C249 1.262 . S
O243 Zn238 2.049 . S
O243 C251 1.260 . S
O244 Zn239 1.996 . S
O244 C251 1.257 . S
C245 O240 1.254 . S
C245 O241 1.269 . S
C246 O247 1.249 . S
C246 O248 1.270 . S
O247 Zn239 1.943 . S
O247 C246 1.249 . S
O248 Zn238 2.067 . S
O248 C246 1.270 . S
C249 O242 1.262 . S
C249 O250 1.232 . S
O250 C249 1.232 . S
C251 O243 1.260 . S
C251 O244 1.257 . S
H252 C279 0.929 . S
N253 C278 1.433 . S
N253 C284 1.435 . S
N253 C290 1.423 . S
H254 C280 0.930 . S
H255 C283 0.931 . S
H256 C282 0.929 . S
H257 C285 0.930 . S
H258 C286 0.932 . S
H259 C289 0.929 . S
H260 C288 0.931 . S
H261 C291 0.929 . S
H262 C295 0.932 . S
H263 C292 0.931 . S
H264 C294 0.929 . S
H265 C297 0.929 . S
H266 C298 0.930 . S
H267 C300 0.929 . S
H268 C301 0.931 . S
H269 C303 0.930 . S
H270 C304 0.932 . S
H271 C306 0.931 . S
H272 C307 0.929 . S
H273 C309 0.929 . S
H274 C310 0.931 . S
H275 C312 0.929 . S
N276 C296 1.433 . S
N276 C302 1.435 . S
N276 C308 1.423 . S
H277 C313 0.932 . S
C278 N253 1.433 . S
C278 C279 1.363 . S
C278 C283 1.370 . S
C279 H252 0.929 . S
C279 C278 1.363 . S
C279 C280 1.385 . S
C280 H254 0.930 . S
C280 C279 1.385 . S
C280 C281 1.357 . S
C281 C280 1.357 . S
C281 C282 1.406 . S
C282 H256 0.929 . S
C282 C281 1.406 . S
C282 C283 1.391 . S
C283 H255 0.931 . S
C283 C278 1.370 . S
C283 C282 1.391 . S
C284 N253 1.435 . S
C284 C285 1.358 . S
C284 C289 1.371 . S
C285 H257 0.930 . S
C285 C284 1.358 . S
C285 C286 1.405 . S
C286 H258 0.932 . S
C286 C285 1.405 . S
C286 C287 1.383 . S
C287 C286 1.383 . S
C287 C288 1.393 . S
C288 H260 0.931 . S
C288 C287 1.393 . S
C288 C289 1.382 . S
C289 H259 0.929 . S
C289 C284 1.371 . S
C289 C288 1.382 . S
C290 N253 1.423 . S
C290 C291 1.362 . S
C290 C295 1.388 . S
C291 H261 0.929 . S
C291 C290 1.362 . S
C291 C292 1.376 . S
C292 H263 0.931 . S
C292 C291 1.376 . S
C292 C293 1.396 . S
C293 C292 1.396 . S
C293 C294 1.348 . S
C293 C311 1.472 . S
C294 H264 0.929 . S
C294 C293 1.348 . S
C294 C295 1.443 . S
C295 H262 0.932 . S
C295 C290 1.388 . S
C295 C294 1.443 . S
C296 N276 1.433 . S
C296 C297 1.363 . S
C296 C301 1.370 . S
C297 H265 0.929 . S
C297 C296 1.363 . S
C297 C298 1.385 . S
C298 H266 0.930 . S
C298 C297 1.385 . S
C298 C299 1.357 . S
C299 C298 1.357 . S
C299 C300 1.406 . S
C300 H267 0.929 . S
C300 C299 1.406 . S
C300 C301 1.391 . S
C301 H268 0.931 . S
C301 C296 1.370 . S
C301 C300 1.391 . S
C302 N276 1.435 . S
C302 C303 1.358 . S
C302 C307 1.371 . S
C303 H269 0.930 . S
C303 C302 1.358 . S
C303 C304 1.405 . S
C304 H270 0.932 . S
C304 C303 1.405 . S
C304 C305 1.383 . S
C305 C304 1.383 . S
C305 C306 1.393 . S
C306 H271 0.931 . S
C306 C305 1.393 . S
C306 C307 1.382 . S
C307 H272 0.929 . S
C307 C302 1.371 . S
C307 C306 1.382 . S
C308 N276 1.423 . S
C308 C309 1.362 . S
C308 C313 1.388 . S
C309 H273 0.929 . S
C309 C308 1.362 . S
C309 C310 1.376 . S
C310 H274 0.931 . S
C310 C309 1.376 . S
C310 C311 1.396 . S
C311 C293 1.472 . S
C311 C310 1.396 . S
C311 C312 1.348 . S
C312 H275 0.929 . S
C312 C311 1.348 . S
C312 C313 1.443 . S
C313 H277 0.932 . S
C313 C308 1.388 . S
C313 C312 1.443 . S
H314 C341 0.929 . S
N315 C340 1.433 . S
N315 C346 1.435 . S
N315 C352 1.423 . S
H316 C342 0.930 . S
H317 C345 0.931 . S
H318 C344 0.929 . S
H319 C347 0.930 . S
H320 C348 0.932 . S
H321 C351 0.929 . S
H322 C350 0.931 . S
H323 C353 0.929 . S
H324 C357 0.932 . S
H325 C354 0.931 . S
H326 C356 0.929 . S
H327 C359 0.929 . S
H328 C360 0.930 . S
H329 C362 0.929 . S
H330 C363 0.931 . S
H331 C365 0.930 . S
H332 C366 0.932 . S
H333 C368 0.931 . S
H334 C369 0.929 . S
H335 C371 0.929 . S
H336 C372 0.931 . S
H337 C374 0.929 . S
N338 C358 1.433 . S
N338 C364 1.435 . S
N338 C370 1.423 . S
H339 C375 0.932 . S
C340 N315 1.433 . S
C340 C341 1.363 . S
C340 C345 1.370 . S
C341 H314 0.929 . S
C341 C340 1.363 . S
C341 C342 1.385 . S
C342 H316 0.930 . S
C342 C341 1.385 . S
C342 C343 1.357 . S
C343 C342 1.357 . S
C343 C344 1.406 . S
C344 H318 0.929 . S
C344 C343 1.406 . S
C344 C345 1.391 . S
C345 H317 0.931 . S
C345 C340 1.370 . S
C345 C344 1.391 . S
C346 N315 1.435 . S
C346 C347 1.358 . S
C346 C351 1.371 . S
C347 H319 0.930 . S
C347 C346 1.358 . S
C347 C348 1.405 . S
C348 H320 0.932 . S
C348 C347 1.405 . S
C348 C349 1.383 . S
C349 C348 1.383 . S
C349 C350 1.393 . S
C350 H322 0.931 . S
C350 C349 1.393 . S
C350 C351 1.382 . S
C351 H321 0.929 . S
C351 C346 1.371 . S
C351 C350 1.382 . S
C352 N315 1.423 . S
C352 C353 1.362 . S
C352 C357 1.388 . S
C353 H323 0.929 . S
C353 C352 1.362 . S
C353 C354 1.376 . S
C354 H325 0.931 . S
C354 C353 1.376 . S
C354 C355 1.396 . S
C355 C354 1.396 . S
C355 C356 1.348 . S
C355 C373 1.472 . S
C356 H326 0.929 . S
C356 C355 1.348 . S
C356 C357 1.443 . S
C357 H324 0.932 . S
C357 C352 1.388 . S
C357 C356 1.443 . S
C358 N338 1.433 . S
C358 C359 1.363 . S
C358 C363 1.370 . S
C359 H327 0.929 . S
C359 C358 1.363 . S
C359 C360 1.385 . S
C360 H328 0.930 . S
C360 C359 1.385 . S
C360 C361 1.357 . S
C361 C360 1.357 . S
C361 C362 1.406 . S
C362 H329 0.929 . S
C362 C361 1.406 . S
C362 C363 1.391 . S
C363 H330 0.931 . S
C363 C358 1.370 . S
C363 C362 1.391 . S
C364 N338 1.435 . S
C364 C365 1.358 . S
C364 C369 1.371 . S
C365 H331 0.930 . S
C365 C364 1.358 . S
C365 C366 1.405 . S
C366 H332 0.932 . S
C366 C365 1.405 . S
C366 C367 1.383 . S
C367 C366 1.383 . S
C367 C368 1.393 . S
C368 H333 0.931 . S
C368 C367 1.393 . S
C368 C369 1.382 . S
C369 H334 0.929 . S
C369 C364 1.371 . S
C369 C368 1.382 . S
C370 N338 1.423 . S
C370 C371 1.362 . S
C370 C375 1.388 . S
C371 H335 0.929 . S
C371 C370 1.362 . S
C371 C372 1.376 . S
C372 H336 0.931 . S
C372 C371 1.376 . S
C372 C373 1.396 . S
C373 C355 1.472 . S
C373 C372 1.396 . S
C373 C374 1.348 . S
C374 H337 0.929 . S
C374 C373 1.348 . S
C374 C375 1.443 . S
C375 H339 0.932 . S
C375 C370 1.388 . S
C375 C374 1.443 . S
H376 C403 0.929 . S
N377 C402 1.433 . S
N377 C408 1.435 . S
N377 C414 1.423 . S
H378 C404 0.930 . S
H379 C407 0.931 . S
H380 C406 0.929 . S
H381 C409 0.930 . S
H382 C410 0.932 . S
H383 C413 0.929 . S
H384 C412 0.931 . S
H385 C415 0.929 . S
H386 C419 0.932 . S
H387 C416 0.931 . S
H388 C418 0.929 . S
H389 C421 0.929 . S
H390 C422 0.930 . S
H391 C424 0.929 . S
H392 C425 0.931 . S
H393 C427 0.930 . S
H394 C428 0.932 . S
H395 C430 0.931 . S
H396 C431 0.929 . S
H397 C433 0.929 . S
H398 C434 0.931 . S
H399 C436 0.929 . S
N400 C420 1.433 . S
N400 C426 1.435 . S
N400 C432 1.423 . S
H401 C437 0.932 . S
C402 N377 1.433 . S
C402 C403 1.363 . S
C402 C407 1.370 . S
C403 H376 0.929 . S
C403 C402 1.363 . S
C403 C404 1.385 . S
C404 H378 0.930 . S
C404 C403 1.385 . S
C404 C405 1.357 . S
C405 C404 1.357 . S
C405 C406 1.406 . S
C406 H380 0.929 . S
C406 C405 1.406 . S
C406 C407 1.391 . S
C407 H379 0.931 . S
C407 C402 1.370 . S
C407 C406 1.391 . S
C408 N377 1.435 . S
C408 C409 1.358 . S
C408 C413 1.371 . S
C409 H381 0.930 . S
C409 C408 1.358 . S
C409 C410 1.405 . S
C410 H382 0.932 . S
C410 C409 1.405 . S
C410 C411 1.383 . S
C411 C410 1.383 . S
C411 C412 1.393 . S
C412 H384 0.931 . S
C412 C411 1.393 . S
C412 C413 1.382 . S
C413 H383 0.929 . S
C413 C408 1.371 . S
C413 C412 1.382 . S
C414 N377 1.423 . S
C414 C415 1.362 . S
C414 C419 1.388 . S
C415 H385 0.929 . S
C415 C414 1.362 . S
C415 C416 1.376 . S
C416 H387 0.931 . S
C416 C415 1.376 . S
C416 C417 1.396 . S
C417 C416 1.396 . S
C417 C418 1.348 . S
C417 C435 1.472 . S
C418 H388 0.929 . S
C418 C417 1.348 . S
C418 C419 1.443 . S
C419 H386 0.932 . S
C419 C414 1.388 . S
C419 C418 1.443 . S
C420 N400 1.433 . S
C420 C421 1.363 . S
C420 C425 1.370 . S
C421 H389 0.929 . S
C421 C420 1.363 . S
C421 C422 1.385 . S
C422 H390 0.930 . S
C422 C421 1.385 . S
C422 C423 1.357 . S
C423 C422 1.357 . S
C423 C424 1.406 . S
C424 H391 0.929 . S
C424 C423 1.406 . S
C424 C425 1.391 . S
C425 H392 0.931 . S
C425 C420 1.370 . S
C425 C424 1.391 . S
C426 N400 1.435 . S
C426 C427 1.358 . S
C426 C431 1.371 . S
C427 H393 0.930 . S
C427 C426 1.358 . S
C427 C428 1.405 . S
C428 H394 0.932 . S
C428 C427 1.405 . S
C428 C429 1.383 . S
C429 C428 1.383 . S
C429 C430 1.393 . S
C430 H395 0.931 . S
C430 C429 1.393 . S
C430 C431 1.382 . S
C431 H396 0.929 . S
C431 C426 1.371 . S
C431 C430 1.382 . S
C432 N400 1.423 . S
C432 C433 1.362 . S
C432 C437 1.388 . S
C433 H397 0.929 . S
C433 C432 1.362 . S
C433 C434 1.376 . S
C434 H398 0.931 . S
C434 C433 1.376 . S
C434 C435 1.396 . S
C435 C417 1.472 . S
C435 C434 1.396 . S
C435 C436 1.348 . S
C436 H399 0.929 . S
C436 C435 1.348 . S
C436 C437 1.443 . S
C437 H401 0.932 . S
C437 C432 1.388 . S
C437 C436 1.443 . S
H438 C465 0.929 . S
N439 C464 1.433 . S
N439 C470 1.435 . S
N439 C476 1.423 . S
H440 C466 0.930 . S
H441 C469 0.931 . S
H442 C468 0.929 . S
H443 C471 0.930 . S
H444 C472 0.932 . S
H445 C475 0.929 . S
H446 C474 0.931 . S
H447 C477 0.929 . S
H448 C481 0.932 . S
H449 C478 0.931 . S
H450 C480 0.929 . S
H451 C483 0.929 . S
H452 C484 0.930 . S
H453 C486 0.929 . S
H454 C487 0.931 . S
H455 C489 0.930 . S
H456 C490 0.932 . S
H457 C492 0.931 . S
H458 C493 0.929 . S
H459 C495 0.929 . S
H460 C496 0.931 . S
H461 C498 0.929 . S
N462 C482 1.433 . S
N462 C488 1.435 . S
N462 C494 1.423 . S
H463 C499 0.932 . S
C464 N439 1.433 . S
C464 C465 1.363 . S
C464 C469 1.370 . S
C465 H438 0.929 . S
C465 C464 1.363 . S
C465 C466 1.385 . S
C466 H440 0.930 . S
C466 C465 1.385 . S
C466 C467 1.357 . S
C467 C466 1.357 . S
C467 C468 1.406 . S
C468 H442 0.929 . S
C468 C467 1.406 . S
C468 C469 1.391 . S
C469 H441 0.931 . S
C469 C464 1.370 . S
C469 C468 1.391 . S
C470 N439 1.435 . S
C470 C471 1.358 . S
C470 C475 1.371 . S
C471 H443 0.930 . S
C471 C470 1.358 . S
C471 C472 1.405 . S
C472 H444 0.932 . S
C472 C471 1.405 . S
C472 C473 1.383 . S
C473 C472 1.383 . S
C473 C474 1.393 . S
C474 H446 0.931 . S
C474 C473 1.393 . S
C474 C475 1.382 . S
C475 H445 0.929 . S
C475 C470 1.371 . S
C475 C474 1.382 . S
C476 N439 1.423 . S
C476 C477 1.362 . S
C476 C481 1.388 . S
C477 H447 0.929 . S
C477 C476 1.362 . S
C477 C478 1.376 . S
C478 H449 0.931 . S
C478 C477 1.376 . S
C478 C479 1.396 . S
C479 C478 1.396 . S
C479 C480 1.348 . S
C479 C497 1.472 . S
C480 H450 0.929 . S
C480 C479 1.348 . S
C480 C481 1.443 . S
C481 H448 0.932 . S
C481 C476 1.388 . S
C481 C480 1.443 . S
C482 N462 1.433 . S
C482 C483 1.363 . S
C482 C487 1.370 . S
C483 H451 0.929 . S
C483 C482 1.363 . S
C483 C484 1.385 . S
C484 H452 0.930 . S
C484 C483 1.385 . S
C484 C485 1.357 . S
C485 C484 1.357 . S
C485 C486 1.406 . S
C486 H453 0.929 . S
C486 C485 1.406 . S
C486 C487 1.391 . S
C487 H454 0.931 . S
C487 C482 1.370 . S
C487 C486 1.391 . S
C488 N462 1.435 . S
C488 C489 1.358 . S
C488 C493 1.371 . S
C489 H455 0.930 . S
C489 C488 1.358 . S
C489 C490 1.405 . S
C490 H456 0.932 . S
C490 C489 1.405 . S
C490 C491 1.383 . S
C491 C490 1.383 . S
C491 C492 1.393 . S
C492 H457 0.931 . S
C492 C491 1.393 . S
C492 C493 1.382 . S
C493 H458 0.929 . S
C493 C488 1.371 . S
C493 C492 1.382 . S
C494 N462 1.423 . S
C494 C495 1.362 . S
C494 C499 1.388 . S
C495 H459 0.929 . S
C495 C494 1.362 . S
C495 C496 1.376 . S
C496 H460 0.931 . S
C496 C495 1.376 . S
C496 C497 1.396 . S
C497 C479 1.472 . S
C497 C496 1.396 . S
C497 C498 1.348 . S
C498 H461 0.929 . S
C498 C497 1.348 . S
C498 C499 1.443 . S
C499 H463 0.932 . S
C499 C494 1.388 . S
C499 C498 1.443 . S
H500 C527 0.929 . S
N501 C526 1.433 . S
N501 C532 1.435 . S
N501 C538 1.423 . S
H502 C528 0.930 . S
H503 C531 0.931 . S
H504 C530 0.929 . S
H505 C533 0.930 . S
H506 C534 0.932 . S
H507 C537 0.929 . S
H508 C536 0.931 . S
H509 C539 0.929 . S
H510 C543 0.932 . S
H511 C540 0.931 . S
H512 C542 0.929 . S
H513 C545 0.929 . S
H514 C546 0.930 . S
H515 C548 0.929 . S
H516 C549 0.931 . S
H517 C551 0.930 . S
H518 C552 0.932 . S
H519 C554 0.931 . S
H520 C555 0.929 . S
H521 C557 0.929 . S
H522 C558 0.931 . S
H523 C560 0.929 . S
N524 C544 1.433 . S
N524 C550 1.435 . S
N524 C556 1.423 . S
H525 C561 0.932 . S
C526 N501 1.433 . S
C526 C527 1.363 . S
C526 C531 1.370 . S
C527 H500 0.929 . S
C527 C526 1.363 . S
C527 C528 1.385 . S
C528 H502 0.930 . S
C528 C527 1.385 . S
C528 C529 1.357 . S
C529 C528 1.357 . S
C529 C530 1.406 . S
C530 H504 0.929 . S
C530 C529 1.406 . S
C530 C531 1.391 . S
C531 H503 0.931 . S
C531 C526 1.370 . S
C531 C530 1.391 . S
C532 N501 1.435 . S
C532 C533 1.358 . S
C532 C537 1.371 . S
C533 H505 0.930 . S
C533 C532 1.358 . S
C533 C534 1.405 . S
C534 H506 0.932 . S
C534 C533 1.405 . S
C534 C535 1.383 . S
C535 C534 1.383 . S
C535 C536 1.393 . S
C536 H508 0.931 . S
C536 C535 1.393 . S
C536 C537 1.382 . S
C537 H507 0.929 . S
C537 C532 1.371 . S
C537 C536 1.382 . S
C538 N501 1.423 . S
C538 C539 1.362 . S
C538 C543 1.388 . S
C539 H509 0.929 . S
C539 C538 1.362 . S
C539 C540 1.376 . S
C540 H511 0.931 . S
C540 C539 1.376 . S
C540 C541 1.396 . S
C541 C540 1.396 . S
C541 C542 1.348 . S
C541 C559 1.472 . S
C542 H512 0.929 . S
C542 C541 1.348 . S
C542 C543 1.443 . S
C543 H510 0.932 . S
C543 C538 1.388 . S
C543 C542 1.443 . S
C544 N524 1.433 . S
C544 C545 1.363 . S
C544 C549 1.370 . S
C545 H513 0.929 . S
C545 C544 1.363 . S
C545 C546 1.385 . S
C546 H514 0.930 . S
C546 C545 1.385 . S
C546 C547 1.357 . S
C547 C546 1.357 . S
C547 C548 1.406 . S
C548 H515 0.929 . S
C548 C547 1.406 . S
C548 C549 1.391 . S
C549 H516 0.931 . S
C549 C544 1.370 . S
C549 C548 1.391 . S
C550 N524 1.435 . S
C550 C551 1.358 . S
C550 C555 1.371 . S
C551 H517 0.930 . S
C551 C550 1.358 . S
C551 C552 1.405 . S
C552 H518 0.932 . S
C552 C551 1.405 . S
C552 C553 1.383 . S
C553 C552 1.383 . S
C553 C554 1.393 . S
C554 H519 0.931 . S
C554 C553 1.393 . S
C554 C555 1.382 . S
C555 H520 0.929 . S
C555 C550 1.371 . S
C555 C554 1.382 . S
C556 N524 1.423 . S
C556 C557 1.362 . S
C556 C561 1.388 . S
C557 H521 0.929 . S
C557 C556 1.362 . S
C557 C558 1.376 . S
C558 H522 0.931 . S
C558 C557 1.376 . S
C558 C559 1.396 . S
C559 C541 1.472 . S
C559 C558 1.396 . S
C559 C560 1.348 . S
C560 H523 0.929 . S
C560 C559 1.348 . S
C560 C561 1.443 . S
C561 H525 0.932 . S
C561 C556 1.388 . S
C561 C560 1.443 . S
H562 C589 0.929 . S
N563 C588 1.433 . S
N563 C594 1.435 . S
N563 C600 1.423 . S
H564 C590 0.930 . S
H565 C593 0.931 . S
H566 C592 0.929 . S
H567 C595 0.930 . S
H568 C596 0.932 . S
H569 C599 0.929 . S
H570 C598 0.931 . S
H571 C601 0.929 . S
H572 C605 0.932 . S
H573 C602 0.931 . S
H574 C604 0.929 . S
H575 C607 0.929 . S
H576 C608 0.930 . S
H577 C610 0.929 . S
H578 C611 0.931 . S
H579 C613 0.930 . S
H580 C614 0.932 . S
H581 C616 0.931 . S
H582 C617 0.929 . S
H583 C619 0.929 . S
H584 C620 0.931 . S
H585 C622 0.929 . S
N586 C606 1.433 . S
N586 C612 1.435 . S
N586 C618 1.423 . S
H587 C623 0.932 . S
C588 N563 1.433 . S
C588 C589 1.363 . S
C588 C593 1.370 . S
C589 H562 0.929 . S
C589 C588 1.363 . S
C589 C590 1.385 . S
C590 H564 0.930 . S
C590 C589 1.385 . S
C590 C591 1.357 . S
C591 C590 1.357 . S
C591 C592 1.406 . S
C592 H566 0.929 . S
C592 C591 1.406 . S
C592 C593 1.391 . S
C593 H565 0.931 . S
C593 C588 1.370 . S
C593 C592 1.391 . S
C594 N563 1.435 . S
C594 C595 1.358 . S
C594 C599 1.371 . S
C595 H567 0.930 . S
C595 C594 1.358 . S
C595 C596 1.405 . S
C596 H568 0.932 . S
C596 C595 1.405 . S
C596 C597 1.383 . S
C597 C596 1.383 . S
C597 C598 1.393 . S
C598 H570 0.931 . S
C598 C597 1.393 . S
C598 C599 1.382 . S
C599 H569 0.929 . S
C599 C594 1.371 . S
C599 C598 1.382 . S
C600 N563 1.423 . S
C600 C601 1.362 . S
C600 C605 1.388 . S
C601 H571 0.929 . S
C601 C600 1.362 . S
C601 C602 1.376 . S
C602 H573 0.931 . S
C602 C601 1.376 . S
C602 C603 1.396 . S
C603 C602 1.396 . S
C603 C604 1.348 . S
C603 C621 1.472 . S
C604 H574 0.929 . S
C604 C603 1.348 . S
C604 C605 1.443 . S
C605 H572 0.932 . S
C605 C600 1.388 . S
C605 C604 1.443 . S
C606 N586 1.433 . S
C606 C607 1.363 . S
C606 C611 1.370 . S
C607 H575 0.929 . S
C607 C606 1.363 . S
C607 C608 1.385 . S
C608 H576 0.930 . S
C608 C607 1.385 . S
C608 C609 1.357 . S
C609 C608 1.357 . S
C609 C610 1.406 . S
C610 H577 0.929 . S
C610 C609 1.406 . S
C610 C611 1.391 . S
C611 H578 0.931 . S
C611 C606 1.370 . S
C611 C610 1.391 . S
C612 N586 1.435 . S
C612 C613 1.358 . S
C612 C617 1.371 . S
C613 H579 0.930 . S
C613 C612 1.358 . S
C613 C614 1.405 . S
C614 H580 0.932 . S
C614 C613 1.405 . S
C614 C615 1.383 . S
C615 C614 1.383 . S
C615 C616 1.393 . S
C616 H581 0.931 . S
C616 C615 1.393 . S
C616 C617 1.382 . S
C617 H582 0.929 . S
C617 C612 1.371 . S
C617 C616 1.382 . S
C618 N586 1.423 . S
C618 C619 1.362 . S
C618 C623 1.388 . S
C619 H583 0.929 . S
C619 C618 1.362 . S
C619 C620 1.376 . S
C620 H584 0.931 . S
C620 C619 1.376 . S
C620 C621 1.396 . S
C621 C603 1.472 . S
C621 C620 1.396 . S
C621 C622 1.348 . S
C622 H585 0.929 . S
C622 C621 1.348 . S
C622 C623 1.443 . S
C623 H587 0.932 . S
C623 C618 1.388 . S
C623 C622 1.443 . S
H624 C651 0.929 . S
N625 C650 1.433 . S
N625 C656 1.435 . S
N625 C662 1.423 . S
H626 C652 0.930 . S
H627 C655 0.931 . S
H628 C654 0.929 . S
H629 C657 0.930 . S
H630 C658 0.932 . S
H631 C661 0.929 . S
H632 C660 0.931 . S
H633 C663 0.929 . S
H634 C667 0.932 . S
H635 C664 0.931 . S
H636 C666 0.929 . S
H637 C669 0.929 . S
H638 C670 0.930 . S
H639 C672 0.929 . S
H640 C673 0.931 . S
H641 C675 0.930 . S
H642 C676 0.932 . S
H643 C678 0.931 . S
H644 C679 0.929 . S
H645 C681 0.929 . S
H646 C682 0.931 . S
H647 C684 0.929 . S
N648 C668 1.433 . S
N648 C674 1.435 . S
N648 C680 1.423 . S
H649 C685 0.932 . S
C650 N625 1.433 . S
C650 C651 1.363 . S
C650 C655 1.370 . S
C651 H624 0.929 . S
C651 C650 1.363 . S
C651 C652 1.385 . S
C652 H626 0.930 . S
C652 C651 1.385 . S
C652 C653 1.357 . S
C653 C652 1.357 . S
C653 C654 1.406 . S
C654 H628 0.929 . S
C654 C653 1.406 . S
C654 C655 1.391 . S
C655 H627 0.931 . S
C655 C650 1.370 . S
C655 C654 1.391 . S
C656 N625 1.435 . S
C656 C657 1.358 . S
C656 C661 1.371 . S
C657 H629 0.930 . S
C657 C656 1.358 . S
C657 C658 1.405 . S
C658 H630 0.932 . S
C658 C657 1.405 . S
C658 C659 1.383 . S
C659 C658 1.383 . S
C659 C660 1.393 . S
C660 H632 0.931 . S
C660 C659 1.393 . S
C660 C661 1.382 . S
C661 H631 0.929 . S
C661 C656 1.371 . S
C661 C660 1.382 . S
C662 N625 1.423 . S
C662 C663 1.362 . S
C662 C667 1.388 . S
C663 H633 0.929 . S
C663 C662 1.362 . S
C663 C664 1.376 . S
C664 H635 0.931 . S
C664 C663 1.376 . S
C664 C665 1.396 . S
C665 C664 1.396 . S
C665 C666 1.348 . S
C665 C683 1.472 . S
C666 H636 0.929 . S
C666 C665 1.348 . S
C666 C667 1.443 . S
C667 H634 0.932 . S
C667 C662 1.388 . S
C667 C666 1.443 . S
C668 N648 1.433 . S
C668 C669 1.363 . S
C668 C673 1.370 . S
C669 H637 0.929 . S
C669 C668 1.363 . S
C669 C670 1.385 . S
C670 H638 0.930 . S
C670 C669 1.385 . S
C670 C671 1.357 . S
C671 C670 1.357 . S
C671 C672 1.406 . S
C672 H639 0.929 . S
C672 C671 1.406 . S
C672 C673 1.391 . S
C673 H640 0.931 . S
C673 C668 1.370 . S
C673 C672 1.391 . S
C674 N648 1.435 . S
C674 C675 1.358 . S
C674 C679 1.371 . S
C675 H641 0.930 . S
C675 C674 1.358 . S
C675 C676 1.405 . S
C676 H642 0.932 . S
C676 C675 1.405 . S
C676 C677 1.383 . S
C677 C676 1.383 . S
C677 C678 1.393 . S
C678 H643 0.931 . S
C678 C677 1.393 . S
C678 C679 1.382 . S
C679 H644 0.929 . S
C679 C674 1.371 . S
C679 C678 1.382 . S
C680 N648 1.423 . S
C680 C681 1.362 . S
C680 C685 1.388 . S
C681 H645 0.929 . S
C681 C680 1.362 . S
C681 C682 1.376 . S
C682 H646 0.931 . S
C682 C681 1.376 . S
C682 C683 1.396 . S
C683 C665 1.472 . S
C683 C682 1.396 . S
C683 C684 1.348 . S
C684 H647 0.929 . S
C684 C683 1.348 . S
C684 C685 1.443 . S
C685 H649 0.932 . S
C685 C680 1.388 . S
C685 C684 1.443 . S
H686 C713 0.929 . S
N687 C712 1.433 . S
N687 C718 1.435 . S
N687 C724 1.423 . S
H688 C714 0.930 . S
H689 C717 0.931 . S
H690 C716 0.929 . S
H691 C719 0.930 . S
H692 C720 0.932 . S
H693 C723 0.929 . S
H694 C722 0.931 . S
H695 C725 0.929 . S
H696 C729 0.932 . S
H697 C726 0.931 . S
H698 C728 0.929 . S
H699 C731 0.929 . S
H700 C732 0.930 . S
H701 C734 0.929 . S
H702 C735 0.931 . S
H703 C737 0.930 . S
H704 C738 0.932 . S
H705 C740 0.931 . S
H706 C741 0.929 . S
H707 C743 0.929 . S
H708 C744 0.931 . S
H709 C746 0.929 . S
N710 C730 1.433 . S
N710 C736 1.435 . S
N710 C742 1.423 . S
H711 C747 0.932 . S
C712 N687 1.433 . S
C712 C713 1.363 . S
C712 C717 1.370 . S
C713 H686 0.929 . S
C713 C712 1.363 . S
C713 C714 1.385 . S
C714 H688 0.930 . S
C714 C713 1.385 . S
C714 C715 1.357 . S
C715 C714 1.357 . S
C715 C716 1.406 . S
C716 H690 0.929 . S
C716 C715 1.406 . S
C716 C717 1.391 . S
C717 H689 0.931 . S
C717 C712 1.370 . S
C717 C716 1.391 . S
C718 N687 1.435 . S
C718 C719 1.358 . S
C718 C723 1.371 . S
C719 H691 0.930 . S
C719 C718 1.358 . S
C719 C720 1.405 . S
C720 H692 0.932 . S
C720 C719 1.405 . S
C720 C721 1.383 . S
C721 C720 1.383 . S
C721 C722 1.393 . S
C722 H694 0.931 . S
C722 C721 1.393 . S
C722 C723 1.382 . S
C723 H693 0.929 . S
C723 C718 1.371 . S
C723 C722 1.382 . S
C724 N687 1.423 . S
C724 C725 1.362 . S
C724 C729 1.388 . S
C725 H695 0.929 . S
C725 C724 1.362 . S
C725 C726 1.376 . S
C726 H697 0.931 . S
C726 C725 1.376 . S
C726 C727 1.396 . S
C727 C726 1.396 . S
C727 C728 1.348 . S
C727 C745 1.472 . S
C728 H698 0.929 . S
C728 C727 1.348 . S
C728 C729 1.443 . S
C729 H696 0.932 . S
C729 C724 1.388 . S
C729 C728 1.443 . S
C730 N710 1.433 . S
C730 C731 1.363 . S
C730 C735 1.370 . S
C731 H699 0.929 . S
C731 C730 1.363 . S
C731 C732 1.385 . S
C732 H700 0.930 . S
C732 C731 1.385 . S
C732 C733 1.357 . S
C733 C732 1.357 . S
C733 C734 1.406 . S
C734 H701 0.929 . S
C734 C733 1.406 . S
C734 C735 1.391 . S
C735 H702 0.931 . S
C735 C730 1.370 . S
C735 C734 1.391 . S
C736 N710 1.435 . S
C736 C737 1.358 . S
C736 C741 1.371 . S
C737 H703 0.930 . S
C737 C736 1.358 . S
C737 C738 1.405 . S
C738 H704 0.932 . S
C738 C737 1.405 . S
C738 C739 1.383 . S
C739 C738 1.383 . S
C739 C740 1.393 . S
C740 H705 0.931 . S
C740 C739 1.393 . S
C740 C741 1.382 . S
C741 H706 0.929 . S
C741 C736 1.371 . S
C741 C740 1.382 . S
C742 N710 1.423 . S
C742 C743 1.362 . S
C742 C747 1.388 . S
C743 H707 0.929 . S
C743 C742 1.362 . S
C743 C744 1.376 . S
C744 H708 0.931 . S
C744 C743 1.376 . S
C744 C745 1.396 . S
C745 C727 1.472 . S
C745 C744 1.396 . S
C745 C746 1.348 . S
C746 H709 0.929 . S
C746 C745 1.348 . S
C746 C747 1.443 . S
C747 H711 0.932 . S
C747 C742 1.388 . S
C747 C746 1.443 . S
H748 C775 0.929 . S
N749 C774 1.433 . S
N749 C780 1.435 . S
N749 C786 1.423 . S
H750 C776 0.930 . S
H751 C779 0.931 . S
H752 C778 0.929 . S
H753 C781 0.930 . S
H754 C782 0.932 . S
H755 C785 0.929 . S
H756 C784 0.931 . S
H757 C787 0.929 . S
H758 C791 0.932 . S
H759 C788 0.931 . S
H760 C790 0.929 . S
H761 C793 0.929 . S
H762 C794 0.930 . S
H763 C796 0.929 . S
H764 C797 0.931 . S
H765 C799 0.930 . S
H766 C800 0.932 . S
H767 C802 0.931 . S
H768 C803 0.929 . S
H769 C805 0.929 . S
H770 C806 0.931 . S
H771 C808 0.929 . S
N772 C792 1.433 . S
N772 C798 1.435 . S
N772 C804 1.423 . S
H773 C809 0.932 . S
C774 N749 1.433 . S
C774 C775 1.363 . S
C774 C779 1.370 . S
C775 H748 0.929 . S
C775 C774 1.363 . S
C775 C776 1.385 . S
C776 H750 0.930 . S
C776 C775 1.385 . S
C776 C777 1.357 . S
C777 C776 1.357 . S
C777 C778 1.406 . S
C778 H752 0.929 . S
C778 C777 1.406 . S
C778 C779 1.391 . S
C779 H751 0.931 . S
C779 C774 1.370 . S
C779 C778 1.391 . S
C780 N749 1.435 . S
C780 C781 1.358 . S
C780 C785 1.371 . S
C781 H753 0.930 . S
C781 C780 1.358 . S
C781 C782 1.405 . S
C782 H754 0.932 . S
C782 C781 1.405 . S
C782 C783 1.383 . S
C783 C782 1.383 . S
C783 C784 1.393 . S
C784 H756 0.931 . S
C784 C783 1.393 . S
C784 C785 1.382 . S
C785 H755 0.929 . S
C785 C780 1.371 . S
C785 C784 1.382 . S
C786 N749 1.423 . S
C786 C787 1.362 . S
C786 C791 1.388 . S
C787 H757 0.929 . S
C787 C786 1.362 . S
C787 C788 1.376 . S
C788 H759 0.931 . S
C788 C787 1.376 . S
C788 C789 1.396 . S
C789 C788 1.396 . S
C789 C790 1.348 . S
C789 C807 1.472 . S
C790 H760 0.929 . S
C790 C789 1.348 . S
C790 C791 1.443 . S
C791 H758 0.932 . S
C791 C786 1.388 . S
C791 C790 1.443 . S
C792 N772 1.433 . S
C792 C793 1.363 . S
C792 C797 1.370 . S
C793 H761 0.929 . S
C793 C792 1.363 . S
C793 C794 1.385 . S
C794 H762 0.930 . S
C794 C793 1.385 . S
C794 C795 1.357 . S
C795 C794 1.357 . S
C795 C796 1.406 . S
C796 H763 0.929 . S
C796 C795 1.406 . S
C796 C797 1.391 . S
C797 H764 0.931 . S
C797 C792 1.370 . S
C797 C796 1.391 . S
C798 N772 1.435 . S
C798 C799 1.358 . S
C798 C803 1.371 . S
C799 H765 0.930 . S
C799 C798 1.358 . S
C799 C800 1.405 . S
C800 H766 0.932 . S
C800 C799 1.405 . S
C800 C801 1.383 . S
C801 C800 1.383 . S
C801 C802 1.393 . S
C802 H767 0.931 . S
C802 C801 1.393 . S
C802 C803 1.382 . S
C803 H768 0.929 . S
C803 C798 1.371 . S
C803 C802 1.382 . S
C804 N772 1.423 . S
C804 C805 1.362 . S
C804 C809 1.388 . S
C805 H769 0.929 . S
C805 C804 1.362 . S
C805 C806 1.376 . S
C806 H770 0.931 . S
C806 C805 1.376 . S
C806 C807 1.396 . S
C807 C789 1.472 . S
C807 C806 1.396 . S
C807 C808 1.348 . S
C808 H771 0.929 . S
C808 C807 1.348 . S
C808 C809 1.443 . S
C809 H773 0.932 . S
C809 C804 1.388 . S
C809 C808 1.443 . S
H810 C837 0.929 . S
N811 C836 1.433 . S
N811 C842 1.435 . S
N811 C848 1.423 . S
H812 C838 0.930 . S
H813 C841 0.931 . S
H814 C840 0.929 . S
H815 C843 0.930 . S
H816 C844 0.932 . S
H817 C847 0.929 . S
H818 C846 0.931 . S
H819 C849 0.929 . S
H820 C853 0.932 1_655 S
H821 C850 0.931 . S
H822 C852 0.939 . S
H823 C855 0.929 . S
H824 C856 0.930 . S
H825 C858 0.929 . S
H826 C859 0.931 . S
H827 C861 0.930 . S
H828 C862 0.932 . S
H829 C864 0.931 . S
H830 C865 0.929 . S
H831 C867 0.929 . S
H832 C868 0.931 . S
H833 C870 0.990 . S
N834 C854 1.433 . S
N834 C860 1.435 . S
N834 C866 1.423 . S
H835 C871 0.932 1_655 S
C836 N811 1.433 . S
C836 C837 1.363 . S
C836 C841 1.370 1_455 S
C837 H810 0.929 . S
C837 C836 1.363 . S
C837 C838 1.385 . S
C838 H812 0.930 . S
C838 C837 1.385 . S
C838 C839 1.357 1_455 S
C839 C838 1.357 1_655 S
C839 C840 1.406 . S
C840 H814 0.929 . S
C840 C839 1.406 . S
C840 C841 1.391 . S
C841 H813 0.931 . S
C841 C836 1.370 1_655 S
C841 C840 1.391 . S
C842 N811 1.435 . S
C842 C843 1.358 1_455 S
C842 C847 1.371 . S
C843 H815 0.930 . S
C843 C842 1.358 1_655 S
C843 C844 1.405 . S
C844 H816 0.932 . S
C844 C843 1.405 . S
C844 C845 1.383 1_655 S
C845 C844 1.383 1_455 S
C845 C846 1.393 . S
C846 H818 0.931 . S
C846 C845 1.393 . S
C846 C847 1.382 . S
C847 H817 0.929 . S
C847 C842 1.371 . S
C847 C846 1.382 . S
C848 N811 1.423 . S
C848 C849 1.362 . S
C848 C853 1.388 . S
C849 H819 0.929 . S
C849 C848 1.362 . S
C849 C850 1.376 . S
C850 H821 0.931 . S
C850 C849 1.376 . S
C850 C851 1.396 . S
C851 C850 1.396 . S
C851 C852 1.348 . S
C851 C869 1.472 . S
C852 H822 0.939 . S
C852 C851 1.348 . S
C852 C853 1.443 . S
C853 H820 0.932 1_455 S
C853 C848 1.388 . S
C853 C852 1.443 . S
C854 N834 1.433 . S
C854 C855 1.363 . S
C854 C859 1.370 1_455 S
C855 H823 0.929 . S
C855 C854 1.363 . S
C855 C856 1.385 . S
C856 H824 0.930 . S
C856 C855 1.385 . S
C856 C857 1.357 1_455 S
C857 C856 1.357 1_655 S
C857 C858 1.406 . S
C858 H825 0.929 . S
C858 C857 1.406 . S
C858 C859 1.391 . S
C859 H826 0.931 . S
C859 C854 1.370 1_655 S
C859 C858 1.391 . S
C860 N834 1.435 . S
C860 C861 1.358 1_455 S
C860 C865 1.371 . S
C861 H827 0.930 . S
C861 C860 1.358 1_655 S
C861 C862 1.405 . S
C862 H828 0.932 . S
C862 C861 1.405 . S
C862 C863 1.383 1_655 S
C863 C862 1.383 1_455 S
C863 C864 1.393 . S
C864 H829 0.931 . S
C864 C863 1.393 . S
C864 C865 1.382 . S
C865 H830 0.929 . S
C865 C860 1.371 . S
C865 C864 1.382 . S
C866 N834 1.423 . S
C866 C867 1.362 . S
C866 C871 1.388 . S
C867 H831 0.929 . S
C867 C866 1.362 . S
C867 C868 1.376 . S
C868 H832 0.931 . S
C868 C867 1.376 . S
C868 C869 1.396 . S
C869 C851 1.472 . S
C869 C868 1.396 . S
C869 C870 1.348 . S
C870 H833 0.990 . S
C870 C869 1.348 . S
C870 C871 1.443 . S
C871 H835 0.932 1_455 S
C871 C866 1.388 . S
C871 C870 1.443 . S
H872 C899 0.929 . S
N873 C898 1.433 . S
N873 C904 1.435 . S
N873 C910 1.423 . S
H874 C900 0.930 . S
H875 C903 0.931 . S
H876 C902 0.929 . S
H877 C905 0.930 . S
H878 C906 0.932 . S
H879 C909 0.929 . S
H880 C908 0.931 . S
H881 C911 0.929 . S
H882 C915 0.932 . S
H883 C912 0.931 . S
H884 C914 0.929 . S
H885 C917 0.929 . S
H886 C918 0.930 . S
H887 C920 0.929 . S
H888 C921 0.931 . S
H889 C923 0.930 . S
H890 C924 0.932 . S
H891 C926 0.931 . S
H892 C927 0.929 . S
H893 C929 0.929 . S
H894 C930 0.931 . S
H895 C932 0.929 . S
N896 C916 1.433 . S
N896 C922 1.435 . S
N896 C928 1.423 . S
H897 C933 0.932 . S
C898 N873 1.433 . S
C898 C899 1.363 . S
C898 C903 1.370 . S
C899 H872 0.929 . S
C899 C898 1.363 . S
C899 C900 1.385 . S
C900 H874 0.930 . S
C900 C899 1.385 . S
C900 C901 1.357 . S
C901 C900 1.357 . S
C901 C902 1.406 . S
C902 H876 0.929 . S
C902 C901 1.406 . S
C902 C903 1.391 . S
C903 H875 0.931 . S
C903 C898 1.370 . S
C903 C902 1.391 . S
C904 N873 1.435 . S
C904 C905 1.358 . S
C904 C909 1.371 . S
C905 H877 0.930 . S
C905 C904 1.358 . S
C905 C906 1.405 . S
C906 H878 0.932 . S
C906 C905 1.405 . S
C906 C907 1.383 . S
C907 C906 1.383 . S
C907 C908 1.393 . S
C908 H880 0.931 . S
C908 C907 1.393 . S
C908 C909 1.382 . S
C909 H879 0.929 . S
C909 C904 1.371 . S
C909 C908 1.382 . S
C910 N873 1.423 . S
C910 C911 1.362 . S
C910 C915 1.388 . S
C911 H881 0.929 . S
C911 C910 1.362 . S
C911 C912 1.376 . S
C912 H883 0.931 . S
C912 C911 1.376 . S
C912 C913 1.396 . S
C913 C912 1.396 . S
C913 C914 1.348 . S
C913 C931 1.472 . S
C914 H884 0.929 . S
C914 C913 1.348 . S
C914 C915 1.443 . S
C915 H882 0.932 . S
C915 C910 1.388 . S
C915 C914 1.443 . S
C916 N896 1.433 . S
C916 C917 1.363 . S
C916 C921 1.370 . S
C917 H885 0.929 . S
C917 C916 1.363 . S
C917 C918 1.385 . S
C918 H886 0.930 . S
C918 C917 1.385 . S
C918 C919 1.357 . S
C919 C918 1.357 . S
C919 C920 1.406 . S
C920 H887 0.929 . S
C920 C919 1.406 . S
C920 C921 1.391 . S
C921 H888 0.931 . S
C921 C916 1.370 . S
C921 C920 1.391 . S
C922 N896 1.435 . S
C922 C923 1.358 . S
C922 C927 1.371 . S
C923 H889 0.930 . S
C923 C922 1.358 . S
C923 C924 1.405 . S
C924 H890 0.932 . S
C924 C923 1.405 . S
C924 C925 1.383 . S
C925 C924 1.383 . S
C925 C926 1.393 . S
C926 H891 0.931 . S
C926 C925 1.393 . S
C926 C927 1.382 . S
C927 H892 0.929 . S
C927 C922 1.371 . S
C927 C926 1.382 . S
C928 N896 1.423 . S
C928 C929 1.362 . S
C928 C933 1.388 . S
C929 H893 0.929 . S
C929 C928 1.362 . S
C929 C930 1.376 . S
C930 H894 0.931 . S
C930 C929 1.376 . S
C930 C931 1.396 . S
C931 C913 1.472 . S
C931 C930 1.396 . S
C931 C932 1.348 . S
C932 H895 0.929 . S
C932 C931 1.348 . S
C932 C933 1.443 . S
C933 H897 0.932 . S
C933 C928 1.388 . S
C933 C932 1.443 . S
H934 C961 0.929 . S
N935 C960 1.433 . S
N935 C966 1.435 . S
N935 C972 1.423 . S
H936 C962 0.930 . S
H937 C965 0.931 . S
H938 C964 0.929 . S
H939 C967 0.930 . S
H940 C968 0.932 . S
H941 C971 0.929 . S
H942 C970 0.931 . S
H943 C973 0.929 . S
H944 C977 0.932 1_545 S
H945 C974 0.931 . S
H946 C976 0.999 . S
H947 C979 0.929 . S
H948 C980 0.930 . S
H949 C982 0.929 . S
H950 C983 0.931 . S
H951 C985 0.930 . S
H952 C986 0.932 . S
H953 C988 0.931 . S
H954 C989 0.929 . S
H955 C991 0.929 . S
H956 C992 0.931 . S
H957 C994 0.938 . S
N958 C978 1.433 . S
N958 C984 1.435 . S
N958 C990 1.423 . S
H959 C995 0.932 1_545 S
C960 N935 1.433 . S
C960 C961 1.363 . S
C960 C965 1.370 1_565 S
C961 H934 0.929 . S
C961 C960 1.363 . S
C961 C962 1.385 . S
C962 H936 0.930 . S
C962 C961 1.385 . S
C962 C963 1.357 1_565 S
C963 C962 1.357 1_545 S
C963 C964 1.406 . S
C964 H938 0.929 . S
C964 C963 1.406 . S
C964 C965 1.391 . S
C965 H937 0.931 . S
C965 C960 1.370 1_545 S
C965 C964 1.391 . S
C966 N935 1.435 . S
C966 C967 1.358 1_565 S
C966 C971 1.371 . S
C967 H939 0.930 . S
C967 C966 1.358 1_545 S
C967 C968 1.405 . S
C968 H940 0.932 . S
C968 C967 1.405 . S
C968 C969 1.383 1_545 S
C969 C968 1.383 1_565 S
C969 C970 1.393 . S
C970 H942 0.931 . S
C970 C969 1.393 . S
C970 C971 1.382 . S
C971 H941 0.929 . S
C971 C966 1.371 . S
C971 C970 1.382 . S
C972 N935 1.423 . S
C972 C973 1.362 . S
C972 C977 1.388 . S
C973 H943 0.929 . S
C973 C972 1.362 . S
C973 C974 1.376 . S
C974 H945 0.931 . S
C974 C973 1.376 . S
C974 C975 1.396 . S
C975 C974 1.396 . S
C975 C976 1.348 . S
C975 C993 1.472 . S
C976 H946 0.999 . S
C976 C975 1.348 . S
C976 C977 1.443 . S
C977 H944 0.932 1_565 S
C977 C972 1.388 . S
C977 C976 1.443 . S
C978 N958 1.433 . S
C978 C979 1.363 . S
C978 C983 1.370 1_565 S
C979 H947 0.929 . S
C979 C978 1.363 . S
C979 C980 1.385 . S
C980 H948 0.930 . S
C980 C979 1.385 . S
C980 C981 1.357 1_565 S
C981 C980 1.357 1_545 S
C981 C982 1.406 . S
C982 H949 0.929 . S
C982 C981 1.406 . S
C982 C983 1.391 . S
C983 H950 0.931 . S
C983 C978 1.370 1_545 S
C983 C982 1.391 . S
C984 N958 1.435 . S
C984 C985 1.358 1_565 S
C984 C989 1.371 . S
C985 H951 0.930 . S
C985 C984 1.358 1_545 S
C985 C986 1.405 . S
C986 H952 0.932 . S
C986 C985 1.405 . S
C986 C987 1.383 1_545 S
C987 C986 1.383 1_565 S
C987 C988 1.393 . S
C988 H953 0.931 . S
C988 C987 1.393 . S
C988 C989 1.382 . S
C989 H954 0.929 . S
C989 C984 1.371 . S
C989 C988 1.382 . S
C990 N958 1.423 . S
C990 C991 1.362 . S
C990 C995 1.388 . S
C991 H955 0.929 . S
C991 C990 1.362 . S
C991 C992 1.376 . S
C992 H956 0.931 . S
C992 C991 1.376 . S
C992 C993 1.396 . S
C993 C975 1.472 . S
C993 C992 1.396 . S
C993 C994 1.348 . S
C994 H957 0.938 . S
C994 C993 1.348 . S
C994 C995 1.443 . S
C995 H959 0.932 1_565 S
C995 C990 1.388 . S
C995 C994 1.443 . S
H996 C1023 0.929 . S
N997 C1022 1.433 . S
N997 C1028 1.435 . S
N997 C1034 1.423 . S
H998 C1024 0.930 . S
H999 C1027 0.931 . S
H1000 C1026 0.929 . S
H1001 C1029 0.930 . S
H1002 C1030 0.932 . S
H1003 C1033 0.929 . S
H1004 C1032 0.931 . S
H1005 C1035 0.929 . S
H1006 C1039 0.932 . S
H1007 C1036 0.931 . S
H1008 C1038 0.922 1_545 S
H1009 C1041 0.929 . S
H1010 C1042 0.930 . S
H1011 C1044 0.970 . S
H1012 C1045 0.950 . S
H1013 C1047 0.930 . S
H1014 C1048 0.932 . S
H1015 C1050 0.931 . S
H1016 C1051 0.929 . S
H1017 C1053 0.929 . S
H1018 C1054 0.931 . S
H1019 C1056 0.873 1_545 S
N1020 C1040 1.433 . S
N1020 C1046 1.435 . S
N1020 C1052 1.423 . S
H1021 C1057 0.947 . S
C1022 N997 1.433 . S
C1022 C1023 1.363 . S
C1022 C1027 1.370 1_565 S
C1023 H996 0.929 . S
C1023 C1022 1.363 . S
C1023 C1024 1.385 . S
C1024 H998 0.930 . S
C1024 C1023 1.385 . S
C1024 C1025 1.357 . S
C1025 C1024 1.357 . S
C1025 C1026 1.406 1_565 S
C1026 H1000 0.929 . S
C1026 C1025 1.406 1_545 S
C1026 C1027 1.391 . S
C1027 H999 0.931 . S
C1027 C1022 1.370 1_545 S
C1027 C1026 1.391 . S
C1028 N997 1.435 . S
C1028 C1029 1.358 1_565 S
C1028 C1033 1.371 . S
C1029 H1001 0.930 . S
C1029 C1028 1.358 1_545 S
C1029 C1030 1.405 . S
C1030 H1002 0.932 . S
C1030 C1029 1.405 . S
C1030 C1031 1.383 . S
C1031 C1030 1.383 . S
C1031 C1032 1.393 1_545 S
C1032 H1004 0.931 . S
C1032 C1031 1.393 1_565 S
C1032 C1033 1.382 . S
C1033 H1003 0.929 . S
C1033 C1028 1.371 . S
C1033 C1032 1.382 . S
C1034 N997 1.423 . S
C1034 C1035 1.362 . S
C1034 C1039 1.388 1_565 S
C1035 H1005 0.929 . S
C1035 C1034 1.362 . S
C1035 C1036 1.376 . S
C1036 H1007 0.931 . S
C1036 C1035 1.376 . S
C1036 C1037 1.396 . S
C1037 C1036 1.396 . S
C1037 C1038 1.380 . S
C1037 C1055 1.472 . S
C1038 H1008 0.922 1_565 S
C1038 C1037 1.380 . S
C1038 C1039 1.419 1_565 S
C1039 H1006 0.932 . S
C1039 C1034 1.388 1_545 S
C1039 C1038 1.419 1_545 S
C1040 N1020 1.433 . S
C1040 C1041 1.363 . S
C1040 C1045 1.355 1_565 S
C1041 H1009 0.929 . S
C1041 C1040 1.363 . S
C1041 C1042 1.385 . S
C1042 H1010 0.930 . S
C1042 C1041 1.385 . S
C1042 C1043 1.357 . S
C1043 C1042 1.357 . S
C1043 C1044 1.358 1_565 S
C1044 H1011 0.970 . S
C1044 C1043 1.358 1_545 S
C1044 C1045 1.398 . S
C1045 H1012 0.950 . S
C1045 C1040 1.355 1_545 S
C1045 C1044 1.398 . S
C1046 N1020 1.435 . S
C1046 C1047 1.358 1_565 S
C1046 C1051 1.371 . S
C1047 H1013 0.930 . S
C1047 C1046 1.358 1_545 S
C1047 C1048 1.405 . S
C1048 H1014 0.932 . S
C1048 C1047 1.405 . S
C1048 C1049 1.383 . S
C1049 C1048 1.383 . S
C1049 C1050 1.393 1_545 S
C1050 H1015 0.931 . S
C1050 C1049 1.393 1_565 S
C1050 C1051 1.382 . S
C1051 H1016 0.929 . S
C1051 C1046 1.371 . S
C1051 C1050 1.382 . S
C1052 N1020 1.423 . S
C1052 C1053 1.362 . S
C1052 C1057 1.354 1_565 S
C1053 H1017 0.929 . S
C1053 C1052 1.362 . S
C1053 C1054 1.376 . S
C1054 H1018 0.931 . S
C1054 C1053 1.376 . S
C1054 C1055 1.396 . S
C1055 C1037 1.472 . S
C1055 C1054 1.396 . S
C1055 C1056 1.370 . S
C1056 H1019 0.873 1_565 S
C1056 C1055 1.370 . S
C1056 C1057 1.503 1_565 S
C1057 H1021 0.947 . S
C1057 C1052 1.354 1_545 S
C1057 C1056 1.503 1_545 S
H1058 C1085 0.929 . S
N1059 C1084 1.433 . S
N1059 C1090 1.435 . S
N1059 C1096 1.423 . S
H1060 C1086 0.930 . S
H1061 C1089 0.931 . S
H1062 C1088 0.929 . S
H1063 C1091 0.930 . S
H1064 C1092 0.932 . S
H1065 C1095 0.929 . S
H1066 C1094 0.931 . S
H1067 C1097 0.929 . S
H1068 C1101 0.932 1_455 S
H1069 C1098 0.931 . S
H1070 C1100 0.929 . S
H1071 C1103 0.929 . S
H1072 C1104 0.930 . S
H1073 C1106 0.929 . S
H1074 C1107 0.931 . S
H1075 C1109 0.930 . S
H1076 C1110 0.932 . S
H1077 C1112 0.931 . S
H1078 C1113 0.929 . S
H1079 C1115 0.929 . S
H1080 C1116 0.931 . S
H1081 C1118 0.941 . S
N1082 C1102 1.433 . S
N1082 C1108 1.435 . S
N1082 C1114 1.423 . S
H1083 C1119 0.932 1_455 S
C1084 N1059 1.433 . S
C1084 C1085 1.363 . S
C1084 C1089 1.370 1_655 S
C1085 H1058 0.929 . S
C1085 C1084 1.363 . S
C1085 C1086 1.385 . S
C1086 H1060 0.930 . S
C1086 C1085 1.385 . S
C1086 C1087 1.357 1_655 S
C1087 C1086 1.357 1_455 S
C1087 C1088 1.406 . S
C1088 H1062 0.929 . S
C1088 C1087 1.406 . S
C1088 C1089 1.391 . S
C1089 H1061 0.931 . S
C1089 C1084 1.370 1_455 S
C1089 C1088 1.391 . S
C1090 N1059 1.435 . S
C1090 C1091 1.358 1_655 S
C1090 C1095 1.371 . S
C1091 H1063 0.930 . S
C1091 C1090 1.358 1_455 S
C1091 C1092 1.405 . S
C1092 H1064 0.932 . S
C1092 C1091 1.405 . S
C1092 C1093 1.383 1_455 S
C1093 C1092 1.383 1_655 S
C1093 C1094 1.393 . S
C1094 H1066 0.931 . S
C1094 C1093 1.393 . S
C1094 C1095 1.382 . S
C1095 H1065 0.929 . S
C1095 C1090 1.371 . S
C1095 C1094 1.382 . S
C1096 N1059 1.423 . S
C1096 C1097 1.362 . S
C1096 C1101 1.388 . S
C1097 H1067 0.929 . S
C1097 C1096 1.362 . S
C1097 C1098 1.376 . S
C1098 H1069 0.931 . S
C1098 C1097 1.376 . S
C1098 C1099 1.396 . S
C1099 C1098 1.396 . S
C1099 C1100 1.348 . S
C1099 C1117 1.472 . S
C1100 H1070 0.929 . S
C1100 C1099 1.348 . S
C1100 C1101 1.443 . S
C1101 H1068 0.932 1_655 S
C1101 C1096 1.388 . S
C1101 C1100 1.443 . S
C1102 N1082 1.433 . S
C1102 C1103 1.363 . S
C1102 C1107 1.370 1_655 S
C1103 H1071 0.929 . S
C1103 C1102 1.363 . S
C1103 C1104 1.385 . S
C1104 H1072 0.930 . S
C1104 C1103 1.385 . S
C1104 C1105 1.357 1_655 S
C1105 C1104 1.357 1_455 S
C1105 C1106 1.406 . S
C1106 H1073 0.929 . S
C1106 C1105 1.406 . S
C1106 C1107 1.391 . S
C1107 H1074 0.931 . S
C1107 C1102 1.370 1_455 S
C1107 C1106 1.391 . S
C1108 N1082 1.435 . S
C1108 C1109 1.358 1_655 S
C1108 C1113 1.371 . S
C1109 H1075 0.930 . S
C1109 C1108 1.358 1_455 S
C1109 C1110 1.405 . S
C1110 H1076 0.932 . S
C1110 C1109 1.405 . S
C1110 C1111 1.383 1_455 S
C1111 C1110 1.383 1_655 S
C1111 C1112 1.393 . S
C1112 H1077 0.931 . S
C1112 C1111 1.393 . S
C1112 C1113 1.382 . S
C1113 H1078 0.929 . S
C1113 C1108 1.371 . S
C1113 C1112 1.382 . S
C1114 N1082 1.423 . S
C1114 C1115 1.362 . S
C1114 C1119 1.388 . S
C1115 H1079 0.929 . S
C1115 C1114 1.362 . S
C1115 C1116 1.376 . S
C1116 H1080 0.931 . S
C1116 C1115 1.376 . S
C1116 C1117 1.396 . S
C1117 C1099 1.472 . S
C1117 C1116 1.396 . S
C1117 C1118 1.348 . S
C1118 H1081 0.941 . S
C1118 C1117 1.348 . S
C1118 C1119 1.443 . S
C1119 H1083 0.932 1_655 S
C1119 C1114 1.388 . S
C1119 C1118 1.443 . S
H1120 C1147 0.929 . S
N1121 C1146 1.433 . S
N1121 C1152 1.435 . S
N1121 C1158 1.423 . S
H1122 C1148 0.930 . S
H1123 C1151 0.931 . S
H1124 C1150 0.929 . S
H1125 C1153 0.930 . S
H1126 C1154 0.932 . S
H1127 C1157 0.929 . S
H1128 C1156 0.931 . S
H1129 C1159 0.929 . S
H1130 C1163 0.932 . S
H1131 C1160 0.931 . S
H1132 C1162 0.929 . S
H1133 C1165 0.929 . S
H1134 C1166 0.930 . S
H1135 C1168 0.929 . S
H1136 C1169 0.931 . S
H1137 C1171 0.930 . S
H1138 C1172 0.932 . S
H1139 C1174 0.931 . S
H1140 C1175 0.929 . S
H1141 C1177 0.929 . S
H1142 C1178 0.931 . S
H1143 C1180 0.929 . S
N1144 C1164 1.433 . S
N1144 C1170 1.435 . S
N1144 C1176 1.423 . S
H1145 C1181 0.932 . S
C1146 N1121 1.433 . S
C1146 C1147 1.363 . S
C1146 C1151 1.370 . S
C1147 H1120 0.929 . S
C1147 C1146 1.363 . S
C1147 C1148 1.385 . S
C1148 H1122 0.930 . S
C1148 C1147 1.385 . S
C1148 C1149 1.357 . S
C1149 C1148 1.357 . S
C1149 C1150 1.406 . S
C1150 H1124 0.929 . S
C1150 C1149 1.406 . S
C1150 C1151 1.391 . S
C1151 H1123 0.931 . S
C1151 C1146 1.370 . S
C1151 C1150 1.391 . S
C1152 N1121 1.435 . S
C1152 C1153 1.358 . S
C1152 C1157 1.371 . S
C1153 H1125 0.930 . S
C1153 C1152 1.358 . S
C1153 C1154 1.405 . S
C1154 H1126 0.932 . S
C1154 C1153 1.405 . S
C1154 C1155 1.383 . S
C1155 C1154 1.383 . S
C1155 C1156 1.393 . S
C1156 H1128 0.931 . S
C1156 C1155 1.393 . S
C1156 C1157 1.382 . S
C1157 H1127 0.929 . S
C1157 C1152 1.371 . S
C1157 C1156 1.382 . S
C1158 N1121 1.423 . S
C1158 C1159 1.362 . S
C1158 C1163 1.388 . S
C1159 H1129 0.929 . S
C1159 C1158 1.362 . S
C1159 C1160 1.376 . S
C1160 H1131 0.931 . S
C1160 C1159 1.376 . S
C1160 C1161 1.396 . S
C1161 C1160 1.396 . S
C1161 C1162 1.348 . S
C1161 C1179 1.472 . S
C1162 H1132 0.929 . S
C1162 C1161 1.348 . S
C1162 C1163 1.443 . S
C1163 H1130 0.932 . S
C1163 C1158 1.388 . S
C1163 C1162 1.443 . S
C1164 N1144 1.433 . S
C1164 C1165 1.363 . S
C1164 C1169 1.370 . S
C1165 H1133 0.929 . S
C1165 C1164 1.363 . S
C1165 C1166 1.385 . S
C1166 H1134 0.930 . S
C1166 C1165 1.385 . S
C1166 C1167 1.357 . S
C1167 C1166 1.357 . S
C1167 C1168 1.406 . S
C1168 H1135 0.929 . S
C1168 C1167 1.406 . S
C1168 C1169 1.391 . S
C1169 H1136 0.931 . S
C1169 C1164 1.370 . S
C1169 C1168 1.391 . S
C1170 N1144 1.435 . S
C1170 C1171 1.358 . S
C1170 C1175 1.371 . S
C1171 H1137 0.930 . S
C1171 C1170 1.358 . S
C1171 C1172 1.405 . S
C1172 H1138 0.932 . S
C1172 C1171 1.405 . S
C1172 C1173 1.383 . S
C1173 C1172 1.383 . S
C1173 C1174 1.393 . S
C1174 H1139 0.931 . S
C1174 C1173 1.393 . S
C1174 C1175 1.382 . S
C1175 H1140 0.929 . S
C1175 C1170 1.371 . S
C1175 C1174 1.382 . S
C1176 N1144 1.423 . S
C1176 C1177 1.362 . S
C1176 C1181 1.388 . S
C1177 H1141 0.929 . S
C1177 C1176 1.362 . S
C1177 C1178 1.376 . S
C1178 H1142 0.931 . S
C1178 C1177 1.376 . S
C1178 C1179 1.396 . S
C1179 C1161 1.472 . S
C1179 C1178 1.396 . S
C1179 C1180 1.348 . S
C1180 H1143 0.929 . S
C1180 C1179 1.348 . S
C1180 C1181 1.443 . S
C1181 H1145 0.932 . S
C1181 C1176 1.388 . S
C1181 C1180 1.443 . S
H1182 C1209 0.929 . S
N1183 C1208 1.433 . S
N1183 C1214 1.435 . S
N1183 C1220 1.423 . S
H1184 C1210 0.930 . S
H1185 C1213 0.931 . S
H1186 C1212 0.929 . S
H1187 C1215 0.930 . S
H1188 C1216 0.932 . S
H1189 C1219 0.929 . S
H1190 C1218 0.931 . S
H1191 C1221 0.929 . S
H1192 C1225 0.932 . S
H1193 C1222 0.931 . S
H1194 C1224 0.929 . S
H1195 C1227 0.929 . S
H1196 C1228 0.930 . S
H1197 C1230 0.929 . S
H1198 C1231 0.931 . S
H1199 C1233 0.930 . S
H1200 C1234 0.932 . S
H1201 C1236 0.931 . S
H1202 C1237 0.929 . S
H1203 C1239 0.929 . S
H1204 C1240 0.931 . S
H1205 C1242 0.929 . S
N1206 C1226 1.433 . S
N1206 C1232 1.435 . S
N1206 C1238 1.423 . S
H1207 C1243 0.932 . S
C1208 N1183 1.433 . S
C1208 C1209 1.363 . S
C1208 C1213 1.370 . S
C1209 H1182 0.929 . S
C1209 C1208 1.363 . S
C1209 C1210 1.385 . S
C1210 H1184 0.930 . S
C1210 C1209 1.385 . S
C1210 C1211 1.357 . S
C1211 C1210 1.357 . S
C1211 C1212 1.406 . S
C1212 H1186 0.929 . S
C1212 C1211 1.406 . S
C1212 C1213 1.391 . S
C1213 H1185 0.931 . S
C1213 C1208 1.370 . S
C1213 C1212 1.391 . S
C1214 N1183 1.435 . S
C1214 C1215 1.358 . S
C1214 C1219 1.371 . S
C1215 H1187 0.930 . S
C1215 C1214 1.358 . S
C1215 C1216 1.405 . S
C1216 H1188 0.932 . S
C1216 C1215 1.405 . S
C1216 C1217 1.383 . S
C1217 C1216 1.383 . S
C1217 C1218 1.393 . S
C1218 H1190 0.931 . S
C1218 C1217 1.393 . S
C1218 C1219 1.382 . S
C1219 H1189 0.929 . S
C1219 C1214 1.371 . S
C1219 C1218 1.382 . S
C1220 N1183 1.423 . S
C1220 C1221 1.362 . S
C1220 C1225 1.388 . S
C1221 H1191 0.929 . S
C1221 C1220 1.362 . S
C1221 C1222 1.376 . S
C1222 H1193 0.931 . S
C1222 C1221 1.376 . S
C1222 C1223 1.396 . S
C1223 C1222 1.396 . S
C1223 C1224 1.348 . S
C1223 C1241 1.472 . S
C1224 H1194 0.929 . S
C1224 C1223 1.348 . S
C1224 C1225 1.443 . S
C1225 H1192 0.932 . S
C1225 C1220 1.388 . S
C1225 C1224 1.443 . S
C1226 N1206 1.433 . S
C1226 C1227 1.363 . S
C1226 C1231 1.370 . S
C1227 H1195 0.929 . S
C1227 C1226 1.363 . S
C1227 C1228 1.385 . S
C1228 H1196 0.930 . S
C1228 C1227 1.385 . S
C1228 C1229 1.357 . S
C1229 C1228 1.357 . S
C1229 C1230 1.406 . S
C1230 H1197 0.929 . S
C1230 C1229 1.406 . S
C1230 C1231 1.391 . S
C1231 H1198 0.931 . S
C1231 C1226 1.370 . S
C1231 C1230 1.391 . S
C1232 N1206 1.435 . S
C1232 C1233 1.358 . S
C1232 C1237 1.371 . S
C1233 H1199 0.930 . S
C1233 C1232 1.358 . S
C1233 C1234 1.405 . S
C1234 H1200 0.932 . S
C1234 C1233 1.405 . S
C1234 C1235 1.383 . S
C1235 C1234 1.383 . S
C1235 C1236 1.393 . S
C1236 H1201 0.931 . S
C1236 C1235 1.393 . S
C1236 C1237 1.382 . S
C1237 H1202 0.929 . S
C1237 C1232 1.371 . S
C1237 C1236 1.382 . S
C1238 N1206 1.423 . S
C1238 C1239 1.362 . S
C1238 C1243 1.388 . S
C1239 H1203 0.929 . S
C1239 C1238 1.362 . S
C1239 C1240 1.376 . S
C1240 H1204 0.931 . S
C1240 C1239 1.376 . S
C1240 C1241 1.396 . S
C1241 C1223 1.472 . S
C1241 C1240 1.396 . S
C1241 C1242 1.348 . S
C1242 H1205 0.929 . S
C1242 C1241 1.348 . S
C1242 C1243 1.443 . S
C1243 H1207 0.932 . S
C1243 C1238 1.388 . S
C1243 C1242 1.443 . S
H1244 C1271 0.929 . S
N1245 C1270 1.433 . S
N1245 C1276 1.435 . S
N1245 C1282 1.423 . S
H1246 C1272 0.930 . S
H1247 C1275 0.931 . S
H1248 C1274 0.929 . S
H1249 C1277 0.930 . S
H1250 C1278 0.932 . S
H1251 C1281 0.929 . S
H1252 C1280 0.931 . S
H1253 C1283 0.929 . S
H1254 C1287 0.932 . S
H1255 C1284 0.931 . S
H1256 C1286 0.929 . S
H1257 C1289 0.929 . S
H1258 C1290 0.930 . S
H1259 C1292 0.929 . S
H1260 C1293 0.931 . S
H1261 C1295 0.930 . S
H1262 C1296 0.932 . S
H1263 C1298 0.931 . S
H1264 C1299 0.929 . S
H1265 C1301 0.929 . S
H1266 C1302 0.931 . S
H1267 C1304 0.929 . S
N1268 C1288 1.433 . S
N1268 C1294 1.435 . S
N1268 C1300 1.423 . S
H1269 C1305 0.932 . S
C1270 N1245 1.433 . S
C1270 C1271 1.363 . S
C1270 C1275 1.370 . S
C1271 H1244 0.929 . S
C1271 C1270 1.363 . S
C1271 C1272 1.385 . S
C1272 H1246 0.930 . S
C1272 C1271 1.385 . S
C1272 C1273 1.357 . S
C1273 C1272 1.357 . S
C1273 C1274 1.406 . S
C1274 H1248 0.929 . S
C1274 C1273 1.406 . S
C1274 C1275 1.391 . S
C1275 H1247 0.931 . S
C1275 C1270 1.370 . S
C1275 C1274 1.391 . S
C1276 N1245 1.435 . S
C1276 C1277 1.358 . S
C1276 C1281 1.371 . S
C1277 H1249 0.930 . S
C1277 C1276 1.358 . S
C1277 C1278 1.405 . S
C1278 H1250 0.932 . S
C1278 C1277 1.405 . S
C1278 C1279 1.383 . S
C1279 C1278 1.383 . S
C1279 C1280 1.393 . S
C1280 H1252 0.931 . S
C1280 C1279 1.393 . S
C1280 C1281 1.382 . S
C1281 H1251 0.929 . S
C1281 C1276 1.371 . S
C1281 C1280 1.382 . S
C1282 N1245 1.423 . S
C1282 C1283 1.362 . S
C1282 C1287 1.388 . S
C1283 H1253 0.929 . S
C1283 C1282 1.362 . S
C1283 C1284 1.376 . S
C1284 H1255 0.931 . S
C1284 C1283 1.376 . S
C1284 C1285 1.396 . S
C1285 C1284 1.396 . S
C1285 C1286 1.348 . S
C1285 C1303 1.472 . S
C1286 H1256 0.929 . S
C1286 C1285 1.348 . S
C1286 C1287 1.443 . S
C1287 H1254 0.932 . S
C1287 C1282 1.388 . S
C1287 C1286 1.443 . S
C1288 N1268 1.433 . S
C1288 C1289 1.363 . S
C1288 C1293 1.370 . S
C1289 H1257 0.929 . S
C1289 C1288 1.363 . S
C1289 C1290 1.385 . S
C1290 H1258 0.930 . S
C1290 C1289 1.385 . S
C1290 C1291 1.357 . S
C1291 C1290 1.357 . S
C1291 C1292 1.406 . S
C1292 H1259 0.929 . S
C1292 C1291 1.406 . S
C1292 C1293 1.391 . S
C1293 H1260 0.931 . S
C1293 C1288 1.370 . S
C1293 C1292 1.391 . S
C1294 N1268 1.435 . S
C1294 C1295 1.358 . S
C1294 C1299 1.371 . S
C1295 H1261 0.930 . S
C1295 C1294 1.358 . S
C1295 C1296 1.405 . S
C1296 H1262 0.932 . S
C1296 C1295 1.405 . S
C1296 C1297 1.383 . S
C1297 C1296 1.383 . S
C1297 C1298 1.393 . S
C1298 H1263 0.931 . S
C1298 C1297 1.393 . S
C1298 C1299 1.382 . S
C1299 H1264 0.929 . S
C1299 C1294 1.371 . S
C1299 C1298 1.382 . S
C1300 N1268 1.423 . S
C1300 C1301 1.362 . S
C1300 C1305 1.388 . S
C1301 H1265 0.929 . S
C1301 C1300 1.362 . S
C1301 C1302 1.376 . S
C1302 H1266 0.931 . S
C1302 C1301 1.376 . S
C1302 C1303 1.396 . S
C1303 C1285 1.472 . S
C1303 C1302 1.396 . S
C1303 C1304 1.348 . S
C1304 H1267 0.929 . S
C1304 C1303 1.348 . S
C1304 C1305 1.443 . S
C1305 H1269 0.932 . S
C1305 C1300 1.388 . S
C1305 C1304 1.443 . S
H1306 C1333 0.929 . S
N1307 C1332 1.433 . S
N1307 C1338 1.435 . S
N1307 C1344 1.423 . S
H1308 C1334 0.930 . S
H1309 C1337 0.931 . S
H1310 C1336 0.929 . S
H1311 C1339 0.930 . S
H1312 C1340 0.932 . S
H1313 C1343 0.929 . S
H1314 C1342 0.931 . S
H1315 C1345 0.929 . S
H1316 C1349 0.932 . S
H1317 C1346 0.931 . S
H1318 C1348 0.929 . S
H1319 C1351 0.929 . S
H1320 C1352 0.930 . S
H1321 C1354 0.929 . S
H1322 C1355 0.931 . S
H1323 C1357 0.930 . S
H1324 C1358 0.932 . S
H1325 C1360 0.931 . S
H1326 C1361 0.929 . S
H1327 C1363 0.929 . S
H1328 C1364 0.931 . S
H1329 C1366 0.929 . S
N1330 C1350 1.433 . S
N1330 C1356 1.435 . S
N1330 C1362 1.423 . S
H1331 C1367 0.932 . S
C1332 N1307 1.433 . S
C1332 C1333 1.363 . S
C1332 C1337 1.370 . S
C1333 H1306 0.929 . S
C1333 C1332 1.363 . S
C1333 C1334 1.385 . S
C1334 H1308 0.930 . S
C1334 C1333 1.385 . S
C1334 C1335 1.357 . S
C1335 C1334 1.357 . S
C1335 C1336 1.406 . S
C1336 H1310 0.929 . S
C1336 C1335 1.406 . S
C1336 C1337 1.391 . S
C1337 H1309 0.931 . S
C1337 C1332 1.370 . S
C1337 C1336 1.391 . S
C1338 N1307 1.435 . S
C1338 C1339 1.358 . S
C1338 C1343 1.371 . S
C1339 H1311 0.930 . S
C1339 C1338 1.358 . S
C1339 C1340 1.405 . S
C1340 H1312 0.932 . S
C1340 C1339 1.405 . S
C1340 C1341 1.383 . S
C1341 C1340 1.383 . S
C1341 C1342 1.393 . S
C1342 H1314 0.931 . S
C1342 C1341 1.393 . S
C1342 C1343 1.382 . S
C1343 H1313 0.929 . S
C1343 C1338 1.371 . S
C1343 C1342 1.382 . S
C1344 N1307 1.423 . S
C1344 C1345 1.362 . S
C1344 C1349 1.388 . S
C1345 H1315 0.929 . S
C1345 C1344 1.362 . S
C1345 C1346 1.376 . S
C1346 H1317 0.931 . S
C1346 C1345 1.376 . S
C1346 C1347 1.396 . S
C1347 C1346 1.396 . S
C1347 C1348 1.348 . S
C1347 C1365 1.472 . S
C1348 H1318 0.929 . S
C1348 C1347 1.348 . S
C1348 C1349 1.443 . S
C1349 H1316 0.932 . S
C1349 C1344 1.388 . S
C1349 C1348 1.443 . S
C1350 N1330 1.433 . S
C1350 C1351 1.363 . S
C1350 C1355 1.370 . S
C1351 H1319 0.929 . S
C1351 C1350 1.363 . S
C1351 C1352 1.385 . S
C1352 H1320 0.930 . S
C1352 C1351 1.385 . S
C1352 C1353 1.357 . S
C1353 C1352 1.357 . S
C1353 C1354 1.406 . S
C1354 H1321 0.929 . S
C1354 C1353 1.406 . S
C1354 C1355 1.391 . S
C1355 H1322 0.931 . S
C1355 C1350 1.370 . S
C1355 C1354 1.391 . S
C1356 N1330 1.435 . S
C1356 C1357 1.358 . S
C1356 C1361 1.371 . S
C1357 H1323 0.930 . S
C1357 C1356 1.358 . S
C1357 C1358 1.405 . S
C1358 H1324 0.932 . S
C1358 C1357 1.405 . S
C1358 C1359 1.383 . S
C1359 C1358 1.383 . S
C1359 C1360 1.393 . S
C1360 H1325 0.931 . S
C1360 C1359 1.393 . S
C1360 C1361 1.382 . S
C1361 H1326 0.929 . S
C1361 C1356 1.371 . S
C1361 C1360 1.382 . S
C1362 N1330 1.423 . S
C1362 C1363 1.362 . S
C1362 C1367 1.388 . S
C1363 H1327 0.929 . S
C1363 C1362 1.362 . S
C1363 C1364 1.376 . S
C1364 H1328 0.931 . S
C1364 C1363 1.376 . S
C1364 C1365 1.396 . S
C1365 C1347 1.472 . S
C1365 C1364 1.396 . S
C1365 C1366 1.348 . S
C1366 H1329 0.929 . S
C1366 C1365 1.348 . S
C1366 C1367 1.443 . S
C1367 H1331 0.932 . S
C1367 C1362 1.388 . S
C1367 C1366 1.443 . S
C1368 C1369 1.349 1_455 S
C1368 C1370 1.327 . S
C1368 H1393 0.950 . S
C1369 C1368 1.349 1_655 S
C1369 C1385 1.349 . S
C1370 C1368 1.327 . S
C1370 C1389 1.429 1_455 S
C1370 H1394 0.950 . S
C1371 C1388 1.574 . S
C1371 C1390 1.368 . S
C1371 H1395 0.949 . S
H1372 C1376 0.949 . S
C1373 C1374 1.349 . S
C1373 C1375 1.327 . S
C1373 H1396 0.950 . S
C1374 C1373 1.349 . S
C1374 C1386 1.349 1_655 S
C1375 C1373 1.327 . S
C1375 C1391 1.429 . S
C1375 H1397 0.950 . S
C1376 H1372 0.949 . S
C1376 C1384 1.574 . S
C1376 C1392 1.368 1_455 S
H1377 C1385 0.950 . S
H1378 C1383 0.950 . S
H1379 C1384 0.949 . S
H1380 C1386 0.950 . S
H1381 C1387 0.950 . S
H1382 C1388 0.949 . S
C1383 H1378 0.950 . S
C1383 C1385 1.327 . S
C1383 C1389 1.429 . S
C1384 C1376 1.574 . S
C1384 H1379 0.949 . S
C1384 C1390 1.368 1_455 S
C1385 C1369 1.349 . S
C1385 H1377 0.950 . S
C1385 C1383 1.327 . S
C1386 C1374 1.349 1_455 S
C1386 H1380 0.950 . S
C1386 C1387 1.327 . S
C1387 H1381 0.950 . S
C1387 C1386 1.327 . S
C1387 C1391 1.429 1_455 S
C1388 C1371 1.574 . S
C1388 H1382 0.949 . S
C1388 C1392 1.368 . S
C1389 C1370 1.429 1_655 S
C1389 C1383 1.429 . S
C1389 C1390 1.523 . S
C1390 C1371 1.368 . S
C1390 C1384 1.368 1_655 S
C1390 C1389 1.523 . S
C1391 C1375 1.429 . S
C1391 C1387 1.429 1_655 S
C1391 C1392 1.523 . S
C1392 C1376 1.368 1_655 S
C1392 C1388 1.368 . S
C1392 C1391 1.523 . S
H1393 C1368 0.950 . S
H1394 C1370 0.950 . S
H1395 C1371 0.949 . S
H1396 C1373 0.950 . S
H1397 C1375 0.950 . S
C1398 C1399 1.349 . S
C1398 C1400 1.327 . S
C1398 H1423 0.950 . S
C1399 C1398 1.349 . S
C1399 C1415 1.349 . S
C1400 C1398 1.327 . S
C1400 C1419 1.429 . S
C1400 H1424 0.950 . S
C1401 C1418 1.574 . S
C1401 C1420 1.368 . S
C1401 H1425 0.949 . S
H1402 C1406 0.949 . S
C1403 C1404 1.349 . S
C1403 C1405 1.327 . S
C1403 H1426 0.950 . S
C1404 C1403 1.349 . S
C1404 C1416 1.349 . S
C1405 C1403 1.327 . S
C1405 C1421 1.429 . S
C1405 H1427 0.950 . S
C1406 H1402 0.949 . S
C1406 C1414 1.574 . S
C1406 C1422 1.368 . S
H1407 C1415 0.950 . S
H1408 C1413 0.950 . S
H1409 C1414 0.949 . S
H1410 C1416 0.950 . S
H1411 C1417 0.950 . S
H1412 C1418 0.949 . S
C1413 H1408 0.950 . S
C1413 C1415 1.327 . S
C1413 C1419 1.429 . S
C1414 C1406 1.574 . S
C1414 H1409 0.949 . S
C1414 C1420 1.368 . S
C1415 C1399 1.349 . S
C1415 H1407 0.950 . S
C1415 C1413 1.327 . S
C1416 C1404 1.349 . S
C1416 H1410 0.950 . S
C1416 C1417 1.327 . S
C1417 H1411 0.950 . S
C1417 C1416 1.327 . S
C1417 C1421 1.429 . S
C1418 C1401 1.574 . S
C1418 H1412 0.949 . S
C1418 C1422 1.368 . S
C1419 C1400 1.429 . S
C1419 C1413 1.429 . S
C1419 C1420 1.523 . S
C1420 C1401 1.368 . S
C1420 C1414 1.368 . S
C1420 C1419 1.523 . S
C1421 C1405 1.429 . S
C1421 C1417 1.429 . S
C1421 C1422 1.523 . S
C1422 C1406 1.368 . S
C1422 C1418 1.368 . S
C1422 C1421 1.523 . S
H1423 C1398 0.950 . S
H1424 C1400 0.950 . S
H1425 C1401 0.949 . S
H1426 C1403 0.950 . S
H1427 C1405 0.950 . S
C1428 C1429 1.349 . S
C1428 C1430 1.327 . S
C1428 H1453 0.949 1_545 S
C1429 C1428 1.349 . S
C1429 C1445 1.349 . S
C1430 C1428 1.327 . S
C1430 C1449 1.429 . S
C1430 H1454 0.873 1_545 S
C1431 C1448 1.574 . S
C1431 C1450 1.368 . S
C1431 H1455 0.949 . S
H1432 C1436 0.949 1_565 S
C1433 C1434 1.349 . S
C1433 C1435 1.327 . S
C1433 H1456 0.950 . S
C1434 C1433 1.349 . S
C1434 C1446 1.388 . S
C1435 C1433 1.327 . S
C1435 C1451 1.429 . S
C1435 H1457 0.950 . S
C1436 H1432 0.949 1_545 S
C1436 C1444 1.574 . S
C1436 C1452 1.368 . S
H1437 C1445 0.950 . S
H1438 C1443 0.950 . S
H1439 C1444 0.949 1_565 S
H1440 C1446 0.881 1_565 S
H1441 C1447 0.906 1_565 S
H1442 C1448 0.949 . S
C1443 H1438 0.950 . S
C1443 C1445 1.327 . S
C1443 C1449 1.429 . S
C1444 C1436 1.574 . S
C1444 H1439 0.949 1_545 S
C1444 C1450 1.368 . S
C1445 C1429 1.349 . S
C1445 H1437 0.950 . S
C1445 C1443 1.327 . S
C1446 C1434 1.388 . S
C1446 H1440 0.881 1_545 S
C1446 C1447 1.318 . S
C1447 H1441 0.906 1_545 S
C1447 C1446 1.318 . S
C1447 C1451 1.520 . S
C1448 C1431 1.574 . S
C1448 H1442 0.949 . S
C1448 C1452 1.368 . S
C1449 C1430 1.429 . S
C1449 C1443 1.429 . S
C1449 C1450 1.523 . S
C1450 C1431 1.368 . S
C1450 C1444 1.368 . S
C1450 C1449 1.523 . S
C1451 C1435 1.429 . S
C1451 C1447 1.520 . S
C1451 C1452 1.523 . S
C1452 C1436 1.368 . S
C1452 C1448 1.368 . S
C1452 C1451 1.523 . S
H1453 C1428 0.949 1_565 S
H1454 C1430 0.873 1_565 S
H1455 C1431 0.949 . S
H1456 C1433 0.950 . S
H1457 C1435 0.950 . S
C1458 C1459 1.350 . S
C1458 C1460 1.327 . S
C1458 H1483 0.950 . S
C1459 C1458 1.350 . S
C1459 C1475 1.347 1_545 S
C1460 C1458 1.327 . S
C1460 C1479 1.377 1_545 S
C1460 H1484 0.950 . S
C1461 C1478 1.574 . S
C1461 C1480 1.368 . S
C1461 H1485 0.949 . S
H1462 C1466 0.949 . S
C1463 C1464 1.349 . S
C1463 C1465 1.327 . S
C1463 H1486 0.950 . S
C1464 C1463 1.349 . S
C1464 C1476 1.349 1_565 S
C1465 C1463 1.327 . S
C1465 C1481 1.429 . S
C1465 H1487 0.950 . S
C1466 H1462 0.949 . S
C1466 C1474 1.574 . S
C1466 C1482 1.368 1_545 S
H1467 C1475 0.950 . S
H1468 C1473 0.950 . S
H1469 C1474 0.949 . S
H1470 C1476 0.950 . S
H1471 C1477 0.950 . S
H1472 C1478 0.949 . S
C1473 H1468 0.950 . S
C1473 C1475 1.327 . S
C1473 C1479 1.448 . S
C1474 C1466 1.574 . S
C1474 H1469 0.949 . S
C1474 C1480 1.368 1_545 S
C1475 C1459 1.347 1_565 S
C1475 H1467 0.950 . S
C1475 C1473 1.327 . S
C1476 C1464 1.349 1_545 S
C1476 H1470 0.950 . S
C1476 C1477 1.327 . S
C1477 H1471 0.950 . S
C1477 C1476 1.327 . S
C1477 C1481 1.429 1_545 S
C1478 C1461 1.574 . S
C1478 H1472 0.949 . S
C1478 C1482 1.368 . S
C1479 C1460 1.377 1_565 S
C1479 C1473 1.448 . S
C1479 C1480 1.557 . S
C1480 C1461 1.368 . S
C1480 C1474 1.368 1_565 S
C1480 C1479 1.557 . S
C1481 C1465 1.429 . S
C1481 C1477 1.429 1_565 S
C1481 C1482 1.523 . S
C1482 C1466 1.368 1_565 S
C1482 C1478 1.368 . S
C1482 C1481 1.523 . S
H1483 C1458 0.950 . S
H1484 C1460 0.950 . S
H1485 C1461 0.949 . S
H1486 C1463 0.950 . S
H1487 C1465 0.950 . S
C1488 C1489 1.349 . S
C1488 C1490 1.327 . S
C1488 H1513 0.950 . S
C1489 C1488 1.349 . S
C1489 C1505 1.349 1_455 S
C1490 C1488 1.327 . S
C1490 C1509 1.429 . S
C1490 H1514 0.950 . S
C1491 C1508 1.574 . S
C1491 C1510 1.368 1_655 S
C1491 H1515 0.949 . S
H1492 C1496 0.949 . S
C1493 C1494 1.349 1_655 S
C1493 C1495 1.327 . S
C1493 H1516 0.950 . S
C1494 C1493 1.349 1_455 S
C1494 C1506 1.349 . S
C1495 C1493 1.327 . S
C1495 C1511 1.429 1_655 S
C1495 H1517 0.950 . S
C1496 H1492 0.949 . S
C1496 C1504 1.574 . S
C1496 C1512 1.368 . S
H1497 C1505 0.950 . S
H1498 C1503 0.950 . S
H1499 C1504 0.949 . S
H1500 C1506 0.950 . S
H1501 C1507 0.950 . S
H1502 C1508 0.949 . S
C1503 H1498 0.950 . S
C1503 C1505 1.327 . S
C1503 C1509 1.429 1_655 S
C1504 C1496 1.574 . S
C1504 H1499 0.949 . S
C1504 C1510 1.368 . S
C1505 C1489 1.349 1_655 S
C1505 H1497 0.950 . S
C1505 C1503 1.327 . S
C1506 C1494 1.349 . S
C1506 H1500 0.950 . S
C1506 C1507 1.327 . S
C1507 H1501 0.950 . S
C1507 C1506 1.327 . S
C1507 C1511 1.429 . S
C1508 C1491 1.574 . S
C1508 H1502 0.949 . S
C1508 C1512 1.368 1_655 S
C1509 C1490 1.429 . S
C1509 C1503 1.429 1_455 S
C1509 C1510 1.523 . S
C1510 C1491 1.368 1_455 S
C1510 C1504 1.368 . S
C1510 C1509 1.523 . S
C1511 C1495 1.429 1_455 S
C1511 C1507 1.429 . S
C1511 C1512 1.523 . S
C1512 C1496 1.368 . S
C1512 C1508 1.368 1_455 S
C1512 C1511 1.523 . S
H1513 C1488 0.950 . S
H1514 C1490 0.950 . S
H1515 C1491 0.949 . S
H1516 C1493 0.950 . S
H1517 C1495 0.950 . S
C1518 C1519 1.349 . S
C1518 C1520 1.327 . S
C1518 H1543 0.950 . S
C1519 C1518 1.349 . S
C1519 C1535 1.349 . S
C1520 C1518 1.327 . S
C1520 C1539 1.429 . S
C1520 H1544 0.950 . S
C1521 C1538 1.574 . S
C1521 C1540 1.368 . S
C1521 H1545 0.949 . S
H1522 C1526 0.949 . S
C1523 C1524 1.349 . S
C1523 C1525 1.327 . S
C1523 H1546 0.950 . S
C1524 C1523 1.349 . S
C1524 C1536 1.349 . S
C1525 C1523 1.327 . S
C1525 C1541 1.429 . S
C1525 H1547 0.950 . S
C1526 H1522 0.949 . S
C1526 C1534 1.574 . S
C1526 C1542 1.368 . S
H1527 C1535 0.950 . S
H1528 C1533 0.950 . S
H1529 C1534 0.949 . S
H1530 C1536 0.950 . S
H1531 C1537 0.950 . S
H1532 C1538 0.949 . S
C1533 H1528 0.950 . S
C1533 C1535 1.327 . S
C1533 C1539 1.429 . S
C1534 C1526 1.574 . S
C1534 H1529 0.949 . S
C1534 C1540 1.368 . S
C1535 C1519 1.349 . S
C1535 H1527 0.950 . S
C1535 C1533 1.327 . S
C1536 C1524 1.349 . S
C1536 H1530 0.950 . S
C1536 C1537 1.327 . S
C1537 H1531 0.950 . S
C1537 C1536 1.327 . S
C1537 C1541 1.429 . S
C1538 C1521 1.574 . S
C1538 H1532 0.949 . S
C1538 C1542 1.368 . S
C1539 C1520 1.429 . S
C1539 C1533 1.429 . S
C1539 C1540 1.523 . S
C1540 C1521 1.368 . S
C1540 C1534 1.368 . S
C1540 C1539 1.523 . S
C1541 C1525 1.429 . S
C1541 C1537 1.429 . S
C1541 C1542 1.523 . S
C1542 C1526 1.368 . S
C1542 C1538 1.368 . S
C1542 C1541 1.523 . S
H1543 C1518 0.950 . S
H1544 C1520 0.950 . S
H1545 C1521 0.949 . S
H1546 C1523 0.950 . S
H1547 C1525 0.950 . S
C1548 C1549 1.349 . S
C1548 C1550 1.327 . S
C1548 H1573 0.950 . S
C1549 C1548 1.349 . S
C1549 C1565 1.349 1_455 S
C1550 C1548 1.327 . S
C1550 C1569 1.429 . S
C1550 H1574 0.950 . S
C1551 C1568 1.574 . S
C1551 C1570 1.368 1_655 S
C1551 H1575 0.949 . S
H1552 C1556 0.949 . S
C1553 C1554 1.349 1_655 S
C1553 C1555 1.327 . S
C1553 H1576 0.950 . S
C1554 C1553 1.349 1_455 S
C1554 C1566 1.349 . S
C1555 C1553 1.327 . S
C1555 C1571 1.429 1_655 S
C1555 H1577 0.950 . S
C1556 H1552 0.949 . S
C1556 C1564 1.574 . S
C1556 C1572 1.368 . S
H1557 C1565 0.950 . S
H1558 C1563 0.950 . S
H1559 C1564 0.949 . S
H1560 C1566 0.950 . S
H1561 C1567 0.950 . S
H1562 C1568 0.949 . S
C1563 H1558 0.950 . S
C1563 C1565 1.327 . S
C1563 C1569 1.429 1_655 S
C1564 C1556 1.574 . S
C1564 H1559 0.949 . S
C1564 C1570 1.368 . S
C1565 C1549 1.349 1_655 S
C1565 H1557 0.950 . S
C1565 C1563 1.327 . S
C1566 C1554 1.349 . S
C1566 H1560 0.950 . S
C1566 C1567 1.327 . S
C1567 H1561 0.950 . S
C1567 C1566 1.327 . S
C1567 C1571 1.429 . S
C1568 C1551 1.574 . S
C1568 H1562 0.949 . S
C1568 C1572 1.368 1_655 S
C1569 C1550 1.429 . S
C1569 C1563 1.429 1_455 S
C1569 C1570 1.523 . S
C1570 C1551 1.368 1_455 S
C1570 C1564 1.368 . S
C1570 C1569 1.523 . S
C1571 C1555 1.429 1_455 S
C1571 C1567 1.429 . S
C1571 C1572 1.523 . S
C1572 C1556 1.368 . S
C1572 C1568 1.368 1_455 S
C1572 C1571 1.523 . S
H1573 C1548 0.950 . S
H1574 C1550 0.950 . S
H1575 C1551 0.949 . S
H1576 C1553 0.950 . S
H1577 C1555 0.950 . S
C1578 C1579 1.349 . S
C1578 C1580 1.327 . S
C1578 H1603 0.950 . S
C1579 C1578 1.349 . S
C1579 C1595 1.349 . S
C1580 C1578 1.327 . S
C1580 C1599 1.429 . S
C1580 H1604 0.950 . S
C1581 C1598 1.574 . S
C1581 C1600 1.368 . S
C1581 H1605 0.949 . S
H1582 C1586 0.949 . S
C1583 C1584 1.349 . S
C1583 C1585 1.327 . S
C1583 H1606 0.950 . S
C1584 C1583 1.349 . S
C1584 C1596 1.349 . S
C1585 C1583 1.327 . S
C1585 C1601 1.429 . S
C1585 H1607 0.950 . S
C1586 H1582 0.949 . S
C1586 C1594 1.574 . S
C1586 C1602 1.368 . S
H1587 C1595 0.950 . S
H1588 C1593 0.950 . S
H1589 C1594 0.949 . S
H1590 C1596 0.950 . S
H1591 C1597 0.950 . S
H1592 C1598 0.949 . S
C1593 H1588 0.950 . S
C1593 C1595 1.327 . S
C1593 C1599 1.429 . S
C1594 C1586 1.574 . S
C1594 H1589 0.949 . S
C1594 C1600 1.368 . S
C1595 C1579 1.349 . S
C1595 H1587 0.950 . S
C1595 C1593 1.327 . S
C1596 C1584 1.349 . S
C1596 H1590 0.950 . S
C1596 C1597 1.327 . S
C1597 H1591 0.950 . S
C1597 C1596 1.327 . S
C1597 C1601 1.429 . S
C1598 C1581 1.574 . S
C1598 H1592 0.949 . S
C1598 C1602 1.368 . S
C1599 C1580 1.429 . S
C1599 C1593 1.429 . S
C1599 C1600 1.523 . S
C1600 C1581 1.368 . S
C1600 C1594 1.368 . S
C1600 C1599 1.523 . S
C1601 C1585 1.429 . S
C1601 C1597 1.429 . S
C1601 C1602 1.523 . S
C1602 C1586 1.368 . S
C1602 C1598 1.368 . S
C1602 C1601 1.523 . S
H1603 C1578 0.950 . S
H1604 C1580 0.950 . S
H1605 C1581 0.949 . S
H1606 C1583 0.950 . S
H1607 C1585 0.950 . S
C1608 C1609 1.349 1_545 S
C1608 C1610 1.327 . S
C1608 H1633 0.950 . S
C1609 C1608 1.349 1_565 S
C1609 C1625 1.349 . S
C1610 C1608 1.327 . S
C1610 C1629 1.429 1_545 S
C1610 H1634 0.950 . S
C1611 C1628 1.574 . S
C1611 C1630 1.368 . S
C1611 H1635 0.949 . S
H1612 C1616 0.949 . S
C1613 C1614 1.349 . S
C1613 C1615 1.327 . S
C1613 H1636 0.950 . S
C1614 C1613 1.349 . S
C1614 C1626 1.349 1_565 S
C1615 C1613 1.327 . S
C1615 C1631 1.429 . S
C1615 H1637 0.950 . S
C1616 H1612 0.949 . S
C1616 C1624 1.574 . S
C1616 C1632 1.368 1_545 S
H1617 C1625 0.950 . S
H1618 C1623 0.950 . S
H1619 C1624 0.949 . S
H1620 C1626 0.950 . S
H1621 C1627 0.950 . S
H1622 C1628 0.949 . S
C1623 H1618 0.950 . S
C1623 C1625 1.327 . S
C1623 C1629 1.429 . S
C1624 C1616 1.574 . S
C1624 H1619 0.949 . S
C1624 C1630 1.368 1_545 S
C1625 C1609 1.349 . S
C1625 H1617 0.950 . S
C1625 C1623 1.327 . S
C1626 C1614 1.349 1_545 S
C1626 H1620 0.950 . S
C1626 C1627 1.327 . S
C1627 H1621 0.950 . S
C1627 C1626 1.327 . S
C1627 C1631 1.429 1_545 S
C1628 C1611 1.574 . S
C1628 H1622 0.949 . S
C1628 C1632 1.368 . S
C1629 C1610 1.429 1_565 S
C1629 C1623 1.429 . S
C1629 C1630 1.523 . S
C1630 C1611 1.368 . S
C1630 C1624 1.368 1_565 S
C1630 C1629 1.523 . S
C1631 C1615 1.429 . S
C1631 C1627 1.429 1_565 S
C1631 C1632 1.523 . S
C1632 C1616 1.368 1_565 S
C1632 C1628 1.368 . S
C1632 C1631 1.523 . S
H1633 C1608 0.950 . S
H1634 C1610 0.950 . S
H1635 C1611 0.949 . S
H1636 C1613 0.950 . S
H1637 C1615 0.950 . S
C1638 C1639 1.349 1_565 S
C1638 C1640 1.327 . S
C1638 H1663 0.950 . S
C1639 C1638 1.349 1_545 S
C1639 C1655 1.349 . S
C1640 C1638 1.327 . S
C1640 C1659 1.429 1_565 S
C1640 H1664 0.950 . S
C1641 C1658 1.574 . S
C1641 C1660 1.368 . S
C1641 H1665 0.949 . S
H1642 C1646 0.949 . S
C1643 C1644 1.349 . S
C1643 C1645 1.327 . S
C1643 H1666 0.950 . S
C1644 C1643 1.349 . S
C1644 C1656 1.349 1_545 S
C1645 C1643 1.327 . S
C1645 C1661 1.429 . S
C1645 H1667 0.950 . S
C1646 H1642 0.949 . S
C1646 C1654 1.574 . S
C1646 C1662 1.368 1_565 S
H1647 C1655 0.950 . S
H1648 C1653 0.950 . S
H1649 C1654 0.949 . S
H1650 C1656 0.950 . S
H1651 C1657 0.950 . S
H1652 C1658 0.949 . S
C1653 H1648 0.950 . S
C1653 C1655 1.327 . S
C1653 C1659 1.429 . S
C1654 C1646 1.574 . S
C1654 H1649 0.949 . S
C1654 C1660 1.368 1_565 S
C1655 C1639 1.349 . S
C1655 H1647 0.950 . S
C1655 C1653 1.327 . S
C1656 C1644 1.349 1_565 S
C1656 H1650 0.950 . S
C1656 C1657 1.327 . S
C1657 H1651 0.950 . S
C1657 C1656 1.327 . S
C1657 C1661 1.429 1_565 S
C1658 C1641 1.574 . S
C1658 H1652 0.949 . S
C1658 C1662 1.368 . S
C1659 C1640 1.429 1_545 S
C1659 C1653 1.429 . S
C1659 C1660 1.523 . S
C1660 C1641 1.368 . S
C1660 C1654 1.368 1_545 S
C1660 C1659 1.523 . S
C1661 C1645 1.429 . S
C1661 C1657 1.429 1_545 S
C1661 C1662 1.523 . S
C1662 C1646 1.368 1_545 S
C1662 C1658 1.368 . S
C1662 C1661 1.523 . S
H1663 C1638 0.950 . S
H1664 C1640 0.950 . S
H1665 C1641 0.949 . S
H1666 C1643 0.950 . S
H1667 C1645 0.950 . S
C1668 C1669 1.349 . S
C1668 C1670 1.327 . S
C1668 H1693 0.950 . S
C1669 C1668 1.349 . S
C1669 C1685 1.349 1_655 S
C1670 C1668 1.327 . S
C1670 C1689 1.429 . S
C1670 H1694 0.950 . S
C1671 C1688 1.574 . S
C1671 C1690 1.368 1_455 S
C1671 H1695 0.949 . S
H1672 C1676 0.949 . S
C1673 C1674 1.349 1_455 S
C1673 C1675 1.327 . S
C1673 H1696 0.950 . S
C1674 C1673 1.349 1_655 S
C1674 C1686 1.349 . S
C1675 C1673 1.327 . S
C1675 C1691 1.429 1_455 S
C1675 H1697 0.950 . S
C1676 H1672 0.949 . S
C1676 C1684 1.574 . S
C1676 C1692 1.368 . S
H1677 C1685 0.950 . S
H1678 C1683 0.950 . S
H1679 C1684 0.949 . S
H1680 C1686 0.950 . S
H1681 C1687 0.950 . S
H1682 C1688 0.949 . S
C1683 H1678 0.950 . S
C1683 C1685 1.327 . S
C1683 C1689 1.429 1_455 S
C1684 C1676 1.574 . S
C1684 H1679 0.949 . S
C1684 C1690 1.368 . S
C1685 C1669 1.349 1_455 S
C1685 H1677 0.950 . S
C1685 C1683 1.327 . S
C1686 C1674 1.349 . S
C1686 H1680 0.950 . S
C1686 C1687 1.327 . S
C1687 H1681 0.950 . S
C1687 C1686 1.327 . S
C1687 C1691 1.429 . S
C1688 C1671 1.574 . S
C1688 H1682 0.949 . S
C1688 C1692 1.368 1_455 S
C1689 C1670 1.429 . S
C1689 C1683 1.429 1_655 S
C1689 C1690 1.523 . S
C1690 C1671 1.368 1_655 S
C1690 C1684 1.368 . S
C1690 C1689 1.523 . S
C1691 C1675 1.429 1_655 S
C1691 C1687 1.429 . S
C1691 C1692 1.523 . S
C1692 C1676 1.368 . S
C1692 C1688 1.368 1_655 S
C1692 C1691 1.523 . S
H1693 C1668 0.950 . S
H1694 C1670 0.950 . S
H1695 C1671 0.949 . S
H1696 C1673 0.950 . S
H1697 C1675 0.950 . S
C1698 C1699 1.349 . S
C1698 C1700 1.327 . S
C1698 H1723 0.950 . S
C1699 C1698 1.349 . S
C1699 C1715 1.349 . S
C1700 C1698 1.327 . S
C1700 C1719 1.429 . S
C1700 H1724 0.950 . S
C1701 C1718 1.574 . S
C1701 C1720 1.368 . S
C1701 H1725 0.949 . S
H1702 C1706 0.949 . S
C1703 C1704 1.349 . S
C1703 C1705 1.327 . S
C1703 H1726 0.950 . S
C1704 C1703 1.349 . S
C1704 C1716 1.349 . S
C1705 C1703 1.327 . S
C1705 C1721 1.429 . S
C1705 H1727 0.950 . S
C1706 H1702 0.949 . S
C1706 C1714 1.574 . S
C1706 C1722 1.368 . S
H1707 C1715 0.950 . S
H1708 C1713 0.950 . S
H1709 C1714 0.949 . S
H1710 C1716 0.950 . S
H1711 C1717 0.950 . S
H1712 C1718 0.949 . S
C1713 H1708 0.950 . S
C1713 C1715 1.327 . S
C1713 C1719 1.429 . S
C1714 C1706 1.574 . S
C1714 H1709 0.949 . S
C1714 C1720 1.368 . S
C1715 C1699 1.349 . S
C1715 H1707 0.950 . S
C1715 C1713 1.327 . S
C1716 C1704 1.349 . S
C1716 H1710 0.950 . S
C1716 C1717 1.327 . S
C1717 H1711 0.950 . S
C1717 C1716 1.327 . S
C1717 C1721 1.429 . S
C1718 C1701 1.574 . S
C1718 H1712 0.949 . S
C1718 C1722 1.368 . S
C1719 C1700 1.429 . S
C1719 C1713 1.429 . S
C1719 C1720 1.523 . S
C1720 C1701 1.368 . S
C1720 C1714 1.368 . S
C1720 C1719 1.523 . S
C1721 C1705 1.429 . S
C1721 C1717 1.429 . S
C1721 C1722 1.523 . S
C1722 C1706 1.368 . S
C1722 C1718 1.368 . S
C1722 C1721 1.523 . S
H1723 C1698 0.950 . S
H1724 C1700 0.950 . S
H1725 C1701 0.949 . S
H1726 C1703 0.950 . S
H1727 C1705 0.950 . S
C1728 C1729 1.349 . S
C1728 C1730 1.327 . S
C1728 H1753 0.950 . S
C1729 C1728 1.349 . S
C1729 C1745 1.349 . S
C1730 C1728 1.327 . S
C1730 C1749 1.429 . S
C1730 H1754 0.950 . S
C1731 C1748 1.574 . S
C1731 C1750 1.368 . S
C1731 H1755 0.949 . S
H1732 C1736 0.949 . S
C1733 C1734 1.349 . S
C1733 C1735 1.327 . S
C1733 H1756 0.950 . S
C1734 C1733 1.349 . S
C1734 C1746 1.349 . S
C1735 C1733 1.327 . S
C1735 C1751 1.429 . S
C1735 H1757 0.950 . S
C1736 H1732 0.949 . S
C1736 C1744 1.574 . S
C1736 C1752 1.368 . S
H1737 C1745 0.950 . S
H1738 C1743 0.950 . S
H1739 C1744 0.949 . S
H1740 C1746 0.950 . S
H1741 C1747 0.950 . S
H1742 C1748 0.949 . S
C1743 H1738 0.950 . S
C1743 C1745 1.327 . S
C1743 C1749 1.429 . S
C1744 C1736 1.574 . S
C1744 H1739 0.949 . S
C1744 C1750 1.368 . S
C1745 C1729 1.349 . S
C1745 H1737 0.950 . S
C1745 C1743 1.327 . S
C1746 C1734 1.349 . S
C1746 H1740 0.950 . S
C1746 C1747 1.327 . S
C1747 H1741 0.950 . S
C1747 C1746 1.327 . S
C1747 C1751 1.429 . S
C1748 C1731 1.574 . S
C1748 H1742 0.949 . S
C1748 C1752 1.368 . S
C1749 C1730 1.429 . S
C1749 C1743 1.429 . S
C1749 C1750 1.523 . S
C1750 C1731 1.368 . S
C1750 C1744 1.368 . S
C1750 C1749 1.523 . S
C1751 C1735 1.429 . S
C1751 C1747 1.429 . S
C1751 C1752 1.523 . S
C1752 C1736 1.368 . S
C1752 C1748 1.368 . S
C1752 C1751 1.523 . S
H1753 C1728 0.950 . S
H1754 C1730 0.950 . S
H1755 C1731 0.949 . S
H1756 C1733 0.950 . S
H1757 C1735 0.950 . S
C1758 C1759 1.349 . S
C1758 C1760 1.327 . S
C1758 H1783 0.950 . S
C1759 C1758 1.349 . S
C1759 C1775 1.349 . S
C1760 C1758 1.327 . S
C1760 C1779 1.429 . S
C1760 H1784 0.950 . S
C1761 C1778 1.574 . S
C1761 C1780 1.368 . S
C1761 H1785 0.949 . S
H1762 C1766 0.949 . S
C1763 C1764 1.349 . S
C1763 C1765 1.327 . S
C1763 H1786 0.950 . S
C1764 C1763 1.349 . S
C1764 C1776 1.349 . S
C1765 C1763 1.327 . S
C1765 C1781 1.429 . S
C1765 H1787 0.950 . S
C1766 H1762 0.949 . S
C1766 C1774 1.574 . S
C1766 C1782 1.368 . S
H1767 C1775 0.950 . S
H1768 C1773 0.950 . S
H1769 C1774 0.949 . S
H1770 C1776 0.950 . S
H1771 C1777 0.950 . S
H1772 C1778 0.949 . S
C1773 H1768 0.950 . S
C1773 C1775 1.327 . S
C1773 C1779 1.429 . S
C1774 C1766 1.574 . S
C1774 H1769 0.949 . S
C1774 C1780 1.368 . S
C1775 C1759 1.349 . S
C1775 H1767 0.950 . S
C1775 C1773 1.327 . S
C1776 C1764 1.349 . S
C1776 H1770 0.950 . S
C1776 C1777 1.327 . S
C1777 H1771 0.950 . S
C1777 C1776 1.327 . S
C1777 C1781 1.429 . S
C1778 C1761 1.574 . S
C1778 H1772 0.949 . S
C1778 C1782 1.368 . S
C1779 C1760 1.429 . S
C1779 C1773 1.429 . S
C1779 C1780 1.523 . S
C1780 C1761 1.368 . S
C1780 C1774 1.368 . S
C1780 C1779 1.523 . S
C1781 C1765 1.429 . S
C1781 C1777 1.429 . S
C1781 C1782 1.523 . S
C1782 C1766 1.368 . S
C1782 C1778 1.368 . S
C1782 C1781 1.523 . S
H1783 C1758 0.950 . S
H1784 C1760 0.950 . S
H1785 C1761 0.949 . S
H1786 C1763 0.950 . S
H1787 C1765 0.950 . S
C1788 C1789 1.349 . S
C1788 C1790 1.327 . S
C1788 H1813 0.950 . S
C1789 C1788 1.349 . S
C1789 C1805 1.349 . S
C1790 C1788 1.327 . S
C1790 C1809 1.429 . S
C1790 H1814 0.950 . S
C1791 C1808 1.574 . S
C1791 C1810 1.368 . S
C1791 H1815 0.949 . S
H1792 C1796 0.949 . S
C1793 C1794 1.349 . S
C1793 C1795 1.327 . S
C1793 H1816 0.950 . S
C1794 C1793 1.349 . S
C1794 C1806 1.349 . S
C1795 C1793 1.327 . S
C1795 C1811 1.429 . S
C1795 H1817 0.950 . S
C1796 H1792 0.949 . S
C1796 C1804 1.574 . S
C1796 C1812 1.368 . S
H1797 C1805 0.950 . S
H1798 C1803 0.950 . S
H1799 C1804 0.949 . S
H1800 C1806 0.950 . S
H1801 C1807 0.950 . S
H1802 C1808 0.949 . S
C1803 H1798 0.950 . S
C1803 C1805 1.327 . S
C1803 C1809 1.429 . S
C1804 C1796 1.574 . S
C1804 H1799 0.949 . S
C1804 C1810 1.368 . S
C1805 C1789 1.349 . S
C1805 H1797 0.950 . S
C1805 C1803 1.327 . S
C1806 C1794 1.349 . S
C1806 H1800 0.950 . S
C1806 C1807 1.327 . S
C1807 H1801 0.950 . S
C1807 C1806 1.327 . S
C1807 C1811 1.429 . S
C1808 C1791 1.574 . S
C1808 H1802 0.949 . S
C1808 C1812 1.368 . S
C1809 C1790 1.429 . S
C1809 C1803 1.429 . S
C1809 C1810 1.523 . S
C1810 C1791 1.368 . S
C1810 C1804 1.368 . S
C1810 C1809 1.523 . S
C1811 C1795 1.429 . S
C1811 C1807 1.429 . S
C1811 C1812 1.523 . S
C1812 C1796 1.368 . S
C1812 C1808 1.368 . S
C1812 C1811 1.523 . S
H1813 C1788 0.950 . S
H1814 C1790 0.950 . S
H1815 C1791 0.949 . S
H1816 C1793 0.950 . S
H1817 C1795 0.950 . S
C1818 C1819 1.349 . S
C1818 C1820 1.327 . S
C1818 H1843 0.950 . S
C1819 C1818 1.349 . S
C1819 C1835 1.349 . S
C1820 C1818 1.327 . S
C1820 C1839 1.429 . S
C1820 H1844 0.950 . S
C1821 C1838 1.574 . S
C1821 C1840 1.368 . S
C1821 H1845 0.949 . S
H1822 C1826 0.949 . S
C1823 C1824 1.349 . S
C1823 C1825 1.327 . S
C1823 H1846 0.950 . S
C1824 C1823 1.349 . S
C1824 C1836 1.349 . S
C1825 C1823 1.327 . S
C1825 C1841 1.429 . S
C1825 H1847 0.950 . S
C1826 H1822 0.949 . S
C1826 C1834 1.574 . S
C1826 C1842 1.368 . S
H1827 C1835 0.950 . S
H1828 C1833 0.950 . S
H1829 C1834 0.949 . S
H1830 C1836 0.950 . S
H1831 C1837 0.950 . S
H1832 C1838 0.949 . S
C1833 H1828 0.950 . S
C1833 C1835 1.327 . S
C1833 C1839 1.429 . S
C1834 C1826 1.574 . S
C1834 H1829 0.949 . S
C1834 C1840 1.368 . S
C1835 C1819 1.349 . S
C1835 H1827 0.950 . S
C1835 C1833 1.327 . S
C1836 C1824 1.349 . S
C1836 H1830 0.950 . S
C1836 C1837 1.327 . S
C1837 H1831 0.950 . S
C1837 C1836 1.327 . S
C1837 C1841 1.429 . S
C1838 C1821 1.574 . S
C1838 H1832 0.949 . S
C1838 C1842 1.368 . S
C1839 C1820 1.429 . S
C1839 C1833 1.429 . S
C1839 C1840 1.523 . S
C1840 C1821 1.368 . S
C1840 C1834 1.368 . S
C1840 C1839 1.523 . S
C1841 C1825 1.429 . S
C1841 C1837 1.429 . S
C1841 C1842 1.523 . S
C1842 C1826 1.368 . S
C1842 C1838 1.368 . S
C1842 C1841 1.523 . S
H1843 C1818 0.950 . S
H1844 C1820 0.950 . S
H1845 C1821 0.949 . S
H1846 C1823 0.950 . S
H1847 C1825 0.950 . S
C1848 C1849 1.349 . S
C1848 C1850 1.327 . S
C1848 H1873 0.950 . S
C1849 C1848 1.349 . S
C1849 C1865 1.349 . S
C1850 C1848 1.327 . S
C1850 C1869 1.429 . S
C1850 H1874 0.950 . S
C1851 C1868 1.574 . S
C1851 C1870 1.368 . S
C1851 H1875 0.949 . S
H1852 C1856 0.949 . S
C1853 C1854 1.349 . S
C1853 C1855 1.327 . S
C1853 H1876 0.950 . S
C1854 C1853 1.349 . S
C1854 C1866 1.349 . S
C1855 C1853 1.327 . S
C1855 C1871 1.429 . S
C1855 H1877 0.950 . S
C1856 H1852 0.949 . S
C1856 C1864 1.574 . S
C1856 C1872 1.368 . S
H1857 C1865 0.950 . S
H1858 C1863 0.950 . S
H1859 C1864 0.949 . S
H1860 C1866 0.950 . S
H1861 C1867 0.950 . S
H1862 C1868 0.949 . S
C1863 H1858 0.950 . S
C1863 C1865 1.327 . S
C1863 C1869 1.429 . S
C1864 C1856 1.574 . S
C1864 H1859 0.949 . S
C1864 C1870 1.368 . S
C1865 C1849 1.349 . S
C1865 H1857 0.950 . S
C1865 C1863 1.327 . S
C1866 C1854 1.349 . S
C1866 H1860 0.950 . S
C1866 C1867 1.327 . S
C1867 H1861 0.950 . S
C1867 C1866 1.327 . S
C1867 C1871 1.429 . S
C1868 C1851 1.574 . S
C1868 H1862 0.949 . S
C1868 C1872 1.368 . S
C1869 C1850 1.429 . S
C1869 C1863 1.429 . S
C1869 C1870 1.523 . S
C1870 C1851 1.368 . S
C1870 C1864 1.368 . S
C1870 C1869 1.523 . S
C1871 C1855 1.429 . S
C1871 C1867 1.429 . S
C1871 C1872 1.523 . S
C1872 C1856 1.368 . S
C1872 C1868 1.368 . S
C1872 C1871 1.523 . S
H1873 C1848 0.950 . S
H1874 C1850 0.950 . S
H1875 C1851 0.949 . S
H1876 C1853 0.950 . S
H1877 C1855 0.950 . S
C1878 C1879 1.349 . S
C1878 C1880 1.327 . S
C1878 H1903 0.950 . S
C1879 C1878 1.349 . S
C1879 C1895 1.349 . S
C1880 C1878 1.327 . S
C1880 C1899 1.429 . S
C1880 H1904 0.950 . S
C1881 C1898 1.574 . S
C1881 C1900 1.368 . S
C1881 H1905 0.949 . S
H1882 C1886 0.949 . S
C1883 C1884 1.349 . S
C1883 C1885 1.327 . S
C1883 H1906 0.950 . S
C1884 C1883 1.349 . S
C1884 C1896 1.349 . S
C1885 C1883 1.327 . S
C1885 C1901 1.429 . S
C1885 H1907 0.950 . S
C1886 H1882 0.949 . S
C1886 C1894 1.574 . S
C1886 C1902 1.368 . S
H1887 C1895 0.950 . S
H1888 C1893 0.950 . S
H1889 C1894 0.949 . S
H1890 C1896 0.950 . S
H1891 C1897 0.950 . S
H1892 C1898 0.949 . S
C1893 H1888 0.950 . S
C1893 C1895 1.327 . S
C1893 C1899 1.429 . S
C1894 C1886 1.574 . S
C1894 H1889 0.949 . S
C1894 C1900 1.368 . S
C1895 C1879 1.349 . S
C1895 H1887 0.950 . S
C1895 C1893 1.327 . S
C1896 C1884 1.349 . S
C1896 H1890 0.950 . S
C1896 C1897 1.327 . S
C1897 H1891 0.950 . S
C1897 C1896 1.327 . S
C1897 C1901 1.429 . S
C1898 C1881 1.574 . S
C1898 H1892 0.949 . S
C1898 C1902 1.368 . S
C1899 C1880 1.429 . S
C1899 C1893 1.429 . S
C1899 C1900 1.523 . S
C1900 C1881 1.368 . S
C1900 C1894 1.368 . S
C1900 C1899 1.523 . S
C1901 C1885 1.429 . S
C1901 C1897 1.429 . S
C1901 C1902 1.523 . S
C1902 C1886 1.368 . S
C1902 C1898 1.368 . S
C1902 C1901 1.523 . S
H1903 C1878 0.950 . S
H1904 C1880 0.950 . S
H1905 C1881 0.949 . S
H1906 C1883 0.950 . S
H1907 C1885 0.950 . S
C1908 C1909 1.349 . S
C1908 C1910 1.327 . S
C1908 H1933 0.950 . S
C1909 C1908 1.349 . S
C1909 C1925 1.349 . S
C1910 C1908 1.327 . S
C1910 C1929 1.429 . S
C1910 H1934 0.950 . S
C1911 C1928 1.574 . S
C1911 C1930 1.368 . S
C1911 H1935 0.949 . S
H1912 C1916 0.949 . S
C1913 C1914 1.349 . S
C1913 C1915 1.327 . S
C1913 H1936 0.950 . S
C1914 C1913 1.349 . S
C1914 C1926 1.349 . S
C1915 C1913 1.327 . S
C1915 C1931 1.429 . S
C1915 H1937 0.950 . S
C1916 H1912 0.949 . S
C1916 C1924 1.574 . S
C1916 C1932 1.368 . S
H1917 C1925 0.950 . S
H1918 C1923 0.950 . S
H1919 C1924 0.949 . S
H1920 C1926 0.950 . S
H1921 C1927 0.950 . S
H1922 C1928 0.949 . S
C1923 H1918 0.950 . S
C1923 C1925 1.327 . S
C1923 C1929 1.429 . S
C1924 C1916 1.574 . S
C1924 H1919 0.949 . S
C1924 C1930 1.368 . S
C1925 C1909 1.349 . S
C1925 H1917 0.950 . S
C1925 C1923 1.327 . S
C1926 C1914 1.349 . S
C1926 H1920 0.950 . S
C1926 C1927 1.327 . S
C1927 H1921 0.950 . S
C1927 C1926 1.327 . S
C1927 C1931 1.429 . S
C1928 C1911 1.574 . S
C1928 H1922 0.949 . S
C1928 C1932 1.368 . S
C1929 C1910 1.429 . S
C1929 C1923 1.429 . S
C1929 C1930 1.523 . S
C1930 C1911 1.368 . S
C1930 C1924 1.368 . S
C1930 C1929 1.523 . S
C1931 C1915 1.429 . S
C1931 C1927 1.429 . S
C1931 C1932 1.523 . S
C1932 C1916 1.368 . S
C1932 C1928 1.368 . S
C1932 C1931 1.523 . S
H1933 C1908 0.950 . S
H1934 C1910 0.950 . S
H1935 C1911 0.949 . S
H1936 C1913 0.950 . S
H1937 C1915 0.950 . S
C1938 C1939 1.349 . S
C1938 C1940 1.327 . S
C1938 H1963 0.950 . S
C1939 C1938 1.349 . S
C1939 C1955 1.349 . S
C1940 C1938 1.327 . S
C1940 C1959 1.429 . S
C1940 H1964 0.950 . S
C1941 C1958 1.574 . S
C1941 C1960 1.368 . S
C1941 H1965 0.949 . S
H1942 C1946 0.949 . S
C1943 C1944 1.349 . S
C1943 C1945 1.327 . S
C1943 H1966 0.950 . S
C1944 C1943 1.349 . S
C1944 C1956 1.349 . S
C1945 C1943 1.327 . S
C1945 C1961 1.429 . S
C1945 H1967 0.950 . S
C1946 H1942 0.949 . S
C1946 C1954 1.574 . S
C1946 C1962 1.368 . S
H1947 C1955 0.950 . S
H1948 C1953 0.950 . S
H1949 C1954 0.949 . S
H1950 C1956 0.950 . S
H1951 C1957 0.950 . S
H1952 C1958 0.949 . S
C1953 H1948 0.950 . S
C1953 C1955 1.327 . S
C1953 C1959 1.429 . S
C1954 C1946 1.574 . S
C1954 H1949 0.949 . S
C1954 C1960 1.368 . S
C1955 C1939 1.349 . S
C1955 H1947 0.950 . S
C1955 C1953 1.327 . S
C1956 C1944 1.349 . S
C1956 H1950 0.950 . S
C1956 C1957 1.327 . S
C1957 H1951 0.950 . S
C1957 C1956 1.327 . S
C1957 C1961 1.429 . S
C1958 C1941 1.574 . S
C1958 H1952 0.949 . S
C1958 C1962 1.368 . S
C1959 C1940 1.429 . S
C1959 C1953 1.429 . S
C1959 C1960 1.523 . S
C1960 C1941 1.368 . S
C1960 C1954 1.368 . S
C1960 C1959 1.523 . S
C1961 C1945 1.429 . S
C1961 C1957 1.429 . S
C1961 C1962 1.523 . S
C1962 C1946 1.368 . S
C1962 C1958 1.368 . S
C1962 C1961 1.523 . S
H1963 C1938 0.950 . S
H1964 C1940 0.950 . S
H1965 C1941 0.949 . S
H1966 C1943 0.950 . S
H1967 C1945 0.950 . S
C1968 C1969 1.349 . S
C1968 C1970 1.327 . S
C1968 H1993 0.950 . S
C1969 C1968 1.349 . S
C1969 C1985 1.349 . S
C1970 C1968 1.327 . S
C1970 C1989 1.429 . S
C1970 H1994 0.950 . S
C1971 C1988 1.574 . S
C1971 C1990 1.368 . S
C1971 H1995 0.949 . S
H1972 C1976 0.949 . S
C1973 C1974 1.349 . S
C1973 C1975 1.327 . S
C1973 H1996 0.950 . S
C1974 C1973 1.349 . S
C1974 C1986 1.349 . S
C1975 C1973 1.327 . S
C1975 C1991 1.429 . S
C1975 H1997 0.950 . S
C1976 H1972 0.949 . S
C1976 C1984 1.574 . S
C1976 C1992 1.368 . S
H1977 C1985 0.950 . S
H1978 C1983 0.950 . S
H1979 C1984 0.949 . S
H1980 C1986 0.950 . S
H1981 C1987 0.950 . S
H1982 C1988 0.949 . S
C1983 H1978 0.950 . S
C1983 C1985 1.327 . S
C1983 C1989 1.429 . S
C1984 C1976 1.574 . S
C1984 H1979 0.949 . S
C1984 C1990 1.368 . S
C1985 C1969 1.349 . S
C1985 H1977 0.950 . S
C1985 C1983 1.327 . S
C1986 C1974 1.349 . S
C1986 H1980 0.950 . S
C1986 C1987 1.327 . S
C1987 H1981 0.950 . S
C1987 C1986 1.327 . S
C1987 C1991 1.429 . S
C1988 C1971 1.574 . S
C1988 H1982 0.949 . S
C1988 C1992 1.368 . S
C1989 C1970 1.429 . S
C1989 C1983 1.429 . S
C1989 C1990 1.523 . S
C1990 C1971 1.368 . S
C1990 C1984 1.368 . S
C1990 C1989 1.523 . S
C1991 C1975 1.429 . S
C1991 C1987 1.429 . S
C1991 C1992 1.523 . S
C1992 C1976 1.368 . S
C1992 C1988 1.368 . S
C1992 C1991 1.523 . S
H1993 C1968 0.950 . S
H1994 C1970 0.950 . S
H1995 C1971 0.949 . S
H1996 C1973 0.950 . S
H1997 C1975 0.950 . S
C1998 C1999 1.349 . S
C1998 C2000 1.327 . S
C1998 H2023 0.950 . S
C1999 C1998 1.349 . S
C1999 C2015 1.349 . S
C2000 C1998 1.327 . S
C2000 C2019 1.429 . S
C2000 H2024 0.950 . S
C2001 C2018 1.574 . S
C2001 C2020 1.368 . S
C2001 H2025 0.949 . S
H2002 C2006 0.949 . S
C2003 C2004 1.349 . S
C2003 C2005 1.327 . S
C2003 H2026 0.950 . S
C2004 C2003 1.349 . S
C2004 C2016 1.349 . S
C2005 C2003 1.327 . S
C2005 C2021 1.429 . S
C2005 H2027 0.950 . S
C2006 H2002 0.949 . S
C2006 C2014 1.574 . S
C2006 C2022 1.368 . S
H2007 C2015 0.950 . S
H2008 C2013 0.950 . S
H2009 C2014 0.949 . S
H2010 C2016 0.950 . S
H2011 C2017 0.950 . S
H2012 C2018 0.949 . S
C2013 H2008 0.950 . S
C2013 C2015 1.327 . S
C2013 C2019 1.429 . S
C2014 C2006 1.574 . S
C2014 H2009 0.949 . S
C2014 C2020 1.368 . S
C2015 C1999 1.349 . S
C2015 H2007 0.950 . S
C2015 C2013 1.327 . S
C2016 C2004 1.349 . S
C2016 H2010 0.950 . S
C2016 C2017 1.327 . S
C2017 H2011 0.950 . S
C2017 C2016 1.327 . S
C2017 C2021 1.429 . S
C2018 C2001 1.574 . S
C2018 H2012 0.949 . S
C2018 C2022 1.368 . S
C2019 C2000 1.429 . S
C2019 C2013 1.429 . S
C2019 C2020 1.523 . S
C2020 C2001 1.368 . S
C2020 C2014 1.368 . S
C2020 C2019 1.523 . S
C2021 C2005 1.429 . S
C2021 C2017 1.429 . S
C2021 C2022 1.523 . S
C2022 C2006 1.368 . S
C2022 C2018 1.368 . S
C2022 C2021 1.523 . S
H2023 C1998 0.950 . S
H2024 C2000 0.950 . S
H2025 C2001 0.949 . S
H2026 C2003 0.950 . S
H2027 C2005 0.950 . S
C2028 C2029 1.349 . S
C2028 C2030 1.327 . S
C2028 H2053 0.950 . S
C2029 C2028 1.349 . S
C2029 C2045 1.349 . S
C2030 C2028 1.327 . S
C2030 C2049 1.429 . S
C2030 H2054 0.950 . S
C2031 C2048 1.574 . S
C2031 C2050 1.368 . S
C2031 H2055 0.949 . S
H2032 C2036 0.949 . S
C2033 C2034 1.349 . S
C2033 C2035 1.327 . S
C2033 H2056 0.950 . S
C2034 C2033 1.349 . S
C2034 C2046 1.349 . S
C2035 C2033 1.327 . S
C2035 C2051 1.429 . S
C2035 H2057 0.950 . S
C2036 H2032 0.949 . S
C2036 C2044 1.574 . S
C2036 C2052 1.368 . S
H2037 C2045 0.950 . S
H2038 C2043 0.950 . S
H2039 C2044 0.949 . S
H2040 C2046 0.950 . S
H2041 C2047 0.950 . S
H2042 C2048 0.949 . S
C2043 H2038 0.950 . S
C2043 C2045 1.327 . S
C2043 C2049 1.429 . S
C2044 C2036 1.574 . S
C2044 H2039 0.949 . S
C2044 C2050 1.368 . S
C2045 C2029 1.349 . S
C2045 H2037 0.950 . S
C2045 C2043 1.327 . S
C2046 C2034 1.349 . S
C2046 H2040 0.950 . S
C2046 C2047 1.327 . S
C2047 H2041 0.950 . S
C2047 C2046 1.327 . S
C2047 C2051 1.429 . S
C2048 C2031 1.574 . S
C2048 H2042 0.949 . S
C2048 C2052 1.368 . S
C2049 C2030 1.429 . S
C2049 C2043 1.429 . S
C2049 C2050 1.523 . S
C2050 C2031 1.368 . S
C2050 C2044 1.368 . S
C2050 C2049 1.523 . S
C2051 C2035 1.429 . S
C2051 C2047 1.429 . S
C2051 C2052 1.523 . S
C2052 C2036 1.368 . S
C2052 C2048 1.368 . S
C2052 C2051 1.523 . S
H2053 C2028 0.950 . S
H2054 C2030 0.950 . S
H2055 C2031 0.949 . S
H2056 C2033 0.950 . S
H2057 C2035 0.950 . S
C2058 C2059 1.349 . S
C2058 C2060 1.327 . S
C2058 H2083 0.950 . S
C2059 C2058 1.349 . S
C2059 C2075 1.349 . S
C2060 C2058 1.327 . S
C2060 C2079 1.429 . S
C2060 H2084 0.950 . S
C2061 C2078 1.574 . S
C2061 C2080 1.368 . S
C2061 H2085 0.949 . S
H2062 C2066 0.949 . S
C2063 C2064 1.349 . S
C2063 C2065 1.327 . S
C2063 H2086 0.950 . S
C2064 C2063 1.349 . S
C2064 C2076 1.349 . S
C2065 C2063 1.327 . S
C2065 C2081 1.429 . S
C2065 H2087 0.950 . S
C2066 H2062 0.949 . S
C2066 C2074 1.574 . S
C2066 C2082 1.368 . S
H2067 C2075 0.950 . S
H2068 C2073 0.950 . S
H2069 C2074 0.949 . S
H2070 C2076 0.950 . S
H2071 C2077 0.950 . S
H2072 C2078 0.949 . S
C2073 H2068 0.950 . S
C2073 C2075 1.327 . S
C2073 C2079 1.429 . S
C2074 C2066 1.574 . S
C2074 H2069 0.949 . S
C2074 C2080 1.368 . S
C2075 C2059 1.349 . S
C2075 H2067 0.950 . S
C2075 C2073 1.327 . S
C2076 C2064 1.349 . S
C2076 H2070 0.950 . S
C2076 C2077 1.327 . S
C2077 H2071 0.950 . S
C2077 C2076 1.327 . S
C2077 C2081 1.429 . S
C2078 C2061 1.574 . S
C2078 H2072 0.949 . S
C2078 C2082 1.368 . S
C2079 C2060 1.429 . S
C2079 C2073 1.429 . S
C2079 C2080 1.523 . S
C2080 C2061 1.368 . S
C2080 C2074 1.368 . S
C2080 C2079 1.523 . S
C2081 C2065 1.429 . S
C2081 C2077 1.429 . S
C2081 C2082 1.523 . S
C2082 C2066 1.368 . S
C2082 C2078 1.368 . S
C2082 C2081 1.523 . S
H2083 C2058 0.950 . S
H2084 C2060 0.950 . S
H2085 C2061 0.949 . S
H2086 C2063 0.950 . S
H2087 C2065 0.950 . S
C2088 C2089 1.349 . S
C2088 C2090 1.327 . S
C2088 H2113 0.950 . S
C2089 C2088 1.349 . S
C2089 C2105 1.349 . S
C2090 C2088 1.327 . S
C2090 C2109 1.429 . S
C2090 H2114 0.950 . S
C2091 C2108 1.574 . S
C2091 C2110 1.368 . S
C2091 H2115 0.949 . S
H2092 C2096 0.949 . S
C2093 C2094 1.349 . S
C2093 C2095 1.327 . S
C2093 H2116 0.950 . S
C2094 C2093 1.349 . S
C2094 C2106 1.349 . S
C2095 C2093 1.327 . S
C2095 C2111 1.429 . S
C2095 H2117 0.950 . S
C2096 H2092 0.949 . S
C2096 C2104 1.574 . S
C2096 C2112 1.368 . S
H2097 C2105 0.950 . S
H2098 C2103 0.950 . S
H2099 C2104 0.949 . S
H2100 C2106 0.950 . S
H2101 C2107 0.950 . S
H2102 C2108 0.949 . S
C2103 H2098 0.950 . S
C2103 C2105 1.327 . S
C2103 C2109 1.429 . S
C2104 C2096 1.574 . S
C2104 H2099 0.949 . S
C2104 C2110 1.368 . S
C2105 C2089 1.349 . S
C2105 H2097 0.950 . S
C2105 C2103 1.327 . S
C2106 C2094 1.349 . S
C2106 H2100 0.950 . S
C2106 C2107 1.327 . S
C2107 H2101 0.950 . S
C2107 C2106 1.327 . S
C2107 C2111 1.429 . S
C2108 C2091 1.574 . S
C2108 H2102 0.949 . S
C2108 C2112 1.368 . S
C2109 C2090 1.429 . S
C2109 C2103 1.429 . S
C2109 C2110 1.523 . S
C2110 C2091 1.368 . S
C2110 C2104 1.368 . S
C2110 C2109 1.523 . S
C2111 C2095 1.429 . S
C2111 C2107 1.429 . S
C2111 C2112 1.523 . S
C2112 C2096 1.368 . S
C2112 C2108 1.368 . S
C2112 C2111 1.523 . S
H2113 C2088 0.950 . S
H2114 C2090 0.950 . S
H2115 C2091 0.949 . S
H2116 C2093 0.950 . S
H2117 C2095 0.950 . S
C2118 C2119 1.349 . S
C2118 C2120 1.327 . S
C2118 H2143 0.950 . S
C2119 C2118 1.349 . S
C2119 C2135 1.349 . S
C2120 C2118 1.327 . S
C2120 C2139 1.429 . S
C2120 H2144 0.950 . S
C2121 C2138 1.574 . S
C2121 C2140 1.368 . S
C2121 H2145 0.949 . S
H2122 C2126 0.949 . S
C2123 C2124 1.349 . S
C2123 C2125 1.327 . S
C2123 H2146 0.950 . S
C2124 C2123 1.349 . S
C2124 C2136 1.349 . S
C2125 C2123 1.327 . S
C2125 C2141 1.429 . S
C2125 H2147 0.950 . S
C2126 H2122 0.949 . S
C2126 C2134 1.574 . S
C2126 C2142 1.368 . S
H2127 C2135 0.950 . S
H2128 C2133 0.950 . S
H2129 C2134 0.949 . S
H2130 C2136 0.950 . S
H2131 C2137 0.950 . S
H2132 C2138 0.949 . S
C2133 H2128 0.950 . S
C2133 C2135 1.327 . S
C2133 C2139 1.429 . S
C2134 C2126 1.574 . S
C2134 H2129 0.949 . S
C2134 C2140 1.368 . S
C2135 C2119 1.349 . S
C2135 H2127 0.950 . S
C2135 C2133 1.327 . S
C2136 C2124 1.349 . S
C2136 H2130 0.950 . S
C2136 C2137 1.327 . S
C2137 H2131 0.950 . S
C2137 C2136 1.327 . S
C2137 C2141 1.429 . S
C2138 C2121 1.574 . S
C2138 H2132 0.949 . S
C2138 C2142 1.368 . S
C2139 C2120 1.429 . S
C2139 C2133 1.429 . S
C2139 C2140 1.523 . S
C2140 C2121 1.368 . S
C2140 C2134 1.368 . S
C2140 C2139 1.523 . S
C2141 C2125 1.429 . S
C2141 C2137 1.429 . S
C2141 C2142 1.523 . S
C2142 C2126 1.368 . S
C2142 C2138 1.368 . S
C2142 C2141 1.523 . S
H2143 C2118 0.950 . S
H2144 C2120 0.950 . S
H2145 C2121 0.949 . S
H2146 C2123 0.950 . S
H2147 C2125 0.950 . S
C2148 C2149 1.349 . S
C2148 C2150 1.327 . S
C2148 H2173 0.950 . S
C2149 C2148 1.349 . S
C2149 C2165 1.349 . S
C2150 C2148 1.327 . S
C2150 C2169 1.429 . S
C2150 H2174 0.950 . S
C2151 C2168 1.574 . S
C2151 C2170 1.368 . S
C2151 H2175 0.949 . S
H2152 C2156 0.949 . S
C2153 C2154 1.349 . S
C2153 C2155 1.327 . S
C2153 H2176 0.950 . S
C2154 C2153 1.349 . S
C2154 C2166 1.349 . S
C2155 C2153 1.327 . S
C2155 C2171 1.429 . S
C2155 H2177 0.950 . S
C2156 H2152 0.949 . S
C2156 C2164 1.574 . S
C2156 C2172 1.368 . S
H2157 C2165 0.950 . S
H2158 C2163 0.950 . S
H2159 C2164 0.949 . S
H2160 C2166 0.950 . S
H2161 C2167 0.950 . S
H2162 C2168 0.949 . S
C2163 H2158 0.950 . S
C2163 C2165 1.327 . S
C2163 C2169 1.429 . S
C2164 C2156 1.574 . S
C2164 H2159 0.949 . S
C2164 C2170 1.368 . S
C2165 C2149 1.349 . S
C2165 H2157 0.950 . S
C2165 C2163 1.327 . S
C2166 C2154 1.349 . S
C2166 H2160 0.950 . S
C2166 C2167 1.327 . S
C2167 H2161 0.950 . S
C2167 C2166 1.327 . S
C2167 C2171 1.429 . S
C2168 C2151 1.574 . S
C2168 H2162 0.949 . S
C2168 C2172 1.368 . S
C2169 C2150 1.429 . S
C2169 C2163 1.429 . S
C2169 C2170 1.523 . S
C2170 C2151 1.368 . S
C2170 C2164 1.368 . S
C2170 C2169 1.523 . S
C2171 C2155 1.429 . S
C2171 C2167 1.429 . S
C2171 C2172 1.523 . S
C2172 C2156 1.368 . S
C2172 C2168 1.368 . S
C2172 C2171 1.523 . S
H2173 C2148 0.950 . S
H2174 C2150 0.950 . S
H2175 C2151 0.949 . S
H2176 C2153 0.950 . S
H2177 C2155 0.950 . S
C2178 C2179 1.349 . S
C2178 C2180 1.327 . S
C2178 H2203 0.950 . S
C2179 C2178 1.349 . S
C2179 C2195 1.349 . S
C2180 C2178 1.327 . S
C2180 C2199 1.429 . S
C2180 H2204 0.950 . S
C2181 C2198 1.574 . S
C2181 C2200 1.368 . S
C2181 H2205 0.949 . S
H2182 C2186 0.949 . S
C2183 C2184 1.349 . S
C2183 C2185 1.327 . S
C2183 H2206 0.950 . S
C2184 C2183 1.349 . S
C2184 C2196 1.349 . S
C2185 C2183 1.327 . S
C2185 C2201 1.429 . S
C2185 H2207 0.950 . S
C2186 H2182 0.949 . S
C2186 C2194 1.574 . S
C2186 C2202 1.368 . S
H2187 C2195 0.950 . S
H2188 C2193 0.950 . S
H2189 C2194 0.949 . S
H2190 C2196 0.950 . S
H2191 C2197 0.950 . S
H2192 C2198 0.949 . S
C2193 H2188 0.950 . S
C2193 C2195 1.327 . S
C2193 C2199 1.429 . S
C2194 C2186 1.574 . S
C2194 H2189 0.949 . S
C2194 C2200 1.368 . S
C2195 C2179 1.349 . S
C2195 H2187 0.950 . S
C2195 C2193 1.327 . S
C2196 C2184 1.349 . S
C2196 H2190 0.950 . S
C2196 C2197 1.327 . S
C2197 H2191 0.950 . S
C2197 C2196 1.327 . S
C2197 C2201 1.429 . S
C2198 C2181 1.574 . S
C2198 H2192 0.949 . S
C2198 C2202 1.368 . S
C2199 C2180 1.429 . S
C2199 C2193 1.429 . S
C2199 C2200 1.523 . S
C2200 C2181 1.368 . S
C2200 C2194 1.368 . S
C2200 C2199 1.523 . S
C2201 C2185 1.429 . S
C2201 C2197 1.429 . S
C2201 C2202 1.523 . S
C2202 C2186 1.368 . S
C2202 C2198 1.368 . S
C2202 C2201 1.523 . S
H2203 C2178 0.950 . S
H2204 C2180 0.950 . S
H2205 C2181 0.949 . S
H2206 C2183 0.950 . S
H2207 C2185 0.950 . S
C2208 C2209 1.349 . S
C2208 C2210 1.327 . S
C2208 H2233 0.950 . S
C2209 C2208 1.349 . S
C2209 C2225 1.349 . S
C2210 C2208 1.327 . S
C2210 C2229 1.429 . S
C2210 H2234 0.950 . S
C2211 C2228 1.574 . S
C2211 C2230 1.368 . S
C2211 H2235 0.949 . S
H2212 C2216 0.949 . S
C2213 C2214 1.349 . S
C2213 C2215 1.327 . S
C2213 H2236 0.950 . S
C2214 C2213 1.349 . S
C2214 C2226 1.349 . S
C2215 C2213 1.327 . S
C2215 C2231 1.429 . S
C2215 H2237 0.950 . S
C2216 H2212 0.949 . S
C2216 C2224 1.574 . S
C2216 C2232 1.368 . S
H2217 C2225 0.950 . S
H2218 C2223 0.950 . S
H2219 C2224 0.949 . S
H2220 C2226 0.950 . S
H2221 C2227 0.950 . S
H2222 C2228 0.949 . S
C2223 H2218 0.950 . S
C2223 C2225 1.327 . S
C2223 C2229 1.429 . S
C2224 C2216 1.574 . S
C2224 H2219 0.949 . S
C2224 C2230 1.368 . S
C2225 C2209 1.349 . S
C2225 H2217 0.950 . S
C2225 C2223 1.327 . S
C2226 C2214 1.349 . S
C2226 H2220 0.950 . S
C2226 C2227 1.327 . S
C2227 H2221 0.950 . S
C2227 C2226 1.327 . S
C2227 C2231 1.429 . S
C2228 C2211 1.574 . S
C2228 H2222 0.949 . S
C2228 C2232 1.368 . S
C2229 C2210 1.429 . S
C2229 C2223 1.429 . S
C2229 C2230 1.523 . S
C2230 C2211 1.368 . S
C2230 C2224 1.368 . S
C2230 C2229 1.523 . S
C2231 C2215 1.429 . S
C2231 C2227 1.429 . S
C2231 C2232 1.523 . S
C2232 C2216 1.368 . S
C2232 C2228 1.368 . S
C2232 C2231 1.523 . S
H2233 C2208 0.950 . S
H2234 C2210 0.950 . S
H2235 C2211 0.949 . S
H2236 C2213 0.950 . S
H2237 C2215 0.950 . S
C2238 C2239 1.349 . S
C2238 C2240 1.327 . S
C2238 H2263 0.950 . S
C2239 C2238 1.349 . S
C2239 C2255 1.349 . S
C2240 C2238 1.327 . S
C2240 C2259 1.429 . S
C2240 H2264 0.950 . S
C2241 C2258 1.574 . S
C2241 C2260 1.368 . S
C2241 H2265 0.949 . S
H2242 C2246 0.949 . S
C2243 C2244 1.349 . S
C2243 C2245 1.327 . S
C2243 H2266 0.950 . S
C2244 C2243 1.349 . S
C2244 C2256 1.349 . S
C2245 C2243 1.327 . S
C2245 C2261 1.429 . S
C2245 H2267 0.950 . S
C2246 H2242 0.949 . S
C2246 C2254 1.574 . S
C2246 C2262 1.368 . S
H2247 C2255 0.950 . S
H2248 C2253 0.950 . S
H2249 C2254 0.949 . S
H2250 C2256 0.950 . S
H2251 C2257 0.950 . S
H2252 C2258 0.949 . S
C2253 H2248 0.950 . S
C2253 C2255 1.327 . S
C2253 C2259 1.429 . S
C2254 C2246 1.574 . S
C2254 H2249 0.949 . S
C2254 C2260 1.368 . S
C2255 C2239 1.349 . S
C2255 H2247 0.950 . S
C2255 C2253 1.327 . S
C2256 C2244 1.349 . S
C2256 H2250 0.950 . S
C2256 C2257 1.327 . S
C2257 H2251 0.950 . S
C2257 C2256 1.327 . S
C2257 C2261 1.429 . S
C2258 C2241 1.574 . S
C2258 H2252 0.949 . S
C2258 C2262 1.368 . S
C2259 C2240 1.429 . S
C2259 C2253 1.429 . S
C2259 C2260 1.523 . S
C2260 C2241 1.368 . S
C2260 C2254 1.368 . S
C2260 C2259 1.523 . S
C2261 C2245 1.429 . S
C2261 C2257 1.429 . S
C2261 C2262 1.523 . S
C2262 C2246 1.368 . S
C2262 C2258 1.368 . S
C2262 C2261 1.523 . S
H2263 C2238 0.950 . S
H2264 C2240 0.950 . S
H2265 C2241 0.949 . S
H2266 C2243 0.950 . S
H2267 C2245 0.950 . S
C2268 C2269 1.349 . S
C2268 C2270 1.327 . S
C2268 H2293 0.950 . S
C2269 C2268 1.349 . S
C2269 C2285 1.349 . S
C2270 C2268 1.327 . S
C2270 C2289 1.429 . S
C2270 H2294 0.950 . S
C2271 C2288 1.574 . S
C2271 C2290 1.368 . S
C2271 H2295 0.949 . S
H2272 C2276 0.949 . S
C2273 C2274 1.349 . S
C2273 C2275 1.327 . S
C2273 H2296 0.950 . S
C2274 C2273 1.349 . S
C2274 C2286 1.349 . S
C2275 C2273 1.327 . S
C2275 C2291 1.429 . S
C2275 H2297 0.950 . S
C2276 H2272 0.949 . S
C2276 C2284 1.574 . S
C2276 C2292 1.368 . S
H2277 C2285 0.950 . S
H2278 C2283 0.950 . S
H2279 C2284 0.949 . S
H2280 C2286 0.950 . S
H2281 C2287 0.950 . S
H2282 C2288 0.949 . S
C2283 H2278 0.950 . S
C2283 C2285 1.327 . S
C2283 C2289 1.429 . S
C2284 C2276 1.574 . S
C2284 H2279 0.949 . S
C2284 C2290 1.368 . S
C2285 C2269 1.349 . S
C2285 H2277 0.950 . S
C2285 C2283 1.327 . S
C2286 C2274 1.349 . S
C2286 H2280 0.950 . S
C2286 C2287 1.327 . S
C2287 H2281 0.950 . S
C2287 C2286 1.327 . S
C2287 C2291 1.429 . S
C2288 C2271 1.574 . S
C2288 H2282 0.949 . S
C2288 C2292 1.368 . S
C2289 C2270 1.429 . S
C2289 C2283 1.429 . S
C2289 C2290 1.523 . S
C2290 C2271 1.368 . S
C2290 C2284 1.368 . S
C2290 C2289 1.523 . S
C2291 C2275 1.429 . S
C2291 C2287 1.429 . S
C2291 C2292 1.523 . S
C2292 C2276 1.368 . S
C2292 C2288 1.368 . S
C2292 C2291 1.523 . S
H2293 C2268 0.950 . S
H2294 C2270 0.950 . S
H2295 C2271 0.949 . S
H2296 C2273 0.950 . S
H2297 C2275 0.950 . S
C2298 C2299 1.349 . S
C2298 C2300 1.327 . S
C2298 H2323 0.950 . S
C2299 C2298 1.349 . S
C2299 C2315 1.349 . S
C2300 C2298 1.327 . S
C2300 C2319 1.429 . S
C2300 H2324 0.950 . S
C2301 C2318 1.574 . S
C2301 C2320 1.368 . S
C2301 H2325 0.949 . S
H2302 C2306 0.949 . S
C2303 C2304 1.349 . S
C2303 C2305 1.327 . S
C2303 H2326 0.950 . S
C2304 C2303 1.349 . S
C2304 C2316 1.349 . S
C2305 C2303 1.327 . S
C2305 C2321 1.429 . S
C2305 H2327 0.950 . S
C2306 H2302 0.949 . S
C2306 C2314 1.574 . S
C2306 C2322 1.368 . S
H2307 C2315 0.950 . S
H2308 C2313 0.950 . S
H2309 C2314 0.949 . S
H2310 C2316 0.950 . S
H2311 C2317 0.950 . S
H2312 C2318 0.949 . S
C2313 H2308 0.950 . S
C2313 C2315 1.327 . S
C2313 C2319 1.429 . S
C2314 C2306 1.574 . S
C2314 H2309 0.949 . S
C2314 C2320 1.368 . S
C2315 C2299 1.349 . S
C2315 H2307 0.950 . S
C2315 C2313 1.327 . S
C2316 C2304 1.349 . S
C2316 H2310 0.950 . S
C2316 C2317 1.327 . S
C2317 H2311 0.950 . S
C2317 C2316 1.327 . S
C2317 C2321 1.429 . S
C2318 C2301 1.574 . S
C2318 H2312 0.949 . S
C2318 C2322 1.368 . S
C2319 C2300 1.429 . S
C2319 C2313 1.429 . S
C2319 C2320 1.523 . S
C2320 C2301 1.368 . S
C2320 C2314 1.368 . S
C2320 C2319 1.523 . S
C2321 C2305 1.429 . S
C2321 C2317 1.429 . S
C2321 C2322 1.523 . S
C2322 C2306 1.368 . S
C2322 C2318 1.368 . S
C2322 C2321 1.523 . S
H2323 C2298 0.950 . S
H2324 C2300 0.950 . S
H2325 C2301 0.949 . S
H2326 C2303 0.950 . S
H2327 C2305 0.950 . S
C2328 C2329 1.349 . S
C2328 C2330 1.327 . S
C2328 H2353 0.950 . S
C2329 C2328 1.349 . S
C2329 C2345 1.349 . S
C2330 C2328 1.327 . S
C2330 C2349 1.429 . S
C2330 H2354 0.950 . S
C2331 C2348 1.574 . S
C2331 C2350 1.368 . S
C2331 H2355 0.949 . S
H2332 C2336 0.949 . S
C2333 C2334 1.349 . S
C2333 C2335 1.327 . S
C2333 H2356 0.950 . S
C2334 C2333 1.349 . S
C2334 C2346 1.349 . S
C2335 C2333 1.327 . S
C2335 C2351 1.429 . S
C2335 H2357 0.950 . S
C2336 H2332 0.949 . S
C2336 C2344 1.574 . S
C2336 C2352 1.368 . S
H2337 C2345 0.950 . S
H2338 C2343 0.950 . S
H2339 C2344 0.949 . S
H2340 C2346 0.950 . S
H2341 C2347 0.950 . S
H2342 C2348 0.949 . S
C2343 H2338 0.950 . S
C2343 C2345 1.327 . S
C2343 C2349 1.429 . S
C2344 C2336 1.574 . S
C2344 H2339 0.949 . S
C2344 C2350 1.368 . S
C2345 C2329 1.349 . S
C2345 H2337 0.950 . S
C2345 C2343 1.327 . S
C2346 C2334 1.349 . S
C2346 H2340 0.950 . S
C2346 C2347 1.327 . S
C2347 H2341 0.950 . S
C2347 C2346 1.327 . S
C2347 C2351 1.429 . S
C2348 C2331 1.574 . S
C2348 H2342 0.949 . S
C2348 C2352 1.368 . S
C2349 C2330 1.429 . S
C2349 C2343 1.429 . S
C2349 C2350 1.523 . S
C2350 C2331 1.368 . S
C2350 C2344 1.368 . S
C2350 C2349 1.523 . S
C2351 C2335 1.429 . S
C2351 C2347 1.429 . S
C2351 C2352 1.523 . S
C2352 C2336 1.368 . S
C2352 C2348 1.368 . S
C2352 C2351 1.523 . S
H2353 C2328 0.950 . S
H2354 C2330 0.950 . S
H2355 C2331 0.949 . S
H2356 C2333 0.950 . S
H2357 C2335 0.950 . S
C2358 C2359 1.349 . S
C2358 C2360 1.327 . S
C2358 H2383 0.950 . S
C2359 C2358 1.349 . S
C2359 C2375 1.349 . S
C2360 C2358 1.327 . S
C2360 C2379 1.429 . S
C2360 H2384 0.950 . S
C2361 C2378 1.574 . S
C2361 C2380 1.368 . S
C2361 H2385 0.949 . S
H2362 C2366 0.949 . S
C2363 C2364 1.349 . S
C2363 C2365 1.327 . S
C2363 H2386 0.950 . S
C2364 C2363 1.349 . S
C2364 C2376 1.349 . S
C2365 C2363 1.327 . S
C2365 C2381 1.429 . S
C2365 H2387 0.950 . S
C2366 H2362 0.949 . S
C2366 C2374 1.574 . S
C2366 C2382 1.368 . S
H2367 C2375 0.950 . S
H2368 C2373 0.950 . S
H2369 C2374 0.949 . S
H2370 C2376 0.950 . S
H2371 C2377 0.950 . S
H2372 C2378 0.949 . S
C2373 H2368 0.950 . S
C2373 C2375 1.327 . S
C2373 C2379 1.429 . S
C2374 C2366 1.574 . S
C2374 H2369 0.949 . S
C2374 C2380 1.368 . S
C2375 C2359 1.349 . S
C2375 H2367 0.950 . S
C2375 C2373 1.327 . S
C2376 C2364 1.349 . S
C2376 H2370 0.950 . S
C2376 C2377 1.327 . S
C2377 H2371 0.950 . S
C2377 C2376 1.327 . S
C2377 C2381 1.429 . S
C2378 C2361 1.574 . S
C2378 H2372 0.949 . S
C2378 C2382 1.368 . S
C2379 C2360 1.429 . S
C2379 C2373 1.429 . S
C2379 C2380 1.523 . S
C2380 C2361 1.368 . S
C2380 C2374 1.368 . S
C2380 C2379 1.523 . S
C2381 C2365 1.429 . S
C2381 C2377 1.429 . S
C2381 C2382 1.523 . S
C2382 C2366 1.368 . S
C2382 C2378 1.368 . S
C2382 C2381 1.523 . S
H2383 C2358 0.950 . S
H2384 C2360 0.950 . S
H2385 C2361 0.949 . S
H2386 C2363 0.950 . S
H2387 C2365 0.950 . S
C2388 C2389 1.349 . S
C2388 C2390 1.327 . S
C2388 H2413 0.950 . S
C2389 C2388 1.349 . S
C2389 C2405 1.349 . S
C2390 C2388 1.327 . S
C2390 C2409 1.429 . S
C2390 H2414 0.950 . S
C2391 C2408 1.574 . S
C2391 C2410 1.368 . S
C2391 H2415 0.949 . S
H2392 C2396 0.949 . S
C2393 C2394 1.349 . S
C2393 C2395 1.327 . S
C2393 H2416 0.950 . S
C2394 C2393 1.349 . S
C2394 C2406 1.349 . S
C2395 C2393 1.327 . S
C2395 C2411 1.429 . S
C2395 H2417 0.950 . S
C2396 H2392 0.949 . S
C2396 C2404 1.574 . S
C2396 C2412 1.368 . S
H2397 C2405 0.950 . S
H2398 C2403 0.950 . S
H2399 C2404 0.949 . S
H2400 C2406 0.950 . S
H2401 C2407 0.950 . S
H2402 C2408 0.949 . S
C2403 H2398 0.950 . S
C2403 C2405 1.327 . S
C2403 C2409 1.429 . S
C2404 C2396 1.574 . S
C2404 H2399 0.949 . S
C2404 C2410 1.368 . S
C2405 C2389 1.349 . S
C2405 H2397 0.950 . S
C2405 C2403 1.327 . S
C2406 C2394 1.349 . S
C2406 H2400 0.950 . S
C2406 C2407 1.327 . S
C2407 H2401 0.950 . S
C2407 C2406 1.327 . S
C2407 C2411 1.429 . S
C2408 C2391 1.574 . S
C2408 H2402 0.949 . S
C2408 C2412 1.368 . S
C2409 C2390 1.429 . S
C2409 C2403 1.429 . S
C2409 C2410 1.523 . S
C2410 C2391 1.368 . S
C2410 C2404 1.368 . S
C2410 C2409 1.523 . S
C2411 C2395 1.429 . S
C2411 C2407 1.429 . S
C2411 C2412 1.523 . S
C2412 C2396 1.368 . S
C2412 C2408 1.368 . S
C2412 C2411 1.523 . S
H2413 C2388 0.950 . S
H2414 C2390 0.950 . S
H2415 C2391 0.949 . S
H2416 C2393 0.950 . S
H2417 C2395 0.950 . S
C2418 C2419 1.349 . S
C2418 C2420 1.327 . S
C2418 H2443 0.950 . S
C2419 C2418 1.349 . S
C2419 C2435 1.349 . S
C2420 C2418 1.327 . S
C2420 C2439 1.429 . S
C2420 H2444 0.950 . S
C2421 C2438 1.574 . S
C2421 C2440 1.368 . S
C2421 H2445 0.949 . S
H2422 C2426 0.949 . S
C2423 C2424 1.349 . S
C2423 C2425 1.327 . S
C2423 H2446 0.950 . S
C2424 C2423 1.349 . S
C2424 C2436 1.349 . S
C2425 C2423 1.327 . S
C2425 C2441 1.429 . S
C2425 H2447 0.950 . S
C2426 H2422 0.949 . S
C2426 C2434 1.574 . S
C2426 C2442 1.368 . S
H2427 C2435 0.950 . S
H2428 C2433 0.950 . S
H2429 C2434 0.949 . S
H2430 C2436 0.950 . S
H2431 C2437 0.950 . S
H2432 C2438 0.949 . S
C2433 H2428 0.950 . S
C2433 C2435 1.327 . S
C2433 C2439 1.429 . S
C2434 C2426 1.574 . S
C2434 H2429 0.949 . S
C2434 C2440 1.368 . S
C2435 C2419 1.349 . S
C2435 H2427 0.950 . S
C2435 C2433 1.327 . S
C2436 C2424 1.349 . S
C2436 H2430 0.950 . S
C2436 C2437 1.327 . S
C2437 H2431 0.950 . S
C2437 C2436 1.327 . S
C2437 C2441 1.429 . S
C2438 C2421 1.574 . S
C2438 H2432 0.949 . S
C2438 C2442 1.368 . S
C2439 C2420 1.429 . S
C2439 C2433 1.429 . S
C2439 C2440 1.523 . S
C2440 C2421 1.368 . S
C2440 C2434 1.368 . S
C2440 C2439 1.523 . S
C2441 C2425 1.429 . S
C2441 C2437 1.429 . S
C2441 C2442 1.523 . S
C2442 C2426 1.368 . S
C2442 C2438 1.368 . S
C2442 C2441 1.523 . S
H2443 C2418 0.950 . S
H2444 C2420 0.950 . S
H2445 C2421 0.949 . S
H2446 C2423 0.950 . S
H2447 C2425 0.950 . S
C2448 C2449 1.349 . S
C2448 C2450 1.327 . S
C2448 H2473 0.950 . S
C2449 C2448 1.349 . S
C2449 C2465 1.349 . S
C2450 C2448 1.327 . S
C2450 C2469 1.429 . S
C2450 H2474 0.950 . S
C2451 C2468 1.574 . S
C2451 C2470 1.368 . S
C2451 H2475 0.949 . S
H2452 C2456 0.949 . S
C2453 C2454 1.349 . S
C2453 C2455 1.327 . S
C2453 H2476 0.950 . S
C2454 C2453 1.349 . S
C2454 C2466 1.349 . S
C2455 C2453 1.327 . S
C2455 C2471 1.429 . S
C2455 H2477 0.950 . S
C2456 H2452 0.949 . S
C2456 C2464 1.574 . S
C2456 C2472 1.368 . S
H2457 C2465 0.950 . S
H2458 C2463 0.950 . S
H2459 C2464 0.949 . S
H2460 C2466 0.950 . S
H2461 C2467 0.950 . S
H2462 C2468 0.949 . S
C2463 H2458 0.950 . S
C2463 C2465 1.327 . S
C2463 C2469 1.429 . S
C2464 C2456 1.574 . S
C2464 H2459 0.949 . S
C2464 C2470 1.368 . S
C2465 C2449 1.349 . S
C2465 H2457 0.950 . S
C2465 C2463 1.327 . S
C2466 C2454 1.349 . S
C2466 H2460 0.950 . S
C2466 C2467 1.327 . S
C2467 H2461 0.950 . S
C2467 C2466 1.327 . S
C2467 C2471 1.429 . S
C2468 C2451 1.574 . S
C2468 H2462 0.949 . S
C2468 C2472 1.368 . S
C2469 C2450 1.429 . S
C2469 C2463 1.429 . S
C2469 C2470 1.523 . S
C2470 C2451 1.368 . S
C2470 C2464 1.368 . S
C2470 C2469 1.523 . S
C2471 C2455 1.429 . S
C2471 C2467 1.429 . S
C2471 C2472 1.523 . S
C2472 C2456 1.368 . S
C2472 C2468 1.368 . S
C2472 C2471 1.523 . S
H2473 C2448 0.950 . S
H2474 C2450 0.950 . S
H2475 C2451 0.949 . S
H2476 C2453 0.950 . S
H2477 C2455 0.950 . S
C2478 C2479 1.349 . S
C2478 C2480 1.327 . S
C2478 H2503 0.950 . S
C2479 C2478 1.349 . S
C2479 C2495 1.349 . S
C2480 C2478 1.327 . S
C2480 C2499 1.429 . S
C2480 H2504 0.950 . S
C2481 C2498 1.574 . S
C2481 C2500 1.368 . S
C2481 H2505 0.949 . S
H2482 C2486 0.949 . S
C2483 C2484 1.349 . S
C2483 C2485 1.327 . S
C2483 H2506 0.950 . S
C2484 C2483 1.349 . S
C2484 C2496 1.349 . S
C2485 C2483 1.327 . S
C2485 C2501 1.429 . S
C2485 H2507 0.950 . S
C2486 H2482 0.949 . S
C2486 C2494 1.574 . S
C2486 C2502 1.368 . S
H2487 C2495 0.950 . S
H2488 C2493 0.950 . S
H2489 C2494 0.949 . S
H2490 C2496 0.950 . S
H2491 C2497 0.950 . S
H2492 C2498 0.949 . S
C2493 H2488 0.950 . S
C2493 C2495 1.327 . S
C2493 C2499 1.429 . S
C2494 C2486 1.574 . S
C2494 H2489 0.949 . S
C2494 C2500 1.368 . S
C2495 C2479 1.349 . S
C2495 H2487 0.950 . S
C2495 C2493 1.327 . S
C2496 C2484 1.349 . S
C2496 H2490 0.950 . S
C2496 C2497 1.327 . S
C2497 H2491 0.950 . S
C2497 C2496 1.327 . S
C2497 C2501 1.429 . S
C2498 C2481 1.574 . S
C2498 H2492 0.949 . S
C2498 C2502 1.368 . S
C2499 C2480 1.429 . S
C2499 C2493 1.429 . S
C2499 C2500 1.523 . S
C2500 C2481 1.368 . S
C2500 C2494 1.368 . S
C2500 C2499 1.523 . S
C2501 C2485 1.429 . S
C2501 C2497 1.429 . S
C2501 C2502 1.523 . S
C2502 C2486 1.368 . S
C2502 C2498 1.368 . S
C2502 C2501 1.523 . S
H2503 C2478 0.950 . S
H2504 C2480 0.950 . S
H2505 C2481 0.949 . S
H2506 C2483 0.950 . S
H2507 C2485 0.950 . S
C2508 C2509 1.349 . S
C2508 C2510 1.327 . S
C2508 H2533 0.950 . S
C2509 C2508 1.349 . S
C2509 C2525 1.349 . S
C2510 C2508 1.327 . S
C2510 C2529 1.429 . S
C2510 H2534 0.950 . S
C2511 C2528 1.574 . S
C2511 C2530 1.368 . S
C2511 H2535 0.949 . S
H2512 C2516 0.949 . S
C2513 C2514 1.349 . S
C2513 C2515 1.327 . S
C2513 H2536 0.950 . S
C2514 C2513 1.349 . S
C2514 C2526 1.349 . S
C2515 C2513 1.327 . S
C2515 C2531 1.429 . S
C2515 H2537 0.950 . S
C2516 H2512 0.949 . S
C2516 C2524 1.574 . S
C2516 C2532 1.368 . S
H2517 C2525 0.950 . S
H2518 C2523 0.950 . S
H2519 C2524 0.949 . S
H2520 C2526 0.950 . S
H2521 C2527 0.950 . S
H2522 C2528 0.949 . S
C2523 H2518 0.950 . S
C2523 C2525 1.327 . S
C2523 C2529 1.429 . S
C2524 C2516 1.574 . S
C2524 H2519 0.949 . S
C2524 C2530 1.368 . S
C2525 C2509 1.349 . S
C2525 H2517 0.950 . S
C2525 C2523 1.327 . S
C2526 C2514 1.349 . S
C2526 H2520 0.950 . S
C2526 C2527 1.327 . S
C2527 H2521 0.950 . S
C2527 C2526 1.327 . S
C2527 C2531 1.429 . S
C2528 C2511 1.574 . S
C2528 H2522 0.949 . S
C2528 C2532 1.368 . S
C2529 C2510 1.429 . S
C2529 C2523 1.429 . S
C2529 C2530 1.523 . S
C2530 C2511 1.368 . S
C2530 C2524 1.368 . S
C2530 C2529 1.523 . S
C2531 C2515 1.429 . S
C2531 C2527 1.429 . S
C2531 C2532 1.523 . S
C2532 C2516 1.368 . S
C2532 C2528 1.368 . S
C2532 C2531 1.523 . S
H2533 C2508 0.950 . S
H2534 C2510 0.950 . S
H2535 C2511 0.949 . S
H2536 C2513 0.950 . S
H2537 C2515 0.950 . S
C2538 C2539 1.349 . S
C2538 C2540 1.327 . S
C2538 H2563 0.950 1_556 S
C2539 C2538 1.349 . S
C2539 C2555 1.349 . S
C2540 C2538 1.327 . S
C2540 C2559 1.429 . S
C2540 H2564 0.950 . S
C2541 C2558 1.574 . S
C2541 C2560 1.368 . S
C2541 H2565 0.949 . S
H2542 C2546 0.949 . S
C2543 C2544 1.349 . S
C2543 C2545 1.327 . S
C2543 H2566 0.950 . S
C2544 C2543 1.349 . S
C2544 C2556 1.349 . S
C2545 C2543 1.327 . S
C2545 C2561 1.429 . S
C2545 H2567 0.950 . S
C2546 H2542 0.949 . S
C2546 C2554 1.574 . S
C2546 C2562 1.368 . S
H2547 C2555 0.950 . S
H2548 C2553 0.950 . S
H2549 C2554 0.949 . S
H2550 C2556 0.950 . S
H2551 C2557 0.950 . S
H2552 C2558 0.949 . S
C2553 H2548 0.950 . S
C2553 C2555 1.327 . S
C2553 C2559 1.429 . S
C2554 C2546 1.574 . S
C2554 H2549 0.949 . S
C2554 C2560 1.368 . S
C2555 C2539 1.349 . S
C2555 H2547 0.950 . S
C2555 C2553 1.327 . S
C2556 C2544 1.349 . S
C2556 H2550 0.950 . S
C2556 C2557 1.327 . S
C2557 H2551 0.950 . S
C2557 C2556 1.327 . S
C2557 C2561 1.429 . S
C2558 C2541 1.574 . S
C2558 H2552 0.949 . S
C2558 C2562 1.368 . S
C2559 C2540 1.429 . S
C2559 C2553 1.429 . S
C2559 C2560 1.523 . S
C2560 C2541 1.368 . S
C2560 C2554 1.368 . S
C2560 C2559 1.523 . S
C2561 C2545 1.429 . S
C2561 C2557 1.429 . S
C2561 C2562 1.523 . S
C2562 C2546 1.368 . S
C2562 C2558 1.368 . S
C2562 C2561 1.523 . S
H2563 C2538 0.950 1_554 S
H2564 C2540 0.950 . S
H2565 C2541 0.949 . S
H2566 C2543 0.950 . S
H2567 C2545 0.950 . S
C2568 C2569 1.349 1_554 S
C2568 C2570 1.327 . S
C2568 H2593 0.950 . S
C2569 C2568 1.349 1_556 S
C2569 C2585 1.349 . S
C2570 C2568 1.327 . S
C2570 C2589 1.429 1_554 S
C2570 H2594 0.950 . S
C2571 C2588 1.574 . S
C2571 C2590 1.368 . S
C2571 H2595 0.949 . S
H2572 C2576 0.949 . S
C2573 C2574 1.349 . S
C2573 C2575 1.327 . S
C2573 H2596 0.950 . S
C2574 C2573 1.349 . S
C2574 C2586 1.349 . S
C2575 C2573 1.327 . S
C2575 C2591 1.429 . S
C2575 H2597 0.950 . S
C2576 H2572 0.949 . S
C2576 C2584 1.574 . S
C2576 C2592 1.368 . S
H2577 C2585 0.950 . S
H2578 C2583 0.950 . S
H2579 C2584 0.949 1_554 S
H2580 C2586 0.950 . S
H2581 C2587 0.950 . S
H2582 C2588 0.949 . S
C2583 H2578 0.950 . S
C2583 C2585 1.327 . S
C2583 C2589 1.429 . S
C2584 C2576 1.574 . S
C2584 H2579 0.949 1_556 S
C2584 C2590 1.368 . S
C2585 C2569 1.349 . S
C2585 H2577 0.950 . S
C2585 C2583 1.327 . S
C2586 C2574 1.349 . S
C2586 H2580 0.950 . S
C2586 C2587 1.327 . S
C2587 H2581 0.950 . S
C2587 C2586 1.327 . S
C2587 C2591 1.429 . S
C2588 C2571 1.574 . S
C2588 H2582 0.949 . S
C2588 C2592 1.368 . S
C2589 C2570 1.429 1_556 S
C2589 C2583 1.429 . S
C2589 C2590 1.523 . S
C2590 C2571 1.368 . S
C2590 C2584 1.368 . S
C2590 C2589 1.523 . S
C2591 C2575 1.429 . S
C2591 C2587 1.429 . S
C2591 C2592 1.523 . S
C2592 C2576 1.368 . S
C2592 C2588 1.368 . S
C2592 C2591 1.523 . S
H2593 C2568 0.950 . S
H2594 C2570 0.950 . S
H2595 C2571 0.949 . S
H2596 C2573 0.950 . S
H2597 C2575 0.950 . S
C2598 C2599 1.349 . S
C2598 C2600 1.327 . S
C2598 H2623 0.950 . S
C2599 C2598 1.349 . S
C2599 C2615 1.349 1_554 S
C2600 C2598 1.327 . S
C2600 C2619 1.429 1_554 S
C2600 H2624 0.950 . S
C2601 C2618 1.574 . S
C2601 C2620 1.368 . S
C2601 H2625 0.949 . S
H2602 C2606 0.949 . S
C2603 C2604 1.349 . S
C2603 C2605 1.327 . S
C2603 H2626 0.950 . S
C2604 C2603 1.349 . S
C2604 C2616 1.349 . S
C2605 C2603 1.327 . S
C2605 C2621 1.429 . S
C2605 H2627 0.950 . S
C2606 H2602 0.949 . S
C2606 C2614 1.574 . S
C2606 C2622 1.368 . S
H2607 C2615 0.950 . S
H2608 C2613 0.950 . S
H2609 C2614 0.949 1_554 S
H2610 C2616 0.950 . S
H2611 C2617 0.950 . S
H2612 C2618 0.949 . S
C2613 H2608 0.950 . S
C2613 C2615 1.327 . S
C2613 C2619 1.429 . S
C2614 C2606 1.574 . S
C2614 H2609 0.949 1_556 S
C2614 C2620 1.368 . S
C2615 C2599 1.349 1_556 S
C2615 H2607 0.950 . S
C2615 C2613 1.327 . S
C2616 C2604 1.349 . S
C2616 H2610 0.950 . S
C2616 C2617 1.327 . S
C2617 H2611 0.950 . S
C2617 C2616 1.327 . S
C2617 C2621 1.429 . S
C2618 C2601 1.574 . S
C2618 H2612 0.949 . S
C2618 C2622 1.368 . S
C2619 C2600 1.429 1_556 S
C2619 C2613 1.429 . S
C2619 C2620 1.523 . S
C2620 C2601 1.368 . S
C2620 C2614 1.368 . S
C2620 C2619 1.523 . S
C2621 C2605 1.429 . S
C2621 C2617 1.429 . S
C2621 C2622 1.523 . S
C2622 C2606 1.368 . S
C2622 C2618 1.368 . S
C2622 C2621 1.523 . S
H2623 C2598 0.950 . S
H2624 C2600 0.950 . S
H2625 C2601 0.949 . S
H2626 C2603 0.950 . S
H2627 C2605 0.950 . S
C2628 C2629 1.349 . S
C2628 C2630 1.327 . S
C2628 H2653 0.950 . S
C2629 C2628 1.349 . S
C2629 C2645 1.349 . S
C2630 C2628 1.327 . S
C2630 C2649 1.429 . S
C2630 H2654 0.950 . S
C2631 C2648 1.574 . S
C2631 C2650 1.368 . S
C2631 H2655 0.949 . S
H2632 C2636 0.949 . S
C2633 C2634 1.349 . S
C2633 C2635 1.327 . S
C2633 H2656 0.950 . S
C2634 C2633 1.349 . S
C2634 C2646 1.349 . S
C2635 C2633 1.327 . S
C2635 C2651 1.429 . S
C2635 H2657 0.950 . S
C2636 H2632 0.949 . S
C2636 C2644 1.574 . S
C2636 C2652 1.368 . S
H2637 C2645 0.950 1_554 S
H2638 C2643 0.950 . S
H2639 C2644 0.949 . S
H2640 C2646 0.950 . S
H2641 C2647 0.950 . S
H2642 C2648 0.949 . S
C2643 H2638 0.950 . S
C2643 C2645 1.327 . S
C2643 C2649 1.429 . S
C2644 C2636 1.574 . S
C2644 H2639 0.949 . S
C2644 C2650 1.368 . S
C2645 C2629 1.349 . S
C2645 H2637 0.950 1_556 S
C2645 C2643 1.327 . S
C2646 C2634 1.349 . S
C2646 H2640 0.950 . S
C2646 C2647 1.327 . S
C2647 H2641 0.950 . S
C2647 C2646 1.327 . S
C2647 C2651 1.429 . S
C2648 C2631 1.574 . S
C2648 H2642 0.949 . S
C2648 C2652 1.368 . S
C2649 C2630 1.429 . S
C2649 C2643 1.429 . S
C2649 C2650 1.523 . S
C2650 C2631 1.368 . S
C2650 C2644 1.368 . S
C2650 C2649 1.523 . S
C2651 C2635 1.429 . S
C2651 C2647 1.429 . S
C2651 C2652 1.523 . S
C2652 C2636 1.368 . S
C2652 C2648 1.368 . S
C2652 C2651 1.523 . S
H2653 C2628 0.950 . S
H2654 C2630 0.950 . S
H2655 C2631 0.949 . S
H2656 C2633 0.950 . S
H2657 C2635 0.950 . S
C2658 C2659 1.363 . S
C2658 C2660 1.327 . S
C2658 H2683 0.950 . S
C2659 C2658 1.363 . S
C2659 C2675 1.342 1_556 S
C2660 C2658 1.327 . S
C2660 C2679 1.429 . S
C2660 H2684 0.950 . S
C2661 C2678 1.574 . S
C2661 C2680 1.368 . S
C2661 H2685 0.949 . S
H2662 C2666 0.949 . S
C2663 C2664 1.349 . S
C2663 C2665 1.327 . S
C2663 H2686 0.950 . S
C2664 C2663 1.349 . S
C2664 C2676 1.349 . S
C2665 C2663 1.327 . S
C2665 C2681 1.429 . S
C2665 H2687 0.950 . S
C2666 H2662 0.949 . S
C2666 C2674 1.574 . S
C2666 C2682 1.368 . S
H2667 C2675 0.950 . S
H2668 C2673 0.947 . S
H2669 C2674 0.949 . S
H2670 C2676 0.950 . S
H2671 C2677 0.950 . S
H2672 C2678 0.949 . S
C2673 H2668 0.947 . S
C2673 C2675 1.325 . S
C2673 C2679 1.433 1_554 S
C2674 C2666 1.574 . S
C2674 H2669 0.949 . S
C2674 C2680 1.368 . S
C2675 C2659 1.342 1_554 S
C2675 H2667 0.950 . S
C2675 C2673 1.325 . S
C2676 C2664 1.349 . S
C2676 H2670 0.950 . S
C2676 C2677 1.327 . S
C2677 H2671 0.950 . S
C2677 C2676 1.327 . S
C2677 C2681 1.429 . S
C2678 C2661 1.574 . S
C2678 H2672 0.949 . S
C2678 C2682 1.368 . S
C2679 C2660 1.429 . S
C2679 C2673 1.433 1_556 S
C2679 C2680 1.523 . S
C2680 C2661 1.368 . S
C2680 C2674 1.368 . S
C2680 C2679 1.523 . S
C2681 C2665 1.429 . S
C2681 C2677 1.429 . S
C2681 C2682 1.523 . S
C2682 C2666 1.368 . S
C2682 C2678 1.368 . S
C2682 C2681 1.523 . S
H2683 C2658 0.950 . S
H2684 C2660 0.950 . S
H2685 C2661 0.949 . S
H2686 C2663 0.950 . S
H2687 C2665 0.950 . S
C2688 C2689 1.349 1_556 S
C2688 C2690 1.327 . S
C2688 H2713 0.950 . S
C2689 C2688 1.349 1_554 S
C2689 C2705 1.349 . S
C2690 C2688 1.327 . S
C2690 C2709 1.429 . S
C2690 H2714 0.950 . S
C2691 C2708 1.574 . S
C2691 C2710 1.368 . S
C2691 H2715 0.949 . S
H2692 C2696 0.949 . S
C2693 C2694 1.349 . S
C2693 C2695 1.327 . S
C2693 H2716 0.950 . S
C2694 C2693 1.349 . S
C2694 C2706 1.349 . S
C2695 C2693 1.327 . S
C2695 C2711 1.429 . S
C2695 H2717 0.950 . S
C2696 H2692 0.949 . S
C2696 C2704 1.574 . S
C2696 C2712 1.368 . S
H2697 C2705 0.950 . S
H2698 C2703 0.950 . S
H2699 C2704 0.949 . S
H2700 C2706 0.950 . S
H2701 C2707 0.950 . S
H2702 C2708 0.949 . S
C2703 H2698 0.950 . S
C2703 C2705 1.327 1_556 S
C2703 C2709 1.429 . S
C2704 C2696 1.574 . S
C2704 H2699 0.949 . S
C2704 C2710 1.368 . S
C2705 C2689 1.349 . S
C2705 H2697 0.950 . S
C2705 C2703 1.327 1_554 S
C2706 C2694 1.349 . S
C2706 H2700 0.950 . S
C2706 C2707 1.327 . S
C2707 H2701 0.950 . S
C2707 C2706 1.327 . S
C2707 C2711 1.429 . S
C2708 C2691 1.574 . S
C2708 H2702 0.949 . S
C2708 C2712 1.368 . S
C2709 C2690 1.429 . S
C2709 C2703 1.429 . S
C2709 C2710 1.523 . S
C2710 C2691 1.368 . S
C2710 C2704 1.368 . S
C2710 C2709 1.523 . S
C2711 C2695 1.429 . S
C2711 C2707 1.429 . S
C2711 C2712 1.523 . S
C2712 C2696 1.368 . S
C2712 C2708 1.368 . S
C2712 C2711 1.523 . S
H2713 C2688 0.950 . S
H2714 C2690 0.950 . S
H2715 C2691 0.949 . S
H2716 C2693 0.950 . S
H2717 C2695 0.950 . S
C2718 C2719 1.349 . S
C2718 C2720 1.327 . S
C2718 H2743 0.950 . S
C2719 C2718 1.349 . S
C2719 C2735 1.349 . S
C2720 C2718 1.327 . S
C2720 C2739 1.429 . S
C2720 H2744 0.950 . S
C2721 C2738 1.574 . S
C2721 C2740 1.368 . S
C2721 H2745 0.949 . S
H2722 C2726 0.949 . S
C2723 C2724 1.349 . S
C2723 C2725 1.327 . S
C2723 H2746 0.950 . S
C2724 C2723 1.349 . S
C2724 C2736 1.349 . S
C2725 C2723 1.327 . S
C2725 C2741 1.429 . S
C2725 H2747 0.950 . S
C2726 H2722 0.949 . S
C2726 C2734 1.574 . S
C2726 C2742 1.368 . S
H2727 C2735 0.950 . S
H2728 C2733 0.950 . S
H2729 C2734 0.949 . S
H2730 C2736 0.950 . S
H2731 C2737 0.950 . S
H2732 C2738 0.949 . S
C2733 H2728 0.950 . S
C2733 C2735 1.327 . S
C2733 C2739 1.429 . S
C2734 C2726 1.574 . S
C2734 H2729 0.949 . S
C2734 C2740 1.368 . S
C2735 C2719 1.349 . S
C2735 H2727 0.950 . S
C2735 C2733 1.327 . S
C2736 C2724 1.349 . S
C2736 H2730 0.950 . S
C2736 C2737 1.327 . S
C2737 H2731 0.950 . S
C2737 C2736 1.327 . S
C2737 C2741 1.429 . S
C2738 C2721 1.574 . S
C2738 H2732 0.949 . S
C2738 C2742 1.368 . S
C2739 C2720 1.429 . S
C2739 C2733 1.429 . S
C2739 C2740 1.523 . S
C2740 C2721 1.368 . S
C2740 C2734 1.368 . S
C2740 C2739 1.523 . S
C2741 C2725 1.429 . S
C2741 C2737 1.429 . S
C2741 C2742 1.523 . S
C2742 C2726 1.368 . S
C2742 C2738 1.368 . S
C2742 C2741 1.523 . S
H2743 C2718 0.950 . S
H2744 C2720 0.950 . S
H2745 C2721 0.949 . S
H2746 C2723 0.950 . S
H2747 C2725 0.950 . S
C2748 C2749 1.349 . S
C2748 C2750 1.327 . S
C2748 H2773 0.950 . S
C2749 C2748 1.349 . S
C2749 C2765 1.349 . S
C2750 C2748 1.327 . S
C2750 C2769 1.429 . S
C2750 H2774 0.950 . S
C2751 C2768 1.574 . S
C2751 C2770 1.368 . S
C2751 H2775 0.949 . S
H2752 C2756 0.949 . S
C2753 C2754 1.349 . S
C2753 C2755 1.327 . S
C2753 H2776 0.950 . S
C2754 C2753 1.349 . S
C2754 C2766 1.349 . S
C2755 C2753 1.327 . S
C2755 C2771 1.429 . S
C2755 H2777 0.950 . S
C2756 H2752 0.949 . S
C2756 C2764 1.574 . S
C2756 C2772 1.368 . S
H2757 C2765 0.950 . S
H2758 C2763 0.950 . S
H2759 C2764 0.949 . S
H2760 C2766 0.950 . S
H2761 C2767 0.950 . S
H2762 C2768 0.949 . S
C2763 H2758 0.950 . S
C2763 C2765 1.327 . S
C2763 C2769 1.429 . S
C2764 C2756 1.574 . S
C2764 H2759 0.949 . S
C2764 C2770 1.368 . S
C2765 C2749 1.349 . S
C2765 H2757 0.950 . S
C2765 C2763 1.327 . S
C2766 C2754 1.349 . S
C2766 H2760 0.950 . S
C2766 C2767 1.327 . S
C2767 H2761 0.950 . S
C2767 C2766 1.327 . S
C2767 C2771 1.429 . S
C2768 C2751 1.574 . S
C2768 H2762 0.949 . S
C2768 C2772 1.368 . S
C2769 C2750 1.429 . S
C2769 C2763 1.429 . S
C2769 C2770 1.523 . S
C2770 C2751 1.368 . S
C2770 C2764 1.368 . S
C2770 C2769 1.523 . S
C2771 C2755 1.429 . S
C2771 C2767 1.429 . S
C2771 C2772 1.523 . S
C2772 C2756 1.368 . S
C2772 C2768 1.368 . S
C2772 C2771 1.523 . S
H2773 C2748 0.950 . S
H2774 C2750 0.950 . S
H2775 C2751 0.949 . S
H2776 C2753 0.950 . S
H2777 C2755 0.950 . S
C2778 C2779 1.349 . S
C2778 C2780 1.327 . S
C2778 H2803 0.950 . S
C2779 C2778 1.349 . S
C2779 C2795 1.349 . S
C2780 C2778 1.327 . S
C2780 C2799 1.429 . S
C2780 H2804 0.950 . S
C2781 C2798 1.574 . S
C2781 C2800 1.368 . S
C2781 H2805 0.949 . S
H2782 C2786 0.949 . S
C2783 C2784 1.349 . S
C2783 C2785 1.327 . S
C2783 H2806 0.950 . S
C2784 C2783 1.349 . S
C2784 C2796 1.349 . S
C2785 C2783 1.327 . S
C2785 C2801 1.429 . S
C2785 H2807 0.950 . S
C2786 H2782 0.949 . S
C2786 C2794 1.574 . S
C2786 C2802 1.368 . S
H2787 C2795 0.950 . S
H2788 C2793 0.950 . S
H2789 C2794 0.949 . S
H2790 C2796 0.950 . S
H2791 C2797 0.950 . S
H2792 C2798 0.949 . S
C2793 H2788 0.950 . S
C2793 C2795 1.327 . S
C2793 C2799 1.429 . S
C2794 C2786 1.574 . S
C2794 H2789 0.949 . S
C2794 C2800 1.368 . S
C2795 C2779 1.349 . S
C2795 H2787 0.950 . S
C2795 C2793 1.327 . S
C2796 C2784 1.349 . S
C2796 H2790 0.950 . S
C2796 C2797 1.327 . S
C2797 H2791 0.950 . S
C2797 C2796 1.327 . S
C2797 C2801 1.429 . S
C2798 C2781 1.574 . S
C2798 H2792 0.949 . S
C2798 C2802 1.368 . S
C2799 C2780 1.429 . S
C2799 C2793 1.429 . S
C2799 C2800 1.523 . S
C2800 C2781 1.368 . S
C2800 C2794 1.368 . S
C2800 C2799 1.523 . S
C2801 C2785 1.429 . S
C2801 C2797 1.429 . S
C2801 C2802 1.523 . S
C2802 C2786 1.368 . S
C2802 C2798 1.368 . S
C2802 C2801 1.523 . S
H2803 C2778 0.950 . S
H2804 C2780 0.950 . S
H2805 C2781 0.949 . S
H2806 C2783 0.950 . S
H2807 C2785 0.950 . S
C2808 C2809 1.349 . S
C2808 C2810 1.327 . S
C2808 H2833 0.950 . S
C2809 C2808 1.349 . S
C2809 C2825 1.349 . S
C2810 C2808 1.327 . S
C2810 C2829 1.429 . S
C2810 H2834 0.950 . S
C2811 C2828 1.574 . S
C2811 C2830 1.368 . S
C2811 H2835 0.949 . S
H2812 C2816 0.949 . S
C2813 C2814 1.349 . S
C2813 C2815 1.327 . S
C2813 H2836 0.950 . S
C2814 C2813 1.349 . S
C2814 C2826 1.349 . S
C2815 C2813 1.327 . S
C2815 C2831 1.429 . S
C2815 H2837 0.950 . S
C2816 H2812 0.949 . S
C2816 C2824 1.574 . S
C2816 C2832 1.368 . S
H2817 C2825 0.950 . S
H2818 C2823 0.950 . S
H2819 C2824 0.949 . S
H2820 C2826 0.950 . S
H2821 C2827 0.950 . S
H2822 C2828 0.949 . S
C2823 H2818 0.950 . S
C2823 C2825 1.327 . S
C2823 C2829 1.429 . S
C2824 C2816 1.574 . S
C2824 H2819 0.949 . S
C2824 C2830 1.368 . S
C2825 C2809 1.349 . S
C2825 H2817 0.950 . S
C2825 C2823 1.327 . S
C2826 C2814 1.349 . S
C2826 H2820 0.950 . S
C2826 C2827 1.327 . S
C2827 H2821 0.950 . S
C2827 C2826 1.327 . S
C2827 C2831 1.429 . S
C2828 C2811 1.574 . S
C2828 H2822 0.949 . S
C2828 C2832 1.368 . S
C2829 C2810 1.429 . S
C2829 C2823 1.429 . S
C2829 C2830 1.523 . S
C2830 C2811 1.368 . S
C2830 C2824 1.368 . S
C2830 C2829 1.523 . S
C2831 C2815 1.429 . S
C2831 C2827 1.429 . S
C2831 C2832 1.523 . S
C2832 C2816 1.368 . S
C2832 C2828 1.368 . S
C2832 C2831 1.523 . S
H2833 C2808 0.950 . S
H2834 C2810 0.950 . S
H2835 C2811 0.949 . S
H2836 C2813 0.950 . S
H2837 C2815 0.950 . S
C2838 C2839 1.349 . S
C2838 C2840 1.327 . S
C2838 H2863 0.950 . S
C2839 C2838 1.349 . S
C2839 C2855 1.349 . S
C2840 C2838 1.327 . S
C2840 C2859 1.429 . S
C2840 H2864 0.950 . S
C2841 C2858 1.574 . S
C2841 C2860 1.368 . S
C2841 H2865 0.949 . S
H2842 C2846 0.949 . S
C2843 C2844 1.349 . S
C2843 C2845 1.327 . S
C2843 H2866 0.950 . S
C2844 C2843 1.349 . S
C2844 C2856 1.349 . S
C2845 C2843 1.327 . S
C2845 C2861 1.429 . S
C2845 H2867 0.950 . S
C2846 H2842 0.949 . S
C2846 C2854 1.574 . S
C2846 C2862 1.368 . S
H2847 C2855 0.950 . S
H2848 C2853 0.950 . S
H2849 C2854 0.949 . S
H2850 C2856 0.950 . S
H2851 C2857 0.950 . S
H2852 C2858 0.949 . S
C2853 H2848 0.950 . S
C2853 C2855 1.327 . S
C2853 C2859 1.429 . S
C2854 C2846 1.574 . S
C2854 H2849 0.949 . S
C2854 C2860 1.368 . S
C2855 C2839 1.349 . S
C2855 H2847 0.950 . S
C2855 C2853 1.327 . S
C2856 C2844 1.349 . S
C2856 H2850 0.950 . S
C2856 C2857 1.327 . S
C2857 H2851 0.950 . S
C2857 C2856 1.327 . S
C2857 C2861 1.429 . S
C2858 C2841 1.574 . S
C2858 H2852 0.949 . S
C2858 C2862 1.368 . S
C2859 C2840 1.429 . S
C2859 C2853 1.429 . S
C2859 C2860 1.523 . S
C2860 C2841 1.368 . S
C2860 C2854 1.368 . S
C2860 C2859 1.523 . S
C2861 C2845 1.429 . S
C2861 C2857 1.429 . S
C2861 C2862 1.523 . S
C2862 C2846 1.368 . S
C2862 C2858 1.368 . S
C2862 C2861 1.523 . S
H2863 C2838 0.950 . S
H2864 C2840 0.950 . S
H2865 C2841 0.949 . S
H2866 C2843 0.950 . S
H2867 C2845 0.950 . S
C2868 C2869 1.349 . S
C2868 C2870 1.327 . S
C2868 H2893 0.950 1_655 S
C2869 C2868 1.349 . S
C2869 C2885 1.349 . S
C2870 C2868 1.327 . S
C2870 C2889 1.429 . S
C2870 H2894 0.950 . S
C2871 C2888 1.574 . S
C2871 C2890 1.368 . S
C2871 H2895 0.949 . S
H2872 C2876 0.949 . S
C2873 C2874 1.349 . S
C2873 C2875 1.327 . S
C2873 H2896 0.950 . S
C2874 C2873 1.349 . S
C2874 C2886 1.349 . S
C2875 C2873 1.327 . S
C2875 C2891 1.429 . S
C2875 H2897 0.950 . S
C2876 H2872 0.949 . S
C2876 C2884 1.574 . S
C2876 C2892 1.368 . S
H2877 C2885 0.950 . S
H2878 C2883 0.950 . S
H2879 C2884 0.949 . S
H2880 C2886 0.950 . S
H2881 C2887 0.950 . S
H2882 C2888 0.949 . S
C2883 H2878 0.950 . S
C2883 C2885 1.327 . S
C2883 C2889 1.429 . S
C2884 C2876 1.574 . S
C2884 H2879 0.949 . S
C2884 C2890 1.368 . S
C2885 C2869 1.349 . S
C2885 H2877 0.950 . S
C2885 C2883 1.327 . S
C2886 C2874 1.349 . S
C2886 H2880 0.950 . S
C2886 C2887 1.327 . S
C2887 H2881 0.950 . S
C2887 C2886 1.327 . S
C2887 C2891 1.429 . S
C2888 C2871 1.574 . S
C2888 H2882 0.949 . S
C2888 C2892 1.368 . S
C2889 C2870 1.429 . S
C2889 C2883 1.429 . S
C2889 C2890 1.523 . S
C2890 C2871 1.368 . S
C2890 C2884 1.368 . S
C2890 C2889 1.523 . S
C2891 C2875 1.429 . S
C2891 C2887 1.429 . S
C2891 C2892 1.523 . S
C2892 C2876 1.368 . S
C2892 C2888 1.368 . S
C2892 C2891 1.523 . S
H2893 C2868 0.950 1_455 S
H2894 C2870 0.950 . S
H2895 C2871 0.949 . S
H2896 C2873 0.950 . S
H2897 C2875 0.950 . S
C2898 C2899 1.349 . S
C2898 C2900 1.327 . S
C2898 H2923 0.950 . S
C2899 C2898 1.349 . S
C2899 C2915 1.349 . S
C2900 C2898 1.327 . S
C2900 C2919 1.429 . S
C2900 H2924 0.950 . S
C2901 C2918 1.574 . S
C2901 C2920 1.368 . S
C2901 H2925 0.949 1_455 S
H2902 C2906 0.949 . S
C2903 C2904 1.349 1_655 S
C2903 C2905 1.327 . S
C2903 H2926 0.950 . S
C2904 C2903 1.349 1_455 S
C2904 C2916 1.349 . S
C2905 C2903 1.327 . S
C2905 C2921 1.429 1_655 S
C2905 H2927 0.950 . S
C2906 H2902 0.949 . S
C2906 C2914 1.574 . S
C2906 C2922 1.368 . S
H2907 C2915 0.950 . S
H2908 C2913 0.950 . S
H2909 C2914 0.949 . S
H2910 C2916 0.950 . S
H2911 C2917 0.950 . S
H2912 C2918 0.949 1_655 S
C2913 H2908 0.950 . S
C2913 C2915 1.327 . S
C2913 C2919 1.429 . S
C2914 C2906 1.574 . S
C2914 H2909 0.949 . S
C2914 C2920 1.368 . S
C2915 C2899 1.349 . S
C2915 H2907 0.950 . S
C2915 C2913 1.327 . S
C2916 C2904 1.349 . S
C2916 H2910 0.950 . S
C2916 C2917 1.327 . S
C2917 H2911 0.950 . S
C2917 C2916 1.327 . S
C2917 C2921 1.429 . S
C2918 C2901 1.574 . S
C2918 H2912 0.949 1_455 S
C2918 C2922 1.368 . S
C2919 C2900 1.429 . S
C2919 C2913 1.429 . S
C2919 C2920 1.523 . S
C2920 C2901 1.368 . S
C2920 C2914 1.368 . S
C2920 C2919 1.523 . S
C2921 C2905 1.429 1_455 S
C2921 C2917 1.429 . S
C2921 C2922 1.523 . S
C2922 C2906 1.368 . S
C2922 C2918 1.368 . S
C2922 C2921 1.523 . S
H2923 C2898 0.950 . S
H2924 C2900 0.950 . S
H2925 C2901 0.949 1_655 S
H2926 C2903 0.950 . S
H2927 C2905 0.950 . S
C2928 C2929 1.349 . S
C2928 C2930 1.327 . S
C2928 H2953 0.950 . S
C2929 C2928 1.349 . S
C2929 C2945 1.349 . S
C2930 C2928 1.327 . S
C2930 C2949 1.429 . S
C2930 H2954 0.950 . S
C2931 C2948 1.574 . S
C2931 C2950 1.368 . S
C2931 H2955 0.949 . S
H2932 C2936 0.949 . S
C2933 C2934 1.349 . S
C2933 C2935 1.327 . S
C2933 H2956 0.950 . S
C2934 C2933 1.349 . S
C2934 C2946 1.349 . S
C2935 C2933 1.327 . S
C2935 C2951 1.429 . S
C2935 H2957 0.950 . S
C2936 H2932 0.949 . S
C2936 C2944 1.574 . S
C2936 C2952 1.368 . S
H2937 C2945 0.950 . S
H2938 C2943 0.950 . S
H2939 C2944 0.949 . S
H2940 C2946 0.950 . S
H2941 C2947 0.950 . S
H2942 C2948 0.949 . S
C2943 H2938 0.950 . S
C2943 C2945 1.327 . S
C2943 C2949 1.429 . S
C2944 C2936 1.574 . S
C2944 H2939 0.949 . S
C2944 C2950 1.368 . S
C2945 C2929 1.349 . S
C2945 H2937 0.950 . S
C2945 C2943 1.327 . S
C2946 C2934 1.349 . S
C2946 H2940 0.950 . S
C2946 C2947 1.327 . S
C2947 H2941 0.950 . S
C2947 C2946 1.327 . S
C2947 C2951 1.429 . S
C2948 C2931 1.574 . S
C2948 H2942 0.949 . S
C2948 C2952 1.368 . S
C2949 C2930 1.429 . S
C2949 C2943 1.429 . S
C2949 C2950 1.523 . S
C2950 C2931 1.368 . S
C2950 C2944 1.368 . S
C2950 C2949 1.523 . S
C2951 C2935 1.429 . S
C2951 C2947 1.429 . S
C2951 C2952 1.523 . S
C2952 C2936 1.368 . S
C2952 C2948 1.368 . S
C2952 C2951 1.523 . S
H2953 C2928 0.950 . S
H2954 C2930 0.950 . S
H2955 C2931 0.949 . S
H2956 C2933 0.950 . S
H2957 C2935 0.950 . S
C2958 C2959 1.349 . S
C2958 C2960 1.327 . S
C2958 H2983 0.950 . S
C2959 C2958 1.349 . S
C2959 C2975 1.349 . S
C2960 C2958 1.327 . S
C2960 C2979 1.429 . S
C2960 H2984 0.950 . S
C2961 C2978 1.574 . S
C2961 C2980 1.368 . S
C2961 H2985 0.949 . S
H2962 C2966 0.949 . S
C2963 C2964 1.349 . S
C2963 C2965 1.327 . S
C2963 H2986 0.950 . S
C2964 C2963 1.349 . S
C2964 C2976 1.349 . S
C2965 C2963 1.327 . S
C2965 C2981 1.429 . S
C2965 H2987 0.950 . S
C2966 H2962 0.949 . S
C2966 C2974 1.574 . S
C2966 C2982 1.368 . S
H2967 C2975 0.950 . S
H2968 C2973 0.950 . S
H2969 C2974 0.949 . S
H2970 C2976 0.950 . S
H2971 C2977 0.950 . S
H2972 C2978 0.949 . S
C2973 H2968 0.950 . S
C2973 C2975 1.327 . S
C2973 C2979 1.429 . S
C2974 C2966 1.574 . S
C2974 H2969 0.949 . S
C2974 C2980 1.368 . S
C2975 C2959 1.349 . S
C2975 H2967 0.950 . S
C2975 C2973 1.327 . S
C2976 C2964 1.349 . S
C2976 H2970 0.950 . S
C2976 C2977 1.327 . S
C2977 H2971 0.950 . S
C2977 C2976 1.327 . S
C2977 C2981 1.429 . S
C2978 C2961 1.574 . S
C2978 H2972 0.949 . S
C2978 C2982 1.368 . S
C2979 C2960 1.429 . S
C2979 C2973 1.429 . S
C2979 C2980 1.523 . S
C2980 C2961 1.368 . S
C2980 C2974 1.368 . S
C2980 C2979 1.523 . S
C2981 C2965 1.429 . S
C2981 C2977 1.429 . S
C2981 C2982 1.523 . S
C2982 C2966 1.368 . S
C2982 C2978 1.368 . S
C2982 C2981 1.523 . S
H2983 C2958 0.950 . S
H2984 C2960 0.950 . S
H2985 C2961 0.949 . S
H2986 C2963 0.950 . S
H2987 C2965 0.950 . S
C2988 C2989 1.349 . S
C2988 C2990 1.327 . S
C2988 H3013 0.950 . S
C2989 C2988 1.349 . S
C2989 C3005 1.349 . S
C2990 C2988 1.327 . S
C2990 C3009 1.429 . S
C2990 H3014 0.950 . S
C2991 C3008 1.574 . S
C2991 C3010 1.368 . S
C2991 H3015 0.949 1_565 S
H2992 C2996 0.949 . S
C2993 C2994 1.349 1_545 S
C2993 C2995 1.327 . S
C2993 H3016 0.950 . S
C2994 C2993 1.349 1_565 S
C2994 C3006 1.349 . S
C2995 C2993 1.327 . S
C2995 C3011 1.429 1_545 S
C2995 H3017 0.950 . S
C2996 H2992 0.949 . S
C2996 C3004 1.574 . S
C2996 C3012 1.368 . S
H2997 C3005 0.950 . S
H2998 C3003 1.047 . S
H2999 C3004 0.949 . S
H3000 C3006 0.950 . S
H3001 C3007 0.950 . S
H3002 C3008 0.949 1_545 S
C3003 H2998 1.047 . S
C3003 C3005 1.327 . S
C3003 C3009 1.429 . S
C3004 C2996 1.574 . S
C3004 H2999 0.949 . S
C3004 C3010 1.368 . S
C3005 C2989 1.349 . S
C3005 H2997 0.950 . S
C3005 C3003 1.327 . S
C3006 C2994 1.349 . S
C3006 H3000 0.950 . S
C3006 C3007 1.327 . S
C3007 H3001 0.950 . S
C3007 C3006 1.327 . S
C3007 C3011 1.429 . S
C3008 C2991 1.574 . S
C3008 H3002 0.949 1_565 S
C3008 C3012 1.368 . S
C3009 C2990 1.429 . S
C3009 C3003 1.429 . S
C3009 C3010 1.523 . S
C3010 C2991 1.368 . S
C3010 C3004 1.368 . S
C3010 C3009 1.523 . S
C3011 C2995 1.429 1_565 S
C3011 C3007 1.429 . S
C3011 C3012 1.523 . S
C3012 C2996 1.368 . S
C3012 C3008 1.368 . S
C3012 C3011 1.523 . S
H3013 C2988 0.950 . S
H3014 C2990 0.950 . S
H3015 C2991 0.949 1_545 S
H3016 C2993 0.950 . S
H3017 C2995 0.950 . S
C3018 C3019 1.349 . S
C3018 C3020 1.327 . S
C3018 H3043 0.950 . S
C3019 C3018 1.349 . S
C3019 C3035 1.349 . S
C3020 C3018 1.327 . S
C3020 C3039 1.429 . S
C3020 H3044 0.950 . S
C3021 C3038 1.574 . S
C3021 C3040 1.368 . S
C3021 H3045 0.949 . S
H3022 C3026 0.949 1_655 S
C3023 C3024 1.349 . S
C3023 C3025 1.327 . S
C3023 H3046 0.950 . S
C3024 C3023 1.349 . S
C3024 C3036 1.349 1_455 S
C3025 C3023 1.327 . S
C3025 C3041 1.429 . S
C3025 H3047 0.950 . S
C3026 H3022 0.949 1_455 S
C3026 C3034 1.574 . S
C3026 C3042 1.368 . S
H3027 C3035 0.950 . S
H3028 C3033 0.950 . S
H3029 C3034 0.949 . S
H3030 C3036 0.950 . S
H3031 C3037 0.977 . S
H3032 C3038 0.949 . S
C3033 H3028 0.950 . S
C3033 C3035 1.327 . S
C3033 C3039 1.429 . S
C3034 C3026 1.574 . S
C3034 H3029 0.949 . S
C3034 C3040 1.368 . S
C3035 C3019 1.349 . S
C3035 H3027 0.950 . S
C3035 C3033 1.327 . S
C3036 C3024 1.349 1_655 S
C3036 H3030 0.950 . S
C3036 C3037 1.313 . S
C3037 H3031 0.977 . S
C3037 C3036 1.313 . S
C3037 C3041 1.417 1_655 S
C3038 C3021 1.574 . S
C3038 H3032 0.949 . S
C3038 C3042 1.368 . S
C3039 C3020 1.429 . S
C3039 C3033 1.429 . S
C3039 C3040 1.523 . S
C3040 C3021 1.368 . S
C3040 C3034 1.368 . S
C3040 C3039 1.523 . S
C3041 C3025 1.429 . S
C3041 C3037 1.417 1_455 S
C3041 C3042 1.523 . S
C3042 C3026 1.368 . S
C3042 C3038 1.368 . S
C3042 C3041 1.523 . S
H3043 C3018 0.950 . S
H3044 C3020 0.950 . S
H3045 C3021 0.949 . S
H3046 C3023 0.950 . S
H3047 C3025 0.950 . S
C3048 C3049 1.349 . S
C3048 C3050 1.327 . S
C3048 H3073 0.950 . S
C3049 C3048 1.349 . S
C3049 C3065 1.349 . S
C3050 C3048 1.327 . S
C3050 C3069 1.429 . S
C3050 H3074 0.950 . S
C3051 C3068 1.574 . S
C3051 C3070 1.368 . S
C3051 H3075 0.949 . S
H3052 C3056 0.949 . S
C3053 C3054 1.349 . S
C3053 C3055 1.327 . S
C3053 H3076 0.950 . S
C3054 C3053 1.349 . S
C3054 C3066 1.349 . S
C3055 C3053 1.327 . S
C3055 C3071 1.429 . S
C3055 H3077 0.950 . S
C3056 H3052 0.949 . S
C3056 C3064 1.574 . S
C3056 C3072 1.368 . S
H3057 C3065 0.950 . S
H3058 C3063 0.950 . S
H3059 C3064 0.949 . S
H3060 C3066 0.950 . S
H3061 C3067 0.950 . S
H3062 C3068 0.949 . S
C3063 H3058 0.950 . S
C3063 C3065 1.327 . S
C3063 C3069 1.429 . S
C3064 C3056 1.574 . S
C3064 H3059 0.949 . S
C3064 C3070 1.368 . S
C3065 C3049 1.349 . S
C3065 H3057 0.950 . S
C3065 C3063 1.327 . S
C3066 C3054 1.349 . S
C3066 H3060 0.950 . S
C3066 C3067 1.327 . S
C3067 H3061 0.950 . S
C3067 C3066 1.327 . S
C3067 C3071 1.429 . S
C3068 C3051 1.574 . S
C3068 H3062 0.949 . S
C3068 C3072 1.368 . S
C3069 C3050 1.429 . S
C3069 C3063 1.429 . S
C3069 C3070 1.523 . S
C3070 C3051 1.368 . S
C3070 C3064 1.368 . S
C3070 C3069 1.523 . S
C3071 C3055 1.429 . S
C3071 C3067 1.429 . S
C3071 C3072 1.523 . S
C3072 C3056 1.368 . S
C3072 C3068 1.368 . S
C3072 C3071 1.523 . S
H3073 C3048 0.950 . S
H3074 C3050 0.950 . S
H3075 C3051 0.949 . S
H3076 C3053 0.950 . S
H3077 C3055 0.950 . S
C3078 C3079 1.349 . S
C3078 C3080 1.327 . S
C3078 H3103 0.950 . S
C3079 C3078 1.349 . S
C3079 C3095 1.349 . S
C3080 C3078 1.327 . S
C3080 C3099 1.429 . S
C3080 H3104 0.950 . S
C3081 C3098 1.574 . S
C3081 C3100 1.368 . S
C3081 H3105 0.949 . S
H3082 C3086 0.949 . S
C3083 C3084 1.349 . S
C3083 C3085 1.327 . S
C3083 H3106 0.950 . S
C3084 C3083 1.349 . S
C3084 C3096 1.349 . S
C3085 C3083 1.327 . S
C3085 C3101 1.429 . S
C3085 H3107 0.950 . S
C3086 H3082 0.949 . S
C3086 C3094 1.574 . S
C3086 C3102 1.368 . S
H3087 C3095 0.950 . S
H3088 C3093 0.950 . S
H3089 C3094 0.949 . S
H3090 C3096 0.950 . S
H3091 C3097 0.950 . S
H3092 C3098 0.949 . S
C3093 H3088 0.950 . S
C3093 C3095 1.327 . S
C3093 C3099 1.429 . S
C3094 C3086 1.574 . S
C3094 H3089 0.949 . S
C3094 C3100 1.368 . S
C3095 C3079 1.349 . S
C3095 H3087 0.950 . S
C3095 C3093 1.327 . S
C3096 C3084 1.349 . S
C3096 H3090 0.950 . S
C3096 C3097 1.327 . S
C3097 H3091 0.950 . S
C3097 C3096 1.327 . S
C3097 C3101 1.429 . S
C3098 C3081 1.574 . S
C3098 H3092 0.949 . S
C3098 C3102 1.368 . S
C3099 C3080 1.429 . S
C3099 C3093 1.429 . S
C3099 C3100 1.523 . S
C3100 C3081 1.368 . S
C3100 C3094 1.368 . S
C3100 C3099 1.523 . S
C3101 C3085 1.429 . S
C3101 C3097 1.429 . S
C3101 C3102 1.523 . S
C3102 C3086 1.368 . S
C3102 C3098 1.368 . S
C3102 C3101 1.523 . S
H3103 C3078 0.950 . S
H3104 C3080 0.950 . S
H3105 C3081 0.949 . S
H3106 C3083 0.950 . S
H3107 C3085 0.950 . S
C3108 C3109 1.349 . S
C3108 C3110 1.327 . S
C3108 H3133 0.950 . S
C3109 C3108 1.349 . S
C3109 C3125 1.349 . S
C3110 C3108 1.327 . S
C3110 C3129 1.429 . S
C3110 H3134 0.950 . S
C3111 C3128 1.574 . S
C3111 C3130 1.368 . S
C3111 H3135 0.949 . S
H3112 C3116 0.949 . S
C3113 C3114 1.349 . S
C3113 C3115 1.327 . S
C3113 H3136 0.950 . S
C3114 C3113 1.349 . S
C3114 C3126 1.349 . S
C3115 C3113 1.327 . S
C3115 C3131 1.429 . S
C3115 H3137 0.950 . S
C3116 H3112 0.949 . S
C3116 C3124 1.574 . S
C3116 C3132 1.368 . S
H3117 C3125 1.010 . S
H3118 C3123 0.950 . S
H3119 C3124 0.949 . S
H3120 C3126 0.950 . S
H3121 C3127 0.950 . S
H3122 C3128 0.949 . S
C3123 H3118 0.950 . S
C3123 C3125 1.327 . S
C3123 C3129 1.429 . S
C3124 C3116 1.574 . S
C3124 H3119 0.949 . S
C3124 C3130 1.368 . S
C3125 C3109 1.349 . S
C3125 H3117 1.010 . S
C3125 C3123 1.327 . S
C3126 C3114 1.349 . S
C3126 H3120 0.950 . S
C3126 C3127 1.327 . S
C3127 H3121 0.950 . S
C3127 C3126 1.327 . S
C3127 C3131 1.429 . S
C3128 C3111 1.574 . S
C3128 H3122 0.949 . S
C3128 C3132 1.368 . S
C3129 C3110 1.429 . S
C3129 C3123 1.429 . S
C3129 C3130 1.523 . S
C3130 C3111 1.368 . S
C3130 C3124 1.368 . S
C3130 C3129 1.523 . S
C3131 C3115 1.429 . S
C3131 C3127 1.429 . S
C3131 C3132 1.523 . S
C3132 C3116 1.368 . S
C3132 C3128 1.368 . S
C3132 C3131 1.523 . S
H3133 C3108 0.950 . S
H3134 C3110 0.950 . S
H3135 C3111 0.949 . S
H3136 C3113 0.950 . S
H3137 C3115 0.950 . S
C3138 C3139 1.349 . S
C3138 C3140 1.327 . S
C3138 H3163 0.950 . S
C3139 C3138 1.349 . S
C3139 C3155 1.349 . S
C3140 C3138 1.327 . S
C3140 C3159 1.429 . S
C3140 H3164 0.950 . S
C3141 C3158 1.574 . S
C3141 C3160 1.368 . S
C3141 H3165 0.949 . S
H3142 C3146 0.949 . S
C3143 C3144 1.349 . S
C3143 C3145 1.327 . S
C3143 H3166 0.950 . S
C3144 C3143 1.349 . S
C3144 C3156 1.349 . S
C3145 C3143 1.327 . S
C3145 C3161 1.429 . S
C3145 H3167 0.950 . S
C3146 H3142 0.949 . S
C3146 C3154 1.574 . S
C3146 C3162 1.368 . S
H3147 C3155 0.950 . S
H3148 C3153 0.950 . S
H3149 C3154 0.949 . S
H3150 C3156 0.950 . S
H3151 C3157 0.950 . S
H3152 C3158 0.949 . S
C3153 H3148 0.950 . S
C3153 C3155 1.327 . S
C3153 C3159 1.429 . S
C3154 C3146 1.574 . S
C3154 H3149 0.949 . S
C3154 C3160 1.368 . S
C3155 C3139 1.349 . S
C3155 H3147 0.950 . S
C3155 C3153 1.327 . S
C3156 C3144 1.349 . S
C3156 H3150 0.950 . S
C3156 C3157 1.327 . S
C3157 H3151 0.950 . S
C3157 C3156 1.327 . S
C3157 C3161 1.429 . S
C3158 C3141 1.574 . S
C3158 H3152 0.949 . S
C3158 C3162 1.368 . S
C3159 C3140 1.429 . S
C3159 C3153 1.429 . S
C3159 C3160 1.523 . S
C3160 C3141 1.368 . S
C3160 C3154 1.368 . S
C3160 C3159 1.523 . S
C3161 C3145 1.429 . S
C3161 C3157 1.429 . S
C3161 C3162 1.523 . S
C3162 C3146 1.368 . S
C3162 C3158 1.368 . S
C3162 C3161 1.523 . S
H3163 C3138 0.950 . S
H3164 C3140 0.950 . S
H3165 C3141 0.949 . S
H3166 C3143 0.950 . S
H3167 C3145 0.950 . S
C3168 C3169 1.349 . S
C3168 C3170 1.327 . S
C3168 H3193 0.950 . S
C3169 C3168 1.349 . S
C3169 C3185 1.349 . S
C3170 C3168 1.327 . S
C3170 C3189 1.429 . S
C3170 H3194 0.950 . S
C3171 C3188 1.574 . S
C3171 C3190 1.368 . S
C3171 H3195 0.949 . S
H3172 C3176 0.949 1_565 S
C3173 C3174 1.349 . S
C3173 C3175 1.327 . S
C3173 H3196 0.950 . S
C3174 C3173 1.349 . S
C3174 C3186 1.349 1_545 S
C3175 C3173 1.327 . S
C3175 C3191 1.429 . S
C3175 H3197 0.950 . S
C3176 H3172 0.949 1_545 S
C3176 C3184 1.574 . S
C3176 C3192 1.368 . S
H3177 C3185 0.950 . S
H3178 C3183 0.950 . S
H3179 C3184 0.949 . S
H3180 C3186 0.950 . S
H3181 C3187 0.949 1_565 S
H3182 C3188 0.949 . S
C3183 H3178 0.950 . S
C3183 C3185 1.327 . S
C3183 C3189 1.429 . S
C3184 C3176 1.574 . S
C3184 H3179 0.949 . S
C3184 C3190 1.368 . S
C3185 C3169 1.349 . S
C3185 H3177 0.950 . S
C3185 C3183 1.327 . S
C3186 C3174 1.349 1_565 S
C3186 H3180 0.950 . S
C3186 C3187 1.324 1_565 S
C3187 H3181 0.949 1_545 S
C3187 C3186 1.324 1_545 S
C3187 C3191 1.433 . S
C3188 C3171 1.574 . S
C3188 H3182 0.949 . S
C3188 C3192 1.368 . S
C3189 C3170 1.429 . S
C3189 C3183 1.429 . S
C3189 C3190 1.523 . S
C3190 C3171 1.368 . S
C3190 C3184 1.368 . S
C3190 C3189 1.523 . S
C3191 C3175 1.429 . S
C3191 C3187 1.433 . S
C3191 C3192 1.523 . S
C3192 C3176 1.368 . S
C3192 C3188 1.368 . S
C3192 C3191 1.523 . S
H3193 C3168 0.950 . S
H3194 C3170 0.950 . S
H3195 C3171 0.949 . S
H3196 C3173 0.950 . S
H3197 C3175 0.950 . S
C3198 C3199 1.349 . S
C3198 C3200 1.327 . S
C3198 H3223 0.950 . S
C3199 C3198 1.349 . S
C3199 C3215 1.349 . S
C3200 C3198 1.327 . S
C3200 C3219 1.429 . S
C3200 H3224 0.950 . S
C3201 C3218 1.574 . S
C3201 C3220 1.368 . S
C3201 H3225 0.949 . S
H3202 C3206 0.931 1_455 S
C3203 C3204 1.349 . S
C3203 C3205 1.327 . S
C3203 H3226 0.950 . S
C3204 C3203 1.349 . S
C3204 C3216 1.284 1_655 S
C3205 C3203 1.327 . S
C3205 C3221 1.429 . S
C3205 H3227 0.950 . S
C3206 H3202 0.931 1_655 S
C3206 C3214 1.574 . S
C3206 C3222 1.368 . S
H3207 C3215 0.950 . S
H3208 C3213 0.950 . S
H3209 C3214 0.949 . S
H3210 C3216 0.988 . S
H3211 C3217 0.868 1_455 S
H3212 C3218 0.949 . S
C3213 H3208 0.950 . S
C3213 C3215 1.327 . S
C3213 C3219 1.429 . S
C3214 C3206 1.574 . S
C3214 H3209 0.949 . S
C3214 C3220 1.368 . S
C3215 C3199 1.349 . S
C3215 H3207 0.950 . S
C3215 C3213 1.327 . S
C3216 C3204 1.284 1_455 S
C3216 H3210 0.988 . S
C3216 C3217 1.411 1_455 S
C3217 H3211 0.868 1_655 S
C3217 C3216 1.411 1_655 S
C3217 C3221 1.474 . S
C3218 C3201 1.574 . S
C3218 H3212 0.949 . S
C3218 C3222 1.368 . S
C3219 C3200 1.429 . S
C3219 C3213 1.429 . S
C3219 C3220 1.523 . S
C3220 C3201 1.368 . S
C3220 C3214 1.368 . S
C3220 C3219 1.523 . S
C3221 C3205 1.429 . S
C3221 C3217 1.474 . S
C3221 C3222 1.523 . S
C3222 C3206 1.368 . S
C3222 C3218 1.368 . S
C3222 C3221 1.523 . S
H3223 C3198 0.950 . S
H3224 C3200 0.950 . S
H3225 C3201 0.949 . S
H3226 C3203 0.950 . S
H3227 C3205 0.950 . S
C3228 C3229 1.349 . S
C3228 C3230 1.327 . S
C3228 H3253 0.950 . S
C3229 C3228 1.349 . S
C3229 C3245 1.349 . S
C3230 C3228 1.327 . S
C3230 C3249 1.429 . S
C3230 H3254 0.950 . S
C3231 C3248 1.574 . S
C3231 C3250 1.368 . S
C3231 H3255 0.949 . S
H3232 C3236 0.949 . S
C3233 C3234 1.349 . S
C3233 C3235 1.327 . S
C3233 H3256 0.950 . S
C3234 C3233 1.349 . S
C3234 C3246 1.349 . S
C3235 C3233 1.327 . S
C3235 C3251 1.429 . S
C3235 H3257 0.950 . S
C3236 H3232 0.949 . S
C3236 C3244 1.574 . S
C3236 C3252 1.368 . S
H3237 C3245 0.950 . S
H3238 C3243 0.950 . S
H3239 C3244 0.949 . S
H3240 C3246 0.950 . S
H3241 C3247 0.950 . S
H3242 C3248 0.949 . S
C3243 H3238 0.950 . S
C3243 C3245 1.327 . S
C3243 C3249 1.429 . S
C3244 C3236 1.574 . S
C3244 H3239 0.949 . S
C3244 C3250 1.368 . S
C3245 C3229 1.349 . S
C3245 H3237 0.950 . S
C3245 C3243 1.327 . S
C3246 C3234 1.349 . S
C3246 H3240 0.950 . S
C3246 C3247 1.327 . S
C3247 H3241 0.950 . S
C3247 C3246 1.327 . S
C3247 C3251 1.429 . S
C3248 C3231 1.574 . S
C3248 H3242 0.949 . S
C3248 C3252 1.368 . S
C3249 C3230 1.429 . S
C3249 C3243 1.429 . S
C3249 C3250 1.523 . S
C3250 C3231 1.368 . S
C3250 C3244 1.368 . S
C3250 C3249 1.523 . S
C3251 C3235 1.429 . S
C3251 C3247 1.429 . S
C3251 C3252 1.523 . S
C3252 C3236 1.368 . S
C3252 C3248 1.368 . S
C3252 C3251 1.523 . S
H3253 C3228 0.950 . S
H3254 C3230 0.950 . S
H3255 C3231 0.949 . S
H3256 C3233 0.950 . S
H3257 C3235 0.950 . S
C3258 C3259 1.349 . S
C3258 C3260 1.327 . S
C3258 H3283 0.950 . S
C3259 C3258 1.349 . S
C3259 C3275 1.349 . S
C3260 C3258 1.327 . S
C3260 C3279 1.429 . S
C3260 H3284 0.950 . S
C3261 C3278 1.574 . S
C3261 C3280 1.368 . S
C3261 H3285 0.949 . S
H3262 C3266 0.949 . S
C3263 C3264 1.349 . S
C3263 C3265 1.327 . S
C3263 H3286 0.950 . S
C3264 C3263 1.349 . S
C3264 C3276 1.349 . S
C3265 C3263 1.327 . S
C3265 C3281 1.429 . S
C3265 H3287 0.950 . S
C3266 H3262 0.949 . S
C3266 C3274 1.574 . S
C3266 C3282 1.368 . S
H3267 C3275 0.950 . S
H3268 C3273 0.950 . S
H3269 C3274 0.949 . S
H3270 C3276 0.950 . S
H3271 C3277 0.950 . S
H3272 C3278 0.949 . S
C3273 H3268 0.950 . S
C3273 C3275 1.327 . S
C3273 C3279 1.429 . S
C3274 C3266 1.574 . S
C3274 H3269 0.949 . S
C3274 C3280 1.368 . S
C3275 C3259 1.349 . S
C3275 H3267 0.950 . S
C3275 C3273 1.327 . S
C3276 C3264 1.349 . S
C3276 H3270 0.950 . S
C3276 C3277 1.327 . S
C3277 H3271 0.950 . S
C3277 C3276 1.327 . S
C3277 C3281 1.429 . S
C3278 C3261 1.574 . S
C3278 H3272 0.949 . S
C3278 C3282 1.368 . S
C3279 C3260 1.429 . S
C3279 C3273 1.429 . S
C3279 C3280 1.523 . S
C3280 C3261 1.368 . S
C3280 C3274 1.368 . S
C3280 C3279 1.523 . S
C3281 C3265 1.429 . S
C3281 C3277 1.429 . S
C3281 C3282 1.523 . S
C3282 C3266 1.368 . S
C3282 C3278 1.368 . S
C3282 C3281 1.523 . S
H3283 C3258 0.950 . S
H3284 C3260 0.950 . S
H3285 C3261 0.949 . S
H3286 C3263 0.950 . S
H3287 C3265 0.950 . S
C3288 C3289 1.349 . S
C3288 C3290 1.327 . S
C3288 H3313 0.950 . S
C3289 C3288 1.349 . S
C3289 C3305 1.349 . S
C3290 C3288 1.327 . S
C3290 C3309 1.429 . S
C3290 H3314 0.950 . S
C3291 C3308 1.574 . S
C3291 C3310 1.368 . S
C3291 H3315 0.949 . S
H3292 C3296 0.949 . S
C3293 C3294 1.349 . S
C3293 C3295 1.327 . S
C3293 H3316 0.950 . S
C3294 C3293 1.349 . S
C3294 C3306 1.349 . S
C3295 C3293 1.327 . S
C3295 C3311 1.429 . S
C3295 H3317 0.950 . S
C3296 H3292 0.949 . S
C3296 C3304 1.574 . S
C3296 C3312 1.368 . S
H3297 C3305 0.950 . S
H3298 C3303 0.950 . S
H3299 C3304 0.949 . S
H3300 C3306 0.950 . S
H3301 C3307 0.950 . S
H3302 C3308 0.949 . S
C3303 H3298 0.950 . S
C3303 C3305 1.327 . S
C3303 C3309 1.429 . S
C3304 C3296 1.574 . S
C3304 H3299 0.949 . S
C3304 C3310 1.368 . S
C3305 C3289 1.349 . S
C3305 H3297 0.950 . S
C3305 C3303 1.327 . S
C3306 C3294 1.349 . S
C3306 H3300 0.950 . S
C3306 C3307 1.327 . S
C3307 H3301 0.950 . S
C3307 C3306 1.327 . S
C3307 C3311 1.429 . S
C3308 C3291 1.574 . S
C3308 H3302 0.949 . S
C3308 C3312 1.368 . S
C3309 C3290 1.429 . S
C3309 C3303 1.429 . S
C3309 C3310 1.523 . S
C3310 C3291 1.368 . S
C3310 C3304 1.368 . S
C3310 C3309 1.523 . S
C3311 C3295 1.429 . S
C3311 C3307 1.429 . S
C3311 C3312 1.523 . S
C3312 C3296 1.368 . S
C3312 C3308 1.368 . S
C3312 C3311 1.523 . S
H3313 C3288 0.950 . S
H3314 C3290 0.950 . S
H3315 C3291 0.949 . S
H3316 C3293 0.950 . S
H3317 C3295 0.950 . S
C3318 C3319 1.349 . S
C3318 C3320 1.327 . S
C3318 H3343 0.950 . S
C3319 C3318 1.349 . S
C3319 C3335 1.349 . S
C3320 C3318 1.327 . S
C3320 C3339 1.429 . S
C3320 H3344 0.950 . S
C3321 C3338 1.574 . S
C3321 C3340 1.368 . S
C3321 H3345 0.949 . S
H3322 C3326 0.949 . S
C3323 C3324 1.349 . S
C3323 C3325 1.327 . S
C3323 H3346 0.950 . S
C3324 C3323 1.349 . S
C3324 C3336 1.349 . S
C3325 C3323 1.327 . S
C3325 C3341 1.429 . S
C3325 H3347 0.950 . S
C3326 H3322 0.949 . S
C3326 C3334 1.574 . S
C3326 C3342 1.368 . S
H3327 C3335 1.003 . S
H3328 C3333 0.950 . S
H3329 C3334 0.949 . S
H3330 C3336 0.950 . S
H3331 C3337 0.950 . S
H3332 C3338 0.949 . S
C3333 H3328 0.950 . S
C3333 C3335 1.327 . S
C3333 C3339 1.429 . S
C3334 C3326 1.574 . S
C3334 H3329 0.949 . S
C3334 C3340 1.368 . S
C3335 C3319 1.349 . S
C3335 H3327 1.003 . S
C3335 C3333 1.327 . S
C3336 C3324 1.349 . S
C3336 H3330 0.950 . S
C3336 C3337 1.327 . S
C3337 H3331 0.950 . S
C3337 C3336 1.327 . S
C3337 C3341 1.429 . S
C3338 C3321 1.574 . S
C3338 H3332 0.949 . S
C3338 C3342 1.368 . S
C3339 C3320 1.429 . S
C3339 C3333 1.429 . S
C3339 C3340 1.523 . S
C3340 C3321 1.368 . S
C3340 C3334 1.368 . S
C3340 C3339 1.523 . S
C3341 C3325 1.429 . S
C3341 C3337 1.429 . S
C3341 C3342 1.523 . S
C3342 C3326 1.368 . S
C3342 C3338 1.368 . S
C3342 C3341 1.523 . S
H3343 C3318 0.950 . S
H3344 C3320 0.950 . S
H3345 C3321 0.949 . S
H3346 C3323 0.950 . S
H3347 C3325 0.950 . S
C3348 C3349 1.349 . S
C3348 C3350 1.327 . S
C3348 H3373 0.950 . S
C3349 C3348 1.349 . S
C3349 C3365 1.349 . S
C3350 C3348 1.327 . S
C3350 C3369 1.429 . S
C3350 H3374 0.950 . S
C3351 C3368 1.574 . S
C3351 C3370 1.368 . S
C3351 H3375 0.949 . S
H3352 C3356 0.949 . S
C3353 C3354 1.349 . S
C3353 C3355 1.327 . S
C3353 H3376 0.950 . S
C3354 C3353 1.349 . S
C3354 C3366 1.349 . S
C3355 C3353 1.327 . S
C3355 C3371 1.429 . S
C3355 H3377 0.950 . S
C3356 H3352 0.949 . S
C3356 C3364 1.574 . S
C3356 C3372 1.368 . S
H3357 C3365 0.950 . S
H3358 C3363 0.950 . S
H3359 C3364 0.949 . S
H3360 C3366 0.950 . S
H3361 C3367 0.950 . S
H3362 C3368 0.949 . S
C3363 H3358 0.950 . S
C3363 C3365 1.327 . S
C3363 C3369 1.429 . S
C3364 C3356 1.574 . S
C3364 H3359 0.949 . S
C3364 C3370 1.368 . S
C3365 C3349 1.349 . S
C3365 H3357 0.950 . S
C3365 C3363 1.327 . S
C3366 C3354 1.349 . S
C3366 H3360 0.950 . S
C3366 C3367 1.327 . S
C3367 H3361 0.950 . S
C3367 C3366 1.327 . S
C3367 C3371 1.429 . S
C3368 C3351 1.574 . S
C3368 H3362 0.949 . S
C3368 C3372 1.368 . S
C3369 C3350 1.429 . S
C3369 C3363 1.429 . S
C3369 C3370 1.523 . S
C3370 C3351 1.368 . S
C3370 C3364 1.368 . S
C3370 C3369 1.523 . S
C3371 C3355 1.429 . S
C3371 C3367 1.429 . S
C3371 C3372 1.523 . S
C3372 C3356 1.368 . S
C3372 C3368 1.368 . S
C3372 C3371 1.523 . S
H3373 C3348 0.950 . S
H3374 C3350 0.950 . S
H3375 C3351 0.949 . S
H3376 C3353 0.950 . S
H3377 C3355 0.950 . S
C3378 C3379 1.349 . S
C3378 C3380 1.327 . S
C3378 H3403 0.950 . S
C3379 C3378 1.349 . S
C3379 C3395 1.349 . S
C3380 C3378 1.327 . S
C3380 C3399 1.429 . S
C3380 H3404 0.950 . S
C3381 C3398 1.574 . S
C3381 C3400 1.368 . S
C3381 H3405 0.949 . S
H3382 C3386 0.949 . S
C3383 C3384 1.349 . S
C3383 C3385 1.327 . S
C3383 H3406 0.950 . S
C3384 C3383 1.349 . S
C3384 C3396 1.349 . S
C3385 C3383 1.327 . S
C3385 C3401 1.429 . S
C3385 H3407 0.950 . S
C3386 H3382 0.949 . S
C3386 C3394 1.574 . S
C3386 C3402 1.368 . S
H3387 C3395 0.950 . S
H3388 C3393 0.950 . S
H3389 C3394 0.949 . S
H3390 C3396 0.950 . S
H3391 C3397 0.950 . S
H3392 C3398 0.949 . S
C3393 H3388 0.950 . S
C3393 C3395 1.327 . S
C3393 C3399 1.429 . S
C3394 C3386 1.574 . S
C3394 H3389 0.949 . S
C3394 C3400 1.368 . S
C3395 C3379 1.349 . S
C3395 H3387 0.950 . S
C3395 C3393 1.327 . S
C3396 C3384 1.349 . S
C3396 H3390 0.950 . S
C3396 C3397 1.327 . S
C3397 H3391 0.950 . S
C3397 C3396 1.327 . S
C3397 C3401 1.429 . S
C3398 C3381 1.574 . S
C3398 H3392 0.949 . S
C3398 C3402 1.368 . S
C3399 C3380 1.429 . S
C3399 C3393 1.429 . S
C3399 C3400 1.523 . S
C3400 C3381 1.368 . S
C3400 C3394 1.368 . S
C3400 C3399 1.523 . S
C3401 C3385 1.429 . S
C3401 C3397 1.429 . S
C3401 C3402 1.523 . S
C3402 C3386 1.368 . S
C3402 C3398 1.368 . S
C3402 C3401 1.523 . S
H3403 C3378 0.950 . S
H3404 C3380 0.950 . S
H3405 C3381 0.949 . S
H3406 C3383 0.950 . S
H3407 C3385 0.950 . S
C3408 C3409 1.349 . S
C3408 C3410 1.327 . S
C3408 H3433 0.950 . S
C3409 C3408 1.349 . S
C3409 C3425 1.349 . S
C3410 C3408 1.327 . S
C3410 C3429 1.429 . S
C3410 H3434 0.950 . S
C3411 C3428 1.574 . S
C3411 C3430 1.368 . S
C3411 H3435 0.949 . S
H3412 C3416 0.949 . S
C3413 C3414 1.349 . S
C3413 C3415 1.327 . S
C3413 H3436 0.950 . S
C3414 C3413 1.349 . S
C3414 C3426 1.349 . S
C3415 C3413 1.327 . S
C3415 C3431 1.429 . S
C3415 H3437 0.950 . S
C3416 H3412 0.949 . S
C3416 C3424 1.574 . S
C3416 C3432 1.368 . S
H3417 C3425 0.950 1_655 S
H3418 C3423 0.950 . S
H3419 C3424 0.949 . S
H3420 C3426 0.950 . S
H3421 C3427 0.950 . S
H3422 C3428 0.949 . S
C3423 H3418 0.950 . S
C3423 C3425 1.327 . S
C3423 C3429 1.429 . S
C3424 C3416 1.574 . S
C3424 H3419 0.949 . S
C3424 C3430 1.368 . S
C3425 C3409 1.349 . S
C3425 H3417 0.950 1_455 S
C3425 C3423 1.327 . S
C3426 C3414 1.349 . S
C3426 H3420 0.950 . S
C3426 C3427 1.327 . S
C3427 H3421 0.950 . S
C3427 C3426 1.327 . S
C3427 C3431 1.429 . S
C3428 C3411 1.574 . S
C3428 H3422 0.949 . S
C3428 C3432 1.368 . S
C3429 C3410 1.429 . S
C3429 C3423 1.429 . S
C3429 C3430 1.523 . S
C3430 C3411 1.368 . S
C3430 C3424 1.368 . S
C3430 C3429 1.523 . S
C3431 C3415 1.429 . S
C3431 C3427 1.429 . S
C3431 C3432 1.523 . S
C3432 C3416 1.368 . S
C3432 C3428 1.368 . S
C3432 C3431 1.523 . S
H3433 C3408 0.950 . S
H3434 C3410 0.950 . S
H3435 C3411 0.949 . S
H3436 C3413 0.950 . S
H3437 C3415 0.950 . S
C3438 C3439 1.349 . S
C3438 C3440 1.327 . S
C3438 H3463 0.950 . S
C3439 C3438 1.349 . S
C3439 C3455 1.349 . S
C3440 C3438 1.327 . S
C3440 C3459 1.429 . S
C3440 H3464 0.950 . S
C3441 C3458 1.574 . S
C3441 C3460 1.368 . S
C3441 H3465 0.949 . S
H3442 C3446 0.949 . S
C3443 C3444 1.370 . S
C3443 C3445 1.388 . S
C3443 H3466 0.873 1_655 S
C3444 C3443 1.370 . S
C3444 C3456 1.349 . S
C3445 C3443 1.388 . S
C3445 C3461 1.429 . S
C3445 H3467 0.950 1_655 S
C3446 H3442 0.949 . S
C3446 C3454 1.574 . S
C3446 C3462 1.368 . S
H3447 C3455 0.950 . S
H3448 C3453 0.950 . S
H3449 C3454 0.949 . S
H3450 C3456 0.950 . S
H3451 C3457 0.950 . S
H3452 C3458 0.949 . S
C3453 H3448 0.950 . S
C3453 C3455 1.327 . S
C3453 C3459 1.429 . S
C3454 C3446 1.574 . S
C3454 H3449 0.949 . S
C3454 C3460 1.368 . S
C3455 C3439 1.349 . S
C3455 H3447 0.950 . S
C3455 C3453 1.327 . S
C3456 C3444 1.349 . S
C3456 H3450 0.950 . S
C3456 C3457 1.327 . S
C3457 H3451 0.950 . S
C3457 C3456 1.327 . S
C3457 C3461 1.429 . S
C3458 C3441 1.574 . S
C3458 H3452 0.949 . S
C3458 C3462 1.368 . S
C3459 C3440 1.429 . S
C3459 C3453 1.429 . S
C3459 C3460 1.523 . S
C3460 C3441 1.368 . S
C3460 C3454 1.368 . S
C3460 C3459 1.523 . S
C3461 C3445 1.429 . S
C3461 C3457 1.429 . S
C3461 C3462 1.523 . S
C3462 C3446 1.368 . S
C3462 C3458 1.368 . S
C3462 C3461 1.523 . S
H3463 C3438 0.950 . S
H3464 C3440 0.950 . S
H3465 C3441 0.949 . S
H3466 C3443 0.873 1_455 S
H3467 C3445 0.950 1_455 S
C3468 C3469 1.349 . S
C3468 C3470 1.327 . S
C3468 H3493 0.950 . S
C3469 C3468 1.349 . S
C3469 C3485 1.349 . S
C3470 C3468 1.327 . S
C3470 C3489 1.429 . S
C3470 H3494 0.950 . S
C3471 C3488 1.574 . S
C3471 C3490 1.368 . S
C3471 H3495 0.949 . S
H3472 C3476 0.949 . S
C3473 C3474 1.349 . S
C3473 C3475 1.327 . S
C3473 H3496 0.950 . S
C3474 C3473 1.349 . S
C3474 C3486 1.349 . S
C3475 C3473 1.327 . S
C3475 C3491 1.429 . S
C3475 H3497 0.950 . S
C3476 H3472 0.949 . S
C3476 C3484 1.574 . S
C3476 C3492 1.368 . S
H3477 C3485 0.950 . S
H3478 C3483 0.950 . S
H3479 C3484 0.949 . S
H3480 C3486 0.950 . S
H3481 C3487 0.950 . S
H3482 C3488 0.949 . S
C3483 H3478 0.950 . S
C3483 C3485 1.327 . S
C3483 C3489 1.429 . S
C3484 C3476 1.574 . S
C3484 H3479 0.949 . S
C3484 C3490 1.368 . S
C3485 C3469 1.349 . S
C3485 H3477 0.950 . S
C3485 C3483 1.327 . S
C3486 C3474 1.349 . S
C3486 H3480 0.950 . S
C3486 C3487 1.327 . S
C3487 H3481 0.950 . S
C3487 C3486 1.327 . S
C3487 C3491 1.429 . S
C3488 C3471 1.574 . S
C3488 H3482 0.949 . S
C3488 C3492 1.368 . S
C3489 C3470 1.429 . S
C3489 C3483 1.429 . S
C3489 C3490 1.523 . S
C3490 C3471 1.368 . S
C3490 C3484 1.368 . S
C3490 C3489 1.523 . S
C3491 C3475 1.429 . S
C3491 C3487 1.429 . S
C3491 C3492 1.523 . S
C3492 C3476 1.368 . S
C3492 C3488 1.368 . S
C3492 C3491 1.523 . S
H3493 C3468 0.950 . S
H3494 C3470 0.950 . S
H3495 C3471 0.949 . S
H3496 C3473 0.950 . S
H3497 C3475 0.950 . S
C3498 C3499 1.349 . S
C3498 C3500 1.327 . S
C3498 H3523 0.950 . S
C3499 C3498 1.349 . S
C3499 C3515 1.349 . S
C3500 C3498 1.327 . S
C3500 C3519 1.429 . S
C3500 H3524 1.018 . S
C3501 C3518 1.574 . S
C3501 C3520 1.368 . S
C3501 H3525 0.949 . S
H3502 C3506 0.949 1_565 S
C3503 C3504 1.349 . S
C3503 C3505 1.327 . S
C3503 H3526 0.950 . S
C3504 C3503 1.349 . S
C3504 C3516 1.349 1_545 S
C3505 C3503 1.327 . S
C3505 C3521 1.429 . S
C3505 H3527 0.950 . S
C3506 H3502 0.949 1_545 S
C3506 C3514 1.574 . S
C3506 C3522 1.368 . S
H3507 C3515 0.950 . S
H3508 C3513 0.950 . S
H3509 C3514 0.949 1_565 S
H3510 C3516 0.950 . S
H3511 C3517 0.950 . S
H3512 C3518 0.949 . S
C3513 H3508 0.950 . S
C3513 C3515 1.327 . S
C3513 C3519 1.429 . S
C3514 C3506 1.574 . S
C3514 H3509 0.949 1_545 S
C3514 C3520 1.368 . S
C3515 C3499 1.349 . S
C3515 H3507 0.950 . S
C3515 C3513 1.327 . S
C3516 C3504 1.349 1_565 S
C3516 H3510 0.950 . S
C3516 C3517 1.327 . S
C3517 H3511 0.950 . S
C3517 C3516 1.327 . S
C3517 C3521 1.429 1_565 S
C3518 C3501 1.574 . S
C3518 H3512 0.949 . S
C3518 C3522 1.368 . S
C3519 C3500 1.429 . S
C3519 C3513 1.429 . S
C3519 C3520 1.523 . S
C3520 C3501 1.368 . S
C3520 C3514 1.368 . S
C3520 C3519 1.523 . S
C3521 C3505 1.429 . S
C3521 C3517 1.429 1_545 S
C3521 C3522 1.523 . S
C3522 C3506 1.368 . S
C3522 C3518 1.368 . S
C3522 C3521 1.523 . S
H3523 C3498 0.950 . S
H3524 C3500 1.018 . S
H3525 C3501 0.949 . S
H3526 C3503 0.950 . S
H3527 C3505 0.950 . S
C1369 C13 1.524 . S
C1374 C857 1.549 . S
C1399 C27 1.374 . S
C1404 C901 1.407 . S
C1434 C981 1.538 . S
C1429 C36 1.512 . S
C1459 C41 1.487 1_545 S
C1464 C1025 1.526 . S
C1489 C8 1.639 . S
C1494 C1105 1.667 . S
C1519 C22 1.489 . S
C1524 C1167 1.512 . S
C1549 C55 1.517 . S
C1554 C1087 1.538 . S
C1584 C1149 1.394 . S
C1579 C69 1.371 . S
C1614 C1043 1.577 . S
C1609 C78 1.542 . S
C1639 C83 1.472 . S
C1644 C963 1.495 . S
C1674 C839 1.677 . S
C1669 C50 1.646 . S
C1699 C64 1.486 . S
C1704 C919 1.521 . S
C1729 C97 1.572 . S
C1734 C1229 1.602 . S
C1759 C111 1.396 . S
C1764 C1273 1.436 . S
C1794 C1353 1.576 . S
C1789 C120 1.565 . S
C1819 C125 1.516 . S
C1824 C299 1.544 . S
C1849 C92 1.723 . S
C1854 C343 1.751 . S
C1879 C106 1.515 . S
C1884 C423 1.534 . S
C1909 C139 1.550 . S
C1914 C361 1.604 . S
C1939 C153 1.393 . S
C1944 C405 1.414 . S
C1974 C281 1.585 . S
C1969 C162 1.572 . S
C2004 C1335 1.568 . S
C1999 C167 1.535 . S
C2034 C1211 1.713 . S
C2029 C134 1.715 . S
C2064 C1291 1.550 . S
C2059 C148 1.518 . S
C2089 C181 1.558 . S
C2094 C485 1.586 . S
C2119 C195 1.384 . S
C2124 C547 1.405 . S
C2149 C204 1.569 . S
C2154 C591 1.602 . S
C2179 C209 1.530 . S
C2184 C653 1.583 . S
C2214 C715 1.757 . S
C2209 C176 1.730 . S
C2244 C795 1.535 . S
C2239 C190 1.519 . S
C2274 C733 1.637 . S
C2269 C223 1.580 . S
C2304 C777 1.431 . S
C2299 C237 1.405 . S
C2329 C246 1.557 . S
C2334 C671 1.587 . S
C2364 C609 1.554 . S
C2359 C251 1.506 . S
C2389 C218 1.720 . S
C2394 C467 1.719 . S
C2424 C529 1.544 . S
C2419 C232 1.524 . S
C2454 C305 1.308 . S
C2449 C11 1.368 . S
C2479 C25 1.239 . S
C2484 C349 1.200 . S
C2514 C429 1.272 . S
C2509 C35 1.332 . S
C2544 C491 1.302 . S
C2539 C39 1.365 1_556 S
C2574 C553 1.393 . S
C2569 C7 1.466 1_556 S
C2604 C597 1.284 . S
C2599 C21 1.339 . S
C2629 C53 1.383 1_556 S
C2634 C615 1.343 . S
C2659 C67 1.227 1_556 S
C2664 C473 1.182 . S
C2689 C77 1.300 . S
C2694 C535 1.239 . S
C2719 C81 1.398 . S
C2724 C367 1.356 . S
C2754 C411 1.380 . S
C2749 C49 1.450 . S
C2779 C63 1.339 . S
C2784 C287 1.272 . S
C2814 C659 1.307 . S
C2809 C95 1.358 . S
C2839 C109 1.274 . S
C2844 C721 1.233 . S
C2869 C119 1.401 1_655 S
C2874 C801 1.338 . S
C2904 C863 1.223 . S
C2899 C123 1.275 . S
C2929 C91 1.456 . S
C2934 C907 1.395 . S
C2959 C105 1.271 . S
C2964 C987 1.221 . S
C2989 C137 1.305 . S
C2994 C969 1.240 . S
C3019 C151 1.148 . S
C3024 C845 1.108 . S
C3054 C925 1.290 . S
C3049 C161 1.340 . S
C3079 C165 1.382 . S
C3084 C739 1.332 . S
C3109 C133 1.490 1_545 S
C3114 C783 1.416 . S
C3144 C677 1.335 . S
C3139 C147 1.390 1_655 S
C3174 C1031 1.280 . S
C3169 C179 1.324 . S
C3199 C193 1.136 . S
C3204 C1111 1.097 . S
C3229 C203 1.333 . S
C3234 C1173 1.275 . S
C3264 C1235 1.298 . S
C3259 C207 1.362 . S
C3294 C1279 1.431 . S
C3289 C175 1.496 1_565 S
C3319 C189 1.396 1_455 S
C3324 C1359 1.327 . S
C3349 C221 1.371 . S
C3354 C1341 1.308 . S
C3379 C235 1.200 1_565 S
C3384 C1217 1.214 . S
C3414 C1297 1.333 . S
C3409 C245 1.386 1_455 S
C3444 C1093 1.204 . S
C3439 C249 1.256 . S
C3474 C1155 1.391 . S
C3469 C217 1.461 . S
C3499 C231 1.297 . S
C3504 C1049 1.251 . S
