# Generated by pormake.
# Topology zzz, (3,6)-cn, num edge types: 1
# Building blocks:
#     Node 0, Type 0, BuildingBlock: MIDCAF_clean_linker_0, # of connection points: 3
#     Node 1, Type 0, BuildingBlock: MIDCAF_clean_linker_0, # of connection points: 3
#     Node 2, Type 0, BuildingBlock: MIDCAF_clean_linker_0, # of connection points: 3
#     Node 3, Type 0, BuildingBlock: MIDCAF_clean_linker_0, # of connection points: 3
#     Node 4, Type 0, BuildingBlock: MIDCAF_clean_linker_0, # of connection points: 3
#     Node 5, Type 0, BuildingBlock: MIDCAF_clean_linker_0, # of connection points: 3
#     Node 6, Type 0, BuildingBlock: MIDCAF_clean_linker_0, # of connection points: 3
#     Node 7, Type 0, BuildingBlock: MIDCAF_clean_linker_0, # of connection points: 3
#     Node 8, Type 1, BuildingBlock: BETGAK_clean_sbu_0, # of connection points: 6
#     Node 9, Type 1, BuildingBlock: BETGAK_clean_sbu_0, # of connection points: 6
#     Node 10, Type 1, BuildingBlock: BETGAK_clean_sbu_0, # of connection points: 6
#     Node 11, Type 1, BuildingBlock: BETGAK_clean_sbu_0, # of connection points: 6
#     Edge 12, Type (0, 1), BuildingBlock: XIVTED_clean_linker_0, # of connection points: 2
#     Edge 13, Type (0, 1), BuildingBlock: XIVTED_clean_linker_0, # of connection points: 2
#     Edge 14, Type (0, 1), BuildingBlock: XIVTED_clean_linker_0, # of connection points: 2
#     Edge 15, Type (0, 1), BuildingBlock: XIVTED_clean_linker_0, # of connection points: 2
#     Edge 16, Type (0, 1), BuildingBlock: XIVTED_clean_linker_0, # of connection points: 2
#     Edge 17, Type (0, 1), BuildingBlock: XIVTED_clean_linker_0, # of connection points: 2
#     Edge 18, Type (0, 1), BuildingBlock: XIVTED_clean_linker_0, # of connection points: 2
#     Edge 19, Type (0, 1), BuildingBlock: XIVTED_clean_linker_0, # of connection points: 2
#     Edge 20, Type (0, 1), BuildingBlock: XIVTED_clean_linker_0, # of connection points: 2
#     Edge 21, Type (0, 1), BuildingBlock: XIVTED_clean_linker_0, # of connection points: 2
#     Edge 22, Type (0, 1), BuildingBlock: XIVTED_clean_linker_0, # of connection points: 2
#     Edge 23, Type (0, 1), BuildingBlock: XIVTED_clean_linker_0, # of connection points: 2
#     Edge 24, Type (0, 1), BuildingBlock: XIVTED_clean_linker_0, # of connection points: 2
#     Edge 25, Type (0, 1), BuildingBlock: XIVTED_clean_linker_0, # of connection points: 2
#     Edge 26, Type (0, 1), BuildingBlock: XIVTED_clean_linker_0, # of connection points: 2
#     Edge 27, Type (0, 1), BuildingBlock: XIVTED_clean_linker_0, # of connection points: 2
#     Edge 28, Type (0, 1), BuildingBlock: XIVTED_clean_linker_0, # of connection points: 2
#     Edge 29, Type (0, 1), BuildingBlock: XIVTED_clean_linker_0, # of connection points: 2
#     Edge 30, Type (0, 1), BuildingBlock: XIVTED_clean_linker_0, # of connection points: 2
#     Edge 31, Type (0, 1), BuildingBlock: XIVTED_clean_linker_0, # of connection points: 2
#     Edge 32, Type (0, 1), BuildingBlock: XIVTED_clean_linker_0, # of connection points: 2
#     Edge 33, Type (0, 1), BuildingBlock: XIVTED_clean_linker_0, # of connection points: 2
#     Edge 34, Type (0, 1), BuildingBlock: XIVTED_clean_linker_0, # of connection points: 2
#     Edge 35, Type (0, 1), BuildingBlock: XIVTED_clean_linker_0, # of connection points: 2
# Relax obj value: 0.455
# Max RMSD: 0.270
# Mean RMSD: 0.254
data_MOF--net-zzz--node1-BETGAK_clean_sbu_0--node2-MIDCAF_clean_linker_0--edge1-XIVTED_clean_linker_0
_symmetry_space_group_name_H-M    P1
_symmetry_Int_Tables_number       1
_symmetry_cell_setting            triclinic
loop_
_symmetry_equiv_pos_as_xyz
'x, y, z'
_cell_length_a     60.119847
_cell_length_b     60.161856
_cell_length_c     18.537338
_cell_angle_alpha  89.82903
_cell_angle_beta   89.859092
_cell_angle_gamma 89.919807
loop_
_atom_site_label
_atom_site_type_symbol
_atom_site_fract_x
_atom_site_fract_y
_atom_site_fract_z
_atom_type_partial_charge
C0 C 0.80443 0.5216 0.36918 0.0
C1 C 0.81375 0.50612 0.41798 0.0
C2 C 0.80348 0.48524 0.42505 0.0
C3 C 0.7854 0.47949 0.38175 0.0
H4 H 0.72446 0.52861 0.13511 0.0
H5 H 0.69197 0.54072 0.06444 0.0
H6 H 0.65737 0.48073 0.12671 0.0
H7 H 0.6895 0.46897 0.1964 0.0
H8 H 0.73866 0.4394 0.06451 0.0
H9 H 0.75874 0.41453 0.98381 0.0
H10 H 0.80964 0.40582 0.14584 0.0
H11 H 0.7894 0.42995 0.22663 0.0
H12 H 0.77998 0.52763 0.28639 0.0
H13 H 0.81176 0.53792 0.36274 0.0
H14 H 0.8102 0.47275 0.46112 0.0
H15 H 0.77877 0.46279 0.38594 0.0
N16 N 0.7432 0.49697 0.25047 0.0
N17 N 0.73598 0.46777 0.16916 0.0
N18 N 0.76705 0.46597 0.24393 0.0
C19 C 0.73007 0.48757 0.19854 0.0
C20 C 0.75451 0.45692 0.1911 0.0
C21 C 0.76166 0.48577 0.27413 0.0
C22 C 0.70933 0.49801 0.17196 0.0
C23 C 0.70955 0.51851 0.13551 0.0
C24 C 0.69108 0.52524 0.09425 0.0
C25 C 0.672 0.51168 0.08947 0.0
C26 C 0.67152 0.49181 0.12962 0.0
C27 C 0.68997 0.48502 0.16978 0.0
C28 C 0.76285 0.43732 0.15108 0.0
C29 C 0.75376 0.43158 0.08381 0.0
C30 C 0.7653 0.41734 0.03738 0.0
C31 C 0.78613 0.40864 0.05736 0.0
C32 C 0.79369 0.41217 0.12819 0.0
C33 C 0.78216 0.42632 0.17453 0.0
C34 C 0.77681 0.49446 0.33053 0.0
C35 C 0.78603 0.51587 0.32614 0.0
C36 C 0.99785 0.79884 0.43679 0.0
C37 C 0.98284 0.81686 0.43211 0.0
C38 C 0.96397 0.81445 0.38828 0.0
C39 C 0.96088 0.79538 0.34675 0.0
H40 H 0.96021 0.6855 0.27731 0.0
H41 H 0.9687 0.65019 0.21817 0.0
H42 H 0.03123 0.67706 0.14418 0.0
H43 H 0.02271 0.71222 0.20397 0.0
H44 H 0.9683 0.72874 0.04523 0.0
H45 H 0.96712 0.74526 0.92529 0.0
H46 H 0.94136 0.80609 0.01648 0.0
H47 H 0.94252 0.78972 0.13609 0.0
H48 H 0.00713 0.7665 0.39642 0.0
H49 H 0.01254 0.8001 0.47017 0.0
H50 H 0.95174 0.82764 0.38462 0.0
H51 H 0.94643 0.79467 0.312 0.0
N52 N 0.98341 0.73918 0.30011 0.0
N53 N 0.97147 0.73017 0.18273 0.0
N54 N 0.96475 0.76559 0.22809 0.0
C55 C 0.98131 0.72406 0.2453 0.0
C56 C 0.96319 0.75082 0.17335 0.0
C57 C 0.97461 0.76009 0.29169 0.0
C58 C 0.99099 0.70151 0.24656 0.0
C59 C 0.97642 0.68332 0.25263 0.0
C60 C 0.98118 0.66316 0.21783 0.0
C61 C 1.00046 0.66094 0.17528 0.0
C62 C 0.01613 0.67831 0.17592 0.0
C63 C 0.01146 0.69834 0.21141 0.0
C64 C 0.9562 0.75821 0.10061 0.0
C65 C 0.96166 0.74539 0.03958 0.0
C66 C 0.96096 0.7548 0.97065 0.0
C67 C 0.95454 0.77706 0.96156 0.0
C68 C 0.94635 0.78885 0.02149 0.0
C69 C 0.94725 0.77954 0.09041 0.0
C70 C 0.97651 0.77793 0.34739 0.0
C71 C 0.99473 0.77954 0.39473 0.0
C72 C 0.70512 0.96437 0.39391 0.0
C73 C 0.70041 0.98475 0.42742 0.0
C74 C 0.71686 1.00147 0.42572 0.0
C75 C 0.73679 0.99837 0.38643 0.0
H76 H 0.82976 0.95814 0.27924 0.0
H77 H 0.86674 0.96309 0.22663 0.0
H78 H 0.84715 0.02756 0.14612 0.0
H79 H 0.81014 0.02242 0.19874 0.0
H80 H 0.78522 0.97068 0.04036 0.0
H81 H 0.76742 0.9638 0.92438 0.0
H82 H 0.7131 0.93099 0.03445 0.0
H83 H 0.73083 0.93766 0.14933 0.0
H84 H 0.72725 0.94569 0.3272 0.0
H85 H 0.69314 0.95094 0.39546 0.0
H86 H 0.71378 0.01737 0.45111 0.0
H87 H 0.74846 0.012 0.38184 0.0
N88 N 0.77915 0.98489 0.29846 0.0
N89 N 0.78741 0.9724 0.18077 0.0
N90 N 0.75224 0.9661 0.22959 0.0
C91 C 0.7939 0.98253 0.2424 0.0
C92 C 0.76669 0.96412 0.1739 0.0
C93 C 0.75809 0.97639 0.29182 0.0
C94 C 0.81721 0.9901 0.24451 0.0
C95 C 0.83381 0.97392 0.25409 0.0
C96 C 0.85486 0.97659 0.22265 0.0
C97 C 0.8598 0.99555 0.18099 0.0
C98 C 0.84398 0.0128 0.17811 0.0
C99 C 0.82282 0.01001 0.20909 0.0
C100 C 0.75906 0.95526 0.10405 0.0
C101 C 0.76983 0.96136 0.03949 0.0
C102 C 0.75967 0.95741 0.973 0.0
C103 C 0.73872 0.94714 0.97013 0.0
C104 C 0.7293 0.93883 0.03433 0.0
C105 C 0.73932 0.94293 0.10059 0.0
C106 C 0.74056 0.97848 0.34848 0.0
C107 C 0.72482 0.96131 0.35512 0.0
C108 C 0.6106 0.72533 0.16722 0.0
C109 C 0.61132 0.73018 0.09287 0.0
C110 C 0.60551 0.75179 0.07028 0.0
C111 C 0.59532 0.76654 0.11838 0.0
H112 H 0.50369 0.80096 0.16734 0.0
H113 H 0.49257 0.83234 0.09004 0.0
H114 H 0.5507 0.86869 0.15788 0.0
H115 H 0.56186 0.83728 0.23348 0.0
H116 H 0.50356 0.74354 0.30976 0.0
H117 H 0.49372 0.70988 0.37795 0.0
H118 H 0.55302 0.71742 0.50654 0.0
H119 H 0.56261 0.7508 0.43867 0.0
H120 H 0.59844 0.73484 0.27072 0.0
H121 H 0.61514 0.7091 0.18779 0.0
H122 H 0.60676 0.75654 0.01403 0.0
H123 H 0.58872 0.78202 0.09744 0.0
N124 N 0.56304 0.78935 0.20842 0.0
N125 N 0.53327 0.78386 0.28984 0.0
N126 N 0.56324 0.75873 0.28585 0.0
C127 C 0.54348 0.79636 0.23745 0.0
C128 C 0.54363 0.76515 0.31531 0.0
C129 C 0.57297 0.77046 0.23201 0.0
C130 C 0.53345 0.81685 0.20711 0.0
C131 C 0.5136 0.81598 0.16749 0.0
C132 C 0.50742 0.83384 0.12262 0.0
C133 C 0.52081 0.85301 0.11749 0.0
C134 C 0.53989 0.85432 0.16097 0.0
C135 C 0.54626 0.83636 0.20447 0.0
C136 C 0.53366 0.74999 0.36964 0.0
C137 C 0.51389 0.7385 0.35472 0.0
C138 C 0.50851 0.71899 0.39303 0.0
C139 C 0.52271 0.71069 0.4474 0.0
C140 C 0.54155 0.72328 0.46571 0.0
C141 C 0.54703 0.74253 0.42696 0.0
C142 C 0.59112 0.75995 0.18996 0.0
C143 C 0.60071 0.74013 0.21527 0.0
C144 C 0.21506 0.53759 0.98205 0.0
C145 C 0.20419 0.51698 0.98785 0.0
C146 C 0.21302 0.50098 0.0358 0.0
C147 C 0.2314 0.50602 0.07976 0.0
H148 H 0.32158 0.51176 0.16652 0.0
H149 H 0.35453 0.49947 0.23442 0.0
H150 H 0.31892 0.51026 0.43408 0.0
H151 H 0.28647 0.52217 0.36661 0.0
H152 H 0.278 0.58199 0.34766 0.0
H153 H 0.25854 0.60822 0.42521 0.0
H154 H 0.20708 0.61514 0.26407 0.0
H155 H 0.22679 0.58982 0.18616 0.0
H156 H 0.24018 0.55921 0.02336 0.0
H157 H 0.20875 0.55045 0.94657 0.0
H158 H 0.20526 0.48483 0.04114 0.0
H159 H 0.23694 0.4939 0.11918 0.0
N160 N 0.27232 0.52263 0.16598 0.0
N161 N 0.27809 0.55054 0.2529 0.0
N162 N 0.25074 0.55532 0.16538 0.0
C163 C 0.28373 0.53056 0.22434 0.0
C164 C 0.26174 0.56311 0.22366 0.0
C165 C 0.25575 0.53529 0.13604 0.0
C166 C 0.30146 0.51777 0.26133 0.0
C167 C 0.32068 0.51069 0.22478 0.0
C168 C 0.33961 0.50397 0.26382 0.0
C169 C 0.33953 0.50399 0.34 0.0
C170 C 0.31968 0.50971 0.37575 0.0
C171 C 0.30101 0.5166 0.337 0.0
C172 C 0.25353 0.58316 0.26169 0.0
C173 C 0.26286 0.58965 0.32788 0.0
C174 C 0.25168 0.60467 0.37255 0.0
C175 C 0.23087 0.61334 0.35211 0.0
C176 C 0.22302 0.60889 0.28215 0.0
C177 C 0.23426 0.59404 0.23739 0.0
C178 C 0.24112 0.52724 0.0772 0.0
C179 C 0.23316 0.54266 0.02625 0.0
C180 C 0.01554 0.19984 0.10613 0.0
C181 C 0.0226 0.20083 0.03398 0.0
C182 C 0.02866 0.22175 0.0053 0.0
C183 C 0.02875 0.24092 0.04933 0.0
H184 H 0.05937 0.32457 0.18003 0.0
H185 H 0.06004 0.36281 0.22378 0.0
H186 H 0.98901 0.36025 0.25789 0.0
H187 H 0.98851 0.32227 0.2127 0.0
H188 H 0.01132 0.29234 0.4106 0.0
H189 H 0.00727 0.27916 0.5351 0.0
H190 H 0.04345 0.21946 0.48019 0.0
H191 H 0.04706 0.23231 0.35621 0.0
H192 H 0.01036 0.21685 0.20515 0.0
H193 H 0.01012 0.18425 0.1297 0.0
H194 H 0.03409 0.22315 0.94974 0.0
H195 H 0.03427 0.25659 0.02673 0.0
N196 N 0.0241 0.28032 0.15435 0.0
N197 N 0.02712 0.29065 0.2767 0.0
N198 N 0.02729 0.25318 0.24566 0.0
C199 C 0.02521 0.29646 0.20639 0.0
C200 C 0.02837 0.26915 0.29673 0.0
C201 C 0.02502 0.25835 0.17458 0.0
C202 C 0.02384 0.32052 0.1918 0.0
C203 C 0.04373 0.33272 0.19231 0.0
C204 C 0.04415 0.35449 0.21916 0.0
C205 C 0.02467 0.36448 0.2465 0.0
C206 C 1.00436 0.35323 0.2374 0.0
C207 C 1.00398 0.33146 0.21045 0.0
C208 C 0.0292 0.26312 0.37372 0.0
C209 C 0.01888 0.27666 0.42578 0.0
C210 C 0.01662 0.26921 0.49695 0.0
C211 C 0.02517 0.24842 0.51731 0.0
C212 C 0.03701 0.23575 0.46637 0.0
C213 C 0.03883 0.24294 0.39512 0.0
C214 C 0.02276 0.23946 0.12271 0.0
C215 C 0.01563 0.21871 0.14954 0.0
C216 C 0.29365 0.98966 0.94079 0.0
C217 C 0.30542 0.0092 0.95703 0.0
C218 C 0.29692 0.02315 0.01175 0.0
C219 C 0.2779 0.01703 0.05161 0.0
H220 H 0.21039 0.02914 0.20679 0.0
H221 H 0.17763 0.04169 0.27552 0.0
H222 H 0.14907 0.97611 0.2571 0.0
H223 H 0.18131 0.96391 0.189 0.0
H224 H 0.22935 0.93616 0.29224 0.0
H225 H 0.2501 0.91072 0.36941 0.0
H226 H 0.30126 0.90583 0.2058 0.0
H227 H 0.28034 0.9304 0.1285 0.0
H228 H 0.26719 0.9676 0.96988 0.0
H229 H 0.29969 0.9783 0.89998 0.0
H230 H 0.3054 0.03844 0.02536 0.0
H231 H 0.27256 0.02735 0.09621 0.0
N232 N 0.23284 0.99682 0.11566 0.0
N233 N 0.2259 0.96588 0.19087 0.0
N234 N 0.25754 0.96642 0.11804 0.0
C235 C 0.21956 0.98604 0.16472 0.0
C236 C 0.24489 0.95601 0.16821 0.0
C237 C 0.2518 0.98662 0.0913 0.0
C238 C 0.19842 0.99555 0.19255 0.0
C239 C 0.19677 0.0177 0.21582 0.0
C240 C 0.17812 0.02477 0.25586 0.0
C241 C 0.16067 0.00989 0.27234 0.0
C242 C 0.16192 0.98816 0.24504 0.0
C243 C 0.18053 0.9811 0.20612 0.0
C244 C 0.25361 0.93598 0.20527 0.0
C245 C 0.24465 0.92903 0.27177 0.0
C246 C 0.2566 0.91448 0.31622 0.0
C247 C 0.27771 0.90671 0.295 0.0
C248 C 0.28513 0.91141 0.22452 0.0
C249 C 0.2732 0.92584 0.18016 0.0
C250 C 0.26715 0.99676 0.0379 0.0
C251 C 0.27492 0.9835 0.98087 0.0
C252 C 0.39978 0.30792 0.22028 0.0
C253 C 0.39705 0.30279 0.29392 0.0
C254 C 0.40059 0.28071 0.31655 0.0
C255 C 0.41003 0.2652 0.2694 0.0
H256 H 0.49928 0.21012 0.17446 0.0
H257 H 0.50767 0.17664 0.24669 0.0
H258 H 0.43742 0.16309 0.26526 0.0
H259 H 0.42916 0.19606 0.19455 0.0
H260 H 0.44825 0.2714 0.94217 0.0
H261 H 0.45964 0.30455 0.87596 0.0
H262 H 0.51401 0.31374 0.0247 0.0
H263 H 0.50229 0.28044 0.09114 0.0
H264 H 0.41273 0.29766 0.11854 0.0
H265 H 0.39717 0.32462 0.20008 0.0
H266 H 0.39795 0.27595 0.3723 0.0
H267 H 0.4146 0.24902 0.29045 0.0
N268 N 0.4393 0.23836 0.18007 0.0
N269 N 0.4695 0.23907 0.09858 0.0
N270 N 0.44426 0.26897 0.10457 0.0
C271 C 0.45738 0.2282 0.15062 0.0
C272 C 0.46247 0.25947 0.0746 0.0
C273 C 0.43266 0.25872 0.15759 0.0
C274 C 0.46355 0.20592 0.17958 0.0
C275 C 0.48574 0.19961 0.19248 0.0
C276 C 0.49051 0.1805 0.23401 0.0
C277 C 0.47316 0.16747 0.26314 0.0
C278 C 0.45116 0.17301 0.2453 0.0
C279 C 0.44643 0.19191 0.20436 0.0
C280 C 0.47467 0.27303 0.02086 0.0
C281 C 0.46331 0.27987 0.95843 0.0
C282 C 0.46977 0.29905 0.92082 0.0
C283 C 0.48758 0.31214 0.94539 0.0
C284 C 0.50001 0.30429 0.00473 0.0
C285 C 0.49362 0.28493 0.04204 0.0
C286 C 0.41589 0.27153 0.1988 0.0
C287 C 0.40903 0.29243 0.17323 0.0
La288 La 0.02559 1.00017 0.7772 0.0
La289 La 0.99502 0.01861 0.67318 0.0
C290 C 0.04308 0.97388 0.86578 0.0
C291 C 0.04119 0.94937 0.86633 0.0
C292 C 0.05103 0.93649 0.81134 0.0
C293 C 0.04391 0.91471 0.79911 0.0
C294 C 0.02671 0.90568 0.84104 0.0
C295 C 0.01856 0.91769 0.90036 0.0
C296 C 0.02587 0.93928 0.91328 0.0
C297 C 0.04556 0.01707 0.66258 0.0
C298 C 1.00267 0.96854 0.65895 0.0
C299 C 0.9763 0.04437 0.58574 0.0
C300 C 0.97232 0.0684 0.59462 0.0
C301 C 0.96124 0.07662 0.65619 0.0
C302 C 0.96292 0.09905 0.67481 0.0
C303 C 0.97599 0.11336 0.63282 0.0
C304 C 0.98551 0.10558 0.56841 0.0
C305 C 0.98354 0.0833 0.54915 0.0
C306 C 0.97536 1.00201 0.78927 0.0
C307 C 0.01801 0.05064 0.79126 0.0
O308 O 0.05394 0.98264 0.81152 0.0
O309 O 0.02449 0.98455 0.87851 0.0
O310 O 0.05278 0.01883 0.72813 0.0
O311 O 0.02792 0.00566 0.66281 0.0
O312 O 0.0109 0.97044 0.72494 0.0
O313 O 0.99766 0.98647 0.62127 0.0
O314 O 0.96534 0.03111 0.62903 0.0
O315 O 0.9973 0.03881 0.581 0.0
O316 O 0.96806 0.99982 0.72404 0.0
O317 O 0.99286 0.01353 0.78765 0.0
O318 O 0.0077 0.04865 0.72844 0.0
O319 O 0.02509 0.03287 0.82639 0.0
H320 H 0.06302 0.94369 0.77442 0.0
H321 H 0.05056 0.90565 0.75347 0.0
H322 H 0.00566 0.91079 0.93462 0.0
H323 H 0.01822 0.94866 0.95655 0.0
H324 H 0.95255 0.06552 0.69268 0.0
H325 H 0.95545 0.1048 0.72463 0.0
H326 H 0.99544 0.11653 0.53483 0.0
H327 H 0.99223 0.07739 0.50163 0.0
La328 La 0.5106 0.02099 0.74016 0.0
La329 La 0.49367 0.99555 0.62022 0.0
C330 C 0.53574 0.03167 0.84131 0.0
C331 C 0.55742 0.02094 0.85402 0.0
C332 C 0.57681 0.03375 0.859 0.0
C333 C 0.59772 0.02364 0.85276 0.0
C334 C 0.59952 1.00059 0.84054 0.0
C335 C 0.58003 0.98779 0.83846 0.0
C336 C 0.5593 0.9978 0.8456 0.0
C337 C 0.49614 0.04618 0.63314 0.0
C338 C 0.54384 1.00267 0.62139 0.0
C339 C 0.47203 0.97998 0.51599 0.0
C340 C 0.45224 0.96551 0.51107 0.0
C341 C 0.45471 0.94321 0.49019 0.0
C342 C 0.43629 0.92911 0.48726 0.0
C343 C 0.41495 0.93706 0.5046 0.0
C344 C 0.41253 0.95941 0.52553 0.0
C345 C 0.43095 0.97346 0.52879 0.0
C346 C 0.50715 0.97033 0.73006 0.0
C347 C 0.45959 0.01417 0.74113 0.0
O348 O 0.53461 0.04298 0.78109 0.0
O349 O 0.5183 0.01895 0.85047 0.0
O350 O 0.49408 0.05095 0.701 0.0
O351 O 0.50707 0.02833 0.62675 0.0
O352 O 0.54035 0.00555 0.69107 0.0
O353 O 0.5267 1.00222 0.57727 0.0
O354 O 0.48984 0.97061 0.54255 0.0
O355 O 0.46909 1.0001 0.54118 0.0
O356 O 0.50905 0.96514 0.66283 0.0
O357 O 0.49676 0.98845 0.73361 0.0
O358 O 0.46259 0.00494 0.67682 0.0
O359 O 0.47666 0.02085 0.78019 0.0
H360 H 0.57576 0.05165 0.8643 0.0
H361 H 0.61242 0.03395 0.85617 0.0
H362 H 0.58062 0.97011 0.82789 0.0
H363 H 0.5447 0.98747 0.83971 0.0
H364 H 0.47095 0.93663 0.4763 0.0
H365 H 0.43879 0.91198 0.47135 0.0
H366 H 0.39628 0.96627 0.53762 0.0
H367 H 0.42842 0.99058 0.54482 0.0
La368 La 0.4994 0.52119 0.77546 0.0
La369 La 0.51646 0.5033 0.63423 0.0
C370 C 0.4984 0.54291 0.89049 0.0
C371 C 0.51322 0.56138 0.91213 0.0
C372 C 0.50759 0.58349 0.89581 0.0
C373 C 0.52313 0.60049 0.90474 0.0
C374 C 0.54472 0.59578 0.92984 0.0
C375 C 0.55001 0.57378 0.94908 0.0
C376 C 0.53437 0.55685 0.94109 0.0
C377 C 0.46809 0.50988 0.68303 0.0
C378 C 0.51578 0.55449 0.65017 0.0
C379 C 0.51714 0.48186 0.51866 0.0
C380 C 0.50155 0.4642 0.49581 0.0
C381 C 0.50604 0.44181 0.51174 0.0
C382 C 0.4897 0.42562 0.50197 0.0
C383 C 0.46844 0.43146 0.47643 0.0
C384 C 0.46429 0.45373 0.45761 0.0
C385 C 0.48072 0.46984 0.46638 0.0
C386 C 0.54775 0.51408 0.72805 0.0
C387 C 0.49964 0.47001 0.75902 0.0
O388 O 0.48494 0.5469 0.83642 0.0
O389 O 0.50797 0.52346 0.8846 0.0
O390 O 0.46565 0.50895 0.75265 0.0
O391 O 0.4865 0.51879 0.66888 0.0
O392 O 0.51347 0.55073 0.72039 0.0
O393 O 0.51545 0.53804 0.60325 0.0
O394 O 0.53009 0.47712 0.5734 0.0
O395 O 0.50849 0.50175 0.52448 0.0
O396 O 0.55047 0.515 0.65851 0.0
O397 O 0.52913 0.50546 0.74076 0.0
O398 O 0.50205 0.47383 0.68883 0.0
O399 O 0.50018 0.4864 0.80624 0.0
H400 H 0.49139 0.58758 0.874 0.0
H401 H 0.51822 0.61733 0.89143 0.0
H402 H 0.56644 0.56945 0.96838 0.0
H403 H 0.5392 0.54006 0.95518 0.0
H404 H 0.52196 0.43687 0.53393 0.0
H405 H 0.49373 0.40853 0.51497 0.0
H406 H 0.44813 0.45891 0.43801 0.0
H407 H 0.47676 0.48688 0.4526 0.0
La408 La 1.00207 0.49802 0.75725 0.0
La409 La 0.0151 0.52997 0.65244 0.0
C410 C 0.98306 0.47522 0.85367 0.0
C411 C 0.96389 0.46022 0.8538 0.0
C412 C 0.95624 0.45129 0.91897 0.0
C413 C 0.93761 0.43747 0.91999 0.0
C414 C 0.92633 0.43232 0.85565 0.0
C415 C 0.93443 0.44099 0.79008 0.0
C416 C 0.95307 0.45484 0.78919 0.0
C417 C 0.01759 0.47978 0.6365 0.0
C418 C 0.9659 0.51571 0.64491 0.0
C419 C 0.03403 0.55271 0.55569 0.0
C420 C 0.05299 0.56795 0.5555 0.0
C421 C 0.06418 0.57292 0.61978 0.0
C422 C 0.08274 0.58687 0.61871 0.0
C423 C 0.09036 0.59606 0.5533 0.0
C424 C 0.07863 0.59144 0.48941 0.0
C425 C 0.06009 0.57749 0.49059 0.0
C426 C 0.99987 0.54858 0.77333 0.0
C427 C 0.05127 0.51206 0.7645 0.0
O428 O 1.00021 0.46838 0.81662 0.0
O429 O 0.97866 0.49618 0.84145 0.0
O430 O 0.02151 0.47262 0.70087 0.0
O431 O 1.00477 0.49627 0.64096 0.0
O432 O 0.96952 0.5073 0.70991 0.0
O433 O 0.98283 0.52261 0.60551 0.0
O434 O 0.01671 0.55945 0.59211 0.0
O435 O 0.03867 0.53184 0.56879 0.0
O436 O 0.99605 0.55551 0.70863 0.0
O437 O 0.01244 0.53185 0.76904 0.0
O438 O 0.04764 0.52052 0.69956 0.0
O439 O 0.03434 0.50526 0.8041 0.0
H440 H 0.96444 0.45532 0.96925 0.0
H441 H 0.93159 0.43149 0.9716 0.0
H442 H 0.92623 0.43725 0.73961 0.0
H443 H 0.95892 0.46153 0.73824 0.0
H444 H 0.05873 0.56578 0.67055 0.0
H445 H 0.09132 0.5902 0.66883 0.0
H446 H 0.08427 0.59786 0.43791 0.0
H447 H 0.05157 0.57382 0.44059 0.0
H448 H 0.16276 0.0344 0.39726 0.0
H449 H 0.03859 1.0037 0.52267 0.0
H450 H 0.11624 0.99888 0.26352 0.0
H451 H 0.08619 0.03718 0.65764 0.0
H452 H 0.06522 0.00545 0.42216 0.0
H453 H 0.13341 0.03959 0.48727 0.0
C454 C 0.14629 0.02804 0.38606 0.0
C455 C 0.14213 0.01601 0.32265 0.0
C456 C 0.06978 0.01259 0.47358 0.0
C457 C 0.10837 0.02155 0.42668 0.0
C458 C 0.05454 0.01164 0.53091 0.0
C459 C 0.06025 0.02014 0.59881 0.0
C460 C 0.09089 0.02213 0.48416 0.0
C461 C 0.08115 0.03027 0.60637 0.0
C462 C 0.12954 0.03084 0.43794 0.0
C463 C 0.12041 0.00792 0.31202 0.0
N464 N 0.09573 0.03085 0.55007 0.0
N465 N 0.10447 0.01068 0.36358 0.0
H466 H 0.45173 0.16063 0.39079 0.0
H467 H 0.5122 0.04598 0.49337 0.0
H468 H 0.5041 0.13317 0.25886 0.0
H469 H 0.47217 0.0844 0.6407 0.0
H470 H 0.50743 0.07534 0.40161 0.0
H471 H 0.45707 0.13068 0.47758 0.0
C472 C 0.46434 0.1482 0.37985 0.0
C473 C 0.47735 0.14938 0.31692 0.0
C474 C 0.4997 0.07729 0.45402 0.0
C475 C 0.48368 0.11475 0.41717 0.0
C476 C 0.5023 0.0605 0.50622 0.0
C477 C 0.49258 0.06278 0.57484 0.0
C478 C 0.48705 0.09633 0.47038 0.0
C479 C 0.48 0.08196 0.58866 0.0
C480 C 0.46746 0.1311 0.42979 0.0
C481 C 0.49372 0.13294 0.30665 0.0
N482 N 0.47758 0.09789 0.53707 0.0
N483 N 0.49633 0.11621 0.35601 0.0
H484 H 0.3821 0.51815 0.30968 0.0
H485 H 0.42856 0.48821 0.70335 0.0
H486 H 0.34443 0.4818 0.46942 0.0
H487 H 0.46707 0.52228 0.54093 0.0
H488 H 0.39858 0.48319 0.61536 0.0
H489 H 0.41452 0.5167 0.38899 0.0
C490 C 0.3807 0.50949 0.36078 0.0
C491 C 0.3603 0.50027 0.38287 0.0
C492 C 0.41364 0.49164 0.5987 0.0
C493 C 0.39743 0.499 0.47511 0.0
C494 C 0.43073 0.49454 0.64902 0.0
C495 C 0.45029 0.50572 0.62946 0.0
C496 C 0.41603 0.50015 0.52832 0.0
C497 C 0.45228 0.51351 0.55826 0.0
C498 C 0.39922 0.50886 0.40646 0.0
C499 C 0.3596 0.48954 0.45043 0.0
N500 N 0.43534 0.51071 0.51048 0.0
N501 N 0.37776 0.48938 0.49421 0.0
H502 H 0.05633 0.37405 0.34776 0.0
H503 H 0.99576 0.48249 0.50613 0.0
H504 H 0.99561 0.40024 0.25711 0.0
H505 H 0.04572 0.44473 0.6195 0.0
H506 H 0.9988 0.45645 0.40433 0.0
H507 H 0.05624 0.40398 0.43582 0.0
C508 C 0.04318 0.38634 0.34518 0.0
C509 C 0.02598 0.38451 0.29426 0.0
C510 C 0.00919 0.45398 0.4513 0.0
C511 C 0.02556 0.41888 0.39712 0.0
C512 C 0.00755 0.46889 0.50923 0.0
C513 C 0.02046 0.4657 0.57149 0.0
C514 C 0.02407 0.43595 0.45535 0.0
C515 C 0.03538 0.44775 0.57273 0.0
C516 C 0.04302 0.40335 0.39632 0.0
C517 C 0.00914 0.40081 0.29547 0.0
N518 N 0.03676 0.4336 0.51576 0.0
N519 N 0.00931 0.41724 0.34612 0.0
H520 H 0.88958 0.02968 0.15467 0.0
H521 H 0.94122 0.97286 0.80603 0.0
H522 H 0.87471 0.9622 0.09368 0.0
H523 H 0.97614 0.02495 0.91749 0.0
H524 H 0.915 0.97033 0.9071 0.0
H525 H 0.91977 0.0302 0.06466 0.0
C526 C 0.89279 0.01493 0.12294 0.0
C527 C 0.87965 0.99581 0.13225 0.0
C528 C 0.9285 0.98219 0.90986 0.0
C529 C 0.91385 0.99645 0.02833 0.0
C530 C 0.94345 0.98364 0.85216 0.0
C531 C 0.96087 0.99909 0.85347 0.0
C532 C 0.93061 0.99666 0.96884 0.0
C533 C 0.96298 0.01272 0.91455 0.0
C534 C 0.91005 0.01521 0.07177 0.0
C535 C 0.88456 0.97719 0.08934 0.0
N536 N 0.94785 0.0114 0.96942 0.0
N537 N 0.90102 0.97807 0.03891 0.0
H538 H 0.51038 0.84754 0.97497 0.0
H539 H 0.50081 0.97678 0.87575 0.0
H540 H 0.52168 0.89859 0.13343 0.0
H541 H 0.51736 0.92623 0.72017 0.0
H542 H 0.50303 0.94861 0.97214 0.0
H543 H 0.50662 0.87634 0.88211 0.0
C544 C 0.51173 0.86483 0.99049 0.0
C545 C 0.51631 0.87062 0.06228 0.0
C546 C 0.50621 0.94375 0.91687 0.0
C547 C 0.51216 0.90377 0.95576 0.0
C548 C 0.50496 0.9598 0.8619 0.0
C549 C 0.509 0.95388 0.7898 0.0
C550 C 0.51105 0.92152 0.8994 0.0
C551 C 0.51418 0.93158 0.77493 0.0
C552 C 0.5098 0.88126 0.93727 0.0
C553 C 0.51825 0.89335 0.07877 0.0
N554 N 0.51489 0.91624 0.82901 0.0
N555 N 0.5161 0.90909 0.02606 0.0
H556 H 0.67418 0.52849 0.95095 0.0
H557 H 0.54609 0.50264 0.8702 0.0
H558 H 0.62706 0.50644 0.11175 0.0
H559 H 0.58997 0.53114 0.71084 0.0
H560 H 0.5754 0.50581 0.96011 0.0
H561 H 0.64367 0.53196 0.86404 0.0
C562 C 0.6574 0.52475 0.9685 0.0
C563 C 0.65331 0.51695 0.03892 0.0
C564 C 0.57868 0.51156 0.90571 0.0
C565 C 0.61828 0.52051 0.93892 0.0
C566 C 0.56184 0.50984 0.85427 0.0
C567 C 0.56549 0.51681 0.78295 0.0
C568 C 0.59958 0.52006 0.88587 0.0
C569 C 0.58645 0.52558 0.76527 0.0
C570 C 0.63999 0.52657 0.91854 0.0
C571 C 0.63117 0.51211 0.05789 0.0
N572 N 0.60276 0.52685 0.81624 0.0
N573 N 0.61462 0.5138 0.00824 0.0
H574 H 0.99404 0.61562 0.19371 0.0
H575 H 0.98838 0.59231 0.77285 0.0
H576 H 0.01004 0.66484 0.03225 0.0
H577 H 0.00936 0.5399 0.91679 0.0
H578 H 0.98951 0.61848 0.87295 0.0
H579 H 0.99392 0.58692 0.09861 0.0
C580 C 0.99773 0.62035 0.13855 0.0
C581 C 1.00229 0.64266 0.12112 0.0
C582 C 0.99382 0.60125 0.88284 0.0
C583 C 1.00155 0.61015 0.01232 0.0
C584 C 0.99306 0.58622 0.82574 0.0
C585 C 0.99891 0.56385 0.83625 0.0
C586 C 1.00006 0.59393 0.95185 0.0
C587 C 1.0048 0.55703 0.90631 0.0
C588 C 0.99768 0.60399 0.08449 0.0
C589 C 0.00681 0.64786 0.0486 0.0
N590 N 0.00515 0.572 0.96169 0.0
N591 N 0.00607 0.63184 0.99707 0.0
H592 H 0.05098 0.22642 0.61605 0.0
H593 H 0.9482 0.14816 0.66521 0.0
H594 H 0.98313 0.2449 0.57078 0.0
H595 H 0.01722 0.12886 0.66026 0.0
H596 H 0.95964 0.18692 0.68503 0.0
H597 H 0.03746 0.19593 0.69156 0.0
C598 C 0.03323 0.22458 0.62443 0.0
C599 C 0.01812 0.23757 0.58517 0.0
C600 C 0.97224 0.17407 0.68169 0.0
C601 C 1.0026 0.20242 0.66861 0.0
C602 C 0.96571 0.15207 0.67015 0.0
C603 C 0.98188 0.13567 0.65891 0.0
C604 C 0.99502 0.17942 0.68201 0.0
C605 C 1.00433 0.14129 0.66667 0.0
C606 C 0.02549 0.20712 0.66715 0.0
C607 C 0.99533 0.23488 0.59891 0.0
N608 N 0.01026 0.16276 0.67657 0.0
N609 N 0.98819 0.21705 0.63757 0.0
H610 H 0.31079 0.87514 0.27877 0.0
H611 H 0.37758 0.93502 0.59022 0.0
H612 H 0.28235 0.92003 0.43541 0.0
H613 H 0.40674 0.90643 0.39858 0.0
H614 H 0.34228 0.91719 0.5603 0.0
H615 H 0.34478 0.87354 0.35074 0.0
C616 C 0.31139 0.88416 0.3292 0.0
C617 C 0.29397 0.89848 0.34931 0.0
C618 C 0.35657 0.91444 0.52575 0.0
C619 C 0.33269 0.89657 0.43188 0.0
C620 C 0.37667 0.92475 0.54241 0.0
C621 C 0.395 0.92278 0.4957 0.0
C622 C 0.35477 0.9021 0.46189 0.0
C623 C 0.39306 0.90862 0.43593 0.0
C624 C 0.33081 0.88321 0.37025 0.0
C625 C 0.2954 0.90905 0.41669 0.0
N626 N 0.37318 0.89916 0.42003 0.0
N627 N 0.31466 0.90834 0.45461 0.0
H628 H 0.37504 0.34313 0.2838 0.0
H629 H 0.45976 0.39567 0.56465 0.0
H630 H 0.41762 0.30513 0.42564 0.0
H631 H 0.43659 0.42819 0.37069 0.0
H632 H 0.43381 0.36526 0.54201 0.0
H633 H 0.38614 0.37696 0.34697 0.0
C634 C 0.38622 0.34174 0.3293 0.0
C635 C 0.3961 0.32126 0.34719 0.0
C636 C 0.43419 0.37928 0.50524 0.0
C637 C 0.40853 0.35982 0.42009 0.0
C638 C 0.44917 0.39652 0.51754 0.0
C639 C 0.45085 0.4143 0.46845 0.0
C640 C 0.42066 0.37985 0.44371 0.0
C641 C 0.43603 0.41486 0.40994 0.0
C642 C 0.39252 0.36108 0.36529 0.0
C643 C 0.40976 0.32045 0.40869 0.0
N644 N 0.42177 0.39774 0.39872 0.0
N645 N 0.41597 0.33952 0.44183 0.0
H646 H 0.22639 0.60104 0.49394 0.0
H647 H 0.10047 0.63318 0.47276 0.0
H648 H 0.19922 0.64639 0.33591 0.0
H649 H 0.12903 0.58695 0.62518 0.0
H650 H 0.13771 0.64738 0.44662 0.0
H651 H 0.19353 0.60627 0.56775 0.0
C652 C 0.21392 0.61273 0.47554 0.0
C653 C 0.2153 0.62263 0.40689 0.0
C654 C 0.13577 0.63449 0.48705 0.0
C655 C 0.17699 0.62792 0.49055 0.0
C656 C 0.11453 0.62628 0.50168 0.0
C657 C 0.11169 0.60841 0.5497 0.0
C658 C 0.15431 0.62459 0.52017 0.0
C659 C 0.13039 0.60059 0.58725 0.0
C660 C 0.19492 0.61551 0.51771 0.0
C661 C 0.19846 0.63764 0.38695 0.0
N662 N 0.15093 0.60841 0.57055 0.0
N663 N 0.17968 0.63931 0.42752 0.0
H664 H 0.93088 0.80871 0.88661 0.0
H665 H 0.04567 0.86529 0.80916 0.0
H666 H 0.99408 0.7747 0.88977 0.0
H667 H 0.98251 0.89907 0.82197 0.0
H668 H 0.02592 0.82993 0.79413 0.0
H669 H 0.9478 0.83848 0.81554 0.0
C670 C 0.94812 0.80715 0.87021 0.0
C671 C 0.96128 0.78964 0.89628 0.0
C672 C 0.01639 0.84515 0.79875 0.0
C673 C 0.9809 0.82383 0.81715 0.0
C674 C 0.02766 0.86526 0.80754 0.0
C675 C 0.01562 0.88483 0.81983 0.0
C676 C 0.993 0.84479 0.80252 0.0
C677 C 0.99235 0.8841 0.81567 0.0
C678 C 0.95783 0.82418 0.82989 0.0
C679 C 0.98339 0.78811 0.87202 0.0
N680 N 0.98179 0.86436 0.80868 0.0
N681 N 0.99272 0.80538 0.83574 0.0
H682 H 0.70973 0.91673 0.91223 0.0
H683 H 0.63634 0.0171 0.76946 0.0
H684 H 0.73421 0.98356 0.88288 0.0
H685 H 0.61281 0.95913 0.88467 0.0
H686 H 0.67331 1.0 0.76229 0.0
H687 H 0.67613 0.92694 0.84591 0.0
C688 C 0.70842 0.9333 0.88957 0.0
C689 C 0.72433 0.94958 0.90578 0.0
C690 C 0.65984 0.99094 0.78772 0.0
C691 C 0.68606 0.96132 0.83072 0.0
C692 C 0.63885 1.00079 0.79292 0.0
C693 C 0.6215 0.98982 0.82942 0.0
C694 C 0.6634 0.96991 0.81858 0.0
C695 C 0.62555 0.96832 0.85609 0.0
C696 C 0.68923 0.93913 0.85196 0.0
C697 C 0.72215 0.97058 0.87314 0.0
N698 N 0.6461 0.95921 0.8508 0.0
N699 N 0.70298 0.97609 0.83894 0.0
H700 H 0.5891 0.72629 0.96402 0.0
H701 H 0.5768 0.60087 0.03413 0.0
H702 H 0.63512 0.69067 0.10108 0.0
H703 H 0.55128 0.63179 0.84058 0.0
H704 H 0.60166 0.63235 0.05042 0.0
H705 H 0.57978 0.69181 0.90502 0.0
C706 C 0.59793 0.71144 0.98047 0.0
C707 C 0.61233 0.71147 0.04022 0.0
C708 C 0.59091 0.63207 1.00365 0.0
C709 C 0.60078 0.67148 0.97398 0.0
C710 C 0.57664 0.61405 0.99426 0.0
C711 C 0.5615 0.61381 0.93667 0.0
C712 C 0.58979 0.6502 0.95592 0.0
C713 C 0.56207 0.63156 0.88722 0.0
C714 C 0.59232 0.69155 0.94686 0.0
C715 C 0.62309 0.6914 0.05782 0.0
N716 N 0.57567 0.64921 0.89872 0.0
N717 N 0.61654 0.67208 0.0266 0.0
H718 H 0.81757 0.37528 0.06861 0.0
H719 H 0.88819 0.44006 0.77884 0.0
H720 H 0.79172 0.42413 0.91958 0.0
H721 H 0.91592 0.39596 0.93934 0.0
H722 H 0.85153 0.42451 0.80262 0.0
H723 H 0.8513 0.37268 0.99519 0.0
C724 C 0.81868 0.385 0.01946 0.0
C725 C 0.80209 0.40055 1.00187 0.0
C726 C 0.86568 0.41789 0.83169 0.0
C727 C 0.84061 0.39772 0.91789 0.0
C728 C 0.88671 0.4267 0.81783 0.0
C729 C 0.90511 0.41974 0.85858 0.0
C730 C 0.86297 0.40221 0.88734 0.0
C731 C 0.90206 0.40237 0.90841 0.0
C732 C 0.83796 0.38351 0.97754 0.0
C733 C 0.80412 0.41213 0.93623 0.0
N734 N 0.88132 0.39452 0.92248 0.0
N735 N 0.82329 0.4109 0.89768 0.0
H736 H 0.0098 0.19253 0.89266 0.0
H737 H 0.03478 0.06137 0.9245 0.0
H738 H 0.03909 0.16072 0.07845 0.0
H739 H 0.00729 0.0914 0.73296 0.0
H740 H 0.03748 0.09815 0.9791 0.0
H741 H 0.00985 0.15641 0.83039 0.0
C742 C 0.01645 0.17806 0.9201 0.0
C743 C 0.02419 0.17971 0.99143 0.0
C744 C 0.03086 0.09678 0.92502 0.0
C745 C 0.02427 0.13828 0.92045 0.0
C746 C 0.02934 0.07569 0.89368 0.0
C747 C 0.02061 0.07315 0.824 0.0
C748 C 0.02358 0.11567 0.88677 0.0
C749 C 0.01387 0.09249 0.78704 0.0
C750 C 0.01638 0.15741 0.88462 0.0
C751 C 0.03253 0.16028 0.02416 0.0
N752 N 0.0154 0.11286 0.81885 0.0
N753 N 0.03225 0.14052 0.98873 0.0
H754 H 0.31716 1.00253 0.81481 0.0
H755 H 0.44652 0.03009 0.87381 0.0
H756 H 0.344 0.02568 0.0167 0.0
H757 H 0.42001 1.00226 0.67773 0.0
H758 H 0.40883 0.03143 0.92388 0.0
H759 H 0.35417 0.00538 0.76085 0.0
C760 C 0.33078 0.00833 0.84786 0.0
C761 C 0.32731 0.0137 0.92085 0.0
C762 C 0.41124 0.02511 0.86979 0.0
C763 C 0.37004 0.01708 0.8588 0.0
C764 C 0.43281 0.02435 0.84101 0.0
C765 C 0.4366 0.01598 0.77129 0.0
C766 C 0.39317 0.01749 0.82871 0.0
C767 C 0.41803 0.00881 0.73167 0.0
C768 C 0.35197 0.00998 0.81684 0.0
C769 C 0.34569 0.02151 0.9602 0.0
N770 N 0.39723 0.00968 0.76093 0.0
N771 N 0.36621 0.0228 0.92892 0.0
H772 H 0.4855 0.32594 0.80294 0.0
H773 H 0.49888 0.45527 0.89917 0.0
H774 H 0.49764 0.35068 0.01746 0.0
H775 H 0.49539 0.43129 0.68027 0.0
H776 H 0.49705 0.417 0.94266 0.0
H777 H 0.48819 0.36406 0.7564 0.0
C778 C 0.48885 0.33932 0.8403 0.0
C779 C 0.49141 0.33491 0.91444 0.0
C780 C 0.49666 0.42005 0.88508 0.0
C781 C 0.49437 0.3788 0.86127 0.0
C782 C 0.49759 0.442 0.86007 0.0
C783 C 0.49727 0.44668 0.78575 0.0
C784 C 0.49528 0.40242 0.8357 0.0
C785 C 0.49569 0.42859 0.73802 0.0
C786 C 0.49042 0.36111 0.81358 0.0
C787 C 0.49589 0.35305 0.95986 0.0
N788 N 0.49473 0.40732 0.76377 0.0
N789 N 0.49708 0.37408 0.9327 0.0
H790 H 0.19265 0.52973 0.84964 0.0
H791 H 0.06462 0.49446 0.89391 0.0
H792 H 0.16627 0.49627 0.03739 0.0
H793 H 0.09035 0.52782 0.70499 0.0
H794 H 0.10207 0.49363 0.94452 0.0
H795 H 0.15598 0.52756 0.79312 0.0
C796 C 0.17922 0.52181 0.87896 0.0
C797 C 0.18269 0.51327 0.94882 0.0
C798 C 0.09959 0.50109 0.8919 0.0
C799 C 0.14041 0.51073 0.88393 0.0
C800 C 0.07813 0.50161 0.86288 0.0
C801 C 0.0742 0.51128 0.79496 0.0
C802 C 0.11744 0.51034 0.85306 0.0
C803 C 0.09251 0.52019 0.75749 0.0
C804 C 0.15824 0.52054 0.84648 0.0
C805 C 0.16459 0.5029 0.98332 0.0
N806 N 0.11327 0.51956 0.78707 0.0
N807 N 0.14429 0.50208 0.95085 0.0
H808 H 0.99727 0.82537 0.57172 0.0
H809 H 0.9935 0.9582 0.51802 0.0
H810 H 0.97827 0.85846 0.37453 0.0
H811 H 1.00464 0.92759 0.72515 0.0
H812 H 0.98954 0.92137 0.46465 0.0
H813 H 1.00228 0.862 0.62875 0.0
C814 C 0.99427 0.84027 0.54029 0.0
C815 C 0.9871 0.83873 0.46827 0.0
C816 C 0.99292 0.9226 0.52184 0.0
C817 C 0.99284 0.88073 0.5331 0.0
C818 C 0.99514 0.94372 0.55248 0.0
C819 C 0.99967 0.94607 0.62632 0.0
C820 C 0.99524 0.90346 0.56505 0.0
C821 C 1.00161 0.92655 0.66787 0.0
C822 C 0.99702 0.86119 0.57298 0.0
C823 C 0.98341 0.8587 0.43044 0.0
N824 N 0.99944 0.90611 0.63682 0.0
N825 N 0.98632 0.8787 0.46311 0.0
H826 H 0.68842 1.00411 0.55769 0.0
H827 H 0.55718 0.99038 0.48556 0.0
H828 H 0.66039 0.9745 0.36692 0.0
H829 H 0.58342 0.00998 0.69206 0.0
H830 H 0.59515 0.98684 0.43969 0.0
H831 H 0.6505 0.00883 0.60646 0.0
C832 C 0.67434 0.99872 0.52593 0.0
C833 C 0.67768 0.9887 0.4583 0.0
C834 C 0.59267 0.99187 0.49517 0.0
C835 C 0.63425 0.99416 0.51346 0.0
C836 C 0.57092 0.99392 0.52141 0.0
C837 C 0.56699 1.00034 0.59305 0.0
C838 C 0.61085 0.99641 0.54049 0.0
C839 C 0.5856 0.00474 0.63675 0.0
C840 C 0.6527 1.00131 0.5539 0.0
C841 C 0.65874 0.98197 0.41973 0.0
N842 N 0.60667 1.00274 0.60984 0.0
N843 N 0.638 0.98484 0.44766 0.0
H844 H 0.50968 0.67233 0.37953 0.0
H845 H 0.5209 0.59329 0.72786 0.0
H846 H 0.5288 0.697 0.58865 0.0
H847 H 0.51407 0.56913 0.51005 0.0
H848 H 0.52145 0.63149 0.68088 0.0
H849 H 0.50787 0.63479 0.42976 0.0
C850 C 0.51317 0.66996 0.43632 0.0
C851 C 0.51937 0.68803 0.47973 0.0
C852 C 0.51989 0.61781 0.64341 0.0
C853 C 0.51769 0.64467 0.53774 0.0
C854 C 0.51961 0.59595 0.67021 0.0
C855 C 0.5175 0.57782 0.62296 0.0
C856 C 0.5178 0.62167 0.56881 0.0
C857 C 0.51585 0.58245 0.54873 0.0
C858 C 0.51237 0.6484 0.46486 0.0
C859 C 0.52413 0.68364 0.55279 0.0
N860 N 0.51593 0.60381 0.52418 0.0
N861 N 0.5232 0.66249 0.57939 0.0
H862 H 0.82522 0.49468 0.55728 0.0
H863 H 0.95253 0.53259 0.51442 0.0
H864 H 0.85127 0.52748 0.36786 0.0
H865 H 0.92696 0.49955 0.70413 0.0
H866 H 0.91521 0.5324 0.46269 0.0
H867 H 0.86166 0.49811 0.61456 0.0
C868 C 0.83854 0.50272 0.52774 0.0
C869 C 0.83504 0.51068 0.45718 0.0
C870 C 0.9177 0.52525 0.51573 0.0
C871 C 0.87707 0.51468 0.52297 0.0
C872 C 0.93908 0.52532 0.54542 0.0
C873 C 0.94303 0.51604 0.61389 0.0
C874 C 0.89994 0.51577 0.55448 0.0
C875 C 0.92479 0.50691 0.65125 0.0
C876 C 0.85938 0.50471 0.56066 0.0
C877 C 0.85297 0.52126 0.42241 0.0
N878 N 0.90412 0.50695 0.62103 0.0
N879 N 0.87317 0.52279 0.45535 0.0
loop_
_geom_bond_atom_site_label_1
_geom_bond_atom_site_label_2
_geom_bond_distance
_geom_bond_site_symmetry_2
_ccdc_geom_bond_type
C0 C1 1.384 . S
C0 H13 0.947 . S
C0 C35 1.382 . S
C1 C0 1.384 . S
C1 C2 1.378 . S
C2 C1 1.378 . S
C2 C3 1.378 . S
C2 H14 0.952 . S
C3 C2 1.378 . S
C3 H15 0.950 . S
C3 C34 1.383 . S
H4 C23 0.947 . S
H5 C24 0.946 . S
H6 C26 0.953 . S
H7 C27 0.945 . S
H8 C29 0.952 . S
H9 C30 0.949 . S
H10 C32 0.950 . S
H11 C33 0.948 . S
H12 C35 0.951 . S
H13 C0 0.947 . S
H14 C2 0.952 . S
H15 C3 0.950 . S
N16 C19 1.382 . S
N16 C21 1.363 . S
N17 C19 1.371 . S
N17 C20 1.372 . S
N18 C20 1.361 . S
N18 C21 1.377 . S
C19 N16 1.382 . S
C19 N17 1.371 . S
C19 C22 1.480 . S
C20 N17 1.372 . S
C20 N18 1.361 . S
C20 C28 1.457 . S
C21 N16 1.363 . S
C21 N18 1.377 . S
C21 C34 1.479 . S
C22 C19 1.480 . S
C22 C23 1.383 . S
C22 C27 1.385 . S
C23 H4 0.947 . S
C23 C22 1.383 . S
C23 C24 1.388 . S
C24 H5 0.946 . S
C24 C23 1.388 . S
C24 C25 1.384 . S
C25 C24 1.384 . S
C25 C26 1.377 . S
C26 H6 0.953 . S
C26 C25 1.377 . S
C26 C27 1.369 . S
C27 H7 0.945 . S
C27 C22 1.385 . S
C27 C26 1.369 . S
C28 C20 1.457 . S
C28 C29 1.372 . S
C28 C33 1.364 . S
C29 H8 0.952 . S
C29 C28 1.372 . S
C29 C30 1.389 . S
C30 H9 0.949 . S
C30 C29 1.389 . S
C30 C31 1.387 . S
C31 C30 1.387 . S
C31 C32 1.372 . S
C32 H10 0.950 . S
C32 C31 1.372 . S
C32 C33 1.379 . S
C33 H11 0.948 . S
C33 C28 1.364 . S
C33 C32 1.379 . S
C34 C3 1.383 . S
C34 C21 1.479 . S
C34 C35 1.398 . S
C35 C0 1.382 . S
C35 H12 0.951 . S
C35 C34 1.398 . S
C36 C37 1.384 1_655 S
C36 H49 0.948 . S
C36 C71 1.382 1_655 S
C37 C36 1.384 1_455 S
C37 C38 1.378 . S
C38 C37 1.378 . S
C38 C39 1.378 . S
C38 H50 0.952 . S
C39 C38 1.378 . S
C39 H51 0.950 . S
C39 C70 1.383 . S
H40 C59 0.947 . S
H41 C60 0.952 . S
H42 C62 0.953 . S
H43 C63 0.945 . S
H44 C65 0.949 1_655 S
H45 C66 0.956 . S
H46 C68 0.950 . S
H47 C69 0.948 . S
H48 C71 0.951 1_655 S
H49 C36 0.948 . S
H50 C38 0.952 . S
H51 C39 0.950 . S
N52 C55 1.382 . S
N52 C57 1.363 . S
N53 C55 1.371 . S
N53 C56 1.372 . S
N54 C56 1.361 . S
N54 C57 1.377 . S
C55 N52 1.382 . S
C55 N53 1.371 . S
C55 C58 1.480 . S
C56 N53 1.372 . S
C56 N54 1.361 . S
C56 C64 1.457 . S
C57 N52 1.363 . S
C57 N54 1.377 . S
C57 C70 1.479 . S
C58 C55 1.480 . S
C58 C59 1.383 . S
C58 C63 1.385 . S
C59 H40 0.947 . S
C59 C58 1.383 . S
C59 C60 1.386 1_455 S
C60 H41 0.952 . S
C60 C59 1.386 1_655 S
C60 C61 1.381 1_655 S
C61 C60 1.381 1_455 S
C61 C62 1.377 . S
C62 H42 0.953 . S
C62 C61 1.377 . S
C62 C63 1.369 . S
C63 H43 0.945 . S
C63 C58 1.385 . S
C63 C62 1.369 . S
C64 C56 1.457 . S
C64 C65 1.376 . S
C64 C69 1.364 . S
C65 H44 0.949 1_455 S
C65 C64 1.376 . S
C65 C66 1.387 1_455 S
C66 H45 0.956 . S
C66 C65 1.387 1_655 S
C66 C67 1.383 1_655 S
C67 C66 1.383 1_455 S
C67 C68 1.372 . S
C68 H46 0.950 . S
C68 C67 1.372 . S
C68 C69 1.379 . S
C69 H47 0.948 . S
C69 C64 1.364 . S
C69 C68 1.379 . S
C70 C39 1.383 . S
C70 C57 1.479 . S
C70 C71 1.398 . S
C71 C36 1.382 1_455 S
C71 H48 0.951 1_455 S
C71 C70 1.398 . S
C72 C73 1.384 1_565 S
C72 H85 0.948 . S
C72 C107 1.382 1_565 S
C73 C72 1.384 1_545 S
C73 C74 1.378 . S
C74 C73 1.378 . S
C74 C75 1.378 . S
C74 H86 0.952 . S
C75 C74 1.378 . S
C75 H87 0.950 . S
C75 C106 1.383 . S
H76 C95 0.947 . S
H77 C96 0.952 . S
H78 C98 0.953 . S
H79 C99 0.945 . S
H80 C101 0.949 1_565 S
H81 C102 0.957 . S
H82 C104 0.950 . S
H83 C105 0.948 . S
H84 C107 0.951 1_565 S
H85 C72 0.948 . S
H86 C74 0.952 . S
H87 C75 0.950 . S
N88 C91 1.382 . S
N88 C93 1.363 . S
N89 C91 1.371 . S
N89 C92 1.372 . S
N90 C92 1.361 . S
N90 C93 1.377 . S
C91 N88 1.382 . S
C91 N89 1.371 . S
C91 C94 1.480 . S
C92 N89 1.372 . S
C92 N90 1.361 . S
C92 C100 1.457 . S
C93 N88 1.363 . S
C93 N90 1.377 . S
C93 C106 1.479 . S
C94 C91 1.480 . S
C94 C95 1.383 . S
C94 C99 1.385 . S
C95 H76 0.947 . S
C95 C94 1.383 . S
C95 C96 1.386 1_545 S
C96 H77 0.952 . S
C96 C95 1.386 1_565 S
C96 C97 1.382 1_565 S
C97 C96 1.382 1_545 S
C97 C98 1.377 . S
C98 H78 0.953 . S
C98 C97 1.377 . S
C98 C99 1.369 . S
C99 H79 0.945 . S
C99 C94 1.385 . S
C99 C98 1.369 . S
C100 C92 1.457 . S
C100 C101 1.376 . S
C100 C105 1.364 . S
C101 H80 0.949 1_545 S
C101 C100 1.376 . S
C101 C102 1.386 1_545 S
C102 H81 0.957 . S
C102 C101 1.386 1_565 S
C102 C103 1.383 1_565 S
C103 C102 1.383 1_545 S
C103 C104 1.372 . S
C104 H82 0.950 . S
C104 C103 1.372 . S
C104 C105 1.379 . S
C105 H83 0.948 . S
C105 C100 1.364 . S
C105 C104 1.379 . S
C106 C75 1.383 . S
C106 C93 1.479 . S
C106 C107 1.398 . S
C107 C72 1.382 1_545 S
C107 H84 0.951 1_545 S
C107 C106 1.398 . S
C108 C109 1.384 . S
C108 H121 0.947 . S
C108 C143 1.382 . S
C109 C108 1.384 . S
C109 C110 1.378 . S
C110 C109 1.378 . S
C110 C111 1.378 . S
C110 H122 0.952 . S
C111 C110 1.378 . S
C111 H123 0.950 . S
C111 C142 1.383 . S
H112 C131 0.947 . S
H113 C132 0.946 . S
H114 C134 0.953 . S
H115 C135 0.945 . S
H116 C137 0.952 . S
H117 C138 0.949 . S
H118 C140 0.950 . S
H119 C141 0.948 . S
H120 C143 0.951 . S
H121 C108 0.947 . S
H122 C110 0.952 . S
H123 C111 0.950 . S
N124 C127 1.382 . S
N124 C129 1.363 . S
N125 C127 1.371 . S
N125 C128 1.372 . S
N126 C128 1.361 . S
N126 C129 1.377 . S
C127 N124 1.382 . S
C127 N125 1.371 . S
C127 C130 1.480 . S
C128 N125 1.372 . S
C128 N126 1.361 . S
C128 C136 1.457 . S
C129 N124 1.363 . S
C129 N126 1.377 . S
C129 C142 1.479 . S
C130 C127 1.480 . S
C130 C131 1.383 . S
C130 C135 1.385 . S
C131 H112 0.947 . S
C131 C130 1.383 . S
C131 C132 1.388 . S
C132 H113 0.946 . S
C132 C131 1.388 . S
C132 C133 1.384 . S
C133 C132 1.384 . S
C133 C134 1.377 . S
C134 H114 0.953 . S
C134 C133 1.377 . S
C134 C135 1.369 . S
C135 H115 0.945 . S
C135 C130 1.385 . S
C135 C134 1.369 . S
C136 C128 1.457 . S
C136 C137 1.372 . S
C136 C141 1.364 . S
C137 H116 0.952 . S
C137 C136 1.372 . S
C137 C138 1.389 . S
C138 H117 0.949 . S
C138 C137 1.389 . S
C138 C139 1.387 . S
C139 C138 1.387 . S
C139 C140 1.372 . S
C140 H118 0.950 . S
C140 C139 1.372 . S
C140 C141 1.379 . S
C141 H119 0.948 . S
C141 C136 1.364 . S
C141 C140 1.379 . S
C142 C111 1.383 . S
C142 C129 1.479 . S
C142 C143 1.398 . S
C143 C108 1.382 . S
C143 H120 0.951 . S
C143 C142 1.398 . S
C144 C145 1.384 . S
C144 H157 0.947 . S
C144 C179 1.382 . S
C145 C144 1.384 . S
C145 C146 1.378 . S
C146 C145 1.378 . S
C146 C147 1.378 . S
C146 H158 0.952 . S
C147 C146 1.378 . S
C147 H159 0.950 . S
C147 C178 1.383 . S
H148 C167 0.947 1_556 S
H149 C168 0.946 . S
H150 C170 0.953 . S
H151 C171 0.945 . S
H152 C173 0.952 . S
H153 C174 0.949 . S
H154 C176 0.950 . S
H155 C177 0.948 . S
H156 C179 0.951 . S
H157 C144 0.947 . S
H158 C146 0.952 . S
H159 C147 0.950 . S
N160 C163 1.382 1_556 S
N160 C165 1.363 . S
N161 C163 1.371 . S
N161 C164 1.372 . S
N162 C164 1.361 . S
N162 C165 1.377 1_554 S
C163 N160 1.382 1_554 S
C163 N161 1.371 . S
C163 C166 1.480 . S
C164 N161 1.372 . S
C164 N162 1.361 . S
C164 C172 1.457 . S
C165 N160 1.363 . S
C165 N162 1.377 1_556 S
C165 C178 1.479 . S
C166 C163 1.480 . S
C166 C167 1.383 . S
C166 C171 1.385 . S
C167 H148 0.947 1_554 S
C167 C166 1.383 . S
C167 C168 1.388 . S
C168 H149 0.946 . S
C168 C167 1.388 . S
C168 C169 1.384 . S
C169 C168 1.384 . S
C169 C170 1.377 . S
C170 H150 0.953 . S
C170 C169 1.377 . S
C170 C171 1.369 . S
C171 H151 0.945 . S
C171 C166 1.385 . S
C171 C170 1.369 . S
C172 C164 1.457 . S
C172 C173 1.372 . S
C172 C177 1.364 . S
C173 H152 0.952 . S
C173 C172 1.372 . S
C173 C174 1.389 . S
C174 H153 0.949 . S
C174 C173 1.389 . S
C174 C175 1.387 . S
C175 C174 1.387 . S
C175 C176 1.372 . S
C176 H154 0.950 . S
C176 C175 1.372 . S
C176 C177 1.379 . S
C177 H155 0.948 . S
C177 C172 1.364 . S
C177 C176 1.379 . S
C178 C147 1.383 . S
C178 C165 1.479 . S
C178 C179 1.398 . S
C179 C144 1.382 . S
C179 H156 0.951 . S
C179 C178 1.398 . S
C180 C181 1.384 . S
C180 H193 0.948 1_455 S
C180 C215 1.382 . S
C181 C180 1.384 . S
C181 C182 1.378 . S
C182 C181 1.378 . S
C182 C183 1.378 . S
C182 H194 0.952 . S
C183 C182 1.378 . S
C183 H195 0.950 . S
C183 C214 1.383 . S
H184 C203 0.947 1_556 S
H185 C204 0.949 . S
H186 C206 0.953 . S
H187 C207 0.945 . S
H188 C209 0.947 1_655 S
H189 C210 0.954 . S
H190 C212 0.950 . S
H191 C213 0.948 . S
H192 C215 0.950 1_655 S
H193 C180 0.948 1_655 S
H194 C182 0.952 . S
H195 C183 0.950 . S
N196 C199 1.382 1_556 S
N196 C201 1.363 . S
N197 C199 1.371 . S
N197 C200 1.372 . S
N198 C200 1.361 . S
N198 C201 1.377 1_554 S
C199 N196 1.382 1_554 S
C199 N197 1.371 . S
C199 C202 1.480 . S
C200 N197 1.372 . S
C200 N198 1.361 . S
C200 C208 1.457 . S
C201 N196 1.363 . S
C201 N198 1.377 1_556 S
C201 C214 1.479 . S
C202 C199 1.480 . S
C202 C203 1.383 . S
C202 C207 1.385 . S
C203 H184 0.947 1_554 S
C203 C202 1.383 . S
C203 C204 1.387 1_455 S
C204 H185 0.949 . S
C204 C203 1.387 1_655 S
C204 C205 1.382 1_655 S
C205 C204 1.382 1_455 S
C205 C206 1.377 . S
C206 H186 0.953 . S
C206 C205 1.377 . S
C206 C207 1.369 . S
C207 H187 0.945 . S
C207 C202 1.385 . S
C207 C206 1.369 . S
C208 C200 1.457 . S
C208 C209 1.379 . S
C208 C213 1.364 . S
C209 H188 0.947 1_455 S
C209 C208 1.379 . S
C209 C210 1.387 1_455 S
C210 H189 0.954 . S
C210 C209 1.387 1_655 S
C210 C211 1.384 1_655 S
C211 C210 1.384 1_455 S
C211 C212 1.372 . S
C212 H190 0.950 . S
C212 C211 1.372 . S
C212 C213 1.379 . S
C213 H191 0.948 . S
C213 C208 1.364 . S
C213 C212 1.379 . S
C214 C183 1.383 . S
C214 C201 1.479 . S
C214 C215 1.399 . S
C215 C180 1.382 . S
C215 H192 0.950 1_455 S
C215 C214 1.399 . S
C216 C217 1.384 . S
C216 H229 0.948 1_545 S
C216 C251 1.382 . S
C217 C216 1.384 . S
C217 C218 1.378 . S
C218 C217 1.378 . S
C218 C219 1.378 . S
C218 H230 0.952 . S
C219 C218 1.378 . S
C219 H231 0.950 . S
C219 C250 1.383 . S
H220 C239 0.947 1_556 S
H221 C240 0.949 . S
H222 C242 0.953 . S
H223 C243 0.945 . S
H224 C245 0.947 1_565 S
H225 C246 0.954 . S
H226 C248 0.950 . S
H227 C249 0.948 . S
H228 C251 0.950 1_565 S
H229 C216 0.948 1_565 S
H230 C218 0.952 . S
H231 C219 0.950 . S
N232 C235 1.382 1_556 S
N232 C237 1.363 . S
N233 C235 1.371 . S
N233 C236 1.372 . S
N234 C236 1.361 . S
N234 C237 1.377 1_554 S
C235 N232 1.382 1_554 S
C235 N233 1.371 . S
C235 C238 1.480 . S
C236 N233 1.372 . S
C236 N234 1.361 . S
C236 C244 1.457 . S
C237 N232 1.363 . S
C237 N234 1.377 1_556 S
C237 C250 1.479 . S
C238 C235 1.480 . S
C238 C239 1.383 . S
C238 C243 1.385 . S
C239 H220 0.947 1_554 S
C239 C238 1.383 . S
C239 C240 1.387 1_545 S
C240 H221 0.949 . S
C240 C239 1.387 1_565 S
C240 C241 1.382 1_565 S
C241 C240 1.382 1_545 S
C241 C242 1.377 . S
C242 H222 0.953 . S
C242 C241 1.377 . S
C242 C243 1.369 . S
C243 H223 0.945 . S
C243 C238 1.385 . S
C243 C242 1.369 . S
C244 C236 1.457 . S
C244 C245 1.379 . S
C244 C249 1.364 . S
C245 H224 0.947 1_545 S
C245 C244 1.379 . S
C245 C246 1.387 1_545 S
C246 H225 0.954 . S
C246 C245 1.387 1_565 S
C246 C247 1.384 1_565 S
C247 C246 1.384 1_545 S
C247 C248 1.372 . S
C248 H226 0.950 . S
C248 C247 1.372 . S
C248 C249 1.379 . S
C249 H227 0.948 . S
C249 C244 1.364 . S
C249 C248 1.379 . S
C250 C219 1.383 . S
C250 C237 1.479 . S
C250 C251 1.399 . S
C251 C216 1.382 . S
C251 H228 0.950 1_545 S
C251 C250 1.399 . S
C252 C253 1.384 . S
C252 H265 0.947 . S
C252 C287 1.382 . S
C253 C252 1.384 . S
C253 C254 1.378 . S
C254 C253 1.378 . S
C254 C255 1.378 . S
C254 H266 0.952 . S
C255 C254 1.378 . S
C255 H267 0.950 . S
C255 C286 1.383 . S
H256 C275 0.947 . S
H257 C276 0.946 . S
H258 C278 0.953 1_556 S
H259 C279 0.945 1_556 S
H260 C281 0.952 . S
H261 C282 0.949 . S
H262 C284 0.950 . S
H263 C285 0.948 . S
H264 C287 0.951 . S
H265 C252 0.947 . S
H266 C254 0.952 . S
H267 C255 0.950 . S
N268 C271 1.382 . S
N268 C273 1.363 . S
N269 C271 1.371 1_556 S
N269 C272 1.372 . S
N270 C272 1.361 1_554 S
N270 C273 1.377 . S
C271 N268 1.382 . S
C271 N269 1.371 1_554 S
C271 C274 1.480 . S
C272 N269 1.372 . S
C272 N270 1.361 1_556 S
C272 C280 1.457 . S
C273 N268 1.363 . S
C273 N270 1.377 . S
C273 C286 1.479 . S
C274 C271 1.480 . S
C274 C275 1.383 . S
C274 C279 1.385 . S
C275 H256 0.947 . S
C275 C274 1.383 . S
C275 C276 1.388 . S
C276 H257 0.946 . S
C276 C275 1.388 . S
C276 C277 1.384 . S
C277 C276 1.384 . S
C277 C278 1.377 . S
C278 H258 0.953 1_554 S
C278 C277 1.377 . S
C278 C279 1.369 . S
C279 H259 0.945 1_554 S
C279 C274 1.385 . S
C279 C278 1.369 . S
C280 C272 1.457 . S
C280 C281 1.372 . S
C280 C285 1.364 . S
C281 H260 0.952 . S
C281 C280 1.372 . S
C281 C282 1.389 . S
C282 H261 0.949 . S
C282 C281 1.389 . S
C282 C283 1.387 . S
C283 C282 1.387 . S
C283 C284 1.372 . S
C284 H262 0.950 . S
C284 C283 1.372 . S
C284 C285 1.379 . S
C285 H263 0.948 . S
C285 C280 1.364 . S
C285 C284 1.379 . S
C286 C255 1.383 . S
C286 C273 1.479 . S
C286 C287 1.398 . S
C287 C252 1.382 . S
C287 H264 0.951 . S
C287 C286 1.398 . S
La288 C290 2.928 . S
La288 O308 2.521 . S
La288 O309 2.628 . S
La288 O310 2.554 . S
La288 O311 2.757 1_565 S
La288 O312 2.470 . S
La288 O317 2.482 1_455 S
La288 O319 2.503 1_565 S
La289 C299 2.928 . S
La289 O311 2.482 1_655 S
La289 O313 2.503 1_545 S
La289 O314 2.521 . S
La289 O315 2.628 . S
La289 O316 2.554 . S
La289 O317 2.757 1_545 S
La289 O318 2.470 . S
C290 La288 2.928 . S
C290 C291 1.503 . S
C290 O308 1.261 . S
C290 O309 1.243 . S
C291 C290 1.503 . S
C291 C292 1.394 . S
C291 C296 1.373 . S
C292 C291 1.394 . S
C292 C293 1.380 . S
C292 H320 0.930 . S
C293 C292 1.380 . S
C293 C294 1.376 . S
C293 H321 0.930 . S
C294 C293 1.376 . S
C294 C295 1.370 . S
C295 C294 1.370 . S
C295 C296 1.396 . S
C295 H322 0.932 . S
C296 C291 1.373 . S
C296 C295 1.396 . S
C296 H323 0.929 1_455 S
C297 O310 1.269 . S
C297 O311 1.272 1_565 S
C298 O312 1.258 1_655 S
C298 O313 1.256 . S
C299 La289 2.928 . S
C299 C300 1.503 . S
C299 O314 1.261 . S
C299 O315 1.243 . S
C300 C299 1.503 . S
C300 C301 1.394 . S
C300 C305 1.373 . S
C301 C300 1.394 . S
C301 C302 1.380 . S
C301 H324 0.930 . S
C302 C301 1.380 . S
C302 C303 1.376 . S
C302 H325 0.930 . S
C303 C302 1.376 . S
C303 C304 1.370 . S
C304 C303 1.370 . S
C304 C305 1.396 . S
C304 H326 0.932 1_655 S
C305 C300 1.373 . S
C305 C304 1.396 . S
C305 H327 0.929 1_655 S
C306 O316 1.240 . S
C306 O317 1.289 1_545 S
C307 O318 1.258 1_455 S
C307 O319 1.256 . S
O308 La288 2.521 . S
O308 C290 1.261 . S
O309 La288 2.628 . S
O309 C290 1.243 . S
O310 La288 2.554 . S
O310 C297 1.269 . S
O311 La288 2.757 1_545 S
O311 La289 2.482 1_455 S
O311 C297 1.272 1_545 S
O312 La288 2.470 . S
O312 C298 1.258 1_455 S
O313 La289 2.503 1_565 S
O313 C298 1.256 . S
O314 La289 2.521 . S
O314 C299 1.261 . S
O315 La289 2.628 . S
O315 C299 1.243 . S
O316 La289 2.554 . S
O316 C306 1.240 . S
O317 La288 2.482 1_655 S
O317 La289 2.757 1_565 S
O317 C306 1.289 1_565 S
O318 La289 2.470 . S
O318 C307 1.258 1_655 S
O319 La288 2.503 1_545 S
O319 C307 1.256 . S
H320 C292 0.930 . S
H321 C293 0.930 . S
H322 C295 0.932 . S
H323 C296 0.929 1_655 S
H324 C301 0.930 . S
H325 C302 0.930 . S
H326 C304 0.932 1_455 S
H327 C305 0.929 1_455 S
La328 C330 2.928 . S
La328 O348 2.521 . S
La328 O349 2.628 . S
La328 O350 2.554 . S
La328 O351 2.757 . S
La328 O352 2.470 . S
La328 O357 2.482 1_545 S
La328 O359 2.503 . S
La329 C339 2.928 . S
La329 O351 2.482 1_565 S
La329 O353 2.503 . S
La329 O354 2.521 . S
La329 O355 2.628 . S
La329 O356 2.554 . S
La329 O357 2.757 . S
La329 O358 2.470 . S
C330 La328 2.928 . S
C330 C331 1.503 . S
C330 O348 1.261 . S
C330 O349 1.243 . S
C331 C330 1.503 . S
C331 C332 1.394 . S
C331 C336 1.373 . S
C332 C331 1.394 . S
C332 C333 1.380 . S
C332 H360 0.930 . S
C333 C332 1.380 . S
C333 C334 1.376 . S
C333 H361 0.930 . S
C334 C333 1.376 . S
C334 C335 1.370 . S
C335 C334 1.370 . S
C335 C336 1.396 . S
C335 H362 0.919 1_545 S
C336 C331 1.373 . S
C336 C335 1.396 . S
C336 H363 0.929 1_545 S
C337 O350 1.240 . S
C337 O351 1.289 . S
C338 O352 1.258 1_565 S
C338 O353 1.256 . S
C339 La329 2.928 . S
C339 C340 1.503 . S
C339 O354 1.261 . S
C339 O355 1.243 . S
C340 C339 1.503 . S
C340 C341 1.394 . S
C340 C345 1.373 . S
C341 C340 1.394 . S
C341 C342 1.380 . S
C341 H364 0.930 . S
C342 C341 1.380 . S
C342 C343 1.376 . S
C342 H365 0.930 . S
C343 C342 1.376 . S
C343 C344 1.370 . S
C344 C343 1.370 . S
C344 C345 1.396 . S
C344 H366 0.910 1_565 S
C345 C340 1.373 . S
C345 C344 1.396 . S
C345 H367 0.929 1_565 S
C346 O356 1.240 . S
C346 O357 1.289 . S
C347 O358 1.258 1_545 S
C347 O359 1.256 . S
O348 La328 2.521 . S
O348 C330 1.261 . S
O349 La328 2.628 . S
O349 C330 1.243 . S
O350 La328 2.554 . S
O350 C337 1.240 . S
O351 La328 2.757 . S
O351 La329 2.482 1_545 S
O351 C337 1.289 . S
O352 La328 2.470 . S
O352 C338 1.258 1_545 S
O353 La329 2.503 . S
O353 C338 1.256 . S
O354 La329 2.521 . S
O354 C339 1.261 . S
O355 La329 2.628 . S
O355 C339 1.243 . S
O356 La329 2.554 . S
O356 C346 1.240 . S
O357 La328 2.482 1_565 S
O357 La329 2.757 . S
O357 C346 1.289 . S
O358 La329 2.470 . S
O358 C347 1.258 1_565 S
O359 La328 2.503 . S
O359 C347 1.256 . S
H360 C332 0.930 . S
H361 C333 0.930 . S
H362 C335 0.919 1_565 S
H363 C336 0.929 1_565 S
H364 C341 0.930 . S
H365 C342 0.930 . S
H366 C344 0.910 1_545 S
H367 C345 0.929 1_545 S
La368 C370 2.928 . S
La368 O388 2.521 . S
La368 O389 2.628 . S
La368 O390 2.554 . S
La368 O391 2.757 . S
La368 O392 2.470 . S
La368 O397 2.482 . S
La368 O399 2.503 . S
La369 C379 2.928 . S
La369 O391 2.482 . S
La369 O393 2.503 . S
La369 O394 2.521 . S
La369 O395 2.628 . S
La369 O396 2.554 . S
La369 O397 2.757 . S
La369 O398 2.470 . S
C370 La368 2.928 . S
C370 C371 1.503 . S
C370 O388 1.261 . S
C370 O389 1.243 . S
C371 C370 1.503 . S
C371 C372 1.394 . S
C371 C376 1.373 . S
C372 C371 1.394 . S
C372 C373 1.380 . S
C372 H400 0.930 . S
C373 C372 1.380 . S
C373 C374 1.376 . S
C373 H401 0.930 . S
C374 C373 1.376 . S
C374 C375 1.370 . S
C375 C374 1.370 . S
C375 C376 1.396 . S
C375 H402 0.929 . S
C376 C371 1.373 . S
C376 C375 1.396 . S
C376 H403 0.929 . S
C377 O390 1.240 . S
C377 O391 1.289 . S
C378 O392 1.258 . S
C378 O393 1.256 . S
C379 La369 2.928 . S
C379 C380 1.503 . S
C379 O394 1.261 . S
C379 O395 1.243 . S
C380 C379 1.503 . S
C380 C381 1.394 . S
C380 C385 1.373 . S
C381 C380 1.394 . S
C381 C382 1.380 . S
C381 H404 0.930 . S
C382 C381 1.380 . S
C382 C383 1.376 . S
C382 H405 0.930 . S
C383 C382 1.376 . S
C383 C384 1.370 . S
C384 C383 1.370 . S
C384 C385 1.396 . S
C384 H406 0.929 . S
C385 C380 1.373 . S
C385 C384 1.396 . S
C385 H407 0.929 . S
C386 O396 1.240 . S
C386 O397 1.289 . S
C387 O398 1.258 . S
C387 O399 1.256 . S
O388 La368 2.521 . S
O388 C370 1.261 . S
O389 La368 2.628 . S
O389 C370 1.243 . S
O390 La368 2.554 . S
O390 C377 1.240 . S
O391 La368 2.757 . S
O391 La369 2.482 . S
O391 C377 1.289 . S
O392 La368 2.470 . S
O392 C378 1.258 . S
O393 La369 2.503 . S
O393 C378 1.256 . S
O394 La369 2.521 . S
O394 C379 1.261 . S
O395 La369 2.628 . S
O395 C379 1.243 . S
O396 La369 2.554 . S
O396 C386 1.240 . S
O397 La368 2.482 . S
O397 La369 2.757 . S
O397 C386 1.289 . S
O398 La369 2.470 . S
O398 C387 1.258 . S
O399 La368 2.503 . S
O399 C387 1.256 . S
H400 C372 0.930 . S
H401 C373 0.930 . S
H402 C375 0.929 . S
H403 C376 0.929 . S
H404 C381 0.930 . S
H405 C382 0.930 . S
H406 C384 0.929 . S
H407 C385 0.929 . S
La408 C410 2.928 . S
La408 O428 2.521 . S
La408 O429 2.628 . S
La408 O430 2.554 . S
La408 O431 2.757 1_655 S
La408 O432 2.470 . S
La408 O437 2.482 . S
La408 O439 2.503 1_655 S
La409 C419 2.928 . S
La409 O431 2.482 . S
La409 O433 2.503 1_455 S
La409 O434 2.521 . S
La409 O435 2.628 . S
La409 O436 2.554 . S
La409 O437 2.757 1_455 S
La409 O438 2.470 . S
C410 La408 2.928 . S
C410 C411 1.503 . S
C410 O428 1.261 . S
C410 O429 1.243 . S
C411 C410 1.503 . S
C411 C412 1.394 . S
C411 C416 1.373 . S
C412 C411 1.394 . S
C412 C413 1.380 . S
C412 H440 0.930 . S
C413 C412 1.380 . S
C413 C414 1.376 . S
C413 H441 0.930 . S
C414 C413 1.376 . S
C414 C415 1.370 . S
C415 C414 1.370 . S
C415 C416 1.396 . S
C415 H442 0.929 . S
C416 C411 1.373 . S
C416 C415 1.396 . S
C416 H443 0.929 . S
C417 O430 1.256 . S
C417 O431 1.280 1_655 S
C418 O432 1.258 . S
C418 O433 1.256 . S
C419 La409 2.928 . S
C419 C420 1.503 . S
C419 O434 1.261 . S
C419 O435 1.243 . S
C420 C419 1.503 . S
C420 C421 1.394 . S
C420 C425 1.373 . S
C421 C420 1.394 . S
C421 C422 1.380 . S
C421 H444 0.930 . S
C422 C421 1.380 . S
C422 C423 1.376 . S
C422 H445 0.930 . S
C423 C422 1.376 . S
C423 C424 1.370 . S
C424 C423 1.370 . S
C424 C425 1.396 . S
C424 H446 0.929 . S
C425 C420 1.373 . S
C425 C424 1.396 . S
C425 H447 0.929 . S
C426 O436 1.263 . S
C426 O437 1.276 1_455 S
C427 O438 1.258 . S
C427 O439 1.256 . S
O428 La408 2.521 . S
O428 C410 1.261 . S
O429 La408 2.628 . S
O429 C410 1.243 . S
O430 La408 2.554 . S
O430 C417 1.256 . S
O431 La408 2.757 1_455 S
O431 La409 2.482 . S
O431 C417 1.280 1_455 S
O432 La408 2.470 . S
O432 C418 1.258 . S
O433 La409 2.503 1_655 S
O433 C418 1.256 . S
O434 La409 2.521 . S
O434 C419 1.261 . S
O435 La409 2.628 . S
O435 C419 1.243 . S
O436 La409 2.554 . S
O436 C426 1.263 . S
O437 La408 2.482 . S
O437 La409 2.757 1_655 S
O437 C426 1.276 1_655 S
O438 La409 2.470 . S
O438 C427 1.258 . S
O439 La408 2.503 1_455 S
O439 C427 1.256 . S
H440 C412 0.930 . S
H441 C413 0.930 . S
H442 C415 0.929 . S
H443 C416 0.929 . S
H444 C421 0.930 . S
H445 C422 0.930 . S
H446 C424 0.929 . S
H447 C425 0.929 . S
H448 C454 0.930 . S
H449 C458 0.930 . S
H450 C463 0.929 . S
H451 C461 0.929 . S
H452 C456 0.929 . S
H453 C462 0.929 . S
C454 H448 0.930 . S
C454 C455 1.403 . S
C454 C462 1.378 . S
C455 C454 1.403 . S
C455 C463 1.397 1_545 S
C456 H452 0.929 . S
C456 C458 1.378 . S
C456 C460 1.345 1_565 S
C457 C460 1.463 . S
C457 C462 1.350 . S
C457 N465 1.427 1_545 S
C458 H449 0.930 . S
C458 C456 1.378 . S
C458 C459 1.332 1_565 S
C459 C458 1.332 1_545 S
C459 C461 1.468 . S
C460 C456 1.345 1_545 S
C460 C457 1.463 . S
C460 N464 1.432 . S
C461 H451 0.929 . S
C461 C459 1.468 . S
C461 N464 1.384 . S
C462 H453 0.929 . S
C462 C454 1.378 . S
C462 C457 1.350 . S
C463 H450 0.929 . S
C463 C455 1.397 1_565 S
C463 N465 1.384 . S
N464 C460 1.432 . S
N464 C461 1.384 . S
N465 C457 1.427 1_565 S
N465 C463 1.384 . S
H466 C472 0.930 . S
H467 C476 0.930 . S
H468 C481 0.929 . S
H469 C479 0.929 . S
H470 C474 0.929 . S
H471 C480 0.929 . S
C472 H466 0.930 . S
C472 C473 1.367 . S
C472 C480 1.378 . S
C473 C472 1.367 . S
C473 C481 1.433 . S
C474 H470 0.929 . S
C474 C476 1.378 . S
C474 C478 1.350 . S
C475 C478 1.463 . S
C475 C480 1.350 . S
C475 N483 1.427 . S
C476 H467 0.930 . S
C476 C474 1.378 . S
C476 C477 1.367 . S
C477 C476 1.367 . S
C477 C479 1.433 . S
C478 C474 1.350 . S
C478 C475 1.463 . S
C478 N482 1.427 . S
C479 H469 0.929 . S
C479 C477 1.433 . S
C479 N482 1.384 . S
C480 H471 0.929 . S
C480 C472 1.378 . S
C480 C475 1.350 . S
C481 H468 0.929 . S
C481 C473 1.433 . S
C481 N483 1.384 . S
N482 C478 1.427 . S
N482 C479 1.384 . S
N483 C475 1.427 . S
N483 C481 1.384 . S
H484 C490 0.930 . S
H485 C494 0.930 . S
H486 C499 0.929 . S
H487 C497 0.929 . S
H488 C492 0.929 . S
H489 C498 0.929 . S
C490 H484 0.930 . S
C490 C491 1.367 . S
C490 C498 1.378 . S
C491 C490 1.367 . S
C491 C499 1.433 . S
C492 H488 0.929 . S
C492 C494 1.378 . S
C492 C496 1.350 . S
C493 C496 1.463 . S
C493 C498 1.350 . S
C493 N501 1.427 . S
C494 H485 0.930 . S
C494 C492 1.378 . S
C494 C495 1.367 . S
C495 C494 1.367 . S
C495 C497 1.433 . S
C496 C492 1.350 . S
C496 C493 1.463 . S
C496 N500 1.427 . S
C497 H487 0.929 . S
C497 C495 1.433 . S
C497 N500 1.384 . S
C498 H489 0.929 . S
C498 C490 1.378 . S
C498 C493 1.350 . S
C499 H486 0.929 . S
C499 C491 1.433 . S
C499 N501 1.384 . S
N500 C496 1.427 . S
N500 C497 1.384 . S
N501 C493 1.427 . S
N501 C499 1.384 . S
H502 C508 0.930 . S
H503 C512 0.930 . S
H504 C517 0.929 . S
H505 C515 0.929 . S
H506 C510 0.929 . S
H507 C516 0.929 . S
C508 H502 0.930 . S
C508 C509 1.398 . S
C508 C516 1.378 . S
C509 C508 1.398 . S
C509 C517 1.402 1_455 S
C510 H506 0.929 . S
C510 C512 1.378 . S
C510 C514 1.332 1_655 S
C511 C514 1.464 . S
C511 C516 1.350 . S
C511 N519 1.427 1_455 S
C512 H503 0.930 . S
C512 C510 1.378 . S
C512 C513 1.367 1_655 S
C513 C512 1.367 1_455 S
C513 C515 1.433 . S
C514 C510 1.332 1_455 S
C514 C511 1.464 . S
C514 N518 1.446 . S
C515 H505 0.929 . S
C515 C513 1.433 . S
C515 N518 1.384 . S
C516 H507 0.929 . S
C516 C508 1.378 . S
C516 C511 1.350 . S
C517 H504 0.929 . S
C517 C509 1.402 1_655 S
C517 N519 1.384 . S
N518 C514 1.446 . S
N518 C515 1.384 . S
N519 C511 1.427 1_655 S
N519 C517 1.384 . S
H520 C526 0.930 . S
H521 C530 0.930 . S
H522 C535 0.929 . S
H523 C533 0.929 . S
H524 C528 0.929 . S
H525 C534 0.929 . S
C526 H520 0.930 . S
C526 C527 1.374 . S
C526 C534 1.378 . S
C527 C526 1.374 . S
C527 C535 1.426 1_545 S
C528 H524 0.929 . S
C528 C530 1.378 . S
C528 C532 1.350 1_556 S
C529 C532 1.463 1_545 S
C529 C534 1.349 . S
C529 N537 1.428 1_545 S
C530 H521 0.930 . S
C530 C528 1.378 . S
C530 C531 1.367 . S
C531 C530 1.367 . S
C531 C533 1.433 1_565 S
C532 C528 1.350 1_554 S
C532 C529 1.463 1_565 S
C532 N536 1.427 1_564 S
C533 H523 0.929 . S
C533 C531 1.433 1_545 S
C533 N536 1.384 . S
C534 H525 0.929 . S
C534 C526 1.378 . S
C534 C529 1.349 . S
C535 H522 0.929 . S
C535 C527 1.426 1_565 S
C535 N537 1.384 . S
N536 C532 1.427 1_546 S
N536 C533 1.384 . S
N537 C529 1.428 1_565 S
N537 C535 1.384 . S
H538 C544 0.930 . S
H539 C548 0.930 . S
H540 C553 0.929 . S
H541 C551 0.929 . S
H542 C546 0.929 1_554 S
H543 C552 0.929 . S
C544 H538 0.930 . S
C544 C545 1.367 . S
C544 C552 1.378 . S
C545 C544 1.367 . S
C545 C553 1.433 . S
C546 H542 0.929 1_556 S
C546 C548 1.378 . S
C546 C550 1.350 1_556 S
C547 C550 1.463 . S
C547 C552 1.350 . S
C547 N555 1.427 . S
C548 H539 0.930 . S
C548 C546 1.378 . S
C548 C549 1.367 . S
C549 C548 1.367 . S
C549 C551 1.433 . S
C550 C546 1.350 1_554 S
C550 C547 1.463 . S
C550 N554 1.427 1_554 S
C551 H541 0.929 . S
C551 C549 1.433 . S
C551 N554 1.384 . S
C552 H543 0.929 . S
C552 C544 1.378 . S
C552 C547 1.350 . S
C553 H540 0.929 . S
C553 C545 1.433 . S
C553 N555 1.384 . S
N554 C550 1.427 1_556 S
N554 C551 1.384 . S
N555 C547 1.427 . S
N555 C553 1.384 . S
H556 C562 0.930 . S
H557 C566 0.930 . S
H558 C571 0.929 . S
H559 C569 0.929 . S
H560 C564 0.929 1_554 S
H561 C570 0.929 . S
C562 H556 0.930 . S
C562 C563 1.367 . S
C562 C570 1.378 . S
C563 C562 1.367 . S
C563 C571 1.433 . S
C564 H560 0.929 1_556 S
C564 C566 1.378 . S
C564 C568 1.350 1_556 S
C565 C568 1.463 . S
C565 C570 1.350 . S
C565 N573 1.427 . S
C566 H557 0.930 . S
C566 C564 1.378 . S
C566 C567 1.367 . S
C567 C566 1.367 . S
C567 C569 1.433 . S
C568 C564 1.350 1_554 S
C568 C565 1.463 . S
C568 N572 1.427 1_554 S
C569 H559 0.929 . S
C569 C567 1.433 . S
C569 N572 1.384 . S
C570 H561 0.929 . S
C570 C562 1.378 . S
C570 C565 1.350 . S
C571 H558 0.929 . S
C571 C563 1.433 . S
C571 N573 1.384 . S
N572 C568 1.427 1_556 S
N572 C569 1.384 . S
N573 C565 1.427 . S
N573 C571 1.384 . S
H574 C580 0.930 . S
H575 C584 0.930 . S
H576 C589 0.929 . S
H577 C587 0.929 . S
H578 C582 0.929 . S
H579 C588 0.929 . S
C580 H574 0.930 . S
C580 C581 1.369 . S
C580 C588 1.378 . S
C581 C580 1.369 . S
C581 C589 1.431 1_655 S
C582 H578 0.929 . S
C582 C584 1.378 . S
C582 C586 1.336 1_456 S
C583 C586 1.472 . S
C583 C588 1.357 . S
C583 N591 1.422 1_655 S
C584 H575 0.930 . S
C584 C582 1.378 . S
C584 C585 1.367 1_455 S
C585 C584 1.367 1_655 S
C585 C587 1.433 . S
C586 C582 1.336 1_654 S
C586 C583 1.472 . S
C586 N590 1.435 1_554 S
C587 H577 0.929 . S
C587 C585 1.433 . S
C587 N590 1.384 . S
C588 H579 0.929 . S
C588 C580 1.378 . S
C588 C583 1.357 . S
C589 H576 0.929 . S
C589 C581 1.431 1_455 S
C589 N591 1.384 . S
N590 C586 1.435 1_556 S
N590 C587 1.384 . S
N591 C583 1.422 1_455 S
N591 C589 1.384 . S
H592 C598 0.930 . S
H593 C602 0.930 . S
H594 C607 0.929 . S
H595 C605 0.929 . S
H596 C600 0.929 . S
H597 C606 0.929 . S
C598 H592 0.930 . S
C598 C599 1.367 . S
C598 C606 1.378 . S
C599 C598 1.367 . S
C599 C607 1.433 1_455 S
C600 H596 0.929 . S
C600 C602 1.378 . S
C600 C604 1.350 . S
C601 C604 1.463 . S
C601 C606 1.350 1_655 S
C601 N609 1.427 . S
C602 H593 0.930 . S
C602 C600 1.378 . S
C602 C603 1.367 . S
C603 C602 1.367 . S
C603 C605 1.433 . S
C604 C600 1.350 . S
C604 C601 1.463 . S
C604 N608 1.427 . S
C605 H595 0.929 . S
C605 C603 1.433 . S
C605 N608 1.384 . S
C606 H597 0.929 . S
C606 C598 1.378 . S
C606 C601 1.350 1_455 S
C607 H594 0.929 . S
C607 C599 1.433 1_655 S
C607 N609 1.384 . S
N608 C604 1.427 . S
N608 C605 1.384 . S
N609 C601 1.427 . S
N609 C607 1.384 . S
H610 C616 0.930 . S
H611 C620 0.930 . S
H612 C625 0.929 . S
H613 C623 0.929 . S
H614 C618 0.929 . S
H615 C624 0.929 . S
C616 H610 0.930 . S
C616 C617 1.367 1_565 S
C616 C624 1.378 . S
C617 C616 1.367 1_545 S
C617 C625 1.433 . S
C618 H614 0.929 . S
C618 C620 1.378 . S
C618 C622 1.350 . S
C619 C622 1.463 . S
C619 C624 1.350 . S
C619 N627 1.427 . S
C620 H611 0.930 . S
C620 C618 1.378 . S
C620 C621 1.367 . S
C621 C620 1.367 . S
C621 C623 1.433 . S
C622 C618 1.350 . S
C622 C619 1.463 . S
C622 N626 1.427 . S
C623 H613 0.929 . S
C623 C621 1.433 . S
C623 N626 1.384 . S
C624 H615 0.929 . S
C624 C616 1.378 . S
C624 C619 1.350 . S
C625 H612 0.929 . S
C625 C617 1.433 . S
C625 N627 1.384 1_545 S
N626 C622 1.427 . S
N626 C623 1.384 . S
N627 C619 1.427 . S
N627 C625 1.384 1_565 S
H628 C634 0.930 . S
H629 C638 0.930 . S
H630 C643 0.929 . S
H631 C641 0.929 . S
H632 C636 0.929 . S
H633 C642 0.929 . S
C634 H628 0.930 . S
C634 C635 1.367 . S
C634 C642 1.378 . S
C635 C634 1.367 . S
C635 C643 1.433 . S
C636 H632 0.929 . S
C636 C638 1.378 . S
C636 C640 1.350 . S
C637 C640 1.463 . S
C637 C642 1.350 . S
C637 N645 1.427 . S
C638 H629 0.930 . S
C638 C636 1.378 . S
C638 C639 1.367 . S
C639 C638 1.367 . S
C639 C641 1.433 . S
C640 C636 1.350 . S
C640 C637 1.463 . S
C640 N644 1.427 . S
C641 H631 0.929 . S
C641 C639 1.433 . S
C641 N644 1.384 . S
C642 H633 0.929 . S
C642 C634 1.378 . S
C642 C637 1.350 . S
C643 H630 0.929 . S
C643 C635 1.433 . S
C643 N645 1.384 . S
N644 C640 1.427 . S
N644 C641 1.384 . S
N645 C637 1.427 . S
N645 C643 1.384 . S
H646 C652 0.930 . S
H647 C656 0.930 . S
H648 C661 0.929 . S
H649 C659 0.929 . S
H650 C654 0.929 . S
H651 C660 0.929 . S
C652 H646 0.930 . S
C652 C653 1.367 . S
C652 C660 1.378 . S
C653 C652 1.367 . S
C653 C661 1.433 . S
C654 H650 0.929 . S
C654 C656 1.378 . S
C654 C658 1.350 . S
C655 C658 1.463 . S
C655 C660 1.350 . S
C655 N663 1.427 . S
C656 H647 0.930 . S
C656 C654 1.378 . S
C656 C657 1.367 . S
C657 C656 1.367 . S
C657 C659 1.433 . S
C658 C654 1.350 . S
C658 C655 1.463 . S
C658 N662 1.427 . S
C659 H649 0.929 . S
C659 C657 1.433 . S
C659 N662 1.384 . S
C660 H651 0.929 . S
C660 C652 1.378 . S
C660 C655 1.350 . S
C661 H648 0.929 . S
C661 C653 1.433 . S
C661 N663 1.384 . S
N662 C658 1.427 . S
N662 C659 1.384 . S
N663 C655 1.427 . S
N663 C661 1.384 . S
H664 C670 0.930 . S
H665 C674 0.930 . S
H666 C679 0.929 . S
H667 C677 0.929 . S
H668 C672 0.929 . S
H669 C678 0.929 1_556 S
C670 H664 0.930 . S
C670 C671 1.367 . S
C670 C678 1.378 . S
C671 C670 1.367 . S
C671 C679 1.433 1_655 S
C672 H668 0.929 . S
C672 C674 1.378 . S
C672 C676 1.350 . S
C673 C676 1.463 . S
C673 C678 1.350 1_455 S
C673 N681 1.427 . S
C674 H665 0.930 . S
C674 C672 1.378 . S
C674 C675 1.367 1_554 S
C675 C674 1.367 1_556 S
C675 C677 1.433 . S
C676 C672 1.350 . S
C676 C673 1.463 . S
C676 N680 1.427 1_554 S
C677 H667 0.929 . S
C677 C675 1.433 . S
C677 N680 1.384 . S
C678 H669 0.929 1_554 S
C678 C670 1.378 . S
C678 C673 1.350 1_655 S
C679 H666 0.929 . S
C679 C671 1.433 1_455 S
C679 N681 1.384 . S
N680 C676 1.427 1_556 S
N680 C677 1.384 . S
N681 C673 1.427 . S
N681 C679 1.384 . S
H682 C688 0.930 . S
H683 C692 0.930 . S
H684 C697 0.929 . S
H685 C695 0.929 . S
H686 C690 0.929 . S
H687 C696 0.929 . S
C688 H682 0.930 . S
C688 C689 1.367 . S
C688 C696 1.378 . S
C689 C688 1.367 . S
C689 C697 1.433 1_565 S
C690 H686 0.929 . S
C690 C692 1.378 1_554 S
C690 C694 1.350 . S
C691 C694 1.463 . S
C691 C696 1.350 1_545 S
C691 N699 1.427 . S
C692 H683 0.930 . S
C692 C690 1.378 1_556 S
C692 C693 1.367 . S
C693 C692 1.367 . S
C693 C695 1.433 . S
C694 C690 1.350 . S
C694 C691 1.463 . S
C694 N698 1.425 1_554 S
C695 H685 0.929 . S
C695 C693 1.433 . S
C695 N698 1.387 . S
C696 H687 0.929 . S
C696 C688 1.378 . S
C696 C691 1.350 1_565 S
C697 H684 0.929 . S
C697 C689 1.433 1_545 S
C697 N699 1.384 . S
N698 C694 1.425 1_556 S
N698 C695 1.387 . S
N699 C691 1.427 . S
N699 C697 1.384 . S
H700 C706 0.930 . S
H701 C710 0.930 . S
H702 C715 0.929 . S
H703 C713 0.929 . S
H704 C708 0.929 . S
H705 C714 0.929 . S
C706 H700 0.930 . S
C706 C707 1.367 . S
C706 C714 1.378 . S
C707 C706 1.367 . S
C707 C715 1.433 . S
C708 H704 0.929 . S
C708 C710 1.378 1_554 S
C708 C712 1.350 . S
C709 C712 1.463 . S
C709 C714 1.350 . S
C709 N717 1.427 . S
C710 H701 0.930 . S
C710 C708 1.378 1_556 S
C710 C711 1.367 . S
C711 C710 1.367 . S
C711 C713 1.433 . S
C712 C708 1.350 . S
C712 C709 1.463 . S
C712 N716 1.427 1_554 S
C713 H703 0.929 . S
C713 C711 1.433 . S
C713 N716 1.384 . S
C714 H705 0.929 . S
C714 C706 1.378 . S
C714 C709 1.350 . S
C715 H702 0.929 . S
C715 C707 1.433 . S
C715 N717 1.384 . S
N716 C712 1.427 1_556 S
N716 C713 1.384 . S
N717 C709 1.427 . S
N717 C715 1.384 . S
H718 C724 0.930 . S
H719 C728 0.930 . S
H720 C733 0.929 . S
H721 C731 0.929 . S
H722 C726 0.928 1_554 S
H723 C732 0.929 . S
C724 H718 0.930 . S
C724 C725 1.367 . S
C724 C732 1.378 . S
C725 C724 1.367 . S
C725 C733 1.433 . S
C726 H722 0.928 1_556 S
C726 C728 1.379 . S
C726 C730 1.349 1_556 S
C727 C730 1.463 . S
C727 C732 1.350 . S
C727 N735 1.427 . S
C728 H719 0.930 . S
C728 C726 1.379 . S
C728 C729 1.367 . S
C729 C728 1.367 . S
C729 C731 1.433 . S
C730 C726 1.349 1_554 S
C730 C727 1.463 . S
C730 N734 1.427 . S
C731 H721 0.929 . S
C731 C729 1.433 . S
C731 N734 1.384 1_556 S
C732 H723 0.929 . S
C732 C724 1.378 . S
C732 C727 1.350 . S
C733 H720 0.929 . S
C733 C725 1.433 . S
C733 N735 1.384 . S
N734 C730 1.427 . S
N734 C731 1.384 1_554 S
N735 C727 1.427 . S
N735 C733 1.384 . S
H736 C742 0.930 . S
H737 C746 0.940 . S
H738 C751 0.929 . S
H739 C749 0.929 . S
H740 C744 0.929 . S
H741 C750 0.929 . S
C742 H736 0.930 . S
C742 C743 1.367 . S
C742 C750 1.378 . S
C743 C742 1.367 . S
C743 C751 1.433 1_455 S
C744 H740 0.929 . S
C744 C746 1.380 . S
C744 C748 1.350 1_655 S
C745 C748 1.463 . S
C745 C750 1.350 . S
C745 N753 1.427 1_455 S
C746 H737 0.940 . S
C746 C744 1.380 . S
C746 C747 1.356 1_655 S
C747 C746 1.356 1_455 S
C747 C749 1.433 . S
C748 C744 1.350 1_455 S
C748 C745 1.463 . S
C748 N752 1.427 . S
C749 H739 0.929 . S
C749 C747 1.433 . S
C749 N752 1.384 . S
C750 H741 0.929 . S
C750 C742 1.378 . S
C750 C745 1.350 . S
C751 H738 0.929 . S
C751 C743 1.433 1_655 S
C751 N753 1.384 . S
N752 C748 1.427 . S
N752 C749 1.384 . S
N753 C745 1.427 1_655 S
N753 C751 1.384 . S
H754 C760 0.930 . S
H755 C764 0.930 . S
H756 C769 0.929 . S
H757 C767 0.929 1_565 S
H758 C762 0.929 . S
H759 C768 0.929 . S
C760 H754 0.930 . S
C760 C761 1.367 1_565 S
C760 C768 1.378 . S
C761 C760 1.367 1_545 S
C761 C769 1.433 . S
C762 H758 0.929 . S
C762 C764 1.378 . S
C762 C766 1.350 . S
C763 C766 1.463 . S
C763 C768 1.350 1_545 S
C763 N771 1.427 . S
C764 H755 0.930 . S
C764 C762 1.378 . S
C764 C765 1.367 . S
C765 C764 1.367 . S
C765 C767 1.433 . S
C766 C762 1.350 . S
C766 C763 1.463 . S
C766 N770 1.433 . S
C767 H757 0.929 1_545 S
C767 C765 1.433 . S
C767 N770 1.385 . S
C768 H759 0.929 . S
C768 C760 1.378 . S
C768 C763 1.350 1_565 S
C769 H756 0.929 . S
C769 C761 1.433 . S
C769 N771 1.384 . S
N770 C766 1.433 . S
N770 C767 1.385 . S
N771 C763 1.427 . S
N771 C769 1.384 . S
H772 C778 0.930 . S
H773 C782 0.930 . S
H774 C787 0.929 . S
H775 C785 0.929 . S
H776 C780 0.929 . S
H777 C786 0.929 . S
C778 H772 0.930 . S
C778 C779 1.367 . S
C778 C786 1.378 . S
C779 C778 1.367 . S
C779 C787 1.433 . S
C780 H776 0.929 . S
C780 C782 1.378 . S
C780 C784 1.350 . S
C781 C784 1.463 . S
C781 C786 1.350 . S
C781 N789 1.427 . S
C782 H773 0.930 . S
C782 C780 1.378 . S
C782 C783 1.367 . S
C783 C782 1.367 . S
C783 C785 1.433 . S
C784 C780 1.350 . S
C784 C781 1.463 . S
C784 N788 1.427 . S
C785 H775 0.929 . S
C785 C783 1.433 . S
C785 N788 1.384 . S
C786 H777 0.929 . S
C786 C778 1.378 . S
C786 C781 1.350 . S
C787 H774 0.929 . S
C787 C779 1.433 . S
C787 N789 1.384 . S
N788 C784 1.427 . S
N788 C785 1.384 . S
N789 C781 1.427 . S
N789 C787 1.384 . S
H790 C796 0.930 . S
H791 C800 0.930 . S
H792 C805 0.929 . S
H793 C803 0.929 . S
H794 C798 0.929 . S
H795 C804 0.929 . S
C796 H790 0.930 . S
C796 C797 1.367 . S
C796 C804 1.378 . S
C797 C796 1.367 . S
C797 C805 1.433 . S
C798 H794 0.929 . S
C798 C800 1.378 . S
C798 C802 1.350 . S
C799 C802 1.463 . S
C799 C804 1.350 . S
C799 N807 1.427 . S
C800 H791 0.930 . S
C800 C798 1.378 . S
C800 C801 1.367 . S
C801 C800 1.367 . S
C801 C803 1.433 . S
C802 C798 1.350 . S
C802 C799 1.463 . S
C802 N806 1.427 . S
C803 H793 0.929 . S
C803 C801 1.433 . S
C803 N806 1.384 . S
C804 H795 0.929 . S
C804 C796 1.378 . S
C804 C799 1.350 . S
C805 H792 0.929 . S
C805 C797 1.433 . S
C805 N807 1.384 . S
N806 C802 1.427 . S
N806 C803 1.384 . S
N807 C799 1.427 . S
N807 C805 1.384 . S
H808 C814 0.930 . S
H809 C818 0.930 . S
H810 C823 0.929 . S
H811 C821 0.929 . S
H812 C816 0.929 . S
H813 C822 0.929 . S
C814 H808 0.930 . S
C814 C815 1.367 1_455 S
C814 C822 1.378 . S
C815 C814 1.367 1_655 S
C815 C823 1.433 . S
C816 H812 0.929 . S
C816 C818 1.378 . S
C816 C820 1.350 . S
C817 C820 1.463 . S
C817 C822 1.350 1_655 S
C817 N825 1.427 . S
C818 H809 0.930 . S
C818 C816 1.378 . S
C818 C819 1.367 . S
C819 C818 1.367 . S
C819 C821 1.433 1_655 S
C820 C816 1.350 . S
C820 C817 1.463 . S
C820 N824 1.427 1_655 S
C821 H811 0.929 . S
C821 C819 1.433 1_455 S
C821 N824 1.384 . S
C822 H813 0.929 . S
C822 C814 1.378 . S
C822 C817 1.350 1_455 S
C823 H810 0.929 . S
C823 C815 1.433 . S
C823 N825 1.384 . S
N824 C820 1.427 1_455 S
N824 C821 1.384 . S
N825 C817 1.427 . S
N825 C823 1.384 . S
H826 C832 0.930 . S
H827 C836 0.930 . S
H828 C841 0.929 . S
H829 C839 0.929 . S
H830 C834 0.929 . S
H831 C840 0.929 . S
C832 H826 0.930 . S
C832 C833 1.367 1_545 S
C832 C840 1.378 . S
C833 C832 1.367 1_565 S
C833 C841 1.433 . S
C834 H830 0.929 . S
C834 C836 1.378 . S
C834 C838 1.350 . S
C835 C838 1.463 . S
C835 C840 1.350 1_565 S
C835 N843 1.427 . S
C836 H827 0.930 . S
C836 C834 1.378 . S
C836 C837 1.367 . S
C837 C836 1.367 . S
C837 C839 1.433 1_565 S
C838 C834 1.350 . S
C838 C835 1.463 . S
C838 N842 1.427 1_565 S
C839 H829 0.929 . S
C839 C837 1.433 1_545 S
C839 N842 1.384 . S
C840 H831 0.929 . S
C840 C832 1.378 . S
C840 C835 1.350 1_545 S
C841 H828 0.929 . S
C841 C833 1.433 . S
C841 N843 1.384 . S
N842 C838 1.427 1_545 S
N842 C839 1.384 . S
N843 C835 1.427 . S
N843 C841 1.384 . S
H844 C850 0.930 . S
H845 C854 0.930 . S
H846 C859 0.929 . S
H847 C857 0.929 . S
H848 C852 0.929 . S
H849 C858 0.929 . S
C850 H844 0.930 . S
C850 C851 1.367 . S
C850 C858 1.378 . S
C851 C850 1.367 . S
C851 C859 1.433 . S
C852 H848 0.929 . S
C852 C854 1.378 . S
C852 C856 1.350 . S
C853 C856 1.463 . S
C853 C858 1.350 . S
C853 N861 1.427 . S
C854 H845 0.930 . S
C854 C852 1.378 . S
C854 C855 1.367 . S
C855 C854 1.367 . S
C855 C857 1.433 . S
C856 C852 1.350 . S
C856 C853 1.463 . S
C856 N860 1.427 . S
C857 H847 0.929 . S
C857 C855 1.433 . S
C857 N860 1.384 . S
C858 H849 0.929 . S
C858 C850 1.378 . S
C858 C853 1.350 . S
C859 H846 0.929 . S
C859 C851 1.433 . S
C859 N861 1.384 . S
N860 C856 1.427 . S
N860 C857 1.384 . S
N861 C853 1.427 . S
N861 C859 1.384 . S
H862 C868 0.930 . S
H863 C872 0.930 . S
H864 C877 0.929 . S
H865 C875 0.929 . S
H866 C870 0.929 . S
H867 C876 0.929 . S
C868 H862 0.930 . S
C868 C869 1.367 . S
C868 C876 1.378 . S
C869 C868 1.367 . S
C869 C877 1.433 . S
C870 H866 0.929 . S
C870 C872 1.378 . S
C870 C874 1.350 . S
C871 C874 1.463 . S
C871 C876 1.350 . S
C871 N879 1.427 . S
C872 H863 0.930 . S
C872 C870 1.378 . S
C872 C873 1.367 . S
C873 C872 1.367 . S
C873 C875 1.433 . S
C874 C870 1.350 . S
C874 C871 1.463 . S
C874 N878 1.427 . S
C875 H865 0.929 . S
C875 C873 1.433 . S
C875 N878 1.384 . S
C876 H867 0.929 . S
C876 C868 1.378 . S
C876 C871 1.350 . S
C877 H864 0.929 . S
C877 C869 1.433 . S
C877 N879 1.384 . S
N878 C874 1.427 . S
N878 C875 1.384 . S
N879 C871 1.427 . S
N879 C877 1.384 . S
C455 C241 2.117 . S
C459 C297 2.348 1_545 S
C477 C337 2.376 . S
C473 C277 2.197 . S
C495 C377 2.366 . S
C491 C169 2.125 . S
C513 C417 2.364 1_455 S
C509 C205 2.126 . S
C531 C306 2.357 1_565 S
C527 C97 2.126 . S
C545 C133 2.193 . S
C549 C346 2.381 . S
C563 C25 2.126 . S
C567 C386 2.361 . S
C581 C61 2.138 1_655 S
C585 C426 2.365 1_655 S
C603 C303 0.470 . S
C599 C211 0.437 . S
C621 C343 0.444 . S
C617 C247 0.401 . S
C639 C383 0.461 . S
C635 C253 0.447 . S
C653 C175 0.430 . S
C657 C423 0.468 . S
C671 C67 0.509 1_655 S
C675 C294 0.471 . S
C693 C334 0.479 . S
C689 C103 0.497 1_565 S
C711 C374 0.420 . S
C707 C109 0.378 . S
C725 C31 0.458 . S
C729 C414 0.428 . S
C743 C181 2.864 . S
C747 C307 3.209 . S
C761 C217 2.839 . S
C765 C347 3.191 . S
C783 C387 3.192 . S
C779 C283 2.778 . S
C801 C427 3.202 . S
C797 C145 2.840 . S
C815 C37 2.871 1_655 S
C819 C298 3.224 . S
C837 C338 3.193 . S
C833 C73 2.840 1_565 S
C855 C378 3.194 . S
C851 C139 2.750 . S
C869 C1 2.859 . S
C873 C418 3.204 . S
