# Generated by pormake.
# Topology hwx, (6,3)-cn, num edge types: 1
# Building blocks:
#     Node 0, Type 0, BuildingBlock: OJICUG_clean_sbu_0, # of connection points: 6
#     Node 1, Type 0, BuildingBlock: OJICUG_clean_sbu_0, # of connection points: 6
#     Node 2, Type 0, BuildingBlock: OJICUG_clean_sbu_0, # of connection points: 6
#     Node 3, Type 0, BuildingBlock: OJICUG_clean_sbu_0, # of connection points: 6
#     Node 4, Type 1, BuildingBlock: CUQRIR_clean_linker_1, # of connection points: 3
#     Node 5, Type 1, BuildingBlock: CUQRIR_clean_linker_1, # of connection points: 3
#     Node 6, Type 1, BuildingBlock: CUQRIR_clean_linker_1, # of connection points: 3
#     Node 7, Type 1, BuildingBlock: CUQRIR_clean_linker_1, # of connection points: 3
#     Node 8, Type 1, BuildingBlock: CUQRIR_clean_linker_1, # of connection points: 3
#     Node 9, Type 1, BuildingBlock: CUQRIR_clean_linker_1, # of connection points: 3
#     Node 10, Type 1, BuildingBlock: CUQRIR_clean_linker_1, # of connection points: 3
#     Node 11, Type 1, BuildingBlock: CUQRIR_clean_linker_1, # of connection points: 3
#     Edge 12, Type (0, 1), BuildingBlock: UVAHIK_clean_linker_0, # of connection points: 2
#     Edge 13, Type (0, 1), BuildingBlock: UVAHIK_clean_linker_0, # of connection points: 2
#     Edge 14, Type (0, 1), BuildingBlock: UVAHIK_clean_linker_0, # of connection points: 2
#     Edge 15, Type (0, 1), BuildingBlock: UVAHIK_clean_linker_0, # of connection points: 2
#     Edge 16, Type (0, 1), BuildingBlock: UVAHIK_clean_linker_0, # of connection points: 2
#     Edge 17, Type (0, 1), BuildingBlock: UVAHIK_clean_linker_0, # of connection points: 2
#     Edge 18, Type (0, 1), BuildingBlock: UVAHIK_clean_linker_0, # of connection points: 2
#     Edge 19, Type (0, 1), BuildingBlock: UVAHIK_clean_linker_0, # of connection points: 2
#     Edge 20, Type (0, 1), BuildingBlock: UVAHIK_clean_linker_0, # of connection points: 2
#     Edge 21, Type (0, 1), BuildingBlock: UVAHIK_clean_linker_0, # of connection points: 2
#     Edge 22, Type (0, 1), BuildingBlock: UVAHIK_clean_linker_0, # of connection points: 2
#     Edge 23, Type (0, 1), BuildingBlock: UVAHIK_clean_linker_0, # of connection points: 2
#     Edge 24, Type (0, 1), BuildingBlock: UVAHIK_clean_linker_0, # of connection points: 2
#     Edge 25, Type (0, 1), BuildingBlock: UVAHIK_clean_linker_0, # of connection points: 2
#     Edge 26, Type (0, 1), BuildingBlock: UVAHIK_clean_linker_0, # of connection points: 2
#     Edge 27, Type (0, 1), BuildingBlock: UVAHIK_clean_linker_0, # of connection points: 2
#     Edge 28, Type (0, 1), BuildingBlock: UVAHIK_clean_linker_0, # of connection points: 2
#     Edge 29, Type (0, 1), BuildingBlock: UVAHIK_clean_linker_0, # of connection points: 2
#     Edge 30, Type (0, 1), BuildingBlock: UVAHIK_clean_linker_0, # of connection points: 2
#     Edge 31, Type (0, 1), BuildingBlock: UVAHIK_clean_linker_0, # of connection points: 2
#     Edge 32, Type (0, 1), BuildingBlock: UVAHIK_clean_linker_0, # of connection points: 2
#     Edge 33, Type (0, 1), BuildingBlock: UVAHIK_clean_linker_0, # of connection points: 2
#     Edge 34, Type (0, 1), BuildingBlock: UVAHIK_clean_linker_0, # of connection points: 2
#     Edge 35, Type (0, 1), BuildingBlock: UVAHIK_clean_linker_0, # of connection points: 2
# Relax obj value: 0.003
# Max RMSD: 0.057
# Mean RMSD: 0.045
data_MOF--net-hwx--node1-OJICUG_clean_sbu_0--node2-CUQRIR_clean_linker_1--edge1-UVAHIK_clean_linker_0
_symmetry_space_group_name_H-M    P1
_symmetry_Int_Tables_number       1
_symmetry_cell_setting            triclinic
loop_
_symmetry_equiv_pos_as_xyz
'x, y, z'
_cell_length_a     64.702107
_cell_length_b     64.598037
_cell_length_c     24.427089
_cell_angle_alpha  90.047419
_cell_angle_beta   90.072886
_cell_angle_gamma 90.014458
loop_
_atom_site_label
_atom_site_type_symbol
_atom_site_fract_x
_atom_site_fract_y
_atom_site_fract_z
_atom_type_partial_charge
Sc0 Sc 0.21302 0.21389 0.0777 0.0
Sc1 Sc 0.18094 0.17905 0.00588 0.0
Sc2 Sc 0.21347 0.21345 0.93427 0.0
O3 O 0.20244 0.20209 0.00591 0.0
C4 C 0.20987 0.2546 0.00381 0.0
C5 C 0.16528 0.20884 0.10261 0.0
C6 C 0.1655 0.20715 0.90695 0.0
C7 C 0.20915 0.16562 0.10603 0.0
C8 C 0.25421 0.21128 0.00851 0.0
C9 C 0.21085 0.16537 0.90763 0.0
O10 O 0.21272 0.24545 0.0492 0.0
O11 O 0.16292 0.19361 0.07002 0.0
O12 O 0.1834 0.21436 0.89736 0.0
O13 O 0.21473 0.18408 0.1162 0.0
O14 O 0.24499 0.21385 0.96301 0.0
O15 O 0.19648 0.16183 0.94196 0.0
O16 O 0.24473 0.20988 0.05389 0.0
O17 O 0.19782 0.16091 0.06528 0.0
O18 O 0.21916 0.18307 0.90204 0.0
O19 O 0.18221 0.21867 0.10755 0.0
O20 O 0.20861 0.24503 0.95854 0.0
O21 O 0.16181 0.19473 0.94619 0.0
Sc22 Sc 0.27839 0.71308 0.42783 0.0
Sc23 Sc 0.31335 0.68075 0.49871 0.0
Sc24 Sc 0.27931 0.71338 0.57139 0.0
O25 O 0.2904 0.70237 0.49928 0.0
C26 C 0.28129 0.7543 0.50007 0.0
C27 C 0.32631 0.71027 0.39904 0.0
C28 C 0.32764 0.70947 0.59757 0.0
C29 C 0.28423 0.66491 0.40192 0.0
C30 C 0.23795 0.70978 0.50024 0.0
C31 C 0.28453 0.66555 0.59785 0.0
O32 O 0.27868 0.74489 0.45483 0.0
O33 O 0.33027 0.69633 0.4344 0.0
O34 O 0.30942 0.71566 0.60766 0.0
O35 O 0.2766 0.68269 0.39279 0.0
O36 O 0.24752 0.71244 0.54514 0.0
O37 O 0.29897 0.66273 0.56317 0.0
O38 O 0.24706 0.7088 0.45435 0.0
O39 O 0.29745 0.66153 0.43951 0.0
O40 O 0.27532 0.68279 0.60368 0.0
O41 O 0.30845 0.71817 0.39323 0.0
O42 O 0.28268 0.745 0.54573 0.0
O43 O 0.3319 0.69752 0.55772 0.0
Sc44 Sc 0.77797 0.7791 0.93464 0.0
Sc45 Sc 0.81012 0.81392 0.00644 0.0
Sc46 Sc 0.77835 0.77889 0.07811 0.0
O47 O 0.78885 0.79068 0.00636 0.0
C48 C 0.73717 0.78083 0.00843 0.0
C49 C 0.78004 0.82719 0.90797 0.0
C50 C 0.78173 0.82723 0.10626 0.0
C51 C 0.82587 0.78598 0.90758 0.0
C52 C 0.78209 0.73812 0.00444 0.0
C53 C 0.82605 0.78444 0.10352 0.0
O54 O 0.74644 0.77824 0.96306 0.0
O55 O 0.7944 0.83089 0.94234 0.0
O56 O 0.77628 0.80874 0.11644 0.0
O57 O 0.80805 0.77859 0.89784 0.0
O58 O 0.77902 0.74729 0.04973 0.0
O59 O 0.82828 0.79962 0.07078 0.0
O60 O 0.78331 0.74764 0.95914 0.0
O61 O 0.82944 0.79841 0.94695 0.0
O62 O 0.8092 0.77448 0.10841 0.0
O63 O 0.77188 0.80941 0.90238 0.0
O64 O 0.74661 0.78253 0.05386 0.0
O65 O 0.79307 0.83197 0.06565 0.0
Sc66 Sc 0.71357 0.27985 0.56885 0.0
Sc67 Sc 0.68113 0.31439 0.49727 0.0
Sc68 Sc 0.71299 0.27946 0.42543 0.0
O69 O 0.70253 0.29128 0.49723 0.0
C70 C 0.75425 0.28202 0.49461 0.0
C71 C 0.71113 0.32793 0.59568 0.0
C72 C 0.70926 0.32775 0.39713 0.0
C73 C 0.66564 0.28629 0.59607 0.0
C74 C 0.70986 0.23873 0.49923 0.0
C75 C 0.66527 0.28464 0.40052 0.0
O76 O 0.74507 0.2794 0.54011 0.0
O77 O 0.69675 0.33154 0.56131 0.0
O78 O 0.71471 0.30926 0.38688 0.0
O79 O 0.68352 0.27902 0.60569 0.0
O80 O 0.71272 0.24788 0.45388 0.0
O81 O 0.66302 0.29992 0.433 0.0
O82 O 0.70859 0.24829 0.5445 0.0
O83 O 0.66197 0.29874 0.55685 0.0
O84 O 0.68214 0.27472 0.39569 0.0
O85 O 0.71938 0.3102 0.6012 0.0
O86 O 0.74472 0.28346 0.44924 0.0
O87 O 0.69805 0.33251 0.43799 0.0
C88 C 0.21681 0.48731 0.95552 0.0
N89 N 0.22149 0.50682 0.97158 0.0
N90 N 0.21093 0.47575 0.99909 0.0
C91 C 0.21975 0.47908 0.89839 0.0
C92 C 0.21226 0.48897 0.042 0.0
N93 N 0.21849 0.50787 0.02523 0.0
C94 C 0.20835 0.48324 0.10072 0.0
H95 H 0.20752 0.46781 0.88761 0.0
H96 H 0.23485 0.47097 0.89622 0.0
H97 H 0.21961 0.49175 0.86777 0.0
H98 H 0.22323 0.47891 0.12024 0.0
H99 H 0.19757 0.46993 0.10358 0.0
H100 H 0.20191 0.49665 0.12344 0.0
C101 C 0.00549 0.72226 0.5505 0.0
N102 N 0.98637 0.72773 0.53343 0.0
N103 N 0.01774 0.71769 0.50719 0.0
C104 C 0.01174 0.71999 0.60956 0.0
C105 C 0.00526 0.7204 0.46314 0.0
N106 N 0.98616 0.7263 0.47924 0.0
C107 C 0.01218 0.71913 0.40444 0.0
H108 H 0.01746 0.73509 0.62504 0.0
H109 H 0.02424 0.70836 0.61408 0.0
H110 H -0.00167 0.71529 0.63492 0.0
H111 H 0.01101 0.70283 0.39047 0.0
H112 H 0.0285 0.72417 0.40034 0.0
H113 H 0.00234 0.72881 0.37746 0.0
C114 C 0.78569 0.50349 0.04253 0.0
N115 N 0.77937 0.48467 0.02488 0.0
N116 N 0.78681 0.51698 1.00019 0.0
C117 C 0.78906 0.50913 0.10167 0.0
C118 C 0.78084 0.5057 0.95616 0.0
N119 N 0.77614 0.4861 0.97131 0.0
C120 C 0.77824 0.5142 0.89919 0.0
H121 H 0.77394 0.50919 0.12311 0.0
H122 H 0.79644 0.52454 0.10606 0.0
H123 H 0.79902 0.49746 0.12188 0.0
H124 H 0.78988 0.52628 0.89028 0.0
H125 H 0.7627 0.52133 0.89565 0.0
H126 H 0.77964 0.50177 0.86804 0.0
C127 C 0.98715 0.27487 0.46124 0.0
N128 N 0.00622 0.26907 0.4779 0.0
N129 N 0.97455 0.27765 0.50494 0.0
C130 C 0.98035 0.27591 0.40236 0.0
C131 C 0.9867 0.2732 0.54861 0.0
N132 N 0.00588 0.26776 0.53209 0.0
C133 C 0.98024 0.27548 0.60747 0.0
H134 H 0.9812 0.29221 0.38834 0.0
H135 H 0.96415 0.27053 0.39793 0.0
H136 H 0.99045 0.26641 0.37562 0.0
H137 H 0.97457 0.26036 0.62283 0.0
H138 H 0.96766 0.28704 0.61159 0.0
H139 H 0.99356 0.28028 0.6332 0.0
C140 C 0.7126 0.00589 0.5487 0.0
N141 N 0.71694 0.98623 0.53329 0.0
N142 N 0.70698 0.01737 0.50474 0.0
C143 C 0.71515 0.01421 0.6059 0.0
C144 C 0.70796 0.00394 0.46218 0.0
N145 N 0.71385 0.98497 0.47963 0.0
C146 C 0.70484 0.00975 0.40309 0.0
H147 H 0.70383 0.02661 0.61467 0.0
H148 H 0.73087 0.02089 0.6101 0.0
H149 H 0.71325 0.00176 0.63675 0.0
H150 H 0.72001 0.0096 0.38192 0.0
H151 H 0.69773 0.02528 0.39884 0.0
H152 H 0.69474 -0.00171 0.38248 0.0
C153 C 0.48661 0.22051 0.95325 0.0
N154 N 0.5058 0.22597 0.96979 0.0
N155 N 0.47449 0.21605 0.99691 0.0
C156 C 0.48011 0.21821 0.89438 0.0
C157 C 0.48713 0.21884 0.04062 0.0
N158 N 0.50618 0.22466 0.02398 0.0
C159 C 0.48038 0.21781 0.09949 0.0
H160 H 0.47441 0.23332 0.87899 0.0
H161 H 0.46753 0.20663 0.89026 0.0
H162 H 0.49341 0.21341 0.86868 0.0
H163 H 0.4813 0.20152 0.11359 0.0
H164 H 0.46416 0.22313 0.10389 0.0
H165 H 0.49046 0.22737 0.12621 0.0
C166 C 0.28356 0.98918 0.46103 0.0
N167 N 0.27752 0.00807 0.47883 0.0
N168 N 0.28453 0.97564 0.50327 0.0
C169 C 0.28679 0.98356 0.40185 0.0
C170 C 0.27876 0.98695 0.54739 0.0
N171 N 0.27432 0.00662 0.53239 0.0
C172 C 0.27612 0.97843 0.6043 0.0
H173 H 0.27167 0.9838 0.38036 0.0
H174 H 0.29389 0.96803 0.39732 0.0
H175 H 0.29695 0.99508 0.38179 0.0
H176 H 0.28758 0.96616 0.61309 0.0
H177 H 0.26047 0.97152 0.60784 0.0
H178 H 0.27774 0.9908 0.63553 0.0
C179 C 0.50442 0.7797 0.04274 0.0
N180 N 0.48498 0.77498 0.0264 0.0
N181 N 0.51618 0.78513 0.99923 0.0
C182 C 0.51231 0.77765 0.1005 0.0
C183 C 0.50315 0.78367 0.95594 0.0
N184 N 0.48413 0.77766 0.97253 0.0
C185 C 0.50941 0.78638 0.89705 0.0
H186 H 0.52419 0.78948 0.10969 0.0
H187 H 0.51952 0.76218 0.10545 0.0
H188 H 0.49958 0.77923 0.13059 0.0
H189 H 0.50861 0.77118 0.87591 0.0
H190 H 0.52524 0.79278 0.89323 0.0
H191 H 0.49856 0.79701 0.87605 0.0
C192 C 0.13278 0.20062 0.15381 0.0
C193 C 0.14782 0.21511 0.13784 0.0
C194 C 0.11714 0.20627 0.19035 0.0
C195 C 0.08746 0.24991 0.24107 0.0
H196 H 0.08137 0.21829 0.37495 0.0
C197 C 0.03386 0.27796 0.41349 0.0
C198 C 0.02306 0.26301 0.44337 0.0
C199 C 0.04941 0.27203 0.37716 0.0
C200 C 0.08257 0.22711 0.33743 0.0
H201 H 0.15789 0.247 0.14603 0.0
H202 H 0.13017 0.25697 0.20862 0.0
H203 H 0.10688 0.20771 0.30701 0.0
H204 H 0.01956 0.23041 0.45973 0.0
H205 H 0.04619 0.21966 0.39456 0.0
H206 H 0.06282 0.26895 0.26998 0.0
C207 C 0.13069 0.24122 0.19339 0.0
C208 C 0.09725 0.22107 0.29869 0.0
C209 C 0.14656 0.23548 0.1578 0.0
C210 C 0.028 0.24207 0.43708 0.0
C211 C 0.0433 0.23604 0.40003 0.0
C212 C 0.07251 0.25575 0.27928 0.0
C213 C 0.11602 0.2266 0.21053 0.0
C214 C 0.09991 0.23251 0.25041 0.0
C215 C 0.05414 0.25094 0.36921 0.0
C216 C 0.06996 0.24454 0.32825 0.0
H217 H 0.13342 0.18479 0.13929 0.0
H218 H 0.1059 0.19478 0.20286 0.0
H219 H 0.08914 0.25887 0.20386 0.0
H220 H 0.03013 0.2942 0.41827 0.0
H221 H 0.05769 0.284 0.3553 0.0
C222 C 0.29045 0.63014 0.63774 0.0
C223 C 0.27857 0.64834 0.63473 0.0
C224 C 0.2854 0.61457 0.6752 0.0
C225 C 0.2565 0.60634 0.80408 0.0
H226 H 0.2595 0.54832 0.76424 0.0
C227 C 0.21882 0.54167 0.93212 0.0
C228 C 0.22979 0.52314 0.9383 0.0
C229 C 0.22616 0.55712 0.89725 0.0
C230 C 0.25885 0.56445 0.77619 0.0
H231 H 0.25161 0.66405 0.66761 0.0
H232 H 0.24268 0.63685 0.73184 0.0
H233 H 0.26935 0.57467 0.69764 0.0
H234 H 0.25718 0.50619 0.91499 0.0
H235 H 0.27017 0.53321 0.85335 0.0
H236 H 0.24568 0.59613 0.88231 0.0
C237 C 0.25619 0.6348 0.70628 0.0
C238 C 0.26449 0.57955 0.73805 0.0
C239 C 0.26126 0.65035 0.66909 0.0
C240 C 0.24846 0.52038 0.91014 0.0
C241 C 0.25578 0.53576 0.87496 0.0
C242 C 0.25079 0.59127 0.84209 0.0
C243 C 0.26833 0.61683 0.71031 0.0
C244 C 0.26318 0.60068 0.75138 0.0
C245 C 0.2446 0.55423 0.86777 0.0
C246 C 0.25173 0.57017 0.82841 0.0
H247 H 0.30392 0.62809 0.61202 0.0
H248 H 0.29515 0.60097 0.67753 0.0
H249 H 0.25572 0.62247 0.81609 0.0
H250 H 0.20425 0.54387 0.95304 0.0
H251 H 0.21707 0.57106 0.89207 0.0
C252 C 0.85847 0.79304 0.1549 0.0
C253 C 0.84357 0.77839 0.13891 0.0
C254 C 0.87421 0.78759 0.19145 0.0
C255 C 0.90454 0.74438 0.24185 0.0
H256 H 0.91032 0.77597 0.37604 0.0
C257 C 0.95888 0.71706 0.41386 0.0
C258 C 0.96934 0.73214 0.44424 0.0
C259 C 0.94324 0.72277 0.37744 0.0
C260 C 0.90922 0.76717 0.33843 0.0
H261 H 0.83385 0.7464 0.14712 0.0
H262 H 0.86175 0.73676 0.2097 0.0
H263 H 0.88455 0.7862 0.30832 0.0
H264 H 0.97219 0.76476 0.46131 0.0
H265 H 0.94543 0.77514 0.39596 0.0
H266 H 0.92955 0.72574 0.27041 0.0
C267 C 0.86104 0.75249 0.19449 0.0
C268 C 0.89437 0.77301 0.29981 0.0
C269 C 0.84507 0.75804 0.1589 0.0
C270 C 0.96402 0.75299 0.43827 0.0
C271 C 0.94864 0.75882 0.40111 0.0
C272 C 0.91965 0.73876 0.27992 0.0
C273 C 0.87557 0.76728 0.21162 0.0
C274 C 0.89182 0.76158 0.25142 0.0
C275 C 0.9381 0.74378 0.36988 0.0
C276 C 0.9221 0.74996 0.32901 0.0
H277 H 0.85765 0.80886 0.14037 0.0
H278 H 0.88533 0.79921 0.20395 0.0
H279 H 0.90294 0.73543 0.20454 0.0
H280 H 0.9629 0.70088 0.41841 0.0
H281 H 0.9352 0.71068 0.35528 0.0
C282 C 0.70761 0.36387 0.63415 0.0
C283 C 0.71811 0.34482 0.63249 0.0
C284 C 0.71355 0.37927 0.67125 0.0
C285 C 0.74186 0.38644 0.80158 0.0
H286 H 0.74245 0.44424 0.75901 0.0
C287 C 0.7788 0.45077 0.93431 0.0
C288 C 0.76841 0.46977 0.93685 0.0
C289 C 0.77197 0.43526 0.8987 0.0
C290 C 0.74213 0.42818 0.77171 0.0
H291 H 0.74354 0.32733 0.66767 0.0
H292 H 0.75404 0.35425 0.73145 0.0
H293 H 0.73228 0.41796 0.6925 0.0
H294 H 0.74218 0.48723 0.90737 0.0
H295 H 0.73018 0.46019 0.84462 0.0
H296 H 0.75189 0.39667 0.88068 0.0
C297 C 0.74092 0.35713 0.70493 0.0
C298 C 0.7363 0.41312 0.7336 0.0
C299 C 0.73496 0.34173 0.66801 0.0
C300 C 0.75066 0.47282 0.90485 0.0
C301 C 0.74386 0.45738 0.8691 0.0
C302 C 0.74774 0.40149 0.83964 0.0
C303 C 0.73016 0.376 0.70742 0.0
C304 C 0.73616 0.39207 0.74803 0.0
C305 C 0.75459 0.43852 0.86511 0.0
C306 C 0.74797 0.42252 0.8251 0.0
H307 H 0.69452 0.36677 0.60755 0.0
H308 H 0.70481 0.39356 0.67244 0.0
H309 H 0.74156 0.37039 0.81435 0.0
H310 H 0.79249 0.4482 0.95892 0.0
H311 H 0.78064 0.42095 0.89634 0.0
C312 C 0.63282 0.29299 0.34904 0.0
C313 C 0.64776 0.27844 0.36527 0.0
C314 C 0.61716 0.28739 0.31241 0.0
C315 C 0.58724 0.24385 0.2617 0.0
H316 H 0.58149 0.27532 0.12741 0.0
C317 C 0.53376 0.21577 0.08873 0.0
C318 C 0.52305 0.23071 0.05855 0.0
C319 C 0.5493 0.2217 0.12521 0.0
C320 C 0.58259 0.26654 0.16503 0.0
H321 H 0.65762 0.24647 0.35747 0.0
H322 H 0.62986 0.23659 0.29472 0.0
H323 H 0.60696 0.28587 0.19564 0.0
H324 H 0.5197 0.2633 0.0418 0.0
H325 H 0.54632 0.27405 0.1072 0.0
H326 H 0.56254 0.22489 0.23259 0.0
C327 C 0.63047 0.25235 0.30982 0.0
C328 C 0.59726 0.27257 0.20395 0.0
C329 C 0.64637 0.25804 0.3455 0.0
C330 C 0.52807 0.25164 0.06467 0.0
C331 C 0.54336 0.25768 0.10187 0.0
C332 C 0.57231 0.23803 0.22332 0.0
C333 C 0.61592 0.26704 0.2924 0.0
C334 C 0.59979 0.26119 0.25237 0.0
C335 C 0.5541 0.24278 0.13301 0.0
C336 C 0.56989 0.24918 0.17418 0.0
H337 H 0.63357 0.30884 0.36341 0.0
H338 H 0.60601 0.29894 0.29968 0.0
H339 H 0.58882 0.23494 0.29902 0.0
H340 H 0.52996 0.19953 0.08409 0.0
H341 H 0.5575 0.20972 0.14732 0.0
C342 C 0.23464 0.15141 0.83557 0.0
C343 C 0.21775 0.14843 0.87094 0.0
C344 C 0.24052 0.13596 0.79877 0.0
C345 C 0.23553 0.07998 0.77022 0.0
H346 H 0.25121 0.09627 0.62318 0.0
C347 C 0.24909 0.02016 0.59894 0.0
C348 C 0.26685 0.02302 0.56696 0.0
C349 C 0.24251 0.03567 0.63473 0.0
C350 C 0.24704 0.0915 0.6642 0.0
H351 H 0.19403 0.12661 0.89575 0.0
H352 H 0.20418 0.09975 0.83105 0.0
H353 H 0.24113 0.12265 0.68942 0.0
H354 H 0.29118 0.04431 0.54498 0.0
H355 H 0.27972 0.07168 0.60763 0.0
H356 H 0.24139 0.04881 0.74487 0.0
C357 C 0.21301 0.11399 0.83228 0.0
C358 C 0.2413 0.1066 0.70221 0.0
C359 C 0.20714 0.12944 0.86926 0.0
C360 C 0.27748 0.04189 0.56958 0.0
C361 C 0.27088 0.05747 0.60523 0.0
C362 C 0.24121 0.06487 0.73215 0.0
C363 C 0.22965 0.11715 0.79625 0.0
C364 C 0.23555 0.10103 0.75574 0.0
C365 C 0.25348 0.0544 0.63879 0.0
C366 C 0.24707 0.07047 0.67877 0.0
H367 H 0.24329 0.16577 0.83594 0.0
H368 H 0.25366 0.13876 0.77235 0.0
H369 H 0.23147 0.07518 0.8113 0.0
H370 H 0.24042 0.00586 0.59635 0.0
H371 H 0.22882 0.03301 0.65919 0.0
C372 C 0.36224 0.70718 0.3608 0.0
C373 C 0.34298 0.71728 0.36179 0.0
C374 C 0.37754 0.7133 0.32378 0.0
C375 C 0.39402 0.75701 0.23715 0.0
H376 H 0.42422 0.71492 0.15713 0.0
C377 C 0.44939 0.77799 0.06092 0.0
C378 C 0.46835 0.76754 0.06009 0.0
C379 C 0.43359 0.77144 0.09582 0.0
C380 C 0.41607 0.72686 0.17951 0.0
H381 H 0.32493 0.74201 0.32508 0.0
H382 H 0.35156 0.75256 0.26076 0.0
H383 H 0.39817 0.70462 0.22387 0.0
H384 H 0.4855 0.74151 0.09205 0.0
H385 H 0.45816 0.73022 0.15422 0.0
H386 H 0.41201 0.77926 0.19326 0.0
C387 C 0.35486 0.74 0.28877 0.0
C388 C 0.40116 0.72096 0.21778 0.0
C389 C 0.33954 0.73384 0.32552 0.0
C390 C 0.47107 0.74999 0.09303 0.0
C391 C 0.45534 0.74344 0.12801 0.0
C392 C 0.40897 0.76292 0.19902 0.0
C393 C 0.37396 0.72971 0.2872 0.0
C394 C 0.38998 0.73597 0.24704 0.0
C395 C 0.43649 0.75424 0.13035 0.0
C396 C 0.42019 0.74792 0.16977 0.0
H397 H 0.36544 0.69439 0.38814 0.0
H398 H 0.39221 0.70524 0.32397 0.0
H399 H 0.38585 0.76894 0.25955 0.0
H400 H 0.44703 0.79147 0.03533 0.0
H401 H 0.41913 0.77988 0.09588 0.0
C402 C 0.78337 0.86317 0.86989 0.0
C403 C 0.77296 0.84406 0.87131 0.0
C404 C 0.77734 0.87859 0.83303 0.0
C405 C 0.73368 0.89585 0.74721 0.0
H406 H 0.77604 0.92494 0.66559 0.0
C407 C 0.71331 0.95089 0.5695 0.0
C408 C 0.72414 0.96965 0.56765 0.0
C409 C 0.71962 0.93514 0.60497 0.0
C410 C 0.76403 0.91711 0.68843 0.0
H411 H 0.74769 0.82643 0.8357 0.0
H412 H 0.73727 0.85328 0.77162 0.0
H413 H 0.786 0.89884 0.73271 0.0
H414 H 0.75058 0.98648 0.59849 0.0
H415 H 0.76146 0.95924 0.66169 0.0
H416 H 0.71169 0.91419 0.70335 0.0
C417 C 0.75004 0.85636 0.79917 0.0
C418 C 0.76974 0.90217 0.72692 0.0
C419 C 0.75611 0.84093 0.83578 0.0
C420 C 0.74181 0.97223 0.60024 0.0
C421 C 0.74812 0.95654 0.63582 0.0
C422 C 0.72796 0.91083 0.70886 0.0
C423 C 0.76069 0.87529 0.79703 0.0
C424 C 0.75463 0.89138 0.75673 0.0
C425 C 0.73695 0.9379 0.63912 0.0
C426 C 0.74306 0.92164 0.67901 0.0
H427 H 0.7964 0.86615 0.89666 0.0
H428 H 0.78568 0.89313 0.83281 0.0
H429 H 0.72168 0.88798 0.77004 0.0
H430 H 0.69973 0.94864 0.54424 0.0
H431 H 0.7109 0.92084 0.60576 0.0
C432 C 0.83975 0.76446 0.83077 0.0
C433 C 0.84296 0.77992 0.8705 0.0
C434 C 0.85541 0.75906 0.79432 0.0
C435 C 0.90283 0.77891 0.73095 0.0
H436 H 0.91237 0.72114 0.69569 0.0
C437 C 0.97269 0.75123 0.60381 0.0
C438 C 0.9696 0.73484 0.56708 0.0
C439 C 0.95694 0.75731 0.6393 0.0
C440 C 0.90971 0.73736 0.70448 0.0
H441 H 0.86536 0.80167 0.90327 0.0
H442 H 0.89283 0.79212 0.83943 0.0
H443 H 0.88607 0.73033 0.76273 0.0
H444 H 0.94772 0.71229 0.53688 0.0
H445 H 0.91978 0.72312 0.59827 0.0
H446 H 0.92643 0.78595 0.67254 0.0
C447 C 0.87804 0.78435 0.83642 0.0
C448 C 0.89469 0.74262 0.74305 0.0
C449 C 0.86235 0.78971 0.8732 0.0
C450 C 0.95032 0.72499 0.56499 0.0
C451 C 0.9345 0.73107 0.60045 0.0
C452 C 0.91783 0.77366 0.69225 0.0
C453 C 0.87469 0.769 0.79651 0.0
C454 C 0.89107 0.76345 0.75667 0.0
C455 C 0.93773 0.74713 0.63854 0.0
C456 C 0.92143 0.75282 0.67856 0.0
H457 H 0.82505 0.75654 0.82743 0.0
H458 H 0.85227 0.74735 0.76366 0.0
H459 H 0.90017 0.79511 0.73999 0.0
H460 H 0.98742 0.75915 0.60539 0.0
H461 H 0.96002 0.76961 0.66834 0.0
C462 C 0.72629 0.33883 0.31007 0.0
C463 C 0.71638 0.34421 0.35929 0.0
C464 C 0.73319 0.35408 0.2741 0.0
C465 C 0.72627 0.40908 0.23735 0.0
H466 H 0.77826 0.40069 0.16159 0.0
C467 C 0.78699 0.45764 0.09295 0.0
C468 C 0.77281 0.4678 0.05898 0.0
C469 C 0.78029 0.44235 0.12924 0.0
C470 C 0.76379 0.40338 0.1827 0.0
H471 H 0.70597 0.36997 0.40917 0.0
H472 H 0.71837 0.39669 0.34656 0.0
H473 H 0.76657 0.37523 0.228 0.0
H474 H 0.74081 0.46984 0.03441 0.0
H475 H 0.72897 0.44262 0.0966 0.0
H476 H 0.7238 0.43753 0.19311 0.0
C477 C 0.72051 0.38059 0.33554 0.0
C478 C 0.75696 0.38865 0.22034 0.0
C479 C 0.71348 0.36528 0.37156 0.0
C480 C 0.75193 0.46208 0.06041 0.0
C481 C 0.74519 0.44672 0.09642 0.0
C482 C 0.73316 0.42387 0.19984 0.0
C483 C 0.7305 0.37514 0.28644 0.0
C484 C 0.73805 0.39124 0.24787 0.0
C485 C 0.75925 0.43686 0.13185 0.0
C486 C 0.75196 0.42115 0.17186 0.0
H487 H 0.72866 0.32277 0.29892 0.0
H488 H 0.74043 0.3493 0.23619 0.0
H489 H 0.71155 0.41148 0.25743 0.0
H490 H 0.8032 0.46178 0.09182 0.0
H491 H 0.79151 0.4352 0.15615 0.0
C492 C 0.15183 0.22897 0.83052 0.0
C493 C 0.14847 0.21345 0.8699 0.0
C494 C 0.13621 0.23463 0.79414 0.0
C495 C 0.08862 0.21543 0.73007 0.0
H496 H 0.07965 0.27339 0.69611 0.0
C497 C 0.01919 0.24408 0.60252 0.0
C498 C 0.02249 0.26051 0.56614 0.0
C499 C 0.03481 0.2378 0.63822 0.0
C500 C 0.08215 0.25712 0.70455 0.0
H501 H 0.12587 0.19185 0.90213 0.0
H502 H 0.09847 0.20185 0.83838 0.0
H503 H 0.10582 0.26376 0.76321 0.0
H504 H 0.04462 0.28291 0.53672 0.0
H505 H 0.07235 0.27172 0.5985 0.0
H506 H 0.065 0.20879 0.67121 0.0
C507 C 0.11334 0.20947 0.83561 0.0
C508 C 0.09709 0.25161 0.74315 0.0
C509 C 0.12898 0.20385 0.87232 0.0
C510 C 0.04185 0.27019 0.5646 0.0
C511 C 0.05755 0.26391 0.60026 0.0
C512 C 0.07369 0.22094 0.69133 0.0
C513 C 0.11684 0.22489 0.79605 0.0
C514 C 0.10051 0.23071 0.75627 0.0
C515 C 0.05411 0.2478 0.63798 0.0
C516 C 0.0703 0.24185 0.67811 0.0
H517 H 0.16661 0.23675 0.8274 0.0
H518 H 0.13947 0.24638 0.76374 0.0
H519 H 0.09112 0.19918 0.73872 0.0
H520 H 0.00439 0.23627 0.60364 0.0
H521 H 0.03158 0.22546 0.66697 0.0
C522 C 0.28909 0.62936 0.36194 0.0
C523 C 0.27738 0.64761 0.36651 0.0
C524 C 0.28293 0.61362 0.32603 0.0
C525 C 0.23773 0.59299 0.2527 0.0
H526 H 0.27792 0.57036 0.15141 0.0
C527 C 0.21304 0.54101 0.07248 0.0
C528 C 0.22575 0.52414 0.06022 0.0
C529 C 0.21967 0.5561 0.10957 0.0
C530 C 0.26655 0.5763 0.17986 0.0
H531 H 0.2497 0.66335 0.33818 0.0
H532 H 0.23897 0.63589 0.27622 0.0
H533 H 0.28882 0.59577 0.21956 0.0
H534 H 0.255 0.5093 0.0762 0.0
H535 H 0.26666 0.53539 0.14217 0.0
H536 H 0.21548 0.57343 0.21374 0.0
C537 C 0.2529 0.63376 0.30019 0.0
C538 C 0.27282 0.59085 0.21887 0.0
C539 C 0.25916 0.64955 0.33546 0.0
C540 C 0.24518 0.52246 0.08506 0.0
C541 C 0.2518 0.53742 0.12245 0.0
C542 C 0.23149 0.57832 0.21404 0.0
C543 C 0.2648 0.61572 0.29471 0.0
C544 C 0.25843 0.59945 0.25538 0.0
C545 C 0.23906 0.55437 0.1355 0.0
C546 C 0.24578 0.5699 0.17684 0.0
H547 H 0.30321 0.62741 0.38523 0.0
H548 H 0.2923 0.59978 0.32285 0.0
H549 H 0.22636 0.59919 0.28079 0.0
H550 H 0.19789 0.54228 0.05393 0.0
H551 H 0.20958 0.56909 0.11801 0.0
C552 C 0.33926 0.725 0.68616 0.0
C553 C 0.34433 0.71621 0.63519 0.0
C554 C 0.3547 0.73113 0.72255 0.0
C555 C 0.4084 0.74784 0.73053 0.0
H556 H 0.40362 0.73249 0.88358 0.0
C557 C 0.45829 0.7848 0.90083 0.0
C558 C 0.46753 0.77095 0.93757 0.0
C559 C 0.44328 0.77786 0.86394 0.0
C560 C 0.40519 0.73681 0.84095 0.0
H561 H 0.36972 0.70721 0.58234 0.0
H562 H 0.39684 0.71827 0.64613 0.0
H563 H 0.37785 0.7203 0.81783 0.0
H564 H 0.46831 0.7393 0.96599 0.0
H565 H 0.44162 0.72711 0.90233 0.0
H566 H 0.43568 0.76449 0.75382 0.0
C567 C 0.3808 0.72028 0.65763 0.0
C568 C 0.3904 0.72995 0.80343 0.0
C569 C 0.36529 0.71388 0.6213 0.0
C570 C 0.46116 0.75021 0.93818 0.0
C571 C 0.446 0.74329 0.90177 0.0
C572 C 0.42308 0.7549 0.76821 0.0
C573 C 0.37561 0.72883 0.70875 0.0
C574 C 0.39182 0.73545 0.7479 0.0
C575 C 0.43711 0.757 0.86378 0.0
C576 C 0.42158 0.74949 0.8238 0.0
H577 H 0.32329 0.727 0.69837 0.0
H578 H 0.35026 0.73789 0.7614 0.0
H579 H 0.40977 0.75241 0.68803 0.0
H580 H 0.46281 0.80093 0.90054 0.0
H581 H 0.43644 0.78882 0.83569 0.0
C582 C 0.77787 0.86477 0.13218 0.0
C583 C 0.77456 0.84373 0.14398 0.0
C584 C 0.77098 0.88013 0.16827 0.0
C585 C 0.73441 0.88872 0.283 0.0
H586 H 0.76866 0.93676 0.31176 0.0
C587 C 0.74081 0.96176 0.44426 0.0
C588 C 0.72008 0.96799 0.44539 0.0
C589 C 0.74726 0.94629 0.40817 0.0
C590 C 0.75899 0.92334 0.3046 0.0
H591 H 0.76157 0.8224 0.20349 0.0
H592 H 0.75002 0.84902 0.26638 0.0
H593 H 0.78043 0.91057 0.24714 0.0
H594 H 0.68963 0.96272 0.41199 0.0
H595 H 0.70082 0.93595 0.34752 0.0
H596 H 0.71326 0.90114 0.34165 0.0
C597 C 0.75751 0.85373 0.22878 0.0
C598 C 0.76561 0.90847 0.26692 0.0
C599 C 0.76428 0.83844 0.19273 0.0
C600 C 0.70574 0.9582 0.41107 0.0
C601 C 0.71215 0.94279 0.37471 0.0
C602 C 0.72784 0.90353 0.32083 0.0
C603 C 0.76071 0.87477 0.21699 0.0
C604 C 0.75343 0.89094 0.25581 0.0
C605 C 0.73305 0.93681 0.37238 0.0
C606 C 0.74007 0.921 0.33222 0.0
H607 H 0.78566 0.86941 0.09493 0.0
H608 H 0.77349 0.89621 0.15765 0.0
H609 H 0.72451 0.87555 0.27491 0.0
H610 H 0.75206 0.96923 0.47056 0.0
H611 H 0.76338 0.94179 0.40822 0.0
C612 C 0.62912 0.28964 0.63041 0.0
C613 C 0.6486 0.28004 0.63304 0.0
C614 C 0.61345 0.28405 0.66701 0.0
C615 C 0.59713 0.24196 0.75948 0.0
H616 H 0.56496 0.28481 0.83076 0.0
C617 C 0.54177 0.22349 0.9375 0.0
C618 C 0.52241 0.23316 0.93575 0.0
C619 C 0.55748 0.22974 0.90193 0.0
C620 C 0.57368 0.27265 0.81082 0.0
H621 H 0.6667 0.25676 0.67583 0.0
H622 H 0.63953 0.24718 0.73929 0.0
H623 H 0.59115 0.29439 0.76355 0.0
H624 H 0.50433 0.25737 0.89793 0.0
H625 H 0.53154 0.26812 0.83476 0.0
H626 H 0.57965 0.2202 0.8064 0.0
C627 C 0.63629 0.25892 0.70881 0.0
C628 C 0.58864 0.27814 0.77226 0.0
C629 C 0.65193 0.26454 0.67254 0.0
C630 C 0.51912 0.24956 0.89921 0.0
C631 C 0.53476 0.25581 0.86361 0.0
C632 C 0.58216 0.23647 0.79791 0.0
C633 C 0.61692 0.26865 0.70666 0.0
C634 C 0.60056 0.26285 0.74629 0.0
C635 C 0.55406 0.24581 0.86409 0.0
C636 C 0.57028 0.25174 0.82411 0.0
H637 H 0.62602 0.30162 0.60051 0.0
H638 H 0.59859 0.29168 0.66406 0.0
H639 H 0.60588 0.2298 0.73959 0.0
H640 H 0.54453 0.2108 0.96549 0.0
H641 H 0.57228 0.22193 0.90389 0.0
C642 C 0.22625 0.15446 0.19303 0.0
C643 C 0.21619 0.14914 0.1439 0.0
C644 C 0.23301 0.13918 0.22911 0.0
C645 C 0.22537 0.08434 0.26636 0.0
H646 H 0.27751 0.09211 0.34219 0.0
C647 C 0.28549 0.03504 0.41093 0.0
C648 C 0.27119 0.02507 0.44485 0.0
C649 C 0.27898 0.05043 0.37468 0.0
C650 C 0.263 0.08959 0.32106 0.0
H651 H 0.20542 0.12343 0.09425 0.0
H652 H 0.21759 0.09666 0.15705 0.0
H653 H 0.26613 0.11765 0.27554 0.0
H654 H 0.23918 0.02348 0.46943 0.0
H655 H 0.22769 0.05089 0.40731 0.0
H656 H 0.22253 0.05597 0.3108 0.0
C657 C 0.21993 0.11275 0.16792 0.0
C658 C 0.25634 0.10438 0.28328 0.0
C659 C 0.21304 0.12809 0.1318 0.0
C660 C 0.2504 0.03109 0.44346 0.0
C661 C 0.24386 0.04656 0.40749 0.0
C662 C 0.23207 0.0695 0.30399 0.0
C663 C 0.23004 0.11814 0.21697 0.0
C664 C 0.23739 0.102 0.25571 0.0
C665 C 0.25803 0.05622 0.37207 0.0
C666 C 0.25092 0.072 0.33199 0.0
H667 H 0.22881 0.17051 0.20404 0.0
H668 H 0.24036 0.14392 0.26696 0.0
H669 H 0.2106 0.08211 0.24626 0.0
H670 H 0.30164 0.03066 0.41204 0.0
H671 H 0.29029 0.05742 0.34777 0.0
C672 C 0.21651 0.28912 0.04655 0.0
C673 C 0.20794 0.27737 0.00382 0.0
C674 C 0.21492 0.31066 0.04637 0.0
C675 C 0.20393 0.35502 0.95398 0.0
H676 H 0.20047 0.38492 0.09145 0.0
C677 C 0.19271 0.44398 0.9707 0.0
C678 C 0.20833 0.4537 1.00117 0.0
C679 C 0.19079 0.42243 0.97134 0.0
C680 C 0.20139 0.37671 0.05283 0.0
H681 H 0.19052 0.27889 0.92804 0.0
H682 H 0.18701 0.31642 0.92872 0.0
H683 H 0.20005 0.34717 0.09179 0.0
H684 H 0.2339 0.44893 0.05681 0.0
H685 H 0.23009 0.41121 0.05973 0.0
H686 H 0.20483 0.38479 0.91529 0.0
C687 C 0.19556 0.30911 0.96155 0.0
C688 C 0.20132 0.3551 0.05292 0.0
C689 C 0.19749 0.28757 0.96124 0.0
C690 C 0.22164 0.44168 0.03345 0.0
C691 C 0.21948 0.42021 0.03501 0.0
C692 C 0.20361 0.37664 0.9539 0.0
C693 C 0.20437 0.32096 0.00396 0.0
C694 C 0.20298 0.34396 0.00356 0.0
C695 C 0.20417 0.41041 0.00355 0.0
C696 C 0.20269 0.38762 0.00337 0.0
H697 H 0.22482 0.2817 0.07969 0.0
H698 H 0.22232 0.31922 0.07909 0.0
H699 H 0.20555 0.34705 0.91522 0.0
H700 H 0.18207 0.4531 0.94641 0.0
H701 H 0.17878 0.41516 0.94707 0.0
C702 C 0.20469 0.69748 0.45914 0.0
C703 C 0.21523 0.70776 0.50151 0.0
C704 C 0.18319 0.6956 0.46041 0.0
C705 C 0.13789 0.70149 0.55376 0.0
H706 H 0.10744 0.70663 0.41754 0.0
C707 C 0.05284 0.72664 0.53799 0.0
C708 C 0.03962 0.71376 0.50767 0.0
C709 C 0.07409 0.72317 0.53819 0.0
C710 C 0.1158 0.70492 0.45573 0.0
H711 H 0.21155 0.72428 0.57815 0.0
H712 H 0.17408 0.72187 0.57926 0.0
H713 H 0.14513 0.70616 0.41588 0.0
H714 H 0.0381 0.68721 0.45376 0.0
H715 H 0.0757 0.68164 0.45201 0.0
H716 H 0.10837 0.7015 0.59352 0.0
C717 C 0.18235 0.71458 0.54592 0.0
C718 C 0.13739 0.70456 0.45491 0.0
C719 C 0.20386 0.71613 0.54513 0.0
C720 C 0.04806 0.69742 0.47704 0.0
C721 C 0.06943 0.6942 0.47625 0.0
C722 C 0.11634 0.70224 0.55458 0.0
C723 C 0.17171 0.70427 0.50363 0.0
C724 C 0.14873 0.70313 0.50402 0.0
C725 C 0.08256 0.70702 0.50705 0.0
C726 C 0.10517 0.7042 0.50565 0.0
H727 H 0.21309 0.69067 0.42527 0.0
H728 H 0.17561 0.68723 0.42763 0.0
H729 H 0.14602 0.69983 0.59226 0.0
H730 H 0.04673 0.73963 0.5608 0.0
H731 H 0.08399 0.73343 0.56157 0.0
C732 C 0.79544 0.70534 0.96286 0.0
C733 C 0.78442 0.71538 0.00466 0.0
C734 C 0.79783 0.68385 0.96351 0.0
C735 C 0.79235 0.63792 0.05505 0.0
H736 H 0.79121 0.60788 0.91752 0.0
C737 C 0.77479 0.55069 0.03403 0.0
C738 C 0.7889 0.53908 0.00317 0.0
C739 C 0.7763 0.57222 0.03589 0.0
C740 C 0.79176 0.61614 0.95613 0.0
H741 H 0.767 0.71083 0.07943 0.0
H742 H 0.77031 0.67336 0.07933 0.0
H743 H 0.78936 0.64557 0.91697 0.0
H744 H 0.81582 0.54043 0.95104 0.0
H745 H 0.81803 0.57846 0.95224 0.0
H746 H 0.79366 0.60821 0.09396 0.0
C747 C 0.77779 0.68202 0.04702 0.0
C748 C 0.7908 0.63773 0.95594 0.0
C749 C 0.77573 0.70353 0.0469 0.0
C750 C 0.80465 0.54924 0.97442 0.0
C751 C 0.80593 0.57083 0.9753 0.0
C752 C 0.79291 0.61632 0.05519 0.0
C753 C 0.78894 0.67188 0.00545 0.0
C754 C 0.79091 0.64892 0.00545 0.0
C755 C 0.79174 0.58246 0.00603 0.0
C756 C 0.79249 0.60528 0.00577 0.0
H757 H 0.8025 0.71413 0.93007 0.0
H758 H 0.80684 0.67669 0.93135 0.0
H759 H 0.79298 0.64595 0.09393 0.0
H760 H 0.76245 0.54305 0.0561 0.0
H761 H 0.76509 0.5809 0.05946 0.0
C762 C 0.78855 0.27535 0.53805 0.0
C763 C 0.77699 0.28375 0.49479 0.0
C764 C 0.81003 0.27711 0.53868 0.0
C765 C 0.85489 0.28812 0.44862 0.0
H766 H 0.88342 0.29226 0.58797 0.0
C767 C 0.944 0.29732 0.47369 0.0
C768 C 0.95261 0.28119 0.50472 0.0
C769 C 0.92257 0.3001 0.47205 0.0
C770 C 0.87558 0.29122 0.54882 0.0
H771 H 0.7788 0.30091 0.41867 0.0
H772 H 0.81627 0.30464 0.42067 0.0
H773 H 0.84575 0.29297 0.58569 0.0
H774 H 0.94579 0.25521 0.55761 0.0
H775 H 0.90843 0.26066 0.55693 0.0
H776 H 0.88499 0.2867 0.41209 0.0
C777 C 0.80883 0.29616 0.45338 0.0
C778 C 0.85404 0.29142 0.54742 0.0
C779 C 0.78734 0.29408 0.4523 0.0
C780 C 0.93953 0.26806 0.53456 0.0
C781 C 0.91822 0.2711 0.5339 0.0
C782 C 0.87647 0.2883 0.45001 0.0
C783 C 0.82046 0.28765 0.49656 0.0
C784 C 0.84339 0.28936 0.49743 0.0
C785 C 0.90957 0.28704 0.50238 0.0
C786 C 0.88693 0.2894 0.50023 0.0
H787 H 0.78102 0.26713 0.57113 0.0
H788 H 0.81845 0.2699 0.57191 0.0
H789 H 0.84728 0.28625 0.40943 0.0
H790 H 0.95386 0.30769 0.45073 0.0
H791 H 0.91615 0.3125 0.44752 0.0
C792 C 0.71681 0.20417 0.45711 0.0
C793 C 0.7079 0.21596 0.4992 0.0
C794 C 0.71516 0.18263 0.45726 0.0
C795 C 0.70282 0.1383 0.54884 0.0
H796 H 0.70051 0.1084 0.41118 0.0
C797 C 0.6893 0.04969 0.53071 0.0
C798 C 0.70509 0.03949 0.50219 0.0
C799 C 0.68808 0.07129 0.5299 0.0
C800 C 0.70112 0.11662 0.44984 0.0
H801 H 0.68982 0.21453 0.57376 0.0
H802 H 0.68616 0.17702 0.57291 0.0
H803 H 0.70074 0.14615 0.41073 0.0
H804 H 0.73169 0.04339 0.44978 0.0
H805 H 0.72917 0.08127 0.44651 0.0
H806 H 0.70266 0.10853 0.58763 0.0
C807 C 0.69505 0.18427 0.5407 0.0
C808 C 0.70143 0.13822 0.44972 0.0
C809 C 0.69705 0.20581 0.54109 0.0
C810 C 0.71934 0.05107 0.4717 0.0
C811 C 0.71788 0.0726 0.4699 0.0
C812 C 0.7021 0.11669 0.54892 0.0
C813 C 0.70419 0.17237 0.49894 0.0
C814 C 0.70262 0.14937 0.4992 0.0
C815 C 0.70237 0.08288 0.49943 0.0
C816 C 0.70156 0.1057 0.49941 0.0
H817 H 0.72542 0.21156 0.42453 0.0
H818 H 0.72282 0.17403 0.42508 0.0
H819 H 0.70409 0.14625 0.58773 0.0
H820 H 0.67802 0.04091 0.55377 0.0
H821 H 0.67592 0.07895 0.55268 0.0
C822 C 0.28739 0.19932 0.05079 0.0
C823 C 0.27696 0.20959 0.00828 0.0
C824 C 0.30889 0.19728 0.0496 0.0
C825 C 0.3539 0.202 0.95518 0.0
H826 H 0.38514 0.20687 0.09022 0.0
C827 C 0.43941 0.22551 0.96726 0.0
C828 C 0.45257 0.21244 0.99711 0.0
C829 C 0.41811 0.22243 0.96805 0.0
C830 C 0.37655 0.20522 0.05237 0.0
H831 H 0.28084 0.22617 0.93184 0.0
H832 H 0.31827 0.22346 0.93087 0.0
H833 H 0.34744 0.20725 0.0932 0.0
H834 H 0.45393 0.18597 0.0512 0.0
H835 H 0.41625 0.18109 0.05464 0.0
H836 H 0.38319 0.20119 0.91438 0.0
C837 C 0.30992 0.21626 0.96419 0.0
C838 C 0.35496 0.20537 0.05396 0.0
C839 C 0.28844 0.21799 0.96493 0.0
C840 C 0.44403 0.1963 0.02824 0.0
C841 C 0.4226 0.19348 0.03002 0.0
C842 C 0.37545 0.20224 0.95359 0.0
C843 C 0.32044 0.20576 0.00629 0.0
C844 C 0.34336 0.20408 0.00525 0.0
C845 C 0.40953 0.20651 0.99972 0.0
C846 C 0.3869 0.20412 0.00208 0.0
H847 H 0.27892 0.19251 0.08449 0.0
H848 H 0.31639 0.18884 0.08231 0.0
H849 H 0.34554 0.20041 0.91699 0.0
H850 H 0.44562 0.23836 0.94413 0.0
H851 H 0.40826 0.23284 0.94503 0.0
C852 C 0.29388 0.78745 0.54104 0.0
C853 C 0.28302 0.77708 0.49946 0.0
C854 C 0.29577 0.80898 0.54012 0.0
C855 C 0.2892 0.85464 0.44821 0.0
H856 H 0.28831 0.88476 0.58563 0.0
C857 C 0.27211 0.94206 0.46932 0.0
C858 C 0.28639 0.95353 0.50016 0.0
C859 C 0.27343 0.92052 0.46737 0.0
C860 C 0.28877 0.87648 0.54705 0.0
H861 H 0.26537 0.78105 0.42473 0.0
H862 H 0.2678 0.81863 0.42436 0.0
H863 H 0.28663 0.84707 0.58638 0.0
H864 H 0.31339 0.95191 0.55211 0.0
H865 H 0.31525 0.91387 0.55073 0.0
H866 H 0.29029 0.88434 0.40917 0.0
C867 C 0.27552 0.81019 0.45674 0.0
C868 C 0.28791 0.85489 0.54735 0.0
C869 C 0.27398 0.78864 0.45711 0.0
C870 C 0.3021 0.94322 0.52876 0.0
C871 C 0.30318 0.92162 0.52778 0.0
C872 C 0.28965 0.87625 0.44797 0.0
C873 C 0.28651 0.82067 0.49814 0.0
C874 C 0.28802 0.84366 0.4979 0.0
C875 C 0.28882 0.91013 0.4971 0.0
C876 C 0.28938 0.88731 0.49737 0.0
H877 H 0.30122 0.77891 0.57388 0.0
H878 H 0.3047 0.8164 0.5721 0.0
H879 H 0.2898 0.84658 0.40938 0.0
H880 H 0.25981 0.94983 0.44735 0.0
H881 H 0.26209 0.91194 0.44383 0.0
C882 C 0.70295 0.77298 0.96579 0.0
C883 C 0.71441 0.78229 0.00797 0.0
C884 C 0.68145 0.77459 0.96477 0.0
C885 C 0.63637 0.78805 0.05248 0.0
H886 H 0.60813 0.78994 0.91239 0.0
C887 C 0.54836 0.80283 0.02629 0.0
C888 C 0.5383 0.78686 0.99792 0.0
C889 C 0.56994 0.80377 0.02717 0.0
C890 C 0.61588 0.78946 0.95172 0.0
H891 H 0.71243 0.80085 0.08175 0.0
H892 H 0.67498 0.80441 0.07886 0.0
H893 H 0.64579 0.78913 0.91499 0.0
H894 H 0.54243 0.75965 0.94759 0.0
H895 H 0.58029 0.7617 0.94718 0.0
H896 H 0.60623 0.78894 0.08883 0.0
C897 C 0.68246 0.79528 0.04745 0.0
C898 C 0.63743 0.78881 0.95334 0.0
C899 C 0.70396 0.79332 0.04903 0.0
C900 C 0.55001 0.77216 0.96928 0.0
C901 C 0.57153 0.77334 0.96914 0.0
C902 C 0.61482 0.78911 0.05078 0.0
C903 C 0.67091 0.78591 0.00532 0.0
C904 C 0.64798 0.78775 0.00373 0.0
C905 C 0.58166 0.78901 0.99856 0.0
C906 C 0.60443 0.78952 1.00039 0.0
H907 H 0.71058 0.76421 0.93386 0.0
H908 H 0.67311 0.76672 0.93242 0.0
H909 H 0.64386 0.78692 0.09202 0.0
H910 H 0.53949 0.81442 0.04801 0.0
H911 H 0.57749 0.81606 0.04986 0.0
loop_
_geom_bond_atom_site_label_1
_geom_bond_atom_site_label_2
_geom_bond_distance
_geom_bond_site_symmetry_2
_ccdc_geom_bond_type
Sc0 O3 2.027 . S
Sc0 O10 2.105 . S
Sc0 O13 2.105 . S
Sc0 O16 2.105 . S
Sc0 O19 2.105 . S
Sc1 O3 2.025 . S
Sc1 O11 2.105 . S
Sc1 O15 2.105 1_554 S
Sc1 O17 2.105 . S
Sc1 O21 2.105 1_554 S
Sc2 O3 2.024 1_556 S
Sc2 O12 2.105 . S
Sc2 O14 2.105 . S
Sc2 O18 2.105 . S
Sc2 O20 2.105 . S
O3 Sc0 2.027 . S
O3 Sc1 2.025 . S
O3 Sc2 2.024 1_554 S
C4 O10 1.270 . S
C4 O20 1.266 1_554 S
C5 O11 1.268 . S
C5 O19 1.268 . S
C6 O12 1.268 . S
C6 O21 1.268 . S
C7 O13 1.268 . S
C7 O17 1.268 . S
C8 O14 1.266 1_554 S
C8 O16 1.270 . S
C9 O15 1.268 . S
C9 O18 1.268 . S
O10 Sc0 2.105 . S
O10 C4 1.270 . S
O11 Sc1 2.105 . S
O11 C5 1.268 . S
O12 Sc2 2.105 . S
O12 C6 1.268 . S
O13 Sc0 2.105 . S
O13 C7 1.268 . S
O14 Sc2 2.105 . S
O14 C8 1.266 1_556 S
O15 Sc1 2.105 1_556 S
O15 C9 1.268 . S
O16 Sc0 2.105 . S
O16 C8 1.270 . S
O17 Sc1 2.105 . S
O17 C7 1.268 . S
O18 Sc2 2.105 . S
O18 C9 1.268 . S
O19 Sc0 2.105 . S
O19 C5 1.268 . S
O20 Sc2 2.105 . S
O20 C4 1.266 1_556 S
O21 Sc1 2.105 1_556 S
O21 C6 1.268 . S
Sc22 O25 2.025 . S
Sc22 O32 2.105 . S
Sc22 O35 2.105 . S
Sc22 O38 2.105 . S
Sc22 O41 2.105 . S
Sc23 O25 2.025 . S
Sc23 O33 2.105 . S
Sc23 O37 2.105 . S
Sc23 O39 2.105 . S
Sc23 O43 2.105 . S
Sc24 O25 2.025 . S
Sc24 O34 2.105 . S
Sc24 O36 2.105 . S
Sc24 O40 2.105 . S
Sc24 O42 2.105 . S
O25 Sc22 2.025 . S
O25 Sc23 2.025 . S
O25 Sc24 2.025 . S
C26 O32 1.268 . S
C26 O42 1.268 . S
C27 O33 1.268 . S
C27 O41 1.268 . S
C28 O34 1.268 . S
C28 O43 1.268 . S
C29 O35 1.268 . S
C29 O39 1.268 . S
C30 O36 1.268 . S
C30 O38 1.268 . S
C31 O37 1.268 . S
C31 O40 1.268 . S
O32 Sc22 2.105 . S
O32 C26 1.268 . S
O33 Sc23 2.105 . S
O33 C27 1.268 . S
O34 Sc24 2.105 . S
O34 C28 1.268 . S
O35 Sc22 2.105 . S
O35 C29 1.268 . S
O36 Sc24 2.105 . S
O36 C30 1.268 . S
O37 Sc23 2.105 . S
O37 C31 1.268 . S
O38 Sc22 2.105 . S
O38 C30 1.268 . S
O39 Sc23 2.105 . S
O39 C29 1.268 . S
O40 Sc24 2.105 . S
O40 C31 1.268 . S
O41 Sc22 2.105 . S
O41 C27 1.268 . S
O42 Sc24 2.105 . S
O42 C26 1.268 . S
O43 Sc23 2.105 . S
O43 C28 1.268 . S
Sc44 O47 2.018 1_556 S
Sc44 O54 2.105 . S
Sc44 O57 2.105 . S
Sc44 O60 2.105 . S
Sc44 O63 2.105 . S
Sc45 O47 2.025 . S
Sc45 O55 2.098 1_554 S
Sc45 O59 2.111 . S
Sc45 O61 2.098 1_554 S
Sc45 O65 2.111 . S
Sc46 O47 2.033 . S
Sc46 O56 2.105 . S
Sc46 O58 2.105 . S
Sc46 O62 2.105 . S
Sc46 O64 2.105 . S
O47 Sc44 2.018 1_554 S
O47 Sc45 2.025 . S
O47 Sc46 2.033 . S
C48 O54 1.262 1_554 S
C48 O64 1.274 . S
C49 O55 1.268 . S
C49 O63 1.268 . S
C50 O56 1.268 . S
C50 O65 1.268 . S
C51 O57 1.268 . S
C51 O61 1.268 . S
C52 O58 1.274 . S
C52 O60 1.262 1_554 S
C53 O59 1.268 . S
C53 O62 1.268 . S
O54 Sc44 2.105 . S
O54 C48 1.262 1_556 S
O55 Sc45 2.098 1_556 S
O55 C49 1.268 . S
O56 Sc46 2.105 . S
O56 C50 1.268 . S
O57 Sc44 2.105 . S
O57 C51 1.268 . S
O58 Sc46 2.105 . S
O58 C52 1.274 . S
O59 Sc45 2.111 . S
O59 C53 1.268 . S
O60 Sc44 2.105 . S
O60 C52 1.262 1_556 S
O61 Sc45 2.098 1_556 S
O61 C51 1.268 . S
O62 Sc46 2.105 . S
O62 C53 1.268 . S
O63 Sc44 2.105 . S
O63 C49 1.268 . S
O64 Sc46 2.105 . S
O64 C48 1.274 . S
O65 Sc45 2.111 . S
O65 C50 1.268 . S
Sc66 O69 2.025 . S
Sc66 O76 2.105 . S
Sc66 O79 2.105 . S
Sc66 O82 2.105 . S
Sc66 O85 2.105 . S
Sc67 O69 2.025 . S
Sc67 O77 2.105 . S
Sc67 O81 2.105 . S
Sc67 O83 2.105 . S
Sc67 O87 2.105 . S
Sc68 O69 2.025 . S
Sc68 O78 2.105 . S
Sc68 O80 2.105 . S
Sc68 O84 2.105 . S
Sc68 O86 2.105 . S
O69 Sc66 2.025 . S
O69 Sc67 2.025 . S
O69 Sc68 2.025 . S
C70 O76 1.268 . S
C70 O86 1.268 . S
C71 O77 1.268 . S
C71 O85 1.268 . S
C72 O78 1.268 . S
C72 O87 1.268 . S
C73 O79 1.268 . S
C73 O83 1.268 . S
C74 O80 1.268 . S
C74 O82 1.268 . S
C75 O81 1.268 . S
C75 O84 1.268 . S
O76 Sc66 2.105 . S
O76 C70 1.268 . S
O77 Sc67 2.105 . S
O77 C71 1.268 . S
O78 Sc68 2.105 . S
O78 C72 1.268 . S
O79 Sc66 2.105 . S
O79 C73 1.268 . S
O80 Sc68 2.105 . S
O80 C74 1.268 . S
O81 Sc67 2.105 . S
O81 C75 1.268 . S
O82 Sc66 2.105 . S
O82 C74 1.268 . S
O83 Sc67 2.105 . S
O83 C73 1.268 . S
O84 Sc68 2.105 . S
O84 C75 1.268 . S
O85 Sc66 2.105 . S
O85 C71 1.268 . S
O86 Sc68 2.105 . S
O86 C70 1.268 . S
O87 Sc67 2.105 . S
O87 C72 1.268 . S
C88 N89 1.317 . S
C88 N90 1.360 . S
C88 C91 1.485 . S
N89 C88 1.317 . S
N89 N93 1.370 1_556 S
N90 C88 1.360 . S
N90 C92 1.335 1_556 S
C91 C88 1.485 . S
C91 H95 0.960 . S
C91 H96 0.961 . S
C91 H97 0.960 . S
C92 N90 1.335 1_554 S
C92 N93 1.307 . S
C92 C94 1.486 . S
N93 N89 1.370 1_554 S
N93 C92 1.307 . S
C94 C92 1.486 . S
C94 H98 0.960 . S
C94 H99 0.960 . S
C94 H100 0.959 . S
H95 C91 0.960 . S
H96 C91 0.961 . S
H97 C91 0.960 . S
H98 C94 0.960 . S
H99 C94 0.960 . S
H100 C94 0.959 . S
C101 N102 1.317 1_455 S
C101 N103 1.348 . S
C101 C104 1.485 . S
N102 C101 1.317 1_655 S
N102 N106 1.370 . S
N103 C101 1.348 . S
N103 C105 1.346 . S
C104 C101 1.485 . S
C104 H108 0.960 . S
C104 H109 0.961 . S
C104 H110 0.960 1_455 S
C105 N103 1.346 . S
C105 N106 1.307 1_455 S
C105 C107 1.486 . S
N106 N102 1.370 . S
N106 C105 1.307 1_655 S
C107 C105 1.486 . S
C107 H111 0.960 . S
C107 H112 0.960 . S
C107 H113 0.959 1_455 S
H108 C104 0.960 . S
H109 C104 0.961 . S
H110 C104 0.960 1_655 S
H111 C107 0.960 . S
H112 C107 0.960 . S
H113 C107 0.959 1_655 S
C114 N115 1.317 . S
C114 N116 1.348 . S
C114 C117 1.485 . S
N115 C114 1.317 . S
N115 N119 1.370 1_554 S
N116 C114 1.348 . S
N116 C118 1.346 1_554 S
C117 C114 1.485 . S
C117 H121 0.960 . S
C117 H122 0.961 . S
C117 H123 0.960 . S
C118 N116 1.346 1_556 S
C118 N119 1.307 . S
C118 C120 1.486 . S
N119 N115 1.370 1_556 S
N119 C118 1.307 . S
C120 C118 1.486 . S
C120 H124 0.960 . S
C120 H125 0.960 . S
C120 H126 0.959 . S
H121 C117 0.960 . S
H122 C117 0.961 . S
H123 C117 0.960 . S
H124 C120 0.960 . S
H125 C120 0.960 . S
H126 C120 0.959 . S
C127 N128 1.317 1_655 S
C127 N129 1.348 . S
C127 C130 1.485 . S
N128 C127 1.317 1_455 S
N128 N132 1.370 . S
N129 C127 1.348 . S
N129 C131 1.346 . S
C130 C127 1.485 . S
C130 H134 0.960 . S
C130 H135 0.961 . S
C130 H136 0.960 1_655 S
C131 N129 1.346 . S
C131 N132 1.307 1_655 S
C131 C133 1.486 . S
N132 N128 1.370 . S
N132 C131 1.307 1_455 S
C133 C131 1.486 . S
C133 H137 0.960 . S
C133 H138 0.960 . S
C133 H139 0.959 1_655 S
H134 C130 0.960 . S
H135 C130 0.961 . S
H136 C130 0.960 1_455 S
H137 C133 0.960 . S
H138 C133 0.960 . S
H139 C133 0.959 1_455 S
C140 N141 1.317 1_545 S
C140 N142 1.348 . S
C140 C143 1.485 . S
N141 C140 1.317 1_565 S
N141 N145 1.370 . S
N142 C140 1.348 . S
N142 C144 1.346 . S
C143 C140 1.485 . S
C143 H147 0.960 . S
C143 H148 0.961 . S
C143 H149 0.960 1_545 S
C144 N142 1.346 . S
C144 N145 1.307 1_545 S
C144 C146 1.486 . S
N145 N141 1.370 . S
N145 C144 1.307 1_565 S
C146 C144 1.486 . S
C146 H150 0.960 . S
C146 H151 0.960 . S
C146 H152 0.959 1_545 S
H147 C143 0.960 . S
H148 C143 0.961 . S
H149 C143 0.960 1_565 S
H150 C146 0.960 . S
H151 C146 0.960 . S
H152 C146 0.959 1_565 S
C153 N154 1.317 . S
C153 N155 1.360 . S
C153 C156 1.485 . S
N154 C153 1.317 . S
N154 N158 1.370 1_556 S
N155 C153 1.360 . S
N155 C157 1.335 1_556 S
C156 C153 1.485 . S
C156 H160 0.960 . S
C156 H161 0.961 . S
C156 H162 0.960 . S
C157 N155 1.335 1_554 S
C157 N158 1.307 . S
C157 C159 1.486 . S
N158 N154 1.370 1_554 S
N158 C157 1.307 . S
C159 C157 1.486 . S
C159 H163 0.960 . S
C159 H164 0.960 . S
C159 H165 0.959 . S
H160 C156 0.960 . S
H161 C156 0.961 . S
H162 C156 0.960 . S
H163 C159 0.960 . S
H164 C159 0.960 . S
H165 C159 0.959 . S
C166 N167 1.317 1_565 S
C166 N168 1.348 . S
C166 C169 1.485 . S
N167 C166 1.317 1_545 S
N167 N171 1.370 . S
N168 C166 1.348 . S
N168 C170 1.346 . S
C169 C166 1.485 . S
C169 H173 0.960 . S
C169 H174 0.961 . S
C169 H175 0.960 1_565 S
C170 N168 1.346 . S
C170 N171 1.307 1_565 S
C170 C172 1.486 . S
N171 N167 1.370 . S
N171 C170 1.307 1_545 S
C172 C170 1.486 . S
C172 H176 0.960 . S
C172 H177 0.960 . S
C172 H178 0.959 1_565 S
H173 C169 0.960 . S
H174 C169 0.961 . S
H175 C169 0.960 1_545 S
H176 C172 0.960 . S
H177 C172 0.960 . S
H178 C172 0.959 1_545 S
C179 N180 1.317 . S
C179 N181 1.348 . S
C179 C182 1.485 . S
N180 C179 1.317 . S
N180 N184 1.370 1_554 S
N181 C179 1.348 . S
N181 C183 1.346 1_554 S
C182 C179 1.485 . S
C182 H186 0.960 . S
C182 H187 0.961 . S
C182 H188 0.960 . S
C183 N181 1.346 1_556 S
C183 N184 1.307 . S
C183 C185 1.486 . S
N184 N180 1.370 1_556 S
N184 C183 1.307 . S
C185 C183 1.486 . S
C185 H189 0.960 . S
C185 H190 0.960 . S
C185 H191 0.959 . S
H186 C182 0.960 . S
H187 C182 0.961 . S
H188 C182 0.960 . S
H189 C185 0.960 . S
H190 C185 0.960 . S
H191 C185 0.959 . S
C192 C193 1.349 . S
C192 C194 1.327 . S
C192 H217 0.950 . S
C193 C192 1.349 . S
C193 C209 1.349 . S
C194 C192 1.327 . S
C194 C213 1.429 . S
C194 H218 0.950 . S
C195 C212 1.574 . S
C195 C214 1.368 . S
C195 H219 0.949 . S
H196 C200 0.949 . S
C197 C198 1.349 . S
C197 C199 1.327 . S
C197 H220 0.950 . S
C198 C197 1.349 . S
C198 C210 1.349 . S
C199 C197 1.327 . S
C199 C215 1.429 . S
C199 H221 0.950 . S
C200 H196 0.949 . S
C200 C208 1.574 . S
C200 C216 1.368 . S
H201 C209 0.950 . S
H202 C207 0.950 . S
H203 C208 0.949 . S
H204 C210 0.950 . S
H205 C211 0.950 . S
H206 C212 0.949 . S
C207 H202 0.950 . S
C207 C209 1.327 . S
C207 C213 1.429 . S
C208 C200 1.574 . S
C208 H203 0.949 . S
C208 C214 1.368 . S
C209 C193 1.349 . S
C209 H201 0.950 . S
C209 C207 1.327 . S
C210 C198 1.349 . S
C210 H204 0.950 . S
C210 C211 1.327 . S
C211 H205 0.950 . S
C211 C210 1.327 . S
C211 C215 1.429 . S
C212 C195 1.574 . S
C212 H206 0.949 . S
C212 C216 1.368 . S
C213 C194 1.429 . S
C213 C207 1.429 . S
C213 C214 1.523 . S
C214 C195 1.368 . S
C214 C208 1.368 . S
C214 C213 1.523 . S
C215 C199 1.429 . S
C215 C211 1.429 . S
C215 C216 1.523 . S
C216 C200 1.368 . S
C216 C212 1.368 . S
C216 C215 1.523 . S
H217 C192 0.950 . S
H218 C194 0.950 . S
H219 C195 0.949 . S
H220 C197 0.950 . S
H221 C199 0.950 . S
C222 C223 1.349 . S
C222 C224 1.327 . S
C222 H247 0.950 . S
C223 C222 1.349 . S
C223 C239 1.349 . S
C224 C222 1.327 . S
C224 C243 1.429 . S
C224 H248 0.950 . S
C225 C242 1.574 . S
C225 C244 1.368 . S
C225 H249 0.949 . S
H226 C230 0.949 . S
C227 C228 1.349 . S
C227 C229 1.327 . S
C227 H250 0.950 . S
C228 C227 1.349 . S
C228 C240 1.349 . S
C229 C227 1.327 . S
C229 C245 1.429 . S
C229 H251 0.950 . S
C230 H226 0.949 . S
C230 C238 1.574 . S
C230 C246 1.368 . S
H231 C239 0.950 . S
H232 C237 0.950 . S
H233 C238 0.949 . S
H234 C240 0.950 . S
H235 C241 0.950 . S
H236 C242 0.949 . S
C237 H232 0.950 . S
C237 C239 1.327 . S
C237 C243 1.429 . S
C238 C230 1.574 . S
C238 H233 0.949 . S
C238 C244 1.368 . S
C239 C223 1.349 . S
C239 H231 0.950 . S
C239 C237 1.327 . S
C240 C228 1.349 . S
C240 H234 0.950 . S
C240 C241 1.327 . S
C241 H235 0.950 . S
C241 C240 1.327 . S
C241 C245 1.429 . S
C242 C225 1.574 . S
C242 H236 0.949 . S
C242 C246 1.368 . S
C243 C224 1.429 . S
C243 C237 1.429 . S
C243 C244 1.523 . S
C244 C225 1.368 . S
C244 C238 1.368 . S
C244 C243 1.523 . S
C245 C229 1.429 . S
C245 C241 1.429 . S
C245 C246 1.523 . S
C246 C230 1.368 . S
C246 C242 1.368 . S
C246 C245 1.523 . S
H247 C222 0.950 . S
H248 C224 0.950 . S
H249 C225 0.949 . S
H250 C227 0.950 . S
H251 C229 0.950 . S
C252 C253 1.349 . S
C252 C254 1.327 . S
C252 H277 0.950 . S
C253 C252 1.349 . S
C253 C269 1.349 . S
C254 C252 1.327 . S
C254 C273 1.429 . S
C254 H278 0.950 . S
C255 C272 1.574 . S
C255 C274 1.368 . S
C255 H279 0.949 . S
H256 C260 0.949 . S
C257 C258 1.349 . S
C257 C259 1.327 . S
C257 H280 0.950 . S
C258 C257 1.349 . S
C258 C270 1.349 . S
C259 C257 1.327 . S
C259 C275 1.429 . S
C259 H281 0.950 . S
C260 H256 0.949 . S
C260 C268 1.574 . S
C260 C276 1.368 . S
H261 C269 0.950 . S
H262 C267 0.950 . S
H263 C268 0.949 . S
H264 C270 0.950 . S
H265 C271 0.950 . S
H266 C272 0.949 . S
C267 H262 0.950 . S
C267 C269 1.327 . S
C267 C273 1.429 . S
C268 C260 1.574 . S
C268 H263 0.949 . S
C268 C274 1.368 . S
C269 C253 1.349 . S
C269 H261 0.950 . S
C269 C267 1.327 . S
C270 C258 1.349 . S
C270 H264 0.950 . S
C270 C271 1.327 . S
C271 H265 0.950 . S
C271 C270 1.327 . S
C271 C275 1.429 . S
C272 C255 1.574 . S
C272 H266 0.949 . S
C272 C276 1.368 . S
C273 C254 1.429 . S
C273 C267 1.429 . S
C273 C274 1.523 . S
C274 C255 1.368 . S
C274 C268 1.368 . S
C274 C273 1.523 . S
C275 C259 1.429 . S
C275 C271 1.429 . S
C275 C276 1.523 . S
C276 C260 1.368 . S
C276 C272 1.368 . S
C276 C275 1.523 . S
H277 C252 0.950 . S
H278 C254 0.950 . S
H279 C255 0.949 . S
H280 C257 0.950 . S
H281 C259 0.950 . S
C282 C283 1.349 . S
C282 C284 1.327 . S
C282 H307 0.950 . S
C283 C282 1.349 . S
C283 C299 1.349 . S
C284 C282 1.327 . S
C284 C303 1.429 . S
C284 H308 0.950 . S
C285 C302 1.574 . S
C285 C304 1.368 . S
C285 H309 0.949 . S
H286 C290 0.949 . S
C287 C288 1.349 . S
C287 C289 1.327 . S
C287 H310 0.950 . S
C288 C287 1.349 . S
C288 C300 1.349 . S
C289 C287 1.327 . S
C289 C305 1.429 . S
C289 H311 0.950 . S
C290 H286 0.949 . S
C290 C298 1.574 . S
C290 C306 1.368 . S
H291 C299 0.950 . S
H292 C297 0.950 . S
H293 C298 0.949 . S
H294 C300 0.950 . S
H295 C301 0.950 . S
H296 C302 0.949 . S
C297 H292 0.950 . S
C297 C299 1.327 . S
C297 C303 1.429 . S
C298 C290 1.574 . S
C298 H293 0.949 . S
C298 C304 1.368 . S
C299 C283 1.349 . S
C299 H291 0.950 . S
C299 C297 1.327 . S
C300 C288 1.349 . S
C300 H294 0.950 . S
C300 C301 1.327 . S
C301 H295 0.950 . S
C301 C300 1.327 . S
C301 C305 1.429 . S
C302 C285 1.574 . S
C302 H296 0.949 . S
C302 C306 1.368 . S
C303 C284 1.429 . S
C303 C297 1.429 . S
C303 C304 1.523 . S
C304 C285 1.368 . S
C304 C298 1.368 . S
C304 C303 1.523 . S
C305 C289 1.429 . S
C305 C301 1.429 . S
C305 C306 1.523 . S
C306 C290 1.368 . S
C306 C302 1.368 . S
C306 C305 1.523 . S
H307 C282 0.950 . S
H308 C284 0.950 . S
H309 C285 0.949 . S
H310 C287 0.950 . S
H311 C289 0.950 . S
C312 C313 1.349 . S
C312 C314 1.327 . S
C312 H337 0.950 . S
C313 C312 1.349 . S
C313 C329 1.349 . S
C314 C312 1.327 . S
C314 C333 1.429 . S
C314 H338 0.950 . S
C315 C332 1.574 . S
C315 C334 1.368 . S
C315 H339 0.949 . S
H316 C320 0.949 . S
C317 C318 1.349 . S
C317 C319 1.327 . S
C317 H340 0.950 . S
C318 C317 1.349 . S
C318 C330 1.349 . S
C319 C317 1.327 . S
C319 C335 1.429 . S
C319 H341 0.950 . S
C320 H316 0.949 . S
C320 C328 1.574 . S
C320 C336 1.368 . S
H321 C329 0.950 . S
H322 C327 0.950 . S
H323 C328 0.949 . S
H324 C330 0.950 . S
H325 C331 0.950 . S
H326 C332 0.949 . S
C327 H322 0.950 . S
C327 C329 1.327 . S
C327 C333 1.429 . S
C328 C320 1.574 . S
C328 H323 0.949 . S
C328 C334 1.368 . S
C329 C313 1.349 . S
C329 H321 0.950 . S
C329 C327 1.327 . S
C330 C318 1.349 . S
C330 H324 0.950 . S
C330 C331 1.327 . S
C331 H325 0.950 . S
C331 C330 1.327 . S
C331 C335 1.429 . S
C332 C315 1.574 . S
C332 H326 0.949 . S
C332 C336 1.368 . S
C333 C314 1.429 . S
C333 C327 1.429 . S
C333 C334 1.523 . S
C334 C315 1.368 . S
C334 C328 1.368 . S
C334 C333 1.523 . S
C335 C319 1.429 . S
C335 C331 1.429 . S
C335 C336 1.523 . S
C336 C320 1.368 . S
C336 C332 1.368 . S
C336 C335 1.523 . S
H337 C312 0.950 . S
H338 C314 0.950 . S
H339 C315 0.949 . S
H340 C317 0.950 . S
H341 C319 0.950 . S
C342 C343 1.349 . S
C342 C344 1.327 . S
C342 H367 0.950 . S
C343 C342 1.349 . S
C343 C359 1.349 . S
C344 C342 1.327 . S
C344 C363 1.429 . S
C344 H368 0.950 . S
C345 C362 1.574 . S
C345 C364 1.368 . S
C345 H369 0.949 . S
H346 C350 0.949 . S
C347 C348 1.349 . S
C347 C349 1.327 . S
C347 H370 0.950 . S
C348 C347 1.349 . S
C348 C360 1.349 . S
C349 C347 1.327 . S
C349 C365 1.429 . S
C349 H371 0.950 . S
C350 H346 0.949 . S
C350 C358 1.574 . S
C350 C366 1.368 . S
H351 C359 0.950 . S
H352 C357 0.950 . S
H353 C358 0.949 . S
H354 C360 0.950 . S
H355 C361 0.950 . S
H356 C362 0.949 . S
C357 H352 0.950 . S
C357 C359 1.327 . S
C357 C363 1.429 . S
C358 C350 1.574 . S
C358 H353 0.949 . S
C358 C364 1.368 . S
C359 C343 1.349 . S
C359 H351 0.950 . S
C359 C357 1.327 . S
C360 C348 1.349 . S
C360 H354 0.950 . S
C360 C361 1.327 . S
C361 H355 0.950 . S
C361 C360 1.327 . S
C361 C365 1.429 . S
C362 C345 1.574 . S
C362 H356 0.949 . S
C362 C366 1.368 . S
C363 C344 1.429 . S
C363 C357 1.429 . S
C363 C364 1.523 . S
C364 C345 1.368 . S
C364 C358 1.368 . S
C364 C363 1.523 . S
C365 C349 1.429 . S
C365 C361 1.429 . S
C365 C366 1.523 . S
C366 C350 1.368 . S
C366 C362 1.368 . S
C366 C365 1.523 . S
H367 C342 0.950 . S
H368 C344 0.950 . S
H369 C345 0.949 . S
H370 C347 0.950 . S
H371 C349 0.950 . S
C372 C373 1.349 . S
C372 C374 1.327 . S
C372 H397 0.950 . S
C373 C372 1.349 . S
C373 C389 1.349 . S
C374 C372 1.327 . S
C374 C393 1.429 . S
C374 H398 0.950 . S
C375 C392 1.574 . S
C375 C394 1.368 . S
C375 H399 0.949 . S
H376 C380 0.949 . S
C377 C378 1.349 . S
C377 C379 1.327 . S
C377 H400 0.950 . S
C378 C377 1.349 . S
C378 C390 1.349 . S
C379 C377 1.327 . S
C379 C395 1.429 . S
C379 H401 0.950 . S
C380 H376 0.949 . S
C380 C388 1.574 . S
C380 C396 1.368 . S
H381 C389 0.950 . S
H382 C387 0.950 . S
H383 C388 0.949 . S
H384 C390 0.950 . S
H385 C391 0.950 . S
H386 C392 0.949 . S
C387 H382 0.950 . S
C387 C389 1.327 . S
C387 C393 1.429 . S
C388 C380 1.574 . S
C388 H383 0.949 . S
C388 C394 1.368 . S
C389 C373 1.349 . S
C389 H381 0.950 . S
C389 C387 1.327 . S
C390 C378 1.349 . S
C390 H384 0.950 . S
C390 C391 1.327 . S
C391 H385 0.950 . S
C391 C390 1.327 . S
C391 C395 1.429 . S
C392 C375 1.574 . S
C392 H386 0.949 . S
C392 C396 1.368 . S
C393 C374 1.429 . S
C393 C387 1.429 . S
C393 C394 1.523 . S
C394 C375 1.368 . S
C394 C388 1.368 . S
C394 C393 1.523 . S
C395 C379 1.429 . S
C395 C391 1.429 . S
C395 C396 1.523 . S
C396 C380 1.368 . S
C396 C392 1.368 . S
C396 C395 1.523 . S
H397 C372 0.950 . S
H398 C374 0.950 . S
H399 C375 0.949 . S
H400 C377 0.950 . S
H401 C379 0.950 . S
C402 C403 1.349 . S
C402 C404 1.327 . S
C402 H427 0.950 . S
C403 C402 1.349 . S
C403 C419 1.349 . S
C404 C402 1.327 . S
C404 C423 1.429 . S
C404 H428 0.950 . S
C405 C422 1.574 . S
C405 C424 1.368 . S
C405 H429 0.949 . S
H406 C410 0.949 . S
C407 C408 1.349 . S
C407 C409 1.327 . S
C407 H430 0.950 . S
C408 C407 1.349 . S
C408 C420 1.349 . S
C409 C407 1.327 . S
C409 C425 1.429 . S
C409 H431 0.950 . S
C410 H406 0.949 . S
C410 C418 1.574 . S
C410 C426 1.368 . S
H411 C419 0.950 . S
H412 C417 0.950 . S
H413 C418 0.949 . S
H414 C420 0.950 . S
H415 C421 0.950 . S
H416 C422 0.949 . S
C417 H412 0.950 . S
C417 C419 1.327 . S
C417 C423 1.429 . S
C418 C410 1.574 . S
C418 H413 0.949 . S
C418 C424 1.368 . S
C419 C403 1.349 . S
C419 H411 0.950 . S
C419 C417 1.327 . S
C420 C408 1.349 . S
C420 H414 0.950 . S
C420 C421 1.327 . S
C421 H415 0.950 . S
C421 C420 1.327 . S
C421 C425 1.429 . S
C422 C405 1.574 . S
C422 H416 0.949 . S
C422 C426 1.368 . S
C423 C404 1.429 . S
C423 C417 1.429 . S
C423 C424 1.523 . S
C424 C405 1.368 . S
C424 C418 1.368 . S
C424 C423 1.523 . S
C425 C409 1.429 . S
C425 C421 1.429 . S
C425 C426 1.523 . S
C426 C410 1.368 . S
C426 C422 1.368 . S
C426 C425 1.523 . S
H427 C402 0.950 . S
H428 C404 0.950 . S
H429 C405 0.949 . S
H430 C407 0.950 . S
H431 C409 0.950 . S
C432 C433 1.349 . S
C432 C434 1.327 . S
C432 H457 0.950 . S
C433 C432 1.349 . S
C433 C449 1.349 . S
C434 C432 1.327 . S
C434 C453 1.429 . S
C434 H458 0.950 . S
C435 C452 1.574 . S
C435 C454 1.368 . S
C435 H459 0.949 . S
H436 C440 0.949 . S
C437 C438 1.349 . S
C437 C439 1.327 . S
C437 H460 0.950 . S
C438 C437 1.349 . S
C438 C450 1.349 . S
C439 C437 1.327 . S
C439 C455 1.429 . S
C439 H461 0.950 . S
C440 H436 0.949 . S
C440 C448 1.574 . S
C440 C456 1.368 . S
H441 C449 0.950 . S
H442 C447 0.950 . S
H443 C448 0.949 . S
H444 C450 0.950 . S
H445 C451 0.950 . S
H446 C452 0.949 . S
C447 H442 0.950 . S
C447 C449 1.327 . S
C447 C453 1.429 . S
C448 C440 1.574 . S
C448 H443 0.949 . S
C448 C454 1.368 . S
C449 C433 1.349 . S
C449 H441 0.950 . S
C449 C447 1.327 . S
C450 C438 1.349 . S
C450 H444 0.950 . S
C450 C451 1.327 . S
C451 H445 0.950 . S
C451 C450 1.327 . S
C451 C455 1.429 . S
C452 C435 1.574 . S
C452 H446 0.949 . S
C452 C456 1.368 . S
C453 C434 1.429 . S
C453 C447 1.429 . S
C453 C454 1.523 . S
C454 C435 1.368 . S
C454 C448 1.368 . S
C454 C453 1.523 . S
C455 C439 1.429 . S
C455 C451 1.429 . S
C455 C456 1.523 . S
C456 C440 1.368 . S
C456 C452 1.368 . S
C456 C455 1.523 . S
H457 C432 0.950 . S
H458 C434 0.950 . S
H459 C435 0.949 . S
H460 C437 0.950 . S
H461 C439 0.950 . S
C462 C463 1.349 . S
C462 C464 1.327 . S
C462 H487 0.950 . S
C463 C462 1.349 . S
C463 C479 1.349 . S
C464 C462 1.327 . S
C464 C483 1.429 . S
C464 H488 0.950 . S
C465 C482 1.574 . S
C465 C484 1.368 . S
C465 H489 0.949 . S
H466 C470 0.949 . S
C467 C468 1.349 . S
C467 C469 1.327 . S
C467 H490 0.950 . S
C468 C467 1.349 . S
C468 C480 1.349 . S
C469 C467 1.327 . S
C469 C485 1.429 . S
C469 H491 0.950 . S
C470 H466 0.949 . S
C470 C478 1.574 . S
C470 C486 1.368 . S
H471 C479 0.950 . S
H472 C477 0.950 . S
H473 C478 0.949 . S
H474 C480 0.950 . S
H475 C481 0.950 . S
H476 C482 0.949 . S
C477 H472 0.950 . S
C477 C479 1.327 . S
C477 C483 1.429 . S
C478 C470 1.574 . S
C478 H473 0.949 . S
C478 C484 1.368 . S
C479 C463 1.349 . S
C479 H471 0.950 . S
C479 C477 1.327 . S
C480 C468 1.349 . S
C480 H474 0.950 . S
C480 C481 1.327 . S
C481 H475 0.950 . S
C481 C480 1.327 . S
C481 C485 1.429 . S
C482 C465 1.574 . S
C482 H476 0.949 . S
C482 C486 1.368 . S
C483 C464 1.429 . S
C483 C477 1.429 . S
C483 C484 1.523 . S
C484 C465 1.368 . S
C484 C478 1.368 . S
C484 C483 1.523 . S
C485 C469 1.429 . S
C485 C481 1.429 . S
C485 C486 1.523 . S
C486 C470 1.368 . S
C486 C482 1.368 . S
C486 C485 1.523 . S
H487 C462 0.950 . S
H488 C464 0.950 . S
H489 C465 0.949 . S
H490 C467 0.950 . S
H491 C469 0.950 . S
C492 C493 1.349 . S
C492 C494 1.327 . S
C492 H517 0.950 . S
C493 C492 1.349 . S
C493 C509 1.349 . S
C494 C492 1.327 . S
C494 C513 1.429 . S
C494 H518 0.950 . S
C495 C512 1.574 . S
C495 C514 1.368 . S
C495 H519 0.949 . S
H496 C500 0.949 . S
C497 C498 1.349 . S
C497 C499 1.327 . S
C497 H520 0.950 . S
C498 C497 1.349 . S
C498 C510 1.349 . S
C499 C497 1.327 . S
C499 C515 1.429 . S
C499 H521 0.950 . S
C500 H496 0.949 . S
C500 C508 1.574 . S
C500 C516 1.368 . S
H501 C509 0.950 . S
H502 C507 0.950 . S
H503 C508 0.949 . S
H504 C510 0.950 . S
H505 C511 0.950 . S
H506 C512 0.949 . S
C507 H502 0.950 . S
C507 C509 1.327 . S
C507 C513 1.429 . S
C508 C500 1.574 . S
C508 H503 0.949 . S
C508 C514 1.368 . S
C509 C493 1.349 . S
C509 H501 0.950 . S
C509 C507 1.327 . S
C510 C498 1.349 . S
C510 H504 0.950 . S
C510 C511 1.327 . S
C511 H505 0.950 . S
C511 C510 1.327 . S
C511 C515 1.429 . S
C512 C495 1.574 . S
C512 H506 0.949 . S
C512 C516 1.368 . S
C513 C494 1.429 . S
C513 C507 1.429 . S
C513 C514 1.523 . S
C514 C495 1.368 . S
C514 C508 1.368 . S
C514 C513 1.523 . S
C515 C499 1.429 . S
C515 C511 1.429 . S
C515 C516 1.523 . S
C516 C500 1.368 . S
C516 C512 1.368 . S
C516 C515 1.523 . S
H517 C492 0.950 . S
H518 C494 0.950 . S
H519 C495 0.949 . S
H520 C497 0.950 . S
H521 C499 0.950 . S
C522 C523 1.349 . S
C522 C524 1.327 . S
C522 H547 0.950 . S
C523 C522 1.349 . S
C523 C539 1.349 . S
C524 C522 1.327 . S
C524 C543 1.429 . S
C524 H548 0.950 . S
C525 C542 1.574 . S
C525 C544 1.368 . S
C525 H549 0.949 . S
H526 C530 0.949 . S
C527 C528 1.349 . S
C527 C529 1.327 . S
C527 H550 0.950 . S
C528 C527 1.349 . S
C528 C540 1.349 . S
C529 C527 1.327 . S
C529 C545 1.429 . S
C529 H551 0.950 . S
C530 H526 0.949 . S
C530 C538 1.574 . S
C530 C546 1.368 . S
H531 C539 0.950 . S
H532 C537 0.950 . S
H533 C538 0.949 . S
H534 C540 0.950 . S
H535 C541 0.950 . S
H536 C542 0.949 . S
C537 H532 0.950 . S
C537 C539 1.327 . S
C537 C543 1.429 . S
C538 C530 1.574 . S
C538 H533 0.949 . S
C538 C544 1.368 . S
C539 C523 1.349 . S
C539 H531 0.950 . S
C539 C537 1.327 . S
C540 C528 1.349 . S
C540 H534 0.950 . S
C540 C541 1.327 . S
C541 H535 0.950 . S
C541 C540 1.327 . S
C541 C545 1.429 . S
C542 C525 1.574 . S
C542 H536 0.949 . S
C542 C546 1.368 . S
C543 C524 1.429 . S
C543 C537 1.429 . S
C543 C544 1.523 . S
C544 C525 1.368 . S
C544 C538 1.368 . S
C544 C543 1.523 . S
C545 C529 1.429 . S
C545 C541 1.429 . S
C545 C546 1.523 . S
C546 C530 1.368 . S
C546 C542 1.368 . S
C546 C545 1.523 . S
H547 C522 0.950 . S
H548 C524 0.950 . S
H549 C525 0.949 . S
H550 C527 0.950 . S
H551 C529 0.950 . S
C552 C553 1.349 . S
C552 C554 1.327 . S
C552 H577 0.950 . S
C553 C552 1.349 . S
C553 C569 1.349 . S
C554 C552 1.327 . S
C554 C573 1.429 . S
C554 H578 0.950 . S
C555 C572 1.574 . S
C555 C574 1.368 . S
C555 H579 0.949 . S
H556 C560 0.949 . S
C557 C558 1.349 . S
C557 C559 1.327 . S
C557 H580 0.950 . S
C558 C557 1.349 . S
C558 C570 1.349 . S
C559 C557 1.327 . S
C559 C575 1.429 . S
C559 H581 0.950 . S
C560 H556 0.949 . S
C560 C568 1.574 . S
C560 C576 1.368 . S
H561 C569 0.950 . S
H562 C567 0.950 . S
H563 C568 0.949 . S
H564 C570 0.950 . S
H565 C571 0.950 . S
H566 C572 0.949 . S
C567 H562 0.950 . S
C567 C569 1.327 . S
C567 C573 1.429 . S
C568 C560 1.574 . S
C568 H563 0.949 . S
C568 C574 1.368 . S
C569 C553 1.349 . S
C569 H561 0.950 . S
C569 C567 1.327 . S
C570 C558 1.349 . S
C570 H564 0.950 . S
C570 C571 1.327 . S
C571 H565 0.950 . S
C571 C570 1.327 . S
C571 C575 1.429 . S
C572 C555 1.574 . S
C572 H566 0.949 . S
C572 C576 1.368 . S
C573 C554 1.429 . S
C573 C567 1.429 . S
C573 C574 1.523 . S
C574 C555 1.368 . S
C574 C568 1.368 . S
C574 C573 1.523 . S
C575 C559 1.429 . S
C575 C571 1.429 . S
C575 C576 1.523 . S
C576 C560 1.368 . S
C576 C572 1.368 . S
C576 C575 1.523 . S
H577 C552 0.950 . S
H578 C554 0.950 . S
H579 C555 0.949 . S
H580 C557 0.950 . S
H581 C559 0.950 . S
C582 C583 1.349 . S
C582 C584 1.327 . S
C582 H607 0.950 . S
C583 C582 1.349 . S
C583 C599 1.349 . S
C584 C582 1.327 . S
C584 C603 1.429 . S
C584 H608 0.950 . S
C585 C602 1.574 . S
C585 C604 1.368 . S
C585 H609 0.949 . S
H586 C590 0.949 . S
C587 C588 1.349 . S
C587 C589 1.327 . S
C587 H610 0.950 . S
C588 C587 1.349 . S
C588 C600 1.349 . S
C589 C587 1.327 . S
C589 C605 1.429 . S
C589 H611 0.950 . S
C590 H586 0.949 . S
C590 C598 1.574 . S
C590 C606 1.368 . S
H591 C599 0.950 . S
H592 C597 0.950 . S
H593 C598 0.949 . S
H594 C600 0.950 . S
H595 C601 0.950 . S
H596 C602 0.949 . S
C597 H592 0.950 . S
C597 C599 1.327 . S
C597 C603 1.429 . S
C598 C590 1.574 . S
C598 H593 0.949 . S
C598 C604 1.368 . S
C599 C583 1.349 . S
C599 H591 0.950 . S
C599 C597 1.327 . S
C600 C588 1.349 . S
C600 H594 0.950 . S
C600 C601 1.327 . S
C601 H595 0.950 . S
C601 C600 1.327 . S
C601 C605 1.429 . S
C602 C585 1.574 . S
C602 H596 0.949 . S
C602 C606 1.368 . S
C603 C584 1.429 . S
C603 C597 1.429 . S
C603 C604 1.523 . S
C604 C585 1.368 . S
C604 C598 1.368 . S
C604 C603 1.523 . S
C605 C589 1.429 . S
C605 C601 1.429 . S
C605 C606 1.523 . S
C606 C590 1.368 . S
C606 C602 1.368 . S
C606 C605 1.523 . S
H607 C582 0.950 . S
H608 C584 0.950 . S
H609 C585 0.949 . S
H610 C587 0.950 . S
H611 C589 0.950 . S
C612 C613 1.349 . S
C612 C614 1.327 . S
C612 H637 0.950 . S
C613 C612 1.349 . S
C613 C629 1.349 . S
C614 C612 1.327 . S
C614 C633 1.429 . S
C614 H638 0.950 . S
C615 C632 1.574 . S
C615 C634 1.368 . S
C615 H639 0.949 . S
H616 C620 0.949 . S
C617 C618 1.349 . S
C617 C619 1.327 . S
C617 H640 0.950 . S
C618 C617 1.349 . S
C618 C630 1.349 . S
C619 C617 1.327 . S
C619 C635 1.429 . S
C619 H641 0.950 . S
C620 H616 0.949 . S
C620 C628 1.574 . S
C620 C636 1.368 . S
H621 C629 0.950 . S
H622 C627 0.950 . S
H623 C628 0.949 . S
H624 C630 0.950 . S
H625 C631 0.950 . S
H626 C632 0.949 . S
C627 H622 0.950 . S
C627 C629 1.327 . S
C627 C633 1.429 . S
C628 C620 1.574 . S
C628 H623 0.949 . S
C628 C634 1.368 . S
C629 C613 1.349 . S
C629 H621 0.950 . S
C629 C627 1.327 . S
C630 C618 1.349 . S
C630 H624 0.950 . S
C630 C631 1.327 . S
C631 H625 0.950 . S
C631 C630 1.327 . S
C631 C635 1.429 . S
C632 C615 1.574 . S
C632 H626 0.949 . S
C632 C636 1.368 . S
C633 C614 1.429 . S
C633 C627 1.429 . S
C633 C634 1.523 . S
C634 C615 1.368 . S
C634 C628 1.368 . S
C634 C633 1.523 . S
C635 C619 1.429 . S
C635 C631 1.429 . S
C635 C636 1.523 . S
C636 C620 1.368 . S
C636 C632 1.368 . S
C636 C635 1.523 . S
H637 C612 0.950 . S
H638 C614 0.950 . S
H639 C615 0.949 . S
H640 C617 0.950 . S
H641 C619 0.950 . S
C642 C643 1.349 . S
C642 C644 1.327 . S
C642 H667 0.950 . S
C643 C642 1.349 . S
C643 C659 1.349 . S
C644 C642 1.327 . S
C644 C663 1.429 . S
C644 H668 0.950 . S
C645 C662 1.574 . S
C645 C664 1.368 . S
C645 H669 0.949 . S
H646 C650 0.949 . S
C647 C648 1.349 . S
C647 C649 1.327 . S
C647 H670 0.950 . S
C648 C647 1.349 . S
C648 C660 1.349 . S
C649 C647 1.327 . S
C649 C665 1.429 . S
C649 H671 0.950 . S
C650 H646 0.949 . S
C650 C658 1.574 . S
C650 C666 1.368 . S
H651 C659 0.950 . S
H652 C657 0.950 . S
H653 C658 0.949 . S
H654 C660 0.950 . S
H655 C661 0.950 . S
H656 C662 0.949 . S
C657 H652 0.950 . S
C657 C659 1.327 . S
C657 C663 1.429 . S
C658 C650 1.574 . S
C658 H653 0.949 . S
C658 C664 1.368 . S
C659 C643 1.349 . S
C659 H651 0.950 . S
C659 C657 1.327 . S
C660 C648 1.349 . S
C660 H654 0.950 . S
C660 C661 1.327 . S
C661 H655 0.950 . S
C661 C660 1.327 . S
C661 C665 1.429 . S
C662 C645 1.574 . S
C662 H656 0.949 . S
C662 C666 1.368 . S
C663 C644 1.429 . S
C663 C657 1.429 . S
C663 C664 1.523 . S
C664 C645 1.368 . S
C664 C658 1.368 . S
C664 C663 1.523 . S
C665 C649 1.429 . S
C665 C661 1.429 . S
C665 C666 1.523 . S
C666 C650 1.368 . S
C666 C662 1.368 . S
C666 C665 1.523 . S
H667 C642 0.950 . S
H668 C644 0.950 . S
H669 C645 0.949 . S
H670 C647 0.950 . S
H671 C649 0.950 . S
C672 C673 1.352 . S
C672 C674 1.327 . S
C672 H697 0.950 . S
C673 C672 1.352 . S
C673 C689 1.346 1_554 S
C674 C672 1.327 . S
C674 C693 1.431 . S
C674 H698 0.950 . S
C675 C692 1.574 . S
C675 C694 1.366 1_556 S
C675 H699 0.949 . S
H676 C680 0.949 . S
C677 C678 1.347 1_556 S
C677 C679 1.327 . S
C677 H700 0.950 . S
C678 C677 1.347 1_554 S
C678 C690 1.351 . S
C679 C677 1.327 . S
C679 C695 1.426 1_556 S
C679 H701 0.950 . S
C680 H676 0.949 . S
C680 C688 1.574 . S
C680 C696 1.371 . S
H681 C689 0.950 . S
H682 C687 0.950 . S
H683 C688 0.949 . S
H684 C690 0.950 . S
H685 C691 0.950 . S
H686 C692 0.949 . S
C687 H682 0.950 . S
C687 C689 1.327 . S
C687 C693 1.426 1_556 S
C688 C680 1.574 . S
C688 H683 0.949 . S
C688 C694 1.371 . S
C689 C673 1.346 1_556 S
C689 H681 0.950 . S
C689 C687 1.327 . S
C690 C678 1.351 . S
C690 H684 0.950 . S
C690 C691 1.327 . S
C691 H685 0.950 . S
C691 C690 1.327 . S
C691 C695 1.431 . S
C692 C675 1.574 . S
C692 H686 0.949 . S
C692 C696 1.366 1_556 S
C693 C674 1.431 . S
C693 C687 1.426 1_554 S
C693 C694 1.523 . S
C694 C675 1.366 1_554 S
C694 C688 1.371 . S
C694 C693 1.523 . S
C695 C679 1.426 1_554 S
C695 C691 1.431 . S
C695 C696 1.523 . S
C696 C680 1.371 . S
C696 C692 1.366 1_554 S
C696 C695 1.523 . S
H697 C672 0.950 . S
H698 C674 0.950 . S
H699 C675 0.949 . S
H700 C677 0.950 . S
H701 C679 0.950 . S
C702 C703 1.349 . S
C702 C704 1.327 . S
C702 H727 0.950 . S
C703 C702 1.349 . S
C703 C719 1.349 . S
C704 C702 1.327 . S
C704 C723 1.429 . S
C704 H728 0.950 . S
C705 C722 1.574 . S
C705 C724 1.368 . S
C705 H729 0.949 . S
H706 C710 0.949 . S
C707 C708 1.349 . S
C707 C709 1.327 . S
C707 H730 0.950 . S
C708 C707 1.349 . S
C708 C720 1.349 . S
C709 C707 1.327 . S
C709 C725 1.429 . S
C709 H731 0.950 . S
C710 H706 0.949 . S
C710 C718 1.574 . S
C710 C726 1.368 . S
H711 C719 0.950 . S
H712 C717 0.950 . S
H713 C718 0.949 . S
H714 C720 0.950 . S
H715 C721 0.950 . S
H716 C722 0.949 . S
C717 H712 0.950 . S
C717 C719 1.327 . S
C717 C723 1.429 . S
C718 C710 1.574 . S
C718 H713 0.949 . S
C718 C724 1.368 . S
C719 C703 1.349 . S
C719 H711 0.950 . S
C719 C717 1.327 . S
C720 C708 1.349 . S
C720 H714 0.950 . S
C720 C721 1.327 . S
C721 H715 0.950 . S
C721 C720 1.327 . S
C721 C725 1.429 . S
C722 C705 1.574 . S
C722 H716 0.949 . S
C722 C726 1.368 . S
C723 C704 1.429 . S
C723 C717 1.429 . S
C723 C724 1.523 . S
C724 C705 1.368 . S
C724 C718 1.368 . S
C724 C723 1.523 . S
C725 C709 1.429 . S
C725 C721 1.429 . S
C725 C726 1.523 . S
C726 C710 1.368 . S
C726 C722 1.368 . S
C726 C725 1.523 . S
H727 C702 0.950 . S
H728 C704 0.950 . S
H729 C705 0.949 . S
H730 C707 0.950 . S
H731 C709 0.950 . S
C732 C733 1.344 1_556 S
C732 C734 1.327 . S
C732 H757 0.950 . S
C733 C732 1.344 1_554 S
C733 C749 1.354 . S
C734 C732 1.327 . S
C734 C753 1.423 1_556 S
C734 H758 0.950 . S
C735 C752 1.574 . S
C735 C754 1.374 . S
C735 H759 0.949 . S
H736 C740 0.949 . S
C737 C738 1.355 . S
C737 C739 1.327 . S
C737 H760 0.950 . S
C738 C737 1.355 . S
C738 C750 1.343 1_554 S
C739 C737 1.327 . S
C739 C755 1.434 . S
C739 H761 0.950 . S
C740 H736 0.949 . S
C740 C748 1.574 . S
C740 C756 1.362 1_556 S
H741 C749 0.950 . S
H742 C747 0.950 . S
H743 C748 0.949 . S
H744 C750 0.950 . S
H745 C751 0.950 . S
H746 C752 0.949 . S
C747 H742 0.950 . S
C747 C749 1.327 . S
C747 C753 1.434 . S
C748 C740 1.574 . S
C748 H743 0.949 . S
C748 C754 1.362 1_556 S
C749 C733 1.354 . S
C749 H741 0.950 . S
C749 C747 1.327 . S
C750 C738 1.343 1_556 S
C750 H744 0.950 . S
C750 C751 1.327 . S
C751 H745 0.950 . S
C751 C750 1.327 . S
C751 C755 1.423 1_556 S
C752 C735 1.574 . S
C752 H746 0.949 . S
C752 C756 1.375 . S
C753 C734 1.423 1_554 S
C753 C747 1.434 . S
C753 C754 1.523 . S
C754 C735 1.374 . S
C754 C748 1.362 1_554 S
C754 C753 1.523 . S
C755 C739 1.434 . S
C755 C751 1.423 1_554 S
C755 C756 1.523 . S
C756 C740 1.362 1_554 S
C756 C752 1.375 . S
C756 C755 1.523 . S
H757 C732 0.950 . S
H758 C734 0.950 . S
H759 C735 0.949 . S
H760 C737 0.950 . S
H761 C739 0.950 . S
C762 C763 1.349 . S
C762 C764 1.327 . S
C762 H787 0.950 . S
C763 C762 1.349 . S
C763 C779 1.349 . S
C764 C762 1.327 . S
C764 C783 1.429 . S
C764 H788 0.950 . S
C765 C782 1.574 . S
C765 C784 1.368 . S
C765 H789 0.949 . S
H766 C770 0.949 . S
C767 C768 1.349 . S
C767 C769 1.327 . S
C767 H790 0.950 . S
C768 C767 1.349 . S
C768 C780 1.349 . S
C769 C767 1.327 . S
C769 C785 1.429 . S
C769 H791 0.950 . S
C770 H766 0.949 . S
C770 C778 1.574 . S
C770 C786 1.368 . S
H771 C779 0.950 . S
H772 C777 0.950 . S
H773 C778 0.949 . S
H774 C780 0.950 . S
H775 C781 0.950 . S
H776 C782 0.949 . S
C777 H772 0.950 . S
C777 C779 1.327 . S
C777 C783 1.429 . S
C778 C770 1.574 . S
C778 H773 0.949 . S
C778 C784 1.368 . S
C779 C763 1.349 . S
C779 H771 0.950 . S
C779 C777 1.327 . S
C780 C768 1.349 . S
C780 H774 0.950 . S
C780 C781 1.327 . S
C781 H775 0.950 . S
C781 C780 1.327 . S
C781 C785 1.429 . S
C782 C765 1.574 . S
C782 H776 0.949 . S
C782 C786 1.368 . S
C783 C764 1.429 . S
C783 C777 1.429 . S
C783 C784 1.523 . S
C784 C765 1.368 . S
C784 C778 1.368 . S
C784 C783 1.523 . S
C785 C769 1.429 . S
C785 C781 1.429 . S
C785 C786 1.523 . S
C786 C770 1.368 . S
C786 C782 1.368 . S
C786 C785 1.523 . S
H787 C762 0.950 . S
H788 C764 0.950 . S
H789 C765 0.949 . S
H790 C767 0.950 . S
H791 C769 0.950 . S
C792 C793 1.349 . S
C792 C794 1.327 . S
C792 H817 0.950 . S
C793 C792 1.349 . S
C793 C809 1.349 . S
C794 C792 1.327 . S
C794 C813 1.429 . S
C794 H818 0.950 . S
C795 C812 1.574 . S
C795 C814 1.368 . S
C795 H819 0.949 . S
H796 C800 0.949 . S
C797 C798 1.349 . S
C797 C799 1.327 . S
C797 H820 0.950 . S
C798 C797 1.349 . S
C798 C810 1.349 . S
C799 C797 1.327 . S
C799 C815 1.429 . S
C799 H821 0.950 . S
C800 H796 0.949 . S
C800 C808 1.574 . S
C800 C816 1.368 . S
H801 C809 0.950 . S
H802 C807 0.950 . S
H803 C808 0.949 . S
H804 C810 0.950 . S
H805 C811 0.950 . S
H806 C812 0.949 . S
C807 H802 0.950 . S
C807 C809 1.327 . S
C807 C813 1.429 . S
C808 C800 1.574 . S
C808 H803 0.949 . S
C808 C814 1.368 . S
C809 C793 1.349 . S
C809 H801 0.950 . S
C809 C807 1.327 . S
C810 C798 1.349 . S
C810 H804 0.950 . S
C810 C811 1.327 . S
C811 H805 0.950 . S
C811 C810 1.327 . S
C811 C815 1.429 . S
C812 C795 1.574 . S
C812 H806 0.949 . S
C812 C816 1.368 . S
C813 C794 1.429 . S
C813 C807 1.429 . S
C813 C814 1.523 . S
C814 C795 1.368 . S
C814 C808 1.368 . S
C814 C813 1.523 . S
C815 C799 1.429 . S
C815 C811 1.429 . S
C815 C816 1.523 . S
C816 C800 1.368 . S
C816 C812 1.368 . S
C816 C815 1.523 . S
H817 C792 0.950 . S
H818 C794 0.950 . S
H819 C795 0.949 . S
H820 C797 0.950 . S
H821 C799 0.950 . S
C822 C823 1.351 . S
C822 C824 1.327 . S
C822 H847 0.950 . S
C823 C822 1.351 . S
C823 C839 1.347 1_554 S
C824 C822 1.327 . S
C824 C843 1.430 . S
C824 H848 0.950 . S
C825 C842 1.574 . S
C825 C844 1.367 1_556 S
C825 H849 0.949 . S
H826 C830 0.949 . S
C827 C828 1.348 1_556 S
C827 C829 1.327 . S
C827 H850 0.950 . S
C828 C827 1.348 1_554 S
C828 C840 1.350 . S
C829 C827 1.327 . S
C829 C845 1.427 1_556 S
C829 H851 0.950 . S
C830 H826 0.949 . S
C830 C838 1.574 . S
C830 C846 1.370 . S
H831 C839 0.950 . S
H832 C837 0.950 . S
H833 C838 0.949 . S
H834 C840 0.950 . S
H835 C841 0.950 . S
H836 C842 0.949 . S
C837 H832 0.950 . S
C837 C839 1.327 . S
C837 C843 1.427 1_556 S
C838 C830 1.574 . S
C838 H833 0.949 . S
C838 C844 1.370 . S
C839 C823 1.347 1_556 S
C839 H831 0.950 . S
C839 C837 1.327 . S
C840 C828 1.350 . S
C840 H834 0.950 . S
C840 C841 1.327 . S
C841 H835 0.950 . S
C841 C840 1.327 . S
C841 C845 1.430 . S
C842 C825 1.574 . S
C842 H836 0.949 . S
C842 C846 1.367 1_556 S
C843 C824 1.430 . S
C843 C837 1.427 1_554 S
C843 C844 1.523 . S
C844 C825 1.367 1_554 S
C844 C838 1.370 . S
C844 C843 1.523 . S
C845 C829 1.427 1_554 S
C845 C841 1.430 . S
C845 C846 1.523 . S
C846 C830 1.370 . S
C846 C842 1.367 1_554 S
C846 C845 1.523 . S
H847 C822 0.950 . S
H848 C824 0.950 . S
H849 C825 0.949 . S
H850 C827 0.950 . S
H851 C829 0.950 . S
C852 C853 1.349 . S
C852 C854 1.327 . S
C852 H877 0.950 . S
C853 C852 1.349 . S
C853 C869 1.349 . S
C854 C852 1.327 . S
C854 C873 1.429 . S
C854 H878 0.950 . S
C855 C872 1.574 . S
C855 C874 1.368 . S
C855 H879 0.949 . S
H856 C860 0.949 . S
C857 C858 1.349 . S
C857 C859 1.327 . S
C857 H880 0.950 . S
C858 C857 1.349 . S
C858 C870 1.349 . S
C859 C857 1.327 . S
C859 C875 1.429 . S
C859 H881 0.950 . S
C860 H856 0.949 . S
C860 C868 1.574 . S
C860 C876 1.368 . S
H861 C869 0.950 . S
H862 C867 0.950 . S
H863 C868 0.949 . S
H864 C870 0.950 . S
H865 C871 0.950 . S
H866 C872 0.949 . S
C867 H862 0.950 . S
C867 C869 1.327 . S
C867 C873 1.429 . S
C868 C860 1.574 . S
C868 H863 0.949 . S
C868 C874 1.368 . S
C869 C853 1.349 . S
C869 H861 0.950 . S
C869 C867 1.327 . S
C870 C858 1.349 . S
C870 H864 0.950 . S
C870 C871 1.327 . S
C871 H865 0.950 . S
C871 C870 1.327 . S
C871 C875 1.429 . S
C872 C855 1.574 . S
C872 H866 0.949 . S
C872 C876 1.368 . S
C873 C854 1.429 . S
C873 C867 1.429 . S
C873 C874 1.523 . S
C874 C855 1.368 . S
C874 C868 1.368 . S
C874 C873 1.523 . S
C875 C859 1.429 . S
C875 C871 1.429 . S
C875 C876 1.523 . S
C876 C860 1.368 . S
C876 C872 1.368 . S
C876 C875 1.523 . S
H877 C852 0.950 . S
H878 C854 0.950 . S
H879 C855 0.949 . S
H880 C857 0.950 . S
H881 C859 0.950 . S
C882 C883 1.344 1_556 S
C882 C884 1.327 . S
C882 H907 0.950 . S
C883 C882 1.344 1_554 S
C883 C899 1.354 . S
C884 C882 1.327 . S
C884 C903 1.423 1_556 S
C884 H908 0.950 . S
C885 C902 1.574 . S
C885 C904 1.374 . S
C885 H909 0.949 . S
H886 C890 0.949 . S
C887 C888 1.355 . S
C887 C889 1.327 . S
C887 H910 0.950 . S
C888 C887 1.355 . S
C888 C900 1.343 1_554 S
C889 C887 1.327 . S
C889 C905 1.434 . S
C889 H911 0.950 . S
C890 H886 0.949 . S
C890 C898 1.574 . S
C890 C906 1.362 1_556 S
H891 C899 0.950 . S
H892 C897 0.950 . S
H893 C898 0.949 . S
H894 C900 0.950 . S
H895 C901 0.950 . S
H896 C902 0.949 . S
C897 H892 0.950 . S
C897 C899 1.327 . S
C897 C903 1.434 . S
C898 C890 1.574 . S
C898 H893 0.949 . S
C898 C904 1.362 1_556 S
C899 C883 1.354 . S
C899 H891 0.950 . S
C899 C897 1.327 . S
C900 C888 1.343 1_556 S
C900 H894 0.950 . S
C900 C901 1.327 . S
C901 H895 0.950 . S
C901 C900 1.327 . S
C901 C905 1.423 1_556 S
C902 C885 1.574 . S
C902 H896 0.949 . S
C902 C906 1.374 . S
C903 C884 1.423 1_554 S
C903 C897 1.434 . S
C903 C904 1.523 . S
C904 C885 1.374 . S
C904 C898 1.362 1_554 S
C904 C903 1.523 . S
C905 C889 1.434 . S
C905 C901 1.423 1_554 S
C905 C906 1.523 . S
C906 C890 1.362 1_554 S
C906 C902 1.374 . S
C906 C905 1.523 . S
H907 C882 0.950 . S
H908 C884 0.950 . S
H909 C885 0.949 . S
H910 C887 0.950 . S
H911 C889 0.950 . S
C193 C5 1.465 . S
C198 N128 1.476 . S
C223 C31 1.465 . S
C228 N89 1.477 . S
C258 N106 1.483 . S
C253 C53 1.465 . S
C283 C71 1.465 . S
C288 N119 1.483 . S
C318 N158 1.483 . S
C313 C75 1.464 . S
C348 N171 1.483 . S
C343 C9 1.465 . S
C378 N180 1.476 . S
C373 C27 1.465 . S
C408 N141 1.476 . S
C403 C49 1.465 . S
C433 C51 1.465 . S
C438 N102 1.484 . S
C463 C72 1.465 . S
C468 N115 1.484 . S
C493 C6 1.465 . S
C498 N132 1.481 . S
C528 N93 1.481 . S
C523 C29 1.464 . S
C553 C28 1.465 . S
C558 N184 1.481 . S
C588 N145 1.481 . S
C583 C50 1.465 . S
C618 N154 1.484 . S
C613 C73 1.466 . S
C643 C7 1.465 . S
C648 N167 1.484 . S
C678 N90 1.511 1_554 S
C673 C4 1.498 . S
C708 N103 1.516 . S
C703 C30 1.499 . S
C733 C52 1.498 . S
C738 N116 1.516 . S
C763 C70 1.498 . S
C768 N129 1.511 . S
C798 N142 1.511 . S
C793 C74 1.499 . S
C823 C8 1.498 . S
C828 N155 1.515 1_554 S
C853 C26 1.498 . S
C858 N168 1.515 . S
C883 C48 1.498 . S
C888 N181 1.511 . S
