# Generated by pormake.
# Topology ctn, (3,4)-cn, num edge types: 1
# Building blocks:
#     Node 0, Type 0, BuildingBlock: ESEHIV_clean_linker_0, # of connection points: 3
#     Node 1, Type 0, BuildingBlock: ESEHIV_clean_linker_0, # of connection points: 3
#     Node 2, Type 0, BuildingBlock: ESEHIV_clean_linker_0, # of connection points: 3
#     Node 3, Type 0, BuildingBlock: ESEHIV_clean_linker_0, # of connection points: 3
#     Node 4, Type 0, BuildingBlock: ESEHIV_clean_linker_0, # of connection points: 3
#     Node 5, Type 0, BuildingBlock: ESEHIV_clean_linker_0, # of connection points: 3
#     Node 6, Type 0, BuildingBlock: ESEHIV_clean_linker_0, # of connection points: 3
#     Node 7, Type 0, BuildingBlock: ESEHIV_clean_linker_0, # of connection points: 3
#     Node 8, Type 0, BuildingBlock: ESEHIV_clean_linker_0, # of connection points: 3
#     Node 9, Type 0, BuildingBlock: ESEHIV_clean_linker_0, # of connection points: 3
#     Node 10, Type 0, BuildingBlock: ESEHIV_clean_linker_0, # of connection points: 3
#     Node 11, Type 0, BuildingBlock: ESEHIV_clean_linker_0, # of connection points: 3
#     Node 12, Type 0, BuildingBlock: ESEHIV_clean_linker_0, # of connection points: 3
#     Node 13, Type 0, BuildingBlock: ESEHIV_clean_linker_0, # of connection points: 3
#     Node 14, Type 0, BuildingBlock: ESEHIV_clean_linker_0, # of connection points: 3
#     Node 15, Type 0, BuildingBlock: ESEHIV_clean_linker_0, # of connection points: 3
#     Node 16, Type 1, BuildingBlock: AZAVOO_clean_sbu_0, # of connection points: 4
#     Node 17, Type 1, BuildingBlock: AZAVOO_clean_sbu_0, # of connection points: 4
#     Node 18, Type 1, BuildingBlock: AZAVOO_clean_sbu_0, # of connection points: 4
#     Node 19, Type 1, BuildingBlock: AZAVOO_clean_sbu_0, # of connection points: 4
#     Node 20, Type 1, BuildingBlock: AZAVOO_clean_sbu_0, # of connection points: 4
#     Node 21, Type 1, BuildingBlock: AZAVOO_clean_sbu_0, # of connection points: 4
#     Node 22, Type 1, BuildingBlock: AZAVOO_clean_sbu_0, # of connection points: 4
#     Node 23, Type 1, BuildingBlock: AZAVOO_clean_sbu_0, # of connection points: 4
#     Node 24, Type 1, BuildingBlock: AZAVOO_clean_sbu_0, # of connection points: 4
#     Node 25, Type 1, BuildingBlock: AZAVOO_clean_sbu_0, # of connection points: 4
#     Node 26, Type 1, BuildingBlock: AZAVOO_clean_sbu_0, # of connection points: 4
#     Node 27, Type 1, BuildingBlock: AZAVOO_clean_sbu_0, # of connection points: 4
#     Edge 28, Type (0, 1), None
#     Edge 29, Type (0, 1), None
#     Edge 30, Type (0, 1), None
#     Edge 31, Type (0, 1), None
#     Edge 32, Type (0, 1), None
#     Edge 33, Type (0, 1), None
#     Edge 34, Type (0, 1), None
#     Edge 35, Type (0, 1), None
#     Edge 36, Type (0, 1), None
#     Edge 37, Type (0, 1), None
#     Edge 38, Type (0, 1), None
#     Edge 39, Type (0, 1), None
#     Edge 40, Type (0, 1), None
#     Edge 41, Type (0, 1), None
#     Edge 42, Type (0, 1), None
#     Edge 43, Type (0, 1), None
#     Edge 44, Type (0, 1), None
#     Edge 45, Type (0, 1), None
#     Edge 46, Type (0, 1), None
#     Edge 47, Type (0, 1), None
#     Edge 48, Type (0, 1), None
#     Edge 49, Type (0, 1), None
#     Edge 50, Type (0, 1), None
#     Edge 51, Type (0, 1), None
#     Edge 52, Type (0, 1), None
#     Edge 53, Type (0, 1), None
#     Edge 54, Type (0, 1), None
#     Edge 55, Type (0, 1), None
#     Edge 56, Type (0, 1), None
#     Edge 57, Type (0, 1), None
#     Edge 58, Type (0, 1), None
#     Edge 59, Type (0, 1), None
#     Edge 60, Type (0, 1), None
#     Edge 61, Type (0, 1), None
#     Edge 62, Type (0, 1), None
#     Edge 63, Type (0, 1), None
#     Edge 64, Type (0, 1), None
#     Edge 65, Type (0, 1), None
#     Edge 66, Type (0, 1), None
#     Edge 67, Type (0, 1), None
#     Edge 68, Type (0, 1), None
#     Edge 69, Type (0, 1), None
#     Edge 70, Type (0, 1), None
#     Edge 71, Type (0, 1), None
#     Edge 72, Type (0, 1), None
#     Edge 73, Type (0, 1), None
#     Edge 74, Type (0, 1), None
#     Edge 75, Type (0, 1), None
# Relax obj value: 0.003
# Max RMSD: 0.040
# Mean RMSD: 0.025
data_MOF--net-ctn--node1-AZAVOO_clean_sbu_0--node2-ESEHIV_clean_linker_0--edge1-none
_symmetry_space_group_name_H-M    P1
_symmetry_Int_Tables_number       1
_symmetry_cell_setting            triclinic
loop_
_symmetry_equiv_pos_as_xyz
'x, y, z'
_cell_length_a     20.749545
_cell_length_b     20.918489
_cell_length_c     20.830089
_cell_angle_alpha  88.638703
_cell_angle_beta   94.717196
_cell_angle_gamma 95.28351
loop_
_atom_site_label
_atom_site_type_symbol
_atom_site_fract_x
_atom_site_fract_y
_atom_site_fract_z
_atom_type_partial_charge
H0 H 0.94933 0.13441 0.02889 0.0
H1 H 0.01137 0.94891 0.07773 0.0
H2 H 0.07245 0.04701 0.90586 0.0
C3 C 0.97409 0.09379 0.01613 0.0
C4 C 0.00885 0.09722 0.96099 0.0
C5 C 0.97618 0.04132 0.05883 0.0
C6 C 0.00943 0.98924 0.04417 0.0
C7 C 0.04314 0.99019 0.98845 0.0
C8 C 0.04377 0.0448 0.94718 0.0
H9 H 0.28768 0.66368 0.32893 0.0
H10 H 0.34612 0.83179 0.21652 0.0
H11 H 0.17049 0.71161 0.15964 0.0
C12 C 0.27904 0.69628 0.28836 0.0
C13 C 0.22453 0.68305 0.24615 0.0
C14 C 0.32294 0.74974 0.27915 0.0
C15 C 0.31208 0.79059 0.22492 0.0
C16 C 0.25618 0.77715 0.18178 0.0
C17 C 0.21263 0.72324 0.19308 0.0
H18 H -0.00133 0.58379 0.1153 0.0
H19 H 0.08044 0.42548 0.03589 0.0
H20 H 0.89164 0.47613 0.96115 0.0
C21 C -0.00455 0.54639 0.07964 0.0
C22 C 0.94074 0.53775 0.03558 0.0
C23 C 0.04527 0.50587 0.08003 0.0
C24 C 0.04249 0.45805 0.03398 0.0
C25 C 0.9871 0.44668 0.99113 0.0
C26 C 0.93554 0.48613 0.99254 0.0
H27 H 0.65142 0.73639 0.22344 0.0
H28 H 0.83919 0.7957 0.15956 0.0
H29 H 0.75337 0.91561 0.28783 0.0
C30 C 0.69344 0.7713 0.22377 0.0
C31 C 0.69652 0.82729 0.26071 0.0
C32 C 0.74587 0.7593 0.18901 0.0
C33 C 0.79993 0.80434 0.1887 0.0
C34 C 0.80236 0.8617 0.22243 0.0
C35 C 0.75083 0.87259 0.25936 0.0
H36 H 0.9863 0.87988 0.42386 0.0
H37 H 0.0503 0.08013 0.42489 0.0
H38 H 0.08928 0.96324 0.5945 0.0
C39 C 0.00894 0.92157 0.44981 0.0
C40 C 0.03264 0.91536 0.51449 0.0
C41 C 0.01509 0.98087 0.41802 0.0
C42 C 0.04415 0.03458 0.45079 0.0
C43 C 0.07213 0.0287 0.51385 0.0
C44 C 0.06624 0.96875 0.54634 0.0
H45 H 0.11878 0.77694 0.79492 0.0
H46 H 0.29472 0.68503 0.84668 0.0
H47 H 0.17979 0.63259 0.67417 0.0
C48 C 0.15266 0.74251 0.78561 0.0
C49 C 0.14344 0.70613 0.72839 0.0
C50 C 0.20736 0.73451 0.82975 0.0
C51 C 0.25159 0.69082 0.81483 0.0
C52 C 0.24173 0.65419 0.75933 0.0
C53 C 0.18718 0.66111 0.71742 0.0
H54 H 0.86552 0.51453 0.56132 0.0
H55 H 0.03769 0.59874 0.47987 0.0
H56 H 0.95405 0.41237 0.41933 0.0
C57 C 0.90372 0.51196 0.52921 0.0
C58 C 0.90435 0.45717 0.49131 0.0
C59 C 0.952 0.56335 0.52559 0.0
C60 C 0.00074 0.55923 0.48363 0.0
C61 C 0.00158 0.50558 0.44473 0.0
C62 C 0.95338 0.45427 0.44883 0.0
H63 H 0.66691 0.81519 0.85183 0.0
H64 H 0.79531 0.83396 0.7003 0.0
H65 H 0.80281 0.67392 0.83302 0.0
C66 C 0.70375 0.79591 0.8259 0.0
C67 C 0.73124 0.7398 0.84893 0.0
C68 C 0.72759 0.83083 0.77333 0.0
C69 C 0.77692 0.80732 0.74124 0.0
C70 C 0.80386 0.75067 0.76196 0.0
C71 C 0.78055 0.71659 0.81562 0.0
H72 H 0.16691 0.31519 0.35183 0.0
H73 H 0.29531 0.33396 0.2003 0.0
H74 H 0.30281 0.17392 0.33302 0.0
C75 C 0.20375 0.29591 0.3259 0.0
C76 C 0.23124 0.2398 0.34893 0.0
C77 C 0.22759 0.33083 0.27333 0.0
C78 C 0.27692 0.30732 0.24124 0.0
C79 C 0.30386 0.25067 0.26196 0.0
C80 C 0.28055 0.21659 0.31562 0.0
H81 H 0.49867 0.08379 0.6153 0.0
H82 H 0.58044 0.92548 0.53589 0.0
H83 H 0.39164 0.97613 0.46115 0.0
C84 C 0.49545 0.04639 0.57964 0.0
C85 C 0.44074 0.03775 0.53558 0.0
C86 C 0.54527 0.00587 0.58003 0.0
C87 C 0.54249 0.95805 0.53398 0.0
C88 C 0.4871 0.94668 0.49113 0.0
C89 C 0.43554 0.98613 0.49254 0.0
H90 H 0.15142 0.23639 0.72344 0.0
H91 H 0.33919 0.2957 0.65956 0.0
H92 H 0.25337 0.41561 0.78783 0.0
C93 C 0.19344 0.2713 0.72377 0.0
C94 C 0.19652 0.32729 0.76071 0.0
C95 C 0.24587 0.2593 0.68901 0.0
C96 C 0.29993 0.30434 0.6887 0.0
C97 C 0.30236 0.3617 0.72243 0.0
C98 C 0.25083 0.37259 0.75936 0.0
H99 H 0.78768 0.16368 0.82893 0.0
H100 H 0.84612 0.33179 0.71652 0.0
H101 H 0.67049 0.21161 0.65964 0.0
C102 C 0.77904 0.19628 0.78836 0.0
C103 C 0.72453 0.18305 0.74615 0.0
C104 C 0.82294 0.24974 0.77915 0.0
C105 C 0.81208 0.29059 0.72492 0.0
C106 C 0.75618 0.27715 0.68178 0.0
C107 C 0.71263 0.22324 0.69308 0.0
H108 H 0.44933 0.63441 0.52889 0.0
H109 H 0.51137 0.44891 0.57773 0.0
H110 H 0.57245 0.54701 0.40586 0.0
C111 C 0.47409 0.59379 0.51613 0.0
C112 C 0.50885 0.59722 0.46099 0.0
C113 C 0.47618 0.54132 0.55883 0.0
C114 C 0.50943 0.48924 0.54417 0.0
C115 C 0.54314 0.49019 0.48845 0.0
C116 C 0.54377 0.5448 0.44718 0.0
H117 H 0.4863 0.37988 0.92386 0.0
H118 H 0.5503 0.58013 0.92489 0.0
H119 H 0.58928 0.46324 0.0945 0.0
C120 C 0.50894 0.42157 0.94981 0.0
C121 C 0.53264 0.41536 0.01449 0.0
C122 C 0.51509 0.48087 0.91802 0.0
C123 C 0.54415 0.53458 0.95079 0.0
C124 C 0.57213 0.5287 0.01385 0.0
C125 C 0.56624 0.46875 0.04634 0.0
H126 H 0.61878 0.27694 0.29492 0.0
H127 H 0.79472 0.18503 0.34668 0.0
H128 H 0.67979 0.13259 0.17417 0.0
C129 C 0.65266 0.24251 0.28561 0.0
C130 C 0.64344 0.20613 0.22839 0.0
C131 C 0.70736 0.23451 0.32975 0.0
C132 C 0.75159 0.19082 0.31483 0.0
C133 C 0.74173 0.15419 0.25933 0.0
C134 C 0.68718 0.16111 0.21742 0.0
H135 H 0.36552 0.01453 0.06132 0.0
H136 H 0.53769 0.09874 0.97987 0.0
H137 H 0.45405 0.91237 0.91933 0.0
C138 C 0.40372 0.01196 0.02921 0.0
C139 C 0.40435 0.95717 0.99131 0.0
C140 C 0.452 0.06335 0.02559 0.0
C141 C 0.50074 0.05923 0.98363 0.0
C142 C 0.50158 0.00558 0.94473 0.0
C143 C 0.45338 0.95427 0.94883 0.0
Mg144 Mg 0.19725 0.85694 0.01208 0.0
O145 O 0.29532 0.91438 -0.00103 0.0
O146 O 0.37279 0.84634 0.00578 0.0
Mg147 Mg 0.32496 0.74569 0.02798 0.0
C148 C 0.35455 0.90279 0.99769 0.0
C149 C 0.08136 0.93546 0.97901 0.0
O150 O 0.0554 0.87712 0.9908 0.0
O151 O 0.1891 0.81363 0.90884 0.0
O152 O 0.26429 0.74548 0.93207 0.0
O153 O 0.21536 0.86706 0.12106 0.0
O154 O 0.24395 0.78641 0.0677 0.0
C155 C 0.22056 0.76732 0.89305 0.0
C156 C 0.24303 0.81413 0.12173 0.0
O157 O 0.14276 0.94454 0.97901 0.0
Mg158 Mg 0.13238 0.51789 0.29095 0.0
O159 O 0.08041 0.51013 0.19024 0.0
O160 O 0.15579 0.51555 0.11831 0.0
Mg161 Mg 0.25542 0.53153 0.17334 0.0
C162 C 0.09684 0.51018 0.13242 0.0
C163 C 0.0535 0.50552 0.40041 0.0
O164 O 0.11049 0.53607 0.41682 0.0
O165 O 0.16272 0.41697 0.28656 0.0
O166 O 0.24176 0.43133 0.21946 0.0
O167 O 0.13049 0.62411 0.28452 0.0
O168 O 0.20886 0.57012 0.25258 0.0
C169 C 0.20792 0.39584 0.25731 0.0
C170 C 0.18436 0.62381 0.25737 0.0
O171 O 0.04242 0.48489 0.34327 0.0
Mg172 Mg 0.76838 0.64567 0.04675 0.0
O173 O 0.67609 0.57642 0.04688 0.0
O174 O 0.5944 0.6391 0.03158 0.0
Mg175 Mg 0.63104 0.7451 0.04054 0.0
C176 C 0.61564 0.58374 0.03799 0.0
C177 C 0.88971 0.58231 0.038 0.0
O178 O 0.90564 0.64079 0.05921 0.0
O179 O 0.7495 0.67014 0.93975 0.0
O180 O 0.67649 0.74197 0.9441 0.0
O181 O 0.7771 0.65843 0.15477 0.0
O182 O 0.72288 0.71797 0.08533 0.0
C183 C 0.71594 0.71334 0.91323 0.0
C184 C 0.74231 0.70641 0.14381 0.0
O185 O 0.82996 0.56441 0.02555 0.0
Mg186 Mg 0.92091 0.06152 0.23364 0.0
O187 O 0.85374 0.96793 0.22971 0.0
O188 O 0.91324 0.8887 0.20702 0.0
Mg189 Mg 0.01755 0.93063 0.20126 0.0
C190 C 0.85948 0.90887 0.2195 0.0
C191 C 0.79075 0.11212 0.24256 0.0
O192 O 0.78213 0.0792 0.18911 0.0
O193 O 0.9603 0.03129 0.33113 0.0
O194 O 0.01851 0.95031 0.3101 0.0
O195 O 0.90339 0.07998 0.12944 0.0
O196 O 0.98188 0.02416 0.17357 0.0
C197 C -0.00427 0.98681 0.34935 0.0
C198 C 0.95147 0.04621 0.12242 0.0
O199 O 0.84464 0.11249 0.27597 0.0
Mg200 Mg 0.26838 0.14567 0.54675 0.0
O201 O 0.17609 0.07642 0.54688 0.0
O202 O 0.0944 0.1391 0.53158 0.0
Mg203 Mg 0.13104 0.2451 0.54054 0.0
C204 C 0.11564 0.08374 0.53799 0.0
C205 C 0.38971 0.08231 0.538 0.0
O206 O 0.40564 0.14079 0.55921 0.0
O207 O 0.2495 0.17014 0.43975 0.0
O208 O 0.17649 0.24197 0.4441 0.0
O209 O 0.2771 0.15843 0.65477 0.0
O210 O 0.22288 0.21797 0.58533 0.0
C211 C 0.21594 0.21334 0.41323 0.0
C212 C 0.24231 0.20641 0.64381 0.0
O213 O 0.32996 0.06441 0.52555 0.0
Mg214 Mg 0.42091 0.56152 0.73364 0.0
O215 O 0.35374 0.46793 0.72971 0.0
O216 O 0.41324 0.3887 0.70702 0.0
Mg217 Mg 0.51755 0.43063 0.70126 0.0
C218 C 0.35948 0.40887 0.7195 0.0
C219 C 0.29075 0.61212 0.74256 0.0
O220 O 0.28213 0.5792 0.68911 0.0
O221 O 0.4603 0.53129 0.83113 0.0
O222 O 0.51851 0.45031 0.8101 0.0
O223 O 0.40339 0.57998 0.62944 0.0
O224 O 0.48188 0.52416 0.67357 0.0
C225 C 0.49573 0.48681 0.84935 0.0
C226 C 0.45147 0.54621 0.62242 0.0
O227 O 0.34464 0.61249 0.77597 0.0
Mg228 Mg 0.69725 0.35694 0.51208 0.0
O229 O 0.79532 0.41438 0.49897 0.0
O230 O 0.87279 0.34634 0.50578 0.0
Mg231 Mg 0.82496 0.24569 0.52798 0.0
C232 C 0.85455 0.40279 0.49769 0.0
C233 C 0.58136 0.43546 0.47901 0.0
O234 O 0.5554 0.37712 0.4908 0.0
O235 O 0.6891 0.31363 0.40884 0.0
O236 O 0.76429 0.24548 0.43207 0.0
O237 O 0.71536 0.36706 0.62106 0.0
O238 O 0.74395 0.28641 0.5677 0.0
C239 C 0.72056 0.26732 0.39305 0.0
C240 C 0.74303 0.31413 0.62173 0.0
O241 O 0.64276 0.44454 0.47901 0.0
Mg242 Mg 0.63238 0.01789 0.79095 0.0
O243 O 0.58041 0.01013 0.69024 0.0
O244 O 0.65579 0.01555 0.61831 0.0
Mg245 Mg 0.75542 0.03153 0.67334 0.0
C246 C 0.59684 0.01018 0.63242 0.0
C247 C 0.5535 0.00552 0.90041 0.0
O248 O 0.61049 0.03607 0.91682 0.0
O249 O 0.66272 0.91697 0.78656 0.0
O250 O 0.74176 0.93133 0.71946 0.0
O251 O 0.63049 0.12411 0.78452 0.0
O252 O 0.70886 0.07012 0.75258 0.0
C253 C 0.70792 0.89584 0.75731 0.0
C254 C 0.68436 0.12381 0.75737 0.0
O255 O 0.54242 0.98489 0.84327 0.0
Mg256 Mg 0.03403 0.2725 0.87753 0.0
O257 O 0.93596 0.26717 0.81438 0.0
O258 O 0.86317 0.24792 0.88731 0.0
Mg259 Mg 0.9082 0.23419 0.98897 0.0
C260 C 0.87726 0.25961 0.82942 0.0
C261 C 0.14698 0.33434 0.80618 0.0
O262 O 0.16584 0.35026 0.86587 0.0
O263 O 0.01449 0.37123 0.91613 0.0
O264 O 0.94246 0.34072 0.98803 0.0
O265 O 0.04462 0.16582 0.87232 0.0
O266 O -0.00295 0.21067 0.94792 0.0
C267 C 0.97769 0.38404 0.95979 0.0
C268 C 0.01545 0.15933 0.92486 0.0
O269 O 0.08925 0.30989 0.7931 0.0
Mg270 Mg 0.53403 0.7725 0.37753 0.0
O271 O 0.43596 0.76717 0.31438 0.0
O272 O 0.36317 0.74792 0.38731 0.0
Mg273 Mg 0.4082 0.73419 0.48897 0.0
C274 C 0.37726 0.75961 0.32942 0.0
C275 C 0.64698 0.83434 0.30618 0.0
O276 O 0.66584 0.85026 0.36587 0.0
O277 O 0.51449 0.87123 0.41613 0.0
O278 O 0.44246 0.84072 0.48803 0.0
O279 O 0.54462 0.66582 0.37232 0.0
O280 O 0.49705 0.71067 0.44792 0.0
C281 C 0.47769 0.88404 0.45979 0.0
C282 C 0.51545 0.65933 0.42486 0.0
O283 O 0.58925 0.80989 0.2931 0.0
Mg284 Mg 0.94494 0.73224 0.61235 0.0
O285 O 0.03451 0.72143 0.68534 0.0
O286 O 0.1111 0.71027 0.6181 0.0
Mg287 Mg 0.0761 0.70399 0.51223 0.0
C288 C 0.09355 0.71587 0.67491 0.0
C289 C 0.85634 0.72847 0.72678 0.0
O290 O 0.86638 0.66738 0.72761 0.0
O291 O 0.98804 0.83404 0.58405 0.0
O292 O 0.05797 0.80933 0.51401 0.0
O293 O 0.9138 0.62576 0.60924 0.0
O294 O 0.97966 0.67634 0.54364 0.0
C295 C 0.02907 0.85028 0.54259 0.0
C296 C 0.9491 0.62339 0.56118 0.0
O297 O 0.88645 0.76735 0.68914 0.0
Mg298 Mg 0.44494 0.23224 0.11235 0.0
O299 O 0.53451 0.22143 0.18534 0.0
O300 O 0.6111 0.21027 0.1181 0.0
Mg301 Mg 0.5761 0.20399 0.01223 0.0
C302 C 0.59355 0.21587 0.17491 0.0
C303 C 0.35634 0.22847 0.22678 0.0
O304 O 0.36638 0.16738 0.22761 0.0
O305 O 0.48804 0.33404 0.08405 0.0
O306 O 0.55797 0.30933 0.01401 0.0
O307 O 0.4138 0.12576 0.10924 0.0
O308 O 0.47966 0.17634 0.04364 0.0
C309 C 0.52907 0.35028 0.04259 0.0
C310 C 0.4491 0.12339 0.06118 0.0
O311 O 0.38645 0.26735 0.18914 0.0
loop_
_geom_bond_atom_site_label_1
_geom_bond_atom_site_label_2
_geom_bond_distance
_geom_bond_site_symmetry_2
_ccdc_geom_bond_type
H0 C3 0.931 . S
H1 C6 0.928 . S
H2 C8 0.930 . S
C3 H0 0.931 . S
C3 C4 1.413 1_654 S
C3 C5 1.360 . S
C4 C3 1.413 1_456 S
C4 C8 1.429 . S
C5 C3 1.360 . S
C5 C6 1.372 1_645 S
C6 H1 0.928 . S
C6 C5 1.372 1_465 S
C6 C7 1.404 . S
C7 C6 1.404 . S
C7 C8 1.391 1_564 S
C8 H2 0.930 . S
C8 C4 1.429 . S
C8 C7 1.391 1_546 S
H9 C12 0.931 . S
H10 C15 0.928 . S
H11 C17 0.930 . S
C12 H9 0.931 . S
C12 C13 1.413 . S
C12 C14 1.360 . S
C13 C12 1.413 . S
C13 C17 1.429 . S
C14 C12 1.360 . S
C14 C15 1.372 . S
C15 H10 0.928 . S
C15 C14 1.372 . S
C15 C16 1.404 . S
C16 C15 1.404 . S
C16 C17 1.391 . S
C17 H11 0.930 . S
C17 C13 1.429 . S
C17 C16 1.391 . S
H18 C21 0.931 . S
H19 C24 0.928 . S
H20 C26 0.930 1_556 S
C21 H18 0.931 . S
C21 C22 1.413 . S
C21 C23 1.360 1_655 S
C22 C21 1.413 . S
C22 C26 1.429 . S
C23 C21 1.360 1_455 S
C23 C24 1.372 . S
C24 H19 0.928 . S
C24 C23 1.372 . S
C24 C25 1.404 1_455 S
C25 C24 1.404 1_655 S
C25 C26 1.391 . S
C26 H20 0.930 1_554 S
C26 C22 1.429 . S
C26 C25 1.391 . S
H27 C30 0.931 . S
H28 C33 0.928 . S
H29 C35 0.930 . S
C30 H27 0.931 . S
C30 C31 1.413 . S
C30 C32 1.360 . S
C31 C30 1.413 . S
C31 C35 1.429 . S
C32 C30 1.360 . S
C32 C33 1.372 . S
C33 H28 0.928 . S
C33 C32 1.372 . S
C33 C34 1.404 . S
C34 C33 1.404 . S
C34 C35 1.391 . S
C35 H29 0.930 . S
C35 C31 1.429 . S
C35 C34 1.391 . S
H36 C39 0.918 1_655 S
H37 C42 0.928 . S
H38 C44 0.930 . S
C39 H36 0.918 1_455 S
C39 C40 1.423 . S
C39 C41 1.363 . S
C40 C39 1.423 . S
C40 C44 1.429 . S
C41 C39 1.363 . S
C41 C42 1.372 1_565 S
C42 H37 0.928 . S
C42 C41 1.372 1_545 S
C42 C43 1.404 . S
C43 C42 1.404 . S
C43 C44 1.391 1_545 S
C44 H38 0.930 . S
C44 C40 1.429 . S
C44 C43 1.391 1_565 S
H45 C48 0.931 . S
H46 C51 0.928 . S
H47 C53 0.930 . S
C48 H45 0.931 . S
C48 C49 1.413 . S
C48 C50 1.360 . S
C49 C48 1.413 . S
C49 C53 1.429 . S
C50 C48 1.360 . S
C50 C51 1.372 . S
C51 H46 0.928 . S
C51 C50 1.372 . S
C51 C52 1.404 . S
C52 C51 1.404 . S
C52 C53 1.391 . S
C53 H47 0.930 . S
C53 C49 1.429 . S
C53 C52 1.391 . S
H54 C57 0.931 . S
H55 C60 0.928 . S
H56 C62 0.930 . S
C57 H54 0.931 . S
C57 C58 1.413 . S
C57 C59 1.360 . S
C58 C57 1.413 . S
C58 C62 1.429 . S
C59 C57 1.360 . S
C59 C60 1.372 1_655 S
C60 H55 0.928 . S
C60 C59 1.372 1_455 S
C60 C61 1.403 1_455 S
C61 C60 1.403 1_655 S
C61 C62 1.402 . S
C62 H56 0.930 . S
C62 C58 1.429 . S
C62 C61 1.402 . S
H63 C66 0.931 . S
H64 C69 0.928 . S
H65 C71 0.930 . S
C66 H63 0.931 . S
C66 C67 1.413 . S
C66 C68 1.360 . S
C67 C66 1.413 . S
C67 C71 1.429 . S
C68 C66 1.360 . S
C68 C69 1.372 . S
C69 H64 0.928 . S
C69 C68 1.372 . S
C69 C70 1.404 . S
C70 C69 1.404 . S
C70 C71 1.391 . S
C71 H65 0.930 . S
C71 C67 1.429 . S
C71 C70 1.391 . S
H72 C75 0.931 . S
H73 C78 0.928 . S
H74 C80 0.930 . S
C75 H72 0.931 . S
C75 C76 1.413 . S
C75 C77 1.360 . S
C76 C75 1.413 . S
C76 C80 1.429 . S
C77 C75 1.360 . S
C77 C78 1.372 . S
C78 H73 0.928 . S
C78 C77 1.372 . S
C78 C79 1.404 . S
C79 C78 1.404 . S
C79 C80 1.391 . S
C80 H74 0.930 . S
C80 C76 1.429 . S
C80 C79 1.391 . S
H81 C84 0.931 . S
H82 C87 0.928 . S
H83 C89 0.930 . S
C84 H81 0.931 . S
C84 C85 1.413 . S
C84 C86 1.360 1_545 S
C85 C84 1.413 . S
C85 C89 1.429 1_545 S
C86 C84 1.360 1_565 S
C86 C87 1.372 . S
C87 H82 0.928 . S
C87 C86 1.372 . S
C87 C88 1.404 . S
C88 C87 1.404 . S
C88 C89 1.391 . S
C89 H83 0.930 . S
C89 C85 1.429 1_565 S
C89 C88 1.391 . S
H90 C93 0.931 . S
H91 C96 0.928 . S
H92 C98 0.930 . S
C93 H90 0.931 . S
C93 C94 1.413 . S
C93 C95 1.360 . S
C94 C93 1.413 . S
C94 C98 1.429 . S
C95 C93 1.360 . S
C95 C96 1.372 . S
C96 H91 0.928 . S
C96 C95 1.372 . S
C96 C97 1.404 . S
C97 C96 1.404 . S
C97 C98 1.391 . S
C98 H92 0.930 . S
C98 C94 1.429 . S
C98 C97 1.391 . S
H99 C102 0.931 . S
H100 C105 0.928 . S
H101 C107 0.930 . S
C102 H99 0.931 . S
C102 C103 1.413 . S
C102 C104 1.360 . S
C103 C102 1.413 . S
C103 C107 1.429 . S
C104 C102 1.360 . S
C104 C105 1.372 . S
C105 H100 0.928 . S
C105 C104 1.372 . S
C105 C106 1.404 . S
C106 C105 1.404 . S
C106 C107 1.391 . S
C107 H101 0.930 . S
C107 C103 1.429 . S
C107 C106 1.391 . S
H108 C111 0.931 . S
H109 C114 0.928 . S
H110 C116 0.930 . S
C111 H108 0.931 . S
C111 C112 1.413 . S
C111 C113 1.360 . S
C112 C111 1.413 . S
C112 C116 1.429 . S
C113 C111 1.360 . S
C113 C114 1.372 . S
C114 H109 0.928 . S
C114 C113 1.372 . S
C114 C115 1.404 . S
C115 C114 1.404 . S
C115 C116 1.391 . S
C116 H110 0.930 . S
C116 C112 1.429 . S
C116 C115 1.391 . S
H117 C120 0.931 . S
H118 C123 0.928 . S
H119 C125 0.930 . S
C120 H117 0.931 . S
C120 C121 1.413 1_556 S
C120 C122 1.360 . S
C121 C120 1.413 1_554 S
C121 C125 1.429 . S
C122 C120 1.360 . S
C122 C123 1.372 . S
C123 H118 0.928 . S
C123 C122 1.372 . S
C123 C124 1.404 . S
C124 C123 1.404 . S
C124 C125 1.391 1_556 S
C125 H119 0.930 . S
C125 C121 1.429 . S
C125 C124 1.391 1_554 S
H126 C129 0.931 . S
H127 C132 0.928 . S
H128 C134 0.930 . S
C129 H126 0.931 . S
C129 C130 1.413 . S
C129 C131 1.360 . S
C130 C129 1.413 . S
C130 C134 1.429 . S
C131 C129 1.360 . S
C131 C132 1.372 . S
C132 H127 0.928 . S
C132 C131 1.372 . S
C132 C133 1.404 . S
C133 C132 1.404 . S
C133 C134 1.391 . S
C134 H128 0.930 . S
C134 C130 1.429 . S
C134 C133 1.391 . S
H135 C138 0.931 . S
H136 C141 0.928 . S
H137 C143 0.930 . S
C138 H135 0.931 . S
C138 C139 1.413 1_544 S
C138 C140 1.360 . S
C139 C138 1.413 1_566 S
C139 C143 1.429 . S
C140 C138 1.360 . S
C140 C141 1.372 1_554 S
C141 H136 0.928 . S
C141 C140 1.372 1_556 S
C141 C142 1.404 . S
C142 C141 1.404 . S
C142 C143 1.391 1_545 S
C143 H137 0.930 . S
C143 C139 1.429 . S
C143 C142 1.391 1_565 S
Mg144 O145 2.028 . S
Mg144 O151 1.986 1_554 S
Mg144 O153 2.114 . S
Mg144 O154 2.251 . S
Mg144 O157 2.010 . S
O145 Mg144 2.028 . S
O145 C148 1.250 1_554 S
O146 Mg147 2.028 . S
O146 C148 1.248 . S
Mg147 O146 2.028 . S
Mg147 O152 2.032 . S
Mg147 O154 2.079 1_556 S
C148 O145 1.250 1_556 S
C148 O146 1.248 . S
C149 O150 1.264 . S
C149 O157 1.249 . S
O150 C149 1.264 . S
O151 Mg144 1.986 1_556 S
O151 C155 1.246 . S
O152 Mg147 2.032 . S
O152 C155 1.259 . S
O153 Mg144 2.114 . S
O153 C156 1.252 . S
O154 Mg144 2.251 . S
O154 Mg147 2.079 1_554 S
O154 C156 1.273 . S
C155 O151 1.246 . S
C155 O152 1.259 . S
C156 O153 1.252 . S
C156 O154 1.273 . S
O157 Mg144 2.010 . S
O157 C149 1.249 . S
Mg158 O159 2.028 . S
Mg158 O165 1.986 . S
Mg158 O167 2.114 . S
Mg158 O168 2.251 . S
Mg158 O171 2.010 . S
O159 Mg158 2.028 . S
O159 C162 1.250 . S
O160 Mg161 2.028 . S
O160 C162 1.248 . S
Mg161 O160 2.028 . S
Mg161 O166 2.032 . S
Mg161 O168 2.079 . S
C162 O159 1.250 . S
C162 O160 1.248 . S
C163 O164 1.264 . S
C163 O171 1.249 . S
O164 C163 1.264 . S
O165 Mg158 1.986 . S
O165 C169 1.246 . S
O166 Mg161 2.032 . S
O166 C169 1.259 . S
O167 Mg158 2.114 . S
O167 C170 1.252 . S
O168 Mg158 2.251 . S
O168 Mg161 2.079 . S
O168 C170 1.273 . S
C169 O165 1.246 . S
C169 O166 1.259 . S
C170 O167 1.252 . S
C170 O168 1.273 . S
O171 Mg158 2.010 . S
O171 C163 1.249 . S
Mg172 O173 2.028 . S
Mg172 O179 1.986 1_554 S
Mg172 O181 2.114 . S
Mg172 O182 2.251 . S
Mg172 O185 2.010 . S
O173 Mg172 2.028 . S
O173 C176 1.249 1_554 S
O174 Mg175 2.028 . S
O174 C176 1.249 . S
Mg175 O174 2.028 . S
Mg175 O180 2.032 . S
Mg175 O182 2.079 1_556 S
C176 O173 1.249 1_556 S
C176 O174 1.249 . S
C177 O178 1.264 . S
C177 O185 1.249 . S
O178 C177 1.264 . S
O179 Mg172 1.986 1_556 S
O179 C183 1.246 . S
O180 Mg175 2.032 . S
O180 C183 1.259 . S
O181 Mg172 2.114 . S
O181 C184 1.252 . S
O182 Mg172 2.251 . S
O182 Mg175 2.079 1_554 S
O182 C184 1.273 . S
C183 O179 1.246 . S
C183 O180 1.259 . S
C184 O181 1.252 . S
C184 O182 1.273 . S
O185 Mg172 2.010 . S
O185 C177 1.249 . S
Mg186 O187 2.028 1_545 S
Mg186 O193 1.986 . S
Mg186 O195 2.114 . S
Mg186 O196 2.251 1_545 S
Mg186 O199 2.010 . S
O187 Mg186 2.028 1_565 S
O187 C190 1.250 . S
O188 Mg189 2.028 . S
O188 C190 1.248 . S
Mg189 O188 2.028 . S
Mg189 O194 2.032 . S
Mg189 O196 2.079 . S
C190 O187 1.250 . S
C190 O188 1.248 . S
C191 O192 1.264 . S
C191 O199 1.249 . S
O192 C191 1.264 . S
O193 Mg186 1.986 . S
O193 C197 1.246 1_545 S
O194 Mg189 2.032 . S
O194 C197 1.259 . S
O195 Mg186 2.114 . S
O195 C198 1.252 . S
O196 Mg186 2.251 1_565 S
O196 Mg189 2.079 . S
O196 C198 1.273 1_565 S
C197 O193 1.246 1_565 S
C197 O194 1.259 . S
C198 O195 1.252 . S
C198 O196 1.273 1_545 S
O199 Mg186 2.010 . S
O199 C191 1.249 . S
Mg200 O201 2.028 . S
Mg200 O207 1.986 . S
Mg200 O209 2.114 . S
Mg200 O210 2.251 . S
Mg200 O213 2.010 . S
O201 Mg200 2.028 . S
O201 C204 1.250 . S
O202 Mg203 2.028 . S
O202 C204 1.248 . S
Mg203 O202 2.028 . S
Mg203 O208 2.032 . S
Mg203 O210 2.079 . S
C204 O201 1.250 . S
C204 O202 1.248 . S
C205 O206 1.264 . S
C205 O213 1.249 . S
O206 C205 1.264 . S
O207 Mg200 1.986 . S
O207 C211 1.246 . S
O208 Mg203 2.032 . S
O208 C211 1.259 . S
O209 Mg200 2.114 . S
O209 C212 1.252 . S
O210 Mg200 2.251 . S
O210 Mg203 2.079 . S
O210 C212 1.273 . S
C211 O207 1.246 . S
C211 O208 1.259 . S
C212 O209 1.252 . S
C212 O210 1.273 . S
O213 Mg200 2.010 . S
O213 C205 1.249 . S
Mg214 O215 2.028 . S
Mg214 O221 1.986 . S
Mg214 O223 2.114 . S
Mg214 O224 2.251 . S
Mg214 O227 2.010 . S
O215 Mg214 2.028 . S
O215 C218 1.250 . S
O216 Mg217 2.028 . S
O216 C218 1.248 . S
Mg217 O216 2.028 . S
Mg217 O222 2.032 . S
Mg217 O224 2.079 . S
C218 O215 1.250 . S
C218 O216 1.248 . S
C219 O220 1.264 . S
C219 O227 1.249 . S
O220 C219 1.264 . S
O221 Mg214 1.986 . S
O221 C225 1.246 . S
O222 Mg217 2.032 . S
O222 C225 1.259 . S
O223 Mg214 2.114 . S
O223 C226 1.252 . S
O224 Mg214 2.251 . S
O224 Mg217 2.079 . S
O224 C226 1.273 . S
C225 O221 1.246 . S
C225 O222 1.259 . S
C226 O223 1.252 . S
C226 O224 1.273 . S
O227 Mg214 2.010 . S
O227 C219 1.249 . S
Mg228 O229 2.028 . S
Mg228 O235 1.986 . S
Mg228 O237 2.114 . S
Mg228 O238 2.251 . S
Mg228 O241 2.010 . S
O229 Mg228 2.028 . S
O229 C232 1.250 . S
O230 Mg231 2.028 . S
O230 C232 1.248 . S
Mg231 O230 2.028 . S
Mg231 O236 2.032 . S
Mg231 O238 2.079 . S
C232 O229 1.250 . S
C232 O230 1.248 . S
C233 O234 1.264 . S
C233 O241 1.249 . S
O234 C233 1.264 . S
O235 Mg228 1.986 . S
O235 C239 1.246 . S
O236 Mg231 2.032 . S
O236 C239 1.259 . S
O237 Mg228 2.114 . S
O237 C240 1.252 . S
O238 Mg228 2.251 . S
O238 Mg231 2.079 . S
O238 C240 1.273 . S
C239 O235 1.246 . S
C239 O236 1.259 . S
C240 O237 1.252 . S
C240 O238 1.273 . S
O241 Mg228 2.010 . S
O241 C233 1.249 . S
Mg242 O243 2.028 1_545 S
Mg242 O249 1.986 1_545 S
Mg242 O251 2.114 . S
Mg242 O252 2.251 . S
Mg242 O255 2.010 . S
O243 Mg242 2.028 1_565 S
O243 C246 1.250 . S
O244 Mg245 2.028 . S
O244 C246 1.248 . S
Mg245 O244 2.028 . S
Mg245 O250 2.032 . S
Mg245 O252 2.079 1_565 S
C246 O243 1.250 . S
C246 O244 1.248 . S
C247 O248 1.264 . S
C247 O255 1.249 . S
O248 C247 1.264 . S
O249 Mg242 1.986 1_565 S
O249 C253 1.246 . S
O250 Mg245 2.032 . S
O250 C253 1.259 . S
O251 Mg242 2.114 . S
O251 C254 1.252 . S
O252 Mg242 2.251 . S
O252 Mg245 2.079 1_545 S
O252 C254 1.273 . S
C253 O249 1.246 . S
C253 O250 1.259 . S
C254 O251 1.252 . S
C254 O252 1.273 . S
O255 Mg242 2.010 . S
O255 C247 1.249 . S
Mg256 O257 2.028 1_455 S
Mg256 O263 1.986 . S
Mg256 O265 2.114 . S
Mg256 O266 2.251 1_455 S
Mg256 O269 2.010 . S
O257 Mg256 2.028 1_655 S
O257 C260 1.250 . S
O258 Mg259 2.028 . S
O258 C260 1.248 . S
Mg259 O258 2.028 . S
Mg259 O264 2.032 . S
Mg259 O266 2.079 . S
C260 O257 1.250 . S
C260 O258 1.248 . S
C261 O262 1.264 . S
C261 O269 1.249 . S
O262 C261 1.264 . S
O263 Mg256 1.986 . S
O263 C267 1.246 1_455 S
O264 Mg259 2.032 . S
O264 C267 1.259 . S
O265 Mg256 2.114 . S
O265 C268 1.252 . S
O266 Mg256 2.251 1_655 S
O266 Mg259 2.079 . S
O266 C268 1.273 1_655 S
C267 O263 1.246 1_655 S
C267 O264 1.259 . S
C268 O265 1.252 . S
C268 O266 1.273 1_455 S
O269 Mg256 2.010 . S
O269 C261 1.249 . S
Mg270 O271 2.028 . S
Mg270 O277 1.986 . S
Mg270 O279 2.114 . S
Mg270 O280 2.251 . S
Mg270 O283 2.010 . S
O271 Mg270 2.028 . S
O271 C274 1.250 . S
O272 Mg273 2.028 . S
O272 C274 1.248 . S
Mg273 O272 2.028 . S
Mg273 O278 2.032 . S
Mg273 O280 2.079 . S
C274 O271 1.250 . S
C274 O272 1.248 . S
C275 O276 1.264 . S
C275 O283 1.249 . S
O276 C275 1.264 . S
O277 Mg270 1.986 . S
O277 C281 1.246 . S
O278 Mg273 2.032 . S
O278 C281 1.259 . S
O279 Mg270 2.114 . S
O279 C282 1.252 . S
O280 Mg270 2.251 . S
O280 Mg273 2.079 . S
O280 C282 1.273 . S
C281 O277 1.246 . S
C281 O278 1.259 . S
C282 O279 1.252 . S
C282 O280 1.273 . S
O283 Mg270 2.010 . S
O283 C275 1.249 . S
Mg284 O285 2.028 1_655 S
Mg284 O291 1.986 . S
Mg284 O293 2.114 . S
Mg284 O294 2.251 1_655 S
Mg284 O297 2.010 . S
O285 Mg284 2.028 1_455 S
O285 C288 1.250 . S
O286 Mg287 2.028 . S
O286 C288 1.248 . S
Mg287 O286 2.028 . S
Mg287 O292 2.032 . S
Mg287 O294 2.079 . S
C288 O285 1.250 . S
C288 O286 1.248 . S
C289 O290 1.264 . S
C289 O297 1.249 . S
O290 C289 1.264 . S
O291 Mg284 1.986 . S
O291 C295 1.245 1_655 S
O292 Mg287 2.032 . S
O292 C295 1.259 . S
O293 Mg284 2.114 . S
O293 C296 1.252 . S
O294 Mg284 2.251 1_455 S
O294 Mg287 2.079 . S
O294 C296 1.273 1_455 S
C295 O291 1.245 1_455 S
C295 O292 1.259 . S
C296 O293 1.252 . S
C296 O294 1.273 1_655 S
O297 Mg284 2.010 . S
O297 C289 1.249 . S
Mg298 O299 2.028 . S
Mg298 O305 1.986 . S
Mg298 O307 2.114 . S
Mg298 O308 2.251 . S
Mg298 O311 2.010 . S
O299 Mg298 2.028 . S
O299 C302 1.250 . S
O300 Mg301 2.028 . S
O300 C302 1.248 . S
Mg301 O300 2.028 . S
Mg301 O306 2.032 . S
Mg301 O308 2.079 . S
C302 O299 1.250 . S
C302 O300 1.248 . S
C303 O304 1.264 . S
C303 O311 1.249 . S
O304 C303 1.264 . S
O305 Mg298 1.986 . S
O305 C309 1.246 . S
O306 Mg301 2.032 . S
O306 C309 1.259 . S
O307 Mg298 2.114 . S
O307 C310 1.252 . S
O308 Mg298 2.251 . S
O308 Mg301 2.079 . S
O308 C310 1.273 . S
C309 O305 1.246 . S
C309 O306 1.259 . S
C310 O307 1.252 . S
C310 O308 1.273 . S
O311 Mg298 2.010 . S
O311 C303 1.249 . S
C155 C50 1.480 . S
C163 C61 1.226 1_455 S
C67 C183 1.419 . S
C197 C41 1.492 1_655 S
C212 C95 1.524 . S
C226 C113 1.513 . S
C106 C240 1.567 . S
C246 C86 1.422 . S
C104 C260 1.507 . S
C281 C88 1.526 . S
C94 C261 1.231 . S
C282 C112 1.519 . S
C70 C289 1.140 . S
C40 C295 1.511 . S
C49 C288 1.467 . S
C59 C296 1.486 . S
C34 C190 1.450 . S
C133 C191 1.228 . S
C148 C139 1.508 . S
C169 C77 1.444 . S
C43 C204 1.456 . S
C254 C103 1.529 . S
C205 C85 1.225 . S
C233 C115 1.180 . S
C239 C131 1.480 . S
C142 C247 1.240 . S
C76 C211 1.419 . S
C225 C122 1.492 . S
C32 C184 1.524 . S
C198 C5 1.513 . S
C156 C16 1.567 . S
C162 C23 1.422 . S
C14 C274 1.507 . S
C25 C267 1.526 1_554 S
C31 C275 1.231 . S
C4 C268 1.519 . S
C303 C79 1.140 . S
C309 C121 1.511 . S
C302 C130 1.467 . S
C140 C310 1.486 . S
C97 C218 1.450 . S
C219 C52 1.228 . S
C232 C58 1.508 . S
C253 C68 1.444 . S
C124 C176 1.459 . S
C170 C13 1.529 . S
C22 C177 1.225 . S
C149 C7 1.180 . S
