# Generated by pormake.
# Topology anh, (6,3)-cn, num edge types: 1
# Building blocks:
#     Node 0, Type 0, BuildingBlock: VOLQOD_clean_sbu_1, # of connection points: 6
#     Node 1, Type 0, BuildingBlock: VOLQOD_clean_sbu_1, # of connection points: 6
#     Node 2, Type 0, BuildingBlock: VOLQOD_clean_sbu_1, # of connection points: 6
#     Node 3, Type 1, BuildingBlock: BETDIP_clean_linker_0, # of connection points: 3
#     Node 4, Type 1, BuildingBlock: BETDIP_clean_linker_0, # of connection points: 3
#     Node 5, Type 1, BuildingBlock: BETDIP_clean_linker_0, # of connection points: 3
#     Node 6, Type 1, BuildingBlock: BETDIP_clean_linker_0, # of connection points: 3
#     Node 7, Type 1, BuildingBlock: BETDIP_clean_linker_0, # of connection points: 3
#     Node 8, Type 1, BuildingBlock: BETDIP_clean_linker_0, # of connection points: 3
#     Edge 9, Type (0, 1), BuildingBlock: KIFKEQ_clean_linker_1, # of connection points: 2
#     Edge 10, Type (0, 1), BuildingBlock: KIFKEQ_clean_linker_1, # of connection points: 2
#     Edge 11, Type (0, 1), BuildingBlock: KIFKEQ_clean_linker_1, # of connection points: 2
#     Edge 12, Type (0, 1), BuildingBlock: KIFKEQ_clean_linker_1, # of connection points: 2
#     Edge 13, Type (0, 1), BuildingBlock: KIFKEQ_clean_linker_1, # of connection points: 2
#     Edge 14, Type (0, 1), BuildingBlock: KIFKEQ_clean_linker_1, # of connection points: 2
#     Edge 15, Type (0, 1), BuildingBlock: KIFKEQ_clean_linker_1, # of connection points: 2
#     Edge 16, Type (0, 1), BuildingBlock: KIFKEQ_clean_linker_1, # of connection points: 2
#     Edge 17, Type (0, 1), BuildingBlock: KIFKEQ_clean_linker_1, # of connection points: 2
#     Edge 18, Type (0, 1), BuildingBlock: KIFKEQ_clean_linker_1, # of connection points: 2
#     Edge 19, Type (0, 1), BuildingBlock: KIFKEQ_clean_linker_1, # of connection points: 2
#     Edge 20, Type (0, 1), BuildingBlock: KIFKEQ_clean_linker_1, # of connection points: 2
#     Edge 21, Type (0, 1), BuildingBlock: KIFKEQ_clean_linker_1, # of connection points: 2
#     Edge 22, Type (0, 1), BuildingBlock: KIFKEQ_clean_linker_1, # of connection points: 2
#     Edge 23, Type (0, 1), BuildingBlock: KIFKEQ_clean_linker_1, # of connection points: 2
#     Edge 24, Type (0, 1), BuildingBlock: KIFKEQ_clean_linker_1, # of connection points: 2
#     Edge 25, Type (0, 1), BuildingBlock: KIFKEQ_clean_linker_1, # of connection points: 2
#     Edge 26, Type (0, 1), BuildingBlock: KIFKEQ_clean_linker_1, # of connection points: 2
# Relax obj value: 0.171
# Max RMSD: 0.216
# Mean RMSD: 0.152
data_MOF--net-anh--node1-VOLQOD_clean_sbu_1--node2-BETDIP_clean_linker_0--edge1-KIFKEQ_clean_linker_1
_symmetry_space_group_name_H-M    P1
_symmetry_Int_Tables_number       1
_symmetry_cell_setting            triclinic
loop_
_symmetry_equiv_pos_as_xyz
'x, y, z'
_cell_length_a     30.248496
_cell_length_b     29.979179
_cell_length_c     57.826837
_cell_angle_alpha  93.705283
_cell_angle_beta   89.542653
_cell_angle_gamma 120.78172
loop_
_atom_site_label
_atom_site_type_symbol
_atom_site_fract_x
_atom_site_fract_y
_atom_site_fract_z
_atom_type_partial_charge
O0 O 0.01707 0.60974 0.20495 0.0
Zn1 Zn 0.02263 0.63028 0.17197 0.0
O2 O 0.0312 0.58091 0.15119 0.0
Zn3 Zn 0.97576 0.5455 0.12809 0.0
Zn4 Zn 0.0344 0.52956 0.16908 0.0
Zn5 Zn 0.09322 0.6178 0.13425 0.0
O6 O -0.00077 0.55771 0.09519 0.0
O7 O 0.07973 0.62274 0.1009 0.0
O8 O 0.95666 0.62889 0.16377 0.0
O9 O 0.92883 0.57303 0.13262 0.0
O10 O 0.93166 0.46909 0.13276 0.0
O11 O 0.96889 0.4602 0.16362 0.0
O12 O 0.09494 0.52145 0.1602 0.0
O13 O 0.08582 0.70349 0.17173 0.0
O14 O 0.1326 0.5812 0.13451 0.0
O15 O 0.13711 0.6895 0.14855 0.0
C16 C 0.02645 0.57861 0.2149 0.0
C17 C 0.0412 0.59338 0.08742 0.0
C18 C 0.93238 0.44152 0.14844 0.0
C19 C 0.92413 0.60406 0.14707 0.0
C20 C 0.12988 0.54461 0.14558 0.0
C21 C 0.12929 0.7194 0.16234 0.0
O22 O 0.03769 0.54829 0.20332 0.0
O23 O 0.49007 0.05863 0.44817 0.0
Zn24 Zn 0.4713 0.05041 0.48166 0.0
O25 O 0.51667 0.03441 0.49827 0.0
Zn26 Zn 0.56072 0.09026 0.52088 0.0
Zn27 Zn 0.55883 0.02169 0.47623 0.0
Zn28 Zn 0.47551 0.97439 0.5154 0.0
O29 O 0.55715 0.06576 0.55306 0.0
O30 O 0.48183 0.9919 0.54967 0.0
O31 O 0.47563 0.11616 0.4959 0.0
O32 O 0.53512 0.13964 0.5239 0.0
O33 O 0.63369 0.13095 0.50996 0.0
O34 O 0.63136 0.08341 0.47839 0.0
O35 O 0.5592 0.95581 0.48256 0.0
O36 O 0.39761 0.99 0.48142 0.0
O37 O 0.50152 0.92599 0.5102 0.0
O38 O 0.4014 0.93661 0.50511 0.0
C39 C 0.51186 0.04021 0.43506 0.0
C40 C 0.51937 0.02742 0.56214 0.0
C41 C 0.65548 0.12372 0.49235 0.0
C42 C 0.50269 0.14643 0.51317 0.0
C43 C 0.53381 0.92229 0.49723 0.0
C44 C 0.376 0.94747 0.49146 0.0
O45 O 0.535 0.01893 0.44333 0.0
O46 O 0.47809 0.49581 0.79456 0.0
Zn47 Zn 0.46432 0.47419 0.82736 0.0
O48 O 0.52232 0.52257 0.84827 0.0
Zn49 Zn 0.50021 0.55412 0.87244 0.0
Zn50 Zn 0.57507 0.57749 0.83062 0.0
Zn51 Zn 0.55036 0.48591 0.86327 0.0
O52 O 0.5183 0.54538 0.90459 0.0
O53 O 0.54087 0.48607 0.89788 0.0
O54 O 0.39869 0.47186 0.83695 0.0
O55 O 0.42405 0.52051 0.87027 0.0
O56 O 0.52613 0.62941 0.86759 0.0
O57 O 0.57772 0.64527 0.83787 0.0
O58 O 0.6444 0.58689 0.83687 0.0
O59 O 0.45514 0.40232 0.82614 0.0
O60 O 0.62621 0.52001 0.85769 0.0
O61 O 0.51662 0.41194 0.85034 0.0
C62 C 0.51825 0.5293 0.78472 0.0
C63 C 0.53067 0.51394 0.91189 0.0
C64 C 0.5559 0.65997 0.85285 0.0
C65 C 0.38902 0.49119 0.85519 0.0
C66 C 0.65837 0.55991 0.84738 0.0
C67 C 0.47944 0.38397 0.83596 0.0
O68 O 0.55924 0.56107 0.79637 0.0
H69 H 0.489 0.07759 0.1959 0.0
H70 H 0.57838 0.12715 0.25957 0.0
H71 H 0.41883 0.00746 0.25894 0.0
H72 H 0.55381 0.15574 0.18501 0.0
C73 C 0.58775 0.15913 0.19311 0.0
C74 C 0.49143 0.07507 0.21436 0.0
C75 C 0.44743 0.0394 0.22595 0.0
C76 C 0.5388 0.10626 0.22651 0.0
C77 C 0.54183 0.10249 0.25035 0.0
C78 C 0.49828 0.06805 0.26233 0.0
C79 C 0.45157 0.03626 0.24993 0.0
N80 N 0.58485 0.13995 0.21523 0.0
H81 H 0.53572 0.51602 0.54299 0.0
H82 H 0.53598 0.60201 0.6056 0.0
H83 H 0.51231 0.44808 0.6082 0.0
H84 H 0.53358 0.57791 0.52489 0.0
C85 C 0.54836 0.61239 0.53671 0.0
C86 C 0.53124 0.5187 0.56151 0.0
C87 C 0.52231 0.47689 0.57431 0.0
C88 C 0.53672 0.5642 0.57291 0.0
C89 C 0.53225 0.56696 0.59703 0.0
C90 C 0.52277 0.52509 0.61003 0.0
C91 C 0.51823 0.4803 0.59844 0.0
N92 N 0.54863 0.6089 0.5611 0.0
H93 H 0.04986 0.63971 0.84868 0.0
H94 H 0.12354 0.63937 0.91169 0.0
H95 H 0.9903 0.65543 0.91453 0.0
H96 H 0.19693 0.68476 0.88634 0.0
C97 C 0.17836 0.65142 0.87375 0.0
C98 C 0.0526 0.64339 0.86746 0.0
C99 C 0.01586 0.64862 0.88034 0.0
C100 C 0.09271 0.64235 0.87871 0.0
C101 C 0.0948 0.64425 0.90308 0.0
C102 C 0.05768 0.6484 0.91624 0.0
C103 C 0.01927 0.65223 0.90465 0.0
N104 N 0.12801 0.63468 0.86531 0.0
H105 H 0.04218 0.58362 0.45614 0.0
H106 H 0.96344 0.49274 0.39349 0.0
H107 H 0.07602 0.65523 0.3911 0.0
H108 H 0.97534 0.43211 0.41541 0.0
C109 C 0.95756 0.43786 0.43083 0.0
C110 C 0.03542 0.58146 0.43762 0.0
C111 C 0.06391 0.62568 0.42499 0.0
C112 C 1e-05 0.53334 0.4263 0.0
C113 C -0.00826 0.5296 0.40217 0.0
C114 C 0.01884 0.57361 0.38932 0.0
C115 C 0.05456 0.62133 0.40095 0.0
N116 N 0.97264 0.48926 0.43955 0.0
H117 H 0.51213 0.05436 0.80329 0.0
H118 H 0.52147 0.96989 0.74249 0.0
H119 H 0.48595 0.08994 0.73545 0.0
H120 H 0.47045 0.90232 0.77114 0.0
C121 C 0.50118 0.92189 0.7843 0.0
C122 C 0.50921 0.04743 0.78459 0.0
C123 C 0.49775 0.07723 0.77068 0.0
C124 C 0.51621 0.00782 0.77456 0.0
C125 C 0.51464 -0.00041 0.75031 0.0
C126 C 0.50441 0.02969 0.73615 0.0
C127 C 0.49494 0.06756 0.74646 0.0
N128 N 0.52465 0.97645 0.78912 0.0
H129 H 0.43448 0.46851 0.14595 0.0
H130 H 0.5321 0.45968 0.09354 0.0
H131 H 0.40309 0.47315 0.07394 0.0
H132 H 0.53239 0.40272 0.12501 0.0
C133 C 0.54813 0.43881 0.13589 0.0
C134 C 0.44322 0.46653 0.12782 0.0
C135 C 0.41331 0.47056 0.11061 0.0
C136 C 0.48552 0.4617 0.12182 0.0
C137 C 0.49834 0.46149 0.09835 0.0
C138 C 0.46846 0.46522 0.08103 0.0
C139 C 0.42576 0.46929 0.08725 0.0
N140 N 0.51713 0.46129 0.13968 0.0
H141 H 0.18065 0.55378 0.10582 0.0
H142 H 0.16508 0.49983 0.17455 0.0
H143 H 0.24686 0.53263 0.09792 0.0
H144 H 0.23379 0.48085 0.16709 0.0
H145 H 0.33042 0.41247 0.13702 0.0
H146 H 0.25909 0.42684 0.14584 0.0
H147 H 0.33336 0.56633 0.10831 0.0
H148 H 0.40263 0.55028 0.09875 0.0
C149 C 0.19176 0.5377 0.11933 0.0
C150 C 0.16816 0.52893 0.14088 0.0
C151 C 0.23002 0.52588 0.11487 0.0
C152 C 0.24649 0.50599 0.13202 0.0
C153 C 0.22187 0.49587 0.15344 0.0
C154 C 0.18271 0.5069 0.15777 0.0
C155 C 0.33109 0.44607 0.13074 0.0
C156 C 0.37133 0.47994 0.11698 0.0
C157 C 0.29054 0.4545 0.13585 0.0
C158 C 0.29008 0.49737 0.12753 0.0
C159 C 0.33153 0.53205 0.11442 0.0
C160 C 0.37142 0.52314 0.10903 0.0
H161 H 0.70484 0.13169 0.45172 0.0
H162 H 0.7228 0.21242 0.51881 0.0
H163 H 0.78182 0.20698 0.43899 0.0
H164 H 0.80153 0.2874 0.50635 0.0
H165 H 0.89182 0.43305 0.46492 0.0
H166 H 0.82435 0.3554 0.48178 0.0
H167 H 0.87132 0.26137 0.441 0.0
H168 H 0.93712 0.33904 0.42339 0.0
C169 C 0.72596 0.16504 0.464 0.0
C170 C 0.70726 0.16605 0.48625 0.0
C171 C 0.77047 0.20838 0.4567 0.0
C172 C 0.79794 0.25376 0.47153 0.0
C173 C 0.78082 0.25366 0.49426 0.0
C174 C 0.73589 0.21042 0.50149 0.0
C175 C 0.88794 0.39582 0.45972 0.0
C176 C 0.91945 0.3919 0.44275 0.0
C177 C 0.84945 0.35121 0.46952 0.0
C178 C 0.84202 0.30178 0.46274 0.0
C179 C 0.87507 0.29847 0.44634 0.0
C180 C 0.91303 0.34297 0.43634 0.0
H181 H 0.48858 0.6885 0.86944 0.0
H182 H 0.62633 0.743 0.82964 0.0
H183 H 0.47885 0.75918 0.85681 0.0
H184 H 0.61677 0.81429 0.81741 0.0
H185 H 0.58812 0.95278 0.81102 0.0
H186 H 0.60755 0.89704 0.83301 0.0
H187 H 0.45912 0.76431 0.81212 0.0
H188 H 0.44039 0.8194 0.78972 0.0
C189 C 0.51778 0.71652 0.85866 0.0
C190 C 0.55791 0.70976 0.85029 0.0
C191 C 0.51199 0.7568 0.85137 0.0
C192 C 0.54678 0.79164 0.836 0.0
C193 C 0.58955 0.7879 0.82933 0.0
C194 C 0.59489 0.74704 0.83629 0.0
C195 C 0.55959 0.91178 0.81135 0.0
C196 C 0.51272 0.89014 0.79875 0.0
C197 C 0.57072 0.88006 0.82387 0.0
C198 C 0.53457 0.82668 0.82439 0.0
C199 C 0.48728 0.80553 0.81225 0.0
C200 C 0.47671 0.83688 0.79935 0.0
H201 H 0.86783 0.59183 0.10857 0.0
H202 H 0.86894 0.6117 0.18324 0.0
H203 H 0.77587 0.55984 0.107 0.0
H204 H 0.77626 0.57921 0.18162 0.0
H205 H 0.6181 0.41611 0.11926 0.0
H206 H 0.71162 0.47034 0.12232 0.0
H207 H 0.69889 0.58718 0.16456 0.0
H208 H 0.6046 0.5327 0.16136 0.0
C209 C 0.8487 0.5911 0.12459 0.0
C210 C 0.87518 0.6034 0.14605 0.0
C211 C 0.79609 0.5725 0.12369 0.0
C212 C 0.76901 0.56582 0.14422 0.0
C213 C 0.79641 0.58384 0.16557 0.0
C214 C 0.84942 0.60267 0.16648 0.0
C215 C 0.63525 0.45321 0.12931 0.0
C216 C 0.60434 0.47037 0.13994 0.0
C217 C 0.68865 0.48444 0.13088 0.0
C218 C 0.71225 0.53332 0.14331 0.0
C219 C 0.68145 0.54982 0.15474 0.0
C220 C 0.62771 0.51867 0.15292 0.0
H221 H 0.312 0.86099 0.5143 0.0
H222 H 0.31872 0.94146 0.45377 0.0
H223 H 0.23048 0.78598 0.49966 0.0
H224 H 0.23739 0.86622 0.43918 0.0
H225 H 0.15739 0.69381 0.40771 0.0
H226 H 0.22485 0.77627 0.42549 0.0
H227 H 0.13485 0.75329 0.48659 0.0
H228 H 0.06527 0.67102 0.46831 0.0
C229 C 0.29556 0.86314 0.49813 0.0
C230 C 0.32218 0.90692 0.48504 0.0
C231 C 0.24877 0.82028 0.48984 0.0
C232 C 0.22809 0.82021 0.4682 0.0
C233 C 0.25288 0.86523 0.45584 0.0
C234 C 0.29931 0.90836 0.46426 0.0
C235 C 0.15102 0.70663 0.42469 0.0
C236 C 0.1053 0.67586 0.43639 0.0
C237 C 0.18991 0.75395 0.43489 0.0
C238 C 0.1847 0.77143 0.45725 0.0
C239 C 0.1396 0.74065 0.46925 0.0
C240 C 0.10004 0.69344 0.45885 0.0
H241 H 0.50299 0.3225 0.85955 0.0
H242 H 0.43306 0.32687 0.79549 0.0
H243 H 0.49978 0.24284 0.84442 0.0
H244 H 0.43059 0.24757 0.78035 0.0
H245 H 0.52731 0.17207 0.75435 0.0
H246 H 0.51141 0.23897 0.77095 0.0
H247 H 0.4353 0.14542 0.82823 0.0
H248 H 0.4487 0.07663 0.81108 0.0
C249 C 0.48603 0.3059 0.84243 0.0
C250 C 0.46868 0.33115 0.82862 0.0
C251 C 0.48404 0.26026 0.83385 0.0
C252 C 0.46542 0.23958 0.81119 0.0
C253 C 0.44547 0.26313 0.79784 0.0
C254 C 0.44664 0.30828 0.80656 0.0
C255 C 0.50614 0.16496 0.77021 0.0
C256 C 0.48898 0.11858 0.78125 0.0
C257 C 0.49718 0.20344 0.77972 0.0
C258 C 0.47171 0.19697 0.80071 0.0
C259 C 0.45501 0.15115 0.812 0.0
C260 C 0.46314 0.11208 0.80225 0.0
H261 H 0.57866 0.8816 0.46766 0.0
H262 H 0.50985 0.86578 0.53475 0.0
H263 H 0.5921 0.80904 0.47458 0.0
H264 H 0.52341 0.79488 0.54147 0.0
H265 H 0.59778 0.70874 0.55943 0.0
H266 H 0.60337 0.78746 0.54712 0.0
H267 H 0.52952 0.70741 0.48147 0.0
H268 H 0.52416 0.62786 0.49379 0.0
C269 C 0.56668 0.86292 0.48382 0.0
C270 C 0.54311 0.87931 0.50062 0.0
C271 C 0.57423 0.82151 0.48772 0.0
C272 C 0.5593 0.79698 0.50865 0.0
C273 C 0.53603 0.81367 0.52534 0.0
C274 C 0.52788 0.85409 0.52136 0.0
C275 C 0.58336 0.70797 0.54224 0.0
C276 C 0.55932 0.66192 0.52774 0.0
C277 C 0.5868 0.75311 0.53517 0.0
C278 C 0.56619 0.75311 0.51351 0.0
C279 C 0.5458 0.70831 0.49823 0.0
C280 C 0.54246 0.66289 0.50532 0.0
H281 H 0.7413 0.65366 0.83755 0.0
H282 H 0.69912 0.50084 0.85796 0.0
H283 H 0.83227 0.67999 0.84009 0.0
H284 H 0.78969 0.5272 0.86036 0.0
H285 H 0.95236 0.57413 0.84764 0.0
H286 H 0.86746 0.55546 0.83475 0.0
H287 H 0.8906 0.69258 0.875 0.0
H288 H 0.9757 0.71144 0.88777 0.0
C289 C 0.75139 0.62558 0.84234 0.0
C290 C 0.71313 0.5753 0.84774 0.0
C291 C 0.80335 0.6407 0.84379 0.0
C292 C 0.81779 0.60551 0.85027 0.0
C293 C 0.7795 0.55483 0.85499 0.0
C294 C 0.7277 0.53995 0.85385 0.0
C295 C 0.93993 0.60113 0.85311 0.0
C296 C 0.9702 0.64399 0.86881 0.0
C297 C 0.8913 0.59023 0.8459 0.0
C298 C 0.87247 0.6223 0.85411 0.0
C299 C 0.90438 0.66739 0.86836 0.0
C300 C 0.95282 0.67802 0.87575 0.0
H301 H 0.23023 0.75465 0.15512 0.0
H302 H 0.12824 0.80374 0.18373 0.0
H303 H 0.30375 0.83766 0.16767 0.0
H304 H 0.20272 0.88921 0.19535 0.0
H305 H 0.34848 0.0016 0.24064 0.0
H306 H 0.26999 0.92922 0.22293 0.0
H307 H 0.35459 0.9251 0.163 0.0
H308 H 0.43385 0.9934 0.18179 0.0
C309 C 0.22341 0.78372 0.16368 0.0
C310 C 0.17325 0.77239 0.16851 0.0
C311 C 0.26588 0.83189 0.17072 0.0
C312 C 0.2596 0.87076 0.18245 0.0
C313 C 0.20922 0.86008 0.18665 0.0
C314 C 0.16646 0.81121 0.17991 0.0
C315 C 0.35052 0.985 0.22375 0.0
C316 C 0.3981 0.00257 0.21305 0.0
C317 C 0.30508 0.94394 0.21335 0.0
C318 C 0.30581 0.9202 0.19169 0.0
C319 C 0.35264 0.9411 0.18005 0.0
C320 C 0.39825 0.98121 0.1907 0.0
H321 H 0.51504 0.18809 0.55708 0.0
H322 H 0.47954 0.20573 0.4873 0.0
H323 H 0.5168 0.26734 0.57047 0.0
H324 H 0.48361 0.28717 0.50054 0.0
H325 H 0.45563 0.41127 0.53961 0.0
H326 H 0.44588 0.32864 0.52381 0.0
H327 H 0.57479 0.35704 0.56722 0.0
H328 H 0.58264 0.43774 0.58348 0.0
C329 C 0.50763 0.20912 0.5446 0.0
C330 C 0.49775 0.19126 0.52113 0.0
C331 C 0.50906 0.25479 0.55222 0.0
C332 C 0.50172 0.28438 0.53647 0.0
C333 C 0.48945 0.26528 0.5131 0.0
C334 C 0.48716 0.21878 0.50551 0.0
C335 C 0.4819 0.39963 0.54552 0.0
C336 C 0.51946 0.43011 0.56287 0.0
C337 C 0.47646 0.35256 0.5365 0.0
C338 C 0.50891 0.33574 0.54458 0.0
C339 C 0.54806 0.36792 0.56114 0.0
C340 C 0.55294 0.41432 0.57033 0.0
H341 H 0.32644 0.48706 0.82035 0.0
H342 H 0.34146 0.493 0.89486 0.0
H343 H 0.26466 0.51642 0.82457 0.0
H344 H 0.27913 0.52126 0.89905 0.0
H345 H 0.14369 0.56317 0.84434 0.0
H346 H 0.18136 0.50761 0.83994 0.0
H347 H 0.30197 0.61081 0.88984 0.0
H348 H 0.26448 0.66579 0.89423 0.0
C349 C 0.31468 0.49221 0.83758 0.0
C350 C 0.33936 0.48883 0.8573 0.0
C351 C 0.27946 0.5092 0.84 0.0
C352 C 0.26845 0.52256 0.86214 0.0
C353 C 0.28808 0.51251 0.88178 0.0
C354 C 0.3234 0.49596 0.87938 0.0
C355 C 0.17828 0.57384 0.85431 0.0
C356 C 0.20136 0.61868 0.86967 0.0
C357 C 0.19965 0.54203 0.85183 0.0
C358 C 0.24391 0.55436 0.86488 0.0
C359 C 0.26704 0.59957 0.87999 0.0
C360 C 0.24603 0.6314 0.88232 0.0
H361 H 0.85145 0.38349 0.11756 0.0
H362 H 0.90795 0.38322 0.18592 0.0
H363 H 0.76893 0.30698 0.1252 0.0
H364 H 0.82525 0.30873 0.19396 0.0
H365 H 0.6777 0.16214 0.20249 0.0
H366 H 0.76258 0.22093 0.18796 0.0
H367 H 0.69728 0.29061 0.14731 0.0
H368 H 0.61205 0.22969 0.16102 0.0
C369 C 0.84651 0.36671 0.1341 0.0
C370 C 0.88618 0.38979 0.1512 0.0
C371 C 0.799 0.32311 0.13858 0.0
C372 C 0.78987 0.302 0.16036 0.0
C373 C 0.83072 0.32332 0.1769 0.0
C374 C 0.87835 0.36639 0.17231 0.0
C375 C 0.68155 0.18974 0.19027 0.0
C376 C 0.63857 0.19202 0.18308 0.0
C377 C 0.73025 0.22362 0.18199 0.0
C378 C 0.73719 0.26114 0.16665 0.0
C379 C 0.69358 0.26191 0.15884 0.0
C380 C 0.64472 0.22735 0.16684 0.0
H381 H 0.1115 0.67999 0.06643 0.0
H382 H 0.9793 0.526 0.05191 0.0
H383 H 0.11564 0.69549 0.02547 0.0
H384 H 0.98482 0.5404 0.01081 0.0
H385 H 0.97277 0.59725 0.9427 0.0
H386 H 0.96973 0.58665 0.98393 0.0
H387 H 0.13608 0.67363 0.9887 0.0
H388 H 0.13905 0.68794 0.94763 0.0
C389 C 0.08368 0.64919 0.05443 0.0
C390 C 0.04493 0.60182 0.06241 0.0
C391 C 0.08621 0.65797 0.0309 0.0
C392 C 0.05047 0.61932 0.01475 0.0
C393 C 0.0123 0.57156 0.02276 0.0
C394 C 0.00931 0.56308 0.04633 0.0
C395 C 0.00878 0.61533 0.95257 0.0
C396 C 0.0562 0.64379 0.94175 0.0
C397 C 0.00703 0.60831 0.97624 0.0
C398 C 0.05264 0.62874 0.9897 0.0
C399 C 0.10011 0.65769 0.97897 0.0
C400 C 0.10186 0.66537 0.95531 0.0
H401 H 0.54434 0.9969 0.40078 0.0
H402 H 0.47691 0.09328 0.41195 0.0
H403 H 0.54147 0.00361 0.35907 0.0
H404 H 0.47549 0.10118 0.37047 0.0
H405 H 0.4277 0.05817 0.29445 0.0
H406 H 0.43096 0.04996 0.33586 0.0
H407 H 0.58022 0.06459 0.32944 0.0
H408 H 0.57567 0.07002 0.2877 0.0
C409 C 0.52916 0.01971 0.39437 0.0
C410 C 0.51062 0.04432 0.40972 0.0
C411 C 0.52782 0.02383 0.37047 0.0
C412 C 0.50814 0.05284 0.36141 0.0
C413 C 0.49005 0.07776 0.3768 0.0
C414 C 0.49111 0.07342 0.40064 0.0
C415 C 0.46098 0.05905 0.30181 0.0
C416 C 0.50135 0.06459 0.28773 0.0
C417 C 0.46315 0.05501 0.32562 0.0
C418 C 0.50594 0.05679 0.33601 0.0
C419 C 0.54645 0.06253 0.32196 0.0
C420 C 0.54416 0.06634 0.29808 0.0
H421 H 0.60016 0.58076 0.75682 0.0
H422 H 0.43446 0.482 0.7549 0.0
H423 H 0.59922 0.58141 0.7148 0.0
H424 H 0.43329 0.48425 0.71291 0.0
H425 H 0.45669 0.44829 0.63732 0.0
H426 H 0.4552 0.45095 0.67937 0.0
H427 H 0.57651 0.61268 0.68299 0.0
H428 H 0.5803 0.60899 0.64089 0.0
C429 C 0.56345 0.55964 0.74745 0.0
C430 C 0.51741 0.53109 0.75922 0.0
C431 C 0.56286 0.56031 0.72333 0.0
C432 C 0.51617 0.5329 0.7104 0.0
C433 C 0.47004 0.50509 0.72225 0.0
C434 C 0.47067 0.50398 0.74635 0.0
C435 C 0.48337 0.48433 0.64707 0.0
C436 C 0.51898 0.52827 0.63568 0.0
C437 C 0.482 0.48609 0.67123 0.0
C438 C 0.51586 0.532 0.68464 0.0
C439 C 0.55043 0.57642 0.67324 0.0
C440 C 0.5521 0.57453 0.64905 0.0
H441 H 0.43909 0.95978 0.58752 0.0
H442 H 0.59656 0.08782 0.59447 0.0
H443 H 0.43533 0.9561 0.62947 0.0
H444 H 0.59251 0.08394 0.63659 0.0
H445 H 0.57838 0.02675 0.70996 0.0
H446 H 0.5827 0.0232 0.6676 0.0
H447 H 0.43651 0.01546 0.66255 0.0
H448 H 0.43213 0.0187 0.70478 0.0
C449 C 0.47303 0.98701 0.59796 0.0
C450 C 0.51811 0.02428 0.58761 0.0
C451 C 0.47072 0.98497 0.62201 0.0
C452 C 0.51356 0.01979 0.63626 0.0
C453 C 0.55904 0.05633 0.62597 0.0
C454 C 0.56123 0.05875 0.60188 0.0
C455 C 0.54691 0.02355 0.69973 0.0
C456 C 0.50495 0.02304 0.71058 0.0
C457 C 0.54961 0.02202 0.67556 0.0
C458 C 0.51004 0.01925 0.66183 0.0
C459 C 0.4674 0.01725 0.6727 0.0
C460 C 0.46501 0.01939 0.69683 0.0
H461 H 0.51483 0.42831 0.93303 0.0
H462 H 0.54366 0.58435 0.94748 0.0
H463 H 0.50456 0.41434 0.97448 0.0
H464 H 0.53461 0.57059 0.98891 0.0
H465 H 0.55956 0.53605 0.06336 0.0
H466 H 0.5809 0.54787 0.0223 0.0
H467 H 0.43235 0.41386 0.00274 0.0
H468 H 0.41057 0.40287 0.04373 0.0
C469 C 0.51989 0.45989 0.94508 0.0
C470 C 0.52986 0.50737 0.93703 0.0
C471 C 0.51381 0.45178 0.96872 0.0
C472 C 0.51885 0.49142 0.98475 0.0
C473 C 0.53091 0.53959 0.97685 0.0
C474 C 0.53583 0.54732 0.95317 0.0
C475 C 0.53191 0.50876 0.05024 0.0
C476 C 0.4835 0.46856 0.05655 0.0
C477 C 0.54398 0.51564 0.02686 0.0
C478 C 0.50823 0.48171 0.00949 0.0
C479 C 0.46064 0.44024 0.01586 0.0
C480 C 0.44815 0.43406 0.03921 0.0
H481 H 0.06563 0.53716 0.24341 0.0
H482 H 0.97795 0.61436 0.24395 0.0
H483 H 0.05914 0.53332 0.28529 0.0
H484 H 0.9693 0.6084 0.28567 0.0
H485 H 0.01591 0.64417 0.36251 0.0
H486 H 0.01654 0.64421 0.32058 0.0
H487 H 0.0034 0.49331 0.31581 0.0
H488 H 0.00667 0.49516 0.35794 0.0
C489 C 0.04459 0.55294 0.25247 0.0
C490 C 0.02262 0.57639 0.24037 0.0
C491 C 0.04041 0.5503 0.27649 0.0
C492 C 0.01353 0.5704 0.28898 0.0
C493 C -0.00893 0.59332 0.27676 0.0
C494 C -0.00412 0.59662 0.25279 0.0
C495 C 0.01349 0.6111 0.35254 0.0
C496 C 0.01204 0.57003 0.36367 0.0
C497 C 0.01309 0.61076 0.3284 0.0
C498 C 0.01043 0.56894 0.31467 0.0
C499 C 0.00658 0.52671 0.32579 0.0
C500 C 0.0076 0.52735 0.34999 0.0
loop_
_geom_bond_atom_site_label_1
_geom_bond_atom_site_label_2
_geom_bond_distance
_geom_bond_site_symmetry_2
_ccdc_geom_bond_type
O0 Zn1 1.953 . S
O0 C16 1.225 . S
Zn1 O0 1.953 . S
Zn1 O2 1.949 . S
Zn1 O8 1.919 1_455 S
Zn1 O13 1.924 . S
O2 Zn1 1.949 . S
O2 Zn3 1.923 . S
O2 Zn4 1.950 . S
O2 Zn5 1.945 . S
Zn3 O2 1.923 . S
Zn3 O6 1.933 . S
Zn3 O9 1.941 1_455 S
Zn3 O10 1.965 1_455 S
Zn4 O2 1.950 . S
Zn4 O11 1.938 . S
Zn4 O12 1.906 . S
Zn4 O22 1.953 . S
Zn5 O2 1.945 . S
Zn5 O7 1.932 . S
Zn5 O14 1.977 . S
Zn5 O15 1.910 . S
O6 Zn3 1.933 . S
O6 C17 1.226 . S
O7 Zn5 1.932 . S
O7 C17 1.307 . S
O8 Zn1 1.919 1_655 S
O8 C19 1.253 . S
O9 Zn3 1.941 1_655 S
O9 C19 1.283 . S
O10 Zn3 1.965 1_655 S
O10 C18 1.303 . S
O11 Zn4 1.938 . S
O11 C18 1.247 1_455 S
O12 Zn4 1.906 . S
O12 C20 1.304 . S
O13 Zn1 1.924 . S
O13 C21 1.311 . S
O14 Zn5 1.977 . S
O14 C20 1.272 . S
O15 Zn5 1.910 . S
O15 C21 1.231 . S
C16 O0 1.225 . S
C16 O22 1.298 . S
C17 O6 1.226 . S
C17 O7 1.307 . S
C18 O10 1.303 . S
C18 O11 1.247 1_655 S
C19 O8 1.253 . S
C19 O9 1.283 . S
C20 O12 1.304 . S
C20 O14 1.272 . S
C21 O13 1.311 . S
C21 O15 1.231 . S
O22 Zn4 1.953 . S
O22 C16 1.298 . S
O23 Zn24 1.953 . S
O23 C39 1.225 . S
Zn24 O23 1.953 . S
Zn24 O25 1.949 . S
Zn24 O31 1.919 . S
Zn24 O36 1.924 1_545 S
O25 Zn24 1.949 . S
O25 Zn26 1.923 . S
O25 Zn27 1.950 . S
O25 Zn28 1.945 1_545 S
Zn26 O25 1.923 . S
Zn26 O29 1.933 . S
Zn26 O32 1.941 . S
Zn26 O33 1.965 . S
Zn27 O25 1.950 . S
Zn27 O34 1.938 . S
Zn27 O35 1.906 1_545 S
Zn27 O45 1.953 . S
Zn28 O25 1.945 1_565 S
Zn28 O30 1.932 1_565 S
Zn28 O37 1.977 . S
Zn28 O38 1.910 . S
O29 Zn26 1.933 . S
O29 C40 1.226 . S
O30 Zn28 1.932 1_545 S
O30 C40 1.307 . S
O31 Zn24 1.919 . S
O31 C42 1.253 . S
O32 Zn26 1.941 . S
O32 C42 1.283 . S
O33 Zn26 1.965 . S
O33 C41 1.303 . S
O34 Zn27 1.938 . S
O34 C41 1.247 . S
O35 Zn27 1.906 1_565 S
O35 C43 1.304 . S
O36 Zn24 1.924 1_565 S
O36 C44 1.311 . S
O37 Zn28 1.977 . S
O37 C43 1.272 . S
O38 Zn28 1.910 . S
O38 C44 1.231 . S
C39 O23 1.225 . S
C39 O45 1.298 . S
C40 O29 1.226 . S
C40 O30 1.307 . S
C41 O33 1.303 . S
C41 O34 1.247 . S
C42 O31 1.253 . S
C42 O32 1.283 . S
C43 O35 1.304 . S
C43 O37 1.272 . S
C44 O36 1.311 . S
C44 O38 1.231 . S
O45 Zn27 1.953 . S
O45 C39 1.298 . S
O46 Zn47 1.953 . S
O46 C62 1.225 . S
Zn47 O46 1.953 . S
Zn47 O48 1.949 . S
Zn47 O54 1.919 . S
Zn47 O59 1.924 . S
O48 Zn47 1.949 . S
O48 Zn49 1.923 . S
O48 Zn50 1.950 . S
O48 Zn51 1.945 . S
Zn49 O48 1.923 . S
Zn49 O52 1.933 . S
Zn49 O55 1.941 . S
Zn49 O56 1.965 . S
Zn50 O48 1.950 . S
Zn50 O57 1.938 . S
Zn50 O58 1.906 . S
Zn50 O68 1.953 . S
Zn51 O48 1.945 . S
Zn51 O53 1.932 . S
Zn51 O60 1.977 . S
Zn51 O61 1.910 . S
O52 Zn49 1.933 . S
O52 C63 1.226 . S
O53 Zn51 1.932 . S
O53 C63 1.307 . S
O54 Zn47 1.919 . S
O54 C65 1.253 . S
O55 Zn49 1.941 . S
O55 C65 1.283 . S
O56 Zn49 1.965 . S
O56 C64 1.303 . S
O57 Zn50 1.938 . S
O57 C64 1.247 . S
O58 Zn50 1.906 . S
O58 C66 1.304 . S
O59 Zn47 1.924 . S
O59 C67 1.311 . S
O60 Zn51 1.977 . S
O60 C66 1.272 . S
O61 Zn51 1.910 . S
O61 C67 1.231 . S
C62 O46 1.225 . S
C62 O68 1.298 . S
C63 O52 1.226 . S
C63 O53 1.307 . S
C64 O56 1.303 . S
C64 O57 1.247 . S
C65 O54 1.253 . S
C65 O55 1.283 . S
C66 O58 1.304 . S
C66 O60 1.272 . S
C67 O59 1.311 . S
C67 O61 1.231 . S
O68 Zn50 1.953 . S
O68 C62 1.298 . S
H69 C74 0.930 . S
H70 C77 0.930 . S
H71 C79 0.930 1_565 S
H72 C73 1.016 . S
C73 H72 1.016 . S
C73 N80 1.286 . S
C74 H69 0.930 . S
C74 C75 1.397 . S
C74 C76 1.361 . S
C75 C74 1.397 . S
C75 C79 1.390 . S
C76 C74 1.361 . S
C76 C77 1.393 . S
C76 N80 1.413 . S
C77 H70 0.930 . S
C77 C76 1.393 . S
C77 C78 1.399 . S
C78 C77 1.399 . S
C78 C79 1.381 . S
C79 H71 0.930 1_545 S
C79 C75 1.390 . S
C79 C78 1.381 . S
N80 C73 1.286 . S
N80 C76 1.413 . S
H81 C86 0.930 . S
H82 C89 0.930 . S
H83 C91 0.930 . S
H84 C85 1.016 . S
C85 H84 1.016 . S
C85 N92 1.286 . S
C86 H81 0.930 . S
C86 C87 1.397 . S
C86 C88 1.361 . S
C87 C86 1.397 . S
C87 C91 1.390 . S
C88 C86 1.361 . S
C88 C89 1.393 . S
C88 N92 1.413 . S
C89 H82 0.930 . S
C89 C88 1.393 . S
C89 C90 1.399 . S
C90 C89 1.399 . S
C90 C91 1.381 . S
C91 H83 0.930 . S
C91 C87 1.390 . S
C91 C90 1.381 . S
N92 C85 1.286 . S
N92 C88 1.413 . S
H93 C98 0.930 . S
H94 C101 0.930 . S
H95 C103 0.930 . S
H96 C97 1.016 . S
C97 H96 1.016 . S
C97 N104 1.286 . S
C98 H93 0.930 . S
C98 C99 1.397 1_455 S
C98 C100 1.361 . S
C99 C98 1.397 1_655 S
C99 C103 1.390 . S
C100 C98 1.361 . S
C100 C101 1.393 . S
C100 N104 1.413 . S
C101 H94 0.930 . S
C101 C100 1.393 . S
C101 C102 1.399 . S
C102 C101 1.399 . S
C102 C103 1.381 1_455 S
C103 H95 0.930 . S
C103 C99 1.390 . S
C103 C102 1.381 1_655 S
N104 C97 1.286 . S
N104 C100 1.413 . S
H105 C110 0.930 . S
H106 C113 0.930 . S
H107 C115 0.930 . S
H108 C109 1.016 . S
C109 H108 1.016 . S
C109 N116 1.286 . S
C110 H105 0.930 . S
C110 C111 1.397 . S
C110 C112 1.361 . S
C111 C110 1.397 . S
C111 C115 1.390 . S
C112 C110 1.361 . S
C112 C113 1.393 1_455 S
C112 N116 1.413 1_455 S
C113 H106 0.930 . S
C113 C112 1.393 1_655 S
C113 C114 1.399 1_655 S
C114 C113 1.399 1_455 S
C114 C115 1.381 . S
C115 H107 0.930 . S
C115 C111 1.390 . S
C115 C114 1.381 . S
N116 C109 1.286 . S
N116 C112 1.413 1_655 S
H117 C122 0.930 . S
H118 C125 0.930 1_565 S
H119 C127 0.930 . S
H120 C121 1.016 . S
C121 H120 1.016 . S
C121 N128 1.286 . S
C122 H117 0.930 . S
C122 C123 1.397 . S
C122 C124 1.361 . S
C123 C122 1.397 . S
C123 C127 1.390 . S
C124 C122 1.361 . S
C124 C125 1.393 . S
C124 N128 1.413 1_545 S
C125 H118 0.930 1_545 S
C125 C124 1.393 . S
C125 C126 1.399 . S
C126 C125 1.399 . S
C126 C127 1.381 . S
C127 H119 0.930 . S
C127 C123 1.390 . S
C127 C126 1.381 . S
N128 C121 1.286 . S
N128 C124 1.413 1_565 S
H129 C134 0.930 . S
H130 C137 0.930 . S
H131 C139 0.930 . S
H132 C133 1.016 . S
C133 H132 1.016 . S
C133 N140 1.286 . S
C134 H129 0.930 . S
C134 C135 1.397 . S
C134 C136 1.361 . S
C135 C134 1.397 . S
C135 C139 1.390 . S
C136 C134 1.361 . S
C136 C137 1.393 . S
C136 N140 1.413 . S
C137 H130 0.930 . S
C137 C136 1.393 . S
C137 C138 1.399 . S
C138 C137 1.399 . S
C138 C139 1.381 . S
C139 H131 0.930 . S
C139 C135 1.390 . S
C139 C138 1.381 . S
N140 C133 1.286 . S
N140 C136 1.413 . S
H141 C149 0.950 . S
H142 C154 0.950 . S
H143 C151 0.950 . S
H144 C153 0.950 . S
H145 C155 0.950 . S
H146 C157 0.950 . S
H147 C159 0.950 . S
H148 C160 0.950 . S
C149 H141 0.950 . S
C149 C150 1.386 . S
C149 C151 1.391 . S
C150 C149 1.386 . S
C150 C154 1.393 . S
C151 H143 0.950 . S
C151 C149 1.391 . S
C151 C152 1.400 . S
C152 C151 1.400 . S
C152 C153 1.398 . S
C152 C158 1.491 . S
C153 H144 0.950 . S
C153 C152 1.398 . S
C153 C154 1.391 . S
C154 H142 0.950 . S
C154 C150 1.393 . S
C154 C153 1.391 . S
C155 H145 0.950 . S
C155 C156 1.386 . S
C155 C157 1.391 . S
C156 C155 1.386 . S
C156 C160 1.393 . S
C157 H146 0.950 . S
C157 C155 1.391 . S
C157 C158 1.400 . S
C158 C152 1.491 . S
C158 C157 1.400 . S
C158 C159 1.398 . S
C159 H147 0.950 . S
C159 C158 1.398 . S
C159 C160 1.391 . S
C160 H148 0.950 . S
C160 C156 1.393 . S
C160 C159 1.391 . S
H161 C169 0.950 . S
H162 C174 0.950 . S
H163 C171 0.950 . S
H164 C173 0.950 . S
H165 C175 0.950 . S
H166 C177 0.950 . S
H167 C179 0.950 . S
H168 C180 0.950 . S
C169 H161 0.950 . S
C169 C170 1.386 . S
C169 C171 1.391 . S
C170 C169 1.386 . S
C170 C174 1.393 . S
C171 H163 0.950 . S
C171 C169 1.391 . S
C171 C172 1.400 . S
C172 C171 1.400 . S
C172 C173 1.398 . S
C172 C178 1.491 . S
C173 H164 0.950 . S
C173 C172 1.398 . S
C173 C174 1.391 . S
C174 H162 0.950 . S
C174 C170 1.393 . S
C174 C173 1.391 . S
C175 H165 0.950 . S
C175 C176 1.386 . S
C175 C177 1.391 . S
C176 C175 1.386 . S
C176 C180 1.393 . S
C177 H166 0.950 . S
C177 C175 1.391 . S
C177 C178 1.400 . S
C178 C172 1.491 . S
C178 C177 1.400 . S
C178 C179 1.398 . S
C179 H167 0.950 . S
C179 C178 1.398 . S
C179 C180 1.391 . S
C180 H168 0.950 . S
C180 C176 1.393 . S
C180 C179 1.391 . S
H181 C189 0.950 . S
H182 C194 0.950 . S
H183 C191 0.950 . S
H184 C193 0.950 . S
H185 C195 0.950 . S
H186 C197 0.950 . S
H187 C199 0.950 . S
H188 C200 0.950 . S
C189 H181 0.950 . S
C189 C190 1.386 . S
C189 C191 1.391 . S
C190 C189 1.386 . S
C190 C194 1.393 . S
C191 H183 0.950 . S
C191 C189 1.391 . S
C191 C192 1.400 . S
C192 C191 1.400 . S
C192 C193 1.398 . S
C192 C198 1.491 . S
C193 H184 0.950 . S
C193 C192 1.398 . S
C193 C194 1.391 . S
C194 H182 0.950 . S
C194 C190 1.393 . S
C194 C193 1.391 . S
C195 H185 0.950 . S
C195 C196 1.386 . S
C195 C197 1.391 . S
C196 C195 1.386 . S
C196 C200 1.393 . S
C197 H186 0.950 . S
C197 C195 1.391 . S
C197 C198 1.400 . S
C198 C192 1.491 . S
C198 C197 1.400 . S
C198 C199 1.398 . S
C199 H187 0.950 . S
C199 C198 1.398 . S
C199 C200 1.391 . S
C200 H188 0.950 . S
C200 C196 1.393 . S
C200 C199 1.391 . S
H201 C209 0.950 . S
H202 C214 0.950 . S
H203 C211 0.950 . S
H204 C213 0.950 . S
H205 C215 0.950 . S
H206 C217 0.950 . S
H207 C219 0.950 . S
H208 C220 0.950 . S
C209 H201 0.950 . S
C209 C210 1.386 . S
C209 C211 1.391 . S
C210 C209 1.386 . S
C210 C214 1.393 . S
C211 H203 0.950 . S
C211 C209 1.391 . S
C211 C212 1.400 . S
C212 C211 1.400 . S
C212 C213 1.398 . S
C212 C218 1.491 . S
C213 H204 0.950 . S
C213 C212 1.398 . S
C213 C214 1.391 . S
C214 H202 0.950 . S
C214 C210 1.393 . S
C214 C213 1.391 . S
C215 H205 0.950 . S
C215 C216 1.386 . S
C215 C217 1.391 . S
C216 C215 1.386 . S
C216 C220 1.393 . S
C217 H206 0.950 . S
C217 C215 1.391 . S
C217 C218 1.400 . S
C218 C212 1.491 . S
C218 C217 1.400 . S
C218 C219 1.398 . S
C219 H207 0.950 . S
C219 C218 1.398 . S
C219 C220 1.391 . S
C220 H208 0.950 . S
C220 C216 1.393 . S
C220 C219 1.391 . S
H221 C229 0.950 . S
H222 C234 0.950 . S
H223 C231 0.950 . S
H224 C233 0.950 . S
H225 C235 0.950 . S
H226 C237 0.950 . S
H227 C239 0.950 . S
H228 C240 0.950 . S
C229 H221 0.950 . S
C229 C230 1.386 . S
C229 C231 1.391 . S
C230 C229 1.386 . S
C230 C234 1.393 . S
C231 H223 0.950 . S
C231 C229 1.391 . S
C231 C232 1.400 . S
C232 C231 1.400 . S
C232 C233 1.398 . S
C232 C238 1.491 . S
C233 H224 0.950 . S
C233 C232 1.398 . S
C233 C234 1.391 . S
C234 H222 0.950 . S
C234 C230 1.393 . S
C234 C233 1.391 . S
C235 H225 0.950 . S
C235 C236 1.386 . S
C235 C237 1.391 . S
C236 C235 1.386 . S
C236 C240 1.393 . S
C237 H226 0.950 . S
C237 C235 1.391 . S
C237 C238 1.400 . S
C238 C232 1.491 . S
C238 C237 1.400 . S
C238 C239 1.398 . S
C239 H227 0.950 . S
C239 C238 1.398 . S
C239 C240 1.391 . S
C240 H228 0.950 . S
C240 C236 1.393 . S
C240 C239 1.391 . S
H241 C249 0.950 . S
H242 C254 0.950 . S
H243 C251 0.950 . S
H244 C253 0.950 . S
H245 C255 0.950 . S
H246 C257 0.950 . S
H247 C259 0.950 . S
H248 C260 0.950 . S
C249 H241 0.950 . S
C249 C250 1.386 . S
C249 C251 1.391 . S
C250 C249 1.386 . S
C250 C254 1.393 . S
C251 H243 0.950 . S
C251 C249 1.391 . S
C251 C252 1.400 . S
C252 C251 1.400 . S
C252 C253 1.398 . S
C252 C258 1.491 . S
C253 H244 0.950 . S
C253 C252 1.398 . S
C253 C254 1.391 . S
C254 H242 0.950 . S
C254 C250 1.393 . S
C254 C253 1.391 . S
C255 H245 0.950 . S
C255 C256 1.386 . S
C255 C257 1.391 . S
C256 C255 1.386 . S
C256 C260 1.393 . S
C257 H246 0.950 . S
C257 C255 1.391 . S
C257 C258 1.400 . S
C258 C252 1.491 . S
C258 C257 1.400 . S
C258 C259 1.398 . S
C259 H247 0.950 . S
C259 C258 1.398 . S
C259 C260 1.391 . S
C260 H248 0.950 . S
C260 C256 1.393 . S
C260 C259 1.391 . S
H261 C269 0.950 . S
H262 C274 0.950 . S
H263 C271 0.950 . S
H264 C273 0.950 . S
H265 C275 0.950 . S
H266 C277 0.950 . S
H267 C279 0.950 . S
H268 C280 0.950 . S
C269 H261 0.950 . S
C269 C270 1.386 . S
C269 C271 1.391 . S
C270 C269 1.386 . S
C270 C274 1.393 . S
C271 H263 0.950 . S
C271 C269 1.391 . S
C271 C272 1.400 . S
C272 C271 1.400 . S
C272 C273 1.398 . S
C272 C278 1.491 . S
C273 H264 0.950 . S
C273 C272 1.398 . S
C273 C274 1.391 . S
C274 H262 0.950 . S
C274 C270 1.393 . S
C274 C273 1.391 . S
C275 H265 0.950 . S
C275 C276 1.386 . S
C275 C277 1.391 . S
C276 C275 1.386 . S
C276 C280 1.393 . S
C277 H266 0.950 . S
C277 C275 1.391 . S
C277 C278 1.400 . S
C278 C272 1.491 . S
C278 C277 1.400 . S
C278 C279 1.398 . S
C279 H267 0.950 . S
C279 C278 1.398 . S
C279 C280 1.391 . S
C280 H268 0.950 . S
C280 C276 1.393 . S
C280 C279 1.391 . S
H281 C289 0.950 . S
H282 C294 0.950 . S
H283 C291 0.950 . S
H284 C293 0.950 . S
H285 C295 0.950 . S
H286 C297 0.950 . S
H287 C299 0.950 . S
H288 C300 0.950 . S
C289 H281 0.950 . S
C289 C290 1.386 . S
C289 C291 1.391 . S
C290 C289 1.386 . S
C290 C294 1.393 . S
C291 H283 0.950 . S
C291 C289 1.391 . S
C291 C292 1.400 . S
C292 C291 1.400 . S
C292 C293 1.398 . S
C292 C298 1.491 . S
C293 H284 0.950 . S
C293 C292 1.398 . S
C293 C294 1.391 . S
C294 H282 0.950 . S
C294 C290 1.393 . S
C294 C293 1.391 . S
C295 H285 0.950 . S
C295 C296 1.386 . S
C295 C297 1.391 . S
C296 C295 1.386 . S
C296 C300 1.393 . S
C297 H286 0.950 . S
C297 C295 1.391 . S
C297 C298 1.400 . S
C298 C292 1.491 . S
C298 C297 1.400 . S
C298 C299 1.398 . S
C299 H287 0.950 . S
C299 C298 1.398 . S
C299 C300 1.391 . S
C300 H288 0.950 . S
C300 C296 1.393 . S
C300 C299 1.391 . S
H301 C309 0.950 . S
H302 C314 0.950 . S
H303 C311 0.950 . S
H304 C313 0.950 . S
H305 C315 0.950 1_545 S
H306 C317 0.950 . S
H307 C319 0.950 . S
H308 C320 0.950 . S
C309 H301 0.950 . S
C309 C310 1.386 . S
C309 C311 1.391 . S
C310 C309 1.386 . S
C310 C314 1.393 . S
C311 H303 0.950 . S
C311 C309 1.391 . S
C311 C312 1.400 . S
C312 C311 1.400 . S
C312 C313 1.398 . S
C312 C318 1.491 . S
C313 H304 0.950 . S
C313 C312 1.398 . S
C313 C314 1.391 . S
C314 H302 0.950 . S
C314 C310 1.393 . S
C314 C313 1.391 . S
C315 H305 0.950 1_565 S
C315 C316 1.386 . S
C315 C317 1.391 . S
C316 C315 1.386 . S
C316 C320 1.393 . S
C317 H306 0.950 . S
C317 C315 1.391 . S
C317 C318 1.400 . S
C318 C312 1.491 . S
C318 C317 1.400 . S
C318 C319 1.398 . S
C319 H307 0.950 . S
C319 C318 1.398 . S
C319 C320 1.391 . S
C320 H308 0.950 . S
C320 C316 1.393 . S
C320 C319 1.391 . S
H321 C329 0.950 . S
H322 C334 0.950 . S
H323 C331 0.950 . S
H324 C333 0.950 . S
H325 C335 0.950 . S
H326 C337 0.950 . S
H327 C339 0.950 . S
H328 C340 0.950 . S
C329 H321 0.950 . S
C329 C330 1.386 . S
C329 C331 1.391 . S
C330 C329 1.386 . S
C330 C334 1.393 . S
C331 H323 0.950 . S
C331 C329 1.391 . S
C331 C332 1.400 . S
C332 C331 1.400 . S
C332 C333 1.398 . S
C332 C338 1.491 . S
C333 H324 0.950 . S
C333 C332 1.398 . S
C333 C334 1.391 . S
C334 H322 0.950 . S
C334 C330 1.393 . S
C334 C333 1.391 . S
C335 H325 0.950 . S
C335 C336 1.386 . S
C335 C337 1.391 . S
C336 C335 1.386 . S
C336 C340 1.393 . S
C337 H326 0.950 . S
C337 C335 1.391 . S
C337 C338 1.400 . S
C338 C332 1.491 . S
C338 C337 1.400 . S
C338 C339 1.398 . S
C339 H327 0.950 . S
C339 C338 1.398 . S
C339 C340 1.391 . S
C340 H328 0.950 . S
C340 C336 1.393 . S
C340 C339 1.391 . S
H341 C349 0.950 . S
H342 C354 0.950 . S
H343 C351 0.950 . S
H344 C353 0.950 . S
H345 C355 0.950 . S
H346 C357 0.950 . S
H347 C359 0.950 . S
H348 C360 0.950 . S
C349 H341 0.950 . S
C349 C350 1.386 . S
C349 C351 1.391 . S
C350 C349 1.386 . S
C350 C354 1.393 . S
C351 H343 0.950 . S
C351 C349 1.391 . S
C351 C352 1.400 . S
C352 C351 1.400 . S
C352 C353 1.398 . S
C352 C358 1.491 . S
C353 H344 0.950 . S
C353 C352 1.398 . S
C353 C354 1.391 . S
C354 H342 0.950 . S
C354 C350 1.393 . S
C354 C353 1.391 . S
C355 H345 0.950 . S
C355 C356 1.386 . S
C355 C357 1.391 . S
C356 C355 1.386 . S
C356 C360 1.393 . S
C357 H346 0.950 . S
C357 C355 1.391 . S
C357 C358 1.400 . S
C358 C352 1.491 . S
C358 C357 1.400 . S
C358 C359 1.398 . S
C359 H347 0.950 . S
C359 C358 1.398 . S
C359 C360 1.391 . S
C360 H348 0.950 . S
C360 C356 1.393 . S
C360 C359 1.391 . S
H361 C369 0.950 . S
H362 C374 0.950 . S
H363 C371 0.950 . S
H364 C373 0.950 . S
H365 C375 0.950 . S
H366 C377 0.950 . S
H367 C379 0.950 . S
H368 C380 0.950 . S
C369 H361 0.950 . S
C369 C370 1.386 . S
C369 C371 1.391 . S
C370 C369 1.386 . S
C370 C374 1.393 . S
C371 H363 0.950 . S
C371 C369 1.391 . S
C371 C372 1.400 . S
C372 C371 1.400 . S
C372 C373 1.398 . S
C372 C378 1.491 . S
C373 H364 0.950 . S
C373 C372 1.398 . S
C373 C374 1.391 . S
C374 H362 0.950 . S
C374 C370 1.393 . S
C374 C373 1.391 . S
C375 H365 0.950 . S
C375 C376 1.386 . S
C375 C377 1.391 . S
C376 C375 1.386 . S
C376 C380 1.393 . S
C377 H366 0.950 . S
C377 C375 1.391 . S
C377 C378 1.400 . S
C378 C372 1.491 . S
C378 C377 1.400 . S
C378 C379 1.398 . S
C379 H367 0.950 . S
C379 C378 1.398 . S
C379 C380 1.391 . S
C380 H368 0.950 . S
C380 C376 1.393 . S
C380 C379 1.391 . S
H381 C389 0.950 . S
H382 C394 0.950 1_655 S
H383 C391 0.950 . S
H384 C393 0.950 1_655 S
H385 C395 0.950 . S
H386 C397 0.940 1_554 S
H387 C399 0.950 . S
H388 C400 0.950 . S
C389 H381 0.950 . S
C389 C390 1.386 . S
C389 C391 1.391 . S
C390 C389 1.386 . S
C390 C394 1.393 . S
C391 H383 0.950 . S
C391 C389 1.391 . S
C391 C392 1.400 . S
C392 C391 1.400 . S
C392 C393 1.398 . S
C392 C398 1.491 . S
C393 H384 0.950 1_455 S
C393 C392 1.398 . S
C393 C394 1.391 . S
C394 H382 0.950 1_455 S
C394 C390 1.393 . S
C394 C393 1.391 . S
C395 H385 0.950 . S
C395 C396 1.386 1_655 S
C395 C397 1.391 . S
C396 C395 1.386 1_455 S
C396 C400 1.393 . S
C397 H386 0.940 1_556 S
C397 C395 1.391 . S
C397 C398 1.400 1_656 S
C398 C392 1.491 . S
C398 C397 1.400 1_454 S
C398 C399 1.398 1_554 S
C399 H387 0.950 . S
C399 C398 1.398 1_556 S
C399 C400 1.391 . S
C400 H388 0.950 . S
C400 C396 1.393 . S
C400 C399 1.391 . S
H401 C409 0.950 1_565 S
H402 C414 0.950 . S
H403 C411 0.950 1_565 S
H404 C413 0.950 . S
H405 C415 0.950 . S
H406 C417 0.950 . S
H407 C419 0.950 1_565 S
H408 C420 0.950 1_565 S
C409 H401 0.950 1_545 S
C409 C410 1.386 . S
C409 C411 1.391 . S
C410 C409 1.386 . S
C410 C414 1.393 . S
C411 H403 0.950 1_545 S
C411 C409 1.391 . S
C411 C412 1.400 . S
C412 C411 1.400 . S
C412 C413 1.398 . S
C412 C418 1.491 . S
C413 H404 0.950 . S
C413 C412 1.398 . S
C413 C414 1.391 . S
C414 H402 0.950 . S
C414 C410 1.393 . S
C414 C413 1.391 . S
C415 H405 0.950 . S
C415 C416 1.386 . S
C415 C417 1.391 . S
C416 C415 1.386 . S
C416 C420 1.393 . S
C417 H406 0.950 . S
C417 C415 1.391 . S
C417 C418 1.400 . S
C418 C412 1.491 . S
C418 C417 1.400 . S
C418 C419 1.398 . S
C419 H407 0.950 1_545 S
C419 C418 1.398 . S
C419 C420 1.391 . S
C420 H408 0.950 1_545 S
C420 C416 1.393 . S
C420 C419 1.391 . S
H421 C429 0.950 . S
H422 C434 0.950 . S
H423 C431 0.950 . S
H424 C433 0.950 . S
H425 C435 0.950 . S
H426 C437 0.950 . S
H427 C439 0.950 . S
H428 C440 0.950 . S
C429 H421 0.950 . S
C429 C430 1.386 . S
C429 C431 1.391 . S
C430 C429 1.386 . S
C430 C434 1.393 . S
C431 H423 0.950 . S
C431 C429 1.391 . S
C431 C432 1.400 . S
C432 C431 1.400 . S
C432 C433 1.398 . S
C432 C438 1.491 . S
C433 H424 0.950 . S
C433 C432 1.398 . S
C433 C434 1.391 . S
C434 H422 0.950 . S
C434 C430 1.393 . S
C434 C433 1.391 . S
C435 H425 0.950 . S
C435 C436 1.386 . S
C435 C437 1.391 . S
C436 C435 1.386 . S
C436 C440 1.393 . S
C437 H426 0.950 . S
C437 C435 1.391 . S
C437 C438 1.400 . S
C438 C432 1.491 . S
C438 C437 1.400 . S
C438 C439 1.398 . S
C439 H427 0.950 . S
C439 C438 1.398 . S
C439 C440 1.391 . S
C440 H428 0.950 . S
C440 C436 1.393 . S
C440 C439 1.391 . S
H441 C449 0.950 . S
H442 C454 0.950 . S
H443 C451 0.950 . S
H444 C453 0.950 . S
H445 C455 0.950 . S
H446 C457 0.950 . S
H447 C459 0.950 . S
H448 C460 0.950 . S
C449 H441 0.950 . S
C449 C450 1.386 . S
C449 C451 1.391 . S
C450 C449 1.386 . S
C450 C454 1.393 . S
C451 H443 0.950 . S
C451 C449 1.391 . S
C451 C452 1.400 . S
C452 C451 1.400 . S
C452 C453 1.398 . S
C452 C458 1.491 . S
C453 H444 0.950 . S
C453 C452 1.398 . S
C453 C454 1.391 . S
C454 H442 0.950 . S
C454 C450 1.393 . S
C454 C453 1.391 . S
C455 H445 0.950 . S
C455 C456 1.386 . S
C455 C457 1.391 . S
C456 C455 1.386 . S
C456 C460 1.393 . S
C457 H446 0.950 . S
C457 C455 1.391 . S
C457 C458 1.400 . S
C458 C452 1.491 . S
C458 C457 1.400 . S
C458 C459 1.398 . S
C459 H447 0.950 . S
C459 C458 1.398 . S
C459 C460 1.391 . S
C460 H448 0.950 . S
C460 C456 1.393 . S
C460 C459 1.391 . S
H461 C469 0.950 . S
H462 C474 0.950 . S
H463 C471 0.950 . S
H464 C473 0.950 . S
H465 C475 0.950 . S
H466 C477 0.963 . S
H467 C479 0.951 . S
H468 C480 0.950 . S
C469 H461 0.950 . S
C469 C470 1.386 . S
C469 C471 1.391 . S
C470 C469 1.386 . S
C470 C474 1.393 . S
C471 H463 0.950 . S
C471 C469 1.391 . S
C471 C472 1.400 . S
C472 C471 1.400 . S
C472 C473 1.398 . S
C472 C478 1.491 . S
C473 H464 0.950 . S
C473 C472 1.398 . S
C473 C474 1.391 . S
C474 H462 0.950 . S
C474 C470 1.393 . S
C474 C473 1.391 . S
C475 H465 0.950 . S
C475 C476 1.386 . S
C475 C477 1.391 . S
C476 C475 1.386 . S
C476 C480 1.393 . S
C477 H466 0.963 . S
C477 C475 1.391 . S
C477 C478 1.400 1_554 S
C478 C472 1.491 . S
C478 C477 1.400 1_556 S
C478 C479 1.398 1_556 S
C479 H467 0.951 . S
C479 C478 1.398 1_554 S
C479 C480 1.391 . S
C480 H468 0.950 . S
C480 C476 1.393 . S
C480 C479 1.391 . S
H481 C489 0.950 . S
H482 C494 0.950 1_655 S
H483 C491 0.950 . S
H484 C493 0.950 1_655 S
H485 C495 0.950 . S
H486 C497 0.950 . S
H487 C499 0.950 . S
H488 C500 0.950 . S
C489 H481 0.950 . S
C489 C490 1.386 . S
C489 C491 1.391 . S
C490 C489 1.386 . S
C490 C494 1.393 . S
C491 H483 0.950 . S
C491 C489 1.391 . S
C491 C492 1.400 . S
C492 C491 1.400 . S
C492 C493 1.398 . S
C492 C498 1.491 . S
C493 H484 0.950 1_455 S
C493 C492 1.398 . S
C493 C494 1.391 . S
C494 H482 0.950 1_455 S
C494 C490 1.393 . S
C494 C493 1.391 . S
C495 H485 0.950 . S
C495 C496 1.386 1_655 S
C495 C497 1.391 . S
C496 C495 1.386 1_455 S
C496 C500 1.393 . S
C497 H486 0.950 . S
C497 C495 1.391 . S
C497 C498 1.400 1_655 S
C498 C492 1.491 . S
C498 C497 1.400 1_455 S
C498 C499 1.398 . S
C499 H487 0.950 . S
C499 C498 1.398 . S
C499 C500 1.391 . S
C500 H488 0.950 . S
C500 C496 1.393 . S
C500 C499 1.391 . S
C150 C20 1.490 . S
C156 C135 1.538 . S
C170 C41 1.315 . S
C176 C109 1.295 . S
C190 C64 1.324 . S
C196 C121 1.295 . S
C210 C19 1.023 . S
C216 C133 1.062 . S
C236 C111 1.296 . S
C230 C44 1.284 . S
C256 C123 1.255 . S
C250 C67 1.252 . S
C270 C43 1.276 . S
C276 C85 1.271 . S
C290 C66 1.510 . S
C296 C99 1.539 . S
C310 C21 1.254 . S
C316 C75 1.261 1_565 S
C336 C87 1.301 . S
C330 C42 1.228 . S
C356 C97 1.060 . S
C350 C65 1.055 . S
C370 C18 1.314 . S
C376 C73 1.288 . S
C396 C102 1.525 . S
C390 C17 1.520 . S
C410 C39 1.538 . S
C416 C78 1.533 . S
C430 C62 1.538 . S
C436 C90 1.535 . S
C456 C126 1.514 . S
C450 C40 1.512 . S
C476 C138 1.523 . S
C470 C63 1.522 . S
C490 C16 1.518 . S
C496 C114 1.515 . S
