# Generated by pormake.
# Topology myd, (4,6)-cn, num edge types: 1
# Building blocks:
#     Node 0, Type 0, BuildingBlock: IZENUY_clean_linker_0, # of connection points: 4
#     Node 1, Type 0, BuildingBlock: IZENUY_clean_linker_0, # of connection points: 4
#     Node 2, Type 0, BuildingBlock: IZENUY_clean_linker_0, # of connection points: 4
#     Node 3, Type 0, BuildingBlock: IZENUY_clean_linker_0, # of connection points: 4
#     Node 4, Type 0, BuildingBlock: IZENUY_clean_linker_0, # of connection points: 4
#     Node 5, Type 0, BuildingBlock: IZENUY_clean_linker_0, # of connection points: 4
#     Node 6, Type 0, BuildingBlock: IZENUY_clean_linker_0, # of connection points: 4
#     Node 7, Type 0, BuildingBlock: IZENUY_clean_linker_0, # of connection points: 4
#     Node 8, Type 0, BuildingBlock: IZENUY_clean_linker_0, # of connection points: 4
#     Node 9, Type 0, BuildingBlock: IZENUY_clean_linker_0, # of connection points: 4
#     Node 10, Type 0, BuildingBlock: IZENUY_clean_linker_0, # of connection points: 4
#     Node 11, Type 0, BuildingBlock: IZENUY_clean_linker_0, # of connection points: 4
#     Node 12, Type 1, BuildingBlock: CIFDUS_clean_sbu_1, # of connection points: 6
#     Node 13, Type 1, BuildingBlock: CIFDUS_clean_sbu_1, # of connection points: 6
#     Node 14, Type 1, BuildingBlock: CIFDUS_clean_sbu_1, # of connection points: 6
#     Node 15, Type 1, BuildingBlock: CIFDUS_clean_sbu_1, # of connection points: 6
#     Node 16, Type 1, BuildingBlock: CIFDUS_clean_sbu_1, # of connection points: 6
#     Node 17, Type 1, BuildingBlock: CIFDUS_clean_sbu_1, # of connection points: 6
#     Node 18, Type 1, BuildingBlock: CIFDUS_clean_sbu_1, # of connection points: 6
#     Node 19, Type 1, BuildingBlock: CIFDUS_clean_sbu_1, # of connection points: 6
#     Edge 20, Type (0, 1), None
#     Edge 21, Type (0, 1), None
#     Edge 22, Type (0, 1), None
#     Edge 23, Type (0, 1), None
#     Edge 24, Type (0, 1), None
#     Edge 25, Type (0, 1), None
#     Edge 26, Type (0, 1), None
#     Edge 27, Type (0, 1), None
#     Edge 28, Type (0, 1), None
#     Edge 29, Type (0, 1), None
#     Edge 30, Type (0, 1), None
#     Edge 31, Type (0, 1), None
#     Edge 32, Type (0, 1), None
#     Edge 33, Type (0, 1), None
#     Edge 34, Type (0, 1), None
#     Edge 35, Type (0, 1), None
#     Edge 36, Type (0, 1), None
#     Edge 37, Type (0, 1), None
#     Edge 38, Type (0, 1), None
#     Edge 39, Type (0, 1), None
#     Edge 40, Type (0, 1), None
#     Edge 41, Type (0, 1), None
#     Edge 42, Type (0, 1), None
#     Edge 43, Type (0, 1), None
#     Edge 44, Type (0, 1), None
#     Edge 45, Type (0, 1), None
#     Edge 46, Type (0, 1), None
#     Edge 47, Type (0, 1), None
#     Edge 48, Type (0, 1), None
#     Edge 49, Type (0, 1), None
#     Edge 50, Type (0, 1), None
#     Edge 51, Type (0, 1), None
#     Edge 52, Type (0, 1), None
#     Edge 53, Type (0, 1), None
#     Edge 54, Type (0, 1), None
#     Edge 55, Type (0, 1), None
#     Edge 56, Type (0, 1), None
#     Edge 57, Type (0, 1), None
#     Edge 58, Type (0, 1), None
#     Edge 59, Type (0, 1), None
#     Edge 60, Type (0, 1), None
#     Edge 61, Type (0, 1), None
#     Edge 62, Type (0, 1), None
#     Edge 63, Type (0, 1), None
#     Edge 64, Type (0, 1), None
#     Edge 65, Type (0, 1), None
#     Edge 66, Type (0, 1), None
#     Edge 67, Type (0, 1), None
# Relax obj value: 0.217
# Max RMSD: 0.244
# Mean RMSD: 0.206
data_MOF--net-myd--node1-CIFDUS_clean_sbu_1--node2-IZENUY_clean_linker_0--edge1-none
_symmetry_space_group_name_H-M    P1
_symmetry_Int_Tables_number       1
_symmetry_cell_setting            triclinic
loop_
_symmetry_equiv_pos_as_xyz
'x, y, z'
_cell_length_a     23.98047
_cell_length_b     24.165619
_cell_length_c     23.991201
_cell_angle_alpha  91.333614
_cell_angle_beta   92.512826
_cell_angle_gamma 92.620607
loop_
_atom_site_label
_atom_site_type_symbol
_atom_site_fract_x
_atom_site_fract_y
_atom_site_fract_z
_atom_type_partial_charge
H0 H 0.03015 0.38732 0.42213 0.0
H1 H 0.02431 0.34821 0.24594 0.0
H2 H 0.95764 0.49874 0.30331 0.0
H3 H 0.05962 0.23118 0.25937 0.0
H4 H 0.02129 0.18635 0.42459 0.0
H5 H 0.08575 0.06436 0.31175 0.0
N6 N 0.05314 0.30974 0.34101 0.0
N7 N 0.02301 0.26919 0.35452 0.0
C8 C 0.01996 0.39891 0.37969 0.0
C9 C 0.99457 0.4498 0.36879 0.0
C10 C 0.03145 0.36286 0.33455 0.0
C11 C 1.01833 0.37762 0.27981 0.0
C12 C 0.99091 0.42584 0.26895 0.0
C13 C 0.9802 0.46202 0.31301 0.0
C14 C 0.05701 0.19972 0.29083 0.0
C15 C 0.0722 0.14576 0.27808 0.0
C16 C 0.04001 0.21444 0.34394 0.0
C17 C 0.03613 0.17403 0.38435 0.0
C18 C 0.05237 0.11911 0.37394 0.0
C19 C 0.07147 0.10545 0.32039 0.0
H20 H 0.02306 0.66934 0.10785 0.0
H21 H 0.98014 0.73237 0.2676 0.0
H22 H 0.92787 0.56556 0.21832 0.0
H23 H 0.03957 0.83424 0.25482 0.0
H24 H 0.01983 0.88551 0.08513 0.0
H25 H 0.08999 0.99963 0.21474 0.0
N26 N 0.03102 0.7587 0.1791 0.0
N27 N 1.00838 0.79754 0.15462 0.0
C28 C 1.00294 0.66288 0.14688 0.0
C29 C 0.97642 0.61098 0.15836 0.0
C30 C 1.00336 0.70657 0.1863 0.0
C31 C 0.97987 0.69796 0.23763 0.0
C32 C 0.95293 0.64749 0.2497 0.0
C33 C 0.95059 0.60403 0.20978 0.0
C34 C 0.04312 0.86604 0.22376 0.0
C35 C 0.06417 0.91865 0.2404 0.0
C36 C 0.029 0.85269 0.16785 0.0
C37 C 0.03292 0.89469 0.12826 0.0
C38 C 0.05529 0.94838 0.14503 0.0
C39 C 0.07151 0.95946 0.20124 0.0
H40 H 0.23828 0.06042 0.18461 0.0
H41 H 0.40868 0.02573 0.16675 0.0
H42 H 0.32186 0.1181 0.03965 0.0
H43 H 0.43075 0.02545 0.36287 0.0
H44 H 0.25573 1.01633 0.312 0.0
H45 H 0.30542 0.97409 0.4776 0.0
N46 N 0.32185 0.0234 0.2364 0.0
N47 N 0.35798 0.03558 0.2744 0.0
C48 C 0.27412 0.0613 0.15841 0.0
C49 C 0.27318 0.09213 0.10988 0.0
C50 C 0.32345 0.04168 0.18073 0.0
C51 C 0.37125 0.04333 0.14923 0.0
C52 C 0.37007 0.0662 0.09501 0.0
C53 C 0.32149 0.094 0.07714 0.0
C54 C 0.38742 1.01824 0.37273 0.0
C55 C 0.37342 1.00081 0.42664 0.0
C56 C 0.34514 0.02323 0.33057 0.0
C57 C 0.28886 1.01433 0.34405 0.0
C58 C 0.27476 0.99684 0.39671 0.0
C59 C 0.31691 0.99049 0.43775 0.0
H60 H 0.61933 0.53331 0.14961 0.0
H61 H 0.77882 0.48602 0.21389 0.0
H62 H 0.72416 0.43457 0.04728 0.0
H63 H 0.7658 0.55124 0.31716 0.0
H64 H 0.59429 0.53321 0.36174 0.0
H65 H 0.72231 0.60322 0.47963 0.0
N66 N 0.69292 0.53954 0.23882 0.0
N67 N 0.66527 0.51994 0.27728 0.0
C68 C 0.65743 0.51196 0.14348 0.0
C69 C 0.66686 0.48519 0.09186 0.0
C70 C 0.69793 0.51147 0.18721 0.0
C71 C 0.74801 0.48616 0.17933 0.0
C72 C 0.75784 0.45832 0.12943 0.0
C73 C 0.71709 0.4574 0.08556 0.0
C74 C 0.73394 0.55506 0.34763 0.0
C75 C 0.74942 0.57667 0.40041 0.0
C76 C 0.67804 0.54078 0.33249 0.0
C77 C 0.63744 0.54552 0.37274 0.0
C78 C 0.65317 0.56797 0.42668 0.0
C79 C 0.70941 0.58394 0.43958 0.0
H80 H 0.37222 0.43235 0.02029 0.0
H81 H 0.3356 0.25624 0.01735 0.0
H82 H 0.48357 0.31953 0.94438 0.0
H83 H 0.21458 0.28126 0.06318 0.0
H84 H 0.17649 0.44615 0.02109 0.0
H85 H 0.04762 0.33468 0.08319 0.0
N86 N 0.29554 0.34785 0.04542 0.0
N87 N 0.25775 0.37617 0.02536 0.0
C88 C 0.38404 0.39081 1.00977 0.0
C89 C 0.43499 0.38199 0.98337 0.0
C90 C 0.34885 0.34455 0.02283 0.0
C91 C 0.36437 0.29104 1.00999 0.0
C92 C 0.41157 0.28256 0.98022 0.0
C93 C 0.44717 0.3275 0.96811 0.0
C94 C 0.1845 0.31336 0.05973 0.0
C95 C 0.12929 0.3013 0.07404 0.0
C96 C 0.20184 0.36587 0.04182 0.0
C97 C 0.1625 0.40625 0.03635 0.0
C98 C 0.10625 0.39598 0.05075 0.0
C99 C 0.08988 0.3431 0.07053 0.0
H100 H 0.32393 0.78275 0.55686 0.0
H101 H 0.35332 0.61239 0.52396 0.0
H102 H 0.49081 0.72673 0.57819 0.0
H103 H 0.15536 0.63771 0.5309 0.0
H104 H 0.20471 0.80609 0.49873 0.0
H105 H 0.05124 0.73632 0.42409 0.0
N106 N 0.27408 0.68602 0.52509 0.0
N107 N 0.23957 0.71859 0.54274 0.0
C108 C 0.35253 0.74928 0.55488 0.0
C109 C 0.40928 0.76081 0.56796 0.0
C110 C 0.33179 0.6956 0.54074 0.0
C111 C 0.36947 0.65348 0.53709 0.0
C112 C 0.4274 0.66412 0.54992 0.0
C113 C 0.44705 0.71804 0.56671 0.0
C114 C 0.14618 0.67669 0.51192 0.0
C115 C 0.09537 0.68264 0.48064 0.0
C116 C 0.1851 0.72195 0.51845 0.0
C117 C 0.17285 0.77256 0.49553 0.0
C118 C 0.12609 0.7774 0.45983 0.0
C119 C 0.08698 0.73267 0.45282 0.0
H120 H 0.7146 0.78118 0.56311 0.0
H121 H 0.67682 0.94613 0.52117 0.0
H122 H 0.54774 0.83489 0.58326 0.0
H123 H 0.87232 0.93234 0.52023 0.0
H124 H 0.83567 0.75623 0.51737 0.0
H125 H 0.98359 0.81949 0.44426 0.0
N126 N 0.75786 0.87608 0.52533 0.0
N127 N 0.79567 0.84784 0.54546 0.0
C128 C 0.68456 0.81332 0.55969 0.0
C129 C 0.62934 0.80134 0.57403 0.0
C130 C 0.70196 0.86581 0.54182 0.0
C131 C 0.66273 0.90625 0.53641 0.0
C132 C 0.60649 0.89611 0.55084 0.0
C133 C 0.59 0.84323 0.57058 0.0
C134 C 0.88413 0.89079 0.50972 0.0
C135 C 0.93505 0.88197 0.48326 0.0
C136 C 0.84896 0.84453 0.52283 0.0
C137 C 0.86444 0.79103 0.50998 0.0
C138 C 0.91161 0.78254 0.48016 0.0
C139 C 0.94721 0.82747 0.46801 0.0
H140 H 0.53016 0.88733 0.92216 0.0
H141 H 0.52436 0.84816 0.74599 0.0
H142 H 0.45761 0.99868 0.80331 0.0
H143 H 0.55966 0.73122 0.75937 0.0
H144 H 0.52122 0.68636 0.92454 0.0
H145 H 0.5857 0.56437 0.81172 0.0
N146 N 0.55318 0.80974 0.84108 0.0
N147 N 0.52299 0.76919 0.85449 0.0
C148 C 0.51997 0.8989 0.87972 0.0
C149 C 0.49454 0.94976 0.86881 0.0
C150 C 0.53149 0.86286 0.8346 0.0
C151 C 0.51836 0.87758 0.77985 0.0
C152 C 0.49092 0.92577 0.76897 0.0
C153 C 0.48017 0.96196 0.81302 0.0
C154 C 0.55702 0.69975 0.79082 0.0
C155 C 0.5722 0.64579 0.77806 0.0
C156 C 0.54 0.71445 0.84391 0.0
C157 C 0.53608 0.67404 0.88431 0.0
C158 C 0.55231 0.61912 0.87391 0.0
C159 C 0.57143 0.60546 0.82036 0.0
H160 H 0.5233 0.16958 0.60804 0.0
H161 H 0.4801 0.23251 0.76772 0.0
H162 H 0.42813 0.06565 0.71839 0.0
H163 H 0.5396 0.33439 0.75492 0.0
H164 H 0.51988 0.38557 0.58519 0.0
H165 H 0.58996 0.49977 0.71476 0.0
N166 N 0.5311 0.25886 0.67928 0.0
N167 N 0.50847 0.29765 0.65472 0.0
C168 C 0.50315 0.16307 0.64704 0.0
C169 C 0.47673 0.11115 0.65851 0.0
C170 C 0.50347 0.20673 0.68646 0.0
C171 C 0.47991 0.1981 0.73775 0.0
C172 C 0.45302 0.1476 0.74979 0.0
C173 C 0.45082 0.10414 0.70988 0.0
C174 C 0.54312 0.36618 0.72385 0.0
C175 C 0.56409 0.41882 0.74046 0.0
C176 C 0.52905 0.3528 0.66794 0.0
C177 C 0.53296 0.39478 0.62833 0.0
C178 C 0.55531 0.44847 0.64507 0.0
C179 C 0.57149 0.45958 0.70128 0.0
H180 H 0.73835 0.56046 0.68464 0.0
H181 H 0.90875 0.52577 0.66676 0.0
H182 H 0.82188 0.61811 0.53965 0.0
H183 H 0.9304 0.52461 0.86318 0.0
H184 H 0.75552 0.51634 0.81177 0.0
H185 H 0.80448 0.47406 0.97757 0.0
N186 N 0.82188 0.52337 0.73641 0.0
N187 N 0.85796 0.53535 0.7745 0.0
C188 C 0.7742 0.56135 0.65845 0.0
C189 C 0.77322 0.59216 0.6099 0.0
C190 C 0.82353 0.54175 0.68077 0.0
C191 C 0.87132 0.54338 0.64925 0.0
C192 C 0.87012 0.56624 0.59502 0.0
C193 C 0.82153 0.59403 0.57715 0.0
C194 C 0.887 0.5176 0.87288 0.0
C195 C 0.87273 0.50016 0.92672 0.0
C196 C 0.8449 0.52292 0.83061 0.0
C197 C 0.78854 0.51424 0.84391 0.0
C198 C 0.77425 0.49684 0.89656 0.0
C199 C 0.81618 0.49033 0.93773 0.0
H200 H 0.26581 0.05127 0.81714 0.0
H201 H 0.09429 0.03322 0.86169 0.0
H202 H 0.22231 0.10322 0.9796 0.0
H203 H 0.1193 0.03305 0.6497 0.0
H204 H 0.27905 0.98618 0.71371 0.0
H205 H 0.22421 0.93458 0.5472 0.0
N206 N 0.16527 1.01996 0.77723 0.0
N207 N 0.19304 0.03946 0.7388 0.0
C208 C 0.23394 0.05509 0.84759 0.0
C209 C 0.24941 0.07669 0.90037 0.0
C210 C 0.17804 0.0408 0.83245 0.0
C211 C 0.13744 0.04554 0.87269 0.0
C212 C 0.15317 0.06798 0.92664 0.0
C213 C 0.20941 0.08395 0.93955 0.0
C214 C 0.15744 1.01179 0.64352 0.0
C215 C 0.16687 0.98507 0.59189 0.0
C216 C 0.19802 1.01141 0.68718 0.0
C217 C 0.24818 0.98625 0.6792 0.0
C218 C 0.25802 0.95847 0.62927 0.0
C219 C 0.21716 0.9574 0.58549 0.0
H220 H 0.65529 0.13767 0.03098 0.0
H221 H 0.70487 0.30583 0.99812 0.0
H222 H 0.55119 0.2361 0.92394 0.0
H223 H 0.82389 0.28252 0.05711 0.0
H224 H 0.85335 0.11227 0.0238 0.0
H225 H 0.99076 0.22653 0.07845 0.0
N226 N 0.73957 0.21844 0.04256 0.0
N227 N 0.77411 0.18588 0.02496 0.0
C228 C 0.64616 0.17659 1.01184 0.0
C229 C 0.59536 0.1825 0.98054 0.0
C230 C 0.68514 0.2218 0.01817 0.0
C231 C 0.67297 0.27235 0.99508 0.0
C232 C 0.62609 0.27721 0.95953 0.0
C233 C 0.58696 0.23247 0.95264 0.0
C234 C 0.85248 0.24905 0.0551 0.0
C235 C 0.90921 0.26054 0.06832 0.0
C236 C 0.83179 0.19542 0.04076 0.0
C237 C 0.86947 0.15332 0.03706 0.0
C238 C 0.92739 0.16395 0.04997 0.0
C239 C 0.94701 0.21783 0.06694 0.0
O240 O 0.07312 0.13963 0.17701 0.0
Mn241 Mn 0.09896 0.12036 0.09402 0.0
O242 O 0.15325 0.14851 0.22939 0.0
Mn243 Mn 0.18389 0.1829 0.16977 0.0
O244 O 0.1292 0.09885 0.01677 0.0
O245 O 1.01743 0.11729 0.06022 0.0
Mn246 Mn 1.01533 0.053 0.0202 0.0
O247 O 0.09102 0.03711 0.11764 0.0
O248 O 0.06307 0.05477 0.96217 0.0
O249 O 0.10564 0.20391 0.07132 0.0
O250 O 0.14468 0.24404 0.14807 0.0
O251 O 0.94686 0.07748 1.00792 0.0
O252 O 0.02095 0.99406 0.06647 0.0
C253 C 0.23154 0.13585 0.11013 0.0
C254 C 0.10067 0.13809 0.22514 0.0
C255 C 0.11244 0.07493 0.97034 0.0
C256 C 0.9654 0.1185 0.04044 0.0
C257 C 0.05745 0.99474 0.10619 0.0
C258 C 0.11951 0.24756 0.10098 0.0
O259 O 0.18053 0.12302 0.12393 0.0
O260 O 0.25153 0.17993 0.13661 0.0
O261 O 0.97576 0.42017 0.169 0.0
Mn262 Mn 0.93748 0.43955 0.09068 0.0
O263 O 0.90504 0.42233 0.22369 0.0
Mn264 Mn 0.871 0.38456 0.16476 0.0
O265 O 0.90127 0.46237 1.01411 0.0
O266 O 1.01653 0.44395 0.05991 0.0
Mn267 Mn 1.01704 0.51032 0.02737 0.0
O268 O 0.9432 0.52185 0.12148 0.0
O269 O 0.96446 0.51208 0.96841 0.0
O270 O 0.93121 0.35694 0.06357 0.0
O271 O 0.90463 0.32085 0.14237 0.0
O272 O 0.08464 0.48436 0.01452 0.0
O273 O 1.01435 0.56554 0.08139 0.0
C274 C 0.80391 0.42039 0.1315 0.0
C275 C 0.95655 0.4284 0.21749 0.0
C276 C 0.91559 0.4903 0.97163 0.0
C277 C 0.06748 0.442 0.04235 0.0
C278 C 0.97751 0.56388 0.11772 0.0
C279 C 0.92285 0.31498 0.09412 0.0
O280 O 0.85402 0.43485 0.11409 0.0
O281 O 0.79743 0.3789 0.16431 0.0
O282 O 0.17447 0.98494 0.39846 0.0
Mn283 Mn 0.09594 0.94945 0.42015 0.0
O284 O 0.22801 0.91261 0.39395 0.0
Mn285 Mn 0.16769 0.87296 0.36423 0.0
O286 O 0.01982 0.91417 0.44395 0.0
O287 O 0.06512 0.02854 0.42222 0.0
Mn288 Mn 0.03368 0.02702 0.48961 0.0
O289 O 0.1286 0.95461 0.50231 0.0
O290 O 0.97387 0.97522 0.49282 0.0
O291 O 0.06789 0.94269 0.33698 0.0
O292 O 0.13674 0.89706 0.29879 0.0
O293 O 0.01997 0.09456 0.46366 0.0
O294 O 0.0886 0.0237 0.54593 0.0
C295 C 0.13376 0.81617 0.41491 0.0
C296 C 0.22281 0.96383 0.40075 0.0
C297 C 0.97734 0.92702 0.47153 0.0
C298 C 0.04674 0.07905 0.42063 0.0
C299 C 0.12527 0.9875 0.54452 0.0
C300 C 0.0925 0.92355 0.29475 0.0
O301 O 0.11904 0.86789 0.41702 0.0
O302 O 0.16569 0.80055 0.37576 0.0
O303 O 0.90511 0.68375 0.46595 0.0
Mn304 Mn 0.92817 0.60757 0.43054 0.0
O305 O 0.90844 0.73873 0.39469 0.0
Mn306 Mn 0.87452 0.67863 0.35952 0.0
O307 O 0.9546 0.53343 0.39771 0.0
O308 O 0.92845 0.57694 0.51015 0.0
Mn309 Mn 0.99523 0.54522 0.51587 0.0
O310 O 1.01008 0.64089 0.44108 0.0
O311 O 1.00039 0.48716 0.46321 0.0
O312 O 0.84666 0.57667 0.42053 0.0
O313 O 0.80873 0.65174 0.38756 0.0
O314 O 0.96222 0.5331 0.58182 0.0
O315 O 0.05068 0.60129 0.51477 0.0
C316 C 0.91441 0.649 0.29536 0.0
C317 C 0.91365 0.73213 0.44625 0.0
C318 C 0.98173 0.49142 0.41305 0.0
C319 C 0.92116 0.56024 0.56107 0.0
C320 C 0.05048 0.63812 0.47776 0.0
C321 C 0.80413 0.60414 0.40772 0.0
O322 O 0.92777 0.63144 0.34609 0.0
O323 O 0.87218 0.67984 0.28658 0.0
O324 O 0.47591 0.92004 0.66899 0.0
Mn325 Mn 0.4379 0.93987 0.59064 0.0
O326 O 0.40512 0.92244 0.72356 0.0
Mn327 Mn 0.37124 0.88483 0.66447 0.0
O328 O 0.40213 0.96331 0.51407 0.0
O329 O 0.51695 0.94439 0.55995 0.0
Mn330 Mn 0.51769 1.0108 0.52735 0.0
O331 O 0.44384 1.02196 0.62177 0.0
O332 O 0.4654 1.01268 0.46812 0.0
O333 O 0.4314 0.8573 0.56322 0.0
O334 O 0.40487 0.82115 0.64202 0.0
O335 O 0.58529 0.98466 0.51482 0.0
O336 O 0.51466 0.06597 0.58139 0.0
C337 C 0.30419 0.92064 0.63123 0.0
C338 C 0.45665 0.92837 0.71745 0.0
C339 C 0.41645 0.99111 0.47149 0.0
C340 C 0.56792 0.94229 0.54252 0.0
C341 C 0.47795 0.06411 0.61787 0.0
C342 C 0.42297 0.81529 0.59372 0.0
O343 O 0.35432 0.93528 0.61392 0.0
O344 O 0.2977 0.87903 0.66391 0.0
O345 O 0.57313 0.6397 0.677 0.0
Mn346 Mn 0.59896 0.62041 0.59402 0.0
O347 O 0.65326 0.64854 0.72938 0.0
Mn348 Mn 0.68389 0.68293 0.66976 0.0
O349 O 0.62919 0.59888 0.51679 0.0
O350 O 0.51742 0.61737 0.56024 0.0
Mn351 Mn 0.5153 0.55306 0.52025 0.0
O352 O 0.59103 0.53718 0.61766 0.0
O353 O 0.56306 0.55478 0.46222 0.0
O354 O 0.60566 0.70396 0.5713 0.0
O355 O 0.64467 0.74407 0.64806 0.0
O356 O 0.44683 0.57756 0.50798 0.0
O357 O 0.52092 0.49413 0.56654 0.0
C358 C 0.73157 0.63587 0.61014 0.0
C359 C 0.60067 0.63813 0.72513 0.0
C360 C 0.61244 0.57493 0.47037 0.0
C361 C 0.46539 0.6186 0.54046 0.0
C362 C 0.55745 0.49481 0.60623 0.0
C363 C 0.61951 0.74761 0.60098 0.0
O364 O 0.68054 0.62304 0.62393 0.0
O365 O 0.75153 0.67997 0.6366 0.0
O366 O 0.67404 0.48492 0.89813 0.0
Mn367 Mn 0.59572 0.44942 0.92012 0.0
O368 O 0.72763 0.4126 0.8941 0.0
Mn369 Mn 0.66743 0.37301 0.8642 0.0
O370 O 0.51973 0.41418 0.94412 0.0
O371 O 0.56497 0.52853 0.9222 0.0
Mn372 Mn 0.53358 0.52707 0.98961 0.0
O373 O 0.62859 0.4547 1.00225 0.0
O374 O 0.47376 0.47529 0.99287 0.0
O375 O 0.56752 0.44259 0.83705 0.0
O376 O 0.63671 0.39751 0.79883 0.0
O377 O 0.5199 0.59461 0.96363 0.0
O378 O 0.58856 0.52377 0.0459 0.0
C379 C 0.63354 0.31608 0.91465 0.0
C380 C 0.72236 0.46385 0.90052 0.0
C381 C 0.47725 0.42706 0.97165 0.0
C382 C 0.54664 0.57906 0.9206 0.0
C383 C 0.62527 0.48761 0.04446 0.0
C384 C 0.59234 0.42379 0.79482 0.0
O385 O 0.61877 0.3678 0.91698 0.0
O386 O 0.66539 0.30056 0.87539 0.0
O387 O 0.40515 0.18375 0.966 0.0
Mn388 Mn 0.42815 0.10754 0.93056 0.0
O389 O 0.40845 0.23875 0.89474 0.0
Mn390 Mn 0.37453 0.17865 0.85955 0.0
O391 O 0.45454 0.03339 0.89772 0.0
O392 O 0.42842 0.07689 1.01016 0.0
Mn393 Mn 0.49519 0.04515 0.0159 0.0
O394 O 0.51007 0.14077 0.94108 0.0
O395 O 0.50035 0.98712 0.96321 0.0
O396 O 0.34664 0.07668 0.92055 0.0
O397 O 0.30874 0.15176 0.88755 0.0
O398 O 0.46216 0.03303 0.08184 0.0
O399 O 0.55066 0.1012 0.01479 0.0
C400 C 0.41445 0.14904 0.7954 0.0
C401 C 0.41366 0.23214 0.9463 0.0
C402 C 0.48168 0.99138 0.91306 0.0
C403 C 0.42112 0.06018 0.06108 0.0
C404 C 0.55046 0.138 0.97775 0.0
C405 C 0.30411 0.10416 0.90771 0.0
O406 O 0.42778 0.13145 0.84613 0.0
O407 O 0.37222 0.17987 0.78661 0.0
loop_
_geom_bond_atom_site_label_1
_geom_bond_atom_site_label_2
_geom_bond_distance
_geom_bond_site_symmetry_2
_ccdc_geom_bond_type
H0 C8 0.940 1_455 S
H1 C11 0.940 . S
H2 C13 0.940 . S
H3 C14 0.940 . S
H4 C17 0.940 . S
H5 C19 0.940 . S
N6 N7 1.190 . S
N6 C10 1.477 1_455 S
N7 N6 1.190 . S
N7 C16 1.477 . S
C8 H0 0.940 1_655 S
C8 C9 1.390 . S
C8 C10 1.322 . S
C9 C8 1.390 . S
C9 C13 1.370 . S
C10 N6 1.477 1_655 S
C10 C8 1.322 . S
C10 C11 1.447 . S
C11 H1 0.940 . S
C11 C10 1.447 . S
C11 C12 1.373 . S
C12 C11 1.373 . S
C12 C13 1.417 . S
C13 H2 0.940 . S
C13 C9 1.370 . S
C13 C12 1.417 . S
C14 H3 0.940 . S
C14 C15 1.390 . S
C14 C16 1.322 . S
C15 C14 1.390 . S
C15 C19 1.370 . S
C16 N7 1.477 . S
C16 C14 1.322 . S
C16 C17 1.447 . S
C17 H4 0.940 . S
C17 C16 1.447 . S
C17 C18 1.373 . S
C18 C17 1.373 . S
C18 C19 1.417 . S
C19 H5 0.940 . S
C19 C15 1.370 . S
C19 C18 1.417 . S
H20 C28 0.940 . S
H21 C31 0.940 . S
H22 C33 0.940 . S
H23 C34 0.940 . S
H24 C37 0.940 . S
H25 C39 0.940 . S
N26 N27 1.190 . S
N26 C30 1.477 . S
N27 N26 1.190 . S
N27 C36 1.477 1_655 S
C28 H20 0.940 . S
C28 C29 1.390 . S
C28 C30 1.322 . S
C29 C28 1.390 . S
C29 C33 1.370 . S
C30 N26 1.477 . S
C30 C28 1.322 . S
C30 C31 1.447 . S
C31 H21 0.940 . S
C31 C30 1.447 . S
C31 C32 1.373 . S
C32 C31 1.373 . S
C32 C33 1.417 . S
C33 H22 0.940 . S
C33 C29 1.370 . S
C33 C32 1.417 . S
C34 H23 0.940 . S
C34 C35 1.390 . S
C34 C36 1.322 . S
C35 C34 1.390 . S
C35 C39 1.370 . S
C36 N27 1.477 1_455 S
C36 C34 1.322 . S
C36 C37 1.447 . S
C37 H24 0.940 . S
C37 C36 1.447 . S
C37 C38 1.373 . S
C38 C37 1.373 . S
C38 C39 1.417 . S
C39 H25 0.940 . S
C39 C35 1.370 . S
C39 C38 1.417 . S
H40 C48 0.940 . S
H41 C51 0.940 . S
H42 C53 0.940 . S
H43 C54 0.940 . S
H44 C57 0.940 . S
H45 C59 0.940 . S
N46 N47 1.190 1_545 S
N46 C50 1.477 . S
N47 N46 1.190 1_565 S
N47 C56 1.477 . S
C48 H40 0.940 . S
C48 C49 1.390 . S
C48 C50 1.322 . S
C49 C48 1.390 . S
C49 C53 1.370 . S
C50 N46 1.477 . S
C50 C48 1.322 . S
C50 C51 1.447 . S
C51 H41 0.940 . S
C51 C50 1.447 . S
C51 C52 1.373 . S
C52 C51 1.373 . S
C52 C53 1.417 . S
C53 H42 0.940 . S
C53 C49 1.370 . S
C53 C52 1.417 . S
C54 H43 0.940 . S
C54 C55 1.390 . S
C54 C56 1.322 . S
C55 C54 1.390 . S
C55 C59 1.370 . S
C56 N47 1.477 . S
C56 C54 1.322 . S
C56 C57 1.447 . S
C57 H44 0.940 . S
C57 C56 1.447 . S
C57 C58 1.373 . S
C58 C57 1.373 . S
C58 C59 1.417 . S
C59 H45 0.940 . S
C59 C55 1.370 . S
C59 C58 1.417 . S
H60 C68 0.940 . S
H61 C71 0.940 . S
H62 C73 0.940 . S
H63 C74 0.940 . S
H64 C77 0.940 . S
H65 C79 0.940 . S
N66 N67 1.190 . S
N66 C70 1.477 . S
N67 N66 1.190 . S
N67 C76 1.477 . S
C68 H60 0.940 . S
C68 C69 1.390 . S
C68 C70 1.322 . S
C69 C68 1.390 . S
C69 C73 1.370 . S
C70 N66 1.477 . S
C70 C68 1.322 . S
C70 C71 1.447 . S
C71 H61 0.940 . S
C71 C70 1.447 . S
C71 C72 1.373 . S
C72 C71 1.373 . S
C72 C73 1.417 . S
C73 H62 0.940 . S
C73 C69 1.370 . S
C73 C72 1.417 . S
C74 H63 0.940 . S
C74 C75 1.390 . S
C74 C76 1.322 . S
C75 C74 1.390 . S
C75 C79 1.370 . S
C76 N67 1.477 . S
C76 C74 1.322 . S
C76 C77 1.447 . S
C77 H64 0.940 . S
C77 C76 1.447 . S
C77 C78 1.373 . S
C78 C77 1.373 . S
C78 C79 1.417 . S
C79 H65 0.940 . S
C79 C75 1.370 . S
C79 C78 1.417 . S
H80 C88 0.940 . S
H81 C91 0.940 . S
H82 C93 0.940 . S
H83 C94 0.940 . S
H84 C97 0.940 . S
H85 C99 0.940 . S
N86 N87 1.190 . S
N86 C90 1.477 1_554 S
N87 N86 1.190 . S
N87 C96 1.477 . S
C88 H80 0.940 . S
C88 C89 1.390 . S
C88 C90 1.322 . S
C89 C88 1.390 . S
C89 C93 1.370 . S
C90 N86 1.477 1_556 S
C90 C88 1.322 . S
C90 C91 1.447 . S
C91 H81 0.940 . S
C91 C90 1.447 . S
C91 C92 1.373 . S
C92 C91 1.373 . S
C92 C93 1.417 . S
C93 H82 0.940 . S
C93 C89 1.370 . S
C93 C92 1.417 . S
C94 H83 0.940 . S
C94 C95 1.390 . S
C94 C96 1.322 . S
C95 C94 1.390 . S
C95 C99 1.370 . S
C96 N87 1.477 . S
C96 C94 1.322 . S
C96 C97 1.447 . S
C97 H84 0.940 . S
C97 C96 1.447 . S
C97 C98 1.373 . S
C98 C97 1.373 . S
C98 C99 1.417 . S
C99 H85 0.940 . S
C99 C95 1.370 . S
C99 C98 1.417 . S
H100 C108 0.940 . S
H101 C111 0.940 . S
H102 C113 0.940 . S
H103 C114 0.940 . S
H104 C117 0.940 . S
H105 C119 0.940 . S
N106 N107 1.190 . S
N106 C110 1.477 . S
N107 N106 1.190 . S
N107 C116 1.477 . S
C108 H100 0.940 . S
C108 C109 1.390 . S
C108 C110 1.322 . S
C109 C108 1.390 . S
C109 C113 1.370 . S
C110 N106 1.477 . S
C110 C108 1.322 . S
C110 C111 1.447 . S
C111 H101 0.940 . S
C111 C110 1.447 . S
C111 C112 1.373 . S
C112 C111 1.373 . S
C112 C113 1.417 . S
C113 H102 0.940 . S
C113 C109 1.370 . S
C113 C112 1.417 . S
C114 H103 0.940 . S
C114 C115 1.390 . S
C114 C116 1.322 . S
C115 C114 1.390 . S
C115 C119 1.370 . S
C116 N107 1.477 . S
C116 C114 1.322 . S
C116 C117 1.447 . S
C117 H104 0.940 . S
C117 C116 1.447 . S
C117 C118 1.373 . S
C118 C117 1.373 . S
C118 C119 1.417 . S
C119 H105 0.940 . S
C119 C115 1.370 . S
C119 C118 1.417 . S
H120 C128 0.940 . S
H121 C131 0.940 . S
H122 C133 0.940 . S
H123 C134 0.940 . S
H124 C137 0.940 . S
H125 C139 0.940 . S
N126 N127 1.190 . S
N126 C130 1.477 . S
N127 N126 1.190 . S
N127 C136 1.477 . S
C128 H120 0.940 . S
C128 C129 1.390 . S
C128 C130 1.322 . S
C129 C128 1.390 . S
C129 C133 1.370 . S
C130 N126 1.477 . S
C130 C128 1.322 . S
C130 C131 1.447 . S
C131 H121 0.940 . S
C131 C130 1.447 . S
C131 C132 1.373 . S
C132 C131 1.373 . S
C132 C133 1.417 . S
C133 H122 0.940 . S
C133 C129 1.370 . S
C133 C132 1.417 . S
C134 H123 0.940 . S
C134 C135 1.390 . S
C134 C136 1.322 . S
C135 C134 1.390 . S
C135 C139 1.370 . S
C136 N127 1.477 . S
C136 C134 1.322 . S
C136 C137 1.447 . S
C137 H124 0.940 . S
C137 C136 1.447 . S
C137 C138 1.373 . S
C138 C137 1.373 . S
C138 C139 1.417 . S
C139 H125 0.940 . S
C139 C135 1.370 . S
C139 C138 1.417 . S
H140 C148 0.940 . S
H141 C151 0.940 . S
H142 C153 0.940 . S
H143 C154 0.940 . S
H144 C157 0.940 . S
H145 C159 0.940 . S
N146 N147 1.190 . S
N146 C150 1.477 . S
N147 N146 1.190 . S
N147 C156 1.477 . S
C148 H140 0.940 . S
C148 C149 1.390 . S
C148 C150 1.322 . S
C149 C148 1.390 . S
C149 C153 1.370 . S
C150 N146 1.477 . S
C150 C148 1.322 . S
C150 C151 1.447 . S
C151 H141 0.940 . S
C151 C150 1.447 . S
C151 C152 1.373 . S
C152 C151 1.373 . S
C152 C153 1.417 . S
C153 H142 0.940 . S
C153 C149 1.370 . S
C153 C152 1.417 . S
C154 H143 0.940 . S
C154 C155 1.390 . S
C154 C156 1.322 . S
C155 C154 1.390 . S
C155 C159 1.370 . S
C156 N147 1.477 . S
C156 C154 1.322 . S
C156 C157 1.447 . S
C157 H144 0.940 . S
C157 C156 1.447 . S
C157 C158 1.373 . S
C158 C157 1.373 . S
C158 C159 1.417 . S
C159 H145 0.940 . S
C159 C155 1.370 . S
C159 C158 1.417 . S
H160 C168 0.940 . S
H161 C171 0.940 . S
H162 C173 0.940 . S
H163 C174 0.940 . S
H164 C177 0.940 . S
H165 C179 0.940 . S
N166 N167 1.190 . S
N166 C170 1.477 . S
N167 N166 1.190 . S
N167 C176 1.477 . S
C168 H160 0.940 . S
C168 C169 1.390 . S
C168 C170 1.322 . S
C169 C168 1.390 . S
C169 C173 1.370 . S
C170 N166 1.477 . S
C170 C168 1.322 . S
C170 C171 1.447 . S
C171 H161 0.940 . S
C171 C170 1.447 . S
C171 C172 1.373 . S
C172 C171 1.373 . S
C172 C173 1.417 . S
C173 H162 0.940 . S
C173 C169 1.370 . S
C173 C172 1.417 . S
C174 H163 0.940 . S
C174 C175 1.390 . S
C174 C176 1.322 . S
C175 C174 1.390 . S
C175 C179 1.370 . S
C176 N167 1.477 . S
C176 C174 1.322 . S
C176 C177 1.447 . S
C177 H164 0.940 . S
C177 C176 1.447 . S
C177 C178 1.373 . S
C178 C177 1.373 . S
C178 C179 1.417 . S
C179 H165 0.940 . S
C179 C175 1.370 . S
C179 C178 1.417 . S
H180 C188 0.940 . S
H181 C191 0.940 . S
H182 C193 0.940 . S
H183 C194 0.940 . S
H184 C197 0.940 . S
H185 C199 0.940 . S
N186 N187 1.190 . S
N186 C190 1.477 . S
N187 N186 1.190 . S
N187 C196 1.477 . S
C188 H180 0.940 . S
C188 C189 1.390 . S
C188 C190 1.322 . S
C189 C188 1.390 . S
C189 C193 1.370 . S
C190 N186 1.477 . S
C190 C188 1.322 . S
C190 C191 1.447 . S
C191 H181 0.940 . S
C191 C190 1.447 . S
C191 C192 1.373 . S
C192 C191 1.373 . S
C192 C193 1.417 . S
C193 H182 0.940 . S
C193 C189 1.370 . S
C193 C192 1.417 . S
C194 H183 0.940 . S
C194 C195 1.390 . S
C194 C196 1.322 . S
C195 C194 1.390 . S
C195 C199 1.370 . S
C196 N187 1.477 . S
C196 C194 1.322 . S
C196 C197 1.447 . S
C197 H184 0.940 . S
C197 C196 1.447 . S
C197 C198 1.373 . S
C198 C197 1.373 . S
C198 C199 1.417 . S
C199 H185 0.940 . S
C199 C195 1.370 . S
C199 C198 1.417 . S
H200 C208 0.940 . S
H201 C211 0.940 . S
H202 C213 0.940 . S
H203 C214 0.940 . S
H204 C217 0.940 . S
H205 C219 0.940 . S
N206 N207 1.190 . S
N206 C210 1.477 1_565 S
N207 N206 1.190 . S
N207 C216 1.477 . S
C208 H200 0.940 . S
C208 C209 1.390 . S
C208 C210 1.322 . S
C209 C208 1.390 . S
C209 C213 1.370 . S
C210 N206 1.477 1_545 S
C210 C208 1.322 . S
C210 C211 1.447 . S
C211 H201 0.940 . S
C211 C210 1.447 . S
C211 C212 1.373 . S
C212 C211 1.373 . S
C212 C213 1.417 . S
C213 H202 0.940 . S
C213 C209 1.370 . S
C213 C212 1.417 . S
C214 H203 0.940 . S
C214 C215 1.390 . S
C214 C216 1.322 . S
C215 C214 1.390 . S
C215 C219 1.370 . S
C216 N207 1.477 . S
C216 C214 1.322 . S
C216 C217 1.447 . S
C217 H204 0.940 . S
C217 C216 1.447 . S
C217 C218 1.373 . S
C218 C217 1.373 . S
C218 C219 1.417 . S
C219 H205 0.940 . S
C219 C215 1.370 . S
C219 C218 1.417 . S
H220 C228 0.940 . S
H221 C231 0.940 . S
H222 C233 0.940 . S
H223 C234 0.940 . S
H224 C237 0.940 . S
H225 C239 0.940 . S
N226 N227 1.190 . S
N226 C230 1.477 1_554 S
N227 N226 1.190 . S
N227 C236 1.477 . S
C228 H220 0.940 . S
C228 C229 1.390 . S
C228 C230 1.322 . S
C229 C228 1.390 . S
C229 C233 1.370 . S
C230 N226 1.477 1_556 S
C230 C228 1.322 . S
C230 C231 1.447 . S
C231 H221 0.940 . S
C231 C230 1.447 . S
C231 C232 1.373 . S
C232 C231 1.373 . S
C232 C233 1.417 . S
C233 H222 0.940 . S
C233 C229 1.370 . S
C233 C232 1.417 . S
C234 H223 0.940 . S
C234 C235 1.390 . S
C234 C236 1.322 . S
C235 C234 1.390 . S
C235 C239 1.370 . S
C236 N227 1.477 . S
C236 C234 1.322 . S
C236 C237 1.447 . S
C237 H224 0.940 . S
C237 C236 1.447 . S
C237 C238 1.373 . S
C238 C237 1.373 . S
C238 C239 1.417 . S
C239 H225 0.940 . S
C239 C235 1.370 . S
C239 C238 1.417 . S
O240 Mn241 2.163 . S
O240 C254 1.244 . S
Mn241 O240 2.163 . S
Mn241 O244 2.160 1_554 S
Mn241 O245 2.221 1_455 S
Mn241 O247 2.163 . S
Mn241 O249 2.160 . S
Mn241 O259 2.221 . S
O242 Mn243 2.087 . S
O242 C254 1.256 . S
Mn243 O242 2.087 . S
Mn243 O250 2.089 . S
Mn243 O259 2.290 . S
Mn243 O260 2.251 . S
O244 Mn241 2.160 1_556 S
O244 C255 1.239 . S
O245 Mn241 2.221 1_655 S
O245 Mn246 2.290 1_554 S
O245 C256 1.278 . S
Mn246 O245 2.290 1_556 S
Mn246 O248 2.089 1_645 S
Mn246 O251 2.251 1_556 S
Mn246 O252 2.087 1_546 S
O247 Mn241 2.163 . S
O247 C257 1.244 1_545 S
O248 Mn246 2.089 1_465 S
O248 C255 1.256 1_565 S
O249 Mn241 2.160 . S
O249 C258 1.239 . S
O250 Mn243 2.089 . S
O250 C258 1.256 . S
O251 Mn246 2.251 1_554 S
O251 C256 1.241 . S
O252 Mn246 2.087 1_564 S
O252 C257 1.256 1_655 S
C253 O259 1.278 . S
C253 O260 1.241 . S
C254 O240 1.244 . S
C254 O242 1.256 . S
C255 O244 1.239 . S
C255 O248 1.256 1_545 S
C256 O245 1.278 . S
C256 O251 1.241 . S
C257 O247 1.244 1_565 S
C257 O252 1.256 1_455 S
C258 O249 1.239 . S
C258 O250 1.256 . S
O259 Mn241 2.221 . S
O259 Mn243 2.290 . S
O259 C253 1.278 . S
O260 Mn243 2.251 . S
O260 C253 1.241 . S
O261 Mn262 2.163 . S
O261 C275 1.244 . S
Mn262 O261 2.163 . S
Mn262 O265 2.160 1_554 S
Mn262 O266 2.221 . S
Mn262 O268 2.163 . S
Mn262 O270 2.160 . S
Mn262 O280 2.221 . S
O263 Mn264 2.087 . S
O263 C275 1.256 . S
Mn264 O263 2.087 . S
Mn264 O271 2.089 . S
Mn264 O280 2.290 . S
Mn264 O281 2.251 . S
O265 Mn262 2.160 1_556 S
O265 C276 1.239 . S
O266 Mn262 2.221 . S
O266 Mn267 2.290 1_654 S
O266 C277 1.278 1_655 S
Mn267 O266 2.290 1_456 S
Mn267 O269 2.089 1_455 S
Mn267 O272 2.251 1_556 S
Mn267 O273 2.087 1_556 S
O268 Mn262 2.163 . S
O268 C278 1.244 . S
O269 Mn267 2.089 1_655 S
O269 C276 1.256 . S
O270 Mn262 2.160 . S
O270 C279 1.239 . S
O271 Mn264 2.089 . S
O271 C279 1.256 . S
O272 Mn267 2.251 1_554 S
O272 C277 1.241 . S
O273 Mn267 2.087 1_554 S
O273 C278 1.256 1_455 S
C274 O280 1.278 . S
C274 O281 1.241 . S
C275 O261 1.244 . S
C275 O263 1.256 . S
C276 O265 1.239 . S
C276 O269 1.256 . S
C277 O266 1.278 1_455 S
C277 O272 1.241 . S
C278 O268 1.244 . S
C278 O273 1.256 1_655 S
C279 O270 1.239 . S
C279 O271 1.256 . S
O280 Mn262 2.221 . S
O280 Mn264 2.290 . S
O280 C274 1.278 . S
O281 Mn264 2.251 . S
O281 C274 1.241 . S
O282 Mn283 2.163 . S
O282 C296 1.244 . S
Mn283 O282 2.163 . S
Mn283 O286 2.160 1_455 S
Mn283 O287 2.221 1_565 S
Mn283 O289 2.163 . S
Mn283 O291 2.160 . S
Mn283 O301 2.221 . S
O284 Mn285 2.087 . S
O284 C296 1.256 . S
Mn285 O284 2.087 . S
Mn285 O292 2.089 . S
Mn285 O301 2.290 . S
Mn285 O302 2.251 . S
O286 Mn283 2.160 1_655 S
O286 C297 1.239 . S
O287 Mn283 2.221 1_545 S
O287 Mn288 2.290 1_455 S
O287 C298 1.278 . S
Mn288 O287 2.290 1_655 S
Mn288 O290 2.089 1_545 S
Mn288 O293 2.251 1_655 S
Mn288 O294 2.087 1_655 S
O289 Mn283 2.163 . S
O289 C299 1.244 . S
O290 Mn288 2.089 1_565 S
O290 C297 1.256 . S
O291 Mn283 2.160 . S
O291 C300 1.239 . S
O292 Mn285 2.089 . S
O292 C300 1.256 . S
O293 Mn288 2.251 1_455 S
O293 C298 1.241 . S
O294 Mn288 2.087 1_455 S
O294 C299 1.256 1_545 S
C295 O301 1.278 . S
C295 O302 1.241 . S
C296 O282 1.244 . S
C296 O284 1.256 . S
C297 O286 1.239 . S
C297 O290 1.256 . S
C298 O287 1.278 . S
C298 O293 1.241 . S
C299 O289 1.244 . S
C299 O294 1.256 1_565 S
C300 O291 1.239 . S
C300 O292 1.256 . S
O301 Mn283 2.221 . S
O301 Mn285 2.290 . S
O301 C295 1.278 . S
O302 Mn285 2.251 . S
O302 C295 1.241 . S
O303 Mn304 2.163 . S
O303 C317 1.244 . S
Mn304 O303 2.163 . S
Mn304 O307 2.160 . S
Mn304 O308 2.221 . S
Mn304 O310 2.163 1_655 S
Mn304 O312 2.160 . S
Mn304 O322 2.221 . S
O305 Mn306 2.087 . S
O305 C317 1.256 . S
Mn306 O305 2.087 . S
Mn306 O313 2.089 . S
Mn306 O322 2.290 . S
Mn306 O323 2.251 . S
O307 Mn304 2.160 . S
O307 C318 1.239 . S
O308 Mn304 2.221 . S
O308 Mn309 2.290 . S
O308 C319 1.278 . S
Mn309 O308 2.290 . S
Mn309 O311 2.089 1_655 S
Mn309 O314 2.251 . S
Mn309 O315 2.087 1_655 S
O310 Mn304 2.163 1_455 S
O310 C320 1.244 . S
O311 Mn309 2.089 1_455 S
O311 C318 1.256 1_455 S
O312 Mn304 2.160 . S
O312 C321 1.239 . S
O313 Mn306 2.089 . S
O313 C321 1.256 . S
O314 Mn309 2.251 . S
O314 C319 1.241 . S
O315 Mn309 2.087 1_455 S
O315 C320 1.256 . S
C316 O322 1.278 . S
C316 O323 1.241 . S
C317 O303 1.244 . S
C317 O305 1.256 . S
C318 O307 1.239 . S
C318 O311 1.256 1_655 S
C319 O308 1.278 . S
C319 O314 1.241 . S
C320 O310 1.244 . S
C320 O315 1.256 . S
C321 O312 1.239 . S
C321 O313 1.256 . S
O322 Mn304 2.221 . S
O322 Mn306 2.290 . S
O322 C316 1.278 . S
O323 Mn306 2.251 . S
O323 C316 1.241 . S
O324 Mn325 2.163 . S
O324 C338 1.244 . S
Mn325 O324 2.163 . S
Mn325 O328 2.160 . S
Mn325 O329 2.221 . S
Mn325 O331 2.163 1_565 S
Mn325 O333 2.160 . S
Mn325 O343 2.221 . S
O326 Mn327 2.087 . S
O326 C338 1.256 . S
Mn327 O326 2.087 . S
Mn327 O334 2.089 . S
Mn327 O343 2.290 . S
Mn327 O344 2.251 . S
O328 Mn325 2.160 . S
O328 C339 1.235 1_565 S
O329 Mn325 2.221 . S
O329 Mn330 2.290 1_565 S
O329 C340 1.278 . S
Mn330 O329 2.290 1_545 S
Mn330 O332 2.089 . S
Mn330 O335 2.251 1_545 S
Mn330 O336 2.087 . S
O331 Mn325 2.163 1_545 S
O331 C341 1.244 . S
O332 Mn330 2.089 . S
O332 C339 1.258 . S
O333 Mn325 2.160 . S
O333 C342 1.239 . S
O334 Mn327 2.089 . S
O334 C342 1.256 . S
O335 Mn330 2.251 1_565 S
O335 C340 1.241 . S
O336 Mn330 2.087 . S
O336 C341 1.256 . S
C337 O343 1.278 . S
C337 O344 1.241 . S
C338 O324 1.244 . S
C338 O326 1.256 . S
C339 O328 1.235 1_545 S
C339 O332 1.258 . S
C340 O329 1.278 . S
C340 O335 1.241 . S
C341 O331 1.244 . S
C341 O336 1.256 . S
C342 O333 1.239 . S
C342 O334 1.256 . S
O343 Mn325 2.221 . S
O343 Mn327 2.290 . S
O343 C337 1.278 . S
O344 Mn327 2.251 . S
O344 C337 1.241 . S
O345 Mn346 2.163 . S
O345 C359 1.244 . S
Mn346 O345 2.163 . S
Mn346 O349 2.160 . S
Mn346 O350 2.221 . S
Mn346 O352 2.163 . S
Mn346 O354 2.160 . S
Mn346 O364 2.221 . S
O347 Mn348 2.087 . S
O347 C359 1.256 . S
Mn348 O347 2.087 . S
Mn348 O355 2.089 . S
Mn348 O364 2.290 . S
Mn348 O365 2.251 . S
O349 Mn346 2.160 . S
O349 C360 1.239 . S
O350 Mn346 2.221 . S
O350 Mn351 2.290 . S
O350 C361 1.278 . S
Mn351 O350 2.290 . S
Mn351 O353 2.089 . S
Mn351 O356 2.251 . S
Mn351 O357 2.087 . S
O352 Mn346 2.163 . S
O352 C362 1.244 . S
O353 Mn351 2.089 . S
O353 C360 1.256 . S
O354 Mn346 2.160 . S
O354 C363 1.239 . S
O355 Mn348 2.089 . S
O355 C363 1.256 . S
O356 Mn351 2.251 . S
O356 C361 1.241 . S
O357 Mn351 2.087 . S
O357 C362 1.256 . S
C358 O364 1.278 . S
C358 O365 1.241 . S
C359 O345 1.244 . S
C359 O347 1.256 . S
C360 O349 1.239 . S
C360 O353 1.256 . S
C361 O350 1.278 . S
C361 O356 1.241 . S
C362 O352 1.244 . S
C362 O357 1.256 . S
C363 O354 1.239 . S
C363 O355 1.256 . S
O364 Mn346 2.221 . S
O364 Mn348 2.290 . S
O364 C358 1.278 . S
O365 Mn348 2.251 . S
O365 C358 1.241 . S
O366 Mn367 2.163 . S
O366 C380 1.244 . S
Mn367 O366 2.163 . S
Mn367 O370 2.160 . S
Mn367 O371 2.221 . S
Mn367 O373 2.163 1_556 S
Mn367 O375 2.160 . S
Mn367 O385 2.221 . S
O368 Mn369 2.087 . S
O368 C380 1.256 . S
Mn369 O368 2.087 . S
Mn369 O376 2.089 . S
Mn369 O385 2.290 . S
Mn369 O386 2.251 . S
O370 Mn367 2.160 . S
O370 C381 1.239 . S
O371 Mn367 2.221 . S
O371 Mn372 2.290 . S
O371 C382 1.278 . S
Mn372 O371 2.290 . S
Mn372 O374 2.089 1_556 S
Mn372 O377 2.251 . S
Mn372 O378 2.087 1_556 S
O373 Mn367 2.163 1_554 S
O373 C383 1.244 . S
O374 Mn372 2.089 1_554 S
O374 C381 1.256 1_554 S
O375 Mn367 2.160 . S
O375 C384 1.239 . S
O376 Mn369 2.089 . S
O376 C384 1.256 . S
O377 Mn372 2.251 . S
O377 C382 1.241 . S
O378 Mn372 2.087 1_554 S
O378 C383 1.256 . S
C379 O385 1.278 . S
C379 O386 1.241 . S
C380 O366 1.244 . S
C380 O368 1.256 . S
C381 O370 1.239 . S
C381 O374 1.256 1_556 S
C382 O371 1.278 . S
C382 O377 1.241 . S
C383 O373 1.244 . S
C383 O378 1.256 . S
C384 O375 1.239 . S
C384 O376 1.256 . S
O385 Mn367 2.221 . S
O385 Mn369 2.290 . S
O385 C379 1.278 . S
O386 Mn369 2.251 . S
O386 C379 1.241 . S
O387 Mn388 2.163 . S
O387 C401 1.244 . S
Mn388 O387 2.163 . S
Mn388 O391 2.160 . S
Mn388 O392 2.221 . S
Mn388 O394 2.163 . S
Mn388 O396 2.160 . S
Mn388 O406 2.221 . S
O389 Mn390 2.087 . S
O389 C401 1.256 . S
Mn390 O389 2.087 . S
Mn390 O397 2.089 . S
Mn390 O406 2.290 . S
Mn390 O407 2.251 . S
O391 Mn388 2.160 . S
O391 C402 1.239 1_545 S
O392 Mn388 2.221 . S
O392 Mn393 2.290 1_546 S
O392 C403 1.278 1_556 S
Mn393 O392 2.290 1_564 S
Mn393 O395 2.089 1_554 S
Mn393 O398 2.251 1_565 S
Mn393 O399 2.087 1_565 S
O394 Mn388 2.163 . S
O394 C404 1.244 . S
O395 Mn393 2.089 1_556 S
O395 C402 1.256 . S
O396 Mn388 2.160 . S
O396 C405 1.239 . S
O397 Mn390 2.089 . S
O397 C405 1.256 . S
O398 Mn393 2.251 1_545 S
O398 C403 1.241 . S
O399 Mn393 2.087 1_545 S
O399 C404 1.256 1_554 S
C400 O406 1.278 . S
C400 O407 1.241 . S
C401 O387 1.244 . S
C401 O389 1.256 . S
C402 O391 1.239 1_565 S
C402 O395 1.256 . S
C403 O392 1.278 1_554 S
C403 O398 1.241 . S
C404 O394 1.244 . S
C404 O399 1.256 1_556 S
C405 O396 1.239 . S
C405 O397 1.256 . S
O406 Mn388 2.221 . S
O406 Mn390 2.290 . S
O406 C400 1.278 . S
O407 Mn390 2.251 . S
O407 C400 1.241 . S
C18 C298 2.207 . S
C318 C9 1.991 . S
C257 C38 2.018 . S
C29 C278 1.808 . S
C52 C403 1.853 . S
C69 C383 1.934 . S
C339 C55 2.105 1_545 S
C78 C360 1.907 . S
C277 C98 2.028 . S
C320 C115 1.761 . S
C135 C297 1.902 . S
C112 C361 1.835 . S
C382 C158 2.207 . S
C402 C149 1.991 . S
C178 C362 2.018 . S
C341 C169 1.809 . S
C192 C319 1.853 . S
C215 C299 1.933 . S
C276 C195 2.106 . S
C212 C255 1.908 . S
C340 C132 2.028 . S
C404 C229 1.761 . S
C89 C381 1.902 . S
C238 C256 1.835 . S
C254 C15 2.230 . S
C12 C275 2.250 . S
C300 C35 2.242 . S
C316 C32 2.722 . S
C49 C253 2.203 . S
C72 C274 2.666 . S
C296 C58 2.135 . S
C75 C321 2.146 . S
C95 C258 1.920 . S
C295 C118 2.499 . S
C138 C317 2.545 . S
C109 C342 2.058 . S
C359 C155 2.230 . S
C152 C338 2.250 . S
C175 C384 2.243 . S
C172 C400 2.722 . S
C189 C358 2.203 . S
C337 C218 2.666 . S
C198 C380 2.135 . S
C405 C209 2.146 . S
C363 C129 1.920 . S
C379 C232 2.499 . S
C401 C92 2.545 . S
C235 C279 2.058 . S
