# Generated by pormake.
# Topology zzz, (3,6)-cn, num edge types: 1
# Building blocks:
#     Node 0, Type 0, BuildingBlock: QEWDON_clean_linker_0, # of connection points: 3
#     Node 1, Type 0, BuildingBlock: QEWDON_clean_linker_0, # of connection points: 3
#     Node 2, Type 0, BuildingBlock: QEWDON_clean_linker_0, # of connection points: 3
#     Node 3, Type 0, BuildingBlock: QEWDON_clean_linker_0, # of connection points: 3
#     Node 4, Type 0, BuildingBlock: QEWDON_clean_linker_0, # of connection points: 3
#     Node 5, Type 0, BuildingBlock: QEWDON_clean_linker_0, # of connection points: 3
#     Node 6, Type 0, BuildingBlock: QEWDON_clean_linker_0, # of connection points: 3
#     Node 7, Type 0, BuildingBlock: QEWDON_clean_linker_0, # of connection points: 3
#     Node 8, Type 1, BuildingBlock: PAMTOO_clean_sbu_0, # of connection points: 6
#     Node 9, Type 1, BuildingBlock: PAMTOO_clean_sbu_0, # of connection points: 6
#     Node 10, Type 1, BuildingBlock: PAMTOO_clean_sbu_0, # of connection points: 6
#     Node 11, Type 1, BuildingBlock: PAMTOO_clean_sbu_0, # of connection points: 6
#     Edge 12, Type (0, 1), BuildingBlock: EZIPEK_clean_linker_0, # of connection points: 2
#     Edge 13, Type (0, 1), BuildingBlock: EZIPEK_clean_linker_0, # of connection points: 2
#     Edge 14, Type (0, 1), BuildingBlock: EZIPEK_clean_linker_0, # of connection points: 2
#     Edge 15, Type (0, 1), BuildingBlock: EZIPEK_clean_linker_0, # of connection points: 2
#     Edge 16, Type (0, 1), BuildingBlock: EZIPEK_clean_linker_0, # of connection points: 2
#     Edge 17, Type (0, 1), BuildingBlock: EZIPEK_clean_linker_0, # of connection points: 2
#     Edge 18, Type (0, 1), BuildingBlock: EZIPEK_clean_linker_0, # of connection points: 2
#     Edge 19, Type (0, 1), BuildingBlock: EZIPEK_clean_linker_0, # of connection points: 2
#     Edge 20, Type (0, 1), BuildingBlock: EZIPEK_clean_linker_0, # of connection points: 2
#     Edge 21, Type (0, 1), BuildingBlock: EZIPEK_clean_linker_0, # of connection points: 2
#     Edge 22, Type (0, 1), BuildingBlock: EZIPEK_clean_linker_0, # of connection points: 2
#     Edge 23, Type (0, 1), BuildingBlock: EZIPEK_clean_linker_0, # of connection points: 2
#     Edge 24, Type (0, 1), BuildingBlock: EZIPEK_clean_linker_0, # of connection points: 2
#     Edge 25, Type (0, 1), BuildingBlock: EZIPEK_clean_linker_0, # of connection points: 2
#     Edge 26, Type (0, 1), BuildingBlock: EZIPEK_clean_linker_0, # of connection points: 2
#     Edge 27, Type (0, 1), BuildingBlock: EZIPEK_clean_linker_0, # of connection points: 2
#     Edge 28, Type (0, 1), BuildingBlock: EZIPEK_clean_linker_0, # of connection points: 2
#     Edge 29, Type (0, 1), BuildingBlock: EZIPEK_clean_linker_0, # of connection points: 2
#     Edge 30, Type (0, 1), BuildingBlock: EZIPEK_clean_linker_0, # of connection points: 2
#     Edge 31, Type (0, 1), BuildingBlock: EZIPEK_clean_linker_0, # of connection points: 2
#     Edge 32, Type (0, 1), BuildingBlock: EZIPEK_clean_linker_0, # of connection points: 2
#     Edge 33, Type (0, 1), BuildingBlock: EZIPEK_clean_linker_0, # of connection points: 2
#     Edge 34, Type (0, 1), BuildingBlock: EZIPEK_clean_linker_0, # of connection points: 2
#     Edge 35, Type (0, 1), BuildingBlock: EZIPEK_clean_linker_0, # of connection points: 2
# Relax obj value: 0.206
# Max RMSD: 0.259
# Mean RMSD: 0.095
data_MOF--net-zzz--node1-PAMTOO_clean_sbu_0--node2-QEWDON_clean_linker_0--edge1-EZIPEK_clean_linker_0
_symmetry_space_group_name_H-M    P1
_symmetry_Int_Tables_number       1
_symmetry_cell_setting            triclinic
loop_
_symmetry_equiv_pos_as_xyz
'x, y, z'
_cell_length_a     46.643665
_cell_length_b     39.362671
_cell_length_c     11.482285
_cell_angle_alpha  92.271849
_cell_angle_beta   76.565316
_cell_angle_gamma 86.028085
loop_
_atom_site_label
_atom_site_type_symbol
_atom_site_fract_x
_atom_site_fract_y
_atom_site_fract_z
_atom_type_partial_charge
H0 H 0.81856 0.44598 0.49017 0.0
C1 C 0.83422 0.45681 0.53455 0.0
C2 C 0.86155 0.43865 0.52443 0.0
C3 C 0.82767 0.48911 0.59535 0.0
H4 H 0.9025 0.43627 0.58171 0.0
C5 C 0.88156 0.45081 0.58735 0.0
C6 C 0.87483 0.48148 0.65806 0.0
C7 C 0.84802 0.50104 0.65975 0.0
C8 C 0.79955 0.50949 0.59006 0.0
H9 H 0.84336 0.52542 0.71014 0.0
C10 C 0.78726 0.50646 0.48797 0.0
C11 C 0.75957 0.52322 0.48719 0.0
C12 C 0.78392 0.53085 0.68876 0.0
H13 H 0.79209 0.53351 0.76922 0.0
C14 C 0.75689 0.54825 0.68669 0.0
H15 H 0.79885 0.49081 0.40921 0.0
C16 C 0.74471 0.54435 0.58718 0.0
H17 H 0.72342 0.5575 0.58877 0.0
H18 H 0.74501 0.56436 0.76379 0.0
H19 H 0.07728 0.72653 0.35953 0.0
C20 C 0.06829 0.74853 0.41991 0.0
C21 C 0.07994 0.77991 0.39527 0.0
C22 C 0.04491 0.74558 0.52093 0.0
H23 H 0.07833 0.83257 0.45689 0.0
C24 C 0.06947 0.80809 0.4759 0.0
C25 C 0.0473 0.80561 0.5794 0.0
C26 C 0.03474 0.7743 0.60201 0.0
C27 C 0.03151 0.71236 0.53923 0.0
H28 H 1.01696 0.77261 0.68071 0.0
C29 C 1.02803 0.69211 0.43987 0.0
C30 C 1.0202 0.65839 0.45294 0.0
C31 C 1.02425 0.69941 0.65381 0.0
H32 H 1.02681 0.71415 0.73187 0.0
C33 C 1.01473 0.6666 0.66805 0.0
H34 H 0.03302 0.70175 0.35087 0.0
C35 C 1.0131 0.64602 0.56819 0.0
H36 H 1.00661 0.62028 0.58045 0.0
H37 H 1.00947 0.65669 0.75645 0.0
H38 H 0.77627 0.05329 0.29348 0.0
C39 C 0.75967 0.04218 0.35976 0.0
C40 C 0.72976 0.04992 0.36027 0.0
C41 C 0.7678 0.021 0.44563 0.0
H42 H 0.6845 0.04397 0.44728 0.0
C43 C 0.70751 0.03742 0.44752 0.0
C44 C 0.71395 0.01706 0.53559 0.0
C45 C 0.74419 0.00822 0.53355 0.0
C46 C 0.80046 0.01393 0.44687 0.0
H47 H 0.74888 0.99156 0.60049 0.0
C48 C 0.82466 0.0168 0.34449 0.0
C49 C 0.85479 0.01079 0.35218 0.0
C50 C 0.80782 1.00535 0.55498 0.0
H51 H 0.79103 1.00421 0.63693 0.0
C52 C 0.83716 0.99893 0.56172 0.0
H53 H 0.82044 0.02334 0.25912 0.0
C54 C 0.86029 1.00148 0.46194 0.0
H55 H 0.88281 0.99663 0.47094 0.0
H56 H 0.84203 0.9923 0.64608 0.0
H57 H 0.53375 0.72208 0.20493 0.0
C58 C 0.53058 0.71371 0.29544 0.0
C59 C 0.51933 0.68182 0.32171 0.0
C60 C 0.53999 0.73323 0.38424 0.0
H61 H 0.50835 0.64527 0.45339 0.0
C62 C 0.51658 0.6702 0.43621 0.0
C63 C 0.52928 0.68604 0.5199 0.0
C64 C 0.5396 0.71856 0.49676 0.0
C65 C 0.55358 0.76661 0.35548 0.0
H66 H 0.54787 0.73177 0.56511 0.0
C67 C 0.54341 0.79059 0.28072 0.0
C68 C 0.55672 0.822 0.25897 0.0
C69 C 0.57776 0.77442 0.403 0.0
H70 H 0.58718 0.75657 0.45591 0.0
C71 C 0.59074 0.80508 0.3816 0.0
H72 H 0.5251 0.78527 0.24147 0.0
C73 C 0.58026 0.82867 0.31124 0.0
H74 H 0.59082 0.85232 0.29652 0.0
H75 H 0.60922 0.81054 0.41959 0.0
H76 H 0.25295 0.55429 0.25379 0.0
C77 C 0.23699 0.54319 0.21167 0.0
C78 C 0.20896 0.56032 0.22814 0.0
C79 C 0.24409 0.51161 0.14569 0.0
H80 H 0.16696 0.5612 0.18012 0.0
C81 C 0.18852 0.54756 0.16891 0.0
C82 C 0.19538 0.51756 0.09498 0.0
C83 C 0.22317 0.4992 0.08483 0.0
C84 C 0.27346 0.49253 0.14112 0.0
H85 H 0.22818 0.47538 0.03107 0.0
C86 C 0.28694 0.49422 0.24025 0.0
C87 C 0.31556 0.4785 0.23231 0.0
C88 C 0.28902 0.47388 0.03573 0.0
H89 H 0.27989 0.4724 0.95736 0.0
C90 C 0.31712 0.45782 0.02848 0.0
H91 H 0.27545 0.50791 0.32351 0.0
C92 C 0.33036 0.46021 0.12553 0.0
H93 H 0.35237 0.44804 0.11697 0.0
H94 H 0.32893 0.44387 0.94624 0.0
H95 H 0.97535 0.29126 0.38813 0.0
C96 C 0.9839 0.26935 0.32708 0.0
C97 C 0.96866 0.23973 0.33698 0.0
C98 C 1.01071 0.27056 0.24088 0.0
H99 H 0.96863 0.18847 0.26302 0.0
C100 C 0.97953 0.21204 0.25414 0.0
C101 C 1.00599 0.21267 0.16749 0.0
C102 C 1.02169 0.24203 0.16054 0.0
C103 C 1.02724 0.30154 0.23826 0.0
H104 H 0.04272 0.24217 0.09607 0.0
C105 C 0.0305 0.31772 0.34588 0.0
C106 C 0.0411 0.35037 0.34655 0.0
C107 C 0.03781 0.31656 0.1294 0.0
H108 H 0.03565 0.30467 0.0455 0.0
C109 C 0.05018 0.34784 0.12845 0.0
H110 H 1.02343 0.30568 0.42996 0.0
C111 C 0.05128 0.36495 0.23603 0.0
H112 H 0.05994 0.38982 0.23312 0.0
H113 H 0.05802 0.35945 0.04423 0.0
H114 H 0.27699 1.00272 0.52437 0.0
C115 C 0.29477 1.00199 0.44464 0.0
C116 C 0.32353 0.9939 0.45677 0.0
C117 C 0.2894 0.01111 0.33343 0.0
H118 H 0.36984 0.98907 0.37111 0.0
C119 C 0.34763 0.9947 0.35884 0.0
C120 C 0.34423 1.00582 0.24939 0.0
C121 C 0.31489 0.01344 0.23516 0.0
C122 C 0.25755 0.02066 0.32589 0.0
H123 H 0.31234 0.02115 0.14866 0.0
C124 C 0.23216 0.01019 0.4103 0.0
C125 C 0.20276 0.02181 0.40631 0.0
C126 C 0.25208 0.04221 0.23704 0.0
H127 H 0.26995 0.05191 0.17272 0.0
C128 C 0.22327 0.0528 0.23116 0.0
H129 H 0.23484 0.99317 0.47926 0.0
C130 C 0.19896 0.0429 0.31474 0.0
H131 H 0.17694 0.05209 0.30867 0.0
H132 H 0.21976 0.06942 0.16202 0.0
H133 H 0.54618 0.28073 0.55922 0.0
C134 C 0.53821 0.2937 0.49009 0.0
C135 C 0.53696 0.32956 0.49224 0.0
C136 C 0.53001 0.27497 0.39664 0.0
H137 H 0.52749 0.37453 0.40414 0.0
C138 C 0.52786 0.34685 0.40218 0.0
C139 C 0.52017 0.32969 0.30781 0.0
C140 C 0.52057 0.29368 0.30577 0.0
C141 C 0.53347 0.23629 0.38853 0.0
H142 H 0.51414 0.2806 0.23237 0.0
C143 C 0.53048 0.21623 0.49134 0.0
C144 C 0.53484 0.17997 0.47822 0.0
C145 C 0.54121 0.21894 0.27441 0.0
H146 H 0.54498 0.23273 0.19329 0.0
C147 C 0.54513 0.18344 0.26195 0.0
H148 H 0.52473 0.22846 0.58069 0.0
C149 C 0.54191 0.16418 0.36251 0.0
H150 H 0.54523 0.13666 0.3501 0.0
H151 H 0.55105 0.17073 0.17331 0.0
Dy152 Dy 1.01411 0.02068 0.75486 0.0
Dy153 Dy 0.04218 1.00006 0.97739 0.0
C154 C 0.08539 0.00757 0.7199 0.0
O155 O 1.029 0.96524 0.71536 0.0
O156 O 0.03035 0.95065 0.90568 0.0
O157 O 1.01538 0.04933 0.59792 0.0
O158 O 0.98039 0.01607 0.65487 0.0
O159 O 0.9941 0.01717 0.06295 0.0
O160 O 0.97514 0.00768 0.89902 0.0
O161 O 0.04735 0.0555 0.95804 0.0
O162 O 1.00785 0.06794 0.87765 0.0
O163 O 0.03857 0.97744 0.14776 0.0
O164 O 0.07806 1.00165 0.06686 0.0
C165 C 0.03026 0.94219 0.7941 0.0
O166 O 0.06349 0.02557 0.69017 0.0
O167 O 0.08037 0.98964 0.81579 0.0
C168 C 0.96871 0.06815 0.57481 0.0
C169 C 0.94225 0.13326 0.55818 0.0
C170 C 0.95615 0.11323 0.45378 0.0
C171 C 0.96907 0.08066 0.46215 0.0
C172 C 0.95201 0.08657 0.67865 0.0
C173 C 0.93831 0.11882 0.67013 0.0
C174 C 0.99011 0.03989 0.58389 0.0
C175 C 0.97127 0.01282 0.0158 0.0
C176 C 1.02705 0.07748 0.93743 0.0
C177 C 0.08366 0.94999 0.15972 0.0
C178 C 0.10697 0.88276 0.16637 0.0
C179 C 0.08746 0.89909 0.26801 0.0
C180 C 0.07576 0.93243 0.26449 0.0
C181 C 0.10489 0.9345 0.06058 0.0
C182 C 0.11662 0.901 0.06414 0.0
C183 C 0.06603 0.98151 0.14843 0.0
H184 H 0.95918 0.12387 0.36651 0.0
H185 H 0.9814 0.0664 0.38135 0.0
H186 H 0.95152 0.07723 0.76656 0.0
H187 H 0.92753 0.13392 0.7514 0.0
H188 H 0.07975 0.88526 0.34753 0.0
H189 H 0.05928 0.94381 0.34128 0.0
H190 H 0.11104 0.94743 0.97797 0.0
H191 H 0.13149 0.88858 0.98484 0.0
Dy192 Dy 0.52689 0.98914 0.79105 0.0
Dy193 Dy 0.53676 0.02746 0.03036 0.0
C194 C 0.52946 0.0692 0.80516 0.0
O195 O 0.57568 0.99684 0.73881 0.0
O196 O 0.58336 0.00985 0.92565 0.0
O197 O 0.52559 0.99163 0.60426 0.0
O198 O 0.51288 0.94666 0.69893 0.0
O199 O 0.52996 0.9734 0.08134 0.0
O200 O 0.54209 0.94646 0.89374 0.0
O201 O 0.48637 0.02954 0.0659 0.0
O202 O 0.48215 0.991 0.91827 0.0
O203 O 0.55207 0.02695 0.19354 0.0
O204 O 0.53372 0.07423 0.14016 0.0
C205 C 0.59368 1.00287 0.80922 0.0
O206 O 0.51335 0.04485 0.78352 0.0
O207 O 0.54533 0.06499 0.88471 0.0
C208 C 0.47976 0.97184 0.59914 0.0
C209 C 0.41861 0.97963 0.61557 0.0
C210 C 0.43087 0.99766 0.69677 0.0
C211 C 0.46124 0.99517 0.68415 0.0
C212 C 0.46773 0.95327 0.51843 0.0
C213 C 0.4373 0.95768 0.5249 0.0
C214 C 0.51039 0.96491 0.60896 0.0
C215 C 0.53697 0.94529 0.0114 0.0
C216 C 0.46987 0.01057 0.01446 0.0
C217 C 0.57595 0.07565 0.22242 0.0
C218 C 0.63449 0.08941 0.21779 0.0
C219 C 0.61768 0.07351 0.31505 0.0
C220 C 0.58858 0.06681 0.31764 0.0
C221 C 0.59192 0.09427 0.13016 0.0
C222 C 0.62104 0.10132 0.12832 0.0
C223 C 0.54889 0.06006 0.21028 0.0
H224 H 0.41702 0.01462 0.76743 0.0
H225 H 0.47018 0.01128 0.74249 0.0
H226 H 0.48177 0.93547 0.45177 0.0
H227 H 0.42824 0.94359 0.4607 0.0
H228 H 0.62773 0.06437 0.38527 0.0
H229 H 0.57666 0.05257 0.38975 0.0
H230 H 0.58261 0.10154 0.05588 0.0
H231 H 0.63368 0.1139 0.05333 0.0
Dy232 Dy 0.56304 0.50519 0.90858 0.0
Dy233 Dy 0.49093 0.50713 0.88723 0.0
C234 C 0.51848 0.44689 0.02674 0.0
O235 O 0.56091 0.45982 0.7921 0.0
O236 O 0.52035 0.47878 0.72462 0.0
O237 O 0.58534 0.50937 0.04854 0.0
O238 O 0.6122 0.50387 0.86285 0.0
O239 O 0.50887 0.55679 0.83246 0.0
O240 O 0.55876 0.54278 0.76602 0.0
O241 O 0.48941 0.53854 0.05783 0.0
O242 O 0.53807 0.55096 0.00729 0.0
O243 O 0.45874 0.53055 0.80214 0.0
O244 O 0.44615 0.48992 0.91893 0.0
C245 C 0.54151 0.45516 0.72775 0.0
O246 O 0.54312 0.46228 0.01783 0.0
O247 O 0.49647 0.45919 0.98279 0.0
C248 C 0.63761 0.50979 0.0333 0.0
C249 C 0.68503 0.5124 0.14987 0.0
C250 C 0.65564 0.51781 0.21551 0.0
C251 C 0.63234 0.51661 0.15835 0.0
C252 C 0.66715 0.50473 0.96664 0.0
C253 C 0.69071 0.50602 0.02455 0.0
C254 C 0.61175 0.50743 0.97777 0.0
C255 C 0.53501 0.56395 0.77091 0.0
C256 C 0.51098 0.5573 0.07072 0.0
C257 C 0.42082 0.49851 0.75964 0.0
C258 C 0.38478 0.48776 0.59534 0.0
C259 C 0.37241 0.49044 0.71962 0.0
C260 C 0.39026 0.49582 0.80085 0.0
C261 C 0.43337 0.49426 0.63541 0.0
C262 C 0.41551 0.489 0.55421 0.0
C263 C 0.43812 0.51077 0.84469 0.0
H264 H 0.65068 0.52277 0.31191 0.0
H265 H 0.61001 0.52081 0.21334 0.0
H266 H 0.67203 0.49947 0.87047 0.0
H267 H 0.71328 0.50177 0.97199 0.0
H268 H 0.34879 0.48956 0.75354 0.0
H269 H 0.37994 0.49931 0.8958 0.0
H270 H 0.4568 0.49637 0.60069 0.0
H271 H 0.42555 0.48696 0.45889 0.0
Dy272 Dy 0.039 0.52777 0.79419 0.0
Dy273 Dy 1.02308 0.47666 0.00842 0.0
C274 C 0.03875 0.44821 0.73748 0.0
O275 O 0.98934 0.53009 0.84398 0.0
O276 O 0.98386 0.47865 0.92459 0.0
O277 O 0.05966 0.53669 0.61125 0.0
O278 O 0.03342 0.57782 0.72826 0.0
O279 O 1.0111 0.5293 0.09586 0.0
O280 O 0.04189 0.55867 0.95797 0.0
O281 O 0.06776 0.49261 0.01639 0.0
O282 O 0.08331 0.50676 0.82173 0.0
O283 O 0.9971 0.46584 0.18179 0.0
O284 O 0.03187 0.42887 0.08465 0.0
C285 C 0.97257 0.5052 0.87942 0.0
O286 O 0.0309 0.47862 0.70767 0.0
O287 O 0.04341 0.44323 0.84383 0.0
C288 C 0.07477 0.59182 0.5795 0.0
C289 C 0.12577 0.62622 0.49599 0.0
C290 C 0.10787 0.63458 0.61135 0.0
C291 C 0.08258 0.61726 0.65339 0.0
C292 C 0.09118 0.58569 0.46144 0.0
C293 C 0.11646 0.60246 0.4204 0.0
C294 C 0.05138 0.56926 0.62443 0.0
C295 C 1.02542 0.55641 0.06625 0.0
C296 C 0.08909 0.4994 0.92551 0.0
C297 C 0.98926 0.4085 0.20834 0.0
C298 C 0.94073 0.36868 0.27016 0.0
C299 C 0.95811 0.36684 0.15176 0.0
C300 C 0.98206 0.38697 0.12065 0.0
C301 C 0.97402 0.40768 0.32775 0.0
C302 C 0.95005 0.3881 0.35847 0.0
C303 C 1.00972 0.43509 0.17754 0.0
H304 H 0.11414 0.65313 0.67091 0.0
H305 H 0.06998 0.62271 0.74489 0.0
H306 H 0.08533 0.5665 0.40258 0.0
H307 H 0.12973 0.59515 0.33129 0.0
H308 H 0.95203 0.35183 0.08169 0.0
H309 H 0.99384 0.3871 0.02755 0.0
H310 H 0.97939 0.42404 0.39657 0.0
H311 H 0.93746 0.39064 0.45062 0.0
C312 C 0.15563 0.99098 0.46082 0.0
C313 C 0.17515 0.01328 0.49687 0.0
C314 C 0.13757 0.02728 0.68769 0.0
C315 C 0.11677 0.00828 0.64503 0.0
N316 N 0.10573 0.97282 0.48833 0.0
N317 N 0.18377 0.0548 0.64186 0.0
C318 C 0.12583 0.99026 0.53092 0.0
C319 C 0.16596 0.03167 0.61037 0.0
N320 N 0.16595 0.96988 0.36009 0.0
N321 N 0.1302 0.04128 0.80261 0.0
H322 H 0.20482 0.05805 0.58997 0.0
H323 H 0.17713 0.07225 0.71537 0.0
H324 H 0.10938 0.04012 0.85963 0.0
H325 H 0.14524 0.05196 0.84456 0.0
H326 H 0.15427 0.95058 0.33352 0.0
H327 H 0.18754 0.96968 0.3082 0.0
H328 H 0.10962 0.96253 0.40085 0.0
H329 H 0.08436 0.9703 0.53869 0.0
C330 C 0.50553 0.14728 0.64702 0.0
C331 C 0.53321 0.1571 0.58176 0.0
C332 C 0.55854 0.10977 0.66374 0.0
C333 C 0.53094 0.10073 0.73343 0.0
N334 N 0.47872 0.11548 0.80895 0.0
N335 N 0.58621 0.15234 0.54808 0.0
C336 C 0.50461 0.12092 0.7302 0.0
C337 C 0.55973 0.13988 0.59754 0.0
N338 N 0.48003 0.16208 0.62561 0.0
N339 N 0.58343 0.08833 0.65351 0.0
H340 H 0.58775 0.1742 0.49913 0.0
H341 H 0.60622 0.14311 0.565 0.0
H342 H 0.58335 0.06525 0.69467 0.0
H343 H 0.60361 0.09163 0.59509 0.0
H344 H 0.45931 0.15323 0.65818 0.0
H345 H 0.47979 0.18208 0.56879 0.0
H346 H 0.45938 0.13139 0.82023 0.0
H347 H 0.47729 0.09671 0.87102 0.0
C348 C 0.33528 0.45307 0.40035 0.0
C349 C 0.33088 0.48183 0.33346 0.0
C350 C 0.35822 0.51548 0.4506 0.0
C351 C 0.3654 0.48575 0.50778 0.0
N352 N 0.36344 0.42528 0.52851 0.0
N353 N 0.34142 0.53934 0.28398 0.0
C354 C 0.35454 0.45428 0.48061 0.0
C355 C 0.3431 0.51283 0.35617 0.0
N356 N 0.32042 0.42485 0.38915 0.0
N357 N 0.36531 0.5465 0.48848 0.0
H358 H 0.3304 0.53861 0.21473 0.0
H359 H 0.35285 0.56105 0.28644 0.0
H360 H 0.3766 0.54945 0.55626 0.0
H361 H 0.35784 0.56958 0.4602 0.0
H362 H 0.32019 0.40434 0.44377 0.0
H363 H 0.30612 0.4232 0.33185 0.0
H364 H 0.35915 0.40091 0.50211 0.0
H365 H 0.3771 0.4253 0.58872 0.0
C366 C 1.01539 0.37768 0.55404 0.0
C367 C 0.04159 0.37008 0.46097 0.0
C368 C 0.06707 0.4114 0.55838 0.0
C369 C 0.04106 0.41874 0.65035 0.0
N370 N 0.99384 0.40174 0.75585 0.0
N371 N 0.09464 0.37101 0.40064 0.0
C372 C 1.01639 0.39938 0.65497 0.0
C373 C 0.06818 0.38428 0.47141 0.0
N374 N 0.98907 0.36617 0.54386 0.0
N375 N 0.09056 0.43069 0.5527 0.0
H376 H 0.09636 0.34996 0.34056 0.0
H377 H 0.11499 0.37835 0.4109 0.0
H378 H 0.091 0.44978 0.61786 0.0
H379 H 0.10876 0.42916 0.47966 0.0
H380 H 0.96891 0.37434 0.60219 0.0
H381 H 0.98649 0.35098 0.47162 0.0
H382 H 0.97672 0.38561 0.77001 0.0
H383 H 0.99387 0.41743 0.83101 0.0
C384 C 0.89294 0.98676 0.16468 0.0
C385 C 0.88171 0.01445 0.25018 0.0
C386 C 0.92762 0.04307 0.17147 0.0
C387 C 0.94021 0.01364 0.09575 0.0
N388 N 0.93581 0.95554 0.03195 0.0
N389 N 0.88925 0.06845 0.33978 0.0
C390 C 0.92293 0.98514 0.09447 0.0
C391 C 0.89934 0.04251 0.25423 0.0
N392 N 0.87491 0.96173 0.15106 0.0
N393 N 0.94221 0.07217 0.16121 0.0
H394 H 0.868 0.07025 0.39549 0.0
H395 H 0.90232 0.08722 0.35967 0.0
H396 H 0.96263 0.07374 0.10172 0.0
H397 H 0.93308 0.09559 0.20379 0.0
H398 H 0.8803 0.94271 0.08221 0.0
H399 H 0.85333 0.96168 0.20264 0.0
H400 H 0.92578 0.93267 0.03696 0.0
H401 H 0.95774 0.95283 0.98304 0.0
C402 C 0.56835 0.85655 0.07603 0.0
C403 C 0.54754 0.84888 0.1812 0.0
C404 C 0.51686 0.90123 0.16157 0.0
C405 C 0.54001 0.91141 0.0675 0.0
N406 N 0.59023 0.90042 0.95039 0.0
N407 N 0.50188 0.86423 0.32675 0.0
C408 C 0.56626 0.88927 0.02768 0.0
C409 C 0.52154 0.87114 0.22382 0.0
N410 N 0.59033 0.83231 0.02229 0.0
N411 N 0.49021 0.92006 0.19055 0.0
H412 H 0.50443 0.84252 0.37353 0.0
H413 H 0.48358 0.88044 0.36915 0.0
H414 H 0.48619 0.94269 0.15112 0.0
H415 H 0.47134 0.91214 0.24723 0.0
H416 H 0.60457 0.83489 0.93915 0.0
H417 H 0.59222 0.8081 0.05517 0.0
H418 H 0.61091 0.88683 0.92773 0.0
H419 H 0.59053 0.9249 0.91914 0.0
C420 C 0.74312 0.54461 0.30634 0.0
C421 C 0.74509 0.51791 0.38456 0.0
C422 C 0.71485 0.48414 0.28131 0.0
C423 C 0.70922 0.51278 0.21618 0.0
N424 N 0.71696 0.57096 0.1687 0.0
N425 N 0.73125 0.46284 0.45252 0.0
C426 C 0.72338 0.5431 0.22815 0.0
C427 C 0.73085 0.4876 0.37255 0.0
N428 N 0.76045 0.57123 0.30607 0.0
N429 N 0.70495 0.45353 0.25518 0.0
H430 H 0.74291 0.46414 0.51961 0.0
H431 H 0.71841 0.4421 0.458 0.0
H432 H 0.69312 0.4503 0.18928 0.0
H433 H 0.7107 0.43078 0.29044 0.0
H434 H 0.76231 0.58994 0.2438 0.0
H435 H 0.77507 0.57295 0.36204 0.0
H436 H 0.7236 0.5951 0.18426 0.0
H437 H 0.70345 0.57041 0.108 0.0
C438 C 0.04892 0.62303 0.26977 0.0
C439 C 1.02118 0.6351 0.34581 0.0
C440 C 0.99607 0.59999 0.2241 0.0
C441 C 1.02393 0.5845 0.15929 0.0
N442 N 0.07689 0.57744 0.13576 0.0
N443 N 0.96807 0.63445 0.39889 0.0
C444 C 0.05037 0.59529 0.18508 0.0
C445 C 0.99466 0.62332 0.32402 0.0
N446 N 0.07412 0.63768 0.2785 0.0
N447 N 0.97109 0.59362 0.18666 0.0
H448 H 0.96585 0.6536 0.46656 0.0
H449 H 0.94841 0.62355 0.39789 0.0
H450 H 0.97138 0.57756 0.11184 0.0
H451 H 0.95051 0.60661 0.22232 0.0
H452 H 0.09393 0.63338 0.21361 0.0
H453 H 0.07517 0.6555 0.34648 0.0
H454 H 0.09637 0.58157 0.16196 0.0
H455 H 0.07899 0.55609 0.07756 0.0
C456 C 0.95776 0.22607 0.54581 0.0
C457 C 0.94597 0.23328 0.44685 0.0
C458 C 0.91693 0.18379 0.4857 0.0
C459 C 0.93757 0.17063 0.54936 0.0
N460 N 0.97946 0.18015 0.63559 0.0
N461 N 0.90678 0.22648 0.34867 0.0
C462 C 0.95788 0.19233 0.58229 0.0
C463 C 0.92191 0.21529 0.42984 0.0
N464 N 0.97072 0.25051 0.59802 0.0
N465 N 0.89395 0.16533 0.47419 0.0
H466 H 0.91131 0.24933 0.3073 0.0
H467 H 0.89068 0.2133 0.32138 0.0
H468 H 0.89046 0.14221 0.51475 0.0
H469 H 0.87748 0.17387 0.43232 0.0
H470 H 0.9788 0.24643 0.6742 0.0
H471 H 0.96987 0.27571 0.57358 0.0
H472 H 0.99726 0.1942 0.64146 0.0
H473 H 0.98131 0.15538 0.66293 0.0
C474 C 0.34193 0.01945 0.61489 0.0
C475 C 0.33061 0.9903 0.57443 0.0
C476 C 0.36969 0.95507 0.63026 0.0
C477 C 0.38632 0.98418 0.62391 0.0
N478 N 0.38759 0.04546 0.60284 0.0
N479 N 0.32878 0.92986 0.57015 0.0
C480 C 0.37205 0.01714 0.61875 0.0
C481 C 0.34236 0.95783 0.59561 0.0
N482 N 0.32521 0.04978 0.6312 0.0
N483 N 0.38023 0.92517 0.66715 0.0
H484 H 0.30859 0.93242 0.54529 0.0
H485 H 0.33784 0.90491 0.56985 0.0
H486 H 0.39992 0.92302 0.69574 0.0
H487 H 0.36818 0.90377 0.67997 0.0
H488 H 0.33193 0.07201 0.66547 0.0
H489 H 0.30349 0.05122 0.62079 0.0
H490 H 0.37815 0.06921 0.5882 0.0
H491 H 0.41043 0.04481 0.59086 0.0
C492 C 0.56971 0.37034 0.55084 0.0
C493 C 0.5446 0.35161 0.58614 0.0
C494 C 0.51727 0.40051 0.70837 0.0
C495 C 0.54192 0.42044 0.67034 0.0
N496 N 0.59317 0.42291 0.56739 0.0
N497 N 0.50016 0.3437 0.73078 0.0
C498 C 0.56885 0.40469 0.59673 0.0
C499 C 0.52053 0.36501 0.6775 0.0
N500 N 0.59335 0.35573 0.46594 0.0
N501 N 0.49029 0.41531 0.7689 0.0
H502 H 0.50241 0.31762 0.70674 0.0
H503 H 0.48326 0.351 0.80619 0.0
H504 H 0.48568 0.44127 0.78905 0.0
H505 H 0.47125 0.40221 0.7879 0.0
H506 H 0.61124 0.36867 0.42363 0.0
H507 H 0.59437 0.33017 0.43582 0.0
H508 H 0.61423 0.41205 0.526 0.0
H509 H 0.59247 0.44909 0.58693 0.0
C510 C 0.19501 0.58923 0.43635 0.0
C511 C 0.19978 0.5914 0.30988 0.0
C512 C 0.16675 0.64366 0.34045 0.0
C513 C 0.15685 0.63535 0.46066 0.0
N514 N 0.17523 0.61935 0.63013 0.0
N515 N 0.19984 0.62756 0.14547 0.0
C516 C 0.17636 0.61522 0.51095 0.0
C517 C 0.18935 0.62158 0.26334 0.0
N518 N 0.20549 0.56136 0.48544 0.0
N519 N 0.15139 0.66933 0.29908 0.0
H520 H 0.21637 0.61122 0.08933 0.0
H521 H 0.19376 0.64944 0.10615 0.0
H522 H 0.13426 0.68432 0.35776 0.0
H523 H 0.15515 0.67527 0.20958 0.0
H524 H 0.19947 0.55758 0.57698 0.0
H525 H 0.21869 0.54106 0.43516 0.0
H526 H 0.19047 0.60662 0.66999 0.0
H527 H 0.16124 0.63855 0.68416 0.0
C528 C 0.0879 0.79285 0.18393 0.0
C529 C 0.10083 0.78582 0.28057 0.0
C530 C 0.13285 0.83206 0.23052 0.0
C531 C 0.11293 0.84538 0.16462 0.0
N532 N 0.07468 0.83667 0.05928 0.0
N533 N 0.14263 0.78868 0.36581 0.0
C534 C 0.09219 0.82456 0.13112 0.0
C535 C 0.12661 0.80145 0.28983 0.0
N536 N 0.07028 0.7702 0.14904 0.0
N537 N 0.15601 0.85016 0.24257 0.0
H538 H 0.13713 0.76642 0.40966 0.0
H539 H 0.16112 0.79925 0.38336 0.0
H540 H 0.16032 0.87265 0.19864 0.0
H541 H 0.17139 0.8425 0.29089 0.0
H542 H 0.06132 0.7729 0.07457 0.0
H543 H 0.06726 0.74686 0.18811 0.0
H544 H 0.05673 0.82453 0.04325 0.0
H545 H 0.07767 0.85973 0.01826 0.0
C546 C 0.71341 0.05352 0.17207 0.0
C547 C 0.71971 0.07117 0.27136 0.0
C548 C 0.67724 0.11206 0.28268 0.0
C549 C 0.66683 0.08946 0.20603 0.0
N550 N 0.67627 0.04116 0.06244 0.0
N551 N 0.71275 0.12297 0.39712 0.0
C552 C 0.68581 0.06153 0.1425 0.0
C553 C 0.70394 0.10281 0.31528 0.0
N554 N 0.73321 0.02796 0.11206 0.0
N555 N 0.6606 0.14127 0.33127 0.0
H556 H 0.73212 0.11716 0.42568 0.0
H557 H 0.73212 0.11716 0.42568 0.0
H558 H 0.64079 0.14883 0.30854 0.0
H559 H 0.66718 0.15798 0.3912 0.0
H560 H 0.73112 0.01474 0.03457 0.0
H561 H 0.7532 0.02209 0.13572 0.0
H562 H 0.68761 0.01849 0.02164 0.0
H563 H 0.65632 0.04664 0.03833 0.0
C564 C 0.53914 0.6262 0.22345 0.0
C565 C 0.51834 0.65451 0.22971 0.0
C566 C 0.48838 0.61791 0.13566 0.0
C567 C 0.50698 0.58884 0.14993 0.0
N568 N 0.54446 0.5656 0.24435 0.0
N569 N 0.47119 0.67686 0.2026 0.0
C570 C 0.53041 0.59323 0.20695 0.0
C571 C 0.49229 0.6503 0.1887 0.0
N572 N 0.56664 0.6309 0.2406 0.0
N573 N 0.468 0.61513 0.06844 0.0
H574 H 0.4743 0.70099 0.23642 0.0
H575 H 0.4504 0.67434 0.18582 0.0
H576 H 0.464 0.59194 0.03092 0.0
H577 H 0.45631 0.63623 0.04468 0.0
H578 H 0.58321 0.61107 0.23014 0.0
H579 H 0.5735 0.65519 0.25333 0.0
H580 H 0.56046 0.56773 0.29376 0.0
H581 H 0.53769 0.54103 0.23662 0.0
C582 C 0.87514 0.40886 0.31747 0.0
C583 C 0.87013 0.40722 0.4444 0.0
C584 C 0.89762 0.3511 0.41571 0.0
C585 C 0.90949 0.35931 0.29676 0.0
N586 N 0.89144 0.37586 0.12721 0.0
N587 N 0.8672 0.37153 0.61217 0.0
C588 C 0.89132 0.38086 0.24514 0.0
C589 C 0.8777 0.37603 0.49309 0.0
N590 N 0.86725 0.43758 0.26578 0.0
N591 N 0.90876 0.32208 0.45523 0.0
H592 H 0.8523 0.38963 0.66807 0.0
H593 H 0.87219 0.3497 0.6541 0.0
H594 H 0.92402 0.30522 0.39545 0.0
H595 H 0.90272 0.31457 0.54283 0.0
H596 H 0.87326 0.44017 0.17351 0.0
H597 H 0.8566 0.45959 0.31422 0.0
H598 H 0.87723 0.39014 0.08653 0.0
H599 H 0.90352 0.35489 0.0758 0.0
C600 C 1.02637 0.15232 0.16027 0.0
C601 C 1.0182 0.18015 0.09725 0.0
C602 C 1.02218 0.14147 0.92031 0.0
C603 C 1.02476 0.11303 0.99084 0.0
N604 N 1.02445 0.09198 0.18669 0.0
N605 N 1.00643 0.20151 0.91924 0.0
C606 C 1.02593 0.11856 0.11295 0.0
C607 C 1.01585 0.17489 0.97725 0.0
N608 N 0.03398 0.15831 0.26683 0.0
N609 N 1.02693 0.13682 0.79863 0.0
H610 H 1.00249 0.22646 0.95667 0.0
H611 H 1.00074 0.19836 0.83742 0.0
H612 H 0.03232 0.11292 0.75324 0.0
H613 H 1.02869 0.15701 0.7421 0.0
H614 H 0.04277 0.13928 0.31196 0.0
H615 H 0.0344 0.18292 0.30351 0.0
H616 H 1.02322 0.09511 0.27819 0.0
H617 H 1.02116 0.06721 0.16037 0.0
C618 C 0.3893 0.98203 0.09237 0.0
C619 C 0.37294 0.01091 0.1592 0.0
C620 C 0.41855 0.04177 0.11092 0.0
C621 C 0.4362 0.01093 0.06345 0.0
N622 N 0.43663 0.94951 0.02772 0.0
N623 N 0.37291 0.06812 0.24048 0.0
C624 C 0.42102 0.98056 0.05759 0.0
C625 C 0.38786 0.04078 0.16995 0.0
N626 N 0.37437 0.95547 0.06394 0.0
N627 N 0.43048 0.07244 0.09522 0.0
H628 H 0.35027 0.06906 0.27922 0.0
H629 H 0.38331 0.08885 0.26572 0.0
H630 H 0.45207 0.07486 0.04806 0.0
H631 H 0.41798 0.09576 0.11719 0.0
H632 H 0.38439 0.93502 0.00476 0.0
H633 H 0.35134 0.95597 0.08959 0.0
H634 H 0.42674 0.92652 0.03499 0.0
H635 H 0.45953 0.94589 0.00882 0.0
C636 C 0.53882 0.35625 0.11226 0.0
C637 C 0.51479 0.35157 0.2097 0.0
C638 C 0.4917 0.40818 0.18281 0.0
C639 C 0.516 0.41317 0.08556 0.0
N640 N 0.55797 0.38675 0.93683 0.0
N641 N 0.46502 0.36841 0.31697 0.0
C642 C 0.53805 0.38558 0.04387 0.0
C643 C 0.48996 0.37596 0.23664 0.0
N644 N 0.56338 0.33373 0.08933 0.0
N645 N 0.47139 0.43483 0.22967 0.0
H646 H 0.46366 0.34505 0.35721 0.0
H647 H 0.44512 0.38355 0.33446 0.0
H648 H 0.4724 0.45909 0.19647 0.0
H649 H 0.45498 0.43384 0.30803 0.0
H650 H 0.58335 0.33837 0.03175 0.0
H651 H 0.56432 0.31109 0.13293 0.0
H652 H 0.57208 0.36591 0.8948 0.0
H653 H 0.55834 0.40744 0.88408 0.0
C654 C 0.15497 0.47989 0.06494 0.0
C655 C 0.17273 0.50719 0.02837 0.0
C656 C 0.1374 0.52814 0.91224 0.0
C657 C 0.11993 0.50018 0.94587 0.0
N658 N 0.11774 0.44411 0.02375 0.0
N659 N 0.18529 0.55103 0.88987 0.0
C660 C 0.13056 0.47436 0.0126 0.0
C661 C 0.16542 0.52904 0.94226 0.0
N662 N 0.16039 0.4602 0.15394 0.0
N663 N 0.12654 0.5553 0.86041 0.0
H664 H 0.20595 0.55222 0.90978 0.0
H665 H 0.18258 0.56527 0.81818 0.0
H666 H 0.10573 0.55713 0.84183 0.0
H667 H 0.13702 0.57784 0.84679 0.0
H668 H 0.14604 0.44267 0.19452 0.0
H669 H 0.17817 0.46311 0.19321 0.0
H670 H 0.12603 0.42329 0.06262 0.0
H671 H 0.10085 0.43853 0.98206 0.0
C672 C 1.01379 0.85917 0.64884 0.0
C673 C 0.03811 0.83695 0.66059 0.0
C674 C 0.05671 0.88317 0.76501 0.0
C675 C 0.03207 0.90536 0.75522 0.0
N676 N 0.98361 0.91224 0.71462 0.0
N677 N 0.07875 0.82493 0.75234 0.0
C678 C 1.00948 0.89262 0.70542 0.0
C679 C 0.0581 0.84807 0.72724 0.0
N680 N 0.99566 0.84889 0.5786 0.0
N681 N 0.07972 0.896 0.80284 0.0
H682 H 0.07997 0.79905 0.7263 0.0
H683 H 0.09285 0.83058 0.8073 0.0
H684 H 0.08001 0.92159 0.82886 0.0
H685 H 0.09969 0.88197 0.79917 0.0
H686 H 0.97992 0.86529 0.55369 0.0
H687 H 0.99753 0.82424 0.53934 0.0
H688 H 0.96517 0.90318 0.6909 0.0
H689 H 0.97956 0.93669 0.7564 0.0
C690 C 0.67178 0.97917 0.60482 0.0
C691 C 0.68749 1.00729 0.62907 0.0
C692 C 0.64248 0.03178 0.77578 0.0
C693 C 0.62671 1.00323 0.75397 0.0
N694 N 0.62928 0.946 0.66696 0.0
N695 N 0.68992 0.05585 0.75824 0.0
C696 C 0.64232 0.97578 0.67431 0.0
C697 C 0.6735 0.03184 0.72238 0.0
N698 N 0.68464 0.95635 0.51155 0.0
N699 N 0.6275 0.06023 0.83946 0.0
H700 H 0.71248 0.05649 0.72019 0.0
H701 H 0.68203 0.07278 0.83267 0.0
H702 H 0.60482 0.06227 0.87601 0.0
H703 H 0.63698 0.08321 0.84578 0.0
H704 H 0.67328 0.93785 0.47809 0.0
H705 H 0.70651 0.95714 0.4636 0.0
H706 H 0.64038 0.9239 0.62026 0.0
H707 H 0.60812 0.94236 0.71677 0.0
C708 C 0.56076 0.64801 0.62562 0.0
C709 C 0.53285 0.66484 0.62288 0.0
C710 C 0.50915 0.61482 0.69943 0.0
C711 C 0.53613 0.59842 0.71534 0.0
N712 N 0.58649 0.60743 0.72708 0.0
N713 N 0.48051 0.66867 0.70633 0.0
C714 C 0.56174 0.61737 0.68916 0.0
C715 C 0.5072 0.65018 0.68284 0.0
N716 N 0.58627 0.66009 0.56389 0.0
N717 N 0.48656 0.59628 0.6837 0.0
H718 H 0.4788 0.6945 0.68896 0.0
H719 H 0.46111 0.65887 0.75243 0.0
H720 H 0.4895 0.56991 0.66661 0.0
H721 H 0.46716 0.60747 0.66625 0.0
H722 H 0.60684 0.64649 0.55183 0.0
H723 H 0.5866 0.68274 0.51989 0.0
H724 H 0.60462 0.62207 0.71635 0.0
H725 H 0.58762 0.58723 0.78192 0.0
C726 C 0.91326 0.51987 0.70244 0.0
C727 C 0.89601 0.49178 0.73193 0.0
C728 C 0.92344 0.47791 0.88681 0.0
C729 C 0.94214 0.50476 0.85068 0.0
N730 N 0.9418 0.56128 0.77494 0.0
N731 N 0.87962 0.44921 0.87155 0.0
C732 C 0.93324 0.52882 0.77357 0.0
C733 C 0.89968 0.47227 0.82997 0.0
N734 N 0.9114 0.53755 0.60415 0.0
N735 N 0.9276 0.45859 0.97855 0.0
H736 H 0.86169 0.44517 0.83426 0.0
H737 H 0.87922 0.43583 0.94799 0.0
H738 H 0.93879 0.46694 0.04166 0.0
H739 H 0.91919 0.43498 0.99478 0.0
H740 H 0.92591 0.5558 0.57121 0.0
H741 H 0.89709 0.53196 0.54974 0.0
H742 H 0.93443 0.58028 0.72564 0.0
H743 H 0.95184 0.57076 0.84021 0.0
loop_
_geom_bond_atom_site_label_1
_geom_bond_atom_site_label_2
_geom_bond_distance
_geom_bond_site_symmetry_2
_ccdc_geom_bond_type
H0 C1 0.949 . S
C1 H0 0.949 . S
C1 C2 1.395 . S
C1 C3 1.391 . S
C2 C1 1.395 . S
C2 C5 1.390 . S
C3 C1 1.391 . S
C3 C7 1.387 . S
C3 C8 1.491 . S
H4 C5 0.950 . S
C5 C2 1.390 . S
C5 H4 0.950 . S
C5 C6 1.378 . S
C6 C5 1.378 . S
C6 C7 1.409 . S
C7 C3 1.387 . S
C7 C6 1.409 . S
C7 H9 0.958 . S
C8 C3 1.491 . S
C8 C10 1.382 . S
C8 C12 1.404 . S
H9 C7 0.958 . S
C10 C8 1.382 . S
C10 C11 1.390 . S
C10 H15 0.949 . S
C11 C10 1.390 . S
C11 C16 1.399 . S
C12 C8 1.404 . S
C12 H13 0.950 . S
C12 C14 1.375 . S
H13 C12 0.950 . S
C14 C12 1.375 . S
C14 C16 1.382 . S
C14 H18 0.950 . S
H15 C10 0.949 . S
C16 C11 1.399 . S
C16 C14 1.382 . S
C16 H17 0.952 . S
H17 C16 0.952 . S
H18 C14 0.950 . S
H19 C20 0.949 . S
C20 H19 0.949 . S
C20 C21 1.395 . S
C20 C22 1.391 . S
C21 C20 1.395 . S
C21 C24 1.389 1_655 S
C22 C20 1.391 . S
C22 C26 1.387 . S
C22 C27 1.491 . S
H23 C24 0.951 . S
C24 C21 1.389 1_455 S
C24 H23 0.951 . S
C24 C25 1.378 1_455 S
C25 C24 1.378 1_655 S
C25 C26 1.409 . S
C26 C22 1.387 . S
C26 C25 1.409 . S
C26 H28 0.951 . S
C27 C22 1.491 . S
C27 C29 1.382 . S
C27 C31 1.404 . S
H28 C26 0.951 . S
C29 C27 1.382 . S
C29 C30 1.390 . S
C29 H34 0.949 1_655 S
C30 C29 1.390 . S
C30 C35 1.399 . S
C31 C27 1.404 . S
C31 H32 0.950 . S
C31 C33 1.375 . S
H32 C31 0.950 . S
C33 C31 1.375 . S
C33 C35 1.382 . S
C33 H37 0.950 . S
H34 C29 0.949 1_455 S
C35 C30 1.399 . S
C35 C33 1.382 . S
C35 H36 0.952 . S
H36 C35 0.952 . S
H37 C33 0.950 . S
H38 C39 0.949 . S
C39 H38 0.949 . S
C39 C40 1.395 . S
C39 C41 1.391 . S
C40 C39 1.395 . S
C40 C43 1.390 1_565 S
C41 C39 1.391 . S
C41 C45 1.387 . S
C41 C46 1.491 . S
H42 C43 0.950 . S
C43 C40 1.390 1_545 S
C43 H42 0.950 . S
C43 C44 1.376 1_545 S
C44 C43 1.376 1_565 S
C44 C45 1.411 . S
C45 C41 1.387 . S
C45 C44 1.411 . S
C45 H47 0.951 . S
C46 C41 1.491 . S
C46 C48 1.382 . S
C46 C50 1.404 . S
H47 C45 0.951 . S
C48 C46 1.382 . S
C48 C49 1.390 . S
C48 H53 0.949 1_565 S
C49 C48 1.390 . S
C49 C54 1.399 . S
C50 C46 1.404 . S
C50 H51 0.950 . S
C50 C52 1.375 . S
H51 C50 0.950 . S
C52 C50 1.375 . S
C52 C54 1.382 . S
C52 H56 0.950 . S
H53 C48 0.949 1_545 S
C54 C49 1.399 . S
C54 C52 1.382 . S
C54 H55 0.952 . S
H55 C54 0.952 . S
H56 C52 0.950 . S
H57 C58 0.949 . S
C58 H57 0.949 . S
C58 C59 1.395 . S
C58 C60 1.391 . S
C59 C58 1.395 . S
C59 C62 1.390 . S
C60 C58 1.391 . S
C60 C64 1.387 . S
C60 C65 1.491 . S
H61 C62 0.950 . S
C62 C59 1.390 . S
C62 H61 0.950 . S
C62 C63 1.378 . S
C63 C62 1.378 . S
C63 C64 1.409 . S
C64 C60 1.387 . S
C64 C63 1.409 . S
C64 H66 0.951 . S
C65 C60 1.491 . S
C65 C67 1.382 . S
C65 C69 1.404 . S
H66 C64 0.951 . S
C67 C65 1.382 . S
C67 C68 1.390 . S
C67 H72 0.949 . S
C68 C67 1.390 . S
C68 C73 1.399 . S
C69 C65 1.404 . S
C69 H70 0.950 . S
C69 C71 1.375 . S
H70 C69 0.950 . S
C71 C69 1.375 . S
C71 C73 1.382 . S
C71 H75 0.950 . S
H72 C67 0.949 . S
C73 C68 1.399 . S
C73 C71 1.382 . S
C73 H74 0.952 . S
H74 C73 0.952 . S
H75 C71 0.950 . S
H76 C77 0.949 . S
C77 H76 0.949 . S
C77 C78 1.395 . S
C77 C79 1.391 1_554 S
C78 C77 1.395 . S
C78 C81 1.390 1_554 S
C79 C77 1.391 1_556 S
C79 C83 1.387 . S
C79 C84 1.491 . S
H80 C81 0.950 . S
C81 C78 1.390 1_556 S
C81 H80 0.950 . S
C81 C82 1.378 . S
C82 C81 1.378 . S
C82 C83 1.409 . S
C83 C79 1.387 . S
C83 C82 1.409 . S
C83 H85 0.951 . S
C84 C79 1.491 . S
C84 C86 1.382 1_556 S
C84 C88 1.404 . S
H85 C83 0.951 . S
C86 C84 1.382 1_554 S
C86 C87 1.390 . S
C86 H91 0.949 . S
C87 C86 1.390 . S
C87 C92 1.399 1_554 S
C88 C84 1.404 . S
C88 H89 0.950 . S
C88 C90 1.375 . S
H89 C88 0.950 . S
C90 C88 1.375 . S
C90 C92 1.382 . S
C90 H94 0.950 . S
H91 C86 0.949 . S
C92 C87 1.399 1_556 S
C92 C90 1.382 . S
C92 H93 0.952 . S
H93 C92 0.952 . S
H94 C90 0.950 . S
H95 C96 0.956 1_655 S
C96 H95 0.956 1_455 S
C96 C97 1.396 . S
C96 C98 1.385 1_455 S
C97 C96 1.396 . S
C97 C100 1.390 . S
C98 C96 1.385 1_655 S
C98 C102 1.388 . S
C98 C103 1.491 . S
H99 C100 0.950 . S
C100 C97 1.390 . S
C100 H99 0.950 . S
C100 C101 1.378 . S
C101 C100 1.378 . S
C101 C102 1.409 1_455 S
C102 C98 1.388 . S
C102 C101 1.409 1_655 S
C102 H104 0.951 1_554 S
C103 C98 1.491 . S
C103 C105 1.382 1_655 S
C103 C107 1.404 . S
H104 C102 0.951 1_556 S
C105 C103 1.382 1_455 S
C105 C106 1.390 1_455 S
C105 H110 0.949 . S
C106 C105 1.390 1_655 S
C106 C111 1.399 . S
C107 C103 1.404 . S
C107 H108 0.950 . S
C107 C109 1.375 . S
H108 C107 0.950 . S
C109 C107 1.375 . S
C109 C111 1.382 . S
C109 H113 0.950 . S
H110 C105 0.949 . S
C111 C106 1.399 . S
C111 C109 1.382 . S
C111 H112 0.952 . S
H112 C111 0.952 . S
H113 C109 0.950 . S
H114 C115 0.949 . S
C115 H114 0.949 . S
C115 C116 1.394 . S
C115 C117 1.391 . S
C116 C115 1.394 . S
C116 C119 1.391 1_565 S
C117 C115 1.391 . S
C117 C121 1.387 . S
C117 C122 1.491 . S
H118 C119 0.950 . S
C119 C116 1.391 1_545 S
C119 H118 0.950 . S
C119 C120 1.377 1_545 S
C120 C119 1.377 1_565 S
C120 C121 1.412 . S
C121 C117 1.387 . S
C121 C120 1.412 . S
C121 H123 0.951 . S
C122 C117 1.491 . S
C122 C124 1.382 . S
C122 C126 1.404 . S
H123 C121 0.951 . S
C124 C122 1.382 . S
C124 C125 1.390 . S
C124 H129 0.949 1_565 S
C125 C124 1.390 . S
C125 C130 1.399 . S
C126 C122 1.404 . S
C126 H127 0.950 . S
C126 C128 1.375 . S
H127 C126 0.950 . S
C128 C126 1.375 . S
C128 C130 1.382 . S
C128 H132 0.950 . S
H129 C124 0.949 1_545 S
C130 C125 1.399 . S
C130 C128 1.382 . S
C130 H131 0.952 . S
H131 C130 0.952 . S
H132 C128 0.950 . S
H133 C134 0.949 . S
C134 H133 0.949 . S
C134 C135 1.395 . S
C134 C136 1.391 . S
C135 C134 1.395 . S
C135 C138 1.390 . S
C136 C134 1.391 . S
C136 C140 1.387 . S
C136 C141 1.491 . S
H137 C138 0.950 . S
C138 C135 1.390 . S
C138 H137 0.950 . S
C138 C139 1.378 . S
C139 C138 1.378 . S
C139 C140 1.409 . S
C140 C136 1.387 . S
C140 C139 1.409 . S
C140 H142 0.951 . S
C141 C136 1.491 . S
C141 C143 1.382 . S
C141 C145 1.404 . S
H142 C140 0.951 . S
C143 C141 1.382 . S
C143 C144 1.390 . S
C143 H148 0.949 . S
C144 C143 1.390 . S
C144 C149 1.399 . S
C145 C141 1.404 . S
C145 H146 0.950 . S
C145 C147 1.375 . S
H146 C145 0.950 . S
C147 C145 1.375 . S
C147 C149 1.382 . S
C147 H151 0.950 . S
H148 C143 0.949 . S
C149 C144 1.399 . S
C149 C147 1.382 . S
C149 H150 0.952 . S
H150 C149 0.952 . S
H151 C147 0.950 . S
Dy152 O155 2.307 1_545 S
Dy152 O157 2.395 1_655 S
Dy152 O158 2.379 . S
Dy152 O160 2.339 . S
Dy152 O162 2.298 . S
Dy152 O166 2.275 1_655 S
Dy152 C174 2.738 . S
Dy153 O156 2.298 1_554 S
Dy153 O159 2.275 1_454 S
Dy153 O161 2.307 1_565 S
Dy153 O163 2.395 1_455 S
Dy153 O164 2.379 . S
Dy153 O167 2.339 1_554 S
Dy153 C183 2.738 . S
C154 O166 1.254 1_565 S
C154 O167 1.257 . S
O155 Dy152 2.307 1_565 S
O155 C165 1.266 . S
O156 Dy153 2.298 1_556 S
O156 C165 1.236 1_455 S
O157 Dy152 2.395 1_455 S
O157 C174 1.255 1_455 S
O158 Dy152 2.379 . S
O158 C174 1.249 . S
O159 Dy153 2.275 1_656 S
O159 C175 1.254 1_565 S
O160 Dy152 2.339 . S
O160 C175 1.257 . S
O161 Dy153 2.307 1_545 S
O161 C176 1.266 1_554 S
O162 Dy152 2.298 . S
O162 C176 1.236 1_655 S
O163 Dy153 2.395 1_655 S
O163 C183 1.255 1_655 S
O164 Dy153 2.379 . S
O164 C183 1.249 . S
C165 O155 1.266 . S
C165 O156 1.236 1_655 S
O166 Dy152 2.275 1_455 S
O166 C154 1.254 1_545 S
O167 Dy153 2.339 1_556 S
O167 C154 1.257 . S
C168 C171 1.344 1_655 S
C168 C172 1.328 . S
C168 C174 1.516 . S
C169 C170 1.304 1_655 S
C169 C173 1.323 . S
C170 C169 1.304 1_455 S
C170 C171 1.371 . S
C170 H184 0.930 . S
C171 C168 1.344 1_455 S
C171 C170 1.371 . S
C171 H185 0.931 . S
C172 C168 1.328 . S
C172 C173 1.433 . S
C172 H186 0.931 . S
C173 C169 1.323 . S
C173 C172 1.433 . S
C173 H187 0.933 . S
C174 Dy152 2.738 . S
C174 O157 1.255 1_655 S
C174 O158 1.249 . S
C174 C168 1.516 . S
C175 O159 1.254 1_545 S
C175 O160 1.257 . S
C176 O161 1.266 1_556 S
C176 O162 1.236 1_455 S
C177 C180 1.344 1_455 S
C177 C181 1.328 . S
C177 C183 1.516 . S
C178 C179 1.304 1_455 S
C178 C182 1.323 . S
C179 C178 1.304 1_655 S
C179 C180 1.371 . S
C179 H188 0.930 . S
C180 C177 1.344 1_655 S
C180 C179 1.371 . S
C180 H189 0.931 . S
C181 C177 1.328 . S
C181 C182 1.433 . S
C181 H190 0.931 . S
C182 C178 1.323 . S
C182 C181 1.433 . S
C182 H191 0.933 . S
C183 Dy153 2.738 . S
C183 O163 1.255 1_455 S
C183 O164 1.249 . S
C183 C177 1.516 . S
H184 C170 0.930 . S
H185 C171 0.931 . S
H186 C172 0.931 . S
H187 C173 0.933 . S
H188 C179 0.930 . S
H189 C180 0.931 . S
H190 C181 0.931 . S
H191 C182 0.933 . S
Dy192 O195 2.307 . S
Dy192 O197 2.395 1_565 S
Dy192 O198 2.379 . S
Dy192 O200 2.339 . S
Dy192 O202 2.298 . S
Dy192 O206 2.275 1_565 S
Dy192 C214 2.738 . S
Dy193 O196 2.298 1_554 S
Dy193 O199 2.275 1_544 S
Dy193 O201 2.307 . S
Dy193 O203 2.395 1_545 S
Dy193 O204 2.379 . S
Dy193 O207 2.339 1_554 S
Dy193 C223 2.738 . S
C194 O206 1.254 . S
C194 O207 1.257 . S
O195 Dy192 2.307 . S
O195 C205 1.266 . S
O196 Dy193 2.298 1_556 S
O196 C205 1.236 1_545 S
O197 Dy192 2.395 1_545 S
O197 C214 1.255 1_545 S
O198 Dy192 2.379 . S
O198 C214 1.249 . S
O199 Dy193 2.275 1_566 S
O199 C215 1.254 . S
O200 Dy192 2.339 . S
O200 C215 1.257 . S
O201 Dy193 2.307 . S
O201 C216 1.264 1_554 S
O202 Dy192 2.298 . S
O202 C216 1.239 1_565 S
O203 Dy193 2.395 1_565 S
O203 C223 1.255 1_565 S
O204 Dy193 2.379 . S
O204 C223 1.249 . S
C205 O195 1.266 . S
C205 O196 1.236 1_565 S
O206 Dy192 2.275 1_545 S
O206 C194 1.254 . S
O207 Dy193 2.339 1_556 S
O207 C194 1.257 . S
C208 C211 1.344 1_565 S
C208 C212 1.328 . S
C208 C214 1.516 . S
C209 C210 1.304 1_565 S
C209 C213 1.323 . S
C210 C209 1.304 1_545 S
C210 C211 1.371 . S
C210 H224 0.930 . S
C211 C208 1.344 1_545 S
C211 C210 1.371 . S
C211 H225 0.931 . S
C212 C208 1.328 . S
C212 C213 1.433 . S
C212 H226 0.931 . S
C213 C209 1.323 . S
C213 C212 1.433 . S
C213 H227 0.933 . S
C214 Dy192 2.738 . S
C214 O197 1.255 1_565 S
C214 O198 1.249 . S
C214 C208 1.516 . S
C215 O199 1.254 . S
C215 O200 1.257 . S
C216 O201 1.264 1_556 S
C216 O202 1.239 1_545 S
C217 C220 1.344 1_545 S
C217 C221 1.328 . S
C217 C223 1.516 . S
C218 C219 1.304 1_545 S
C218 C222 1.323 . S
C219 C218 1.304 1_565 S
C219 C220 1.371 . S
C219 H228 0.930 . S
C220 C217 1.344 1_565 S
C220 C219 1.371 . S
C220 H229 0.931 . S
C221 C217 1.328 . S
C221 C222 1.433 . S
C221 H230 0.931 . S
C222 C218 1.323 . S
C222 C221 1.433 . S
C222 H231 0.933 . S
C223 Dy193 2.738 . S
C223 O203 1.255 1_545 S
C223 O204 1.249 . S
C223 C217 1.516 . S
H224 C210 0.930 . S
H225 C211 0.931 . S
H226 C212 0.931 . S
H227 C213 0.933 . S
H228 C219 0.930 . S
H229 C220 0.931 . S
H230 C221 0.931 . S
H231 C222 0.933 . S
Dy232 O235 2.307 . S
Dy232 O237 2.395 1_556 S
Dy232 O238 2.379 . S
Dy232 O240 2.339 . S
Dy232 O242 2.298 . S
Dy232 O246 2.275 . S
Dy232 C254 2.738 1_556 S
Dy233 O236 2.298 . S
Dy233 O239 2.275 . S
Dy233 O241 2.307 1_556 S
Dy233 O243 2.395 . S
Dy233 O244 2.379 . S
Dy233 O247 2.339 1_556 S
Dy233 C263 2.738 . S
C234 O246 1.254 1_554 S
C234 O247 1.257 . S
O235 Dy232 2.307 . S
O235 C245 1.266 . S
O236 Dy233 2.298 . S
O236 C245 1.236 . S
O237 Dy232 2.395 1_554 S
O237 C254 1.255 . S
O238 Dy232 2.379 . S
O238 C254 1.249 1_556 S
O239 Dy233 2.275 . S
O239 C255 1.254 . S
O240 Dy232 2.339 . S
O240 C255 1.257 . S
O241 Dy233 2.307 1_554 S
O241 C256 1.266 . S
O242 Dy232 2.298 . S
O242 C256 1.236 1_556 S
O243 Dy233 2.395 . S
O243 C263 1.255 . S
O244 Dy233 2.379 . S
O244 C263 1.249 . S
C245 O235 1.266 . S
C245 O236 1.236 . S
O246 Dy232 2.275 . S
O246 C234 1.254 1_556 S
O247 Dy233 2.339 1_554 S
O247 C234 1.257 . S
C248 C251 1.344 . S
C248 C252 1.328 . S
C248 C254 1.516 . S
C249 C250 1.304 . S
C249 C253 1.323 . S
C250 C249 1.304 . S
C250 C251 1.371 . S
C250 H264 0.930 . S
C251 C248 1.344 . S
C251 C250 1.371 . S
C251 H265 0.931 . S
C252 C248 1.328 . S
C252 C253 1.433 . S
C252 H266 0.931 1_554 S
C253 C249 1.323 . S
C253 C252 1.433 . S
C253 H267 0.933 . S
C254 Dy232 2.738 1_554 S
C254 O237 1.255 . S
C254 O238 1.249 1_554 S
C254 C248 1.516 . S
C255 O239 1.254 . S
C255 O240 1.257 . S
C256 O241 1.266 . S
C256 O242 1.236 1_554 S
C257 C260 1.344 . S
C257 C261 1.328 . S
C257 C263 1.516 . S
C258 C259 1.304 . S
C258 C262 1.323 . S
C259 C258 1.304 . S
C259 C260 1.371 . S
C259 H268 0.930 . S
C260 C257 1.344 . S
C260 C259 1.371 . S
C260 H269 0.931 . S
C261 C257 1.328 . S
C261 C262 1.433 . S
C261 H270 0.931 . S
C262 C258 1.323 . S
C262 C261 1.433 . S
C262 H271 0.933 . S
C263 Dy233 2.738 . S
C263 O243 1.255 . S
C263 O244 1.249 . S
C263 C257 1.516 . S
H264 C250 0.930 . S
H265 C251 0.931 . S
H266 C252 0.931 1_556 S
H267 C253 0.933 . S
H268 C259 0.930 . S
H269 C260 0.931 . S
H270 C261 0.931 . S
H271 C262 0.933 . S
Dy272 O275 2.307 1_455 S
Dy272 O277 2.395 . S
Dy272 O278 2.379 . S
Dy272 O280 2.339 . S
Dy272 O282 2.298 . S
Dy272 O286 2.275 . S
Dy272 C294 2.738 . S
Dy273 O276 2.298 1_554 S
Dy273 O279 2.275 1_554 S
Dy273 O281 2.307 1_654 S
Dy273 O283 2.395 . S
Dy273 O284 2.379 . S
Dy273 O287 2.339 1_554 S
Dy273 C303 2.738 . S
C274 O286 1.259 . S
C274 O287 1.252 1_455 S
O275 Dy272 2.307 1_655 S
O275 C285 1.266 . S
O276 Dy273 2.298 1_556 S
O276 C285 1.236 . S
O277 Dy272 2.395 . S
O277 C294 1.255 . S
O278 Dy272 2.379 . S
O278 C294 1.249 . S
O279 Dy273 2.275 1_556 S
O279 C295 1.254 1_655 S
O280 Dy272 2.339 . S
O280 C295 1.257 . S
O281 Dy273 2.307 1_456 S
O281 C296 1.266 . S
O282 Dy272 2.298 . S
O282 C296 1.236 . S
O283 Dy273 2.395 . S
O283 C303 1.255 . S
O284 Dy273 2.379 . S
O284 C303 1.249 . S
C285 O275 1.266 . S
C285 O276 1.236 . S
O286 Dy272 2.275 . S
O286 C274 1.259 . S
O287 Dy273 2.339 1_556 S
O287 C274 1.252 1_655 S
C288 C291 1.344 . S
C288 C292 1.328 . S
C288 C294 1.516 . S
C289 C290 1.304 . S
C289 C293 1.323 . S
C290 C289 1.304 . S
C290 C291 1.371 . S
C290 H304 0.930 . S
C291 C288 1.344 . S
C291 C290 1.371 . S
C291 H305 0.931 . S
C292 C288 1.328 . S
C292 C293 1.433 . S
C292 H306 0.931 . S
C293 C289 1.323 . S
C293 C292 1.433 . S
C293 H307 0.933 . S
C294 Dy272 2.738 . S
C294 O277 1.255 . S
C294 O278 1.249 . S
C294 C288 1.516 . S
C295 O279 1.254 1_455 S
C295 O280 1.257 . S
C296 O281 1.266 . S
C296 O282 1.236 . S
C297 C300 1.344 . S
C297 C301 1.328 . S
C297 C303 1.516 . S
C298 C299 1.304 . S
C298 C302 1.323 . S
C299 C298 1.304 . S
C299 C300 1.371 . S
C299 H308 0.930 . S
C300 C297 1.344 . S
C300 C299 1.371 . S
C300 H309 0.931 . S
C301 C297 1.328 . S
C301 C302 1.433 . S
C301 H310 0.931 . S
C302 C298 1.323 . S
C302 C301 1.433 . S
C302 H311 0.933 . S
C303 Dy273 2.738 . S
C303 O283 1.255 . S
C303 O284 1.249 . S
C303 C297 1.516 . S
H304 C290 0.930 . S
H305 C291 0.931 . S
H306 C292 0.931 . S
H307 C293 0.933 . S
H308 C299 0.930 . S
H309 C300 0.931 . S
H310 C301 0.931 . S
H311 C302 0.933 . S
C312 C313 1.353 1_565 S
C312 C318 1.379 . S
C312 N320 1.356 . S
C313 C312 1.353 1_545 S
C313 C319 1.372 . S
C314 C315 1.363 . S
C314 C319 1.379 . S
C314 N321 1.356 . S
C315 C314 1.363 . S
C315 C318 1.363 1_545 S
N316 C318 1.356 . S
N316 H328 0.984 . S
N316 H329 0.985 . S
N317 C319 1.356 . S
N317 H322 0.984 . S
N317 H323 0.985 . S
C318 C312 1.379 . S
C318 C315 1.363 1_565 S
C318 N316 1.356 . S
C319 C313 1.372 . S
C319 C314 1.379 . S
C319 N317 1.356 . S
N320 C312 1.356 . S
N320 H326 0.984 . S
N320 H327 0.984 . S
N321 C314 1.356 . S
N321 H324 0.984 . S
N321 H325 0.985 . S
H322 N317 0.984 . S
H323 N317 0.985 . S
H324 N321 0.984 . S
H325 N321 0.985 . S
H326 N320 0.984 . S
H327 N320 0.984 . S
H328 N316 0.984 . S
H329 N316 0.985 . S
C330 C331 1.363 . S
C330 C336 1.379 . S
C330 N338 1.356 . S
C331 C330 1.363 . S
C331 C337 1.363 . S
C332 C333 1.363 . S
C332 C337 1.379 . S
C332 N339 1.356 . S
C333 C332 1.363 . S
C333 C336 1.363 . S
N334 C336 1.356 . S
N334 H346 0.984 . S
N334 H347 0.985 . S
N335 C337 1.356 . S
N335 H340 0.984 . S
N335 H341 0.985 . S
C336 C330 1.379 . S
C336 C333 1.363 . S
C336 N334 1.356 . S
C337 C331 1.363 . S
C337 C332 1.379 . S
C337 N335 1.356 . S
N338 C330 1.356 . S
N338 H344 0.984 . S
N338 H345 0.984 . S
N339 C332 1.356 . S
N339 H342 0.984 . S
N339 H343 0.985 . S
H340 N335 0.984 . S
H341 N335 0.985 . S
H342 N339 0.984 . S
H343 N339 0.985 . S
H344 N338 0.984 . S
H345 N338 0.984 . S
H346 N334 0.984 . S
H347 N334 0.985 . S
C348 C349 1.363 . S
C348 C354 1.379 . S
C348 N356 1.356 . S
C349 C348 1.363 . S
C349 C355 1.363 . S
C350 C351 1.363 . S
C350 C355 1.379 . S
C350 N357 1.356 . S
C351 C350 1.363 . S
C351 C354 1.363 . S
N352 C354 1.356 . S
N352 H364 0.984 . S
N352 H365 0.985 . S
N353 C355 1.356 . S
N353 H358 0.984 . S
N353 H359 0.985 . S
C354 C348 1.379 . S
C354 C351 1.363 . S
C354 N352 1.356 . S
C355 C349 1.363 . S
C355 C350 1.379 . S
C355 N353 1.356 . S
N356 C348 1.356 . S
N356 H362 0.984 . S
N356 H363 0.984 . S
N357 C350 1.356 . S
N357 H360 0.984 . S
N357 H361 0.985 . S
H358 N353 0.984 . S
H359 N353 0.985 . S
H360 N357 0.984 . S
H361 N357 0.985 . S
H362 N356 0.984 . S
H363 N356 0.984 . S
H364 N352 0.984 . S
H365 N352 0.985 . S
C366 C367 1.363 . S
C366 C372 1.379 . S
C366 N374 1.356 1_455 S
C367 C366 1.363 . S
C367 C373 1.363 . S
C368 C369 1.363 . S
C368 C373 1.379 . S
C368 N375 1.356 . S
C369 C368 1.363 . S
C369 C372 1.363 . S
N370 C372 1.356 1_655 S
N370 H382 0.984 . S
N370 H383 0.991 . S
N371 C373 1.356 . S
N371 H376 0.984 . S
N371 H377 0.985 . S
C372 C366 1.379 . S
C372 C369 1.363 . S
C372 N370 1.356 1_455 S
C373 C367 1.363 . S
C373 C368 1.379 . S
C373 N371 1.356 . S
N374 C366 1.356 1_655 S
N374 H380 0.984 . S
N374 H381 0.979 . S
N375 C368 1.356 . S
N375 H378 0.984 . S
N375 H379 0.985 . S
H376 N371 0.984 . S
H377 N371 0.985 . S
H378 N375 0.984 . S
H379 N375 0.985 . S
H380 N374 0.984 . S
H381 N374 0.979 . S
H382 N370 0.984 . S
H383 N370 0.991 . S
C384 C385 1.368 . S
C384 C390 1.379 . S
C384 N392 1.356 . S
C385 C384 1.368 . S
C385 C391 1.357 1_565 S
C386 C387 1.363 1_545 S
C386 C391 1.379 . S
C386 N393 1.356 . S
C387 C386 1.363 1_565 S
C387 C390 1.363 . S
N388 C390 1.356 . S
N388 H400 0.984 . S
N388 H401 0.985 . S
N389 C391 1.356 . S
N389 H394 0.984 . S
N389 H395 0.985 . S
C390 C384 1.379 . S
C390 C387 1.363 . S
C390 N388 1.356 . S
C391 C385 1.357 1_545 S
C391 C386 1.379 . S
C391 N389 1.356 . S
N392 C384 1.356 . S
N392 H398 0.984 . S
N392 H399 0.984 . S
N393 C386 1.356 . S
N393 H396 0.984 1_554 S
N393 H397 0.985 . S
H394 N389 0.984 . S
H395 N389 0.985 . S
H396 N393 0.984 1_556 S
H397 N393 0.985 . S
H398 N392 0.984 . S
H399 N392 0.984 . S
H400 N388 0.984 . S
H401 N388 0.985 . S
C402 C403 1.363 . S
C402 C408 1.379 1_554 S
C402 N410 1.356 . S
C403 C402 1.363 . S
C403 C409 1.363 . S
C404 C405 1.363 . S
C404 C409 1.379 . S
C404 N411 1.356 . S
C405 C404 1.363 . S
C405 C408 1.363 1_554 S
N406 C408 1.356 . S
N406 H418 0.984 . S
N406 H419 0.985 . S
N407 C409 1.356 . S
N407 H412 0.984 . S
N407 H413 0.985 . S
C408 C402 1.379 1_556 S
C408 C405 1.363 1_556 S
C408 N406 1.356 . S
C409 C403 1.363 . S
C409 C404 1.379 . S
C409 N407 1.356 . S
N410 C402 1.356 . S
N410 H416 0.980 1_554 S
N410 H417 0.990 . S
N411 C404 1.356 . S
N411 H414 0.984 . S
N411 H415 0.985 . S
H412 N407 0.984 . S
H413 N407 0.985 . S
H414 N411 0.984 . S
H415 N411 0.985 . S
H416 N410 0.980 1_556 S
H417 N410 0.990 . S
H418 N406 0.984 . S
H419 N406 0.985 . S
C420 C421 1.363 . S
C420 C426 1.379 . S
C420 N428 1.356 . S
C421 C420 1.363 . S
C421 C427 1.363 . S
C422 C423 1.363 . S
C422 C427 1.379 . S
C422 N429 1.356 . S
C423 C422 1.363 . S
C423 C426 1.363 . S
N424 C426 1.356 . S
N424 H436 0.984 . S
N424 H437 0.985 . S
N425 C427 1.356 . S
N425 H430 0.984 . S
N425 H431 0.985 . S
C426 C420 1.379 . S
C426 C423 1.363 . S
C426 N424 1.356 . S
C427 C421 1.363 . S
C427 C422 1.379 . S
C427 N425 1.356 . S
N428 C420 1.356 . S
N428 H434 0.984 . S
N428 H435 0.984 . S
N429 C422 1.356 . S
N429 H432 0.984 . S
N429 H433 0.985 . S
H430 N425 0.984 . S
H431 N425 0.985 . S
H432 N429 0.984 . S
H433 N429 0.985 . S
H434 N428 0.984 . S
H435 N428 0.984 . S
H436 N424 0.984 . S
H437 N424 0.985 . S
C438 C439 1.363 1_455 S
C438 C444 1.379 . S
C438 N446 1.356 . S
C439 C438 1.363 1_655 S
C439 C445 1.363 . S
C440 C441 1.363 . S
C440 C445 1.379 . S
C440 N447 1.356 . S
C441 C440 1.363 . S
C441 C444 1.363 1_655 S
N442 C444 1.356 . S
N442 H454 0.984 . S
N442 H455 0.985 . S
N443 C445 1.356 . S
N443 H448 0.984 . S
N443 H449 0.985 . S
C444 C438 1.379 . S
C444 C441 1.363 1_455 S
C444 N442 1.356 . S
C445 C439 1.363 . S
C445 C440 1.379 . S
C445 N443 1.356 . S
N446 C438 1.356 . S
N446 H452 0.984 . S
N446 H453 0.984 . S
N447 C440 1.356 . S
N447 H450 0.984 . S
N447 H451 0.985 . S
H448 N443 0.984 . S
H449 N443 0.985 . S
H450 N447 0.984 . S
H451 N447 0.985 . S
H452 N446 0.984 . S
H453 N446 0.984 . S
H454 N442 0.984 . S
H455 N442 0.985 . S
C456 C457 1.363 . S
C456 C462 1.379 . S
C456 N464 1.356 . S
C457 C456 1.363 . S
C457 C463 1.363 1_455 S
C458 C459 1.363 . S
C458 C463 1.379 . S
C458 N465 1.356 . S
C459 C458 1.363 . S
C459 C462 1.363 1_655 S
N460 C462 1.356 . S
N460 H472 0.984 . S
N460 H473 0.985 . S
N461 C463 1.356 . S
N461 H466 0.984 . S
N461 H467 0.985 . S
C462 C456 1.379 . S
C462 C459 1.363 1_455 S
C462 N460 1.356 . S
C463 C457 1.363 1_655 S
C463 C458 1.379 . S
C463 N461 1.356 . S
N464 C456 1.356 . S
N464 H470 0.984 . S
N464 H471 0.984 . S
N465 C458 1.356 . S
N465 H468 0.984 . S
N465 H469 0.985 . S
H466 N461 0.984 . S
H467 N461 0.985 . S
H468 N465 0.984 . S
H469 N465 0.985 . S
H470 N464 0.984 . S
H471 N464 0.984 . S
H472 N460 0.984 . S
H473 N460 0.985 . S
C474 C475 1.363 1_545 S
C474 C480 1.379 . S
C474 N482 1.356 . S
C475 C474 1.363 1_565 S
C475 C481 1.363 . S
C476 C477 1.363 . S
C476 C481 1.379 . S
C476 N483 1.356 . S
C477 C476 1.363 . S
C477 C480 1.363 1_565 S
N478 C480 1.356 . S
N478 H490 0.984 . S
N478 H491 0.985 . S
N479 C481 1.356 . S
N479 H484 0.984 . S
N479 H485 0.985 . S
C480 C474 1.379 . S
C480 C477 1.363 1_545 S
C480 N478 1.356 . S
C481 C475 1.363 . S
C481 C476 1.379 . S
C481 N479 1.356 . S
N482 C474 1.356 . S
N482 H488 0.984 . S
N482 H489 0.984 . S
N483 C476 1.356 . S
N483 H486 0.984 . S
N483 H487 0.985 . S
H484 N479 0.984 . S
H485 N479 0.985 . S
H486 N483 0.984 . S
H487 N483 0.985 . S
H488 N482 0.984 . S
H489 N482 0.984 . S
H490 N478 0.984 . S
H491 N478 0.985 . S
C492 C493 1.363 . S
C492 C498 1.379 . S
C492 N500 1.356 . S
C493 C492 1.363 . S
C493 C499 1.363 . S
C494 C495 1.363 . S
C494 C499 1.379 . S
C494 N501 1.356 . S
C495 C494 1.363 . S
C495 C498 1.363 . S
N496 C498 1.356 . S
N496 H508 0.984 . S
N496 H509 0.985 . S
N497 C499 1.356 . S
N497 H502 0.984 . S
N497 H503 0.985 . S
C498 C492 1.379 . S
C498 C495 1.363 . S
C498 N496 1.356 . S
C499 C493 1.363 . S
C499 C494 1.379 . S
C499 N497 1.356 . S
N500 C492 1.356 . S
N500 H506 0.984 . S
N500 H507 0.984 . S
N501 C494 1.356 . S
N501 H504 0.984 . S
N501 H505 0.985 . S
H502 N497 0.984 . S
H503 N497 0.985 . S
H504 N501 0.984 . S
H505 N501 0.985 . S
H506 N500 0.984 . S
H507 N500 0.984 . S
H508 N496 0.984 . S
H509 N496 0.985 . S
C510 C511 1.363 . S
C510 C516 1.379 . S
C510 N518 1.356 . S
C511 C510 1.363 . S
C511 C517 1.363 . S
C512 C513 1.363 . S
C512 C517 1.379 . S
C512 N519 1.356 . S
C513 C512 1.363 . S
C513 C516 1.363 . S
N514 C516 1.356 . S
N514 H526 0.984 . S
N514 H527 0.985 . S
N515 C517 1.356 . S
N515 H520 0.984 . S
N515 H521 0.985 . S
C516 C510 1.379 . S
C516 C513 1.363 . S
C516 N514 1.356 . S
C517 C511 1.363 . S
C517 C512 1.379 . S
C517 N515 1.356 . S
N518 C510 1.356 . S
N518 H524 0.984 . S
N518 H525 0.984 . S
N519 C512 1.356 . S
N519 H522 0.984 . S
N519 H523 0.985 . S
H520 N515 0.984 . S
H521 N515 0.985 . S
H522 N519 0.984 . S
H523 N519 0.985 . S
H524 N518 0.984 . S
H525 N518 0.984 . S
H526 N514 0.984 . S
H527 N514 0.985 . S
C528 C529 1.363 . S
C528 C534 1.379 . S
C528 N536 1.356 . S
C529 C528 1.363 . S
C529 C535 1.363 1_655 S
C530 C531 1.363 . S
C530 C535 1.379 . S
C530 N537 1.356 . S
C531 C530 1.363 . S
C531 C534 1.363 1_455 S
N532 C534 1.356 . S
N532 H544 0.984 . S
N532 H545 0.985 1_655 S
N533 C535 1.356 . S
N533 H538 0.984 . S
N533 H539 0.985 . S
C534 C528 1.379 . S
C534 C531 1.363 1_655 S
C534 N532 1.356 . S
C535 C529 1.363 1_455 S
C535 C530 1.379 . S
C535 N533 1.356 . S
N536 C528 1.356 . S
N536 H542 0.984 . S
N536 H543 0.984 . S
N537 C530 1.356 . S
N537 H540 0.984 . S
N537 H541 0.985 . S
H538 N533 0.984 . S
H539 N533 0.985 . S
H540 N537 0.984 . S
H541 N537 0.985 . S
H542 N536 0.984 . S
H543 N536 0.984 . S
H544 N532 0.984 . S
H545 N532 0.985 1_455 S
C546 C547 1.363 1_565 S
C546 C552 1.379 1_565 S
C546 N554 1.356 . S
C547 C546 1.363 1_545 S
C547 C553 1.363 . S
C548 C549 1.363 . S
C548 C553 1.379 . S
C548 N555 1.356 . S
C549 C548 1.363 . S
C549 C552 1.363 . S
N550 C552 1.356 . S
N550 H562 0.984 1_545 S
N550 H563 0.985 . S
N551 C553 1.356 . S
N551 H556 0.984 . S
N551 H557 0.985 . S
C552 C546 1.379 1_545 S
C552 C549 1.363 . S
C552 N550 1.356 . S
C553 C547 1.363 . S
C553 C548 1.379 . S
C553 N551 1.356 . S
N554 C546 1.356 . S
N554 H560 0.984 . S
N554 H561 0.984 . S
N555 C548 1.356 . S
N555 H558 0.984 . S
N555 H559 0.985 . S
H556 N551 0.984 . S
H557 N551 0.985 . S
H558 N555 0.984 . S
H559 N555 0.985 . S
H560 N554 0.984 . S
H561 N554 0.984 . S
H562 N550 0.984 1_565 S
H563 N550 0.985 . S
C564 C565 1.363 . S
C564 C570 1.379 . S
C564 N572 1.356 . S
C565 C564 1.363 . S
C565 C571 1.363 . S
C566 C567 1.363 . S
C566 C571 1.379 . S
C566 N573 1.356 1_554 S
C567 C566 1.363 . S
C567 C570 1.363 . S
N568 C570 1.356 . S
N568 H580 0.984 . S
N568 H581 0.985 . S
N569 C571 1.356 . S
N569 H574 0.984 . S
N569 H575 0.985 1_554 S
C570 C564 1.379 . S
C570 C567 1.363 . S
C570 N568 1.356 . S
C571 C565 1.363 . S
C571 C566 1.379 . S
C571 N569 1.356 . S
N572 C564 1.356 . S
N572 H578 0.984 . S
N572 H579 0.984 . S
N573 C566 1.356 1_556 S
N573 H576 0.984 . S
N573 H577 0.985 . S
H574 N569 0.984 . S
H575 N569 0.985 1_556 S
H576 N573 0.984 . S
H577 N573 0.985 . S
H578 N572 0.984 . S
H579 N572 0.984 . S
H580 N568 0.984 . S
H581 N568 0.985 . S
C582 C583 1.363 . S
C582 C588 1.379 . S
C582 N590 1.356 . S
C583 C582 1.363 . S
C583 C589 1.363 . S
C584 C585 1.363 . S
C584 C589 1.379 . S
C584 N591 1.356 . S
C585 C584 1.363 . S
C585 C588 1.363 . S
N586 C588 1.356 . S
N586 H598 0.984 . S
N586 H599 0.985 . S
N587 C589 1.356 . S
N587 H592 0.984 . S
N587 H593 0.985 . S
C588 C582 1.379 . S
C588 C585 1.363 . S
C588 N586 1.356 . S
C589 C583 1.363 . S
C589 C584 1.379 . S
C589 N587 1.356 . S
N590 C582 1.356 . S
N590 H596 0.984 . S
N590 H597 0.984 . S
N591 C584 1.356 . S
N591 H594 0.984 . S
N591 H595 0.985 . S
H592 N587 0.984 . S
H593 N587 0.985 . S
H594 N591 0.984 . S
H595 N591 0.985 . S
H596 N590 0.984 . S
H597 N590 0.984 . S
H598 N586 0.984 . S
H599 N586 0.985 . S
C600 C601 1.363 1_554 S
C600 C606 1.379 . S
C600 N608 1.356 . S
C601 C600 1.363 1_556 S
C601 C607 1.363 1_455 S
C602 C603 1.363 1_655 S
C602 C607 1.379 . S
C602 N609 1.356 . S
C603 C602 1.363 1_455 S
C603 C606 1.363 1_556 S
N604 C606 1.356 . S
N604 H616 0.984 . S
N604 H617 0.985 . S
N605 C607 1.356 . S
N605 H610 0.984 . S
N605 H611 0.985 . S
C606 C600 1.379 . S
C606 C603 1.363 1_554 S
C606 N604 1.356 . S
C607 C601 1.363 1_655 S
C607 C602 1.379 . S
C607 N605 1.356 . S
N608 C600 1.356 . S
N608 H614 0.984 . S
N608 H615 0.984 . S
N609 C602 1.356 . S
N609 H612 0.984 . S
N609 H613 0.985 . S
H610 N605 0.984 . S
H611 N605 0.985 . S
H612 N609 0.984 . S
H613 N609 0.985 . S
H614 N608 0.984 . S
H615 N608 0.984 . S
H616 N604 0.984 . S
H617 N604 0.985 . S
C618 C619 1.363 1_566 S
C618 C624 1.379 . S
C618 N626 1.356 . S
C619 C618 1.363 1_544 S
C619 C625 1.363 . S
C620 C621 1.363 . S
C620 C625 1.379 . S
C620 N627 1.356 . S
C621 C620 1.363 . S
C621 C624 1.363 1_544 S
N622 C624 1.356 . S
N622 H634 0.984 . S
N622 H635 0.985 . S
N623 C625 1.356 . S
N623 H628 0.984 . S
N623 H629 0.985 . S
C624 C618 1.379 . S
C624 C621 1.363 1_566 S
C624 N622 1.356 . S
C625 C619 1.363 . S
C625 C620 1.379 . S
C625 N623 1.356 . S
N626 C618 1.356 . S
N626 H632 0.984 . S
N626 H633 0.984 . S
N627 C620 1.356 . S
N627 H630 0.984 . S
N627 H631 0.985 . S
H628 N623 0.984 . S
H629 N623 0.985 . S
H630 N627 0.984 . S
H631 N627 0.985 . S
H632 N626 0.984 . S
H633 N626 0.984 . S
H634 N622 0.984 . S
H635 N622 0.985 . S
C636 C637 1.363 . S
C636 C642 1.379 . S
C636 N644 1.356 . S
C637 C636 1.363 . S
C637 C643 1.363 . S
C638 C639 1.363 . S
C638 C643 1.379 . S
C638 N645 1.356 . S
C639 C638 1.363 . S
C639 C642 1.363 . S
N640 C642 1.356 1_556 S
N640 H652 0.984 . S
N640 H653 0.985 . S
N641 C643 1.356 . S
N641 H646 0.984 . S
N641 H647 0.985 . S
C642 C636 1.379 . S
C642 C639 1.363 . S
C642 N640 1.356 1_554 S
C643 C637 1.363 . S
C643 C638 1.379 . S
C643 N641 1.356 . S
N644 C636 1.356 . S
N644 H650 0.984 . S
N644 H651 0.984 . S
N645 C638 1.356 . S
N645 H648 0.984 . S
N645 H649 0.985 . S
H646 N641 0.984 . S
H647 N641 0.985 . S
H648 N645 0.984 . S
H649 N645 0.985 . S
H650 N644 0.984 . S
H651 N644 0.984 . S
H652 N640 0.984 . S
H653 N640 0.985 . S
C654 C655 1.363 . S
C654 C660 1.379 . S
C654 N662 1.356 . S
C655 C654 1.363 . S
C655 C661 1.363 . S
C656 C657 1.363 . S
C656 C661 1.379 . S
C656 N663 1.356 . S
C657 C656 1.363 . S
C657 C660 1.363 . S
N658 C660 1.356 . S
N658 H670 0.984 . S
N658 H671 0.985 . S
N659 C661 1.356 . S
N659 H664 0.984 . S
N659 H665 0.985 . S
C660 C654 1.379 . S
C660 C657 1.363 . S
C660 N658 1.356 . S
C661 C655 1.363 . S
C661 C656 1.379 . S
C661 N659 1.356 . S
N662 C654 1.356 . S
N662 H668 0.984 . S
N662 H669 0.984 . S
N663 C656 1.356 . S
N663 H666 0.984 . S
N663 H667 0.985 . S
H664 N659 0.984 . S
H665 N659 0.985 . S
H666 N663 0.984 . S
H667 N663 0.985 . S
H668 N662 0.984 . S
H669 N662 0.984 . S
H670 N658 0.984 . S
H671 N658 0.985 . S
C672 C673 1.363 . S
C672 C678 1.379 . S
C672 N680 1.356 . S
C673 C672 1.363 . S
C673 C679 1.363 1_655 S
C674 C675 1.363 1_455 S
C674 C679 1.379 . S
C674 N681 1.356 . S
C675 C674 1.363 1_655 S
C675 C678 1.363 . S
N676 C678 1.356 . S
N676 H688 0.984 1_556 S
N676 H689 0.985 . S
N677 C679 1.356 . S
N677 H682 0.984 . S
N677 H683 0.985 . S
C678 C672 1.379 . S
C678 C675 1.363 . S
C678 N676 1.356 . S
C679 C673 1.363 1_455 S
C679 C674 1.379 . S
C679 N677 1.356 . S
N680 C672 1.356 . S
N680 H686 0.984 1_556 S
N680 H687 0.984 . S
N681 C674 1.356 . S
N681 H684 0.984 . S
N681 H685 0.985 . S
H682 N677 0.984 . S
H683 N677 0.985 . S
H684 N681 0.984 . S
H685 N681 0.985 . S
H686 N680 0.984 1_554 S
H687 N680 0.984 . S
H688 N676 0.984 1_554 S
H689 N676 0.985 . S
C690 C691 1.363 . S
C690 C696 1.379 . S
C690 N698 1.356 . S
C691 C690 1.363 . S
C691 C697 1.363 1_565 S
C692 C693 1.363 1_545 S
C692 C697 1.379 . S
C692 N699 1.356 . S
C693 C692 1.363 1_565 S
C693 C696 1.363 . S
N694 C696 1.356 . S
N694 H706 0.984 . S
N694 H707 0.985 . S
N695 C697 1.356 . S
N695 H700 0.984 . S
N695 H701 0.985 . S
C696 C690 1.379 . S
C696 C693 1.363 . S
C696 N694 1.356 . S
C697 C691 1.363 1_545 S
C697 C692 1.379 . S
C697 N695 1.356 . S
N698 C690 1.356 . S
N698 H704 0.984 . S
N698 H705 0.984 . S
N699 C692 1.356 . S
N699 H702 0.984 . S
N699 H703 0.985 . S
H700 N695 0.984 . S
H701 N695 0.985 . S
H702 N699 0.984 . S
H703 N699 0.985 . S
H704 N698 0.984 . S
H705 N698 0.984 . S
H706 N694 0.984 . S
H707 N694 0.985 . S
C708 C709 1.363 . S
C708 C714 1.379 . S
C708 N716 1.356 . S
C709 C708 1.363 . S
C709 C715 1.363 . S
C710 C711 1.363 . S
C710 C715 1.379 . S
C710 N717 1.356 . S
C711 C710 1.363 . S
C711 C714 1.363 . S
N712 C714 1.356 . S
N712 H724 0.984 . S
N712 H725 0.985 . S
N713 C715 1.356 . S
N713 H718 0.984 . S
N713 H719 0.985 . S
C714 C708 1.379 . S
C714 C711 1.363 . S
C714 N712 1.356 . S
C715 C709 1.363 . S
C715 C710 1.379 . S
C715 N713 1.356 . S
N716 C708 1.356 . S
N716 H722 0.984 . S
N716 H723 0.984 . S
N717 C710 1.356 . S
N717 H720 0.984 . S
N717 H721 0.985 . S
H718 N713 0.984 . S
H719 N713 0.985 . S
H720 N717 0.984 . S
H721 N717 0.985 . S
H722 N716 0.984 . S
H723 N716 0.984 . S
H724 N712 0.984 . S
H725 N712 0.985 . S
C726 C727 1.363 . S
C726 C732 1.379 . S
C726 N734 1.356 . S
C727 C726 1.363 . S
C727 C733 1.363 . S
C728 C729 1.363 . S
C728 C733 1.379 . S
C728 N735 1.356 . S
C729 C728 1.363 . S
C729 C732 1.363 . S
N730 C732 1.356 . S
N730 H742 0.984 . S
N730 H743 0.985 . S
N731 C733 1.356 1_554 S
N731 H736 0.984 . S
N731 H737 0.985 . S
C732 C726 1.379 . S
C732 C729 1.363 . S
C732 N730 1.356 . S
C733 C727 1.363 . S
C733 C728 1.379 . S
C733 N731 1.356 1_556 S
N734 C726 1.356 . S
N734 H740 0.984 . S
N734 H741 0.984 . S
N735 C728 1.356 . S
N735 H738 0.984 . S
N735 H739 0.985 1_556 S
H736 N731 0.984 . S
H737 N731 0.985 . S
H738 N735 0.984 . S
H739 N735 0.985 1_554 S
H740 N734 0.984 . S
H741 N734 0.984 . S
H742 N730 0.984 . S
H743 N730 0.985 . S
C313 C125 2.144 1_545 S
C315 C154 2.187 1_545 S
C333 C194 2.066 . S
C331 C144 1.950 . S
C351 C258 2.030 . S
C349 C87 2.095 . S
C369 C274 1.944 . S
C367 C106 1.917 1_455 S
C387 C175 2.187 1_564 S
C385 C49 2.144 . S
C403 C68 2.032 . S
C405 C215 2.068 1_554 S
C421 C11 2.164 . S
C423 C249 2.029 . S
C439 C30 1.915 . S
C441 C295 1.945 1_654 S
C459 C169 0.652 . S
C457 C97 0.655 . S
C477 C209 0.978 . S
C475 C116 0.952 . S
C495 C245 1.150 . S
C493 C135 1.134 . S
C511 C78 0.907 . S
C513 C289 0.871 . S
C529 C21 0.655 . S
C531 C178 0.655 . S
C549 C218 0.978 . S
C547 C40 0.953 1_545 S
C567 C256 1.151 . S
C565 C59 1.137 . S
C583 C2 0.910 . S
C585 C298 0.871 . S
C601 C101 1.894 1_556 S
C603 C176 2.175 . S
C619 C120 2.041 1_545 S
C621 C216 2.247 1_554 S
C639 C234 1.732 . S
C637 C139 1.724 . S
C657 C296 2.657 . S
C655 C82 2.332 . S
C673 C25 1.893 . S
C675 C165 2.183 . S
C693 C205 2.248 . S
C691 C44 2.043 . S
C711 C255 1.732 . S
C709 C63 1.726 . S
C727 C6 2.334 . S
C729 C285 2.656 . S
