# Generated by pormake.
# Topology zzz, (3,6)-cn, num edge types: 1
# Building blocks:
#     Node 0, Type 0, BuildingBlock: BETDAH_clean_linker_0, # of connection points: 3
#     Node 1, Type 0, BuildingBlock: BETDAH_clean_linker_0, # of connection points: 3
#     Node 2, Type 0, BuildingBlock: BETDAH_clean_linker_0, # of connection points: 3
#     Node 3, Type 0, BuildingBlock: BETDAH_clean_linker_0, # of connection points: 3
#     Node 4, Type 0, BuildingBlock: BETDAH_clean_linker_0, # of connection points: 3
#     Node 5, Type 0, BuildingBlock: BETDAH_clean_linker_0, # of connection points: 3
#     Node 6, Type 0, BuildingBlock: BETDAH_clean_linker_0, # of connection points: 3
#     Node 7, Type 0, BuildingBlock: BETDAH_clean_linker_0, # of connection points: 3
#     Node 8, Type 1, BuildingBlock: PAMTOO_clean_sbu_0, # of connection points: 6
#     Node 9, Type 1, BuildingBlock: PAMTOO_clean_sbu_0, # of connection points: 6
#     Node 10, Type 1, BuildingBlock: PAMTOO_clean_sbu_0, # of connection points: 6
#     Node 11, Type 1, BuildingBlock: PAMTOO_clean_sbu_0, # of connection points: 6
#     Edge 12, Type (0, 1), BuildingBlock: AJUNOK_clean_linker_0, # of connection points: 2
#     Edge 13, Type (0, 1), BuildingBlock: AJUNOK_clean_linker_0, # of connection points: 2
#     Edge 14, Type (0, 1), BuildingBlock: AJUNOK_clean_linker_0, # of connection points: 2
#     Edge 15, Type (0, 1), BuildingBlock: AJUNOK_clean_linker_0, # of connection points: 2
#     Edge 16, Type (0, 1), BuildingBlock: AJUNOK_clean_linker_0, # of connection points: 2
#     Edge 17, Type (0, 1), BuildingBlock: AJUNOK_clean_linker_0, # of connection points: 2
#     Edge 18, Type (0, 1), BuildingBlock: AJUNOK_clean_linker_0, # of connection points: 2
#     Edge 19, Type (0, 1), BuildingBlock: AJUNOK_clean_linker_0, # of connection points: 2
#     Edge 20, Type (0, 1), BuildingBlock: AJUNOK_clean_linker_0, # of connection points: 2
#     Edge 21, Type (0, 1), BuildingBlock: AJUNOK_clean_linker_0, # of connection points: 2
#     Edge 22, Type (0, 1), BuildingBlock: AJUNOK_clean_linker_0, # of connection points: 2
#     Edge 23, Type (0, 1), BuildingBlock: AJUNOK_clean_linker_0, # of connection points: 2
#     Edge 24, Type (0, 1), BuildingBlock: AJUNOK_clean_linker_0, # of connection points: 2
#     Edge 25, Type (0, 1), BuildingBlock: AJUNOK_clean_linker_0, # of connection points: 2
#     Edge 26, Type (0, 1), BuildingBlock: AJUNOK_clean_linker_0, # of connection points: 2
#     Edge 27, Type (0, 1), BuildingBlock: AJUNOK_clean_linker_0, # of connection points: 2
#     Edge 28, Type (0, 1), BuildingBlock: AJUNOK_clean_linker_0, # of connection points: 2
#     Edge 29, Type (0, 1), BuildingBlock: AJUNOK_clean_linker_0, # of connection points: 2
#     Edge 30, Type (0, 1), BuildingBlock: AJUNOK_clean_linker_0, # of connection points: 2
#     Edge 31, Type (0, 1), BuildingBlock: AJUNOK_clean_linker_0, # of connection points: 2
#     Edge 32, Type (0, 1), BuildingBlock: AJUNOK_clean_linker_0, # of connection points: 2
#     Edge 33, Type (0, 1), BuildingBlock: AJUNOK_clean_linker_0, # of connection points: 2
#     Edge 34, Type (0, 1), BuildingBlock: AJUNOK_clean_linker_0, # of connection points: 2
#     Edge 35, Type (0, 1), BuildingBlock: AJUNOK_clean_linker_0, # of connection points: 2
# Relax obj value: 0.284
# Max RMSD: 0.249
# Mean RMSD: 0.132
data_MOF--net-zzz--node1-PAMTOO_clean_sbu_0--node2-BETDAH_clean_linker_0--edge1-AJUNOK_clean_linker_0
_symmetry_space_group_name_H-M    P1
_symmetry_Int_Tables_number       1
_symmetry_cell_setting            triclinic
loop_
_symmetry_equiv_pos_as_xyz
'x, y, z'
_cell_length_a     43.573655
_cell_length_b     35.999018
_cell_length_c     11.815845
_cell_angle_alpha  92.657053
_cell_angle_beta   76.615637
_cell_angle_gamma 85.31995
loop_
_atom_site_label
_atom_site_type_symbol
_atom_site_fract_x
_atom_site_fract_y
_atom_site_fract_z
_atom_type_partial_charge
H0 H 0.8812 0.44048 0.60176 0.0
H1 H 0.79609 0.47149 0.49399 0.0
H2 H 0.8242 0.54166 0.75156 0.0
C3 C 0.85942 0.45866 0.6142 0.0
C4 C 0.85444 0.49031 0.69227 0.0
C5 C 0.83837 0.4515 0.54417 0.0
C6 C 0.81187 0.47685 0.55019 0.0
C7 C 0.80683 0.50988 0.62316 0.0
C8 C 0.82803 0.51628 0.69518 0.0
N9 N 0.78156 0.53756 0.6217 0.0
C10 C 0.76184 0.53589 0.54365 0.0
H11 H 0.0723 0.8029 0.53861 0.0
H12 H 0.0499 0.70055 0.39005 0.0
H13 H 0.98973 0.75284 0.71003 0.0
C14 C 0.05836 0.77907 0.54604 0.0
C15 C 0.03113 0.78062 0.63597 0.0
C16 C 0.06499 0.7508 0.45587 0.0
C17 C 0.0452 0.72173 0.46156 0.0
C18 C 1.01851 0.72143 0.55587 0.0
C19 C 1.01134 0.75143 0.64195 0.0
N20 N 0.99735 0.69297 0.56195 0.0
C21 C 0.99945 0.66525 0.47317 0.0
H22 H 0.69243 0.04182 0.41918 0.0
H23 H 0.79195 0.0415 0.26641 0.0
H24 H 0.75934 0.97955 0.57048 0.0
C25 C 0.71677 0.03291 0.42059 0.0
C26 C 0.72241 0.00936 0.50526 0.0
C27 C 0.74151 0.04462 0.3357 0.0
C28 C 0.7731 0.03267 0.33375 0.0
C29 C 0.78005 0.00929 0.41893 0.0
C30 C 0.75438 0.99778 0.50525 0.0
N31 N 0.81217 0.99673 0.41968 0.0
C32 C 0.83997 1.00414 0.33867 0.0
H33 H 0.51745 0.64695 0.36419 0.0
H34 H 0.52275 0.75164 0.20365 0.0
H35 H 0.5433 0.74153 0.5432 0.0
C36 C 0.52148 0.67633 0.36826 0.0
C37 C 0.53076 0.69134 0.46427 0.0
C38 C 0.51863 0.69763 0.27481 0.0
C39 C 0.52441 0.7355 0.27746 0.0
C40 C 0.53297 0.75192 0.37541 0.0
C41 C 0.53643 0.72938 0.46824 0.0
N42 N 0.53867 0.79045 0.38357 0.0
C43 C 0.53613 0.81712 0.30229 0.0
H44 H 0.1741 0.59126 0.16641 0.0
H45 H 0.26144 0.56992 0.26903 0.0
H46 H 0.23817 0.49588 0.00954 0.0
C47 C 0.19706 0.5754 0.15256 0.0
C48 C 0.20417 0.5439 0.07339 0.0
C49 C 0.21765 0.58505 0.22206 0.0
C50 C 0.24597 0.56265 0.21341 0.0
C51 C 0.25344 0.5301 0.13801 0.0
C52 C 0.23258 0.52103 0.06721 0.0
N53 N 0.28096 0.50546 0.13586 0.0
C54 C 0.29923 0.50797 0.2186 0.0
H55 H 0.98067 0.20835 0.27443 0.0
H56 H 1.00399 0.31138 0.41531 0.0
H57 H 0.06117 0.25928 0.08852 0.0
C58 C 0.99492 0.23191 0.26508 0.0
C59 C 1.02083 0.23086 0.16989 0.0
C60 C 0.98851 0.26079 0.35319 0.0
C61 C 1.00849 0.28967 0.34532 0.0
C62 C 0.03461 0.28967 0.24848 0.0
C63 C 0.04077 0.25993 0.16146 0.0
N64 N 0.05557 0.31837 0.23799 0.0
C65 C 0.05432 0.34635 0.32508 0.0
H66 H 0.36514 0.96239 0.34992 0.0
H67 H 0.26596 0.96583 0.51401 0.0
H68 H 0.29804 0.03145 0.21833 0.0
C69 C 0.34078 0.97243 0.35224 0.0
C70 C 0.33502 0.99815 0.27334 0.0
C71 C 0.31627 0.96081 0.43834 0.0
C72 C 0.28466 0.97442 0.44557 0.0
C73 C 0.27756 0.99949 0.36477 0.0
C74 C 0.30307 0.01141 0.27876 0.0
N75 N 0.24554 0.01391 0.36881 0.0
C76 C 0.21743 1.00589 0.44702 0.0
H77 H 0.54188 0.36646 0.38726 0.0
H78 H 0.54438 0.26168 0.54799 0.0
H79 H 0.50067 0.27453 0.25686 0.0
C80 C 0.53706 0.33734 0.38995 0.0
C81 C 0.52037 0.32327 0.31308 0.0
C82 C 0.54605 0.3156 0.47411 0.0
C83 C 0.53837 0.27825 0.48063 0.0
C84 C 0.52207 0.263 0.40162 0.0
C85 C 0.51326 0.28584 0.31759 0.0
N86 N 0.51348 0.22546 0.40448 0.0
C87 C 0.51839 0.19888 0.48326 0.0
Dy88 Dy 1.01109 0.02032 0.77649 0.0
Dy89 Dy 0.04304 0.99495 0.98811 0.0
C90 C 0.08746 1.00157 0.73147 0.0
O91 O 1.02259 0.95874 0.7389 0.0
O92 O 0.0273 0.94237 0.9201 0.0
O93 O 1.01293 0.04882 0.61859 0.0
O94 O 0.97133 0.02189 0.69522 0.0
O95 O 0.99184 0.01409 0.07778 0.0
O96 O 0.97053 1.00673 0.91969 0.0
O97 O 0.04756 0.05651 0.98334 0.0
O98 O 1.00822 0.07251 0.8906 0.0
O99 O 0.04012 0.97047 0.15316 0.0
O100 O 0.08414 0.98988 0.06167 0.0
C101 C 1.02353 0.93354 0.81537 0.0
O102 O 0.06385 0.02188 0.70502 0.0
O103 O 0.0826 0.98297 0.82627 0.0
C104 C 0.96405 0.07947 0.61322 0.0
C105 C 0.94083 0.15379 0.59859 0.0
C106 C 0.93895 0.1393 0.70774 0.0
C107 C 0.95058 0.10233 0.71521 0.0
C108 C 0.96307 0.09278 0.50461 0.0
C109 C 0.95147 0.12969 0.49727 0.0
C110 C 0.98354 0.04464 0.61845 0.0
C111 C 0.96693 0.01117 0.0332 0.0
C112 C 0.02835 0.08191 0.95179 0.0
C113 C 0.08664 0.93331 0.15205 0.0
C114 C 0.10604 0.85835 0.1785 0.0
C115 C 0.10145 0.86932 0.07061 0.0
C116 C 0.09188 0.90657 0.05744 0.0
C117 C 0.09328 0.92308 0.25717 0.0
C118 C 0.10294 0.88589 0.27035 0.0
C119 C 0.07045 0.97022 0.14536 0.0
H120 H 0.93046 0.15733 0.78633 0.0
H121 H 0.951 0.0924 0.80005 0.0
H122 H 0.97344 0.07557 0.42509 0.0
H123 H 0.95365 0.14033 0.41172 0.0
H124 H 0.10334 0.84872 0.99892 0.0
H125 H 0.08677 0.91409 0.97551 0.0
H126 H 0.08914 0.94332 0.33118 0.0
H127 H 0.1054 0.87827 0.35564 0.0
Dy128 Dy 0.5207 0.98029 0.78594 0.0
Dy129 Dy 0.53551 0.03492 0.98941 0.0
C130 C 0.52319 0.06806 0.75644 0.0
O131 O 0.57438 0.97409 0.74775 0.0
O132 O 0.58222 0.02528 0.85702 0.0
O133 O 0.50245 0.97411 0.63223 0.0
O134 O 0.52044 0.92515 0.70476 0.0
O135 O 0.54675 0.97638 0.03845 0.0
O136 O 0.51559 0.94587 0.94173 0.0
O137 O 0.48421 0.02568 0.06013 0.0
O138 O 0.47214 1.0035 0.89185 0.0
O139 O 0.54838 0.04485 0.15374 0.0
O140 O 0.5408 0.09101 0.05019 0.0
C141 C 0.59336 0.99769 0.77726 0.0
O142 O 0.53138 0.03449 0.70443 0.0
O143 O 0.51656 0.07271 0.87051 0.0
C144 C 0.47461 0.92166 0.63152 0.0
C145 C 0.41227 0.9082 0.62438 0.0
C146 C 0.42 0.91557 0.73178 0.0
C147 C 0.45097 0.92225 0.73531 0.0
C148 C 0.46756 0.91168 0.52526 0.0
C149 C 0.43667 0.90498 0.52159 0.0
C150 C 0.50447 0.93779 0.63163 0.0
C151 C 0.5319 0.94689 0.02214 0.0
C152 C 0.46321 0.01603 0.00239 0.0
C153 C 0.58351 0.0913 0.14073 0.0
C154 C 0.64667 0.0994 0.1489 0.0
C155 C 0.63826 0.09722 0.04128 0.0
C156 C 0.6069 0.09311 0.03721 0.0
C157 C 0.59143 0.09613 0.24827 0.0
C158 C 0.62273 0.10025 0.25239 0.0
C159 C 0.55215 0.07983 0.13671 0.0
H160 H 0.40172 0.91852 0.81212 0.0
H161 H 0.45597 0.93024 0.81825 0.0
H162 H 0.48536 0.91168 0.44426 0.0
H163 H 0.43147 0.90046 0.437 0.0
H164 H 0.65616 0.09674 0.96039 0.0
H165 H 0.60129 0.08949 0.95299 0.0
H166 H 0.57381 0.09462 0.32892 0.0
H167 H 0.62857 0.10139 0.3367 0.0
Dy168 Dy 0.56124 0.50968 0.92264 0.0
Dy169 Dy 0.48782 0.5041 0.86325 0.0
C170 C 0.51405 0.44987 0.03622 0.0
O171 O 0.57096 0.46106 0.78802 0.0
O172 O 0.5192 0.45426 0.7762 0.0
O173 O 0.57851 0.51398 0.07626 0.0
O174 O 0.61221 0.51658 0.90762 0.0
O175 O 0.51377 0.54019 0.73034 0.0
O176 O 0.55659 0.55594 0.80291 0.0
O177 O 0.48681 0.56197 0.94199 0.0
O178 O 0.52078 0.54172 0.04873 0.0
O179 O 0.46262 0.4783 0.75021 0.0
O180 O 0.43623 0.51578 0.89541 0.0
C181 C 0.54945 0.44241 0.75355 0.0
O182 O 0.54316 0.45693 0.9889 0.0
O183 O 0.48914 0.47132 0.02245 0.0
C184 C 0.63219 0.51947 0.09062 0.0
C185 C 0.67623 0.52687 0.2328 0.0
C186 C 0.64639 0.51444 0.27805 0.0
C187 C 0.62474 0.51091 0.20839 0.0
C188 C 0.66235 0.53098 0.04366 0.0
C189 C 0.68421 0.53453 0.11403 0.0
C190 C 0.60768 0.517 0.02147 0.0
C191 C 0.53653 0.56191 0.73564 0.0
C192 C 0.50316 0.56889 0.01889 0.0
C193 C 0.41394 0.5072 0.72679 0.0
C194 C 0.37441 0.51324 0.5667 0.0
C195 C 0.40684 0.51842 0.53161 0.0
C196 C 0.4264 0.51538 0.61063 0.0
C197 C 0.38125 0.50429 0.76359 0.0
C198 C 0.36169 0.50745 0.68475 0.0
C199 C 0.43501 0.49488 0.80323 0.0
H200 H 0.63973 0.50721 0.36786 0.0
H201 H 0.60194 0.50149 0.24766 0.0
H202 H 0.66885 0.53774 0.95337 0.0
H203 H 0.7071 0.54396 0.07624 0.0
H204 H 0.41743 0.523 0.44157 0.0
H205 H 0.45155 0.51756 0.57929 0.0
H206 H 0.37104 0.49777 0.85223 0.0
H207 H 0.33668 0.50431 0.7156 0.0
Dy208 Dy 0.03272 0.54407 0.80226 0.0
Dy209 Dy 0.02735 0.4726 0.9671 0.0
C210 C 0.04655 0.46032 0.69601 0.0
O211 O 0.98064 0.53833 0.85511 0.0
O212 O 0.98299 0.47706 0.89949 0.0
O213 O 0.04771 0.56449 0.63202 0.0
O214 O 1.02222 0.60256 0.77704 0.0
O215 O 1.00602 0.52323 0.08739 0.0
O216 O 0.03248 0.56717 0.98032 0.0
O217 O 0.07407 0.49213 0.97754 0.0
O218 O 0.0825 0.53033 0.8235 0.0
O219 O 1.01958 0.44692 0.13229 0.0
O220 O 0.03001 0.41258 0.97117 0.0
C221 C 0.96749 0.50681 0.87102 0.0
O222 O 0.03098 0.49261 0.69042 0.0
O223 O 0.05643 0.45324 0.78987 0.0
C224 C 0.06183 0.62554 0.63021 0.0
C225 C 0.11954 0.65469 0.53923 0.0
C226 C 0.09995 0.64477 0.46553 0.0
C227 C 0.07154 0.62995 0.51068 0.0
C228 C 0.07891 0.64046 0.70607 0.0
C229 C 0.10752 0.65549 0.66056 0.0
C230 C 0.03813 0.59919 0.6684 0.0
C231 C 1.01631 0.55666 0.07967 0.0
C232 C 0.09223 0.5129 0.90681 0.0
C233 C 0.9932 0.39237 0.13094 0.0
C234 C 0.93254 0.37196 0.23086 0.0
C235 C 0.95361 0.37941 0.30125 0.0
C236 C 0.98363 0.38971 0.25156 0.0
C237 C 0.97404 0.37945 0.05931 0.0
C238 C 0.94396 0.36888 0.10926 0.0
C239 C 1.0205 0.41339 0.08407 0.0
H240 H 0.10834 0.64378 0.37156 0.0
H241 H 0.05893 0.61831 0.45065 0.0
H242 H 0.07173 0.63754 0.79906 0.0
H243 H 0.12184 0.66386 0.71918 0.0
H244 H 0.94566 0.38185 0.39545 0.0
H245 H 0.99804 0.39905 0.30845 0.0
H246 H 0.98108 0.38035 0.96543 0.0
H247 H 0.92844 0.36219 0.05329 0.0
C248 C 0.17896 0.99258 0.63248 0.0
C249 C 0.18494 1.00255 0.51606 0.0
C250 C 0.1476 0.99144 0.70016 0.0
C251 C 0.12072 1.00069 0.65509 0.0
H252 H 0.19862 0.98602 0.67218 0.0
H253 H 0.14443 0.98408 0.7897 0.0
S254 S 0.12383 0.02643 0.35175 0.0
N255 N 0.16145 0.02012 0.35695 0.0
N256 N 0.10308 0.01844 0.48266 0.0
C257 C 0.12665 0.01004 0.53771 0.0
C258 C 0.15851 0.01085 0.46887 0.0
C259 C 0.52762 0.16843 0.66063 0.0
C260 C 0.52011 0.16606 0.55117 0.0
C261 C 0.52831 0.13677 0.72686 0.0
C262 C 0.52188 0.10142 0.68552 0.0
H263 H 0.53284 0.19492 0.69562 0.0
H264 H 0.53429 0.13992 0.81059 0.0
S265 S 0.49869 0.08145 0.40742 0.0
N266 N 0.50452 0.12623 0.40709 0.0
N267 N 0.50637 0.06694 0.5294 0.0
C268 C 0.51418 0.099 0.57622 0.0
C269 C 0.51312 0.13125 0.50979 0.0
C270 C 0.33714 0.53821 0.31294 0.0
C271 C 0.3176 0.50934 0.30691 0.0
C272 C 0.35531 0.53946 0.39727 0.0
C273 C 0.35439 0.51202 0.47924 0.0
H274 H 0.33847 0.55991 0.25189 0.0
H275 H 0.37003 0.56222 0.39881 0.0
S276 S 0.30765 0.42977 0.49553 0.0
N277 N 0.29874 0.45241 0.38721 0.0
N278 N 0.33285 0.45431 0.54463 0.0
C279 C 0.33489 0.48294 0.47306 0.0
C280 C 0.31653 0.48172 0.38716 0.0
C281 C 0.05159 0.41267 0.39642 0.0
C282 C 0.05347 0.37458 0.41755 0.0
C283 C 0.04968 0.44029 0.48666 0.0
C284 C 0.05038 0.43066 0.60041 0.0
H285 H 0.05121 0.42122 0.31001 0.0
H286 H 0.04767 0.46937 0.46709 0.0
S287 S 0.05523 0.33417 0.69851 0.0
N288 N 0.05575 0.32833 0.55859 0.0
N289 N 0.05313 0.37975 0.72765 0.0
C290 C 0.05286 0.39239 0.62131 0.0
C291 C 0.05419 0.36446 0.52989 0.0
C292 C 0.89875 1.00648 0.30618 0.0
C293 C 0.87129 1.00827 0.26186 0.0
C294 C 0.92931 1.00823 0.23301 0.0
C295 C 0.93393 0.01158 0.11161 0.0
H296 H 0.89667 1.0032 0.39825 0.0
H297 H 0.94953 1.00621 0.27192 0.0
S298 S 0.86915 0.01935 0.95354 0.0
N299 N 0.8505 0.01492 0.09011 0.0
N300 N 0.90717 0.01829 0.95278 0.0
C301 C 0.90631 0.01415 0.06716 0.0
C302 C 0.87529 0.01245 0.14196 0.0
C303 C 0.52333 0.84827 0.13137 0.0
C304 C 0.5353 0.84955 0.23202 0.0
C305 C 0.52234 0.87974 0.06455 0.0
C306 C 0.5334 0.91383 0.09523 0.0
H307 H 0.51462 0.82282 0.10404 0.0
H308 H 0.51291 0.87716 0.98772 0.0
S309 S 0.56605 0.93148 0.35493 0.0
N310 N 0.55776 0.88754 0.36121 0.0
N311 N 0.55606 0.94638 0.23707 0.0
C312 C 0.54528 0.91522 0.19669 0.0
C313 C 0.54618 0.88322 0.26454 0.0
C314 C 0.75094 0.51711 0.35222 0.0
C315 C 0.74064 0.53496 0.46473 0.0
C316 C 0.73034 0.51547 0.27624 0.0
C317 C 0.69865 0.53143 0.31046 0.0
H318 H 0.77497 0.50403 0.32307 0.0
H319 H 0.73905 0.50077 0.1913 0.0
S320 S 0.66116 0.58365 0.59415 0.0
N321 N 0.69749 0.57029 0.605 0.0
N322 N 0.65889 0.56766 0.46331 0.0
C323 C 0.6885 0.55013 0.42226 0.0
C324 C 0.70947 0.55177 0.49906 0.0
C325 C 1.01234 0.64767 0.26262 0.0
C326 C 1.00223 0.63754 0.37733 0.0
C327 C 1.01632 0.62135 0.16783 0.0
C328 C 1.01031 0.58374 0.18385 0.0
H329 H 1.01745 0.67614 0.24581 0.0
H330 H 1.02432 0.63075 0.08105 0.0
S331 S 0.98357 0.5434 0.47016 0.0
N332 N 0.98626 0.58789 0.50394 0.0
N333 N 0.9938 0.53806 0.32622 0.0
C334 C 0.99993 0.57341 0.29923 0.0
C335 C 0.99591 0.6004 0.39587 0.0
C336 C 0.97684 0.24294 0.55521 0.0
C337 C 0.9648 0.25475 0.46096 0.0
C338 C 0.96471 0.21298 0.61722 0.0
C339 C 0.94025 0.19454 0.58631 0.0
H340 H 0.999 0.25211 0.56751 0.0
H341 H 0.97775 0.20075 0.67629 0.0
S342 S 0.89271 0.22583 0.38058 0.0
N343 N 0.92071 0.25474 0.36764 0.0
N344 N 0.89848 0.19752 0.48145 0.0
C345 C 0.9238 0.21159 0.51068 0.0
C346 C 0.93572 0.24257 0.4497 0.0
C347 C 0.33322 0.95713 0.62172 0.0
C348 C 0.32621 0.93785 0.52608 0.0
C349 C 0.35918 0.94439 0.66549 0.0
C350 C 0.3787 0.91187 0.61512 0.0
H351 H 0.32169 0.98487 0.65107 0.0
H352 H 0.36622 0.96264 0.72853 0.0
S353 S 0.36361 0.84561 0.3893 0.0
N354 N 0.33578 0.88061 0.40167 0.0
N355 N 0.38417 0.856 0.48575 0.0
C356 C 0.36839 0.88919 0.53391 0.0
C357 C 0.34204 0.90227 0.48933 0.0
C358 C 0.58103 0.36064 0.53392 0.0
C359 C 0.5572 0.33609 0.56639 0.0
C360 C 0.58098 0.39395 0.60146 0.0
C361 C 0.55704 0.40344 0.70289 0.0
H362 H 0.59733 0.35637 0.44894 0.0
H363 H 0.59754 0.41392 0.56787 0.0
S364 S 0.49397 0.34457 0.83811 0.0
N365 N 0.51323 0.32024 0.71726 0.0
N366 N 0.5123 0.38275 0.84205 0.0
C367 C 0.53585 0.37668 0.74336 0.0
C368 C 0.53634 0.34275 0.67608 0.0
C369 C 0.19047 0.64796 0.29544 0.0
C370 C 0.20558 0.61406 0.31856 0.0
C371 C 0.16516 0.66667 0.37922 0.0
C372 C 0.15416 0.65162 0.48744 0.0
H373 H 0.19524 0.65714 0.20752 0.0
H374 H 0.15116 0.68941 0.35252 0.0
S375 S 0.193 0.57071 0.6017 0.0
N376 N 0.21362 0.57207 0.46623 0.0
N377 N 0.16587 0.60669 0.62296 0.0
C378 C 0.17325 0.62216 0.51855 0.0
C379 C 0.1991 0.6033 0.43359 0.0
C380 C 0.07201 0.76863 0.25408 0.0
C381 C 0.0864 0.7592 0.34512 0.0
C382 C 0.08187 0.79809 0.18534 0.0
C383 C 0.10663 0.81843 0.20509 0.0
H384 H 0.04993 0.75766 0.24843 0.0
H385 H 0.06718 0.80811 0.12853 0.0
S386 S 0.15972 0.79386 0.39921 0.0
N387 N 0.13229 0.76425 0.42645 0.0
N388 N 0.15121 0.81945 0.29602 0.0
C389 C 0.12519 0.80389 0.2783 0.0
C390 C 0.11515 0.77386 0.34798 0.0
C391 C 0.71621 0.10276 0.2837 0.0
C392 C 0.73212 0.06719 0.2463 0.0
C393 C 0.6905 0.11603 0.23951 0.0
C394 C 0.68028 0.0942 0.15597 0.0
H395 H 0.72054 0.11782 0.35917 0.0
H396 H 0.67638 0.14137 0.2804 0.0
S397 S 0.72007 1.00402 0.0078 0.0
N398 N 0.7406 0.01436 0.10437 0.0
N399 N 0.6924 0.03914 0.02012 0.0
C400 C 0.69946 0.06166 0.10424 0.0
C401 C 0.7256 0.04824 0.1495 0.0
C402 C 0.48353 0.66567 0.17206 0.0
C403 C 0.51392 0.67655 0.1713 0.0
C404 C 0.47979 0.63186 0.11416 0.0
C405 C 0.5064 0.60761 0.05779 0.0
H406 H 0.46276 0.68144 0.2271 0.0
H407 H 0.45619 0.62319 0.12238 0.0
S408 S 0.5907 0.62585 0.01874 0.0
N409 N 0.57056 0.66304 0.09626 0.0
N410 N 0.56385 0.59876 0.994 0.0
C411 C 0.53668 0.61978 0.0485 0.0
C412 C 0.54034 0.65465 0.10305 0.0
C413 C 0.86129 0.38659 0.47527 0.0
C414 C 0.84862 0.42158 0.44953 0.0
C415 C 0.88577 0.3657 0.39346 0.0
C416 C 0.89815 0.37942 0.28432 0.0
H417 H 0.85545 0.37798 0.56378 0.0
H418 H 0.89798 0.34167 0.42157 0.0
S419 S 0.86562 0.46329 0.16372 0.0
N420 N 0.84422 0.46389 0.29873 0.0
N421 N 0.89036 0.42512 0.14559 0.0
C422 C 0.88135 0.4105 0.25081 0.0
C423 C 0.85639 0.4316 0.33382 0.0
C424 C 0.0527 0.17067 0.0846 0.0
C425 C 1.0269 0.1971 0.08741 0.0
C426 C 0.05352 0.13386 0.03703 0.0
C427 C 0.02853 0.12206 0.99065 0.0
H428 H 0.07132 0.17774 0.12636 0.0
H429 H 0.0734 0.11419 0.04054 0.0
S430 S 0.95631 0.18192 0.97354 0.0
N431 N 0.97677 0.20992 0.03496 0.0
N432 N 0.97783 0.14118 0.94681 0.0
C433 C 1.0034 0.14905 0.98785 0.0
C434 C 1.00274 0.18639 0.03572 0.0
C435 C 0.37524 0.99584 0.07886 0.0
C436 C 0.36383 0.01141 0.19416 0.0
C437 C 0.40673 0.99903 0.0156 0.0
C438 C 0.42855 0.01733 0.06537 0.0
H439 H 0.36034 0.97919 0.03958 0.0
H440 H 0.41441 0.98539 0.92883 0.0
S441 S 0.4096 0.06503 0.36267 0.0
N442 N 0.37635 0.04761 0.35281 0.0
N443 N 0.43492 0.05349 0.23624 0.0
C444 C 0.41678 0.03445 0.1789 0.0
C445 C 0.38475 0.03148 0.2424 0.0
C446 C 0.53587 0.35311 0.1267 0.0
C447 C 0.51234 0.34908 0.22738 0.0
C448 C 0.5353 0.38526 0.06452 0.0
C449 C 0.51078 0.41464 0.09833 0.0
H450 H 0.55624 0.33257 0.10097 0.0
H451 H 0.55496 0.3875 0.99063 0.0
S452 S 0.44258 0.41689 0.35376 0.0
N453 N 0.46338 0.37664 0.35778 0.0
N454 N 0.46142 0.43644 0.23695 0.0
C455 C 0.48599 0.40997 0.19499 0.0
C456 C 0.487 0.37739 0.26035 0.0
C457 C 0.16879 0.49836 0.01199 0.0
C458 C 0.17975 0.53415 0.00829 0.0
C459 C 0.14126 0.49119 0.97418 0.0
C460 C 0.12381 0.51932 0.92949 0.0
H461 H 0.18039 0.47633 0.05095 0.0
H462 H 0.13298 0.46367 0.98358 0.0
S463 S 0.14259 0.61757 0.90013 0.0
N464 N 0.17149 0.59758 0.95156 0.0
N465 N 0.11977 0.5843 0.88354 0.0
C466 C 0.1353 0.5547 0.92058 0.0
C467 C 0.16323 0.56202 0.95901 0.0
C468 C 0.03648 0.82707 0.79287 0.0
C469 C 1.02143 0.817 0.7043 0.0
C470 C 0.03577 0.86472 0.83242 0.0
C471 C 1.02091 0.89371 0.78195 0.0
H472 H 0.05038 0.80595 0.82699 0.0
H473 H 0.0485 0.87123 0.89831 0.0
S474 S 0.9766 0.88146 0.55173 0.0
N475 N 0.98977 0.83856 0.57218 0.0
N476 N 0.98889 0.90914 0.64409 0.0
C477 C 1.00467 0.8837 0.69677 0.0
C478 C 1.00483 0.84542 0.65859 0.0
C479 C 0.68125 0.01761 0.69682 0.0
C480 C 0.6935 0.99771 0.58805 0.0
C481 C 0.64948 0.01607 0.75927 0.0
C482 C 0.62822 0.99477 0.71579 0.0
H483 H 0.6957 0.03638 0.73061 0.0
H484 H 0.64123 0.03294 0.84057 0.0
S485 S 0.64914 0.93621 0.43645 0.0
N486 N 0.68217 0.95496 0.44167 0.0
N487 N 0.62307 0.95174 0.55784 0.0
C488 C 0.64078 0.97333 0.60958 0.0
C489 C 0.67309 0.97497 0.54623 0.0
C490 C 0.56245 0.64537 0.55763 0.0
C491 C 0.53325 0.66544 0.55745 0.0
C492 C 0.56378 0.61247 0.61819 0.0
C493 C 0.53588 0.5978 0.67701 0.0
H494 H 0.58424 0.65397 0.50531 0.0
H495 H 0.58662 0.59745 0.61399 0.0
S496 S 0.45379 0.64174 0.71105 0.0
N497 N 0.47622 0.66975 0.62898 0.0
N498 N 0.47842 0.60809 0.73946 0.0
C499 C 0.50675 0.61866 0.68144 0.0
C500 C 0.50552 0.65234 0.62253 0.0
C501 C 0.89241 0.53079 0.76126 0.0
C502 C 0.87906 0.49648 0.7602 0.0
C503 C 0.92003 0.53438 0.80253 0.0
C504 C 0.93567 0.50378 0.84404 0.0
H505 H 0.88257 0.55451 0.72377 0.0
H506 H 0.92994 0.56105 0.79679 0.0
S507 S 0.90875 0.40844 0.86788 0.0
N508 N 0.88192 0.43226 0.81503 0.0
N509 N 0.93421 0.43833 0.88651 0.0
C510 C 0.92154 0.46983 0.84881 0.0
C511 C 0.89321 0.46641 0.80875 0.0
loop_
_geom_bond_atom_site_label_1
_geom_bond_atom_site_label_2
_geom_bond_distance
_geom_bond_site_symmetry_2
_ccdc_geom_bond_type
H0 C3 0.929 . S
H1 C6 0.929 . S
H2 C8 0.930 . S
C3 H0 0.929 . S
C3 C4 1.398 . S
C3 C5 1.396 . S
C4 C3 1.398 . S
C4 C8 1.407 . S
C5 C3 1.396 . S
C5 C6 1.394 . S
C6 H1 0.929 . S
C6 C5 1.394 . S
C6 C7 1.382 . S
C7 C6 1.382 . S
C7 C8 1.392 . S
C7 N9 1.420 . S
C8 H2 0.930 . S
C8 C4 1.407 . S
C8 C7 1.392 . S
N9 C7 1.420 . S
N9 C10 1.244 . S
C10 N9 1.244 . S
H11 C14 0.929 . S
H12 C17 0.929 . S
H13 C19 0.930 . S
C14 H11 0.929 . S
C14 C15 1.391 1_655 S
C14 C16 1.398 1_655 S
C15 C14 1.391 1_455 S
C15 C19 1.410 . S
C16 C14 1.398 1_455 S
C16 C17 1.395 . S
C17 H12 0.929 . S
C17 C16 1.395 . S
C17 C18 1.382 . S
C18 C17 1.382 . S
C18 C19 1.392 . S
C18 N20 1.420 . S
C19 H13 0.930 . S
C19 C15 1.410 . S
C19 C18 1.392 . S
N20 C18 1.420 . S
N20 C21 1.226 1_455 S
C21 N20 1.226 1_655 S
H22 C25 0.929 . S
H23 C28 0.929 . S
H24 C30 0.930 . S
C25 H22 0.929 . S
C25 C26 1.398 1_565 S
C25 C27 1.392 1_565 S
C26 C25 1.398 1_545 S
C26 C30 1.407 . S
C27 C25 1.392 1_545 S
C27 C28 1.399 . S
C28 H23 0.929 . S
C28 C27 1.399 . S
C28 C29 1.382 . S
C29 C28 1.382 . S
C29 C30 1.392 . S
C29 N31 1.420 . S
C30 H24 0.930 . S
C30 C26 1.407 . S
C30 C29 1.392 . S
N31 C29 1.420 . S
N31 C32 1.235 1_545 S
C32 N31 1.235 1_565 S
H33 C36 0.929 . S
H34 C39 0.929 . S
H35 C41 0.930 . S
C36 H33 0.929 . S
C36 C37 1.398 . S
C36 C38 1.396 . S
C37 C36 1.398 . S
C37 C41 1.407 . S
C38 C36 1.396 . S
C38 C39 1.394 . S
C39 H34 0.929 . S
C39 C38 1.394 . S
C39 C40 1.382 . S
C40 C39 1.382 . S
C40 C41 1.392 . S
C40 N42 1.420 . S
C41 H35 0.930 . S
C41 C37 1.407 . S
C41 C40 1.392 . S
N42 C40 1.420 . S
N42 C43 1.244 . S
C43 N42 1.244 . S
H44 C47 0.929 . S
H45 C50 0.929 . S
H46 C52 0.930 . S
C47 H44 0.929 . S
C47 C48 1.398 . S
C47 C49 1.396 1_556 S
C48 C47 1.398 . S
C48 C52 1.407 . S
C49 C47 1.396 1_554 S
C49 C50 1.394 . S
C50 H45 0.929 . S
C50 C49 1.394 . S
C50 C51 1.382 1_554 S
C51 C50 1.382 1_556 S
C51 C52 1.392 . S
C51 N53 1.420 . S
C52 H46 0.930 . S
C52 C48 1.407 . S
C52 C51 1.392 . S
N53 C51 1.420 . S
N53 C54 1.244 1_556 S
C54 N53 1.244 1_554 S
H55 C58 0.929 . S
H56 C61 0.929 . S
H57 C63 0.930 1_556 S
C58 H55 0.929 . S
C58 C59 1.398 1_655 S
C58 C60 1.388 1_655 S
C59 C58 1.398 1_455 S
C59 C63 1.407 . S
C60 C58 1.388 1_455 S
C60 C61 1.401 . S
C61 H56 0.929 . S
C61 C60 1.401 . S
C61 C62 1.382 . S
C62 C61 1.382 . S
C62 C63 1.392 . S
C62 N64 1.420 . S
C63 H57 0.930 1_554 S
C63 C59 1.407 . S
C63 C62 1.392 . S
N64 C62 1.420 . S
N64 C65 1.240 1_455 S
C65 N64 1.240 1_655 S
H66 C69 0.929 . S
H67 C72 0.929 . S
H68 C74 0.930 . S
C69 H66 0.929 . S
C69 C70 1.398 1_565 S
C69 C71 1.397 1_565 S
C70 C69 1.398 1_545 S
C70 C74 1.407 . S
C71 C69 1.397 1_545 S
C71 C72 1.396 . S
C72 H67 0.929 . S
C72 C71 1.396 . S
C72 C73 1.382 . S
C73 C72 1.382 . S
C73 C74 1.392 . S
C73 N75 1.420 . S
C74 H68 0.930 . S
C74 C70 1.407 . S
C74 C73 1.392 . S
N75 C73 1.420 . S
N75 C76 1.233 1_545 S
C76 N75 1.233 1_565 S
H77 C80 0.929 . S
H78 C83 0.929 . S
H79 C85 0.930 . S
C80 H77 0.929 . S
C80 C81 1.398 . S
C80 C82 1.396 . S
C81 C80 1.398 . S
C81 C85 1.407 . S
C82 C80 1.396 . S
C82 C83 1.394 . S
C83 H78 0.929 . S
C83 C82 1.394 . S
C83 C84 1.382 . S
C84 C83 1.382 . S
C84 C85 1.392 . S
C84 N86 1.420 . S
C85 H79 0.930 . S
C85 C81 1.407 . S
C85 C84 1.392 . S
N86 C84 1.420 . S
N86 C87 1.244 . S
C87 N86 1.244 . S
Dy88 O91 2.307 1_545 S
Dy88 O93 2.395 1_655 S
Dy88 O94 2.379 . S
Dy88 O96 2.339 . S
Dy88 O98 2.298 . S
Dy88 O102 2.275 1_655 S
Dy88 C110 2.738 . S
Dy89 O92 2.298 1_554 S
Dy89 O95 2.275 1_454 S
Dy89 O97 2.307 1_565 S
Dy89 O99 2.395 1_455 S
Dy89 O100 2.379 . S
Dy89 O103 2.339 1_554 S
Dy89 C119 2.738 . S
C90 O102 1.254 1_565 S
C90 O103 1.257 . S
O91 Dy88 2.307 1_565 S
O91 C101 1.266 . S
O92 Dy89 2.298 1_556 S
O92 C101 1.236 1_455 S
O93 Dy88 2.395 1_455 S
O93 C110 1.255 1_455 S
O94 Dy88 2.379 . S
O94 C110 1.249 . S
O95 Dy89 2.275 1_656 S
O95 C111 1.254 1_565 S
O96 Dy88 2.339 . S
O96 C111 1.257 . S
O97 Dy89 2.307 1_545 S
O97 C112 1.266 1_554 S
O98 Dy88 2.298 . S
O98 C112 1.236 1_655 S
O99 Dy89 2.395 1_655 S
O99 C119 1.255 1_655 S
O100 Dy89 2.379 . S
O100 C119 1.249 . S
C101 O91 1.266 . S
C101 O92 1.236 1_655 S
O102 Dy88 2.275 1_455 S
O102 C90 1.254 1_545 S
O103 Dy89 2.339 1_556 S
O103 C90 1.257 . S
C104 C107 1.344 1_655 S
C104 C108 1.328 . S
C104 C110 1.516 . S
C105 C106 1.304 1_655 S
C105 C109 1.323 . S
C106 C105 1.304 1_455 S
C106 C107 1.371 . S
C106 H120 0.930 . S
C107 C104 1.344 1_455 S
C107 C106 1.371 . S
C107 H121 0.931 . S
C108 C104 1.328 . S
C108 C109 1.433 . S
C108 H122 0.931 . S
C109 C105 1.323 . S
C109 C108 1.433 . S
C109 H123 0.933 . S
C110 Dy88 2.738 . S
C110 O93 1.255 1_655 S
C110 O94 1.249 . S
C110 C104 1.516 . S
C111 O95 1.254 1_545 S
C111 O96 1.257 . S
C112 O97 1.266 1_556 S
C112 O98 1.236 1_455 S
C113 C116 1.344 1_455 S
C113 C117 1.328 . S
C113 C119 1.516 . S
C114 C115 1.304 1_455 S
C114 C118 1.323 . S
C115 C114 1.304 1_655 S
C115 C116 1.371 . S
C115 H124 0.930 . S
C116 C113 1.344 1_655 S
C116 C115 1.371 . S
C116 H125 0.931 . S
C117 C113 1.328 . S
C117 C118 1.433 . S
C117 H126 0.931 . S
C118 C114 1.323 . S
C118 C117 1.433 . S
C118 H127 0.933 . S
C119 Dy89 2.738 . S
C119 O99 1.255 1_455 S
C119 O100 1.249 . S
C119 C113 1.516 . S
H120 C106 0.930 . S
H121 C107 0.931 . S
H122 C108 0.931 . S
H123 C109 0.933 . S
H124 C115 0.930 . S
H125 C116 0.931 . S
H126 C117 0.931 . S
H127 C118 0.933 . S
Dy128 O131 2.307 . S
Dy128 O133 2.395 1_565 S
Dy128 O134 2.379 . S
Dy128 O136 2.339 . S
Dy128 O138 2.298 . S
Dy128 O142 2.275 1_565 S
Dy128 C150 2.738 . S
Dy129 O132 2.298 1_554 S
Dy129 O135 2.275 1_544 S
Dy129 O137 2.307 . S
Dy129 O139 2.395 1_545 S
Dy129 O140 2.379 . S
Dy129 O143 2.339 1_554 S
Dy129 C159 2.738 . S
C130 O142 1.254 . S
C130 O143 1.257 . S
O131 Dy128 2.307 . S
O131 C141 1.266 . S
O132 Dy129 2.298 1_556 S
O132 C141 1.236 1_545 S
O133 Dy128 2.395 1_545 S
O133 C150 1.255 1_545 S
O134 Dy128 2.379 . S
O134 C150 1.249 . S
O135 Dy129 2.275 1_566 S
O135 C151 1.254 . S
O136 Dy128 2.339 . S
O136 C151 1.257 . S
O137 Dy129 2.307 . S
O137 C152 1.266 1_554 S
O138 Dy128 2.298 . S
O138 C152 1.236 1_565 S
O139 Dy129 2.395 1_565 S
O139 C159 1.255 1_565 S
O140 Dy129 2.379 . S
O140 C159 1.249 . S
C141 O131 1.266 . S
C141 O132 1.236 1_565 S
O142 Dy128 2.275 1_545 S
O142 C130 1.254 . S
O143 Dy129 2.339 1_556 S
O143 C130 1.257 . S
C144 C147 1.336 1_565 S
C144 C148 1.328 . S
C144 C150 1.516 . S
C145 C146 1.304 . S
C145 C149 1.323 . S
C146 C145 1.304 . S
C146 C147 1.370 1_565 S
C146 H160 0.930 1_565 S
C147 C144 1.336 1_545 S
C147 C146 1.370 1_545 S
C147 H161 0.940 . S
C148 C144 1.328 . S
C148 C149 1.433 . S
C148 H162 0.931 . S
C149 C145 1.323 . S
C149 C148 1.433 . S
C149 H163 0.933 . S
C150 Dy128 2.738 . S
C150 O133 1.255 1_565 S
C150 O134 1.249 . S
C150 C144 1.516 . S
C151 O135 1.254 . S
C151 O136 1.257 . S
C152 O137 1.266 1_556 S
C152 O138 1.236 1_545 S
C153 C156 1.342 1_545 S
C153 C157 1.328 . S
C153 C159 1.516 . S
C154 C155 1.304 . S
C154 C158 1.323 . S
C155 C154 1.304 . S
C155 C156 1.371 1_545 S
C155 H164 0.930 1_545 S
C156 C153 1.342 1_565 S
C156 C155 1.371 1_565 S
C156 H165 0.934 . S
C157 C153 1.328 . S
C157 C158 1.433 . S
C157 H166 0.931 . S
C158 C154 1.323 . S
C158 C157 1.433 . S
C158 H167 0.933 . S
C159 Dy129 2.738 . S
C159 O139 1.255 1_545 S
C159 O140 1.249 . S
C159 C153 1.516 . S
H160 C146 0.930 1_545 S
H161 C147 0.940 . S
H162 C148 0.931 . S
H163 C149 0.933 . S
H164 C155 0.930 1_565 S
H165 C156 0.934 . S
H166 C157 0.931 . S
H167 C158 0.933 . S
Dy168 O171 2.307 . S
Dy168 O173 2.395 1_556 S
Dy168 O174 2.379 . S
Dy168 O176 2.339 . S
Dy168 O178 2.298 . S
Dy168 O182 2.275 . S
Dy168 C190 2.738 1_556 S
Dy169 O172 2.298 . S
Dy169 O175 2.275 . S
Dy169 O177 2.307 1_556 S
Dy169 O179 2.395 . S
Dy169 O180 2.379 . S
Dy169 O183 2.339 1_556 S
Dy169 C199 2.738 . S
C170 O182 1.254 1_554 S
C170 O183 1.257 . S
O171 Dy168 2.307 . S
O171 C181 1.266 . S
O172 Dy169 2.298 . S
O172 C181 1.236 . S
O173 Dy168 2.395 1_554 S
O173 C190 1.255 . S
O174 Dy168 2.379 . S
O174 C190 1.249 1_556 S
O175 Dy169 2.275 . S
O175 C191 1.254 . S
O176 Dy168 2.339 . S
O176 C191 1.257 . S
O177 Dy169 2.307 1_554 S
O177 C192 1.266 . S
O178 Dy168 2.298 . S
O178 C192 1.236 1_556 S
O179 Dy169 2.395 . S
O179 C199 1.255 . S
O180 Dy169 2.379 . S
O180 C199 1.249 . S
C181 O171 1.266 . S
C181 O172 1.236 . S
O182 Dy168 2.275 . S
O182 C170 1.254 1_556 S
O183 Dy169 2.339 1_554 S
O183 C170 1.257 . S
C184 C187 1.344 . S
C184 C188 1.328 . S
C184 C190 1.516 . S
C185 C186 1.304 . S
C185 C189 1.323 . S
C186 C185 1.304 . S
C186 C187 1.371 . S
C186 H200 0.930 . S
C187 C184 1.344 . S
C187 C186 1.371 . S
C187 H201 0.931 . S
C188 C184 1.328 . S
C188 C189 1.433 . S
C188 H202 0.931 1_554 S
C189 C185 1.323 . S
C189 C188 1.433 . S
C189 H203 0.933 . S
C190 Dy168 2.738 1_554 S
C190 O173 1.255 . S
C190 O174 1.249 1_554 S
C190 C184 1.516 . S
C191 O175 1.254 . S
C191 O176 1.257 . S
C192 O177 1.266 . S
C192 O178 1.236 1_554 S
C193 C196 1.344 . S
C193 C197 1.328 . S
C193 C199 1.516 . S
C194 C195 1.304 . S
C194 C198 1.323 . S
C195 C194 1.304 . S
C195 C196 1.371 . S
C195 H204 0.930 . S
C196 C193 1.344 . S
C196 C195 1.371 . S
C196 H205 0.931 . S
C197 C193 1.328 . S
C197 C198 1.433 . S
C197 H206 0.931 . S
C198 C194 1.323 . S
C198 C197 1.433 . S
C198 H207 0.933 . S
C199 Dy169 2.738 . S
C199 O179 1.255 . S
C199 O180 1.249 . S
C199 C193 1.516 . S
H200 C186 0.930 . S
H201 C187 0.931 . S
H202 C188 0.931 1_556 S
H203 C189 0.933 . S
H204 C195 0.930 . S
H205 C196 0.931 . S
H206 C197 0.931 . S
H207 C198 0.933 . S
Dy208 O211 2.307 1_455 S
Dy208 O213 2.395 . S
Dy208 O214 2.379 . S
Dy208 O216 2.339 . S
Dy208 O218 2.298 . S
Dy208 O222 2.275 . S
Dy208 C230 2.738 . S
Dy209 O212 2.298 1_554 S
Dy209 O215 2.275 . S
Dy209 O217 2.307 1_654 S
Dy209 O219 2.395 . S
Dy209 O220 2.379 . S
Dy209 O223 2.339 1_554 S
Dy209 C239 2.738 . S
C210 O222 1.254 1_655 S
C210 O223 1.257 . S
O211 Dy208 2.307 1_655 S
O211 C221 1.266 . S
O212 Dy209 2.298 1_556 S
O212 C221 1.236 . S
O213 Dy208 2.395 . S
O213 C230 1.255 . S
O214 Dy208 2.379 . S
O214 C230 1.249 . S
O215 Dy209 2.275 . S
O215 C231 1.254 1_654 S
O216 Dy208 2.339 . S
O216 C231 1.257 . S
O217 Dy209 2.307 1_456 S
O217 C232 1.266 . S
O218 Dy208 2.298 . S
O218 C232 1.236 . S
O219 Dy209 2.395 . S
O219 C239 1.255 . S
O220 Dy209 2.379 . S
O220 C239 1.249 . S
C221 O211 1.266 . S
C221 O212 1.236 . S
O222 Dy208 2.275 . S
O222 C210 1.254 1_455 S
O223 Dy209 2.339 1_556 S
O223 C210 1.257 . S
C224 C227 1.344 . S
C224 C228 1.328 . S
C224 C230 1.516 . S
C225 C226 1.304 . S
C225 C229 1.323 . S
C226 C225 1.304 . S
C226 C227 1.371 . S
C226 H240 0.930 . S
C227 C224 1.344 . S
C227 C226 1.371 . S
C227 H241 0.931 . S
C228 C224 1.328 . S
C228 C229 1.433 . S
C228 H242 0.931 . S
C229 C225 1.323 . S
C229 C228 1.433 . S
C229 H243 0.933 . S
C230 Dy208 2.738 . S
C230 O213 1.255 . S
C230 O214 1.249 . S
C230 C224 1.516 . S
C231 O215 1.254 1_456 S
C231 O216 1.257 . S
C232 O217 1.266 . S
C232 O218 1.236 . S
C233 C236 1.344 . S
C233 C237 1.328 . S
C233 C239 1.516 . S
C234 C235 1.304 . S
C234 C238 1.323 . S
C235 C234 1.304 . S
C235 C236 1.371 . S
C235 H244 0.930 . S
C236 C233 1.344 . S
C236 C235 1.371 . S
C236 H245 0.931 . S
C237 C233 1.328 . S
C237 C238 1.433 . S
C237 H246 0.931 . S
C238 C234 1.323 . S
C238 C237 1.433 . S
C238 H247 0.933 . S
C239 Dy209 2.738 . S
C239 O219 1.255 . S
C239 O220 1.249 . S
C239 C233 1.516 . S
H240 C226 0.930 . S
H241 C227 0.931 . S
H242 C228 0.931 . S
H243 C229 0.933 . S
H244 C235 0.930 . S
H245 C236 0.931 . S
H246 C237 0.931 . S
H247 C238 0.933 . S
C248 C249 1.372 . S
C248 C250 1.419 . S
C248 H252 0.930 . S
C249 C248 1.372 . S
C249 C258 1.424 1_545 S
C250 C248 1.419 . S
C250 C251 1.377 . S
C250 H253 0.929 . S
C251 C250 1.377 . S
C251 C257 1.419 1_545 S
H252 C248 0.930 . S
H253 C250 0.929 . S
S254 N255 1.613 . S
S254 N256 1.610 . S
N255 S254 1.613 . S
N255 C258 1.350 . S
N256 S254 1.610 . S
N256 C257 1.351 . S
C257 C251 1.419 1_565 S
C257 N256 1.351 . S
C257 C258 1.434 . S
C258 C249 1.424 1_565 S
C258 N255 1.350 . S
C258 C257 1.434 . S
C259 C260 1.369 . S
C259 C261 1.419 . S
C259 H263 0.930 . S
C260 C259 1.369 . S
C260 C269 1.429 . S
C261 C259 1.419 . S
C261 C262 1.363 . S
C261 H264 0.929 . S
C262 C261 1.363 . S
C262 C268 1.428 . S
H263 C259 0.930 . S
H264 C261 0.929 . S
S265 N266 1.613 . S
S265 N267 1.610 . S
N266 S265 1.613 . S
N266 C269 1.350 . S
N267 S265 1.610 . S
N267 C268 1.351 . S
C268 C262 1.428 . S
C268 N267 1.351 . S
C268 C269 1.434 . S
C269 C260 1.429 . S
C269 N266 1.350 . S
C269 C268 1.434 . S
C270 C271 1.369 . S
C270 C272 1.419 . S
C270 H274 0.930 . S
C271 C270 1.369 . S
C271 C280 1.429 . S
C272 C270 1.419 . S
C272 C273 1.363 . S
C272 H275 0.929 . S
C273 C272 1.363 . S
C273 C279 1.428 . S
H274 C270 0.930 . S
H275 C272 0.929 . S
S276 N277 1.613 . S
S276 N278 1.610 . S
N277 S276 1.613 . S
N277 C280 1.350 . S
N278 S276 1.610 . S
N278 C279 1.351 . S
C279 C273 1.428 . S
C279 N278 1.351 . S
C279 C280 1.434 . S
C280 C271 1.429 . S
C280 N277 1.350 . S
C280 C279 1.434 . S
C281 C282 1.369 1_655 S
C281 C283 1.419 . S
C281 H285 0.930 . S
C282 C281 1.369 1_455 S
C282 C291 1.429 . S
C283 C281 1.419 . S
C283 C284 1.363 1_655 S
C283 H286 0.929 . S
C284 C283 1.363 1_455 S
C284 C290 1.428 . S
H285 C281 0.930 . S
H286 C283 0.929 . S
S287 N288 1.613 . S
S287 N289 1.610 . S
N288 S287 1.613 . S
N288 C291 1.350 . S
N289 S287 1.610 . S
N289 C290 1.351 . S
C290 C284 1.428 . S
C290 N289 1.351 . S
C290 C291 1.434 . S
C291 C282 1.429 . S
C291 N288 1.350 . S
C291 C290 1.434 . S
C292 C293 1.367 1_565 S
C292 C294 1.419 . S
C292 H296 0.930 . S
C293 C292 1.367 1_545 S
C293 C302 1.431 . S
C294 C292 1.419 . S
C294 C295 1.375 . S
C294 H297 0.929 . S
C295 C294 1.375 . S
C295 C301 1.418 1_565 S
H296 C292 0.930 . S
H297 C294 0.929 . S
S298 N299 1.613 . S
S298 N300 1.610 . S
N299 S298 1.613 . S
N299 C302 1.350 . S
N300 S298 1.610 . S
N300 C301 1.351 . S
C301 C295 1.418 1_545 S
C301 N300 1.351 . S
C301 C302 1.434 . S
C302 C293 1.431 . S
C302 N299 1.350 . S
C302 C301 1.434 . S
C303 C304 1.369 . S
C303 C305 1.419 1_554 S
C303 H307 0.930 . S
C304 C303 1.369 . S
C304 C313 1.429 . S
C305 C303 1.419 1_556 S
C305 C306 1.363 1_556 S
C305 H308 0.929 . S
C306 C305 1.363 1_554 S
C306 C312 1.428 . S
H307 C303 0.930 . S
H308 C305 0.929 . S
S309 N310 1.613 . S
S309 N311 1.610 . S
N310 S309 1.613 . S
N310 C313 1.350 . S
N311 S309 1.610 . S
N311 C312 1.351 . S
C312 C306 1.428 . S
C312 N311 1.351 . S
C312 C313 1.434 . S
C313 C304 1.429 . S
C313 N310 1.350 . S
C313 C312 1.434 . S
C314 C315 1.369 . S
C314 C316 1.419 . S
C314 H318 0.930 . S
C315 C314 1.369 . S
C315 C324 1.429 . S
C316 C314 1.419 . S
C316 C317 1.363 . S
C316 H319 0.929 . S
C317 C316 1.363 . S
C317 C323 1.428 . S
H318 C314 0.930 . S
H319 C316 0.929 . S
S320 N321 1.613 . S
S320 N322 1.610 . S
N321 S320 1.613 . S
N321 C324 1.350 . S
N322 S320 1.610 . S
N322 C323 1.351 . S
C323 C317 1.428 . S
C323 N322 1.351 . S
C323 C324 1.434 . S
C324 C315 1.429 . S
C324 N321 1.350 . S
C324 C323 1.434 . S
C325 C326 1.360 1_455 S
C325 C327 1.419 . S
C325 H329 0.930 . S
C326 C325 1.360 1_655 S
C326 C335 1.449 . S
C327 C325 1.419 . S
C327 C328 1.363 1_455 S
C327 H330 0.929 . S
C328 C327 1.363 1_655 S
C328 C334 1.428 . S
H329 C325 0.930 . S
H330 C327 0.929 . S
S331 N332 1.613 . S
S331 N333 1.610 . S
N332 S331 1.613 . S
N332 C335 1.350 . S
N333 S331 1.610 . S
N333 C334 1.351 . S
C334 C328 1.428 . S
C334 N333 1.351 . S
C334 C335 1.434 . S
C335 C326 1.449 . S
C335 N332 1.350 . S
C335 C334 1.434 . S
C336 C337 1.369 . S
C336 C338 1.419 1_455 S
C336 H340 0.930 . S
C337 C336 1.369 . S
C337 C346 1.429 1_455 S
C338 C336 1.419 1_655 S
C338 C339 1.363 . S
C338 H341 0.929 1_655 S
C339 C338 1.363 . S
C339 C345 1.428 . S
H340 C336 0.930 . S
H341 C338 0.929 1_455 S
S342 N343 1.613 . S
S342 N344 1.610 . S
N343 S342 1.613 . S
N343 C346 1.350 . S
N344 S342 1.610 . S
N344 C345 1.351 . S
C345 C339 1.428 . S
C345 N344 1.351 . S
C345 C346 1.434 . S
C346 C337 1.429 1_655 S
C346 N343 1.350 . S
C346 C345 1.434 . S
C347 C348 1.369 1_545 S
C347 C349 1.419 1_545 S
C347 H351 0.930 . S
C348 C347 1.369 1_565 S
C348 C357 1.429 . S
C349 C347 1.419 1_565 S
C349 C350 1.363 . S
C349 H352 0.929 . S
C350 C349 1.363 . S
C350 C356 1.428 . S
H351 C347 0.930 . S
H352 C349 0.929 . S
S353 N354 1.613 . S
S353 N355 1.610 . S
N354 S353 1.613 . S
N354 C357 1.350 . S
N355 S353 1.610 . S
N355 C356 1.351 . S
C356 C350 1.428 . S
C356 N355 1.351 . S
C356 C357 1.434 . S
C357 C348 1.429 . S
C357 N354 1.350 . S
C357 C356 1.434 . S
C358 C359 1.369 . S
C358 C360 1.419 . S
C358 H362 0.930 . S
C359 C358 1.369 . S
C359 C368 1.429 . S
C360 C358 1.419 . S
C360 C361 1.363 . S
C360 H363 0.929 . S
C361 C360 1.363 . S
C361 C367 1.428 . S
H362 C358 0.930 . S
H363 C360 0.929 . S
S364 N365 1.613 . S
S364 N366 1.610 . S
N365 S364 1.613 . S
N365 C368 1.350 . S
N366 S364 1.610 . S
N366 C367 1.351 . S
C367 C361 1.428 . S
C367 N366 1.351 . S
C367 C368 1.434 . S
C368 C359 1.429 . S
C368 N365 1.350 . S
C368 C367 1.434 . S
C369 C370 1.369 . S
C369 C371 1.419 . S
C369 H373 0.930 . S
C370 C369 1.369 . S
C370 C379 1.429 . S
C371 C369 1.419 . S
C371 C372 1.363 . S
C371 H374 0.929 . S
C372 C371 1.363 . S
C372 C378 1.428 . S
H373 C369 0.930 . S
H374 C371 0.929 . S
S375 N376 1.613 . S
S375 N377 1.610 . S
N376 S375 1.613 . S
N376 C379 1.350 . S
N377 S375 1.610 . S
N377 C378 1.351 . S
C378 C372 1.428 . S
C378 N377 1.351 . S
C378 C379 1.434 . S
C379 C370 1.429 . S
C379 N376 1.350 . S
C379 C378 1.434 . S
C380 C381 1.369 . S
C380 C382 1.419 1_655 S
C380 H384 0.930 . S
C381 C380 1.369 . S
C381 C390 1.429 1_655 S
C382 C380 1.419 1_455 S
C382 C383 1.363 . S
C382 H385 0.929 . S
C383 C382 1.363 . S
C383 C389 1.428 . S
H384 C380 0.930 . S
H385 C382 0.929 . S
S386 N387 1.613 . S
S386 N388 1.610 . S
N387 S386 1.613 . S
N387 C390 1.350 . S
N388 S386 1.610 . S
N388 C389 1.351 . S
C389 C383 1.428 . S
C389 N388 1.351 . S
C389 C390 1.434 . S
C390 C381 1.429 1_455 S
C390 N387 1.350 . S
C390 C389 1.434 . S
C391 C392 1.369 . S
C391 C393 1.419 . S
C391 H395 0.930 . S
C392 C391 1.369 . S
C392 C401 1.429 1_545 S
C393 C391 1.419 . S
C393 C394 1.363 . S
C393 H396 0.929 . S
C394 C393 1.363 . S
C394 C400 1.428 1_545 S
H395 C391 0.930 . S
H396 C393 0.929 . S
S397 N398 1.613 . S
S397 N399 1.610 . S
N398 S397 1.613 . S
N398 C401 1.350 . S
N399 S397 1.610 . S
N399 C400 1.351 . S
C400 C394 1.428 1_565 S
C400 N399 1.351 . S
C400 C401 1.434 . S
C401 C392 1.429 1_565 S
C401 N398 1.350 . S
C401 C400 1.434 . S
C402 C403 1.369 . S
C402 C404 1.419 . S
C402 H406 0.930 . S
C403 C402 1.369 . S
C403 C412 1.429 . S
C404 C402 1.419 . S
C404 C405 1.363 . S
C404 H407 0.929 . S
C405 C404 1.363 . S
C405 C411 1.428 . S
H406 C402 0.930 . S
H407 C404 0.929 . S
S408 N409 1.613 . S
S408 N410 1.610 . S
N409 S408 1.613 . S
N409 C412 1.350 1_556 S
N410 S408 1.610 . S
N410 C411 1.351 1_556 S
C411 C405 1.428 . S
C411 N410 1.351 1_554 S
C411 C412 1.434 . S
C412 C403 1.429 . S
C412 N409 1.350 1_554 S
C412 C411 1.434 . S
C413 C414 1.369 . S
C413 C415 1.419 . S
C413 H417 0.930 . S
C414 C413 1.369 . S
C414 C423 1.429 . S
C415 C413 1.419 . S
C415 C416 1.363 . S
C415 H418 0.929 . S
C416 C415 1.363 . S
C416 C422 1.428 . S
H417 C413 0.930 . S
H418 C415 0.929 . S
S419 N420 1.613 . S
S419 N421 1.610 . S
N420 S419 1.613 . S
N420 C423 1.350 . S
N421 S419 1.610 . S
N421 C422 1.351 . S
C422 C416 1.428 . S
C422 N421 1.351 . S
C422 C423 1.434 . S
C423 C414 1.429 . S
C423 N420 1.350 . S
C423 C422 1.434 . S
C424 C425 1.369 1_654 S
C424 C426 1.419 . S
C424 H428 0.930 . S
C425 C424 1.369 1_456 S
C425 C434 1.429 . S
C426 C424 1.419 . S
C426 C427 1.363 1_654 S
C426 H429 0.929 . S
C427 C426 1.363 1_456 S
C427 C433 1.428 . S
H428 C424 0.930 . S
H429 C426 0.929 . S
S430 N431 1.613 . S
S430 N432 1.610 . S
N431 S430 1.613 . S
N431 C434 1.350 . S
N432 S430 1.610 . S
N432 C433 1.351 . S
C433 C427 1.428 . S
C433 N432 1.351 . S
C433 C434 1.434 . S
C434 C425 1.429 . S
C434 N431 1.350 . S
C434 C433 1.434 . S
C435 C436 1.369 1_566 S
C435 C437 1.419 . S
C435 H439 0.930 . S
C436 C435 1.369 1_544 S
C436 C445 1.429 . S
C437 C435 1.419 . S
C437 C438 1.363 1_566 S
C437 H440 0.929 . S
C438 C437 1.363 1_544 S
C438 C444 1.428 . S
H439 C435 0.930 . S
H440 C437 0.929 . S
S441 N442 1.613 . S
S441 N443 1.610 . S
N442 S441 1.613 . S
N442 C445 1.350 . S
N443 S441 1.610 . S
N443 C444 1.351 . S
C444 C438 1.428 . S
C444 N443 1.351 . S
C444 C445 1.434 . S
C445 C436 1.429 . S
C445 N442 1.350 . S
C445 C444 1.434 . S
C446 C447 1.369 . S
C446 C448 1.419 . S
C446 H450 0.930 . S
C447 C446 1.369 . S
C447 C456 1.429 . S
C448 C446 1.419 . S
C448 C449 1.363 . S
C448 H451 0.929 . S
C449 C448 1.363 . S
C449 C455 1.428 . S
H450 C446 0.930 . S
H451 C448 0.929 . S
S452 N453 1.613 . S
S452 N454 1.610 . S
N453 S452 1.613 . S
N453 C456 1.350 . S
N454 S452 1.610 . S
N454 C455 1.351 . S
C455 C449 1.428 . S
C455 N454 1.351 . S
C455 C456 1.434 . S
C456 C447 1.429 . S
C456 N453 1.350 . S
C456 C455 1.434 . S
C457 C458 1.369 . S
C457 C459 1.419 . S
C457 H461 0.930 . S
C458 C457 1.369 . S
C458 C467 1.429 . S
C459 C457 1.419 . S
C459 C460 1.363 . S
C459 H462 0.929 . S
C460 C459 1.363 . S
C460 C466 1.428 . S
H461 C457 0.930 . S
H462 C459 0.929 . S
S463 N464 1.613 1_554 S
S463 N465 1.610 1_554 S
N464 S463 1.613 1_556 S
N464 C467 1.350 . S
N465 S463 1.610 1_556 S
N465 C466 1.351 . S
C466 C460 1.428 . S
C466 N465 1.351 . S
C466 C467 1.434 . S
C467 C458 1.429 . S
C467 N464 1.350 . S
C467 C466 1.434 . S
C468 C469 1.369 1_455 S
C468 C470 1.419 . S
C468 H472 0.930 . S
C469 C468 1.369 1_655 S
C469 C478 1.429 . S
C470 C468 1.419 . S
C470 C471 1.363 1_455 S
C470 H473 0.929 . S
C471 C470 1.363 1_655 S
C471 C477 1.428 . S
H472 C468 0.930 . S
H473 C470 0.929 . S
S474 N475 1.613 . S
S474 N476 1.610 . S
N475 S474 1.613 . S
N475 C478 1.350 . S
N476 S474 1.610 . S
N476 C477 1.351 . S
C477 C471 1.428 . S
C477 N476 1.351 . S
C477 C478 1.434 . S
C478 C469 1.429 . S
C478 N475 1.350 . S
C478 C477 1.434 . S
C479 C480 1.369 1_545 S
C479 C481 1.419 . S
C479 H483 0.930 . S
C480 C479 1.369 1_565 S
C480 C489 1.429 . S
C481 C479 1.419 . S
C481 C482 1.363 1_545 S
C481 H484 0.929 . S
C482 C481 1.363 1_565 S
C482 C488 1.428 . S
H483 C479 0.930 . S
H484 C481 0.929 . S
S485 N486 1.613 . S
S485 N487 1.610 . S
N486 S485 1.613 . S
N486 C489 1.350 . S
N487 S485 1.610 . S
N487 C488 1.351 . S
C488 C482 1.428 . S
C488 N487 1.351 . S
C488 C489 1.434 . S
C489 C480 1.429 . S
C489 N486 1.350 . S
C489 C488 1.434 . S
C490 C491 1.369 . S
C490 C492 1.419 . S
C490 H494 0.930 . S
C491 C490 1.369 . S
C491 C500 1.429 . S
C492 C490 1.419 . S
C492 C493 1.363 . S
C492 H495 0.929 . S
C493 C492 1.363 . S
C493 C499 1.428 . S
H494 C490 0.930 . S
H495 C492 0.929 . S
S496 N497 1.613 . S
S496 N498 1.610 . S
N497 S496 1.613 . S
N497 C500 1.350 . S
N498 S496 1.610 . S
N498 C499 1.351 . S
C499 C493 1.428 . S
C499 N498 1.351 . S
C499 C500 1.434 . S
C500 C491 1.429 . S
C500 N497 1.350 . S
C500 C499 1.434 . S
C501 C502 1.369 . S
C501 C503 1.419 . S
C501 H505 0.930 . S
C502 C501 1.369 . S
C502 C511 1.429 . S
C503 C501 1.419 . S
C503 C504 1.363 . S
C503 H506 0.929 . S
C504 C503 1.363 . S
C504 C510 1.428 . S
H505 C501 0.930 . S
H506 C503 0.929 . S
S507 N508 1.613 . S
S507 N509 1.610 1_554 S
N508 S507 1.613 . S
N508 C511 1.350 1_554 S
N509 S507 1.610 1_556 S
N509 C510 1.351 . S
C510 C504 1.428 . S
C510 N509 1.351 . S
C510 C511 1.434 . S
C511 C502 1.429 . S
C511 N508 1.350 1_556 S
C511 C510 1.434 . S
C249 C76 2.098 1_545 S
C251 C90 2.188 1_545 S
C262 C130 2.060 . S
C260 C87 1.994 . S
C273 C194 2.057 . S
C271 C54 1.906 . S
C284 C210 1.963 1_455 S
C282 C65 1.656 1_455 S
C295 C111 2.192 1_564 S
C293 C32 2.088 1_545 S
C304 C43 2.003 . S
C306 C151 2.062 1_554 S
C315 C10 1.916 . S
C317 C185 2.057 . S
C326 C21 1.673 . S
C328 C231 1.959 1_654 S
C339 C105 0.644 . S
C337 C60 0.642 . S
C350 C145 0.919 . S
C348 C71 0.925 1_565 S
C361 C181 1.042 . S
C359 C82 1.061 . S
C370 C49 0.957 . S
C372 C225 0.879 . S
C381 C16 0.634 1_655 S
C383 C114 0.645 . S
C394 C154 0.914 . S
C392 C27 0.925 . S
C405 C192 1.042 . S
C403 C38 1.054 . S
C414 C5 0.940 . S
C416 C234 0.888 . S
C425 C59 1.889 1_556 S
C427 C112 2.193 . S
C436 C70 2.015 . S
C438 C152 2.265 1_554 S
C449 C170 1.774 . S
C447 C81 1.741 . S
C460 C232 2.629 . S
C458 C48 2.274 . S
C469 C15 1.887 1_655 S
C471 C101 2.204 . S
C482 C141 2.264 . S
C480 C26 2.018 1_565 S
C493 C191 1.778 . S
C491 C37 1.729 . S
C502 C4 2.283 . S
C504 C221 2.633 . S
