# Generated by pormake.
# Topology pto, (3,4)-cn, num edge types: 1
# Building blocks:
#     Node 0, Type 0, BuildingBlock: BETDIP_clean_linker_0, # of connection points: 3
#     Node 1, Type 0, BuildingBlock: BETDIP_clean_linker_0, # of connection points: 3
#     Node 2, Type 0, BuildingBlock: BETDIP_clean_linker_0, # of connection points: 3
#     Node 3, Type 0, BuildingBlock: BETDIP_clean_linker_0, # of connection points: 3
#     Node 4, Type 0, BuildingBlock: BETDIP_clean_linker_0, # of connection points: 3
#     Node 5, Type 0, BuildingBlock: BETDIP_clean_linker_0, # of connection points: 3
#     Node 6, Type 0, BuildingBlock: BETDIP_clean_linker_0, # of connection points: 3
#     Node 7, Type 0, BuildingBlock: BETDIP_clean_linker_0, # of connection points: 3
#     Node 8, Type 1, BuildingBlock: NAWXER_clean_sbu_0, # of connection points: 4
#     Node 9, Type 1, BuildingBlock: NAWXER_clean_sbu_0, # of connection points: 4
#     Node 10, Type 1, BuildingBlock: NAWXER_clean_sbu_0, # of connection points: 4
#     Node 11, Type 1, BuildingBlock: NAWXER_clean_sbu_0, # of connection points: 4
#     Node 12, Type 1, BuildingBlock: NAWXER_clean_sbu_0, # of connection points: 4
#     Node 13, Type 1, BuildingBlock: NAWXER_clean_sbu_0, # of connection points: 4
#     Edge 14, Type (0, 1), BuildingBlock: CIFDUS_clean_linker_0, # of connection points: 2
#     Edge 15, Type (0, 1), BuildingBlock: CIFDUS_clean_linker_0, # of connection points: 2
#     Edge 16, Type (0, 1), BuildingBlock: CIFDUS_clean_linker_0, # of connection points: 2
#     Edge 17, Type (0, 1), BuildingBlock: CIFDUS_clean_linker_0, # of connection points: 2
#     Edge 18, Type (0, 1), BuildingBlock: CIFDUS_clean_linker_0, # of connection points: 2
#     Edge 19, Type (0, 1), BuildingBlock: CIFDUS_clean_linker_0, # of connection points: 2
#     Edge 20, Type (0, 1), BuildingBlock: CIFDUS_clean_linker_0, # of connection points: 2
#     Edge 21, Type (0, 1), BuildingBlock: CIFDUS_clean_linker_0, # of connection points: 2
#     Edge 22, Type (0, 1), BuildingBlock: CIFDUS_clean_linker_0, # of connection points: 2
#     Edge 23, Type (0, 1), BuildingBlock: CIFDUS_clean_linker_0, # of connection points: 2
#     Edge 24, Type (0, 1), BuildingBlock: CIFDUS_clean_linker_0, # of connection points: 2
#     Edge 25, Type (0, 1), BuildingBlock: CIFDUS_clean_linker_0, # of connection points: 2
#     Edge 26, Type (0, 1), BuildingBlock: CIFDUS_clean_linker_0, # of connection points: 2
#     Edge 27, Type (0, 1), BuildingBlock: CIFDUS_clean_linker_0, # of connection points: 2
#     Edge 28, Type (0, 1), BuildingBlock: CIFDUS_clean_linker_0, # of connection points: 2
#     Edge 29, Type (0, 1), BuildingBlock: CIFDUS_clean_linker_0, # of connection points: 2
#     Edge 30, Type (0, 1), BuildingBlock: CIFDUS_clean_linker_0, # of connection points: 2
#     Edge 31, Type (0, 1), BuildingBlock: CIFDUS_clean_linker_0, # of connection points: 2
#     Edge 32, Type (0, 1), BuildingBlock: CIFDUS_clean_linker_0, # of connection points: 2
#     Edge 33, Type (0, 1), BuildingBlock: CIFDUS_clean_linker_0, # of connection points: 2
#     Edge 34, Type (0, 1), BuildingBlock: CIFDUS_clean_linker_0, # of connection points: 2
#     Edge 35, Type (0, 1), BuildingBlock: CIFDUS_clean_linker_0, # of connection points: 2
#     Edge 36, Type (0, 1), BuildingBlock: CIFDUS_clean_linker_0, # of connection points: 2
#     Edge 37, Type (0, 1), BuildingBlock: CIFDUS_clean_linker_0, # of connection points: 2
# Relax obj value: 0.016
# Max RMSD: 0.143
# Mean RMSD: 0.062
data_MOF--net-pto--node1-NAWXER_clean_sbu_0--node2-BETDIP_clean_linker_0--edge1-CIFDUS_clean_linker_0
_symmetry_space_group_name_H-M    P1
_symmetry_Int_Tables_number       1
_symmetry_cell_setting            triclinic
loop_
_symmetry_equiv_pos_as_xyz
'x, y, z'
_cell_length_a     36.248979
_cell_length_b     35.094426
_cell_length_c     33.306261
_cell_angle_alpha  100.81661
_cell_angle_beta   100.77498
_cell_angle_gamma 102.41656
loop_
_atom_site_label
_atom_site_type_symbol
_atom_site_fract_x
_atom_site_fract_y
_atom_site_fract_z
_atom_type_partial_charge
H0 H 0.25145 0.37222 0.32909 0.0
H1 H 0.36177 0.36344 0.30478 0.0
H2 H 0.27968 0.39518 0.21454 0.0
H3 H 0.2741 0.3637 0.39111 0.0
C4 C 0.29545 0.34661 0.38789 0.0
C5 C 0.2716 0.37448 0.30907 0.0
C6 C 0.26086 0.38523 0.2706 0.0
C7 C 0.30789 0.36632 0.32141 0.0
C8 C 0.33412 0.3704 0.29567 0.0
C9 C 0.32425 0.38115 0.25735 0.0
C10 C 0.28751 0.38811 0.24477 0.0
N11 N 0.31782 0.35082 0.35743 0.0
H12 H 0.22232 0.78021 0.67509 0.0
H13 H 0.34702 0.82102 0.71608 0.0
H14 H 0.28478 0.72997 0.76588 0.0
H15 H 0.34114 0.87403 0.69472 0.0
C16 C 0.31374 0.86821 0.67203 0.0
C17 C 0.24951 0.77834 0.6937 0.0
C18 C 0.24935 0.75114 0.71987 0.0
C19 C 0.2844 0.80469 0.69294 0.0
C20 C 0.31964 0.80233 0.7174 0.0
C21 C 0.32003 0.77586 0.74425 0.0
C22 C 0.28479 0.75015 0.74493 0.0
N23 N 0.28278 0.83395 0.66853 0.0
H24 H 0.76793 0.70173 0.21634 0.0
H25 H 0.81413 0.75246 0.34938 0.0
H26 H 0.71002 0.77586 0.28599 0.0
H27 H 0.864 0.72951 0.34083 0.0
C28 C 0.85876 0.70931 0.31026 0.0
C29 C 0.76583 0.71937 0.24585 0.0
C30 C 0.73542 0.7381 0.24679 0.0
C31 C 0.79466 0.72442 0.28229 0.0
C32 C 0.7926 0.74834 0.32066 0.0
C33 C 0.76184 0.76681 0.32225 0.0
C34 C 0.73346 0.76127 0.28517 0.0
N35 N 0.82502 0.70503 0.27843 0.0
H36 H 0.68582 0.24052 0.7639 0.0
H37 H 0.75216 0.361 0.82761 0.0
H38 H 0.79127 0.29318 0.73077 0.0
H39 H 0.69675 0.36706 0.84428 0.0
C40 C 0.68307 0.33787 0.84854 0.0
C41 C 0.71071 0.2656 0.76803 0.0
C42 C 0.73751 0.26261 0.74272 0.0
C43 C 0.71533 0.30107 0.79835 0.0
C44 C 0.74768 0.33376 0.80387 0.0
C45 C 0.77488 0.33134 0.77904 0.0
C46 C 0.76954 0.29567 0.74877 0.0
N47 N 0.68778 0.30226 0.82373 0.0
H48 H 0.79823 0.80363 0.90853 0.0
H49 H 0.85502 0.84605 0.81752 0.0
H50 H 0.77816 0.90882 0.86739 0.0
H51 H 0.84222 0.77653 0.79397 0.0
C52 C 0.85465 0.76994 0.8234 0.0
C53 C 0.80408 0.82596 0.89051 0.0
C54 C 0.78491 0.85711 0.89211 0.0
C55 C 0.829 0.82152 0.86352 0.0
C56 C 0.83552 0.84892 0.83825 0.0
C57 C 0.81699 0.88012 0.83931 0.0
C58 C 0.79235 0.8846 0.86682 0.0
N59 N 0.84635 0.78864 0.8612 0.0
H60 H 0.72162 0.22941 0.3116 0.0
H61 H 0.84277 0.28531 0.36784 0.0
H62 H 0.7799 0.33634 0.27959 0.0
H63 H 0.84292 0.23304 0.39328 0.0
C64 C 0.81358 0.21643 0.39167 0.0
C65 C 0.74728 0.25338 0.31511 0.0
C66 C 0.74589 0.28277 0.29166 0.0
C67 C 0.78181 0.25387 0.34277 0.0
C68 C 0.81573 0.2842 0.34694 0.0
C69 C 0.81525 0.3133 0.3233 0.0
C70 C 0.78024 0.31275 0.29636 0.0
N71 N 0.78093 0.22345 0.36578 0.0
H72 H 0.17269 0.34176 0.80431 0.0
H73 H 0.26949 0.29876 0.85175 0.0
H74 H 0.23631 0.38884 0.93402 0.0
H75 H 0.27899 0.32592 0.78595 0.0
C76 C 0.25366 0.30187 0.76801 0.0
C77 C 0.19528 0.34185 0.83076 0.0
C78 C 0.2012 0.36853 0.87009 0.0
C79 C 0.22034 0.31752 0.82416 0.0
C80 C 0.24976 0.31721 0.85774 0.0
C81 C 0.25556 0.34216 0.8978 0.0
C82 C 0.23114 0.3681 0.9038 0.0
N83 N 0.21902 0.29711 0.78273 0.0
H84 H 0.28756 0.87832 0.23862 0.0
H85 H 0.26501 0.74989 0.21219 0.0
H86 H 0.22861 0.81389 0.31495 0.0
H87 H 0.31208 0.75744 0.17882 0.0
C88 C 0.31957 0.78756 0.1739 0.0
C89 C 0.27551 0.85009 0.24593 0.0
C90 C 0.2553 0.84954 0.27782 0.0
C91 C 0.28083 0.81459 0.22352 0.0
C92 C 0.26354 0.77754 0.23159 0.0
C93 C 0.24338 0.77635 0.26408 0.0
C94 C 0.24107 0.81305 0.28783 0.0
N95 N 0.30399 0.81795 0.19356 0.0
C96 C 0.99694 0.46974 0.29131 0.0
C97 C 0.10295 0.58782 0.30447 0.0
O98 O 0.02065 0.491 0.3253 0.0
Zn99 Zn 0.05132 0.52858 0.30042 0.0
O100 O 1.00052 0.47828 0.25622 0.0
Zn101 Zn 0.03599 0.52177 0.23298 0.0
O102 O 0.06207 0.49072 0.19806 0.0
O103 O 0.08063 0.49268 0.26574 0.0
O104 O 0.08361 0.57128 0.26667 0.0
O105 O 0.09396 0.57355 0.3348 0.0
O106 O 0.01062 0.55996 0.27887 0.0
O107 O 0.99803 0.54918 0.2097 0.0
C108 C 0.08282 0.48086 0.22768 0.0
C109 C 0.99259 0.56598 0.24472 0.0
C110 C 0.95891 0.50306 0.77484 0.0
C111 C 0.0717 0.61012 0.77747 0.0
O112 O 0.97832 0.52145 0.81235 0.0
Zn113 Zn 0.02945 0.56966 0.84244 0.0
O114 O 0.97033 0.51357 0.74378 0.0
Zn115 Zn 0.01519 0.55667 0.77532 0.0
O116 O 0.05444 0.52588 0.80275 0.0
O117 O 0.06377 0.54239 0.87184 0.0
O118 O 0.04659 0.58724 0.74533 0.0
O119 O 0.06829 0.60643 0.81436 0.0
O120 O 1.0083 0.60897 0.87405 0.0
O121 O 0.98966 0.60014 0.80531 0.0
C122 C 0.07076 0.52276 0.83918 0.0
C123 C 0.98897 0.61755 0.84252 0.0
C124 C 0.32201 0.05512 0.56552 0.0
C125 C 0.32086 0.16533 0.49432 0.0
O126 O 0.28785 0.05476 0.54607 0.0
Zn127 Zn 0.26104 0.08938 0.5087 0.0
O128 O 0.35096 0.08275 0.56498 0.0
Zn129 Zn 0.32296 0.11069 0.52987 0.0
O130 O 0.29032 0.13645 0.56958 0.0
O131 O 0.22761 0.10887 0.5423 0.0
O132 O 0.35069 0.15728 0.51412 0.0
O133 O 0.28691 0.14263 0.49045 0.0
O134 O 0.23844 0.0507 0.45535 0.0
O135 O 0.3026 0.06795 0.47104 0.0
C136 C 0.2548 0.13373 0.57116 0.0
C137 C 0.27022 0.0474 0.44596 0.0
C138 C 0.58328 0.76611 0.05446 0.0
C139 C 0.48987 0.75881 0.92441 0.0
O140 O 0.56755 0.73477 0.02477 0.0
Zn141 Zn 0.53637 0.76 0.9891 0.0
O142 O 0.57426 0.79908 0.05185 0.0
Zn143 Zn 0.53816 0.82263 0.01001 0.0
O144 O 0.50158 0.83687 0.04283 0.0
O145 O 0.49539 0.77164 0.02515 0.0
O146 O 0.50121 0.7934 0.95009 0.0
O147 O 0.5028 0.72998 0.93416 0.0
O148 O 0.58125 0.80155 0.97406 0.0
O149 O 0.57644 0.86339 0.99636 0.0
C150 C 0.48473 0.80136 0.04377 0.0
C151 C 0.59351 0.83949 0.97836 0.0
C152 C 0.81527 0.98141 0.64452 0.0
C153 C 0.82082 0.06502 0.54287 0.0
O154 O 0.78271 0.97445 0.61797 0.0
Zn155 Zn 0.75879 0.99692 0.56647 0.0
O156 O 0.84439 0.00801 0.64266 0.0
Zn157 Zn 0.81915 0.02318 0.59354 0.0
O158 O 0.78104 0.05527 0.61801 0.0
O159 O 0.72032 0.02117 0.58747 0.0
O160 O 0.84883 0.06337 0.57133 0.0
O161 O 0.7868 0.04202 0.53809 0.0
O162 O 0.74206 0.94924 0.52071 0.0
O163 O 0.80589 0.97028 0.54289 0.0
C164 C 0.74448 0.05144 0.61345 0.0
C165 C 0.77555 0.94508 0.51786 0.0
C166 C 0.57176 0.31137 0.12293 0.0
C167 C 0.45333 0.31661 0.02774 0.0
O168 O 0.54237 0.28234 0.10388 0.0
Zn169 Zn 0.51262 0.31268 0.07383 0.0
O170 O 0.57203 0.34695 0.11869 0.0
Zn171 Zn 0.53373 0.37628 0.08685 0.0
O172 O 0.52059 0.4104 0.13263 0.0
O173 O 0.49221 0.34579 0.12177 0.0
O174 O 0.47717 0.35124 0.04426 0.0
O175 O 0.46304 0.28529 0.03488 0.0
O176 O 0.54785 0.33407 0.03314 0.0
O177 O 0.56446 0.40028 0.05206 0.0
C178 C 0.4968 0.3823 0.14092 0.0
C179 C 0.5657 0.368 0.02811 0.0
H180 H 0.24118 0.43884 0.22497 0.0
H181 H 0.19144 0.34879 0.28601 0.0
H182 H 0.13066 0.36821 0.27472 0.0
H183 H 0.09369 0.41538 0.25413 0.0
H184 H 0.14027 0.50103 0.1875 0.0
H185 H 0.19963 0.4775 0.19277 0.0
C186 C 0.21691 0.42263 0.23496 0.0
C187 C 0.22188 0.39329 0.25784 0.0
C188 C 0.18122 0.43298 0.22709 0.0
C189 C 0.18956 0.37282 0.27021 0.0
C190 C 0.1544 0.38352 0.26328 0.0
C191 C 0.11642 0.42797 0.23968 0.0
C192 C 0.1128 0.45971 0.2204 0.0
C193 C 0.15027 0.41429 0.24284 0.0
C194 C 0.14234 0.47612 0.20195 0.0
C195 C 0.17643 0.46301 0.20546 0.0
H196 H 0.22765 0.73864 0.79093 0.0
H197 H 0.18764 0.70531 0.65578 0.0
H198 H 0.12832 0.65958 0.66136 0.0
H199 H 0.08919 0.62694 0.70494 0.0
H200 H 0.13069 0.6609 0.84023 0.0
H201 H 0.18808 0.70811 0.83417 0.0
C202 C 0.20605 0.72121 0.76265 0.0
C203 C 0.21226 0.72503 0.72298 0.0
C204 C 0.17229 0.69492 0.76611 0.0
C205 C 0.18352 0.70298 0.6867 0.0
C206 C 0.1497 0.67668 0.68988 0.0
C207 C 0.1107 0.64479 0.73309 0.0
C208 C 0.10555 0.64009 0.77297 0.0
C209 C 0.14395 0.67209 0.72946 0.0
C210 C 0.13376 0.66366 0.80909 0.0
C211 C 0.16672 0.69074 0.80571 0.0
H212 H 0.86179 0.66058 0.23631 0.0
H213 H 0.92023 0.70595 0.36766 0.0
H214 H 0.96743 0.66684 0.35835 0.0
H215 H 0.99092 0.61873 0.31401 0.0
H216 H 0.9342 0.57291 0.1823 0.0
H217 H 0.88765 0.61371 0.19049 0.0
C218 C 0.88488 0.66191 0.26284 0.0
C219 C 0.88739 0.68591 0.30282 0.0
C220 C 0.91217 0.6394 0.25717 0.0
C221 C 0.91766 0.6876 0.33672 0.0
C222 C 0.94464 0.66526 0.33141 0.0
C223 C 0.96842 0.61756 0.28693 0.0
C224 C 0.96582 0.59245 0.24764 0.0
C225 C 0.94198 0.64088 0.29193 0.0
C226 C 0.93684 0.59194 0.21288 0.0
C227 C 0.91015 0.61514 0.21763 0.0
H228 H 0.80587 0.36025 0.71873 0.0
H229 H 0.82197 0.37924 0.85338 0.0
H230 H 0.87971 0.43415 0.86374 0.0
H231 H 0.92639 0.4758 0.83476 0.0
H232 H 0.91122 0.45628 0.70012 0.0
H233 H 0.85268 0.40215 0.68965 0.0
C234 C 0.82215 0.37623 0.75036 0.0
C235 C 0.8095 0.36556 0.78521 0.0
C236 C 0.85562 0.40754 0.75612 0.0
C237 C 0.83065 0.38708 0.82597 0.0
C238 C 0.86388 0.41832 0.83193 0.0
C239 C 0.91036 0.45975 0.80307 0.0
C240 C 0.92335 0.47013 0.76828 0.0
C241 C 0.87671 0.42869 0.79726 0.0
C242 C 0.902 0.44897 0.72749 0.0
C243 C 0.86848 0.41799 0.72146 0.0
H244 H 0.35247 0.30712 0.40246 0.0
H245 H 0.24158 0.31607 0.42711 0.0
H246 H 0.23989 0.26109 0.46271 0.0
H247 H 0.26852 0.20889 0.48433 0.0
H248 H 0.38104 0.20158 0.46391 0.0
H249 H 0.38375 0.25772 0.42935 0.0
C250 C 0.32806 0.29709 0.4158 0.0
C251 C 0.29693 0.31526 0.41185 0.0
C252 C 0.32758 0.26579 0.43685 0.0
C253 C 0.26577 0.30241 0.42975 0.0
C254 C 0.26475 0.27095 0.44999 0.0
C255 C 0.29369 0.21965 0.47238 0.0
C256 C 0.32433 0.2009 0.47615 0.0
C257 C 0.29525 0.25215 0.45329 0.0
C258 C 0.35709 0.21557 0.46129 0.0
C259 C 0.35856 0.24754 0.44143 0.0
H260 H 0.34651 0.71369 0.76784 0.0
H261 H 0.37566 0.84307 0.78976 0.0
H262 H 0.43277 0.84831 0.84403 0.0
H263 H 0.4713 0.81725 0.8892 0.0
H264 H 0.44224 0.68841 0.8712 0.0
H265 H 0.38828 0.68187 0.81135 0.0
C266 C 0.36544 0.74299 0.78444 0.0
C267 C 0.35666 0.77792 0.77457 0.0
C268 C 0.3981 0.74594 0.81646 0.0
C269 C 0.38186 0.81563 0.79606 0.0
C270 C 0.41443 0.81873 0.82745 0.0
C271 C 0.45338 0.78761 0.87209 0.0
C272 C 0.46048 0.75339 0.88496 0.0
C273 C 0.42235 0.78421 0.83841 0.0
C274 C 0.43734 0.71524 0.86196 0.0
C275 C 0.40638 0.71154 0.82791 0.0
H276 H 0.82023 0.8257 0.37883 0.0
H277 H 0.69778 0.76818 0.35396 0.0
H278 H 0.69121 0.81758 0.41259 0.0
H279 H 0.71933 0.87961 0.46832 0.0
H280 H 0.84204 0.93664 0.49407 0.0
H281 H 0.84938 0.88493 0.43819 0.0
C282 C 0.79229 0.82351 0.38677 0.0
C283 C 0.7595 0.79346 0.36172 0.0
C284 C 0.78863 0.85223 0.42052 0.0
C285 C 0.7234 0.79134 0.3723 0.0
C286 C 0.7196 0.81959 0.40586 0.0
C287 C 0.74771 0.88066 0.46184 0.0
C288 C 0.77996 0.91224 0.48522 0.0
C289 C 0.75183 0.85067 0.42967 0.0
C290 C 0.81662 0.9128 0.47659 0.0
C291 C 0.82089 0.88321 0.44455 0.0
H292 H 0.66988 0.40065 0.89905 0.0
H293 H 0.64151 0.27117 0.8677 0.0
H294 H 0.60231 0.26934 0.9199 0.0
H295 H 0.57679 0.30448 0.9751 0.0
H296 H 0.60557 0.43411 0.00711 0.0
H297 H 0.64379 0.43589 0.95402 0.0
C298 C 0.65499 0.37206 0.90364 0.0
C299 C 0.65859 0.33616 0.87954 0.0
C300 C 0.6326 0.37125 0.93385 0.0
C301 C 0.63925 0.29928 0.88578 0.0
C302 C 0.61682 0.29821 0.91567 0.0
C303 C 0.59129 0.33317 0.97044 0.0
C304 C 0.58822 0.36912 0.99518 0.0
C305 C 0.61338 0.334 0.93996 0.0
C306 C 0.60737 0.40597 0.98863 0.0
C307 C 0.62928 0.40702 0.95825 0.0
H308 H 0.36817 0.93422 0.67279 0.0
H309 H 0.24801 0.87109 0.61715 0.0
H310 H 0.24034 0.92346 0.57952 0.0
H311 H 0.26751 0.98751 0.56317 0.0
H312 H 0.388 0.05042 0.61798 0.0
H313 H 0.39581 0.99777 0.65516 0.0
C314 C 0.34034 0.93194 0.65231 0.0
C315 C 0.30872 0.89891 0.64784 0.0
C316 C 0.33619 0.96213 0.63072 0.0
C317 C 0.27283 0.89618 0.62117 0.0
C318 C 0.26842 0.92616 0.59968 0.0
C319 C 0.29552 0.98982 0.58328 0.0
C320 C 0.3271 0.02308 0.58789 0.0
C321 C 0.29985 0.95935 0.60438 0.0
C322 C 0.3632 0.02526 0.61385 0.0
C323 C 0.36769 0.99515 0.63515 0.0
H324 H 0.71 0.79903 0.22284 0.0
H325 H 0.69724 0.67181 0.18226 0.0
H326 H 0.6492 0.66876 0.11839 0.0
H327 H 0.6097 0.70265 0.07488 0.0
H328 H 0.62315 0.83002 0.1186 0.0
H329 H 0.67142 0.83227 0.18061 0.0
C330 C 0.69639 0.77048 0.20031 0.0
C331 C 0.70682 0.73566 0.20752 0.0
C332 C 0.66873 0.76892 0.1642 0.0
C333 C 0.68974 0.69912 0.17737 0.0
C334 C 0.66216 0.69733 0.14098 0.0
C335 C 0.6232 0.73082 0.09801 0.0
C336 C 0.61256 0.76601 0.09196 0.0
C337 C 0.65124 0.73208 0.13414 0.0
C338 C 0.63048 0.80234 0.12228 0.0
C339 C 0.65825 0.80379 0.15789 0.0
H340 H 0.71402 0.18435 0.74835 0.0
H341 H 0.75093 0.25629 0.66408 0.0
H342 H 0.75308 0.19643 0.61495 0.0
H343 H 0.7507 0.12464 0.59895 0.0
H344 H 0.71201 0.05158 0.68096 0.0
H345 H 0.70342 0.11059 0.72755 0.0
C346 C 0.72171 0.18686 0.71885 0.0
C347 C 0.73317 0.22506 0.71052 0.0
C348 C 0.72258 0.15207 0.69033 0.0
C349 C 0.74309 0.22755 0.67202 0.0
C350 C 0.74411 0.19327 0.64369 0.0
C351 C 0.73946 0.12164 0.62652 0.0
C352 C 0.73166 0.08414 0.63661 0.0
C353 C 0.7349 0.15558 0.65301 0.0
C354 C 0.71761 0.08027 0.6725 0.0
C355 C 0.71306 0.11402 0.69922 0.0
H356 H 0.40058 0.42224 0.27575 0.0
H357 H 0.30837 0.34052 0.17587 0.0
H358 H 0.35389 0.33495 0.13079 0.0
H359 H 0.4203 0.34991 0.12137 0.0
H360 H 0.51282 0.43399 0.21876 0.0
H361 H 0.46683 0.44237 0.2635 0.0
C362 C 0.39057 0.40354 0.24397 0.0
C363 C 0.35131 0.38164 0.22908 0.0
C364 C 0.41691 0.40076 0.2181 0.0
C365 C 0.3384 0.35779 0.1878 0.0
C366 C 0.36442 0.35442 0.16217 0.0
C367 C 0.43033 0.37017 0.15241 0.0
C368 C 0.46981 0.39083 0.16729 0.0
C369 C 0.40378 0.37521 0.17726 0.0
C370 C 0.4825 0.4177 0.20696 0.0
C371 C 0.45626 0.42234 0.23244 0.0
H372 H 0.89472 0.74592 0.88905 0.0
H373 H 0.86712 0.72742 0.7539 0.0
H374 H 0.90595 0.67883 0.74804 0.0
H375 H 0.94779 0.64215 0.78063 0.0
H376 H 0.97713 0.65968 0.91565 0.0
H377 H 0.93763 0.70817 0.92226 0.0
C378 C 0.89716 0.7311 0.85839 0.0
C379 C 0.87799 0.74011 0.82186 0.0
C380 C 0.91988 0.70317 0.85522 0.0
C381 C 0.88156 0.72088 0.78239 0.0
C382 C 0.90378 0.69314 0.779 0.0
C383 C 0.94566 0.65645 0.81164 0.0
C384 C 0.96546 0.6472 0.84759 0.0
C385 C 0.9231 0.68414 0.81514 0.0
C386 C 0.96225 0.66623 0.88742 0.0
C387 C 0.93963 0.69395 0.8912 0.0
H388 H 0.84285 0.3325 0.25785 0.0
H389 H 0.86955 0.36102 0.39339 0.0
H390 H 0.92939 0.41085 0.39596 0.0
H391 H 0.9731 0.44778 0.35915 0.0
H392 H 0.94528 0.41763 0.22322 0.0
H393 H 0.88715 0.36708 0.22145 0.0
C394 C 0.86167 0.34983 0.28794 0.0
C395 C 0.85167 0.34343 0.32533 0.0
C396 C 0.89594 0.37809 0.28913 0.0
C397 C 0.8767 0.36544 0.36415 0.0
C398 C 0.91085 0.39395 0.36562 0.0
C399 C 0.9545 0.4299 0.32919 0.0
C400 C 0.96361 0.43677 0.29143 0.0
C401 C 0.92071 0.40069 0.32825 0.0
C402 C 0.93907 0.41326 0.25285 0.0
C403 C 0.90566 0.38429 0.25171 0.0
H404 H 0.18416 0.41245 0.81416 0.0
H405 H 0.16801 0.39441 0.93488 0.0
H406 H 0.12789 0.44263 0.93776 0.0
H407 H 0.09432 0.48737 0.90337 0.0
H408 H 0.10943 0.5008 0.7807 0.0
H409 H 0.15244 0.45651 0.781 0.0
C410 C 0.17153 0.4186 0.84098 0.0
C411 C 0.17847 0.3992 0.87386 0.0
C412 C 0.14808 0.4455 0.84196 0.0
C413 C 0.16303 0.40881 0.90905 0.0
C414 C 0.13993 0.43623 0.91058 0.0
C415 C 0.10728 0.48072 0.87692 0.0
C416 C 0.09837 0.4972 0.84193 0.0
C417 C 0.13181 0.45442 0.87689 0.0
C418 C 0.11534 0.48824 0.80783 0.0
C419 C 0.14008 0.46296 0.80795 0.0
H420 H 0.18127 0.76114 0.30087 0.0
H421 H 0.26076 0.70227 0.24794 0.0
H422 H 0.22606 0.63897 0.25871 0.0
H423 H 0.17038 0.59944 0.27951 0.0
H424 H 0.09818 0.66109 0.34135 0.0
H425 H 0.13513 0.72527 0.33355 0.0
C426 C 0.19265 0.73535 0.29307 0.0
C427 C 0.22402 0.73747 0.27315 0.0
C428 C 0.17423 0.69946 0.30175 0.0
C429 C 0.23619 0.70216 0.26202 0.0
C430 C 0.21668 0.66577 0.26879 0.0
C431 C 0.16384 0.62724 0.29262 0.0
C432 C 0.13212 0.62597 0.31148 0.0
C433 C 0.18537 0.664 0.28819 0.0
C434 C 0.12311 0.66174 0.32764 0.0
C435 C 0.14382 0.69824 0.32256 0.0
H436 H 0.80318 0.85483 0.75524 0.0
H437 H 0.83896 0.96228 0.85521 0.0
H438 H 0.8452 0.00367 0.80375 0.0
H439 H 0.83834 0.00888 0.72951 0.0
H440 H 0.79681 0.90083 0.63017 0.0
H441 H 0.79551 0.85985 0.682 0.0
C442 C 0.81263 0.88733 0.7657 0.0
C443 C 0.82091 0.90561 0.80879 0.0
C444 C 0.81529 0.91067 0.73601 0.0
C445 C 0.83243 0.94769 0.82208 0.0
C446 C 0.8361 0.97126 0.79272 0.0
C447 C 0.8296 0.97636 0.7195 0.0
C448 C 0.81822 0.95764 0.67635 0.0
C449 C 0.82745 0.95307 0.74953 0.0
C450 C 0.80596 0.91562 0.66336 0.0
C451 C 0.80509 0.89227 0.69291 0.0
H452 H 0.73709 0.30582 0.21699 0.0
H453 H 0.67057 0.25864 0.29993 0.0
H454 H 0.61062 0.25918 0.25284 0.0
H455 H 0.57688 0.27682 0.18976 0.0
H456 H 0.64477 0.3322 0.11287 0.0
H457 H 0.70432 0.32551 0.15632 0.0
C458 C 0.70969 0.29622 0.22541 0.0
C459 C 0.70887 0.28231 0.26238 0.0
C460 C 0.67535 0.29821 0.19914 0.0
C461 C 0.67252 0.26889 0.27153 0.0
C462 C 0.63804 0.26953 0.24473 0.0
C463 C 0.60476 0.28697 0.18247 0.0
C464 C 0.60667 0.30459 0.14811 0.0
C465 C 0.6391 0.28447 0.20863 0.0
C466 C 0.64283 0.31841 0.13919 0.0
C467 C 0.6768 0.31464 0.16401 0.0
H468 H 0.19872 0.23668 0.71397 0.0
H469 H 0.31831 0.30491 0.73977 0.0
H470 H 0.32899 0.25886 0.68125 0.0
H471 H 0.30524 0.19934 0.6241 0.0
H472 H 0.18578 0.13022 0.5956 0.0
H473 H 0.17404 0.17663 0.65395 0.0
C474 C 0.22699 0.24143 0.70657 0.0
C475 C 0.2578 0.27402 0.73109 0.0
C476 C 0.23297 0.21473 0.67266 0.0
C477 C 0.29425 0.27998 0.72124 0.0
C478 C 0.3004 0.25367 0.68789 0.0
C479 C 0.27658 0.19416 0.6306 0.0
C480 C 0.24652 0.16116 0.6058 0.0
C481 C 0.2701 0.22089 0.66364 0.0
C482 C 0.20945 0.15537 0.61436 0.0
C483 C 0.20276 0.18188 0.64769 0.0
H484 H 0.3545 0.73654 0.13463 0.0
H485 H 0.35138 0.86074 0.1589 0.0
H486 H 0.40212 0.87622 0.12089 0.0
H487 H 0.44842 0.85445 0.08136 0.0
H488 H 0.45023 0.72962 0.05718 0.0
H489 H 0.3993 0.71465 0.09434 0.0
C490 C 0.36486 0.76696 0.13143 0.0
C491 C 0.34924 0.79733 0.14958 0.0
C492 C 0.39402 0.77565 0.10957 0.0
C493 C 0.36288 0.83668 0.14522 0.0
C494 C 0.39199 0.8456 0.12352 0.0
C495 C 0.43765 0.82401 0.08423 0.0
C496 C 0.45334 0.79333 0.06645 0.0
C497 C 0.40796 0.81535 0.10569 0.0
C498 C 0.43883 0.75396 0.07041 0.0
C499 C 0.40962 0.74525 0.09173 0.0
H500 H 0.86957 0.1991 0.44555 0.0
H501 H 0.74566 0.16463 0.39323 0.0
H502 H 0.73754 0.11432 0.43467 0.0
H503 H 0.7653 0.08072 0.48625 0.0
H504 H 0.88905 0.11545 0.54001 0.0
H505 H 0.89757 0.16498 0.49744 0.0
C506 C 0.84084 0.18047 0.44325 0.0
C507 C 0.80833 0.18558 0.41641 0.0
C508 C 0.83634 0.15166 0.46736 0.0
C509 C 0.7712 0.16138 0.41367 0.0
C510 C 0.76652 0.13255 0.43735 0.0
C511 C 0.79422 0.09894 0.48859 0.0
C512 C 0.82651 0.09425 0.51626 0.0
C513 C 0.79885 0.12751 0.46434 0.0
C514 C 0.86369 0.11837 0.51897 0.0
C515 C 0.86858 0.14673 0.49466 0.0
H516 H 0.28239 0.2793 0.91668 0.0
H517 H 0.30736 0.4086 0.95236 0.0
H518 H 0.37031 0.41174 0.99665 0.0
H519 H 0.42047 0.37832 0.02005 0.0
H520 H 0.39685 0.2492 0.98178 0.0
H521 H 0.3315 0.24558 0.94261 0.0
C522 C 0.30152 0.3082 0.93432 0.0
C523 C 0.29018 0.3437 0.93084 0.0
C524 C 0.33826 0.30988 0.95844 0.0
C525 C 0.31501 0.38078 0.95466 0.0
C526 C 0.3513 0.38263 0.97955 0.0
C527 C 0.40115 0.34933 0.00302 0.0
C528 C 0.41384 0.31409 0.00336 0.0
C529 C 0.36362 0.34747 0.98071 0.0
C530 C 0.38804 0.2768 0.98172 0.0
C531 C 0.35061 0.27471 0.95947 0.0
H532 H 0.30897 0.92113 0.31127 0.0
H533 H 0.18881 0.86147 0.29875 0.0
H534 H 0.1813 0.91978 0.34644 0.0
H535 H 0.21085 0.98473 0.39731 0.0
H536 H 0.33158 0.0434 0.41077 0.0
H537 H 0.3366 0.98897 0.35646 0.0
C538 C 0.28096 0.92128 0.31828 0.0
C539 C 0.24967 0.88695 0.30202 0.0
C540 C 0.27696 0.95467 0.34608 0.0
C541 C 0.21354 0.88739 0.31157 0.0
C542 C 0.20918 0.92071 0.33872 0.0
C543 C 0.23802 0.98594 0.38778 0.0
C544 C 0.27086 0.01776 0.40841 0.0
C545 C 0.24099 0.95409 0.35707 0.0
C546 C 0.30592 0.01894 0.39572 0.0
C547 C 0.30889 0.98781 0.36469 0.0
H548 H 0.71721 0.88069 0.87406 0.0
H549 H 0.78495 0.83729 0.96818 0.0
H550 H 0.73235 0.83031 0.00439 0.0
H551 H 0.6649 0.83096 0.00608 0.0
H552 H 0.59903 0.87909 0.9159 0.0
H553 H 0.65378 0.89115 0.88212 0.0
C554 C 0.7212 0.87076 0.9031 0.0
C555 C 0.75506 0.8587 0.91759 0.0
C556 C 0.69112 0.86773 0.92456 0.0
C557 C 0.75893 0.84553 0.95523 0.0
C558 C 0.72893 0.84183 0.97629 0.0
C559 C 0.66302 0.84495 0.9796 0.0
C560 C 0.62832 0.85426 0.96336 0.0
C561 C 0.69457 0.85191 0.96068 0.0
C562 C 0.62578 0.87217 0.92904 0.0
C563 C 0.65692 0.8787 0.90961 0.0
loop_
_geom_bond_atom_site_label_1
_geom_bond_atom_site_label_2
_geom_bond_distance
_geom_bond_site_symmetry_2
_ccdc_geom_bond_type
H0 C5 0.930 . S
H1 C8 0.930 . S
H2 C10 0.930 . S
H3 C4 1.016 . S
C4 H3 1.016 . S
C4 N11 1.286 . S
C5 H0 0.930 . S
C5 C6 1.397 . S
C5 C7 1.361 . S
C6 C5 1.397 . S
C6 C10 1.390 . S
C7 C5 1.361 . S
C7 C8 1.393 . S
C7 N11 1.413 . S
C8 H1 0.930 . S
C8 C7 1.393 . S
C8 C9 1.399 . S
C9 C8 1.399 . S
C9 C10 1.381 . S
C10 H2 0.930 . S
C10 C6 1.390 . S
C10 C9 1.381 . S
N11 C4 1.286 . S
N11 C7 1.413 . S
H12 C17 0.930 . S
H13 C20 0.930 . S
H14 C22 0.930 . S
H15 C16 1.016 . S
C16 H15 1.016 . S
C16 N23 1.286 . S
C17 H12 0.930 . S
C17 C18 1.397 . S
C17 C19 1.361 . S
C18 C17 1.397 . S
C18 C22 1.390 . S
C19 C17 1.361 . S
C19 C20 1.393 . S
C19 N23 1.413 . S
C20 H13 0.930 . S
C20 C19 1.393 . S
C20 C21 1.399 . S
C21 C20 1.399 . S
C21 C22 1.381 . S
C22 H14 0.930 . S
C22 C18 1.390 . S
C22 C21 1.381 . S
N23 C16 1.286 . S
N23 C19 1.413 . S
H24 C29 0.930 . S
H25 C32 0.930 . S
H26 C34 0.930 . S
H27 C28 1.016 . S
C28 H27 1.016 . S
C28 N35 1.286 . S
C29 H24 0.930 . S
C29 C30 1.397 . S
C29 C31 1.361 . S
C30 C29 1.397 . S
C30 C34 1.390 . S
C31 C29 1.361 . S
C31 C32 1.393 . S
C31 N35 1.413 . S
C32 H25 0.930 . S
C32 C31 1.393 . S
C32 C33 1.399 . S
C33 C32 1.399 . S
C33 C34 1.381 . S
C34 H26 0.930 . S
C34 C30 1.390 . S
C34 C33 1.381 . S
N35 C28 1.286 . S
N35 C31 1.413 . S
H36 C41 0.930 . S
H37 C44 0.930 . S
H38 C46 0.930 . S
H39 C40 1.016 . S
C40 H39 1.016 . S
C40 N47 1.286 . S
C41 H36 0.930 . S
C41 C42 1.397 . S
C41 C43 1.361 . S
C42 C41 1.397 . S
C42 C46 1.390 . S
C43 C41 1.361 . S
C43 C44 1.393 . S
C43 N47 1.413 . S
C44 H37 0.930 . S
C44 C43 1.393 . S
C44 C45 1.399 . S
C45 C44 1.399 . S
C45 C46 1.381 . S
C46 H38 0.930 . S
C46 C42 1.390 . S
C46 C45 1.381 . S
N47 C40 1.286 . S
N47 C43 1.413 . S
H48 C53 0.930 . S
H49 C56 0.930 . S
H50 C58 0.930 . S
H51 C52 1.016 . S
C52 H51 1.016 . S
C52 N59 1.286 . S
C53 H48 0.930 . S
C53 C54 1.397 . S
C53 C55 1.361 . S
C54 C53 1.397 . S
C54 C58 1.390 . S
C55 C53 1.361 . S
C55 C56 1.393 . S
C55 N59 1.413 . S
C56 H49 0.930 . S
C56 C55 1.393 . S
C56 C57 1.399 . S
C57 C56 1.399 . S
C57 C58 1.381 . S
C58 H50 0.930 . S
C58 C54 1.390 . S
C58 C57 1.381 . S
N59 C52 1.286 . S
N59 C55 1.413 . S
H60 C65 0.930 . S
H61 C68 0.930 . S
H62 C70 0.930 . S
H63 C64 1.016 . S
C64 H63 1.016 . S
C64 N71 1.286 . S
C65 H60 0.930 . S
C65 C66 1.397 . S
C65 C67 1.361 . S
C66 C65 1.397 . S
C66 C70 1.390 . S
C67 C65 1.361 . S
C67 C68 1.393 . S
C67 N71 1.413 . S
C68 H61 0.930 . S
C68 C67 1.393 . S
C68 C69 1.399 . S
C69 C68 1.399 . S
C69 C70 1.381 . S
C70 H62 0.930 . S
C70 C66 1.390 . S
C70 C69 1.381 . S
N71 C64 1.286 . S
N71 C67 1.413 . S
H72 C77 0.930 . S
H73 C80 0.930 . S
H74 C82 0.930 . S
H75 C76 1.016 . S
C76 H75 1.016 . S
C76 N83 1.286 . S
C77 H72 0.930 . S
C77 C78 1.397 . S
C77 C79 1.361 . S
C78 C77 1.397 . S
C78 C82 1.390 . S
C79 C77 1.361 . S
C79 C80 1.393 . S
C79 N83 1.413 . S
C80 H73 0.930 . S
C80 C79 1.393 . S
C80 C81 1.399 . S
C81 C80 1.399 . S
C81 C82 1.381 . S
C82 H74 0.930 . S
C82 C78 1.390 . S
C82 C81 1.381 . S
N83 C76 1.286 . S
N83 C79 1.413 . S
H84 C89 0.930 . S
H85 C92 0.930 . S
H86 C94 0.930 . S
H87 C88 1.016 . S
C88 H87 1.016 . S
C88 N95 1.286 . S
C89 H84 0.930 . S
C89 C90 1.397 . S
C89 C91 1.361 . S
C90 C89 1.397 . S
C90 C94 1.390 . S
C91 C89 1.361 . S
C91 C92 1.393 . S
C91 N95 1.413 . S
C92 H85 0.930 . S
C92 C91 1.393 . S
C92 C93 1.399 . S
C93 C92 1.399 . S
C93 C94 1.381 . S
C94 H86 0.930 . S
C94 C90 1.390 . S
C94 C93 1.381 . S
N95 C88 1.286 . S
N95 C91 1.413 . S
C96 O98 1.247 . S
C96 O100 1.258 . S
C97 O104 1.247 . S
C97 O105 1.258 . S
O98 C96 1.247 . S
O98 Zn99 2.028 1_655 S
Zn99 O98 2.028 1_455 S
Zn99 O103 2.035 . S
Zn99 O105 2.035 . S
Zn99 O106 2.028 . S
O100 C96 1.258 . S
O100 Zn101 2.035 1_655 S
Zn101 O100 2.035 1_455 S
Zn101 O102 2.028 . S
Zn101 O104 2.028 . S
Zn101 O107 2.035 1_455 S
O102 Zn101 2.028 . S
O102 C108 1.247 . S
O103 Zn99 2.035 . S
O103 C108 1.258 . S
O104 C97 1.247 . S
O104 Zn101 2.028 . S
O105 C97 1.258 . S
O105 Zn99 2.035 . S
O106 Zn99 2.028 . S
O106 C109 1.247 1_455 S
O107 Zn101 2.035 1_655 S
O107 C109 1.258 . S
C108 O102 1.247 . S
C108 O103 1.258 . S
C109 O106 1.247 1_655 S
C109 O107 1.258 . S
C110 O112 1.247 . S
C110 O114 1.258 . S
C111 O118 1.247 . S
C111 O119 1.258 . S
O112 C110 1.247 . S
O112 Zn113 2.028 . S
Zn113 O112 2.028 . S
Zn113 O117 2.035 . S
Zn113 O119 2.035 . S
Zn113 O120 2.028 . S
O114 C110 1.258 . S
O114 Zn115 2.036 . S
Zn115 O114 2.036 . S
Zn115 O116 2.028 . S
Zn115 O118 2.028 . S
Zn115 O121 2.035 . S
O116 Zn115 2.028 . S
O116 C122 1.247 . S
O117 Zn113 2.035 . S
O117 C122 1.258 . S
O118 C111 1.247 . S
O118 Zn115 2.028 . S
O119 C111 1.258 . S
O119 Zn113 2.035 . S
O120 Zn113 2.028 . S
O120 C123 1.247 . S
O121 Zn115 2.035 . S
O121 C123 1.258 . S
C122 O116 1.247 . S
C122 O117 1.258 . S
C123 O120 1.247 . S
C123 O121 1.258 . S
C124 O126 1.247 . S
C124 O128 1.258 . S
C125 O132 1.247 . S
C125 O133 1.258 . S
O126 C124 1.247 . S
O126 Zn127 2.028 . S
Zn127 O126 2.028 . S
Zn127 O131 2.035 1_565 S
Zn127 O133 2.035 1_565 S
Zn127 O134 2.028 . S
O128 C124 1.258 . S
O128 Zn129 2.035 1_565 S
Zn129 O128 2.035 1_545 S
Zn129 O130 2.028 . S
Zn129 O132 2.028 . S
Zn129 O135 2.035 1_545 S
O130 Zn129 2.028 . S
O130 C136 1.247 . S
O131 Zn127 2.035 1_545 S
O131 C136 1.258 . S
O132 C125 1.247 . S
O132 Zn129 2.028 . S
O133 C125 1.258 . S
O133 Zn127 2.035 1_545 S
O134 Zn127 2.028 . S
O134 C137 1.247 . S
O135 Zn129 2.035 1_565 S
O135 C137 1.258 . S
C136 O130 1.247 . S
C136 O131 1.258 . S
C137 O134 1.247 . S
C137 O135 1.258 . S
C138 O140 1.247 . S
C138 O142 1.258 . S
C139 O146 1.247 . S
C139 O147 1.258 . S
O140 C138 1.247 . S
O140 Zn141 2.028 1_554 S
Zn141 O140 2.028 1_556 S
Zn141 O145 2.035 1_556 S
Zn141 O147 2.035 . S
Zn141 O148 2.028 . S
O142 C138 1.258 . S
O142 Zn143 2.035 . S
Zn143 O142 2.035 . S
Zn143 O144 2.028 . S
Zn143 O146 2.028 1_554 S
Zn143 O149 2.035 1_554 S
O144 Zn143 2.028 . S
O144 C150 1.247 . S
O145 Zn141 2.035 1_554 S
O145 C150 1.258 . S
O146 C139 1.247 . S
O146 Zn143 2.028 1_556 S
O147 C139 1.258 . S
O147 Zn141 2.035 . S
O148 Zn141 2.028 . S
O148 C151 1.247 . S
O149 Zn143 2.035 1_556 S
O149 C151 1.258 . S
C150 O144 1.247 . S
C150 O145 1.258 . S
C151 O148 1.247 . S
C151 O149 1.258 . S
C152 O154 1.247 . S
C152 O156 1.258 1_565 S
C153 O160 1.247 . S
C153 O161 1.258 . S
O154 C152 1.247 . S
O154 Zn155 2.028 1_565 S
Zn155 O154 2.028 1_545 S
Zn155 O159 2.035 . S
Zn155 O161 2.035 . S
Zn155 O162 2.028 1_545 S
O156 C152 1.258 1_545 S
O156 Zn157 2.035 . S
Zn157 O156 2.035 . S
Zn157 O158 2.028 . S
Zn157 O160 2.028 . S
Zn157 O163 2.035 . S
O158 Zn157 2.028 . S
O158 C164 1.247 . S
O159 Zn155 2.035 . S
O159 C164 1.258 . S
O160 C153 1.247 . S
O160 Zn157 2.028 . S
O161 C153 1.258 . S
O161 Zn155 2.035 . S
O162 Zn155 2.028 1_565 S
O162 C165 1.247 . S
O163 Zn157 2.035 . S
O163 C165 1.258 1_545 S
C164 O158 1.247 . S
C164 O159 1.258 . S
C165 O162 1.247 . S
C165 O163 1.258 1_565 S
C166 O168 1.247 . S
C166 O170 1.258 . S
C167 O174 1.247 . S
C167 O175 1.258 . S
O168 C166 1.247 . S
O168 Zn169 2.028 . S
Zn169 O168 2.028 . S
Zn169 O173 2.035 . S
Zn169 O175 2.035 . S
Zn169 O176 2.028 . S
O170 C166 1.258 . S
O170 Zn171 2.035 . S
Zn171 O170 2.035 . S
Zn171 O172 2.028 . S
Zn171 O174 2.028 . S
Zn171 O177 2.035 . S
O172 Zn171 2.028 . S
O172 C178 1.247 . S
O173 Zn169 2.035 . S
O173 C178 1.258 . S
O174 C167 1.247 . S
O174 Zn171 2.028 . S
O175 C167 1.258 . S
O175 Zn169 2.035 . S
O176 Zn169 2.028 . S
O176 C179 1.247 . S
O177 Zn171 2.035 . S
O177 C179 1.258 . S
C178 O172 1.247 . S
C178 O173 1.258 . S
C179 O176 1.247 . S
C179 O177 1.258 . S
H180 C186 0.930 . S
H181 C189 0.930 . S
H182 C190 0.930 . S
H183 C191 0.930 . S
H184 C194 0.930 . S
H185 C195 0.930 . S
C186 H180 0.930 . S
C186 C187 1.355 . S
C186 C188 1.415 . S
C187 C186 1.355 . S
C187 C189 1.419 . S
C188 C186 1.415 . S
C188 C193 1.425 . S
C188 C195 1.409 . S
C189 H181 0.930 . S
C189 C187 1.419 . S
C189 C190 1.362 . S
C190 H182 0.930 . S
C190 C189 1.362 . S
C190 C193 1.409 . S
C191 H183 0.930 . S
C191 C192 1.355 . S
C191 C193 1.415 . S
C192 C191 1.355 . S
C192 C194 1.419 . S
C193 C188 1.425 . S
C193 C190 1.409 . S
C193 C191 1.415 . S
C194 H184 0.930 . S
C194 C192 1.419 . S
C194 C195 1.362 . S
C195 H185 0.930 . S
C195 C188 1.409 . S
C195 C194 1.362 . S
H196 C202 0.930 . S
H197 C205 0.930 . S
H198 C206 0.930 . S
H199 C207 0.930 . S
H200 C210 0.930 . S
H201 C211 0.930 . S
C202 H196 0.930 . S
C202 C203 1.355 . S
C202 C204 1.415 . S
C203 C202 1.355 . S
C203 C205 1.419 . S
C204 C202 1.415 . S
C204 C209 1.425 . S
C204 C211 1.409 . S
C205 H197 0.930 . S
C205 C203 1.419 . S
C205 C206 1.362 . S
C206 H198 0.930 . S
C206 C205 1.362 . S
C206 C209 1.409 . S
C207 H199 0.930 . S
C207 C208 1.355 . S
C207 C209 1.415 . S
C208 C207 1.355 . S
C208 C210 1.419 . S
C209 C204 1.425 . S
C209 C206 1.409 . S
C209 C207 1.415 . S
C210 H200 0.930 . S
C210 C208 1.419 . S
C210 C211 1.362 . S
C211 H201 0.930 . S
C211 C204 1.409 . S
C211 C210 1.362 . S
H212 C218 0.930 . S
H213 C221 0.930 . S
H214 C222 0.930 . S
H215 C223 0.930 . S
H216 C226 0.930 . S
H217 C227 0.930 . S
C218 H212 0.930 . S
C218 C219 1.355 . S
C218 C220 1.415 . S
C219 C218 1.355 . S
C219 C221 1.419 . S
C220 C218 1.415 . S
C220 C225 1.425 . S
C220 C227 1.409 . S
C221 H213 0.930 . S
C221 C219 1.419 . S
C221 C222 1.362 . S
C222 H214 0.930 . S
C222 C221 1.362 . S
C222 C225 1.409 . S
C223 H215 0.930 . S
C223 C224 1.355 . S
C223 C225 1.415 . S
C224 C223 1.355 . S
C224 C226 1.419 . S
C225 C220 1.425 . S
C225 C222 1.409 . S
C225 C223 1.415 . S
C226 H216 0.930 . S
C226 C224 1.419 . S
C226 C227 1.362 . S
C227 H217 0.930 . S
C227 C220 1.409 . S
C227 C226 1.362 . S
H228 C234 0.930 . S
H229 C237 0.930 . S
H230 C238 0.930 . S
H231 C239 0.930 . S
H232 C242 0.930 . S
H233 C243 0.930 . S
C234 H228 0.930 . S
C234 C235 1.355 . S
C234 C236 1.415 . S
C235 C234 1.355 . S
C235 C237 1.419 . S
C236 C234 1.415 . S
C236 C241 1.425 . S
C236 C243 1.409 . S
C237 H229 0.930 . S
C237 C235 1.419 . S
C237 C238 1.362 . S
C238 H230 0.930 . S
C238 C237 1.362 . S
C238 C241 1.409 . S
C239 H231 0.930 . S
C239 C240 1.355 . S
C239 C241 1.415 . S
C240 C239 1.355 . S
C240 C242 1.419 . S
C241 C236 1.425 . S
C241 C238 1.409 . S
C241 C239 1.415 . S
C242 H232 0.930 . S
C242 C240 1.419 . S
C242 C243 1.362 . S
C243 H233 0.930 . S
C243 C236 1.409 . S
C243 C242 1.362 . S
H244 C250 0.930 . S
H245 C253 0.930 . S
H246 C254 0.930 . S
H247 C255 0.930 . S
H248 C258 0.930 . S
H249 C259 0.930 . S
C250 H244 0.930 . S
C250 C251 1.355 . S
C250 C252 1.415 . S
C251 C250 1.355 . S
C251 C253 1.419 . S
C252 C250 1.415 . S
C252 C257 1.425 . S
C252 C259 1.409 . S
C253 H245 0.930 . S
C253 C251 1.419 . S
C253 C254 1.362 . S
C254 H246 0.930 . S
C254 C253 1.362 . S
C254 C257 1.409 . S
C255 H247 0.930 . S
C255 C256 1.355 . S
C255 C257 1.415 . S
C256 C255 1.355 . S
C256 C258 1.419 . S
C257 C252 1.425 . S
C257 C254 1.409 . S
C257 C255 1.415 . S
C258 H248 0.930 . S
C258 C256 1.419 . S
C258 C259 1.362 . S
C259 H249 0.930 . S
C259 C252 1.409 . S
C259 C258 1.362 . S
H260 C266 0.930 . S
H261 C269 0.930 . S
H262 C270 0.930 . S
H263 C271 0.930 . S
H264 C274 0.930 . S
H265 C275 0.930 . S
C266 H260 0.930 . S
C266 C267 1.355 . S
C266 C268 1.415 . S
C267 C266 1.355 . S
C267 C269 1.419 . S
C268 C266 1.415 . S
C268 C273 1.425 . S
C268 C275 1.409 . S
C269 H261 0.930 . S
C269 C267 1.419 . S
C269 C270 1.362 . S
C270 H262 0.930 . S
C270 C269 1.362 . S
C270 C273 1.409 . S
C271 H263 0.930 . S
C271 C272 1.355 . S
C271 C273 1.415 . S
C272 C271 1.355 . S
C272 C274 1.419 . S
C273 C268 1.425 . S
C273 C270 1.409 . S
C273 C271 1.415 . S
C274 H264 0.930 . S
C274 C272 1.419 . S
C274 C275 1.362 . S
C275 H265 0.930 . S
C275 C268 1.409 . S
C275 C274 1.362 . S
H276 C282 0.930 . S
H277 C285 0.930 . S
H278 C286 0.930 . S
H279 C287 0.930 . S
H280 C290 0.930 . S
H281 C291 0.930 . S
C282 H276 0.930 . S
C282 C283 1.355 . S
C282 C284 1.415 . S
C283 C282 1.355 . S
C283 C285 1.419 . S
C284 C282 1.415 . S
C284 C289 1.425 . S
C284 C291 1.409 . S
C285 H277 0.930 . S
C285 C283 1.419 . S
C285 C286 1.362 . S
C286 H278 0.930 . S
C286 C285 1.362 . S
C286 C289 1.409 . S
C287 H279 0.930 . S
C287 C288 1.355 . S
C287 C289 1.415 . S
C288 C287 1.355 . S
C288 C290 1.419 . S
C289 C284 1.425 . S
C289 C286 1.409 . S
C289 C287 1.415 . S
C290 H280 0.930 . S
C290 C288 1.419 . S
C290 C291 1.362 . S
C291 H281 0.930 . S
C291 C284 1.409 . S
C291 C290 1.362 . S
H292 C298 0.930 1_554 S
H293 C301 0.930 . S
H294 C302 0.930 . S
H295 C303 0.931 . S
H296 C306 0.930 . S
H297 C307 0.930 . S
C298 H292 0.930 1_556 S
C298 C299 1.355 . S
C298 C300 1.415 1_556 S
C299 C298 1.355 . S
C299 C301 1.419 . S
C300 C298 1.415 1_554 S
C300 C305 1.425 1_554 S
C300 C307 1.409 . S
C301 H293 0.930 . S
C301 C299 1.419 . S
C301 C302 1.362 . S
C302 H294 0.930 . S
C302 C301 1.362 . S
C302 C305 1.409 . S
C303 H295 0.931 . S
C303 C304 1.355 . S
C303 C305 1.415 1_554 S
C304 C303 1.355 . S
C304 C306 1.419 . S
C305 C300 1.425 1_556 S
C305 C302 1.409 . S
C305 C303 1.415 1_556 S
C306 H296 0.930 . S
C306 C304 1.419 . S
C306 C307 1.362 . S
C307 H297 0.930 . S
C307 C300 1.409 . S
C307 C306 1.362 . S
H308 C314 0.930 . S
H309 C317 0.930 . S
H310 C318 0.930 . S
H311 C319 0.930 . S
H312 C322 0.930 . S
H313 C323 0.930 . S
C314 H308 0.930 . S
C314 C315 1.355 . S
C314 C316 1.415 . S
C315 C314 1.355 . S
C315 C317 1.419 . S
C316 C314 1.415 . S
C316 C321 1.425 . S
C316 C323 1.409 . S
C317 H309 0.930 . S
C317 C315 1.419 . S
C317 C318 1.362 . S
C318 H310 0.930 . S
C318 C317 1.362 . S
C318 C321 1.409 . S
C319 H311 0.930 . S
C319 C320 1.355 . S
C319 C321 1.415 . S
C320 C319 1.355 . S
C320 C322 1.419 . S
C321 C316 1.425 . S
C321 C318 1.409 . S
C321 C319 1.415 . S
C322 H312 0.930 . S
C322 C320 1.419 . S
C322 C323 1.362 . S
C323 H313 0.930 . S
C323 C316 1.409 . S
C323 C322 1.362 . S
H324 C330 0.930 . S
H325 C333 0.930 . S
H326 C334 0.930 . S
H327 C335 0.930 . S
H328 C338 0.930 . S
H329 C339 0.930 . S
C330 H324 0.930 . S
C330 C331 1.355 . S
C330 C332 1.415 . S
C331 C330 1.355 . S
C331 C333 1.419 . S
C332 C330 1.415 . S
C332 C337 1.425 . S
C332 C339 1.409 . S
C333 H325 0.930 . S
C333 C331 1.419 . S
C333 C334 1.362 . S
C334 H326 0.930 . S
C334 C333 1.362 . S
C334 C337 1.409 . S
C335 H327 0.930 . S
C335 C336 1.355 . S
C335 C337 1.415 . S
C336 C335 1.355 . S
C336 C338 1.419 . S
C337 C332 1.425 . S
C337 C334 1.409 . S
C337 C335 1.415 . S
C338 H328 0.930 . S
C338 C336 1.419 . S
C338 C339 1.362 . S
C339 H329 0.930 . S
C339 C332 1.409 . S
C339 C338 1.362 . S
H340 C346 0.930 . S
H341 C349 0.930 . S
H342 C350 0.930 . S
H343 C351 0.930 . S
H344 C354 0.930 . S
H345 C355 0.930 . S
C346 H340 0.930 . S
C346 C347 1.355 . S
C346 C348 1.415 . S
C347 C346 1.355 . S
C347 C349 1.419 . S
C348 C346 1.415 . S
C348 C353 1.425 . S
C348 C355 1.409 . S
C349 H341 0.930 . S
C349 C347 1.419 . S
C349 C350 1.362 . S
C350 H342 0.930 . S
C350 C349 1.362 . S
C350 C353 1.409 . S
C351 H343 0.930 . S
C351 C352 1.355 . S
C351 C353 1.415 . S
C352 C351 1.355 . S
C352 C354 1.419 . S
C353 C348 1.425 . S
C353 C350 1.409 . S
C353 C351 1.415 . S
C354 H344 0.930 . S
C354 C352 1.419 . S
C354 C355 1.362 . S
C355 H345 0.930 . S
C355 C348 1.409 . S
C355 C354 1.362 . S
H356 C362 0.930 . S
H357 C365 0.930 . S
H358 C366 0.930 . S
H359 C367 0.930 . S
H360 C370 0.930 . S
H361 C371 0.930 . S
C362 H356 0.930 . S
C362 C363 1.355 . S
C362 C364 1.415 . S
C363 C362 1.355 . S
C363 C365 1.419 . S
C364 C362 1.415 . S
C364 C369 1.425 . S
C364 C371 1.409 . S
C365 H357 0.930 . S
C365 C363 1.419 . S
C365 C366 1.362 . S
C366 H358 0.930 . S
C366 C365 1.362 . S
C366 C369 1.409 . S
C367 H359 0.930 . S
C367 C368 1.355 . S
C367 C369 1.415 . S
C368 C367 1.355 . S
C368 C370 1.419 . S
C369 C364 1.425 . S
C369 C366 1.409 . S
C369 C367 1.415 . S
C370 H360 0.930 . S
C370 C368 1.419 . S
C370 C371 1.362 . S
C371 H361 0.930 . S
C371 C364 1.409 . S
C371 C370 1.362 . S
H372 C378 0.930 . S
H373 C381 0.930 . S
H374 C382 0.930 . S
H375 C383 0.930 . S
H376 C386 0.928 1_455 S
H377 C387 0.930 . S
C378 H372 0.930 . S
C378 C379 1.355 . S
C378 C380 1.415 . S
C379 C378 1.355 . S
C379 C381 1.419 . S
C380 C378 1.415 . S
C380 C385 1.425 . S
C380 C387 1.409 . S
C381 H373 0.930 . S
C381 C379 1.419 . S
C381 C382 1.362 . S
C382 H374 0.930 . S
C382 C381 1.362 . S
C382 C385 1.409 . S
C383 H375 0.930 . S
C383 C384 1.355 . S
C383 C385 1.415 . S
C384 C383 1.355 . S
C384 C386 1.419 . S
C385 C380 1.425 . S
C385 C382 1.409 . S
C385 C383 1.415 . S
C386 H376 0.928 1_655 S
C386 C384 1.419 . S
C386 C387 1.364 . S
C387 H377 0.930 . S
C387 C380 1.409 . S
C387 C386 1.364 . S
H388 C394 0.930 . S
H389 C397 0.930 . S
H390 C398 0.930 . S
H391 C399 0.930 . S
H392 C402 0.930 . S
H393 C403 0.930 . S
C394 H388 0.930 . S
C394 C395 1.355 . S
C394 C396 1.415 . S
C395 C394 1.355 . S
C395 C397 1.419 . S
C396 C394 1.415 . S
C396 C401 1.425 . S
C396 C403 1.409 . S
C397 H389 0.930 . S
C397 C395 1.419 . S
C397 C398 1.362 . S
C398 H390 0.930 . S
C398 C397 1.362 . S
C398 C401 1.409 . S
C399 H391 0.930 . S
C399 C400 1.355 . S
C399 C401 1.415 . S
C400 C399 1.355 . S
C400 C402 1.419 . S
C401 C396 1.425 . S
C401 C398 1.409 . S
C401 C399 1.415 . S
C402 H392 0.930 . S
C402 C400 1.419 . S
C402 C403 1.362 . S
C403 H393 0.930 . S
C403 C396 1.409 . S
C403 C402 1.362 . S
H404 C410 0.930 . S
H405 C413 0.930 . S
H406 C414 0.930 . S
H407 C415 0.930 . S
H408 C418 0.930 . S
H409 C419 0.930 . S
C410 H404 0.930 . S
C410 C411 1.355 . S
C410 C412 1.415 . S
C411 C410 1.355 . S
C411 C413 1.419 . S
C412 C410 1.415 . S
C412 C417 1.425 . S
C412 C419 1.409 . S
C413 H405 0.930 . S
C413 C411 1.419 . S
C413 C414 1.362 . S
C414 H406 0.930 . S
C414 C413 1.362 . S
C414 C417 1.409 . S
C415 H407 0.930 . S
C415 C416 1.355 . S
C415 C417 1.415 . S
C416 C415 1.355 . S
C416 C418 1.419 . S
C417 C412 1.425 . S
C417 C414 1.409 . S
C417 C415 1.415 . S
C418 H408 0.930 . S
C418 C416 1.419 . S
C418 C419 1.362 . S
C419 H409 0.930 . S
C419 C412 1.409 . S
C419 C418 1.362 . S
H420 C426 0.930 . S
H421 C429 0.930 . S
H422 C430 0.930 . S
H423 C431 0.930 . S
H424 C434 0.930 . S
H425 C435 0.930 . S
C426 H420 0.930 . S
C426 C427 1.355 . S
C426 C428 1.415 . S
C427 C426 1.355 . S
C427 C429 1.419 . S
C428 C426 1.415 . S
C428 C433 1.425 . S
C428 C435 1.409 . S
C429 H421 0.930 . S
C429 C427 1.419 . S
C429 C430 1.362 . S
C430 H422 0.930 . S
C430 C429 1.362 . S
C430 C433 1.409 . S
C431 H423 0.930 . S
C431 C432 1.355 . S
C431 C433 1.415 . S
C432 C431 1.355 . S
C432 C434 1.419 . S
C433 C428 1.425 . S
C433 C430 1.409 . S
C433 C431 1.415 . S
C434 H424 0.930 . S
C434 C432 1.419 . S
C434 C435 1.362 . S
C435 H425 0.930 . S
C435 C428 1.409 . S
C435 C434 1.362 . S
H436 C442 0.930 . S
H437 C445 0.930 . S
H438 C446 0.930 . S
H439 C447 0.930 . S
H440 C450 0.930 . S
H441 C451 0.930 . S
C442 H436 0.930 . S
C442 C443 1.355 . S
C442 C444 1.415 . S
C443 C442 1.355 . S
C443 C445 1.419 . S
C444 C442 1.415 . S
C444 C449 1.425 . S
C444 C451 1.409 . S
C445 H437 0.930 . S
C445 C443 1.419 . S
C445 C446 1.362 . S
C446 H438 0.930 . S
C446 C445 1.362 . S
C446 C449 1.409 . S
C447 H439 0.930 . S
C447 C448 1.355 . S
C447 C449 1.415 . S
C448 C447 1.355 . S
C448 C450 1.419 . S
C449 C444 1.425 . S
C449 C446 1.409 . S
C449 C447 1.415 . S
C450 H440 0.930 . S
C450 C448 1.419 . S
C450 C451 1.362 . S
C451 H441 0.930 . S
C451 C444 1.409 . S
C451 C450 1.362 . S
H452 C458 0.930 . S
H453 C461 0.930 . S
H454 C462 0.930 . S
H455 C463 0.930 . S
H456 C466 0.930 . S
H457 C467 0.930 . S
C458 H452 0.930 . S
C458 C459 1.355 . S
C458 C460 1.415 . S
C459 C458 1.355 . S
C459 C461 1.419 . S
C460 C458 1.415 . S
C460 C465 1.425 . S
C460 C467 1.409 . S
C461 H453 0.930 . S
C461 C459 1.419 . S
C461 C462 1.362 . S
C462 H454 0.930 . S
C462 C461 1.362 . S
C462 C465 1.409 . S
C463 H455 0.930 . S
C463 C464 1.355 . S
C463 C465 1.415 . S
C464 C463 1.355 . S
C464 C466 1.419 . S
C465 C460 1.425 . S
C465 C462 1.409 . S
C465 C463 1.415 . S
C466 H456 0.930 . S
C466 C464 1.419 . S
C466 C467 1.362 . S
C467 H457 0.930 . S
C467 C460 1.409 . S
C467 C466 1.362 . S
H468 C474 0.930 . S
H469 C477 0.930 . S
H470 C478 0.930 . S
H471 C479 0.930 . S
H472 C482 0.930 . S
H473 C483 0.930 . S
C474 H468 0.930 . S
C474 C475 1.355 . S
C474 C476 1.415 . S
C475 C474 1.355 . S
C475 C477 1.419 . S
C476 C474 1.415 . S
C476 C481 1.425 . S
C476 C483 1.409 . S
C477 H469 0.930 . S
C477 C475 1.419 . S
C477 C478 1.362 . S
C478 H470 0.930 . S
C478 C477 1.362 . S
C478 C481 1.409 . S
C479 H471 0.930 . S
C479 C480 1.355 . S
C479 C481 1.415 . S
C480 C479 1.355 . S
C480 C482 1.419 . S
C481 C476 1.425 . S
C481 C478 1.409 . S
C481 C479 1.415 . S
C482 H472 0.930 . S
C482 C480 1.419 . S
C482 C483 1.362 . S
C483 H473 0.930 . S
C483 C476 1.409 . S
C483 C482 1.362 . S
H484 C490 0.930 . S
H485 C493 0.930 . S
H486 C494 0.930 . S
H487 C495 0.930 . S
H488 C498 0.930 . S
H489 C499 0.930 . S
C490 H484 0.930 . S
C490 C491 1.355 . S
C490 C492 1.415 . S
C491 C490 1.355 . S
C491 C493 1.419 . S
C492 C490 1.415 . S
C492 C497 1.425 . S
C492 C499 1.409 . S
C493 H485 0.930 . S
C493 C491 1.419 . S
C493 C494 1.362 . S
C494 H486 0.930 . S
C494 C493 1.362 . S
C494 C497 1.409 . S
C495 H487 0.930 . S
C495 C496 1.355 . S
C495 C497 1.415 . S
C496 C495 1.355 . S
C496 C498 1.419 . S
C497 C492 1.425 . S
C497 C494 1.409 . S
C497 C495 1.415 . S
C498 H488 0.930 . S
C498 C496 1.419 . S
C498 C499 1.362 . S
C499 H489 0.930 . S
C499 C492 1.409 . S
C499 C498 1.362 . S
H500 C506 0.930 . S
H501 C509 0.930 . S
H502 C510 0.930 . S
H503 C511 0.930 . S
H504 C514 0.930 . S
H505 C515 0.930 . S
C506 H500 0.930 . S
C506 C507 1.355 . S
C506 C508 1.415 . S
C507 C506 1.355 . S
C507 C509 1.419 . S
C508 C506 1.415 . S
C508 C513 1.425 . S
C508 C515 1.409 . S
C509 H501 0.930 . S
C509 C507 1.419 . S
C509 C510 1.362 . S
C510 H502 0.930 . S
C510 C509 1.362 . S
C510 C513 1.409 . S
C511 H503 0.930 . S
C511 C512 1.355 . S
C511 C513 1.415 . S
C512 C511 1.355 . S
C512 C514 1.419 . S
C513 C508 1.425 . S
C513 C510 1.409 . S
C513 C511 1.415 . S
C514 H504 0.930 . S
C514 C512 1.419 . S
C514 C515 1.362 . S
C515 H505 0.930 . S
C515 C508 1.409 . S
C515 C514 1.362 . S
H516 C522 0.930 . S
H517 C525 0.930 . S
H518 C526 0.930 . S
H519 C527 0.930 . S
H520 C530 0.930 . S
H521 C531 0.930 1_554 S
C522 H516 0.930 . S
C522 C523 1.355 . S
C522 C524 1.415 . S
C523 C522 1.355 . S
C523 C525 1.419 . S
C524 C522 1.415 . S
C524 C529 1.425 . S
C524 C531 1.409 . S
C525 H517 0.930 . S
C525 C523 1.419 . S
C525 C526 1.362 . S
C526 H518 0.930 . S
C526 C525 1.362 . S
C526 C529 1.409 . S
C527 H519 0.930 . S
C527 C528 1.355 1_556 S
C527 C529 1.415 . S
C528 C527 1.355 1_554 S
C528 C530 1.419 . S
C529 C524 1.425 . S
C529 C526 1.409 . S
C529 C527 1.415 . S
C530 H520 0.930 . S
C530 C528 1.419 . S
C530 C531 1.362 1_554 S
C531 H521 0.930 1_556 S
C531 C524 1.409 . S
C531 C530 1.362 1_556 S
H532 C538 0.930 . S
H533 C541 0.930 . S
H534 C542 0.930 . S
H535 C543 0.930 . S
H536 C546 0.930 . S
H537 C547 0.930 . S
C538 H532 0.930 . S
C538 C539 1.355 . S
C538 C540 1.415 . S
C539 C538 1.355 . S
C539 C541 1.419 . S
C540 C538 1.415 . S
C540 C545 1.425 . S
C540 C547 1.409 . S
C541 H533 0.930 . S
C541 C539 1.419 . S
C541 C542 1.362 . S
C542 H534 0.930 . S
C542 C541 1.362 . S
C542 C545 1.409 . S
C543 H535 0.930 . S
C543 C544 1.355 . S
C543 C545 1.415 . S
C544 C543 1.355 . S
C544 C546 1.419 . S
C545 C540 1.425 . S
C545 C542 1.409 . S
C545 C543 1.415 . S
C546 H536 0.930 . S
C546 C544 1.419 . S
C546 C547 1.362 . S
C547 H537 0.930 . S
C547 C540 1.409 . S
C547 C546 1.362 . S
H548 C554 0.930 . S
H549 C557 0.930 . S
H550 C558 0.930 . S
H551 C559 0.930 . S
H552 C562 0.930 . S
H553 C563 0.930 . S
C554 H548 0.930 . S
C554 C555 1.355 . S
C554 C556 1.415 . S
C555 C554 1.355 . S
C555 C557 1.419 . S
C556 C554 1.415 . S
C556 C561 1.425 . S
C556 C563 1.409 . S
C557 H549 0.930 . S
C557 C555 1.419 . S
C557 C558 1.362 . S
C558 H550 0.930 . S
C558 C557 1.362 . S
C558 C561 1.409 . S
C559 H551 0.930 . S
C559 C560 1.355 . S
C559 C561 1.415 . S
C560 C559 1.355 . S
C560 C562 1.419 . S
C561 C556 1.425 . S
C561 C558 1.409 . S
C561 C559 1.415 . S
C562 H552 0.930 . S
C562 C560 1.419 . S
C562 C563 1.362 . S
C563 H553 0.930 . S
C563 C556 1.409 . S
C563 C562 1.362 . S
C192 C108 1.562 . S
C187 C6 1.564 . S
C208 C111 1.614 . S
C203 C18 1.618 . S
C224 C109 1.541 . S
C219 C28 1.534 . S
C240 C110 1.634 1_655 S
C235 C45 1.642 . S
C256 C125 1.420 . S
C251 C4 1.428 . S
C272 C139 1.600 . S
C267 C21 1.587 . S
C283 C33 1.643 . S
C288 C165 1.660 . S
C304 C179 1.684 . S
C299 C40 1.686 . S
C320 C124 1.551 . S
C315 C16 1.559 . S
C331 C30 1.593 . S
C336 C138 1.594 . S
C352 C164 1.637 . S
C347 C42 1.623 . S
C368 C178 1.671 . S
C363 C9 1.682 . S
C379 C52 1.651 . S
C384 C123 1.643 1_655 S
C400 C96 1.693 . S
C395 C69 1.685 . S
C411 C78 1.528 . S
C416 C122 1.512 . S
C427 C93 1.356 . S
C432 C97 1.360 . S
C448 C152 1.717 . S
C443 C57 1.676 . S
C464 C166 1.713 . S
C459 C66 1.732 . S
C480 C136 1.444 . S
C475 C76 1.436 . S
C491 C88 1.425 . S
C496 C150 1.389 . S
C512 C153 1.631 . S
C507 C64 1.635 . S
C528 C167 1.629 . S
C523 C81 1.639 . S
C544 C137 1.341 . S
C539 C90 1.340 . S
C555 C54 1.576 . S
C560 C151 1.571 . S
