# Generated by pormake.
# Topology anh, (6,3)-cn, num edge types: 1
# Building blocks:
#     Node 0, Type 0, BuildingBlock: MIFKUJ_clean_sbu_0, # of connection points: 6
#     Node 1, Type 0, BuildingBlock: MIFKUJ_clean_sbu_0, # of connection points: 6
#     Node 2, Type 0, BuildingBlock: MIFKUJ_clean_sbu_0, # of connection points: 6
#     Node 3, Type 1, BuildingBlock: BETDIP_clean_linker_0, # of connection points: 3
#     Node 4, Type 1, BuildingBlock: BETDIP_clean_linker_0, # of connection points: 3
#     Node 5, Type 1, BuildingBlock: BETDIP_clean_linker_0, # of connection points: 3
#     Node 6, Type 1, BuildingBlock: BETDIP_clean_linker_0, # of connection points: 3
#     Node 7, Type 1, BuildingBlock: BETDIP_clean_linker_0, # of connection points: 3
#     Node 8, Type 1, BuildingBlock: BETDIP_clean_linker_0, # of connection points: 3
#     Edge 9, Type (0, 1), BuildingBlock: OJICUG_clean_linker_0, # of connection points: 2
#     Edge 10, Type (0, 1), BuildingBlock: OJICUG_clean_linker_0, # of connection points: 2
#     Edge 11, Type (0, 1), BuildingBlock: OJICUG_clean_linker_0, # of connection points: 2
#     Edge 12, Type (0, 1), BuildingBlock: OJICUG_clean_linker_0, # of connection points: 2
#     Edge 13, Type (0, 1), BuildingBlock: OJICUG_clean_linker_0, # of connection points: 2
#     Edge 14, Type (0, 1), BuildingBlock: OJICUG_clean_linker_0, # of connection points: 2
#     Edge 15, Type (0, 1), BuildingBlock: OJICUG_clean_linker_0, # of connection points: 2
#     Edge 16, Type (0, 1), BuildingBlock: OJICUG_clean_linker_0, # of connection points: 2
#     Edge 17, Type (0, 1), BuildingBlock: OJICUG_clean_linker_0, # of connection points: 2
#     Edge 18, Type (0, 1), BuildingBlock: OJICUG_clean_linker_0, # of connection points: 2
#     Edge 19, Type (0, 1), BuildingBlock: OJICUG_clean_linker_0, # of connection points: 2
#     Edge 20, Type (0, 1), BuildingBlock: OJICUG_clean_linker_0, # of connection points: 2
#     Edge 21, Type (0, 1), BuildingBlock: OJICUG_clean_linker_0, # of connection points: 2
#     Edge 22, Type (0, 1), BuildingBlock: OJICUG_clean_linker_0, # of connection points: 2
#     Edge 23, Type (0, 1), BuildingBlock: OJICUG_clean_linker_0, # of connection points: 2
#     Edge 24, Type (0, 1), BuildingBlock: OJICUG_clean_linker_0, # of connection points: 2
#     Edge 25, Type (0, 1), BuildingBlock: OJICUG_clean_linker_0, # of connection points: 2
#     Edge 26, Type (0, 1), BuildingBlock: OJICUG_clean_linker_0, # of connection points: 2
# Relax obj value: 0.083
# Max RMSD: 0.188
# Mean RMSD: 0.120
data_MOF--net-anh--node1-MIFKUJ_clean_sbu_0--node2-BETDIP_clean_linker_0--edge1-OJICUG_clean_linker_0
_symmetry_space_group_name_H-M    P1
_symmetry_Int_Tables_number       1
_symmetry_cell_setting            triclinic
loop_
_symmetry_equiv_pos_as_xyz
'x, y, z'
_cell_length_a     24.13379
_cell_length_b     23.878827
_cell_length_c     33.597269
_cell_angle_alpha  97.766303
_cell_angle_beta   90.784126
_cell_angle_gamma 120.39604
loop_
_atom_site_label
_atom_site_type_symbol
_atom_site_fract_x
_atom_site_fract_y
_atom_site_fract_z
_atom_type_partial_charge
Zn0 Zn 0.1076 0.61234 0.14594 0.0
Zn1 Zn 0.90628 0.50018 0.13306 0.0
C2 C 0.2086 0.59211 0.16906 0.0
O3 O 0.2122 0.6314 0.20168 0.0
C4 C 0.79131 0.49655 0.11092 0.0
O5 O 0.79418 0.46003 0.07897 0.0
O6 O 0.16948 0.70857 0.16307 0.0
O7 O 0.06253 0.59666 0.09198 0.0
O8 O 0.95538 0.53574 0.08533 0.0
C9 C 0.2031 0.74944 0.14028 0.0
O10 O 0.19242 0.73133 0.10093 0.0
O11 O 0.1648 0.57433 0.14062 0.0
C12 C 0.8093 0.37556 0.14354 0.0
O13 O 0.803 0.41388 0.17271 0.0
O14 O 0.85414 0.40081 0.12062 0.0
O15 O 0.95025 0.52193 0.18898 0.0
O16 O 0.05687 0.58005 0.19208 0.0
O17 O 0.83879 0.52604 0.13791 0.0
C18 C 0.00877 0.56908 0.07072 0.0
C19 C 0.00528 0.55037 0.2088 0.0
Zn20 Zn 0.53516 0.087 0.49411 0.0
Zn21 Zn 0.47869 0.8987 0.48963 0.0
C22 C 0.66992 0.18166 0.4976 0.0
O23 O 0.66288 0.18772 0.53636 0.0
C24 C 0.35176 0.8002 0.50479 0.0
O25 O 0.38597 0.78914 0.52993 0.0
O26 O 0.50286 0.15007 0.5001 0.0
O27 O 0.47389 0.00543 0.45749 0.0
O28 O 0.5114 0.94087 0.44017 0.0
C29 C 0.51933 0.19168 0.47614 0.0
O30 O 0.55114 0.18784 0.4455 0.0
O31 O 0.62259 0.13672 0.47328 0.0
C32 C 0.5571 0.84154 0.50591 0.0
O33 O 0.59656 0.89934 0.52771 0.0
O34 O 0.50536 0.83131 0.48802 0.0
O35 O 0.51077 0.95902 0.54456 0.0
O36 O 0.54457 0.066 0.54848 0.0
O37 O 0.38091 0.84673 0.48444 0.0
C38 C 0.50157 0.98577 0.43255 0.0
C39 C 0.53387 0.01675 0.56481 0.0
Zn40 Zn 0.59342 0.52206 0.84149 0.0
Zn41 Zn 0.4467 0.57146 0.84244 0.0
C42 C 0.54799 0.38352 0.84795 0.0
O43 O 0.51778 0.39098 0.8786 0.0
C44 C 0.44289 0.67519 0.81902 0.0
O45 O 0.39697 0.62286 0.79535 0.0
O46 O 0.68509 0.58357 0.83109 0.0
O47 O 0.52686 0.52945 0.81255 0.0
O48 O 0.44972 0.53551 0.78458 0.0
C49 C 0.70851 0.56351 0.80274 0.0
O50 O 0.66938 0.5093 0.7776 0.0
O51 O 0.57903 0.43073 0.82855 0.0
C52 C 0.34812 0.57595 0.8808 0.0
O53 O 0.39807 0.61633 0.90711 0.0
O54 O 0.35413 0.53716 0.85376 0.0
O55 O 0.50116 0.55938 0.88494 0.0
O56 O 0.57896 0.53944 0.89952 0.0
O57 O 0.4791 0.66798 0.84312 0.0
C58 C 0.49529 0.52414 0.78068 0.0
C59 C 0.53531 0.55178 0.91069 0.0
H60 H 0.48876 0.99862 0.15455 0.0
H61 H 0.61993 0.09912 0.26208 0.0
H62 H 0.41819 0.97318 0.27175 0.0
H63 H 0.55783 0.09735 0.13278 0.0
C64 C 0.60555 0.1144 0.14708 0.0
C65 C 0.49667 0.01099 0.18711 0.0
C66 C 0.44537 0.97862 0.21072 0.0
C67 C 0.55935 0.05647 0.20576 0.0
C68 C 0.57117 0.06677 0.24784 0.0
C69 C 0.52004 0.03704 0.27156 0.0
C70 C 0.45733 0.9956 0.25293 0.0
N71 N 0.6117 0.09251 0.18324 0.0
H72 H 0.57441 0.49258 0.50326 0.0
H73 H 0.59613 0.59922 0.62168 0.0
H74 H 0.51761 0.39077 0.60562 0.0
H75 H 0.55905 0.57452 0.4861 0.0
C76 C 0.58796 0.61831 0.50845 0.0
C77 C 0.56912 0.49301 0.53521 0.0
C78 C 0.54407 0.43393 0.55106 0.0
C79 C 0.58795 0.55266 0.56085 0.0
C80 C 0.58253 0.55326 0.6022 0.0
C81 C 0.55525 0.49465 0.61808 0.0
C82 C 0.53655 0.43539 0.5926 0.0
N83 N 0.61006 0.6128 0.54625 0.0
H84 H 0.00845 0.62077 0.78959 0.0
H85 H 0.09997 0.60439 0.89444 0.0
H86 H 0.92092 0.60113 0.90169 0.0
H87 H 0.1903 0.71433 0.85078 0.0
C88 C 0.17761 0.66523 0.83634 0.0
C89 C 0.00879 0.61542 0.8211 0.0
C90 C 0.95882 0.612 0.84367 0.0
C91 C 0.06079 0.61495 0.8399 0.0
C92 C 0.06089 0.60729 0.88059 0.0
C93 C 0.0102 0.60138 0.903 0.0
C94 C 0.95988 0.60469 0.88441 0.0
N95 N 0.1135 0.62265 0.81819 0.0
H96 H 0.0476 0.55331 0.49615 0.0
H97 H 0.94115 0.45689 0.37946 0.0
H98 H 0.11887 0.6403 0.38991 0.0
H99 H 0.8572 0.42031 0.41438 0.0
C100 C 0.87294 0.40814 0.44063 0.0
C101 C 0.04224 0.5524 0.46395 0.0
C102 C 0.09037 0.60345 0.44585 0.0
C103 C 0.98649 0.50055 0.44053 0.0
C104 C 0.98101 0.49861 0.3985 0.0
C105 C 0.02805 0.54919 0.38022 0.0
C106 C 0.08213 0.60145 0.40412 0.0
N107 N 0.93721 0.45013 0.45931 0.0
H108 H 0.53037 0.10392 0.8533 0.0
H109 H 0.52749 0.97289 0.75145 0.0
H110 H 0.55436 0.1604 0.73543 0.0
H111 H 0.41374 0.91887 0.7995 0.0
C112 C 0.45314 0.9214 0.81737 0.0
C113 C 0.53443 0.09399 0.82138 0.0
C114 C 0.54504 0.14071 0.79648 0.0
C115 C 0.52674 0.03315 0.80479 0.0
C116 C 0.53224 0.01969 0.76358 0.0
C117 C 0.54378 0.06594 0.73831 0.0
C118 C 0.54928 0.12595 0.75506 0.0
N119 N 0.51004 0.98367 0.82895 0.0
H120 H 0.44254 0.5319 0.1896 0.0
H121 H 0.55246 0.51999 0.09289 0.0
H122 H 0.41194 0.57636 0.07439 0.0
H123 H 0.50206 0.40711 0.13968 0.0
C124 C 0.54393 0.45301 0.15423 0.0
C125 C 0.45492 0.53811 0.15898 0.0
C126 C 0.42026 0.55354 0.13309 0.0
C127 C 0.50239 0.52574 0.14434 0.0
C128 C 0.51673 0.53112 0.10414 0.0
C129 C 0.48458 0.54953 0.07842 0.0
C130 C 0.43689 0.56134 0.0935 0.0
N131 N 0.53383 0.50511 0.16955 0.0
C132 C 0.31571 0.6064 0.1903 0.0
C133 C 0.25959 0.57572 0.16317 0.0
H134 H 0.41124 0.62345 0.20201 0.0
C135 C 0.25475 0.53297 0.12848 0.0
H136 H 0.32074 0.63947 0.2174 0.0
C137 C 0.30623 0.52397 0.11985 0.0
C138 C 0.36373 0.55755 0.14564 0.0
H139 H 0.21193 0.50795 0.10725 0.0
H140 H 0.30169 0.4919 0.09233 0.0
C141 C 0.36745 0.59726 0.18161 0.0
C142 C 0.72239 0.24419 0.44196 0.0
C143 C 0.72649 0.23469 0.48199 0.0
H144 H 0.76546 0.30739 0.39816 0.0
C145 C 0.78207 0.28071 0.50794 0.0
H146 H 0.68019 0.21002 0.42123 0.0
C147 C 0.83156 0.33628 0.49442 0.0
C148 C 0.82546 0.34717 0.45501 0.0
H149 H 0.78653 0.2747 0.53898 0.0
H150 H 0.87311 0.37182 0.51521 0.0
C151 C 0.77102 0.30018 0.4288 0.0
C152 C 0.49997 0.79822 0.83982 0.0
C153 C 0.44655 0.73903 0.82017 0.0
H154 H 0.54446 0.90327 0.8545 0.0
C155 C 0.39477 0.74058 0.80181 0.0
H156 H 0.54029 0.79836 0.8545 0.0
C157 C 0.39681 0.79997 0.80226 0.0
C158 C 0.45077 0.85927 0.82077 0.0
H159 H 0.35232 0.69577 0.78704 0.0
H160 H 0.35645 0.79959 0.7874 0.0
C161 C 0.50225 0.8581 0.83993 0.0
C162 C 0.67142 0.43744 0.09891 0.0
C163 C 0.72884 0.49033 0.11989 0.0
H164 H 0.56819 0.38355 0.09435 0.0
C165 C 0.72517 0.53245 0.15195 0.0
H166 H 0.67246 0.4038 0.07425 0.0
C167 C 0.66509 0.52113 0.16312 0.0
C168 C 0.60798 0.46677 0.14293 0.0
H169 H 0.76864 0.57347 0.16875 0.0
H170 H 0.66333 0.55396 0.18801 0.0
C171 C 0.61168 0.42537 0.11064 0.0
C172 C 0.24317 0.76938 0.47364 0.0
C173 C 0.28123 0.75381 0.49638 0.0
H174 H 0.15169 0.73473 0.44146 0.0
C175 C 0.25225 0.69126 0.50808 0.0
H176 H 0.26365 0.81746 0.46477 0.0
C177 C 0.1881 0.6434 0.49429 0.0
C178 C 0.15169 0.65745 0.4688 0.0
H179 H 0.28017 0.67786 0.52588 0.0
H180 H 0.16859 0.59425 0.5013 0.0
C181 C 0.179 0.72193 0.46031 0.0
C182 C 0.59238 0.31995 0.81016 0.0
C183 C 0.54859 0.32178 0.83667 0.0
H184 H 0.62714 0.2623 0.77798 0.0
C185 C 0.50616 0.2645 0.85208 0.0
H186 H 0.62651 0.36347 0.79825 0.0
C187 C 0.5061 0.20596 0.84005 0.0
C188 C 0.5488 0.20381 0.81262 0.0
H189 H 0.47203 0.26448 0.87269 0.0
H190 H 0.47123 0.16197 0.85121 0.0
C191 C 0.59273 0.26186 0.79849 0.0
C192 C 0.53442 0.7296 0.47529 0.0
C193 C 0.57042 0.78727 0.50382 0.0
H194 H 0.51307 0.63132 0.45402 0.0
C195 C 0.61697 0.79116 0.53141 0.0
H196 H 0.49865 0.72535 0.45333 0.0
C197 C 0.62483 0.73714 0.53189 0.0
C198 C 0.58677 0.67856 0.5045 0.0
H199 H 0.64568 0.83501 0.5536 0.0
H200 H 0.65948 0.74072 0.55445 0.0
C201 C 0.54287 0.67591 0.47548 0.0
C202 C 0.81998 0.64076 0.83618 0.0
C203 C 0.7788 0.58924 0.80521 0.0
H204 H 0.91068 0.68923 0.87215 0.0
C205 C 0.80341 0.55513 0.78137 0.0
H206 H 0.80296 0.66869 0.85471 0.0
C207 C 0.86527 0.56694 0.79147 0.0
C208 C 0.90327 0.61308 0.82544 0.0
H209 H 0.77316 0.51561 0.75696 0.0
H210 H 0.88099 0.53609 0.7749 0.0
C211 C 0.88165 0.6525 0.84621 0.0
C212 C 0.28841 0.81487 0.19688 0.0
C213 C 0.26204 0.81106 0.15848 0.0
H214 H 0.36725 0.86746 0.24193 0.0
C215 C 0.29537 0.86373 0.13718 0.0
H216 H 0.26481 0.77465 0.21382 0.0
C217 C 0.35425 0.91928 0.15421 0.0
C218 C 0.38125 0.9223 0.19246 0.0
H219 H 0.27615 0.86182 0.10738 0.0
H220 H 0.3786 0.95945 0.13736 0.0
C221 C 0.34743 0.86893 0.21326 0.0
C222 C 0.56345 0.31156 0.47749 0.0
C223 C 0.51631 0.25166 0.4882 0.0
H224 H 0.61019 0.41643 0.48958 0.0
C225 C 0.47214 0.25149 0.51493 0.0
H226 H 0.59829 0.31314 0.45698 0.0
C227 C 0.47796 0.31065 0.53294 0.0
C228 C 0.5291 0.37124 0.52534 0.0
H229 H 0.43475 0.20582 0.52322 0.0
H230 H 0.44411 0.30897 0.55426 0.0
C231 C 0.57014 0.37088 0.49613 0.0
C232 C 0.30847 0.65474 0.89127 0.0
C233 C 0.29854 0.59339 0.87299 0.0
H234 H 0.27896 0.7257 0.89297 0.0
C235 C 0.24648 0.55424 0.84313 0.0
H236 H 0.34843 0.68668 0.91401 0.0
C237 C 0.20631 0.5768 0.83122 0.0
C238 C 0.21818 0.63923 0.84857 0.0
H239 H 0.23787 0.50703 0.82821 0.0
H240 H 0.16703 0.54611 0.80786 0.0
C241 C 0.26914 0.67757 0.87892 0.0
C242 C 0.69737 0.28525 0.1218 0.0
C243 C 0.76066 0.30534 0.13595 0.0
H244 H 0.59837 0.20726 0.11307 0.0
C245 C 0.77412 0.25981 0.14897 0.0
H246 H 0.6862 0.32021 0.11213 0.0
C247 C 0.72386 0.19576 0.15036 0.0
C248 C 0.65989 0.17658 0.13823 0.0
H249 H 0.82267 0.27491 0.16043 0.0
H250 H 0.73461 0.16224 0.16259 0.0
C251 C 0.64737 0.2209 0.12235 0.0
C252 C 0.95163 0.54096 0.0016 0.0
C253 C 0.00885 0.57643 0.02767 0.0
H254 H 0.90745 0.51987 0.94161 0.0
C255 C 0.06661 0.6193 0.01223 0.0
H256 H 0.90642 0.50708 0.0124 0.0
C257 C 0.06704 0.6272 0.97184 0.0
C258 C 0.00982 0.5921 0.94582 0.0
H259 H 0.11162 0.64744 0.03141 0.0
H260 H 0.11211 0.66171 0.96119 0.0
C261 C 0.95217 0.54855 0.96107 0.0
C262 C 0.55692 0.99725 0.36902 0.0
C263 C 0.51861 0.01211 0.39434 0.0
H264 H 0.58911 0.99594 0.30989 0.0
C265 C 0.49123 0.04691 0.38099 0.0
H266 H 0.57916 0.97107 0.37865 0.0
C267 C 0.49688 0.06092 0.34174 0.0
C268 C 0.53085 0.04133 0.31544 0.0
H269 H 0.46167 0.05932 0.39984 0.0
H270 H 0.47114 0.0831 0.33102 0.0
C271 C 0.56328 0.01212 0.32988 0.0
C272 C 0.57602 0.54339 0.73133 0.0
C273 C 0.51186 0.50849 0.74057 0.0
H274 H 0.64024 0.56661 0.68463 0.0
C275 C 0.46297 0.46505 0.70998 0.0
H276 H 0.61404 0.57848 0.75442 0.0
C277 C 0.47791 0.45766 0.67036 0.0
C278 C 0.54167 0.49504 0.66072 0.0
H279 H 0.41307 0.43823 0.71656 0.0
H280 H 0.43924 0.42537 0.6469 0.0
C281 C 0.59083 0.53715 0.69155 0.0
C282 C 0.58619 0.08922 0.63114 0.0
C283 C 0.54307 0.02647 0.60928 0.0
H284 H 0.62208 0.15024 0.68898 0.0
C285 C 0.5044 0.97507 0.63034 0.0
H286 H 0.61718 0.1296 0.61571 0.0
C287 C 0.5059 0.98726 0.67236 0.0
C288 C 0.54691 0.05089 0.69419 0.0
H289 H 0.47042 0.92627 0.61423 0.0
H290 H 0.47273 0.94742 0.68741 0.0
C291 C 0.58855 0.10113 0.67312 0.0
C292 C 0.46146 0.53698 0.96468 0.0
C293 C 0.52351 0.55557 0.95362 0.0
H294 H 0.39973 0.51747 0.01213 0.0
C295 C 0.57333 0.57428 0.98375 0.0
H296 H 0.42199 0.52143 0.94195 0.0
C297 C 0.56121 0.57407 0.02428 0.0
C298 C 0.49857 0.5535 0.03547 0.0
H299 H 0.62178 0.58924 0.97598 0.0
H300 H 0.60105 0.58995 0.04675 0.0
C301 C 0.44891 0.53513 0.00506 0.0
C302 C 0.06981 0.56724 0.27268 0.0
C303 C 0.01008 0.54834 0.25243 0.0
H304 H 0.12186 0.5805 0.32842 0.0
C305 C 0.95568 0.52778 0.27427 0.0
H306 H 0.11253 0.58247 0.25668 0.0
C307 C 0.9613 0.5275 0.3157 0.0
C308 C 0.0213 0.54728 0.336 0.0
H309 H 0.90899 0.51291 0.25952 0.0
H310 H 0.91892 0.51304 0.33197 0.0
C311 C 0.07527 0.5664 0.3139 0.0
loop_
_geom_bond_atom_site_label_1
_geom_bond_atom_site_label_2
_geom_bond_distance
_geom_bond_site_symmetry_2
_ccdc_geom_bond_type
Zn0 O6 1.969 . S
Zn0 O7 1.965 . S
Zn0 O11 2.024 . S
Zn0 O16 1.969 . S
Zn1 O8 1.969 . S
Zn1 O14 1.969 . S
Zn1 O15 1.965 . S
Zn1 O17 2.024 . S
C2 O3 1.229 . S
C2 O11 1.058 . S
O3 C2 1.229 . S
C4 O5 1.229 . S
C4 O17 1.058 . S
O5 C4 1.229 . S
O6 Zn0 1.969 . S
O6 C9 1.267 . S
O7 Zn0 1.965 . S
O7 C18 1.260 . S
O8 Zn1 1.969 . S
O8 C18 1.258 1_655 S
C9 O6 1.267 . S
C9 O10 1.228 . S
O10 C9 1.228 . S
O11 Zn0 2.024 . S
O11 C2 1.058 . S
C12 O13 1.228 . S
C12 O14 1.267 . S
O13 C12 1.228 . S
O14 Zn1 1.969 . S
O14 C12 1.267 . S
O15 Zn1 1.965 . S
O15 C19 1.260 1_655 S
O16 Zn0 1.969 . S
O16 C19 1.258 . S
O17 Zn1 2.024 . S
O17 C4 1.058 . S
C18 O7 1.260 . S
C18 O8 1.258 1_455 S
C19 O15 1.260 1_455 S
C19 O16 1.258 . S
Zn20 O26 1.969 . S
Zn20 O27 1.965 . S
Zn20 O31 2.024 . S
Zn20 O36 1.969 . S
Zn21 O28 1.969 . S
Zn21 O34 1.969 . S
Zn21 O35 1.965 1_565 S
Zn21 O37 2.024 . S
C22 O23 1.229 . S
C22 O31 1.058 . S
O23 C22 1.229 . S
C24 O25 1.229 . S
C24 O37 1.058 . S
O25 C24 1.229 . S
O26 Zn20 1.969 . S
O26 C29 1.267 . S
O27 Zn20 1.965 . S
O27 C38 1.260 . S
O28 Zn21 1.969 . S
O28 C38 1.258 1_565 S
C29 O26 1.267 . S
C29 O30 1.228 . S
O30 C29 1.228 . S
O31 Zn20 2.024 . S
O31 C22 1.058 . S
C32 O33 1.228 . S
C32 O34 1.267 . S
O33 C32 1.228 . S
O34 Zn21 1.969 . S
O34 C32 1.267 . S
O35 Zn21 1.965 1_545 S
O35 C39 1.260 . S
O36 Zn20 1.969 . S
O36 C39 1.258 . S
O37 Zn21 2.024 . S
O37 C24 1.058 . S
C38 O27 1.260 . S
C38 O28 1.258 1_545 S
C39 O35 1.260 . S
C39 O36 1.258 . S
Zn40 O46 1.969 . S
Zn40 O47 1.965 . S
Zn40 O51 2.024 . S
Zn40 O56 1.969 . S
Zn41 O48 1.969 . S
Zn41 O54 1.969 . S
Zn41 O55 1.965 . S
Zn41 O57 2.024 . S
C42 O43 1.229 . S
C42 O51 1.058 . S
O43 C42 1.229 . S
C44 O45 1.229 . S
C44 O57 1.058 . S
O45 C44 1.229 . S
O46 Zn40 1.969 . S
O46 C49 1.267 . S
O47 Zn40 1.965 . S
O47 C58 1.260 . S
O48 Zn41 1.969 . S
O48 C58 1.258 . S
C49 O46 1.267 . S
C49 O50 1.228 . S
O50 C49 1.228 . S
O51 Zn40 2.024 . S
O51 C42 1.058 . S
C52 O53 1.228 . S
C52 O54 1.267 . S
O53 C52 1.228 . S
O54 Zn41 1.969 . S
O54 C52 1.267 . S
O55 Zn41 1.965 . S
O55 C59 1.260 . S
O56 Zn40 1.969 . S
O56 C59 1.258 . S
O57 Zn41 2.024 . S
O57 C44 1.058 . S
C58 O47 1.260 . S
C58 O48 1.258 . S
C59 O55 1.260 . S
C59 O56 1.258 . S
H60 C65 0.930 . S
H61 C68 0.930 . S
H62 C70 0.930 . S
H63 C64 1.016 . S
C64 H63 1.016 . S
C64 N71 1.286 . S
C65 H60 0.930 . S
C65 C66 1.397 1_545 S
C65 C67 1.361 . S
C66 C65 1.397 1_565 S
C66 C70 1.390 . S
C67 C65 1.361 . S
C67 C68 1.393 . S
C67 N71 1.413 . S
C68 H61 0.930 . S
C68 C67 1.393 . S
C68 C69 1.399 . S
C69 C68 1.399 . S
C69 C70 1.381 1_545 S
C70 H62 0.930 . S
C70 C66 1.390 . S
C70 C69 1.381 1_565 S
N71 C64 1.286 . S
N71 C67 1.413 . S
H72 C77 0.930 . S
H73 C80 0.930 . S
H74 C82 0.930 . S
H75 C76 1.016 . S
C76 H75 1.016 . S
C76 N83 1.286 . S
C77 H72 0.930 . S
C77 C78 1.397 . S
C77 C79 1.361 . S
C78 C77 1.397 . S
C78 C82 1.390 . S
C79 C77 1.361 . S
C79 C80 1.393 . S
C79 N83 1.413 . S
C80 H73 0.930 . S
C80 C79 1.393 . S
C80 C81 1.399 . S
C81 C80 1.399 . S
C81 C82 1.381 . S
C82 H74 0.930 . S
C82 C78 1.390 . S
C82 C81 1.381 . S
N83 C76 1.286 . S
N83 C79 1.413 . S
H84 C89 0.930 . S
H85 C92 0.930 . S
H86 C94 0.930 . S
H87 C88 1.016 . S
C88 H87 1.016 . S
C88 N95 1.286 . S
C89 H84 0.930 . S
C89 C90 1.397 . S
C89 C91 1.361 1_655 S
C90 C89 1.397 . S
C90 C94 1.390 . S
C91 C89 1.361 1_455 S
C91 C92 1.393 . S
C91 N95 1.413 . S
C92 H85 0.930 . S
C92 C91 1.393 . S
C92 C93 1.399 . S
C93 C92 1.399 . S
C93 C94 1.381 1_455 S
C94 H86 0.930 . S
C94 C90 1.390 . S
C94 C93 1.381 1_655 S
N95 C88 1.286 . S
N95 C91 1.413 . S
H96 C101 0.930 . S
H97 C104 0.930 . S
H98 C106 0.930 . S
H99 C100 1.016 . S
C100 H99 1.016 . S
C100 N107 1.286 . S
C101 H96 0.930 . S
C101 C102 1.397 . S
C101 C103 1.361 . S
C102 C101 1.397 . S
C102 C106 1.390 . S
C103 C101 1.361 . S
C103 C104 1.393 1_455 S
C103 N107 1.413 1_455 S
C104 H97 0.930 . S
C104 C103 1.393 1_655 S
C104 C105 1.399 1_655 S
C105 C104 1.399 1_455 S
C105 C106 1.381 . S
C106 H98 0.930 . S
C106 C102 1.390 . S
C106 C105 1.381 . S
N107 C100 1.286 . S
N107 C103 1.413 1_655 S
H108 C113 0.930 . S
H109 C116 0.930 1_565 S
H110 C118 0.930 . S
H111 C112 1.016 . S
C112 H111 1.016 . S
C112 N119 1.286 . S
C113 H108 0.930 . S
C113 C114 1.397 . S
C113 C115 1.361 . S
C114 C113 1.397 . S
C114 C118 1.390 . S
C115 C113 1.361 . S
C115 C116 1.393 . S
C115 N119 1.413 1_545 S
C116 H109 0.930 1_545 S
C116 C115 1.393 . S
C116 C117 1.399 . S
C117 C116 1.399 . S
C117 C118 1.381 . S
C118 H110 0.930 . S
C118 C114 1.390 . S
C118 C117 1.381 . S
N119 C112 1.286 . S
N119 C115 1.413 1_565 S
H120 C125 0.930 . S
H121 C128 0.930 . S
H122 C130 0.930 . S
H123 C124 1.016 . S
C124 H123 1.016 . S
C124 N131 1.286 . S
C125 H120 0.930 . S
C125 C126 1.397 . S
C125 C127 1.361 . S
C126 C125 1.397 . S
C126 C130 1.390 . S
C127 C125 1.361 . S
C127 C128 1.393 . S
C127 N131 1.413 . S
C128 H121 0.930 . S
C128 C127 1.393 . S
C128 C129 1.399 . S
C129 C128 1.399 . S
C129 C130 1.381 . S
C130 H122 0.930 . S
C130 C126 1.390 . S
C130 C129 1.381 . S
N131 C124 1.286 . S
N131 C127 1.413 . S
C132 C133 1.387 . S
C132 H136 0.950 . S
C132 C141 1.390 . S
C133 C132 1.387 . S
C133 C135 1.387 . S
H134 C141 0.950 . S
C135 C133 1.387 . S
C135 C137 1.390 . S
C135 H139 0.950 . S
H136 C132 0.950 . S
C137 C135 1.390 . S
C137 C138 1.387 . S
C137 H140 0.950 . S
C138 C137 1.387 . S
C138 C141 1.387 . S
H139 C135 0.950 . S
H140 C137 0.950 . S
C141 C132 1.390 . S
C141 H134 0.950 . S
C141 C138 1.387 . S
C142 C143 1.387 . S
C142 H146 0.950 . S
C142 C151 1.390 . S
C143 C142 1.387 . S
C143 C145 1.387 . S
H144 C151 0.950 . S
C145 C143 1.387 . S
C145 C147 1.390 . S
C145 H149 0.950 . S
H146 C142 0.950 . S
C147 C145 1.390 . S
C147 C148 1.387 . S
C147 H150 0.950 . S
C148 C147 1.387 . S
C148 C151 1.387 . S
H149 C145 0.950 . S
H150 C147 0.950 . S
C151 C142 1.390 . S
C151 H144 0.950 . S
C151 C148 1.387 . S
C152 C153 1.387 . S
C152 H156 0.950 . S
C152 C161 1.390 . S
C153 C152 1.387 . S
C153 C155 1.387 . S
H154 C161 0.950 . S
C155 C153 1.387 . S
C155 C157 1.390 . S
C155 H159 0.950 . S
H156 C152 0.950 . S
C157 C155 1.390 . S
C157 C158 1.387 . S
C157 H160 0.950 . S
C158 C157 1.387 . S
C158 C161 1.387 . S
H159 C155 0.950 . S
H160 C157 0.950 . S
C161 C152 1.390 . S
C161 H154 0.950 . S
C161 C158 1.387 . S
C162 C163 1.387 . S
C162 H166 0.950 . S
C162 C171 1.390 . S
C163 C162 1.387 . S
C163 C165 1.387 . S
H164 C171 0.950 . S
C165 C163 1.387 . S
C165 C167 1.390 . S
C165 H169 0.950 . S
H166 C162 0.950 . S
C167 C165 1.390 . S
C167 C168 1.387 . S
C167 H170 0.950 . S
C168 C167 1.387 . S
C168 C171 1.387 . S
H169 C165 0.950 . S
H170 C167 0.950 . S
C171 C162 1.390 . S
C171 H164 0.950 . S
C171 C168 1.387 . S
C172 C173 1.387 . S
C172 H176 0.950 . S
C172 C181 1.390 . S
C173 C172 1.387 . S
C173 C175 1.387 . S
H174 C181 0.950 . S
C175 C173 1.387 . S
C175 C177 1.390 . S
C175 H179 0.950 . S
H176 C172 0.950 . S
C177 C175 1.390 . S
C177 C178 1.387 . S
C177 H180 0.950 . S
C178 C177 1.387 . S
C178 C181 1.387 . S
H179 C175 0.950 . S
H180 C177 0.950 . S
C181 C172 1.390 . S
C181 H174 0.950 . S
C181 C178 1.387 . S
C182 C183 1.387 . S
C182 H186 0.950 . S
C182 C191 1.390 . S
C183 C182 1.387 . S
C183 C185 1.387 . S
H184 C191 0.950 . S
C185 C183 1.387 . S
C185 C187 1.390 . S
C185 H189 0.950 . S
H186 C182 0.950 . S
C187 C185 1.390 . S
C187 C188 1.387 . S
C187 H190 0.950 . S
C188 C187 1.387 . S
C188 C191 1.387 . S
H189 C185 0.950 . S
H190 C187 0.950 . S
C191 C182 1.390 . S
C191 H184 0.950 . S
C191 C188 1.387 . S
C192 C193 1.387 . S
C192 H196 0.950 . S
C192 C201 1.390 . S
C193 C192 1.387 . S
C193 C195 1.387 . S
H194 C201 0.950 . S
C195 C193 1.387 . S
C195 C197 1.390 . S
C195 H199 0.950 . S
H196 C192 0.950 . S
C197 C195 1.390 . S
C197 C198 1.387 . S
C197 H200 0.950 . S
C198 C197 1.387 . S
C198 C201 1.387 . S
H199 C195 0.950 . S
H200 C197 0.950 . S
C201 C192 1.390 . S
C201 H194 0.950 . S
C201 C198 1.387 . S
C202 C203 1.387 . S
C202 H206 0.950 . S
C202 C211 1.390 . S
C203 C202 1.387 . S
C203 C205 1.387 . S
H204 C211 0.950 . S
C205 C203 1.387 . S
C205 C207 1.390 . S
C205 H209 0.950 . S
H206 C202 0.950 . S
C207 C205 1.390 . S
C207 C208 1.387 . S
C207 H210 0.950 . S
C208 C207 1.387 . S
C208 C211 1.387 . S
H209 C205 0.950 . S
H210 C207 0.950 . S
C211 C202 1.390 . S
C211 H204 0.950 . S
C211 C208 1.387 . S
C212 C213 1.387 . S
C212 H216 0.950 . S
C212 C221 1.390 . S
C213 C212 1.387 . S
C213 C215 1.387 . S
H214 C221 0.950 . S
C215 C213 1.387 . S
C215 C217 1.390 . S
C215 H219 0.950 . S
H216 C212 0.950 . S
C217 C215 1.390 . S
C217 C218 1.387 . S
C217 H220 0.950 . S
C218 C217 1.387 . S
C218 C221 1.387 . S
H219 C215 0.950 . S
H220 C217 0.950 . S
C221 C212 1.390 . S
C221 H214 0.950 . S
C221 C218 1.387 . S
C222 C223 1.387 . S
C222 H226 0.950 . S
C222 C231 1.390 . S
C223 C222 1.387 . S
C223 C225 1.387 . S
H224 C231 0.950 . S
C225 C223 1.387 . S
C225 C227 1.390 . S
C225 H229 0.950 . S
H226 C222 0.950 . S
C227 C225 1.390 . S
C227 C228 1.387 . S
C227 H230 0.950 . S
C228 C227 1.387 . S
C228 C231 1.387 . S
H229 C225 0.950 . S
H230 C227 0.950 . S
C231 C222 1.390 . S
C231 H224 0.950 . S
C231 C228 1.387 . S
C232 C233 1.387 . S
C232 H236 0.950 . S
C232 C241 1.390 . S
C233 C232 1.387 . S
C233 C235 1.387 . S
H234 C241 0.950 . S
C235 C233 1.387 . S
C235 C237 1.390 . S
C235 H239 0.950 . S
H236 C232 0.950 . S
C237 C235 1.390 . S
C237 C238 1.387 . S
C237 H240 0.950 . S
C238 C237 1.387 . S
C238 C241 1.387 . S
H239 C235 0.950 . S
H240 C237 0.950 . S
C241 C232 1.390 . S
C241 H234 0.950 . S
C241 C238 1.387 . S
C242 C243 1.387 . S
C242 H246 0.950 . S
C242 C251 1.390 . S
C243 C242 1.387 . S
C243 C245 1.387 . S
H244 C251 0.950 . S
C245 C243 1.387 . S
C245 C247 1.390 . S
C245 H249 0.950 . S
H246 C242 0.950 . S
C247 C245 1.390 . S
C247 C248 1.387 . S
C247 H250 0.950 . S
C248 C247 1.387 . S
C248 C251 1.387 . S
H249 C245 0.950 . S
H250 C247 0.950 . S
C251 C242 1.390 . S
C251 H244 0.950 . S
C251 C248 1.387 . S
C252 C253 1.387 . S
C252 H256 0.950 1_455 S
C252 C261 1.390 1_454 S
C253 C252 1.387 . S
C253 C255 1.387 . S
H254 C261 0.950 . S
C255 C253 1.387 . S
C255 C257 1.390 . S
C255 H259 0.950 . S
H256 C252 0.950 1_655 S
C257 C255 1.390 . S
C257 C258 1.387 1_554 S
C257 H260 0.950 1_554 S
C258 C257 1.387 1_556 S
C258 C261 1.387 1_455 S
H259 C255 0.950 . S
H260 C257 0.950 1_556 S
C261 C252 1.390 1_656 S
C261 H254 0.950 . S
C261 C258 1.387 1_655 S
C262 C263 1.399 . S
C262 H266 0.935 1_545 S
C262 C271 1.393 . S
C263 C262 1.399 . S
C263 C265 1.387 . S
H264 C271 0.950 1_565 S
C265 C263 1.387 . S
C265 C267 1.390 . S
C265 H269 0.950 . S
H266 C262 0.935 1_565 S
C267 C265 1.390 . S
C267 C268 1.387 . S
C267 H270 0.950 . S
C268 C267 1.387 . S
C268 C271 1.387 . S
H269 C265 0.950 . S
H270 C267 0.950 . S
C271 C262 1.393 . S
C271 H264 0.950 1_545 S
C271 C268 1.387 . S
C272 C273 1.387 . S
C272 H276 0.950 . S
C272 C281 1.390 . S
C273 C272 1.387 . S
C273 C275 1.387 . S
H274 C281 0.950 . S
C275 C273 1.387 . S
C275 C277 1.390 . S
C275 H279 0.950 . S
H276 C272 0.950 . S
C277 C275 1.390 . S
C277 C278 1.387 . S
C277 H280 0.950 . S
C278 C277 1.387 . S
C278 C281 1.387 . S
H279 C275 0.950 . S
H280 C277 0.950 . S
C281 C272 1.390 . S
C281 H274 0.950 . S
C281 C278 1.387 . S
C282 C283 1.387 . S
C282 H286 0.950 . S
C282 C291 1.390 . S
C283 C282 1.387 . S
C283 C285 1.387 1_545 S
H284 C291 0.950 . S
C285 C283 1.387 1_565 S
C285 C287 1.390 . S
C285 H289 0.950 . S
H286 C282 0.950 . S
C287 C285 1.390 . S
C287 C288 1.387 1_565 S
C287 H290 0.950 . S
C288 C287 1.387 1_545 S
C288 C291 1.387 . S
H289 C285 0.950 . S
H290 C287 0.950 . S
C291 C282 1.390 . S
C291 H284 0.950 . S
C291 C288 1.387 . S
C292 C293 1.387 . S
C292 H296 0.950 . S
C292 C301 1.390 . S
C293 C292 1.387 . S
C293 C295 1.387 . S
H294 C301 0.950 1_554 S
C295 C293 1.387 . S
C295 C297 1.390 1_556 S
C295 H299 0.950 . S
H296 C292 0.950 . S
C297 C295 1.390 1_554 S
C297 C298 1.387 . S
C297 H300 0.950 . S
C298 C297 1.387 . S
C298 C301 1.387 1_554 S
H299 C295 0.950 . S
H300 C297 0.950 . S
C301 C292 1.390 . S
C301 H294 0.950 1_556 S
C301 C298 1.387 1_556 S
C302 C303 1.387 . S
C302 H306 0.950 . S
C302 C311 1.390 . S
C303 C302 1.387 . S
C303 C305 1.387 1_455 S
H304 C311 0.950 . S
C305 C303 1.387 1_655 S
C305 C307 1.390 . S
C305 H309 0.950 . S
H306 C302 0.950 . S
C307 C305 1.390 . S
C307 C308 1.387 1_655 S
C307 H310 0.950 . S
C308 C307 1.387 1_455 S
C308 C311 1.387 . S
H309 C305 0.950 . S
H310 C307 0.950 . S
C311 C302 1.390 . S
C311 H304 0.950 . S
C311 C308 1.387 . S
C133 C2 1.618 . S
C138 C126 1.711 . S
C143 C22 1.505 . S
C148 C100 1.558 . S
C153 C44 1.514 . S
C158 C112 1.556 . S
C163 C4 1.405 . S
C168 C124 1.429 . S
C178 C102 1.540 . S
C173 C24 1.451 . S
C188 C114 1.528 . S
C183 C42 1.425 . S
C193 C32 1.431 . S
C198 C76 1.393 . S
C203 C49 1.497 . S
C208 C90 1.518 . S
C213 C9 1.207 . S
C218 C66 1.236 . S
C228 C78 1.286 . S
C223 C29 1.212 . S
C238 C88 1.195 . S
C233 C52 1.185 . S
C243 C12 1.338 . S
C248 C64 1.348 . S
C258 C93 1.500 . S
C253 C18 1.475 . S
C263 C38 1.474 . S
C268 C69 1.471 . S
C273 C58 1.453 . S
C278 C81 1.490 . S
C288 C117 1.524 . S
C283 C39 1.508 . S
C298 C129 1.586 . S
C293 C59 1.575 . S
C303 C19 1.500 . S
C308 C105 1.522 . S
