# Generated by pormake.
# Topology tsx, (6,3)-cn, num edge types: 1
# Building blocks:
#     Node 0, Type 0, BuildingBlock: MIDCAF_clean_sbu_0, # of connection points: 6
#     Node 1, Type 0, BuildingBlock: MIDCAF_clean_sbu_0, # of connection points: 6
#     Node 2, Type 1, BuildingBlock: KAKCAD_clean_linker_0, # of connection points: 3
#     Node 3, Type 1, BuildingBlock: KAKCAD_clean_linker_0, # of connection points: 3
#     Node 4, Type 1, BuildingBlock: KAKCAD_clean_linker_0, # of connection points: 3
#     Node 5, Type 1, BuildingBlock: KAKCAD_clean_linker_0, # of connection points: 3
#     Edge 6, Type (0, 1), BuildingBlock: XUDNAN_clean_linker_2, # of connection points: 2
#     Edge 7, Type (0, 1), BuildingBlock: XUDNAN_clean_linker_2, # of connection points: 2
#     Edge 8, Type (0, 1), BuildingBlock: XUDNAN_clean_linker_2, # of connection points: 2
#     Edge 9, Type (0, 1), BuildingBlock: XUDNAN_clean_linker_2, # of connection points: 2
#     Edge 10, Type (0, 1), BuildingBlock: XUDNAN_clean_linker_2, # of connection points: 2
#     Edge 11, Type (0, 1), BuildingBlock: XUDNAN_clean_linker_2, # of connection points: 2
#     Edge 12, Type (0, 1), BuildingBlock: XUDNAN_clean_linker_2, # of connection points: 2
#     Edge 13, Type (0, 1), BuildingBlock: XUDNAN_clean_linker_2, # of connection points: 2
#     Edge 14, Type (0, 1), BuildingBlock: XUDNAN_clean_linker_2, # of connection points: 2
#     Edge 15, Type (0, 1), BuildingBlock: XUDNAN_clean_linker_2, # of connection points: 2
#     Edge 16, Type (0, 1), BuildingBlock: XUDNAN_clean_linker_2, # of connection points: 2
#     Edge 17, Type (0, 1), BuildingBlock: XUDNAN_clean_linker_2, # of connection points: 2
# Relax obj value: 0.118
# Max RMSD: 0.182
# Mean RMSD: 0.113
data_MOF--net-tsx--node1-MIDCAF_clean_sbu_0--node2-KAKCAD_clean_linker_0--edge1-XUDNAN_clean_linker_2
_symmetry_space_group_name_H-M    P1
_symmetry_Int_Tables_number       1
_symmetry_cell_setting            triclinic
loop_
_symmetry_equiv_pos_as_xyz
'x, y, z'
_cell_length_a     24.04713
_cell_length_b     24.843829
_cell_length_c     47.118465
_cell_angle_alpha  90.69981
_cell_angle_beta   94.483074
_cell_angle_gamma 90.34475
loop_
_atom_site_label
_atom_site_type_symbol
_atom_site_fract_x
_atom_site_fract_y
_atom_site_fract_z
_atom_type_partial_charge
Zn0 Zn 0.95075 0.03028 0.9719 0.0
Zn1 Zn 0.13009 0.02614 0.03659 0.0
Zn2 Zn 0.041 0.03056 0.00705 0.0
C3 C 0.12503 0.12997 0.0184 0.0
C4 C 0.144 0.95232 0.99623 0.0
O5 O 0.97361 0.99153 0.02953 0.0
O6 O 0.9025 0.99121 0.9967 0.0
C7 C 0.97906 0.13809 0.98442 0.0
O8 O 0.07396 0.11448 0.01299 0.0
O9 O 0.16183 0.09602 0.02606 0.0
O10 O 0.16283 0.96022 0.02164 0.0
O11 O 0.10154 0.97913 0.98583 0.0
O12 O 0.94438 0.10942 0.96937 0.0
O13 O 0.01898 0.11612 -5e-05 0.0
O14 O 0.05577 0.98719 0.96646 0.0
O15 O 0.97616 0.98963 0.93946 0.0
C16 C 0.02633 0.97532 0.94312 0.0
O17 O 0.02279 0.99447 0.04819 0.0
O18 O 0.0993 0.02038 0.07388 0.0
C19 C 0.92264 0.97915 0.02131 0.0
C20 C 0.05135 -0.00079 0.0724 0.0
Zn21 Zn 0.62717 0.51867 0.5399 0.0
Zn22 Zn 0.43909 0.50275 0.4815 0.0
Zn23 Zn 0.5348 0.51162 0.51134 0.0
C24 C 0.52262 0.4742 0.44596 0.0
C25 C 0.45204 0.61042 0.49857 0.0
O26 O 0.52166 0.47696 0.55338 0.0
O27 O 0.59711 0.5097 0.57743 0.0
C28 C 0.64278 0.44219 0.49905 0.0
O29 O 0.5525 0.47749 0.46985 0.0
O30 O 0.47134 0.48555 0.44477 0.0
O31 O 0.41493 0.57696 0.48949 0.0
O32 O 0.50216 0.59459 0.50549 0.0
O33 O 0.66515 0.4573 0.52296 0.0
O34 O 0.59612 0.46299 0.48944 0.0
O35 O 0.55764 0.59853 0.5162 0.0
O36 O 0.64745 0.59255 0.53 0.0
C37 C 0.60589 0.62072 0.52191 0.0
O38 O 0.47942 0.45753 0.5339 0.0
O39 O 0.40659 0.44422 0.5027 0.0
C40 C 0.55019 0.48662 0.57721 0.0
C41 C 0.43289 0.43347 0.52611 0.0
C42 C 0.01191 0.90683 0.29115 0.0
C43 C 0.99412 0.94891 0.27299 0.0
C44 C 0.01632 0.91471 0.32079 0.0
C45 C 0.00318 0.96487 0.33272 0.0
C46 C 0.98395 0.00614 0.31435 0.0
C47 C 0.9787 -0.002 0.28505 0.0
C48 C 0.01144 0.97611 0.36393 0.0
C49 C 0.05714 0.95539 0.38058 0.0
C50 C 0.0685 0.97224 0.4091 0.0
C51 C 0.0347 0.01155 0.42075 0.0
C52 C 0.9885 0.03218 0.40436 0.0
C53 C 0.97599 0.01219 0.37661 0.0
C54 C 0.95374 0.07622 0.41495 0.0
C55 C 0.93555 0.07607 0.44261 0.0
C56 C 0.93547 0.11741 0.39627 0.0
C57 C 0.89699 0.1552 0.40422 0.0
C58 C 0.87684 0.15356 0.43126 0.0
C59 C 0.11635 0.94875 0.42626 0.0
C60 C 0.12183 0.89264 0.42743 0.0
C61 C 0.15782 0.98159 0.44042 0.0
C62 C 0.20482 0.95846 0.45485 0.0
C63 C 0.21031 0.90221 0.45581 0.0
C64 C 0.16809 0.86963 0.44214 0.0
C65 C 0.89746 0.11478 0.45076 0.0
H66 H 0.02424 0.86854 0.28248 0.0
H67 H 0.03063 0.8818 0.33427 0.0
H68 H 0.97449 0.04576 0.32243 0.0
H69 H 0.96379 0.03098 0.27174 0.0
H70 H 0.08533 0.9277 0.37118 0.0
H71 H 0.9388 0.02606 0.36449 0.0
H72 H 0.04453 0.02609 0.44235 0.0
H73 H 0.94892 0.04494 0.45746 0.0
H74 H 0.94998 0.11973 0.37512 0.0
H75 H 0.88237 0.18544 0.38907 0.0
H76 H 0.09037 0.86649 0.41674 0.0
H77 H 0.15461 0.02502 0.43964 0.0
H78 H 0.88246 0.11317 0.47183 0.0
H79 H 0.17155 0.82617 0.44219 0.0
H80 H 0.23683 0.98439 0.4652 0.0
C81 C 0.07602 0.99153 0.74033 0.0
C82 C 0.08045 0.937 0.74799 0.0
C83 C 0.06802 0.00608 0.71179 0.0
C84 C 0.06334 0.96649 0.69026 0.0
C85 C 0.06811 0.91208 0.69768 0.0
C86 C 0.07702 0.89748 0.72624 0.0
C87 C 0.0532 0.98208 0.6601 0.0
C88 C 0.08653 0.02152 0.64879 0.0
C89 C 0.07772 0.03625 0.62017 0.0
C90 C 0.03449 0.01161 0.60274 0.0
C91 C 0.99966 0.97276 0.61397 0.0
C92 C 0.00977 0.95811 0.6427 0.0
C93 C 0.95183 0.94812 0.59632 0.0
C94 C 0.91764 0.97917 0.57726 0.0
C95 C 0.938 0.89365 0.59977 0.0
C96 C 0.8898 0.87155 0.58581 0.0
C97 C 0.85453 0.90306 0.56772 0.0
C98 C 0.11508 0.07673 0.60882 0.0
C99 C 0.12373 0.12661 0.62286 0.0
C100 C 0.14604 0.06402 0.58563 0.0
C101 C 0.1868 0.09976 0.57741 0.0
C102 C 0.19646 0.14908 0.59196 0.0
C103 C 0.16375 0.16266 0.61436 0.0
C104 C 0.86952 0.95669 0.56294 0.0
H105 H 0.07698 0.02314 0.75638 0.0
H106 H 0.06396 0.04831 0.70659 0.0
H107 H 0.0653 0.88085 0.68137 0.0
H108 H 0.08103 0.85519 0.73123 0.0
H109 H 0.12046 0.03986 0.66213 0.0
H110 H 0.98276 0.92916 0.65193 0.0
H111 H 0.02799 0.02287 0.58059 0.0
H112 H 0.92685 0.02133 0.57421 0.0
H113 H 0.96408 0.86809 0.61361 0.0
H114 H 0.8798 0.82969 0.58934 0.0
H115 H 0.10025 0.13718 0.64081 0.0
H116 H 0.14029 0.02559 0.57465 0.0
H117 H 0.84301 0.98168 0.54898 0.0
H118 H 0.17054 0.20033 0.62597 0.0
H119 H 0.21121 0.08864 0.5599 0.0
C120 C 0.49963 0.42217 0.79678 0.0
C121 C 0.48407 0.46499 0.77871 0.0
C122 C 0.50754 0.43069 0.82625 0.0
C123 C 0.49976 0.4821 0.8381 0.0
C124 C 0.48193 0.52419 0.81999 0.0
C125 C 0.47401 0.51568 0.79069 0.0
C126 C 0.51319 0.4932 0.86891 0.0
C127 C 0.56198 0.47282 0.88304 0.0
C128 C 0.57823 0.48786 0.91144 0.0
C129 C 0.54541 0.52502 0.92543 0.0
C130 C 0.49627 0.54502 0.9115 0.0
C131 C 0.47993 0.52827 0.88363 0.0
C132 C 0.46361 0.5874 0.92437 0.0
C133 C 0.40873 0.57669 0.93087 0.0
C134 C 0.48338 0.64063 0.925 0.0
C135 C 0.44768 0.683 0.9305 0.0
C136 C 0.39199 0.67255 0.93581 0.0
C137 C 0.63018 0.46533 0.92578 0.0
C138 C 0.64421 0.41141 0.92069 0.0
C139 C 0.6671 0.49738 0.94361 0.0
C140 C 0.71762 0.47623 0.95534 0.0
C141 C 0.73224 0.423 0.94911 0.0
C142 C 0.69469 0.39067 0.93205 0.0
C143 C 0.3733 0.61899 0.93689 0.0
H144 H 0.50795 0.38274 0.78808 0.0
H145 H 0.52072 0.39734 0.8397 0.0
H146 H 0.47618 0.56444 0.8283 0.0
H147 H 0.46143 0.54929 0.77728 0.0
H148 H 0.58875 0.44705 0.87145 0.0
H149 H 0.4421 0.5444 0.87302 0.0
H150 H 0.55758 0.5381 0.94706 0.0
H151 H 0.39261 0.53584 0.92998 0.0
H152 H 0.52536 0.6496 0.91954 0.0
H153 H 0.46307 0.724 0.9298 0.0
H154 H 0.61622 0.3851 0.90775 0.0
H155 H 0.65778 0.53916 0.94784 0.0
H156 H 0.33047 0.61001 0.94084 0.0
H157 H 0.70441 0.34906 0.92749 0.0
H158 H 0.74589 0.5018 0.96856 0.0
C159 C 0.58446 0.53592 0.24021 0.0
C160 C 0.58045 0.4816 0.24747 0.0
C161 C 0.57161 0.55203 0.21224 0.0
C162 C 0.55568 0.51398 0.19068 0.0
C163 C 0.55242 0.45929 0.19806 0.0
C164 C 0.56404 0.44337 0.22628 0.0
C165 C 0.5425 0.53165 0.16077 0.0
C166 C 0.57115 0.57544 0.15008 0.0
C167 C 0.55828 0.59371 0.12234 0.0
C168 C 0.51702 0.56705 0.10459 0.0
C169 C 0.48822 0.5227 0.11476 0.0
C170 C 0.50093 0.50561 0.14287 0.0
C171 C 0.44464 0.49374 0.09637 0.0
C172 C 0.40099 0.52168 0.08155 0.0
C173 C 0.44497 0.43728 0.09487 0.0
C174 C 0.40191 0.40917 0.07952 0.0
C175 C 0.3572 0.43681 0.06542 0.0
C176 C 0.58937 0.64041 0.1124 0.0
C177 C 0.59141 0.6887 0.12822 0.0
C178 C 0.62172 0.63535 0.08904 0.0
C179 C 0.65761 0.67712 0.08242 0.0
C180 C 0.66118 0.72506 0.09882 0.0
C181 C 0.62653 0.73073 0.12137 0.0
C182 C 0.35736 0.49342 0.06638 0.0
H183 H 0.59589 0.56621 0.2564 0.0
H184 H 0.57317 0.59461 0.20773 0.0
H185 H 0.54121 0.42865 0.18206 0.0
H186 H 0.56047 0.40123 0.23155 0.0
H187 H 0.60457 0.59512 0.16314 0.0
H188 H 0.47726 0.47269 0.15095 0.0
H189 H 0.5075 0.58068 0.083 0.0
H190 H 0.39964 0.56523 0.0825 0.0
H191 H 0.47828 0.41476 0.10595 0.0
H192 H 0.40269 0.36558 0.07953 0.0
H193 H 0.56653 0.69347 0.14628 0.0
H194 H 0.62125 0.59815 0.07678 0.0
H195 H 0.32353 0.51574 0.05565 0.0
H196 H 0.62696 0.76742 0.13402 0.0
H197 H 0.68405 0.67086 0.06512 0.0
H198 H 0.2234 0.16779 0.00259 0.0
H199 H 0.06833 0.2192 0.0345 0.0
H200 H 0.10613 0.31171 0.04132 0.0
H201 H 0.3071 0.23064 0.05267 0.0
H202 H 0.36169 0.2491 0.03045 0.0
H203 H 0.31789 0.19193 0.02096 0.0
H204 H 0.29053 0.23285 0.97154 0.0
H205 H 0.33492 0.2902 0.98075 0.0
H206 H 0.26241 0.2999 0.96934 0.0
H207 H 0.16757 0.39304 0.0533 0.0
H208 H 0.24557 0.45408 0.0696 0.0
H209 H 0.36131 0.34816 0.03077 0.0
C210 C 0.19668 0.19913 0.00995 0.0
C211 C 0.14222 0.18699 0.0172 0.0
C212 C 0.10899 0.2284 0.02756 0.0
C213 C 0.13054 0.28089 0.03178 0.0
C214 C 0.18533 0.29113 0.02536 0.0
C215 C 0.21772 0.25133 0.01435 0.0
C216 C 0.27744 0.26991 0.01285 0.0
C217 C 0.31838 0.23323 0.03028 0.0
C218 C 0.29218 0.27343 0.98177 0.0
C219 C 0.27463 0.32523 0.02633 0.0
C220 C 0.22097 0.33745 0.03279 0.0
C221 C 0.20943 0.3844 0.04772 0.0
C222 C 0.25398 0.41893 0.05685 0.0
C223 C 0.30943 0.40587 0.05137 0.0
C224 C 0.31932 0.35922 0.03518 0.0
H225 H 0.17489 0.85232 0.01243 0.0
H226 H 0.17879 0.96419 0.94291 0.0
H227 H 0.23739 0.9008 0.91746 0.0
H228 H 0.31259 0.81452 0.01421 0.0
H229 H 0.30133 0.74479 0.02236 0.0
H230 H 0.25323 0.79499 0.03294 0.0
H231 H 0.17107 0.7435 0.00572 0.0
H232 H 0.21883 0.69256 0.99538 0.0
H233 H 0.17485 0.72654 0.96862 0.0
H234 H 0.30649 0.831 0.90348 0.0
H235 H 0.37319 0.75625 0.89947 0.0
H236 H 0.32234 0.68961 0.97809 0.0
C237 C 0.18695 0.86264 0.99148 0.0
C238 C 0.17148 0.91222 0.9791 0.0
C239 C 0.18864 0.92533 0.95203 0.0
C240 C 0.22241 0.88988 0.93769 0.0
C241 C 0.23813 0.84162 0.95082 0.0
C242 C 0.22016 0.82763 0.97692 0.0
C243 C 0.24529 0.77507 0.98729 0.0
C244 C 0.28017 0.78285 0.01588 0.0
C245 C 0.19979 0.73186 0.98936 0.0
C246 C 0.28178 0.7624 0.96344 0.0
C247 C 0.27709 0.80118 0.94258 0.0
C248 C 0.30976 0.79995 0.91943 0.0
C249 C 0.34779 0.75773 0.91746 0.0
C250 C 0.35254 0.71734 0.93845 0.0
C251 C 0.31886 0.71966 0.96159 0.0
H252 H 0.84892 0.90152 0.00288 0.0
H253 H 0.91445 0.98647 0.07917 0.0
H254 H 0.85583 0.92945 0.10811 0.0
H255 H 0.70788 0.8925 0.0228 0.0
H256 H 0.6957 0.82724 0.00627 0.0
H257 H 0.74461 0.87326 0.99237 0.0
H258 H 0.82177 0.80084 -0.00206 0.0
H259 H 0.77315 0.75464 0.01192 0.0
H260 H 0.8379 0.77076 0.0322 0.0
H261 H 0.79043 0.86075 0.12813 0.0
H262 H 0.72208 0.79016 0.13771 0.0
H263 H 0.6941 0.75722 0.04694 0.0
C264 C 0.85099 0.90812 0.02571 0.0
C265 C 0.88765 0.94689 0.03911 0.0
C266 C 0.88859 0.95506 0.06886 0.0
C267 C 0.85486 0.92344 0.08529 0.0
C268 C 0.81976 0.8848 0.07138 0.0
C269 C 0.81727 0.87758 0.04219 0.0
C270 C 0.77524 0.83463 0.0321 0.0
C271 C 0.72807 0.85834 0.01222 0.0
C272 C 0.80374 0.78743 0.0177 0.0
C273 C 0.7545 0.81828 0.06019 0.0
C274 C 0.78072 0.84742 0.08263 0.0
C275 C 0.76919 0.8382 0.11067 0.0
C276 C 0.72987 0.79822 0.11585 0.0
C277 C 0.70207 0.76815 0.09308 0.0
C278 C 0.71473 0.77884 0.06491 0.0
H279 H 0.95779 0.20267 0.9395 0.0
H280 H 0.96961 0.201 0.03147 0.0
H281 H 0.92446 0.29009 0.03231 0.0
H282 H 0.9653 0.35731 0.93062 0.0
H283 H 0.91441 0.35265 0.90049 0.0
H284 H 0.9638 0.29912 0.90734 0.0
H285 H 0.88201 0.23079 0.90736 0.0
H286 H 0.83255 0.28376 0.90102 0.0
H287 H 0.82839 0.24126 0.93153 0.0
H288 H 0.8579 0.36624 0.02293 0.0
H289 H 0.77749 0.42084 0.00434 0.0
H290 H 0.80677 0.3713 0.91841 0.0
C291 C 0.95368 0.22276 0.95975 0.0
C292 C 0.96896 0.19634 0.98542 0.0
C293 C 0.96053 0.22198 0.01164 0.0
C294 C 0.9345 0.27241 0.01226 0.0
C295 C 0.91724 0.29642 0.98643 0.0
C296 C 0.92735 0.27267 0.9606 0.0
C297 C 0.89639 0.30097 0.93595 0.0
C298 C 0.93743 0.32921 0.91752 0.0
C299 C 0.85755 0.26187 0.91796 0.0
C300 C 0.86374 0.34149 0.95196 0.0
C301 C 0.87751 0.33964 0.981 0.0
C302 C 0.84794 0.36913 0.00021 0.0
C303 C 0.80235 0.4 0.98952 0.0
C304 C 0.78633 0.40013 0.96 0.0
C305 C 0.81865 0.37205 0.94107 0.0
H306 H 0.62026 0.68579 0.56741 0.0
H307 H 0.61868 0.68311 0.4757 0.0
H308 H 0.66749 0.77129 0.47722 0.0
H309 H 0.61783 0.84115 0.57793 0.0
H310 H 0.66514 0.83529 0.60933 0.0
H311 H 0.61398 0.78319 0.60036 0.0
H312 H 0.69295 0.71265 0.60204 0.0
H313 H 0.74432 0.76415 0.6103 0.0
H314 H 0.74978 0.72099 0.57962 0.0
H315 H 0.73649 0.84606 0.48955 0.0
H316 H 0.81649 0.89971 0.51123 0.0
H317 H 0.77528 0.8513 0.59505 0.0
C318 C 0.62702 0.70578 0.54766 0.0
C319 C 0.61424 0.67916 0.52143 0.0
C320 C 0.62643 0.70423 0.49589 0.0
C321 C 0.65439 0.75414 0.49664 0.0
C322 C 0.66968 0.77811 0.52311 0.0
C323 C 0.65541 0.75506 0.5482 0.0
C324 C 0.68493 0.78272 0.57397 0.0
C325 C 0.64296 0.81237 0.59142 0.0
C326 C 0.72006 0.74274 0.59252 0.0
C327 C 0.72134 0.82205 0.55955 0.0
C328 C 0.71087 0.82021 0.53026 0.0
C329 C 0.7439 0.8489 0.51247 0.0
C330 C 0.78928 0.87917 0.5249 0.0
C331 C 0.80172 0.87944 0.55474 0.0
C332 C 0.76627 0.85186 0.57217 0.0
H333 H 0.7476 0.40241 0.51031 0.0
H334 H 0.59735 0.38044 0.454 0.0
H335 H 0.64148 0.30486 0.43005 0.0
H336 H 0.84806 0.36752 0.46033 0.0
H337 H 0.89238 0.33208 0.48637 0.0
H338 H 0.85024 0.38706 0.49738 0.0
H339 H 0.80581 0.32453 0.53314 0.0
H340 H 0.84738 0.26919 0.52205 0.0
H341 H 0.77251 0.26263 0.52046 0.0
H342 H 0.70223 0.23112 0.41262 0.0
H343 H 0.77439 0.16375 0.40349 0.0
H344 H 0.88135 0.22927 0.47398 0.0
C345 C 0.72404 0.38218 0.49273 0.0
C346 C 0.6695 0.39862 0.48342 0.0
C347 C 0.63989 0.37022 0.46073 0.0
C348 C 0.6644 0.32669 0.44726 0.0
C349 C 0.71809 0.31146 0.45714 0.0
C350 C 0.74741 0.33819 0.47946 0.0
C351 C 0.80352 0.31251 0.4869 0.0
C352 C 0.85137 0.35215 0.48247 0.0
C353 C 0.8075 0.29094 0.51745 0.0
C354 C 0.80135 0.26709 0.46519 0.0
C355 C 0.75186 0.26739 0.44811 0.0
C356 C 0.74094 0.23029 0.42596 0.0
C357 C 0.78197 0.19228 0.42096 0.0
C358 C 0.8328 0.19136 0.43826 0.0
C359 C 0.84235 0.22883 0.46081 0.0
H360 H 0.33024 0.42531 0.54576 0.0
H361 H 0.48635 0.34102 0.54094 0.0
H362 H 0.44418 0.25922 0.5602 0.0
H363 H 0.2891 0.35963 0.61206 0.0
H364 H 0.21645 0.3582 0.59929 0.0
H365 H 0.26132 0.41143 0.58864 0.0
H366 H 0.23318 0.38805 0.5357 0.0
H367 H 0.18897 0.33427 0.54608 0.0
H368 H 0.24317 0.3205 0.52271 0.0
H369 H 0.38131 0.18407 0.57375 0.0
H370 H 0.30476 0.12287 0.5851 0.0
H371 H 0.19031 0.25726 0.58221 0.0
C372 C 0.35586 0.39007 0.54973 0.0
C373 C 0.41171 0.38936 0.54269 0.0
C374 C 0.44385 0.34232 0.54703 0.0
C375 C 0.42018 0.29581 0.5578 0.0
C376 C 0.36448 0.29738 0.56407 0.0
C377 C 0.333 0.34359 0.56067 0.0
C378 C 0.27329 0.33391 0.56743 0.0
C379 C 0.25923 0.3678 0.5934 0.0
C380 C 0.23227 0.34482 0.54143 0.0
C381 C 0.27556 0.27461 0.57427 0.0
C382 C 0.32851 0.25426 0.57225 0.0
C383 C 0.33992 0.19973 0.57586 0.0
C384 C 0.29618 0.16525 0.58203 0.0
C385 C 0.2419 0.18553 0.58462 0.0
C386 C 0.23167 0.24093 0.58074 0.0
H387 H 0.35723 0.6466 0.51826 0.0
H388 H 0.50755 0.70063 0.48225 0.0
H389 H 0.46723 0.79186 0.47621 0.0
H390 H 0.2674 0.70301 0.47136 0.0
H391 H 0.21553 0.72164 0.49524 0.0
H392 H 0.2615 0.66671 0.50392 0.0
H393 H 0.29396 0.71263 0.55212 0.0
H394 H 0.24734 0.76778 0.54373 0.0
H395 H 0.32049 0.78068 0.55269 0.0
H396 H 0.40183 0.86977 0.46447 0.0
H397 H 0.32012 0.92538 0.44891 0.0
H398 H 0.21319 0.8192 0.49289 0.0
C399 C 0.38248 0.67837 0.5102 0.0
C400 C 0.43564 0.6672 0.50105 0.0
C401 C 0.46734 0.70904 0.49005 0.0
C402 C 0.44453 0.76081 0.48645 0.0
C403 C 0.39052 0.7699 0.49445 0.0
C404 C 0.36041 0.72982 0.50662 0.0
C405 C 0.30089 0.74657 0.50988 0.0
C406 C 0.25893 0.70717 0.49415 0.0
C407 C 0.29005 0.75227 0.54149 0.0
C408 C 0.3007 0.80076 0.49574 0.0
C409 C 0.35299 0.81443 0.48762 0.0
C410 C 0.36116 0.86011 0.47143 0.0
C411 C 0.31457 0.89153 0.4627 0.0
C412 C 0.26055 0.8765 0.46982 0.0
C413 C 0.25416 0.83169 0.48735 0.0
H414 H 0.05603 0.05623 0.12115 0.0
H415 H 0.00123 0.90286 0.08395 0.0
H416 H 0.97613 0.87232 0.13147 0.0
H417 H 0.12172 0.00502 0.18348 0.0
H418 H 0.10269 0.06023 0.20585 0.0
H419 H 0.11003 0.07092 0.16864 0.0
H420 H 0.00921 0.10793 0.16234 0.0
H421 H 0.0017 0.09785 0.19964 0.0
H422 H 0.9522 0.06775 0.17332 0.0
H423 H 0.96365 0.85799 0.18493 0.0
H424 H 0.96205 0.8625 0.23757 0.0
H425 H 0.03031 0.02453 0.23749 0.0
C426 C 0.03772 0.01657 0.12294 0.0
C427 C 0.02935 0.98215 0.09907 0.0
C428 C 0.00661 0.93008 0.1021 0.0
C429 C 0.9926 0.91246 0.12895 0.0
C430 C 0.00221 0.94743 0.1523 0.0
C431 C 0.02402 -0.00147 0.14934 0.0
C432 C 0.03353 0.02778 0.17752 0.0
C433 C 0.09567 0.04177 0.18426 0.0
C434 C 0.99696 0.0783 0.17824 0.0
C435 C 0.01439 0.9851 0.19706 0.0
C436 C 0.9961 0.93903 0.18238 0.0
C437 C 0.97755 0.89408 0.19655 0.0
C438 C 0.97717 0.89682 0.22642 0.0
C439 C 0.99532 0.94414 0.24161 0.0
C440 C 0.0147 0.98827 0.22654 0.0
H441 H 0.10447 0.01343 0.91019 0.0
H442 H 0.99631 0.87713 0.92173 0.0
H443 H 0.01614 0.84091 0.87455 0.0
H444 H 0.05976 0.03909 0.84452 0.0
H445 H 0.12474 0.05778 0.83056 0.0
H446 H 0.11703 0.06457 0.86798 0.0
H447 H 0.20312 0.00418 0.87953 0.0
H448 H 0.21211 -0.00179 0.84197 0.0
H449 H 0.20612 0.9386 0.86298 0.0
H450 H 0.02732 0.83258 0.82318 0.0
H451 H 0.03181 0.85035 0.77225 0.0
H452 H 0.13673 0.99032 0.79326 0.0
C453 C 0.08786 0.97437 0.90333 0.0
C454 C 0.05045 0.94693 0.91966 0.0
C455 C 0.02641 0.89761 0.90965 0.0
C456 C 0.0375 0.87684 0.88293 0.0
C457 C 0.07279 0.90598 0.8666 0.0
C458 C 0.09855 0.95326 0.87662 0.0
C459 C 0.12735 0.98115 0.85334 0.0
C460 C 0.10588 0.03902 0.84885 0.0
C461 C 0.19096 0.98048 0.85984 0.0
C462 C 0.10958 0.94482 0.82817 0.0
C463 C 0.07947 0.90092 0.83641 0.0
C464 C 0.05252 0.86568 0.81654 0.0
C465 C 0.05542 0.87612 0.78753 0.0
C466 C 0.08488 0.92166 0.77855 0.0
C467 C 0.11375 0.95523 0.79931 0.0
H468 H 0.5673 0.54552 0.62556 0.0
H469 H 0.48577 0.40043 0.59143 0.0
H470 H 0.45465 0.37984 0.63906 0.0
H471 H 0.62019 0.49152 0.6905 0.0
H472 H 0.61 0.55198 0.71093 0.0
H473 H 0.62138 0.55633 0.67375 0.0
H474 H 0.52913 0.60915 0.66463 0.0
H475 H 0.51752 0.60515 0.70186 0.0
H476 H 0.46501 0.58067 0.67536 0.0
H477 H 0.43962 0.37291 0.69227 0.0
H478 H 0.43779 0.38256 0.74471 0.0
H479 H 0.53031 0.53257 0.74223 0.0
C480 C 0.54247 0.50959 0.62802 0.0
C481 C 0.52816 0.47466 0.60478 0.0
C482 C 0.49569 0.4282 0.60881 0.0
C483 C 0.47844 0.41608 0.63586 0.0
C484 C 0.49392 0.45126 0.65847 0.0
C485 C 0.52487 0.49731 0.65465 0.0
C486 C 0.53772 0.52809 0.68219 0.0
C487 C 0.60107 0.53218 0.68978 0.0
C488 C 0.51071 0.58407 0.68092 0.0
C489 C 0.50999 0.49183 0.70237 0.0
C490 C 0.48485 0.44766 0.68848 0.0
C491 C 0.45865 0.40767 0.70328 0.0
C492 C 0.45804 0.41329 0.73299 0.0
C493 C 0.48323 0.45866 0.74739 0.0
C494 C 0.50948 0.49813 0.73173 0.0
H495 H 0.47068 0.43234 0.39716 0.0
H496 H 0.63141 0.48911 0.43425 0.0
H497 H 0.66952 0.48153 0.38718 0.0
H498 H 0.52651 0.33922 0.34183 0.0
H499 H 0.46992 0.35618 0.31621 0.0
H500 H 0.45898 0.35534 0.35363 0.0
H501 H 0.42365 0.45362 0.35069 0.0
H502 H 0.43474 0.45493 0.31348 0.0
H503 H 0.46763 0.50499 0.33732 0.0
H504 H 0.68367 0.48642 0.33527 0.0
H505 H 0.67418 0.49813 0.28301 0.0
H506 H 0.50575 0.43461 0.27977 0.0
C507 C 0.51437 0.44158 0.39551 0.0
C508 C 0.54822 0.46102 0.41929 0.0
C509 C 0.60498 0.47344 0.41634 0.0
C510 C 0.62696 0.46923 0.38969 0.0
C511 C 0.59182 0.45177 0.36639 0.0
C512 C 0.53694 0.43721 0.36917 0.0
C513 C 0.50618 0.42517 0.34052 0.0
C514 C 0.48943 0.36541 0.3379 0.0
C515 C 0.45509 0.46188 0.33521 0.0
C516 C 0.55124 0.43849 0.32102 0.0
C517 C 0.60064 0.45299 0.33634 0.0
C518 C 0.6459 0.4735 0.32303 0.0
C519 C 0.64015 0.4802 0.29344 0.0
C520 C 0.58969 0.46616 0.27758 0.0
C521 C 0.54532 0.44384 0.29145 0.0
loop_
_geom_bond_atom_site_label_1
_geom_bond_atom_site_label_2
_geom_bond_distance
_geom_bond_site_symmetry_2
_ccdc_geom_bond_type
Zn0 O6 1.907 1_546 S
Zn0 O12 1.898 . S
Zn0 O15 1.905 1_545 S
Zn1 O9 1.905 . S
Zn1 O10 1.898 1_545 S
Zn1 O18 1.920 1_545 S
Zn2 O5 2.080 1_445 S
Zn2 O8 2.114 . S
Zn2 O11 2.120 1_545 S
Zn2 O13 2.120 1_455 S
Zn2 O14 2.114 1_554 S
Zn2 O17 2.080 . S
C3 O8 1.166 . S
C3 O9 1.182 . S
C4 O10 1.167 . S
C4 O11 1.299 . S
O5 Zn2 2.080 1_665 S
O5 C19 1.305 . S
O6 Zn0 1.907 1_564 S
O6 C19 1.244 . S
C7 O12 1.170 . S
C7 O13 1.297 1_556 S
O8 Zn2 2.114 . S
O8 C3 1.166 . S
O9 Zn1 1.905 . S
O9 C3 1.182 . S
O10 Zn1 1.898 1_565 S
O10 C4 1.167 . S
O11 Zn2 2.120 1_565 S
O11 C4 1.299 . S
O12 Zn0 1.898 . S
O12 C7 1.170 . S
O13 Zn2 2.120 1_655 S
O13 C7 1.297 1_554 S
O14 Zn2 2.114 1_556 S
O14 C16 1.166 1_545 S
O15 Zn0 1.905 1_565 S
O15 C16 1.182 1_655 S
C16 O14 1.166 1_565 S
C16 O15 1.182 1_455 S
O17 Zn2 2.080 . S
O17 C20 1.305 1_545 S
O18 Zn1 1.920 1_565 S
O18 C20 1.234 . S
C19 O5 1.305 . S
C19 O6 1.244 . S
C20 O17 1.305 1_565 S
C20 O18 1.234 . S
Zn21 O27 1.920 . S
Zn21 O33 1.898 . S
Zn21 O36 1.905 . S
Zn22 O30 1.905 . S
Zn22 O31 1.898 . S
Zn22 O39 1.920 . S
Zn23 O26 2.080 . S
Zn23 O29 2.114 . S
Zn23 O32 2.120 . S
Zn23 O34 2.120 . S
Zn23 O35 2.114 . S
Zn23 O38 2.080 . S
C24 O29 1.166 . S
C24 O30 1.182 . S
C25 O31 1.167 . S
C25 O32 1.299 . S
O26 Zn23 2.080 . S
O26 C40 1.305 . S
O27 Zn21 1.920 . S
O27 C40 1.234 . S
C28 O33 1.167 . S
C28 O34 1.299 . S
O29 Zn23 2.114 . S
O29 C24 1.166 . S
O30 Zn22 1.905 . S
O30 C24 1.182 . S
O31 Zn22 1.898 . S
O31 C25 1.167 . S
O32 Zn23 2.120 . S
O32 C25 1.299 . S
O33 Zn21 1.898 . S
O33 C28 1.167 . S
O34 Zn23 2.120 . S
O34 C28 1.299 . S
O35 Zn23 2.114 . S
O35 C37 1.166 . S
O36 Zn21 1.905 . S
O36 C37 1.182 . S
C37 O35 1.166 . S
C37 O36 1.182 . S
O38 Zn23 2.080 . S
O38 C41 1.305 . S
O39 Zn22 1.920 . S
O39 C41 1.234 . S
C40 O26 1.305 . S
C40 O27 1.234 . S
C41 O38 1.305 . S
C41 O39 1.234 . S
C42 C43 1.386 1_565 S
C42 C44 1.397 . S
C42 H66 0.931 . S
C43 C42 1.386 1_545 S
C43 C47 1.397 . S
C44 C42 1.397 . S
C44 C45 1.384 1_565 S
C44 H67 0.930 . S
C45 C44 1.384 1_545 S
C45 C46 1.377 . S
C45 C48 1.481 . S
C46 C45 1.377 . S
C46 C47 1.389 . S
C46 H68 0.929 . S
C47 C43 1.397 . S
C47 C46 1.389 . S
C47 H69 0.931 . S
C48 C45 1.481 . S
C48 C49 1.387 1_545 S
C48 C53 1.390 . S
C49 C48 1.387 1_565 S
C49 C50 1.401 . S
C49 H70 0.930 . S
C50 C49 1.401 . S
C50 C51 1.376 1_565 S
C50 C59 1.511 . S
C51 C50 1.376 1_545 S
C51 C52 1.392 . S
C51 H72 0.931 . S
C52 C51 1.392 . S
C52 C53 1.361 . S
C52 C54 1.500 . S
C53 C48 1.390 . S
C53 C52 1.361 . S
C53 H71 0.931 . S
C54 C52 1.500 . S
C54 C55 1.371 1_455 S
C54 C56 1.365 1_455 S
C55 C54 1.371 1_655 S
C55 C65 1.386 . S
C55 H73 0.931 . S
C56 C54 1.365 1_655 S
C56 C57 1.409 . S
C56 H74 0.929 1_655 S
C57 C56 1.409 . S
C57 C58 1.380 . S
C57 H75 0.930 . S
C58 C57 1.380 . S
C58 C65 1.357 . S
C59 C50 1.511 . S
C59 C60 1.341 . S
C59 C61 1.371 . S
C60 C59 1.341 . S
C60 C64 1.394 . S
C60 H76 0.930 . S
C61 C59 1.371 . S
C61 C62 1.392 . S
C61 H77 0.931 . S
C62 C61 1.392 . S
C62 C63 1.331 . S
C62 H80 0.932 . S
C63 C62 1.331 . S
C63 C64 1.336 . S
C64 C60 1.394 . S
C64 C63 1.336 . S
C64 H79 0.929 . S
C65 C55 1.386 . S
C65 C58 1.357 . S
C65 H78 0.928 . S
H66 C42 0.931 . S
H67 C44 0.930 . S
H68 C46 0.929 . S
H69 C47 0.931 . S
H70 C49 0.930 . S
H71 C53 0.931 . S
H72 C51 0.931 . S
H73 C55 0.931 . S
H74 C56 0.929 1_455 S
H75 C57 0.930 . S
H76 C60 0.930 . S
H77 C61 0.931 . S
H78 C65 0.928 . S
H79 C64 0.929 . S
H80 C62 0.932 . S
C81 C82 1.386 . S
C81 C83 1.397 . S
C81 H105 0.931 . S
C82 C81 1.386 . S
C82 C86 1.397 1_545 S
C83 C81 1.397 . S
C83 C84 1.384 . S
C83 H106 0.930 . S
C84 C83 1.384 . S
C84 C85 1.377 1_545 S
C84 C87 1.481 . S
C85 C84 1.377 1_565 S
C85 C86 1.389 . S
C85 H107 0.929 . S
C86 C82 1.397 1_565 S
C86 C85 1.389 . S
C86 H108 0.931 . S
C87 C84 1.481 . S
C87 C88 1.387 . S
C87 C92 1.390 1_445 S
C88 C87 1.387 . S
C88 C89 1.401 . S
C88 H109 0.930 . S
C89 C88 1.401 . S
C89 C90 1.376 1_455 S
C89 C98 1.511 . S
C90 C89 1.376 1_655 S
C90 C91 1.392 1_545 S
C90 H111 0.931 . S
C91 C90 1.392 1_565 S
C91 C92 1.361 . S
C91 C93 1.500 . S
C92 C87 1.390 1_665 S
C92 C91 1.361 . S
C92 H110 0.931 . S
C93 C91 1.500 . S
C93 C94 1.371 . S
C93 C95 1.365 . S
C94 C93 1.371 . S
C94 C104 1.386 . S
C94 H112 0.931 . S
C95 C93 1.365 . S
C95 C96 1.409 . S
C95 H113 0.929 . S
C96 C95 1.409 . S
C96 C97 1.380 . S
C96 H114 0.930 . S
C97 C96 1.380 . S
C97 C104 1.357 . S
C98 C89 1.511 . S
C98 C99 1.341 . S
C98 C100 1.371 . S
C99 C98 1.341 . S
C99 C103 1.394 . S
C99 H115 0.930 . S
C100 C98 1.371 . S
C100 C101 1.392 . S
C100 H116 0.931 . S
C101 C100 1.392 . S
C101 C102 1.331 . S
C101 H119 0.932 . S
C102 C101 1.331 . S
C102 C103 1.336 . S
C103 C99 1.394 . S
C103 C102 1.336 . S
C103 H118 0.929 . S
C104 C94 1.386 . S
C104 C97 1.357 . S
C104 H117 0.928 . S
H105 C81 0.931 . S
H106 C83 0.930 . S
H107 C85 0.929 . S
H108 C86 0.931 . S
H109 C88 0.930 . S
H110 C92 0.931 . S
H111 C90 0.931 . S
H112 C94 0.931 . S
H113 C95 0.929 . S
H114 C96 0.930 . S
H115 C99 0.930 . S
H116 C100 0.931 . S
H117 C104 0.928 . S
H118 C103 0.929 . S
H119 C101 0.932 . S
C120 C121 1.386 . S
C120 C122 1.397 . S
C120 H144 0.931 . S
C121 C120 1.386 . S
C121 C125 1.397 . S
C122 C120 1.397 . S
C122 C123 1.384 . S
C122 H145 0.930 . S
C123 C122 1.384 . S
C123 C124 1.377 . S
C123 C126 1.481 . S
C124 C123 1.377 . S
C124 C125 1.389 . S
C124 H146 0.929 . S
C125 C121 1.397 . S
C125 C124 1.389 . S
C125 H147 0.931 . S
C126 C123 1.481 . S
C126 C127 1.387 . S
C126 C131 1.390 . S
C127 C126 1.387 . S
C127 C128 1.401 . S
C127 H148 0.930 . S
C128 C127 1.401 . S
C128 C129 1.376 . S
C128 C137 1.511 . S
C129 C128 1.376 . S
C129 C130 1.392 . S
C129 H150 0.931 . S
C130 C129 1.392 . S
C130 C131 1.361 . S
C130 C132 1.500 . S
C131 C126 1.390 . S
C131 C130 1.361 . S
C131 H149 0.931 . S
C132 C130 1.500 . S
C132 C133 1.371 . S
C132 C134 1.365 . S
C133 C132 1.371 . S
C133 C143 1.386 . S
C133 H151 0.931 . S
C134 C132 1.365 . S
C134 C135 1.409 . S
C134 H152 0.929 . S
C135 C134 1.409 . S
C135 C136 1.380 . S
C135 H153 0.930 . S
C136 C135 1.380 . S
C136 C143 1.357 . S
C137 C128 1.511 . S
C137 C138 1.341 . S
C137 C139 1.371 . S
C138 C137 1.341 . S
C138 C142 1.394 . S
C138 H154 0.930 . S
C139 C137 1.371 . S
C139 C140 1.392 . S
C139 H155 0.931 . S
C140 C139 1.392 . S
C140 C141 1.331 . S
C140 H158 0.944 . S
C141 C140 1.331 . S
C141 C142 1.336 . S
C142 C138 1.394 . S
C142 C141 1.336 . S
C142 H157 0.929 . S
C143 C133 1.386 . S
C143 C136 1.357 . S
C143 H156 0.928 . S
H144 C120 0.931 . S
H145 C122 0.930 . S
H146 C124 0.929 . S
H147 C125 0.931 . S
H148 C127 0.930 . S
H149 C131 0.931 . S
H150 C129 0.931 . S
H151 C133 0.931 . S
H152 C134 0.929 . S
H153 C135 0.930 . S
H154 C138 0.930 . S
H155 C139 0.931 . S
H156 C143 0.928 . S
H157 C142 0.929 . S
H158 C140 0.944 . S
C159 C160 1.386 . S
C159 C161 1.397 . S
C159 H183 0.931 . S
C160 C159 1.386 . S
C160 C164 1.397 . S
C161 C159 1.397 . S
C161 C162 1.384 . S
C161 H184 0.930 . S
C162 C161 1.384 . S
C162 C163 1.377 . S
C162 C165 1.481 . S
C163 C162 1.377 . S
C163 C164 1.389 . S
C163 H185 0.929 . S
C164 C160 1.397 . S
C164 C163 1.389 . S
C164 H186 0.931 . S
C165 C162 1.481 . S
C165 C166 1.387 . S
C165 C170 1.390 . S
C166 C165 1.387 . S
C166 C167 1.401 . S
C166 H187 0.930 . S
C167 C166 1.401 . S
C167 C168 1.376 . S
C167 C176 1.511 . S
C168 C167 1.376 . S
C168 C169 1.392 . S
C168 H189 0.931 . S
C169 C168 1.392 . S
C169 C170 1.361 . S
C169 C171 1.500 . S
C170 C165 1.390 . S
C170 C169 1.361 . S
C170 H188 0.931 . S
C171 C169 1.500 . S
C171 C172 1.371 . S
C171 C173 1.365 . S
C172 C171 1.371 . S
C172 C182 1.386 . S
C172 H190 0.931 . S
C173 C171 1.365 . S
C173 C174 1.409 . S
C173 H191 0.929 . S
C174 C173 1.409 . S
C174 C175 1.380 . S
C174 H192 0.930 . S
C175 C174 1.380 . S
C175 C182 1.357 . S
C176 C167 1.511 . S
C176 C177 1.341 . S
C176 C178 1.371 . S
C177 C176 1.341 . S
C177 C181 1.394 . S
C177 H193 0.930 . S
C178 C176 1.371 . S
C178 C179 1.392 . S
C178 H194 0.931 . S
C179 C178 1.392 . S
C179 C180 1.331 . S
C179 H197 0.932 . S
C180 C179 1.331 . S
C180 C181 1.336 . S
C181 C177 1.394 . S
C181 C180 1.336 . S
C181 H196 0.929 . S
C182 C172 1.386 . S
C182 C175 1.357 . S
C182 H195 0.928 . S
H183 C159 0.931 . S
H184 C161 0.930 . S
H185 C163 0.929 . S
H186 C164 0.931 . S
H187 C166 0.930 . S
H188 C170 0.931 . S
H189 C168 0.931 . S
H190 C172 0.931 . S
H191 C173 0.929 . S
H192 C174 0.930 . S
H193 C177 0.930 . S
H194 C178 0.931 . S
H195 C182 0.928 . S
H196 C181 0.929 . S
H197 C179 0.932 . S
H198 C210 0.930 1_556 S
H199 C212 0.930 . S
H200 C213 0.930 . S
H201 C217 0.942 1_554 S
H202 C217 0.970 . S
H203 C217 0.974 . S
H204 C218 0.960 . S
H205 C218 0.961 . S
H206 C218 0.959 . S
H207 C221 0.929 . S
H208 C222 0.931 . S
H209 C224 0.930 . S
C210 H198 0.930 1_554 S
C210 C211 1.399 . S
C210 C215 1.399 . S
C211 C210 1.399 . S
C211 C212 1.376 . S
C212 H199 0.930 . S
C212 C211 1.376 . S
C212 C213 1.388 . S
C213 H200 0.930 . S
C213 C212 1.388 . S
C213 C214 1.390 . S
C214 C213 1.390 . S
C214 C215 1.394 . S
C214 C220 1.465 . S
C215 C210 1.399 . S
C215 C214 1.394 . S
C215 C216 1.516 . S
C216 C215 1.516 . S
C216 C217 1.495 1_554 S
C216 C218 1.561 1_554 S
C216 C219 1.526 . S
C217 H201 0.942 1_556 S
C217 H202 0.970 . S
C217 H203 0.974 . S
C217 C216 1.495 1_556 S
C218 H204 0.960 . S
C218 H205 0.961 . S
C218 H206 0.959 . S
C218 C216 1.561 1_556 S
C219 C216 1.526 . S
C219 C220 1.396 . S
C219 C224 1.390 . S
C220 C214 1.465 . S
C220 C219 1.396 . S
C220 C221 1.399 . S
C221 H207 0.929 . S
C221 C220 1.399 . S
C221 C222 1.385 . S
C222 H208 0.931 . S
C222 C221 1.385 . S
C222 C223 1.389 . S
C223 C222 1.389 . S
C223 C224 1.387 . S
C224 H209 0.930 . S
C224 C219 1.390 . S
C224 C223 1.387 . S
H225 C237 0.930 . S
H226 C239 0.930 . S
H227 C240 0.930 . S
H228 C244 0.959 . S
H229 C244 0.959 . S
H230 C244 0.961 . S
H231 C245 0.960 . S
H232 C245 0.961 . S
H233 C245 0.959 . S
H234 C248 0.929 . S
H235 C249 0.931 . S
H236 C251 0.930 1_554 S
C237 H225 0.930 . S
C237 C238 1.399 1_554 S
C237 C242 1.399 . S
C238 C237 1.399 1_556 S
C238 C239 1.376 . S
C239 H226 0.930 . S
C239 C238 1.376 . S
C239 C240 1.388 . S
C240 H227 0.930 . S
C240 C239 1.388 . S
C240 C241 1.390 . S
C241 C240 1.390 . S
C241 C242 1.394 1_556 S
C241 C247 1.465 . S
C242 C237 1.399 . S
C242 C241 1.394 1_554 S
C242 C243 1.516 . S
C243 C242 1.516 . S
C243 C244 1.502 . S
C243 C245 1.561 . S
C243 C246 1.526 1_554 S
C244 H228 0.959 . S
C244 H229 0.959 . S
C244 H230 0.961 . S
C244 C243 1.502 . S
C245 H231 0.960 . S
C245 H232 0.961 . S
C245 H233 0.959 . S
C245 C243 1.561 . S
C246 C243 1.526 1_556 S
C246 C247 1.396 . S
C246 C251 1.390 . S
C247 C241 1.465 . S
C247 C246 1.396 . S
C247 C248 1.399 . S
C248 H234 0.929 . S
C248 C247 1.399 . S
C248 C249 1.385 . S
C249 H235 0.931 . S
C249 C248 1.385 . S
C249 C250 1.389 . S
C250 C249 1.389 . S
C250 C251 1.387 . S
C251 H236 0.930 1_556 S
C251 C246 1.390 . S
C251 C250 1.387 . S
H252 C264 0.930 1_556 S
H253 C266 0.930 . S
H254 C267 0.930 . S
H255 C271 0.959 1_554 S
H256 C271 0.959 . S
H257 C271 0.961 . S
H258 C272 0.960 . S
H259 C272 0.961 . S
H260 C272 0.959 . S
H261 C275 0.929 . S
H262 C276 0.931 . S
H263 C278 0.930 . S
C264 H252 0.930 1_554 S
C264 C265 1.399 . S
C264 C269 1.399 . S
C265 C264 1.399 . S
C265 C266 1.376 . S
C266 H253 0.930 . S
C266 C265 1.376 . S
C266 C267 1.388 . S
C267 H254 0.930 . S
C267 C266 1.388 . S
C267 C268 1.390 . S
C268 C267 1.390 . S
C268 C269 1.394 . S
C268 C274 1.465 . S
C269 C264 1.399 . S
C269 C268 1.394 . S
C269 C270 1.516 . S
C270 C269 1.516 . S
C270 C271 1.502 1_554 S
C270 C272 1.561 1_554 S
C270 C273 1.526 . S
C271 H255 0.959 1_556 S
C271 H256 0.959 . S
C271 H257 0.961 . S
C271 C270 1.502 1_556 S
C272 H258 0.960 . S
C272 H259 0.961 . S
C272 H260 0.959 . S
C272 C270 1.561 1_556 S
C273 C270 1.526 . S
C273 C274 1.396 . S
C273 C278 1.390 . S
C274 C268 1.465 . S
C274 C273 1.396 . S
C274 C275 1.399 . S
C275 H261 0.929 . S
C275 C274 1.399 . S
C275 C276 1.385 . S
C276 H262 0.931 . S
C276 C275 1.385 . S
C276 C277 1.389 . S
C277 C276 1.389 . S
C277 C278 1.387 . S
C278 H263 0.930 . S
C278 C273 1.390 . S
C278 C277 1.387 . S
H279 C291 0.930 . S
H280 C293 0.930 . S
H281 C294 0.930 . S
H282 C298 0.959 . S
H283 C298 0.959 . S
H284 C298 0.961 . S
H285 C299 0.960 . S
H286 C299 0.961 . S
H287 C299 0.959 . S
H288 C302 0.929 . S
H289 C303 0.931 . S
H290 C305 0.930 . S
C291 H279 0.930 . S
C291 C292 1.399 1_556 S
C291 C296 1.399 . S
C292 C291 1.399 1_554 S
C292 C293 1.376 . S
C293 H280 0.930 . S
C293 C292 1.376 . S
C293 C294 1.388 . S
C294 H281 0.930 . S
C294 C293 1.388 . S
C294 C295 1.390 . S
C295 C294 1.390 . S
C295 C296 1.394 1_554 S
C295 C301 1.465 . S
C296 C291 1.399 . S
C296 C295 1.394 1_556 S
C296 C297 1.516 . S
C297 C296 1.516 . S
C297 C298 1.502 . S
C297 C299 1.561 . S
C297 C300 1.526 . S
C298 H282 0.959 . S
C298 H283 0.959 . S
C298 H284 0.961 . S
C298 C297 1.502 . S
C299 H285 0.960 . S
C299 H286 0.961 . S
C299 H287 0.959 . S
C299 C297 1.561 . S
C300 C297 1.526 . S
C300 C301 1.396 1_556 S
C300 C305 1.390 . S
C301 C295 1.465 . S
C301 C300 1.396 1_554 S
C301 C302 1.399 . S
C302 H288 0.929 . S
C302 C301 1.399 . S
C302 C303 1.385 . S
C303 H289 0.931 . S
C303 C302 1.385 . S
C303 C304 1.389 1_554 S
C304 C303 1.389 1_556 S
C304 C305 1.387 . S
C305 H290 0.930 . S
C305 C300 1.390 . S
C305 C304 1.387 . S
H306 C318 0.930 . S
H307 C320 0.930 . S
H308 C321 0.930 . S
H309 C325 0.959 . S
H310 C325 0.959 . S
H311 C325 0.961 . S
H312 C326 0.960 . S
H313 C326 0.961 . S
H314 C326 0.959 . S
H315 C329 0.929 . S
H316 C330 0.931 . S
H317 C332 0.930 . S
C318 H306 0.930 . S
C318 C319 1.399 . S
C318 C323 1.399 . S
C319 C318 1.399 . S
C319 C320 1.376 . S
C320 H307 0.930 . S
C320 C319 1.376 . S
C320 C321 1.388 . S
C321 H308 0.930 . S
C321 C320 1.388 . S
C321 C322 1.390 . S
C322 C321 1.390 . S
C322 C323 1.394 . S
C322 C328 1.465 . S
C323 C318 1.399 . S
C323 C322 1.394 . S
C323 C324 1.516 . S
C324 C323 1.516 . S
C324 C325 1.502 . S
C324 C326 1.561 . S
C324 C327 1.526 . S
C325 H309 0.959 . S
C325 H310 0.959 . S
C325 H311 0.961 . S
C325 C324 1.502 . S
C326 H312 0.960 . S
C326 H313 0.961 . S
C326 H314 0.959 . S
C326 C324 1.561 . S
C327 C324 1.526 . S
C327 C328 1.396 . S
C327 C332 1.390 . S
C328 C322 1.465 . S
C328 C327 1.396 . S
C328 C329 1.399 . S
C329 H315 0.929 . S
C329 C328 1.399 . S
C329 C330 1.385 . S
C330 H316 0.931 . S
C330 C329 1.385 . S
C330 C331 1.389 . S
C331 C330 1.389 . S
C331 C332 1.387 . S
C332 H317 0.930 . S
C332 C327 1.390 . S
C332 C331 1.387 . S
H333 C345 0.930 . S
H334 C347 0.930 . S
H335 C348 0.930 . S
H336 C352 0.959 . S
H337 C352 0.959 . S
H338 C352 0.961 . S
H339 C353 0.960 . S
H340 C353 0.961 . S
H341 C353 0.959 . S
H342 C356 0.929 . S
H343 C357 0.931 . S
H344 C359 0.930 . S
C345 H333 0.930 . S
C345 C346 1.399 . S
C345 C350 1.399 . S
C346 C345 1.399 . S
C346 C347 1.376 . S
C347 H334 0.930 . S
C347 C346 1.376 . S
C347 C348 1.388 . S
C348 H335 0.930 . S
C348 C347 1.388 . S
C348 C349 1.390 . S
C349 C348 1.390 . S
C349 C350 1.394 . S
C349 C355 1.465 . S
C350 C345 1.399 . S
C350 C349 1.394 . S
C350 C351 1.516 . S
C351 C350 1.516 . S
C351 C352 1.502 . S
C351 C353 1.561 . S
C351 C354 1.526 . S
C352 H336 0.959 . S
C352 H337 0.959 . S
C352 H338 0.961 . S
C352 C351 1.502 . S
C353 H339 0.960 . S
C353 H340 0.961 . S
C353 H341 0.959 . S
C353 C351 1.561 . S
C354 C351 1.526 . S
C354 C355 1.396 . S
C354 C359 1.390 . S
C355 C349 1.465 . S
C355 C354 1.396 . S
C355 C356 1.399 . S
C356 H342 0.929 . S
C356 C355 1.399 . S
C356 C357 1.385 . S
C357 H343 0.931 . S
C357 C356 1.385 . S
C357 C358 1.389 . S
C358 C357 1.389 . S
C358 C359 1.387 . S
C359 H344 0.930 . S
C359 C354 1.390 . S
C359 C358 1.387 . S
H360 C372 0.930 . S
H361 C374 0.930 . S
H362 C375 0.930 . S
H363 C379 0.959 . S
H364 C379 0.959 . S
H365 C379 0.961 . S
H366 C380 0.960 . S
H367 C380 0.961 . S
H368 C380 0.959 . S
H369 C383 0.929 . S
H370 C384 0.931 . S
H371 C386 0.930 . S
C372 H360 0.930 . S
C372 C373 1.399 . S
C372 C377 1.399 . S
C373 C372 1.399 . S
C373 C374 1.376 . S
C374 H361 0.930 . S
C374 C373 1.376 . S
C374 C375 1.388 . S
C375 H362 0.930 . S
C375 C374 1.388 . S
C375 C376 1.390 . S
C376 C375 1.390 . S
C376 C377 1.394 . S
C376 C382 1.465 . S
C377 C372 1.399 . S
C377 C376 1.394 . S
C377 C378 1.516 . S
C378 C377 1.516 . S
C378 C379 1.502 . S
C378 C380 1.561 . S
C378 C381 1.526 . S
C379 H363 0.959 . S
C379 H364 0.959 . S
C379 H365 0.961 . S
C379 C378 1.502 . S
C380 H366 0.960 . S
C380 H367 0.961 . S
C380 H368 0.959 . S
C380 C378 1.561 . S
C381 C378 1.526 . S
C381 C382 1.396 . S
C381 C386 1.390 . S
C382 C376 1.465 . S
C382 C381 1.396 . S
C382 C383 1.399 . S
C383 H369 0.929 . S
C383 C382 1.399 . S
C383 C384 1.385 . S
C384 H370 0.931 . S
C384 C383 1.385 . S
C384 C385 1.389 . S
C385 C384 1.389 . S
C385 C386 1.387 . S
C386 H371 0.930 . S
C386 C381 1.390 . S
C386 C385 1.387 . S
H387 C399 0.930 . S
H388 C401 0.930 . S
H389 C402 0.930 . S
H390 C406 0.959 . S
H391 C406 0.959 . S
H392 C406 0.961 . S
H393 C407 0.960 . S
H394 C407 0.961 . S
H395 C407 0.959 . S
H396 C410 0.929 . S
H397 C411 0.931 . S
H398 C413 0.930 . S
C399 H387 0.930 . S
C399 C400 1.399 . S
C399 C404 1.399 . S
C400 C399 1.399 . S
C400 C401 1.376 . S
C401 H388 0.930 . S
C401 C400 1.376 . S
C401 C402 1.388 . S
C402 H389 0.930 . S
C402 C401 1.388 . S
C402 C403 1.390 . S
C403 C402 1.390 . S
C403 C404 1.394 . S
C403 C409 1.465 . S
C404 C399 1.399 . S
C404 C403 1.394 . S
C404 C405 1.516 . S
C405 C404 1.516 . S
C405 C406 1.502 . S
C405 C407 1.561 . S
C405 C408 1.526 . S
C406 H390 0.959 . S
C406 H391 0.959 . S
C406 H392 0.961 . S
C406 C405 1.502 . S
C407 H393 0.960 . S
C407 H394 0.961 . S
C407 H395 0.959 . S
C407 C405 1.561 . S
C408 C405 1.526 . S
C408 C409 1.396 . S
C408 C413 1.390 . S
C409 C403 1.465 . S
C409 C408 1.396 . S
C409 C410 1.399 . S
C410 H396 0.929 . S
C410 C409 1.399 . S
C410 C411 1.385 . S
C411 H397 0.931 . S
C411 C410 1.385 . S
C411 C412 1.389 . S
C412 C411 1.389 . S
C412 C413 1.387 . S
C413 H398 0.930 . S
C413 C408 1.390 . S
C413 C412 1.387 . S
H414 C426 0.930 . S
H415 C428 0.930 . S
H416 C429 0.930 . S
H417 C433 0.959 . S
H418 C433 0.959 . S
H419 C433 0.961 . S
H420 C434 0.960 . S
H421 C434 0.961 . S
H422 C434 0.959 1_655 S
H423 C437 0.929 . S
H424 C438 0.931 . S
H425 C440 0.930 . S
C426 H414 0.930 . S
C426 C427 1.399 1_545 S
C426 C431 1.399 . S
C427 C426 1.399 1_565 S
C427 C428 1.376 . S
C428 H415 0.930 . S
C428 C427 1.376 . S
C428 C429 1.388 . S
C429 H416 0.930 . S
C429 C428 1.388 . S
C429 C430 1.390 . S
C430 C429 1.390 . S
C430 C431 1.394 1_565 S
C430 C436 1.465 . S
C431 C426 1.399 . S
C431 C430 1.394 1_545 S
C431 C432 1.516 . S
C432 C431 1.516 . S
C432 C433 1.502 . S
C432 C434 1.561 . S
C432 C435 1.526 . S
C433 H417 0.959 . S
C433 H418 0.959 . S
C433 H419 0.961 . S
C433 C432 1.502 . S
C434 H420 0.960 . S
C434 H421 0.961 . S
C434 H422 0.959 1_455 S
C434 C432 1.561 . S
C435 C432 1.526 . S
C435 C436 1.396 1_545 S
C435 C440 1.390 . S
C436 C430 1.465 . S
C436 C435 1.396 1_565 S
C436 C437 1.399 . S
C437 H423 0.929 . S
C437 C436 1.399 . S
C437 C438 1.385 . S
C438 H424 0.931 . S
C438 C437 1.385 . S
C438 C439 1.389 1_565 S
C439 C438 1.389 1_545 S
C439 C440 1.387 . S
C440 H425 0.930 . S
C440 C435 1.390 . S
C440 C439 1.387 . S
H441 C453 0.930 . S
H442 C455 0.930 . S
H443 C456 0.930 . S
H444 C460 0.959 . S
H445 C460 0.959 . S
H446 C460 0.961 . S
H447 C461 0.960 1_545 S
H448 C461 0.959 1_545 S
H449 C461 0.963 . S
H450 C464 0.929 . S
H451 C465 0.931 . S
H452 C467 0.930 . S
C453 H441 0.930 . S
C453 C454 1.399 1_545 S
C453 C458 1.399 . S
C454 C453 1.399 1_565 S
C454 C455 1.376 1_455 S
C455 H442 0.930 . S
C455 C454 1.376 1_655 S
C455 C456 1.388 . S
C456 H443 0.930 . S
C456 C455 1.388 . S
C456 C457 1.390 . S
C457 C456 1.390 . S
C457 C458 1.394 1_665 S
C457 C463 1.465 . S
C458 C453 1.399 . S
C458 C457 1.394 1_445 S
C458 C459 1.516 . S
C459 C458 1.516 . S
C459 C460 1.502 . S
C459 C461 1.559 1_545 S
C459 C462 1.526 . S
C460 H444 0.959 . S
C460 H445 0.959 . S
C460 H446 0.961 . S
C460 C459 1.502 . S
C461 H447 0.960 1_565 S
C461 H448 0.959 1_565 S
C461 H449 0.963 . S
C461 C459 1.559 1_565 S
C462 C459 1.526 . S
C462 C463 1.396 1_445 S
C462 C467 1.390 . S
C463 C457 1.465 . S
C463 C462 1.396 1_665 S
C463 C464 1.399 . S
C464 H450 0.929 . S
C464 C463 1.399 . S
C464 C465 1.385 . S
C465 H451 0.931 . S
C465 C464 1.385 . S
C465 C466 1.389 1_665 S
C466 C465 1.389 1_445 S
C466 C467 1.387 . S
C467 H452 0.930 . S
C467 C462 1.390 . S
C467 C466 1.387 . S
H468 C480 0.930 . S
H469 C482 0.930 . S
H470 C483 0.930 . S
H471 C487 0.959 . S
H472 C487 0.959 . S
H473 C487 0.961 . S
H474 C488 0.960 . S
H475 C488 0.961 . S
H476 C488 0.959 . S
H477 C491 0.929 . S
H478 C492 0.931 . S
H479 C494 0.930 . S
C480 H468 0.930 . S
C480 C481 1.399 . S
C480 C485 1.399 . S
C481 C480 1.399 . S
C481 C482 1.376 . S
C482 H469 0.930 . S
C482 C481 1.376 . S
C482 C483 1.388 . S
C483 H470 0.930 . S
C483 C482 1.388 . S
C483 C484 1.390 . S
C484 C483 1.390 . S
C484 C485 1.394 . S
C484 C490 1.465 . S
C485 C480 1.399 . S
C485 C484 1.394 . S
C485 C486 1.516 . S
C486 C485 1.516 . S
C486 C487 1.502 . S
C486 C488 1.561 . S
C486 C489 1.526 . S
C487 H471 0.959 . S
C487 H472 0.959 . S
C487 H473 0.961 . S
C487 C486 1.502 . S
C488 H474 0.960 . S
C488 H475 0.961 . S
C488 H476 0.959 . S
C488 C486 1.561 . S
C489 C486 1.526 . S
C489 C490 1.396 . S
C489 C494 1.390 . S
C490 C484 1.465 . S
C490 C489 1.396 . S
C490 C491 1.399 . S
C491 H477 0.929 . S
C491 C490 1.399 . S
C491 C492 1.385 . S
C492 H478 0.931 . S
C492 C491 1.385 . S
C492 C493 1.389 . S
C493 C492 1.389 . S
C493 C494 1.387 . S
C494 H479 0.930 . S
C494 C489 1.390 . S
C494 C493 1.387 . S
H495 C507 0.930 . S
H496 C509 0.930 . S
H497 C510 0.930 . S
H498 C514 0.959 . S
H499 C514 0.959 . S
H500 C514 0.961 . S
H501 C515 0.960 . S
H502 C515 0.961 . S
H503 C515 0.959 . S
H504 C518 0.929 . S
H505 C519 0.931 . S
H506 C521 0.930 . S
C507 H495 0.930 . S
C507 C508 1.399 . S
C507 C512 1.399 . S
C508 C507 1.399 . S
C508 C509 1.376 . S
C509 H496 0.930 . S
C509 C508 1.376 . S
C509 C510 1.388 . S
C510 H497 0.930 . S
C510 C509 1.388 . S
C510 C511 1.390 . S
C511 C510 1.390 . S
C511 C512 1.394 . S
C511 C517 1.465 . S
C512 C507 1.399 . S
C512 C511 1.394 . S
C512 C513 1.516 . S
C513 C512 1.516 . S
C513 C514 1.502 . S
C513 C515 1.561 . S
C513 C516 1.526 . S
C514 H498 0.959 . S
C514 H499 0.959 . S
C514 H500 0.961 . S
C514 C513 1.502 . S
C515 H501 0.960 . S
C515 H502 0.961 . S
C515 H503 0.959 . S
C515 C513 1.561 . S
C516 C513 1.526 . S
C516 C517 1.396 . S
C516 C521 1.390 . S
C517 C511 1.465 . S
C517 C516 1.396 . S
C517 C518 1.399 . S
C518 H504 0.929 . S
C518 C517 1.399 . S
C518 C519 1.385 . S
C519 H505 0.931 . S
C519 C518 1.385 . S
C519 C520 1.389 . S
C520 C519 1.389 . S
C520 C521 1.387 . S
C521 H506 0.930 . S
C521 C516 1.390 . S
C521 C520 1.387 . S
C223 C175 1.208 . S
C211 C3 1.153 . S
C238 C4 1.548 1_556 S
C250 C136 1.586 . S
C265 C19 1.572 . S
C277 C180 1.609 . S
C292 C7 1.143 1_554 S
C304 C141 1.265 . S
C319 C37 1.123 . S
C331 C97 1.256 . S
C346 C28 1.548 . S
C358 C58 1.585 . S
C385 C102 1.611 . S
C373 C41 1.568 . S
C412 C63 1.213 . S
C400 C25 1.133 . S
C427 C20 1.354 . S
C439 C43 1.435 . S
C454 C16 1.332 . S
C466 C82 1.498 . S
C493 C121 1.435 . S
C481 C40 1.359 . S
C508 C24 1.274 . S
C520 C160 1.512 . S
