# Generated by pormake.
# Topology pts, (4,4)-cn, num edge types: 1
# Building blocks:
#     Node 0, Type 0, BuildingBlock: NAWXER_clean_linker_0, # of connection points: 4
#     Node 1, Type 0, BuildingBlock: NAWXER_clean_linker_0, # of connection points: 4
#     Node 2, Type 1, BuildingBlock: AZAVOO_clean_sbu_0, # of connection points: 4
#     Node 3, Type 1, BuildingBlock: AZAVOO_clean_sbu_0, # of connection points: 4
#     Edge 4, Type (0, 1), BuildingBlock: FUNLAD_clean_linker_1, # of connection points: 2
#     Edge 5, Type (0, 1), BuildingBlock: FUNLAD_clean_linker_1, # of connection points: 2
#     Edge 6, Type (0, 1), BuildingBlock: FUNLAD_clean_linker_1, # of connection points: 2
#     Edge 7, Type (0, 1), BuildingBlock: FUNLAD_clean_linker_1, # of connection points: 2
#     Edge 8, Type (0, 1), BuildingBlock: FUNLAD_clean_linker_1, # of connection points: 2
#     Edge 9, Type (0, 1), BuildingBlock: FUNLAD_clean_linker_1, # of connection points: 2
#     Edge 10, Type (0, 1), BuildingBlock: FUNLAD_clean_linker_1, # of connection points: 2
#     Edge 11, Type (0, 1), BuildingBlock: FUNLAD_clean_linker_1, # of connection points: 2
# Relax obj value: 0.000
# Max RMSD: 0.035
# Mean RMSD: 0.020
data_MOF--net-pts--node1-AZAVOO_clean_sbu_0--node2-NAWXER_clean_linker_0--edge1-FUNLAD_clean_linker_1
_symmetry_space_group_name_H-M    P1
_symmetry_Int_Tables_number       1
_symmetry_cell_setting            triclinic
loop_
_symmetry_equiv_pos_as_xyz
'x, y, z'
_cell_length_a     29.925674
_cell_length_b     30.63717
_cell_length_c     44.123516
_cell_angle_alpha  89.807881
_cell_angle_beta   96.032903
_cell_angle_gamma 90.079434
loop_
_atom_site_label
_atom_site_type_symbol
_atom_site_fract_x
_atom_site_fract_y
_atom_site_fract_z
_atom_type_partial_charge
C0 C 0.69538 0.0629 0.9692 0.0
C1 C 0.6985 0.03556 0.94404 0.0
C2 C 0.65808 0.06078 0.98574 0.0
C3 C 0.62345 0.03057 0.97785 0.0
C4 C 0.66397 0.005 0.93632 0.0
C5 C 0.6267 0.00284 0.95293 0.0
C6 C 0.58251 0.0298 0.9941 0.0
C7 C 0.69147 0.98319 0.06453 0.0
C8 C 0.70353 0.01353 0.08772 0.0
C9 C 0.65317 0.98973 0.04405 0.0
C10 C 0.62581 0.02643 0.0467 0.0
C11 C 0.67614 0.05035 0.09035 0.0
C12 C 0.63734 0.05648 0.07016 0.0
C13 C 0.58382 0.03193 0.02616 0.0
C14 C 0.38995 0.01003 0.04826 0.0
C15 C 0.38678 0.04174 0.07083 0.0
C16 C 0.42778 0.00801 0.03225 0.0
C17 C 0.46283 0.03838 0.038 0.0
C18 C 0.4219 0.07223 0.07653 0.0
C19 C 0.45966 0.0703 0.0604 0.0
C20 C 0.50377 0.03591 0.02189 0.0
C21 C 0.39156 0.06804 0.94808 0.0
C22 C 0.38001 0.03157 0.92972 0.0
C23 C 0.43106 0.06808 0.96809 0.0
C24 C 0.46008 0.03201 0.96947 0.0
C25 C 0.40918 0.99548 0.93116 0.0
C26 C 0.44912 0.99595 0.95065 0.0
C27 C 0.50242 0.03201 0.98992 0.0
H28 H 0.72142 0.0867 0.97569 0.0
H29 H 0.65591 0.08352 1.00426 0.0
H30 H 0.66559 0.9824 0.9177 0.0
H31 H 0.6004 0.97933 0.94635 0.0
H32 H 0.71172 0.95431 0.0623 0.0
H33 H 0.64437 0.9656 0.02653 0.0
H34 H 0.68383 0.07371 0.10851 0.0
H35 H 0.6163 0.08465 0.07286 0.0
H36 H 0.36351 0.98606 0.04345 0.0
H37 H 0.42992 0.98218 0.01579 0.0
H38 H 0.42032 0.0979 0.09315 0.0
H39 H 0.48633 0.09401 0.06528 0.0
H40 H 0.36986 0.09639 0.94705 0.0
H41 H 0.43929 0.09645 0.98219 0.0
H42 H 0.40175 0.96738 0.91666 0.0
H43 H 0.47134 0.968 0.95122 0.0
N44 N 0.54178 0.0293 0.97723 0.0
N45 N 0.54448 0.03554 0.03882 0.0
C46 C 0.0612 0.66086 0.55378 0.0
C47 C 0.03054 0.66973 0.57497 0.0
C48 C 0.05713 0.62297 0.53618 0.0
C49 C 0.02169 0.59361 0.53898 0.0
C50 C 0.99506 0.64021 0.57774 0.0
C51 C 0.99098 0.60238 0.56009 0.0
C52 C 0.01785 0.55251 0.52138 0.0
C53 C 0.99461 0.66022 0.4528 0.0
C54 C 0.02577 0.6625 0.43119 0.0
C55 C 0.99315 0.62378 0.47178 0.0
C56 C 0.02366 0.58927 0.47007 0.0
C57 C 0.05598 0.62766 0.42922 0.0
C58 C 0.05466 0.5913 0.44835 0.0
C59 C 0.02208 0.55021 0.48983 0.0
C60 C 0.98347 0.3617 0.45904 0.0
C61 C 0.01769 0.35383 0.44025 0.0
C62 C 0.98318 0.40009 0.47608 0.0
C63 C 0.01768 0.431 0.47508 0.0
C64 C 0.0522 0.38495 0.4393 0.0
C65 C 0.0519 0.42325 0.45636 0.0
C66 C 0.01755 0.47244 0.4922 0.0
C67 C 0.03139 0.36621 0.56423 0.0
C68 C 0.99739 0.36653 0.58407 0.0
C69 C 0.03587 0.40106 0.5442 0.0
C70 C 0.00597 0.43644 0.54316 0.0
C71 C 0.96752 0.40192 0.58279 0.0
C72 C 0.97195 0.43663 0.56274 0.0
C73 C 0.01151 0.47491 0.52351 0.0
H74 H 0.08872 0.68307 0.5511 0.0
H75 H 0.08202 0.61638 0.52066 0.0
H76 H 0.9699 0.64637 0.59309 0.0
H77 H 0.96347 0.58012 0.56271 0.0
H78 H 0.97097 0.68655 0.45481 0.0
H79 H 0.9679 0.62249 0.48764 0.0
H80 H 0.08131 0.62861 0.41346 0.0
H81 H 0.07837 0.56499 0.4465 0.0
H82 H 0.95653 0.3383 0.46028 0.0
H83 H 0.95577 0.40578 0.48976 0.0
H84 H 0.07995 0.37976 0.4259 0.0
H85 H 0.07882 0.4467 0.4552 0.0
H86 H 0.05455 0.33923 0.56384 0.0
H87 H 0.06308 0.40058 0.52985 0.0
H88 H 0.94088 0.40302 0.59762 0.0
H89 H 0.94871 0.46375 0.56254 0.0
N90 N 0.01206 0.51486 0.53681 0.0
N91 N 0.02247 0.51022 0.47661 0.0
Mg92 Mg 0.09795 0.99843 0.2705 0.0
O93 O 0.03028 0.00083 0.24062 0.0
O94 O 0.97621 0.9867 0.27066 0.0
Mg95 Mg 0.00904 0.97557 0.31936 0.0
C96 C 0.98896 0.9957 0.24462 0.0
C97 C 0.16992 0.04967 0.23966 0.0
O98 O 0.18236 0.05754 0.26855 0.0
O99 O 0.08301 0.06493 0.29014 0.0
O100 O 0.03159 0.04768 0.32162 0.0
O101 O 0.10365 0.92662 0.26343 0.0
O102 O 0.07161 0.9564 0.30123 0.0
C103 C 0.05705 0.07543 0.31011 0.0
C104 C 0.0823 0.92177 0.28723 0.0
O105 O 0.13421 0.02794 0.23238 0.0
Mg106 Mg 0.98965 0.00333 0.74287 0.0
O107 O 0.05466 -6e-05 0.77576 0.0
O108 O 0.11141 0.9892 0.74741 0.0
Mg109 Mg 0.08311 0.98216 0.69754 0.0
C110 C 0.09647 0.99528 0.77313 0.0
C111 C 0.91101 0.04342 0.77269 0.0
O112 O 0.8962 0.04523 0.74364 0.0
O113 O 0.0085 0.07114 0.72633 0.0
O114 O 0.06296 0.05446 0.69712 0.0
O115 O 0.98017 0.93136 0.74634 0.0
O116 O 0.01763 0.96346 0.71185 0.0
C117 C 0.03711 0.08206 0.70807 0.0
C118 C 0.00392 0.928 0.7236 0.0
O119 O 0.95074 0.02999 0.78048 0.0
H120 H 0.31652 0.02509 0.07776 0.0
C121 C 0.34657 0.04165 0.08796 0.0
H122 H 0.37597 0.07387 0.12762 0.0
H123 H 0.19265 0.12908 0.17522 0.0
H124 H 0.21806 0.19895 0.15735 0.0
H125 H 0.28395 0.20352 0.12825 0.0
H126 H 0.32475 0.13827 0.11673 0.0
C127 C 0.34654 0.05781 0.11628 0.0
C128 C 0.3062 0.05455 0.13327 0.0
C129 C 0.28301 0.09303 0.14008 0.0
C130 C 0.24532 0.09048 0.15717 0.0
C131 C 0.22212 0.12931 0.16296 0.0
C132 C 0.23617 0.16958 0.15267 0.0
C133 C 0.27324 0.17215 0.13625 0.0
C134 C 0.29643 0.13444 0.12988 0.0
H135 H 0.2317 0.07785 0.22467 0.0
C136 C 0.20077 0.06079 0.21683 0.0
H137 H 0.16468 0.02765 0.18014 0.0
H138 H 0.34505 0.97452 0.1263 0.0
H139 H 0.31902 0.90486 0.14359 0.0
H140 H 0.25238 0.90026 0.17192 0.0
H141 H 0.21163 0.96541 0.18331 0.0
C142 C 0.19441 0.04657 0.18791 0.0
C143 C 0.23124 0.04947 0.16776 0.0
C144 C 0.25383 0.01085 0.1604 0.0
C145 C 0.29174 0.01342 0.14352 0.0
C146 C 0.31516 0.97452 0.13807 0.0
C147 C 0.3008 0.93423 0.14811 0.0
C148 C 0.26333 0.93164 0.16409 0.0
C149 C 0.24017 0.96937 0.1704 0.0
H150 H 0.95963 0.32919 0.61612 0.0
C151 C 0.99126 0.33058 0.60603 0.0
H152 H 0.0559 0.30222 0.60696 0.0
H153 H 0.06016 0.20493 0.73193 0.0
H154 H 0.11416 0.2631 0.74454 0.0
H155 H 0.12282 0.32332 0.70834 0.0
H156 H 0.07771 0.32576 0.65934 0.0
C157 C 0.02269 0.30038 0.61461 0.0
C158 C 0.01484 0.26564 0.63716 0.0
C159 C 0.04133 0.26489 0.66577 0.0
C160 C 0.03646 0.23017 0.68665 0.0
C161 C 0.06316 0.23024 0.7151 0.0
C162 C 0.09404 0.26353 0.72267 0.0
C163 C 0.0989 0.29744 0.70229 0.0
C164 C 0.07289 0.29836 0.67418 0.0
H165 H 0.06729 0.13579 0.68426 0.0
C166 C 0.03922 0.1273 0.69695 0.0
H167 H 0.97566 0.1473 0.70857 0.0
H168 H 0.95984 0.25556 0.58366 0.0
H169 H 0.90437 0.19886 0.57219 0.0
H170 H 0.8936 0.1407 0.60953 0.0
H171 H 0.93873 0.13877 0.65848 0.0
C172 C 0.00555 0.15599 0.69787 0.0
C173 C 0.00518 0.19626 0.67887 0.0
C174 C 0.97703 0.19814 0.65098 0.0
C175 C 0.98241 0.23239 0.62981 0.0
C176 C 0.9561 0.2315 0.60116 0.0
C177 C 0.92432 0.19883 0.59413 0.0
C178 C 0.91833 0.16603 0.61512 0.0
C179 C 0.94446 0.16535 0.64315 0.0
H180 H 0.75122 0.9706 0.11539 0.0
C181 C 0.74319 0.00452 0.10992 0.0
H182 H 0.76294 0.07015 0.11717 0.0
H183 H 0.86592 0.04615 0.2476 0.0
H184 H 0.80502 0.09431 0.25737 0.0
H185 H 0.74401 0.11112 0.21703 0.0
H186 H 0.74386 0.08035 0.16657 0.0
C187 C 0.76999 0.03613 0.12278 0.0
C188 C 0.80754 0.02607 0.14679 0.0
C189 C 0.80669 0.04373 0.1764 0.0
C190 C 0.84124 0.03308 0.19991 0.0
C191 C 0.84009 0.05223 0.22903 0.0
C192 C 0.80536 0.08011 0.23497 0.0
C193 C 0.77107 0.08963 0.21224 0.0
C194 C 0.77151 0.07177 0.1833 0.0
H195 H 0.96564 0.01698 0.19773 0.0
C196 C 0.95488 0.00249 0.21829 0.0
H197 H 0.90023 0.97854 0.23996 0.0
H198 H 0.82445 0.99319 0.09138 0.0
H199 H 0.88315 0.94202 0.08209 0.0
H200 H 0.9376 0.91635 0.12422 0.0
H201 H 0.9345 0.94276 0.17564 0.0
C202 C 0.9113 0.99234 0.21928 0.0
C203 C 0.87614 0.00396 0.19403 0.0
C204 C 0.87683 0.98602 0.16444 0.0
C205 C 0.8435 0.99842 0.14055 0.0
C206 C 0.84724 0.9829 0.11072 0.0
C207 C 0.88104 0.9538 0.105 0.0
C208 C 0.91183 0.93954 0.12868 0.0
C209 C 0.90989 0.95529 0.15809 0.0
H210 H 0.05545 0.73693 0.58429 0.0
C211 C 0.03571 0.71069 0.59291 0.0
H212 H 1.0006 0.69054 0.62984 0.0
H213 H 0.08665 0.83249 0.72148 0.0
H214 H 0.12305 0.76675 0.74255 0.0
H215 H 0.11403 0.69681 0.71502 0.0
H216 H 0.06874 0.69223 0.66618 0.0
C217 C 0.01762 0.71686 0.61921 0.0
C218 C 0.02275 0.75909 0.63574 0.0
C219 C 0.04882 0.76104 0.66446 0.0
C220 C 0.05354 0.80122 0.68053 0.0
C221 C 0.08096 0.80257 0.7087 0.0
C222 C 0.10231 0.76514 0.72095 0.0
C223 C 0.09727 0.72577 0.70543 0.0
C224 C 0.07105 0.72358 0.67745 0.0
H225 H 0.99729 0.8565 0.7202 0.0
C226 C 0.01237 0.88499 0.71057 0.0
H227 H 0.04711 0.90937 0.67489 0.0
H228 H 0.96707 0.76598 0.58233 0.0
H229 H 0.93125 0.83168 0.56119 0.0
H230 H 0.94086 0.90172 0.5885 0.0
H231 H 0.98607 0.90631 0.6372 0.0
C232 C 0.03357 0.8808 0.68538 0.0
C233 C 0.03156 0.83918 0.66805 0.0
C234 C 0.00592 0.83736 0.63914 0.0
C235 C 1.00103 0.79716 0.62313 0.0
C236 C 0.97329 0.79585 0.59505 0.0
C237 C 0.95215 0.83331 0.58273 0.0
C238 C 0.9575 0.87271 0.59812 0.0
C239 C 0.98375 0.87487 0.62606 0.0
H240 H 0.32998 0.06351 0.89642 0.0
C241 C 0.33892 0.03276 0.90786 0.0
H242 H 0.32093 0.96698 0.91373 0.0
H243 H 0.14778 0.06867 0.83184 0.0
H244 H 0.14416 0.11542 0.87565 0.0
H245 H 0.19826 0.10689 0.92146 0.0
H246 H 0.25722 0.05245 0.92325 0.0
C247 C 0.31263 0.99752 0.90189 0.0
C248 C 0.27478 0.99761 0.87699 0.0
C249 C 0.23858 0.0275 0.87719 0.0
C250 C 0.20539 0.03025 0.85164 0.0
C251 C 0.17224 0.06327 0.85129 0.0
C252 C 0.17 0.09065 0.87622 0.0
C253 C 0.2006 0.08601 0.90194 0.0
C254 C 0.23454 0.05487 0.90256 0.0
H255 H 0.11578 0.99166 0.8229 0.0
C256 C 0.12856 0.99637 0.80095 0.0
H257 H 0.18544 0.00778 0.77764 0.0
H258 H 0.33873 0.93547 0.86944 0.0
H259 H 0.33863 0.8845 0.8277 0.0
H260 H 0.27756 0.88499 0.78558 0.0
H261 H 0.21656 0.93693 0.78478 0.0
C262 C 0.17272 0.00329 0.79963 0.0
C263 C 0.20645 0.0007 0.82698 0.0
C264 C 0.24123 0.96917 0.82763 0.0
C265 C 0.27572 0.96801 0.8524 0.0
C266 C 0.31101 0.9373 0.85168 0.0
C267 C 0.3115 0.90783 0.82776 0.0
C268 C 0.27719 0.90817 0.80402 0.0
C269 C 0.24243 0.93836 0.80381 0.0
H270 H 0.99647 0.28573 0.43011 0.0
C271 C 0.01686 0.31239 0.42274 0.0
H272 H 0.05918 0.33207 0.38943 0.0
H273 H 0.117 0.13532 0.36936 0.0
H274 H 0.18466 0.16369 0.39736 0.0
H275 H 0.18659 0.23807 0.41867 0.0
H276 H 0.12058 0.28437 0.41231 0.0
C277 C 0.03894 0.30639 0.39804 0.0
C278 C 0.03852 0.26327 0.38262 0.0
C279 C 0.0778 0.23716 0.38567 0.0
C280 C 0.07693 0.19461 0.3728 0.0
C281 C 0.11601 0.16838 0.37771 0.0
C282 C 0.15509 0.18416 0.39397 0.0
C283 C 0.15616 0.226 0.40601 0.0
C284 C 0.11802 0.25226 0.40213 0.0
H285 H 0.07911 0.14443 0.31082 0.0
C286 C 0.05783 0.12097 0.32103 0.0
H287 H 0.01263 0.11066 0.35411 0.0
H288 H 0.959 0.30694 0.3697 0.0
H289 H 0.89149 0.2793 0.34079 0.0
H290 H 0.8898 0.20547 0.31853 0.0
H291 H 0.95566 0.15891 0.32495 0.0
C292 C 0.03478 0.13346 0.3441 0.0
C293 C 0.03702 0.17878 0.35618 0.0
C294 C 0.99811 0.20543 0.35245 0.0
C295 C 0.99893 0.24782 0.36553 0.0
C296 C 0.95991 0.27412 0.36083 0.0
C297 C 0.92102 0.25875 0.34412 0.0
C298 C 0.92007 0.2172 0.33157 0.0
C299 C 0.95808 0.19075 0.33553 0.0
H300 H 0.76817 0.05557 0.93779 0.0
C301 C 0.73827 0.03981 0.92664 0.0
H302 H 0.70914 0.01219 0.88516 0.0
H303 H 0.87083 0.12369 0.83092 0.0
H304 H 0.82703 0.18754 0.84132 0.0
H305 H 0.7603 0.1808 0.86943 0.0
H306 H 0.73729 0.11033 0.88767 0.0
C307 C 0.73841 0.02721 0.89749 0.0
C308 C 0.77914 0.03196 0.88111 0.0
C309 C 0.79154 0.07332 0.87011 0.0
C310 C 0.82914 0.07702 0.853 0.0
C311 C 0.8417 0.11887 0.84314 0.0
C312 C 0.81703 0.15581 0.84912 0.0
C313 C 0.77952 0.15203 0.86502 0.0
C314 C 0.76676 0.11137 0.87544 0.0
H315 H 0.84498 0.05985 0.78726 0.0
C316 C 0.87919 0.05066 0.79554 0.0
H317 H 0.9229 0.03049 0.83365 0.0
H318 H 0.76575 0.94849 0.9004 0.0
H319 H 0.80913 0.88455 0.88972 0.0
H320 H 0.87301 0.89047 0.85887 0.0
H321 H 0.89406 0.96027 0.83864 0.0
C322 C 0.88939 0.04165 0.82529 0.0
C323 C 0.85338 0.03917 0.84616 0.0
C324 C 0.84171 0.99801 0.85793 0.0
C325 C 0.80455 0.99445 0.87541 0.0
C326 C 0.79345 0.95296 0.88677 0.0
C327 C 0.81809 0.91599 0.88085 0.0
C328 C 0.85407 0.91934 0.86351 0.0
C329 C 0.86584 0.95971 0.85207 0.0
H330 H 0.0129 0.73222 0.42046 0.0
C331 C 0.02681 0.70236 0.41203 0.0
H332 H 0.05673 0.67424 0.37524 0.0
H333 H 0.97134 0.86135 0.31757 0.0
H334 H 0.89856 0.8273 0.32041 0.0
H335 H 0.89266 0.75486 0.34427 0.0
H336 H 0.95941 0.71613 0.36561 0.0
C337 C 0.04312 0.70334 0.38477 0.0
C338 C 0.04631 0.74516 0.3679 0.0
C339 C 0.00696 0.76699 0.3551 0.0
C340 C 0.0104 0.80845 0.34093 0.0
C341 C 0.9706 0.82978 0.32859 0.0
C342 C 0.92864 0.81057 0.33 0.0
C343 C 0.92532 0.7698 0.34347 0.0
C344 C 0.96389 0.74805 0.35582 0.0
H345 H 0.08215 0.84975 0.2857 0.0
C346 C 0.07251 0.87784 0.29852 0.0
H347 H 0.0465 0.89946 0.33861 0.0
H348 H 0.12837 0.71088 0.3887 0.0
H349 H 0.20105 0.74467 0.38561 0.0
H350 H 0.207 0.81714 0.36184 0.0
H351 H 0.14042 0.85608 0.34087 0.0
C352 C 0.05643 0.87181 0.32552 0.0
C353 C 0.05314 0.82758 0.33907 0.0
C354 C 0.09258 0.80536 0.35136 0.0
C355 C 0.08914 0.76388 0.36549 0.0
C356 C 0.12899 0.74246 0.3777 0.0
C357 C 0.17097 0.76151 0.37615 0.0
C358 C 0.17432 0.80228 0.36273 0.0
C359 C 0.13574 0.82418 0.35059 0.0
loop_
_geom_bond_atom_site_label_1
_geom_bond_atom_site_label_2
_geom_bond_distance
_geom_bond_site_symmetry_2
_ccdc_geom_bond_type
C0 C1 1.384 . S
C0 C2 1.384 . S
C0 H28 0.931 . S
C1 C0 1.384 . S
C1 C4 1.382 1_545 S
C2 C0 1.384 . S
C2 C3 1.381 . S
C2 H29 0.930 . S
C3 C2 1.381 . S
C3 C5 1.381 1_545 S
C3 C6 1.487 . S
C4 C1 1.382 1_565 S
C4 C5 1.387 . S
C4 H30 0.930 . S
C5 C3 1.381 1_565 S
C5 C4 1.387 . S
C5 H31 0.931 . S
C6 C3 1.487 . S
C6 C13 1.399 1_556 S
C6 N44 1.343 . S
C7 C8 1.384 1_565 S
C7 C9 1.384 . S
C7 H32 0.931 . S
C8 C7 1.384 1_545 S
C8 C11 1.382 . S
C9 C7 1.384 . S
C9 C10 1.381 1_565 S
C9 H33 0.930 . S
C10 C9 1.381 1_545 S
C10 C12 1.381 . S
C10 C13 1.487 . S
C11 C8 1.382 . S
C11 C12 1.387 . S
C11 H34 0.930 . S
C12 C10 1.381 . S
C12 C11 1.387 . S
C12 H35 0.931 . S
C13 C6 1.399 1_554 S
C13 C10 1.487 . S
C13 N45 1.343 . S
C14 C15 1.384 1_565 S
C14 C16 1.384 . S
C14 H36 0.931 . S
C15 C14 1.384 1_545 S
C15 C18 1.382 . S
C16 C14 1.384 . S
C16 C17 1.381 1_565 S
C16 H37 0.930 . S
C17 C16 1.381 1_545 S
C17 C19 1.381 . S
C17 C20 1.487 . S
C18 C15 1.382 . S
C18 C19 1.387 . S
C18 H38 0.930 . S
C19 C17 1.381 . S
C19 C18 1.387 . S
C19 H39 0.931 . S
C20 C17 1.487 . S
C20 C27 1.399 1_554 S
C20 N45 1.343 . S
C21 C22 1.384 . S
C21 C23 1.384 . S
C21 H40 0.931 . S
C22 C21 1.384 . S
C22 C25 1.382 1_545 S
C23 C21 1.384 . S
C23 C24 1.381 . S
C23 H41 0.930 . S
C24 C23 1.381 . S
C24 C26 1.381 1_545 S
C24 C27 1.487 . S
C25 C22 1.382 1_565 S
C25 C26 1.387 . S
C25 H42 0.930 . S
C26 C24 1.381 1_565 S
C26 C25 1.387 . S
C26 H43 0.931 . S
C27 C20 1.399 1_556 S
C27 C24 1.487 . S
C27 N44 1.343 . S
H28 C0 0.931 . S
H29 C2 0.930 . S
H30 C4 0.930 . S
H31 C5 0.931 . S
H32 C7 0.931 . S
H33 C9 0.930 . S
H34 C11 0.930 . S
H35 C12 0.931 . S
H36 C14 0.931 . S
H37 C16 0.930 . S
H38 C18 0.930 . S
H39 C19 0.931 . S
H40 C21 0.931 . S
H41 C23 0.930 . S
H42 C25 0.930 . S
H43 C26 0.931 . S
N44 C6 1.343 . S
N44 C27 1.343 . S
N45 C13 1.343 . S
N45 C20 1.343 . S
C46 C47 1.384 . S
C46 C48 1.384 . S
C46 H74 0.931 . S
C47 C46 1.384 . S
C47 C50 1.382 1_455 S
C48 C46 1.384 . S
C48 C49 1.381 . S
C48 H75 0.930 . S
C49 C48 1.381 . S
C49 C51 1.381 1_455 S
C49 C52 1.487 . S
C50 C47 1.382 1_655 S
C50 C51 1.387 . S
C50 H76 0.930 . S
C51 C49 1.381 1_655 S
C51 C50 1.387 . S
C51 H77 0.931 . S
C52 C49 1.487 . S
C52 C59 1.399 . S
C52 N90 1.343 . S
C53 C54 1.384 . S
C53 C55 1.384 . S
C53 H78 0.931 1_455 S
C54 C53 1.384 . S
C54 C57 1.382 . S
C55 C53 1.384 . S
C55 C56 1.381 . S
C55 H79 0.930 1_455 S
C56 C55 1.381 . S
C56 C58 1.381 . S
C56 C59 1.487 . S
C57 C54 1.382 . S
C57 C58 1.387 . S
C57 H80 0.930 . S
C58 C56 1.381 . S
C58 C57 1.387 . S
C58 H81 0.931 . S
C59 C52 1.399 . S
C59 C56 1.487 . S
C59 N91 1.343 . S
C60 C61 1.384 . S
C60 C62 1.384 . S
C60 H82 0.931 1_455 S
C61 C60 1.384 . S
C61 C64 1.382 . S
C62 C60 1.384 . S
C62 C63 1.381 . S
C62 H83 0.930 1_455 S
C63 C62 1.381 . S
C63 C65 1.381 . S
C63 C66 1.487 . S
C64 C61 1.382 . S
C64 C65 1.387 . S
C64 H84 0.930 . S
C65 C63 1.381 . S
C65 C64 1.387 . S
C65 H85 0.931 . S
C66 C63 1.487 . S
C66 C73 1.399 . S
C66 N91 1.343 . S
C67 C68 1.384 . S
C67 C69 1.384 . S
C67 H86 0.931 . S
C68 C67 1.384 . S
C68 C71 1.382 1_455 S
C69 C67 1.384 . S
C69 C70 1.381 . S
C69 H87 0.930 . S
C70 C69 1.381 . S
C70 C72 1.381 1_455 S
C70 C73 1.487 . S
C71 C68 1.382 1_655 S
C71 C72 1.387 . S
C71 H88 0.930 . S
C72 C70 1.381 1_655 S
C72 C71 1.387 . S
C72 H89 0.931 . S
C73 C66 1.399 . S
C73 C70 1.487 . S
C73 N90 1.343 . S
H74 C46 0.931 . S
H75 C48 0.930 . S
H76 C50 0.930 . S
H77 C51 0.931 . S
H78 C53 0.931 1_655 S
H79 C55 0.930 1_655 S
H80 C57 0.930 . S
H81 C58 0.931 . S
H82 C60 0.931 1_655 S
H83 C62 0.930 1_655 S
H84 C64 0.930 . S
H85 C65 0.931 . S
H86 C67 0.931 . S
H87 C69 0.930 . S
H88 C71 0.930 . S
H89 C72 0.931 . S
N90 C52 1.343 . S
N90 C73 1.343 . S
N91 C59 1.343 . S
N91 C66 1.343 . S
Mg92 O93 2.028 . S
Mg92 O99 1.986 . S
Mg92 O101 2.114 1_545 S
Mg92 O102 2.251 1_545 S
Mg92 O105 2.010 . S
O93 Mg92 2.028 . S
O93 C96 1.250 1_455 S
O94 Mg95 2.028 . S
O94 C96 1.248 . S
Mg95 O94 2.028 . S
Mg95 O100 2.032 1_655 S
Mg95 O102 2.079 1_645 S
C96 O93 1.250 1_655 S
C96 O94 1.248 . S
C97 O98 1.264 . S
C97 O105 1.249 . S
O98 C97 1.264 . S
O99 Mg92 1.986 . S
O99 C103 1.246 . S
O100 Mg95 2.032 1_455 S
O100 C103 1.259 . S
O101 Mg92 2.114 1_565 S
O101 C104 1.252 . S
O102 Mg92 2.251 1_565 S
O102 Mg95 2.079 1_465 S
O102 C104 1.273 . S
C103 O99 1.246 . S
C103 O100 1.259 . S
C104 O101 1.252 . S
C104 O102 1.273 . S
O105 Mg92 2.010 . S
O105 C97 1.249 . S
Mg106 O107 2.028 1_655 S
Mg106 O113 1.986 . S
Mg106 O115 2.114 1_545 S
Mg106 O116 2.251 1_645 S
Mg106 O119 2.010 . S
O107 Mg106 2.028 1_455 S
O107 C110 1.250 . S
O108 Mg109 2.028 . S
O108 C110 1.248 . S
Mg109 O108 2.028 . S
Mg109 O114 2.032 . S
Mg109 O116 2.079 1_545 S
C110 O107 1.250 . S
C110 O108 1.248 . S
C111 O112 1.264 . S
C111 O119 1.249 . S
O112 C111 1.264 . S
O113 Mg106 1.986 . S
O113 C117 1.246 1_655 S
O114 Mg109 2.032 . S
O114 C117 1.259 . S
O115 Mg106 2.114 1_565 S
O115 C118 1.252 1_655 S
O116 Mg106 2.251 1_465 S
O116 Mg109 2.079 1_565 S
O116 C118 1.273 . S
C117 O113 1.246 1_455 S
C117 O114 1.259 . S
C118 O115 1.252 1_455 S
C118 O116 1.273 . S
O119 Mg106 2.010 . S
O119 C111 1.249 . S
H120 C121 0.951 . S
C121 H120 0.951 . S
C121 C127 1.265 . S
H122 C127 0.950 . S
H123 C131 0.949 . S
H124 C132 0.950 . S
H125 C133 0.951 . S
H126 C134 0.951 . S
C127 C121 1.265 . S
C127 H122 0.950 . S
C127 C128 1.478 . S
C128 C127 1.478 . S
C128 C129 1.397 . S
C128 C145 1.394 1_545 S
C129 C128 1.397 . S
C129 C130 1.438 . S
C129 C134 1.429 . S
C130 C129 1.438 . S
C130 C131 1.428 . S
C130 C143 1.394 . S
C131 H123 0.949 . S
C131 C130 1.428 . S
C131 C132 1.345 . S
C132 H124 0.950 . S
C132 C131 1.345 . S
C132 C133 1.424 . S
C133 H125 0.951 . S
C133 C132 1.424 . S
C133 C134 1.347 . S
C134 H126 0.951 . S
C134 C129 1.429 . S
C134 C133 1.347 . S
H135 C136 0.951 . S
C136 H135 0.951 . S
C136 C142 1.265 . S
H137 C142 0.950 . S
H138 C146 0.949 . S
H139 C147 0.950 . S
H140 C148 0.951 . S
H141 C149 0.951 . S
C142 C136 1.265 . S
C142 H137 0.950 . S
C142 C143 1.478 . S
C143 C130 1.394 . S
C143 C142 1.478 . S
C143 C144 1.397 1_545 S
C144 C143 1.397 1_565 S
C144 C145 1.438 . S
C144 C149 1.429 . S
C145 C128 1.394 1_565 S
C145 C144 1.438 . S
C145 C146 1.428 . S
C146 H138 0.949 . S
C146 C145 1.428 . S
C146 C147 1.345 . S
C147 H139 0.950 . S
C147 C146 1.345 . S
C147 C148 1.424 . S
C148 H140 0.951 . S
C148 C147 1.424 . S
C148 C149 1.347 . S
C149 H141 0.951 . S
C149 C144 1.429 . S
C149 C148 1.347 . S
H150 C151 0.951 1_655 S
C151 H150 0.951 1_455 S
C151 C157 1.265 . S
H152 C157 0.950 . S
H153 C161 0.949 . S
H154 C162 0.950 . S
H155 C163 0.951 . S
H156 C164 0.951 . S
C157 C151 1.265 . S
C157 H152 0.950 . S
C157 C158 1.478 . S
C158 C157 1.478 . S
C158 C159 1.397 . S
C158 C175 1.394 1_455 S
C159 C158 1.397 . S
C159 C160 1.438 . S
C159 C164 1.429 . S
C160 C159 1.438 . S
C160 C161 1.428 . S
C160 C173 1.394 . S
C161 H153 0.949 . S
C161 C160 1.428 . S
C161 C162 1.345 . S
C162 H154 0.950 . S
C162 C161 1.345 . S
C162 C163 1.424 . S
C163 H155 0.951 . S
C163 C162 1.424 . S
C163 C164 1.347 . S
C164 H156 0.951 . S
C164 C159 1.429 . S
C164 C163 1.347 . S
H165 C166 0.951 . S
C166 H165 0.951 . S
C166 C172 1.265 1_455 S
H167 C172 0.950 . S
H168 C176 0.949 . S
H169 C177 0.950 . S
H170 C178 0.951 . S
H171 C179 0.951 . S
C172 C166 1.265 1_655 S
C172 H167 0.950 . S
C172 C173 1.478 1_655 S
C173 C160 1.394 . S
C173 C172 1.478 1_455 S
C173 C174 1.397 1_455 S
C174 C173 1.397 1_655 S
C174 C175 1.438 . S
C174 C179 1.429 . S
C175 C158 1.394 1_655 S
C175 C174 1.438 . S
C175 C176 1.428 . S
C176 H168 0.949 . S
C176 C175 1.428 . S
C176 C177 1.345 . S
C177 H169 0.950 . S
C177 C176 1.345 . S
C177 C178 1.424 . S
C178 H170 0.951 . S
C178 C177 1.424 . S
C178 C179 1.347 . S
C179 H171 0.951 . S
C179 C174 1.429 . S
C179 C178 1.347 . S
H180 C181 0.951 1_565 S
C181 H180 0.951 1_545 S
C181 C187 1.265 . S
H182 C187 0.950 . S
H183 C191 0.949 . S
H184 C192 0.950 . S
H185 C193 0.951 . S
H186 C194 0.951 . S
C187 C181 1.265 . S
C187 H182 0.950 . S
C187 C188 1.478 . S
C188 C187 1.478 . S
C188 C189 1.397 . S
C188 C205 1.394 1_545 S
C189 C188 1.397 . S
C189 C190 1.438 . S
C189 C194 1.429 . S
C190 C189 1.438 . S
C190 C191 1.428 . S
C190 C203 1.394 . S
C191 H183 0.949 . S
C191 C190 1.428 . S
C191 C192 1.345 . S
C192 H184 0.950 . S
C192 C191 1.345 . S
C192 C193 1.424 . S
C193 H185 0.951 . S
C193 C192 1.424 . S
C193 C194 1.347 . S
C194 H186 0.951 . S
C194 C189 1.429 . S
C194 C193 1.347 . S
H195 C196 0.951 . S
C196 H195 0.951 . S
C196 C202 1.265 1_545 S
H197 C202 0.950 . S
H198 C206 0.949 . S
H199 C207 0.950 . S
H200 C208 0.951 . S
H201 C209 0.951 . S
C202 C196 1.265 1_565 S
C202 H197 0.950 . S
C202 C203 1.478 1_565 S
C203 C190 1.394 . S
C203 C202 1.478 1_545 S
C203 C204 1.397 1_545 S
C204 C203 1.397 1_565 S
C204 C205 1.438 . S
C204 C209 1.429 . S
C205 C188 1.394 1_565 S
C205 C204 1.438 . S
C205 C206 1.428 . S
C206 H198 0.949 . S
C206 C205 1.428 . S
C206 C207 1.345 . S
C207 H199 0.950 . S
C207 C206 1.345 . S
C207 C208 1.424 . S
C208 H200 0.951 . S
C208 C207 1.424 . S
C208 C209 1.347 . S
C209 H201 0.951 . S
C209 C204 1.429 . S
C209 C208 1.347 . S
H210 C211 0.951 . S
C211 H210 0.951 . S
C211 C217 1.265 . S
H212 C217 0.950 1_655 S
H213 C221 0.949 . S
H214 C222 0.950 . S
H215 C223 0.951 . S
H216 C224 0.951 . S
C217 C211 1.265 . S
C217 H212 0.950 1_455 S
C217 C218 1.478 . S
C218 C217 1.478 . S
C218 C219 1.397 1_455 S
C218 C235 1.394 . S
C219 C218 1.397 1_655 S
C219 C220 1.438 . S
C219 C224 1.429 . S
C220 C219 1.438 . S
C220 C221 1.428 . S
C220 C233 1.394 1_655 S
C221 H213 0.949 . S
C221 C220 1.428 . S
C221 C222 1.345 . S
C222 H214 0.950 . S
C222 C221 1.345 . S
C222 C223 1.424 . S
C223 H215 0.951 . S
C223 C222 1.424 . S
C223 C224 1.347 . S
C224 H216 0.951 . S
C224 C219 1.429 . S
C224 C223 1.347 . S
H225 C226 0.951 1_655 S
C226 H225 0.951 1_455 S
C226 C232 1.265 . S
H227 C232 0.950 . S
H228 C236 0.949 . S
H229 C237 0.950 . S
H230 C238 0.951 . S
H231 C239 0.951 . S
C232 C226 1.265 . S
C232 H227 0.950 . S
C232 C233 1.478 . S
C233 C220 1.394 1_455 S
C233 C232 1.478 . S
C233 C234 1.397 . S
C234 C233 1.397 . S
C234 C235 1.438 . S
C234 C239 1.429 . S
C235 C218 1.394 . S
C235 C234 1.438 . S
C235 C236 1.428 . S
C236 H228 0.949 . S
C236 C235 1.428 . S
C236 C237 1.345 . S
C237 H229 0.950 . S
C237 C236 1.345 . S
C237 C238 1.424 . S
C238 H230 0.951 . S
C238 C237 1.424 . S
C238 C239 1.347 . S
C239 H231 0.951 . S
C239 C234 1.429 . S
C239 C238 1.347 . S
H240 C241 0.951 . S
C241 H240 0.951 . S
C241 C247 1.260 1_545 S
H242 C247 0.957 . S
H243 C251 0.949 . S
H244 C252 0.950 . S
H245 C253 0.951 . S
H246 C254 0.951 . S
C247 C241 1.260 1_565 S
C247 H242 0.957 . S
C247 C248 1.476 1_565 S
C248 C247 1.476 1_545 S
C248 C249 1.397 . S
C248 C265 1.394 1_545 S
C249 C248 1.397 . S
C249 C250 1.438 . S
C249 C254 1.429 . S
C250 C249 1.438 . S
C250 C251 1.428 . S
C250 C263 1.394 . S
C251 H243 0.949 . S
C251 C250 1.428 . S
C251 C252 1.345 . S
C252 H244 0.950 . S
C252 C251 1.345 . S
C252 C253 1.424 . S
C253 H245 0.951 . S
C253 C252 1.424 . S
C253 C254 1.347 . S
C254 H246 0.951 . S
C254 C249 1.429 . S
C254 C253 1.347 . S
H255 C256 0.951 1_565 S
C256 H255 0.951 1_545 S
C256 C262 1.265 . S
H257 C262 0.950 . S
H258 C266 0.949 . S
H259 C267 0.950 . S
H260 C268 0.951 . S
H261 C269 0.951 . S
C262 C256 1.265 . S
C262 H257 0.950 . S
C262 C263 1.478 . S
C263 C250 1.394 . S
C263 C262 1.478 . S
C263 C264 1.397 1_545 S
C264 C263 1.397 1_565 S
C264 C265 1.438 . S
C264 C269 1.429 . S
C265 C248 1.394 1_565 S
C265 C264 1.438 . S
C265 C266 1.428 . S
C266 H258 0.949 . S
C266 C265 1.428 . S
C266 C267 1.345 . S
C267 H259 0.950 . S
C267 C266 1.345 . S
C267 C268 1.424 . S
C268 H260 0.951 . S
C268 C267 1.424 . S
C268 C269 1.347 . S
C269 H261 0.951 . S
C269 C264 1.429 . S
C269 C268 1.347 . S
H270 C271 0.951 . S
C271 H270 0.951 . S
C271 C277 1.265 . S
H272 C277 0.950 . S
H273 C281 0.949 . S
H274 C282 0.950 . S
H275 C283 0.951 . S
H276 C284 0.951 . S
C277 C271 1.265 . S
C277 H272 0.950 . S
C277 C278 1.478 . S
C278 C277 1.478 . S
C278 C279 1.397 . S
C278 C295 1.394 . S
C279 C278 1.397 . S
C279 C280 1.438 . S
C279 C284 1.429 . S
C280 C279 1.438 . S
C280 C281 1.428 . S
C280 C293 1.394 . S
C281 H273 0.949 . S
C281 C280 1.428 . S
C281 C282 1.345 . S
C282 H274 0.950 . S
C282 C281 1.345 . S
C282 C283 1.424 . S
C283 H275 0.951 . S
C283 C282 1.424 . S
C283 C284 1.347 . S
C284 H276 0.951 . S
C284 C279 1.429 . S
C284 C283 1.347 . S
H285 C286 0.951 . S
C286 H285 0.951 . S
C286 C292 1.265 . S
H287 C292 0.950 . S
H288 C296 0.949 . S
H289 C297 0.950 . S
H290 C298 0.951 . S
H291 C299 0.951 . S
C292 C286 1.265 . S
C292 H287 0.950 . S
C292 C293 1.478 . S
C293 C280 1.394 . S
C293 C292 1.478 . S
C293 C294 1.397 . S
C294 C293 1.397 . S
C294 C295 1.438 . S
C294 C299 1.429 1_455 S
C295 C278 1.394 . S
C295 C294 1.438 . S
C295 C296 1.428 1_455 S
C296 H288 0.949 . S
C296 C295 1.428 1_655 S
C296 C297 1.345 . S
C297 H289 0.950 . S
C297 C296 1.345 . S
C297 C298 1.424 . S
C298 H290 0.951 . S
C298 C297 1.424 . S
C298 C299 1.347 . S
C299 H291 0.951 . S
C299 C294 1.429 1_655 S
C299 C298 1.347 . S
H300 C301 0.951 . S
C301 H300 0.951 . S
C301 C307 1.265 . S
H302 C307 0.950 . S
H303 C311 0.949 . S
H304 C312 0.950 . S
H305 C313 0.951 . S
H306 C314 0.951 . S
C307 C301 1.265 . S
C307 H302 0.950 . S
C307 C308 1.478 . S
C308 C307 1.478 . S
C308 C309 1.397 . S
C308 C325 1.394 1_545 S
C309 C308 1.397 . S
C309 C310 1.438 . S
C309 C314 1.429 . S
C310 C309 1.438 . S
C310 C311 1.428 . S
C310 C323 1.394 . S
C311 H303 0.949 . S
C311 C310 1.428 . S
C311 C312 1.345 . S
C312 H304 0.950 . S
C312 C311 1.345 . S
C312 C313 1.424 . S
C313 H305 0.951 . S
C313 C312 1.424 . S
C313 C314 1.347 . S
C314 H306 0.951 . S
C314 C309 1.429 . S
C314 C313 1.347 . S
H315 C316 0.951 . S
C316 H315 0.951 . S
C316 C322 1.265 . S
H317 C322 0.950 . S
H318 C326 0.949 . S
H319 C327 0.950 . S
H320 C328 0.951 . S
H321 C329 0.951 . S
C322 C316 1.265 . S
C322 H317 0.950 . S
C322 C323 1.478 . S
C323 C310 1.394 . S
C323 C322 1.478 . S
C323 C324 1.397 1_545 S
C324 C323 1.397 1_565 S
C324 C325 1.438 . S
C324 C329 1.429 . S
C325 C308 1.394 1_565 S
C325 C324 1.438 . S
C325 C326 1.428 . S
C326 H318 0.949 . S
C326 C325 1.428 . S
C326 C327 1.345 . S
C327 H319 0.950 . S
C327 C326 1.345 . S
C327 C328 1.424 . S
C328 H320 0.951 . S
C328 C327 1.424 . S
C328 C329 1.347 . S
C329 H321 0.951 . S
C329 C324 1.429 . S
C329 C328 1.347 . S
H330 C331 0.951 . S
C331 H330 0.951 . S
C331 C337 1.265 . S
H332 C337 0.950 . S
H333 C341 0.949 . S
H334 C342 0.950 . S
H335 C343 0.951 . S
H336 C344 0.951 . S
C337 C331 1.265 . S
C337 H332 0.950 . S
C337 C338 1.478 . S
C338 C337 1.478 . S
C338 C339 1.397 . S
C338 C355 1.394 . S
C339 C338 1.397 . S
C339 C340 1.438 . S
C339 C344 1.429 1_455 S
C340 C339 1.438 . S
C340 C341 1.428 1_455 S
C340 C353 1.394 . S
C341 H333 0.949 . S
C341 C340 1.428 1_655 S
C341 C342 1.345 . S
C342 H334 0.950 . S
C342 C341 1.345 . S
C342 C343 1.424 . S
C343 H335 0.951 . S
C343 C342 1.424 . S
C343 C344 1.347 . S
C344 H336 0.951 . S
C344 C339 1.429 1_655 S
C344 C343 1.347 . S
H345 C346 0.951 . S
C346 H345 0.951 . S
C346 C352 1.265 . S
H347 C352 0.950 . S
H348 C356 0.949 . S
H349 C357 0.950 . S
H350 C358 0.951 . S
H351 C359 0.951 . S
C352 C346 1.265 . S
C352 H347 0.950 . S
C352 C353 1.478 . S
C353 C340 1.394 . S
C353 C352 1.478 . S
C353 C354 1.397 . S
C354 C353 1.397 . S
C354 C355 1.438 . S
C354 C359 1.429 . S
C355 C338 1.394 . S
C355 C354 1.438 . S
C355 C356 1.428 . S
C356 H348 0.949 . S
C356 C355 1.428 . S
C356 C357 1.345 . S
C357 H349 0.950 . S
C357 C356 1.345 . S
C357 C358 1.424 . S
C358 H350 0.951 . S
C358 C357 1.424 . S
C358 C359 1.347 . S
C359 H351 0.951 . S
C359 C354 1.429 . S
C359 C358 1.347 . S
C136 C97 1.156 . S
C121 C15 1.487 . S
C166 C117 1.427 . S
C151 C68 1.487 . S
C196 C96 1.464 . S
C181 C8 1.500 . S
C226 C118 1.494 . S
C211 C47 1.502 . S
C256 C110 1.484 . S
C241 C22 1.497 . S
C286 C103 1.488 . S
C271 C61 1.481 . S
C316 C111 1.157 . S
C301 C1 1.489 . S
C331 C54 1.489 . S
C346 C104 1.497 . S
