# Generated by pormake.
# Topology anh, (6,3)-cn, num edge types: 1
# Building blocks:
#     Node 0, Type 0, BuildingBlock: BETGAK_clean_sbu_0, # of connection points: 6
#     Node 1, Type 0, BuildingBlock: BETGAK_clean_sbu_0, # of connection points: 6
#     Node 2, Type 0, BuildingBlock: BETGAK_clean_sbu_0, # of connection points: 6
#     Node 3, Type 1, BuildingBlock: QEWDON_clean_linker_0, # of connection points: 3
#     Node 4, Type 1, BuildingBlock: QEWDON_clean_linker_0, # of connection points: 3
#     Node 5, Type 1, BuildingBlock: QEWDON_clean_linker_0, # of connection points: 3
#     Node 6, Type 1, BuildingBlock: QEWDON_clean_linker_0, # of connection points: 3
#     Node 7, Type 1, BuildingBlock: QEWDON_clean_linker_0, # of connection points: 3
#     Node 8, Type 1, BuildingBlock: QEWDON_clean_linker_0, # of connection points: 3
#     Edge 9, Type (0, 1), BuildingBlock: MIFKUJ_clean_linker_0, # of connection points: 2
#     Edge 10, Type (0, 1), BuildingBlock: MIFKUJ_clean_linker_0, # of connection points: 2
#     Edge 11, Type (0, 1), BuildingBlock: MIFKUJ_clean_linker_0, # of connection points: 2
#     Edge 12, Type (0, 1), BuildingBlock: MIFKUJ_clean_linker_0, # of connection points: 2
#     Edge 13, Type (0, 1), BuildingBlock: MIFKUJ_clean_linker_0, # of connection points: 2
#     Edge 14, Type (0, 1), BuildingBlock: MIFKUJ_clean_linker_0, # of connection points: 2
#     Edge 15, Type (0, 1), BuildingBlock: MIFKUJ_clean_linker_0, # of connection points: 2
#     Edge 16, Type (0, 1), BuildingBlock: MIFKUJ_clean_linker_0, # of connection points: 2
#     Edge 17, Type (0, 1), BuildingBlock: MIFKUJ_clean_linker_0, # of connection points: 2
#     Edge 18, Type (0, 1), BuildingBlock: MIFKUJ_clean_linker_0, # of connection points: 2
#     Edge 19, Type (0, 1), BuildingBlock: MIFKUJ_clean_linker_0, # of connection points: 2
#     Edge 20, Type (0, 1), BuildingBlock: MIFKUJ_clean_linker_0, # of connection points: 2
#     Edge 21, Type (0, 1), BuildingBlock: MIFKUJ_clean_linker_0, # of connection points: 2
#     Edge 22, Type (0, 1), BuildingBlock: MIFKUJ_clean_linker_0, # of connection points: 2
#     Edge 23, Type (0, 1), BuildingBlock: MIFKUJ_clean_linker_0, # of connection points: 2
#     Edge 24, Type (0, 1), BuildingBlock: MIFKUJ_clean_linker_0, # of connection points: 2
#     Edge 25, Type (0, 1), BuildingBlock: MIFKUJ_clean_linker_0, # of connection points: 2
#     Edge 26, Type (0, 1), BuildingBlock: MIFKUJ_clean_linker_0, # of connection points: 2
# Relax obj value: 0.111
# Max RMSD: 0.156
# Mean RMSD: 0.126
data_MOF--net-anh--node1-BETGAK_clean_sbu_0--node2-QEWDON_clean_linker_0--edge1-MIFKUJ_clean_linker_0
_symmetry_space_group_name_H-M    P1
_symmetry_Int_Tables_number       1
_symmetry_cell_setting            triclinic
loop_
_symmetry_equiv_pos_as_xyz
'x, y, z'
_cell_length_a     43.683252
_cell_length_b     49.013432
_cell_length_c     62.962277
_cell_angle_alpha  96.239427
_cell_angle_beta   92.741856
_cell_angle_gamma 128.36573
loop_
_atom_site_label
_atom_site_type_symbol
_atom_site_fract_x
_atom_site_fract_y
_atom_site_fract_z
_atom_type_partial_charge
La0 La 0.07355 0.53218 0.15051 0.0
La1 La 1.03617 0.56331 0.166 0.0
C2 C 0.11259 0.51913 0.13026 0.0
C3 C 0.15507 0.54017 0.12894 0.0
C4 C 0.17503 0.52816 0.13604 0.0
C5 C 0.21593 0.54932 0.13728 0.0
C6 C 0.23759 0.58276 0.13123 0.0
C7 C 0.2176 0.59435 0.12334 0.0
C8 C 0.17661 0.57328 0.12233 0.0
C9 C 0.07476 0.54102 0.19255 0.0
C10 C 0.12508 0.61759 0.16117 0.0
C11 C 0.99841 0.57676 0.18735 0.0
C12 C 0.95699 0.55554 0.19093 0.0
C13 C 0.93869 0.57095 0.19172 0.0
C14 C 0.89833 0.55034 0.19276 0.0
C15 C 0.87556 0.51386 0.19277 0.0
C16 C 0.89415 0.49863 0.19257 0.0
C17 C 0.93466 0.51941 0.19195 0.0
C18 C 0.03702 0.55619 0.12404 0.0
C19 C 0.98462 0.4782 0.15614 0.0
O20 O 0.10276 0.51072 0.14918 0.0
O21 O 0.09425 0.5294 0.12158 0.0
O22 O 0.07156 0.51531 0.1815 0.0
O23 O 0.07993 0.56181 0.18033 0.0
O24 O 0.12121 0.58986 0.15144 0.0
O25 O 0.09627 0.61316 0.17071 0.0
O26 O 1.00449 0.58247 0.16759 0.0
O27 O 1.01886 0.56827 0.1957 0.0
O28 O 0.04027 0.58178 0.13542 0.0
O29 O 1.03052 0.53439 0.13588 0.0
O30 O 0.9884 0.50619 0.16486 0.0
O31 O 1.01344 0.48183 0.14703 0.0
H32 H 0.15906 0.50273 0.14118 0.0
H33 H 0.23074 0.53962 0.14308 0.0
H34 H 0.23376 0.62002 0.11853 0.0
H35 H 0.16195 0.58321 0.11679 0.0
H36 H 0.95539 0.59874 0.19091 0.0
H37 H 0.88463 0.56268 0.19263 0.0
H38 H 0.87731 0.47064 0.19257 0.0
H39 H 0.94819 0.50697 0.19181 0.0
La40 La 0.60542 0.06031 0.48812 0.0
La41 La 0.5567 0.08296 0.48044 0.0
C42 C 0.63463 0.03336 0.50221 0.0
C43 C 0.62256 0.9982 0.50448 0.0
C44 C 0.64371 0.98802 0.49572 0.0
C45 C 0.63412 0.95557 0.49803 0.0
C46 C 0.60321 0.93248 0.50931 0.0
C47 C 0.58194 0.94266 0.51812 0.0
C48 C 0.5914 0.97514 0.51567 0.0
C49 C 0.59385 0.06562 0.44788 0.0
C50 C 0.51042 1.00218 0.47877 0.0
C51 C 0.52774 0.11083 0.46769 0.0
C52 C 0.53679 0.1455 0.47285 0.0
C53 C 0.55696 0.16723 0.49314 0.0
C54 C 0.56274 0.19881 0.49837 0.0
C55 C 0.5488 0.20946 0.48336 0.0
C56 C 0.52969 0.18809 0.46282 0.0
C57 C 0.52365 0.15638 0.45767 0.0
C58 C 0.56937 0.07867 0.52085 0.0
C59 C 0.65219 0.14099 0.48763 0.0
O60 O 0.63493 0.03953 0.48251 0.0
O61 O 0.62099 0.04593 0.51435 0.0
O62 O 0.62573 0.07253 0.45695 0.0
O63 O 0.56867 0.05359 0.46066 0.0
O64 O 0.54434 0.01119 0.48779 0.0
O65 O 0.50948 0.0258 0.47101 0.0
O66 O 0.51585 0.09194 0.48306 0.0
O67 O 0.55308 0.11011 0.45795 0.0
O68 O 0.53757 0.07196 0.512 0.0
O69 O 0.59396 0.09027 0.50778 0.0
O70 O 0.61741 0.13246 0.48112 0.0
O71 O 0.65461 0.11735 0.49399 0.0
H72 H 0.66803 1.0054 0.48717 0.0
H73 H 0.65148 0.94886 0.4913 0.0
H74 H 0.55772 0.92535 0.52672 0.0
H75 H 0.57446 0.9822 0.52258 0.0
H76 H 0.56765 0.15949 0.50506 0.0
H77 H 0.57805 0.21486 0.5142 0.0
H78 H 0.5183 0.19533 0.45096 0.0
H79 H 0.50801 0.13999 0.44194 0.0
La80 La 0.62712 0.58934 0.8453 0.0
La81 La 0.57389 0.51262 0.84534 0.0
C82 C 0.65848 0.64897 0.83463 0.0
C83 C 0.64994 0.67345 0.83169 0.0
C84 C 0.67703 0.70887 0.84206 0.0
C85 C 0.67157 0.73339 0.83846 0.0
C86 C 0.63891 0.72322 0.82423 0.0
C87 C 0.61132 0.68746 0.81415 0.0
C88 C 0.61675 0.66286 0.81783 0.0
C89 C 0.62149 0.57229 0.88369 0.0
C90 C 0.53115 0.5484 0.84746 0.0
C91 C 0.54538 0.45239 0.85373 0.0
C92 C 0.55586 0.4289 0.84991 0.0
C93 C 0.57385 0.42898 0.83197 0.0
C94 C 0.58258 0.40589 0.82822 0.0
C95 C 0.57382 0.38231 0.84241 0.0
C96 C 0.5567 0.38306 0.86067 0.0
C97 C 0.54777 0.40602 0.86432 0.0
C98 C 0.57909 0.53005 0.80703 0.0
C99 C 0.67037 0.55387 0.84559 0.0
O100 O 0.66286 0.64468 0.85438 0.0
O101 O 0.63899 0.61926 0.82082 0.0
O102 O 0.65356 0.59972 0.87843 0.0
O103 O 0.59364 0.5572 0.86826 0.0
O104 O 0.56656 0.5769 0.84362 0.0
O105 O 0.52829 0.52028 0.85092 0.0
O106 O 0.53248 0.45738 0.83657 0.0
O107 O 0.57046 0.48188 0.86754 0.0
O108 O 0.54699 0.50311 0.81251 0.0
O109 O 0.60722 0.54462 0.82225 0.0
O110 O 0.63371 0.52429 0.84651 0.0
O111 O 0.67471 0.58322 0.84389 0.0
H112 H 0.70288 0.71777 0.8528 0.0
H113 H 0.69307 0.7604 0.84688 0.0
H114 H 0.58598 0.67857 0.80295 0.0
H115 H 0.59531 0.63575 0.80954 0.0
H116 H 0.58076 0.44663 0.82069 0.0
H117 H 0.59534 0.40601 0.81387 0.0
H118 H 0.55024 0.36597 0.87224 0.0
H119 H 0.53433 0.40577 0.8784 0.0
H120 H 0.57112 0.08347 0.2108 0.0
C121 C 0.54771 0.05574 0.20443 0.0
C122 C 0.52587 0.03303 0.219 0.0
C123 C 0.53785 0.04325 0.1819 0.0
H124 H 0.47743 0.98009 0.22251 0.0
C125 C 0.49384 0.99742 0.21112 0.0
C126 C 0.48268 0.98366 0.18895 0.0
C127 C 0.50563 1.00648 0.17446 0.0
C128 C 0.55841 0.06898 0.16627 0.0
H129 H 0.49742 0.99552 0.15741 0.0
C130 C 0.59734 0.10243 0.17176 0.0
C131 C 0.61368 0.12696 0.15721 0.0
C132 C 0.53742 0.06102 0.14578 0.0
H133 H 0.50737 0.03702 0.1409 0.0
C134 C 0.55403 0.08444 0.13127 0.0
H135 H 0.61462 0.10986 0.18729 0.0
C136 C 0.59154 0.11699 0.13689 0.0
H137 H 0.60324 0.1347 0.12526 0.0
H138 H 0.53727 0.07758 0.11563 0.0
H139 H 0.55495 0.58017 0.57615 0.0
C140 C 0.55956 0.56193 0.56927 0.0
C141 C 0.57372 0.55003 0.58302 0.0
C142 C 0.54975 0.54918 0.54686 0.0
H143 H 0.58817 0.51555 0.58495 0.0
C144 C 0.57802 0.52519 0.57424 0.0
C145 C 0.56744 0.51128 0.55204 0.0
C146 C 0.55427 0.5241 0.53842 0.0
C147 C 0.53138 0.55932 0.53247 0.0
H148 H 0.54606 0.51351 0.52128 0.0
C149 C 0.54492 0.59444 0.53461 0.0
C150 C 0.52736 0.60319 0.5204 0.0
C151 C 0.49933 0.53318 0.51639 0.0
H152 H 0.48734 0.50585 0.51466 0.0
C153 C 0.48176 0.5417 0.50254 0.0
H154 H 0.56962 0.615 0.54683 0.0
C155 C 0.49568 0.57637 0.50442 0.0
H156 H 0.48124 0.58214 0.4935 0.0
H157 H 0.45708 0.52127 0.49029 0.0
H158 H 0.10874 0.55056 0.89246 0.0
C159 C 0.08622 0.55015 0.88407 0.0
C160 C 0.06031 0.55087 0.89631 0.0
C161 C 0.08496 0.55084 0.86175 0.0
H162 H 1.0116 0.55167 0.89655 0.0
C163 C 1.03096 0.5514 0.88651 0.0
C164 C 1.02525 0.55125 0.86441 0.0
C165 C 0.05301 0.55093 0.85196 0.0
C166 C 0.11869 0.55395 0.84989 0.0
H167 H 0.04961 0.55099 0.83488 0.0
C168 C 0.14759 0.54873 0.85775 0.0
C169 C 0.17842 0.55377 0.84515 0.0
C170 C 0.12341 0.56468 0.82972 0.0
H171 H 0.10502 0.57009 0.82274 0.0
C172 C 0.15256 0.5701 0.81804 0.0
H173 H 0.14575 0.5403 0.87313 0.0
C174 C 0.17901 0.56498 0.82544 0.0
H175 H 0.20088 0.57039 0.81528 0.0
H176 H 0.15494 0.57884 0.80269 0.0
H177 H 0.04299 0.54779 0.43035 0.0
C178 C 0.07091 0.57324 0.43708 0.0
C179 C 0.09397 0.5962 0.42288 0.0
C180 C 0.08268 0.58379 0.45969 0.0
H181 H 0.14688 0.64769 0.42016 0.0
C182 C 0.12912 0.63015 0.4312 0.0
C183 C 0.14224 0.64182 0.45343 0.0
C184 C 0.1195 0.6182 0.4676 0.0
C185 C 0.05518 0.56031 0.47487 0.0
H186 H 0.13029 0.62722 0.48473 0.0
C187 C 1.02562 0.52269 0.46887 0.0
C188 C 0.99879 0.50225 0.48315 0.0
C189 C 0.05675 0.5761 0.49545 0.0
H190 H 0.07717 0.60444 0.50068 0.0
C191 C 1.03097 0.55586 0.50957 0.0
H192 H 1.02313 0.50921 0.45329 0.0
C193 C 1.00226 0.5194 0.5035 0.0
H194 H 0.98222 0.50447 0.5147 0.0
H195 H 1.0328 0.56869 0.52525 0.0
H196 H 0.58972 0.02578 0.75102 0.0
C197 C 0.59643 0.04994 0.75918 0.0
C198 C 0.6068 0.07654 0.74728 0.0
C199 C 0.59304 0.05383 0.78124 0.0
H200 H 0.61949 0.12661 0.74785 0.0
C201 C 0.61351 0.10712 0.75744 0.0
C202 C 0.60949 0.11145 0.77928 0.0
C203 C 0.60014 0.085 0.79114 0.0
C204 C 0.57831 0.02415 0.79344 0.0
H205 H 0.59786 0.08856 0.80811 0.0
C206 C 0.58938 1.00234 0.79044 0.0
C207 C 0.57341 0.97361 0.80162 0.0
C208 C 0.55133 0.01667 0.80784 0.0
H209 H 0.54119 0.03194 0.81017 0.0
C210 C 0.53619 0.98885 0.81912 0.0
H211 H 0.60992 1.00743 0.77937 0.0
C212 C 0.54706 0.96753 0.81608 0.0
H213 H 0.53485 0.94621 0.8252 0.0
H214 H 0.51559 0.98359 0.83018 0.0
H215 H 0.59711 0.58762 0.11201 0.0
C216 C 0.59537 0.56775 0.11934 0.0
C217 C 0.59201 0.54071 0.10625 0.0
C218 C 0.59775 0.56993 0.14185 0.0
H219 H 0.59098 0.49628 0.10566 0.0
C220 C 0.59118 0.51575 0.11579 0.0
C221 C 0.59396 0.51767 0.13835 0.0
C222 C 0.5963 0.54444 0.15116 0.0
C223 C 0.60375 0.59982 0.15572 0.0
H224 H 0.59771 0.54591 0.16852 0.0
C225 C 0.58133 0.61032 0.15029 0.0
C226 C 0.58666 0.63845 0.16348 0.0
C227 C 0.63212 0.61813 0.17442 0.0
H228 H 0.65022 0.61093 0.17883 0.0
C229 C 0.6378 0.64629 0.18745 0.0
H230 H 0.55874 0.59577 0.13619 0.0
C231 C 0.61515 0.65637 0.1821 0.0
H232 H 0.61996 0.67822 0.19247 0.0
H233 H 0.65979 0.66031 0.20178 0.0
H234 H 0.28436 0.61404 0.1003 0.0
H235 H 0.35483 0.6422 0.10246 0.0
H236 H 0.35833 0.62978 0.16911 0.0
H237 H 0.2882 0.60154 0.16696 0.0
H238 H 0.42922 0.6934 0.16025 0.0
H239 H 0.336 0.56584 0.13283 0.0
H240 H 0.28062 0.51346 0.10707 0.0
H241 H 0.34503 0.55735 0.05445 0.0
H242 H 0.40056 0.61029 0.07993 0.0
H243 H 0.54857 0.65056 0.19107 0.0
H244 H 0.50027 0.65884 0.18203 0.0
H245 H 0.51812 0.65533 0.11526 0.0
H246 H 0.56618 0.6464 0.12424 0.0
H247 H 0.44374 0.61173 0.11756 0.0
H248 H 0.54473 0.73227 0.1471 0.0
H249 H 0.59994 0.78409 0.17318 0.0
H250 H 0.52347 0.75549 0.22142 0.0
H251 H 0.4679 0.70317 0.19575 0.0
C252 C 0.30057 0.61823 0.11552 0.0
C253 C 0.28099 0.60519 0.13337 0.0
C254 C 0.34067 0.6343 0.11675 0.0
C255 C 0.36156 0.63775 0.1359 0.0
C256 C 0.34272 0.62739 0.15422 0.0
C257 C 0.30265 0.61097 0.15291 0.0
C258 C 0.40069 0.64664 0.13615 0.0
C259 C 0.43272 0.67581 0.15088 0.0
C260 C 0.40528 0.62409 0.12347 0.0
C261 C 0.37213 0.59216 0.10821 0.0
C262 C 0.33819 0.56442 0.11575 0.0
C263 C 0.30681 0.53463 0.10121 0.0
C264 C 0.30925 0.53213 0.07912 0.0
C265 C 0.34314 0.55937 0.07155 0.0
C266 C 0.37456 0.58927 0.08603 0.0
C267 C 0.54291 0.6524 0.17456 0.0
C268 C 0.561 0.6477 0.15834 0.0
C269 C 0.5154 0.65732 0.1694 0.0
C270 C 0.50586 0.65818 0.14799 0.0
C271 C 0.52506 0.65484 0.13189 0.0
C272 C 0.55236 0.64961 0.13702 0.0
C273 C 0.47252 0.65816 0.14218 0.0
C274 C 0.44123 0.63035 0.12646 0.0
C275 C 0.46884 0.68211 0.15393 0.0
C276 C 0.50213 0.71366 0.16948 0.0
C277 C 0.53971 0.73688 0.16331 0.0
C278 C 0.57108 0.76637 0.17802 0.0
C279 C 0.56522 0.77306 0.19895 0.0
C280 C 0.52796 0.75029 0.2052 0.0
C281 C 0.49648 0.72073 0.19055 0.0
H282 H 0.58955 0.79591 0.21032 0.0
H283 H 0.28493 0.50904 0.06789 0.0
H284 H 0.73024 0.1694 0.49745 0.0
H285 H 0.7898 0.22874 0.49482 0.0
H286 H 0.71781 0.25599 0.47408 0.0
H287 H 0.6583 0.19672 0.47635 0.0
H288 H 0.77413 0.28025 0.45002 0.0
H289 H 0.77218 0.28697 0.52651 0.0
H290 H 0.76996 0.26878 0.56178 0.0
H291 H 0.87747 0.28462 0.5566 0.0
H292 H 0.88005 0.30247 0.52114 0.0
H293 H 0.92209 0.46868 0.46723 0.0
H294 H 0.865 0.40657 0.46619 0.0
H295 H 0.9429 0.38572 0.48747 0.0
H296 H 1.0 0.44825 0.48886 0.0
H297 H 0.88502 0.35704 0.51038 0.0
H298 H 0.8883 0.35287 0.43434 0.0
H299 H 0.89016 0.37116 0.39914 0.0
H300 H 0.77995 0.35065 0.40344 0.0
H301 H 0.77768 0.33269 0.43881 0.0
C302 C 0.72699 0.18804 0.49247 0.0
C303 C 0.6891 0.17793 0.48723 0.0
C304 C 0.76127 0.22221 0.49101 0.0
C305 C 0.75881 0.24747 0.48441 0.0
C306 C 0.72097 0.23735 0.47918 0.0
C307 C 0.68675 0.20325 0.48061 0.0
C308 C 0.79532 0.28415 0.48267 0.0
C309 C 0.79811 0.29711 0.46335 0.0
C310 C 0.8275 0.30631 0.49974 0.0
C311 C 0.82607 0.29569 0.52107 0.0
C312 C 0.79519 0.28632 0.53282 0.0
C313 C 0.79389 0.27611 0.55286 0.0
C314 C 0.82349 0.27544 0.5614 0.0
C315 C 0.85452 0.28509 0.54995 0.0
C316 C 0.85593 0.29528 0.52988 0.0
C317 C 0.92708 0.45055 0.47095 0.0
C318 C 0.96571 0.46322 0.47748 0.0
C319 C 0.89431 0.41491 0.47047 0.0
C320 C 0.89914 0.39079 0.47653 0.0
C321 C 0.93796 0.40339 0.48261 0.0
C322 C 0.97076 0.4391 0.48312 0.0
C323 C 0.86381 0.35324 0.47773 0.0
C324 C 0.86118 0.34013 0.49698 0.0
C325 C 0.83175 0.33096 0.4606 0.0
C326 C 0.83301 0.34174 0.43933 0.0
C327 C 0.86461 0.35252 0.42786 0.0
C328 C 0.86571 0.36278 0.40786 0.0
C329 C 0.83524 0.36215 0.39908 0.0
C330 C 0.80356 0.35117 0.41027 0.0
C331 C 0.80233 0.34091 0.43028 0.0
H332 H 0.83615 0.3701 0.38359 0.0
H333 H 0.82244 0.26754 0.57692 0.0
H334 H 0.69664 0.79252 0.82017 0.0
H335 H 0.68912 0.83641 0.81362 0.0
H336 H 0.5631 0.75878 0.81094 0.0
H337 H 0.57036 0.71477 0.81789 0.0
H338 H 0.58188 0.79713 0.77851 0.0
H339 H 0.62036 0.82224 0.85561 0.0
H340 H 0.66308 0.83617 0.88893 0.0
H341 H 0.76017 0.93161 0.86966 0.0
H342 H 0.71814 0.91799 0.83606 0.0
H343 H 0.52245 0.90161 0.79536 0.0
H344 H 0.53793 0.86173 0.79592 0.0
H345 H 0.66208 0.95002 0.8017 0.0
H346 H 0.64657 0.99049 0.80171 0.0
H347 H 0.64987 0.90926 0.83042 0.0
H348 H 0.6109 0.88726 0.75479 0.0
H349 H 0.56904 0.87376 0.7212 0.0
H350 H 0.47451 0.77341 0.7368 0.0
H351 H 0.5156 0.78651 0.77066 0.0
C352 C 0.66729 0.78475 0.81846 0.0
C353 C 0.63414 0.74995 0.81977 0.0
C354 C 0.66304 0.80996 0.81461 0.0
C355 C 0.62557 0.80113 0.81198 0.0
C356 C 0.59235 0.7663 0.81287 0.0
C357 C 0.59656 0.74107 0.81679 0.0
C358 C 0.62097 0.82817 0.80845 0.0
C359 C 0.59643 0.82149 0.78997 0.0
C360 C 0.641 0.8606 0.82299 0.0
C361 C 0.66623 0.8689 0.84322 0.0
C362 C 0.65091 0.84605 0.85839 0.0
C363 C 0.67498 0.85392 0.87734 0.0
C364 C 0.71435 0.8847 0.88138 0.0
C365 C 0.72969 0.90774 0.8665 0.0
C366 C 0.70576 0.89998 0.84751 0.0
C367 C 0.55309 0.9126 0.79654 0.0
C368 C 0.58329 0.94932 0.7986 0.0
C369 C 0.56192 0.88965 0.7967 0.0
C370 C 0.60121 0.90265 0.7987 0.0
C371 C 0.6315 0.93925 0.80011 0.0
C372 C 0.62262 0.96235 0.79991 0.0
C373 C 0.61025 0.87804 0.80059 0.0
C374 C 0.63561 0.88512 0.81879 0.0
C375 C 0.59112 0.84605 0.78573 0.0
C376 C 0.56627 0.83801 0.76536 0.0
C377 C 0.58108 0.86243 0.75115 0.0
C378 C 0.55751 0.85482 0.73204 0.0
C379 C 0.51912 0.82278 0.72689 0.0
C380 C 0.50425 0.79823 0.74082 0.0
C381 C 0.52769 0.80571 0.75996 0.0
H382 H 0.50091 0.81694 0.71209 0.0
H383 H 0.73293 0.89075 0.89606 0.0
H384 H 0.83431 0.52657 0.2169 0.0
H385 H 0.76408 0.49707 0.20995 0.0
H386 H 0.7484 0.42158 0.15862 0.0
H387 H 0.8193 0.45185 0.16525 0.0
H388 H 0.72143 0.45117 0.144 0.0
H389 H 0.69749 0.39333 0.2024 0.0
H390 H 0.70849 0.38411 0.23875 0.0
H391 H 0.69522 0.45935 0.26704 0.0
H392 H 0.68497 0.46966 0.23091 0.0
H393 H 0.56001 0.44785 0.12404 0.0
H394 H 0.58331 0.41688 0.13596 0.0
H395 H 0.66395 0.50467 0.18772 0.0
H396 H 0.64241 0.53623 0.1756 0.0
H397 H 0.63589 0.43765 0.19805 0.0
H398 H 0.69269 0.5099 0.13973 0.0
H399 H 0.68357 0.52104 0.10357 0.0
H400 H 0.63394 0.41508 0.07555 0.0
H401 H 0.6422 0.40321 0.11166 0.0
C402 C 0.81571 0.50322 0.20445 0.0
C403 C 0.83221 0.49174 0.19145 0.0
C404 C 0.77542 0.48602 0.20065 0.0
C405 C 0.75074 0.45682 0.18385 0.0
C406 C 0.76681 0.44393 0.17171 0.0
C407 C 0.80725 0.46118 0.17555 0.0
C408 C 0.71049 0.44449 0.17684 0.0
C409 C 0.70186 0.44668 0.15563 0.0
C410 C 0.68473 0.4385 0.19191 0.0
C411 C 0.69034 0.43221 0.21383 0.0
C412 C 0.69707 0.40806 0.21635 0.0
C413 C 0.7032 0.40264 0.23695 0.0
C414 C 0.70249 0.42109 0.2552 0.0
C415 C 0.69565 0.445 0.25288 0.0
C416 C 0.68958 0.45058 0.23232 0.0
C417 C 0.58216 0.46028 0.13822 0.0
C418 C 0.59992 0.49495 0.14852 0.0
C419 C 0.59501 0.44229 0.14517 0.0
C420 C 0.62557 0.45866 0.16259 0.0
C421 C 0.64012 0.49146 0.17433 0.0
C422 C 0.62768 0.50956 0.1673 0.0
C423 C 0.64882 0.4465 0.16581 0.0
C424 C 0.65429 0.43995 0.18623 0.0
C425 C 0.67162 0.44814 0.15002 0.0
C426 C 0.66767 0.45557 0.12833 0.0
C427 C 0.67973 0.48898 0.12584 0.0
C428 C 0.67468 0.49541 0.10538 0.0
C429 C 0.65811 0.46876 0.08728 0.0
C430 C 0.64668 0.43567 0.0896 0.0
C431 C 0.6515 0.42906 0.11005 0.0
H432 H 0.6542 0.47377 0.07145 0.0
H433 H 0.70727 0.41688 0.27113 0.0
H434 H 0.43511 0.9725 0.46036 0.0
H435 H 0.37418 0.91205 0.4586 0.0
H436 H 0.4393 0.88632 0.4921 0.0
H437 H 0.50048 0.94658 0.49356 0.0
H438 H 0.38692 0.83258 0.46126 0.0
H439 H 0.37966 0.90121 0.5175 0.0
H440 H 0.38116 0.94991 0.53439 0.0
H441 H 0.28282 0.91422 0.4879 0.0
H442 H 0.28108 0.86557 0.47053 0.0
H443 H 0.21062 0.667 0.47965 0.0
H444 H 0.27375 0.72783 0.48677 0.0
H445 H 0.22047 0.76191 0.45044 0.0
H446 H 0.15785 0.70163 0.44345 0.0
H447 H 0.2683 0.81108 0.48545 0.0
H448 H 0.27916 0.74518 0.42789 0.0
H449 H 0.2773 0.69612 0.41131 0.0
H450 H 0.36835 0.72622 0.4614 0.0
H451 H 0.3707 0.77547 0.4783 0.0
C452 C 0.43662 0.95404 0.46735 0.0
C453 C 0.47305 0.96481 0.47717 0.0
C454 C 0.40151 0.91933 0.46644 0.0
C455 C 0.40155 0.89429 0.47552 0.0
C456 C 0.43804 0.90482 0.48499 0.0
C457 C 0.4732 0.93953 0.48586 0.0
C458 C 0.36372 0.85734 0.47514 0.0
C459 C 0.36126 0.82804 0.4669 0.0
C460 C 0.32961 0.85078 0.48217 0.0
C461 C 0.33048 0.87993 0.4926 0.0
C462 C 0.35853 0.9039 0.51078 0.0
C463 C 0.3594 0.93147 0.52045 0.0
C464 C 0.33216 0.93521 0.51219 0.0
C465 C 0.30393 0.91132 0.49426 0.0
C466 C 0.30297 0.88372 0.48451 0.0
C467 C 0.21225 0.68765 0.47358 0.0
C468 C 0.17909 0.67935 0.46098 0.0
C469 C 0.24851 0.72243 0.47744 0.0
C470 C 0.25239 0.74975 0.46891 0.0
C471 C 0.21867 0.74163 0.45721 0.0
C472 C 0.18274 0.70702 0.45321 0.0
C473 C 0.29145 0.78647 0.47137 0.0
C474 C 0.29411 0.81571 0.47998 0.0
C475 C 0.32573 0.79296 0.46475 0.0
C476 C 0.32481 0.76375 0.45447 0.0
C477 C 0.29866 0.74123 0.43541 0.0
C478 C 0.29759 0.71346 0.42593 0.0
C479 C 0.3227 0.70806 0.4353 0.0
C480 C 0.34902 0.73051 0.45413 0.0
C481 C 0.35027 0.75839 0.46365 0.0
H482 H 0.32179 0.6865 0.42797 0.0
H483 H 0.33288 0.95658 0.5197 0.0
H484 H 0.63558 0.39165 0.8245 0.0
H485 H 0.64569 0.34821 0.81546 0.0
H486 H 0.54055 0.27117 0.84147 0.0
H487 H 0.52939 0.3139 0.84993 0.0
H488 H 0.60174 0.27091 0.85403 0.0
H489 H 0.5381 0.26734 0.78795 0.0
H490 H 0.53033 0.29265 0.75839 0.0
H491 H 0.64245 0.3287 0.74131 0.0
H492 H 0.65113 0.30402 0.77099 0.0
H493 H 0.56169 0.11129 0.80614 0.0
H494 H 0.56092 0.1597 0.81893 0.0
H495 H 0.66046 0.22921 0.78667 0.0
H496 H 0.66145 0.18084 0.77385 0.0
H497 H 0.60608 0.23593 0.77798 0.0
H498 H 0.66906 0.23744 0.84256 0.0
H499 H 0.67796 0.21287 0.87218 0.0
H500 H 0.56955 0.18198 0.8924 0.0
H501 H 0.5597 0.20593 0.8627 0.0
C502 C 0.6143 0.36539 0.82813 0.0
C503 C 0.58146 0.35645 0.83787 0.0
C504 C 0.62031 0.34059 0.82306 0.0
C505 C 0.59375 0.30626 0.82764 0.0
C506 C 0.56156 0.2975 0.83784 0.0
C507 C 0.55534 0.32215 0.84277 0.0
C508 C 0.59887 0.27916 0.82135 0.0
C509 C 0.60229 0.26299 0.83737 0.0
C510 C 0.60066 0.26941 0.7997 0.0
C511 C 0.59546 0.28418 0.78183 0.0
C512 C 0.56125 0.28093 0.778 0.0
C513 C 0.55665 0.29511 0.76121 0.0
C514 C 0.58593 0.31236 0.74802 0.0
C515 C 0.61983 0.31538 0.75156 0.0
C516 C 0.62459 0.30129 0.76836 0.0
C517 C 0.58401 0.13705 0.80214 0.0
C518 C 0.6117 0.14204 0.78896 0.0
C519 C 0.58346 0.16479 0.80944 0.0
C520 C 0.61079 0.19836 0.80392 0.0
C521 C 0.63894 0.20361 0.79112 0.0
C522 C 0.63947 0.17586 0.78378 0.0
C523 C 0.60879 0.22742 0.81065 0.0
C524 C 0.60585 0.24395 0.79469 0.0
C525 C 0.60767 0.23761 0.83237 0.0
C526 C 0.61347 0.22319 0.85027 0.0
C527 C 0.64695 0.22515 0.85321 0.0
C528 C 0.6522 0.21138 0.87004 0.0
C529 C 0.62429 0.1958 0.88413 0.0
C530 C 0.59112 0.19402 0.88146 0.0
C531 C 0.58571 0.20772 0.86464 0.0
H532 H 0.62841 0.18516 0.89715 0.0
H533 H 0.58232 0.32331 0.73502 0.0
H534 H 0.59876 0.88535 0.47886 0.0
H535 H 0.58603 0.83038 0.48333 0.0
H536 H 0.57304 0.84636 0.54995 0.0
H537 H 0.58646 0.90192 0.54566 0.0
H538 H 0.61925 0.82614 0.54512 0.0
H539 H 0.49256 0.7854 0.51362 0.0
H540 H 0.44565 0.78098 0.48705 0.0
H541 H 0.4747 0.73838 0.43623 0.0
H542 H 0.52214 0.74295 0.46244 0.0
H543 H 0.54059 0.6488 0.5561 0.0
H544 H 0.55397 0.70557 0.55675 0.0
H545 H 0.55829 0.69676 0.48821 0.0
H546 H 0.54433 0.64009 0.4875 0.0
H547 H 0.51301 0.71295 0.49679 0.0
H548 H 0.64234 0.75695 0.52733 0.0
H549 H 0.69072 0.76248 0.55333 0.0
H550 H 0.65794 0.79941 0.60536 0.0
H551 H 0.60897 0.79367 0.57969 0.0
C552 C 0.59332 0.87728 0.4945 0.0
C553 C 0.59366 0.89812 0.5119 0.0
C554 C 0.58576 0.84567 0.497 0.0
C555 C 0.57828 0.83402 0.51694 0.0
C556 C 0.57866 0.85475 0.53439 0.0
C557 C 0.58599 0.88635 0.53187 0.0
C558 C 0.57044 0.80036 0.51946 0.0
C559 C 0.59561 0.80124 0.5348 0.0
C560 C 0.54004 0.76796 0.50576 0.0
C561 C 0.51117 0.7648 0.48998 0.0
C562 C 0.48914 0.77531 0.49676 0.0
C563 C 0.46242 0.77274 0.48176 0.0
C564 C 0.45731 0.75953 0.45996 0.0
C565 C 0.47874 0.74867 0.45312 0.0
C566 C 0.5055 0.75119 0.46804 0.0
C567 C 0.54516 0.65939 0.5413 0.0
C568 C 0.54122 0.63991 0.52174 0.0
C569 C 0.55274 0.69182 0.54165 0.0
C570 C 0.5571 0.70559 0.5225 0.0
C571 C 0.55468 0.68669 0.50317 0.0
C572 C 0.54683 0.65431 0.50279 0.0
C573 C 0.56238 0.73873 0.52215 0.0
C574 C 0.53655 0.73775 0.50723 0.0
C575 C 0.59226 0.771 0.53618 0.0
C576 C 0.62169 0.77449 0.55162 0.0
C577 C 0.64522 0.76597 0.54434 0.0
C578 C 0.67279 0.7692 0.55901 0.0
C579 C 0.67731 0.78118 0.58099 0.0
C580 C 0.65435 0.79007 0.58834 0.0
C581 C 0.62671 0.78685 0.57373 0.0
H582 H 0.69868 0.78366 0.59233 0.0
H583 H 0.43672 0.75766 0.44836 0.0
H584 H 0.67266 0.49695 0.83653 0.0
H585 H 0.72765 0.49565 0.83672 0.0
H586 H 0.80951 0.60833 0.85793 0.0
H587 H 0.75411 0.6097 0.8559 0.0
H588 H 0.8546 0.60319 0.84208 0.0
H589 H 0.772 0.5189 0.8877 0.0
H590 H 0.71038 0.46574 0.89653 0.0
H591 H 0.70747 0.40108 0.84331 0.0
H592 H 0.76868 0.4539 0.83396 0.0
H593 H 1.02072 0.60608 0.87384 0.0
H594 H 0.96479 0.60628 0.8702 0.0
H595 H 0.89001 0.49841 0.83734 0.0
H596 H 0.94652 0.49831 0.8413 0.0
H597 H 0.84168 0.50032 0.85848 0.0
H598 H 0.92632 0.58484 0.81442 0.0
H599 H 0.98804 0.63818 0.80589 0.0
H600 H 0.98774 0.70278 0.85759 0.0
H601 H 0.92622 0.64976 0.86658 0.0
C602 C 0.70222 0.5218 0.84132 0.0
C603 C 0.70687 0.55344 0.84623 0.0
C604 C 0.73494 0.52103 0.84186 0.0
C605 C 0.7756 0.55169 0.84826 0.0
C606 C 0.7801 0.58342 0.85299 0.0
C607 C 0.74737 0.58429 0.85188 0.0
C608 C 0.81245 0.55114 0.84962 0.0
C609 C 0.85093 0.58047 0.84608 0.0
C610 C 0.81106 0.52213 0.85426 0.0
C611 C 0.77464 0.49038 0.86 0.0
C612 C 0.75811 0.49334 0.87785 0.0
C613 C 0.72322 0.46328 0.88291 0.0
C614 C 0.70489 0.43006 0.87041 0.0
C615 C 0.72155 0.42682 0.8529 0.0
C616 C 0.75634 0.45681 0.84771 0.0
C617 C 0.99293 0.5825 0.86502 0.0
C618 C 0.9908 0.55284 0.85694 0.0
C619 C 0.95975 0.58252 0.86297 0.0
C620 C 0.92075 0.55261 0.8529 0.0
C621 C 0.91836 0.52266 0.84504 0.0
C622 C 0.95181 0.52274 0.847 0.0
C623 C 0.88355 0.55245 0.85119 0.0
C624 C 0.84514 0.52303 0.85462 0.0
C625 C 0.88506 0.58146 0.84666 0.0
C626 C 0.9219 0.61332 0.84129 0.0
C627 C 0.93955 0.61041 0.82404 0.0
C628 C 0.97448 0.64058 0.81912 0.0
C629 C 0.99186 0.67383 0.83123 0.0
C630 C 0.97428 0.677 0.84825 0.0
C631 C 0.93937 0.6469 0.85325 0.0
H632 H 1.0189 0.69715 0.82739 0.0
H633 H 0.67784 0.40683 0.87432 0.0
H634 H 0.18828 0.63949 0.13947 0.0
H635 H 0.24886 0.69978 0.14018 0.0
H636 H 0.20886 0.7398 0.18561 0.0
H637 H 0.14787 0.67979 0.18443 0.0
H638 H 0.23921 0.78097 0.15746 0.0
H639 H 0.2851 0.73191 0.19934 0.0
H640 H 0.29433 0.68823 0.20489 0.0
H641 H 0.35789 0.71162 0.15077 0.0
H642 H 0.34885 0.75536 0.14483 0.0
H643 H 0.41166 0.95034 0.20364 0.0
H644 H 0.35352 0.8883 0.19539 0.0
H645 H 0.40999 0.86816 0.14926 0.0
H646 H 0.46953 0.93087 0.15809 0.0
H647 H 0.37276 0.81589 0.17271 0.0
H648 H 0.3334 0.86883 0.13286 0.0
H649 H 0.32378 0.91186 0.12618 0.0
H650 H 0.2468 0.87993 0.17436 0.0
H651 H 0.2564 0.83704 0.18156 0.0
C652 C 0.19237 0.66105 0.14969 0.0
C653 C 0.16289 0.65441 0.16193 0.0
C654 C 0.22735 0.69574 0.15018 0.0
C655 C 0.23423 0.72485 0.1632 0.0
C656 C 0.20471 0.71816 0.17539 0.0
C657 C 0.16965 0.68359 0.17475 0.0
C658 C 0.27152 0.76228 0.16402 0.0
C659 C 0.26834 0.78853 0.16106 0.0
C660 C 0.30996 0.77246 0.16777 0.0
C661 C 0.31604 0.74669 0.17155 0.0
C662 C 0.30093 0.72765 0.18859 0.0
C663 C 0.30615 0.70291 0.1918 0.0
C664 C 0.32665 0.69715 0.17818 0.0
C665 C 0.34205 0.71616 0.16132 0.0
C666 C 0.33696 0.74097 0.15805 0.0
C667 C 0.41196 0.93287 0.1917 0.0
C668 C 0.44572 0.9459 0.18166 0.0
C669 C 0.3783 0.89719 0.18684 0.0
C670 C 0.37672 0.87309 0.1715 0.0
C671 C 0.41015 0.88597 0.16115 0.0
C672 C 0.44413 0.92199 0.16605 0.0
C673 C 0.3403 0.83467 0.16684 0.0
C674 C 0.34363 0.80827 0.169 0.0
C675 C 0.30189 0.82421 0.16218 0.0
C676 C 0.29586 0.84987 0.15785 0.0
C677 C 0.31464 0.87115 0.14214 0.0
C678 C 0.30915 0.8955 0.13824 0.0
C679 C 0.28475 0.89867 0.14987 0.0
C680 C 0.26571 0.87745 0.16538 0.0
C681 C 0.27112 0.85308 0.16935 0.0
H682 H 0.28055 0.91754 0.14683 0.0
H683 H 0.33072 0.67805 0.18074 0.0
H684 H 0.53593 0.23167 0.52115 0.0
H685 H 0.54024 0.28379 0.53065 0.0
H686 H 0.57431 0.31276 0.46868 0.0
H687 H 0.57046 0.26071 0.45912 0.0
H688 H 0.61942 0.37046 0.50245 0.0
H689 H 0.48277 0.27592 0.47622 0.0
H690 H 0.41836 0.21684 0.47394 0.0
H691 H 0.41367 0.24262 0.54047 0.0
H692 H 0.47837 0.3017 0.54324 0.0
H693 H 0.59012 0.49997 0.51407 0.0
H694 H 0.58764 0.44975 0.50032 0.0
H695 H 0.5419 0.40496 0.55723 0.0
H696 H 0.54283 0.45403 0.57059 0.0
H697 H 0.50198 0.35522 0.52286 0.0
H698 H 0.63978 0.44807 0.54994 0.0
H699 H 0.70471 0.50694 0.55281 0.0
H700 H 0.70771 0.48445 0.48545 0.0
H701 H 0.64251 0.42558 0.48211 0.0
C702 C 0.54476 0.2493 0.50961 0.0
C703 C 0.55281 0.24196 0.48935 0.0
C704 C 0.54691 0.27897 0.515 0.0
C705 C 0.55723 0.30204 0.5003 0.0
C706 C 0.56617 0.29528 0.48026 0.0
C707 C 0.56371 0.26541 0.47477 0.0
C708 C 0.55807 0.33287 0.50585 0.0
C709 C 0.59359 0.36714 0.50659 0.0
C710 C 0.52457 0.32861 0.5116 0.0
C711 C 0.4856 0.29313 0.50999 0.0
C712 C 0.46817 0.26889 0.49042 0.0
C713 C 0.43158 0.23542 0.48903 0.0
C714 C 0.41198 0.22596 0.50706 0.0
C715 C 0.4289 0.24998 0.52652 0.0
C716 C 0.46552 0.28347 0.528 0.0
C717 C 0.57937 0.47934 0.5236 0.0
C718 C 0.56707 0.48135 0.54357 0.0
C719 C 0.57828 0.45076 0.5158 0.0
C720 C 0.565 0.42365 0.52784 0.0
C721 C 0.55241 0.42551 0.54765 0.0
C722 C 0.5534 0.45391 0.5554 0.0
C723 C 0.56356 0.39299 0.51987 0.0
C724 C 0.52782 0.35864 0.51862 0.0
C725 C 0.59691 0.39723 0.51374 0.0
C726 C 0.63608 0.43259 0.51572 0.0
C727 C 0.65414 0.4558 0.53569 0.0
C728 C 0.69101 0.48914 0.53742 0.0
C729 C 0.71027 0.49948 0.51931 0.0
C730 C 0.69273 0.47644 0.49945 0.0
C731 C 0.65583 0.44307 0.49763 0.0
H732 H 0.73882 0.5253 0.52068 0.0
H733 H 0.38364 0.20003 0.50595 0.0
H734 H 0.4553 0.49943 0.86037 0.0
H735 H 0.39913 0.49943 0.86172 0.0
H736 H 0.46395 0.5974 0.83779 0.0
H737 H 0.52026 0.59739 0.83651 0.0
H738 H 0.39224 0.56691 0.82097 0.0
H739 H 0.31789 0.47994 0.88554 0.0
H740 H 0.33563 0.46523 0.91774 0.0
H741 H 0.45265 0.565 0.92738 0.0
H742 H 0.43546 0.58047 0.8954 0.0
H743 H 0.19777 0.51953 0.81718 0.0
H744 H 0.25351 0.5194 0.81888 0.0
H745 H 0.29378 0.5758 0.88412 0.0
H746 H 0.2376 0.57683 0.88224 0.0
H747 H 0.31571 0.5332 0.88217 0.0
H748 H 0.34037 0.61404 0.83607 0.0
H749 H 0.32651 0.634 0.80541 0.0
H750 H 0.31451 0.55384 0.76102 0.0
H751 H 0.32778 0.53309 0.79145 0.0
C752 C 0.4583 0.52135 0.8554 0.0
C753 C 0.49447 0.54848 0.84838 0.0
C754 C 0.42522 0.5215 0.85634 0.0
C755 C 0.42501 0.54872 0.85022 0.0
C756 C 0.461 0.57555 0.84286 0.0
C757 C 0.49427 0.57561 0.84217 0.0
C758 C 0.38835 0.54915 0.85124 0.0
C759 C 0.37578 0.55908 0.83448 0.0
C760 C 0.365 0.54003 0.86862 0.0
C761 C 0.37548 0.53117 0.88796 0.0
C762 C 0.34736 0.49878 0.89458 0.0
C763 C 0.35733 0.4903 0.91278 0.0
C764 C 0.39528 0.51412 0.92455 0.0
C765 C 0.42331 0.54653 0.9182 0.0
C766 C 0.41347 0.55514 0.90004 0.0
C767 C 0.2179 0.53196 0.83223 0.0
C768 C 0.21067 0.54803 0.84953 0.0
C769 C 0.2511 0.53211 0.83311 0.0
C770 C 0.28077 0.54818 0.85148 0.0
C771 C 0.273 0.563 0.86932 0.0
C772 C 0.23964 0.56328 0.86833 0.0
C773 C 0.31877 0.54962 0.8515 0.0
C774 C 0.33179 0.5404 0.86851 0.0
C775 C 0.34262 0.55942 0.83435 0.0
C776 C 0.3347 0.57181 0.81604 0.0
C777 C 0.33451 0.60052 0.81977 0.0
C778 C 0.32679 0.61199 0.80244 0.0
C779 C 0.31954 0.59514 0.78128 0.0
C780 C 0.32008 0.56684 0.77742 0.0
C781 C 0.32772 0.55522 0.7947 0.0
H782 H 0.31358 0.60407 0.76788 0.0
H783 H 0.40296 0.50749 0.93862 0.0
H784 H 0.90974 0.45722 0.15453 0.0
H785 H 0.8484 0.39915 0.15682 0.0
H786 H 0.91295 0.35992 0.164 0.0
H787 H 0.97376 0.41742 0.15992 0.0
H788 H 0.85139 0.31084 0.14207 0.0
H789 H 0.86805 0.38459 0.20753 0.0
H790 H 0.87206 0.43111 0.23074 0.0
H791 H 0.76188 0.39413 0.19681 0.0
H792 H 0.75728 0.3478 0.17324 0.0
H793 H 0.68788 0.14833 0.17152 0.0
H794 H 0.752 0.20774 0.17402 0.0
H795 H 0.69166 0.24753 0.15614 0.0
H796 H 0.62825 0.18892 0.15407 0.0
H797 H 0.75135 0.29526 0.18525 0.0
H798 H 0.73478 0.22515 0.1194 0.0
H799 H 0.72452 0.17474 0.09714 0.0
H800 H 0.83088 0.20376 0.13143 0.0
H801 H 0.84149 0.2541 0.1541 0.0
C802 C 0.91082 0.43614 0.1565 0.0
C803 C 0.94686 0.44213 0.15694 0.0
C804 C 0.87554 0.40276 0.15817 0.0
C805 C 0.87528 0.37452 0.16126 0.0
C806 C 0.91152 0.38068 0.16164 0.0
C807 C 0.94658 0.41376 0.15929 0.0
C808 C 0.83751 0.33836 0.1632 0.0
C809 C 0.83015 0.30782 0.15195 0.0
C810 C 0.8081 0.33329 0.17534 0.0
C811 C 0.81259 0.36294 0.18847 0.0
C812 C 0.84502 0.38675 0.20481 0.0
C813 C 0.84737 0.41304 0.21803 0.0
C814 C 0.81752 0.41578 0.2151 0.0
C815 C 0.78518 0.39221 0.19894 0.0
C816 C 0.78269 0.36596 0.18564 0.0
C817 C 0.68838 0.16997 0.16861 0.0
C818 C 0.65277 0.1637 0.16256 0.0
C819 C 0.72513 0.20394 0.16975 0.0
C820 C 0.72716 0.23246 0.16487 0.0
C821 C 0.69144 0.22637 0.15991 0.0
C822 C 0.65499 0.19265 0.15872 0.0
C823 C 0.76591 0.26843 0.16436 0.0
C824 C 0.77317 0.2987 0.17568 0.0
C825 C 0.79498 0.27333 0.1522 0.0
C826 C 0.78867 0.24312 0.1386 0.0
C827 C 0.7558 0.2206 0.1223 0.0
C828 C 0.74996 0.19208 0.1096 0.0
C829 C 0.77697 0.18598 0.11292 0.0
C830 C 0.80994 0.20847 0.12891 0.0
C831 C 0.81589 0.23701 0.14169 0.0
H832 H 0.7724 0.16389 0.10306 0.0
H833 H 0.81942 0.43612 0.22538 0.0
H834 H 1.02712 0.50255 0.09676 0.0
H835 H 1.03396 0.49977 0.0582 0.0
H836 H 0.05855 0.59991 0.05986 0.0
H837 H 0.05303 0.60335 0.09835 0.0
H838 H 1.00086 0.54701 0.02517 0.0
H839 H 0.13345 0.60047 0.05734 0.0
H840 H 0.1836 0.60428 0.08044 0.0
H841 H 0.14303 0.50437 0.04566 0.0
H842 H 0.09274 0.50011 0.02223 0.0
H843 H 0.06764 0.59827 0.92761 0.0
H844 H 0.06597 0.59686 0.96622 0.0
H845 H 0.05851 0.50427 0.95756 0.0
H846 H 0.06109 0.50614 0.91873 0.0
H847 H 0.10421 0.54731 0.99538 0.0
H848 H 0.97568 0.49662 0.96074 0.0
H849 H 0.92688 0.49387 0.93707 0.0
H850 H 0.95752 0.58674 0.97691 0.0
H851 H 1.00698 0.59038 0.00064 0.0
C852 C 1.03447 0.52414 0.08894 0.0
C853 C 0.03999 0.55336 0.10065 0.0
C854 C 0.03829 0.5225 0.06691 0.0
C855 C 0.047 0.54975 0.05616 0.0
C856 C 0.05187 0.57861 0.0678 0.0
C857 C 0.04868 0.58052 0.08981 0.0
C858 C 0.0502 0.54809 0.03268 0.0
C859 C 1.02364 0.54735 0.01868 0.0
C860 C 0.07918 0.54749 0.0241 0.0
C861 C 0.1091 0.5498 0.03821 0.0
C862 C 0.13504 0.57919 0.05473 0.0
C863 C 0.16356 0.58148 0.06784 0.0
C864 C 0.16636 0.55447 0.06461 0.0
C865 C 0.14078 0.52523 0.04817 0.0
C866 C 0.11236 0.52293 0.03492 0.0
C867 C 0.066 0.57778 0.93397 0.0
C868 C 0.06402 0.55206 0.92012 0.0
C869 C 0.06492 0.57692 0.95604 0.0
C870 C 0.0611 0.54993 0.96479 0.0
C871 C 0.06117 0.52521 0.9512 0.0
C872 C 0.06268 0.5263 0.92904 0.0
C873 C 0.05526 0.5469 0.98786 0.0
C874 C 0.08117 0.54662 0.00179 0.0
C875 C 1.02545 0.54634 -0.00359 0.0
C876 C 0.99525 0.54391 0.98238 0.0
C877 C 0.97217 0.51657 0.96439 0.0
C878 C 0.94438 0.51485 0.95096 0.0
C879 C 0.93915 0.54015 0.95546 0.0
C880 C 0.96162 0.56717 0.97344 0.0
C881 C 0.98951 0.56906 0.9869 0.0
H882 H 0.91764 0.53879 0.94504 0.0
H883 H 0.18843 0.55626 0.07479 0.0
H884 H 0.52663 0.04745 0.42535 0.0
H885 H 0.51524 0.04871 0.38704 0.0
H886 H 0.63408 0.08914 0.38085 0.0
H887 H 0.64575 0.08858 0.41909 0.0
H888 H 0.61512 0.12173 0.35876 0.0
H889 H 0.55484 1.001 0.36507 0.0
H890 H 0.51011 0.94563 0.37921 0.0
H891 H 0.41047 0.9369 0.35453 0.0
H892 H 0.4547 0.9925 0.34048 0.0
H893 H 0.59706 0.07006 0.245 0.0
H894 H 0.60916 0.08254 0.28465 0.0
H895 H 0.48745 0.03728 0.28586 0.0
H896 H 0.47524 0.02426 0.24639 0.0
H897 H 0.50585 0.00922 0.31097 0.0
H898 H 0.56534 0.12749 0.30195 0.0
H899 H 0.60992 0.18292 0.28788 0.0
H900 H 0.71046 0.19679 0.31737 0.0
H901 H 0.66646 0.14116 0.33137 0.0
C902 C 0.55033 0.0568 0.41581 0.0
C903 C 0.58694 0.06761 0.42511 0.0
C904 C 0.5438 0.05745 0.39393 0.0
C905 C 0.57367 0.06861 0.38097 0.0
C906 C 0.6106 0.08042 0.39048 0.0
C907 C 0.61715 0.07989 0.41231 0.0
C908 C 0.56616 0.06659 0.35732 0.0
C909 C 0.5914 0.09709 0.34826 0.0
C910 C 0.53472 0.03464 0.34366 0.0
C911 C 0.5081 1.00108 0.35193 0.0
C912 C 0.52341 0.98739 0.36279 0.0
C913 C 0.49816 0.95596 0.37077 0.0
C914 C 0.45749 0.93782 0.36783 0.0
C915 C 0.44199 0.95102 0.35684 0.0
C916 C 0.46712 0.98247 0.34885 0.0
C917 C 0.57321 0.06354 0.25379 0.0
C918 C 0.53518 0.04598 0.24268 0.0
C919 C 0.5801 0.07067 0.27643 0.0
C920 C 0.54919 0.06085 0.28831 0.0
C921 C 0.5117 0.0449 0.27712 0.0
C922 C 0.50477 0.03753 0.25457 0.0
C923 C 0.55486 0.06438 0.31227 0.0
C924 C 0.52934 0.03404 0.32141 0.0
C925 C 0.586 0.09649 0.32595 0.0
C926 C 0.61256 0.12996 0.31754 0.0
C927 C 0.59695 0.1422 0.30529 0.0
C928 C 0.62211 0.17369 0.29735 0.0
C929 C 0.66299 0.19332 0.30168 0.0
C930 C 0.67879 0.18154 0.314 0.0
C931 C 0.65375 0.15004 0.32196 0.0
H932 H 0.68243 0.2177 0.29553 0.0
H933 H 0.43799 0.91349 0.37403 0.0
H934 H 0.5197 0.51253 0.77773 0.0
H935 H 0.52282 0.52436 0.74091 0.0
H936 H 0.64827 0.57954 0.75014 0.0
H937 H 0.64541 0.56917 0.7876 0.0
H938 H 0.6339 0.61159 0.72609 0.0
H939 H 0.57963 0.49158 0.72344 0.0
H940 H 0.5349 0.43098 0.7312 0.0
H941 H 0.43537 0.41652 0.69945 0.0
H942 H 0.47947 0.47724 0.69176 0.0
H943 H 0.63853 0.57551 0.61169 0.0
H944 H 0.64349 0.58119 0.65117 0.0
H945 H 0.52675 0.55038 0.64744 0.0
H946 H 0.52189 0.54515 0.60802 0.0
H947 H 0.53875 0.5077 0.66851 0.0
H948 H 0.59862 0.6301 0.66982 0.0
H949 H 0.64728 0.68958 0.66117 0.0
H950 H 0.74158 0.69754 0.69412 0.0
H951 H 0.6935 0.63785 0.7027 0.0
C952 C 0.54799 0.52741 0.77195 0.0
C953 C 0.58223 0.53954 0.78534 0.0
C954 C 0.54975 0.53404 0.75086 0.0
C955 C 0.58559 0.55199 0.74247 0.0
C956 C 0.62021 0.56541 0.75616 0.0
C957 C 0.61857 0.55939 0.7775 0.0
C958 C 0.58632 0.55534 0.71921 0.0
C959 C 0.61339 0.58878 0.7135 0.0
C960 C 0.55947 0.52568 0.70268 0.0
C961 C 0.53283 0.48908 0.70721 0.0
C962 C 0.54818 0.47556 0.71825 0.0
C963 C 0.52294 0.44118 0.72261 0.0
C964 C 0.48231 0.41995 0.71587 0.0
C965 C 0.46685 0.43302 0.70469 0.0
C966 C 0.49195 0.46741 0.70031 0.0
C967 C 0.61438 0.57084 0.61939 0.0
C968 C 0.57985 0.55996 0.60685 0.0
C969 C 0.61726 0.57414 0.6419 0.0
C970 C 0.58547 0.56618 0.65219 0.0
C971 C 0.55164 0.55676 0.63978 0.0
C972 C 0.54899 0.554 0.61731 0.0
C973 C 0.58577 0.5639 0.67549 0.0
C974 C 0.55907 0.5305 0.68115 0.0
C975 C 0.61354 0.59341 0.69181 0.0
C976 C 0.64247 0.62934 0.68671 0.0
C977 C 0.62976 0.64438 0.67504 0.0
C978 C 0.65723 0.67817 0.6702 0.0
C979 C 0.69751 0.69729 0.67704 0.0
C980 C 0.71038 0.68269 0.68881 0.0
C981 C 0.68302 0.64888 0.69368 0.0
H982 H 0.71873 0.72346 0.67328 0.0
H983 H 0.46283 0.39333 0.71926 0.0
H984 H 0.51411 0.04424 0.54694 0.0
H985 H 0.52385 0.04105 0.58477 0.0
H986 H 0.64924 0.10361 0.5839 0.0
H987 H 0.63931 0.10599 0.54555 0.0
H988 H 0.62489 0.05298 0.60746 0.0
H989 H 0.61023 0.14119 0.60568 0.0
H990 H 0.57969 0.16698 0.5944 0.0
H991 H 0.47489 0.08966 0.62008 0.0
H992 H 0.50459 0.06307 0.63124 0.0
H993 H 0.66734 0.11825 0.72487 0.0
H994 H 0.66407 0.11443 0.68544 0.0
H995 H 0.54195 0.02109 0.67721 0.0
H996 H 0.54548 0.02416 0.71656 0.0
H997 H 0.56836 0.0891 0.65881 0.0
H998 H 0.58635 1.00122 0.66011 0.0
H999 H 0.62092 0.97939 0.67218 0.0
H1000 H 0.72522 0.06233 0.64867 0.0
H1001 H 0.69142 0.08502 0.63676 0.0
C1002 C 0.54376 0.05721 0.55477 0.0
C1003 C 0.57602 0.0757 0.54341 0.0
C1004 C 0.54932 0.05545 0.57643 0.0
C1005 C 0.58739 0.07274 0.58738 0.0
C1006 C 0.61962 0.09023 0.57585 0.0
C1007 C 0.61397 0.09167 0.55399 0.0
C1008 C 0.59321 0.0733 0.61098 0.0
C1009 C 0.61294 0.0613 0.6187 0.0
C1010 C 0.57749 0.08398 0.62575 0.0
C1011 C 0.55952 0.09994 0.61912 0.0
C1012 C 0.58055 0.12952 0.60878 0.0
C1013 C 0.56341 0.14431 0.60243 0.0
C1014 C 0.52534 0.12992 0.60648 0.0
C1015 C 0.50436 0.10075 0.61693 0.0
C1016 C 0.52135 0.08583 0.62329 0.0
C1017 C 0.64016 0.09644 0.71456 0.0
C1018 C 0.60673 0.07133 0.72364 0.0
C1019 C 0.63832 0.09429 0.69212 0.0
C1020 C 0.60282 0.06742 0.67849 0.0
C1021 C 0.56968 0.04184 0.6875 0.0
C1022 C 0.57176 0.04352 0.70991 0.0
C1023 C 0.59921 0.06814 0.65508 0.0
C1024 C 0.58018 0.08073 0.64749 0.0
C1025 C 0.61612 0.05859 0.64059 0.0
C1026 C 0.63653 0.04511 0.64783 0.0
C1027 C 0.61681 0.01508 0.65777 0.0
C1028 C 0.63622 1.00248 0.66451 0.0
C1029 C 0.67529 0.01954 0.66127 0.0
C1030 C 0.69498 0.04919 0.65121 0.0
C1031 C 0.67571 0.06192 0.64446 0.0
H1032 H 0.69026 0.00972 0.66648 0.0
H1033 H 0.51212 0.14141 0.60155 0.0
H1034 H 0.67674 0.60911 0.91957 0.0
H1035 H 0.66833 0.59722 0.95638 0.0
H1036 H 0.5474 0.50434 0.93415 0.0
H1037 H 0.5553 0.51717 0.89737 0.0
H1038 H 0.54977 0.53831 0.96914 0.0
H1039 H 0.62152 0.49908 0.94951 0.0
H1040 H 0.67419 0.50123 0.93487 0.0
H1041 H 0.7609 0.59046 0.98406 0.0
H1042 H 0.70884 0.58922 -0.00119 0.0
H1043 H 0.53971 0.48558 0.07348 0.0
H1044 H 0.54145 0.48494 0.03445 0.0
H1045 H 0.64811 0.59348 0.04735 0.0
H1046 H 0.64606 0.59445 0.08626 0.0
H1047 H 0.64784 0.54305 0.01629 0.0
H1048 H 0.57161 0.58243 0.03287 0.0
H1049 H 0.51607 0.57594 0.04694 0.0
H1050 H 0.43363 0.4786 0.00222 0.0
H1051 H 0.48875 0.48425 0.98813 0.0
C1052 C 0.64844 0.58606 0.92253 0.0
C1053 C 0.61672 0.56396 0.90566 0.0
C1054 C 0.64371 0.57911 0.94355 0.0
C1055 C 0.60742 0.54949 0.94803 0.0
C1056 C 0.57572 0.52725 0.9311 0.0
C1057 C 0.5803 0.53449 0.91009 0.0
C1058 C 0.60226 0.54287 0.97055 0.0
C1059 C 0.57083 0.53864 0.97927 0.0
C1060 C 0.62976 0.54342 0.98391 0.0
C1061 C 0.66125 0.54421 0.97518 0.0
C1062 C 0.65185 0.51933 0.95712 0.0
C1063 C 0.6816 0.52036 0.94881 0.0
C1064 C 0.72087 0.546 0.9585 0.0
C1065 C 0.73047 0.57062 0.97656 0.0
C1066 C 0.70083 0.56974 0.98492 0.0
C1067 C 0.56341 0.50924 0.0679 0.0
C1068 C 0.59257 0.54015 0.08275 0.0
C1069 C 0.56438 0.50885 0.04571 0.0
C1070 C 0.59491 0.53917 0.03814 0.0
C1071 C 0.62437 0.56985 0.05296 0.0
C1072 C 0.62301 0.57045 0.07509 0.0
C1073 C 0.59604 0.53932 0.01473 0.0
C1074 C 0.62664 0.54226 0.00593 0.0
C1075 C 0.56736 0.53682 0.0012 0.0
C1076 C 0.53429 0.53352 0.00965 0.0
C1077 C 0.54164 0.55945 0.0262 0.0
C1078 C 0.51024 0.55597 0.03414 0.0
C1079 C 0.47134 0.52681 0.02553 0.0
C1080 C 0.46377 0.50113 0.00891 0.0
C1081 C 0.49508 0.50446 0.00094 0.0
H1082 H 0.44707 0.52417 0.03169 0.0
H1083 H 0.74386 0.54676 0.95204 0.0
H1084 H 0.06509 0.49798 0.22001 0.0
H1085 H 0.0668 0.50664 0.25915 0.0
H1086 H 0.09 0.60575 0.25777 0.0
H1087 H 0.08996 0.59784 0.21862 0.0
H1088 H 0.13359 0.61113 0.29206 0.0
H1089 H 0.998 0.52947 0.25943 0.0
H1090 H 0.9425 0.47581 0.23474 0.0
H1091 H 0.94956 0.41142 0.27243 0.0
H1092 H 1.00644 0.46494 0.29684 0.0
H1093 H 0.08961 0.6326 0.39485 0.0
H1094 H 0.08171 0.62077 0.35542 0.0
H1095 H 0.06456 0.52451 0.35765 0.0
H1096 H 0.07214 0.53617 0.39729 0.0
H1097 H 1.01716 0.51741 0.32302 0.0
H1098 H 0.15399 0.59794 0.35418 0.0
H1099 H 0.21233 0.65127 0.37793 0.0
H1100 H 0.20276 0.7169 0.34314 0.0
H1101 H 0.14389 0.6639 0.3194 0.0
C1102 C 0.07074 0.5217 0.22807 0.0
C1103 C 0.07673 0.54697 0.21625 0.0
C1104 C 0.07159 0.52657 0.25043 0.0
C1105 C 0.07774 0.55652 0.26138 0.0
C1106 C 0.08493 0.58233 0.24967 0.0
C1107 C 0.08453 0.57764 0.22729 0.0
C1108 C 0.07557 0.56034 0.28492 0.0
C1109 C 0.10791 0.59086 0.29876 0.0
C1110 C 0.04237 0.53354 0.29378 0.0
C1111 C 1.00674 0.50126 0.27987 0.0
C1112 C 0.98784 0.50389 0.26242 0.0
C1113 C 0.95616 0.47347 0.24843 0.0
C1114 C 0.94241 0.44016 0.25203 0.0
C1115 C 0.96028 0.43724 0.26966 0.0
C1116 C 0.99235 0.46763 0.28354 0.0
C1117 C 0.08354 0.60863 0.3869 0.0
C1118 C 0.08201 0.58552 0.3991 0.0
C1119 C 0.07909 0.60193 0.3644 0.0
C1120 C 0.07344 0.57218 0.35363 0.0
C1121 C 0.06913 0.54773 0.36566 0.0
C1122 C 0.07337 0.55435 0.38826 0.0
C1123 C 0.07512 0.5682 0.33007 0.0
C1124 C 0.04274 0.53769 0.31626 0.0
C1125 C 0.10832 0.59496 0.32122 0.0
C1126 C 0.14431 0.62693 0.33513 0.0
C1127 C 0.16419 0.62374 0.35167 0.0
C1128 C 0.19735 0.6539 0.36513 0.0
C1129 C 0.21119 0.68745 0.36208 0.0
C1130 C 0.19197 0.6909 0.3455 0.0
C1131 C 0.15872 0.6608 0.33203 0.0
H1132 H 0.23684 0.71077 0.37255 0.0
H1133 H 0.91794 0.41659 0.24118 0.0
loop_
_geom_bond_atom_site_label_1
_geom_bond_atom_site_label_2
_geom_bond_distance
_geom_bond_site_symmetry_2
_ccdc_geom_bond_type
La0 C2 2.928 . S
La0 O20 2.521 . S
La0 O21 2.628 . S
La0 O22 2.554 . S
La0 O23 2.757 . S
La0 O24 2.470 . S
La0 O29 2.482 . S
La0 O31 2.503 1_455 S
La1 C11 2.928 1_455 S
La1 O23 2.482 . S
La1 O25 2.503 . S
La1 O26 2.521 1_455 S
La1 O27 2.628 1_455 S
La1 O28 2.554 . S
La1 O29 2.757 . S
La1 O30 2.470 1_455 S
C2 La0 2.928 . S
C2 C3 1.503 . S
C2 O20 1.261 . S
C2 O21 1.243 . S
C3 C2 1.503 . S
C3 C4 1.394 . S
C3 C8 1.373 . S
C4 C3 1.394 . S
C4 C5 1.380 . S
C4 H32 0.930 . S
C5 C4 1.380 . S
C5 C6 1.376 . S
C5 H33 0.930 . S
C6 C5 1.376 . S
C6 C7 1.370 . S
C7 C6 1.370 . S
C7 C8 1.396 . S
C7 H34 0.929 . S
C8 C3 1.373 . S
C8 C7 1.396 . S
C8 H35 0.929 . S
C9 O22 1.240 . S
C9 O23 1.289 . S
C10 O24 1.258 . S
C10 O25 1.256 . S
C11 La1 2.928 1_655 S
C11 C12 1.503 . S
C11 O26 1.261 . S
C11 O27 1.243 . S
C12 C11 1.503 . S
C12 C13 1.394 . S
C12 C17 1.373 . S
C13 C12 1.394 . S
C13 C14 1.380 . S
C13 H36 0.930 . S
C14 C13 1.380 . S
C14 C15 1.376 . S
C14 H37 0.930 . S
C15 C14 1.376 . S
C15 C16 1.370 . S
C16 C15 1.370 . S
C16 C17 1.396 . S
C16 H38 0.929 . S
C17 C12 1.373 . S
C17 C16 1.396 . S
C17 H39 0.929 . S
C18 O28 1.240 . S
C18 O29 1.289 . S
C19 O30 1.258 . S
C19 O31 1.256 . S
O20 La0 2.521 . S
O20 C2 1.261 . S
O21 La0 2.628 . S
O21 C2 1.243 . S
O22 La0 2.554 . S
O22 C9 1.240 . S
O23 La0 2.757 . S
O23 La1 2.482 . S
O23 C9 1.289 . S
O24 La0 2.470 . S
O24 C10 1.258 . S
O25 La1 2.503 . S
O25 C10 1.256 . S
O26 La1 2.521 1_655 S
O26 C11 1.261 . S
O27 La1 2.628 1_655 S
O27 C11 1.243 . S
O28 La1 2.554 . S
O28 C18 1.240 . S
O29 La0 2.482 . S
O29 La1 2.757 . S
O29 C18 1.289 . S
O30 La1 2.470 1_655 S
O30 C19 1.258 . S
O31 La0 2.503 1_655 S
O31 C19 1.256 . S
H32 C4 0.930 . S
H33 C5 0.930 . S
H34 C7 0.929 . S
H35 C8 0.929 . S
H36 C13 0.930 . S
H37 C14 0.930 . S
H38 C16 0.929 . S
H39 C17 0.929 . S
La40 C42 2.928 1_545 S
La40 O60 2.521 1_545 S
La40 O61 2.628 1_545 S
La40 O62 2.554 . S
La40 O63 2.757 . S
La40 O64 2.470 1_545 S
La40 O69 2.482 . S
La40 O71 2.503 . S
La41 C51 2.928 . S
La41 O63 2.482 . S
La41 O65 2.512 . S
La41 O66 2.521 . S
La41 O67 2.628 . S
La41 O68 2.554 . S
La41 O69 2.757 . S
La41 O70 2.470 . S
C42 La40 2.928 1_565 S
C42 C43 1.503 . S
C42 O60 1.261 . S
C42 O61 1.243 . S
C43 C42 1.503 . S
C43 C44 1.394 . S
C43 C48 1.373 . S
C44 C43 1.394 . S
C44 C45 1.380 . S
C44 H72 0.930 . S
C45 C44 1.380 . S
C45 C46 1.376 . S
C45 H73 0.930 . S
C46 C45 1.376 . S
C46 C47 1.370 . S
C47 C46 1.370 . S
C47 C48 1.396 . S
C47 H74 0.929 . S
C48 C43 1.373 . S
C48 C47 1.396 . S
C48 H75 0.929 . S
C49 O62 1.240 . S
C49 O63 1.289 . S
C50 O64 1.258 . S
C50 O65 1.244 1_565 S
C51 La41 2.928 . S
C51 C52 1.503 . S
C51 O66 1.261 . S
C51 O67 1.243 . S
C52 C51 1.503 . S
C52 C53 1.394 . S
C52 C57 1.373 . S
C53 C52 1.394 . S
C53 C54 1.380 . S
C53 H76 0.930 . S
C54 C53 1.380 . S
C54 C55 1.376 . S
C54 H77 0.930 . S
C55 C54 1.376 . S
C55 C56 1.370 . S
C56 C55 1.370 . S
C56 C57 1.396 . S
C56 H78 0.929 . S
C57 C52 1.373 . S
C57 C56 1.396 . S
C57 H79 0.929 . S
C58 O68 1.240 . S
C58 O69 1.289 . S
C59 O70 1.258 . S
C59 O71 1.256 . S
O60 La40 2.521 1_565 S
O60 C42 1.261 . S
O61 La40 2.628 1_565 S
O61 C42 1.243 . S
O62 La40 2.554 . S
O62 C49 1.240 . S
O63 La40 2.757 . S
O63 La41 2.482 . S
O63 C49 1.289 . S
O64 La40 2.470 1_565 S
O64 C50 1.258 . S
O65 La41 2.512 . S
O65 C50 1.244 1_545 S
O66 La41 2.521 . S
O66 C51 1.261 . S
O67 La41 2.628 . S
O67 C51 1.243 . S
O68 La41 2.554 . S
O68 C58 1.240 . S
O69 La40 2.482 . S
O69 La41 2.757 . S
O69 C58 1.289 . S
O70 La41 2.470 . S
O70 C59 1.258 . S
O71 La40 2.503 . S
O71 C59 1.256 . S
H72 C44 0.930 . S
H73 C45 0.930 . S
H74 C47 0.929 . S
H75 C48 0.929 . S
H76 C53 0.930 . S
H77 C54 0.930 . S
H78 C56 0.929 . S
H79 C57 0.929 . S
La80 C82 2.928 . S
La80 O100 2.521 . S
La80 O101 2.628 . S
La80 O102 2.554 . S
La80 O103 2.757 . S
La80 O104 2.470 . S
La80 O109 2.482 . S
La80 O111 2.503 . S
La81 C91 2.928 . S
La81 O103 2.482 . S
La81 O105 2.503 . S
La81 O106 2.521 . S
La81 O107 2.628 . S
La81 O108 2.554 . S
La81 O109 2.757 . S
La81 O110 2.470 . S
C82 La80 2.928 . S
C82 C83 1.503 . S
C82 O100 1.261 . S
C82 O101 1.243 . S
C83 C82 1.503 . S
C83 C84 1.394 . S
C83 C88 1.373 . S
C84 C83 1.394 . S
C84 C85 1.380 . S
C84 H112 0.930 . S
C85 C84 1.380 . S
C85 C86 1.376 . S
C85 H113 0.930 . S
C86 C85 1.376 . S
C86 C87 1.370 . S
C87 C86 1.370 . S
C87 C88 1.396 . S
C87 H114 0.929 . S
C88 C83 1.373 . S
C88 C87 1.396 . S
C88 H115 0.929 . S
C89 O102 1.240 . S
C89 O103 1.289 . S
C90 O104 1.258 . S
C90 O105 1.256 . S
C91 La81 2.928 . S
C91 C92 1.503 . S
C91 O106 1.261 . S
C91 O107 1.243 . S
C92 C91 1.503 . S
C92 C93 1.394 . S
C92 C97 1.373 . S
C93 C92 1.394 . S
C93 C94 1.380 . S
C93 H116 0.930 . S
C94 C93 1.380 . S
C94 C95 1.376 . S
C94 H117 0.930 . S
C95 C94 1.376 . S
C95 C96 1.370 . S
C96 C95 1.370 . S
C96 C97 1.396 . S
C96 H118 0.929 . S
C97 C92 1.373 . S
C97 C96 1.396 . S
C97 H119 0.929 . S
C98 O108 1.240 . S
C98 O109 1.289 . S
C99 O110 1.258 . S
C99 O111 1.256 . S
O100 La80 2.521 . S
O100 C82 1.261 . S
O101 La80 2.628 . S
O101 C82 1.243 . S
O102 La80 2.554 . S
O102 C89 1.240 . S
O103 La80 2.757 . S
O103 La81 2.482 . S
O103 C89 1.289 . S
O104 La80 2.470 . S
O104 C90 1.258 . S
O105 La81 2.503 . S
O105 C90 1.256 . S
O106 La81 2.521 . S
O106 C91 1.261 . S
O107 La81 2.628 . S
O107 C91 1.243 . S
O108 La81 2.554 . S
O108 C98 1.240 . S
O109 La80 2.482 . S
O109 La81 2.757 . S
O109 C98 1.289 . S
O110 La81 2.470 . S
O110 C99 1.258 . S
O111 La80 2.503 . S
O111 C99 1.256 . S
H112 C84 0.930 . S
H113 C85 0.930 . S
H114 C87 0.929 . S
H115 C88 0.929 . S
H116 C93 0.930 . S
H117 C94 0.930 . S
H118 C96 0.929 . S
H119 C97 0.929 . S
H120 C121 0.949 . S
C121 H120 0.949 . S
C121 C122 1.395 . S
C121 C123 1.391 . S
C122 C121 1.395 . S
C122 C125 1.390 . S
C123 C121 1.391 . S
C123 C127 1.387 . S
C123 C128 1.491 . S
H124 C125 0.945 1_565 S
C125 C122 1.390 . S
C125 H124 0.945 1_545 S
C125 C126 1.378 . S
C126 C125 1.378 . S
C126 C127 1.409 . S
C127 C123 1.387 . S
C127 C126 1.409 . S
C127 H129 0.951 . S
C128 C123 1.491 . S
C128 C130 1.382 . S
C128 C132 1.404 . S
H129 C127 0.951 . S
C130 C128 1.382 . S
C130 C131 1.390 . S
C130 H135 0.949 . S
C131 C130 1.390 . S
C131 C136 1.399 . S
C132 C128 1.404 . S
C132 H133 0.950 . S
C132 C134 1.375 . S
H133 C132 0.950 . S
C134 C132 1.375 . S
C134 C136 1.382 . S
C134 H138 0.950 . S
H135 C130 0.949 . S
C136 C131 1.399 . S
C136 C134 1.382 . S
C136 H137 0.952 . S
H137 C136 0.952 . S
H138 C134 0.950 . S
H139 C140 0.949 . S
C140 H139 0.949 . S
C140 C141 1.395 . S
C140 C142 1.391 . S
C141 C140 1.395 . S
C141 C144 1.390 . S
C142 C140 1.391 . S
C142 C146 1.387 . S
C142 C147 1.491 . S
H143 C144 0.950 . S
C144 C141 1.390 . S
C144 H143 0.950 . S
C144 C145 1.378 . S
C145 C144 1.378 . S
C145 C146 1.409 . S
C146 C142 1.387 . S
C146 C145 1.409 . S
C146 H148 0.951 . S
C147 C142 1.491 . S
C147 C149 1.382 . S
C147 C151 1.404 . S
H148 C146 0.951 . S
C149 C147 1.382 . S
C149 C150 1.390 . S
C149 H154 0.949 . S
C150 C149 1.390 . S
C150 C155 1.399 . S
C151 C147 1.404 . S
C151 H152 0.950 . S
C151 C153 1.375 . S
H152 C151 0.950 . S
C153 C151 1.375 . S
C153 C155 1.382 . S
C153 H157 0.950 . S
H154 C149 0.949 . S
C155 C150 1.399 . S
C155 C153 1.382 . S
C155 H156 0.952 . S
H156 C155 0.952 . S
H157 C153 0.950 . S
H158 C159 0.949 . S
C159 H158 0.949 . S
C159 C160 1.395 . S
C159 C161 1.391 . S
C160 C159 1.395 . S
C160 C163 1.390 . S
C161 C159 1.391 . S
C161 C165 1.387 . S
C161 C166 1.491 . S
H162 C163 0.950 . S
C163 C160 1.390 . S
C163 H162 0.950 . S
C163 C164 1.378 . S
C164 C163 1.378 . S
C164 C165 1.409 . S
C165 C161 1.387 . S
C165 C164 1.409 . S
C165 H167 0.951 . S
C166 C161 1.491 . S
C166 C168 1.382 . S
C166 C170 1.404 . S
H167 C165 0.951 . S
C168 C166 1.382 . S
C168 C169 1.390 . S
C168 H173 0.949 . S
C169 C168 1.390 . S
C169 C174 1.399 . S
C170 C166 1.404 . S
C170 H171 0.950 . S
C170 C172 1.375 . S
H171 C170 0.950 . S
C172 C170 1.375 . S
C172 C174 1.382 . S
C172 H176 0.950 . S
H173 C168 0.949 . S
C174 C169 1.399 . S
C174 C172 1.382 . S
C174 H175 0.952 . S
H175 C174 0.952 . S
H176 C172 0.950 . S
H177 C178 0.949 . S
C178 H177 0.949 . S
C178 C179 1.395 1_655 S
C178 C180 1.391 1_655 S
C179 C178 1.395 1_455 S
C179 C182 1.390 . S
C180 C178 1.391 1_455 S
C180 C184 1.387 . S
C180 C185 1.491 1_455 S
H181 C182 0.950 . S
C182 C179 1.390 . S
C182 H181 0.950 . S
C182 C183 1.378 . S
C183 C182 1.378 . S
C183 C184 1.409 . S
C184 C180 1.387 . S
C184 C183 1.409 . S
C184 H186 0.951 . S
C185 C180 1.491 1_655 S
C185 C187 1.382 . S
C185 C189 1.404 . S
H186 C184 0.951 . S
C187 C185 1.382 . S
C187 C188 1.390 . S
C187 H192 0.949 . S
C188 C187 1.390 . S
C188 C193 1.399 . S
C189 C185 1.404 . S
C189 H190 0.950 . S
C189 C191 1.375 . S
H190 C189 0.950 . S
C191 C189 1.375 . S
C191 C193 1.382 . S
C191 H195 0.950 . S
H192 C187 0.949 . S
C193 C188 1.399 . S
C193 C191 1.382 . S
C193 H194 0.952 . S
H194 C193 0.952 . S
H195 C191 0.950 . S
H196 C197 0.949 . S
C197 H196 0.949 . S
C197 C198 1.395 . S
C197 C199 1.391 . S
C198 C197 1.395 . S
C198 C201 1.390 . S
C199 C197 1.391 . S
C199 C203 1.387 . S
C199 C204 1.491 . S
H200 C201 0.950 . S
C201 C198 1.390 . S
C201 H200 0.950 . S
C201 C202 1.378 . S
C202 C201 1.378 . S
C202 C203 1.409 . S
C203 C199 1.387 . S
C203 C202 1.409 . S
C203 H205 0.951 . S
C204 C199 1.491 . S
C204 C206 1.382 1_545 S
C204 C208 1.405 1_545 S
H205 C203 0.951 . S
C206 C204 1.382 1_565 S
C206 C207 1.390 . S
C206 H211 0.949 . S
C207 C206 1.390 . S
C207 C212 1.399 . S
C208 C204 1.405 1_565 S
C208 H209 0.919 1_565 S
C208 C210 1.405 . S
H209 C208 0.919 1_545 S
C210 C208 1.405 . S
C210 C212 1.382 . S
C210 H214 0.950 . S
H211 C206 0.949 . S
C212 C207 1.399 . S
C212 C210 1.382 . S
C212 H213 0.952 . S
H213 C212 0.952 . S
H214 C210 0.950 . S
H215 C216 0.949 . S
C216 H215 0.949 . S
C216 C217 1.395 . S
C216 C218 1.391 . S
C217 C216 1.395 . S
C217 C220 1.390 . S
C218 C216 1.391 . S
C218 C222 1.387 . S
C218 C223 1.491 . S
H219 C220 0.950 . S
C220 C217 1.390 . S
C220 H219 0.950 . S
C220 C221 1.378 . S
C221 C220 1.378 . S
C221 C222 1.409 . S
C222 C218 1.387 . S
C222 C221 1.409 . S
C222 H224 0.951 . S
C223 C218 1.491 . S
C223 C225 1.382 . S
C223 C227 1.404 . S
H224 C222 0.951 . S
C225 C223 1.382 . S
C225 C226 1.390 . S
C225 H230 0.949 . S
C226 C225 1.390 . S
C226 C231 1.399 . S
C227 C223 1.404 . S
C227 H228 0.950 . S
C227 C229 1.375 . S
H228 C227 0.950 . S
C229 C227 1.375 . S
C229 C231 1.382 . S
C229 H233 0.950 . S
H230 C225 0.949 . S
C231 C226 1.399 . S
C231 C229 1.382 . S
C231 H232 0.952 . S
H232 C231 0.952 . S
H233 C229 0.950 . S
H234 C252 0.951 . S
H235 C254 0.951 . S
H236 C256 0.950 . S
H237 C257 0.950 . S
H238 C259 0.950 . S
H239 C262 0.950 . S
H240 C263 0.950 . S
H241 C265 0.950 . S
H242 C266 0.950 . S
H243 C267 0.951 . S
H244 C269 0.951 . S
H245 C271 0.950 . S
H246 C272 0.950 . S
H247 C274 0.950 . S
H248 C277 0.950 . S
H249 C278 0.950 . S
H250 C280 0.950 . S
H251 C281 0.950 . S
C252 H234 0.951 . S
C252 C253 1.366 . S
C252 C254 1.388 . S
C253 C252 1.366 . S
C253 C257 1.385 . S
C254 H235 0.951 . S
C254 C252 1.388 . S
C254 C255 1.366 . S
C255 C254 1.366 . S
C255 C256 1.414 . S
C255 C258 1.499 . S
C256 H236 0.950 . S
C256 C255 1.414 . S
C256 C257 1.374 . S
C257 H237 0.950 . S
C257 C253 1.385 . S
C257 C256 1.374 . S
C258 C255 1.499 . S
C258 C259 1.373 . S
C258 C260 1.389 . S
C259 H238 0.950 . S
C259 C258 1.373 . S
C259 C275 1.377 . S
C260 C258 1.389 . S
C260 C261 1.524 . S
C260 C274 1.377 . S
C261 C260 1.524 . S
C261 C262 1.397 . S
C261 C266 1.363 . S
C262 H239 0.950 . S
C262 C261 1.397 . S
C262 C263 1.334 . S
C263 H240 0.950 . S
C263 C262 1.334 . S
C263 C264 1.287 . S
C264 C263 1.287 . S
C264 C265 1.524 . S
C264 H283 0.913 . S
C265 H241 0.950 . S
C265 C264 1.524 . S
C265 C266 1.415 . S
C266 H242 0.950 . S
C266 C261 1.363 . S
C266 C265 1.415 . S
C267 H243 0.951 . S
C267 C268 1.366 . S
C267 C269 1.388 . S
C268 C267 1.366 . S
C268 C272 1.385 . S
C269 H244 0.951 . S
C269 C267 1.388 . S
C269 C270 1.366 . S
C270 C269 1.366 . S
C270 C271 1.414 . S
C270 C273 1.499 . S
C271 H245 0.950 . S
C271 C270 1.414 . S
C271 C272 1.374 . S
C272 H246 0.950 . S
C272 C268 1.385 . S
C272 C271 1.374 . S
C273 C270 1.499 . S
C273 C274 1.373 . S
C273 C275 1.389 . S
C274 H247 0.950 . S
C274 C260 1.377 . S
C274 C273 1.373 . S
C275 C259 1.377 . S
C275 C273 1.389 . S
C275 C276 1.524 . S
C276 C275 1.524 . S
C276 C277 1.397 . S
C276 C281 1.363 . S
C277 H248 0.950 . S
C277 C276 1.397 . S
C277 C278 1.334 . S
C278 H249 0.950 . S
C278 C277 1.334 . S
C278 C279 1.287 . S
C279 C278 1.287 . S
C279 C280 1.524 . S
C279 H282 0.999 . S
C280 H250 0.950 . S
C280 C279 1.524 . S
C280 C281 1.415 . S
C281 H251 0.950 . S
C281 C276 1.363 . S
C281 C280 1.415 . S
H282 C279 0.999 . S
H283 C264 0.913 . S
H284 C302 0.951 . S
H285 C304 0.951 . S
H286 C306 0.950 . S
H287 C307 0.950 . S
H288 C309 0.950 . S
H289 C312 0.950 . S
H290 C313 0.950 . S
H291 C315 0.950 . S
H292 C316 0.950 . S
H293 C317 0.951 . S
H294 C319 0.951 . S
H295 C321 0.950 . S
H296 C322 0.950 . S
H297 C324 0.950 . S
H298 C327 0.950 . S
H299 C328 0.950 . S
H300 C330 0.950 . S
H301 C331 0.950 . S
C302 H284 0.951 . S
C302 C303 1.366 . S
C302 C304 1.388 . S
C303 C302 1.366 . S
C303 C307 1.385 . S
C304 H285 0.951 . S
C304 C302 1.388 . S
C304 C305 1.366 . S
C305 C304 1.366 . S
C305 C306 1.414 . S
C305 C308 1.499 . S
C306 H286 0.950 . S
C306 C305 1.414 . S
C306 C307 1.374 . S
C307 H287 0.950 . S
C307 C303 1.385 . S
C307 C306 1.374 . S
C308 C305 1.499 . S
C308 C309 1.373 . S
C308 C310 1.389 . S
C309 H288 0.950 . S
C309 C308 1.373 . S
C309 C325 1.377 . S
C310 C308 1.389 . S
C310 C311 1.524 . S
C310 C324 1.377 . S
C311 C310 1.524 . S
C311 C312 1.397 . S
C311 C316 1.363 . S
C312 H289 0.950 . S
C312 C311 1.397 . S
C312 C313 1.334 . S
C313 H290 0.950 . S
C313 C312 1.334 . S
C313 C314 1.287 . S
C314 C313 1.287 . S
C314 C315 1.524 . S
C314 H333 0.913 . S
C315 H291 0.950 . S
C315 C314 1.524 . S
C315 C316 1.415 . S
C316 H292 0.950 . S
C316 C311 1.363 . S
C316 C315 1.415 . S
C317 H293 0.951 . S
C317 C318 1.366 . S
C317 C319 1.388 . S
C318 C317 1.366 . S
C318 C322 1.385 . S
C319 H294 0.951 . S
C319 C317 1.388 . S
C319 C320 1.366 . S
C320 C319 1.366 . S
C320 C321 1.414 . S
C320 C323 1.499 . S
C321 H295 0.950 . S
C321 C320 1.414 . S
C321 C322 1.374 . S
C322 H296 0.950 . S
C322 C318 1.385 . S
C322 C321 1.374 . S
C323 C320 1.499 . S
C323 C324 1.373 . S
C323 C325 1.389 . S
C324 H297 0.950 . S
C324 C310 1.377 . S
C324 C323 1.373 . S
C325 C309 1.377 . S
C325 C323 1.389 . S
C325 C326 1.524 . S
C326 C325 1.524 . S
C326 C327 1.397 . S
C326 C331 1.363 . S
C327 H298 0.950 . S
C327 C326 1.397 . S
C327 C328 1.334 . S
C328 H299 0.950 . S
C328 C327 1.334 . S
C328 C329 1.287 . S
C329 C328 1.287 . S
C329 C330 1.524 . S
C329 H332 0.999 . S
C330 H300 0.950 . S
C330 C329 1.524 . S
C330 C331 1.415 . S
C331 H301 0.950 . S
C331 C326 1.363 . S
C331 C330 1.415 . S
H332 C329 0.999 . S
H333 C314 0.913 . S
H334 C352 0.951 . S
H335 C354 0.951 . S
H336 C356 0.950 . S
H337 C357 0.950 . S
H338 C359 0.950 . S
H339 C362 0.950 . S
H340 C363 0.950 . S
H341 C365 0.950 . S
H342 C366 0.950 . S
H343 C367 0.951 . S
H344 C369 0.951 . S
H345 C371 0.950 . S
H346 C372 0.950 . S
H347 C374 0.950 . S
H348 C377 0.950 . S
H349 C378 0.950 . S
H350 C380 0.950 . S
H351 C381 0.950 . S
C352 H334 0.951 . S
C352 C353 1.366 . S
C352 C354 1.388 . S
C353 C352 1.366 . S
C353 C357 1.385 . S
C354 H335 0.951 . S
C354 C352 1.388 . S
C354 C355 1.366 . S
C355 C354 1.366 . S
C355 C356 1.414 . S
C355 C358 1.499 . S
C356 H336 0.950 . S
C356 C355 1.414 . S
C356 C357 1.374 . S
C357 H337 0.950 . S
C357 C353 1.385 . S
C357 C356 1.374 . S
C358 C355 1.499 . S
C358 C359 1.373 . S
C358 C360 1.389 . S
C359 H338 0.950 . S
C359 C358 1.373 . S
C359 C375 1.377 . S
C360 C358 1.389 . S
C360 C361 1.524 . S
C360 C374 1.377 . S
C361 C360 1.524 . S
C361 C362 1.397 . S
C361 C366 1.363 . S
C362 H339 0.950 . S
C362 C361 1.397 . S
C362 C363 1.334 . S
C363 H340 0.950 . S
C363 C362 1.334 . S
C363 C364 1.287 . S
C364 C363 1.287 . S
C364 C365 1.524 . S
C364 H383 0.913 . S
C365 H341 0.950 . S
C365 C364 1.524 . S
C365 C366 1.415 . S
C366 H342 0.950 . S
C366 C361 1.363 . S
C366 C365 1.415 . S
C367 H343 0.951 . S
C367 C368 1.366 . S
C367 C369 1.388 . S
C368 C367 1.366 . S
C368 C372 1.385 . S
C369 H344 0.951 . S
C369 C367 1.388 . S
C369 C370 1.366 . S
C370 C369 1.366 . S
C370 C371 1.414 . S
C370 C373 1.499 . S
C371 H345 0.950 . S
C371 C370 1.414 . S
C371 C372 1.374 . S
C372 H346 0.950 . S
C372 C368 1.385 . S
C372 C371 1.374 . S
C373 C370 1.499 . S
C373 C374 1.373 . S
C373 C375 1.389 . S
C374 H347 0.950 . S
C374 C360 1.377 . S
C374 C373 1.373 . S
C375 C359 1.377 . S
C375 C373 1.389 . S
C375 C376 1.524 . S
C376 C375 1.524 . S
C376 C377 1.397 . S
C376 C381 1.363 . S
C377 H348 0.950 . S
C377 C376 1.397 . S
C377 C378 1.334 . S
C378 H349 0.950 . S
C378 C377 1.334 . S
C378 C379 1.287 . S
C379 C378 1.287 . S
C379 C380 1.524 . S
C379 H382 0.999 . S
C380 H350 0.950 . S
C380 C379 1.524 . S
C380 C381 1.415 . S
C381 H351 0.950 . S
C381 C376 1.363 . S
C381 C380 1.415 . S
H382 C379 0.999 . S
H383 C364 0.913 . S
H384 C402 0.951 . S
H385 C404 0.951 . S
H386 C406 0.950 . S
H387 C407 0.950 . S
H388 C409 0.950 . S
H389 C412 0.950 . S
H390 C413 0.950 . S
H391 C415 0.950 . S
H392 C416 0.950 . S
H393 C417 0.951 . S
H394 C419 0.951 . S
H395 C421 0.950 . S
H396 C422 0.950 . S
H397 C424 0.950 . S
H398 C427 0.950 . S
H399 C428 0.950 . S
H400 C430 0.950 . S
H401 C431 0.950 . S
C402 H384 0.951 . S
C402 C403 1.366 . S
C402 C404 1.388 . S
C403 C402 1.366 . S
C403 C407 1.385 . S
C404 H385 0.951 . S
C404 C402 1.388 . S
C404 C405 1.366 . S
C405 C404 1.366 . S
C405 C406 1.414 . S
C405 C408 1.499 . S
C406 H386 0.950 . S
C406 C405 1.414 . S
C406 C407 1.374 . S
C407 H387 0.950 . S
C407 C403 1.385 . S
C407 C406 1.374 . S
C408 C405 1.499 . S
C408 C409 1.373 . S
C408 C410 1.389 . S
C409 H388 0.950 . S
C409 C408 1.373 . S
C409 C425 1.377 . S
C410 C408 1.389 . S
C410 C411 1.524 . S
C410 C424 1.377 . S
C411 C410 1.524 . S
C411 C412 1.397 . S
C411 C416 1.363 . S
C412 H389 0.950 . S
C412 C411 1.397 . S
C412 C413 1.334 . S
C413 H390 0.950 . S
C413 C412 1.334 . S
C413 C414 1.287 . S
C414 C413 1.287 . S
C414 C415 1.524 . S
C414 H433 0.913 . S
C415 H391 0.950 . S
C415 C414 1.524 . S
C415 C416 1.415 . S
C416 H392 0.950 . S
C416 C411 1.363 . S
C416 C415 1.415 . S
C417 H393 0.951 . S
C417 C418 1.366 . S
C417 C419 1.388 . S
C418 C417 1.366 . S
C418 C422 1.385 . S
C419 H394 0.951 . S
C419 C417 1.388 . S
C419 C420 1.366 . S
C420 C419 1.366 . S
C420 C421 1.414 . S
C420 C423 1.499 . S
C421 H395 0.950 . S
C421 C420 1.414 . S
C421 C422 1.374 . S
C422 H396 0.950 . S
C422 C418 1.385 . S
C422 C421 1.374 . S
C423 C420 1.499 . S
C423 C424 1.373 . S
C423 C425 1.389 . S
C424 H397 0.950 . S
C424 C410 1.377 . S
C424 C423 1.373 . S
C425 C409 1.377 . S
C425 C423 1.389 . S
C425 C426 1.524 . S
C426 C425 1.524 . S
C426 C427 1.397 . S
C426 C431 1.363 . S
C427 H398 0.950 . S
C427 C426 1.397 . S
C427 C428 1.334 . S
C428 H399 0.950 . S
C428 C427 1.334 . S
C428 C429 1.287 . S
C429 C428 1.287 . S
C429 C430 1.524 . S
C429 H432 0.999 . S
C430 H400 0.950 . S
C430 C429 1.524 . S
C430 C431 1.415 . S
C431 H401 0.950 . S
C431 C426 1.363 . S
C431 C430 1.415 . S
H432 C429 0.999 . S
H433 C414 0.913 . S
H434 C452 0.951 . S
H435 C454 0.951 . S
H436 C456 0.950 . S
H437 C457 0.950 . S
H438 C459 0.950 . S
H439 C462 0.950 . S
H440 C463 0.950 . S
H441 C465 0.950 . S
H442 C466 0.950 . S
H443 C467 0.951 . S
H444 C469 0.951 . S
H445 C471 0.950 . S
H446 C472 0.950 . S
H447 C474 0.950 . S
H448 C477 0.950 . S
H449 C478 0.950 . S
H450 C480 0.950 . S
H451 C481 0.950 . S
C452 H434 0.951 . S
C452 C453 1.366 . S
C452 C454 1.388 . S
C453 C452 1.366 . S
C453 C457 1.385 . S
C454 H435 0.951 . S
C454 C452 1.388 . S
C454 C455 1.366 . S
C455 C454 1.366 . S
C455 C456 1.414 . S
C455 C458 1.499 . S
C456 H436 0.950 . S
C456 C455 1.414 . S
C456 C457 1.374 . S
C457 H437 0.950 . S
C457 C453 1.385 . S
C457 C456 1.374 . S
C458 C455 1.499 . S
C458 C459 1.373 . S
C458 C460 1.389 . S
C459 H438 0.950 . S
C459 C458 1.373 . S
C459 C475 1.377 . S
C460 C458 1.389 . S
C460 C461 1.524 . S
C460 C474 1.377 . S
C461 C460 1.524 . S
C461 C462 1.397 . S
C461 C466 1.363 . S
C462 H439 0.950 . S
C462 C461 1.397 . S
C462 C463 1.334 . S
C463 H440 0.950 . S
C463 C462 1.334 . S
C463 C464 1.287 . S
C464 C463 1.287 . S
C464 C465 1.524 . S
C464 H483 0.913 . S
C465 H441 0.950 . S
C465 C464 1.524 . S
C465 C466 1.415 . S
C466 H442 0.950 . S
C466 C461 1.363 . S
C466 C465 1.415 . S
C467 H443 0.951 . S
C467 C468 1.366 . S
C467 C469 1.388 . S
C468 C467 1.366 . S
C468 C472 1.385 . S
C469 H444 0.951 . S
C469 C467 1.388 . S
C469 C470 1.366 . S
C470 C469 1.366 . S
C470 C471 1.414 . S
C470 C473 1.499 . S
C471 H445 0.950 . S
C471 C470 1.414 . S
C471 C472 1.374 . S
C472 H446 0.950 . S
C472 C468 1.385 . S
C472 C471 1.374 . S
C473 C470 1.499 . S
C473 C474 1.373 . S
C473 C475 1.389 . S
C474 H447 0.950 . S
C474 C460 1.377 . S
C474 C473 1.373 . S
C475 C459 1.377 . S
C475 C473 1.389 . S
C475 C476 1.524 . S
C476 C475 1.524 . S
C476 C477 1.397 . S
C476 C481 1.363 . S
C477 H448 0.950 . S
C477 C476 1.397 . S
C477 C478 1.334 . S
C478 H449 0.950 . S
C478 C477 1.334 . S
C478 C479 1.287 . S
C479 C478 1.287 . S
C479 C480 1.524 . S
C479 H482 0.999 . S
C480 H450 0.950 . S
C480 C479 1.524 . S
C480 C481 1.415 . S
C481 H451 0.950 . S
C481 C476 1.363 . S
C481 C480 1.415 . S
H482 C479 0.999 . S
H483 C464 0.913 . S
H484 C502 0.951 . S
H485 C504 0.951 . S
H486 C506 0.950 . S
H487 C507 0.950 . S
H488 C509 0.950 . S
H489 C512 0.950 . S
H490 C513 0.950 . S
H491 C515 0.950 . S
H492 C516 0.950 . S
H493 C517 0.951 . S
H494 C519 0.951 . S
H495 C521 0.950 . S
H496 C522 0.950 . S
H497 C524 0.950 . S
H498 C527 0.950 . S
H499 C528 0.950 . S
H500 C530 0.950 . S
H501 C531 0.950 . S
C502 H484 0.951 . S
C502 C503 1.366 . S
C502 C504 1.388 . S
C503 C502 1.366 . S
C503 C507 1.385 . S
C504 H485 0.951 . S
C504 C502 1.388 . S
C504 C505 1.366 . S
C505 C504 1.366 . S
C505 C506 1.414 . S
C505 C508 1.499 . S
C506 H486 0.950 . S
C506 C505 1.414 . S
C506 C507 1.374 . S
C507 H487 0.950 . S
C507 C503 1.385 . S
C507 C506 1.374 . S
C508 C505 1.499 . S
C508 C509 1.373 . S
C508 C510 1.389 . S
C509 H488 0.950 . S
C509 C508 1.373 . S
C509 C525 1.377 . S
C510 C508 1.389 . S
C510 C511 1.524 . S
C510 C524 1.377 . S
C511 C510 1.524 . S
C511 C512 1.397 . S
C511 C516 1.363 . S
C512 H489 0.950 . S
C512 C511 1.397 . S
C512 C513 1.334 . S
C513 H490 0.950 . S
C513 C512 1.334 . S
C513 C514 1.287 . S
C514 C513 1.287 . S
C514 C515 1.524 . S
C514 H533 0.913 . S
C515 H491 0.950 . S
C515 C514 1.524 . S
C515 C516 1.415 . S
C516 H492 0.950 . S
C516 C511 1.363 . S
C516 C515 1.415 . S
C517 H493 0.951 . S
C517 C518 1.366 . S
C517 C519 1.388 . S
C518 C517 1.366 . S
C518 C522 1.385 . S
C519 H494 0.951 . S
C519 C517 1.388 . S
C519 C520 1.366 . S
C520 C519 1.366 . S
C520 C521 1.414 . S
C520 C523 1.499 . S
C521 H495 0.950 . S
C521 C520 1.414 . S
C521 C522 1.374 . S
C522 H496 0.950 . S
C522 C518 1.385 . S
C522 C521 1.374 . S
C523 C520 1.499 . S
C523 C524 1.373 . S
C523 C525 1.389 . S
C524 H497 0.950 . S
C524 C510 1.377 . S
C524 C523 1.373 . S
C525 C509 1.377 . S
C525 C523 1.389 . S
C525 C526 1.524 . S
C526 C525 1.524 . S
C526 C527 1.397 . S
C526 C531 1.363 . S
C527 H498 0.950 . S
C527 C526 1.397 . S
C527 C528 1.334 . S
C528 H499 0.950 . S
C528 C527 1.334 . S
C528 C529 1.287 . S
C529 C528 1.287 . S
C529 C530 1.524 . S
C529 H532 0.999 . S
C530 H500 0.950 . S
C530 C529 1.524 . S
C530 C531 1.415 . S
C531 H501 0.950 . S
C531 C526 1.363 . S
C531 C530 1.415 . S
H532 C529 0.999 . S
H533 C514 0.913 . S
H534 C552 0.951 . S
H535 C554 0.951 . S
H536 C556 0.950 . S
H537 C557 0.950 . S
H538 C559 0.950 . S
H539 C562 0.950 . S
H540 C563 0.950 . S
H541 C565 0.950 . S
H542 C566 0.950 . S
H543 C567 0.951 . S
H544 C569 0.951 . S
H545 C571 0.950 . S
H546 C572 0.950 . S
H547 C574 0.950 . S
H548 C577 0.950 . S
H549 C578 0.950 . S
H550 C580 0.950 . S
H551 C581 0.950 . S
C552 H534 0.951 . S
C552 C553 1.366 . S
C552 C554 1.388 . S
C553 C552 1.366 . S
C553 C557 1.385 . S
C554 H535 0.951 . S
C554 C552 1.388 . S
C554 C555 1.366 . S
C555 C554 1.366 . S
C555 C556 1.414 . S
C555 C558 1.499 . S
C556 H536 0.950 . S
C556 C555 1.414 . S
C556 C557 1.374 . S
C557 H537 0.950 . S
C557 C553 1.385 . S
C557 C556 1.374 . S
C558 C555 1.499 . S
C558 C559 1.373 . S
C558 C560 1.389 . S
C559 H538 0.950 . S
C559 C558 1.373 . S
C559 C575 1.377 . S
C560 C558 1.389 . S
C560 C561 1.524 . S
C560 C574 1.377 . S
C561 C560 1.524 . S
C561 C562 1.397 . S
C561 C566 1.363 . S
C562 H539 0.950 . S
C562 C561 1.397 . S
C562 C563 1.334 . S
C563 H540 0.950 . S
C563 C562 1.334 . S
C563 C564 1.287 . S
C564 C563 1.287 . S
C564 C565 1.524 . S
C564 H583 0.913 . S
C565 H541 0.950 . S
C565 C564 1.524 . S
C565 C566 1.415 . S
C566 H542 0.950 . S
C566 C561 1.363 . S
C566 C565 1.415 . S
C567 H543 0.951 . S
C567 C568 1.366 . S
C567 C569 1.388 . S
C568 C567 1.366 . S
C568 C572 1.385 . S
C569 H544 0.951 . S
C569 C567 1.388 . S
C569 C570 1.366 . S
C570 C569 1.366 . S
C570 C571 1.414 . S
C570 C573 1.499 . S
C571 H545 0.950 . S
C571 C570 1.414 . S
C571 C572 1.374 . S
C572 H546 0.950 . S
C572 C568 1.385 . S
C572 C571 1.374 . S
C573 C570 1.499 . S
C573 C574 1.373 . S
C573 C575 1.389 . S
C574 H547 0.950 . S
C574 C560 1.377 . S
C574 C573 1.373 . S
C575 C559 1.377 . S
C575 C573 1.389 . S
C575 C576 1.524 . S
C576 C575 1.524 . S
C576 C577 1.397 . S
C576 C581 1.363 . S
C577 H548 0.950 . S
C577 C576 1.397 . S
C577 C578 1.334 . S
C578 H549 0.950 . S
C578 C577 1.334 . S
C578 C579 1.287 . S
C579 C578 1.287 . S
C579 C580 1.524 . S
C579 H582 0.999 . S
C580 H550 0.950 . S
C580 C579 1.524 . S
C580 C581 1.415 . S
C581 H551 0.950 . S
C581 C576 1.363 . S
C581 C580 1.415 . S
H582 C579 0.999 . S
H583 C564 0.913 . S
H584 C602 0.951 . S
H585 C604 0.951 . S
H586 C606 0.950 . S
H587 C607 0.950 . S
H588 C609 0.950 . S
H589 C612 0.950 . S
H590 C613 0.950 . S
H591 C615 0.950 . S
H592 C616 0.950 . S
H593 C617 0.951 . S
H594 C619 0.951 . S
H595 C621 0.950 . S
H596 C622 0.950 . S
H597 C624 0.950 . S
H598 C627 0.950 . S
H599 C628 0.950 . S
H600 C630 0.950 . S
H601 C631 0.950 . S
C602 H584 0.951 . S
C602 C603 1.366 . S
C602 C604 1.388 . S
C603 C602 1.366 . S
C603 C607 1.385 . S
C604 H585 0.951 . S
C604 C602 1.388 . S
C604 C605 1.366 . S
C605 C604 1.366 . S
C605 C606 1.414 . S
C605 C608 1.499 . S
C606 H586 0.950 . S
C606 C605 1.414 . S
C606 C607 1.374 . S
C607 H587 0.950 . S
C607 C603 1.385 . S
C607 C606 1.374 . S
C608 C605 1.499 . S
C608 C609 1.373 . S
C608 C610 1.389 . S
C609 H588 0.950 . S
C609 C608 1.373 . S
C609 C625 1.377 . S
C610 C608 1.389 . S
C610 C611 1.524 . S
C610 C624 1.377 . S
C611 C610 1.524 . S
C611 C612 1.397 . S
C611 C616 1.363 . S
C612 H589 0.950 . S
C612 C611 1.397 . S
C612 C613 1.334 . S
C613 H590 0.950 . S
C613 C612 1.334 . S
C613 C614 1.287 . S
C614 C613 1.287 . S
C614 C615 1.524 . S
C614 H633 0.913 . S
C615 H591 0.950 . S
C615 C614 1.524 . S
C615 C616 1.415 . S
C616 H592 0.950 . S
C616 C611 1.363 . S
C616 C615 1.415 . S
C617 H593 0.951 . S
C617 C618 1.366 . S
C617 C619 1.388 . S
C618 C617 1.366 . S
C618 C622 1.385 . S
C619 H594 0.951 . S
C619 C617 1.388 . S
C619 C620 1.366 . S
C620 C619 1.366 . S
C620 C621 1.414 . S
C620 C623 1.499 . S
C621 H595 0.950 . S
C621 C620 1.414 . S
C621 C622 1.374 . S
C622 H596 0.950 . S
C622 C618 1.385 . S
C622 C621 1.374 . S
C623 C620 1.499 . S
C623 C624 1.373 . S
C623 C625 1.389 . S
C624 H597 0.950 . S
C624 C610 1.377 . S
C624 C623 1.373 . S
C625 C609 1.377 . S
C625 C623 1.389 . S
C625 C626 1.524 . S
C626 C625 1.524 . S
C626 C627 1.397 . S
C626 C631 1.363 . S
C627 H598 0.950 . S
C627 C626 1.397 . S
C627 C628 1.334 . S
C628 H599 0.950 . S
C628 C627 1.334 . S
C628 C629 1.287 . S
C629 C628 1.287 . S
C629 C630 1.524 . S
C629 H632 0.999 1_655 S
C630 H600 0.950 . S
C630 C629 1.524 . S
C630 C631 1.415 . S
C631 H601 0.950 . S
C631 C626 1.363 . S
C631 C630 1.415 . S
H632 C629 0.999 1_455 S
H633 C614 0.913 . S
H634 C652 0.951 . S
H635 C654 0.951 . S
H636 C656 0.950 . S
H637 C657 0.950 . S
H638 C659 0.950 . S
H639 C662 0.950 . S
H640 C663 0.950 . S
H641 C665 0.950 . S
H642 C666 0.950 . S
H643 C667 0.951 . S
H644 C669 0.951 . S
H645 C671 0.950 . S
H646 C672 0.950 . S
H647 C674 0.950 . S
H648 C677 0.950 . S
H649 C678 0.950 . S
H650 C680 0.950 . S
H651 C681 0.950 . S
C652 H634 0.951 . S
C652 C653 1.366 . S
C652 C654 1.388 . S
C653 C652 1.366 . S
C653 C657 1.385 . S
C654 H635 0.951 . S
C654 C652 1.388 . S
C654 C655 1.366 . S
C655 C654 1.366 . S
C655 C656 1.414 . S
C655 C658 1.499 . S
C656 H636 0.950 . S
C656 C655 1.414 . S
C656 C657 1.374 . S
C657 H637 0.950 . S
C657 C653 1.385 . S
C657 C656 1.374 . S
C658 C655 1.499 . S
C658 C659 1.373 . S
C658 C660 1.389 . S
C659 H638 0.950 . S
C659 C658 1.373 . S
C659 C675 1.377 . S
C660 C658 1.389 . S
C660 C661 1.524 . S
C660 C674 1.377 . S
C661 C660 1.524 . S
C661 C662 1.397 . S
C661 C666 1.363 . S
C662 H639 0.950 . S
C662 C661 1.397 . S
C662 C663 1.334 . S
C663 H640 0.950 . S
C663 C662 1.334 . S
C663 C664 1.287 . S
C664 C663 1.287 . S
C664 C665 1.524 . S
C664 H683 0.913 . S
C665 H641 0.950 . S
C665 C664 1.524 . S
C665 C666 1.415 . S
C666 H642 0.950 . S
C666 C661 1.363 . S
C666 C665 1.415 . S
C667 H643 0.951 . S
C667 C668 1.366 . S
C667 C669 1.388 . S
C668 C667 1.366 . S
C668 C672 1.385 . S
C669 H644 0.951 . S
C669 C667 1.388 . S
C669 C670 1.366 . S
C670 C669 1.366 . S
C670 C671 1.414 . S
C670 C673 1.499 . S
C671 H645 0.950 . S
C671 C670 1.414 . S
C671 C672 1.374 . S
C672 H646 0.950 . S
C672 C668 1.385 . S
C672 C671 1.374 . S
C673 C670 1.499 . S
C673 C674 1.373 . S
C673 C675 1.389 . S
C674 H647 0.950 . S
C674 C660 1.377 . S
C674 C673 1.373 . S
C675 C659 1.377 . S
C675 C673 1.389 . S
C675 C676 1.524 . S
C676 C675 1.524 . S
C676 C677 1.397 . S
C676 C681 1.363 . S
C677 H648 0.950 . S
C677 C676 1.397 . S
C677 C678 1.334 . S
C678 H649 0.950 . S
C678 C677 1.334 . S
C678 C679 1.287 . S
C679 C678 1.287 . S
C679 C680 1.524 . S
C679 H682 0.999 . S
C680 H650 0.950 . S
C680 C679 1.524 . S
C680 C681 1.415 . S
C681 H651 0.950 . S
C681 C676 1.363 . S
C681 C680 1.415 . S
H682 C679 0.999 . S
H683 C664 0.913 . S
H684 C702 0.951 . S
H685 C704 0.951 . S
H686 C706 0.950 . S
H687 C707 0.950 . S
H688 C709 0.950 . S
H689 C712 0.950 . S
H690 C713 0.950 . S
H691 C715 0.950 . S
H692 C716 0.950 . S
H693 C717 0.951 . S
H694 C719 0.951 . S
H695 C721 0.950 . S
H696 C722 0.950 . S
H697 C724 0.950 . S
H698 C727 0.950 . S
H699 C728 0.950 . S
H700 C730 0.950 . S
H701 C731 0.950 . S
C702 H684 0.951 . S
C702 C703 1.366 . S
C702 C704 1.388 . S
C703 C702 1.366 . S
C703 C707 1.385 . S
C704 H685 0.951 . S
C704 C702 1.388 . S
C704 C705 1.366 . S
C705 C704 1.366 . S
C705 C706 1.414 . S
C705 C708 1.499 . S
C706 H686 0.950 . S
C706 C705 1.414 . S
C706 C707 1.374 . S
C707 H687 0.950 . S
C707 C703 1.385 . S
C707 C706 1.374 . S
C708 C705 1.499 . S
C708 C709 1.373 . S
C708 C710 1.389 . S
C709 H688 0.950 . S
C709 C708 1.373 . S
C709 C725 1.377 . S
C710 C708 1.389 . S
C710 C711 1.524 . S
C710 C724 1.377 . S
C711 C710 1.524 . S
C711 C712 1.397 . S
C711 C716 1.363 . S
C712 H689 0.950 . S
C712 C711 1.397 . S
C712 C713 1.334 . S
C713 H690 0.950 . S
C713 C712 1.334 . S
C713 C714 1.287 . S
C714 C713 1.287 . S
C714 C715 1.524 . S
C714 H733 0.913 . S
C715 H691 0.950 . S
C715 C714 1.524 . S
C715 C716 1.415 . S
C716 H692 0.950 . S
C716 C711 1.363 . S
C716 C715 1.415 . S
C717 H693 0.951 . S
C717 C718 1.366 . S
C717 C719 1.388 . S
C718 C717 1.366 . S
C718 C722 1.385 . S
C719 H694 0.951 . S
C719 C717 1.388 . S
C719 C720 1.366 . S
C720 C719 1.366 . S
C720 C721 1.414 . S
C720 C723 1.499 . S
C721 H695 0.950 . S
C721 C720 1.414 . S
C721 C722 1.374 . S
C722 H696 0.950 . S
C722 C718 1.385 . S
C722 C721 1.374 . S
C723 C720 1.499 . S
C723 C724 1.373 . S
C723 C725 1.389 . S
C724 H697 0.950 . S
C724 C710 1.377 . S
C724 C723 1.373 . S
C725 C709 1.377 . S
C725 C723 1.389 . S
C725 C726 1.524 . S
C726 C725 1.524 . S
C726 C727 1.397 . S
C726 C731 1.363 . S
C727 H698 0.950 . S
C727 C726 1.397 . S
C727 C728 1.334 . S
C728 H699 0.950 . S
C728 C727 1.334 . S
C728 C729 1.287 . S
C729 C728 1.287 . S
C729 C730 1.524 . S
C729 H732 0.999 . S
C730 H700 0.950 . S
C730 C729 1.524 . S
C730 C731 1.415 . S
C731 H701 0.950 . S
C731 C726 1.363 . S
C731 C730 1.415 . S
H732 C729 0.999 . S
H733 C714 0.913 . S
H734 C752 0.951 . S
H735 C754 0.951 . S
H736 C756 0.950 . S
H737 C757 0.950 . S
H738 C759 0.950 . S
H739 C762 0.950 . S
H740 C763 0.950 . S
H741 C765 0.950 . S
H742 C766 0.950 . S
H743 C767 0.951 . S
H744 C769 0.951 . S
H745 C771 0.950 . S
H746 C772 0.950 . S
H747 C774 0.950 . S
H748 C777 0.950 . S
H749 C778 0.950 . S
H750 C780 0.950 . S
H751 C781 0.950 . S
C752 H734 0.951 . S
C752 C753 1.366 . S
C752 C754 1.388 . S
C753 C752 1.366 . S
C753 C757 1.385 . S
C754 H735 0.951 . S
C754 C752 1.388 . S
C754 C755 1.366 . S
C755 C754 1.366 . S
C755 C756 1.414 . S
C755 C758 1.499 . S
C756 H736 0.950 . S
C756 C755 1.414 . S
C756 C757 1.374 . S
C757 H737 0.950 . S
C757 C753 1.385 . S
C757 C756 1.374 . S
C758 C755 1.499 . S
C758 C759 1.373 . S
C758 C760 1.389 . S
C759 H738 0.950 . S
C759 C758 1.373 . S
C759 C775 1.377 . S
C760 C758 1.389 . S
C760 C761 1.524 . S
C760 C774 1.377 . S
C761 C760 1.524 . S
C761 C762 1.397 . S
C761 C766 1.363 . S
C762 H739 0.950 . S
C762 C761 1.397 . S
C762 C763 1.334 . S
C763 H740 0.950 . S
C763 C762 1.334 . S
C763 C764 1.287 . S
C764 C763 1.287 . S
C764 C765 1.524 . S
C764 H783 0.913 . S
C765 H741 0.950 . S
C765 C764 1.524 . S
C765 C766 1.415 . S
C766 H742 0.950 . S
C766 C761 1.363 . S
C766 C765 1.415 . S
C767 H743 0.951 . S
C767 C768 1.366 . S
C767 C769 1.388 . S
C768 C767 1.366 . S
C768 C772 1.385 . S
C769 H744 0.951 . S
C769 C767 1.388 . S
C769 C770 1.366 . S
C770 C769 1.366 . S
C770 C771 1.414 . S
C770 C773 1.499 . S
C771 H745 0.950 . S
C771 C770 1.414 . S
C771 C772 1.374 . S
C772 H746 0.950 . S
C772 C768 1.385 . S
C772 C771 1.374 . S
C773 C770 1.499 . S
C773 C774 1.373 . S
C773 C775 1.389 . S
C774 H747 0.950 . S
C774 C760 1.377 . S
C774 C773 1.373 . S
C775 C759 1.377 . S
C775 C773 1.389 . S
C775 C776 1.524 . S
C776 C775 1.524 . S
C776 C777 1.397 . S
C776 C781 1.363 . S
C777 H748 0.950 . S
C777 C776 1.397 . S
C777 C778 1.334 . S
C778 H749 0.950 . S
C778 C777 1.334 . S
C778 C779 1.287 . S
C779 C778 1.287 . S
C779 C780 1.524 . S
C779 H782 0.999 . S
C780 H750 0.950 . S
C780 C779 1.524 . S
C780 C781 1.415 . S
C781 H751 0.950 . S
C781 C776 1.363 . S
C781 C780 1.415 . S
H782 C779 0.999 . S
H783 C764 0.913 . S
H784 C802 0.951 . S
H785 C804 0.951 . S
H786 C806 0.950 . S
H787 C807 0.950 . S
H788 C809 0.950 . S
H789 C812 0.950 . S
H790 C813 0.950 . S
H791 C815 0.950 . S
H792 C816 0.950 . S
H793 C817 0.951 . S
H794 C819 0.951 . S
H795 C821 0.950 . S
H796 C822 0.950 . S
H797 C824 0.950 . S
H798 C827 0.950 . S
H799 C828 0.950 . S
H800 C830 0.950 . S
H801 C831 0.950 . S
C802 H784 0.951 . S
C802 C803 1.366 . S
C802 C804 1.388 . S
C803 C802 1.366 . S
C803 C807 1.385 . S
C804 H785 0.951 . S
C804 C802 1.388 . S
C804 C805 1.366 . S
C805 C804 1.366 . S
C805 C806 1.414 . S
C805 C808 1.499 . S
C806 H786 0.950 . S
C806 C805 1.414 . S
C806 C807 1.374 . S
C807 H787 0.950 . S
C807 C803 1.385 . S
C807 C806 1.374 . S
C808 C805 1.499 . S
C808 C809 1.373 . S
C808 C810 1.389 . S
C809 H788 0.950 . S
C809 C808 1.373 . S
C809 C825 1.377 . S
C810 C808 1.389 . S
C810 C811 1.524 . S
C810 C824 1.377 . S
C811 C810 1.524 . S
C811 C812 1.397 . S
C811 C816 1.363 . S
C812 H789 0.950 . S
C812 C811 1.397 . S
C812 C813 1.334 . S
C813 H790 0.950 . S
C813 C812 1.334 . S
C813 C814 1.287 . S
C814 C813 1.287 . S
C814 C815 1.524 . S
C814 H833 0.913 . S
C815 H791 0.950 . S
C815 C814 1.524 . S
C815 C816 1.415 . S
C816 H792 0.950 . S
C816 C811 1.363 . S
C816 C815 1.415 . S
C817 H793 0.951 . S
C817 C818 1.366 . S
C817 C819 1.388 . S
C818 C817 1.366 . S
C818 C822 1.385 . S
C819 H794 0.951 . S
C819 C817 1.388 . S
C819 C820 1.366 . S
C820 C819 1.366 . S
C820 C821 1.414 . S
C820 C823 1.499 . S
C821 H795 0.950 . S
C821 C820 1.414 . S
C821 C822 1.374 . S
C822 H796 0.950 . S
C822 C818 1.385 . S
C822 C821 1.374 . S
C823 C820 1.499 . S
C823 C824 1.373 . S
C823 C825 1.389 . S
C824 H797 0.950 . S
C824 C810 1.377 . S
C824 C823 1.373 . S
C825 C809 1.377 . S
C825 C823 1.389 . S
C825 C826 1.524 . S
C826 C825 1.524 . S
C826 C827 1.397 . S
C826 C831 1.363 . S
C827 H798 0.950 . S
C827 C826 1.397 . S
C827 C828 1.334 . S
C828 H799 0.950 . S
C828 C827 1.334 . S
C828 C829 1.287 . S
C829 C828 1.287 . S
C829 C830 1.524 . S
C829 H832 0.999 . S
C830 H800 0.950 . S
C830 C829 1.524 . S
C830 C831 1.415 . S
C831 H801 0.950 . S
C831 C826 1.363 . S
C831 C830 1.415 . S
H832 C829 0.999 . S
H833 C814 0.913 . S
H834 C852 0.951 . S
H835 C854 0.951 . S
H836 C856 0.950 . S
H837 C857 0.950 . S
H838 C859 0.950 . S
H839 C862 0.950 . S
H840 C863 0.950 . S
H841 C865 0.950 . S
H842 C866 0.950 . S
H843 C867 0.951 . S
H844 C869 0.951 . S
H845 C871 0.950 . S
H846 C872 0.950 . S
H847 C874 0.969 . S
H848 C877 0.950 . S
H849 C878 0.950 . S
H850 C880 0.950 . S
H851 C881 0.950 . S
C852 H834 0.951 . S
C852 C853 1.366 . S
C852 C854 1.388 . S
C853 C852 1.366 . S
C853 C857 1.385 . S
C854 H835 0.951 . S
C854 C852 1.388 . S
C854 C855 1.366 . S
C855 C854 1.366 . S
C855 C856 1.414 . S
C855 C858 1.499 . S
C856 H836 0.950 . S
C856 C855 1.414 . S
C856 C857 1.374 . S
C857 H837 0.950 . S
C857 C853 1.385 . S
C857 C856 1.374 . S
C858 C855 1.499 . S
C858 C859 1.373 . S
C858 C860 1.389 . S
C859 H838 0.950 . S
C859 C858 1.373 . S
C859 C875 1.377 1_554 S
C860 C858 1.389 . S
C860 C861 1.524 . S
C860 C874 1.377 . S
C861 C860 1.524 . S
C861 C862 1.397 . S
C861 C866 1.363 . S
C862 H839 0.950 . S
C862 C861 1.397 . S
C862 C863 1.334 . S
C863 H840 0.950 . S
C863 C862 1.334 . S
C863 C864 1.287 . S
C864 C863 1.287 . S
C864 C865 1.524 . S
C864 H883 0.913 . S
C865 H841 0.950 . S
C865 C864 1.524 . S
C865 C866 1.415 . S
C866 H842 0.950 . S
C866 C861 1.363 . S
C866 C865 1.415 . S
C867 H843 0.951 . S
C867 C868 1.366 . S
C867 C869 1.388 . S
C868 C867 1.366 . S
C868 C872 1.385 . S
C869 H844 0.951 . S
C869 C867 1.388 . S
C869 C870 1.366 . S
C870 C869 1.366 . S
C870 C871 1.414 . S
C870 C873 1.499 . S
C871 H845 0.950 . S
C871 C870 1.414 . S
C871 C872 1.374 . S
C872 H846 0.950 . S
C872 C868 1.385 . S
C872 C871 1.374 . S
C873 C870 1.499 . S
C873 C874 1.373 1_556 S
C873 C875 1.389 . S
C874 H847 0.969 . S
C874 C860 1.377 . S
C874 C873 1.373 1_554 S
C875 C859 1.377 1_556 S
C875 C873 1.389 . S
C875 C876 1.524 1_455 S
C876 C875 1.524 1_655 S
C876 C877 1.397 . S
C876 C881 1.363 . S
C877 H848 0.950 . S
C877 C876 1.397 . S
C877 C878 1.334 . S
C878 H849 0.950 . S
C878 C877 1.334 . S
C878 C879 1.287 . S
C879 C878 1.287 . S
C879 C880 1.524 . S
C879 H882 0.999 . S
C880 H850 0.950 . S
C880 C879 1.524 . S
C880 C881 1.415 . S
C881 H851 0.950 . S
C881 C876 1.363 . S
C881 C880 1.415 . S
H882 C879 0.999 . S
H883 C864 0.913 . S
H884 C902 0.951 . S
H885 C904 0.951 . S
H886 C906 0.950 . S
H887 C907 0.950 . S
H888 C909 0.950 . S
H889 C912 0.950 . S
H890 C913 0.950 . S
H891 C915 0.950 . S
H892 C916 0.950 . S
H893 C917 0.951 . S
H894 C919 0.951 . S
H895 C921 0.950 . S
H896 C922 0.950 . S
H897 C924 0.950 . S
H898 C927 0.950 . S
H899 C928 0.950 . S
H900 C930 0.950 . S
H901 C931 0.950 . S
C902 H884 0.951 . S
C902 C903 1.366 . S
C902 C904 1.388 . S
C903 C902 1.366 . S
C903 C907 1.385 . S
C904 H885 0.951 . S
C904 C902 1.388 . S
C904 C905 1.366 . S
C905 C904 1.366 . S
C905 C906 1.414 . S
C905 C908 1.499 . S
C906 H886 0.950 . S
C906 C905 1.414 . S
C906 C907 1.374 . S
C907 H887 0.950 . S
C907 C903 1.385 . S
C907 C906 1.374 . S
C908 C905 1.499 . S
C908 C909 1.373 . S
C908 C910 1.389 . S
C909 H888 0.950 . S
C909 C908 1.373 . S
C909 C925 1.377 . S
C910 C908 1.389 . S
C910 C911 1.524 1_545 S
C910 C924 1.377 . S
C911 C910 1.524 1_565 S
C911 C912 1.397 . S
C911 C916 1.363 . S
C912 H889 0.950 . S
C912 C911 1.397 . S
C912 C913 1.334 . S
C913 H890 0.950 . S
C913 C912 1.334 . S
C913 C914 1.287 . S
C914 C913 1.287 . S
C914 C915 1.524 . S
C914 H933 0.913 . S
C915 H891 0.950 . S
C915 C914 1.524 . S
C915 C916 1.415 . S
C916 H892 0.950 . S
C916 C911 1.363 . S
C916 C915 1.415 . S
C917 H893 0.951 . S
C917 C918 1.366 . S
C917 C919 1.388 . S
C918 C917 1.366 . S
C918 C922 1.385 . S
C919 H894 0.951 . S
C919 C917 1.388 . S
C919 C920 1.366 . S
C920 C919 1.366 . S
C920 C921 1.414 . S
C920 C923 1.499 . S
C921 H895 0.950 . S
C921 C920 1.414 . S
C921 C922 1.374 . S
C922 H896 0.950 . S
C922 C918 1.385 . S
C922 C921 1.374 . S
C923 C920 1.499 . S
C923 C924 1.373 . S
C923 C925 1.389 . S
C924 H897 0.950 . S
C924 C910 1.377 . S
C924 C923 1.373 . S
C925 C909 1.377 . S
C925 C923 1.389 . S
C925 C926 1.524 . S
C926 C925 1.524 . S
C926 C927 1.397 . S
C926 C931 1.363 . S
C927 H898 0.950 . S
C927 C926 1.397 . S
C927 C928 1.334 . S
C928 H899 0.950 . S
C928 C927 1.334 . S
C928 C929 1.287 . S
C929 C928 1.287 . S
C929 C930 1.524 . S
C929 H932 0.999 . S
C930 H900 0.950 . S
C930 C929 1.524 . S
C930 C931 1.415 . S
C931 H901 0.950 . S
C931 C926 1.363 . S
C931 C930 1.415 . S
H932 C929 0.999 . S
H933 C914 0.913 . S
H934 C952 0.951 . S
H935 C954 0.951 . S
H936 C956 0.950 . S
H937 C957 0.950 . S
H938 C959 0.950 . S
H939 C962 0.950 . S
H940 C963 0.950 . S
H941 C965 0.950 . S
H942 C966 0.950 . S
H943 C967 0.951 . S
H944 C969 0.951 . S
H945 C971 0.950 . S
H946 C972 0.950 . S
H947 C974 0.950 . S
H948 C977 0.950 . S
H949 C978 0.950 . S
H950 C980 0.950 . S
H951 C981 0.950 . S
C952 H934 0.951 . S
C952 C953 1.366 . S
C952 C954 1.388 . S
C953 C952 1.366 . S
C953 C957 1.385 . S
C954 H935 0.951 . S
C954 C952 1.388 . S
C954 C955 1.366 . S
C955 C954 1.366 . S
C955 C956 1.414 . S
C955 C958 1.499 . S
C956 H936 0.950 . S
C956 C955 1.414 . S
C956 C957 1.374 . S
C957 H937 0.950 . S
C957 C953 1.385 . S
C957 C956 1.374 . S
C958 C955 1.499 . S
C958 C959 1.373 . S
C958 C960 1.389 . S
C959 H938 0.950 . S
C959 C958 1.373 . S
C959 C975 1.377 . S
C960 C958 1.389 . S
C960 C961 1.524 . S
C960 C974 1.377 . S
C961 C960 1.524 . S
C961 C962 1.397 . S
C961 C966 1.363 . S
C962 H939 0.950 . S
C962 C961 1.397 . S
C962 C963 1.334 . S
C963 H940 0.950 . S
C963 C962 1.334 . S
C963 C964 1.287 . S
C964 C963 1.287 . S
C964 C965 1.524 . S
C964 H983 0.913 . S
C965 H941 0.950 . S
C965 C964 1.524 . S
C965 C966 1.415 . S
C966 H942 0.950 . S
C966 C961 1.363 . S
C966 C965 1.415 . S
C967 H943 0.951 . S
C967 C968 1.366 . S
C967 C969 1.388 . S
C968 C967 1.366 . S
C968 C972 1.385 . S
C969 H944 0.951 . S
C969 C967 1.388 . S
C969 C970 1.366 . S
C970 C969 1.366 . S
C970 C971 1.414 . S
C970 C973 1.499 . S
C971 H945 0.950 . S
C971 C970 1.414 . S
C971 C972 1.374 . S
C972 H946 0.950 . S
C972 C968 1.385 . S
C972 C971 1.374 . S
C973 C970 1.499 . S
C973 C974 1.373 . S
C973 C975 1.389 . S
C974 H947 0.950 . S
C974 C960 1.377 . S
C974 C973 1.373 . S
C975 C959 1.377 . S
C975 C973 1.389 . S
C975 C976 1.524 . S
C976 C975 1.524 . S
C976 C977 1.397 . S
C976 C981 1.363 . S
C977 H948 0.950 . S
C977 C976 1.397 . S
C977 C978 1.334 . S
C978 H949 0.950 . S
C978 C977 1.334 . S
C978 C979 1.287 . S
C979 C978 1.287 . S
C979 C980 1.524 . S
C979 H982 0.999 . S
C980 H950 0.950 . S
C980 C979 1.524 . S
C980 C981 1.415 . S
C981 H951 0.950 . S
C981 C976 1.363 . S
C981 C980 1.415 . S
H982 C979 0.999 . S
H983 C964 0.913 . S
H984 C1002 0.951 . S
H985 C1004 0.951 . S
H986 C1006 0.950 . S
H987 C1007 0.950 . S
H988 C1009 0.950 . S
H989 C1012 0.950 . S
H990 C1013 0.950 . S
H991 C1015 0.950 . S
H992 C1016 0.950 . S
H993 C1017 0.951 . S
H994 C1019 0.951 . S
H995 C1021 0.950 . S
H996 C1022 0.950 . S
H997 C1024 0.950 . S
H998 C1027 0.950 . S
H999 C1028 0.950 . S
H1000 C1030 0.950 . S
H1001 C1031 0.950 . S
C1002 H984 0.951 . S
C1002 C1003 1.366 . S
C1002 C1004 1.388 . S
C1003 C1002 1.366 . S
C1003 C1007 1.385 . S
C1004 H985 0.951 . S
C1004 C1002 1.388 . S
C1004 C1005 1.366 . S
C1005 C1004 1.366 . S
C1005 C1006 1.414 . S
C1005 C1008 1.499 . S
C1006 H986 0.950 . S
C1006 C1005 1.414 . S
C1006 C1007 1.374 . S
C1007 H987 0.950 . S
C1007 C1003 1.385 . S
C1007 C1006 1.374 . S
C1008 C1005 1.499 . S
C1008 C1009 1.373 . S
C1008 C1010 1.389 . S
C1009 H988 0.950 . S
C1009 C1008 1.373 . S
C1009 C1025 1.377 . S
C1010 C1008 1.389 . S
C1010 C1011 1.524 . S
C1010 C1024 1.377 . S
C1011 C1010 1.524 . S
C1011 C1012 1.397 . S
C1011 C1016 1.363 . S
C1012 H989 0.950 . S
C1012 C1011 1.397 . S
C1012 C1013 1.334 . S
C1013 H990 0.950 . S
C1013 C1012 1.334 . S
C1013 C1014 1.287 . S
C1014 C1013 1.287 . S
C1014 C1015 1.524 . S
C1014 H1033 0.913 . S
C1015 H991 0.950 . S
C1015 C1014 1.524 . S
C1015 C1016 1.415 . S
C1016 H992 0.950 . S
C1016 C1011 1.363 . S
C1016 C1015 1.415 . S
C1017 H993 0.951 . S
C1017 C1018 1.366 . S
C1017 C1019 1.388 . S
C1018 C1017 1.366 . S
C1018 C1022 1.385 . S
C1019 H994 0.951 . S
C1019 C1017 1.388 . S
C1019 C1020 1.366 . S
C1020 C1019 1.366 . S
C1020 C1021 1.414 . S
C1020 C1023 1.499 . S
C1021 H995 0.950 . S
C1021 C1020 1.414 . S
C1021 C1022 1.374 . S
C1022 H996 0.950 . S
C1022 C1018 1.385 . S
C1022 C1021 1.374 . S
C1023 C1020 1.499 . S
C1023 C1024 1.373 . S
C1023 C1025 1.389 . S
C1024 H997 0.950 . S
C1024 C1010 1.377 . S
C1024 C1023 1.373 . S
C1025 C1009 1.377 . S
C1025 C1023 1.389 . S
C1025 C1026 1.524 . S
C1026 C1025 1.524 . S
C1026 C1027 1.397 1_545 S
C1026 C1031 1.363 . S
C1027 H998 0.950 . S
C1027 C1026 1.397 1_565 S
C1027 C1028 1.334 . S
C1028 H999 0.950 . S
C1028 C1027 1.334 . S
C1028 C1029 1.287 . S
C1029 C1028 1.287 . S
C1029 C1030 1.524 1_565 S
C1029 H1032 0.999 . S
C1030 H1000 0.950 . S
C1030 C1029 1.524 1_545 S
C1030 C1031 1.415 . S
C1031 H1001 0.950 . S
C1031 C1026 1.363 . S
C1031 C1030 1.415 . S
H1032 C1029 0.999 . S
H1033 C1014 0.913 . S
H1034 C1052 0.951 . S
H1035 C1054 0.951 . S
H1036 C1056 0.950 . S
H1037 C1057 0.950 . S
H1038 C1059 0.950 . S
H1039 C1062 0.950 . S
H1040 C1063 0.950 . S
H1041 C1065 0.950 . S
H1042 C1066 0.950 1_554 S
H1043 C1067 0.951 . S
H1044 C1069 0.951 . S
H1045 C1071 0.950 . S
H1046 C1072 0.950 . S
H1047 C1074 0.950 . S
H1048 C1077 0.950 . S
H1049 C1078 0.950 . S
H1050 C1080 0.950 . S
H1051 C1081 0.950 . S
C1052 H1034 0.951 . S
C1052 C1053 1.366 . S
C1052 C1054 1.388 . S
C1053 C1052 1.366 . S
C1053 C1057 1.385 . S
C1054 H1035 0.951 . S
C1054 C1052 1.388 . S
C1054 C1055 1.366 . S
C1055 C1054 1.366 . S
C1055 C1056 1.414 . S
C1055 C1058 1.499 . S
C1056 H1036 0.950 . S
C1056 C1055 1.414 . S
C1056 C1057 1.374 . S
C1057 H1037 0.950 . S
C1057 C1053 1.385 . S
C1057 C1056 1.374 . S
C1058 C1055 1.499 . S
C1058 C1059 1.373 . S
C1058 C1060 1.389 . S
C1059 H1038 0.950 . S
C1059 C1058 1.373 . S
C1059 C1075 1.377 . S
C1060 C1058 1.389 . S
C1060 C1061 1.524 . S
C1060 C1074 1.377 1_556 S
C1061 C1060 1.524 . S
C1061 C1062 1.397 . S
C1061 C1066 1.363 . S
C1062 H1039 0.950 . S
C1062 C1061 1.397 . S
C1062 C1063 1.334 . S
C1063 H1040 0.950 . S
C1063 C1062 1.334 . S
C1063 C1064 1.287 . S
C1064 C1063 1.287 . S
C1064 C1065 1.524 . S
C1064 H1083 0.913 . S
C1065 H1041 0.950 . S
C1065 C1064 1.524 . S
C1065 C1066 1.415 . S
C1066 H1042 0.950 1_556 S
C1066 C1061 1.363 . S
C1066 C1065 1.415 . S
C1067 H1043 0.951 . S
C1067 C1068 1.366 . S
C1067 C1069 1.388 . S
C1068 C1067 1.366 . S
C1068 C1072 1.385 . S
C1069 H1044 0.951 . S
C1069 C1067 1.388 . S
C1069 C1070 1.366 . S
C1070 C1069 1.366 . S
C1070 C1071 1.414 . S
C1070 C1073 1.499 . S
C1071 H1045 0.950 . S
C1071 C1070 1.414 . S
C1071 C1072 1.374 . S
C1072 H1046 0.950 . S
C1072 C1068 1.385 . S
C1072 C1071 1.374 . S
C1073 C1070 1.499 . S
C1073 C1074 1.373 . S
C1073 C1075 1.389 1_554 S
C1074 H1047 0.950 . S
C1074 C1060 1.377 1_554 S
C1074 C1073 1.373 . S
C1075 C1059 1.377 . S
C1075 C1073 1.389 1_556 S
C1075 C1076 1.524 . S
C1076 C1075 1.524 . S
C1076 C1077 1.397 1_556 S
C1076 C1081 1.363 . S
C1077 H1048 0.950 . S
C1077 C1076 1.397 1_554 S
C1077 C1078 1.334 . S
C1078 H1049 0.950 . S
C1078 C1077 1.334 . S
C1078 C1079 1.287 . S
C1079 C1078 1.287 . S
C1079 C1080 1.524 1_554 S
C1079 H1082 0.999 . S
C1080 H1050 0.950 . S
C1080 C1079 1.524 1_556 S
C1080 C1081 1.415 . S
C1081 H1051 0.950 . S
C1081 C1076 1.363 . S
C1081 C1080 1.415 . S
H1082 C1079 0.999 . S
H1083 C1064 0.913 . S
H1084 C1102 0.951 . S
H1085 C1104 0.951 . S
H1086 C1106 0.950 . S
H1087 C1107 0.950 . S
H1088 C1109 0.950 . S
H1089 C1112 0.950 . S
H1090 C1113 0.950 . S
H1091 C1115 0.950 . S
H1092 C1116 0.950 . S
H1093 C1117 0.951 1_655 S
H1094 C1119 0.951 1_655 S
H1095 C1121 0.950 . S
H1096 C1122 0.950 . S
H1097 C1124 0.950 . S
H1098 C1127 0.950 . S
H1099 C1128 0.950 . S
H1100 C1130 0.950 . S
H1101 C1131 0.950 . S
C1102 H1084 0.951 . S
C1102 C1103 1.366 . S
C1102 C1104 1.388 . S
C1103 C1102 1.366 . S
C1103 C1107 1.385 . S
C1104 H1085 0.951 . S
C1104 C1102 1.388 . S
C1104 C1105 1.366 . S
C1105 C1104 1.366 . S
C1105 C1106 1.414 . S
C1105 C1108 1.499 . S
C1106 H1086 0.950 . S
C1106 C1105 1.414 . S
C1106 C1107 1.374 . S
C1107 H1087 0.950 . S
C1107 C1103 1.385 . S
C1107 C1106 1.374 . S
C1108 C1105 1.499 . S
C1108 C1109 1.373 . S
C1108 C1110 1.389 . S
C1109 H1088 0.950 . S
C1109 C1108 1.373 . S
C1109 C1125 1.377 . S
C1110 C1108 1.389 . S
C1110 C1111 1.524 . S
C1110 C1124 1.377 . S
C1111 C1110 1.524 . S
C1111 C1112 1.397 1_455 S
C1111 C1116 1.363 . S
C1112 H1089 0.950 . S
C1112 C1111 1.397 1_655 S
C1112 C1113 1.334 . S
C1113 H1090 0.950 . S
C1113 C1112 1.334 . S
C1113 C1114 1.287 . S
C1114 C1113 1.287 . S
C1114 C1115 1.524 1_655 S
C1114 H1133 0.913 . S
C1115 H1091 0.950 . S
C1115 C1114 1.524 1_455 S
C1115 C1116 1.415 . S
C1116 H1092 0.950 . S
C1116 C1111 1.363 . S
C1116 C1115 1.415 . S
C1117 H1093 0.951 1_455 S
C1117 C1118 1.366 . S
C1117 C1119 1.388 . S
C1118 C1117 1.366 . S
C1118 C1122 1.385 . S
C1119 H1094 0.951 1_455 S
C1119 C1117 1.388 . S
C1119 C1120 1.366 . S
C1120 C1119 1.366 . S
C1120 C1121 1.414 . S
C1120 C1123 1.499 . S
C1121 H1095 0.950 . S
C1121 C1120 1.414 . S
C1121 C1122 1.374 . S
C1122 H1096 0.950 . S
C1122 C1118 1.385 . S
C1122 C1121 1.374 . S
C1123 C1120 1.499 . S
C1123 C1124 1.373 . S
C1123 C1125 1.389 . S
C1124 H1097 0.950 . S
C1124 C1110 1.377 . S
C1124 C1123 1.373 . S
C1125 C1109 1.377 . S
C1125 C1123 1.389 . S
C1125 C1126 1.524 . S
C1126 C1125 1.524 . S
C1126 C1127 1.397 . S
C1126 C1131 1.363 . S
C1127 H1098 0.950 . S
C1127 C1126 1.397 . S
C1127 C1128 1.334 . S
C1128 H1099 0.950 . S
C1128 C1127 1.334 . S
C1128 C1129 1.287 . S
C1129 C1128 1.287 . S
C1129 C1130 1.524 . S
C1129 H1132 0.999 . S
C1130 H1100 0.950 . S
C1130 C1129 1.524 . S
C1130 C1131 1.415 . S
C1131 H1101 0.950 . S
C1131 C1126 1.363 . S
C1131 C1130 1.415 . S
H1132 C1129 0.999 . S
H1133 C1114 0.913 . S
C253 C6 0.604 . S
C268 C226 0.650 . S
C303 C59 1.983 . S
C318 C188 1.921 . S
C353 C86 1.264 . S
C368 C207 1.211 . S
C403 C15 0.168 . S
C418 C221 0.214 . S
C468 C183 1.837 . S
C453 C50 1.854 . S
C518 C202 1.072 . S
C503 C95 1.085 . S
C553 C46 1.318 . S
C568 C150 1.248 . S
C603 C99 3.028 . S
C618 C164 3.004 1_655 S
C653 C10 1.861 . S
C668 C126 1.853 1_565 S
C718 C145 1.058 . S
C703 C55 1.069 . S
C768 C169 3.045 . S
C753 C90 3.092 . S
C803 C19 1.987 . S
C818 C131 1.933 . S
C868 C160 1.713 . S
C853 C18 1.691 . S
C903 C49 1.473 . S
C918 C122 1.541 . S
C953 C98 1.558 . S
C968 C141 1.578 . S
C1018 C198 1.572 . S
C1003 C58 1.573 . S
C1068 C217 1.399 . S
C1053 C89 1.368 . S
C1103 C9 1.445 . S
C1118 C179 1.498 . S
